
#######################################################################
#
#                 Cambridge Crystallographic Data Centre
#                                CCDC 
#
#######################################################################
#
# If this CIF has been generated from an entry in the Cambridge 
# Structural Database, then it will include bibliographic, chemical, 
# crystal, experimental, refinement or atomic coordinate data resulting 
# from the CCDC's data processing and validation procedures.
#
#######################################################################

data_LIGDUC
_chemical_formula_moiety         'C21 H30 N4 2+,2(F6 P1 1-)'
_chemical_name_systematic        
'3-Ethyl-1-(3-((1-ethyl-1H-imidazol-3-ium-3-yl)methyl)-2,4,6-trimethylbenzyl)-1H-imidazol-3-ium bis(hexafluorophosphate)'
_symmetry_cell_setting           triclinic
_symmetry_space_group_name_H-M   'P -1'
_symmetry_Int_Tables_number      2
_space_group_name_Hall           '-P 1'
loop_
_symmetry_equiv_pos_site_id
_symmetry_equiv_pos_as_xyz
1 x,y,z
2 -x,-y,-z
_cell_length_a                   8.9731(9)
_cell_length_b                   10.3052(10)
_cell_length_c                   15.8277(16)
_cell_angle_alpha                97.7700(10)
_cell_angle_beta                 105.180(2)
_cell_angle_gamma                96.660(2)
_cell_volume                     1381.9
_exptl_crystal_colour            colorless
_exptl_crystal_description       BLOCK
_cell_formula_units_Z            2
loop_
_atom_site_label
_atom_site_type_symbol
_atom_site_fract_x
_atom_site_fract_y
_atom_site_fract_z
P1 P 0.83850(13) 0.28771(10) 0.57472(6)
F1 F 0.7423(5) 0.3313(3) 0.4864(2)
F2 F 0.6938(4) 0.1764(3) 0.5653(3)
F3 F 0.9274(5) 0.2401(3) 0.66200(19)
F4 F 0.9777(4) 0.4001(3) 0.5840(3)
F5 F 0.9062(4) 0.1847(3) 0.51802(19)
F6 F 0.7678(4) 0.3897(3) 0.6322(2)
P2 P 0.69148(13) 0.71146(10) 0.82860(7)
F7 F 0.5379(5) 0.7470(4) 0.8508(3)
F8 F 0.6095(7) 0.5861(5) 0.7625(4)
F9 F 0.8439(5) 0.6737(4) 0.8071(4)
F10 F 0.7820(6) 0.8323(5) 0.9016(3)
F11 F 0.6774(10) 0.8025(6) 0.7607(4)
F12 F 0.7094(7) 0.6224(5) 0.9004(3)
N1 N -0.1782(4) -0.2395(3) 0.5909(2)
N2 N 0.0595(3) -0.1770(3) 0.67180(18)
N3 N 0.7545(3) 0.2535(3) 0.81183(18)
N4 N 0.9982(4) 0.3340(4) 0.8690(2)
C1 C -0.3369(7) -0.3536(7) 0.4434(4)
H1 H -0.3235 -0.2717 0.4217
H2 H -0.4377 -0.4037 0.4115
H3 H -0.2569 -0.4039 0.4348
C2 C -0.3259(5) -0.3257(5) 0.5376(3)
H4 H -0.3335 -0.4087 0.5598
H5 H -0.4134 -0.2829 0.5452
C3 C -0.1519(5) -0.1040(4) 0.6043(3)
H6 H -0.2232 -0.0493 0.5827
C4 C -0.0032(4) -0.0648(4) 0.6547(3)
H7 H 0.0477 0.0223 0.6743
C5 C -0.0494(4) -0.2806(3) 0.6308(2)
H8 H -0.0365 -0.3690 0.6303
C6 C 0.2219(4) -0.1859(4) 0.7199(3)
H9 H 0.2773 -0.2133 0.6772
H10 H 0.2207 -0.2531 0.7571
C7 C 0.3087(4) -0.0550(3) 0.7772(2)
C8 C 0.2944(4) -0.0216(4) 0.8626(3)
C9 C 0.3781(4) 0.0971(4) 0.9152(2)
H11 H 0.3714 0.1182 0.9729
C10 C 0.4707(4) 0.1843(4) 0.8840(2)
C11 C 0.4846(4) 0.1506(3) 0.7984(2)
C12 C 0.4039(4) 0.0306(3) 0.7443(2)
C13 C 0.4216(6) -0.0078(5) 0.6512(3)
H12 H 0.4494 -0.0951 0.6448
H13 H 0.5020 0.0546 0.6425
H14 H 0.3244 -0.0072 0.6077
C14 C 0.1944(6) -0.1110(5) 0.9016(4)
H15 H 0.1990 -0.0693 0.9605
H16 H 0.2326 -0.1940 0.9042
H17 H 0.0881 -0.1263 0.8650
C15 C 0.5568(5) 0.3120(4) 0.9441(3)
H18 H 0.5182 0.3252 0.9952
H19 H 0.5404 0.3847 0.9125
H20 H 0.6665 0.3074 0.9628
C16 C 0.5862(4) 0.2460(4) 0.7645(2)
H21 H 0.5695 0.2173 0.7013
H22 H 0.5566 0.3334 0.7729
C17 C 0.8293(5) 0.1526(4) 0.8418(3)
H23 H 0.7837 0.0654 0.8379
C18 C 0.9802(5) 0.2040(5) 0.8776(4)
H24 H 1.0591 0.1588 0.9038
C19 C 0.8589(4) 0.3613(4) 0.8285(2)
H25 H 0.8384 0.4433 0.8141
C20 C 1.1443(6) 0.4311(7) 0.8963(4)
H26 H 1.1247 0.5142 0.9249
H27 H 1.2227 0.3986 0.9397
C21 C 1.2055(7) 0.4556(7) 0.8231(4)
H28 H 1.2311 0.3749 0.7966
H29 H 1.2978 0.5214 0.8445
H30 H 1.1282 0.4868 0.7795
loop_
_geom_bond_atom_site_label_1
_geom_bond_atom_site_label_2
_geom_bond_site_symmetry_1
_geom_bond_site_symmetry_2
P1 F1 1_555 1_555
F2 P1 1_555 1_555
F3 P1 1_555 1_555
F4 P1 1_555 1_555
F5 P1 1_555 1_555
F6 P1 1_555 1_555
P2 F7 1_555 1_555
F8 P2 1_555 1_555
F9 P2 1_555 1_555
F10 P2 1_555 1_555
F11 P2 1_555 1_555
F12 P2 1_555 1_555
N1 C2 1_555 1_555
N2 C4 1_555 1_555
N3 C16 1_555 1_555
N4 C18 1_555 1_555
C1 H1 1_555 1_555
H2 C1 1_555 1_555
H3 C1 1_555 1_555
C2 C1 1_555 1_555
H4 C2 1_555 1_555
H5 C2 1_555 1_555
C3 N1 1_555 1_555
H6 C3 1_555 1_555
C4 C3 1_555 1_555
H7 C4 1_555 1_555
C5 N1 1_555 1_555
H8 C5 1_555 1_555
C6 N2 1_555 1_555
H9 C6 1_555 1_555
H10 C6 1_555 1_555
C7 C6 1_555 1_555
C8 C7 1_555 1_555
C9 C8 1_555 1_555
H11 C9 1_555 1_555
C10 C9 1_555 1_555
C11 C10 1_555 1_555
C12 C7 1_555 1_555
C13 C12 1_555 1_555
H12 C13 1_555 1_555
H13 C13 1_555 1_555
H14 C13 1_555 1_555
C14 C8 1_555 1_555
H15 C14 1_555 1_555
H16 C14 1_555 1_555
H17 C14 1_555 1_555
C15 C10 1_555 1_555
H18 C15 1_555 1_555
H19 C15 1_555 1_555
H20 C15 1_555 1_555
C16 C11 1_555 1_555
H21 C16 1_555 1_555
H22 C16 1_555 1_555
C17 N3 1_555 1_555
H23 C17 1_555 1_555
C18 C17 1_555 1_555
H24 C18 1_555 1_555
C19 N3 1_555 1_555
H25 C19 1_555 1_555
C20 N4 1_555 1_555
H26 C20 1_555 1_555
H27 C20 1_555 1_555
C21 C20 1_555 1_555
H28 C21 1_555 1_555
H29 C21 1_555 1_555
H30 C21 1_555 1_555
N2 C5 1_555 1_555
N4 C19 1_555 1_555
C11 C12 1_555 1_555

#END
