
#######################################################################
#
#                 Cambridge Crystallographic Data Centre
#                                CCDC 
#
#######################################################################
#
# If this CIF has been generated from an entry in the Cambridge 
# Structural Database, then it will include bibliographic, chemical, 
# crystal, experimental, refinement or atomic coordinate data resulting 
# from the CCDC's data processing and validation procedures.
#
#######################################################################

data_LIGFUE
_chemical_formula_moiety         'C23 H40 N2 O6,0.66(C7 H8)'
_chemical_name_systematic        
'2,2,4,4,14,14,16,16-Octamethyl-7,11,18,21-tetraoxa-3,15-diazatrispiro[5.2.2.5^12^.2^9^.2^6^]henicosane-3,15-dioxide toluene solvate'
_symmetry_cell_setting           rhombohedral
_symmetry_space_group_name_H-M   'R -3 c'
_symmetry_Int_Tables_number      167
_space_group_name_Hall           '-R 3 2"c'
loop_
_symmetry_equiv_pos_site_id
_symmetry_equiv_pos_as_xyz
1 x,y,z
2 -y,x-y,z
3 -x+y,-x,z
4 x-y,-y,1/2-z
5 -x,-x+y,1/2-z
6 y,x,1/2-z
7 2/3+x,1/3+y,1/3+z
8 2/3-y,1/3+x-y,1/3+z
9 2/3-x+y,1/3-x,1/3+z
10 2/3+x-y,1/3-y,5/6-z
11 2/3-x,1/3-x+y,5/6-z
12 2/3+y,1/3+x,5/6-z
13 1/3+x,2/3+y,2/3+z
14 1/3-y,2/3+x-y,2/3+z
15 1/3-x+y,2/3-x,2/3+z
16 1/3+x-y,2/3-y,1/6-z
17 1/3-x,2/3-x+y,1/6-z
18 1/3+y,2/3+x,1/6-z
19 -x,-y,-z
20 y,-x+y,-z
21 x-y,x,-z
22 -x+y,y,1/2+z
23 x,x-y,1/2+z
24 -y,-x,1/2+z
25 1/3-x,2/3-y,2/3-z
26 1/3+y,2/3-x+y,2/3-z
27 1/3+x-y,2/3+x,2/3-z
28 1/3-x+y,2/3+y,1/6+z
29 1/3+x,2/3+x-y,1/6+z
30 1/3-y,2/3-x,1/6+z
31 2/3-x,1/3-y,1/3-z
32 2/3+y,1/3-x+y,1/3-z
33 2/3+x-y,1/3+x,1/3-z
34 2/3-x+y,1/3+y,5/6+z
35 2/3+x,1/3+x-y,5/6+z
36 2/3-y,1/3-x,5/6+z
_cell_length_a                   25.1040(4)
_cell_length_b                   25.1040(4)
_cell_length_c                   30.000(3)
_cell_angle_alpha                90
_cell_angle_beta                 90
_cell_angle_gamma                120
_cell_volume                     16373.4
_exptl_crystal_colour            orange
_exptl_crystal_description       prism
_cell_formula_units_Z            18
loop_
_atom_site_label
_atom_site_type_symbol
_atom_site_fract_x
_atom_site_fract_y
_atom_site_fract_z
O1 O 0.27311(11) 0.22184(9) 0.01353(7)
O2 O 0.27844(8) 0.04642(8) 0.11776(5)
O3 O 0.35344(7) 0.10314(7) 0.06474(5)
N1 N 0.27548(11) 0.18007(10) 0.03700(7)
C1 C 0.29650(12) 0.09123(11) 0.08316(8)
C2 C 0.24503(12) 0.07106(11) 0.04893(8)
H1 H 0.2068 0.0584 0.0647
H2 H 0.2408 0.0354 0.0332
C3 C 0.25408(13) 0.11989(12) 0.01462(9)
C4 C 0.31691(15) 0.20261(12) 0.07658(9)
C5 C 0.30624(14) 0.14888(13) 0.10615(9)
H3 H 0.3413 0.1629 0.1259
H4 H 0.2705 0.1381 0.1246
C6 C 0.29979(17) 0.12793(15) -0.02179(9)
H5 H 0.3042 0.1595 -0.0421
H6 H 0.285 0.0899 -0.0377
H7 H 0.3389 0.1395 -0.0086
C7 C 0.19162(16) 0.10095(15) -0.00638(12)
H8 H 0.164 0.1 0.0162
H9 H 0.1751 0.0608 -0.0195
H10 H 0.1966 0.1301 -0.029
C8 C 0.38337(16) 0.23975(14) 0.06028(12)
H11 H 0.395 0.2127 0.0463
H12 H 0.41 0.2598 0.0852
H13 H 0.3868 0.2701 0.0392
C9 C 0.3001(2) 0.24439(16) 0.10315(13)
H14 H 0.3041 0.2771 0.0844
H15 H 0.3272 0.2614 0.1282
H16 H 0.2584 0.2208 0.1135
C10 C 0.35279(12) 0.04953(12) 0.04760(8)
H17 H 0.3935 0.0607 0.0368
H18 H 0.3245 0.0333 0.0227
C11 C 0.33336(14) 0.00002(14) 0.0833
C12 C 0.27378(12) -0.01014(11) 0.10371(9)
H19 H 0.241 -0.0298 0.082
H20 H 0.2634 -0.0375 0.1291
O1Q O 0.55517(9) -0.06022(11) 0.15314(7)
O2Q O 0.37975(8) -0.05489(8) 0.04891(5)
O3Q O 0.43647(7) 0.02011(7) 0.10193(5)
N1Q N 0.51340(10) -0.05785(11) 0.12967(7)
C1Q C 0.42456(11) -0.03683(12) 0.08351(8)
C2Q C 0.40439(11) -0.08830(12) 0.11774(8)
H1Q H 0.3917 -0.1265 0.1020
H2Q H 0.3687 -0.0925 0.1335
C3Q C 0.45322(12) -0.07925(13) 0.15205(9)
C4Q C 0.53594(12) -0.01642(15) 0.09009(9)
C5Q C 0.48221(13) -0.02709(14) 0.06052(9)
H3Q H 0.4962 0.0080 0.0408
H4Q H 0.4714 -0.0628 0.0421
C6Q C 0.46126(15) -0.03354(17) 0.18846(9)
H5Q H 0.4928 -0.0291 0.2088
H6Q H 0.4232 -0.048333 0.2044
H7Q H 0.4728 0.0056 0.1753
C7Q C 0.43428(15) -0.14171(16) 0.17305(12)
H8Q H 0.433333 -0.169333 0.1505
H9Q H 0.3941 -0.1582 0.1862
H10Q H 0.4634 -0.1367 0.195667
C8Q C 0.57308(14) 0.05004(16) 0.10639(12)
H11Q H 0.5460 0.061667 0.1204
H12Q H 0.5931 0.076667 0.0815
H13Q H 0.6034 0.0535 0.1275
C9Q C 0.57772(16) -0.0332(2) 0.06352(13)
H14Q H 0.6104 -0.0292 0.0823
H15Q H 0.5947 -0.0061 0.0385
H16Q H 0.5541 -0.0749 0.0532
C10Q C 0.38286(12) 0.01946(12) 0.11907(8)
H17Q H 0.3940 0.0602 0.1299
H18Q H 0.3666 -0.0088 0.1440
C12Q C 0.32319(11) -0.05955(12) 0.06296(9)
H19Q H 0.3035 -0.092333 0.084667
H20Q H 0.2958 -0.0699 0.0376
C13 C 0.5980(5) 0.1935(5) 0.0018(5)
C14 C 0.5449(6) 0.1732(4) 0.0269(4)
H21 H 0.5402 0.1522 0.0535
C15 C 0.4987(5) 0.1842(5) 0.0124(5)
H22 H 0.4631 0.1706 0.0292
C16 C 0.5057(6) 0.2155(7) -0.0274(5)
H23 H 0.4748 0.2229 -0.0371
C17 C 0.5589(8) 0.2358(7) -0.0525(3)
H24 H 0.5636 0.2568 -0.0791
C18 C 0.6051(6) 0.2248(6) -0.0379(4)
H25 H 0.6406 0.2384 -0.0548
C19 C 0.6513(9) 0.1826(10) 0.0154(7)
H26 H 0.6706 0.2056 0.0419
H27 H 0.6809 0.1958 -0.0083
H28 H 0.6353 0.1396 0.021
loop_
_geom_bond_atom_site_label_1
_geom_bond_atom_site_label_2
_geom_bond_site_symmetry_1
_geom_bond_site_symmetry_2
O1 N1 1_555 1_555
O2 C1 1_555 1_555
O3 C1 1_555 1_555
N1 C3 1_555 1_555
C1 C2 1_555 1_555
C2 H1 1_555 1_555
H2 C2 1_555 1_555
C3 C2 1_555 1_555
C4 N1 1_555 1_555
C5 C1 1_555 1_555
H3 C5 1_555 1_555
H4 C5 1_555 1_555
C6 C3 1_555 1_555
H5 C6 1_555 1_555
H6 C6 1_555 1_555
H7 C6 1_555 1_555
C7 C3 1_555 1_555
H8 C7 1_555 1_555
H9 C7 1_555 1_555
H10 C7 1_555 1_555
C8 C4 1_555 1_555
H11 C8 1_555 1_555
H12 C8 1_555 1_555
H13 C8 1_555 1_555
C9 C4 1_555 1_555
H14 C9 1_555 1_555
H15 C9 1_555 1_555
H16 C9 1_555 1_555
C10 O3 1_555 1_555
H17 C10 1_555 1_555
H18 C10 1_555 1_555
C11 C10 1_555 1_555
C12 O2 1_555 1_555
H19 C12 1_555 1_555
H20 C12 1_555 1_555
C13 C14 1_555 1_555
C14 H21 1_555 1_555
C15 C14 1_555 1_555
H22 C15 1_555 1_555
C16 C15 1_555 1_555
H23 C16 1_555 1_555
C17 C16 1_555 1_555
H24 C17 1_555 1_555
C18 C13 1_555 1_555
H25 C18 1_555 1_555
C19 C13 1_555 1_555
H26 C19 1_555 1_555
H27 C19 1_555 1_555
H28 C19 1_555 1_555
O1Q N1Q 1_555 1_555
O2Q C1Q 1_555 1_555
O3Q C1Q 1_555 1_555
N1Q C3Q 1_555 1_555
C1Q C2Q 1_555 1_555
C2Q H1Q 1_555 1_555
H2Q C2Q 1_555 1_555
C3Q C2Q 1_555 1_555
C4Q N1Q 1_555 1_555
C5Q C1Q 1_555 1_555
H3Q C5Q 1_555 1_555
H4Q C5Q 1_555 1_555
C6Q C3Q 1_555 1_555
H5Q C6Q 1_555 1_555
H6Q C6Q 1_555 1_555
H7Q C6Q 1_555 1_555
C7Q C3Q 1_555 1_555
H8Q C7Q 1_555 1_555
H9Q C7Q 1_555 1_555
H10Q C7Q 1_555 1_555
C8Q C4Q 1_555 1_555
H11Q C8Q 1_555 1_555
H12Q C8Q 1_555 1_555
H13Q C8Q 1_555 1_555
C9Q C4Q 1_555 1_555
H14Q C9Q 1_555 1_555
H15Q C9Q 1_555 1_555
H16Q C9Q 1_555 1_555
C10Q C11 1_555 1_555
H17Q C10Q 1_555 1_555
H18Q C10Q 1_555 1_555
C12Q C11 1_555 1_555
H19Q C12Q 1_555 1_555
H20Q C12Q 1_555 1_555
C4 C5 1_555 1_555
C11 C12 1_555 1_555
C17 C18 1_555 1_555
O2Q C12Q 1_555 1_555
O3Q C10Q 1_555 1_555
C4Q C5Q 1_555 1_555

#END
