
#######################################################################
#
#                 Cambridge Crystallographic Data Centre
#                                CCDC 
#
#######################################################################
#
# If this CIF has been generated from an entry in the Cambridge 
# Structural Database, then it will include bibliographic, chemical, 
# crystal, experimental, refinement or atomic coordinate data resulting 
# from the CCDC's data processing and validation procedures.
#
#######################################################################

data_LIGJES
_chemical_formula_moiety         'C11 H10 F3 N1 O2 S1'
_chemical_name_systematic        
'Methyl (2-(trifluoromethyl)-2,3-dihydro-1,3-benzothiazol-2-yl)acetate'
_symmetry_cell_setting           orthorhombic
_symmetry_space_group_name_H-M   'A b a 2'
_symmetry_Int_Tables_number      41
_space_group_name_Hall           'A 2 -2ab'
loop_
_symmetry_equiv_pos_site_id
_symmetry_equiv_pos_as_xyz
1 x,y,z
2 -x,-y,z
3 1/2+x,1/2-y,z
4 1/2-x,1/2+y,z
5 x,1/2+y,1/2+z
6 -x,1/2-y,1/2+z
7 1/2+x,-y,1/2+z
8 1/2-x,y,1/2+z
_cell_length_a                   10.976(6)
_cell_length_b                   32.142(18)
_cell_length_c                   6.713(4)
_cell_angle_alpha                90
_cell_angle_beta                 90
_cell_angle_gamma                90
_cell_volume                     2368.28
_cell_formula_units_Z            8
loop_
_atom_site_label
_atom_site_type_symbol
_atom_site_fract_x
_atom_site_fract_y
_atom_site_fract_z
S1 S 1.15792(9) 0.15171(4) 0.0742(2)
F1 F 0.9754(3) 0.04641(8) 0.0577(6)
F2 F 1.0920(3) 0.07551(12) -0.1535(6)
O1 O 0.9434(3) 0.05105(11) 0.5024(6)
O2 O 0.8047(3) 0.09456(12) 0.3845(7)
C1 C 0.8693(4) 0.17903(13) -0.2435(8)
C2 C 0.9528(4) 0.16231(13) -0.1139(8)
F3 F 1.1629(3) 0.05640(11) 0.1268(6)
C3 C 1.0257(5) 0.22504(15) -0.3686(9)
C4 C 1.0324(3) 0.11524(13) 0.1265(7)
C5 C 0.9097(4) 0.08525(14) 0.4131(7)
C6 C 1.0717(4) 0.17650(13) -0.1107(8)
N1 N 0.9289(3) 0.13225(12) 0.0301(7)
C7 C 1.0176(4) 0.11209(16) 0.3534(7)
C8 C 1.1099(4) 0.20794(12) -0.2365(8)
C9 C 1.0667(5) 0.07311(15) 0.0414(9)
C10 C 0.9069(5) 0.21036(16) -0.3731(9)
C11 C 0.8455(4) 0.02300(17) 0.5700(12)
loop_
_geom_bond_atom_site_label_1
_geom_bond_atom_site_label_2
_geom_bond_site_symmetry_1
_geom_bond_site_symmetry_2
S1 C4 1_555 1_555
F1 C9 1_555 1_555
F2 C9 1_555 1_555
O1 C5 1_555 1_555
O2 C5 1_555 1_555
C1 C2 1_555 1_555
C2 C6 1_555 1_555
F3 C9 1_555 1_555
C3 C8 1_555 1_555
C4 N1 1_555 1_555
C5 C7 1_555 1_555
C6 S1 1_555 1_555
N1 C2 1_555 1_555
C7 C4 1_555 1_555
C8 C6 1_555 1_555
C9 C4 1_555 1_555
C10 C1 1_555 1_555
C11 O1 1_555 1_555
C3 C10 1_555 1_555

#END
