
#######################################################################
#
#                 Cambridge Crystallographic Data Centre
#                                CCDC 
#
#######################################################################
#
# If this CIF has been generated from an entry in the Cambridge 
# Structural Database, then it will include bibliographic, chemical, 
# crystal, experimental, refinement or atomic coordinate data resulting 
# from the CCDC's data processing and validation procedures.
#
#######################################################################

data_LIGKAN
_chemical_name_common            SB201993
_chemical_formula_moiety         'C32 H37 N1 O6 S1'
_chemical_name_systematic        
'(E)-3-((((6-(2-Carboxyethenyl)-5-((8-(4-methoxyphenyl)octyl)oxy)-2-pyridinyl)methyl)thio)methyl)benzoic acid'
_chemical_properties_biological  'novel potent LTB4 receptor antagonist agent'
_symmetry_cell_setting           monoclinic
_symmetry_space_group_name_H-M   'P 21/n'
_symmetry_Int_Tables_number      14
_space_group_name_Hall           '-P 2yn'
loop_
_symmetry_equiv_pos_site_id
_symmetry_equiv_pos_as_xyz
1 x,y,z
2 1/2-x,1/2+y,1/2-z
3 -x,-y,-z
4 1/2+x,1/2-y,1/2+z
_cell_length_a                   13.513(1)
_cell_length_b                   8.863(1)
_cell_length_c                   24.851(2)
_cell_angle_alpha                90
_cell_angle_beta                 93.29(1)
_cell_angle_gamma                90
_cell_volume                     2971.39
_exptl_crystal_colour            'light tan'
_chemical_melting_point          113-114deg.C
_cell_formula_units_Z            4
loop_
_atom_site_label
_atom_site_type_symbol
_atom_site_fract_x
_atom_site_fract_y
_atom_site_fract_z
S1 S 0.0077(1) 0.1881(1) 0.7677(1)
O1 O 0.1344(1) -0.0858(2) 1.0425(1)
O2 O 0.0994(1) -0.2465(2) 0.9747(1)
O3 O -0.0896(1) -0.5241(2) 0.9577(1)
O4 O -0.1346(1) -0.6848(1) 0.8915(1)
O5 O -0.1421(1) -0.4935(1) 0.7066(1)
O6 O -0.1395(1) -1.7045(2) 0.2671(1)
N1 N -0.1089(1) -0.1815(2) 0.7993(1)
C1 C 0.1102(1) 0.1086(2) 0.8636(1)
C2 C 0.1080(1) -0.0109(2) 0.8993(1)
C3 C 0.1161(1) 0.0138(2) 0.9549(1)
C4 C 0.1246(1) 0.1602(2) 0.9745(1)
C5 C 0.1252(1) 0.2799(2) 0.9392(1)
C6 C 0.1186(1) 0.2543(2) 0.8843(1)
C7 C 0.1160(1) -0.1159(2) 0.9922(1)
C8 C 0.1047(1) 0.0823(2) 0.8037(1)
C9 C -0.0995(1) 0.0898(2) 0.7902(1)
C10 C -0.1119(1) -0.0643(2) 0.7660(1)
C11 C -0.1200(1) -0.3218(2) 0.7788(1)
C12 C -0.1333(1) -0.3478(2) 0.7231(1)
C13 C -0.1373(1) -0.2242(2) 0.6888(1)
C14 C -0.1268(1) -0.0830(2) 0.7105(1)
C15 C -0.1201(1) -0.4462(2) 0.8173(1)
C16 C -0.1041(1) -0.4294(2) 0.8704(1)
C17 C -0.1100(1) -0.5553(2) 0.9077(1)
C18 C -0.1475(1) -0.5222(2) 0.6494(1)
C19 C -0.1442(1) -0.6902(2) 0.6423(1)
C20 C -0.1472(1) -0.7394(2) 0.5835(1)
C21 C -0.1375(1) -0.9096(2) 0.5782(1)
C22 C -0.1420(1) -0.9714(2) 0.5210(1)
C23 C -0.1335(1) -1.1425(2) 0.5200(1)
C24 C -0.1361(1) -1.2103(2) 0.4637(1)
C25 C -0.1205(1) -1.3803(2) 0.4649(1)
C26 C -0.1232(1) -1.4604(2) 0.4111(1)
C27 C -0.1195(1) -1.6174(2) 0.4095(1)
C28 C -0.1232(2) -1.6953(2) 0.3612(1)
C29 C -0.1318(1) -1.6178(2) 0.3130(1)
C30 C -0.1353(1) -1.4625(2) 0.3134(1)
C31 C -0.1305(1) -1.3859(2) 0.3623(1)
C32 C -0.1485(2) -1.6272(3) 0.2171(1)
H1 H 0.1288(17) -0.1638(6) 1.0606(1)
H2 H -0.0916(15) -0.6024(4) 0.9759(1)
H3 H 0.1010(1) -0.1099(2) 0.8860(1)
H4 H 0.1299(1) 0.1775(2) 1.0119(1)
H5 H 0.1301(1) 0.3791(2) 0.9525(1)
H6 H 0.1198(1) 0.3697(2) 0.8605(1)
H7 H 0.0939(1) -0.0255(2) 0.7968(1)
H8 H 0.1685(1) 0.1096(2) 0.7895(1)
H9 H -0.0934(1) 0.0806(2) 0.8295(1)
H10 H -0.1590(1) 0.1496(2) 0.7807(1)
H11 H -0.1470(1) -0.2373(2) 0.6513(1)
H12 H -0.1297(1) 0.0020(2) 0.6878(1)
H13 H -0.1322(1) -0.5440(2) 0.8038(1)
H14 H -0.0884(1) -0.3330(2) 0.8842(1)
H15 H -0.0916(1) -0.4746(2) 0.6325(1)
H16 H -0.2093(1) -0.4814(2) 0.6326(1)
H17 H -0.2005(1) -0.7353(2) 0.6595(1)
H18 H -0.08331 -0.7290(2) 0.6607(1)
H19 H -0.2099(1) -0.7066(2) 0.5654(1)
H20 H -0.0931(1) -0.6904(2) 0.5655(1)
H21 H -0.1906(1) -0.9569(2) 0.5976(1)
H22 H -0.0743(1) -0.9403(2) 0.5962(1)
H23 H -0.2048(1) -0.9412(2) 0.5024(1)
H24 H -0.0880(1) -0.9275(2) 0.5014(1)
H25 H -0.1880(1) -1.1855(2) 0.5394(1)
H26 H -0.0713(1) -1.1719(2) 0.5394(1)
H27 H -0.2002(1) -1.1879(2) 0.4451(1)
H28 H -0.0843(1) -1.1634(2) 0.4434(1)
H29 H -0.0561(1) -1.4007(2) 0.4837(1)
H30 H -0.1714(1) -1.4250(2) 0.4865(1)
H31 H -0.1143(1) -1.6717(2) 0.4420(1)
H32 H -0.1198(2) -1.8013(2) 0.3612(1)
H33 H -0.1408(1) -1.4086(2) 0.2808(1)
H34 H -0.1323(1) -1.2799(2) 0.3621(1)
H35 H -0.1535(1) -1.6999(3) 0.1879(1)
H36 H -0.0907(6) -1.5640(15) 0.2133(3)
H37 H -0.2076(7) -1.5647(15) 0.2158(3)
loop_
_geom_bond_atom_site_label_1
_geom_bond_atom_site_label_2
_geom_bond_site_symmetry_1
_geom_bond_site_symmetry_2
S1 C8 1_555 1_555
O1 C7 1_555 1_555
O2 C7 1_555 1_555
O3 C17 1_555 1_555
O4 C17 1_555 1_555
O5 C12 1_555 1_555
O6 C29 1_555 1_555
N1 C10 1_555 1_555
C1 C2 1_555 1_555
C2 C3 1_555 1_555
C3 C4 1_555 1_555
C4 C5 1_555 1_555
C5 C6 1_555 1_555
C6 C1 1_555 1_555
C7 C3 1_555 1_555
C8 C1 1_555 1_555
C9 S1 1_555 1_555
C10 C9 1_555 1_555
C11 N1 1_555 1_555
C12 C11 1_555 1_555
C13 C12 1_555 1_555
C14 C10 1_555 1_555
C15 C11 1_555 1_555
C16 C15 1_555 1_555
C17 C16 1_555 1_555
C18 O5 1_555 1_555
C19 C18 1_555 1_555
C20 C19 1_555 1_555
C21 C20 1_555 1_555
C22 C21 1_555 1_555
C23 C22 1_555 1_555
C24 C23 1_555 1_555
C25 C24 1_555 1_555
C26 C25 1_555 1_555
C27 C26 1_555 1_555
C28 C27 1_555 1_555
C29 C28 1_555 1_555
C30 C29 1_555 1_555
C31 C26 1_555 1_555
C32 O6 1_555 1_555
H1 O1 1_555 1_555
H2 O3 1_555 1_555
H3 C2 1_555 1_555
H4 C4 1_555 1_555
H5 C5 1_555 1_555
H6 C6 1_555 1_555
H7 C8 1_555 1_555
H8 C8 1_555 1_555
H9 C9 1_555 1_555
H10 C9 1_555 1_555
H11 C13 1_555 1_555
H12 C14 1_555 1_555
H13 C15 1_555 1_555
H14 C16 1_555 1_555
H15 C18 1_555 1_555
H16 C18 1_555 1_555
H17 C19 1_555 1_555
H18 C19 1_555 1_555
H19 C20 1_555 1_555
H20 C20 1_555 1_555
H21 C21 1_555 1_555
H22 C21 1_555 1_555
H23 C22 1_555 1_555
H24 C22 1_555 1_555
H25 C23 1_555 1_555
H26 C23 1_555 1_555
H27 C24 1_555 1_555
H28 C24 1_555 1_555
H29 C25 1_555 1_555
H30 C25 1_555 1_555
H31 C27 1_555 1_555
H32 C28 1_555 1_555
H33 C30 1_555 1_555
H34 C31 1_555 1_555
H35 C32 1_555 1_555
H36 C32 1_555 1_555
H37 C32 1_555 1_555
C13 C14 1_555 1_555
C30 C31 1_555 1_555

#END
