
#######################################################################
#
#                 Cambridge Crystallographic Data Centre
#                                CCDC 
#
#######################################################################
#
# If this CIF has been generated from an entry in the Cambridge 
# Structural Database, then it will include bibliographic, chemical, 
# crystal, experimental, refinement or atomic coordinate data resulting 
# from the CCDC's data processing and validation procedures.
#
#######################################################################

data_LIGLAR
_chemical_formula_moiety         'C23 H18 F1 N1 O1'
_chemical_name_systematic        
2-(4-fluorophenyl)-4-methoxy-6-methyl-3-phenylquinoline
_symmetry_cell_setting           monoclinic
_symmetry_space_group_name_H-M   'P 21/c'
_symmetry_Int_Tables_number      14
_space_group_name_Hall           '-P 2ybc'
loop_
_symmetry_equiv_pos_site_id
_symmetry_equiv_pos_as_xyz
1 x,y,z
2 -x,1/2+y,1/2-z
3 -x,-y,-z
4 x,1/2-y,1/2+z
_cell_length_a                   11.122(2)
_cell_length_b                   16.286(3)
_cell_length_c                   20.129(4)
_cell_angle_alpha                90
_cell_angle_beta                 103.77(3)
_cell_angle_gamma                90
_cell_volume                     3541.23
_exptl_crystal_colour            yellow
_exptl_crystal_description       Plate
_cell_formula_units_Z            8
loop_
_atom_site_label
_atom_site_type_symbol
_atom_site_fract_x
_atom_site_fract_y
_atom_site_fract_z
F1 F 0.45807(11) 0.33473(8) 0.45685(7)
O1 O -0.02947(12) 0.73126(7) 0.23317(7)
N1 N 0.02811(14) 0.47821(9) 0.23199(8)
C1 C -0.00784(17) 0.64816(10) 0.23306(9)
C2 C -0.09326(17) 0.59911(11) 0.18616(9)
C3 C 0.17643(16) 0.66545(10) 0.33020(9)
C4 C 0.20242(16) 0.47922(10) 0.32582(9)
C5 C -0.06997(17) 0.51368(11) 0.18755(9)
C6 C 0.09074(16) 0.61304(10) 0.27935(9)
C7 C 0.10406(16) 0.52570(10) 0.27692(9)
C8 C 0.24192(17) 0.49900(11) 0.39528(9)
H1 H 0.2099 0.5452 0.4121
C9 C 0.25247(17) 0.40948(11) 0.30256(10)
H2 H 0.2274 0.3956 0.2565
C10 C 0.30247(18) 0.66865(11) 0.33397(10)
H3 H 0.3351 0.6392 0.3028
C11 C 0.12931(18) 0.71065(11) 0.37700(9)
H4 H 0.0450 0.7090 0.3750
C12 C 0.32819(18) 0.45059(12) 0.43935(10)
H5 H 0.3551 0.4642 0.4854
C13 C 0.37306(17) 0.38207(11) 0.41347(10)
C14 C -0.19876(18) 0.63103(12) 0.13930(9)
H6 H -0.2143 0.6872 0.1387
C15 C -0.15269(19) 0.46238(12) 0.14170(10)
H7 H -0.1388 0.4060 0.1420
C16 C 0.33829(18) 0.36018(11) 0.34570(10)
H8 H 0.3712 0.3140 0.3294
C17 C -0.27832(18) 0.58059(13) 0.09494(10)
C18 C 0.2068(2) 0.75793(11) 0.42639(10)
H9 H 0.1742 0.7884 0.4570
C19 C -0.25294(19) 0.49524(13) 0.09696(10)
H10 H -0.3062 0.4606 0.0669
C20 C 0.38032(19) 0.71548(13) 0.38397(11)
H11 H 0.4648 0.7170 0.3864
C21 C 0.3321(2) 0.75983(12) 0.43017(11)
H12 H 0.3842 0.7910 0.4638
C22 C 0.0417(2) 0.77956(13) 0.19711(13)
H13 H 0.0209 0.7645 0.1496
H14 H 0.1283 0.7699 0.2159
H15 H 0.0238 0.8367 0.2015
C23 C -0.3911(2) 0.61361(15) 0.04496(12)
H16 H -0.4642 0.5896 0.0543
H17 H -0.3866 0.6001 -0.0008
H18 H -0.3942 0.6722 0.0496
O2 O 0.51058(12) 0.42815(7) 0.24843(7)
F2 F 0.93778(13) 0.82827(8) 0.49568(7)
N2 N 0.55440(15) 0.68243(9) 0.24650(8)
C24 C 0.71012(16) 0.49899(10) 0.34748(9)
C25 C 0.62147(16) 0.54912(10) 0.29597(9)
C26 C 0.52868(17) 0.51144(10) 0.24784(9)
C27 C 0.62777(16) 0.63708(10) 0.29376(9)
C28 C 0.44324(17) 0.55841(11) 0.19873(9)
C29 C 0.46204(17) 0.64467(11) 0.19976(9)
C30 C 0.66563(17) 0.44461(11) 0.38936(9)
H19 H 0.5807 0.4394 0.3845
C31 C 0.77589(17) 0.75287(11) 0.32986(10)
H20 H 0.7667 0.7655 0.2839
C32 C 0.71428(16) 0.68506(10) 0.34783(9)
C33 C 0.37605(19) 0.69348(12) 0.15295(10)
H21 H 0.3877 0.7500 0.1517
C34 C 0.72878(19) 0.66783(12) 0.41705(10)
H22 H 0.6879 0.6229 0.4299
C35 C 0.74617(19) 0.39799(11) 0.43838(10)
H23 H 0.7151 0.3617 0.4658
C36 C 0.85054(18) 0.80193(12) 0.37907(11)
H24 H 0.8915 0.8472 0.3668
C37 C 0.34024(18) 0.52373(11) 0.15214(9)
H25 H 0.3293 0.4671 0.1511
C38 C 0.25614(18) 0.57233(12) 0.10845(9)
C39 C 0.83727(17) 0.50535(12) 0.35550(10)
H26 H 0.8688 0.5410 0.3278
C40 C 0.8027(2) 0.71614(13) 0.46710(11)
H27 H 0.8118 0.7045 0.5133
C41 C 0.27644(19) 0.65831(12) 0.10974(10)
H28 H 0.2200 0.6917 0.0802
C42 C 0.86229(19) 0.78182(12) 0.44636(11)
C43 C 0.91753(19) 0.45890(13) 0.40453(11)
H29 H 1.0025 0.4636 0.4094
C44 C 0.8721(2) 0.40568(13) 0.44616(10)
H30 H 0.9264 0.3752 0.4793
C45 C 0.1425(2) 0.53616(14) 0.06136(11)
H31 H 0.1527 0.4779 0.0582
H32 H 0.1310 0.5602 0.0168
H33 H 0.0714 0.5473 0.0791
C46 C 0.5800(3) 0.38057(13) 0.21183(14)
H34 H 0.5609 0.3977 0.1649
H35 H 0.5592 0.3236 0.2143
H36 H 0.6667 0.3881 0.2315
loop_
_geom_bond_atom_site_label_1
_geom_bond_atom_site_label_2
_geom_bond_site_symmetry_1
_geom_bond_site_symmetry_2
F1 C13 1_555 1_555
O1 C1 1_555 1_555
N1 C5 1_555 1_555
C1 C2 1_555 1_555
C2 C5 1_555 1_555
C3 C6 1_555 1_555
C4 C7 1_555 1_555
C5 C15 1_555 1_555
C6 C1 1_555 1_555
C7 N1 1_555 1_555
C8 C4 1_555 1_555
H1 C8 1_555 1_555
C9 C4 1_555 1_555
H2 C9 1_555 1_555
C10 C3 1_555 1_555
H3 C10 1_555 1_555
C11 C3 1_555 1_555
H4 C11 1_555 1_555
C12 C8 1_555 1_555
H5 C12 1_555 1_555
C13 C12 1_555 1_555
C14 C2 1_555 1_555
H6 C14 1_555 1_555
C15 H7 1_555 1_555
C16 C9 1_555 1_555
H8 C16 1_555 1_555
C17 C14 1_555 1_555
C18 C11 1_555 1_555
H9 C18 1_555 1_555
C19 C15 1_555 1_555
H10 C19 1_555 1_555
C20 C10 1_555 1_555
H11 C20 1_555 1_555
C21 C18 1_555 1_555
H12 C21 1_555 1_555
C22 O1 1_555 1_555
H13 C22 1_555 1_555
H14 C22 1_555 1_555
H15 C22 1_555 1_555
C23 C17 1_555 1_555
H16 C23 1_555 1_555
H17 C23 1_555 1_555
H18 C23 1_555 1_555
O2 C26 1_555 1_555
F2 C42 1_555 1_555
N2 C27 1_555 1_555
C24 C25 1_555 1_555
C25 C26 1_555 1_555
C26 C28 1_555 1_555
C27 C25 1_555 1_555
C28 C29 1_555 1_555
C29 N2 1_555 1_555
C30 C24 1_555 1_555
H19 C30 1_555 1_555
C31 H20 1_555 1_555
C32 C27 1_555 1_555
C33 C29 1_555 1_555
H21 C33 1_555 1_555
C34 C32 1_555 1_555
H22 C34 1_555 1_555
C35 C30 1_555 1_555
H23 C35 1_555 1_555
C36 C31 1_555 1_555
H24 C36 1_555 1_555
C37 C28 1_555 1_555
H25 C37 1_555 1_555
C38 C37 1_555 1_555
C39 C24 1_555 1_555
H26 C39 1_555 1_555
C40 C34 1_555 1_555
H27 C40 1_555 1_555
C41 C33 1_555 1_555
H28 C41 1_555 1_555
C42 C36 1_555 1_555
C43 C39 1_555 1_555
H29 C43 1_555 1_555
C44 C35 1_555 1_555
H30 C44 1_555 1_555
C45 C38 1_555 1_555
H31 C45 1_555 1_555
H32 C45 1_555 1_555
H33 C45 1_555 1_555
C46 O2 1_555 1_555
H34 C46 1_555 1_555
H35 C46 1_555 1_555
H36 C46 1_555 1_555
C6 C7 1_555 1_555
C13 C16 1_555 1_555
C17 C19 1_555 1_555
C20 C21 1_555 1_555
C31 C32 1_555 1_555
C38 C41 1_555 1_555
C40 C42 1_555 1_555
C43 C44 1_555 1_555

#END
