
#######################################################################
#
#                 Cambridge Crystallographic Data Centre
#                                CCDC 
#
#######################################################################
#
# If this CIF has been generated from an entry in the Cambridge 
# Structural Database, then it will include bibliographic, chemical, 
# crystal, experimental, refinement or atomic coordinate data resulting 
# from the CCDC's data processing and validation procedures.
#
#######################################################################

data_LIGROL
_chemical_formula_moiety         'C22 H28 O4'
_chemical_name_systematic        
2,15-dimethoxy-3,14-dimethyl-6,7,8,9,10,11-hexahydrodibenzo[b,d][1,6]dioxacyclododecine
_symmetry_cell_setting           hexagonal
_symmetry_space_group_name_H-M   'P 65'
_symmetry_Int_Tables_number      170
_space_group_name_Hall           'P 65'
loop_
_symmetry_equiv_pos_site_id
_symmetry_equiv_pos_as_xyz
1 x,y,z
2 -y,x-y,2/3+z
3 -x+y,-x,1/3+z
4 -x,-y,1/2+z
5 y,-x+y,1/6+z
6 x-y,x,5/6+z
_cell_length_a                   9.09510(10)
_cell_length_b                   9.09510(10)
_cell_length_c                   38.8243(9)
_cell_angle_alpha                90
_cell_angle_beta                 90
_cell_angle_gamma                120
_cell_volume                     2781.31
_exptl_crystal_colour            colorless
_exptl_crystal_description       block
_cell_formula_units_Z            6
loop_
_atom_site_label
_atom_site_type_symbol
_atom_site_fract_x
_atom_site_fract_y
_atom_site_fract_z
O1 O 0.41236(14) 0.85126(14) 0.04103(3)
O2 O -0.22467(14) 0.78694(15) 0.04890(3)
O3 O 0.32054(14) 0.93389(14) 0.12840(3)
O4 O 0.26799(14) 0.30441(13) 0.11274(3)
C1 C 0.55950(19) 1.0058(2) 0.02973(5)
H1 H 0.5232 1.0772 0.0172
H2 H 0.6275 0.9786 0.0138
C2 C 0.6661(3) 1.1018(3) 0.06046(6)
H3 H 0.7842 1.1787 0.0528
H4 H 0.6681 1.0200 0.0770
C3 C 0.5997(3) 1.2057(3) 0.07863(7)
H5 H 0.4744 1.1367 0.0802
H6 H 0.6277 1.3070 0.0645
C4 C 0.6731(3) 1.2642(3) 0.11526(6)
H7 H 0.7981 1.3186 0.1134
H8 H 0.6478 1.3539 0.1222
C5 C 0.6179(3) 1.1378(2) 0.14458(7)
H9 H 0.6852 1.1972 0.1653
H10 H 0.6459 1.0489 0.1384
C6 C 0.4306(3) 1.0516(2) 0.15392(5)
H11 H 0.4128 0.9905 0.1760
H12 H 0.3986 1.1398 0.1574
C7 C 0.15393(19) 0.75295(18) 0.07085(4)
C8 C 0.25739(19) 0.84451(19) 0.04329(4)
C9 C 0.19949(19) 0.91504(19) 0.01865(4)
H13 H 0.2715 0.9775 0.0000
C10 C 0.0379(2) 0.89565(19) 0.02084(4)
C11 C -0.06652(19) 0.80139(19) 0.04844(4)
C12 C -0.00921(19) 0.73145(18) 0.07318(4)
H14 H -0.0812 0.6687 0.0918
C13 C -0.0224(2) 0.9745(2) -0.00549(5)
H15 H -0.1251 0.8856 -0.0167
H16 H 0.0664 1.0340 -0.0228
H17 H -0.0479 1.0555 0.0059
C14 C -0.3357(2) 0.6964(2) 0.07668(5)
H18 H -0.4412 0.6999 0.0743
H19 H -0.2809 0.7490 0.0986
H20 H -0.3615 0.5782 0.0763
C15 C 0.22018(18) 0.68088(19) 0.09746(4)
C16 C 0.31209(19) 0.77896(18) 0.12544(4)
C17 C 0.38730(19) 0.71751(19) 0.14834(4)
H21 H 0.4513 0.7858 0.1672
C18 C 0.36980(19) 0.55743(18) 0.14385(4)
C19 C 0.27518(18) 0.45848(18) 0.11586(4)
C20 C 0.20149(18) 0.51984(19) 0.09294(4)
H22 H 0.1377 0.4517 0.0740
C21 C 0.4521(2) 0.4920(2) 0.16837(5)
H23 H 0.5429 0.4841 0.1564
H24 H 0.3671 0.3793 0.1767
H25 H 0.5000 0.5699 0.1879
C22 C 0.1775(2) 0.2004(2) 0.08422(4)
H26 H 0.1845 0.0963 0.0847
H27 H 0.2274 0.2620 0.0628
H28 H 0.0583 0.1710 0.0856
H29? H 0.5389 1.0361 0.0064
H30? H 0.6587 0.9888 0.0285
C23? C 0.5980(8) 1.1542(8) 0.05560(17)
H31? H 0.6901 1.2627 0.0463
H32? H 0.4955 1.1647 0.0584
C24? C 0.6506(8) 1.1187(8) 0.09022(18)
H33? H 0.7587 1.1178 0.0881
H34? H 0.5625 1.0069 0.0991
H35? H 0.7916 1.3587 0.1172
H36? H 0.5942 1.3071 0.1106
loop_
_geom_bond_atom_site_label_1
_geom_bond_atom_site_label_2
_geom_bond_site_symmetry_1
_geom_bond_site_symmetry_2
O1 C1 1_555 1_555
O2 C11 1_555 1_555
O3 C6 1_555 1_555
O4 C19 1_555 1_555
C1 H1 1_555 1_555
H2 C1 1_555 1_555
C2 C1 1_555 1_555
H3 C2 1_555 1_555
H4 C2 1_555 1_555
C3 C2 1_555 1_555
H5 C3 1_555 1_555
H6 C3 1_555 1_555
C4 C3 1_555 1_555
H7 C4 1_555 1_555
H8 C4 1_555 1_555
C5 C4 1_555 1_555
H9 C5 1_555 1_555
H10 C5 1_555 1_555
C6 C5 1_555 1_555
H11 C6 1_555 1_555
H12 C6 1_555 1_555
C7 C8 1_555 1_555
C8 O1 1_555 1_555
C9 C8 1_555 1_555
H13 C9 1_555 1_555
C10 C9 1_555 1_555
C11 C10 1_555 1_555
C12 C7 1_555 1_555
H14 C12 1_555 1_555
C13 C10 1_555 1_555
H15 C13 1_555 1_555
H16 C13 1_555 1_555
H17 C13 1_555 1_555
C14 O2 1_555 1_555
H18 C14 1_555 1_555
H19 C14 1_555 1_555
H20 C14 1_555 1_555
C15 C7 1_555 1_555
C16 O3 1_555 1_555
C17 C16 1_555 1_555
H21 C17 1_555 1_555
C18 C17 1_555 1_555
C19 C18 1_555 1_555
C20 C15 1_555 1_555
H22 C20 1_555 1_555
C21 C18 1_555 1_555
H23 C21 1_555 1_555
H24 C21 1_555 1_555
H25 C21 1_555 1_555
C22 O4 1_555 1_555
H26 C22 1_555 1_555
H27 C22 1_555 1_555
H28 C22 1_555 1_555
C11 C12 1_555 1_555
C15 C16 1_555 1_555
C19 C20 1_555 1_555

#END
