
#######################################################################
#
#                 Cambridge Crystallographic Data Centre
#                                CCDC 
#
#######################################################################
#
# If this CIF has been generated from an entry in the Cambridge 
# Structural Database, then it will include bibliographic, chemical, 
# crystal, experimental, refinement or atomic coordinate data resulting 
# from the CCDC's data processing and validation procedures.
#
#######################################################################

data_LIGSAV
_chemical_formula_moiety         'C24 H72 Li6 N6 O6 Si6'
_chemical_name_systematic        
hexakis(\m~3~-(Dimethylamino)dimethylsilanolato)-hexa-lithium
_symmetry_cell_setting           rhombohedral
_symmetry_space_group_name_H-M   'R -3 c'
_symmetry_Int_Tables_number      167
_space_group_name_Hall           "-P 3* 2'n"
loop_
_symmetry_equiv_pos_site_id
_symmetry_equiv_pos_as_xyz
1 x,y,z
2 z,x,y
3 1/2-y,1/2-x,1/2-z
4 y,z,x
5 1/2-z,1/2-y,1/2-x
6 1/2-x,1/2-z,1/2-y
7 -x,-y,-z
8 -z,-x,-y
9 1/2+y,1/2+x,1/2+z
10 -y,-z,-x
11 1/2+z,1/2+y,1/2+x
12 1/2+x,1/2+z,1/2+y
_cell_length_a                   13.376
_cell_length_b                   13.376
_cell_length_c                   13.376
_cell_angle_alpha                91.171
_cell_angle_beta                 91.171
_cell_angle_gamma                91.171
_cell_volume                     2391.68
_exptl_crystal_colour            colorless
_chemical_melting_point          'above 250 deg.C'
_cell_formula_units_Z            2
loop_
_atom_site_label
_atom_site_type_symbol
_atom_site_fract_x
_atom_site_fract_y
_atom_site_fract_z
Li1 Li 0.1352(4) -0.0545(4) 0.0436(4)
O1 O 0.1505(1) 0.0522(2) -0.0576(2)
N1 N 0.3064(2) -0.0139(3) 0.0432(2)
Si1 Si 0.26852(7) 0.04306(8) -0.06407(8)
C1 C 0.3189(5) 0.0545(5) 0.1346(4)
C2 C 0.3808(4) -0.0884(4) 0.0457(4)
C3 C 0.3004(3) -0.0433(4) -0.1711(3)
C4 C 0.3375(3) 0.1658(3) -0.0784(4)
H1 H 0.285 0.115 0.119
H2 H 0.387 0.085 0.129
H3 H 0.320 0.004 0.185
H4 H 0.370 -0.138 0.096
H5 H 0.445 -0.049 0.053
H6 H 0.378 -0.132 -0.016
H7 H 0.269 -0.110 -0.162
H8 H 0.295 0.009 -0.219
H9 H 0.371 -0.057 -0.175
H10 H 0.331 0.193 -0.010
Li1A Li 0.0436(4) 0.1352(4) -0.0545(4)
O1A O -0.0576(2) 0.1505(1) 0.0522(2)
Li1C Li -0.0545(4) 0.0436(4) 0.1352(4)
O1C O 0.0522(2) -0.0576(2) 0.1505(1)
O1G O 0.0576(2) -0.1505(1) -0.0522(2)
Li1G Li -0.0436(4) -0.1352(4) 0.0545(4)
O1F O -0.1505(1) -0.0522(2) 0.0576(2)
Li1F Li -0.1352(4) 0.0545(4) -0.0436(4)
O1I O -0.0522(2) 0.0576(2) -0.1505(1)
Li1I Li 0.0545(4) -0.0436(4) -0.1352(4)
Si1G Si 0.06407(8) -0.26852(7) -0.04306(8)
N1G N -0.0432(2) -0.3064(2) 0.0139(3)
C1G C -0.1346(4) -0.3189(5) -0.0545(5)
H1G H -0.119 -0.285 -0.115
H2G H -0.129 -0.387 -0.085
H3G H -0.185 -0.320 -0.004
C2G C -0.0457(4) -0.3808(4) 0.0884(4)
H4G H -0.096 -0.370 0.138
H5G H -0.053 -0.445 0.049
H6G H 0.016 -0.378 0.132
C3G C 0.1711(3) -0.3004(3) 0.0433(4)
H7G H 0.162 -0.269 0.110
H8G H 0.219 -0.295 -0.009
H9G H 0.175 -0.371 0.057
C4G C 0.0784(4) -0.3375(3) -0.1658(3)
H10G H 0.010 -0.331 -0.193
Si1I Si -0.04306(8) 0.06407(8) -0.26852(7)
N1I N 0.0139(3) -0.0432(2) -0.3064(2)
C1I C -0.0545(5) -0.1346(4) -0.3189(5)
H1I H -0.115 -0.119 -0.285
H2I H -0.085 -0.129 -0.387
H3I H -0.004 -0.185 -0.320
C2I C 0.0884(4) -0.0457(4) -0.3808(4)
H4I H 0.138 -0.096 -0.370
H5I H 0.049 -0.053 -0.445
H6I H 0.132 0.016 -0.378
C3I C 0.0433(4) 0.1711(3) -0.3004(3)
H7I H 0.110 0.162 -0.269
H8I H -0.009 0.219 -0.295
H9I H 0.057 0.175 -0.371
C4I C -0.1658(3) 0.0784(4) -0.3375(3)
H10I H -0.193 0.010 -0.331
Si1A Si -0.06407(8) 0.26852(7) 0.04306(8)
N1A N 0.0432(2) 0.3064(2) -0.0139(3)
C1A C 0.1346(4) 0.3189(5) 0.0545(5)
H1A H 0.119 0.285 0.115
H2A H 0.129 0.387 0.085
H3A H 0.185 0.320 0.004
C2A C 0.0457(4) 0.3808(4) -0.0884(4)
H4A H 0.096 0.370 -0.138
H5A H 0.053 0.445 -0.049
H6A H -0.016 0.378 -0.132
C3A C -0.1711(3) 0.3004(3) -0.0433(4)
H7A H -0.162 0.269 -0.110
H8A H -0.219 0.295 0.009
H9A H -0.175 0.371 -0.057
C4A C -0.0784(4) 0.3375(3) 0.1658(3)
H10A H -0.010 0.331 0.193
Si1F Si -0.26852(7) -0.04306(8) 0.06407(8)
N1F N -0.3064(2) 0.0139(3) -0.0432(2)
C1F C -0.3189(5) -0.0545(5) -0.1346(4)
H1F H -0.285 -0.115 -0.119
H2F H -0.387 -0.085 -0.129
H3F H -0.320 -0.004 -0.185
C2F C -0.3808(4) 0.0884(4) -0.0457(4)
H4F H -0.370 0.138 -0.096
H5F H -0.445 0.049 -0.053
H6F H -0.378 0.132 0.016
C3F C -0.3004(3) 0.0433(4) 0.1711(3)
H7F H -0.269 0.110 0.162
H8F H -0.295 -0.009 0.219
H9F H -0.371 0.057 0.175
C4F C -0.3375(3) -0.1658(3) 0.0784(4)
H10F H -0.331 -0.193 0.010
Si1C Si 0.04306(8) -0.06407(8) 0.26852(7)
N1C N -0.0139(3) 0.0432(2) 0.3064(2)
C1C C 0.0545(5) 0.1346(4) 0.3189(5)
H1C H 0.115 0.119 0.285
H2C H 0.085 0.129 0.387
H3C H 0.004 0.185 0.320
C2C C -0.0884(4) 0.0457(4) 0.3808(4)
H4C H -0.138 0.096 0.370
H5C H -0.049 0.053 0.445
H6C H -0.132 -0.016 0.378
C3C C -0.0433(4) -0.1711(3) 0.3004(3)
H7C H -0.110 -0.162 0.269
H8C H 0.009 -0.219 0.295
H9C H -0.057 -0.175 0.371
C4C C 0.1658(3) -0.0784(4) 0.3375(3)
H10C H 0.193 -0.010 0.331
loop_
_geom_bond_atom_site_label_1
_geom_bond_atom_site_label_2
_geom_bond_site_symmetry_1
_geom_bond_site_symmetry_2
Li1 O1 1_555 1_555
O1 Si1 1_555 1_555
N1 Si1 1_555 1_555
Si1 C3 1_555 1_555
C1 N1 1_555 1_555
C2 N1 1_555 1_555
C3 H7 1_555 1_555
C4 Si1 1_555 1_555
H1 C1 1_555 1_555
H2 C1 1_555 1_555
H3 C1 1_555 1_555
H4 C2 1_555 1_555
H5 C2 1_555 1_555
H6 C2 1_555 1_555
H8 C3 1_555 1_555
H9 C3 1_555 1_555
H10 C4 1_555 1_555
Li1A O1 1_555 1_555
O1A Li1A 1_555 1_555
Li1C O1A 1_555 1_555
O1C Li1 1_555 1_555
O1G Li1 1_555 1_555
Li1G O1C 1_555 1_555
O1F Li1C 1_555 1_555
Li1F O1A 1_555 1_555
O1I Li1A 1_555 1_555
Li1I O1 1_555 1_555
Si1G O1G 1_555 1_555
N1G Si1G 1_555 1_555
C1G N1G 1_555 1_555
H1G C1G 1_555 1_555
H2G C1G 1_555 1_555
H3G C1G 1_555 1_555
C2G N1G 1_555 1_555
H4G C2G 1_555 1_555
H5G C2G 1_555 1_555
H6G C2G 1_555 1_555
C3G Si1G 1_555 1_555
H7G C3G 1_555 1_555
H8G C3G 1_555 1_555
H9G C3G 1_555 1_555
C4G Si1G 1_555 1_555
H10G C4G 1_555 1_555
Si1I O1I 1_555 1_555
N1I Si1I 1_555 1_555
C1I N1I 1_555 1_555
H1I C1I 1_555 1_555
H2I C1I 1_555 1_555
H3I C1I 1_555 1_555
C2I N1I 1_555 1_555
H4I C2I 1_555 1_555
H5I C2I 1_555 1_555
H6I C2I 1_555 1_555
C3I Si1I 1_555 1_555
H7I C3I 1_555 1_555
H8I C3I 1_555 1_555
H9I C3I 1_555 1_555
C4I Si1I 1_555 1_555
H10I C4I 1_555 1_555
Si1A O1A 1_555 1_555
N1A Si1A 1_555 1_555
C1A N1A 1_555 1_555
H1A C1A 1_555 1_555
H2A C1A 1_555 1_555
H3A C1A 1_555 1_555
C2A N1A 1_555 1_555
H4A C2A 1_555 1_555
H5A C2A 1_555 1_555
H6A C2A 1_555 1_555
C3A Si1A 1_555 1_555
H7A C3A 1_555 1_555
H8A C3A 1_555 1_555
H9A C3A 1_555 1_555
C4A Si1A 1_555 1_555
H10A C4A 1_555 1_555
Si1F O1F 1_555 1_555
N1F Si1F 1_555 1_555
C1F N1F 1_555 1_555
H1F C1F 1_555 1_555
H2F C1F 1_555 1_555
H3F C1F 1_555 1_555
C2F N1F 1_555 1_555
H4F C2F 1_555 1_555
H5F C2F 1_555 1_555
H6F C2F 1_555 1_555
C3F Si1F 1_555 1_555
H7F C3F 1_555 1_555
H8F C3F 1_555 1_555
H9F C3F 1_555 1_555
C4F Si1F 1_555 1_555
H10F C4F 1_555 1_555
Si1C O1C 1_555 1_555
N1C Si1C 1_555 1_555
C1C N1C 1_555 1_555
H1C C1C 1_555 1_555
H2C C1C 1_555 1_555
H3C C1C 1_555 1_555
C2C N1C 1_555 1_555
H4C C2C 1_555 1_555
H5C C2C 1_555 1_555
H6C C2C 1_555 1_555
C3C Si1C 1_555 1_555
H7C C3C 1_555 1_555
H8C C3C 1_555 1_555
H9C C3C 1_555 1_555
C4C Si1C 1_555 1_555
H10C C4C 1_555 1_555
Li1C O1C 1_555 1_555
O1G Li1G 1_555 1_555
O1G Li1I 1_555 1_555
Li1G O1F 1_555 1_555
O1F Li1F 1_555 1_555
Li1F O1I 1_555 1_555
O1I Li1I 1_555 1_555

#END
