
#######################################################################
#
#                 Cambridge Crystallographic Data Centre
#                                CCDC 
#
#######################################################################
#
# If this CIF has been generated from an entry in the Cambridge 
# Structural Database, then it will include bibliographic, chemical, 
# crystal, experimental, refinement or atomic coordinate data resulting 
# from the CCDC's data processing and validation procedures.
#
#######################################################################

data_LIGSOM
_chemical_formula_moiety         'C20 H24 O4'
_chemical_name_systematic        
2,13-dimethoxy-3,12-dimethyl-6,7,8,9-tetrahydrodibenzo[b,d][1,6]dioxecine
_symmetry_cell_setting           monoclinic
_symmetry_space_group_name_H-M   'C 2/c'
_symmetry_Int_Tables_number      15
_space_group_name_Hall           '-C 2yn'
loop_
_symmetry_equiv_pos_site_id
_symmetry_equiv_pos_as_xyz
1 x,y,z
2 -x,y,1/2-z
3 1/2+x,1/2+y,z
4 1/2-x,1/2+y,1/2-z
5 -x,-y,-z
6 x,-y,1/2+z
7 1/2-x,1/2-y,-z
8 1/2+x,1/2-y,1/2+z
_cell_length_a                   40.9654(10)
_cell_length_b                   8.6677(2)
_cell_length_c                   9.9042(2)
_cell_angle_alpha                90
_cell_angle_beta                 102.1850(10)
_cell_angle_gamma                90
_cell_volume                     3437.51
_exptl_crystal_colour            colorless
_exptl_crystal_description       block
_cell_formula_units_Z            8
loop_
_atom_site_label
_atom_site_type_symbol
_atom_site_fract_x
_atom_site_fract_y
_atom_site_fract_z
O1 O 0.139627(18) 0.12438(9) 0.82762(7)
O2 O 0.217697(18) 0.21645(10) 1.35013(8)
O3 O 0.111459(18) 0.41121(8) 0.86544(7)
O4 O 0.032532(18) 0.11498(10) 1.17459(8)
C1 C 0.12357(3) 0.23097(14) 0.59729(11)
H1 H 0.1174 0.1301 0.5523
H2 H 0.1317 0.2973 0.5301
C2 C 0.14315(3) 0.19819(12) 1.06278(11)
C3 C 0.15882(3) 0.14823(12) 0.95857(11)
C4 C 0.19304(3) 0.11890(13) 0.98794(11)
H3 H 0.2032 0.0828 0.9162
C5 C 0.21263(3) 0.14101(13) 1.11898(12)
C6 C 0.19688(3) 0.19330(13) 1.22314(11)
C7 C 0.16268(3) 0.21849(12) 1.19588(11)
H4 H 0.1523 0.2500 1.2686
C8 C 0.15190(3) 0.20594(14) 0.72147(11)
H5 H 0.1699 0.1455 0.6937
H6 H 0.1613 0.3067 0.7575
C9 C 0.24968(3) 0.10946(16) 1.14993(13)
H7 H 0.2567 0.0829 1.0642
H8 H 0.2547 0.0234 1.2152
H9 H 0.2617 0.2017 1.1906
C10 C 0.20298(3) 0.27920(15) 1.45650(11)
H10 H 0.1924 0.3781 1.4258
H11 H 0.2203 0.2952 1.5400
H12 H 0.1862 0.2074 1.4767
C11 C 0.09220(3) 0.30493(13) 0.63035(11)
H13 H 0.0770 0.3336 0.5424
H14 H 0.0806 0.2270 0.6763
C12 C 0.10654(3) 0.22753(12) 1.03666(11)
C13 C 0.09097(3) 0.32935(12) 0.93350(11)
C14 C 0.05656(3) 0.35188(13) 0.91104(11)
H15 H 0.0462 0.4199 0.8396
C15 C 0.03702(3) 0.27775(13) 0.99012(11)
C16 C 0.05300(3) 0.18223(12) 1.09795(11)
C17 C 0.08726(3) 0.15720(12) 1.12047(11)
H16 H 0.0977 0.0915 1.1937
C18 C 0.09861(3) 0.44723(13) 0.72186(11)
H17 H 0.1148 0.5147 0.6887
H18 H 0.0775 0.5054 0.7133
C19 C -0.00036(3) 0.29587(14) 0.96171(12)
H19 H -0.0071 0.3785 0.8940
H20 H -0.0073 0.3220 1.0477
H21 H -0.0110 0.1989 0.9250
C20 C 0.04790(3) 0.05775(14) 1.30778(11)
H22 H 0.0614 -0.0332 1.2976
H23 H 0.0306 0.0293 1.3582
H24 H 0.0623 0.1378 1.3591
loop_
_geom_bond_atom_site_label_1
_geom_bond_atom_site_label_2
_geom_bond_site_symmetry_1
_geom_bond_site_symmetry_2
O1 C3 1_555 1_555
O2 C6 1_555 1_555
O3 C13 1_555 1_555
O4 C16 1_555 1_555
C1 H1 1_555 1_555
H2 C1 1_555 1_555
C2 C3 1_555 1_555
C3 C4 1_555 1_555
C4 H3 1_555 1_555
C5 C4 1_555 1_555
C6 C5 1_555 1_555
C7 C2 1_555 1_555
H4 C7 1_555 1_555
C8 O1 1_555 1_555
H5 C8 1_555 1_555
H6 C8 1_555 1_555
C9 C5 1_555 1_555
H7 C9 1_555 1_555
H8 C9 1_555 1_555
H9 C9 1_555 1_555
C10 O2 1_555 1_555
H10 C10 1_555 1_555
H11 C10 1_555 1_555
H12 C10 1_555 1_555
C11 C1 1_555 1_555
H13 C11 1_555 1_555
H14 C11 1_555 1_555
C12 C2 1_555 1_555
C13 C12 1_555 1_555
C14 C13 1_555 1_555
H15 C14 1_555 1_555
C15 C14 1_555 1_555
C16 C15 1_555 1_555
C17 C12 1_555 1_555
H16 C17 1_555 1_555
C18 O3 1_555 1_555
H17 C18 1_555 1_555
H18 C18 1_555 1_555
C19 C15 1_555 1_555
H19 C19 1_555 1_555
H20 C19 1_555 1_555
H21 C19 1_555 1_555
C20 O4 1_555 1_555
H22 C20 1_555 1_555
H23 C20 1_555 1_555
H24 C20 1_555 1_555
C1 C8 1_555 1_555
C6 C7 1_555 1_555
C11 C18 1_555 1_555
C16 C17 1_555 1_555

#END
