
#######################################################################
#
#                 Cambridge Crystallographic Data Centre
#                                CCDC 
#
#######################################################################
#
# If this CIF has been generated from an entry in the Cambridge 
# Structural Database, then it will include bibliographic, chemical, 
# crystal, experimental, refinement or atomic coordinate data resulting 
# from the CCDC's data processing and validation procedures.
#
#######################################################################

data_LIGSEC
_chemical_formula_moiety         'C18 H20 O4'
_chemical_name_systematic        
2,11-dimethoxy-3,10-dimethyl-6,7-dihydrodibenzo[e,g][1,4]dioxocine
_symmetry_cell_setting           orthorhombic
_symmetry_space_group_name_H-M   'P c a 21'
_symmetry_Int_Tables_number      29
_space_group_name_Hall           'P 2c -2ac'
loop_
_symmetry_equiv_pos_site_id
_symmetry_equiv_pos_as_xyz
1 x,y,z
2 -x,-y,1/2+z
3 1/2+x,-y,z
4 1/2-x,y,1/2+z
_cell_length_a                   48.377(2)
_cell_length_b                   7.5624(3)
_cell_length_c                   21.0775(10)
_cell_angle_alpha                90
_cell_angle_beta                 90
_cell_angle_gamma                90
_cell_volume                     7711.12
_exptl_crystal_colour            colorless
_exptl_crystal_description       plate
_cell_formula_units_Z            20
loop_
_atom_site_label
_atom_site_type_symbol
_atom_site_fract_x
_atom_site_fract_y
_atom_site_fract_z
O1 O 0.26634(5) 0.9298(3) -0.06397(12)
O2 O 0.17915(5) 0.7645(3) -0.22242(11)
O3 O 0.26130(5) 0.5981(3) -0.00340(12)
O4 O 0.16693(5) 0.8189(3) 0.12093(11)
C1 C 0.28949(7) 0.8107(5) -0.0586(2)
H1 H 0.3069 0.8790 -0.0559
H2 H 0.2904 0.7338 -0.0966
C2 C 0.22124(7) 0.7952(4) -0.07639(16)
C3 C 0.24499(7) 0.8693(5) -0.10260(17)
C4 C 0.24631(7) 0.9040(5) -0.16731(19)
H3 H 0.2627 0.9553 -0.1842
C5 C 0.22459(8) 0.8664(4) -0.20788(16)
C6 C 0.20035(7) 0.7911(4) -0.18083(15)
C7 C 0.19910(7) 0.7553(4) -0.11687(15)
H4 H 0.1829 0.7026 -0.0998
C8 C 0.22601(8) 0.9021(6) -0.27818(17)
H5 H 0.2115 0.9865 -0.2900
H6 H 0.2233 0.7913 -0.3015
H7 H 0.2441 0.9517 -0.2888
C9 C 0.15377(8) 0.6967(4) -0.19662(18)
H8 H 0.1400 0.6870 -0.2305
H9 H 0.1470 0.7772 -0.1637
H10 H 0.1571 0.5798 -0.1781
C10 C 0.28601(8) 0.6995(5) -0.0001(2)
H11 H 0.3021 0.6193 0.0044
H12 H 0.2854 0.7771 0.0378
C11 C 0.21850(7) 0.7633(4) -0.00770(15)
C12 C 0.23853(7) 0.6705(4) 0.02712(16)
C13 C 0.23468(7) 0.6382(4) 0.09104(17)
H13 H 0.2487 0.5780 0.1140
C14 C 0.21109(8) 0.6909(4) 0.12240(17)
C15 C 0.19053(7) 0.7803(4) 0.08771(16)
C16 C 0.19451(6) 0.8166(4) 0.02282(15)
H14 H 0.1806 0.8780 -0.0002
C17 C 0.20649(8) 0.6513(6) 0.19220(17)
H15 H 0.2211 0.5720 0.2075
H16 H 0.1885 0.5944 0.1978
H17 H 0.2070 0.7618 0.2164
C18 C 0.14465(8) 0.8965(5) 0.08674(19)
H18 H 0.1286 0.9086 0.1148
H19 H 0.1398 0.8209 0.0506
H20 H 0.1502 1.0135 0.0713
O5 O 0.03648(5) 0.9136(3) 0.44246(13)
O6 O 0.12662(6) 0.7103(4) 0.29809(11)
O7 O 0.03660(5) 0.5842(3) 0.50714(12)
O8 O 0.12893(5) 0.7853(3) 0.64226(11)
C19 C 0.01235(7) 0.8021(5) 0.4456(2)
H21 H 0.0119 0.7233 0.4081
H22 H -0.0045 0.8764 0.4448
C20 C 0.08009(7) 0.7588(4) 0.43697(16)
C21 C 0.05875(7) 0.8451(4) 0.40751(17)
C22 C 0.05984(8) 0.8848(5) 0.34279(18)
H23 H 0.0446 0.9432 0.3235
C23 C 0.08274(8) 0.8407(5) 0.30584(17)
C24 C 0.10434(8) 0.7488(4) 0.33547(16)
C25 C 0.10298(7) 0.7124(4) 0.39937(16)
H24 H 0.1181 0.6535 0.4188
C26 C 0.08476(9) 0.8899(6) 0.23703(17)
H25 H 0.0692 0.9663 0.2256
H26 H 0.0843 0.7825 0.2110
H27 H 0.1021 0.9531 0.2295
C27 C 0.15024(8) 0.6345(6) 0.32875(18)
H28 H 0.1640 0.6011 0.2967
H29 H 0.1446 0.5294 0.3526
H30 H 0.1583 0.7213 0.3579
C28 C 0.01262(7) 0.6929(5) 0.5048(2)
H31 H 0.0123 0.7717 0.5423
H32 H -0.0041 0.6176 0.5062
C29 C 0.08076(7) 0.7304(4) 0.50696(16)
C30 C 0.05891(7) 0.6519(4) 0.53948(18)
C31 C 0.06037(7) 0.6352(4) 0.60525(18)
H33 H 0.0449 0.5883 0.6273
C32 C 0.08313(8) 0.6834(4) 0.63925(17)
C33 C 0.10611(8) 0.7510(4) 0.60626(16)
C34 C 0.10441(7) 0.7780(4) 0.54105(17)
H34 H 0.1196 0.8297 0.5193
C35 C 0.08484(8) 0.6640(5) 0.71011(17)
H35 H 0.0673 0.6182 0.7263
H36 H 0.0886 0.7795 0.7293
H37 H 0.0997 0.5815 0.7209
C36 C 0.15251(8) 0.8544(5) 0.61072(17)
H38 H 0.1679 0.8633 0.6408
H39 H 0.1482 0.9720 0.5939
H40 H 0.1577 0.7756 0.5758
O9 O -0.06157(5) 0.0734(3) 0.41337(15)
O10 O 0.03321(5) 0.2895(3) 0.28934(11)
O11 O -0.06609(5) 0.4103(3) 0.47189(14)
O12 O 0.02042(5) 0.2406(3) 0.63308(12)
C37 C -0.08658(7) 0.1810(5) 0.4074(2)
H41 H -0.1030 0.1036 0.4029
H42 H -0.0853 0.2570 0.3692
C38 C -0.01858(7) 0.2350(4) 0.41770(17)
C39 C -0.03865(7) 0.1463(5) 0.38277(18)
C40 C -0.03492(7) 0.1104(5) 0.31877(19)
H43 H -0.0489 0.0489 0.2962
C41 C -0.01081(7) 0.1637(4) 0.28679(17)
C42 C 0.00954(7) 0.2507(4) 0.32255(16)
C43 C 0.00576(7) 0.2851(4) 0.38545(16)
H44 H 0.0199 0.3444 0.4083
C44 C -0.00706(9) 0.1230(6) 0.21814(19)
H45 H -0.0246 0.0819 0.2003
H46 H 0.0070 0.0305 0.2133
H47 H -0.0011 0.2299 0.1958
C45 C 0.05533(7) 0.3686(5) 0.32420(18)
H48 H 0.0717 0.3780 0.2969
H49 H 0.0597 0.2951 0.3612
H50 H 0.0498 0.4867 0.3384
C46 C -0.08936(8) 0.2935(5) 0.4657(2)
H51 H -0.1066 0.3638 0.4630
H52 H -0.0906 0.2167 0.5036
C47 C -0.02168(7) 0.2711(4) 0.48605(18)
C48 C -0.04525(7) 0.3511(4) 0.51207(19)
C49 C -0.04640(8) 0.3869(5) 0.57556(19)
H53 H -0.0626 0.4405 0.5923
C50 C -0.02475(7) 0.3480(5) 0.61663(19)
C51 C -0.00115(8) 0.2711(4) 0.59129(18)
C52 C 0.00023(7) 0.2293(4) 0.52673(18)
H54 H 0.0162 0.1721 0.5103
C53 C -0.02549(9) 0.3901(6) 0.6867(2)
H55 H -0.0087 0.4551 0.6985
H56 H -0.0264 0.2799 0.7111
H57 H -0.0418 0.4627 0.6961
C54 C 0.04550(7) 0.1700(5) 0.60807(19)
H58 H 0.0592 0.1596 0.6422
H59 H 0.0526 0.2489 0.5750
H60 H 0.0419 0.0530 0.5899
O13 O 0.33648(5) 0.1100(3) 0.40710(13)
O14 O 0.43147(5) 0.2863(3) 0.27668(11)
O15 O 0.33677(5) 0.4411(3) 0.47090(12)
O16 O 0.42368(6) 0.2073(4) 0.62144(12)
C55 C 0.31260(7) 0.2232(4) 0.4070(2)
H61 H 0.2956 0.1506 0.4045
H62 H 0.3131 0.3017 0.3694
C56 C 0.38119(7) 0.2482(4) 0.40917(16)
C57 C 0.35946(7) 0.1767(4) 0.37511(17)
C58 C 0.36146(8) 0.1515(4) 0.30973(18)
H63 H 0.3461 0.1051 0.2873
C59 C 0.38552(7) 0.1930(4) 0.27660(17)
C60 C 0.40754(7) 0.2574(4) 0.31169(16)
C61 C 0.40576(7) 0.2887(4) 0.37577(16)
H64 H 0.4211 0.3377 0.3978
C62 C 0.38719(9) 0.1695(5) 0.20579(18)
H65 H 0.3687 0.1450 0.1889
H66 H 0.3995 0.0704 0.1959
H67 H 0.3944 0.2779 0.1864
C63 C 0.45515(7) 0.3515(5) 0.31017(19)
H68 H 0.4705 0.3679 0.2804
H69 H 0.4605 0.2662 0.3429
H70 H 0.4506 0.4649 0.3301
C64 C 0.31215(7) 0.3334(5) 0.4669(2)
H71 H 0.2956 0.4103 0.4669
H72 H 0.3111 0.2547 0.5043
C65 C 0.37982(7) 0.2800(4) 0.47827(17)
C66 C 0.35784(8) 0.3718(4) 0.50762(17)
C67 C 0.35843(8) 0.4047(5) 0.57191(18)
H73 H 0.3434 0.4655 0.5908
C68 C 0.38041(9) 0.3515(5) 0.60996(18)
C69 C 0.40221(8) 0.2602(5) 0.58129(19)
C70 C 0.40186(7) 0.2207(5) 0.51616(17)
H74 H 0.4165 0.1540 0.4978
C71 C 0.38183(11) 0.3971(7) 0.6804(2)
H75 H 0.3666 0.4772 0.6913
H76 H 0.3995 0.4548 0.6896
H77 H 0.3803 0.2885 0.7055
C72 C 0.44691(8) 0.1235(6) 0.5927(2)
H78 H 0.4615 0.1067 0.6245
H79 H 0.4539 0.1977 0.5582
H80 H 0.4413 0.0083 0.5757
O17 O 0.13774(6) 0.0771(3) 0.43108(16)
O18 O 0.22490(6) 0.3081(4) 0.28362(13)
O19 O 0.13579(5) 0.4118(3) 0.49302(15)
O20 O 0.23021(6) 0.2468(3) 0.62698(13)
C73 C 0.11277(8) 0.1820(5) 0.4347(3)
H81 H 0.0965 0.1025 0.4355
H82 H 0.1113 0.2574 0.3965
C74 C 0.18043(8) 0.2417(5) 0.42443(19)
C75 C 0.15890(8) 0.1523(5) 0.3953(2)
C76 C 0.15947(9) 0.1185(5) 0.3292(2)
H83 H 0.1446 0.0566 0.3099
C77 C 0.18137(9) 0.1741(5) 0.2925(2)
C78 C 0.20317(8) 0.2615(5) 0.3234(2)
C79 C 0.20294(7) 0.2948(5) 0.38601(18)
H84 H 0.2181 0.3550 0.4048
C80 C 0.18131(11) 0.1376(6) 0.2233(2)
H85 H 0.1646 0.0713 0.2121
H86 H 0.1977 0.0677 0.2122
H87 H 0.1816 0.2495 0.1999
C81 C 0.24862(9) 0.3869(6) 0.3129(2)
H88 H 0.2629 0.4074 0.2808
H89 H 0.2558 0.3075 0.3457
H90 H 0.2433 0.4999 0.3322
C82 C 0.11259(8) 0.2944(5) 0.4917(3)
H91 H 0.0953 0.3645 0.4927
H92 H 0.1129 0.2186 0.5300
C83 C 0.18086(8) 0.2734(5) 0.49289(19)
C84 C 0.15877(8) 0.3533(5) 0.5254(2)
C85 C 0.16060(8) 0.3858(5) 0.5892(2)
H93 H 0.1452 0.4368 0.6105
C86 C 0.18382(9) 0.3470(5) 0.6232(2)
C87 C 0.20669(8) 0.2755(5) 0.59092(19)
C88 C 0.20495(8) 0.2352(5) 0.52702(19)
H94 H 0.2202 0.1813 0.5062
C89 C 0.18634(10) 0.3887(6) 0.6938(2)
H95 H 0.1683 0.4248 0.7104
H96 H 0.1997 0.4848 0.6999
H97 H 0.1927 0.2832 0.7165
C90 C 0.25381(8) 0.1737(5) 0.5964(2)
H98 H 0.2692 0.1676 0.6266
H99 H 0.2590 0.2485 0.5604
H100 H 0.2494 0.0545 0.5812
loop_
_geom_bond_atom_site_label_1
_geom_bond_atom_site_label_2
_geom_bond_site_symmetry_1
_geom_bond_site_symmetry_2
O1 C1 1_555 1_555
O2 C6 1_555 1_555
O3 C10 1_555 1_555
O4 C15 1_555 1_555
C1 H1 1_555 1_555
H2 C1 1_555 1_555
C2 C3 1_555 1_555
C3 O1 1_555 1_555
C4 C3 1_555 1_555
H3 C4 1_555 1_555
C5 C4 1_555 1_555
C6 C5 1_555 1_555
C7 C2 1_555 1_555
H4 C7 1_555 1_555
C8 C5 1_555 1_555
H5 C8 1_555 1_555
H6 C8 1_555 1_555
H7 C8 1_555 1_555
C9 O2 1_555 1_555
H8 C9 1_555 1_555
H9 C9 1_555 1_555
H10 C9 1_555 1_555
C10 C1 1_555 1_555
H11 C10 1_555 1_555
H12 C10 1_555 1_555
C11 C2 1_555 1_555
C12 O3 1_555 1_555
C13 C12 1_555 1_555
H13 C13 1_555 1_555
C14 C13 1_555 1_555
C15 C14 1_555 1_555
C16 C11 1_555 1_555
H14 C16 1_555 1_555
C17 C14 1_555 1_555
H15 C17 1_555 1_555
H16 C17 1_555 1_555
H17 C17 1_555 1_555
C18 O4 1_555 1_555
H18 C18 1_555 1_555
H19 C18 1_555 1_555
H20 C18 1_555 1_555
O5 C19 1_555 1_555
O6 C24 1_555 1_555
O7 C28 1_555 1_555
O8 C33 1_555 1_555
C19 H21 1_555 1_555
H22 C19 1_555 1_555
C20 C21 1_555 1_555
C21 O5 1_555 1_555
C22 C21 1_555 1_555
H23 C22 1_555 1_555
C23 C22 1_555 1_555
C24 C23 1_555 1_555
C25 C20 1_555 1_555
H24 C25 1_555 1_555
C26 C23 1_555 1_555
H25 C26 1_555 1_555
H26 C26 1_555 1_555
H27 C26 1_555 1_555
C27 O6 1_555 1_555
H28 C27 1_555 1_555
H29 C27 1_555 1_555
H30 C27 1_555 1_555
C28 C19 1_555 1_555
H31 C28 1_555 1_555
H32 C28 1_555 1_555
C29 C20 1_555 1_555
C30 O7 1_555 1_555
C31 C30 1_555 1_555
H33 C31 1_555 1_555
C32 C31 1_555 1_555
C33 C32 1_555 1_555
C34 C29 1_555 1_555
H34 C34 1_555 1_555
C35 C32 1_555 1_555
H35 C35 1_555 1_555
H36 C35 1_555 1_555
H37 C35 1_555 1_555
C36 O8 1_555 1_555
H38 C36 1_555 1_555
H39 C36 1_555 1_555
H40 C36 1_555 1_555
O9 C37 1_555 1_555
O10 C42 1_555 1_555
O11 C46 1_555 1_555
O12 C51 1_555 1_555
C37 H41 1_555 1_555
H42 C37 1_555 1_555
C38 C39 1_555 1_555
C39 O9 1_555 1_555
C40 C39 1_555 1_555
H43 C40 1_555 1_555
C41 C40 1_555 1_555
C42 C41 1_555 1_555
C43 C38 1_555 1_555
H44 C43 1_555 1_555
C44 C41 1_555 1_555
H45 C44 1_555 1_555
H46 C44 1_555 1_555
H47 C44 1_555 1_555
C45 O10 1_555 1_555
H48 C45 1_555 1_555
H49 C45 1_555 1_555
H50 C45 1_555 1_555
C46 C37 1_555 1_555
H51 C46 1_555 1_555
H52 C46 1_555 1_555
C47 C38 1_555 1_555
C48 O11 1_555 1_555
C49 C48 1_555 1_555
H53 C49 1_555 1_555
C50 C49 1_555 1_555
C51 C50 1_555 1_555
C52 C47 1_555 1_555
H54 C52 1_555 1_555
C53 C50 1_555 1_555
H55 C53 1_555 1_555
H56 C53 1_555 1_555
H57 C53 1_555 1_555
C54 O12 1_555 1_555
H58 C54 1_555 1_555
H59 C54 1_555 1_555
H60 C54 1_555 1_555
O13 C55 1_555 1_555
O14 C60 1_555 1_555
O15 C64 1_555 1_555
O16 C69 1_555 1_555
C55 H61 1_555 1_555
H62 C55 1_555 1_555
C56 C57 1_555 1_555
C57 O13 1_555 1_555
C58 C57 1_555 1_555
H63 C58 1_555 1_555
C59 C58 1_555 1_555
C60 C59 1_555 1_555
C61 C56 1_555 1_555
H64 C61 1_555 1_555
C62 C59 1_555 1_555
H65 C62 1_555 1_555
H66 C62 1_555 1_555
H67 C62 1_555 1_555
C63 O14 1_555 1_555
H68 C63 1_555 1_555
H69 C63 1_555 1_555
H70 C63 1_555 1_555
C64 C55 1_555 1_555
H71 C64 1_555 1_555
H72 C64 1_555 1_555
C65 C56 1_555 1_555
C66 O15 1_555 1_555
C67 C66 1_555 1_555
H73 C67 1_555 1_555
C68 C67 1_555 1_555
C69 C68 1_555 1_555
C70 C65 1_555 1_555
H74 C70 1_555 1_555
C71 C68 1_555 1_555
H75 C71 1_555 1_555
H76 C71 1_555 1_555
H77 C71 1_555 1_555
C72 O16 1_555 1_555
H78 C72 1_555 1_555
H79 C72 1_555 1_555
H80 C72 1_555 1_555
O17 C73 1_555 1_555
O18 C78 1_555 1_555
O19 C82 1_555 1_555
O20 C87 1_555 1_555
C73 H81 1_555 1_555
H82 C73 1_555 1_555
C74 C75 1_555 1_555
C75 O17 1_555 1_555
C76 C75 1_555 1_555
H83 C76 1_555 1_555
C77 C76 1_555 1_555
C78 C77 1_555 1_555
C79 C74 1_555 1_555
H84 C79 1_555 1_555
C80 C77 1_555 1_555
H85 C80 1_555 1_555
H86 C80 1_555 1_555
H87 C80 1_555 1_555
C81 O18 1_555 1_555
H88 C81 1_555 1_555
H89 C81 1_555 1_555
H90 C81 1_555 1_555
C82 C73 1_555 1_555
H91 C82 1_555 1_555
H92 C82 1_555 1_555
C83 C74 1_555 1_555
C84 O19 1_555 1_555
C85 C84 1_555 1_555
H93 C85 1_555 1_555
C86 C85 1_555 1_555
C87 C86 1_555 1_555
C88 C83 1_555 1_555
H94 C88 1_555 1_555
C89 C86 1_555 1_555
H95 C89 1_555 1_555
H96 C89 1_555 1_555
H97 C89 1_555 1_555
C90 O20 1_555 1_555
H98 C90 1_555 1_555
H99 C90 1_555 1_555
H100 C90 1_555 1_555
C6 C7 1_555 1_555
C11 C12 1_555 1_555
C15 C16 1_555 1_555
C24 C25 1_555 1_555
C29 C30 1_555 1_555
C33 C34 1_555 1_555
C42 C43 1_555 1_555
C47 C48 1_555 1_555
C51 C52 1_555 1_555
C60 C61 1_555 1_555
C65 C66 1_555 1_555
C69 C70 1_555 1_555
C78 C79 1_555 1_555
C83 C84 1_555 1_555
C87 C88 1_555 1_555

#END
