
#######################################################################
#
#                 Cambridge Crystallographic Data Centre
#                                CCDC 
#
#######################################################################
#
# If this CIF has been generated from an entry in the Cambridge 
# Structural Database, then it will include bibliographic, chemical, 
# crystal, experimental, refinement or atomic coordinate data resulting 
# from the CCDC's data processing and validation procedures.
#
#######################################################################

data_LIGVEC
_chemical_compound_source        'Putranjiva roxburghii (Euphorbiaceae)'
_chemical_formula_moiety         'C30 H50 O1'
_chemical_name_systematic        7\b,8\b-Epoxy-9(87)-abeofriedelane
_chemical_properties_biological  'possible antitumour activity'
_symmetry_cell_setting           orthorhombic
_symmetry_space_group_name_H-M   'P 21 21 21'
_symmetry_Int_Tables_number      19
_space_group_name_Hall           'P 2ac 2ab'
loop_
_symmetry_equiv_pos_site_id
_symmetry_equiv_pos_as_xyz
1 x,y,z
2 1/2-x,-y,1/2+z
3 1/2+x,1/2-y,-z
4 -x,1/2+y,1/2-z
_cell_length_a                   11.819
_cell_length_b                   14.381
_cell_length_c                   15.402
_cell_angle_alpha                90
_cell_angle_beta                 90
_cell_angle_gamma                90
_cell_volume                     2617.86
_exptl_crystal_colour            white
_cell_formula_units_Z            4
loop_
_atom_site_label
_atom_site_type_symbol
_atom_site_fract_x
_atom_site_fract_y
_atom_site_fract_z
C1 C 0.1006(4) 0.8811(3) 0.1431(3)
C2 C 0.1813(5) 0.9318(4) 0.0812(3)
C3 C 0.2344(5) 1.0170(3) 0.1226(3)
C4 C 0.2896(4) 0.9982(3) 0.2103(3)
C5 C 0.2047(4) 0.9513(3) 0.2706(3)
C6 C 0.2569(4) 0.9068(3) 0.3545(3)
C7 C 0.1711(4) 0.8332(3) 0.3803(3)
C8 C 0.1847(4) 0.7862(3) 0.4647(3)
C9 C 0.1129(3) 0.7958(3) 0.2972(3)
C10 C 0.1641(3) 0.8606(3) 0.2271(3)
C11 C 0.1490(3) 0.6956(3) 0.2779(3)
C12 C 0.1250(4) 0.6175(3) 0.3425(3)
C13 C 0.1933(3) 0.6128(3) 0.4289(2)
C14 C 0.1489(4) 0.6883(3) 0.4936(3)
C15 C 0.2069(5) 0.6722(3) 0.5823(3)
C16 C 0.1720(5) 0.5802(4) 0.6219(3)
C17 C 0.1975(4) 0.4949(3) 0.5652(3)
C18 C 0.1733(3) 0.5122(3) 0.4670(3)
C19 C 0.2239(4) 0.4309(3) 0.4126(3)
C20 C 0.3360(4) 0.3821(3) 0.4371(3)
C21 C 0.3510(4) 0.3760(3) 0.5351(3)
C22 C 0.3203(4) 0.4652(3) 0.5812(3)
C23 C 0.3430(5) 1.0864(3) 0.2472(4)
C24 C 0.1090(4) 1.0177(3) 0.2995(3)
C25 C -0.0170(4) 0.8033(3) 0.2989(3)
C26 C 0.0203(4) 0.6856(3) 0.5072(3)
C27 C 0.3183(3) 0.6308(3) 0.4075(2)
C28 C 0.1181(5) 0.4174(4) 0.5965(4)
C29 C 0.4431(5) 0.4285(4) 0.3972(4)
C30 C 0.3297(6) 0.2827(4) 0.3998(4)
O1 O 0.0996(3) 0.8578(2) 0.4544(2)
loop_
_geom_bond_atom_site_label_1
_geom_bond_atom_site_label_2
_geom_bond_site_symmetry_1
_geom_bond_site_symmetry_2
C1 C2 1_555 1_555
C2 C3 1_555 1_555
C3 C4 1_555 1_555
C4 C5 1_555 1_555
C5 C6 1_555 1_555
C6 C7 1_555 1_555
C7 C8 1_555 1_555
C8 C14 1_555 1_555
C9 C7 1_555 1_555
C10 C1 1_555 1_555
C11 C9 1_555 1_555
C12 C11 1_555 1_555
C13 C12 1_555 1_555
C14 C13 1_555 1_555
C15 C14 1_555 1_555
C16 C15 1_555 1_555
C17 C16 1_555 1_555
C18 C13 1_555 1_555
C19 C18 1_555 1_555
C20 C19 1_555 1_555
C21 C20 1_555 1_555
C22 C17 1_555 1_555
C23 C4 1_555 1_555
C24 C5 1_555 1_555
C25 C9 1_555 1_555
C26 C14 1_555 1_555
C27 C13 1_555 1_555
C28 C17 1_555 1_555
C29 C20 1_555 1_555
C30 C20 1_555 1_555
O1 C7 1_555 1_555
C5 C10 1_555 1_555
C8 O1 1_555 1_555
C9 C10 1_555 1_555
C17 C18 1_555 1_555
C21 C22 1_555 1_555

#END
