
#######################################################################
#
#                 Cambridge Crystallographic Data Centre
#                                CCDC 
#
#######################################################################
#
# If this CIF has been generated from an entry in the Cambridge 
# Structural Database, then it will include bibliographic, chemical, 
# crystal, experimental, refinement or atomic coordinate data resulting 
# from the CCDC's data processing and validation procedures.
#
#######################################################################

data_LIHDAK
_chemical_formula_moiety         'C12 H12 O3'
_chemical_name_systematic        
4-hydroxy-5,5-dimethyl-3-phenylfuran-2(5H)-one
_symmetry_cell_setting           triclinic
_symmetry_space_group_name_H-M   'P -1'
_symmetry_Int_Tables_number      2
_space_group_name_Hall           '-P 1'
loop_
_symmetry_equiv_pos_site_id
_symmetry_equiv_pos_as_xyz
1 x,y,z
2 -x,-y,-z
_cell_length_a                   6.7868(6)
_cell_length_b                   8.5848(10)
_cell_length_c                   9.4383(8)
_cell_angle_alpha                87.679(8)
_cell_angle_beta                 83.576(7)
_cell_angle_gamma                73.938(9)
_cell_volume                     525.096
_exptl_crystal_colour            colorless
_exptl_crystal_description       plate
_cell_formula_units_Z            2
loop_
_atom_site_label
_atom_site_type_symbol
_atom_site_fract_x
_atom_site_fract_y
_atom_site_fract_z
O1 O 0.67065(13) 0.26244(13) 0.24921(11)
O2 O 0.36968(14) 0.26392(14) 0.36890(12)
O3 O 1.01482(15) 0.25560(16) 0.51369(12)
H1 H 1.1155 0.2614 0.4592
C1 C 0.58776(19) 0.24889(17) 0.64648(15)
C2 C 0.87907(18) 0.25913(18) 0.27859(15)
C3 C 0.55015(19) 0.26111(17) 0.37387(15)
C4 C 0.66661(18) 0.25683(17) 0.49450(15)
C5 C 0.85929(19) 0.25825(18) 0.43903(15)
C6 C 0.4463(2) 0.16101(19) 0.69093(17)
H2 H 0.3943 0.1110 0.6239
C7 C 0.6603(2) 0.32434(19) 0.75009(17)
H3 H 0.7528 0.3849 0.7224
C8 C 0.5964(3) 0.3102(2) 0.89342(18)
H4 H 0.6469 0.3606 0.9610
C9 C 0.3830(2) 0.1481(2) 0.83530(18)
H5 H 0.2890 0.0891 0.8640
C10 C 0.9276(2) 0.4106(2) 0.21251(19)
H6 H 0.9219 0.4107 0.1113
H7 H 1.0632 0.4117 0.2316
H8 H 0.8284 0.5050 0.2529
C11 C 1.0258(2) 0.1038(2) 0.2164(2)
H9 H 0.9879 0.0120 0.2606
H10 H 1.1641 0.0987 0.2339
H11 H 1.0181 0.1024 0.1156
C12 C 0.4580(3) 0.2217(2) 0.93652(18)
H12 H 0.4158 0.2117 1.0328
loop_
_geom_bond_atom_site_label_1
_geom_bond_atom_site_label_2
_geom_bond_site_symmetry_1
_geom_bond_site_symmetry_2
O1 C2 1_555 1_555
O2 C3 1_555 1_555
O3 H1 1_555 1_555
C1 C4 1_555 1_555
C2 C5 1_555 1_555
C3 O1 1_555 1_555
C4 C3 1_555 1_555
C5 O3 1_555 1_555
C6 C1 1_555 1_555
H2 C6 1_555 1_555
C7 C1 1_555 1_555
H3 C7 1_555 1_555
C8 C7 1_555 1_555
H4 C8 1_555 1_555
C9 C6 1_555 1_555
H5 C9 1_555 1_555
C10 C2 1_555 1_555
H6 C10 1_555 1_555
H7 C10 1_555 1_555
H8 C10 1_555 1_555
C11 C2 1_555 1_555
H9 C11 1_555 1_555
H10 C11 1_555 1_555
H11 C11 1_555 1_555
C12 C8 1_555 1_555
H12 C12 1_555 1_555
C4 C5 1_555 1_555
C9 C12 1_555 1_555

#END
