
#######################################################################
#
#                 Cambridge Crystallographic Data Centre
#                                CCDC 
#
#######################################################################
#
# If this CIF has been generated from an entry in the Cambridge 
# Structural Database, then it will include bibliographic, chemical, 
# crystal, experimental, refinement or atomic coordinate data resulting 
# from the CCDC's data processing and validation procedures.
#
#######################################################################

data_LIHGAM
_chemical_formula_moiety         'C8 H12 N1 O1 1+,I1 1-'
_chemical_name_systematic        '4-Ethoxyanilinium iodide'
_symmetry_cell_setting           monoclinic
_symmetry_space_group_name_H-M   'P 21/c'
_symmetry_Int_Tables_number      14
_space_group_name_Hall           '-P 2ybc'
loop_
_symmetry_equiv_pos_site_id
_symmetry_equiv_pos_as_xyz
1 x,y,z
2 -x,1/2+y,1/2-z
3 -x,-y,-z
4 x,1/2-y,1/2+z
_cell_length_a                   12.165(2)
_cell_length_b                   6.9284(14)
_cell_length_c                   12.700(3)
_cell_angle_alpha                90
_cell_angle_beta                 97.96(3)
_cell_angle_gamma                90
_cell_volume                     1060.09
_exptl_crystal_colour            colorless
_exptl_crystal_description       Prism
_cell_formula_units_Z            4
loop_
_atom_site_label
_atom_site_type_symbol
_atom_site_fract_x
_atom_site_fract_y
_atom_site_fract_z
I1 I 0.52678(7) 0.24082(8) 0.12840(5)
O1 O -0.0535(8) 0.2458(11) 0.4023(11)
N1 N 0.3939(9) 0.2360(12) 0.3585(9)
H1 H 0.4085 0.1499 0.3103
H2 H 0.4295 0.2033 0.4219
H3 H 0.4164 0.3522 0.3406
C1 C -0.2371(10) 0.127(2) 0.4008(11)
H4 H -0.2907 0.0330 0.3717
H5 H -0.2651 0.2544 0.3832
H6 H -0.2233 0.1131 0.4767
C2 C -0.1308(10) 0.097(2) 0.3552(12)
H7 H -0.1011 -0.0304 0.3728
H8 H -0.1435 0.1103 0.2784
C3 C 0.0532(11) 0.2363(14) 0.3844(12)
C4 C 0.1237(9) 0.3646(16) 0.4429(9)
H9 H 0.0959 0.4501 0.4892
C5 C 0.2370(9) 0.3665(16) 0.4330(9)
H10 H 0.2853 0.4512 0.4730
C6 C 0.2752(10) 0.2403(13) 0.3627(11)
C7 C 0.2086(10) 0.1141(16) 0.3032(10)
H11 H 0.2376 0.0295 0.2573
C8 C 0.0958(9) 0.1129(17) 0.3120(9)
H12 H 0.0484 0.0300 0.2698
loop_
_geom_bond_atom_site_label_1
_geom_bond_atom_site_label_2
_geom_bond_site_symmetry_1
_geom_bond_site_symmetry_2
O1 C2 1_555 1_555
N1 H1 1_555 1_555
H2 N1 1_555 1_555
H3 N1 1_555 1_555
C1 H4 1_555 1_555
H5 C1 1_555 1_555
H6 C1 1_555 1_555
C2 C1 1_555 1_555
H7 C2 1_555 1_555
H8 C2 1_555 1_555
C3 O1 1_555 1_555
C4 C3 1_555 1_555
H9 C4 1_555 1_555
C5 C4 1_555 1_555
H10 C5 1_555 1_555
C6 N1 1_555 1_555
C7 C6 1_555 1_555
H11 C7 1_555 1_555
C8 C3 1_555 1_555
H12 C8 1_555 1_555
C5 C6 1_555 1_555
C7 C8 1_555 1_555

#END
