
#######################################################################
#
#                 Cambridge Crystallographic Data Centre
#                                CCDC 
#
#######################################################################
#
# If this CIF has been generated from an entry in the Cambridge 
# Structural Database, then it will include bibliographic, chemical, 
# crystal, experimental, refinement or atomic coordinate data resulting 
# from the CCDC's data processing and validation procedures.
#
#######################################################################

data_LIHGAM01
_chemical_formula_moiety         'C8 H12 N1 O1 1+,I1 1-'
_chemical_name_systematic        '4-Ethoxyanilinium iodide'
_symmetry_cell_setting           monoclinic
_symmetry_space_group_name_H-M   'P 21'
_symmetry_Int_Tables_number      4
_space_group_name_Hall           'P 2yb'
loop_
_symmetry_equiv_pos_site_id
_symmetry_equiv_pos_as_xyz
1 x,y,z
2 -x,1/2+y,-z
_cell_length_a                   12.079(2)
_cell_length_b                   6.9033(14)
_cell_length_c                   6.1103(12)
_cell_angle_alpha                90
_cell_angle_beta                 99.59(3)
_cell_angle_gamma                90
_cell_volume                     502.387
_exptl_crystal_colour            colorless
_exptl_crystal_description       Prism
_cell_formula_units_Z            2
loop_
_atom_site_label
_atom_site_type_symbol
_atom_site_fract_x
_atom_site_fract_y
_atom_site_fract_z
O1 O -0.0559(11) 0.365(5) 0.804(2)
C1 C -0.237(2) 0.506(5) 0.810(5)
H1 H -0.2887 0.6074 0.7535
H2 H -0.2187 0.5175 0.9686
H3 H -0.2711 0.3826 0.7720
C2 C -0.131(2) 0.525(5) 0.710(5)
H4 H -0.1485 0.5140 0.5493
H5 H -0.0959 0.6497 0.7469
C3 C 0.0546(15) 0.370(3) 0.770(3)
C4 C 0.0905(17) 0.242(3) 0.618(3)
H6 H 0.0393 0.1600 0.5335
C5 C 0.2036(15) 0.239(3) 0.593(4)
H7 H 0.2303 0.1540 0.4961
C6 C 0.2746(16) 0.372(3) 0.721(3)
C7 C 0.2427(17) 0.496(3) 0.881(4)
H8 H 0.2944 0.5752 0.9692
C8 C 0.1289(15) 0.495(3) 0.902(4)
H9 H 0.1029 0.5764 1.0035
N1 N 0.3968(13) 0.391(5) 0.711(3)
H10 H 0.4266 0.4829 0.8054
H11 H 0.4055 0.4230 0.5742
H12 H 0.4311 0.2789 0.7487
I1 I 0.53763(12) 0.3784(17) 0.2621(2)
loop_
_geom_bond_atom_site_label_1
_geom_bond_atom_site_label_2
_geom_bond_site_symmetry_1
_geom_bond_site_symmetry_2
O1 C2 1_555 1_555
C1 H1 1_555 1_555
H2 C1 1_555 1_555
H3 C1 1_555 1_555
C2 C1 1_555 1_555
H4 C2 1_555 1_555
H5 C2 1_555 1_555
C3 O1 1_555 1_555
C4 C3 1_555 1_555
H6 C4 1_555 1_555
C5 C4 1_555 1_555
H7 C5 1_555 1_555
C6 C5 1_555 1_555
C7 C6 1_555 1_555
H8 C7 1_555 1_555
C8 C3 1_555 1_555
H9 C8 1_555 1_555
N1 C6 1_555 1_555
H10 N1 1_555 1_555
H11 N1 1_555 1_555
H12 N1 1_555 1_555
C7 C8 1_555 1_555

#END
