
#######################################################################
#
#                 Cambridge Crystallographic Data Centre
#                                CCDC 
#
#######################################################################
#
# If this CIF has been generated from an entry in the Cambridge 
# Structural Database, then it will include bibliographic, chemical, 
# crystal, experimental, refinement or atomic coordinate data resulting 
# from the CCDC's data processing and validation procedures.
#
#######################################################################

data_LIHHUH
_chemical_compound_source        'endophytic fungus Epicoccum nigrum'
_chemical_name_common            'Epicoccin C methanol solvate'
_chemical_formula_moiety         'C18 H18 N2 O6 S4,C1 H4 O1'
_chemical_name_systematic        
'5,15-Dihydroxy-21,22,23,24-tetrathia-3,13-diazaheptacyclo[14.4.2.2^6,11^.0^1,13^.0^3,11^.0^4,9^.0^14,19^]tetracosane-2,8,12,18-tetrone methanol solvate'
_symmetry_cell_setting           orthorhombic
_symmetry_space_group_name_H-M   'P 21 21 21'
_symmetry_Int_Tables_number      19
_space_group_name_Hall           'P 2ac 2ab'
loop_
_symmetry_equiv_pos_site_id
_symmetry_equiv_pos_as_xyz
1 x,y,z
2 1/2-x,-y,1/2+z
3 -x,1/2+y,1/2-z
4 1/2+x,1/2-y,-z
_cell_length_a                   8.9825(18)
_cell_length_b                   13.514(3)
_cell_length_c                   17.032(3)
_cell_angle_alpha                90
_cell_angle_beta                 90
_cell_angle_gamma                90
_cell_volume                     2067.51
_exptl_crystal_colour            colorless
_exptl_crystal_description       block
_cell_formula_units_Z            4
loop_
_atom_site_label
_atom_site_type_symbol
_atom_site_fract_x
_atom_site_fract_y
_atom_site_fract_z
S1 S 0.95375(11) 0.42673(7) 0.27629(6)
S2 S 0.75014(11) 0.36442(7) 0.26460(5)
S3 S 0.76371(11) 0.60142(6) 0.41679(5)
S4 S 0.60783(11) 0.61632(7) 0.33181(5)
O1 O 1.1899(3) 0.2214(2) 0.39938(16)
H1 H 1.2703 0.2464 0.3838
O2 O 0.9407(3) 0.4247(2) 0.51638(15)
O3 O 0.5818(4) 0.7266(2) 0.57490(16)
O4 O 0.2162(3) 0.5830(2) 0.44755(18)
H2 H 0.1787 0.6128 0.4090
O5 O 0.4377(3) 0.33842(19) 0.36803(16)
O6 O 0.8425(3) 0.1197(2) 0.23013(16)
N1 N 0.8243(3) 0.3385(2) 0.42014(18)
N2 N 0.5689(4) 0.4477(2) 0.44160(16)
C1 C 1.0805(4) 0.3221(3) 0.2949(2)
H3 H 1.1826 0.3440 0.2793
C2 C 1.0853(4) 0.2990(3) 0.3836(2)
H4 H 1.1136 0.3599 0.4135
C3 C 0.9371(4) 0.2594(3) 0.4138(2)
H5 H 0.9530 0.2297 0.4669
C4 C 0.8353(4) 0.4135(3) 0.4719(2)
C5 C 0.7066(4) 0.4852(3) 0.4731(2)
C6 C 0.6610(4) 0.5183(3) 0.5555(2)
H6 H 0.7318 0.5675 0.5770
H7 H 0.6541 0.4615 0.5919
C7 C 0.5063(4) 0.5650(3) 0.5403(2)
H8 H 0.4439 0.5564 0.5884
C8 C 0.5245(5) 0.6760(3) 0.5243(2)
C9 C 0.4608(5) 0.7226(3) 0.4517(2)
H9 H 0.5286 0.7760 0.4343
H10 H 0.3642 0.7535 0.4653
C10 C 0.4365(4) 0.6517(3) 0.3836(2)
H11 H 0.3713 0.6863 0.3447
C11 C 0.3535(4) 0.5586(3) 0.4102(2)
H12 H 0.3345 0.5145 0.3641
C12 C 0.4388(4) 0.5017(3) 0.4734(2)
H13 H 0.3696 0.4523 0.4974
C13 C 0.5574(4) 0.3701(3) 0.3921(2)
C14 C 0.7023(4) 0.3216(3) 0.3684(2)
C15 C 0.6935(4) 0.2084(3) 0.3651(2)
H14 H 0.6385 0.1854 0.3182
H15 H 0.6464 0.1808 0.4129
C16 C 0.8591(4) 0.1817(3) 0.3605(2)
H16 H 0.8728 0.1150 0.3849
C17 C 0.9098(4) 0.1753(3) 0.2745(2)
C18 C 1.0454(5) 0.2295(3) 0.2478(2)
H17 H 1.0322 0.2482 0.1921
H18 H 1.1317 0.1841 0.2509
O7 O 0.1920(4) 0.5449(3) 0.6132(2)
H19 H 0.1404 0.5437 0.5721
C19 C 0.0791(5) 0.5459(4) 0.6706(3)
H20 H 0.1147 0.5125 0.7181
H21 H -0.0090 0.5114 0.6504
H22 H 0.0529 0.6145 0.6832
loop_
_geom_bond_atom_site_label_1
_geom_bond_atom_site_label_2
_geom_bond_site_symmetry_1
_geom_bond_site_symmetry_2
S1 S2 1_555 1_555
S2 C14 1_555 1_555
S3 S4 1_555 1_555
S4 C10 1_555 1_555
O1 H1 1_555 1_555
O2 C4 1_555 1_555
O3 C8 1_555 1_555
O4 H2 1_555 1_555
O5 C13 1_555 1_555
O6 C17 1_555 1_555
N1 C3 1_555 1_555
N2 C5 1_555 1_555
C1 S1 1_555 1_555
H3 C1 1_555 1_555
C2 O1 1_555 1_555
H4 C2 1_555 1_555
C3 C2 1_555 1_555
H5 C3 1_555 1_555
C4 N1 1_555 1_555
C5 S3 1_555 1_555
C6 C5 1_555 1_555
H6 C6 1_555 1_555
H7 C6 1_555 1_555
C7 C6 1_555 1_555
H8 C7 1_555 1_555
C8 C7 1_555 1_555
C9 C8 1_555 1_555
H9 C9 1_555 1_555
H10 C9 1_555 1_555
C10 C9 1_555 1_555
H11 C10 1_555 1_555
C11 O4 1_555 1_555
H12 C11 1_555 1_555
C12 N2 1_555 1_555
H13 C12 1_555 1_555
C13 N2 1_555 1_555
C14 N1 1_555 1_555
C15 C14 1_555 1_555
H14 C15 1_555 1_555
H15 C15 1_555 1_555
C16 C3 1_555 1_555
H16 C16 1_555 1_555
C17 C16 1_555 1_555
C18 C1 1_555 1_555
H17 C18 1_555 1_555
H18 C18 1_555 1_555
O7 H19 1_555 1_555
C19 O7 1_555 1_555
H20 C19 1_555 1_555
H21 C19 1_555 1_555
H22 C19 1_555 1_555
C1 C2 1_555 1_555
C4 C5 1_555 1_555
C7 C12 1_555 1_555
C10 C11 1_555 1_555
C11 C12 1_555 1_555
C13 C14 1_555 1_555
C15 C16 1_555 1_555
C17 C18 1_555 1_555

#END
