
#######################################################################
#
#                 Cambridge Crystallographic Data Centre
#                                CCDC 
#
#######################################################################
#
# If this CIF has been generated from an entry in the Cambridge 
# Structural Database, then it will include bibliographic, chemical, 
# crystal, experimental, refinement or atomic coordinate data resulting 
# from the CCDC's data processing and validation procedures.
#
#######################################################################

data_LIHJIY
_chemical_name_common            diisopropylamine
_chemical_formula_moiety         'C6 H15 N1'
_chemical_name_systematic        N-(propan-2-yl)propan-2-amine
_symmetry_cell_setting           monoclinic
_symmetry_space_group_name_H-M   'C 2/c'
_symmetry_Int_Tables_number      15
_space_group_name_Hall           '-C 2yn'
loop_
_symmetry_equiv_pos_site_id
_symmetry_equiv_pos_as_xyz
1 x,y,z
2 -x,y,1/2-z
3 1/2+x,1/2+y,z
4 1/2-x,1/2+y,1/2-z
5 -x,-y,-z
6 x,-y,1/2+z
7 1/2-x,1/2-y,-z
8 1/2+x,1/2-y,1/2+z
_cell_length_a                   14.527(8)
_cell_length_b                   7.293(4)
_cell_length_c                   14.148(6)
_cell_angle_alpha                90
_cell_angle_beta                 104.794(11)
_cell_angle_gamma                90
_cell_volume                     1449.23
_exptl_crystal_colour            colorless
_exptl_crystal_description       cylinder
_cell_formula_units_Z            8
_exptl_crystal_recrystallization_method 'From the Melt'
loop_
_atom_site_label
_atom_site_type_symbol
_atom_site_fract_x
_atom_site_fract_y
_atom_site_fract_z
N1 N 0.07016(7) 0.01136(13) 0.36988(8)
H1 H 0.0367(14) -0.048(3) 0.3986(15)
C1 C 0.07850(7) 0.20185(14) 0.40561(8)
H2 H 0.1186 0.2719 0.3702
C2 C -0.02093(8) 0.28654(16) 0.38107(9)
H3 H -0.0486 0.2813 0.3103
H4 H -0.0166 0.4146 0.4027
H5 H -0.0614 0.2181 0.4145
C3 C 0.12406(8) 0.21576(16) 0.51502(9)
H6 H 0.0845 0.1508 0.5509
H7 H 0.1294 0.3450 0.5346
H8 H 0.1876 0.1604 0.5300
C4 C 0.15993(8) -0.08684(14) 0.37409(9)
H9 H 0.2038 -0.0682 0.4404
C5 C 0.20909(8) -0.01723(16) 0.29781(9)
H10 H 0.1682 -0.0402 0.2322
H11 H 0.2698 -0.0815 0.3055
H12 H 0.2208 0.1147 0.3067
C6 C 0.13827(10) -0.29084(16) 0.35993(11)
H13 H 0.1092 -0.3345 0.4111
H14 H 0.1975 -0.3582 0.3639
H15 H 0.0942 -0.3111 0.2957
H16? H 0.0336(14) 0.006(3) 0.3129(14)
loop_
_geom_bond_atom_site_label_1
_geom_bond_atom_site_label_2
_geom_bond_site_symmetry_1
_geom_bond_site_symmetry_2
N1 H1 1_555 1_555
C1 N1 1_555 1_555
H2 C1 1_555 1_555
C2 C1 1_555 1_555
H3 C2 1_555 1_555
H4 C2 1_555 1_555
H5 C2 1_555 1_555
C3 C1 1_555 1_555
H6 C3 1_555 1_555
H7 C3 1_555 1_555
H8 C3 1_555 1_555
C4 N1 1_555 1_555
H9 C4 1_555 1_555
C5 C4 1_555 1_555
H10 C5 1_555 1_555
H11 C5 1_555 1_555
H12 C5 1_555 1_555
C6 C4 1_555 1_555
H13 C6 1_555 1_555
H14 C6 1_555 1_555
H15 C6 1_555 1_555

#END
