
#######################################################################
#
#                 Cambridge Crystallographic Data Centre
#                                CCDC 
#
#######################################################################
#
# If this CIF has been generated from an entry in the Cambridge 
# Structural Database, then it will include bibliographic, chemical, 
# crystal, experimental, refinement or atomic coordinate data resulting 
# from the CCDC's data processing and validation procedures.
#
#######################################################################

data_LIHJOE
_chemical_name_common            N-ethylpropan-2-amine
_chemical_formula_moiety         'C5 H13 N1'
_chemical_name_systematic        ethylisopropylamine
_symmetry_cell_setting           monoclinic
_symmetry_space_group_name_H-M   'P 21/n'
_symmetry_Int_Tables_number      14
_space_group_name_Hall           '-P 2yn'
loop_
_symmetry_equiv_pos_site_id
_symmetry_equiv_pos_as_xyz
1 x,y,z
2 1/2-x,1/2+y,1/2-z
3 -x,-y,-z
4 1/2+x,1/2-y,1/2+z
_cell_length_a                   8.933(18)
_cell_length_b                   9.062(19)
_cell_length_c                   15.56(3)
_cell_angle_alpha                90
_cell_angle_beta                 99.55(3)
_cell_angle_gamma                90
_cell_volume                     1242.14
_exptl_crystal_colour            colorless
_exptl_crystal_description       cylinder
_cell_formula_units_Z            8
_exptl_crystal_recrystallization_method 'From the Melt'
loop_
_atom_site_label
_atom_site_type_symbol
_atom_site_fract_x
_atom_site_fract_y
_atom_site_fract_z
N1 N 0.1785(3) 0.2288(5) 0.1314(2)
H1 H 0.159(4) 0.187(5) 0.180(2)
C1 C 0.0385(4) 0.2902(6) 0.0824(3)
H2 H -0.0328 0.2090 0.0622
H3 H 0.0616 0.3430 0.0305
C2 C -0.0360(5) 0.3969(6) 0.1392(3)
H4 H -0.1328 0.4316 0.1065
H5 H 0.0313 0.4814 0.1553
H6 H -0.0541 0.3459 0.1921
C3 C 0.2559(5) 0.1261(6) 0.0808(3)
H7 H 0.1785 0.0608 0.0459
C4 C 0.3648(5) 0.0318(6) 0.1424(3)
H8 H 0.3091 -0.0204 0.1823
H9 H 0.4427 0.0947 0.1759
H10 H 0.4133 -0.0401 0.1088
C5 C 0.3400(5) 0.2100(6) 0.0193(3)
H11 H 0.2682 0.2720 -0.0194
H12 H 0.3879 0.1398 -0.0157
H13 H 0.4181 0.2723 0.0530
N2 N 0.0645(4) 0.0106(5) 0.2927(2)
H14 H 0.147(5) -0.054(6) 0.308(3)
C6 C 0.0348(4) 0.0911(6) 0.3694(3)
H15 H -0.0229 0.0273 0.4039
H16 H -0.0278 0.1791 0.3507
C7 C 0.1822(5) 0.1387(6) 0.4255(3)
H17 H 0.1597 0.1968 0.4750
H18 H 0.2409 0.1989 0.3907
H19 H 0.2411 0.0512 0.4471
C8 C -0.0653(4) -0.0767(5) 0.2498(3)
H20 H -0.0988 -0.1440 0.2939
C9 C -0.0138(5) -0.1694(6) 0.1795(3)
H21 H 0.0769 -0.2254 0.2044
H22 H 0.0102 -0.1050 0.1330
H23 H -0.0949 -0.2378 0.1554
C10 C -0.1972(4) 0.0219(6) 0.2126(3)
H24 H -0.2275 0.0813 0.2595
H25 H -0.2830 -0.0391 0.1858
H26 H -0.1665 0.0873 0.1685
loop_
_geom_bond_atom_site_label_1
_geom_bond_atom_site_label_2
_geom_bond_site_symmetry_1
_geom_bond_site_symmetry_2
N1 H1 1_555 1_555
C1 N1 1_555 1_555
H2 C1 1_555 1_555
H3 C1 1_555 1_555
C2 C1 1_555 1_555
H4 C2 1_555 1_555
H5 C2 1_555 1_555
H6 C2 1_555 1_555
C3 N1 1_555 1_555
H7 C3 1_555 1_555
C4 C3 1_555 1_555
H8 C4 1_555 1_555
H9 C4 1_555 1_555
H10 C4 1_555 1_555
C5 C3 1_555 1_555
H11 C5 1_555 1_555
H12 C5 1_555 1_555
H13 C5 1_555 1_555
N2 H14 1_555 1_555
C6 N2 1_555 1_555
H15 C6 1_555 1_555
H16 C6 1_555 1_555
C7 C6 1_555 1_555
H17 C7 1_555 1_555
H18 C7 1_555 1_555
H19 C7 1_555 1_555
C8 N2 1_555 1_555
H20 C8 1_555 1_555
C9 C8 1_555 1_555
H21 C9 1_555 1_555
H22 C9 1_555 1_555
H23 C9 1_555 1_555
C10 C8 1_555 1_555
H24 C10 1_555 1_555
H25 C10 1_555 1_555
H26 C10 1_555 1_555

#END
