
#######################################################################
#
#                 Cambridge Crystallographic Data Centre
#                                CCDC 
#
#######################################################################
#
# If this CIF has been generated from an entry in the Cambridge 
# Structural Database, then it will include bibliographic, chemical, 
# crystal, experimental, refinement or atomic coordinate data resulting 
# from the CCDC's data processing and validation procedures.
#
#######################################################################

data_LIHLEW
_chemical_formula_moiety         'C17 H14 O3'
_chemical_name_systematic        
7-methoxy-8-methyl-3-phenyl-4H-1-benzopyran-4-one
_symmetry_cell_setting           monoclinic
_symmetry_space_group_name_H-M   'P 21/c'
_symmetry_Int_Tables_number      14
_space_group_name_Hall           '-P 2ybc'
loop_
_symmetry_equiv_pos_site_id
_symmetry_equiv_pos_as_xyz
1 x,y,z
2 -x,1/2+y,1/2-z
3 -x,-y,-z
4 x,1/2-y,1/2+z
_cell_length_a                   10.7376(9)
_cell_length_b                   9.8806(8)
_cell_length_c                   12.5561(10)
_cell_angle_alpha                90
_cell_angle_beta                 93.2400(10)
_cell_angle_gamma                90
_cell_volume                     1330
_cell_formula_units_Z            4
loop_
_atom_site_label
_atom_site_type_symbol
_atom_site_fract_x
_atom_site_fract_y
_atom_site_fract_z
C1 C 0.85148(12) 0.18435(13) 0.82941(10)
C2 C 0.79530(12) 0.27591(13) 0.90529(10)
C3 C 0.86129(12) 0.30981(14) 0.99597(11)
C4 C 1.03543(12) 0.17750(13) 0.95989(10)
C5 C 0.97642(12) 0.13607(13) 0.86286(10)
C6 C 1.04022(12) 0.04437(14) 0.80079(11)
C7 C 1.15612(12) -0.00319(15) 0.83382(11)
C8 C 1.21192(12) 0.04065(13) 0.93148(11)
C9 C 1.15289(12) 0.13205(13) 0.9966(1)
C10 C 0.66739(12) 0.33047(14) 0.88315(10)
C11 C 0.56902(12) 0.24472(15) 0.85040(11)
C12 C 0.44963(13) 0.29631(16) 0.83104(12)
C13 C 0.42678(13) 0.43327(17) 0.84250(11)
C14 C 0.52363(14) 0.51907(16) 0.87430(12)
C15 C 0.64328(13) 0.46823(15) 0.89478(11)
C16 C 1.21379(13) 0.17570(15) 1.10212(11)
C17 C 1.39384(12) -0.09256(15) 0.90453(11)
O1 O 0.79838(9) 0.15112(10) 0.74353(7)
O2 O 0.97785(8) 0.26763(9) 1.02520(7)
O3 O 1.32613(8) -0.00263(10) 0.97021(7)
H1 H 0.8222 0.3688 1.0436
H2 H 1.0026 0.0145 0.7346
H3 H 1.1983 -0.0654 0.7908
H4 H 0.5839 0.1508 0.8414
H5 H 0.3831 0.2371 0.8098
H6 H 0.3450 0.4681 0.8286
H7 H 0.5083 0.6131 0.8822
H8 H 0.7092 0.5278 0.9169
H9 H 1.1591 0.2396 1.1367
H10 H 1.2937 0.2196 1.0903
H11 H 1.2282 0.0963 1.1480
H12 H 1.4738 -0.1160 0.9414
H13 H 1.4089 -0.0479 0.8368
H14 H 1.3450 -0.1751 0.8906
loop_
_geom_bond_atom_site_label_1
_geom_bond_atom_site_label_2
_geom_bond_site_symmetry_1
_geom_bond_site_symmetry_2
C1 C2 1_555 1_555
C2 C3 1_555 1_555
C3 O2 1_555 1_555
C4 C5 1_555 1_555
C5 C1 1_555 1_555
C6 C5 1_555 1_555
C7 C6 1_555 1_555
C8 C7 1_555 1_555
C9 C4 1_555 1_555
C10 C2 1_555 1_555
C11 C10 1_555 1_555
C12 C11 1_555 1_555
C13 C12 1_555 1_555
C14 C13 1_555 1_555
C15 C10 1_555 1_555
C16 C9 1_555 1_555
C17 O3 1_555 1_555
O1 C1 1_555 1_555
O2 C4 1_555 1_555
O3 C8 1_555 1_555
H1 C3 1_555 1_555
H2 C6 1_555 1_555
H3 C7 1_555 1_555
H4 C11 1_555 1_555
H5 C12 1_555 1_555
H6 C13 1_555 1_555
H7 C14 1_555 1_555
H8 C15 1_555 1_555
H9 C16 1_555 1_555
H10 C16 1_555 1_555
H11 C16 1_555 1_555
H12 C17 1_555 1_555
H13 C17 1_555 1_555
H14 C17 1_555 1_555
C8 C9 1_555 1_555
C14 C15 1_555 1_555

#END
