
#######################################################################
#
#                 Cambridge Crystallographic Data Centre
#                                CCDC 
#
#######################################################################
#
# If this CIF has been generated from an entry in the Cambridge 
# Structural Database, then it will include bibliographic, chemical, 
# crystal, experimental, refinement or atomic coordinate data resulting 
# from the CCDC's data processing and validation procedures.
#
#######################################################################

data_LIHQIF
_chemical_formula_moiety         'C52 H42 P4'
_chemical_name_systematic        
(buta-1,3-diene-1,2,3,4-tetrayl)tetrakis(diphenylphosphane)
_symmetry_cell_setting           triclinic
_symmetry_space_group_name_H-M   'P -1'
_symmetry_Int_Tables_number      2
_space_group_name_Hall           '-P 1'
loop_
_symmetry_equiv_pos_site_id
_symmetry_equiv_pos_as_xyz
1 x,y,z
2 -x,-y,-z
_cell_length_a                   10.6248(2)
_cell_length_b                   10.7584(3)
_cell_length_c                   20.7410(6)
_cell_angle_alpha                84.860(1)
_cell_angle_beta                 83.732(1)
_cell_angle_gamma                65.982(1)
_cell_volume                     2149.94
_exptl_crystal_colour            yellow
_exptl_crystal_description       needle
_cell_formula_units_Z            2
_chemical_properties_physical    Air-sensitive
_exptl_crystal_recrystallization_method dichloromethane
loop_
_atom_site_label
_atom_site_type_symbol
_atom_site_fract_x
_atom_site_fract_y
_atom_site_fract_z
P1 P 0.14814(6) 0.69715(6) 0.04397(3)
P2 P 0.41132(6) 0.72316(6) -0.04534(3)
C1 C 0.3217(2) 0.5629(2) 0.03797(11)
H1 H 0.3341 0.4831 0.0639
C2 C 0.4345(2) 0.5625(2) 0.00150(10)
C3 C 0.1568(2) 0.8170(2) 0.09826(12)
C4 C 0.2544(3) 0.7848(3) 0.14238(14)
H2 H 0.3270 0.6978 0.1438
C5 C 0.2450(5) 0.8815(5) 0.18486(17)
H3 H 0.3121 0.8604 0.2148
C6 C 0.1370(6) 1.0088(5) 0.1831(2)
H4 H 0.1307 1.0738 0.2121
C7 C 0.0405(4) 1.0404(4) 0.1401(2)
H5 H -0.0330 1.1268 0.1395
C8 C 0.0498(3) 0.9466(3) 0.09746(15)
H6 H -0.0168 0.9698 0.0672
C9 C 0.0696(2) 0.6017(2) 0.10009(11)
C10 C 0.0694(2) 0.4834(3) 0.07842(13)
H7 H 0.1085 0.4561 0.0365
C11 C 0.0133(3) 0.4056(3) 0.11711(16)
H8 H 0.0160 0.3250 0.1017
C12 C -0.0465(3) 0.4444(3) 0.17795(15)
H9 H -0.0840 0.3904 0.2045
C13 C -0.0511(3) 0.5639(3) 0.19983(14)
H10 H -0.0938 0.5922 0.2412
C14 C 0.0065(2) 0.6419(3) 0.16134(12)
H11 H 0.0029 0.7228 0.1768
C15 C 0.4641(2) 0.6623(2) -0.12798(11)
C16 C 0.3785(3) 0.6118(3) -0.15293(13)
H12 H 0.3017 0.6082 -0.1270
C17 C 0.4051(3) 0.5672(4) -0.21525(16)
H13 H 0.3478 0.5313 -0.2309
C18 C 0.5145(4) 0.5748(4) -0.25456(16)
H14 H 0.5309 0.5464 -0.2974
C19 C 0.5996(3) 0.6238(4) -0.23107(15)
H15 H 0.6751 0.6283 -0.2579
C20 C 0.5760(3) 0.6672(3) -0.16807(13)
H16 H 0.6360 0.7000 -0.1525
C21 C 0.5485(2) 0.7664(2) -0.02167(11)
C22 C 0.5814(2) 0.8668(2) -0.05752(13)
H17 H 0.5376 0.9066 -0.0957
C23 C 0.6774(3) 0.9081(3) -0.03755(15)
H18 H 0.6987 0.9758 -0.0621
C24 C 0.7416(3) 0.8509(3) 0.01782(17)
H19 H 0.8085 0.8779 0.0307
C25 C 0.7089(3) 0.7544(3) 0.05476(14)
H20 H 0.7524 0.7164 0.0932
C26 C 0.6119(2) 0.7130(2) 0.03551(12)
H21 H 0.5886 0.6479 0.0614
P1A P 0.85186(6) 0.30285(6) -0.04397(3)
P2A P 0.58868(6) 0.27684(6) 0.04534(3)
C1A C 0.6783(2) 0.4371(2) -0.03797(11)
H1A H 0.6659 0.5169 -0.0639
C2A C 0.5655(2) 0.4375(2) -0.00150(10)
C3A C 0.8432(2) 0.1830(2) -0.09826(12)
C4A C 0.7456(3) 0.2152(3) -0.14238(14)
H2A H 0.6730 0.3022 -0.1438
C5A C 0.7550(5) 0.1185(5) -0.18486(17)
H3A H 0.6879 0.1396 -0.2148
C6A C 0.8630(6) -0.0088(5) -0.1831(2)
H4A H 0.8693 -0.0738 -0.2121
C7A C 0.9595(4) -0.0404(4) -0.1401(2)
H5A H 1.0330 -0.1268 -0.1395
C8A C 0.9502(3) 0.0534(3) -0.09746(15)
H6A H 1.0168 0.0302 -0.0672
C9A C 0.9304(2) 0.3983(2) -0.10009(11)
C10A C 0.9306(2) 0.5166(3) -0.07842(13)
H7A H 0.8915 0.5439 -0.0365
C11A C 0.9867(3) 0.5944(3) -0.11711(16)
H8A H 0.9840 0.6750 -0.1017
C12A C 1.0465(3) 0.5556(3) -0.17795(15)
H9A H 1.0840 0.6096 -0.2045
C13A C 1.0511(3) 0.4361(3) -0.19983(14)
H10A H 1.0938 0.4078 -0.2412
C14A C 0.9935(2) 0.3581(3) -0.16134(12)
H11A H 0.9971 0.2772 -0.1768
C15A C 0.5359(2) 0.3377(2) 0.12798(11)
C16A C 0.6215(3) 0.3882(3) 0.15293(13)
H12A H 0.6983 0.3918 0.1270
C17A C 0.5949(3) 0.4328(4) 0.21525(16)
H13A H 0.6522 0.4687 0.2309
C18A C 0.4855(4) 0.4252(4) 0.25456(16)
H14A H 0.4691 0.4536 0.2974
C19A C 0.4004(3) 0.3762(4) 0.23107(15)
H15A H 0.3249 0.3717 0.2579
C20A C 0.4240(3) 0.3328(3) 0.16807(13)
H16A H 0.3640 0.3000 0.1525
C21A C 0.4515(2) 0.2336(2) 0.02167(11)
C22A C 0.4186(2) 0.1332(2) 0.05752(13)
H17A H 0.4624 0.0934 0.0957
C23A C 0.3226(3) 0.0919(3) 0.03755(15)
H18A H 0.3013 0.0242 0.0621
C24A C 0.2584(3) 0.1491(3) -0.01782(17)
H19A H 0.1915 0.1221 -0.0307
C25A C 0.2911(3) 0.2456(3) -0.05476(14)
H20A H 0.2476 0.2836 -0.0932
C26A C 0.3881(2) 0.2870(2) -0.03551(12)
H21A H 0.4114 0.3521 -0.0614
P3 P 0.23868(6) 0.97903(7) 0.61438(3)
P4 P 0.56143(6) 0.80913(6) 0.57316(3)
C27 C 0.3325(2) 1.0304(2) 0.54636(10)
H22 H 0.2800 1.1076 0.5211
C28 C 0.4679(2) 0.9714(2) 0.52781(10)
C29 C 0.2989(2) 1.0285(3) 0.68304(12)
C30 C 0.3528(3) 1.1264(3) 0.67772(14)
H23 H 0.3610 1.1693 0.6369
C31 C 0.3952(3) 1.1628(4) 0.73131(17)
H24 H 0.4333 1.2284 0.7267
C32 C 0.3811(4) 1.1030(5) 0.79048(18)
H25 H 0.4106 1.1269 0.8268
C33 C 0.3246(4) 1.0088(4) 0.79788(16)
H26 H 0.3120 0.9710 0.8395
C34 C 0.2857(3) 0.9682(3) 0.74432(15)
H27 H 0.2505 0.9004 0.7494
C35 C 0.0697(2) 1.1224(3) 0.60696(12)
C36 C 0.0107(3) 1.1451(3) 0.54800(14)
H28 H 0.0582 1.0890 0.5134
C37 C -0.1176(3) 1.2498(4) 0.53995(19)
H29 H -0.1559 1.2659 0.4997
C38 C -0.1889(3) 1.3302(4) 0.5909(2)
H30 H -0.2757 1.4016 0.5853
C39 C -0.1336(3) 1.3061(3) 0.6495(2)
H31 H -0.1833 1.3598 0.6846
C40 C -0.0041(2) 1.2025(3) 0.65737(14)
H32 H 0.0335 1.1871 0.6978
C41 C 0.6363(2) 0.6934(2) 0.50624(12)
C42 C 0.5438(3) 0.6608(3) 0.47622(15)
H33 H 0.4495 0.6983 0.4907
C43 C 0.5881(3) 0.5742(3) 0.42554(17)
H34 H 0.5235 0.5542 0.4057
C44 C 0.7248(3) 0.5171(3) 0.40382(16)
H35 H 0.7544 0.4589 0.3690
C45 C 0.8182(3) 0.5462(3) 0.43365(14)
H36 H 0.9125 0.5064 0.4194
C46 C 0.7754(2) 0.6331(2) 0.48422(12)
H37 H 0.8409 0.6517 0.5040
C47 C 0.7072(2) 0.8277(2) 0.60330(10)
C48 C 0.8126(3) 0.7130(3) 0.62855(12)
H38 H 0.8109 0.6267 0.6268
C49 C 0.9197(3) 0.7249(3) 0.65620(13)
H39 H 0.9908 0.6465 0.6726
C50 C 0.9229(3) 0.8499(4) 0.65988(14)
H40 H 0.9970 0.8569 0.6779
C51 C 0.8181(3) 0.9651(3) 0.63724(13)
H41 H 0.8189 1.0512 0.6408
C52 C 0.7112(3) 0.9541(3) 0.60916(12)
H42 H 0.6398 1.0334 0.5937
P3A P 0.76132(6) 1.02097(7) 0.38562(3)
P4A P 0.43857(6) 1.19087(6) 0.42684(3)
C27A C 0.6675(2) 0.9696(2) 0.45364(10)
H22A H 0.7200 0.8924 0.4789
C28A C 0.5321(2) 1.0286(2) 0.47219(10)
C29A C 0.7011(2) 0.9715(3) 0.31696(12)
C30A C 0.6472(3) 0.8736(3) 0.32228(14)
H23A H 0.6390 0.8307 0.3631
C31A C 0.6048(3) 0.8372(4) 0.26869(17)
H24A H 0.5667 0.7716 0.2733
C32A C 0.6189(4) 0.8970(5) 0.20952(18)
H25A H 0.5894 0.8731 0.1732
C33A C 0.6754(4) 0.9912(4) 0.20212(16)
H26A H 0.6880 1.0290 0.1605
C34A C 0.7143(3) 1.0318(3) 0.25568(15)
H27A H 0.7495 1.0996 0.2506
C35A C 0.9303(2) 0.8776(3) 0.39304(12)
C36A C 0.9893(3) 0.8549(3) 0.45200(14)
H28A H 0.9418 0.9110 0.4866
C37A C 1.1176(3) 0.7502(4) 0.46005(19)
H29A H 1.1559 0.7341 0.5003
C38A C 1.1889(3) 0.6698(4) 0.4091(2)
H30A H 1.2757 0.5984 0.4147
C39A C 1.1336(3) 0.6939(3) 0.3505(2)
H31A H 1.1833 0.6402 0.3154
C40A C 1.0041(2) 0.7975(3) 0.34263(14)
H32A H 0.9665 0.8129 0.3022
C41A C 0.3637(2) 1.3066(2) 0.49376(12)
C42A C 0.4562(3) 1.3392(3) 0.52378(15)
H33A H 0.5505 1.3017 0.5093
C43A C 0.4119(3) 1.4258(3) 0.57446(17)
H34A H 0.4765 1.4458 0.5943
C44A C 0.2752(3) 1.4829(3) 0.59618(16)
H35A H 0.2456 1.5411 0.6310
C45A C 0.1818(3) 1.4538(3) 0.56635(14)
H36A H 0.0875 1.4936 0.5806
C46A C 0.2246(2) 1.3669(2) 0.51578(12)
H37A H 0.1591 1.3483 0.4960
C47A C 0.2928(2) 1.1723(2) 0.39670(10)
C48A C 0.1874(3) 1.2870(3) 0.37145(12)
H38A H 0.1891 1.3733 0.3732
C49A C 0.0803(3) 1.2751(3) 0.34380(13)
H39A H 0.0092 1.3535 0.3274
C50A C 0.0771(3) 1.1501(4) 0.34012(14)
H40A H 0.0030 1.1431 0.3221
C51A C 0.1819(3) 1.0349(3) 0.36276(13)
H41A H 0.1811 0.9488 0.3592
C52A C 0.2888(3) 1.0459(3) 0.39084(12)
H42A H 0.3602 0.9666 0.4063
loop_
_geom_bond_atom_site_label_1
_geom_bond_atom_site_label_2
_geom_bond_site_symmetry_1
_geom_bond_site_symmetry_2
P1 C1 1_555 1_555
P2 C2 1_555 1_555
C1 H1 1_555 1_555
C2 C1 1_555 1_555
C3 P1 1_555 1_555
C4 C3 1_555 1_555
H2 C4 1_555 1_555
C5 C4 1_555 1_555
H3 C5 1_555 1_555
C6 C5 1_555 1_555
H4 C6 1_555 1_555
C7 C6 1_555 1_555
H5 C7 1_555 1_555
C8 C3 1_555 1_555
H6 C8 1_555 1_555
C9 P1 1_555 1_555
C10 C9 1_555 1_555
H7 C10 1_555 1_555
C11 C10 1_555 1_555
H8 C11 1_555 1_555
C12 C11 1_555 1_555
H9 C12 1_555 1_555
C13 C12 1_555 1_555
H10 C13 1_555 1_555
C14 C9 1_555 1_555
H11 C14 1_555 1_555
C15 P2 1_555 1_555
C16 C15 1_555 1_555
H12 C16 1_555 1_555
C17 C16 1_555 1_555
H13 C17 1_555 1_555
C18 C17 1_555 1_555
H14 C18 1_555 1_555
C19 C18 1_555 1_555
H15 C19 1_555 1_555
C20 C15 1_555 1_555
H16 C20 1_555 1_555
C21 P2 1_555 1_555
C22 C21 1_555 1_555
H17 C22 1_555 1_555
C23 C22 1_555 1_555
H18 C23 1_555 1_555
C24 C23 1_555 1_555
H19 C24 1_555 1_555
C25 C24 1_555 1_555
H20 C25 1_555 1_555
C26 C21 1_555 1_555
H21 C26 1_555 1_555
P3 C27 1_555 1_555
P4 C28 1_555 1_555
C27 H22 1_555 1_555
C28 C27 1_555 1_555
C29 P3 1_555 1_555
C30 C29 1_555 1_555
H23 C30 1_555 1_555
C31 C30 1_555 1_555
H24 C31 1_555 1_555
C32 C31 1_555 1_555
H25 C32 1_555 1_555
C33 C32 1_555 1_555
H26 C33 1_555 1_555
C34 C29 1_555 1_555
H27 C34 1_555 1_555
C35 P3 1_555 1_555
C36 C35 1_555 1_555
H28 C36 1_555 1_555
C37 C36 1_555 1_555
H29 C37 1_555 1_555
C38 C37 1_555 1_555
H30 C38 1_555 1_555
C39 C38 1_555 1_555
H31 C39 1_555 1_555
C40 C35 1_555 1_555
H32 C40 1_555 1_555
C41 P4 1_555 1_555
C42 C41 1_555 1_555
H33 C42 1_555 1_555
C43 C42 1_555 1_555
H34 C43 1_555 1_555
C44 C43 1_555 1_555
H35 C44 1_555 1_555
C45 C44 1_555 1_555
H36 C45 1_555 1_555
C46 C41 1_555 1_555
H37 C46 1_555 1_555
C47 P4 1_555 1_555
C48 C47 1_555 1_555
H38 C48 1_555 1_555
C49 C48 1_555 1_555
H39 C49 1_555 1_555
C50 C49 1_555 1_555
H40 C50 1_555 1_555
C51 C50 1_555 1_555
H41 C51 1_555 1_555
C52 C47 1_555 1_555
H42 C52 1_555 1_555
P1A C1A 1_555 1_555
P2A C2A 1_555 1_555
C1A H1A 1_555 1_555
C2A C2 1_555 1_555
C3A P1A 1_555 1_555
C4A C3A 1_555 1_555
H2A C4A 1_555 1_555
C5A C4A 1_555 1_555
H3A C5A 1_555 1_555
C6A C5A 1_555 1_555
H4A C6A 1_555 1_555
C7A C6A 1_555 1_555
H5A C7A 1_555 1_555
C8A C3A 1_555 1_555
H6A C8A 1_555 1_555
C9A P1A 1_555 1_555
C10A C9A 1_555 1_555
H7A C10A 1_555 1_555
C11A C10A 1_555 1_555
H8A C11A 1_555 1_555
C12A C11A 1_555 1_555
H9A C12A 1_555 1_555
C13A C12A 1_555 1_555
H10A C13A 1_555 1_555
C14A C9A 1_555 1_555
H11A C14A 1_555 1_555
C15A P2A 1_555 1_555
C16A C15A 1_555 1_555
H12A C16A 1_555 1_555
C17A C16A 1_555 1_555
H13A C17A 1_555 1_555
C18A C17A 1_555 1_555
H14A C18A 1_555 1_555
C19A C18A 1_555 1_555
H15A C19A 1_555 1_555
C20A C15A 1_555 1_555
H16A C20A 1_555 1_555
C21A P2A 1_555 1_555
C22A C21A 1_555 1_555
H17A C22A 1_555 1_555
C23A C22A 1_555 1_555
H18A C23A 1_555 1_555
C24A C23A 1_555 1_555
H19A C24A 1_555 1_555
C25A C24A 1_555 1_555
H20A C25A 1_555 1_555
C26A C21A 1_555 1_555
H21A C26A 1_555 1_555
P3A C27A 1_555 1_555
P4A C28A 1_555 1_555
C27A H22A 1_555 1_555
C28A C28 1_555 1_555
C29A P3A 1_555 1_555
C30A C29A 1_555 1_555
H23A C30A 1_555 1_555
C31A C30A 1_555 1_555
H24A C31A 1_555 1_555
C32A C31A 1_555 1_555
H25A C32A 1_555 1_555
C33A C32A 1_555 1_555
H26A C33A 1_555 1_555
C34A C29A 1_555 1_555
H27A C34A 1_555 1_555
C35A P3A 1_555 1_555
C36A C35A 1_555 1_555
H28A C36A 1_555 1_555
C37A C36A 1_555 1_555
H29A C37A 1_555 1_555
C38A C37A 1_555 1_555
H30A C38A 1_555 1_555
C39A C38A 1_555 1_555
H31A C39A 1_555 1_555
C40A C35A 1_555 1_555
H32A C40A 1_555 1_555
C41A P4A 1_555 1_555
C42A C41A 1_555 1_555
H33A C42A 1_555 1_555
C43A C42A 1_555 1_555
H34A C43A 1_555 1_555
C44A C43A 1_555 1_555
H35A C44A 1_555 1_555
C45A C44A 1_555 1_555
H36A C45A 1_555 1_555
C46A C41A 1_555 1_555
H37A C46A 1_555 1_555
C47A P4A 1_555 1_555
C48A C47A 1_555 1_555
H38A C48A 1_555 1_555
C49A C48A 1_555 1_555
H39A C49A 1_555 1_555
C50A C49A 1_555 1_555
H40A C50A 1_555 1_555
C51A C50A 1_555 1_555
H41A C51A 1_555 1_555
C52A C47A 1_555 1_555
H42A C52A 1_555 1_555
C7 C8 1_555 1_555
C13 C14 1_555 1_555
C19 C20 1_555 1_555
C25 C26 1_555 1_555
C33 C34 1_555 1_555
C39 C40 1_555 1_555
C45 C46 1_555 1_555
C51 C52 1_555 1_555
C1A C2A 1_555 1_555
C7A C8A 1_555 1_555
C13A C14A 1_555 1_555
C19A C20A 1_555 1_555
C25A C26A 1_555 1_555
C27A C28A 1_555 1_555
C33A C34A 1_555 1_555
C39A C40A 1_555 1_555
C45A C46A 1_555 1_555
C51A C52A 1_555 1_555

#END
