
#######################################################################
#
#                 Cambridge Crystallographic Data Centre
#                                CCDC 
#
#######################################################################
#
# If this CIF has been generated from an entry in the Cambridge 
# Structural Database, then it will include bibliographic, chemical, 
# crystal, experimental, refinement or atomic coordinate data resulting 
# from the CCDC's data processing and validation procedures.
#
#######################################################################

data_LIJDUD
_chemical_formula_moiety         'C40 H57 N4 O8 P4 1+,Cl1 1-,5(H2 O1)'
_chemical_name_systematic        
'1,4,7,10-Tetra-azacyclododecane-tetrakis(methylenebenzylphosphinic acid) chloride pentahydrate'
_symmetry_cell_setting           monoclinic
_symmetry_space_group_name_H-M   'C 2/c'
_symmetry_Int_Tables_number      15
_space_group_name_Hall           '-C 2yn'
loop_
_symmetry_equiv_pos_site_id
_symmetry_equiv_pos_as_xyz
1 x,y,z
2 -x,y,1/2-z
3 1/2+x,1/2+y,z
4 1/2-x,1/2+y,1/2-z
5 -x,-y,-z
6 x,-y,1/2+z
7 1/2-x,1/2-y,-z
8 1/2+x,1/2-y,1/2+z
_cell_length_a                   48.21
_cell_length_b                   11.455
_cell_length_c                   18.474
_cell_angle_alpha                90
_cell_angle_beta                 103.88
_cell_angle_gamma                90
_cell_volume                     9904.28
_cell_formula_units_Z            8
loop_
_atom_site_label
_atom_site_type_symbol
_atom_site_fract_x
_atom_site_fract_y
_atom_site_fract_z
P1 P 0.3663(1) 0.1792(3) 0.2828(2)
P2 P 0.3629(1) 0.5780(3) 0.3235(2)
P3 P 0.3581(1) 0.5763(3) 0.5682(2)
P4 P 0.3661(1) 0.1644(3) 0.5215(2)
O1 O 0.3695(2) 0.2925(7) 0.3227(4)
O2 O 0.3671(2) 0.1885(7) 0.2000(4)
O3 O 0.3706(2) 0.4855(7) 0.3884(4)
O4 O 0.3590(2) 0.6956(6) 0.3542(4)
O5 O 0.3625(2) 0.4474(7) 0.5692(4)
O6 O 0.3534(2) 0.6276(6) 0.6398(4)
O7 O 0.3795(2) 0.2815(7) 0.5028(4)
O8 O 0.3650(2) 0.0763(7) 0.4624(4)
N1 N 0.3122(2) 0.2189(8) 0.3033(5)
N2 N 0.3102(2) 0.4775(8) 0.2982(5)
N3 N 0.3092(2) 0.5020(7) 0.4601(5)
N4 N 0.3111(2) 0.2420(8) 0.4669(5)
C1 C 0.3007(2) 0.2860(10) 0.2318(6)
C2 C 0.2888(2) 0.4044(10) 0.2473(6)
C3 C 0.2956(2) 0.5745(10) 0.3279(6)
C4 C 0.2848(2) 0.5373(10) 0.3945(6)
C5 C 0.2970(2) 0.4322(10) 0.5151(6)
C6 C 0.2879(2) 0.3079(10) 0.4863(6)
C7 C 0.2997(2) 0.1404(10) 0.4193(6)
C8 C 0.2886(2) 0.1734(10) 0.3364(6)
C9 C 0.3313(2) 0.1216(9) 0.2886(6)
C10 C 0.3923(2) 0.0706(10) 0.3235(7)
C11 C 0.4222(2) 0.1168(10) 0.3371(7)
C12 C 0.4392(3) 0.0972(12) 0.2884(7)
C13 C 0.4674(3) 0.1403(13) 0.3033(9)
C14 C 0.4774(3) 0.2035(14) 0.3650(9)
C15 C 0.4617(3) 0.2228(14) 0.4129(9)
C16 C 0.4338(3) 0.1822(12) 0.3992(8)
C17 C 0.3311(2) 0.5251(10) 0.2598(6)
C18 C 0.3907(2) 0.5757(11) 0.2741(6)
C19 C 0.4181(3) 0.6176(11) 0.3194(1)
C20 C 0.4385(3) 0.5426(14) 0.3570(8)
C21 C 0.4644(3) 0.5819(16) 0.4024(9)
C22 C 0.4691(4) 0.7028(16) 0.4120(9)
C23 C 0.4492(4) 0.7790(17) 0.3767(9)
C24 C 0.4234(3) 0.7353(14) 0.3294(8)
C25 C 0.3257(2) 0.6076(10) 0.4976(6)
C26 C 0.3867(2) 0.6542(10) 0.5438(6)
C27 C 0.4148(2) 0.6084(10) 0.5827(6)
C28 C 0.4270(3) 0.5212(12) 0.5513(8)
C29 C 0.4532(3) 0.4749(14) 0.5883(9)
C30 C 0.4671(3) 0.5143(14) 0.6578(9)
C31 C 0.4546(3) 0.5987(13) 0.6889(8)
C32 C 0.4291(3) 0.6446(12) 0.6527(7)
C33 C 0.3312(2) 0.1976(11) 0.5356(6)
C34 C 0.3865(2) 0.1156(11) 0.6091(7)
C35 C 0.4169(3) 0.0934(12) 0.6096(7)
C36 C 0.4246(3) -0.0076(14) 0.5802(8)
C37 C 0.4541(4) -0.0258(17) 0.5784(10)
C38 C 0.4732(4) 0.0493(17) 0.6087(9)
C39 C 0.4671(4) 0.1431(17) 0.6398(10)
C40 C 0.4378(3) 0.1678(14) 0.6411(8)
H1 H 0.3229 0.2684 0.3364
H2 H 0.3215 0.4563 0.4433
H3 H 0.2862 0.2399 0.1996
H4 H 0.3158 0.2990 0.2072
H5 H 0.2815 0.4458 0.2014
H6 H 0.2731 0.3902 0.2697
H7 H 0.2801 0.6039 0.2894
H8 H 0.3091 0.6364 0.3436
H9 H 0.2739 0.5983 0.4101
H10 H 0.2724 0.4716 0.3793
H11 H 0.2809 0.4735 0.5247
H12 H 0.3112 0.4260 0.5613
H13 H 0.2812 0.2654 0.5236
H14 H 0.2723 0.3144 0.4430
H15 H 0.2847 0.1047 0.4376
H16 H 0.3147 0.0840 0.4228
H17 H 0.2801 0.1065 0.3083
H18 H 0.2742 0.2323 0.3325
H19 H 0.3339 0.0646 0.3278
H20 H 0.3223 0.0840 0.2425
H21 H 0.3904 0.0052 0.2902
H22 H 0.3887 0.0438 0.3697
H23 H 0.4316 0.0522 0.2443
H24 H 0.4790 0.1249 0.2687
H25 H 0.4966 0.2331 0.3745
H26 H 0.4693 0.2677 0.4570
H27 H 0.4223 0.1976 0.4339
H28 H 0.3363 0.4651 0.2293
H29 H 0.3224 0.5879 0.2278
H30 H 0.3851 0.6238 0.2305
H31 H 0.3932 0.4973 0.2584
H32 H 0.4352 0.4601 0.3510
H33 H 0.4787 0.5279 0.4279
H34 H 0.4866 0.7314 0.4435
H35 H 0.4524 0.8615 0.3827
H36 H 0.4092 0.7893 0.3039
H37 H 0.3305 0.6558 0.4598
H38 H 0.3131 0.6514 0.5203
H39 H 0.3855 0.7349 0.5567
H40 H 0.3848 0.6493 0.4910
H41 H 0.4174 0.4928 0.5029
H42 H 0.4616 0.4138 0.5652
H43 H 0.4852 0.4818 0.6831
H44 H 0.4642 0.6272 0.7373
H45 H 0.4206 0.7056 0.6758
H46 H 0.3332 0.2571 0.5732
H47 H 0.3232 0.1296 0.5532
H48 H 0.3782 0.0455 0.6234
H49 H 0.3857 0.1749 0.6454
H50 H 0.4102 -0.0637 0.5585
H51 H 0.4593 -0.0959 0.5564
H52 H 0.4928 0.0352 0.6085
H53 H 0.4815 0.1992 0.6616
H54 H 0.4326 0.2378 0.6631
Cl1 Cl 0.2222(1) 0.3236(5) 0.3214(2)
O9 O 0.3446(2) 0.8583(7) 0.2318(5)
O10 O 0.2839(2) 0.8650(8) 0.3530(5)
O11 O 0.2512(3) 0.8567(11) 0.4597(7)
O12 O 0.3410(2) 0.8669(7) 0.4316(4)
O13 O 0.2162(4) 0.5583(17) 0.3949(10)
O14 O 0.3264(4) 0.1111(17) 0.0680(10)
loop_
_geom_bond_atom_site_label_1
_geom_bond_atom_site_label_2
_geom_bond_site_symmetry_1
_geom_bond_site_symmetry_2
P1 O1 1_555 1_555
P2 O3 1_555 1_555
P3 O5 1_555 1_555
P4 O7 1_555 1_555
O2 P1 1_555 1_555
O4 P2 1_555 1_555
O6 P3 1_555 1_555
O8 P4 1_555 1_555
N1 C1 1_555 1_555
N2 C2 1_555 1_555
N3 C4 1_555 1_555
N4 C6 1_555 1_555
C1 C2 1_555 1_555
C2 H5 1_555 1_555
C3 N2 1_555 1_555
C4 C3 1_555 1_555
C5 N3 1_555 1_555
C6 C5 1_555 1_555
C7 N4 1_555 1_555
C8 N1 1_555 1_555
C9 P1 1_555 1_555
C10 P1 1_555 1_555
C11 C10 1_555 1_555
C12 C11 1_555 1_555
C13 C12 1_555 1_555
C14 C13 1_555 1_555
C15 C14 1_555 1_555
C16 C11 1_555 1_555
C17 P2 1_555 1_555
C18 P2 1_555 1_555
C19 C18 1_555 1_555
C20 C19 1_555 1_555
C21 C20 1_555 1_555
C22 C21 1_555 1_555
C23 C22 1_555 1_555
C24 C19 1_555 1_555
C25 P3 1_555 1_555
C26 P3 1_555 1_555
C27 C26 1_555 1_555
C28 C27 1_555 1_555
C29 C28 1_555 1_555
C30 C29 1_555 1_555
C31 C30 1_555 1_555
C32 C27 1_555 1_555
C33 P4 1_555 1_555
C34 P4 1_555 1_555
C35 C34 1_555 1_555
C36 C35 1_555 1_555
C37 C36 1_555 1_555
C38 C37 1_555 1_555
C39 C38 1_555 1_555
C40 C35 1_555 1_555
H1 N1 1_555 1_555
H2 N3 1_555 1_555
H3 C1 1_555 1_555
H4 C1 1_555 1_555
H6 C2 1_555 1_555
H7 C3 1_555 1_555
H8 C3 1_555 1_555
H9 C4 1_555 1_555
H10 C4 1_555 1_555
H11 C5 1_555 1_555
H12 C5 1_555 1_555
H13 C6 1_555 1_555
H14 C6 1_555 1_555
H15 C7 1_555 1_555
H16 C7 1_555 1_555
H17 C8 1_555 1_555
H18 C8 1_555 1_555
H19 C9 1_555 1_555
H20 C9 1_555 1_555
H21 C10 1_555 1_555
H22 C10 1_555 1_555
H23 C12 1_555 1_555
H24 C13 1_555 1_555
H25 C14 1_555 1_555
H26 C15 1_555 1_555
H27 C16 1_555 1_555
H28 C17 1_555 1_555
H29 C17 1_555 1_555
H30 C18 1_555 1_555
H31 C18 1_555 1_555
H32 C20 1_555 1_555
H33 C21 1_555 1_555
H34 C22 1_555 1_555
H35 C23 1_555 1_555
H36 C24 1_555 1_555
H37 C25 1_555 1_555
H38 C25 1_555 1_555
H39 C26 1_555 1_555
H40 C26 1_555 1_555
H41 C28 1_555 1_555
H42 C29 1_555 1_555
H43 C30 1_555 1_555
H44 C31 1_555 1_555
H45 C32 1_555 1_555
H46 C33 1_555 1_555
H47 C33 1_555 1_555
H48 C34 1_555 1_555
H49 C34 1_555 1_555
H50 C36 1_555 1_555
H51 C37 1_555 1_555
H52 C38 1_555 1_555
H53 C39 1_555 1_555
H54 C40 1_555 1_555
N1 C9 1_555 1_555
N2 C17 1_555 1_555
N3 C25 1_555 1_555
N4 C33 1_555 1_555
C7 C8 1_555 1_555
C15 C16 1_555 1_555
C23 C24 1_555 1_555
C31 C32 1_555 1_555
C39 C40 1_555 1_555

#END
