
#######################################################################
#
#                 Cambridge Crystallographic Data Centre
#                                CCDC 
#
#######################################################################
#
# If this CIF has been generated from an entry in the Cambridge 
# Structural Database, then it will include bibliographic, chemical, 
# crystal, experimental, refinement or atomic coordinate data resulting 
# from the CCDC's data processing and validation procedures.
#
#######################################################################

data_LIJGAP01
_chemical_formula_moiety         'C13 H11 Br1 N2 O2'
_chemical_name_systematic        
'2-[(3-bromo-2-methylphenyl)amino]pyridine-3-carboxylic acid'
_symmetry_cell_setting           triclinic
_symmetry_space_group_name_H-M   'P -1'
_symmetry_Int_Tables_number      2
_space_group_name_Hall           '-P 1'
loop_
_symmetry_equiv_pos_site_id
_symmetry_equiv_pos_as_xyz
1 x,y,z
2 -x,-y,-z
_cell_length_a                   7.646(1)
_cell_length_b                   7.098(1)
_cell_length_c                   11.050(2)
_cell_angle_alpha                100.32(1)
_cell_angle_beta                 101.36(1)
_cell_angle_gamma                87.46(1)
_cell_volume                     578.412
_exptl_crystal_colour            'light yellow'
_exptl_crystal_description       plate
_cell_formula_units_Z            2
loop_
_atom_site_label
_atom_site_type_symbol
_atom_site_fract_x
_atom_site_fract_y
_atom_site_fract_z
C1 C 0.5138(4) 0.2779(4) 0.5925(3)
C2 C 0.6877(4) 0.2314(4) 0.6569(3)
C3 C 0.7207(4) 0.2673(4) 0.7874(3)
H1 H 0.8352 0.2403 0.8330
C4 C 0.5872(4) 0.3421(4) 0.8507(3)
H2 H 0.6075 0.3675 0.9397
C5 C 0.4236(4) 0.3786(4) 0.7798(3)
H3 H 0.3313 0.4275 0.8233
C6 C 0.3237(4) 0.2738(4) 0.3759(3)
C7 C 0.3404(4) 0.2220(4) 0.2494(3)
C8 C 0.1887(4) 0.2413(4) 0.1587(3)
C9 C 0.0267(4) 0.3110(4) 0.1892(3)
H4 H -0.0744 0.3225 0.1253
C10 C 0.0160(4) 0.3629(4) 0.3135(3)
H5 H -0.0932 0.4125 0.3353
C11 C 0.1627(4) 0.3441(4) 0.4080(3)
H6 H 0.1531 0.3788 0.4936
C12 C 0.5165(4) 0.1495(4) 0.2167(3)
H7 H 0.5068 0.1286 0.1256
H8 H 0.5480 0.0286 0.2471
H9 H 0.6092 0.2442 0.2564
C13 C 0.8282(4) 0.1435(4) 0.5906(3)
N1 N 0.3851(3) 0.3504(3) 0.6548(2)
N2 N 0.4783(3) 0.2467(3) 0.4643(2)
H10 H 0.5699 0.2008 0.4305
O1 O 0.9829(3) 0.1179(3) 0.6641(2)
H11 H 1.0544 0.0615 0.6206
O2 O 0.8048(3) 0.0948(3) 0.4757(2)
Br1 Br 0.19291(4) 0.16956(5) -0.01498(3)
loop_
_geom_bond_atom_site_label_1
_geom_bond_atom_site_label_2
_geom_bond_site_symmetry_1
_geom_bond_site_symmetry_2
C1 C2 1_555 1_555
C2 C3 1_555 1_555
C3 H1 1_555 1_555
C4 C3 1_555 1_555
H2 C4 1_555 1_555
C5 C4 1_555 1_555
H3 C5 1_555 1_555
C6 C7 1_555 1_555
C7 C8 1_555 1_555
C8 C9 1_555 1_555
C9 H4 1_555 1_555
C10 C9 1_555 1_555
H5 C10 1_555 1_555
C11 C6 1_555 1_555
H6 C11 1_555 1_555
C12 C7 1_555 1_555
H7 C12 1_555 1_555
H8 C12 1_555 1_555
H9 C12 1_555 1_555
C13 C2 1_555 1_555
N1 C1 1_555 1_555
N2 C1 1_555 1_555
H10 N2 1_555 1_555
O1 C13 1_555 1_555
H11 O1 1_555 1_555
O2 C13 1_555 1_555
Br1 C8 1_555 1_555
C5 N1 1_555 1_555
C6 N2 1_555 1_555
C10 C11 1_555 1_555

#END
