
#######################################################################
#
#                 Cambridge Crystallographic Data Centre
#                                CCDC 
#
#######################################################################
#
# If this CIF has been generated from an entry in the Cambridge 
# Structural Database, then it will include bibliographic, chemical, 
# crystal, experimental, refinement or atomic coordinate data resulting 
# from the CCDC's data processing and validation procedures.
#
#######################################################################

data_LIJHOC
_chemical_formula_moiety         'C25 H24 N2'
_chemical_name_systematic        
3-(4-t-Butylphenyl)-5-(biphenyl-4-yl)-1H-pyrazole
_symmetry_cell_setting           triclinic
_symmetry_space_group_name_H-M   'P -1'
_symmetry_Int_Tables_number      2
_space_group_name_Hall           '-P 1'
loop_
_symmetry_equiv_pos_site_id
_symmetry_equiv_pos_as_xyz
1 x,y,z
2 -x,-y,-z
_cell_length_a                   6.1119(6)
_cell_length_b                   12.0498(11)
_cell_length_c                   13.9657(13)
_cell_angle_alpha                100.158(2)
_cell_angle_beta                 95.028(2)
_cell_angle_gamma                103.283(2)
_cell_volume                     976.47
_exptl_crystal_colour            colorless
_exptl_crystal_description       block
_chemical_melting_point          '495 K'
_cell_formula_units_Z            2
_exptl_crystal_recrystallization_method dichloromethane-ethanol
loop_
_atom_site_label
_atom_site_type_symbol
_atom_site_fract_x
_atom_site_fract_y
_atom_site_fract_z
C1 C 0.7158(7) 0.3551(3) 0.5414(2)
H1 H 0.6643 0.4230 0.5656
H2 H 0.8564 0.3780 0.5158
H3 H 0.7382 0.3154 0.5939
C2 C 0.6293(6) 0.1697(3) 0.4199(3)
H4 H 0.6593 0.1307 0.4720
H5 H 0.7672 0.1962 0.3934
H6 H 0.5192 0.1167 0.3692
C3 C 0.3255(7) 0.2309(5) 0.5034(3)
H7 H 0.2162 0.1751 0.4542
H8 H 0.2639 0.2955 0.5270
H9 H 0.3610 0.1950 0.5569
C4 C 0.5378(5) 0.2736(2) 0.4597(2)
C5 C 0.4971(4) 0.3378(2) 0.37709(18)
C6 C 0.6779(5) 0.4085(3) 0.3445(2)
H10 H 0.8247 0.4156 0.3735
C7 C 0.6464(5) 0.4678(3) 0.2712(2)
H11 H 0.7719 0.5138 0.2517
C8 C 0.4300(4) 0.4606(2) 0.22552(18)
C9 C 0.2523(4) 0.3885(2) 0.25587(19)
H12 H 0.1057 0.3797 0.2258
C10 C 0.2846(4) 0.3289(2) 0.3294(2)
H13 H 0.1590 0.2812 0.3474
C11 C 0.3994(4) 0.5269(2) 0.14872(18)
C12 C 0.5617(4) 0.6131(2) 0.12097(18)
H14 H 0.7135 0.6406 0.1478
C13 C 0.4531(4) 0.6495(2) 0.04618(18)
C14 C 0.5372(4) 0.7374(2) -0.01143(17)
C15 C 0.7680(4) 0.7856(2) -0.00671(18)
H15 H 0.8705 0.7620 0.0334
C16 C 0.8468(4) 0.8678(2) -0.06062(19)
H16 H 1.0024 0.8979 -0.0568
C17 C 0.7011(4) 0.9072(2) -0.12046(18)
C18 C 0.4706(4) 0.8583(2) -0.1253(2)
H17 H 0.3685 0.8821 -0.1655
C19 C 0.3893(4) 0.7753(2) -0.0721(2)
H18 H 0.2338 0.7443 -0.0767
C20 C 0.7866(4) 0.9963(2) -0.17797(18)
C21 C 0.9742(5) 0.9931(3) -0.2268(2)
H19 H 1.0473 0.9341 -0.2229
C22 C 1.0547(5) 1.0752(3) -0.2810(2)
H20 H 1.1799 1.0708 -0.3135
C23 C 0.9497(5) 1.1638(3) -0.2871(2)
H21 H 1.0037 1.2198 -0.3232
C24 C 0.7637(6) 1.1687(3) -0.2389(2)
H22 H 0.6926 1.2285 -0.2426
C25 C 0.6814(5) 1.0863(2) -0.1853(2)
H23 H 0.5549 1.0906 -0.1538
N1 N 0.2007(3) 0.51032(18) 0.09379(15)
N2 N 0.2365(4) 0.58635(19) 0.03297(17)
H24 H 0.148(5) 0.580(2) -0.014(2)
loop_
_geom_bond_atom_site_label_1
_geom_bond_atom_site_label_2
_geom_bond_site_symmetry_1
_geom_bond_site_symmetry_2
C1 H1 1_555 1_555
H2 C1 1_555 1_555
H3 C1 1_555 1_555
C2 H4 1_555 1_555
H5 C2 1_555 1_555
H6 C2 1_555 1_555
C3 H7 1_555 1_555
H8 C3 1_555 1_555
H9 C3 1_555 1_555
C4 C1 1_555 1_555
C5 C4 1_555 1_555
C6 C5 1_555 1_555
H10 C6 1_555 1_555
C7 C6 1_555 1_555
H11 C7 1_555 1_555
C8 C7 1_555 1_555
C9 C8 1_555 1_555
H12 C9 1_555 1_555
C10 C5 1_555 1_555
H13 C10 1_555 1_555
C11 C8 1_555 1_555
C12 C11 1_555 1_555
H14 C12 1_555 1_555
C13 C12 1_555 1_555
C14 C13 1_555 1_555
C15 C14 1_555 1_555
H15 C15 1_555 1_555
C16 C15 1_555 1_555
H16 C16 1_555 1_555
C17 C16 1_555 1_555
C18 C17 1_555 1_555
H17 C18 1_555 1_555
C19 C14 1_555 1_555
H18 C19 1_555 1_555
C20 C17 1_555 1_555
C21 C20 1_555 1_555
H19 C21 1_555 1_555
C22 C21 1_555 1_555
H20 C22 1_555 1_555
C23 C22 1_555 1_555
H21 C23 1_555 1_555
C24 C23 1_555 1_555
H22 C24 1_555 1_555
C25 C20 1_555 1_555
H23 C25 1_555 1_555
N1 C11 1_555 1_555
N2 C13 1_555 1_555
H24 N2 1_555 1_555
C2 C4 1_555 1_555
C3 C4 1_555 1_555
C9 C10 1_555 1_555
C18 C19 1_555 1_555
C24 C25 1_555 1_555
N1 N2 1_555 1_555

#END
