
#######################################################################
#
#                 Cambridge Crystallographic Data Centre
#                                CCDC 
#
#######################################################################
#
# If this CIF has been generated from an entry in the Cambridge 
# Structural Database, then it will include bibliographic, chemical, 
# crystal, experimental, refinement or atomic coordinate data resulting 
# from the CCDC's data processing and validation procedures.
#
#######################################################################

data_LIJJUM
_chemical_formula_moiety         'C46 H47 B1 N2'
_chemical_name_systematic        
2,5,11,17-tetra-t-butyl-13,14,15-(buta[1,3]diene[1,1,4]triyl)-13b,15c-diaza-15d-borabenzo[3,4]azuleno[2,1,8,7-defg]benzo[op]tetracene
_symmetry_cell_setting           monoclinic
_symmetry_space_group_name_H-M   'P 21/c'
_symmetry_Int_Tables_number      14
_space_group_name_Hall           '-P 2ybc'
loop_
_symmetry_equiv_pos_site_id
_symmetry_equiv_pos_as_xyz
1 x,y,z
2 -x,1/2+y,1/2-z
3 -x,-y,-z
4 x,1/2-y,1/2+z
_cell_length_a                   16.801(3)
_cell_length_b                   16.853(3)
_cell_length_c                   13.211(2)
_cell_angle_alpha                90
_cell_angle_beta                 106.992(5)
_cell_angle_gamma                90
_cell_volume                     3577.36
_exptl_crystal_colour            yellow
_exptl_crystal_description       Plate
_cell_formula_units_Z            4
loop_
_atom_site_label
_atom_site_type_symbol
_atom_site_fract_x
_atom_site_fract_y
_atom_site_fract_z
B1 B 0.4822(3) 0.0232(2) 0.6190(3)
N1 N 0.54755(17) 0.07240(16) 0.6120(2)
N2 N 0.39835(17) 0.04727(17) 0.5836(2)
C1 C 0.5025(2) -0.0591(2) 0.6698(3)
C2 C 0.4376(2) -0.1105(2) 0.6762(3)
C3 C 0.4578(2) -0.1851(2) 0.7207(3)
H1 H 0.4148 -0.2201 0.7257
C4 C 0.5397(2) -0.2089(2) 0.7577(3)
H2 H 0.5521 -0.2607 0.7862
C5 C 0.6044(2) -0.1592(2) 0.7544(3)
H3 H 0.6604 -0.1763 0.7820
C6 C 0.5869(2) -0.0835(2) 0.7102(3)
C7 C 0.6519(2) -0.0268(2) 0.7044(3)
C8 C 0.7381(2) -0.0380(2) 0.7473(3)
H4 H 0.7573 -0.0872 0.7808
C9 C 0.7971(2) 0.0198(2) 0.7433(3)
C10 C 0.7697(2) 0.0921(2) 0.6938(3)
H5 H 0.8089 0.1318 0.6903
C11 C 0.6855(2) 0.1060(2) 0.6496(3)
C12 C 0.6295(2) 0.0467(2) 0.6565(3)
C13 C 0.6351(2) 0.1727(2) 0.5963(3)
C14 C 0.6563(2) 0.2468(2) 0.5659(3)
H6 H 0.7131 0.2611 0.5787
C15 C 0.5941(2) 0.2995(2) 0.5169(3)
C16 C 0.5113(2) 0.2767(2) 0.5012(3)
H7 H 0.4693 0.3146 0.4705
C17 C 0.4854(2) 0.2023(2) 0.5271(3)
C18 C 0.5505(2) 0.1507(2) 0.5757(3)
C19 C 0.3943(2) 0.1855(2) 0.5055(3)
C20 C 0.3354(2) 0.2426(2) 0.4533(3)
H8 H 0.3558 0.2898 0.4307
C21 C 0.2489(2) 0.2351(2) 0.4322(3)
C22 C 0.2181(2) 0.1675(2) 0.4650(3)
H9 H 0.1599 0.1616 0.4532
C23 C 0.2721(2) 0.1075(2) 0.5153(3)
C24 C 0.3592(2) 0.1168(2) 0.5349(3)
C25 C 0.3364(2) -0.0052(2) 0.5929(3)
C26 C 0.3515(2) -0.0813(2) 0.6353(3)
C27 C 0.2792(2) -0.1237(2) 0.6345(3)
H10 H 0.2853 -0.1764 0.6613
C28 C 0.1986(2) -0.0924(2) 0.5960(3)
C29 C 0.1889(2) -0.0149(2) 0.5561(3)
H11 H 0.1348 0.0077 0.5309
C30 C 0.2581(2) 0.0291(2) 0.5533(3)
C31 C 0.8899(2) 0.0076(2) 0.7979(3)
C32 C 0.9113(3) -0.0783(3) 0.8299(4)
H12 H 0.8900 -0.1127 0.7681
H13 H 0.8860 -0.0933 0.8851
H14 H 0.9719 -0.0841 0.8570
C33 C 0.9408(3) 0.0320(3) 0.7249(4)
H15 H 0.9208 0.0032 0.6578
H16 H 0.9995 0.0193 0.7584
H17 H 0.9348 0.0892 0.7114
C34 C 0.9152(3) 0.0592(3) 0.8965(4)
H18 H 0.9750 0.0531 0.9313
H19 H 0.8840 0.0429 0.9452
H20 H 0.9029 0.1149 0.8765
C35 C 0.6139(2) 0.3831(2) 0.4850(3)
C36 C 0.7006(3) 0.3878(3) 0.4682(5)
H21 H 0.7095 0.4413 0.4443
H22 H 0.7043 0.3490 0.4145
H23 H 0.7432 0.3762 0.5349
C37 C 0.6104(4) 0.4408(3) 0.5716(4)
H24 H 0.6181 0.4950 0.5493
H25 H 0.6547 0.4281 0.6365
H26 H 0.5562 0.4365 0.5851
C38 C 0.5526(3) 0.4089(3) 0.3813(4)
H27 H 0.5672 0.4622 0.3629
H28 H 0.4963 0.4095 0.3888
H29 H 0.5548 0.3716 0.3253
C39 C 0.1930(3) 0.3031(2) 0.3738(4)
C40 C 0.2025(3) 0.3118(3) 0.2613(4)
H30 H 0.1871 0.2618 0.2227
H31 H 0.2604 0.3248 0.2665
H32 H 0.1659 0.3543 0.2235
C41 C 0.2171(3) 0.3805(3) 0.4331(5)
H33 H 0.2132 0.3747 0.5053
H34 H 0.1794 0.4227 0.3967
H35 H 0.2744 0.3942 0.4358
C42 C 0.1015(3) 0.2882(3) 0.3600(5)
H36 H 0.0925 0.2826 0.4296
H37 H 0.0842 0.2395 0.3191
H38 H 0.0688 0.3330 0.3223
C43 C 0.1244(3) -0.1447(3) 0.5982(4)
C44 C 0.0416(3) -0.1027(3) 0.5569(4)
H39 H 0.0398 -0.0574 0.6027
H40 H -0.0036 -0.1396 0.5565
H41 H 0.0350 -0.0838 0.4847
C45 C 0.1334(3) -0.1742(4) 0.7081(4)
H42 H 0.1324 -0.1291 0.7546
H43 H 0.1863 -0.2026 0.7348
H44 H 0.0873 -0.2103 0.7069
C46 C 0.1204(3) -0.2170(3) 0.5241(5)
H45 H 0.0727 -0.2504 0.5242
H46 H 0.1718 -0.2480 0.5493
H47 H 0.1143 -0.1983 0.4520
loop_
_geom_bond_atom_site_label_1
_geom_bond_atom_site_label_2
_geom_bond_site_symmetry_1
_geom_bond_site_symmetry_2
B1 N1 1_555 1_555
N1 C12 1_555 1_555
N2 B1 1_555 1_555
C1 B1 1_555 1_555
C2 C1 1_555 1_555
C3 C2 1_555 1_555
H1 C3 1_555 1_555
C4 C3 1_555 1_555
H2 C4 1_555 1_555
C5 C4 1_555 1_555
H3 C5 1_555 1_555
C6 C1 1_555 1_555
C7 C6 1_555 1_555
C8 C7 1_555 1_555
H4 C8 1_555 1_555
C9 C8 1_555 1_555
C10 C9 1_555 1_555
H5 C10 1_555 1_555
C11 C10 1_555 1_555
C12 C7 1_555 1_555
C13 C11 1_555 1_555
C14 C13 1_555 1_555
H6 C14 1_555 1_555
C15 C14 1_555 1_555
C16 C15 1_555 1_555
H7 C16 1_555 1_555
C17 C16 1_555 1_555
C18 N1 1_555 1_555
C19 C17 1_555 1_555
C20 C19 1_555 1_555
H8 C20 1_555 1_555
C21 C20 1_555 1_555
C22 C21 1_555 1_555
H9 C22 1_555 1_555
C23 C22 1_555 1_555
C24 N2 1_555 1_555
C25 N2 1_555 1_555
C26 C2 1_555 1_555
C27 C26 1_555 1_555
H10 C27 1_555 1_555
C28 C27 1_555 1_555
C29 C28 1_555 1_555
H11 C29 1_555 1_555
C30 C23 1_555 1_555
C31 C9 1_555 1_555
C32 C31 1_555 1_555
H12 C32 1_555 1_555
H13 C32 1_555 1_555
H14 C32 1_555 1_555
C33 C31 1_555 1_555
H15 C33 1_555 1_555
H16 C33 1_555 1_555
H17 C33 1_555 1_555
C34 C31 1_555 1_555
H18 C34 1_555 1_555
H19 C34 1_555 1_555
H20 C34 1_555 1_555
C35 C15 1_555 1_555
C36 C35 1_555 1_555
H21 C36 1_555 1_555
H22 C36 1_555 1_555
H23 C36 1_555 1_555
C37 C35 1_555 1_555
H24 C37 1_555 1_555
H25 C37 1_555 1_555
H26 C37 1_555 1_555
C38 C35 1_555 1_555
H27 C38 1_555 1_555
H28 C38 1_555 1_555
H29 C38 1_555 1_555
C39 C21 1_555 1_555
C40 C39 1_555 1_555
H30 C40 1_555 1_555
H31 C40 1_555 1_555
H32 C40 1_555 1_555
C41 C39 1_555 1_555
H33 C41 1_555 1_555
H34 C41 1_555 1_555
H35 C41 1_555 1_555
C42 C39 1_555 1_555
H36 C42 1_555 1_555
H37 C42 1_555 1_555
H38 C42 1_555 1_555
C43 C28 1_555 1_555
C44 C43 1_555 1_555
H39 C44 1_555 1_555
H40 C44 1_555 1_555
H41 C44 1_555 1_555
C45 C43 1_555 1_555
H42 C45 1_555 1_555
H43 C45 1_555 1_555
H44 C45 1_555 1_555
C46 C43 1_555 1_555
H45 C46 1_555 1_555
H46 C46 1_555 1_555
H47 C46 1_555 1_555
C5 C6 1_555 1_555
C11 C12 1_555 1_555
C13 C18 1_555 1_555
C17 C18 1_555 1_555
C19 C24 1_555 1_555
C23 C24 1_555 1_555
C25 C26 1_555 1_555
C25 C30 1_555 1_555
C29 C30 1_555 1_555

#END
