
#######################################################################
#
#                 Cambridge Crystallographic Data Centre
#                                CCDC 
#
#######################################################################
#
# If this CIF has been generated from an entry in the Cambridge 
# Structural Database, then it will include bibliographic, chemical, 
# crystal, experimental, refinement or atomic coordinate data resulting 
# from the CCDC's data processing and validation procedures.
#
#######################################################################

data_LIJLOI
_chemical_formula_moiety         'C24 H23 N1 O1 S1'
_chemical_name_systematic        
5-(t-butylsulfinyl)-10-phenyl-5H-dibenzo[b,f]azepine
_symmetry_cell_setting           orthorhombic
_symmetry_space_group_name_H-M   'P 21 21 21'
_symmetry_Int_Tables_number      19
_space_group_name_Hall           'P 2ac 2ab'
loop_
_symmetry_equiv_pos_site_id
_symmetry_equiv_pos_as_xyz
1 x,y,z
2 1/2-x,-y,1/2+z
3 -x,1/2+y,1/2-z
4 1/2+x,1/2-y,-z
_cell_length_a                   8.5963(4)
_cell_length_b                   11.7769(5)
_cell_length_c                   18.8136(8)
_cell_angle_alpha                90
_cell_angle_beta                 90
_cell_angle_gamma                90
_cell_volume                     1904.65
_exptl_crystal_colour            colorless
_exptl_crystal_description       plate
_cell_formula_units_Z            4
_exptl_crystal_recrystallization_method tetrahydrofuran/n-pentane
loop_
_atom_site_label
_atom_site_type_symbol
_atom_site_fract_x
_atom_site_fract_y
_atom_site_fract_z
S1 S 0.28412(10) 0.41730(6) 0.83756(5)
O1 O 0.3456(3) 0.50466(18) 0.88690(13)
N1 N 0.3807(3) 0.4143(2) 0.75998(14)
C1 C 0.6004(4) 0.3359(3) 0.69496(19)
C2 C 0.4969(4) 0.2671(2) 0.65035(17)
H1 H 0.535577 0.194767 0.636634
C3 C 0.2658(4) 0.2101(2) 0.58225(17)
C4 C 0.1074(4) 0.1912(3) 0.59496(19)
H2 H 0.055924 0.233735 0.630837
C5 C 0.3534(4) 0.2939(3) 0.62637(18)
C6 C 0.5464(4) 0.4064(2) 0.74966(17)
C7 C 0.6496(4) 0.4664(3) 0.79222(19)
H3 H 0.611801 0.514718 0.828794
C8 C 0.3385(4) 0.1473(3) 0.52922(18)
H4 H 0.445739 0.159052 0.519539
C9 C 0.2970(4) 0.4662(2) 0.70219(17)
C10 C 0.8640(4) 0.3870(3) 0.72674(19)
H5 H 0.972790 0.380967 0.718656
C11 C 0.1431(4) 0.6209(3) 0.6573(2)
H6 H 0.095268 0.692795 0.664006
C12 C 0.2796(4) 0.4063(3) 0.63853(16)
C13 C 0.2304(4) 0.5730(3) 0.71087(18)
H7 H 0.245350 0.613250 0.754095
C14 C 0.3366(4) 0.2787(3) 0.87694(19)
C15 C 0.0242(4) 0.1115(3) 0.55615(19)
H8 H -0.083081 0.099399 0.565664
C16 C 0.8078(4) 0.4554(3) 0.78099(19)
H9 H 0.878673 0.495085 0.810715
C17 C 0.2552(4) 0.0675(3) 0.49022(18)
H10 H 0.305934 0.024772 0.454203
C18 C 0.7608(4) 0.3278(3) 0.68470(18)
H11 H 0.799726 0.280418 0.647904
C19 C 0.1928(4) 0.4577(3) 0.58439(19)
H12 H 0.179760 0.419133 0.540420
C20 C 0.0980(4) 0.0499(3) 0.5037(2)
H13 H 0.041450 -0.004429 0.476811
C21 C 0.5044(4) 0.2782(3) 0.9052(2)
H14 H 0.576948 0.269039 0.865422
H15 H 0.517615 0.215200 0.938667
H16 H 0.525674 0.350170 0.929512
C22 C 0.1255(4) 0.5634(3) 0.5936(2)
H17 H 0.067021 0.596669 0.556167
C23 C 0.3080(5) 0.1859(3) 0.82317(19)
H18 H 0.204615 0.195738 0.802094
H19 H 0.313649 0.111804 0.846738
H20 H 0.387145 0.189911 0.785768
C24 C 0.2229(5) 0.2703(3) 0.93917(18)
H21 H 0.240397 0.333837 0.971860
H22 H 0.239365 0.198483 0.964347
H23 H 0.115951 0.273308 0.921197
loop_
_geom_bond_atom_site_label_1
_geom_bond_atom_site_label_2
_geom_bond_site_symmetry_1
_geom_bond_site_symmetry_2
S1 O1 1_555 1_555
N1 S1 1_555 1_555
C1 C2 1_555 1_555
C2 H1 1_555 1_555
C3 C4 1_555 1_555
C4 H2 1_555 1_555
C5 C2 1_555 1_555
C6 N1 1_555 1_555
C7 C6 1_555 1_555
H3 C7 1_555 1_555
C8 C3 1_555 1_555
H4 C8 1_555 1_555
C9 N1 1_555 1_555
C10 H5 1_555 1_555
C11 H6 1_555 1_555
C12 C5 1_555 1_555
C13 C9 1_555 1_555
H7 C13 1_555 1_555
C14 S1 1_555 1_555
C15 C4 1_555 1_555
H8 C15 1_555 1_555
C16 C7 1_555 1_555
H9 C16 1_555 1_555
C17 C8 1_555 1_555
H10 C17 1_555 1_555
C18 C1 1_555 1_555
H11 C18 1_555 1_555
C19 C12 1_555 1_555
H12 C19 1_555 1_555
C20 C15 1_555 1_555
H13 C20 1_555 1_555
C21 C14 1_555 1_555
H14 C21 1_555 1_555
H15 C21 1_555 1_555
H16 C21 1_555 1_555
C22 C11 1_555 1_555
H17 C22 1_555 1_555
C23 C14 1_555 1_555
H18 C23 1_555 1_555
H19 C23 1_555 1_555
H20 C23 1_555 1_555
C24 C14 1_555 1_555
H21 C24 1_555 1_555
H22 C24 1_555 1_555
H23 C24 1_555 1_555
C1 C6 1_555 1_555
C3 C5 1_555 1_555
C9 C12 1_555 1_555
C10 C16 1_555 1_555
C10 C18 1_555 1_555
C11 C13 1_555 1_555
C17 C20 1_555 1_555
C19 C22 1_555 1_555

#END
