
#######################################################################
#
#                 Cambridge Crystallographic Data Centre
#                                CCDC 
#
#######################################################################
#
# If this CIF has been generated from an entry in the Cambridge 
# Structural Database, then it will include bibliographic, chemical, 
# crystal, experimental, refinement or atomic coordinate data resulting 
# from the CCDC's data processing and validation procedures.
#
#######################################################################

data_LIJPAW
_chemical_formula_moiety         'C16 H12 N2 O1'
_chemical_name_systematic        N-Phenylquinoline-2-carboxamide
_symmetry_cell_setting           orthorhombic
_symmetry_space_group_name_H-M   'P n a 21'
_symmetry_Int_Tables_number      33
_space_group_name_Hall           'P 2c -2n'
loop_
_symmetry_equiv_pos_site_id
_symmetry_equiv_pos_as_xyz
1 x,y,z
2 -x,-y,1/2+z
3 1/2+x,1/2-y,z
4 1/2-x,1/2+y,1/2+z
_cell_length_a                   16.9856(19)
_cell_length_b                   12.8279(16)
_cell_length_c                   5.4455(7)
_cell_angle_alpha                90
_cell_angle_beta                 90
_cell_angle_gamma                90
_cell_volume                     1186.52
_exptl_crystal_colour            colorless
_exptl_crystal_description       plate
_cell_formula_units_Z            4
_exptl_crystal_recrystallization_method dimethylsulfoxide
loop_
_atom_site_label
_atom_site_type_symbol
_atom_site_fract_x
_atom_site_fract_y
_atom_site_fract_z
O1 O 0.28453(9) 0.31035(13) 0.1870(3)
N1 N 0.37707(10) 0.43801(13) 0.6855(4)
N2 N 0.41118(10) 0.29930(14) 0.3349(4)
C1 C 0.31803(12) 0.40935(16) 0.5420(4)
C2 C 0.24023(13) 0.44684(16) 0.5661(5)
H1 H 0.1996 0.4227 0.4606
C3 C 0.22498(13) 0.51849(17) 0.7444(5)
H2 H 0.1732 0.5453 0.7639
C4 C 0.27477(13) 0.62705(17) 1.0899(5)
H3 H 0.2241 0.6566 1.1136
C5 C 0.33486(13) 0.65688(16) 1.2390(5)
H4 H 0.3261 0.7070 1.3645
C6 C 0.41086(13) 0.61262(15) 1.2059(5)
H5 H 0.4530 0.6330 1.3101
C7 C 0.42357(12) 0.54080(16) 1.0248(5)
H6 H 0.4747 0.5118 1.0052
C8 C 0.36231(11) 0.50866(16) 0.8660(4)
C9 C 0.28592(12) 0.55297(16) 0.9001(4)
C10 C 0.33541(12) 0.33470(16) 0.3353(4)
C11 C 0.44804(12) 0.23178(15) 0.1655(4)
C12 C 0.52679(12) 0.20587(15) 0.2071(5)
H7 H 0.5536 0.2332 0.3459
C13 C 0.56576(13) 0.14009(17) 0.0450(5)
H8 H 0.6196 0.1235 0.0722
C14 C 0.52686(13) 0.09850(17) -0.1561(5)
H9 H 0.5534 0.0527 -0.2652
C15 C 0.44909(15) 0.12453(16) -0.1958(5)
H10 H 0.4224 0.0965 -0.3341
C16 C 0.40915(13) 0.19058(17) -0.0381(4)
H11 H 0.3556 0.2078 -0.0684
H12 H 0.4423(14) 0.3254(19) 0.462(6)
loop_
_geom_bond_atom_site_label_1
_geom_bond_atom_site_label_2
_geom_bond_site_symmetry_1
_geom_bond_site_symmetry_2
O1 C10 1_555 1_555
N1 C1 1_555 1_555
N2 C10 1_555 1_555
C1 C2 1_555 1_555
C2 H1 1_555 1_555
C3 C2 1_555 1_555
H2 C3 1_555 1_555
C4 H3 1_555 1_555
C5 C4 1_555 1_555
H4 C5 1_555 1_555
C6 C5 1_555 1_555
H5 C6 1_555 1_555
C7 C6 1_555 1_555
H6 C7 1_555 1_555
C8 N1 1_555 1_555
C9 C3 1_555 1_555
C10 C1 1_555 1_555
C11 N2 1_555 1_555
C12 C11 1_555 1_555
H7 C12 1_555 1_555
C13 C12 1_555 1_555
H8 C13 1_555 1_555
C14 C13 1_555 1_555
H9 C14 1_555 1_555
C15 C14 1_555 1_555
H10 C15 1_555 1_555
C16 C11 1_555 1_555
H11 C16 1_555 1_555
H12 N2 1_555 1_555
C4 C9 1_555 1_555
C7 C8 1_555 1_555
C8 C9 1_555 1_555
C15 C16 1_555 1_555

#END
