
#######################################################################
#
#                 Cambridge Crystallographic Data Centre
#                                CCDC 
#
#######################################################################
#
# If this CIF has been generated from an entry in the Cambridge 
# Structural Database, then it will include bibliographic, chemical, 
# crystal, experimental, refinement or atomic coordinate data resulting 
# from the CCDC's data processing and validation procedures.
#
#######################################################################

data_LIJPAV
_chemical_formula_moiety         'C14 H38 N6 4+,4(Cl1 O4 1-)'
_chemical_name_systematic        
'1,10-Dimethyl-1,10-diaza-4,7,13,16-tetra-azoniacyclo-octadecane tetraperchlorate'
_symmetry_cell_setting           monoclinic
_symmetry_space_group_name_H-M   'P 21/c'
_symmetry_Int_Tables_number      14
_space_group_name_Hall           '-P 2ybc'
loop_
_symmetry_equiv_pos_site_id
_symmetry_equiv_pos_as_xyz
1 x,y,z
2 -x,1/2+y,1/2-z
3 -x,-y,-z
4 x,1/2-y,1/2+z
_cell_length_a                   9.257
_cell_length_b                   8.600
_cell_length_c                   17.990
_cell_angle_alpha                90
_cell_angle_beta                 101.74
_cell_angle_gamma                90
_cell_volume                     1402.23
_exptl_crystal_colour            colorless
_cell_formula_units_Z            2
loop_
_atom_site_label
_atom_site_type_symbol
_atom_site_fract_x
_atom_site_fract_y
_atom_site_fract_z
Cl1 Cl 1.3998(1) 0.5164(1) 0.6619(1)
O1 O 1.5244(4) 0.4223(4) 0.6570(2)
O2 O 1.2676(4) 0.4248(5) 0.6491(2)
O3 O 1.3836(5) 0.6341(5) 0.6050(2)
O4 O 1.4173(4) 0.5875(5) 0.7341(2)
Cl2 Cl 1.1115(1) 0.7907(1) 0.4276(1)
O5 O 1.0581(5) 0.6736(5) 0.4703(3)
O6 O 1.0445(6) 0.9310(6) 0.4714(3)
O7 O 1.2434(7) 0.8543(8) 0.4557(4)
O8 O 1.0204(7) 0.8415(9) 0.3643(4)
C1 C 1.2532(5) 0.3314(5) 0.4410(3)
N1 N 1.1515(4) 0.2346(4) 0.3871(2)
C2 C 1.2311(6) 0.1608(6) 0.3339(3)
C3 C 1.0266(5) 0.3241(5) 0.3456(2)
C4 C 0.9008(5) 0.2193(5) 0.3092(2)
N2 N 0.8370(4) 0.1397(4) 0.3695(2)
C5 C 0.7211(5) 0.0232(5) 0.3373(2)
C6 C 0.6417(4) -0.0461(5) 0.3951(2)
N3 N 0.7306(4) -0.1580(4) 0.4493(2)
C7 C 1.3547(5) 0.2358(6) 0.4988(3)
H1 H 0.7943(46) 0.2117(49) 0.3988(24)
H2 H 0.9150(49) 0.0978(49) 0.4089(25)
H3 H 0.8055(54) -0.1118(55) 0.4791(27)
H4 H 0.7547(51) -0.2248(57) 0.4223(28)
H5 H 1.1967(5) 0.4007(5) 0.4668(3)
H6 H 1.3113(5) 0.3949(5) 0.4135(3)
H7 H 1.3082(22) 0.0960(29) 0.3614(3)
H8 H 1.2733(29) 0.2395(6) 0.3070(13)
H9 H 1.1638(9) 0.0984(29) 0.2983(11)
H10 H 1.0583(5) 0.3854(5) 0.3066(2)
H11 H 0.9925(5) 0.3951(5) 0.3802(2)
H12 H 0.8250(5) 0.2804(5) 0.2769(2)
H13 H 0.9363(5) 0.1422(5) 0.2779(2)
H14 H 0.7669(5) -0.0602(5) 0.3140(2)
H15 H 0.6492(5) 0.0728(5) 0.2977(2)
H16 H 0.6097(4) 0.0379(5) 0.4239(2)
H17 H 0.5540(4) -0.0991(5) 0.3682(2)
H18 H 1.4029(5) 0.1578(6) 0.4734(3)
H19 H 1.4302(5) 0.3019(6) 0.5282(3)
C7B C 0.6453(5) -0.2358(6) 0.5012(3)
N3B N 1.2694(4) 0.1580(4) 0.5507(2)
C1B C 0.7468(5) -0.3314(5) 0.5590(3)
H18B H 0.5971(5) -0.1578(6) 0.5266(3)
H19B H 0.5698(5) -0.3019(6) 0.4718(3)
C6B C 1.3583(4) 0.0461(5) 0.6049(2)
H3B H 1.1945(54) 0.1118(55) 0.5209(27)
H4B H 1.2453(51) 0.2248(57) 0.5777(28)
N1B N 0.8485(4) -0.2346(4) 0.6129(2)
H5B H 0.8033(5) -0.4007(5) 0.5332(3)
H6B H 0.6887(5) -0.3949(5) 0.5865(3)
C5B C 1.2789(5) -0.0232(5) 0.6627(2)
H16B H 1.3903(4) -0.0379(5) 0.5761(2)
H17B H 1.4460(4) 0.0991(5) 0.6318(2)
C2B C 0.7689(6) -0.1608(6) 0.6661(3)
C3B C 0.9734(5) -0.3241(5) 0.6544(2)
N2B N 1.1630(4) -0.1397(4) 0.6305(2)
H14B H 1.2331(5) 0.0602(5) 0.6860(2)
H15B H 1.3508(5) -0.0728(5) 0.7023(2)
H7B H 0.6918(22) -0.0960(29) 0.6386(3)
H8B H 0.7267(29) -0.2395(6) 0.6930(13)
H9B H 0.8362(9) -0.0984(29) 0.7017(11)
C4B C 1.0992(5) -0.2193(5) 0.6908(2)
H10B H 0.9417(5) -0.3854(5) 0.6934(2)
H11B H 1.0075(5) -0.3951(5) 0.6198(2)
H1B H 1.2057(46) -0.2117(49) 0.6012(24)
H2B H 1.0850(49) -0.0978(49) 0.5911(25)
H12B H 1.1750(5) -0.2804(5) 0.7231(2)
H13B H 1.0637(5) -0.1422(5) 0.7221(2)
O9? O 1.1855(11) 0.6815(9) 0.3783(5)
loop_
_geom_bond_atom_site_label_1
_geom_bond_atom_site_label_2
_geom_bond_site_symmetry_1
_geom_bond_site_symmetry_2
Cl1 O1 1_555 1_555
O2 Cl1 1_555 1_555
O3 Cl1 1_555 1_555
O4 Cl1 1_555 1_555
Cl2 O5 1_555 1_555
O6 Cl2 1_555 1_555
O7 Cl2 1_555 1_555
O8 Cl2 1_555 1_555
C1 N1 1_555 1_555
N1 C2 1_555 1_555
C2 H7 1_555 1_555
C3 N1 1_555 1_555
C4 C3 1_555 1_555
N2 C4 1_555 1_555
C5 N2 1_555 1_555
C6 C5 1_555 1_555
N3 C6 1_555 1_555
C7 C1 1_555 1_555
H1 N2 1_555 1_555
H2 N2 1_555 1_555
H3 N3 1_555 1_555
H4 N3 1_555 1_555
H5 C1 1_555 1_555
H6 C1 1_555 1_555
H8 C2 1_555 1_555
H9 C2 1_555 1_555
H10 C3 1_555 1_555
H11 C3 1_555 1_555
H12 C4 1_555 1_555
H13 C4 1_555 1_555
H14 C5 1_555 1_555
H15 C5 1_555 1_555
H16 C6 1_555 1_555
H17 C6 1_555 1_555
H18 C7 1_555 1_555
H19 C7 1_555 1_555
C7B N3 1_555 1_555
N3B C7 1_555 1_555
C1B C7B 1_555 1_555
H18B C7B 1_555 1_555
H19B C7B 1_555 1_555
C6B N3B 1_555 1_555
H3B N3B 1_555 1_555
H4B N3B 1_555 1_555
N1B C1B 1_555 1_555
H5B C1B 1_555 1_555
H6B C1B 1_555 1_555
C5B C6B 1_555 1_555
H16B C6B 1_555 1_555
H17B C6B 1_555 1_555
C2B N1B 1_555 1_555
C3B N1B 1_555 1_555
N2B C5B 1_555 1_555
H14B C5B 1_555 1_555
H15B C5B 1_555 1_555
H7B C2B 1_555 1_555
H8B C2B 1_555 1_555
H9B C2B 1_555 1_555
C4B C3B 1_555 1_555
H10B C3B 1_555 1_555
H11B C3B 1_555 1_555
H1B N2B 1_555 1_555
H2B N2B 1_555 1_555
H12B C4B 1_555 1_555
H13B C4B 1_555 1_555
N2B C4B 1_555 1_555

#END
