
#######################################################################
#
#                 Cambridge Crystallographic Data Centre
#                                CCDC 
#
#######################################################################
#
# If this CIF has been generated from an entry in the Cambridge 
# Structural Database, then it will include bibliographic, chemical, 
# crystal, experimental, refinement or atomic coordinate data resulting 
# from the CCDC's data processing and validation procedures.
#
#######################################################################

data_LIJQAW
_chemical_name_common            trans-2-Oxobicyclo[4.4.0]decanecarbonitrile
_chemical_formula_moiety         'C11 H15 N1 O1'
_chemical_name_systematic        8a-Cyano-1-oxo-trans-decalin
_symmetry_cell_setting           triclinic
_symmetry_space_group_name_H-M   'P -1'
_symmetry_Int_Tables_number      2
_space_group_name_Hall           '-P 1'
loop_
_symmetry_equiv_pos_site_id
_symmetry_equiv_pos_as_xyz
1 x,y,z
2 -x,-y,-z
_cell_length_a                   7.604(3)
_cell_length_b                   9.045(4)
_cell_length_c                   7.452(2)
_cell_angle_alpha                90.65(3)
_cell_angle_beta                 97.03(3)
_cell_angle_gamma                77.95(3)
_cell_volume                     497.42
_exptl_crystal_colour            colorless
_exptl_crystal_description       chunk
_chemical_melting_point          328-329K
_cell_formula_units_Z            2
_exptl_crystal_recrystallization_method hexane
loop_
_atom_site_label
_atom_site_type_symbol
_atom_site_fract_x
_atom_site_fract_y
_atom_site_fract_z
O1 O 0.3054(3) 0.0627(2) 0.0944(2)
N1 N -0.1414(3) 0.3118(3) -0.2520(3)
C1 C 0.2086(3) 0.2252(2) -0.1639(3)
C2 C 0.2382(3) 0.0739(3) -0.0605(3)
C3 C 0.1856(3) -0.0536(3) -0.1655(3)
C4 C 0.2750(3) -0.0761(3) -0.3385(3)
C5 C 0.2433(3) 0.0700(3) -0.4470(3)
C6 C 0.3046(3) 0.1960(2) -0.3369(3)
C7 C 0.2835(4) 0.3437(3) -0.4417(3)
C8 C 0.3496(4) 0.4647(3) -0.3279(4)
C9 C 0.2586(4) 0.4926(3) -0.1577(4)
C10 C 0.2786(3) 0.3478(3) -0.0496(3)
C11 C 0.0107(4) 0.2744(3) -0.2156(3)
H1 H 0.0575 -0.0339 -0.1955
H2 H 0.2211 -0.1454 -0.0934
H3 H 0.2307 -0.1519 -0.4114
H4 H 0.4041 -0.1114 -0.3088
H5 H 0.3060 0.0528 -0.5544
H6 H 0.1160 0.1004 -0.4901
H7 H 0.4335 0.1638 -0.2988
H8 H 0.3451 0.3258 -0.5468
H9 H 0.1557 0.3794 -0.4830
H10 H 0.4796 0.4345 -0.2944
H11 H 0.3293 0.5586 -0.3956
H12 H 0.3118 0.5647 -0.0845
H13 H 0.1345 0.5343 -0.1907
H14 H 0.4063 0.3099 -0.0054
H15 H 0.2156 0.3669 0.0542
loop_
_geom_bond_atom_site_label_1
_geom_bond_atom_site_label_2
_geom_bond_site_symmetry_1
_geom_bond_site_symmetry_2
O1 C2 1_555 1_555
N1 C11 1_555 1_555
C1 C2 1_555 1_555
C2 C3 1_555 1_555
C3 C4 1_555 1_555
C4 C5 1_555 1_555
C5 C6 1_555 1_555
C6 C1 1_555 1_555
C7 C6 1_555 1_555
C8 C7 1_555 1_555
C9 C8 1_555 1_555
C10 C1 1_555 1_555
C11 C1 1_555 1_555
H1 C3 1_555 1_555
H2 C3 1_555 1_555
H3 C4 1_555 1_555
H4 C4 1_555 1_555
H5 C5 1_555 1_555
H6 C5 1_555 1_555
H7 C6 1_555 1_555
H8 C7 1_555 1_555
H9 C7 1_555 1_555
H10 C8 1_555 1_555
H11 C8 1_555 1_555
H12 C9 1_555 1_555
H13 C9 1_555 1_555
H14 C10 1_555 1_555
H15 C10 1_555 1_555
C9 C10 1_555 1_555

#END
