
#######################################################################
#
#                 Cambridge Crystallographic Data Centre
#                                CCDC 
#
#######################################################################
#
# If this CIF has been generated from an entry in the Cambridge 
# Structural Database, then it will include bibliographic, chemical, 
# crystal, experimental, refinement or atomic coordinate data resulting 
# from the CCDC's data processing and validation procedures.
#
#######################################################################

data_LIJQUT
_chemical_compound_source        'Xylopia vielana'
_chemical_name_common            
'vielopside A 1,6,9,14-tetramethyl-4,12-bis(propan-2-ylidene)-1,2,4,5,8,9,10,12,13,14-decahydro-8,14-methanocyclohepta[4,5]benzo[1,2-c]azulene-3,7,11,15(7aH)-tetrone'
_chemical_formula_moiety         'C30 H36 O6,C30 H36 O4'
_chemical_name_systematic        
"10a-hydroxy-1,6,9,13,13,15-hexamethyl-4-(propan-2-ylidene)-1,2,4,5,7a,8,9,10,10a,15-decahydro-13H-8,15-methanocyclohepta[3',3a']indeno[5',6':4,5]cyclohepta[1,2-c][1,2]dioxole-3,7,16-trione 1,6,9,14-tetramethyl-4,12-bis(propan-2-ylidene)-1,2,4,5,8,9,10,12,13,14-decahydro-8,14-methanocyclohepta[4,5]benzo[1,2-c]azulene-3,7,11,15(7aH)-tetrone"
_symmetry_cell_setting           orthorhombic
_symmetry_space_group_name_H-M   'P 21 21 21'
_symmetry_Int_Tables_number      19
_space_group_name_Hall           'P 2ac 2ab'
loop_
_symmetry_equiv_pos_site_id
_symmetry_equiv_pos_as_xyz
1 x,y,z
2 1/2-x,-y,1/2+z
3 -x,1/2+y,1/2-z
4 1/2+x,1/2-y,-z
_cell_length_a                   10.3664(2)
_cell_length_b                   19.7009(4)
_cell_length_c                   24.9531(5)
_cell_angle_alpha                90
_cell_angle_beta                 90
_cell_angle_gamma                90
_cell_volume                     5096.11
_exptl_crystal_colour            colorless
_exptl_crystal_description       block
_cell_formula_units_Z            4
loop_
_atom_site_label
_atom_site_type_symbol
_atom_site_fract_x
_atom_site_fract_y
_atom_site_fract_z
O1 O 0.61209(16) 0.38060(8) 0.62309(6)
C1 C 0.3410(2) 0.39208(12) 0.79952(9)
O2 O 0.3337(2) 0.47388(11) 0.72856(8)
C2 C 0.3888(3) 0.45091(12) 0.76757(10)
O3 O 0.84729(16) 0.25882(9) 0.79860(7)
C3 C 0.5145(3) 0.48280(12) 0.78573(10)
H1 H 0.524710 0.475843 0.824793
H2 H 0.511326 0.532293 0.778985
O4 O 0.3416(2) 0.13990(15) 0.59676(8)
C4 C 0.6308(2) 0.45263(11) 0.75669(9)
H3 H 0.619062 0.461473 0.717533
C5 C 0.6396(2) 0.37696(11) 0.76407(8)
C6 C 0.5627(2) 0.33471(11) 0.79220(8)
C7 C 0.4444(2) 0.34873(12) 0.82595(9)
H4 H 0.472237 0.371565 0.859350
H5 H 0.405343 0.304744 0.836192
C8 C 0.6102(2) 0.26181(11) 0.78235(8)
C9 C 0.5752(2) 0.24573(10) 0.72097(8)
C10 C 0.6671(2) 0.29397(10) 0.68947(8)
H6 H 0.729296 0.267811 0.666844
C11 C 0.7384(2) 0.33548(11) 0.73383(9)
H7 H 0.818814 0.359675 0.722659
C12 C 0.7538(2) 0.28011(11) 0.77569(9)
C13 C 0.5813(2) 0.20920(12) 0.82486(9)
H8 H 0.631063 0.167940 0.817565
H9 H 0.488951 0.198470 0.824393
H10 H 0.604982 0.227117 0.860143
C14 C 0.5776(2) 0.33705(11) 0.65529(8)
C15 C 0.4446(2) 0.31890(11) 0.66696(9)
C16 C 0.4428(2) 0.26977(11) 0.70473(8)
C17 C 0.3258(2) 0.23317(12) 0.72399(9)
H11 H 0.255435 0.266115 0.730543
H12 H 0.345320 0.209934 0.758223
C18 C 0.2822(2) 0.18085(11) 0.68224(9)
C19 C 0.3765(3) 0.15870(13) 0.64098(9)
C20 C 0.5224(2) 0.15519(12) 0.65143(9)
H13 H 0.563455 0.187323 0.626141
H14 H 0.550641 0.109170 0.640638
C21 C 0.5823(2) 0.16893(11) 0.70673(9)
H15 H 0.529692 0.143821 0.733865
C22 C 0.2140(3) 0.38270(15) 0.80862(11)
C23 C 0.1088(3) 0.4269(2) 0.78540(16)
H16 H 0.049318 0.440539 0.813960
H17 H 0.061517 0.401397 0.757992
H18 H 0.147342 0.467412 0.769187
C24 C 0.1642(3) 0.32793(18) 0.84544(14)
H19 H 0.086351 0.307673 0.829960
H20 H 0.143615 0.347696 0.880445
H21 H 0.230400 0.292838 0.849828
C25 C 0.7558(3) 0.48791(13) 0.77399(12)
H22 H 0.828752 0.468366 0.754340
H23 H 0.768817 0.481373 0.812544
H24 H 0.749782 0.536545 0.766142
C26 C 0.3332(3) 0.35052(14) 0.63840(11)
H25 H 0.252417 0.335838 0.655230
H26 H 0.333853 0.336397 0.600747
H27 H 0.340056 0.400057 0.640501
C27 C 0.7184(3) 0.13990(12) 0.70840(11)
H28 H 0.714847 0.090636 0.703149
H29 H 0.757643 0.149897 0.743248
H30 H 0.770293 0.160483 0.679879
C28 C 0.1596(3) 0.15829(14) 0.68345(11)
C29 C 0.0988(3) 0.11221(18) 0.64270(15)
H31 H 0.046768 0.077765 0.661044
H32 H 0.166363 0.089907 0.621640
H33 H 0.043394 0.138888 0.618826
C30 C 0.0704(3) 0.1789(2) 0.72792(15)
H34 H 0.001085 0.145285 0.731308
H35 H 0.033064 0.223420 0.719859
H36 H 0.118608 0.181322 0.761639
O5 O 0.84203(18) 0.44502(9) 0.64674(7)
O6 O 0.9237(2) 0.31081(9) 0.60973(7)
O7 O 1.00368(19) 0.36295(9) 0.63656(7)
O8 O 0.72980(19) 0.66071(10) 0.64816(7)
O9 O 0.3004(2) 0.63035(12) 0.52146(12)
O10 O 1.00797(19) 0.66298(9) 0.46023(7)
C31 C 0.4015(3) 0.61148(14) 0.50229(10)
C32 C 0.4264(3) 0.53745(13) 0.49234(10)
C33 C 0.5543(3) 0.50876(12) 0.51266(10)
H37 H 0.536811 0.471090 0.537899
H38 H 0.603691 0.490174 0.482055
C34 C 0.6336(2) 0.56185(11) 0.54037(9)
C35 C 0.7184(2) 0.60923(11) 0.50829(8)
C36 C 0.6318(2) 0.64356(12) 0.46483(9)
H39 H 0.613833 0.608545 0.436799
C37 C 0.5019(3) 0.66530(12) 0.48803(10)
H40 H 0.461546 0.696722 0.461997
H41 H 0.519533 0.691837 0.520909
C38 C 0.6234(2) 0.57818(11) 0.59226(9)
C39 C 0.7100(2) 0.63517(12) 0.60421(9)
C40 C 0.7746(2) 0.65722(11) 0.55257(9)
H42 H 0.755920 0.705926 0.544392
C41 C 0.9225(2) 0.64293(11) 0.55219(9)
H43 H 0.978264 0.677790 0.569849
C42 C 0.9403(2) 0.63420(12) 0.49193(9)
C43 C 0.8448(2) 0.57496(11) 0.48413(8)
C44 C 0.9471(2) 0.56923(11) 0.56809(8)
C45 C 0.9008(2) 0.52936(11) 0.52813(8)
C46 C 0.8960(2) 0.45515(12) 0.52197(9)
H44 H 0.874805 0.438276 0.487408
C47 C 0.9185(2) 0.40930(12) 0.56001(9)
C48 C 0.9513(2) 0.42592(12) 0.61730(9)
C49 C 1.0563(2) 0.47874(12) 0.62506(9)
H45 H 1.123799 0.471648 0.597547
H46 H 1.096627 0.471765 0.660598
C50 C 1.0085(2) 0.55180(12) 0.62141(9)
H47 H 0.940752 0.557696 0.649568
C51 C 0.9219(3) 0.33291(12) 0.55412(10)
C52 C 0.3367(3) 0.49785(15) 0.46890(11)
C53 C 0.2102(3) 0.5229(2) 0.44681(15)
H48 H 0.198914 0.505855 0.410203
H49 H 0.209890 0.572602 0.446469
H50 H 0.139419 0.506410 0.469381
C54 C 0.3571(3) 0.42249(18) 0.46280(15)
H51 H 0.333356 0.408616 0.426390
H52 H 0.303104 0.398241 0.488744
H53 H 0.447984 0.411630 0.469282
C55 C 0.6949(3) 0.70409(14) 0.43654(11)
H54 H 0.640625 0.718462 0.406435
H55 H 0.780075 0.690795 0.423163
H56 H 0.704192 0.741737 0.461915
C56 C 0.5376(3) 0.54710(13) 0.63362(10)
H57 H 0.568735 0.559271 0.669433
H58 H 0.538264 0.497611 0.629646
H59 H 0.449378 0.564021 0.628931
C57 C 0.8387(3) 0.54565(13) 0.42801(9)
H60 H 0.922465 0.525883 0.418696
H61 H 0.817416 0.581753 0.402483
H62 H 0.772134 0.510349 0.426590
C58 C 1.1197(3) 0.59984(15) 0.63544(12)
H63 H 1.162520 0.583908 0.668109
H64 H 1.085734 0.645669 0.641316
H65 H 1.181862 0.600672 0.605873
C59 C 1.0441(3) 0.30931(14) 0.52565(13)
H66 H 1.042917 0.325282 0.488454
H67 H 1.048017 0.259615 0.526146
H68 H 1.119784 0.327873 0.544034
C60 C 0.8006(3) 0.30165(14) 0.53016(12)
H69 H 0.793844 0.314451 0.492310
H70 H 0.724735 0.318260 0.549580
H71 H 0.805120 0.252104 0.533153
loop_
_geom_bond_atom_site_label_1
_geom_bond_atom_site_label_2
_geom_bond_site_symmetry_1
_geom_bond_site_symmetry_2
O1 C14 1_555 1_555
C1 C2 1_555 1_555
O2 C2 1_555 1_555
C2 C3 1_555 1_555
O3 C12 1_555 1_555
C3 H1 1_555 1_555
H2 C3 1_555 1_555
O4 C19 1_555 1_555
C4 C3 1_555 1_555
H3 C4 1_555 1_555
C5 C4 1_555 1_555
C6 C5 1_555 1_555
C7 C1 1_555 1_555
H4 C7 1_555 1_555
H5 C7 1_555 1_555
C8 C6 1_555 1_555
C9 C8 1_555 1_555
C10 C9 1_555 1_555
H6 C10 1_555 1_555
C11 C5 1_555 1_555
H7 C11 1_555 1_555
C12 C8 1_555 1_555
C13 C8 1_555 1_555
H8 C13 1_555 1_555
H9 C13 1_555 1_555
H10 C13 1_555 1_555
C14 C10 1_555 1_555
C15 C14 1_555 1_555
C16 C9 1_555 1_555
C17 C16 1_555 1_555
H11 C17 1_555 1_555
H12 C17 1_555 1_555
C18 C17 1_555 1_555
C19 C18 1_555 1_555
C20 C19 1_555 1_555
H13 C20 1_555 1_555
H14 C20 1_555 1_555
C21 C9 1_555 1_555
H15 C21 1_555 1_555
C22 C1 1_555 1_555
C23 C22 1_555 1_555
H16 C23 1_555 1_555
H17 C23 1_555 1_555
H18 C23 1_555 1_555
C24 C22 1_555 1_555
H19 C24 1_555 1_555
H20 C24 1_555 1_555
H21 C24 1_555 1_555
C25 C4 1_555 1_555
H22 C25 1_555 1_555
H23 C25 1_555 1_555
H24 C25 1_555 1_555
C26 C15 1_555 1_555
H25 C26 1_555 1_555
H26 C26 1_555 1_555
H27 C26 1_555 1_555
C27 C21 1_555 1_555
H28 C27 1_555 1_555
H29 C27 1_555 1_555
H30 C27 1_555 1_555
C28 C18 1_555 1_555
C29 C28 1_555 1_555
H31 C29 1_555 1_555
H32 C29 1_555 1_555
H33 C29 1_555 1_555
C30 C28 1_555 1_555
H34 C30 1_555 1_555
H35 C30 1_555 1_555
H36 C30 1_555 1_555
O5 C48 1_555 1_555
O6 O7 1_555 1_555
O7 C48 1_555 1_555
O8 C39 1_555 1_555
O9 C31 1_555 1_555
O10 C42 1_555 1_555
C31 C32 1_555 1_555
C32 C33 1_555 1_555
C33 H37 1_555 1_555
H38 C33 1_555 1_555
C34 C33 1_555 1_555
C35 C34 1_555 1_555
C36 C35 1_555 1_555
H39 C36 1_555 1_555
C37 C31 1_555 1_555
H40 C37 1_555 1_555
H41 C37 1_555 1_555
C38 C34 1_555 1_555
C39 C38 1_555 1_555
C40 C35 1_555 1_555
H42 C40 1_555 1_555
C41 C40 1_555 1_555
H43 C41 1_555 1_555
C42 C41 1_555 1_555
C43 C35 1_555 1_555
C44 C41 1_555 1_555
C45 C43 1_555 1_555
C46 C45 1_555 1_555
H44 C46 1_555 1_555
C47 C46 1_555 1_555
C48 C47 1_555 1_555
C49 C48 1_555 1_555
H45 C49 1_555 1_555
H46 C49 1_555 1_555
C50 C44 1_555 1_555
H47 C50 1_555 1_555
C51 O6 1_555 1_555
C52 C32 1_555 1_555
C53 C52 1_555 1_555
H48 C53 1_555 1_555
H49 C53 1_555 1_555
H50 C53 1_555 1_555
C54 C52 1_555 1_555
H51 C54 1_555 1_555
H52 C54 1_555 1_555
H53 C54 1_555 1_555
C55 C36 1_555 1_555
H54 C55 1_555 1_555
H55 C55 1_555 1_555
H56 C55 1_555 1_555
C56 C38 1_555 1_555
H57 C56 1_555 1_555
H58 C56 1_555 1_555
H59 C56 1_555 1_555
C57 C43 1_555 1_555
H60 C57 1_555 1_555
H61 C57 1_555 1_555
H62 C57 1_555 1_555
C58 C50 1_555 1_555
H63 C58 1_555 1_555
H64 C58 1_555 1_555
H65 C58 1_555 1_555
C59 C51 1_555 1_555
H66 C59 1_555 1_555
H67 C59 1_555 1_555
H68 C59 1_555 1_555
C60 C51 1_555 1_555
H69 C60 1_555 1_555
H70 C60 1_555 1_555
H71 C60 1_555 1_555
C6 C7 1_555 1_555
C10 C11 1_555 1_555
C11 C12 1_555 1_555
C15 C16 1_555 1_555
C20 C21 1_555 1_555
C36 C37 1_555 1_555
C39 C40 1_555 1_555
C42 C43 1_555 1_555
C44 C45 1_555 1_555
C47 C51 1_555 1_555
C49 C50 1_555 1_555

#END
