
#######################################################################
#
#                 Cambridge Crystallographic Data Centre
#                                CCDC 
#
#######################################################################
#
# If this CIF has been generated from an entry in the Cambridge 
# Structural Database, then it will include bibliographic, chemical, 
# crystal, experimental, refinement or atomic coordinate data resulting 
# from the CCDC's data processing and validation procedures.
#
#######################################################################

data_LIJRAA
_chemical_compound_source        'Xylopia vielana'
_chemical_name_common            'vielopside A'
_chemical_formula_moiety         'C30 H36 O6'
_chemical_name_systematic        
10a-hydroxy-1,6,9,13,13,15-hexamethyl-4-(propan-2-ylidene)-1,2,4,5,7a,8,9,10,10a,15-decahydro-13H-8,15-methanocyclohepta[3',3a']indeno[5',6':4,5]cyclohepta[1,2-c][1,2]dioxole-3,7,16-trione
_symmetry_cell_setting           trigonal
_symmetry_space_group_name_H-M   'P 32'
_symmetry_Int_Tables_number      145
_space_group_name_Hall           'P 32'
loop_
_symmetry_equiv_pos_site_id
_symmetry_equiv_pos_as_xyz
1 x,y,z
2 -y,x-y,2/3+z
3 -x+y,-x,1/3+z
_cell_length_a                   13.8162(6)
_cell_length_b                   13.8162(6)
_cell_length_c                   12.4344(4)
_cell_angle_alpha                90
_cell_angle_beta                 90
_cell_angle_gamma                120
_cell_volume                     2055.57
_exptl_crystal_colour            colorless
_exptl_crystal_description       block
_cell_formula_units_Z            3
loop_
_atom_site_label
_atom_site_type_symbol
_atom_site_fract_x
_atom_site_fract_y
_atom_site_fract_z
O1 O 0.4421(3) 1.2769(3) 0.1643(3)
H1 H 0.227(4) 1.121(4) 0.172(5)
O2 O 0.3983(3) 1.2671(3) 0.2741(3)
O3 O 0.2186(3) 1.1187(3) 0.2368(3)
O4 O 0.2332(3) 0.6925(3) 0.4604(3)
O5 O -0.0880(3) 0.7961(3) 0.3452(2)
O6 O -0.0881(4) 0.6286(4) -0.0532(4)
C1 C 0.4756(5) 1.1627(5) 0.0445(4)
H2 H 0.524193 1.230594 0.003531
H3 H 0.399246 1.128414 0.016260
H4 H 0.503044 1.109877 0.037775
C2 C 0.5898(5) 1.2377(5) 0.2142(5)
H5 H 0.645379 1.303144 0.174286
H6 H 0.611184 1.179891 0.213893
H7 H 0.586122 1.259173 0.288561
C3 C 0.4760(4) 1.1923(4) 0.1614(4)
C4 C 0.3845(4) 1.1001(4) 0.2288(3)
C5 C 0.3217(4) 1.1492(4) 0.2852(4)
C6 C 0.3045(4) 1.1259(4) 0.4044(4)
H8 H 0.293408 1.184366 0.438521
H9 H 0.373437 1.131895 0.435088
C7 C 0.2056(4) 1.0114(4) 0.4337(4)
H10 H 0.136786 1.008116 0.404034
C8 C 0.2115(3) 0.9134(4) 0.3877(3)
C9 C 0.2771(4) 0.9089(4) 0.3081(4)
C10 C 0.3644(4) 0.9963(4) 0.2417(4)
H11 H 0.411765 0.976747 0.203705
C11 C 0.1936(5) 1.0040(5) 0.5565(4)
H12 H 0.256266 0.999602 0.588053
H13 H 0.123184 0.937131 0.576040
H14 H 0.193645 1.070569 0.583770
C12 C 0.1308(4) 0.7939(4) 0.4233(3)
H15 H 0.099519 0.784743 0.497495
C13 C 0.0442(4) 0.7290(4) 0.3317(3)
H16 H -0.009770 0.650245 0.353120
C14 C 0.1185(4) 0.7339(3) 0.2350(3)
C15 C 0.2405(4) 0.7865(4) 0.2873(4)
C16 C 0.2065(4) 0.7456(4) 0.4039(4)
C17 C 0.3245(4) 0.7601(4) 0.2382(4)
H17 H 0.334621 0.781049 0.162046
H18 H 0.297357 0.679873 0.244909
H19 H 0.396091 0.802244 0.275857
C18 C -0.0150(4) 0.7891(4) 0.2944(3)
C19 C 0.0285(4) 0.8389(3) 0.1900(3)
C20 C 0.1058(4) 0.8125(3) 0.1581(3)
C21 C -0.0137(4) 0.9065(4) 0.1342(4)
H20 H 0.003877 0.972527 0.177545
H21 H -0.094871 0.861052 0.124877
H22 H 0.022132 0.930111 0.063634
C22 C 0.1674(4) 0.8436(4) 0.0535(4)
H23 H 0.242563 0.852664 0.064240
H24 H 0.177300 0.916074 0.028841
C23 C 0.1050(4) 0.7547(4) -0.0331(4)
C24 C -0.0051(5) 0.6573(4) 0.0003(4)
C25 C -0.0170(4) 0.5888(4) 0.1017(4)
H25 H -0.076864 0.587901 0.146167
H26 H -0.043960 0.510863 0.078540
C26 C 0.0835(4) 0.6229(4) 0.1745(4)
H27 H 0.147486 0.636697 0.126920
C27 C 0.0619(5) 0.5258(4) 0.2483(4)
H28 H 0.126332 0.548651 0.295927
H29 H 0.050665 0.461868 0.204797
H30 H -0.004988 0.504630 0.291658
C28 C 0.1457(5) 0.7670(5) -0.1326(4)
C29 C 0.2561(6) 0.8647(8) -0.1626(5)
H31 H 0.253699 0.885370 -0.237544
H32 H 0.314575 0.844844 -0.154385
H33 H 0.272446 0.928023 -0.115596
C30 C 0.0894(7) 0.6840(7) -0.2221(5)
H34 H 0.068050 0.718493 -0.279347
H35 H 0.022431 0.618284 -0.194253
H36 H 0.140982 0.661271 -0.251024
loop_
_geom_bond_atom_site_label_1
_geom_bond_atom_site_label_2
_geom_bond_site_symmetry_1
_geom_bond_site_symmetry_2
O1 O2 1_555 1_555
H1 O3 1_555 1_555
O2 C5 1_555 1_555
O3 C5 1_555 1_555
O4 C16 1_555 1_555
O5 C18 1_555 1_555
O6 C24 1_555 1_555
C1 H2 1_555 1_555
H3 C1 1_555 1_555
H4 C1 1_555 1_555
C2 H5 1_555 1_555
H6 C2 1_555 1_555
H7 C2 1_555 1_555
C3 O1 1_555 1_555
C4 C3 1_555 1_555
C5 C4 1_555 1_555
C6 C5 1_555 1_555
H8 C6 1_555 1_555
H9 C6 1_555 1_555
C7 C6 1_555 1_555
H10 C7 1_555 1_555
C8 C7 1_555 1_555
C9 C8 1_555 1_555
C10 C4 1_555 1_555
H11 C10 1_555 1_555
C11 C7 1_555 1_555
H12 C11 1_555 1_555
H13 C11 1_555 1_555
H14 C11 1_555 1_555
C12 C8 1_555 1_555
H15 C12 1_555 1_555
C13 C12 1_555 1_555
H16 C13 1_555 1_555
C14 C13 1_555 1_555
C15 C9 1_555 1_555
C16 C12 1_555 1_555
C17 C15 1_555 1_555
H17 C17 1_555 1_555
H18 C17 1_555 1_555
H19 C17 1_555 1_555
C18 C13 1_555 1_555
C19 C18 1_555 1_555
C20 C14 1_555 1_555
C21 C19 1_555 1_555
H20 C21 1_555 1_555
H21 C21 1_555 1_555
H22 C21 1_555 1_555
C22 C20 1_555 1_555
H23 C22 1_555 1_555
H24 C22 1_555 1_555
C23 C22 1_555 1_555
C24 C23 1_555 1_555
C25 C24 1_555 1_555
H25 C25 1_555 1_555
H26 C25 1_555 1_555
C26 C14 1_555 1_555
H27 C26 1_555 1_555
C27 C26 1_555 1_555
H28 C27 1_555 1_555
H29 C27 1_555 1_555
H30 C27 1_555 1_555
C28 C23 1_555 1_555
C29 C28 1_555 1_555
H31 C29 1_555 1_555
H32 C29 1_555 1_555
H33 C29 1_555 1_555
C30 C28 1_555 1_555
H34 C30 1_555 1_555
H35 C30 1_555 1_555
H36 C30 1_555 1_555
C1 C3 1_555 1_555
C2 C3 1_555 1_555
C9 C10 1_555 1_555
C14 C15 1_555 1_555
C15 C16 1_555 1_555
C19 C20 1_555 1_555
C25 C26 1_555 1_555

#END
