
#######################################################################
#
#                 Cambridge Crystallographic Data Centre
#                                CCDC 
#
#######################################################################
#
# If this CIF has been generated from an entry in the Cambridge 
# Structural Database, then it will include bibliographic, chemical, 
# crystal, experimental, refinement or atomic coordinate data resulting 
# from the CCDC's data processing and validation procedures.
#
#######################################################################

data_LIJRIG
_chemical_formula_moiety         'C19 H17 N1 O2'
_chemical_name_systematic        
4-((E)-2-(3,4-dimethoxyphenyl)ethenyl)quinoline
_symmetry_cell_setting           monoclinic
_symmetry_space_group_name_H-M   'P 21/c'
_symmetry_Int_Tables_number      14
_space_group_name_Hall           '-P 2ybc'
loop_
_symmetry_equiv_pos_site_id
_symmetry_equiv_pos_as_xyz
1 x,y,z
2 -x,1/2+y,1/2-z
3 -x,-y,-z
4 x,1/2-y,1/2+z
_cell_length_a                   10.7020(7)
_cell_length_b                   10.9624(7)
_cell_length_c                   12.5151(8)
_cell_angle_alpha                90
_cell_angle_beta                 98.443(3)
_cell_angle_gamma                90
_cell_volume                     1452.35
_exptl_crystal_colour            yellowish
_exptl_crystal_description       block
_cell_formula_units_Z            4
loop_
_atom_site_label
_atom_site_type_symbol
_atom_site_fract_x
_atom_site_fract_y
_atom_site_fract_z
O1 O 1.08637(15) 0.57528(14) 0.09928(11)
O2 O 0.99231(12) 0.45626(12) 0.24719(10)
N1 N 1.58954(17) 0.60793(15) 0.90747(13)
C1 C 1.4831(2) 0.55581(18) 0.86378(18)
C2 C 1.60886(16) 0.68775(15) 0.72685(14)
C3 C 1.68007(17) 0.76150(15) 0.66472(14)
C4 C 1.79072(17) 0.81514(16) 0.71041(14)
C5 C 1.83791(19) 0.79476(17) 0.82050(15)
C6 C 1.77044(19) 0.72664(17) 0.88325(15)
C7 C 1.65352(17) 0.67348(16) 0.83903(14)
C8 C 1.4320(10) 0.5630(9) 0.7632(7)
C9 C 1.4921(8) 0.6312(7) 0.6907(5)
C10 C 1.4371(3) 0.6395(2) 0.5761(2)
H1 H 1.471(3) 0.697(3) 0.532(2)
C11 C 1.3444(3) 0.5670(2) 0.5280(2)
H2 H 1.311(3) 0.505(3) 0.570(3)
C12 C 1.2852(7) 0.5708(6) 0.4147(5)
C18 C 1.33802(17) 0.62903(16) 0.32939(15)
C19 C 1.27292(19) 0.63458(17) 0.22534(15)
C20 C 1.15742(18) 0.57625(16) 0.19904(14)
C21 C 1.10718(16) 0.51074(15) 0.27971(14)
C22 C 1.17374(17) 0.50406(16) 0.38230(14)
C23 C 1.1439(3) 0.6220(2) 0.01134(17)
C24 C 0.94074(19) 0.38567(19) 0.32534(18)
H5 H 1.437(2) 0.5129(19) 0.9106(17)
H6 H 1.358(3) 0.522(2) 0.731(2)
H7 H 1.651(2) 0.7777(19) 0.5905(17)
H8 H 1.8371(19) 0.8658(18) 0.6681(16)
H9 H 1.917(2) 0.827(2) 0.8502(17)
H10 H 1.802(2) 0.7106(19) 0.9566(17)
H11 H 1.420(2) 0.665(2) 0.3423(16)
H12 H 1.306(2) 0.680(2) 0.1701(17)
H13 H 1.142(2) 0.461(2) 0.4361(17)
H14 H 1.083(2) 0.603(2) -0.0518(18)
H15 H 1.158(2) 0.707(2) 0.0188(17)
H16 H 1.230(3) 0.581(3) 0.008(2)
H17 H 0.928(2) 0.436(2) 0.3891(19)
H18 H 0.859(3) 0.352(2) 0.2869(19)
H19 H 0.997(2) 0.310(2) 0.3490(18)
C13? C 1.442(2) 0.552(2) 0.7349(13)
C14? C 1.5044(14) 0.6090(12) 0.6658(11)
C15? C 1.4974(5) 0.5873(4) 0.5452(4)
H3? H 1.4941 0.6667 0.5055
C16? C 1.3936(5) 0.4987(4) 0.4896(4)
H4? H 1.3483 0.4575 0.5440
C17? C 1.3023(14) 0.5464(12) 0.3961(11)
loop_
_geom_bond_atom_site_label_1
_geom_bond_atom_site_label_2
_geom_bond_site_symmetry_1
_geom_bond_site_symmetry_2
O1 C20 1_555 1_555
O2 C21 1_555 1_555
N1 C1 1_555 1_555
C1 C8 1_555 1_555
C2 C3 1_555 1_555
C3 C4 1_555 1_555
C4 C5 1_555 1_555
C5 C6 1_555 1_555
C6 C7 1_555 1_555
C7 N1 1_555 1_555
C8 C9 1_555 1_555
C9 C2 1_555 1_555
C10 C9 1_555 1_555
H1 C10 1_555 1_555
C11 C10 1_555 1_555
H2 C11 1_555 1_555
C12 C11 1_555 1_555
C18 C12 1_555 1_555
C19 C18 1_555 1_555
C20 C19 1_555 1_555
C21 C20 1_555 1_555
C22 C12 1_555 1_555
C23 O1 1_555 1_555
C24 O2 1_555 1_555
H5 C1 1_555 1_555
H6 C8 1_555 1_555
H7 C3 1_555 1_555
H8 C4 1_555 1_555
H9 C5 1_555 1_555
H10 C6 1_555 1_555
H11 C18 1_555 1_555
H12 C19 1_555 1_555
H13 C22 1_555 1_555
H14 C23 1_555 1_555
H15 C23 1_555 1_555
H16 C23 1_555 1_555
H17 C24 1_555 1_555
H18 C24 1_555 1_555
H19 C24 1_555 1_555
C2 C7 1_555 1_555
C21 C22 1_555 1_555

#END
