
#######################################################################
#
#                 Cambridge Crystallographic Data Centre
#                                CCDC 
#
#######################################################################
#
# If this CIF has been generated from an entry in the Cambridge 
# Structural Database, then it will include bibliographic, chemical, 
# crystal, experimental, refinement or atomic coordinate data resulting 
# from the CCDC's data processing and validation procedures.
#
#######################################################################

data_LIJSOP
_chemical_formula_moiety         'C17 H19 N3 O4'
_chemical_name_systematic        
5-hydroxy-2,6-dioxo-N-(4-phenylcyclohexyl)-1,2,3,6-tetrahydropyrimidine-4-carboxamide
_symmetry_cell_setting           monoclinic
_symmetry_space_group_name_H-M   'P 21/n'
_symmetry_Int_Tables_number      14
_space_group_name_Hall           '-P 2yn'
loop_
_symmetry_equiv_pos_site_id
_symmetry_equiv_pos_as_xyz
1 x,y,z
2 1/2-x,1/2+y,1/2-z
3 -x,-y,-z
4 1/2+x,1/2-y,1/2+z
_cell_length_a                   14.7956(3)
_cell_length_b                   6.75940(10)
_cell_length_c                   17.9515(4)
_cell_angle_alpha                90
_cell_angle_beta                 114.3290(10)
_cell_angle_gamma                90
_cell_volume                     1635.88
_exptl_crystal_colour            colorless
_exptl_crystal_description       blade
_cell_formula_units_Z            4
_exptl_crystal_recrystallization_method 
'Re-crystallisation from solvent: aqueous acetonitrile/0.1% TFA'
loop_
_atom_site_label
_atom_site_type_symbol
_atom_site_fract_x
_atom_site_fract_y
_atom_site_fract_z
O1 O 0.79285(8) 0.12802(13) 0.16827(6)
O2 O 0.95319(9) 0.29480(14) 0.44723(6)
O3 O 0.92293(9) 0.90021(14) 0.32982(6)
O4 O 0.83410(9) 0.74290(13) 0.17529(6)
H1 H 0.8324 0.8585 0.1885
N1 N 0.88348(9) 0.31828(15) 0.30885(6)
H2 H 0.8752 0.1922 0.3043
N2 N 0.94424(9) 0.59573(15) 0.38774(7)
H3 H 0.9777 0.6472 0.4350
N3 N 0.76694(9) 0.40307(16) 0.09112(6)
H4 H 0.7753 0.5290 0.0912
C1 C 0.85025(10) 0.42935(19) 0.23767(8)
C2 C 0.80105(10) 0.30849(19) 0.16195(8)
C3 C 0.86350(10) 0.62646(19) 0.24256(8)
C4 C 0.91181(11) 0.72122(19) 0.32190(8)
C5 C 0.71554(11) 0.3022(2) 0.01260(8)
H5 H 0.6709 0.2026 0.0187
C6 C 0.92806(10) 0.39496(19) 0.38509(8)
C7 C 0.71545(12) 0.5935(2) -0.07726(9)
H6 H 0.7552 0.6768 -0.0314
H7 H 0.6719 0.6784 -0.1208
C8 C 0.65346(12) 0.4531(2) -0.05117(9)
H8 H 0.6074 0.3832 -0.0989
H9 H 0.6148 0.5298 -0.0290
C9 C 0.84223(12) 0.6038(2) -0.14094(9)
C10 C 0.78932(13) 0.1984(2) -0.01295(9)
H10 H 0.7537 0.1104 -0.0583
H11 H 0.8336 0.1186 0.0322
C11 C 0.78333(12) 0.4794(2) -0.10686(9)
H12 H 0.7405 0.3936 -0.1514
C12 C 0.85023(13) 0.3428(2) -0.03821(10)
H13 H 0.8936 0.2697 -0.0566
H14 H 0.8913 0.4218 0.0086
C13 C 0.88352(15) 0.7840(3) -0.10870(12)
H15 H 0.8746 0.8348 -0.0641
C14 C 0.95284(14) 0.8181(3) -0.20723(13)
H16 H 0.9893 0.8900 -0.2296
C15 C 0.85849(14) 0.5341(3) -0.20708(10)
H17 H 0.8315 0.4131 -0.2303
C16 C 0.91363(16) 0.6399(4) -0.23913(12)
H18 H 0.9241 0.5888 -0.2830
C17 C 0.93832(15) 0.8908(3) -0.14203(14)
H19 H 0.9652 1.0126 -0.1198
loop_
_geom_bond_atom_site_label_1
_geom_bond_atom_site_label_2
_geom_bond_site_symmetry_1
_geom_bond_site_symmetry_2
O1 C2 1_555 1_555
O2 C6 1_555 1_555
O3 C4 1_555 1_555
O4 H1 1_555 1_555
N1 H2 1_555 1_555
N2 H3 1_555 1_555
N3 H4 1_555 1_555
C1 N1 1_555 1_555
C2 N3 1_555 1_555
C3 O4 1_555 1_555
C4 N2 1_555 1_555
C5 N3 1_555 1_555
H5 C5 1_555 1_555
C6 N1 1_555 1_555
C7 H6 1_555 1_555
H7 C7 1_555 1_555
C8 C5 1_555 1_555
H8 C8 1_555 1_555
H9 C8 1_555 1_555
C9 C11 1_555 1_555
C10 C5 1_555 1_555
H10 C10 1_555 1_555
H11 C10 1_555 1_555
C11 C7 1_555 1_555
H12 C11 1_555 1_555
C12 C10 1_555 1_555
H13 C12 1_555 1_555
H14 C12 1_555 1_555
C13 C9 1_555 1_555
H15 C13 1_555 1_555
C14 H16 1_555 1_555
C15 C9 1_555 1_555
H17 C15 1_555 1_555
C16 C14 1_555 1_555
H18 C16 1_555 1_555
C17 C13 1_555 1_555
H19 C17 1_555 1_555
N2 C6 1_555 1_555
C1 C2 1_555 1_555
C1 C3 1_555 1_555
C3 C4 1_555 1_555
C7 C8 1_555 1_555
C11 C12 1_555 1_555
C14 C17 1_555 1_555
C15 C16 1_555 1_555

#END
