
#######################################################################
#
#                 Cambridge Crystallographic Data Centre
#                                CCDC 
#
#######################################################################
#
# If this CIF has been generated from an entry in the Cambridge 
# Structural Database, then it will include bibliographic, chemical, 
# crystal, experimental, refinement or atomic coordinate data resulting 
# from the CCDC's data processing and validation procedures.
#
#######################################################################

data_LIJSUV
_chemical_formula_moiety         'C15 H23 N1 O1 S1'
_chemical_name_systematic        
2-methyl-N-(3-phenylcyclopentyl)propane-2-sulfinamide
_symmetry_cell_setting           monoclinic
_symmetry_space_group_name_H-M   'P 21'
_symmetry_Int_Tables_number      4
_space_group_name_Hall           'P 2yb'
loop_
_symmetry_equiv_pos_site_id
_symmetry_equiv_pos_as_xyz
1 x,y,z
2 -x,1/2+y,-z
_cell_length_a                   10.4440(13)
_cell_length_b                   5.8245(7)
_cell_length_c                   12.8140(15)
_cell_angle_alpha                90
_cell_angle_beta                 101.024(8)
_cell_angle_gamma                90
_cell_volume                     765.106
_exptl_crystal_colour            colorless
_exptl_crystal_description       plate
_cell_formula_units_Z            2
_exptl_crystal_recrystallization_method 
'Re-crystallisation from solvent: aqueous acetonitrile'
loop_
_atom_site_label
_atom_site_type_symbol
_atom_site_fract_x
_atom_site_fract_y
_atom_site_fract_z
S1 S 0.56029(7) 0.12266(11) 0.67478(5)
N1 N 0.6474(3) 0.3183(5) 0.6253(2)
H1 H 0.6010 0.3735 0.5637
O1 O 0.4795(3) -0.0129(5) 0.5884(2)
C1 C 0.4454(3) 0.3112(6) 0.7261(2)
C2 C 1.1246(3) 0.6495(8) 0.8541(3)
H2 H 1.1121 0.7686 0.8048
C3 C 1.0400(3) 0.4593(7) 0.8401(3)
C4 C 1.2262(3) 0.6600(8) 0.9408(3)
H3 H 1.2807 0.7876 0.9504
C5 C 1.0633(3) 0.2885(7) 0.9156(3)
H4 H 1.0080 0.1621 0.9094
C6 C 0.3621(4) 0.1452(10) 0.7760(3)
H5 H 0.2963 0.2293 0.8029
H6 H 0.4161 0.0641 0.8332
H7 H 0.3212 0.0375 0.7233
C7 C 0.3653(4) 0.4500(8) 0.6375(3)
H8 H 0.3219 0.3484 0.5831
H9 H 0.4214 0.5516 0.6080
H10 H 0.3015 0.5382 0.6651
C8 C 0.7802(3) 0.2447(8) 0.6135(3)
H11 H 0.7741 0.1016 0.5726
C9 C 1.1669(3) 0.3004(8) 1.0001(3)
H12 H 1.1815 0.1809 1.0491
C10 C 0.9249(3) 0.4469(7) 0.7494(3)
H13 H 0.8550 0.5422 0.7676
C11 C 1.2469(4) 0.4830(9) 1.0124(3)
H14 H 1.3165 0.4893 1.0697
C12 C 0.8693(4) 0.2102(7) 0.7190(3)
H15 H 0.9382 0.1022 0.7129
H16 H 0.8213 0.1533 0.7714
C13 C 0.8444(4) 0.4254(12) 0.5579(3)
H17 H 0.7818 0.5418 0.5278
H18 H 0.8814 0.3579 0.5011
C14 C 0.5253(4) 0.4709(8) 0.8092(3)
H19 H 0.5662 0.5874 0.7738
H20 H 0.5910 0.3834 0.8550
H21 H 0.4687 0.5417 0.8506
C15 C 0.9539(5) 0.5322(11) 0.6441(3)
H22 H 1.0393 0.4809 0.6345
H23 H 0.9510 0.6985 0.6407
loop_
_geom_bond_atom_site_label_1
_geom_bond_atom_site_label_2
_geom_bond_site_symmetry_1
_geom_bond_site_symmetry_2
S1 N1 1_555 1_555
N1 H1 1_555 1_555
O1 S1 1_555 1_555
C1 S1 1_555 1_555
C2 H2 1_555 1_555
C3 C2 1_555 1_555
C4 C2 1_555 1_555
H3 C4 1_555 1_555
C5 C3 1_555 1_555
H4 C5 1_555 1_555
C6 C1 1_555 1_555
H5 C6 1_555 1_555
H6 C6 1_555 1_555
H7 C6 1_555 1_555
C7 C1 1_555 1_555
H8 C7 1_555 1_555
H9 C7 1_555 1_555
H10 C7 1_555 1_555
C8 N1 1_555 1_555
H11 C8 1_555 1_555
C9 C5 1_555 1_555
H12 C9 1_555 1_555
C10 C3 1_555 1_555
H13 C10 1_555 1_555
C11 C4 1_555 1_555
H14 C11 1_555 1_555
C12 C8 1_555 1_555
H15 C12 1_555 1_555
H16 C12 1_555 1_555
C13 C8 1_555 1_555
H17 C13 1_555 1_555
H18 C13 1_555 1_555
C14 C1 1_555 1_555
H19 C14 1_555 1_555
H20 C14 1_555 1_555
H21 C14 1_555 1_555
C15 C10 1_555 1_555
H22 C15 1_555 1_555
H23 C15 1_555 1_555
C9 C11 1_555 1_555
C10 C12 1_555 1_555
C13 C15 1_555 1_555

#END
