
#######################################################################
#
#                 Cambridge Crystallographic Data Centre
#                                CCDC 
#
#######################################################################
#
# If this CIF has been generated from an entry in the Cambridge 
# Structural Database, then it will include bibliographic, chemical, 
# crystal, experimental, refinement or atomic coordinate data resulting 
# from the CCDC's data processing and validation procedures.
#
#######################################################################

data_LIJVUY
_chemical_formula_moiety         'C12 H14 N2 O4 S1,C1 H2 Cl2'
_chemical_name_systematic        
'5-methyl-1-((2R,3aS,7aR)-5-oxohexahydro-2H-thiopyrano[3,2-b]furan-2-yl)pyrimidine-2,4(1H,3H)-dione dichloromethane solvate'
_symmetry_cell_setting           orthorhombic
_symmetry_space_group_name_H-M   'P 21 21 21'
_symmetry_Int_Tables_number      19
_space_group_name_Hall           'P 2ac 2ab'
loop_
_symmetry_equiv_pos_site_id
_symmetry_equiv_pos_as_xyz
1 x,y,z
2 1/2-x,-y,1/2+z
3 -x,1/2+y,1/2-z
4 1/2+x,1/2-y,-z
_cell_length_a                   5.5510(3)
_cell_length_b                   10.2724(5)
_cell_length_c                   27.7122(13)
_cell_angle_alpha                90
_cell_angle_beta                 90
_cell_angle_gamma                90
_cell_volume                     1580.21
_exptl_crystal_colour            colorless
_exptl_crystal_description       rod
_cell_formula_units_Z            4
loop_
_atom_site_label
_atom_site_type_symbol
_atom_site_fract_x
_atom_site_fract_y
_atom_site_fract_z
S1 S 0.08221(12) 0.20450(7) 0.28842(2)
O1 O 0.6562(3) 0.82194(17) 0.47758(6)
O2 O 0.9509(4) 0.4328(2) 0.42913(7)
O3 O 0.6194(3) 0.44934(19) 0.30962(6)
O4 O -0.0577(5) 0.1781(2) 0.20107(9)
N1 N 0.7979(4) 0.6288(2) 0.45140(8)
H1 H 0.915397 0.636965 0.472515
N2 N 0.6133(4) 0.5097(2) 0.39073(8)
C1 C 0.6334(5) 0.7292(2) 0.44981(9)
C2 C 0.4440(5) 0.7151(2) 0.41416(9)
C3 C 0.4427(5) 0.6067(2) 0.38704(9)
H2 H 0.317288 0.596357 0.364028
C4 C 0.8002(5) 0.5172(3) 0.42382(9)
C5 C 0.2646(5) 0.8225(3) 0.40874(10)
H3 H 0.348233 0.903135 0.399943
H4 H 0.179041 0.835131 0.439324
H5 H 0.148805 0.799861 0.383402
C6 C 0.6061(5) 0.3991(2) 0.35782(9)
H6 H 0.749342 0.342458 0.36392
C7 C 0.3748(5) 0.3153(2) 0.36092(9)
H7 H 0.413782 0.222243 0.365918
H8 H 0.26811 0.345386 0.387295
C8 C 0.2602(4) 0.3378(2) 0.31175(9)
H9 H 0.15884 0.41827 0.312967
C9 C 0.4785(4) 0.3628(2) 0.28057(9)
H10 H 0.568809 0.279431 0.275996
C10 C 0.4162(6) 0.4187(3) 0.23206(10)
H11 H 0.564312 0.447767 0.215327
H12 H 0.30836 0.494754 0.235975
C11 C 0.2902(7) 0.3128(4) 0.20249(11)
H13 H 0.224334 0.354622 0.173126
H14 H 0.415128 0.250468 0.191752
C12 C 0.0890(6) 0.2349(3) 0.22531(10)
C13 C 0.8111(8) 1.1125(3) 0.45212(12)
H15 H 0.713477 1.047711 0.469942
H16 H 0.728943 1.197769 0.454559
Cl1 Cl 0.82968(18) 1.06673(9) 0.39156(3)
Cl2 Cl 1.0971(3) 1.12358(10) 0.47854(4)
loop_
_geom_bond_atom_site_label_1
_geom_bond_atom_site_label_2
_geom_bond_site_symmetry_1
_geom_bond_site_symmetry_2
S1 C8 1_555 1_555
O1 C1 1_555 1_555
O2 C4 1_555 1_555
O3 C6 1_555 1_555
O4 C12 1_555 1_555
N1 H1 1_555 1_555
N2 C3 1_555 1_555
C1 N1 1_555 1_555
C2 C1 1_555 1_555
C3 C2 1_555 1_555
H2 C3 1_555 1_555
C4 N1 1_555 1_555
C5 C2 1_555 1_555
H3 C5 1_555 1_555
H4 C5 1_555 1_555
H5 C5 1_555 1_555
C6 N2 1_555 1_555
H6 C6 1_555 1_555
C7 C6 1_555 1_555
H7 C7 1_555 1_555
H8 C7 1_555 1_555
C8 C7 1_555 1_555
H9 C8 1_555 1_555
C9 O3 1_555 1_555
H10 C9 1_555 1_555
C10 C9 1_555 1_555
H11 C10 1_555 1_555
H12 C10 1_555 1_555
C11 C10 1_555 1_555
H13 C11 1_555 1_555
H14 C11 1_555 1_555
C12 S1 1_555 1_555
C13 H15 1_555 1_555
H16 C13 1_555 1_555
Cl1 C13 1_555 1_555
Cl2 C13 1_555 1_555
N2 C4 1_555 1_555
C8 C9 1_555 1_555
C11 C12 1_555 1_555

#END
