
#######################################################################
#
#                 Cambridge Crystallographic Data Centre
#                                CCDC 
#
#######################################################################
#
# If this CIF has been generated from an entry in the Cambridge 
# Structural Database, then it will include bibliographic, chemical, 
# crystal, experimental, refinement or atomic coordinate data resulting 
# from the CCDC's data processing and validation procedures.
#
#######################################################################

data_LIJYIN
_chemical_formula_moiety         'C20 H34 N2 O2 S2'
_chemical_name_systematic        1,4-bis((Cyclohexylthio)acetyl)piperazine
_symmetry_cell_setting           monoclinic
_symmetry_space_group_name_H-M   'P 21/c'
_symmetry_Int_Tables_number      14
_space_group_name_Hall           '-P 2ybc'
loop_
_symmetry_equiv_pos_site_id
_symmetry_equiv_pos_as_xyz
1 x,y,z
2 -x,1/2+y,1/2-z
3 -x,-y,-z
4 x,1/2-y,1/2+z
_cell_length_a                   8.8941(11)
_cell_length_b                   11.4256(13)
_cell_length_c                   10.7229(13)
_cell_angle_alpha                90
_cell_angle_beta                 105.343(2)
_cell_angle_gamma                90
_cell_volume                     1050.83
_exptl_crystal_colour            colorless
_exptl_crystal_description       needle
_cell_formula_units_Z            2
loop_
_atom_site_label
_atom_site_type_symbol
_atom_site_fract_x
_atom_site_fract_y
_atom_site_fract_z
S1 S 0.78920(13) 0.72642(9) 1.10959(10)
O1 O 1.0792(4) 0.7202(3) 0.9314(3)
N1 N 1.0714(4) 0.8907(3) 1.0372(3)
C1 C 1.0241(5) 0.9636(3) 1.1330(4)
H1 H 1.1126 1.0132 1.1794
H2 H 0.9931 0.9132 1.1971
C2 C 1.1120(5) 0.9596(4) 0.9356(4)
H3 H 1.1399 0.9063 0.8724
H4 H 1.2038 1.0092 0.9743
C3 C 1.0519(5) 0.7740(4) 1.0226(4)
C4 C 0.9960(5) 0.7070(3) 1.1237(4)
H5 H 1.0561 0.7331 1.2106
H6 H 1.0174 0.6227 1.1158
C5 C 0.6987(5) 0.6790(4) 0.9441(4)
H7 H 0.7423 0.7267 0.8836
C6 C 0.5248(5) 0.7043(4) 0.9169(4)
H8 H 0.5088 0.7893 0.9256
H9 H 0.4824 0.6632 0.9814
C7 C 0.4374(6) 0.6646(5) 0.7814(5)
H10 H 0.3241 0.6765 0.7691
H11 H 0.4703 0.7130 0.7167
C8 C 0.4683(5) 0.5367(4) 0.7598(5)
H12 H 0.4225 0.4877 0.8165
H13 H 0.4170 0.5156 0.6690
C9 C 0.6411(5) 0.5116(4) 0.7882(4)
H14 H 0.6842 0.5527 0.7241
H15 H 0.6569 0.4266 0.7793
C10 C 0.7285(5) 0.5507(4) 0.9238(4)
H16 H 0.6944 0.5031 0.9884
H17 H 0.8417 0.5379 0.9367
S1B S 1.21080(13) 1.27358(9) 0.89041(10)
O1B O 0.9208(4) 1.2798(3) 1.0686(3)
N1B N 0.9286(4) 1.1093(3) 0.9628(3)
C1B C 0.9759(5) 1.0364(3) 0.8670(4)
H1B H 0.8874 0.9868 0.8206
H2B H 1.0069 1.0868 0.8029
C2B C 0.8880(5) 1.0404(4) 1.0644(4)
H3B H 0.8601 1.0937 1.1276
H4B H 0.7962 0.9908 1.0257
C3B C 0.9481(5) 1.2260(4) 0.9774(4)
C4B C 1.0040(5) 1.2930(3) 0.8763(4)
H5B H 0.9439 1.2669 0.7894
H6B H 0.9826 1.3773 0.8842
C5B C 1.3013(5) 1.3210(4) 1.0559(4)
H7B H 1.2577 1.2733 1.1164
C6B C 1.4752(5) 1.2957(4) 1.0831(4)
H8B H 1.4912 1.2107 1.0744
H9B H 1.5176 1.3368 1.0186
C7B C 1.5626(6) 1.3354(5) 1.2186(5)
H10B H 1.6759 1.3235 1.2309
H11B H 1.5297 1.2870 1.2833
C8B C 1.5317(5) 1.4633(4) 1.2402(5)
H12B H 1.5775 1.5123 1.1835
H13B H 1.5830 1.4844 1.3310
C9B C 1.3589(5) 1.4884(4) 1.2118(4)
H14B H 1.3158 1.4473 1.2759
H15B H 1.3431 1.5734 1.2207
C10B C 1.2715(5) 1.4493(4) 1.0762(4)
H16B H 1.3056 1.4969 1.0116
H17B H 1.1583 1.4621 1.0633
loop_
_geom_bond_atom_site_label_1
_geom_bond_atom_site_label_2
_geom_bond_site_symmetry_1
_geom_bond_site_symmetry_2
S1 C4 1_555 1_555
O1 C3 1_555 1_555
N1 C1 1_555 1_555
C1 H1 1_555 1_555
H2 C1 1_555 1_555
C2 N1 1_555 1_555
H3 C2 1_555 1_555
H4 C2 1_555 1_555
C3 N1 1_555 1_555
C4 C3 1_555 1_555
H5 C4 1_555 1_555
H6 C4 1_555 1_555
C5 S1 1_555 1_555
H7 C5 1_555 1_555
C6 C5 1_555 1_555
H8 C6 1_555 1_555
H9 C6 1_555 1_555
C7 C6 1_555 1_555
H10 C7 1_555 1_555
H11 C7 1_555 1_555
C8 C7 1_555 1_555
H12 C8 1_555 1_555
H13 C8 1_555 1_555
C9 C8 1_555 1_555
H14 C9 1_555 1_555
H15 C9 1_555 1_555
C10 C5 1_555 1_555
H16 C10 1_555 1_555
H17 C10 1_555 1_555
S1B C4B 1_555 1_555
O1B C3B 1_555 1_555
N1B C1B 1_555 1_555
C1B C2 1_555 1_555
H1B C1B 1_555 1_555
H2B C1B 1_555 1_555
C2B C1 1_555 1_555
H3B C2B 1_555 1_555
H4B C2B 1_555 1_555
C3B N1B 1_555 1_555
C4B C3B 1_555 1_555
H5B C4B 1_555 1_555
H6B C4B 1_555 1_555
C5B S1B 1_555 1_555
H7B C5B 1_555 1_555
C6B C5B 1_555 1_555
H8B C6B 1_555 1_555
H9B C6B 1_555 1_555
C7B C6B 1_555 1_555
H10B C7B 1_555 1_555
H11B C7B 1_555 1_555
C8B C7B 1_555 1_555
H12B C8B 1_555 1_555
H13B C8B 1_555 1_555
C9B C8B 1_555 1_555
H14B C9B 1_555 1_555
H15B C9B 1_555 1_555
C10B C5B 1_555 1_555
H16B C10B 1_555 1_555
H17B C10B 1_555 1_555
C9 C10 1_555 1_555
N1B C2B 1_555 1_555
C9B C10B 1_555 1_555

#END
