
#######################################################################
#
#                 Cambridge Crystallographic Data Centre
#                                CCDC 
#
#######################################################################
#
# If this CIF has been generated from an entry in the Cambridge 
# Structural Database, then it will include bibliographic, chemical, 
# crystal, experimental, refinement or atomic coordinate data resulting 
# from the CCDC's data processing and validation procedures.
#
#######################################################################

data_LIJZAI
_chemical_formula_moiety         'C7 H8 N1 O2 1+,C2 H2 Cl2 O2,C2 H1 Cl2 O2 1-'
_chemical_name_systematic        
'4-carboxyanilinium dichloroacetate dichloroacetic acid'
_symmetry_cell_setting           monoclinic
_symmetry_space_group_name_H-M   'P 21/c'
_symmetry_Int_Tables_number      14
_space_group_name_Hall           '-P 2ybc'
loop_
_symmetry_equiv_pos_site_id
_symmetry_equiv_pos_as_xyz
1 x,y,z
2 -x,1/2+y,1/2-z
3 -x,-y,-z
4 x,1/2-y,1/2+z
_cell_length_a                   6.5687(5)
_cell_length_b                   16.8829(14)
_cell_length_c                   15.9118(11)
_cell_angle_alpha                90
_cell_angle_beta                 110.009(3)
_cell_angle_gamma                90
_cell_volume                     1658.08
_exptl_crystal_colour            colorless
_exptl_crystal_description       block
_cell_formula_units_Z            4
loop_
_atom_site_label
_atom_site_type_symbol
_atom_site_fract_x
_atom_site_fract_y
_atom_site_fract_z
Cl1 Cl 0.6776(11) 0.1982(3) 0.3137(5)
Cl2 Cl 1.0387(4) 0.28503(19) 0.3001(4)
O1 O 0.4914(5) 0.37514(16) 0.26688(19)
H1 H 0.4478 0.4136 0.2872
O2 O 0.7883(4) 0.38884(16) 0.38782(19)
C1 C 0.6862(7) 0.3569(2) 0.3194(3)
C2 C 0.7512(14) 0.2878(6) 0.2679(6)
H2 H 0.6798 0.2918 0.2030
Cl5 Cl 0.9059(4) -0.00091(18) 0.34323(11)
Cl6 Cl 1.2545(4) 0.0407(3) 0.2755(2)
O3 O 0.8982(4) 0.03359(14) 0.10199(15)
O4 O 0.6502(4) -0.00813(15) 0.15673(16)
C4 C 0.8341(6) 0.0188(2) 0.1646(2)
C5 C 0.9806(6) 0.0407(3) 0.2595(2)
H4 H 0.9491 0.0970 0.2635
N1 N 0.2612(4) 0.06284(14) 0.05280(16)
H6 H 0.2103 0.0405 -0.0010
H7 H 0.1633 0.0584 0.0798
H8 H 0.3829 0.0386 0.0855
O5 O 0.3192(4) 0.44247(14) 0.02750(16)
O6 O 0.6084(4) 0.40466(13) -0.00582(17)
H9 H 0.6209 0.4526 -0.0104
C6 C 0.4401(6) 0.3901(2) 0.0153(2)
C7 C 0.3951(5) 0.30505(18) 0.02571(19)
C8 C 0.2217(5) 0.2838(2) 0.0520(2)
H10 H 0.1348 0.3228 0.0635
C9 C 0.1773(5) 0.2043(2) 0.0613(2)
H11 H 0.0621 0.1900 0.0795
C10 C 0.3059(5) 0.14706(18) 0.04323(19)
C11 C 0.4792(5) 0.1670(2) 0.0171(2)
H12 H 0.5657 0.1278 0.0056
C12 C 0.5222(5) 0.2461(2) 0.0083(2)
H13 H 0.6383 0.2600 -0.0095
Cl3? Cl 0.6260(17) 0.2079(7) 0.2754(7)
Cl4? Cl 0.940(2) 0.3028(4) 0.2396(10)
C3? C 0.811(4) 0.2817(15) 0.3077(17)
H3? H 0.9169 0.2678 0.3660
Cl7? Cl 1.0259(11) -0.0485(4) 0.3271(3)
Cl8? Cl 1.2089(15) 0.0874(5) 0.2696(5)
H5? H 0.8964 0.0765 0.2834
loop_
_geom_bond_atom_site_label_1
_geom_bond_atom_site_label_2
_geom_bond_site_symmetry_1
_geom_bond_site_symmetry_2
Cl1 C2 1_555 1_555
Cl2 C2 1_555 1_555
O1 H1 1_555 1_555
O2 C1 1_555 1_555
C1 O1 1_555 1_555
C2 C1 1_555 1_555
H2 C2 1_555 1_555
Cl5 C5 1_555 1_555
Cl6 C5 1_555 1_555
O3 C4 1_555 1_555
O4 C4 1_555 1_555
C4 C5 1_555 1_555
C5 H4 1_555 1_555
N1 H6 1_555 1_555
H7 N1 1_555 1_555
H8 N1 1_555 1_555
O5 C6 1_555 1_555
O6 H9 1_555 1_555
C6 O6 1_555 1_555
C7 C6 1_555 1_555
C8 C7 1_555 1_555
H10 C8 1_555 1_555
C9 C8 1_555 1_555
H11 C9 1_555 1_555
C10 N1 1_555 1_555
C11 C10 1_555 1_555
H12 C11 1_555 1_555
C12 C7 1_555 1_555
H13 C12 1_555 1_555
C9 C10 1_555 1_555
C11 C12 1_555 1_555

#END
