
#######################################################################
#
#                 Cambridge Crystallographic Data Centre
#                                CCDC 
#
#######################################################################
#
# If this CIF has been generated from an entry in the Cambridge 
# Structural Database, then it will include bibliographic, chemical, 
# crystal, experimental, refinement or atomic coordinate data resulting 
# from the CCDC's data processing and validation procedures.
#
#######################################################################

data_LIKCUD
_chemical_compound_source        'Putranjiva roxburghii(Euphorbiaceae)'
_chemical_formula_moiety         'C30 H50 O1'
_chemical_name_systematic        7\b,8\b-Epoxyfriedelane
_chemical_properties_biological  'possible antitumour activity'
_symmetry_cell_setting           monoclinic
_symmetry_space_group_name_H-M   'P 21'
_symmetry_Int_Tables_number      4
_space_group_name_Hall           'P 2yb'
loop_
_symmetry_equiv_pos_site_id
_symmetry_equiv_pos_as_xyz
1 x,y,z
2 -x,1/2+y,-z
_cell_length_a                   7.804(1)
_cell_length_b                   11.754(2)
_cell_length_c                   14.443(2)
_cell_angle_alpha                90
_cell_angle_beta                 103.57(2)
_cell_angle_gamma                90
_cell_volume                     1287.85
_exptl_crystal_colour            White
_cell_formula_units_Z            2
loop_
_atom_site_label
_atom_site_type_symbol
_atom_site_fract_x
_atom_site_fract_y
_atom_site_fract_z
C1 C -0.1500(8) 0.1789 -0.1120(4)
C2 C -0.2914(7) 0.2532(8) -0.1754(4)
C3 C -0.2291(8) 0.2996(9) -0.2588(4)
C4 C -0.0544(7) 0.3623(7) -0.2263(4)
C5 C 0.0917(7) 0.2858(7) -0.1652(3)
C6 C 0.2474(7) 0.3629(7) -0.1253(4)
C7 C 0.3772(7) 0.3246(7) -0.0384(4)
C8 C 0.3394(6) 0.2381(7) 0.0284(4)
C9 C 0.1559(7) 0.1799(7) 0.0047(4)
C10 C 0.0258(6) 0.2425(6) -0.0785(4)
C11 C 0.0707(7) 0.1859(7) 0.0921(4)
C12 C 0.1933(7) 0.1769(7) 0.1896(4)
C13 C 0.3455(6) 0.2646(7) 0.2051(4)
C14 C 0.4563(7) 0.2357(5) 0.1317(4)
C15 C 0.6079(7) 0.3207(8) 0.1469(4)
C16 C 0.7293(7) 0.3111(9) 0.2445(5)
C17 C 0.6454(7) 0.3102(8) 0.3304(4)
C18 C 0.4574(7) 0.2551(7) 0.3076(4)
C19 C 0.3622(8) 0.2816(8) 0.3890(4)
C20 C 0.3784(10) 0.3993(9) 0.4398(5)
C21 C 0.5629(12) 0.4416(9) 0.4532(5)
C22 C 0.6391(9) 0.4331(8) 0.3664(6)
C23 C -0.0045(9) 0.4188(9) -0.3137(5)
C24 C 0.1451(9) 0.1893(8) -0.2250(5)
C25 C 0.1775(9) 0.0526(7) -0.0192(5)
C26 C 0.5371(8) 0.1142(8) 0.1465(5)
C27 C 0.2616(7) 0.3835(7) 0.1812(4)
C28 C 0.7674(9) 0.2402(9) 0.4100(5)
C29 C 0.2482(12) 0.4871(10) 0.3886(6)
C30 C 0.3366(11) 0.3776(12) 0.5361(5)
O1 O 0.4445(5) 0.2104(6) -0.0392(3)
H1 H -0.192(6) 0.156(5) -0.059(3)
H2 H -0.121(8) 0.115(7) -0.138(5)
H3 H -0.315(6) 0.312(5) -0.134(3)
H4 H -0.408(8) 0.218(7) -0.201(4)
H5 H -0.222(8) 0.242(7) -0.314(4)
H6 H -0.314(8) 0.353(7) -0.301(4)
H7 H -0.072(6) 0.425(6) -0.175(4)
H8 H 0.199(17) 0.418(14) -0.166(9)
H9 H 0.304(9) 0.368(7) -0.168(5)
H10 H 0.457(7) 0.387(6) -0.018(4)
H11 H 0.001(5) 0.315(5) -0.044(3)
H12 H -0.027(8) 0.116(6) 0.087(4)
H13 H -0.001(7) 0.257(5) 0.088(4)
H14 H 0.122(6) 0.186(5) 0.238(3)
H15 H 0.255(6) 0.092(4) 0.201(3)
H16 H 0.548(9) 0.404(7) 0.140(5)
H17 H 0.669(7) 0.303(5) 0.095(4)
H18 H 0.799(8) 0.243(6) 0.247(4)
H19 H 0.808(8) 0.381(7) 0.257(5)
H20 H 0.479(7) 0.174(6) 0.313(4)
H21 H 0.228(8) 0.268(6) 0.360(4)
H22 H 0.398(7) 0.220(6) 0.446(4)
H23 H 0.566(10) 0.532(9) 0.472(6)
H24 H 0.627(9) 0.402(7) 0.504(5)
H25 H 0.558(7) 0.491(6) 0.314(4)
H26 H 0.739(10) 0.464(8) 0.371(5)
H27 H 0.116(9) 0.444(6) -0.289(4)
H28 H -0.102(8) 0.463(6) -0.351(4)
H29 H 0.029(8) 0.364(6) -0.365(4)
H30 H 0.036(9) 0.136(6) -0.252(5)
H31 H 0.246(8) 0.151(6) -0.185(4)
H32 H 0.174(7) 0.217(6) -0.286(4)
H33 H 0.248(10) 0.045(7) -0.069(5)
H34 H 0.044(10) 0.021(8) -0.053(5)
H35 H 0.233(12) 0.012(10) 0.048(6)
H36 H 0.620(7) 0.119(6) 0.214(4)
H37 H 0.612(9) 0.105(7) 0.100(4)
H38 H 0.423(7) 0.063(5) 0.136(4)
H39 H 0.370(9) 0.438(7) 0.213(5)
H40 H 0.155(5) 0.390(4) 0.219(3)
H41 H 0.206(8) 0.397(7) 0.115(5)
H42 H 0.716(6) 0.242(4) 0.467(3)
H43 H 0.897(9) 0.270(7) 0.437(5)
H44 H 0.799(8) 0.157(6) 0.384(4)
H45 H 0.295(11) 0.513(9) 0.319(6)
H46 H 0.245(9) 0.543(7) 0.439(5)
H47 H 0.094(10) 0.474(8) 0.368(5)
H48 H 0.353(10) 0.441(8) 0.575(5)
H49 H 0.416(8) 0.323(6) 0.570(4)
H50 H 0.203(10) 0.376(8) 0.527(5)
loop_
_geom_bond_atom_site_label_1
_geom_bond_atom_site_label_2
_geom_bond_site_symmetry_1
_geom_bond_site_symmetry_2
C1 C2 1_555 1_555
C2 C3 1_555 1_555
C3 C4 1_555 1_555
C4 C5 1_555 1_555
C5 C6 1_555 1_555
C6 C7 1_555 1_555
C7 C8 1_555 1_555
C8 C9 1_555 1_555
C9 C10 1_555 1_555
C10 C1 1_555 1_555
C11 C9 1_555 1_555
C12 C11 1_555 1_555
C13 C12 1_555 1_555
C14 C8 1_555 1_555
C15 C14 1_555 1_555
C16 C15 1_555 1_555
C17 C16 1_555 1_555
C18 C13 1_555 1_555
C19 C18 1_555 1_555
C20 C19 1_555 1_555
C21 C20 1_555 1_555
C22 C17 1_555 1_555
C23 C4 1_555 1_555
C24 C5 1_555 1_555
C25 C9 1_555 1_555
C26 C14 1_555 1_555
C27 C13 1_555 1_555
C28 C17 1_555 1_555
C29 C20 1_555 1_555
C30 C20 1_555 1_555
O1 C7 1_555 1_555
H1 C1 1_555 1_555
H2 C1 1_555 1_555
H3 C2 1_555 1_555
H4 C2 1_555 1_555
H5 C3 1_555 1_555
H6 C3 1_555 1_555
H7 C4 1_555 1_555
H8 C6 1_555 1_555
H9 C6 1_555 1_555
H10 C7 1_555 1_555
H11 C10 1_555 1_555
H12 C11 1_555 1_555
H13 C11 1_555 1_555
H14 C12 1_555 1_555
H15 C12 1_555 1_555
H16 C15 1_555 1_555
H17 C15 1_555 1_555
H18 C16 1_555 1_555
H19 C16 1_555 1_555
H20 C18 1_555 1_555
H21 C19 1_555 1_555
H22 C19 1_555 1_555
H23 C21 1_555 1_555
H24 C21 1_555 1_555
H25 C22 1_555 1_555
H26 C22 1_555 1_555
H27 C23 1_555 1_555
H28 C23 1_555 1_555
H29 C23 1_555 1_555
H30 C24 1_555 1_555
H31 C24 1_555 1_555
H32 C24 1_555 1_555
H33 C25 1_555 1_555
H34 C25 1_555 1_555
H35 C25 1_555 1_555
H36 C26 1_555 1_555
H37 C26 1_555 1_555
H38 C26 1_555 1_555
H39 C27 1_555 1_555
H40 C27 1_555 1_555
H41 C27 1_555 1_555
H42 C28 1_555 1_555
H43 C28 1_555 1_555
H44 C28 1_555 1_555
H45 C29 1_555 1_555
H46 C29 1_555 1_555
H47 C29 1_555 1_555
H48 C30 1_555 1_555
H49 C30 1_555 1_555
H50 C30 1_555 1_555
C5 C10 1_555 1_555
C8 O1 1_555 1_555
C13 C14 1_555 1_555
C17 C18 1_555 1_555
C21 C22 1_555 1_555

#END
