
#######################################################################
#
#                 Cambridge Crystallographic Data Centre
#                                CCDC 
#
#######################################################################
#
# If this CIF has been generated from an entry in the Cambridge 
# Structural Database, then it will include bibliographic, chemical, 
# crystal, experimental, refinement or atomic coordinate data resulting 
# from the CCDC's data processing and validation procedures.
#
#######################################################################

data_LIKDIV
_chemical_formula_moiety         'C136 H100 N16 8+,8(F6 P1 1-),10(C2 H3 N1)'
_chemical_name_systematic        
"5,5':10,10':15,15':20,20'-tetrakis(3,3'-([4,4'-bipyridin-1-ium]-1,1'-diyl)diphenyl)bis(porphyrin) octakis(hexafluorophosphate) acetonitrile unknown solvate"
_symmetry_cell_setting           monoclinic
_symmetry_space_group_name_H-M   'P 21/c'
_symmetry_Int_Tables_number      14
_space_group_name_Hall           '-P 2ybc'
loop_
_symmetry_equiv_pos_site_id
_symmetry_equiv_pos_as_xyz
1 x,y,z
2 -x,1/2+y,1/2-z
3 -x,-y,-z
4 x,1/2-y,1/2+z
_cell_length_a                   15.8431(11)
_cell_length_b                   16.2840(10)
_cell_length_c                   34.474(2)
_cell_angle_alpha                90
_cell_angle_beta                 91.307(4)
_cell_angle_gamma                90
_cell_volume                     8891.6
_exptl_crystal_colour            green
_exptl_crystal_description       needle
_cell_formula_units_Z            2
loop_
_atom_site_label
_atom_site_type_symbol
_atom_site_fract_x
_atom_site_fract_y
_atom_site_fract_z
N1 N 0.7368(2) 0.1253(2) 0.44212(10)
N2 N 0.5912(2) 0.1496(2) 0.39138(10)
N3 N 0.4754(2) 0.1311(2) 0.45591(9)
H1 H 0.5363(15) 0.134(4) 0.4519(18)
N4 N 0.6216(2) 0.0994(2) 0.50571(9)
N5 N 0.9946(3) 0.2694(3) 0.59074(15)
N6 N 0.7688(3) 0.5807(3) 0.68030(12)
N7 N 0.9109(3) 0.3777(3) 0.30475(13)
N8 N 0.6429(3) 0.7060(2) 0.33638(11)
C1 C 0.7774(3) 0.0873(3) 0.50950(12)
C2 C 0.7948(3) 0.1069(3) 0.47098(12)
C3 C 0.8765(3) 0.1071(3) 0.45378(14)
H2 H 0.9288 0.0974 0.4670
C4 C 0.8661(3) 0.1236(3) 0.41539(14)
H3 H 0.9097 0.1273 0.3970
C5 C 0.7778(3) 0.1342(3) 0.40765(12)
C6 C 0.7404(3) 0.1476(3) 0.37138(12)
C7 C 0.6526(3) 0.1550(3) 0.36400(12)
C8 C 0.6156(3) 0.1736(3) 0.32655(13)
H4 H 0.6447 0.1812 0.3030
C9 C 0.5318(3) 0.1780(3) 0.33125(13)
H5 H 0.4902 0.1885 0.3116
C10 C 0.5167(3) 0.1635(3) 0.37213(12)
C11 C 0.4357(3) 0.1658(3) 0.38844(12)
C12 C 0.4184(3) 0.1540(3) 0.42737(12)
C13 C 0.3388(3) 0.1662(3) 0.44535(13)
H6 H 0.2875 0.1812 0.4325
C14 C 0.3494(3) 0.1528(3) 0.48366(13)
H7 H 0.3071 0.1582 0.5026
C15 C 0.4352(3) 0.1291(3) 0.49092(12)
C16 C 0.4735(3) 0.1095(2) 0.52666(11)
C17 C 0.5598(3) 0.0914(2) 0.53255(11)
C18 C 0.5962(3) 0.0650(3) 0.56943(12)
H8 H 0.5665 0.0535 0.5924
C19 C 0.6806(3) 0.0599(3) 0.56483(12)
H9 H 0.7216 0.0446 0.5840
C20 C 0.6962(3) 0.0822(3) 0.52500(11)
C21 C 0.8522(3) 0.0736(3) 0.53541(13)
C22 C 0.8676(3) -0.0026(3) 0.55274(14)
H10 H 0.8296 -0.0471 0.5485
C23 C 0.9390(4) -0.0124(4) 0.57615(17)
H11 H 0.9501 -0.0641 0.5879
C24 C 0.9950(4) 0.0525(4) 0.58276(18)
H12 H 1.0435 0.0447 0.5991
C25 C 0.9802(3) 0.1273(4) 0.56584(17)
C26 C 0.9098(3) 0.1373(3) 0.54220(15)
H13 H 0.9000 0.1890 0.5302
C27 C 1.0404(4) 0.1983(4) 0.5723(2)
H14 H 1.0634 0.2158 0.5471
H15 H 1.0881 0.1807 0.5894
C28 C 0.9481(5) 0.2535(4) 0.62084(19)
H16 H 0.9438 0.1992 0.6306
C29 C 0.9048(5) 0.3183(4) 0.63835(18)
H17 H 0.8716 0.3073 0.6604
C30 C 0.9090(3) 0.3956(3) 0.62487(15)
C31 C 0.9605(5) 0.4074(4) 0.5942(2)
H18 H 0.9665 0.4608 0.5836
C32 C 1.0041(5) 0.3423(4) 0.5782(2)
H19 H 1.0416 0.3522 0.5576
C33 C 0.8614(3) 0.4627(3) 0.64313(14)
C34 C 0.8827(5) 0.4894(5) 0.67905(19)
H20 H 0.9308 0.4670 0.6921
C35 C 0.8359(6) 0.5481(6) 0.6969(2)
H21 H 0.8525 0.5658 0.7222
C36 C 0.7479(7) 0.5598(5) 0.6428(2)
H22 H 0.7010 0.5854 0.6301
C37 C 0.7944(7) 0.5018(5) 0.6233(2)
H23 H 0.7813 0.4887 0.5970
C38 C 0.7146(4) 0.6399(3) 0.70110(16)
H24 H 0.7369 0.6466 0.7280
H25 H 0.6569 0.6171 0.7026
C39 C 0.7949(8) 0.1571(8) 0.3362(4)
C40 C 0.8539(12) 0.2167(10) 0.3339(5)
H26 H 0.8639 0.2507 0.3559
C41 C 0.9002(9) 0.2306(7) 0.3014(5)
C42 C 0.8928(6) 0.1761(5) 0.2712(2)
H27 H 0.9255 0.1830 0.2486
C43 C 0.8378(5) 0.1116(5) 0.2738(2)
H28 H 0.8335 0.0734 0.2530
C44 C 0.7877(6) 0.1004(5) 0.3062(2)
H29 H 0.7499 0.0553 0.3077
C45 C 0.9614(4) 0.3017(3) 0.29961(18)
H30 H 1.0051 0.2969 0.3205
H31 H 0.9897 0.3025 0.2743
C46 C 0.9234(4) 0.4226(3) 0.33724(16)
H32 H 0.9666 0.4085 0.3556
C47 C 0.8717(3) 0.4895(3) 0.34305(15)
H33 H 0.8793 0.5214 0.3659
C48 C 0.8091(3) 0.5114(3) 0.31644(13)
C49 C 0.7977(4) 0.4630(3) 0.28320(15)
H34 H 0.7547 0.4760 0.2646
C50 C 0.8494(5) 0.3966(3) 0.27786(16)
H35 H 0.8424 0.3636 0.2553
C51 C 0.7519(3) 0.5800(3) 0.32331(13)
C52 C 0.7315(4) 0.6033(3) 0.36065(14)
H36 H 0.7556 0.5749 0.3823
C53 C 0.6784(4) 0.6652(4) 0.36637(14)
H37 H 0.6654 0.6808 0.3921
C54 C 0.6616(3) 0.6866(3) 0.29966(13)
H38 H 0.6367 0.7161 0.2786
C55 C 0.7165(3) 0.6242(3) 0.29291(13)
H39 H 0.7306 0.6109 0.2670
C56 C 0.5799(4) 0.7720(4) 0.34314(15)
H40 H 0.5253 0.7467 0.3498
H41 H 0.5712 0.8040 0.3190
C57 C 0.3625(3) 0.1840(3) 0.36157(12)
C58 C 0.3558(3) 0.2604(3) 0.34421(13)
H42 H 0.3963 0.3018 0.3502
C59 C 0.2900(3) 0.2768(3) 0.31808(13)
C60 C 0.2307(4) 0.2173(4) 0.30973(15)
H43 H 0.1851 0.2287 0.2921
C61 C 0.2375(4) 0.1406(4) 0.32707(18)
H44 H 0.1967 0.0993 0.3213
C62 C 0.3033(3) 0.1243(3) 0.35247(15)
H45 H 0.3082 0.0714 0.3639
C63 C 0.4195(3) 0.1123(3) 0.56160(12)
C64 C 0.3476(3) 0.0642(3) 0.56481(13)
H46 H 0.3321 0.0275 0.5445
C65 C 0.2981(3) 0.0694(3) 0.59760(14)
H47 H 0.2488 0.0366 0.5994
C66 C 0.3210(3) 0.1227(3) 0.62772(14)
H48 H 0.2877 0.1257 0.6503
C67 C 0.3920(3) 0.1712(3) 0.62473(13)
C68 C 0.4410(3) 0.1663(3) 0.59173(12)
H49 H 0.4896 0.2001 0.5897
H50 H 0.6758(17) 0.136(4) 0.446(2)
N1B N 0.2632(2) 0.8747(2) 0.55788(10)
N2B N 0.4088(2) 0.8504(2) 0.60862(10)
N3B N 0.5246(2) 0.8689(2) 0.54409(9)
H1B H 0.4637(15) 0.866(4) 0.5481(18)
N4B N 0.3784(2) 0.9006(2) 0.49429(9)
N5B N 0.0054(3) 0.7306(3) 0.40926(15)
N6B N 0.2312(3) 0.4193(3) 0.31970(12)
N7B N 0.0891(3) 0.6223(3) 0.69525(13)
N8B N 0.3571(3) 0.2940(2) 0.66362(11)
C1B C 0.2226(3) 0.9127(3) 0.49050(12)
C2B C 0.2052(3) 0.8931(3) 0.52902(12)
C3B C 0.1235(3) 0.8929(3) 0.54622(14)
H2B H 0.0712 0.9026 0.5330
C4B C 0.1339(3) 0.8764(3) 0.58461(14)
H3B H 0.0903 0.8727 0.6030
C5B C 0.2222(3) 0.8658(3) 0.59235(12)
C6B C 0.2596(3) 0.8524(3) 0.62862(12)
C7B C 0.3474(3) 0.8450(3) 0.63600(12)
C8B C 0.3844(3) 0.8264(3) 0.67345(13)
H4B H 0.3553 0.8188 0.6970
C9B C 0.4682(3) 0.8220(3) 0.66875(13)
H5B H 0.5098 0.8115 0.6884
C10B C 0.4833(3) 0.8365(3) 0.62787(12)
C11B C 0.5643(3) 0.8342(3) 0.61156(12)
C12B C 0.5816(3) 0.8460(3) 0.57263(12)
C13B C 0.6612(3) 0.8338(3) 0.55465(13)
H6B H 0.7125 0.8188 0.5675
C14B C 0.6506(3) 0.8472(3) 0.51634(13)
H7B H 0.6929 0.8418 0.4974
C15B C 0.5648(3) 0.8709(3) 0.50908(12)
C16B C 0.5265(3) 0.8905(2) 0.47334(11)
C17B C 0.4402(3) 0.9086(2) 0.46745(11)
C18B C 0.4038(3) 0.9350(3) 0.43057(12)
H8B H 0.4335 0.9465 0.4076
C19B C 0.3194(3) 0.9401(3) 0.43517(12)
H9B H 0.2784 0.9554 0.4160
C20B C 0.3038(3) 0.9178(3) 0.47500(11)
C21B C 0.1478(3) 0.9264(3) 0.46459(13)
C22B C 0.1324(3) 1.0026(3) 0.44726(14)
H10B H 0.1704 1.0471 0.4515
C23B C 0.0610(4) 1.0124(4) 0.42385(17)
H11B H 0.0499 1.0641 0.4121
C24B C 0.0050(4) 0.9475(4) 0.41724(18)
H12B H -0.0435 0.9553 0.4009
C25B C 0.0198(3) 0.8727(4) 0.43416(17)
C26B C 0.0902(3) 0.8627(3) 0.45780(15)
H13B H 0.1000 0.8110 0.4698
C27B C -0.0404(4) 0.8017(4) 0.4277(2)
H14B H -0.0634 0.7842 0.4529
H15B H -0.0881 0.8193 0.4106
C28B C 0.0519(5) 0.7465(4) 0.37916(19)
H16B H 0.0562 0.8008 0.3694
C29B C 0.0952(5) 0.6817(4) 0.36165(18)
H17B H 0.1284 0.6927 0.3396
C30B C 0.0910(3) 0.6044(3) 0.37513(15)
C31B C 0.0395(5) 0.5926(4) 0.4058(2)
H18B H 0.0335 0.5392 0.4164
C32B C -0.0041(5) 0.6577(4) 0.4218(2)
H19B H -0.0416 0.6478 0.4424
C33B C 0.1386(3) 0.5373(3) 0.35687(14)
C34B C 0.1173(5) 0.5106(5) 0.32095(19)
H20B H 0.0692 0.5330 0.3079
C35B C 0.1641(6) 0.4519(6) 0.3031(2)
H21B H 0.1475 0.4342 0.2778
C36B C 0.2521(7) 0.4402(5) 0.3572(2)
H22B H 0.2990 0.4146 0.3699
C37B C 0.2056(7) 0.4982(5) 0.3767(2)
H23B H 0.2187 0.5113 0.4030
C38B C 0.2854(4) 0.3601(3) 0.29890(16)
H24B H 0.2631 0.3534 0.2720
H25B H 0.3431 0.3829 0.2974
C39B C 0.2051(8) 0.8429(8) 0.6638(4)
C40B C 0.1461(12) 0.7833(10) 0.6661(5)
H26B H 0.1361 0.7493 0.6441
C41B C 0.0998(9) 0.7694(7) 0.6986(5)
C42B C 0.1072(6) 0.8239(5) 0.7288(2)
H27B H 0.0745 0.8170 0.7514
C43B C 0.1622(5) 0.8884(5) 0.7262(2)
H28B H 0.1665 0.9266 0.7470
C44B C 0.2123(6) 0.8996(5) 0.6938(2)
H29B H 0.2501 0.9447 0.6923
C45B C 0.0386(4) 0.6983(3) 0.70039(18)
H30B H -0.0051 0.7031 0.6795
H31B H 0.0103 0.6975 0.7257
C46B C 0.0766(4) 0.5774(3) 0.66276(16)
H32B H 0.0334 0.5915 0.6444
C47B C 0.1283(3) 0.5105(3) 0.65695(15)
H33B H 0.1207 0.4786 0.6341
C48B C 0.1909(3) 0.4886(3) 0.68356(13)
C49B C 0.2023(4) 0.5370(3) 0.71680(15)
H34B H 0.2453 0.5240 0.7354
C50B C 0.1506(5) 0.6034(3) 0.72214(16)
H35B H 0.1576 0.6364 0.7447
C51B C 0.2481(3) 0.4200(3) 0.67669(13)
C52B C 0.2685(4) 0.3967(3) 0.63935(14)
H36B H 0.2444 0.4251 0.6177
C53B C 0.3216(4) 0.3348(4) 0.63363(14)
H37B H 0.3346 0.3192 0.6079
C54B C 0.3384(3) 0.3134(3) 0.70034(13)
H38B H 0.3633 0.2839 0.7214
C55B C 0.2835(3) 0.3758(3) 0.70709(13)
H39B H 0.2694 0.3891 0.7330
C56B C 0.4201(4) 0.2280(4) 0.65686(15)
H40B H 0.4747 0.2533 0.6502
H41B H 0.4288 0.1960 0.6810
C57B C 0.6375(3) 0.8160(3) 0.63843(12)
C58B C 0.6442(3) 0.7396(3) 0.65579(13)
H42B H 0.6037 0.6982 0.6498
C59B C 0.7100(3) 0.7232(3) 0.68192(13)
C60B C 0.7693(4) 0.7827(4) 0.69027(15)
H43B H 0.8149 0.7713 0.7079
C61B C 0.7625(4) 0.8594(4) 0.67293(18)
H44B H 0.8033 0.9007 0.6787
C62B C 0.6967(3) 0.8757(3) 0.64753(15)
H45B H 0.6918 0.9286 0.6361
C63B C 0.5805(3) 0.8877(3) 0.43840(12)
C64B C 0.6524(3) 0.9358(3) 0.43519(13)
H46B H 0.6679 0.9725 0.4555
C65B C 0.7019(3) 0.9306(3) 0.40240(14)
H47B H 0.7512 0.9634 0.4006
C66B C 0.6790(3) 0.8773(3) 0.37228(14)
H48B H 0.7123 0.8743 0.3497
C67B C 0.6080(3) 0.8288(3) 0.37527(13)
C68B C 0.5590(3) 0.8337(3) 0.40827(12)
H49B H 0.5104 0.7999 0.4103
H50B H 0.3242(17) 0.864(4) 0.554(2)
P1 P 0.89049(9) 0.81062(10) 0.30089(4)
F1 F 0.8915(6) 0.8811(6) 0.3307(3)
F2 F 0.8928(4) 0.7367(5) 0.26875(17)
F3 F 0.9907(2) 0.8096(3) 0.30320(12)
F4 F 0.8808(7) 0.7444(5) 0.33347(19)
F5 F 0.7905(2) 0.8112(3) 0.29713(11)
F6 F 0.9018(4) 0.8732(4) 0.2653(2)
P2 P 0.91408(15) 0.70713(14) 0.59060(9)
F11 F 0.9980(5) 0.7383(7) 0.6039(3)
F12 F 0.8257(5) 0.6743(7) 0.5719(3)
F13 F 0.8691(7) 0.7941(6) 0.5938(4)
F14 F 0.8946(4) 0.6764(3) 0.63285(17)
F15 F 0.9508(6) 0.6166(5) 0.5817(3)
F16 F 0.9317(3) 0.7283(5) 0.54999(19)
P3 P 0.73204(12) 0.15255(13) 0.67653(5)
F21 F 0.7785(3) 0.1621(4) 0.63668(11)
F22 F 0.6411(5) 0.1859(5) 0.6608(3)
F23 F 0.7454(6) 0.2550(6) 0.6834(3)
F24 F 0.6867(3) 0.1463(3) 0.71635(10)
F25 F 0.8260(5) 0.1531(10) 0.6910(3)
F26 F 0.7148(8) 0.0674(5) 0.6642(4)
P4 P 0.5160(2) 0.4687(3) 0.60794(12)
F31 F 0.6048(6) 0.4314(6) 0.6302(3)
F32 F 0.4370(6) 0.4897(6) 0.5849(4)
F33 F 0.5316(6) 0.5605(5) 0.6161(3)
F34 F 0.4669(6) 0.4528(5) 0.6482(3)
F35 F 0.4987(5) 0.3738(4) 0.5992(3)
F36 F 0.5863(7) 0.4730(5) 0.5762(3)
N9 N 0.4680(3) 0.3177(3) 0.25350(13)
C79 C 0.5161(4) 0.3492(3) 0.27307(15)
C80 C 0.5786(5) 0.3883(4) 0.29898(18)
H61 H 0.5887 0.3535 0.3218
H62 H 0.5575 0.4420 0.3072
H63 H 0.6316 0.3957 0.2852
N10 N 0.0319(4) 0.0276(5) 0.24684(18)
C81 C 0.0304(4) 0.0256(5) 0.2801(2)
C82 C 0.0254(5) 0.0237(6) 0.3220(2)
H64 H -0.0317 0.0077 0.3293
H65 H 0.0384 0.0784 0.3325
H66 H 0.0662 -0.0161 0.3325
N11 N 0.7928(8) 0.3496(9) 0.5422(3)
C83 C 0.7348(6) 0.3183(6) 0.5527(2)
C84 C 0.6627(5) 0.2788(4) 0.5662(2)
H67 H 0.6789 0.2405 0.5869
H68 H 0.6353 0.2485 0.5448
H69 H 0.6235 0.3198 0.5762
N12 N 0.3444(5) 0.5191(4) 0.2578(2)
C85 C 0.3781(4) 0.5772(4) 0.2707(2)
C86 C 0.4199(6) 0.6474(5) 0.2843(2)
H70 H 0.4771 0.6488 0.2741
H71 H 0.4232 0.6461 0.3128
H72 H 0.3888 0.6963 0.2758
N13 N 0.5853(4) 0.5515(5) 0.23399(18)
C87 C 0.5474(5) 0.5161(4) 0.21091(19)
C88 C 0.4970(4) 0.4721(3) 0.18253(16)
H73 H 0.4939 0.5036 0.1583
H74 H 0.4400 0.4642 0.1923
H75 H 0.5227 0.4184 0.1776
C69? C 0.8393(17) 0.4502(15) 0.6867(6)
H51? H 0.8556 0.4029 0.7012
C70? C 0.7948(18) 0.5131(15) 0.7020(7)
H52? H 0.7808 0.5107 0.7287
C71? C 0.794(2) 0.5839(18) 0.6444(7)
H53? H 0.7828 0.6325 0.6300
C72? C 0.836(2) 0.5220(18) 0.6264(8)
H54? H 0.8448 0.5262 0.5994
C73? C 0.809(3) 0.142(2) 0.3416(11)
C74? C 0.847(3) 0.229(3) 0.3357(13)
H55? H 0.8285 0.2784 0.3474
C75? C 0.920(3) 0.220(2) 0.3072(14)
C76? C 0.9358(16) 0.1510(13) 0.2868(6)
H56? H 0.9793 0.1524 0.2684
C77? C 0.8909(14) 0.0774(13) 0.2918(5)
H57? H 0.9023 0.0306 0.2763
C78? C 0.8281(15) 0.0748(13) 0.3204(6)
H58? H 0.7990 0.0247 0.3249
H59? H 1.0120 0.3056 0.3169
H60? H 0.9814 0.3011 0.2726
F7? F 0.8868(10) 0.8443(9) 0.3454(3)
F8? F 0.8897(8) 0.7829(11) 0.2590(3)
F9? F 0.8982(9) 0.7237(7) 0.3195(5)
F10? F 0.8787(9) 0.9049(6) 0.2876(4)
F17? F 1.0168(7) 0.6931(11) 0.5945(6)
F18? F 0.8190(7) 0.7172(11) 0.5880(6)
F19? F 0.9330(11) 0.7924(7) 0.6127(5)
F20? F 0.9138(11) 0.6191(8) 0.5715(6)
F27? F 0.6791(10) 0.2223(8) 0.6579(4)
F28? F 0.8015(8) 0.2044(7) 0.6983(2)
F29? F 0.7851(6) 0.0747(5) 0.6926(2)
F30? F 0.6718(6) 0.0832(6) 0.6566(3)
P5? P 0.5627(13) 0.4841(7) 0.6116(4)
F37? F 0.5729(18) 0.4833(15) 0.6488(7)
F38? F 0.4472(15) 0.5073(10) 0.6199(6)
F39? F 0.571(2) 0.5788(13) 0.5969(7)
F40? F 0.5755(19) 0.5238(14) 0.6535(7)
F41? F 0.5308(16) 0.3912(11) 0.6228(6)
F42? F 0.520(2) 0.4738(11) 0.5647(6)
loop_
_geom_bond_atom_site_label_1
_geom_bond_atom_site_label_2
_geom_bond_site_symmetry_1
_geom_bond_site_symmetry_2
N1 C2 1_555 1_555
N2 C7 1_555 1_555
N3 H1 1_555 1_555
N4 C17 1_555 1_555
N5 C27 1_555 1_555
N6 C35 1_555 1_555
N7 C45 1_555 1_555
N8 C53 1_555 1_555
C1 C2 1_555 1_555
C2 C3 1_555 1_555
C3 H2 1_555 1_555
C4 C3 1_555 1_555
H3 C4 1_555 1_555
C5 N1 1_555 1_555
C6 C5 1_555 1_555
C7 C6 1_555 1_555
C8 C7 1_555 1_555
H4 C8 1_555 1_555
C9 C8 1_555 1_555
H5 C9 1_555 1_555
C10 N2 1_555 1_555
C11 C10 1_555 1_555
C12 N3 1_555 1_555
C13 C12 1_555 1_555
H6 C13 1_555 1_555
C14 C13 1_555 1_555
H7 C14 1_555 1_555
C15 N3 1_555 1_555
C16 C15 1_555 1_555
C17 C16 1_555 1_555
C18 C17 1_555 1_555
H8 C18 1_555 1_555
C19 C18 1_555 1_555
H9 C19 1_555 1_555
C20 N4 1_555 1_555
C21 C1 1_555 1_555
C22 C21 1_555 1_555
H10 C22 1_555 1_555
C23 C22 1_555 1_555
H11 C23 1_555 1_555
C24 C23 1_555 1_555
H12 C24 1_555 1_555
C25 C24 1_555 1_555
C26 C21 1_555 1_555
H13 C26 1_555 1_555
C27 C25 1_555 1_555
H14 C27 1_555 1_555
H15 C27 1_555 1_555
C28 N5 1_555 1_555
H16 C28 1_555 1_555
C29 C28 1_555 1_555
H17 C29 1_555 1_555
C30 C29 1_555 1_555
C31 C30 1_555 1_555
H18 C31 1_555 1_555
C32 N5 1_555 1_555
H19 C32 1_555 1_555
C33 C30 1_555 1_555
C34 C33 1_555 1_555
H20 C34 1_555 1_555
C35 C34 1_555 1_555
H21 C35 1_555 1_555
C36 N6 1_555 1_555
H22 C36 1_555 1_555
C37 C33 1_555 1_555
H23 C37 1_555 1_555
C38 N6 1_555 1_555
H24 C38 1_555 1_555
H25 C38 1_555 1_555
C39 C6 1_555 1_555
C40 C39 1_555 1_555
H26 C40 1_555 1_555
C41 C40 1_555 1_555
C42 C41 1_555 1_555
H27 C42 1_555 1_555
C43 C42 1_555 1_555
H28 C43 1_555 1_555
C44 C39 1_555 1_555
H29 C44 1_555 1_555
C45 C41 1_555 1_555
H30 C45 1_555 1_555
H31 C45 1_555 1_555
C46 N7 1_555 1_555
H32 C46 1_555 1_555
C47 C46 1_555 1_555
H33 C47 1_555 1_555
C48 C47 1_555 1_555
C49 C48 1_555 1_555
H34 C49 1_555 1_555
C50 N7 1_555 1_555
H35 C50 1_555 1_555
C51 C48 1_555 1_555
C52 C51 1_555 1_555
H36 C52 1_555 1_555
C53 C52 1_555 1_555
H37 C53 1_555 1_555
C54 N8 1_555 1_555
H38 C54 1_555 1_555
C55 C51 1_555 1_555
H39 C55 1_555 1_555
C56 N8 1_555 1_555
H40 C56 1_555 1_555
H41 C56 1_555 1_555
C57 C11 1_555 1_555
C58 C57 1_555 1_555
H42 C58 1_555 1_555
C59 C58 1_555 1_555
C60 C59 1_555 1_555
H43 C60 1_555 1_555
C61 C60 1_555 1_555
H44 C61 1_555 1_555
C62 C57 1_555 1_555
H45 C62 1_555 1_555
C63 C16 1_555 1_555
C64 C63 1_555 1_555
H46 C64 1_555 1_555
C65 C64 1_555 1_555
H47 C65 1_555 1_555
C66 C65 1_555 1_555
H48 C66 1_555 1_555
C67 C66 1_555 1_555
C68 C63 1_555 1_555
H49 C68 1_555 1_555
H50 N1 1_555 1_555
P1 F1 1_555 1_555
F2 P1 1_555 1_555
F3 P1 1_555 1_555
F4 P1 1_555 1_555
F5 P1 1_555 1_555
F6 P1 1_555 1_555
P2 F11 1_555 1_555
F12 P2 1_555 1_555
F13 P2 1_555 1_555
F14 P2 1_555 1_555
F15 P2 1_555 1_555
F16 P2 1_555 1_555
P3 F21 1_555 1_555
F22 P3 1_555 1_555
F23 P3 1_555 1_555
F24 P3 1_555 1_555
F25 P3 1_555 1_555
F26 P3 1_555 1_555
P4 F31 1_555 1_555
F32 P4 1_555 1_555
F33 P4 1_555 1_555
F34 P4 1_555 1_555
F35 P4 1_555 1_555
F36 P4 1_555 1_555
N9 C79 1_555 1_555
C79 C80 1_555 1_555
C80 H61 1_555 1_555
H62 C80 1_555 1_555
H63 C80 1_555 1_555
N10 C81 1_555 1_555
C81 C82 1_555 1_555
C82 H64 1_555 1_555
H65 C82 1_555 1_555
H66 C82 1_555 1_555
N11 C83 1_555 1_555
C83 C84 1_555 1_555
C84 H67 1_555 1_555
H68 C84 1_555 1_555
H69 C84 1_555 1_555
N12 C85 1_555 1_555
C85 C86 1_555 1_555
C86 H70 1_555 1_555
H71 C86 1_555 1_555
H72 C86 1_555 1_555
N13 C87 1_555 1_555
C87 C88 1_555 1_555
C88 H73 1_555 1_555
H74 C88 1_555 1_555
H75 C88 1_555 1_555
N1B C2B 1_555 1_555
N2B C7B 1_555 1_555
N3B H1B 1_555 1_555
N4B C17B 1_555 1_555
N5B C27B 1_555 1_555
N6B C35B 1_555 1_555
N7B C45B 1_555 1_555
N8B C53B 1_555 1_555
C1B C2B 1_555 1_555
C2B C3B 1_555 1_555
C3B H2B 1_555 1_555
C4B C3B 1_555 1_555
H3B C4B 1_555 1_555
C5B N1B 1_555 1_555
C6B C5B 1_555 1_555
C7B C6B 1_555 1_555
C8B C7B 1_555 1_555
H4B C8B 1_555 1_555
C9B C8B 1_555 1_555
H5B C9B 1_555 1_555
C10B N2B 1_555 1_555
C11B C10B 1_555 1_555
C12B N3B 1_555 1_555
C13B C12B 1_555 1_555
H6B C13B 1_555 1_555
C14B C13B 1_555 1_555
H7B C14B 1_555 1_555
C15B N3B 1_555 1_555
C16B C15B 1_555 1_555
C17B C16B 1_555 1_555
C18B C17B 1_555 1_555
H8B C18B 1_555 1_555
C19B C18B 1_555 1_555
H9B C19B 1_555 1_555
C20B N4B 1_555 1_555
C21B C1B 1_555 1_555
C22B C21B 1_555 1_555
H10B C22B 1_555 1_555
C23B C22B 1_555 1_555
H11B C23B 1_555 1_555
C24B C23B 1_555 1_555
H12B C24B 1_555 1_555
C25B C24B 1_555 1_555
C26B C21B 1_555 1_555
H13B C26B 1_555 1_555
C27B C25B 1_555 1_555
H14B C27B 1_555 1_555
H15B C27B 1_555 1_555
C28B N5B 1_555 1_555
H16B C28B 1_555 1_555
C29B C28B 1_555 1_555
H17B C29B 1_555 1_555
C30B C29B 1_555 1_555
C31B C30B 1_555 1_555
H18B C31B 1_555 1_555
C32B N5B 1_555 1_555
H19B C32B 1_555 1_555
C33B C30B 1_555 1_555
C34B C33B 1_555 1_555
H20B C34B 1_555 1_555
C35B C34B 1_555 1_555
H21B C35B 1_555 1_555
C36B N6B 1_555 1_555
H22B C36B 1_555 1_555
C37B C33B 1_555 1_555
H23B C37B 1_555 1_555
C38B C59 1_555 1_555
H24B C38B 1_555 1_555
H25B C38B 1_555 1_555
C39B C6B 1_555 1_555
C40B C39B 1_555 1_555
H26B C40B 1_555 1_555
C41B C40B 1_555 1_555
C42B C41B 1_555 1_555
H27B C42B 1_555 1_555
C43B C42B 1_555 1_555
H28B C43B 1_555 1_555
C44B C39B 1_555 1_555
H29B C44B 1_555 1_555
C45B C41B 1_555 1_555
H30B C45B 1_555 1_555
H31B C45B 1_555 1_555
C46B N7B 1_555 1_555
H32B C46B 1_555 1_555
C47B C46B 1_555 1_555
H33B C47B 1_555 1_555
C48B C47B 1_555 1_555
C49B C48B 1_555 1_555
H34B C49B 1_555 1_555
C50B N7B 1_555 1_555
H35B C50B 1_555 1_555
C51B C48B 1_555 1_555
C52B C51B 1_555 1_555
H36B C52B 1_555 1_555
C53B C52B 1_555 1_555
H37B C53B 1_555 1_555
C54B N8B 1_555 1_555
H38B C54B 1_555 1_555
C55B C51B 1_555 1_555
H39B C55B 1_555 1_555
C56B C67 1_555 1_555
H40B C56B 1_555 1_555
H41B C56B 1_555 1_555
C57B C11B 1_555 1_555
C58B C57B 1_555 1_555
H42B C58B 1_555 1_555
C59B C38 1_555 1_555
C60B C59B 1_555 1_555
H43B C60B 1_555 1_555
C61B C60B 1_555 1_555
H44B C61B 1_555 1_555
C62B C57B 1_555 1_555
H45B C62B 1_555 1_555
C63B C16B 1_555 1_555
C64B C63B 1_555 1_555
H46B C64B 1_555 1_555
C65B C64B 1_555 1_555
H47B C65B 1_555 1_555
C66B C65B 1_555 1_555
H48B C66B 1_555 1_555
C67B C56 1_555 1_555
C68B C63B 1_555 1_555
H49B C68B 1_555 1_555
H50B N1B 1_555 1_555
C1 C20 1_555 1_555
C4 C5 1_555 1_555
C9 C10 1_555 1_555
C11 C12 1_555 1_555
C14 C15 1_555 1_555
C19 C20 1_555 1_555
C25 C26 1_555 1_555
C31 C32 1_555 1_555
C36 C37 1_555 1_555
C43 C44 1_555 1_555
C49 C50 1_555 1_555
C54 C55 1_555 1_555
C61 C62 1_555 1_555
C67 C68 1_555 1_555
N6B C38B 1_555 1_555
N8B C56B 1_555 1_555
C1B C20B 1_555 1_555
C4B C5B 1_555 1_555
C9B C10B 1_555 1_555
C11B C12B 1_555 1_555
C14B C15B 1_555 1_555
C19B C20B 1_555 1_555
C25B C26B 1_555 1_555
C31B C32B 1_555 1_555
C36B C37B 1_555 1_555
C43B C44B 1_555 1_555
C49B C50B 1_555 1_555
C54B C55B 1_555 1_555
C58B C59B 1_555 1_555
C61B C62B 1_555 1_555
C66B C67B 1_555 1_555
C67B C68B 1_555 1_555

#END
