
#######################################################################
#
#                 Cambridge Crystallographic Data Centre
#                                CCDC 
#
#######################################################################
#
# If this CIF has been generated from an entry in the Cambridge 
# Structural Database, then it will include bibliographic, chemical, 
# crystal, experimental, refinement or atomic coordinate data resulting 
# from the CCDC's data processing and validation procedures.
#
#######################################################################

data_LIKDUH
_chemical_formula_moiety         
'C136 H100 N16 8+,2(C3 H7 N1 O1),8(F6 P1 1-),C70'
_chemical_name_systematic        
"5,5':10,10':15,15':20,20'-tetrakis(3,3'-([4,4'-bipyridin-1-ium]-1,1'-diyl)diphenyl)bis(porphyrin) octakis(hexafluorophosphate) C70-fullerene acetonitrile unknown solvate"
_symmetry_cell_setting           trigonal
_symmetry_space_group_name_H-M   'P 31 2 1'
_symmetry_Int_Tables_number      152
_space_group_name_Hall           'P 31 2"'
loop_
_symmetry_equiv_pos_site_id
_symmetry_equiv_pos_as_xyz
1 x,y,z
2 -y,x-y,1/3+z
3 -x+y,-x,2/3+z
4 x-y,-y,2/3-z
5 -x,-x+y,1/3-z
6 y,x,-z
_cell_length_a                   23.6016(8)
_cell_length_b                   23.6016(8)
_cell_length_c                   61.756(2)
_cell_angle_alpha                90
_cell_angle_beta                 90
_cell_angle_gamma                120
_cell_volume                     29791.5
_exptl_crystal_colour            black
_exptl_crystal_description       plate
_cell_formula_units_Z            6
loop_
_atom_site_label
_atom_site_type_symbol
_atom_site_fract_x
_atom_site_fract_y
_atom_site_fract_z
P2 P 0.9285(3) 0.9285(3) 0.62590(11)
F7 F 0.9896(13) 0.9911(12) 0.6164(8)
F8 F 0.8687(9) 0.8677(6) 0.6304(6)
F9 F 0.9543(6) 0.8892(7) 0.6130(2)
F10 F 0.8996(12) 0.9452(18) 0.6060(4)
F11 F 0.9003(13) 0.9675(8) 0.6405(3)
F12 F 0.9793(9) 0.9354(12) 0.6418(4)
P3 P 0.0000 0.3019(8) 0.6667
F13 F 0.0706(11) 0.3386(10) 0.6559(6)
F14 F 0.0000 0.2380(12) 0.6667
F15 F -0.0420(12) 0.2733(11) 0.6435(3)
F16 F 0.0000 0.3673(15) 0.6667
F13D F -0.0706(11) 0.2680(15) 0.6774(6)
F15D F 0.0420(12) 0.3153(16) 0.6898(3)
P4 P 0.3689(2) 0.2425(2) 0.62032(7)
F17 F 0.4382(6) 0.2716(5) 0.63298(18)
F18 F 0.3018(5) 0.2157(8) 0.6077(2)
F19 F 0.3955(8) 0.2252(14) 0.6008(4)
F20 F 0.3887(14) 0.3080(10) 0.6115(6)
F21 F 0.3358(14) 0.241(2) 0.6416(4)
F22 F 0.3444(11) 0.1759(8) 0.6267(4)
P5 P 0.5742(4) 0.2480(3) 0.55954(10)
F23 F 0.5871(8) 0.3096(6) 0.5452(3)
F24 F 0.5577(19) 0.1858(10) 0.5742(3)
F25 F 0.6267(9) 0.2945(9) 0.5746(3)
F26 F 0.6191(11) 0.2356(12) 0.5457(3)
F27 F 0.5169(7) 0.2069(6) 0.5428(2)
F28 F 0.5251(9) 0.2598(8) 0.5732(2)
P6 P 0.0818(3) 0.6335(3) 0.54770(10)
F29 F 0.1372(8) 0.6810(8) 0.5626(3)
F30 F 0.0193(10) 0.5852(13) 0.5341(4)
F31 F 0.1124(13) 0.6866(12) 0.5290(3)
F32 F 0.0400(9) 0.6653(8) 0.5564(3)
F33 F 0.0512(10) 0.5817(8) 0.5672(2)
F34 F 0.1166(11) 0.5979(10) 0.5402(2)
P7 P 0.6333(4) 0.7002(4) 0.5424(2)
F35 F 0.6653(16) 0.7508(14) 0.5633(6)
F36 F 0.6011(14) 0.6526(10) 0.5224(5)
F37 F 0.6645(11) 0.7582(10) 0.5233(5)
F38 F 0.5643(12) 0.6947(14) 0.5397(5)
F39 F 0.6080(14) 0.6441(11) 0.5576(4)
F40 F 0.6992(14) 0.6964(14) 0.5392(5)
P8 P 0.8692(3) 0.3241(3) 0.41079(9)
F41 F 0.9263(10) 0.3989(10) 0.4124(5)
F42 F 0.8143(9) 0.2503(11) 0.4119(3)
F43 F 0.8260(9) 0.3421(8) 0.4247(2)
F44 F 0.9001(8) 0.3076(8) 0.4308(3)
F45 F 0.9146(14) 0.3094(15) 0.3976(4)
F46 F 0.8389(14) 0.3356(16) 0.3911(2)
P9 P 0.2188(10) 0.4628(10) 0.6750(3)
F47 F 0.1868(17) 0.3952(13) 0.6879(5)
F48 F 0.2660(17) 0.5200(14) 0.6588(5)
F49 F 0.2539(17) 0.4225(15) 0.6684(5)
F50 F 0.2701(15) 0.4970(15) 0.6941(4)
F51 F 0.1695(16) 0.4810(17) 0.6863(5)
F52 F 0.1675(15) 0.4280(16) 0.6558(4)
O1 O 0.8771(7) 0.2144(10) 0.4708(3)
N1 N 0.8296(11) 0.2549(11) 0.4905(3)
C1 C 0.8350(11) 0.2301(14) 0.4730(4)
H1 H 0.8061 0.2235 0.4613
C2 C 0.8624(17) 0.250(2) 0.5094(5)
H2 H 0.8541 0.2709 0.5217
H3 H 0.8458 0.2035 0.5128
H4 H 0.9095 0.2713 0.5067
C3 C 0.7666(12) 0.2591(17) 0.4954(5)
H5 H 0.7712 0.2796 0.5096
H6 H 0.7611 0.2854 0.4843
H7 H 0.7283 0.2150 0.4956
O2 O 0.8836(11) 0.1761(9) 0.5738(5)
N2 N 0.8364(11) 0.0739(9) 0.5820(4)
C4 C 0.8744(10) 0.1258(10) 0.5692(4)
H8 H 0.8932 0.1200 0.5564
C5 C 0.8275(17) 0.0113(13) 0.5734(5)
H9 H 0.7997 -0.0244 0.5833
H10 H 0.8067 0.0029 0.5591
H11 H 0.8703 0.0142 0.5721
C6 C 0.8141(17) 0.103(2) 0.6029(5)
H12 H 0.7863 0.0674 0.6127
H13 H 0.8531 0.1357 0.6107
H14 H 0.7897 0.1240 0.5975
N3 N 0.4050(4) 0.1378(4) 0.44565(13)
H15 H 0.4372 0.1757 0.4411
N4 N 0.5347(4) 0.2280(4) 0.46161(14)
N5 N 0.5472(4) 0.3203(4) 0.42765(13)
H16 H 0.5174 0.2796 0.4305
N6 N 0.4183(5) 0.2287(5) 0.41098(13)
N7 N 0.0705(6) 0.0763(5) 0.56923(16)
N8 N 0.3575(7) 0.0577(6) 0.55788(16)
N9 N 0.4495(6) 0.5454(5) 0.38999(17)
N10 N 0.5230(7) 0.7360(6) 0.4834(2)
C7 C 0.4042(5) 0.1020(6) 0.46296(17)
C8 C 0.3436(5) 0.0417(5) 0.4644(2)
H17 H 0.3326 0.0081 0.4748
C9 C 0.3054(6) 0.0413(5) 0.44860(18)
H18 H 0.2617 0.0081 0.4457
C10 C 0.3428(5) 0.1002(5) 0.43678(16)
C11 C 0.3222(6) 0.1189(6) 0.41853(18)
C12 C 0.3572(5) 0.1803(5) 0.40684(15)
C13 C 0.3342(7) 0.2014(7) 0.3883(2)
H19 H 0.2933 0.1767 0.3811
C14 C 0.3800(6) 0.2602(6) 0.3833(2)
H20 H 0.3773 0.2862 0.3720
C15 C 0.4349(6) 0.2797(6) 0.39718(16)
C16 C 0.4926(6) 0.3399(6) 0.39702(17)
C17 C 0.5444(6) 0.3602(7) 0.41169(16)
C18 C 0.6015(8) 0.4241(6) 0.4124(2)
H21 H 0.6103 0.4606 0.4036
C19 C 0.6404(7) 0.4222(7) 0.4282(2)
H22 H 0.6825 0.4568 0.4321
C20 C 0.6060(5) 0.3575(5) 0.43806(17)
C21 C 0.6308(6) 0.3400(5) 0.45558(16)
C22 C 0.5960(5) 0.2818(7) 0.46660(19)
C23 C 0.6151(5) 0.2609(7) 0.4872(2)
H23 H 0.6542 0.2866 0.4952
C24 C 0.5680(5) 0.2004(6) 0.49244(17)
H24 H 0.5690 0.1755 0.5044
C25 C 0.5147(6) 0.1790(6) 0.47675(18)
C26 C 0.4574(5) 0.1196(5) 0.47746(14)
C27 C 0.2549(6) 0.0756(6) 0.41100(17)
C28 C 0.2012(6) 0.0627(5) 0.42233(18)
H25 H 0.2067 0.0828 0.4361
C29 C 0.1362(6) 0.0202(7) 0.4147(2)
C30 C 0.1280(7) -0.0112(7) 0.3950(3)
H26 H 0.0852 -0.0406 0.3899
C31 C 0.1799(6) -0.0004(6) 0.3832(2)
H27 H 0.1738 -0.0219 0.3697
C32 C 0.2447(7) 0.0434(7) 0.3909(2)
H28 H 0.2813 0.0510 0.3823
C33 C 0.0769(6) 0.0109(6) 0.4280(2)
H29 H 0.0361 -0.0213 0.4207
H30 H 0.0779 -0.0070 0.4424
C34 C 0.4973(7) 0.3903(6) 0.3811(2)
C35 C 0.5436(10) 0.4065(10) 0.3640(2)
H31 H 0.5651 0.3819 0.3619
C36 C 0.5568(10) 0.4593(8) 0.3503(3)
H32 H 0.5932 0.4759 0.3408
C37 C 0.5176(11) 0.4879(8) 0.3505(2)
H33 H 0.5214 0.5187 0.3399
C38 C 0.4729(7) 0.4684(6) 0.36722(17)
C39 C 0.4649(6) 0.4220(7) 0.38231(17)
H34 H 0.4351 0.4127 0.3939
C40 C 0.4366(8) 0.5052(7) 0.3701(3)
H35 H 0.4466 0.5345 0.3574
H36 H 0.3892 0.4730 0.3696
C41 C 0.5120(7) 0.5731(5) 0.3978(3)
H37 H 0.5430 0.5650 0.3908
C42 C 0.5296(7) 0.6117(6) 0.4155(2)
H38 H 0.5731 0.6322 0.4208
C43 C 0.4799(6) 0.6212(5) 0.4262(2)
C44 C 0.4162(7) 0.5892(7) 0.4168(2)
H39 H 0.3821 0.5938 0.4232
C45 C 0.4044(6) 0.5534(7) 0.3993(3)
H40 H 0.3617 0.5326 0.3932
C46 C 0.4932(7) 0.6596(7) 0.4465(2)
C47 C 0.5462(7) 0.6699(7) 0.4605(3)
H41 H 0.5705 0.6488 0.4573
C48 C 0.5621(8) 0.7080(8) 0.4778(3)
H42 H 0.5990 0.7165 0.4864
C49 C 0.4744(8) 0.7267(7) 0.4710(3)
H43 H 0.4489 0.7457 0.4753
C50 C 0.4577(7) 0.6909(7) 0.4520(3)
H44 H 0.4236 0.6876 0.4429
C51 C 0.6958(6) 0.3879(7) 0.46467(19)
C52 C 0.7461(7) 0.3756(8) 0.4608(3)
H45 H 0.7381 0.3367 0.4536
C53 C 0.8084(8) 0.4206(11) 0.4676(3)
H46 H 0.8445 0.4158 0.4634
C54 C 0.8185(7) 0.4716(11) 0.4802(3)
H47 H 0.8599 0.4976 0.4869
C55 C 0.7688(7) 0.4865(8) 0.4836(3)
C56 C 0.7071(6) 0.4415(7) 0.4759(2)
H48 H 0.6716 0.4487 0.4787
C57 C 0.7786(7) 0.5430(8) 0.4967(3)
H49 H 0.7688 0.5717 0.4876
H50 H 0.8250 0.5686 0.5011
C58 C 0.4470(6) 0.0706(7) 0.49461(19)
C59 C 0.4528(8) 0.0158(8) 0.4901(2)
H51 H 0.4619 0.0081 0.4757
C60 C 0.4454(18) -0.0267(14) 0.5062(4)
H52 H 0.4507 -0.0631 0.5029
C61 C 0.4300(12) -0.0184(7) 0.5279(3)
H53 H 0.4221 -0.0497 0.5389
C62 C 0.4272(7) 0.0399(6) 0.5322(2)
C63 C 0.4368(6) 0.0818(5) 0.51674(19)
H54 H 0.4372 0.1211 0.5203
C64 C 0.4145(7) 0.0492(7) 0.55531(19)
H55 H 0.4075 0.0106 0.5638
H56 H 0.4535 0.0881 0.5612
C65 C 0.2993(7) 0.0099(6) 0.54790(19)
H57 H 0.2982 -0.0258 0.5404
C66 C 0.2431(5) 0.0157(5) 0.54922(16)
H58 H 0.2045 -0.0130 0.5414
C67 C 0.2458(6) 0.0656(6) 0.56256(16)
C68 C 0.3019(6) 0.1065(6) 0.57343(16)
H59 H 0.3027 0.1382 0.5831
C69 C 0.3563(8) 0.1024(7) 0.5705(2)
H60 H 0.3953 0.1327 0.5778
C70 C 0.1830(7) 0.0685(5) 0.56451(18)
C71 C 0.1407(8) 0.0542(5) 0.54680(17)
H61 H 0.1502 0.0424 0.5331
C72 C 0.0860(8) 0.0577(6) 0.5499(2)
H62 H 0.0564 0.0468 0.5382
C73 C 0.1150(6) 0.0925(5) 0.58609(17)
H63 H 0.1050 0.1055 0.5994
C74 C 0.1715(7) 0.0910(5) 0.58489(17)
H64 H 0.2014 0.1039 0.5966
N3E N 0.1378(4) 0.4050(4) 0.55435(13)
H15E H 0.1757 0.4372 0.5589
N4E N 0.2280(4) 0.5347(4) 0.53839(14)
N5E N 0.3203(4) 0.5472(4) 0.57235(13)
H16E H 0.2796 0.5174 0.5695
N6E N 0.2287(5) 0.4183(5) 0.58902(13)
N7E N 0.0763(5) 0.0705(6) 0.43077(16)
N8E N 0.0577(6) 0.3575(7) 0.44212(16)
N9E N 0.5454(5) 0.4495(6) 0.61001(17)
N10E N 0.7360(6) 0.5230(7) 0.5166(2)
C7E C 0.1020(6) 0.4042(5) 0.53704(17)
C8E C 0.0417(5) 0.3436(5) 0.5356(2)
H17E H 0.0081 0.3326 0.5252
C9E C 0.0413(5) 0.3054(6) 0.55140(18)
H18E H 0.0081 0.2617 0.5543
C10E C 0.1002(5) 0.3428(5) 0.56322(16)
C11E C 0.1189(6) 0.3222(6) 0.58147(18)
C12E C 0.1803(5) 0.3572(5) 0.59316(15)
C13E C 0.2014(7) 0.3342(7) 0.6117(2)
H19E H 0.1767 0.2933 0.6189
C14E C 0.2602(6) 0.3800(6) 0.6167(2)
H20E H 0.2862 0.3773 0.6280
C15E C 0.2797(6) 0.4349(6) 0.60282(16)
C16E C 0.3399(6) 0.4926(6) 0.60298(17)
C17E C 0.3602(7) 0.5444(6) 0.58831(16)
C18E C 0.4241(6) 0.6015(8) 0.5876(2)
H21E H 0.4606 0.6103 0.5964
C19E C 0.4222(7) 0.6404(7) 0.5718(2)
H22E H 0.4568 0.6825 0.5679
C20E C 0.3575(5) 0.6060(5) 0.56194(17)
C21E C 0.3400(5) 0.6308(6) 0.54442(16)
C22E C 0.2818(7) 0.5960(5) 0.53340(19)
C23E C 0.2609(7) 0.6151(5) 0.5128(2)
H23E H 0.2866 0.6542 0.5048
C24E C 0.2004(6) 0.5680(5) 0.50756(17)
H24E H 0.1755 0.5690 0.4956
C25E C 0.1790(6) 0.5147(6) 0.52325(18)
C26E C 0.1196(5) 0.4574(5) 0.52254(14)
C27E C 0.0756(6) 0.2549(6) 0.58900(17)
C28E C 0.0627(5) 0.2012(6) 0.57767(18)
H25E H 0.0828 0.2067 0.5639
C29E C 0.0202(7) 0.1362(6) 0.5853(2)
C30E C -0.0112(7) 0.1280(7) 0.6050(3)
H26E H -0.0406 0.0852 0.6101
C31E C -0.0004(6) 0.1799(6) 0.6168(2)
H27E H -0.0219 0.1738 0.6303
C32E C 0.0434(7) 0.2447(7) 0.6091(2)
H28E H 0.0510 0.2813 0.6177
C33E C 0.0109(6) 0.0769(6) 0.5720(2)
H29E H -0.0213 0.0361 0.5793
H30E H -0.0070 0.0779 0.5576
C34E C 0.3903(6) 0.4973(7) 0.6189(2)
C35E C 0.4065(10) 0.5436(10) 0.6360(2)
H31E H 0.3819 0.5651 0.6381
C36E C 0.4593(8) 0.5568(10) 0.6497(3)
H32E H 0.4759 0.5932 0.6592
C37E C 0.4879(8) 0.5176(11) 0.6495(2)
H33E H 0.5187 0.5214 0.6601
C38E C 0.4684(6) 0.4729(7) 0.63278(17)
C39E C 0.4220(7) 0.4649(6) 0.61769(17)
H34E H 0.4127 0.4351 0.6061
C40E C 0.5052(7) 0.4366(8) 0.6299(3)
H35E H 0.5345 0.4466 0.6426
H36E H 0.4730 0.3892 0.6304
C41E C 0.5731(5) 0.5120(7) 0.6022(3)
H37E H 0.5650 0.5430 0.6092
C42E C 0.6117(6) 0.5296(7) 0.5845(2)
H38E H 0.6322 0.5731 0.5792
C43E C 0.6212(5) 0.4799(6) 0.5738(2)
C44E C 0.5892(7) 0.4162(7) 0.5832(2)
H39E H 0.5938 0.3821 0.5768
C45E C 0.5534(7) 0.4044(6) 0.6007(3)
H40E H 0.5326 0.3617 0.6068
C46E C 0.6596(7) 0.4932(7) 0.5535(2)
C47E C 0.6699(7) 0.5462(7) 0.5395(3)
H41E H 0.6488 0.5705 0.5427
C48E C 0.7080(8) 0.5621(8) 0.5222(3)
H42E H 0.7165 0.5990 0.5136
C49E C 0.7267(7) 0.4744(8) 0.5290(3)
H43E H 0.7457 0.4489 0.5247
C50E C 0.6909(7) 0.4577(7) 0.5480(3)
H44E H 0.6876 0.4236 0.5571
C51E C 0.3879(7) 0.6958(6) 0.53533(19)
C52E C 0.3756(8) 0.7461(7) 0.5392(3)
H45E H 0.3367 0.7381 0.5464
C53E C 0.4206(11) 0.8084(8) 0.5324(3)
H46E H 0.4158 0.8445 0.5366
C54E C 0.4716(11) 0.8185(7) 0.5198(3)
H47E H 0.4976 0.8599 0.5131
C55E C 0.4865(8) 0.7688(7) 0.5164(3)
C56E C 0.4415(7) 0.7071(6) 0.5241(2)
H48E H 0.4487 0.6716 0.5213
C57E C 0.5430(8) 0.7786(7) 0.5033(3)
H49E H 0.5717 0.7688 0.5124
H50E H 0.5686 0.8250 0.4989
C58E C 0.0706(7) 0.4470(6) 0.50539(19)
C59E C 0.0158(8) 0.4528(8) 0.5099(2)
H51E H 0.0081 0.4619 0.5243
C60E C -0.0267(14) 0.4454(18) 0.4938(4)
H52E H -0.0631 0.4507 0.4971
C61E C -0.0184(7) 0.4300(12) 0.4721(3)
H53E H -0.0497 0.4221 0.4611
C62E C 0.0399(6) 0.4272(7) 0.4678(2)
C63E C 0.0818(5) 0.4368(6) 0.48326(19)
H54E H 0.1211 0.4372 0.4797
C64E C 0.0492(7) 0.4145(7) 0.44469(19)
H55E H 0.0106 0.4075 0.4362
H56E H 0.0881 0.4535 0.4388
C65E C 0.0099(6) 0.2993(7) 0.45210(19)
H57E H -0.0258 0.2982 0.4596
C66E C 0.0157(5) 0.2431(5) 0.45078(16)
H58E H -0.0130 0.2045 0.4586
C67E C 0.0656(6) 0.2458(6) 0.43744(16)
C68E C 0.1065(6) 0.3019(6) 0.42657(16)
H59E H 0.1382 0.3027 0.4169
C69E C 0.1024(7) 0.3563(8) 0.4295(2)
H60E H 0.1327 0.3953 0.4222
C70E C 0.0685(5) 0.1830(7) 0.43549(18)
C71E C 0.0542(5) 0.1407(8) 0.45320(17)
H61E H 0.0424 0.1502 0.4669
C72E C 0.0577(6) 0.0860(8) 0.4501(2)
H62E H 0.0468 0.0564 0.4618
C73E C 0.0925(5) 0.1150(6) 0.41391(17)
H63E H 0.1055 0.1050 0.4006
C74E C 0.0910(5) 0.1715(7) 0.41511(17)
H64E H 0.1039 0.2014 0.4034
N11 N 0.1979(5) 0.7283(5) 0.75194(16)
H65 H 0.2235 0.7548 0.7417
N12 N 0.2759(4) 0.7127(4) 0.71757(16)
N13 N 0.3040(4) 0.8394(4) 0.70104(17)
H66 H 0.2870 0.8185 0.7132
N14 N 0.2321(4) 0.8563(4) 0.73605(16)
N15 N 0.2958(7) 0.6585(8) 0.60360(17)
N16 N -0.0088(10) 0.3764(9) 0.5958(3)
N17 N 0.2041(6) 1.0360(5) 0.6462(2)
N18 N 0.0818(6) 0.8362(6) 0.55556(19)
C75 C 0.1849(6) 0.6666(6) 0.75627(19)
C76 C 0.1408(7) 0.6402(6) 0.7737(2)
H67 H 0.1232 0.5970 0.7791
C77 C 0.1265(8) 0.6878(8) 0.7818(2)
H68 H 0.1004 0.6857 0.7938
C78 C 0.1626(6) 0.7401(6) 0.76679(19)
C79 C 0.1640(5) 0.8036(6) 0.76714(18)
C80 C 0.1948(6) 0.8541(6) 0.75302(19)
C81 C 0.1888(10) 0.9097(8) 0.7534(2)
H69 H 0.1635 0.9185 0.7634
C82 C 0.2260(8) 0.9499(6) 0.7367(2)
H70 H 0.2319 0.9919 0.7335
C83 C 0.2548(6) 0.9171(6) 0.7248(2)
C84 C 0.2883(6) 0.9343(5) 0.7067(3)
C85 C 0.3115(5) 0.8999(6) 0.6940(2)
C86 C 0.3418(7) 0.9182(6) 0.6737(3)
H71 H 0.3523 0.9570 0.6659
C87 C 0.3536(7) 0.8693(7) 0.6670(3)
H72 H 0.3735 0.8684 0.6537
C88 C 0.3308(5) 0.8203(6) 0.68345(19)
C89 C 0.3365(5) 0.7643(6) 0.6843(2)
C90 C 0.3109(5) 0.7176(6) 0.69955(19)
C91 C 0.3144(7) 0.6580(8) 0.6981(2)
H73 H 0.3365 0.6474 0.6873
C92 C 0.2790(8) 0.6198(8) 0.7154(3)
H74 H 0.2726 0.5776 0.7186
C93 C 0.2528(7) 0.6541(6) 0.7282(2)
C94 C 0.2117(6) 0.6326(6) 0.74482(18)
C95 C 0.1197(7) 0.8082(7) 0.78414(19)
C96 C 0.1516(8) 0.8550(8) 0.8011(2)
H75 H 0.1977 0.8833 0.8015
C97 C 0.1116(13) 0.8561(13) 0.8165(3)
H76 H 0.1316 0.8826 0.8289
C98 C 0.0467(10) 0.8232(11) 0.8159(3)
H77 H 0.0223 0.8323 0.8262
C99 C 0.0147(8) 0.7761(10) 0.8004(3)
C100 C 0.0557(8) 0.7722(8) 0.7843(2)
H78 H 0.0354 0.7416 0.7729
C101 C -0.0591(8) 0.7385(10) 0.7984(3)
H79 H -0.0747 0.6910 0.7989
H80 H -0.0784 0.7492 0.8109
C102 C 0.3044(8) 1.0018(8) 0.6995(4)
C103 C 0.3638(11) 1.0559(7) 0.7054(6)
H81 H 0.3894 1.0523 0.7166
C104 C 0.3851(13) 1.1146(10) 0.6949(7)
H82 H 0.4302 1.1468 0.6950
C105 C 0.3406(13) 1.1268(10) 0.6840(8)
H83 H 0.3501 1.1703 0.6813
C106 C 0.2814(6) 1.0731(5) 0.6771(3)
C107 C 0.2637(6) 1.0124(5) 0.68598(18)
H84 H 0.2218 0.9765 0.6827
C108 C 0.2359(9) 1.0852(8) 0.6637(3)
H85 H 0.2017 1.0845 0.6731
H86 H 0.2605 1.1293 0.6571
C109 C 0.2474(7) 1.0279(6) 0.6333(3)
H87 H 0.2928 1.0514 0.6366
C110 C 0.2253(6) 0.9857(6) 0.6156(2)
H88 H 0.2542 0.9775 0.6072
C111 C 0.1574(8) 0.9555(7) 0.6106(2)
C112 C 0.1175(7) 0.9681(6) 0.6241(2)
H89 H 0.0720 0.9481 0.6212
C113 C 0.1418(8) 1.0057(6) 0.6400(3)
H90 H 0.1127 1.0134 0.6484
C114 C 0.1320(7) 0.9136(7) 0.5912(2)
C115 C 0.1548(9) 0.8740(7) 0.5848(3)
H91 H 0.1885 0.8735 0.5930
C116 C 0.1317(12) 0.8346(9) 0.5669(4)
H92 H 0.1488 0.8075 0.5626
C117 C 0.0557(7) 0.8730(7) 0.5622(3)
H93 H 0.0199 0.8715 0.5547
C118 C 0.0814(7) 0.9114(6) 0.5795(2)
H94 H 0.0639 0.9382 0.5839
C119 C 0.3741(6) 0.7549(8) 0.6664(2)
C120 C 0.4351(9) 0.7597(10) 0.6705(3)
H95 H 0.4508 0.7664 0.6850
C121 C 0.4724(9) 0.7552(13) 0.6545(3)
H96 H 0.5163 0.7657 0.6569
C122 C 0.4413(8) 0.7334(10) 0.6336(3)
H97 H 0.4602 0.7188 0.6229
C123 C 0.3883(9) 0.7339(11) 0.6294(3)
C124 C 0.3522(8) 0.7432(8) 0.6456(2)
H98 H 0.3122 0.7415 0.6420
C125 C 0.3633(11) 0.7208(12) 0.6055(3)
H99 H 0.3604 0.7587 0.6001
H100 H 0.3951 0.7160 0.5964
C126 C 0.2835(15) 0.6050(13) 0.6155(3)
H101 H 0.3166 0.6077 0.6250
C127 C 0.2245(12) 0.5466(12) 0.6144(3)
H102 H 0.2165 0.5105 0.6233
C128 C 0.1767(13) 0.5423(14) 0.5997(2)
C129 C 0.1896(12) 0.5980(10) 0.5875(4)
H103 H 0.1585 0.5983 0.5778
C130 C 0.2505(13) 0.6522(14) 0.5907(3)
H104 H 0.2602 0.6895 0.5822
C131 C 0.1087(12) 0.4799(14) 0.5985(4)
C132 C 0.0874(12) 0.4391(13) 0.6156(3)
H105 H 0.1144 0.4458 0.6278
C133 C 0.0227(14) 0.3856(13) 0.6144(4)
H106 H 0.0027 0.3574 0.6264
C134 C 0.0151(14) 0.4169(15) 0.5784(4)
H107 H -0.0091 0.4056 0.5653
C135 C 0.0700(11) 0.4700(11) 0.5796(3)
H108 H 0.0845 0.5017 0.5683
C136 C 0.1912(7) 0.5643(6) 0.7529(2)
C137 C 0.2212(14) 0.5575(9) 0.7710(4)
H109 H 0.2484 0.5943 0.7798
C138 C 0.211(2) 0.4969(10) 0.7762(7)
H110 H 0.2419 0.4928 0.7851
C139 C 0.1585(16) 0.4431(10) 0.7686(3)
H111 H 0.1456 0.4020 0.7752
C140 C 0.1226(11) 0.4463(8) 0.7514(3)
C141 C 0.1453(7) 0.5086(6) 0.7425(2)
H112 H 0.1285 0.5125 0.7289
C142 C 0.0666(18) 0.3844(8) 0.7397(4)
H113 H 0.0821 0.3810 0.7251
H114 H 0.0578 0.3448 0.7479
N11D N -0.1979(5) 0.5304(7) 0.58139(16)
H65D H -0.2235 0.5313 0.5916
N12D N -0.2759(4) 0.4368(6) 0.61576(16)
N13D N -0.3040(4) 0.5354(6) 0.63229(17)
H66D H -0.2870 0.5315 0.6201
N14D N -0.2321(4) 0.6242(6) 0.59728(16)
N15D N -0.2958(7) 0.3627(11) 0.72973(17)
N16D N 0.0088(10) 0.3852(13) 0.7375(3)
N17D N -0.2041(6) 0.8319(8) 0.6871(2)
N18D N -0.0818(6) 0.7544(8) 0.77777(19)
C75D C -0.1849(6) 0.4817(8) 0.57706(19)
C76D C -0.1408(7) 0.4994(9) 0.5596(2)
H67D H -0.1232 0.4738 0.5542
C77D C -0.1265(8) 0.5613(11) 0.5515(2)
H68D H -0.1004 0.5853 0.5395
C78D C -0.1626(6) 0.5775(8) 0.56654(19)
C79D C -0.1640(5) 0.6396(8) 0.56619(18)
C80D C -0.1948(6) 0.6593(8) 0.58031(19)
C81D C -0.1888(10) 0.7209(13) 0.5799(2)
H69D H -0.1635 0.7550 0.5699
C82D C -0.2260(8) 0.7239(10) 0.5966(2)
H70D H -0.2319 0.7600 0.5998
C83D C -0.2548(6) 0.6623(8) 0.6085(2)
C84D C -0.2883(6) 0.6460(8) 0.6266(3)
C85D C -0.3115(5) 0.5884(8) 0.6393(2)
C86D C -0.3418(7) 0.5764(9) 0.6596(3)
H71D H -0.3523 0.6047 0.6674
C87D C -0.3536(7) 0.5157(10) 0.6663(3)
H72D H -0.3735 0.4949 0.6796
C88D C -0.3308(5) 0.4895(8) 0.64988(19)
C89D C -0.3365(5) 0.4278(8) 0.6490(2)
C90D C -0.3109(5) 0.4067(8) 0.63378(19)
C91D C -0.3144(7) 0.3436(11) 0.6352(2)
H73D H -0.3365 0.3109 0.6460
C92D C -0.2790(8) 0.3408(11) 0.6179(3)
H74D H -0.2726 0.3050 0.6147
C93D C -0.2528(7) 0.4013(9) 0.6051(2)
C94D C -0.2117(6) 0.4209(8) 0.58851(18)
C95D C -0.1197(7) 0.6885(10) 0.54919(19)
C96D C -0.1516(8) 0.7034(11) 0.5322(2)
H75D H -0.1977 0.6856 0.5318
C97D C -0.1116(13) 0.7445(18) 0.5168(3)
H76D H -0.1316 0.7510 0.5044
C98D C -0.0467(10) 0.7765(15) 0.5174(3)
H77D H -0.0223 0.8100 0.5071
C99D C -0.0147(8) 0.7614(13) 0.5329(3)
C100D C -0.0557(8) 0.7165(11) 0.5490(2)
H78D H -0.0354 0.7062 0.5604
C101D C 0.0591(8) 0.7976(13) 0.5349(3)
H79D H 0.0747 0.7657 0.5344
H80D H 0.0784 0.8276 0.5224
C102D C -0.3044(8) 0.6974(11) 0.6338(4)
C103D C -0.3638(11) 0.6921(13) 0.6279(6)
H81D H -0.3894 0.6629 0.6167
C104D C -0.3851(13) 0.7295(16) 0.6384(7)
H82D H -0.4302 0.7166 0.6383
C105D C -0.3406(13) 0.7862(16) 0.6493(8)
H83D H -0.3501 0.8202 0.6520
C106D C -0.2814(6) 0.7917(8) 0.6562(3)
C107D C -0.2637(6) 0.7487(8) 0.64735(18)
H84D H -0.2218 0.7547 0.6506
C108D C -0.2359(9) 0.8493(12) 0.6696(3)
H85D H -0.2017 0.8828 0.6602
H86D H -0.2605 0.8688 0.6762
C109D C -0.2474(7) 0.7805(9) 0.7000(3)
H87D H -0.2928 0.7586 0.6967
C110D C -0.2253(6) 0.7604(8) 0.7177(2)
H88D H -0.2542 0.7233 0.7261
C111D C -0.1574(8) 0.7981(11) 0.7227(2)
C112D C -0.1175(7) 0.8506(9) 0.7092(2)
H89D H -0.0720 0.8761 0.7121
C113D C -0.1418(8) 0.8639(10) 0.6933(3)
H90D H -0.1127 0.9007 0.6849
C114D C -0.1320(7) 0.7816(10) 0.7421(2)
C115D C -0.1548(9) 0.7192(11) 0.7485(3)
H91D H -0.1885 0.6850 0.7403
C116D C -0.1317(12) 0.7029(15) 0.7664(4)
H92D H -0.1488 0.6587 0.7707
C117D C -0.0557(7) 0.8173(10) 0.7711(3)
H93D H -0.0199 0.8516 0.7786
C118D C -0.0814(7) 0.8300(9) 0.7538(2)
H94D H -0.0639 0.8743 0.7494
C119D C -0.3741(6) 0.3808(10) 0.6669(2)
C120D C -0.4351(9) 0.3246(13) 0.6628(3)
H95D H -0.4508 0.3156 0.6483
C121D C -0.4724(9) 0.2828(16) 0.6788(3)
H96D H -0.5163 0.2494 0.6764
C122D C -0.4413(8) 0.2921(13) 0.6997(3)
H97D H -0.4602 0.2586 0.7104
C123D C -0.3883(9) 0.3456(14) 0.7039(3)
C124D C -0.3522(8) 0.3910(11) 0.6877(2)
H98D H -0.3122 0.4293 0.6913
C125D C -0.3633(11) 0.3575(16) 0.7278(3)
H99D H -0.3604 0.3983 0.7332
H100D H -0.3951 0.3209 0.7369
C126D C -0.2835(15) 0.3215(20) 0.7178(3)
H101D H -0.3166 0.2911 0.7083
C127D C -0.2245(12) 0.3221(17) 0.7189(3)
H102D H -0.2165 0.2940 0.7100
C128D C -0.1767(13) 0.3656(19) 0.7336(2)
C129D C -0.1896(12) 0.4084(16) 0.7458(4)
H103D H -0.1585 0.4398 0.7555
C130D C -0.2505(13) 0.4017(19) 0.7426(3)
H104D H -0.2602 0.4293 0.7511
C131D C -0.1087(12) 0.3712(18) 0.7348(4)
C132D C -0.0874(12) 0.3517(18) 0.7177(3)
H105D H -0.1144 0.3314 0.7055
C133D C -0.0227(14) 0.3629(19) 0.7189(4)
H106D H -0.0027 0.3547 0.7069
C134D C -0.0151(14) 0.4018(21) 0.7549(4)
H107D H 0.0091 0.4147 0.7680
C135D C -0.0700(11) 0.4000(16) 0.7537(3)
H108D H -0.0845 0.4172 0.7650
C136D C -0.1912(7) 0.3731(9) 0.5804(2)
C137D C -0.2212(14) 0.3363(17) 0.5623(4)
H109D H -0.2484 0.3459 0.5535
C138D C -0.211(2) 0.2859(22) 0.5571(7)
H110D H -0.2419 0.2509 0.5482
C139D C -0.1585(16) 0.2846(19) 0.5647(3)
H111D H -0.1456 0.2564 0.5581
C140D C -0.1226(11) 0.3237(14) 0.5819(3)
C141D C -0.1453(7) 0.3633(9) 0.5908(2)
H112D H -0.1285 0.3840 0.6044
C142D C -0.0666(18) 0.3178(20) 0.5936(4)
H113D H -0.0821 0.2989 0.6082
H114D H -0.0578 0.2870 0.5854
C143 C -0.1164(15) 0.6426(12) 0.7094(6)
C144 C -0.1080(18) 0.7014(13) 0.6986(6)
C145 C -0.0452(11) 0.7579(10) 0.7049(3)
C146 C -0.0171(9) 0.7288(10) 0.7188(4)
C147 C -0.0582(10) 0.6617(10) 0.7221(5)
C148 C -0.140(2) 0.5839(14) 0.6990(6)
C149 C -0.132(2) 0.6939(15) 0.6778(5)
C150 C -0.0137(10) 0.8063(13) 0.6900(4)
C151 C 0.0474(9) 0.7529(10) 0.7180(4)
C152 C -0.0368(9) 0.6163(10) 0.7247(5)
C153 C -0.174(2) 0.5718(16) 0.6781(5)
C154 C -0.164(2) 0.6294(15) 0.6686(5)
C155 C -0.0955(16) 0.7448(15) 0.6620(5)
C156 C -0.0365(12) 0.7982(17) 0.6675(4)
C157 C 0.0560(11) 0.8280(13) 0.6892(3)
C158 C 0.0857(9) 0.8040(10) 0.7026(3)
C159 C 0.0718(7) 0.7076(7) 0.7201(3)
C160 C 0.0330(7) 0.6433(7) 0.7247(2)
C161 C -0.0691(11) 0.5530(13) 0.7142(5)
C162 C -0.1267(11) 0.5324(10) 0.7022(4)
C163 C -0.166(2) 0.5187(19) 0.6683(5)
C164 C -0.1466(19) 0.6398(15) 0.6460(5)
C165 C -0.1077(19) 0.7094(15) 0.6418(5)
C166 C 0.0195(13) 0.8230(19) 0.6534(4)
C167 C 0.0752(12) 0.8416(17) 0.6670(4)
C168 C 0.1379(8) 0.7959(7) 0.6944(3)
C169 C 0.1265(9) 0.7390(8) 0.7057(3)
C170 C 0.0511(9) 0.5964(9) 0.7166(3)
C171 C -0.0099(12) 0.5475(19) 0.7077(6)
C172 C -0.1396(13) 0.4903(13) 0.6841(4)
C173 C -0.130(3) 0.544(2) 0.6489(6)
C174 C -0.1457(15) 0.5855(15) 0.6357(5)
C175 C -0.0537(15) 0.7356(16) 0.6272(6)
C176 C 0.0092(14) 0.790(2) 0.6333(5)
C177 C 0.1280(12) 0.8353(13) 0.6588(4)
C178 C 0.1589(9) 0.8094(9) 0.6726(3)
C179 C 0.1470(8) 0.6960(8) 0.6968(3)
C180 C 0.1112(8) 0.6280(7) 0.7033(2)
C181 C -0.0203(12) 0.5082(18) 0.6889(5)
C182 C -0.0821(15) 0.485(2) 0.6774(5)
C183 C -0.113(2) 0.498(2) 0.6409(5)
C184 C -0.099(2) 0.6134(17) 0.6188(7)
C185 C -0.0598(17) 0.6811(15) 0.6150(7)
C186 C 0.0657(16) 0.794(2) 0.6235(6)
C187 C 0.1205(16) 0.8118(16) 0.6371(4)
C188 C 0.1796(14) 0.7673(11) 0.6632(3)
C189 C 0.1743(6) 0.7135(7) 0.6753(2)
C190 C 0.1030(13) 0.5797(11) 0.6867(3)
C191 C 0.0401(12) 0.5277(18) 0.6778(4)
C192 C -0.0816(15) 0.471(2) 0.6550(4)
C193 C -0.0754(16) 0.5233(18) 0.6208(5)
C194 C -0.0696(19) 0.5775(17) 0.6095(7)
C195 C 0.0015(16) 0.6901(16) 0.6064(9)
C196 C 0.0591(16) 0.7460(18) 0.6077(7)
C197 C 0.1557(19) 0.7836(17) 0.6267(5)
C198 C 0.172(2) 0.7510(17) 0.6412(4)
C199 C 0.1658(9) 0.6605(9) 0.6616(3)
C200 C 0.1346(13) 0.5967(10) 0.6659(3)
C201 C 0.0351(11) 0.5043(12) 0.6557(4)
C202 C -0.0234(11) 0.4825(12) 0.6424(4)
C203 C -0.0174(11) 0.5204(9) 0.6235(3)
C204 C -0.0090(16) 0.6262(16) 0.6001(8)
C205 C 0.1168(18) 0.7392(16) 0.6093(6)
C206 C 0.175(2) 0.6911(14) 0.6395(4)
C207 C 0.0965(12) 0.5571(11) 0.6474(3)
C208 C 0.0426(12) 0.5718(12) 0.6180(5)
C209 C 0.0478(16) 0.6212(15) 0.6031(7)
C210 C 0.1066(19) 0.6762(14) 0.6095(8)
C211 C 0.1436(17) 0.6537(14) 0.6216(5)
C212 C 0.0981(14) 0.5896(13) 0.6295(4)
C143D C 0.1164(15) 0.7590(19) 0.6239(6)
C144D C 0.1080(18) 0.8094(22) 0.6347(6)
C145D C 0.0452(11) 0.8031(15) 0.6284(3)
C146D C 0.0171(9) 0.7459(13) 0.6145(4)
C147D C 0.0582(10) 0.7199(14) 0.6112(5)
C148D C 0.140(2) 0.7239(24) 0.6343(6)
C149D C 0.132(2) 0.8259(25) 0.6555(5)
C150D C 0.0137(10) 0.8200(16) 0.6433(4)
C151D C -0.0474(9) 0.7055(13) 0.6153(4)
C152D C 0.0368(9) 0.6531(13) 0.6086(5)
C153D C 0.174(2) 0.7458(26) 0.6552(5)
C154D C 0.164(2) 0.7934(25) 0.6647(5)
C155D C 0.0955(16) 0.8403(22) 0.6713(5)
C156D C 0.0365(12) 0.8347(21) 0.6658(4)
C157D C -0.0560(11) 0.7720(17) 0.6441(3)
C158D C -0.0857(9) 0.7183(13) 0.6307(3)
C159D C -0.0718(7) 0.6358(10) 0.6132(3)
C160D C -0.0330(7) 0.6103(10) 0.6086(2)
C161D C 0.0691(11) 0.6221(17) 0.6191(5)
C162D C 0.1267(11) 0.6591(15) 0.6311(4)
C163D C 0.166(2) 0.6847(28) 0.6650(5)
C164D C 0.1466(19) 0.7864(24) 0.6873(5)
C165D C 0.1077(19) 0.8171(24) 0.6915(5)
C166D C -0.0195(13) 0.8035(23) 0.6799(4)
C167D C -0.0752(12) 0.7664(21) 0.6663(4)
C168D C -0.1379(8) 0.6580(11) 0.6389(3)
C169D C -0.1265(9) 0.6125(12) 0.6276(3)
C170D C -0.0511(9) 0.5453(13) 0.6167(3)
C171D C 0.0099(12) 0.5574(22) 0.6256(6)
C172D C 0.1396(13) 0.6299(18) 0.6492(4)
C173D C 0.130(3) 0.674(4) 0.6844(6)
C174D C 0.1457(15) 0.7312(21) 0.6976(5)
C175D C 0.0537(15) 0.7893(22) 0.7061(6)
C176D C -0.0092(14) 0.7808(24) 0.7000(5)
C177D C -0.1280(12) 0.7073(18) 0.6745(4)
C178D C -0.1589(9) 0.6505(13) 0.6607(3)
C179D C -0.1470(8) 0.5490(11) 0.6365(3)
C180D C -0.1112(8) 0.5168(11) 0.6300(2)
C181D C 0.0203(12) 0.5285(22) 0.6444(5)
C182D C 0.0821(15) 0.5671(25) 0.6559(5)
C183D C 0.113(2) 0.611(3) 0.6924(5)
C184D C 0.099(2) 0.7124(26) 0.7145(7)
C185D C 0.0598(17) 0.7409(23) 0.7183(7)
C186D C -0.0657(16) 0.7283(26) 0.7098(6)
C187D C -0.1205(16) 0.6913(23) 0.6962(4)
C188D C -0.1796(14) 0.5877(18) 0.6701(3)
C189D C -0.1743(6) 0.5392(9) 0.6580(2)
C190D C -0.1030(13) 0.4767(17) 0.6466(3)
C191D C -0.0401(12) 0.4876(22) 0.6555(4)
C192D C 0.0816(15) 0.5526(25) 0.6783(4)
C193D C 0.0754(16) 0.5987(24) 0.7125(5)
C194D C 0.0696(19) 0.6471(25) 0.7238(7)
C195D C -0.0015(16) 0.6886(23) 0.7269(9)
C196D C -0.0591(16) 0.6869(24) 0.7256(7)
C197D C -0.1557(19) 0.6279(25) 0.7066(5)
C198D C -0.172(2) 0.5790(26) 0.6921(4)
C199D C -0.1658(9) 0.4947(13) 0.6717(3)
C200D C -0.1346(13) 0.4621(16) 0.6674(3)
C201D C -0.0351(11) 0.4692(16) 0.6776(4)
C202D C 0.0234(11) 0.5059(16) 0.6909(4)
C203D C 0.0174(11) 0.5378(14) 0.7098(3)
C204D C 0.0090(16) 0.6352(23) 0.7332(8)
C205D C -0.1168(18) 0.6224(24) 0.7240(6)
C206D C -0.175(2) 0.5161(24) 0.6938(4)
C207D C -0.0965(12) 0.4606(16) 0.6859(3)
C208D C -0.0426(12) 0.5292(17) 0.7153(5)
C209D C -0.0478(16) 0.5734(22) 0.7302(7)
C210D C -0.1066(19) 0.5696(24) 0.7238(8)
C211D C -0.1436(17) 0.5101(22) 0.7117(5)
C212D C -0.0981(14) 0.4915(19) 0.7038(4)
P1 P 0.1178(3) 0.9630(2) 0.49068(6)
F1 F 0.1514(6) 0.9940(9) 0.46895(17)
F2 F 0.0828(10) 0.9320(5) 0.51328(19)
F3 F 0.1854(6) 1.0091(7) 0.50359(15)
F4 F 0.1316(16) 0.9063(14) 0.4876(2)
F5 F 0.0492(8) 0.9210(7) 0.4777(2)
F6 F 0.0998(7) 1.0201(6) 0.49480(17)
H115? H 0.5117 0.2259 0.4501
H116? H 0.4439 0.2276 0.4211
C213? C 0.3739(15) 1.0456(14) 0.6911(7)
H117? H 0.4055 1.0438 0.7002
C214? C 0.395(2) 1.100(2) 0.6774(9)
H118? H 0.4357 1.1211 0.6701
C215? C 0.3482(11) 1.1205(19) 0.6758(13)
H119? H 0.3615 1.1654 0.6738
C216? C 0.3094(13) 0.9939(15) 0.6922(6)
H120? H 0.2185 0.9819 0.6879
H121? H 0.2688 0.7440 0.7220
H122? H 0.2410 0.8255 0.7325
C217? C 0.2401(4) 0.2805(4) 0.55813(12)
C218? C 0.3012(5) 0.2919(4) 0.56670(10)
C219? C 0.3135(5) 0.2415(4) 0.55882(11)
C220? C 0.2596(5) 0.1989(3) 0.54491(13)
C221? C 0.2142(4) 0.2230(4) 0.54449(14)
C222? C 0.2323(4) 0.3329(5) 0.55150(14)
C223? C 0.3534(5) 0.3562(4) 0.56898(9)
C224? C 0.3777(5) 0.2580(4) 0.55320(11)
C225? C 0.2711(5) 0.1736(3) 0.52613(14)
C226? C 0.1823(3) 0.2203(4) 0.52504(15)
C227? C 0.2861(5) 0.3992(4) 0.55358(13)
C228? C 0.3445(5) 0.4104(4) 0.56218(11)
C229? C 0.4185(5) 0.3720(4) 0.56316(9)
C230? C 0.4302(5) 0.3236(4) 0.55550(10)
C231? C 0.3887(5) 0.2317(4) 0.53370(12)
C232? C 0.3372(5) 0.1900(3) 0.52065(13)
C233? C 0.2383(4) 0.1713(3) 0.50641(14)
C234? C 0.1952(4) 0.1945(3) 0.50582(15)
C235? C 0.1751(3) 0.2753(5) 0.51853(16)
C236? C 0.1995(4) 0.3297(5) 0.53126(16)
C237? C 0.2851(5) 0.4365(4) 0.53523(14)
C238? C 0.4064(5) 0.4599(4) 0.55263(11)
C239? C 0.4510(4) 0.4365(4) 0.55325(11)
C240? C 0.4751(4) 0.3379(4) 0.53762(12)
C241? C 0.4498(4) 0.2816(4) 0.52426(13)
C242? C 0.3436(5) 0.1971(3) 0.49720(13)
C243? C 0.2845(5) 0.1862(3) 0.48851(13)
C244? C 0.1948(3) 0.2327(4) 0.48738(15)
C245? C 0.1823(3) 0.2821(5) 0.49534(16)
C246? C 0.2326(4) 0.3944(5) 0.52141(16)
C247? C 0.3450(5) 0.4888(4) 0.52657(14)
C248? C 0.4063(5) 0.5004(3) 0.53556(13)
C249? C 0.4984(4) 0.4523(4) 0.53676(13)
C250? C 0.5104(3) 0.4018(4) 0.52864(13)
C251? C 0.4593(4) 0.2858(4) 0.50162(13)
C252? C 0.4051(5) 0.2428(3) 0.48776(12)
C253? C 0.2819(5) 0.2194(3) 0.46983(12)
C254? C 0.2356(4) 0.2429(4) 0.46914(13)
C255? C 0.2100(4) 0.3436(5) 0.48519(15)
C256? C 0.2360(4) 0.4018(5) 0.49865(16)
C257? C 0.3425(5) 0.5043(4) 0.50456(15)
C258? C 0.4629(4) 0.5276(3) 0.52195(14)
C259? C 0.5082(4) 0.5029(3) 0.52251(14)
C260? C 0.5323(3) 0.4054(4) 0.50673(14)
C261? C 0.5066(4) 0.3487(4) 0.49350(14)
C262? C 0.4012(5) 0.2652(4) 0.46680(11)
C263? C 0.3415(5) 0.2536(4) 0.45806(10)
C264? C 0.2512(4) 0.2996(4) 0.45670(12)
C265? C 0.2395(4) 0.3488(5) 0.46451(14)
C266? C 0.2899(5) 0.4623(4) 0.49079(16)
C267? C 0.4017(5) 0.5360(3) 0.49156(15)
C268? C 0.4601(4) 0.5469(3) 0.50003(15)
C269? C 0.5332(3) 0.5080(3) 0.50088(15)
C270? C 0.5453(3) 0.4604(4) 0.49311(15)
C271? C 0.5031(4) 0.3675(4) 0.47164(13)
C272? C 0.4529(5) 0.3278(4) 0.45860(11)
C273? C 0.3540(5) 0.3086(4) 0.44415(9)
C274? C 0.3105(5) 0.3303(4) 0.44347(10)
C275? C 0.2900(5) 0.4114(5) 0.45622(13)
C276? C 0.3141(5) 0.4661(4) 0.46898(14)
C277? C 0.3844(5) 0.5135(4) 0.46959(14)
C278? C 0.5048(4) 0.5362(3) 0.48680(15)
C279? C 0.5284(4) 0.4379(4) 0.47122(14)
C280? C 0.4228(5) 0.3541(4) 0.44423(10)
C281? C 0.3336(5) 0.4011(5) 0.44311(11)
C282? C 0.4259(5) 0.5023(4) 0.45670(13)
C283? C 0.4879(4) 0.5147(3) 0.46571(14)
C284? C 0.5001(4) 0.4633(4) 0.45754(13)
C285? C 0.4459(5) 0.4210(4) 0.44383(10)
C286? C 0.4004(5) 0.4446(4) 0.44334(11)
loop_
_geom_bond_atom_site_label_1
_geom_bond_atom_site_label_2
_geom_bond_site_symmetry_1
_geom_bond_site_symmetry_2
P1 F1 1_555 1_555
F2 P1 1_555 1_555
F3 P1 1_555 1_555
F4 P1 1_555 1_555
F5 P1 1_555 1_555
F6 P1 1_555 1_555
P2 F7 1_555 1_555
F8 P2 1_555 1_555
F9 P2 1_555 1_555
F10 P2 1_555 1_555
F11 P2 1_555 1_555
F12 P2 1_555 1_555
P3 F13 1_555 1_555
F14 P3 1_555 1_555
F15 P3 1_555 1_555
F16 P3 1_555 1_555
P4 F17 1_555 1_555
F18 P4 1_555 1_555
F19 P4 1_555 1_555
F20 P4 1_555 1_555
F21 P4 1_555 1_555
F22 P4 1_555 1_555
P5 F23 1_555 1_555
F24 P5 1_555 1_555
F25 P5 1_555 1_555
F26 P5 1_555 1_555
F27 P5 1_555 1_555
F28 P5 1_555 1_555
P6 F29 1_555 1_555
F30 P6 1_555 1_555
F31 P6 1_555 1_555
F32 P6 1_555 1_555
F33 P6 1_555 1_555
F34 P6 1_555 1_555
P7 F35 1_555 1_555
F36 P7 1_555 1_555
F37 P7 1_555 1_555
F38 P7 1_555 1_555
F39 P7 1_555 1_555
F40 P7 1_555 1_555
P8 F41 1_555 1_555
F42 P8 1_555 1_555
F43 P8 1_555 1_555
F44 P8 1_555 1_555
F45 P8 1_555 1_555
F46 P8 1_555 1_555
P9 F47 1_555 1_555
F48 P9 1_555 1_555
F49 P9 1_555 1_555
F50 P9 1_555 1_555
F51 P9 1_555 1_555
F52 P9 1_555 1_555
O1 C1 1_555 1_555
N1 C1 1_555 1_555
C1 H1 1_555 1_555
C2 N1 1_555 1_555
H2 C2 1_555 1_555
H3 C2 1_555 1_555
H4 C2 1_555 1_555
C3 N1 1_555 1_555
H5 C3 1_555 1_555
H6 C3 1_555 1_555
H7 C3 1_555 1_555
O2 C4 1_555 1_555
N2 C4 1_555 1_555
C4 H8 1_555 1_555
C5 N2 1_555 1_555
H9 C5 1_555 1_555
H10 C5 1_555 1_555
H11 C5 1_555 1_555
C6 N2 1_555 1_555
H12 C6 1_555 1_555
H13 C6 1_555 1_555
H14 C6 1_555 1_555
N3 H15 1_555 1_555
N4 C22 1_555 1_555
N5 H16 1_555 1_555
N6 C12 1_555 1_555
N7 C72 1_555 1_555
N8 C64 1_555 1_555
N9 C40 1_555 1_555
N10 C48 1_555 1_555
C7 N3 1_555 1_555
C8 C7 1_555 1_555
H17 C8 1_555 1_555
C9 C8 1_555 1_555
H18 C9 1_555 1_555
C10 N3 1_555 1_555
C11 C10 1_555 1_555
C12 C11 1_555 1_555
C13 C12 1_555 1_555
H19 C13 1_555 1_555
C14 C13 1_555 1_555
H20 C14 1_555 1_555
C15 N6 1_555 1_555
C16 C15 1_555 1_555
C17 N5 1_555 1_555
C18 C17 1_555 1_555
H21 C18 1_555 1_555
C19 C18 1_555 1_555
H22 C19 1_555 1_555
C20 N5 1_555 1_555
C21 C20 1_555 1_555
C22 C21 1_555 1_555
C23 C22 1_555 1_555
H23 C23 1_555 1_555
C24 C23 1_555 1_555
H24 C24 1_555 1_555
C25 N4 1_555 1_555
C26 C7 1_555 1_555
C27 C11 1_555 1_555
C28 C27 1_555 1_555
H25 C28 1_555 1_555
C29 C28 1_555 1_555
C30 C29 1_555 1_555
H26 C30 1_555 1_555
C31 C30 1_555 1_555
H27 C31 1_555 1_555
C32 C27 1_555 1_555
H28 C32 1_555 1_555
C33 C29 1_555 1_555
H29 C33 1_555 1_555
H30 C33 1_555 1_555
C34 C16 1_555 1_555
C35 C34 1_555 1_555
H31 C35 1_555 1_555
C36 C35 1_555 1_555
H32 C36 1_555 1_555
C37 C36 1_555 1_555
H33 C37 1_555 1_555
C38 C37 1_555 1_555
C39 C34 1_555 1_555
H34 C39 1_555 1_555
C40 C38 1_555 1_555
H35 C40 1_555 1_555
H36 C40 1_555 1_555
C41 N9 1_555 1_555
H37 C41 1_555 1_555
C42 C41 1_555 1_555
H38 C42 1_555 1_555
C43 C42 1_555 1_555
C44 C43 1_555 1_555
H39 C44 1_555 1_555
C45 N9 1_555 1_555
H40 C45 1_555 1_555
C46 C43 1_555 1_555
C47 C46 1_555 1_555
H41 C47 1_555 1_555
C48 C47 1_555 1_555
H42 C48 1_555 1_555
C49 N10 1_555 1_555
H43 C49 1_555 1_555
C50 C46 1_555 1_555
H44 C50 1_555 1_555
C51 C21 1_555 1_555
C52 C51 1_555 1_555
H45 C52 1_555 1_555
C53 C52 1_555 1_555
H46 C53 1_555 1_555
C54 C53 1_555 1_555
H47 C54 1_555 1_555
C55 C54 1_555 1_555
C56 C51 1_555 1_555
H48 C56 1_555 1_555
C57 C55 1_555 1_555
H49 C57 1_555 1_555
H50 C57 1_555 1_555
C58 C26 1_555 1_555
C59 C58 1_555 1_555
H51 C59 1_555 1_555
C60 C59 1_555 1_555
H52 C60 1_555 1_555
C61 C60 1_555 1_555
H53 C61 1_555 1_555
C62 C61 1_555 1_555
C63 C58 1_555 1_555
H54 C63 1_555 1_555
C64 C62 1_555 1_555
H55 C64 1_555 1_555
H56 C64 1_555 1_555
C65 N8 1_555 1_555
H57 C65 1_555 1_555
C66 C65 1_555 1_555
H58 C66 1_555 1_555
C67 C66 1_555 1_555
C68 C67 1_555 1_555
H59 C68 1_555 1_555
C69 N8 1_555 1_555
H60 C69 1_555 1_555
C70 C67 1_555 1_555
C71 C70 1_555 1_555
H61 C71 1_555 1_555
C72 C71 1_555 1_555
H62 C72 1_555 1_555
C73 N7 1_555 1_555
H63 C73 1_555 1_555
C74 C70 1_555 1_555
H64 C74 1_555 1_555
N11 H65 1_555 1_555
N12 C90 1_555 1_555
N13 H66 1_555 1_555
N14 C80 1_555 1_555
N15 C125 1_555 1_555
N16 C133 1_555 1_555
N17 C108 1_555 1_555
N18 C116 1_555 1_555
C75 N11 1_555 1_555
C76 C75 1_555 1_555
H67 C76 1_555 1_555
C77 C76 1_555 1_555
H68 C77 1_555 1_555
C78 N11 1_555 1_555
C79 C78 1_555 1_555
C80 C79 1_555 1_555
C81 C80 1_555 1_555
H69 C81 1_555 1_555
C82 C81 1_555 1_555
H70 C82 1_555 1_555
C83 N14 1_555 1_555
C84 C83 1_555 1_555
C85 N13 1_555 1_555
C86 C85 1_555 1_555
H71 C86 1_555 1_555
C87 C86 1_555 1_555
H72 C87 1_555 1_555
C88 N13 1_555 1_555
C89 C88 1_555 1_555
C90 C89 1_555 1_555
C91 C90 1_555 1_555
H73 C91 1_555 1_555
C92 C91 1_555 1_555
H74 C92 1_555 1_555
C93 N12 1_555 1_555
C94 C75 1_555 1_555
C95 C79 1_555 1_555
C96 C95 1_555 1_555
H75 C96 1_555 1_555
C97 C96 1_555 1_555
H76 C97 1_555 1_555
C98 C97 1_555 1_555
H77 C98 1_555 1_555
C99 C98 1_555 1_555
C100 C95 1_555 1_555
H78 C100 1_555 1_555
C101 C99 1_555 1_555
H79 C101 1_555 1_555
H80 C101 1_555 1_555
C102 C84 1_555 1_555
C103 C102 1_555 1_555
H81 C103 1_555 1_555
C104 C103 1_555 1_555
H82 C104 1_555 1_555
C105 C104 1_555 1_555
H83 C105 1_555 1_555
C106 C105 1_555 1_555
C107 C102 1_555 1_555
H84 C107 1_555 1_555
C108 C106 1_555 1_555
H85 C108 1_555 1_555
H86 C108 1_555 1_555
C109 N17 1_555 1_555
H87 C109 1_555 1_555
C110 C109 1_555 1_555
H88 C110 1_555 1_555
C111 C110 1_555 1_555
C112 C111 1_555 1_555
H89 C112 1_555 1_555
C113 N17 1_555 1_555
H90 C113 1_555 1_555
C114 C111 1_555 1_555
C115 C114 1_555 1_555
H91 C115 1_555 1_555
C116 C115 1_555 1_555
H92 C116 1_555 1_555
C117 N18 1_555 1_555
H93 C117 1_555 1_555
C118 C114 1_555 1_555
H94 C118 1_555 1_555
C119 C89 1_555 1_555
C120 C119 1_555 1_555
H95 C120 1_555 1_555
C121 C120 1_555 1_555
H96 C121 1_555 1_555
C122 C121 1_555 1_555
H97 C122 1_555 1_555
C123 C122 1_555 1_555
C124 C119 1_555 1_555
H98 C124 1_555 1_555
C125 C123 1_555 1_555
H99 C125 1_555 1_555
H100 C125 1_555 1_555
C126 N15 1_555 1_555
H101 C126 1_555 1_555
C127 C126 1_555 1_555
H102 C127 1_555 1_555
C128 C127 1_555 1_555
C129 C128 1_555 1_555
H103 C129 1_555 1_555
C130 N15 1_555 1_555
H104 C130 1_555 1_555
C131 C128 1_555 1_555
C132 C131 1_555 1_555
H105 C132 1_555 1_555
C133 C132 1_555 1_555
H106 C133 1_555 1_555
C134 N16 1_555 1_555
H107 C134 1_555 1_555
C135 C131 1_555 1_555
H108 C135 1_555 1_555
C136 C94 1_555 1_555
C137 C136 1_555 1_555
H109 C137 1_555 1_555
C138 C137 1_555 1_555
H110 C138 1_555 1_555
C139 C138 1_555 1_555
H111 C139 1_555 1_555
C140 C139 1_555 1_555
C141 C136 1_555 1_555
H112 C141 1_555 1_555
C142 C140 1_555 1_555
H113 C142 1_555 1_555
H114 C142 1_555 1_555
C143 C144 1_555 1_555
C144 C145 1_555 1_555
C145 C146 1_555 1_555
C146 C147 1_555 1_555
C147 C143 1_555 1_555
C148 C143 1_555 1_555
C149 C144 1_555 1_555
C150 C145 1_555 1_555
C151 C146 1_555 1_555
C152 C147 1_555 1_555
C153 C148 1_555 1_555
C154 C149 1_555 1_555
C155 C149 1_555 1_555
C156 C150 1_555 1_555
C157 C150 1_555 1_555
C158 C151 1_555 1_555
C159 C151 1_555 1_555
C160 C152 1_555 1_555
C161 C152 1_555 1_555
C162 C148 1_555 1_555
C163 C153 1_555 1_555
C164 C154 1_555 1_555
C165 C155 1_555 1_555
C166 C156 1_555 1_555
C167 C157 1_555 1_555
C168 C158 1_555 1_555
C169 C159 1_555 1_555
C170 C160 1_555 1_555
C171 C161 1_555 1_555
C172 C162 1_555 1_555
C173 C163 1_555 1_555
C174 C164 1_555 1_555
C175 C165 1_555 1_555
C176 C166 1_555 1_555
C177 C167 1_555 1_555
C178 C168 1_555 1_555
C179 C169 1_555 1_555
C180 C170 1_555 1_555
C181 C171 1_555 1_555
C182 C172 1_555 1_555
C183 C173 1_555 1_555
C184 C174 1_555 1_555
C185 C175 1_555 1_555
C186 C176 1_555 1_555
C187 C177 1_555 1_555
C188 C178 1_555 1_555
C189 C179 1_555 1_555
C190 C180 1_555 1_555
C191 C181 1_555 1_555
C192 C182 1_555 1_555
C193 C183 1_555 1_555
C194 C184 1_555 1_555
C195 C185 1_555 1_555
C196 C186 1_555 1_555
C197 C187 1_555 1_555
C198 C188 1_555 1_555
C199 C189 1_555 1_555
C200 C190 1_555 1_555
C201 C191 1_555 1_555
C202 C192 1_555 1_555
C203 C193 1_555 1_555
C204 C194 1_555 1_555
C205 C196 1_555 1_555
C206 C198 1_555 1_555
C207 C200 1_555 1_555
C208 C203 1_555 1_555
C209 C204 1_555 1_555
C210 C205 1_555 1_555
C211 C206 1_555 1_555
C212 C207 1_555 1_555
F13D P3 1_555 1_555
F15D P3 1_555 1_555
N3E H15E 1_555 1_555
N4E C22E 1_555 1_555
N5E H16E 1_555 1_555
N6E C12E 1_555 1_555
N7E C33 1_555 1_555
N8E C64E 1_555 1_555
N9E C40E 1_555 1_555
N10E C57 1_555 1_555
C7E N3E 1_555 1_555
C8E C7E 1_555 1_555
H17E C8E 1_555 1_555
C9E C8E 1_555 1_555
H18E C9E 1_555 1_555
C10E N3E 1_555 1_555
C11E C10E 1_555 1_555
C12E C11E 1_555 1_555
C13E C12E 1_555 1_555
H19E C13E 1_555 1_555
C14E C13E 1_555 1_555
H20E C14E 1_555 1_555
C15E N6E 1_555 1_555
C16E C15E 1_555 1_555
C17E N5E 1_555 1_555
C18E C17E 1_555 1_555
H21E C18E 1_555 1_555
C19E C18E 1_555 1_555
H22E C19E 1_555 1_555
C20E N5E 1_555 1_555
C21E C20E 1_555 1_555
C22E C21E 1_555 1_555
C23E C22E 1_555 1_555
H23E C23E 1_555 1_555
C24E C23E 1_555 1_555
H24E C24E 1_555 1_555
C25E N4E 1_555 1_555
C26E C7E 1_555 1_555
C27E C11E 1_555 1_555
C28E C27E 1_555 1_555
H25E C28E 1_555 1_555
C29E C28E 1_555 1_555
C30E C29E 1_555 1_555
H26E C30E 1_555 1_555
C31E C30E 1_555 1_555
H27E C31E 1_555 1_555
C32E C27E 1_555 1_555
H28E C32E 1_555 1_555
C33E N7 1_555 1_555
H29E C33E 1_555 1_555
H30E C33E 1_555 1_555
C34E C16E 1_555 1_555
C35E C34E 1_555 1_555
H31E C35E 1_555 1_555
C36E C35E 1_555 1_555
H32E C36E 1_555 1_555
C37E C36E 1_555 1_555
H33E C37E 1_555 1_555
C38E C37E 1_555 1_555
C39E C34E 1_555 1_555
H34E C39E 1_555 1_555
C40E C38E 1_555 1_555
H35E C40E 1_555 1_555
H36E C40E 1_555 1_555
C41E N9E 1_555 1_555
H37E C41E 1_555 1_555
C42E C41E 1_555 1_555
H38E C42E 1_555 1_555
C43E C42E 1_555 1_555
C44E C43E 1_555 1_555
H39E C44E 1_555 1_555
C45E N9E 1_555 1_555
H40E C45E 1_555 1_555
C46E C43E 1_555 1_555
C47E C46E 1_555 1_555
H41E C47E 1_555 1_555
C48E N10E 1_555 1_555
H42E C48E 1_555 1_555
C49E N10E 1_555 1_555
H43E C49E 1_555 1_555
C50E C46E 1_555 1_555
H44E C50E 1_555 1_555
C51E C21E 1_555 1_555
C52E C51E 1_555 1_555
H45E C52E 1_555 1_555
C53E C52E 1_555 1_555
H46E C53E 1_555 1_555
C54E C53E 1_555 1_555
H47E C54E 1_555 1_555
C55E C54E 1_555 1_555
C56E C51E 1_555 1_555
H48E C56E 1_555 1_555
C57E N10 1_555 1_555
H49E C57E 1_555 1_555
H50E C57E 1_555 1_555
C58E C26E 1_555 1_555
C59E C58E 1_555 1_555
H51E C59E 1_555 1_555
C60E C59E 1_555 1_555
H52E C60E 1_555 1_555
C61E C60E 1_555 1_555
H53E C61E 1_555 1_555
C62E C61E 1_555 1_555
C63E C58E 1_555 1_555
H54E C63E 1_555 1_555
C64E C62E 1_555 1_555
H55E C64E 1_555 1_555
H56E C64E 1_555 1_555
C65E N8E 1_555 1_555
H57E C65E 1_555 1_555
C66E C65E 1_555 1_555
H58E C66E 1_555 1_555
C67E C66E 1_555 1_555
C68E C67E 1_555 1_555
H59E C68E 1_555 1_555
C69E N8E 1_555 1_555
H60E C69E 1_555 1_555
C70E C67E 1_555 1_555
C71E C70E 1_555 1_555
H61E C71E 1_555 1_555
C72E N7E 1_555 1_555
H62E C72E 1_555 1_555
C73E N7E 1_555 1_555
H63E C73E 1_555 1_555
C74E C70E 1_555 1_555
H64E C74E 1_555 1_555
N11D H65D 1_555 1_555
N12D C90D 1_555 1_555
N13D H66D 1_555 1_555
N14D C80D 1_555 1_555
N15D C125D 1_555 1_555
N16D C142 1_555 1_555
N17D C108D 1_555 1_555
N18D C101 1_555 1_555
C75D N11D 1_555 1_555
C76D C75D 1_555 1_555
H67D C76D 1_555 1_555
C77D C76D 1_555 1_555
H68D C77D 1_555 1_555
C78D N11D 1_555 1_555
C79D C78D 1_555 1_555
C80D C79D 1_555 1_555
C81D C80D 1_555 1_555
H69D C81D 1_555 1_555
C82D C81D 1_555 1_555
H70D C82D 1_555 1_555
C83D N14D 1_555 1_555
C84D C83D 1_555 1_555
C85D N13D 1_555 1_555
C86D C85D 1_555 1_555
H71D C86D 1_555 1_555
C87D C86D 1_555 1_555
H72D C87D 1_555 1_555
C88D N13D 1_555 1_555
C89D C88D 1_555 1_555
C90D C89D 1_555 1_555
C91D C90D 1_555 1_555
H73D C91D 1_555 1_555
C92D C91D 1_555 1_555
H74D C92D 1_555 1_555
C93D N12D 1_555 1_555
C94D C75D 1_555 1_555
C95D C79D 1_555 1_555
C96D C95D 1_555 1_555
H75D C96D 1_555 1_555
C97D C96D 1_555 1_555
H76D C97D 1_555 1_555
C98D C97D 1_555 1_555
H77D C98D 1_555 1_555
C99D C98D 1_555 1_555
C100D C95D 1_555 1_555
H78D C100D 1_555 1_555
C101D N18 1_555 1_555
H79D C101D 1_555 1_555
H80D C101D 1_555 1_555
C102D C84D 1_555 1_555
C103D C102D 1_555 1_555
H81D C103D 1_555 1_555
C104D C103D 1_555 1_555
H82D C104D 1_555 1_555
C105D C104D 1_555 1_555
H83D C105D 1_555 1_555
C106D C105D 1_555 1_555
C107D C102D 1_555 1_555
H84D C107D 1_555 1_555
C108D C106D 1_555 1_555
H85D C108D 1_555 1_555
H86D C108D 1_555 1_555
C109D N17D 1_555 1_555
H87D C109D 1_555 1_555
C110D C109D 1_555 1_555
H88D C110D 1_555 1_555
C111D C110D 1_555 1_555
C112D C111D 1_555 1_555
H89D C112D 1_555 1_555
C113D N17D 1_555 1_555
H90D C113D 1_555 1_555
C114D C111D 1_555 1_555
C115D C114D 1_555 1_555
H91D C115D 1_555 1_555
C116D N18D 1_555 1_555
H92D C116D 1_555 1_555
C117D N18D 1_555 1_555
H93D C117D 1_555 1_555
C118D C114D 1_555 1_555
H94D C118D 1_555 1_555
C119D C89D 1_555 1_555
C120D C119D 1_555 1_555
H95D C120D 1_555 1_555
C121D C120D 1_555 1_555
H96D C121D 1_555 1_555
C122D C121D 1_555 1_555
H97D C122D 1_555 1_555
C123D C122D 1_555 1_555
C124D C119D 1_555 1_555
H98D C124D 1_555 1_555
C125D C123D 1_555 1_555
H99D C125D 1_555 1_555
H100D C125D 1_555 1_555
C126D N15D 1_555 1_555
H101D C126D 1_555 1_555
C127D C126D 1_555 1_555
H102D C127D 1_555 1_555
C128D C127D 1_555 1_555
C129D C128D 1_555 1_555
H103D C129D 1_555 1_555
C130D N15D 1_555 1_555
H104D C130D 1_555 1_555
C131D C128D 1_555 1_555
C132D C131D 1_555 1_555
H105D C132D 1_555 1_555
C133D N16D 1_555 1_555
H106D C133D 1_555 1_555
C134D N16D 1_555 1_555
H107D C134D 1_555 1_555
C135D C131D 1_555 1_555
H108D C135D 1_555 1_555
C136D C94D 1_555 1_555
C137D C136D 1_555 1_555
H109D C137D 1_555 1_555
C138D C137D 1_555 1_555
H110D C138D 1_555 1_555
C139D C138D 1_555 1_555
H111D C139D 1_555 1_555
C140D C139D 1_555 1_555
C141D C136D 1_555 1_555
H112D C141D 1_555 1_555
C142D N16 1_555 1_555
H113D C142D 1_555 1_555
H114D C142D 1_555 1_555
C143D C186 1_555 1_555
C144D C177 1_555 1_555
C145D C166 1_555 1_555
C146D C176 1_555 1_555
C147D C195 1_555 1_555
C148D C197 1_555 1_555
C149D C167 1_555 1_555
C150D C166 1_555 1_555
C151D C175 1_555 1_555
C152D C195 1_555 1_555
C153D C188 1_555 1_555
C154D C177 1_555 1_555
C155D C157 1_555 1_555
C156D C156 1_555 1_555
C157D C155 1_555 1_555
C158D C165 1_555 1_555
C159D C184 1_555 1_555
C160D C184 1_555 1_555
C161D C208 1_555 1_555
C162D C206 1_555 1_555
C163D C189 1_555 1_555
C164D C168 1_555 1_555
C165D C157 1_555 1_555
C166D C145 1_555 1_555
C167D C149 1_555 1_555
C168D C164 1_555 1_555
C169D C174 1_555 1_555
C170D C193 1_555 1_555
C171D C193 1_555 1_555
C172D C199 1_555 1_555
C173D C179 1_555 1_555
C174D C169 1_555 1_555
C175D C151 1_555 1_555
C176D C145 1_555 1_555
C177D C144 1_555 1_555
C178D C149 1_555 1_555
C179D C173 1_555 1_555
C180D C183 1_555 1_555
C181D C201 1_555 1_555
C182D C191 1_555 1_555
C183D C179 1_555 1_555
C184D C159 1_555 1_555
C185D C146 1_555 1_555
C186D C143 1_555 1_555
C187D C143 1_555 1_555
C188D C153 1_555 1_555
C189D C153 1_555 1_555
C190D C183 1_555 1_555
C191D C182 1_555 1_555
C192D C190 1_555 1_555
C193D C170 1_555 1_555
C194D C159 1_555 1_555
C195D C146 1_555 1_555
C196D C143 1_555 1_555
C197D C143 1_555 1_555
C198D C143 1_555 1_555
C199D C163 1_555 1_555
C200D C172 1_555 1_555
C201D C181 1_555 1_555
C202D C181 1_555 1_555
C203D C170 1_555 1_555
C204D C152 1_555 1_555
C205D C143 1_555 1_555
C206D C148 1_555 1_555
C207D C172 1_555 1_555
C208D C161 1_555 1_555
C209D C152 1_555 1_555
C210D C152 1_555 1_555
C211D C161 1_555 1_555
C212D C161 1_555 1_555
C9 C10 1_555 1_555
C14 C15 1_555 1_555
C16 C17 1_555 1_555
C19 C20 1_555 1_555
C24 C25 1_555 1_555
C25 C26 1_555 1_555
C31 C32 1_555 1_555
C38 C39 1_555 1_555
C44 C45 1_555 1_555
C49 C50 1_555 1_555
C55 C56 1_555 1_555
C62 C63 1_555 1_555
C68 C69 1_555 1_555
C73 C74 1_555 1_555
C77 C78 1_555 1_555
C82 C83 1_555 1_555
C84 C85 1_555 1_555
C87 C88 1_555 1_555
C92 C93 1_555 1_555
C93 C94 1_555 1_555
C99 C100 1_555 1_555
C106 C107 1_555 1_555
C112 C113 1_555 1_555
C117 C118 1_555 1_555
C123 C124 1_555 1_555
C129 C130 1_555 1_555
C134 C135 1_555 1_555
C140 C141 1_555 1_555
C144 C186D 1_555 1_555
C144 C197D 1_555 1_555
C145 C186D 1_555 1_555
C145 C187D 1_555 1_555
C146 C176D 1_555 1_555
C146 C186D 1_555 1_555
C146 C196D 1_555 1_555
C147 C195D 1_555 1_555
C147 C196D 1_555 1_555
C147 C205D 1_555 1_555
C148 C197D 1_555 1_555
C148 C198D 1_555 1_555
C148 C205D 1_555 1_555
C149 C187D 1_555 1_555
C150 C166D 1_555 1_555
C150 C176D 1_555 1_555
C151 C195D 1_555 1_555
C152 C195D 1_555 1_555
C153 C154 1_555 1_555
C153 C198D 1_555 1_555
C153 C206D 1_555 1_555
C154 C177D 1_555 1_555
C154 C178D 1_555 1_555
C154 C188D 1_555 1_555
C155 C156 1_555 1_555
C155 C167D 1_555 1_555
C155 C177D 1_555 1_555
C156 C157D 1_555 1_555
C156 C166D 1_555 1_555
C156 C167D 1_555 1_555
C157 C158 1_555 1_555
C157 C156D 1_555 1_555
C157 C175D 1_555 1_555
C157 C176D 1_555 1_555
C158 C165D 1_555 1_555
C158 C175D 1_555 1_555
C158 C185D 1_555 1_555
C159 C160 1_555 1_555
C159 C185D 1_555 1_555
C159 C195D 1_555 1_555
C159 C204D 1_555 1_555
C160 C184D 1_555 1_555
C160 C194D 1_555 1_555
C160 C195D 1_555 1_555
C160 C204D 1_555 1_555
C161 C162 1_555 1_555
C161 C209D 1_555 1_555
C161 C210D 1_555 1_555
C162 C206D 1_555 1_555
C162 C210D 1_555 1_555
C162 C211D 1_555 1_555
C162 C212D 1_555 1_555
C163 C172 1_555 1_555
C163 C189D 1_555 1_555
C163 C206D 1_555 1_555
C164 C165 1_555 1_555
C164 C178D 1_555 1_555
C165 C157D 1_555 1_555
C165 C168D 1_555 1_555
C165 C178D 1_555 1_555
C166 C167 1_555 1_555
C166 C156D 1_555 1_555
C167 C155D 1_555 1_555
C167 C156D 1_555 1_555
C168 C169 1_555 1_555
C168 C165D 1_555 1_555
C169 C184D 1_555 1_555
C169 C185D 1_555 1_555
C170 C171 1_555 1_555
C170 C194D 1_555 1_555
C171 C193D 1_555 1_555
C171 C203D 1_555 1_555
C171 C208D 1_555 1_555
C172 C199D 1_555 1_555
C172 C206D 1_555 1_555
C172 C211D 1_555 1_555
C172 C212D 1_555 1_555
C173 C174 1_555 1_555
C173 C189D 1_555 1_555
C173 C199D 1_555 1_555
C174 C179D 1_555 1_555
C174 C189D 1_555 1_555
C175 C176 1_555 1_555
C175 C157D 1_555 1_555
C175 C158D 1_555 1_555
C176 C145D 1_555 1_555
C176 C150D 1_555 1_555
C176 C157D 1_555 1_555
C177 C178 1_555 1_555
C177 C155D 1_555 1_555
C178 C149D 1_555 1_555
C178 C154D 1_555 1_555
C178 C164D 1_555 1_555
C178 C165D 1_555 1_555
C179 C180 1_555 1_555
C179 C174D 1_555 1_555
C179 C184D 1_555 1_555
C180 C183D 1_555 1_555
C180 C193D 1_555 1_555
C180 C194D 1_555 1_555
C181 C182 1_555 1_555
C181 C203D 1_555 1_555
C181 C207D 1_555 1_555
C182 C200D 1_555 1_555
C182 C201D 1_555 1_555
C182 C207D 1_555 1_555
C182 C212D 1_555 1_555
C183 C192 1_555 1_555
C183 C179D 1_555 1_555
C183 C200D 1_555 1_555
C184 C185 1_555 1_555
C184 C169D 1_555 1_555
C184 C179D 1_555 1_555
C185 C146D 1_555 1_555
C185 C158D 1_555 1_555
C185 C159D 1_555 1_555
C185 C169D 1_555 1_555
C186 C187 1_555 1_555
C186 C144D 1_555 1_555
C186 C145D 1_555 1_555
C186 C146D 1_555 1_555
C187 C143D 1_555 1_555
C187 C145D 1_555 1_555
C187 C149D 1_555 1_555
C188 C189 1_555 1_555
C188 C154D 1_555 1_555
C189 C153D 1_555 1_555
C189 C173D 1_555 1_555
C189 C174D 1_555 1_555
C190 C191 1_555 1_555
C190 C183D 1_555 1_555
C191 C192D 1_555 1_555
C191 C201D 1_555 1_555
C191 C202D 1_555 1_555
C192 C190D 1_555 1_555
C192 C191D 1_555 1_555
C192 C200D 1_555 1_555
C192 C201D 1_555 1_555
C193 C194 1_555 1_555
C193 C180D 1_555 1_555
C194 C159D 1_555 1_555
C194 C160D 1_555 1_555
C194 C170D 1_555 1_555
C194 C180D 1_555 1_555
C195 C196 1_555 1_555
C195 C204 1_555 1_555
C195 C146D 1_555 1_555
C195 C151D 1_555 1_555
C195 C159D 1_555 1_555
C195 C160D 1_555 1_555
C196 C143D 1_555 1_555
C196 C146D 1_555 1_555
C196 C147D 1_555 1_555
C197 C198 1_555 1_555
C197 C205 1_555 1_555
C197 C143D 1_555 1_555
C197 C144D 1_555 1_555
C198 C143D 1_555 1_555
C198 C148D 1_555 1_555
C198 C153D 1_555 1_555
C199 C200 1_555 1_555
C199 C206 1_555 1_555
C199 C163D 1_555 1_555
C199 C173D 1_555 1_555
C200 C172D 1_555 1_555
C200 C182D 1_555 1_555
C200 C183D 1_555 1_555
C200 C192D 1_555 1_555
C201 C202 1_555 1_555
C201 C207 1_555 1_555
C201 C182D 1_555 1_555
C201 C191D 1_555 1_555
C201 C192D 1_555 1_555
C202 C203 1_555 1_555
C202 C181D 1_555 1_555
C202 C191D 1_555 1_555
C203 C170D 1_555 1_555
C203 C171D 1_555 1_555
C203 C181D 1_555 1_555
C204 C152D 1_555 1_555
C204 C159D 1_555 1_555
C204 C160D 1_555 1_555
C205 C143D 1_555 1_555
C205 C147D 1_555 1_555
C205 C148D 1_555 1_555
C206 C148D 1_555 1_555
C206 C153D 1_555 1_555
C206 C163D 1_555 1_555
C206 C172D 1_555 1_555
C207 C172D 1_555 1_555
C207 C181D 1_555 1_555
C207 C182D 1_555 1_555
C208 C209 1_555 1_555
C208 C212 1_555 1_555
C208 C171D 1_555 1_555
C209 C210 1_555 1_555
C209 C152D 1_555 1_555
C209 C161D 1_555 1_555
C210 C211 1_555 1_555
C210 C152D 1_555 1_555
C210 C161D 1_555 1_555
C210 C162D 1_555 1_555
C211 C212 1_555 1_555
C211 C161D 1_555 1_555
C211 C162D 1_555 1_555
C211 C172D 1_555 1_555
C212 C161D 1_555 1_555
C212 C162D 1_555 1_555
C212 C172D 1_555 1_555
C212 C182D 1_555 1_555
C9E C10E 1_555 1_555
C14E C15E 1_555 1_555
C16E C17E 1_555 1_555
C19E C20E 1_555 1_555
C24E C25E 1_555 1_555
C25E C26E 1_555 1_555
C29E C33E 1_555 1_555
C31E C32E 1_555 1_555
C38E C39E 1_555 1_555
C44E C45E 1_555 1_555
C47E C48E 1_555 1_555
C49E C50E 1_555 1_555
C55E C56E 1_555 1_555
C55E C57E 1_555 1_555
C62E C63E 1_555 1_555
C68E C69E 1_555 1_555
C71E C72E 1_555 1_555
C73E C74E 1_555 1_555
C77D C78D 1_555 1_555
C82D C83D 1_555 1_555
C84D C85D 1_555 1_555
C87D C88D 1_555 1_555
C92D C93D 1_555 1_555
C93D C94D 1_555 1_555
C99D C100D 1_555 1_555
C99D C101D 1_555 1_555
C106D C107D 1_555 1_555
C112D C113D 1_555 1_555
C115D C116D 1_555 1_555
C117D C118D 1_555 1_555
C123D C124D 1_555 1_555
C129D C130D 1_555 1_555
C132D C133D 1_555 1_555
C134D C135D 1_555 1_555
C140D C141D 1_555 1_555
C140D C142D 1_555 1_555
C143D C144D 1_555 1_555
C143D C147D 1_555 1_555
C143D C148D 1_555 1_555
C144D C145D 1_555 1_555
C144D C149D 1_555 1_555
C145D C146D 1_555 1_555
C145D C150D 1_555 1_555
C146D C147D 1_555 1_555
C146D C151D 1_555 1_555
C147D C152D 1_555 1_555
C148D C153D 1_555 1_555
C148D C162D 1_555 1_555
C149D C154D 1_555 1_555
C149D C155D 1_555 1_555
C150D C156D 1_555 1_555
C150D C157D 1_555 1_555
C151D C158D 1_555 1_555
C151D C159D 1_555 1_555
C152D C160D 1_555 1_555
C152D C161D 1_555 1_555
C153D C154D 1_555 1_555
C153D C163D 1_555 1_555
C154D C164D 1_555 1_555
C155D C156D 1_555 1_555
C155D C165D 1_555 1_555
C156D C166D 1_555 1_555
C157D C158D 1_555 1_555
C157D C167D 1_555 1_555
C158D C168D 1_555 1_555
C159D C160D 1_555 1_555
C159D C169D 1_555 1_555
C160D C170D 1_555 1_555
C161D C162D 1_555 1_555
C161D C171D 1_555 1_555
C162D C172D 1_555 1_555
C163D C172D 1_555 1_555
C163D C173D 1_555 1_555
C164D C165D 1_555 1_555
C164D C174D 1_555 1_555
C165D C175D 1_555 1_555
C166D C167D 1_555 1_555
C166D C176D 1_555 1_555
C167D C177D 1_555 1_555
C168D C169D 1_555 1_555
C168D C178D 1_555 1_555
C169D C179D 1_555 1_555
C170D C171D 1_555 1_555
C170D C180D 1_555 1_555
C171D C181D 1_555 1_555
C172D C182D 1_555 1_555
C173D C174D 1_555 1_555
C173D C183D 1_555 1_555
C174D C184D 1_555 1_555
C175D C176D 1_555 1_555
C175D C185D 1_555 1_555
C176D C186D 1_555 1_555
C177D C178D 1_555 1_555
C177D C187D 1_555 1_555
C178D C188D 1_555 1_555
C179D C180D 1_555 1_555
C179D C189D 1_555 1_555
C180D C190D 1_555 1_555
C181D C182D 1_555 1_555
C181D C191D 1_555 1_555
C182D C192D 1_555 1_555
C183D C192D 1_555 1_555
C183D C193D 1_555 1_555
C184D C185D 1_555 1_555
C184D C194D 1_555 1_555
C185D C195D 1_555 1_555
C186D C187D 1_555 1_555
C186D C196D 1_555 1_555
C187D C197D 1_555 1_555
C188D C189D 1_555 1_555
C188D C198D 1_555 1_555
C189D C199D 1_555 1_555
C190D C191D 1_555 1_555
C190D C200D 1_555 1_555
C191D C201D 1_555 1_555
C192D C202D 1_555 1_555
C193D C194D 1_555 1_555
C193D C203D 1_555 1_555
C194D C204D 1_555 1_555
C195D C196D 1_555 1_555
C195D C204D 1_555 1_555
C196D C205D 1_555 1_555
C197D C198D 1_555 1_555
C197D C205D 1_555 1_555
C198D C206D 1_555 1_555
C199D C200D 1_555 1_555
C199D C206D 1_555 1_555
C200D C207D 1_555 1_555
C201D C202D 1_555 1_555
C201D C207D 1_555 1_555
C202D C203D 1_555 1_555
C203D C208D 1_555 1_555
C204D C209D 1_555 1_555
C205D C210D 1_555 1_555
C206D C211D 1_555 1_555
C207D C212D 1_555 1_555
C208D C209D 1_555 1_555
C208D C212D 1_555 1_555
C209D C210D 1_555 1_555
C210D C211D 1_555 1_555
C211D C212D 1_555 1_555

#END
