
#######################################################################
#
#                 Cambridge Crystallographic Data Centre
#                                CCDC 
#
#######################################################################
#
# If this CIF has been generated from an entry in the Cambridge 
# Structural Database, then it will include bibliographic, chemical, 
# crystal, experimental, refinement or atomic coordinate data resulting 
# from the CCDC's data processing and validation procedures.
#
#######################################################################

data_LIKDOB
_chemical_formula_moiety         
'C136 H100 N16 8+,C60,2(C3 H7 N1 O1),8(F6 P1 1-)'
_chemical_name_systematic        
"5,5':10,10':15,15':20,20'-tetrakis(3,3'-([4,4'-bipyridin-1-ium]-1,1'-diyl)diphenyl)bis(porphyrin) octakis(hexafluorophosphate) C60-fullerene acetonitrile unknown solvate"
_symmetry_cell_setting           monoclinic
_symmetry_space_group_name_H-M   'C 2/c'
_symmetry_Int_Tables_number      15
_space_group_name_Hall           '-C 2yn'
loop_
_symmetry_equiv_pos_site_id
_symmetry_equiv_pos_as_xyz
1 x,y,z
2 -x,y,1/2-z
3 1/2+x,1/2+y,z
4 1/2-x,1/2+y,1/2-z
5 -x,-y,-z
6 x,-y,1/2+z
7 1/2-x,1/2-y,-z
8 1/2+x,1/2-y,1/2+z
_cell_length_a                   26.125(4)
_cell_length_b                   22.632(4)
_cell_length_c                   35.143(5)
_cell_angle_alpha                90
_cell_angle_beta                 109.353(10)
_cell_angle_gamma                90
_cell_volume                     19604.6
_exptl_crystal_colour            red
_exptl_crystal_description       plate
_cell_formula_units_Z            4
loop_
_atom_site_label
_atom_site_type_symbol
_atom_site_fract_x
_atom_site_fract_y
_atom_site_fract_z
N1 N 0.6047(7) 0.5065(6) 0.4399(3)
N2 N 0.6414(5) 0.3834(7) 0.4398(3)
H1 H 0.6119 0.3998 0.4421
N3 N 0.5347(6) 0.3419(5) 0.4342(3)
N4 N 0.4985(5) 0.4675(8) 0.4371(3)
H2 H 0.5306 0.4513 0.4416
N5 N 0.6307(6) 0.1316(5) 0.3212(4)
N6 N 0.7197(6) 0.2719(8) 0.1779(5)
N7 N 0.4165(6) 0.7174(5) 0.3201(5)
N8 N 0.2259(6) 0.5587(7) 0.1667(4)
C1 C 0.5803(7) 0.5596(12) 0.4364(4)
C2 C 0.6152(9) 0.6057(7) 0.4338(4)
H3 H 0.6064 0.6466 0.4309
C3 C 0.6638(7) 0.5813(7) 0.4364(3)
H4 H 0.6959 0.6010 0.4362
C4 C 0.6554(9) 0.5164(8) 0.4394(4)
C5 C 0.6932(7) 0.4725(9) 0.4407(3)
C6 C 0.6864(7) 0.4121(8) 0.4386(3)
C7 C 0.7242(6) 0.3691(9) 0.4351(3)
H5 H 0.7590 0.3773 0.4334
C8 C 0.7027(7) 0.3150(7) 0.4345(4)
H6 H 0.7198 0.2785 0.4328
C9 C 0.6508(8) 0.3221(8) 0.4368(3)
C10 C 0.6119(7) 0.2789(7) 0.4341(3)
C11 C 0.5581(8) 0.2849(8) 0.4328(3)
C12 C 0.5175(8) 0.2434(7) 0.4272(4)
H7 H 0.5216 0.2020 0.4250
C13 C 0.4689(7) 0.2723(9) 0.4252(3)
H8 H 0.4347 0.2541 0.4210
C14 C 0.4802(7) 0.3336(8) 0.4306(4)
C15 C 0.4433(7) 0.3778(9) 0.4294(3)
C16 C 0.4528(8) 0.4376(8) 0.4324(3)
C17 C 0.4086(6) 0.4794(9) 0.4258(4)
H9 H 0.3715 0.4706 0.4214
C18 C 0.4311(8) 0.5330(8) 0.4274(4)
H10 H 0.4125 0.5697 0.4246
C19 C 0.4888(8) 0.5259(10) 0.4341(4)
C20 C 0.5284(9) 0.5687(6) 0.4357(3)
C21 C 0.7472(8) 0.4955(6) 0.4407(4)
C22 C 0.7880(7) 0.5176(6) 0.4758(4)
H11 H 0.7819 0.5164 0.5010
C23 C 0.8361(7) 0.5408(7) 0.4740(5)
H12 H 0.8634 0.5544 0.4977
C24 C 0.8432(7) 0.5436(6) 0.4384(6)
H13 H 0.8751 0.5624 0.4370
C25 C 0.8074(9) 0.5209(7) 0.4034(4)
C26 C 0.7579(7) 0.4977(6) 0.4059(6)
H14 H 0.7314 0.4832 0.3821
C27 C 0.6304(6) 0.2180(6) 0.4320(4)
C28 C 0.6658(6) 0.1910(8) 0.4645(4)
H15 H 0.6785 0.2111 0.4896
C29 C 0.6838(6) 0.1330(8) 0.4612(5)
H16 H 0.7083 0.1144 0.4843
C30 C 0.6665(6) 0.1026(6) 0.4249(5)
H17 H 0.6789 0.0637 0.4230
C31 C 0.6296(6) 0.1314(7) 0.3907(4)
C32 C 0.6131(5) 0.1875(7) 0.3957(4)
H18 H 0.5882 0.2066 0.3729
C33 C 0.6139(5) 0.1012(6) 0.3507(4)
H19 H 0.6299 0.0611 0.3545
H20 H 0.5739 0.0968 0.3404
C34 C 0.6811(7) 0.1608(8) 0.3322(5)
H21 H 0.7049 0.1613 0.3593
C35 C 0.6943(6) 0.1882(6) 0.3024(6)
H22 H 0.7275 0.2095 0.3096
C36 C 0.6627(8) 0.1870(6) 0.2626(4)
C37 C 0.6128(6) 0.1551(6) 0.2531(4)
H23 H 0.5890 0.1516 0.2261
C38 C 0.6008(6) 0.1301(5) 0.2843(5)
H24 H 0.5672 0.1097 0.2780
C39 C 0.6824(6) 0.2172(7) 0.2326(5)
C40 C 0.7173(6) 0.2677(8) 0.2446(5)
H25 H 0.7280 0.2832 0.2713
C41 C 0.7344(5) 0.2922(7) 0.2148(6)
H26 H 0.7579 0.3255 0.2214
C42 C 0.6849(7) 0.2267(9) 0.1645(4)
H27 H 0.6732 0.2136 0.1372
C43 C 0.6681(5) 0.2013(6) 0.1935(5)
H28 H 0.6437 0.1690 0.1853
C44 C 0.7434(6) 0.2983(7) 0.1478(5)
H29 H 0.7654 0.2676 0.1405
H30 H 0.7682 0.3307 0.1613
C45 C 0.3880(8) 0.3579(6) 0.4265(5)
C46 C 0.3523(8) 0.3373(6) 0.3922(5)
H31 H 0.3628 0.3324 0.3690
C47 C 0.2973(8) 0.3223(6) 0.3906(4)
C48 C 0.2812(7) 0.3296(6) 0.4232(5)
H32 H 0.2456 0.3184 0.4219
C49 C 0.3159(9) 0.3532(8) 0.4578(5)
H33 H 0.3047 0.3605 0.4804
C50 C 0.3709(7) 0.3668(7) 0.4589(6)
H34 H 0.3958 0.3825 0.4831
C51 C 0.5051(5) 0.6317(7) 0.4330(4)
C52 C 0.4935(5) 0.6633(7) 0.3973(4)
H35 H 0.5010 0.6465 0.3749
C53 C 0.4702(6) 0.7212(8) 0.3942(5)
C54 C 0.4606(5) 0.7429(7) 0.4263(6)
H36 H 0.4463 0.7817 0.4246
C55 C 0.4700(6) 0.7124(9) 0.4620(5)
H37 H 0.4608 0.7290 0.4837
C56 C 0.4936(6) 0.6564(8) 0.4652(4)
H38 H 0.5018 0.6351 0.4898
C57 C 0.4553(6) 0.7523(6) 0.3547(5)
H39 H 0.4888 0.7606 0.3484
H40 H 0.4384 0.7907 0.3570
C58 C 0.3740(9) 0.6888(8) 0.3284(4)
H41 H 0.3703 0.6918 0.3543
C59 C 0.3378(6) 0.6567(6) 0.2987(6)
H42 H 0.3097 0.6365 0.3049
C60 C 0.3399(7) 0.6521(7) 0.2608(5)
C61 C 0.3840(9) 0.6816(7) 0.2540(4)
H43 H 0.3879 0.6801 0.2281
C62 C 0.4205(7) 0.7119(7) 0.2839(6)
H44 H 0.4503 0.7300 0.2786
C63 C 0.3000(6) 0.6203(8) 0.2269(5)
C64 C 0.2725(7) 0.5717(8) 0.2370(5)
H45 H 0.2794 0.5597 0.2641
C65 C 0.2343(6) 0.5421(6) 0.2043(6)
H46 H 0.2144 0.5098 0.2095
C66 C 0.2522(8) 0.6058(8) 0.1576(5)
H47 H 0.2437 0.6187 0.1305
C67 C 0.2913(6) 0.6345(6) 0.1885(5)
H48 H 0.3124 0.6648 0.1822
C68 C 0.1816(5) 0.5268(6) 0.1352(4)
H49 H 0.1772 0.4870 0.1453
H50 H 0.1471 0.5485 0.1303
N1A N 0.3953(7) 0.5065(6) 0.0601(3)
N2A N 0.3586(5) 0.3834(7) 0.0602(3)
H1A H 0.3881 0.3998 0.0579
N3A N 0.4653(6) 0.3419(5) 0.0658(3)
N4A N 0.5015(5) 0.4675(8) 0.0629(3)
H2A H 0.4694 0.4513 0.0584
N5A N 0.3693(6) 0.1316(5) 0.1788(4)
N6A N 0.2803(6) 0.2719(8) 0.3221(5)
N7A N 0.5835(6) 0.7174(5) 0.1799(5)
N8A N 0.7741(6) 0.5587(7) 0.3333(4)
C1A C 0.4197(7) 0.5596(12) 0.0636(4)
C2A C 0.3848(9) 0.6057(7) 0.0662(4)
H3A H 0.3936 0.6466 0.0691
C3A C 0.3362(7) 0.5813(7) 0.0636(3)
H4A H 0.3041 0.6010 0.0638
C4A C 0.3446(9) 0.5164(8) 0.0606(4)
C5A C 0.3068(7) 0.4725(9) 0.0593(3)
C6A C 0.3136(7) 0.4121(8) 0.0614(3)
C7A C 0.2758(6) 0.3691(9) 0.0649(3)
H5A H 0.2410 0.3773 0.0666
C8A C 0.2973(7) 0.3150(7) 0.0655(4)
H6A H 0.2802 0.2785 0.0672
C9A C 0.3492(8) 0.3221(8) 0.0632(3)
C10A C 0.3881(7) 0.2789(7) 0.0659(3)
C11A C 0.4419(8) 0.2849(8) 0.0672(3)
C12A C 0.4825(8) 0.2434(7) 0.0728(4)
H7A H 0.4784 0.2020 0.0750
C13A C 0.5311(7) 0.2723(9) 0.0748(3)
H8A H 0.5653 0.2541 0.0790
C14A C 0.5198(7) 0.3336(8) 0.0694(4)
C15A C 0.5567(7) 0.3778(9) 0.0706(3)
C16A C 0.5472(8) 0.4376(8) 0.0676(3)
C17A C 0.5914(6) 0.4794(9) 0.0742(4)
H9A H 0.6285 0.4706 0.0786
C18A C 0.5689(8) 0.5330(8) 0.0726(4)
H10A H 0.5875 0.5697 0.0754
C19A C 0.5112(8) 0.5259(10) 0.0659(4)
C20A C 0.4716(9) 0.5687(6) 0.0643(3)
C21A C 0.2528(8) 0.4955(6) 0.0593(4)
C22A C 0.2120(7) 0.5176(6) 0.0242(4)
H11A H 0.2181 0.5164 -0.0010
C23A C 0.1639(7) 0.5408(7) 0.0260(5)
H12A H 0.1366 0.5544 0.0023
C24A C 0.1568(7) 0.5436(6) 0.0616(6)
H13A H 0.1249 0.5624 0.0630
C25A C 0.1926(9) 0.5209(7) 0.0966(4)
C26A C 0.2421(7) 0.4977(6) 0.0941(6)
H14A H 0.2686 0.4832 0.1179
C27A C 0.3696(6) 0.2180(6) 0.0680(4)
C28A C 0.3342(6) 0.1910(8) 0.0355(4)
H15A H 0.3215 0.2111 0.0104
C29A C 0.3162(6) 0.1330(8) 0.0388(5)
H16A H 0.2917 0.1144 0.0157
C30A C 0.3335(6) 0.1026(6) 0.0751(5)
H17A H 0.3211 0.0637 0.0770
C31A C 0.3704(6) 0.1314(7) 0.1093(4)
C32A C 0.3869(5) 0.1875(7) 0.1043(4)
H18A H 0.4118 0.2066 0.1271
C33A C 0.3861(5) 0.1012(6) 0.1493(4)
H19A H 0.3701 0.0611 0.1455
H20A H 0.4261 0.0968 0.1596
C34A C 0.3189(7) 0.1608(8) 0.1678(5)
H21A H 0.2951 0.1613 0.1407
C35A C 0.3057(6) 0.1882(6) 0.1976(6)
H22A H 0.2725 0.2095 0.1904
C36A C 0.3373(8) 0.1870(6) 0.2374(4)
C37A C 0.3872(6) 0.1551(6) 0.2469(4)
H23A H 0.4110 0.1516 0.2739
C38A C 0.3992(6) 0.1301(5) 0.2157(5)
H24A H 0.4328 0.1097 0.2220
C39A C 0.3176(6) 0.2172(7) 0.2674(5)
C40A C 0.2827(6) 0.2677(8) 0.2554(5)
H25A H 0.2720 0.2832 0.2287
C41A C 0.2656(5) 0.2922(7) 0.2852(6)
H26A H 0.2421 0.3255 0.2786
C42A C 0.3151(7) 0.2267(9) 0.3355(4)
H27A H 0.3268 0.2136 0.3628
C43A C 0.3319(5) 0.2013(6) 0.3065(5)
H28A H 0.3563 0.1690 0.3147
C44A C 0.2566(6) 0.2983(7) 0.3522(5)
H29A H 0.2346 0.2676 0.3595
H30A H 0.2318 0.3307 0.3387
C45A C 0.6120(8) 0.3579(6) 0.0735(5)
C46A C 0.6477(8) 0.3373(6) 0.1078(5)
H31A H 0.6372 0.3324 0.1310
C47A C 0.7027(8) 0.3223(6) 0.1094(4)
C48A C 0.7188(7) 0.3296(6) 0.0768(5)
H32A H 0.7544 0.3184 0.0781
C49A C 0.6841(9) 0.3532(8) 0.0422(5)
H33A H 0.6953 0.3605 0.0196
C50A C 0.6291(7) 0.3668(7) 0.0411(6)
H34A H 0.6042 0.3825 0.0169
C51A C 0.4949(5) 0.6317(7) 0.0670(4)
C52A C 0.5065(5) 0.6633(7) 0.1027(4)
H35A H 0.4990 0.6465 0.1251
C53A C 0.5298(6) 0.7212(8) 0.1058(5)
C54A C 0.5394(5) 0.7429(7) 0.0737(6)
H36A H 0.5537 0.7817 0.0754
C55A C 0.5300(6) 0.7124(9) 0.0380(5)
H37A H 0.5392 0.7290 0.0163
C56A C 0.5064(6) 0.6564(8) 0.0348(4)
H38A H 0.4982 0.6351 0.0102
C57A C 0.5447(6) 0.7523(6) 0.1453(5)
H39A H 0.5112 0.7606 0.1516
H40A H 0.5616 0.7907 0.1430
C58A C 0.6260(9) 0.6888(8) 0.1716(4)
H41A H 0.6297 0.6918 0.1457
C59A C 0.6622(6) 0.6567(6) 0.2013(6)
H42A H 0.6903 0.6365 0.1951
C60A C 0.6601(7) 0.6521(7) 0.2392(5)
C61A C 0.6160(9) 0.6816(7) 0.2460(4)
H43A H 0.6121 0.6801 0.2719
C62A C 0.5795(7) 0.7119(7) 0.2161(6)
H44A H 0.5497 0.7300 0.2214
C63A C 0.7000(6) 0.6203(8) 0.2731(5)
C64A C 0.7275(7) 0.5717(8) 0.2630(5)
H45A H 0.7206 0.5597 0.2359
C65A C 0.7657(6) 0.5421(6) 0.2957(6)
H46A H 0.7856 0.5098 0.2905
C66A C 0.7478(8) 0.6058(8) 0.3424(5)
H47A H 0.7563 0.6187 0.3695
C67A C 0.7087(6) 0.6345(6) 0.3115(5)
H48A H 0.6876 0.6648 0.3178
C68A C 0.8184(5) 0.5268(6) 0.3648(4)
H49A H 0.8228 0.4870 0.3547
H50A H 0.8529 0.5485 0.3697
C69 C 0.5609(10) 0.3198(9) 0.3282(6)
C70 C 0.5628(9) 0.2888(7) 0.2935(5)
C71 C 0.5094(9) 0.2685(5) 0.2709(4)
C72 C 0.4728(10) 0.2876(8) 0.2906(5)
C73 C 0.5052(10) 0.3202(7) 0.3274(4)
C74 C 0.4825(11) 0.3722(11) 0.3393(6)
C75 C 0.4306(9) 0.3908(11) 0.3174(6)
C76 C 0.4000(8) 0.3601(9) 0.2853(7)
C77 C 0.4211(8) 0.3076(8) 0.2699(6)
C78 C 0.4047(8) 0.3068(8) 0.2270(6)
C79 C 0.3687(7) 0.3609(9) 0.2114(6)
C80 C 0.3672(6) 0.3899(11) 0.2477(8)
C81 C 0.3667(6) 0.4538(11) 0.2469(7)
C82 C 0.3679(6) 0.4828(9) 0.2109(7)
C83 C 0.3714(7) 0.4548(9) 0.1790(6)
C84 C 0.3737(7) 0.3872(9) 0.1770(5)
C85 C 0.4097(9) 0.3692(12) 0.1587(5)
C86 C 0.3990(7) 0.4860(9) 0.2839(7)
C87 C 0.4209(10) 0.5375(8) 0.2687(7)
C88 C 0.4719(10) 0.5555(7) 0.2918(5)
C89 C 0.5020(10) 0.5228(9) 0.3270(6)
C90 C 0.4822(12) 0.4728(11) 0.3394(6)
C91 C 0.4305(11) 0.4564(11) 0.3180(7)
C92 C 0.5230(13) 0.4225(9) 0.3538(4)
C93 C 0.5722(9) 0.4246(15) 0.3549(5)
C94 C 0.5920(9) 0.4754(11) 0.3416(5)
C95 C 0.5590(11) 0.5226(8) 0.3285(5)
C96 C 0.5637(7) 0.5542(7) 0.2942(7)
C97 C 0.5087(9) 0.5758(5) 0.2707(4)
C98 C 0.5966(8) 0.5356(8) 0.2730(7)
C69A C 0.4391(10) 0.3198(9) 0.1718(6)
C70A C 0.4372(9) 0.2888(7) 0.2065(5)
C71A C 0.4906(9) 0.2685(5) 0.2291(4)
C72A C 0.5272(10) 0.2876(8) 0.2094(5)
C73A C 0.4948(10) 0.3202(7) 0.1726(4)
C74A C 0.5175(11) 0.3722(11) 0.1607(6)
C75A C 0.5694(9) 0.3908(11) 0.1826(6)
C76A C 0.6000(8) 0.3601(9) 0.2147(7)
C77A C 0.5789(8) 0.3076(8) 0.2301(6)
C78A C 0.5953(8) 0.3068(8) 0.2730(6)
C79A C 0.6313(7) 0.3609(9) 0.2886(6)
C80A C 0.6328(6) 0.3899(11) 0.2523(8)
C81A C 0.6333(6) 0.4538(11) 0.2531(7)
C82A C 0.6321(6) 0.4828(9) 0.2891(7)
C83A C 0.6286(7) 0.4548(9) 0.3210(6)
C84A C 0.6263(7) 0.3872(9) 0.3230(5)
C85A C 0.5903(9) 0.3692(12) 0.3413(5)
C86A C 0.6010(7) 0.4860(9) 0.2161(7)
C87A C 0.5791(10) 0.5375(8) 0.2313(7)
C88A C 0.5281(10) 0.5555(7) 0.2082(5)
C89A C 0.4980(10) 0.5228(9) 0.1730(6)
C90A C 0.5178(12) 0.4728(11) 0.1606(6)
C91A C 0.5695(11) 0.4564(11) 0.1820(7)
C92A C 0.4770(13) 0.4225(9) 0.1462(4)
C93A C 0.4278(9) 0.4246(15) 0.1451(5)
C94A C 0.4080(9) 0.4754(11) 0.1584(5)
C95A C 0.4410(11) 0.5226(8) 0.1715(5)
C96A C 0.4363(7) 0.5542(7) 0.2058(7)
C97A C 0.4913(9) 0.5758(5) 0.2293(4)
C98A C 0.4034(8) 0.5356(8) 0.2270(7)
P1 P 0.6123(3) 0.7488(3) 0.3561(2)
F1 F 0.6470(4) 0.8041(4) 0.3775(3)
F2 F 0.5761(4) 0.6942(4) 0.3332(4)
F3 F 0.5896(4) 0.7405(5) 0.3920(4)
F4 F 0.5609(4) 0.7934(5) 0.3325(5)
F5 F 0.6352(4) 0.7599(4) 0.3191(3)
F6 F 0.6607(4) 0.7096(4) 0.3778(3)
P2 P 0.4612(2) 0.0903(2) 0.36512(15)
F7 F 0.5156(3) 0.1031(4) 0.4028(3)
F8 F 0.4064(3) 0.0773(3) 0.3278(2)
F9 F 0.4252(3) 0.1322(3) 0.3859(2)
F10 F 0.4749(3) 0.1455(4) 0.3424(2)
F11 F 0.4963(4) 0.0491(4) 0.3446(4)
F12 F 0.4472(3) 0.0331(4) 0.3894(3)
P3 P 0.8117(2) 0.3473(2) 0.34131(16)
F13 F 0.7763(4) 0.3895(4) 0.3073(3)
F14 F 0.8467(4) 0.3034(4) 0.3758(3)
F15 F 0.8655(4) 0.3831(4) 0.3454(3)
F16 F 0.8032(4) 0.3852(4) 0.3761(3)
F17 F 0.7603(4) 0.3083(4) 0.3381(3)
F18 F 0.8249(4) 0.3097(4) 0.3067(3)
P4 P 0.2115(8) 0.4810(6) 0.3072(4)
F19 F 0.2429(15) 0.5428(9) 0.3119(6)
F20 F 0.1830(10) 0.4176(11) 0.3009(8)
F21 F 0.171(2) 0.5029(16) 0.3257(14)
F22 F 0.1773(14) 0.5038(13) 0.2656(11)
F23 F 0.2500(8) 0.4551(8) 0.2822(7)
F24 F 0.2481(13) 0.4551(9) 0.3482(9)
O1 O 0.6973(4) 0.3517(5) 0.6256(3)
N9 N 0.6863(5) 0.3937(6) 0.5640(4)
C99 C 0.6974(5) 0.3916(8) 0.6034(5)
H51 H 0.7073 0.4286 0.6165
C100 C 0.6683(6) 0.3388(8) 0.5408(5)
H52 H 0.6961 0.3257 0.5296
H53 H 0.6342 0.3461 0.5188
H54 H 0.6626 0.3081 0.5586
C101 C 0.6897(6) 0.4462(7) 0.5404(4)
H55 H 0.7085 0.4359 0.5214
H56 H 0.7098 0.4773 0.5586
H57 H 0.6530 0.4602 0.5255
P5? P 0.2462(7) 0.4694(7) 0.3231(4)
F25? F 0.2719(10) 0.4640(11) 0.3698(6)
F26? F 0.2839(8) 0.4197(8) 0.3169(6)
F27? F 0.2178(11) 0.4754(13) 0.2771(6)
F28? F 0.2092(9) 0.5194(10) 0.3307(7)
F29? F 0.2031(10) 0.4224(10) 0.3251(8)
F30? F 0.2891(8) 0.5163(9) 0.3228(6)
loop_
_geom_bond_atom_site_label_1
_geom_bond_atom_site_label_2
_geom_bond_site_symmetry_1
_geom_bond_site_symmetry_2
N1 C1 1_555 1_555
N2 H1 1_555 1_555
N3 C11 1_555 1_555
N4 H2 1_555 1_555
N5 C33 1_555 1_555
N6 C41 1_555 1_555
N7 C57 1_555 1_555
N8 C65 1_555 1_555
C1 C2 1_555 1_555
C2 H3 1_555 1_555
C3 C2 1_555 1_555
H4 C3 1_555 1_555
C4 N1 1_555 1_555
C5 C4 1_555 1_555
C6 N2 1_555 1_555
C7 C6 1_555 1_555
H5 C7 1_555 1_555
C8 C7 1_555 1_555
H6 C8 1_555 1_555
C9 N2 1_555 1_555
C10 C9 1_555 1_555
C11 C10 1_555 1_555
C12 C11 1_555 1_555
H7 C12 1_555 1_555
C13 C12 1_555 1_555
H8 C13 1_555 1_555
C14 N3 1_555 1_555
C15 C14 1_555 1_555
C16 N4 1_555 1_555
C17 C16 1_555 1_555
H9 C17 1_555 1_555
C18 C17 1_555 1_555
H10 C18 1_555 1_555
C19 N4 1_555 1_555
C20 C1 1_555 1_555
C21 C5 1_555 1_555
C22 C21 1_555 1_555
H11 C22 1_555 1_555
C23 C22 1_555 1_555
H12 C23 1_555 1_555
C24 C23 1_555 1_555
H13 C24 1_555 1_555
C25 C24 1_555 1_555
C26 C21 1_555 1_555
H14 C26 1_555 1_555
C27 C10 1_555 1_555
C28 C27 1_555 1_555
H15 C28 1_555 1_555
C29 C28 1_555 1_555
H16 C29 1_555 1_555
C30 C29 1_555 1_555
H17 C30 1_555 1_555
C31 C30 1_555 1_555
C32 C27 1_555 1_555
H18 C32 1_555 1_555
C33 C31 1_555 1_555
H19 C33 1_555 1_555
H20 C33 1_555 1_555
C34 N5 1_555 1_555
H21 C34 1_555 1_555
C35 C34 1_555 1_555
H22 C35 1_555 1_555
C36 C35 1_555 1_555
C37 C36 1_555 1_555
H23 C37 1_555 1_555
C38 N5 1_555 1_555
H24 C38 1_555 1_555
C39 C36 1_555 1_555
C40 C39 1_555 1_555
H25 C40 1_555 1_555
C41 C40 1_555 1_555
H26 C41 1_555 1_555
C42 N6 1_555 1_555
H27 C42 1_555 1_555
C43 C39 1_555 1_555
H28 C43 1_555 1_555
C44 N6 1_555 1_555
H29 C44 1_555 1_555
H30 C44 1_555 1_555
C45 C15 1_555 1_555
C46 C45 1_555 1_555
H31 C46 1_555 1_555
C47 C46 1_555 1_555
C48 C47 1_555 1_555
H32 C48 1_555 1_555
C49 C48 1_555 1_555
H33 C49 1_555 1_555
C50 C45 1_555 1_555
H34 C50 1_555 1_555
C51 C20 1_555 1_555
C52 C51 1_555 1_555
H35 C52 1_555 1_555
C53 C52 1_555 1_555
C54 C53 1_555 1_555
H36 C54 1_555 1_555
C55 C54 1_555 1_555
H37 C55 1_555 1_555
C56 C51 1_555 1_555
H38 C56 1_555 1_555
C57 C53 1_555 1_555
H39 C57 1_555 1_555
H40 C57 1_555 1_555
C58 N7 1_555 1_555
H41 C58 1_555 1_555
C59 C58 1_555 1_555
H42 C59 1_555 1_555
C60 C59 1_555 1_555
C61 C60 1_555 1_555
H43 C61 1_555 1_555
C62 N7 1_555 1_555
H44 C62 1_555 1_555
C63 C60 1_555 1_555
C64 C63 1_555 1_555
H45 C64 1_555 1_555
C65 C64 1_555 1_555
H46 C65 1_555 1_555
C66 N8 1_555 1_555
H47 C66 1_555 1_555
C67 C63 1_555 1_555
H48 C67 1_555 1_555
C68 N8 1_555 1_555
H49 C68 1_555 1_555
H50 C68 1_555 1_555
C69 C70 1_555 1_555
C70 C71 1_555 1_555
C71 C72 1_555 1_555
C72 C73 1_555 1_555
C73 C69 1_555 1_555
C74 C73 1_555 1_555
C75 C74 1_555 1_555
C76 C75 1_555 1_555
C77 C72 1_555 1_555
C78 C77 1_555 1_555
C79 C78 1_555 1_555
C80 C76 1_555 1_555
C81 C80 1_555 1_555
C82 C81 1_555 1_555
C83 C82 1_555 1_555
C84 C79 1_555 1_555
C85 C84 1_555 1_555
C86 C81 1_555 1_555
C87 C86 1_555 1_555
C88 C87 1_555 1_555
C89 C88 1_555 1_555
C90 C89 1_555 1_555
C91 C75 1_555 1_555
C92 C74 1_555 1_555
C93 C92 1_555 1_555
C94 C93 1_555 1_555
C95 C89 1_555 1_555
C96 C95 1_555 1_555
C97 C88 1_555 1_555
C98 C96 1_555 1_555
P1 F1 1_555 1_555
F2 P1 1_555 1_555
F3 P1 1_555 1_555
F4 P1 1_555 1_555
F5 P1 1_555 1_555
F6 P1 1_555 1_555
P2 F7 1_555 1_555
F8 P2 1_555 1_555
F9 P2 1_555 1_555
F10 P2 1_555 1_555
F11 P2 1_555 1_555
F12 P2 1_555 1_555
P3 F13 1_555 1_555
F14 P3 1_555 1_555
F15 P3 1_555 1_555
F16 P3 1_555 1_555
F17 P3 1_555 1_555
F18 P3 1_555 1_555
P4 F19 1_555 1_555
F20 P4 1_555 1_555
F21 P4 1_555 1_555
F22 P4 1_555 1_555
F23 P4 1_555 1_555
F24 P4 1_555 1_555
O1 C99 1_555 1_555
N9 C99 1_555 1_555
C99 H51 1_555 1_555
C100 N9 1_555 1_555
H52 C100 1_555 1_555
H53 C100 1_555 1_555
H54 C100 1_555 1_555
C101 N9 1_555 1_555
H55 C101 1_555 1_555
H56 C101 1_555 1_555
H57 C101 1_555 1_555
N1A C1A 1_555 1_555
N2A H1A 1_555 1_555
N3A C11A 1_555 1_555
N4A H2A 1_555 1_555
N5A C33A 1_555 1_555
N6A C41A 1_555 1_555
N7A C57A 1_555 1_555
N8A C65A 1_555 1_555
C1A C2A 1_555 1_555
C2A H3A 1_555 1_555
C3A C2A 1_555 1_555
H4A C3A 1_555 1_555
C4A N1A 1_555 1_555
C5A C4A 1_555 1_555
C6A N2A 1_555 1_555
C7A C6A 1_555 1_555
H5A C7A 1_555 1_555
C8A C7A 1_555 1_555
H6A C8A 1_555 1_555
C9A N2A 1_555 1_555
C10A C9A 1_555 1_555
C11A C10A 1_555 1_555
C12A C11A 1_555 1_555
H7A C12A 1_555 1_555
C13A C12A 1_555 1_555
H8A C13A 1_555 1_555
C14A N3A 1_555 1_555
C15A C14A 1_555 1_555
C16A N4A 1_555 1_555
C17A C16A 1_555 1_555
H9A C17A 1_555 1_555
C18A C17A 1_555 1_555
H10A C18A 1_555 1_555
C19A N4A 1_555 1_555
C20A C1A 1_555 1_555
C21A C5A 1_555 1_555
C22A C21A 1_555 1_555
H11A C22A 1_555 1_555
C23A C22A 1_555 1_555
H12A C23A 1_555 1_555
C24A C23A 1_555 1_555
H13A C24A 1_555 1_555
C25A C68 1_555 1_555
C26A C21A 1_555 1_555
H14A C26A 1_555 1_555
C27A C10A 1_555 1_555
C28A C27A 1_555 1_555
H15A C28A 1_555 1_555
C29A C28A 1_555 1_555
H16A C29A 1_555 1_555
C30A C29A 1_555 1_555
H17A C30A 1_555 1_555
C31A C30A 1_555 1_555
C32A C27A 1_555 1_555
H18A C32A 1_555 1_555
C33A C31A 1_555 1_555
H19A C33A 1_555 1_555
H20A C33A 1_555 1_555
C34A N5A 1_555 1_555
H21A C34A 1_555 1_555
C35A C34A 1_555 1_555
H22A C35A 1_555 1_555
C36A C35A 1_555 1_555
C37A C36A 1_555 1_555
H23A C37A 1_555 1_555
C38A N5A 1_555 1_555
H24A C38A 1_555 1_555
C39A C36A 1_555 1_555
C40A C39A 1_555 1_555
H25A C40A 1_555 1_555
C41A C40A 1_555 1_555
H26A C41A 1_555 1_555
C42A N6A 1_555 1_555
H27A C42A 1_555 1_555
C43A C39A 1_555 1_555
H28A C43A 1_555 1_555
C44A C47 1_555 1_555
H29A C44A 1_555 1_555
H30A C44A 1_555 1_555
C45A C15A 1_555 1_555
C46A C45A 1_555 1_555
H31A C46A 1_555 1_555
C47A C44 1_555 1_555
C48A C47A 1_555 1_555
H32A C48A 1_555 1_555
C49A C48A 1_555 1_555
H33A C49A 1_555 1_555
C50A C45A 1_555 1_555
H34A C50A 1_555 1_555
C51A C20A 1_555 1_555
C52A C51A 1_555 1_555
H35A C52A 1_555 1_555
C53A C52A 1_555 1_555
C54A C53A 1_555 1_555
H36A C54A 1_555 1_555
C55A C54A 1_555 1_555
H37A C55A 1_555 1_555
C56A C51A 1_555 1_555
H38A C56A 1_555 1_555
C57A C53A 1_555 1_555
H39A C57A 1_555 1_555
H40A C57A 1_555 1_555
C58A N7A 1_555 1_555
H41A C58A 1_555 1_555
C59A C58A 1_555 1_555
H42A C59A 1_555 1_555
C60A C59A 1_555 1_555
C61A C60A 1_555 1_555
H43A C61A 1_555 1_555
C62A N7A 1_555 1_555
H44A C62A 1_555 1_555
C63A C60A 1_555 1_555
C64A C63A 1_555 1_555
H45A C64A 1_555 1_555
C65A C64A 1_555 1_555
H46A C65A 1_555 1_555
C66A N8A 1_555 1_555
H47A C66A 1_555 1_555
C67A C63A 1_555 1_555
H48A C67A 1_555 1_555
C68A C25 1_555 1_555
H49A C68A 1_555 1_555
H50A C68A 1_555 1_555
C69A C85 1_555 1_555
C70A C78 1_555 1_555
C71A C71 1_555 1_555
C72A C71A 1_555 1_555
C73A C69A 1_555 1_555
C74A C73A 1_555 1_555
C75A C74A 1_555 1_555
C76A C75A 1_555 1_555
C77A C72A 1_555 1_555
C78A C70 1_555 1_555
C79A C78A 1_555 1_555
C80A C76A 1_555 1_555
C81A C80A 1_555 1_555
C82A C98 1_555 1_555
C83A C94 1_555 1_555
C84A C79A 1_555 1_555
C85A C69 1_555 1_555
C86A C81A 1_555 1_555
C87A C98 1_555 1_555
C88A C87A 1_555 1_555
C89A C88A 1_555 1_555
C90A C89A 1_555 1_555
C91A C75A 1_555 1_555
C92A C74A 1_555 1_555
C93A C85 1_555 1_555
C94A C83 1_555 1_555
C95A C89A 1_555 1_555
C96A C95A 1_555 1_555
C97A C97 1_555 1_555
C98A C82 1_555 1_555
C3 C4 1_555 1_555
C5 C6 1_555 1_555
C8 C9 1_555 1_555
C13 C14 1_555 1_555
C15 C16 1_555 1_555
C18 C19 1_555 1_555
C19 C20 1_555 1_555
C25 C26 1_555 1_555
C31 C32 1_555 1_555
C37 C38 1_555 1_555
C42 C43 1_555 1_555
C49 C50 1_555 1_555
C55 C56 1_555 1_555
C61 C62 1_555 1_555
C66 C67 1_555 1_555
C76 C77 1_555 1_555
C79 C80 1_555 1_555
C83 C84 1_555 1_555
C86 C91 1_555 1_555
C87 C98A 1_555 1_555
C90 C91 1_555 1_555
C90 C92 1_555 1_555
C93 C85A 1_555 1_555
C94 C95 1_555 1_555
C96 C97 1_555 1_555
N6A C44A 1_555 1_555
N8A C68A 1_555 1_555
C3A C4A 1_555 1_555
C5A C6A 1_555 1_555
C8A C9A 1_555 1_555
C13A C14A 1_555 1_555
C15A C16A 1_555 1_555
C18A C19A 1_555 1_555
C19A C20A 1_555 1_555
C24A C25A 1_555 1_555
C25A C26A 1_555 1_555
C31A C32A 1_555 1_555
C37A C38A 1_555 1_555
C42A C43A 1_555 1_555
C46A C47A 1_555 1_555
C49A C50A 1_555 1_555
C55A C56A 1_555 1_555
C61A C62A 1_555 1_555
C66A C67A 1_555 1_555
C69A C70A 1_555 1_555
C70A C71A 1_555 1_555
C72A C73A 1_555 1_555
C76A C77A 1_555 1_555
C77A C78A 1_555 1_555
C79A C80A 1_555 1_555
C81A C82A 1_555 1_555
C82A C83A 1_555 1_555
C83A C84A 1_555 1_555
C84A C85A 1_555 1_555
C86A C87A 1_555 1_555
C86A C91A 1_555 1_555
C88A C97A 1_555 1_555
C90A C91A 1_555 1_555
C90A C92A 1_555 1_555
C92A C93A 1_555 1_555
C93A C94A 1_555 1_555
C94A C95A 1_555 1_555
C96A C97A 1_555 1_555
C96A C98A 1_555 1_555

#END
