
#######################################################################
#
#                 Cambridge Crystallographic Data Centre
#                                CCDC 
#
#######################################################################
#
# If this CIF has been generated from an entry in the Cambridge 
# Structural Database, then it will include bibliographic, chemical, 
# crystal, experimental, refinement or atomic coordinate data resulting 
# from the CCDC's data processing and validation procedures.
#
#######################################################################

data_LIKFER
_chemical_formula_moiety         'C12 H12 N2 O2'
_chemical_name_systematic        1,2-bis(4-pyridyl)glycol
_symmetry_cell_setting           orthorhombic
_symmetry_space_group_name_H-M   'P b c a'
_symmetry_Int_Tables_number      61
_space_group_name_Hall           '-P 2ac 2ab'
loop_
_symmetry_equiv_pos_site_id
_symmetry_equiv_pos_as_xyz
1 x,y,z
2 1/2-x,-y,1/2+z
3 -x,1/2+y,1/2-z
4 1/2+x,1/2-y,-z
5 -x,-y,-z
6 1/2+x,y,1/2-z
7 x,1/2-y,1/2+z
8 1/2-x,1/2+y,z
_cell_length_a                   8.060(2)
_cell_length_b                   11.318(2)
_cell_length_c                   11.547(2)
_cell_angle_alpha                90
_cell_angle_beta                 90
_cell_angle_gamma                90
_cell_volume                     1053.35
_exptl_crystal_colour            colorless
_exptl_crystal_description       diamond-shape
_cell_formula_units_Z            4
_exptl_crystal_recrystallization_method water
loop_
_atom_site_label
_atom_site_type_symbol
_atom_site_fract_x
_atom_site_fract_y
_atom_site_fract_z
N1 N 0.1514(2) 0.33078(17) 0.71975(16)
O1 O 0.18458(18) 0.02060(12) 0.41315(12)
H1 H 0.1951 0.0602 0.3541
C1 C 0.1936(3) 0.2182(2) 0.73858(19)
H2 H 0.2501 0.2003 0.8066
C2 C 0.1586(3) 0.1275(2) 0.66349(18)
H3 H 0.1928 0.0509 0.6805
C3 C 0.0713(3) 0.15073(17) 0.56156(17)
C4 C 0.0259(3) 0.26697(18) 0.54308(18)
H4 H -0.0330 0.2872 0.4767
C5 C 0.0674(3) 0.35300(18) 0.6224(2)
H5 H 0.0354 0.4304 0.6074
C6 C 0.0359(3) 0.05543(18) 0.47289(17)
H6 H -0.0435 0.0863 0.4162
N1D N -0.1514(2) -0.33078(17) 0.28025(16)
O1D O -0.18458(18) -0.02060(12) 0.58685(12)
H1D H -0.1951 -0.0602 0.6459
C1D C -0.1936(3) -0.2182(2) 0.26142(19)
H2D H -0.2501 -0.2003 0.1934
C2D C -0.1586(3) -0.1275(2) 0.33651(18)
H3D H -0.1928 -0.0509 0.3195
C3D C -0.0713(3) -0.15073(17) 0.43844(17)
C4D C -0.0259(3) -0.26697(18) 0.45692(18)
H4D H 0.0330 -0.2872 0.5233
C5D C -0.0674(3) -0.35300(18) 0.3776(2)
H5D H -0.0354 -0.4304 0.3926
C6D C -0.0359(3) -0.05543(18) 0.52711(17)
H6D H 0.0435 -0.0863 0.5838
loop_
_geom_bond_atom_site_label_1
_geom_bond_atom_site_label_2
_geom_bond_site_symmetry_1
_geom_bond_site_symmetry_2
N1 C1 1_555 1_555
O1 H1 1_555 1_555
C1 H2 1_555 1_555
C2 C1 1_555 1_555
H3 C2 1_555 1_555
C3 C2 1_555 1_555
C4 C3 1_555 1_555
H4 C4 1_555 1_555
C5 N1 1_555 1_555
H5 C5 1_555 1_555
C6 O1 1_555 1_555
H6 C6 1_555 1_555
N1D C1D 1_555 1_555
O1D H1D 1_555 1_555
C1D H2D 1_555 1_555
C2D C1D 1_555 1_555
H3D C2D 1_555 1_555
C3D C2D 1_555 1_555
C4D C3D 1_555 1_555
H4D C4D 1_555 1_555
C5D N1D 1_555 1_555
H5D C5D 1_555 1_555
C6D C6 1_555 1_555
H6D C6D 1_555 1_555
C3 C6 1_555 1_555
C4 C5 1_555 1_555
O1D C6D 1_555 1_555
C3D C6D 1_555 1_555
C4D C5D 1_555 1_555

#END
