
#######################################################################
#
#                 Cambridge Crystallographic Data Centre
#                                CCDC 
#
#######################################################################
#
# If this CIF has been generated from an entry in the Cambridge 
# Structural Database, then it will include bibliographic, chemical, 
# crystal, experimental, refinement or atomic coordinate data resulting 
# from the CCDC's data processing and validation procedures.
#
#######################################################################

data_LIKFET
_chemical_name_common            'Filgotinib hydrochloride trihydrate'
_chemical_formula_moiety         'C21 H24 N5 O3 S1 1+,3(H2 O1),Cl1 1-'
_chemical_name_systematic        
'4-[(4-{2-[(cyclopropanecarbonyl)amino][1,2,4]triazolo[1,5-a]pyridin-5-yl}phenyl)methyl]-1,1-dioxo-1,4-thiazinan-4-ium chloride trihydrate'
_chemical_properties_biological  
'Filgotinib (also known as GLPG-0634) is a selective JAK1 inhibitor'
_symmetry_cell_setting           monoclinic
_symmetry_space_group_name_H-M   'P 21/n'
_symmetry_Int_Tables_number      14
_space_group_name_Hall           '-P 2yn'
loop_
_symmetry_equiv_pos_site_id
_symmetry_equiv_pos_as_xyz
1 x,y,z
2 1/2-x,1/2+y,1/2-z
3 -x,-y,-z
4 1/2+x,1/2-y,1/2+z
_cell_length_a                   13.203(3)
_cell_length_b                   9.0111(18)
_cell_length_c                   21.780(4)
_cell_angle_alpha                90
_cell_angle_beta                 102.242(4)
_cell_angle_gamma                90
_cell_volume                     2532.32
_exptl_crystal_colour            'light colorless'
_exptl_crystal_description       plate
_cell_formula_units_Z            4
loop_
_atom_site_label
_atom_site_type_symbol
_atom_site_fract_x
_atom_site_fract_y
_atom_site_fract_z
S1 S 0.82615(4) 0.53379(5) 0.10202(2)
O1 O 0.92423(11) 0.53840(17) 0.08250(7)
O2 O 0.73247(12) 0.55706(19) 0.05501(7)
N1 N 0.81479(11) 0.79112(17) 0.53859(7)
N2 N 0.72199(11) 0.74265(17) 0.50246(8)
O3 O 0.53885(12) 0.6372(2) 0.42974(8)
N3 N 0.90399(12) 0.47741(16) 0.24662(8)
N4 N 0.69512(13) 0.86721(19) 0.58962(8)
N5 N 0.54881(12) 0.7738(2) 0.51834(9)
H1 H 0.5115 0.8118 0.5435
C1 C 0.91099(14) 0.7761(2) 0.52380(9)
C2 C 0.79740(15) 0.8666(2) 0.59051(9)
C3 C 0.65547(14) 0.7927(2) 0.53614(9)
C4 C 0.92404(14) 0.6946(2) 0.46675(9)
C5 C 0.96219(14) 0.5388(2) 0.36145(9)
C6 C 0.82097(15) 0.3643(2) 0.14263(9)
H2 H 0.7542 0.3572 0.1562
H3 H 0.8253 0.2800 0.1142
C7 C 0.83026(15) 0.6635(2) 0.16342(10)
H4 H 0.8408 0.7642 0.1477
H5 H 0.7629 0.6627 0.1765
C8 C 0.90991(15) 0.3556(2) 0.19970(10)
H6 H 0.9083 0.2579 0.2203
H7 H 0.9765 0.3635 0.1859
C9 C 0.97731(16) 0.9160(2) 0.61949(10)
H8 H 1.0355 0.9583 0.6472
C10 C 0.91660(15) 0.6294(2) 0.22008(9)
H9 H 0.9843 0.6348 0.2075
H10 H 0.9163 0.7051 0.2530
C11 C 1.02211(15) 0.6619(2) 0.38516(10)
H11 H 1.0761 0.6940 0.3656
C12 C 0.86327(14) 0.5712(2) 0.44275(9)
H12 H 0.8085 0.5399 0.4618
C13 C 0.99199(15) 0.8407(2) 0.56541(10)
H13 H 1.0599 0.8343 0.5574
C14 C 0.88331(15) 0.4948(2) 0.39114(10)
H14 H 0.8423 0.4107 0.3757
C15 C 1.00352(14) 0.7377(2) 0.43708(10)
H15 H 1.0456 0.8205 0.4528
C16 C 0.88131(16) 0.9299(2) 0.63309(10)
H16 H 0.8717 0.9802 0.6698
C17 C 0.98427(15) 0.4515(2) 0.30657(10)
H17 H 0.9862 0.3445 0.3170
H18 H 1.0534 0.4799 0.2996
C18 C 0.49578(15) 0.7023(2) 0.46589(11)
C19 C 0.31584(18) 0.5880(3) 0.42443(14)
H19 H 0.3519 0.5010 0.4113
H20 H 0.2512 0.5644 0.4386
C20 C 0.38130(18) 0.7128(4) 0.45671(14)
H21 H 0.3540 0.7673 0.4898
C21 C 0.3195(2) 0.7250(3) 0.39107(16)
H22 H 0.2571 0.7889 0.3838
H23 H 0.3578 0.7255 0.3566
H24 H 0.8338(19) 0.476(3) 0.2544(12)
Cl1 Cl 0.67594(4) 0.49397(6) 0.25598(2)
O4 O 0.15664(13) 0.53320(19) 0.21128(8)
H25 H 0.2032 0.4701 0.2261
H26 H 0.1580 0.5509 0.1731
O5 O 0.32085(17) 0.3385(2) 0.25007(11)
H27 H 0.368(4) 0.365(5) 0.282(2)
H28 H 0.306(4) 0.253(7) 0.265(3)
O6 O 0.49708(16) 0.4441(3) 0.32940(12)
H29 H 0.5019 0.5041 0.3600
H30 H 0.5445 0.4627 0.3095
loop_
_geom_bond_atom_site_label_1
_geom_bond_atom_site_label_2
_geom_bond_site_symmetry_1
_geom_bond_site_symmetry_2
S1 O1 1_555 1_555
O2 S1 1_555 1_555
N1 N2 1_555 1_555
N2 C3 1_555 1_555
O3 C18 1_555 1_555
N3 C8 1_555 1_555
N4 C2 1_555 1_555
N5 H1 1_555 1_555
C1 N1 1_555 1_555
C2 N1 1_555 1_555
C3 N4 1_555 1_555
C4 C1 1_555 1_555
C5 C11 1_555 1_555
C6 S1 1_555 1_555
H2 C6 1_555 1_555
H3 C6 1_555 1_555
C7 S1 1_555 1_555
H4 C7 1_555 1_555
H5 C7 1_555 1_555
C8 C6 1_555 1_555
H6 C8 1_555 1_555
H7 C8 1_555 1_555
C9 H8 1_555 1_555
C10 N3 1_555 1_555
H9 C10 1_555 1_555
H10 C10 1_555 1_555
C11 H11 1_555 1_555
C12 C4 1_555 1_555
H12 C12 1_555 1_555
C13 C1 1_555 1_555
H13 C13 1_555 1_555
C14 C5 1_555 1_555
H14 C14 1_555 1_555
C15 C4 1_555 1_555
H15 C15 1_555 1_555
C16 C2 1_555 1_555
H16 C16 1_555 1_555
C17 N3 1_555 1_555
H17 C17 1_555 1_555
H18 C17 1_555 1_555
C18 N5 1_555 1_555
C19 H19 1_555 1_555
H20 C19 1_555 1_555
C20 C18 1_555 1_555
H21 C20 1_555 1_555
C21 C19 1_555 1_555
H22 C21 1_555 1_555
H23 C21 1_555 1_555
H24 N3 1_555 1_555
O4 H25 1_555 1_555
H26 O4 1_555 1_555
O5 H27 1_555 1_555
H28 O5 1_555 1_555
O6 H29 1_555 1_555
H30 O6 1_555 1_555
N5 C3 1_555 1_555
C5 C17 1_555 1_555
C7 C10 1_555 1_555
C9 C13 1_555 1_555
C9 C16 1_555 1_555
C11 C15 1_555 1_555
C12 C14 1_555 1_555
C19 C20 1_555 1_555
C20 C21 1_555 1_555

#END
