
#######################################################################
#
#                 Cambridge Crystallographic Data Centre
#                                CCDC 
#
#######################################################################
#
# If this CIF has been generated from an entry in the Cambridge 
# Structural Database, then it will include bibliographic, chemical, 
# crystal, experimental, refinement or atomic coordinate data resulting 
# from the CCDC's data processing and validation procedures.
#
#######################################################################

data_LIKFAP
_chemical_name_common            
'Filgotinib hydrochloride N,N-dimethylformamide solvate'
_chemical_formula_moiety         'C21 H24 N5 O3 S1 1+,C3 H7 N1 O1,Cl1 1-'
_chemical_name_systematic        
'4-[(4-{2-[(cyclopropanecarbonyl)amino][1,2,4]triazolo[1,5-a]pyridin-5-yl}phenyl)methyl]-1,1-dioxo-1,4-thiazinan-4-ium chloride N,N-dimethylformamide solvate'
_chemical_properties_biological  
'Filgotinib (also known as GLPG-0634) is a selective JAK1 inhibitor'
_symmetry_cell_setting           triclinic
_symmetry_space_group_name_H-M   'P -1'
_symmetry_Int_Tables_number      2
_space_group_name_Hall           '-P 1'
loop_
_symmetry_equiv_pos_site_id
_symmetry_equiv_pos_as_xyz
1 x,y,z
2 -x,-y,-z
_cell_length_a                   10.5231(3)
_cell_length_b                   11.2134(4)
_cell_length_c                   11.9000(4)
_cell_angle_alpha                104.588(2)
_cell_angle_beta                 93.224(2)
_cell_angle_gamma                104.281(2)
_cell_volume                     1306.4
_exptl_crystal_colour            'light colorless'
_exptl_crystal_description       plate
_cell_formula_units_Z            2
loop_
_atom_site_label
_atom_site_type_symbol
_atom_site_fract_x
_atom_site_fract_y
_atom_site_fract_z
S1 S 0.05960(5) -0.22691(5) 0.01951(4)
O1 O -0.05779(15) -0.18882(15) -0.00413(14)
O2 O 0.04864(17) -0.35941(15) 0.00727(14)
N1 N 0.77496(17) 0.47641(16) 0.58714(14)
N2 N 0.27664(16) 0.03509(16) 0.09188(14)
H1 H 0.3497 -0.0026 0.1063
N3 N 0.82576(17) 0.54388(16) 0.51132(14)
O3 O 1.0946(2) 0.88270(18) 0.69071(14)
N4 N 0.95664(17) 0.62019(17) 0.68850(15)
N5 N 1.01495(18) 0.71229(18) 0.52869(15)
H2 H 1.0191 0.6860 0.4540
C1 C 0.9336(2) 0.62691(19) 0.57796(17)
C2 C 0.5799(2) 0.33686(19) 0.44852(18)
C3 C 0.6589(2) 0.3806(2) 0.56529(18)
C4 C 0.8546(2) 0.5243(2) 0.69386(18)
C5 C 0.2185(2) -0.02292(19) -0.03523(17)
H3 H 0.2839 0.0051 -0.0853
H4 H 0.1411 0.0073 -0.0502
C6 C 0.1774(2) 0.0049(2) 0.17323(17)
H5 H 0.0997 0.0334 0.1551
H6 H 0.2159 0.0517 0.2540
C7 C 0.4191(2) 0.23446(19) 0.23294(18)
C8 C 0.4461(2) 0.3327(2) 0.44116(19)
H7 H 0.4094 0.3634 0.5092
C9 C 0.1780(2) -0.1684(2) -0.06575(17)
H8 H 0.2564 -0.1983 -0.0540
H9 H 0.1419 -0.2031 -0.1486
C10 C 0.3346(2) 0.17814(19) 0.11608(19)
H10 H 0.3882 0.1955 0.0543
H11 H 0.2628 0.2193 0.1146
C11 C 0.3671(2) 0.2835(2) 0.33401(19)
H12 H 0.2776 0.2833 0.3296
C12 C 0.1348(2) -0.1373(2) 0.16276(18)
H13 H 0.0723 -0.1533 0.2187
H14 H 0.2122 -0.1655 0.1825
C13 C 0.6233(2) 0.3313(2) 0.6561(2)
H15 H 0.5442 0.2661 0.6453
C14 C 0.6330(2) 0.2922(2) 0.34699(19)
H16 H 0.7238 0.2977 0.3504
C15 C 0.8165(2) 0.4706(2) 0.78591(19)
H17 H 0.8686 0.4997 0.8593
C16 C 0.5524(2) 0.2395(2) 0.2407(2)
H18 H 0.5887 0.2068 0.1730
C17 C 0.7022(3) 0.3755(2) 0.7656(2)
H19 H 0.6752 0.3385 0.8259
C18 C 1.0893(2) 0.8337(2) 0.58578(19)
C19 C 1.1649(3) 0.9014(3) 0.5083(2)
H20 H 1.1577 0.8523 0.4254
C20 C 1.2934(3) 0.9967(3) 0.5591(3)
H21 H 1.3235 1.0099 0.6418
H22 H 1.3641 1.0037 0.5089
C21 C 1.1797(4) 1.0424(3) 0.5314(3)
H23 H 1.1794 1.0774 0.4638
H24 H 1.1388 1.0836 0.5968
Cl1 Cl 0.47105(5) -0.11718(6) 0.12356(5)
O4 O 0.93247(19) 0.68801(19) 0.29270(15)
N6 N 0.7445(2) 0.5895(2) 0.16828(17)
C22 C 0.8579(3) 0.5952(3) 0.2236(3)
H25 H 0.8843 0.5191 0.2080
C23 C 0.6664(4) 0.4792(3) 0.0817(4)
H26 H 0.7148 0.4148 0.0648
H27 H 0.6466 0.5024 0.0108
H28 H 0.5846 0.4451 0.1104
C24 C 0.7029(4) 0.7065(4) 0.1804(4)
H29 H 0.6492 0.7167 0.2439
H30 H 0.6518 0.7012 0.1081
H31 H 0.7803 0.7793 0.1973
loop_
_geom_bond_atom_site_label_1
_geom_bond_atom_site_label_2
_geom_bond_site_symmetry_1
_geom_bond_site_symmetry_2
S1 O1 1_555 1_555
O2 S1 1_555 1_555
N1 N3 1_555 1_555
N2 H1 1_555 1_555
N3 C1 1_555 1_555
O3 C18 1_555 1_555
N4 C1 1_555 1_555
N5 H2 1_555 1_555
C1 N5 1_555 1_555
C2 C3 1_555 1_555
C3 N1 1_555 1_555
C4 N1 1_555 1_555
C5 N2 1_555 1_555
H3 C5 1_555 1_555
H4 C5 1_555 1_555
C6 N2 1_555 1_555
H5 C6 1_555 1_555
H6 C6 1_555 1_555
C7 C10 1_555 1_555
C8 C2 1_555 1_555
H7 C8 1_555 1_555
C9 S1 1_555 1_555
H8 C9 1_555 1_555
H9 C9 1_555 1_555
C10 N2 1_555 1_555
H10 C10 1_555 1_555
H11 C10 1_555 1_555
C11 C7 1_555 1_555
H12 C11 1_555 1_555
C12 S1 1_555 1_555
H13 C12 1_555 1_555
H14 C12 1_555 1_555
C13 C3 1_555 1_555
H15 C13 1_555 1_555
C14 C2 1_555 1_555
H16 C14 1_555 1_555
C15 C4 1_555 1_555
H17 C15 1_555 1_555
C16 C7 1_555 1_555
H18 C16 1_555 1_555
C17 C13 1_555 1_555
H19 C17 1_555 1_555
C18 N5 1_555 1_555
C19 C18 1_555 1_555
H20 C19 1_555 1_555
C20 C19 1_555 1_555
H21 C20 1_555 1_555
H22 C20 1_555 1_555
C21 C19 1_555 1_555
H23 C21 1_555 1_555
H24 C21 1_555 1_555
O4 C22 1_555 1_555
N6 C22 1_555 1_555
C22 H25 1_555 1_555
C23 N6 1_555 1_555
H26 C23 1_555 1_555
H27 C23 1_555 1_555
H28 C23 1_555 1_555
C24 N6 1_555 1_555
H29 C24 1_555 1_555
H30 C24 1_555 1_555
H31 C24 1_555 1_555
N4 C4 1_555 1_555
C5 C9 1_555 1_555
C6 C12 1_555 1_555
C8 C11 1_555 1_555
C14 C16 1_555 1_555
C15 C17 1_555 1_555
C20 C21 1_555 1_555

#END
