
#######################################################################
#
#                 Cambridge Crystallographic Data Centre
#                                CCDC 
#
#######################################################################
#
# If this CIF has been generated from an entry in the Cambridge 
# Structural Database, then it will include bibliographic, chemical, 
# crystal, experimental, refinement or atomic coordinate data resulting 
# from the CCDC's data processing and validation procedures.
#
#######################################################################

data_LIKGIW
_chemical_formula_moiety         'C13 H11 Cl1 N1 O4 P1'
_chemical_name_systematic        
'2-Chloro-3,3-dimethyl-3,4-dihydro-2H-naphtho(2,3-e)(1,4,2)oxazaphosphinane-5,10-dione 2-oxide'
_symmetry_cell_setting           monoclinic
_symmetry_space_group_name_H-M   'P 21/c'
_symmetry_Int_Tables_number      14
_space_group_name_Hall           '-P 2ybc'
loop_
_symmetry_equiv_pos_site_id
_symmetry_equiv_pos_as_xyz
1 x,y,z
2 -x,1/2+y,1/2-z
3 -x,-y,-z
4 x,1/2-y,1/2+z
_cell_length_a                   10.822(2)
_cell_length_b                   11.795(2)
_cell_length_c                   11.717(2)
_cell_angle_alpha                90
_cell_angle_beta                 110.791(3)
_cell_angle_gamma                90
_cell_volume                     1398.23
_exptl_crystal_colour            orange
_cell_formula_units_Z            4
_exptl_crystal_recrystallization_method ether/hexane
loop_
_atom_site_label
_atom_site_type_symbol
_atom_site_fract_x
_atom_site_fract_y
_atom_site_fract_z
P1 P 0.08358(6) 0.18815(5) 0.76266(5)
Cl1 Cl 0.22576(7) 0.09967(6) 0.88628(7)
H1 H 0.074(2) 0.352(2) 0.987(2)
N1 N 0.0884(2) 0.33742(18) 0.93172(19)
O1 O 0.33281(19) 0.42655(17) 0.68082(16)
O2 O 0.22451(18) 0.50000(16) 1.08357(15)
O3 O 0.15957(16) 0.28770(14) 0.72484(13)
O4 O 0.00385(15) 0.12219(14) 0.65718(13)
C1 C 0.3040(2) 0.4482(2) 0.7706(2)
C2 C 0.2126(2) 0.37902(19) 0.80389(19)
C3 C 0.1766(2) 0.39896(19) 0.90184(19)
C4 C 0.2433(2) 0.4919(2) 0.9883(2)
C5 C 0.3316(2) 0.5689(2) 0.9541(2)
C6 C 0.3610(2) 0.5480(2) 0.8494(2)
C7 C 0.4460(3) 0.6207(2) 0.8202(3)
H2 H 0.4679 0.6068 0.7516
C8 C 0.4985(3) 0.7139(3) 0.8929(3)
H3 H 0.5543 0.7631 0.8721
C9 C 0.4686(3) 0.7343(3) 0.9958(3)
H4 H 0.5042 0.7972 1.0443
C10 C 0.3863(2) 0.6622(2) 1.0269(2)
H5 H 0.3671 0.6757 1.0970
C11 C -0.0055(2) 0.2602(2) 0.8472(2)
C12 C -0.0574(3) 0.1768(3) 0.9187(2)
H6 H 0.0156 0.1387 0.9783
H7 H -0.1134 0.1221 0.8637
H8 H -0.1072 0.2171 0.9592
C13 C -0.1181(2) 0.3251(3) 0.7515(2)
H9 H -0.1649 0.3695 0.7917
H10 H -0.1777 0.2722 0.6970
H11 H -0.0820 0.3743 0.7060
loop_
_geom_bond_atom_site_label_1
_geom_bond_atom_site_label_2
_geom_bond_site_symmetry_1
_geom_bond_site_symmetry_2
P1 Cl1 1_555 1_555
H1 N1 1_555 1_555
N1 C3 1_555 1_555
O1 C1 1_555 1_555
O2 C4 1_555 1_555
O3 P1 1_555 1_555
O4 P1 1_555 1_555
C1 C2 1_555 1_555
C2 O3 1_555 1_555
C3 C2 1_555 1_555
C4 C3 1_555 1_555
C5 C4 1_555 1_555
C6 C1 1_555 1_555
C7 C6 1_555 1_555
H2 C7 1_555 1_555
C8 C7 1_555 1_555
H3 C8 1_555 1_555
C9 C8 1_555 1_555
H4 C9 1_555 1_555
C10 C5 1_555 1_555
H5 C10 1_555 1_555
C11 P1 1_555 1_555
C12 C11 1_555 1_555
H6 C12 1_555 1_555
H7 C12 1_555 1_555
H8 C12 1_555 1_555
C13 C11 1_555 1_555
H9 C13 1_555 1_555
H10 C13 1_555 1_555
H11 C13 1_555 1_555
N1 C11 1_555 1_555
C5 C6 1_555 1_555
C9 C10 1_555 1_555

#END
