
#######################################################################
#
#                 Cambridge Crystallographic Data Centre
#                                CCDC 
#
#######################################################################
#
# If this CIF has been generated from an entry in the Cambridge 
# Structural Database, then it will include bibliographic, chemical, 
# crystal, experimental, refinement or atomic coordinate data resulting 
# from the CCDC's data processing and validation procedures.
#
#######################################################################

data_LIKHAR
_chemical_formula_moiety         'C54 H52 F8 N8 O2 2+,2(F6 P1 1-)'
_chemical_name_systematic        
"1,1'-bis{[4-(4-{[2,6-diisopropylphenoxy]methyl}-1H-1,2,3-triazol-1-yl)-2,3,5,6-tetrafluorophenyl]methyl}-4,4'-bipyridin-1-ium bis(hexafluorophosphate)"
_symmetry_cell_setting           monoclinic
_symmetry_space_group_name_H-M   'P 21/c'
_symmetry_Int_Tables_number      14
_space_group_name_Hall           '-P 2ybc'
loop_
_symmetry_equiv_pos_site_id
_symmetry_equiv_pos_as_xyz
1 x,y,z
2 -x,1/2+y,1/2-z
3 -x,-y,-z
4 x,1/2-y,1/2+z
_cell_length_a                   33.633(3)
_cell_length_b                   10.3014(11)
_cell_length_c                   33.059(3)
_cell_angle_alpha                90
_cell_angle_beta                 103.544(5)
_cell_angle_gamma                90
_cell_volume                     11135.3
_exptl_crystal_colour            yellow
_exptl_crystal_description       needle
_cell_formula_units_Z            8
loop_
_atom_site_label
_atom_site_type_symbol
_atom_site_fract_x
_atom_site_fract_y
_atom_site_fract_z
F1 F 0.2544(3) 0.3315(8) 0.6967(2)
F2 F 0.3065(3) 0.4292(7) 0.6535(2)
F3 F 0.3323(2) 0.0060(7) 0.6125(2)
F4 F 0.2828(2) -0.0911(7) 0.6571(3)
F5 F 0.6592(4) 0.4825(9) 0.6984(3)
F6 F 0.7069(4) 0.3842(10) 0.6511(3)
F7 F 0.7294(4) 0.0118(10) 0.7338(4)
F8 F 0.6821(3) 0.1077(11) 0.7816(3)
O1 O 0.1329(3) -0.0064(11) 0.7567(3)
O2 O 0.8606(3) 0.1025(10) 0.6350(3)
N1 N 0.2151(4) -0.0645(13) 0.7377(4)
N2 N 0.2500(4) -0.0231(13) 0.7272(4)
N3 N 0.2391(4) 0.0681(11) 0.6986(3)
N4 N 0.3928(3) 0.2844(11) 0.6317(3)
N5 N 0.5968(3) 0.3377(11) 0.7428(3)
N6 N 0.7437(4) 0.1490(11) 0.6662(3)
N7 N 0.7350(4) 0.0373(12) 0.6446(4)
N8 N 0.7630(4) 0.0230(12) 0.6230(4)
C1 C 0.1218(5) 0.1136(16) 0.7651(5)
C2 C 0.0799(6) 0.1564(17) 0.7477(5)
C3 C 0.0696(7) 0.2742(19) 0.7583(6)
H1 H 0.0424 0.3025 0.7470
C4 C 0.0957(7) 0.359(2) 0.7846(6)
H2 H 0.0872 0.4427 0.7908
C5 C 0.1363(7) 0.3117(19) 0.8021(6)
H3 H 0.1547 0.3648 0.8213
C6 C 0.1492(6) 0.1928(18) 0.7919(5)
C7 C 0.0495(6) 0.0651(18) 0.7201(5)
H4 H 0.0633 -0.0200 0.7186
C8 C 0.0346(7) 0.117(2) 0.6760(6)
H5 H 0.0248 0.2065 0.6771
H6 H 0.0122 0.0627 0.6607
H7 H 0.0572 0.1159 0.6619
C9 C 0.0117(7) 0.041(3) 0.7387(7)
H8 H 0.0207 0.0030 0.7666
H9 H -0.0072 -0.0191 0.7207
H10 H -0.0023 0.1234 0.7406
C10 C 0.1925(6) 0.1457(19) 0.8120(5)
H11 H 0.1950 0.0570 0.8005
C11 C 0.1981(7) 0.129(2) 0.8594(5)
H12 H 0.2022 0.2141 0.8729
H13 H 0.2220 0.0739 0.8703
H14 H 0.1737 0.0880 0.8650
C12 C 0.2255(6) 0.225(2) 0.8014(5)
H15 H 0.2192 0.2406 0.7713
H16 H 0.2516 0.1792 0.8099
H17 H 0.2273 0.3087 0.8160
C13 C 0.1398(5) -0.0237(18) 0.7166(5)
H18 H 0.1210 0.0331 0.6968
H19 H 0.1336 -0.1148 0.7078
C14 C 0.1840(5) 0.0074(14) 0.7148(4)
C15 C 0.1970(5) 0.0903(15) 0.6899(4)
H20 H 0.1814 0.1502 0.6707
C16 C 0.2682(4) 0.1208(12) 0.6788(4)
C17 C 0.2750(4) 0.2521(12) 0.6769(4)
C18 C 0.3010(4) 0.2993(12) 0.6548(4)
C19 C 0.3214(4) 0.2200(12) 0.6325(3)
C20 C 0.3138(4) 0.0887(13) 0.6341(4)
C21 C 0.2890(4) 0.0409(12) 0.6574(4)
C22 C 0.3494(4) 0.2733(13) 0.6075(4)
H21 H 0.3395 0.3603 0.5970
H22 H 0.3483 0.2164 0.5832
C23 C 0.4072(4) 0.3982(14) 0.6493(4)
H23 H 0.3897 0.4719 0.6460
C24 C 0.4452(4) 0.4082(13) 0.6710(4)
H24 H 0.4544 0.4892 0.6834
C25 C 0.4725(4) 0.3042(13) 0.6764(3)
C26 C 0.4568(4) 0.1881(13) 0.6583(4)
H25 H 0.4737 0.1132 0.6610
C27 C 0.4174(4) 0.1814(14) 0.6368(4)
H26 H 0.4069 0.1009 0.6249
C28 C 0.5162(4) 0.3138(13) 0.7001(3)
C29 C 0.5337(4) 0.4381(14) 0.7086(4)
H27 H 0.5183 0.5143 0.6997
C30 C 0.5743(4) 0.4453(15) 0.7304(4)
H28 H 0.5865 0.5282 0.7369
C31 C 0.5792(4) 0.2206(14) 0.7353(4)
H29 H 0.5948 0.1457 0.7455
C32 C 0.5400(4) 0.2048(13) 0.7139(3)
H30 H 0.5288 0.1203 0.7083
C33 C 0.6394(4) 0.3492(15) 0.7658(4)
H31 H 0.6436 0.3007 0.7923
H32 H 0.6461 0.4415 0.7724
C34 C 0.6676(4) 0.2947(13) 0.7396(4)
C35 C 0.6757(5) 0.3647(14) 0.7072(4)
C36 C 0.7000(5) 0.3128(14) 0.6830(4)
C37 C 0.7182(4) 0.1975(12) 0.6915(4)
C38 C 0.7110(4) 0.1274(14) 0.7246(4)
C39 C 0.6874(5) 0.1790(15) 0.7491(4)
C40 C 0.7766(4) 0.2085(14) 0.6570(4)
H33 H 0.7885 0.2896 0.6668
C41 C 0.7884(4) 0.1242(14) 0.6304(4)
C42 C 0.8224(4) 0.1428(15) 0.6077(4)
H34 H 0.8168 0.0900 0.5819
H35 H 0.8241 0.2351 0.5999
C43 C 0.8931(5) 0.1247(16) 0.6159(4)
C44 C 0.9156(5) 0.2372(16) 0.6248(4)
C45 C 0.9480(5) 0.2562(17) 0.6041(4)
H36 H 0.9636 0.3339 0.6086
C46 C 0.9568(5) 0.1632(17) 0.5778(5)
H37 H 0.9791 0.1761 0.5651
C47 C 0.9341(5) 0.0530(17) 0.5695(4)
H38 H 0.9401 -0.0087 0.5505
C48 C 0.9015(5) 0.0294(17) 0.5891(5)
C49 C 0.9057(5) 0.3326(17) 0.6560(5)
H39 H 0.8753 0.3402 0.6507
C50 C 0.9216(6) 0.2781(18) 0.6998(5)
H40 H 0.9083 0.1947 0.7022
H41 H 0.9153 0.3392 0.7202
H42 H 0.9512 0.2655 0.7051
C51 C 0.9229(7) 0.4659(18) 0.6522(5)
H43 H 0.9525 0.4599 0.6555
H44 H 0.9169 0.5224 0.6739
H45 H 0.9103 0.5021 0.6248
C52 C 0.8790(5) -0.0957(17) 0.5820(5)
H46 H 0.8562 -0.0907 0.5966
C53 C 0.8600(6) -0.1215(19) 0.5362(5)
H47 H 0.8458 -0.0434 0.5234
H48 H 0.8405 -0.1934 0.5336
H49 H 0.8816 -0.1443 0.5220
C54 C 0.9072(6) -0.2112(19) 0.6016(6)
H50 H 0.9273 -0.2280 0.5849
H51 H 0.8905 -0.2890 0.6020
H52 H 0.9215 -0.1888 0.6301
F9 F 0.6922(2) 0.9535(7) 0.5019(2)
F10 F 0.6535(2) 1.0238(7) 0.5609(2)
F11 F 0.6814(2) 0.6177(7) 0.6246(2)
F12 F 0.7193(2) 0.5432(7) 0.5655(2)
F13 F 0.2902(2) 0.7927(8) 0.4469(2)
F14 F 0.2357(2) 0.8811(8) 0.4869(2)
F15 F 0.3051(2) 0.6626(7) 0.6087(2)
F16 F 0.3608(2) 0.5779(7) 0.5679(2)
O3 O 0.8227(3) 0.5890(10) 0.4333(3)
O4 O 0.1396(3) 0.6987(10) 0.6171(3)
N9 N 0.7400(4) 0.5862(11) 0.4535(3)
N10 N 0.7163(3) 0.5976(11) 0.4796(3)
N11 N 0.7266(3) 0.7099(10) 0.5007(3)
N12 N 0.6008(3) 0.8358(9) 0.6126(3)
N13 N 0.4015(3) 0.6804(9) 0.5075(3)
N14 N 0.2393(3) 0.8133(11) 0.5694(3)
N15 N 0.2290(4) 0.9434(12) 0.5700(4)
N16 N 0.2003(4) 0.9494(12) 0.5913(4)
C55 C 0.8596(4) 0.5967(14) 0.4647(4)
C56 C 0.8928(5) 0.6641(17) 0.4568(5)
C57 C 0.9291(5) 0.6620(17) 0.4871(5)
H53 H 0.9521 0.7081 0.4825
C58 C 0.9324(5) 0.5954(16) 0.5231(5)
H54 H 0.9568 0.6021 0.5444
C59 C 0.9007(5) 0.5181(16) 0.5293(5)
H55 H 0.9043 0.4668 0.5538
C60 C 0.8633(5) 0.5150(14) 0.4994(4)
C61 C 0.8903(6) 0.7307(17) 0.4145(5)
H56 H 0.8625 0.7151 0.3962
C62 C 0.8977(7) 0.8743(18) 0.4188(6)
H57 H 0.8768 0.9141 0.4312
H58 H 0.8962 0.9121 0.3913
H59 H 0.9248 0.8903 0.4368
C63 C 0.9230(6) 0.6660(19) 0.3946(6)
H60 H 0.9501 0.6771 0.4131
H61 H 0.9224 0.7071 0.3677
H62 H 0.9169 0.5733 0.3904
C64 C 0.8307(5) 0.4271(15) 0.5053(4)
H63 H 0.8074 0.4342 0.4803
C65 C 0.8469(5) 0.2850(15) 0.5078(5)
H64 H 0.8591 0.2679 0.4841
H65 H 0.8243 0.2247 0.5071
H66 H 0.8677 0.2731 0.5338
C66 C 0.8146(5) 0.4619(16) 0.5437(4)
H67 H 0.8364 0.4492 0.5688
H68 H 0.7914 0.4059 0.5448
H69 H 0.8059 0.5529 0.5419
C67 C 0.7969(5) 0.6991(15) 0.4315(4)
H70 H 0.7821 0.7133 0.4022
H71 H 0.8141 0.7764 0.4406
C68 C 0.7663(4) 0.6879(13) 0.4576(4)
C69 C 0.7582(4) 0.7687(13) 0.4879(4)
H72 H 0.7715 0.8477 0.4977
C70 C 0.7068(4) 0.7481(12) 0.5331(4)
C71 C 0.6898(4) 0.8704(12) 0.5321(4)
C72 C 0.6709(4) 0.9065(13) 0.5633(4)
C73 C 0.6673(4) 0.8214(13) 0.5959(4)
C74 C 0.6842(4) 0.7026(13) 0.5944(4)
C75 C 0.7035(4) 0.6612(12) 0.5643(4)
C76 C 0.6456(4) 0.8648(12) 0.6276(4)
H73 H 0.6496 0.9592 0.6324
H74 H 0.6567 0.8192 0.6542
C77 C 0.5747(4) 0.9340(12) 0.5978(4)
H75 H 0.5841 1.0212 0.6011
C78 C 0.5353(4) 0.9095(11) 0.5784(3)
H76 H 0.5177 0.9794 0.5671
C79 C 0.5201(4) 0.7824(11) 0.5748(3)
C80 C 0.5473(4) 0.6855(11) 0.5944(3)
H77 H 0.5379 0.5988 0.5948
C81 C 0.5866(4) 0.7134(12) 0.6126(3)
H78 H 0.6044 0.6462 0.6255
C82 C 0.4798(4) 0.7479(11) 0.5510(3)
C83 C 0.4475(4) 0.8394(11) 0.5408(3)
H79 H 0.4526 0.9275 0.5488
C84 C 0.4099(4) 0.8031(12) 0.5199(4)
H80 H 0.3888 0.8662 0.5139
C85 C 0.4314(4) 0.5939(11) 0.5142(4)
H81 H 0.4260 0.5081 0.5038
C86 C 0.4698(4) 0.6255(12) 0.5356(3)
H82 H 0.4905 0.5607 0.5401
C87 C 0.3598(4) 0.6385(11) 0.4845(4)
H83 H 0.3587 0.5426 0.4826
H84 H 0.3538 0.6741 0.4559
C88 C 0.3287(4) 0.6863(11) 0.5068(4)
C89 C 0.2951(4) 0.7588(11) 0.4873(4)
C90 C 0.2671(4) 0.8067(12) 0.5070(4)
C91 C 0.2698(4) 0.7699(12) 0.5485(4)
C92 C 0.3018(4) 0.7003(13) 0.5681(4)
C93 C 0.3303(4) 0.6518(12) 0.5483(4)
C94 C 0.2176(4) 0.7434(14) 0.5911(4)
H85 H 0.2192 0.6525 0.5961
C95 C 0.1934(5) 0.8276(15) 0.6042(4)
C96 C 0.1628(5) 0.8098(17) 0.6296(5)
H86 H 0.1770 0.8019 0.6594
H87 H 0.1447 0.8865 0.6265
C97 C 0.1068(5) 0.6828(16) 0.6363(4)
C98 C 0.0693(5) 0.7316(15) 0.6145(4)
C99 C 0.0357(5) 0.7149(19) 0.6350(5)
H88 H 0.0091 0.7451 0.6218
C100 C 0.0421(6) 0.6553(19) 0.6736(5)
H89 H 0.0200 0.6456 0.6867
C101 C 0.0798(6) 0.6109(19) 0.6927(5)
H90 H 0.0831 0.5677 0.7187
C102 C 0.1139(5) 0.6265(19) 0.6757(5)
C103 C 0.0629(5) 0.7856(16) 0.5712(5)
H91 H 0.0875 0.8382 0.5696
C104 C 0.0592(5) 0.6734(17) 0.5404(5)
H92 H 0.0836 0.6185 0.5480
H93 H 0.0567 0.7079 0.5123
H94 H 0.0349 0.6218 0.5411
C105 C 0.0259(6) 0.8697(18) 0.5582(5)
H95 H 0.0012 0.8160 0.5545
H96 H 0.0263 0.9131 0.5320
H97 H 0.0258 0.9350 0.5797
C106 C 0.1545(6) 0.572(2) 0.6978(5)
H98 H 0.1756 0.6046 0.6834
C107 C 0.1677(7) 0.612(2) 0.7436(5)
H99 H 0.1701 0.7065 0.7455
H100 H 0.1942 0.5723 0.7563
H101 H 0.1473 0.5822 0.7584
C108 C 0.1542(8) 0.420(2) 0.6948(7)
H102 H 0.1343 0.3844 0.7093
H103 H 0.1815 0.3860 0.7077
H104 H 0.1467 0.3935 0.6655
P1 P 0.43068(12) -0.2091(3) 0.65069(10)
F17 F 0.4171(3) -0.0939(8) 0.6764(2)
F18 F 0.4448(2) -0.3255(7) 0.6249(2)
F19 F 0.4647(3) -0.2547(9) 0.6914(2)
F20 F 0.3984(2) -0.3005(7) 0.6648(2)
F21 F 0.3967(3) -0.1658(8) 0.6104(2)
F22 F 0.4638(3) -0.1177(7) 0.6371(2)
P2 P 0.61005(17) -0.1764(4) 0.73719(12)
F23 F 0.6214(4) -0.0756(12) 0.7733(3)
F24 F 0.6039(4) -0.2798(10) 0.7020(3)
F25 F 0.5662(5) -0.1630(17) 0.7367(3)
F26 F 0.6080(4) -0.0680(9) 0.7035(3)
F27 F 0.6602(5) -0.1875(15) 0.7384(4)
F28 F 0.6164(4) -0.2816(12) 0.7721(3)
P3 P 0.42301(15) 0.6887(4) 0.39532(11)
F29 F 0.4278(4) 0.7802(8) 0.4339(2)
F30 F 0.4157(5) 0.5986(10) 0.3565(3)
F31 F 0.3850(5) 0.7588(13) 0.3765(5)
F32 F 0.4487(5) 0.7948(11) 0.3774(4)
F33 F 0.4643(5) 0.6229(11) 0.4084(5)
F34 F 0.4040(4) 0.5816(9) 0.4180(3)
P4 P 0.57689(11) 0.7769(3) 0.47614(9)
F35 F 0.5775(3) 0.8842(8) 0.5101(2)
F36 F 0.5787(3) 0.6681(7) 0.4427(2)
F37 F 0.5422(2) 0.6984(7) 0.4912(2)
F38 F 0.5446(3) 0.8524(7) 0.4423(2)
F39 F 0.6128(3) 0.8524(7) 0.4622(2)
F40 F 0.6101(3) 0.6955(7) 0.5100(2)
loop_
_geom_bond_atom_site_label_1
_geom_bond_atom_site_label_2
_geom_bond_site_symmetry_1
_geom_bond_site_symmetry_2
F1 C17 1_555 1_555
F2 C18 1_555 1_555
F3 C20 1_555 1_555
F4 C21 1_555 1_555
F5 C35 1_555 1_555
F6 C36 1_555 1_555
F7 C38 1_555 1_555
F8 C39 1_555 1_555
O1 C1 1_555 1_555
O2 C42 1_555 1_555
N1 N2 1_555 1_555
N2 N3 1_555 1_555
N3 C15 1_555 1_555
N4 C22 1_555 1_555
N5 C30 1_555 1_555
N6 N7 1_555 1_555
N7 N8 1_555 1_555
N8 C41 1_555 1_555
C1 C2 1_555 1_555
C2 C3 1_555 1_555
C3 H1 1_555 1_555
C4 C3 1_555 1_555
H2 C4 1_555 1_555
C5 C4 1_555 1_555
H3 C5 1_555 1_555
C6 C1 1_555 1_555
C7 C2 1_555 1_555
H4 C7 1_555 1_555
C8 C7 1_555 1_555
H5 C8 1_555 1_555
H6 C8 1_555 1_555
H7 C8 1_555 1_555
C9 C7 1_555 1_555
H8 C9 1_555 1_555
H9 C9 1_555 1_555
H10 C9 1_555 1_555
C10 C6 1_555 1_555
H11 C10 1_555 1_555
C11 C10 1_555 1_555
H12 C11 1_555 1_555
H13 C11 1_555 1_555
H14 C11 1_555 1_555
C12 C10 1_555 1_555
H15 C12 1_555 1_555
H16 C12 1_555 1_555
H17 C12 1_555 1_555
C13 O1 1_555 1_555
H18 C13 1_555 1_555
H19 C13 1_555 1_555
C14 N1 1_555 1_555
C15 C14 1_555 1_555
H20 C15 1_555 1_555
C16 N3 1_555 1_555
C17 C16 1_555 1_555
C18 C17 1_555 1_555
C19 C18 1_555 1_555
C20 C19 1_555 1_555
C21 C16 1_555 1_555
C22 C19 1_555 1_555
H21 C22 1_555 1_555
H22 C22 1_555 1_555
C23 N4 1_555 1_555
H23 C23 1_555 1_555
C24 C23 1_555 1_555
H24 C24 1_555 1_555
C25 C24 1_555 1_555
C26 C25 1_555 1_555
H25 C26 1_555 1_555
C27 N4 1_555 1_555
H26 C27 1_555 1_555
C28 C25 1_555 1_555
C29 C28 1_555 1_555
H27 C29 1_555 1_555
C30 C29 1_555 1_555
H28 C30 1_555 1_555
C31 N5 1_555 1_555
H29 C31 1_555 1_555
C32 C28 1_555 1_555
H30 C32 1_555 1_555
C33 N5 1_555 1_555
H31 C33 1_555 1_555
H32 C33 1_555 1_555
C34 C33 1_555 1_555
C35 C34 1_555 1_555
C36 C35 1_555 1_555
C37 N6 1_555 1_555
C38 C37 1_555 1_555
C39 C34 1_555 1_555
C40 N6 1_555 1_555
H33 C40 1_555 1_555
C41 C40 1_555 1_555
C42 C41 1_555 1_555
H34 C42 1_555 1_555
H35 C42 1_555 1_555
C43 O2 1_555 1_555
C44 C43 1_555 1_555
C45 C44 1_555 1_555
H36 C45 1_555 1_555
C46 C45 1_555 1_555
H37 C46 1_555 1_555
C47 C46 1_555 1_555
H38 C47 1_555 1_555
C48 C43 1_555 1_555
C49 C44 1_555 1_555
H39 C49 1_555 1_555
C50 C49 1_555 1_555
H40 C50 1_555 1_555
H41 C50 1_555 1_555
H42 C50 1_555 1_555
C51 C49 1_555 1_555
H43 C51 1_555 1_555
H44 C51 1_555 1_555
H45 C51 1_555 1_555
C52 C48 1_555 1_555
H46 C52 1_555 1_555
C53 C52 1_555 1_555
H47 C53 1_555 1_555
H48 C53 1_555 1_555
H49 C53 1_555 1_555
C54 C52 1_555 1_555
H50 C54 1_555 1_555
H51 C54 1_555 1_555
H52 C54 1_555 1_555
F9 C71 1_555 1_555
F10 C72 1_555 1_555
F11 C74 1_555 1_555
F12 C75 1_555 1_555
F13 C89 1_555 1_555
F14 C90 1_555 1_555
F15 C92 1_555 1_555
F16 C93 1_555 1_555
O3 C55 1_555 1_555
O4 C96 1_555 1_555
N9 N10 1_555 1_555
N10 N11 1_555 1_555
N11 C69 1_555 1_555
N12 C76 1_555 1_555
N13 C84 1_555 1_555
N14 N15 1_555 1_555
N15 N16 1_555 1_555
N16 C95 1_555 1_555
C55 C56 1_555 1_555
C56 C57 1_555 1_555
C57 H53 1_555 1_555
C58 C57 1_555 1_555
H54 C58 1_555 1_555
C59 C58 1_555 1_555
H55 C59 1_555 1_555
C60 C55 1_555 1_555
C61 C56 1_555 1_555
H56 C61 1_555 1_555
C62 C61 1_555 1_555
H57 C62 1_555 1_555
H58 C62 1_555 1_555
H59 C62 1_555 1_555
C63 C61 1_555 1_555
H60 C63 1_555 1_555
H61 C63 1_555 1_555
H62 C63 1_555 1_555
C64 C60 1_555 1_555
H63 C64 1_555 1_555
C65 C64 1_555 1_555
H64 C65 1_555 1_555
H65 C65 1_555 1_555
H66 C65 1_555 1_555
C66 C64 1_555 1_555
H67 C66 1_555 1_555
H68 C66 1_555 1_555
H69 C66 1_555 1_555
C67 O3 1_555 1_555
H70 C67 1_555 1_555
H71 C67 1_555 1_555
C68 N9 1_555 1_555
C69 C68 1_555 1_555
H72 C69 1_555 1_555
C70 N11 1_555 1_555
C71 C70 1_555 1_555
C72 C71 1_555 1_555
C73 C72 1_555 1_555
C74 C73 1_555 1_555
C75 C70 1_555 1_555
C76 C73 1_555 1_555
H73 C76 1_555 1_555
H74 C76 1_555 1_555
C77 N12 1_555 1_555
H75 C77 1_555 1_555
C78 C77 1_555 1_555
H76 C78 1_555 1_555
C79 C78 1_555 1_555
C80 C79 1_555 1_555
H77 C80 1_555 1_555
C81 N12 1_555 1_555
H78 C81 1_555 1_555
C82 C79 1_555 1_555
C83 C82 1_555 1_555
H79 C83 1_555 1_555
C84 C83 1_555 1_555
H80 C84 1_555 1_555
C85 N13 1_555 1_555
H81 C85 1_555 1_555
C86 C82 1_555 1_555
H82 C86 1_555 1_555
C87 N13 1_555 1_555
H83 C87 1_555 1_555
H84 C87 1_555 1_555
C88 C87 1_555 1_555
C89 C88 1_555 1_555
C90 C89 1_555 1_555
C91 N14 1_555 1_555
C92 C91 1_555 1_555
C93 C88 1_555 1_555
C94 N14 1_555 1_555
H85 C94 1_555 1_555
C95 C94 1_555 1_555
C96 C95 1_555 1_555
H86 C96 1_555 1_555
H87 C96 1_555 1_555
C97 O4 1_555 1_555
C98 C97 1_555 1_555
C99 C98 1_555 1_555
H88 C99 1_555 1_555
C100 C99 1_555 1_555
H89 C100 1_555 1_555
C101 C100 1_555 1_555
H90 C101 1_555 1_555
C102 C97 1_555 1_555
C103 C98 1_555 1_555
H91 C103 1_555 1_555
C104 C103 1_555 1_555
H92 C104 1_555 1_555
H93 C104 1_555 1_555
H94 C104 1_555 1_555
C105 C103 1_555 1_555
H95 C105 1_555 1_555
H96 C105 1_555 1_555
H97 C105 1_555 1_555
C106 C102 1_555 1_555
H98 C106 1_555 1_555
C107 C106 1_555 1_555
H99 C107 1_555 1_555
H100 C107 1_555 1_555
H101 C107 1_555 1_555
C108 C106 1_555 1_555
H102 C108 1_555 1_555
H103 C108 1_555 1_555
H104 C108 1_555 1_555
P1 F17 1_555 1_555
F18 P1 1_555 1_555
F19 P1 1_555 1_555
F20 P1 1_555 1_555
F21 P1 1_555 1_555
F22 P1 1_555 1_555
P2 F23 1_555 1_555
F24 P2 1_555 1_555
F25 P2 1_555 1_555
F26 P2 1_555 1_555
F27 P2 1_555 1_555
F28 P2 1_555 1_555
P3 F29 1_555 1_555
F30 P3 1_555 1_555
F31 P3 1_555 1_555
F32 P3 1_555 1_555
F33 P3 1_555 1_555
F34 P3 1_555 1_555
P4 F35 1_555 1_555
F36 P4 1_555 1_555
F37 P4 1_555 1_555
F38 P4 1_555 1_555
F39 P4 1_555 1_555
F40 P4 1_555 1_555
C5 C6 1_555 1_555
C13 C14 1_555 1_555
C20 C21 1_555 1_555
C26 C27 1_555 1_555
C31 C32 1_555 1_555
C36 C37 1_555 1_555
C38 C39 1_555 1_555
C47 C48 1_555 1_555
C59 C60 1_555 1_555
C67 C68 1_555 1_555
C74 C75 1_555 1_555
C80 C81 1_555 1_555
C85 C86 1_555 1_555
C90 C91 1_555 1_555
C92 C93 1_555 1_555
C101 C102 1_555 1_555

#END
