
#######################################################################
#
#                 Cambridge Crystallographic Data Centre
#                                CCDC 
#
#######################################################################
#
# If this CIF has been generated from an entry in the Cambridge 
# Structural Database, then it will include bibliographic, chemical, 
# crystal, experimental, refinement or atomic coordinate data resulting 
# from the CCDC's data processing and validation procedures.
#
#######################################################################

data_LIKNID
_chemical_formula_moiety         'C18 H23 N1 O3 S1'
_chemical_name_systematic        
cis-N-(p-Toluenesulfonyl)-7-methyl-3-oxo-10-azabicyclo(6.3.0)undec-6-ene
_symmetry_cell_setting           monoclinic
_symmetry_space_group_name_H-M   'P 21/n'
_symmetry_Int_Tables_number      14
_space_group_name_Hall           '-P 2yn'
loop_
_symmetry_equiv_pos_site_id
_symmetry_equiv_pos_as_xyz
1 x,y,z
2 1/2-x,1/2+y,1/2-z
3 -x,-y,-z
4 1/2+x,1/2-y,1/2+z
_cell_length_a                   6.0392(12)
_cell_length_b                   18.492(4)
_cell_length_c                   16.300(3)
_cell_angle_alpha                90
_cell_angle_beta                 97.27(3)
_cell_angle_gamma                90
_cell_volume                     1805.7
_exptl_crystal_colour            colorless
_exptl_crystal_description       block
_chemical_melting_point          '430 K'
_cell_formula_units_Z            4
_exptl_crystal_recrystallization_method 'ethyl acetate/petroleum ether'
loop_
_atom_site_label
_atom_site_type_symbol
_atom_site_fract_x
_atom_site_fract_y
_atom_site_fract_z
S1 S 0.23094(10) 0.31389(3) 0.25252(4)
O1 O 0.2893(3) 0.57677(10) -0.02735(9)
O2 O 0.3935(3) 0.29018(8) 0.31868(8)
O3 O -0.0030(3) 0.31122(8) 0.26118(10)
N1 N 0.2873(3) 0.39754(9) 0.23387(11)
C1 C 0.1221(4) 0.44211(12) 0.18216(14)
H1 H 0.0416 0.4732 0.2161
H2 H 0.0160 0.4120 0.1480
C2 C 0.2631(3) 0.48675(11) 0.12892(12)
H3 H 0.2842 0.4580 0.0800
C3 C 0.1481(3) 0.55752(11) 0.09946(12)
H4 H 0.0012 0.5469 0.0707
H5 H 0.1292 0.5874 0.1470
C4 C 0.2815(4) 0.59874(12) 0.04244(14)
C5 C 0.4077(4) 0.66502(12) 0.07412(14)
H6 H 0.3079 0.6972 0.0988
H7 H 0.4604 0.6902 0.0282
C6 C 0.6086(4) 0.64639(14) 0.13887(15)
H8 H 0.6946 0.6086 0.1164
H9 H 0.7036 0.6887 0.1472
C7 C 0.5521(4) 0.62209(13) 0.22111(15)
H10 H 0.5521 0.6578 0.2613
C8 C 0.5016(3) 0.55522(13) 0.24412(13)
C9 C 0.4916(3) 0.49318(11) 0.18307(12)
H11 H 0.6072 0.5005 0.1468
C10 C 0.5180(3) 0.41749(11) 0.21998(13)
H12 H 0.5756 0.3842 0.1819
H13 H 0.6175 0.4178 0.2716
C11 C 0.4395(5) 0.54202(15) 0.32969(14)
H14 H 0.4426 0.5870 0.3593
H15 H 0.5443 0.5090 0.3587
H16 H 0.2922 0.5217 0.3255
C12 C 0.2710(4) 0.26260(12) 0.16495(12)
C13 C 0.1065(4) 0.25803(13) 0.09782(14)
H17 H -0.0270 0.2830 0.0984
C14 C 0.1401(5) 0.21661(15) 0.03011(14)
H18 H 0.0289 0.2146 -0.0149
C15 C 0.3341(5) 0.17829(13) 0.02757(14)
C16 C 0.4982(4) 0.18392(14) 0.09461(15)
H19 H 0.6317 0.1590 0.0938
C17 C 0.4690(4) 0.22534(13) 0.16240(14)
H20 H 0.5822 0.2284 0.2066
C18 C 0.3668(5) 0.13136(16) -0.04532(16)
H21 H 0.2577 0.0933 -0.0504
H22 H 0.5138 0.1107 -0.0373
H23 H 0.3496 0.1601 -0.0948
loop_
_geom_bond_atom_site_label_1
_geom_bond_atom_site_label_2
_geom_bond_site_symmetry_1
_geom_bond_site_symmetry_2
S1 O2 1_555 1_555
O1 C4 1_555 1_555
O3 S1 1_555 1_555
N1 S1 1_555 1_555
C1 N1 1_555 1_555
H1 C1 1_555 1_555
H2 C1 1_555 1_555
C2 C1 1_555 1_555
H3 C2 1_555 1_555
C3 C2 1_555 1_555
H4 C3 1_555 1_555
H5 C3 1_555 1_555
C4 C3 1_555 1_555
C5 C4 1_555 1_555
H6 C5 1_555 1_555
H7 C5 1_555 1_555
C6 C5 1_555 1_555
H8 C6 1_555 1_555
H9 C6 1_555 1_555
C7 C6 1_555 1_555
H10 C7 1_555 1_555
C8 C7 1_555 1_555
C9 C2 1_555 1_555
H11 C9 1_555 1_555
C10 N1 1_555 1_555
H12 C10 1_555 1_555
H13 C10 1_555 1_555
C11 C8 1_555 1_555
H14 C11 1_555 1_555
H15 C11 1_555 1_555
H16 C11 1_555 1_555
C12 S1 1_555 1_555
C13 C12 1_555 1_555
H17 C13 1_555 1_555
C14 C13 1_555 1_555
H18 C14 1_555 1_555
C15 C14 1_555 1_555
C16 C15 1_555 1_555
H19 C16 1_555 1_555
C17 C12 1_555 1_555
H20 C17 1_555 1_555
C18 C15 1_555 1_555
H21 C18 1_555 1_555
H22 C18 1_555 1_555
H23 C18 1_555 1_555
C8 C9 1_555 1_555
C9 C10 1_555 1_555
C16 C17 1_555 1_555

#END
