
#######################################################################
#
#                 Cambridge Crystallographic Data Centre
#                                CCDC 
#
#######################################################################
#
# If this CIF has been generated from an entry in the Cambridge 
# Structural Database, then it will include bibliographic, chemical, 
# crystal, experimental, refinement or atomic coordinate data resulting 
# from the CCDC's data processing and validation procedures.
#
#######################################################################

data_LIKNEZ
_chemical_formula_moiety         'C16 H22 O5'
_chemical_name_systematic        
'Dimethyl trans-7-methyl-3-oxobicyclo(6.3.0)undec-6-ene-10,10-dicarboxylate'
_symmetry_cell_setting           monoclinic
_symmetry_space_group_name_H-M   'P 21/n'
_symmetry_Int_Tables_number      14
_space_group_name_Hall           '-P 2yn'
loop_
_symmetry_equiv_pos_site_id
_symmetry_equiv_pos_as_xyz
1 x,y,z
2 1/2-x,1/2+y,1/2-z
3 -x,-y,-z
4 1/2+x,1/2-y,1/2+z
_cell_length_a                   13.355(3)
_cell_length_b                   7.8404(16)
_cell_length_c                   15.210(3)
_cell_angle_alpha                90
_cell_angle_beta                 104.52(3)
_cell_angle_gamma                90
_cell_volume                     1541.75
_exptl_crystal_colour            colorless
_exptl_crystal_description       block
_chemical_melting_point          '401 K'
_cell_formula_units_Z            4
_exptl_crystal_recrystallization_method 'ethyl acetate/petroleum ether'
loop_
_atom_site_label
_atom_site_type_symbol
_atom_site_fract_x
_atom_site_fract_y
_atom_site_fract_z
O1 O 0.19797(16) 0.7154(3) -0.27041(14)
O2 O 0.37041(18) 0.5699(3) 0.16320(14)
O3 O 0.29165(14) 0.3451(2) 0.20406(12)
O4 O 0.30150(18) 0.0383(3) 0.03837(15)
O5 O 0.44673(14) 0.1610(2) 0.11499(13)
C1 C 0.26107(18) 0.5239(3) -0.08489(17)
H1 H 0.2431 0.4489 -0.1381
C2 C 0.2885(2) 0.7001(3) -0.11612(17)
H2 H 0.2995 0.7784 -0.0652
H3 H 0.3530 0.6914 -0.1342
C3 C 0.2069(2) 0.7731(3) -0.19401(19)
C4 C 0.1387(2) 0.9128(4) -0.1768(2)
H4 H 0.0868 0.9379 -0.2324
H5 H 0.1797 1.0149 -0.1586
C5 C 0.0852(2) 0.8645(4) -0.1027(2)
H6 H 0.1363 0.8533 -0.0451
H7 H 0.0371 0.9537 -0.0966
C6 C 0.02830(19) 0.6994(3) -0.12611(16)
H8 H -0.0390 0.7056 -0.1623
C7 C 0.06493(18) 0.5448(3) -0.10005(16)
C8 C 0.17201(17) 0.5190(3) -0.03763(16)
H9 H 0.1840 0.6092 0.0084
C9 C 0.19107(17) 0.3475(3) 0.01139(16)
H10 H 0.1528 0.3397 0.0577
H11 H 0.1707 0.2540 -0.0311
C10 C 0.30724(18) 0.3442(3) 0.05401(16)
C11 C 0.35315(19) 0.4443(4) -0.01520(18)
H12 H 0.3998 0.5326 0.0156
H13 H 0.3912 0.3679 -0.0452
C12 C 0.0025(2) 0.3887(4) -0.13408(18)
H14 H 0.0407 0.2890 -0.1088
H15 H -0.0118 0.3846 -0.1991
H16 H -0.0614 0.3926 -0.1161
C13 C 0.32941(19) 0.4344(3) 0.14498(18)
C14 C 0.3488(2) 0.1634(4) 0.06720(16)
C15 C 0.2975(2) 0.4212(4) 0.29175(17)
H17 H 0.2673 0.3454 0.3275
H18 H 0.2605 0.5274 0.2837
H19 H 0.3686 0.4414 0.3223
C16 C 0.4955(3) -0.0056(4) 0.1305(2)
H20 H 0.5658 0.0071 0.1653
H21 H 0.4945 -0.0579 0.0733
H22 H 0.4585 -0.0760 0.1633
loop_
_geom_bond_atom_site_label_1
_geom_bond_atom_site_label_2
_geom_bond_site_symmetry_1
_geom_bond_site_symmetry_2
O1 C3 1_555 1_555
O2 C13 1_555 1_555
O3 C13 1_555 1_555
O4 C14 1_555 1_555
O5 C14 1_555 1_555
C1 H1 1_555 1_555
C2 C1 1_555 1_555
H2 C2 1_555 1_555
H3 C2 1_555 1_555
C3 C2 1_555 1_555
C4 C3 1_555 1_555
H4 C4 1_555 1_555
H5 C4 1_555 1_555
C5 C4 1_555 1_555
H6 C5 1_555 1_555
H7 C5 1_555 1_555
C6 C5 1_555 1_555
H8 C6 1_555 1_555
C7 C6 1_555 1_555
C8 C1 1_555 1_555
H9 C8 1_555 1_555
C9 C8 1_555 1_555
H10 C9 1_555 1_555
H11 C9 1_555 1_555
C10 C9 1_555 1_555
C11 C1 1_555 1_555
H12 C11 1_555 1_555
H13 C11 1_555 1_555
C12 C7 1_555 1_555
H14 C12 1_555 1_555
H15 C12 1_555 1_555
H16 C12 1_555 1_555
C13 C10 1_555 1_555
C14 C10 1_555 1_555
C15 O3 1_555 1_555
H17 C15 1_555 1_555
H18 C15 1_555 1_555
H19 C15 1_555 1_555
C16 O5 1_555 1_555
H20 C16 1_555 1_555
H21 C16 1_555 1_555
H22 C16 1_555 1_555
C7 C8 1_555 1_555
C10 C11 1_555 1_555

#END
