
#######################################################################
#
#                 Cambridge Crystallographic Data Centre
#                                CCDC 
#
#######################################################################
#
# If this CIF has been generated from an entry in the Cambridge 
# Structural Database, then it will include bibliographic, chemical, 
# crystal, experimental, refinement or atomic coordinate data resulting 
# from the CCDC's data processing and validation procedures.
#
#######################################################################

data_LIKSAB
_chemical_formula_moiety         'C14 H18 N2 O1 2+,2(C1 F3 O3 S1 1-)'
_chemical_name_systematic        
"4,4'-oxybis(2,6-dimethylpyridinium) bis(trifluoromethanesulfonate)"
_symmetry_cell_setting           monoclinic
_symmetry_space_group_name_H-M   'P 21/n'
_symmetry_Int_Tables_number      14
_space_group_name_Hall           '-P 2yn'
loop_
_symmetry_equiv_pos_site_id
_symmetry_equiv_pos_as_xyz
1 x,y,z
2 1/2-x,1/2+y,1/2-z
3 -x,-y,-z
4 1/2+x,1/2-y,1/2+z
_cell_length_a                   12.7397(18)
_cell_length_b                   11.3610(16)
_cell_length_c                   15.611(2)
_cell_angle_alpha                90
_cell_angle_beta                 101.405(4)
_cell_angle_gamma                90
_cell_volume                     2214.85
_exptl_crystal_colour            colorless
_exptl_crystal_description       block
_cell_formula_units_Z            4
loop_
_atom_site_label
_atom_site_type_symbol
_atom_site_fract_x
_atom_site_fract_y
_atom_site_fract_z
S1 S 0.30074(6) 0.21804(7) 0.30451(5)
F1 F 0.2582(5) -0.0159(3) 0.3316(4)
F2 F 0.3592(5) 0.0635(5) 0.4423(4)
F3 F 0.1942(4) 0.1172(5) 0.4014(4)
O1 O 0.3883(10) 0.178(3) 0.268(2)
O2 O 0.19673(19) 0.2307(2) 0.24973(15)
O3 O 0.32838(16) 0.30914(19) 0.36998(14)
C1 C 0.2854(2) 0.0901(3) 0.3686(2)
S2 S 1.28559(6) 0.28663(8) 0.84123(5)
F7 F 1.45831(17) 0.3944(2) 0.92267(16)
F8 F 1.33893(18) 0.36761(19) 1.00127(13)
F9 F 1.3158(2) 0.5016(2) 0.90176(19)
O5 O 1.33183(18) 0.1762(2) 0.87294(14)
O6 O 1.3101(2) 0.3260(3) 0.75980(16)
O7 O 1.17400(17) 0.3012(2) 0.84615(16)
C2 C 1.3531(3) 0.3933(3) 0.9209(3)
O8 O 0.81802(15) 0.55937(18) 0.51520(13)
N1 N 0.53677(19) 0.3908(2) 0.42520(15)
H1 H 0.4755(19) 0.358(3) 0.408(2)
N2 N 1.05589(19) 0.4233(2) 0.70080(15)
H2 H 1.099(2) 0.386(3) 0.7421(18)
C3 C 0.7249(2) 0.4988(3) 0.48821(18)
C4 C 0.6599(2) 0.5394(3) 0.41160(18)
H3 H 0.6811 0.6052 0.3815
C5 C 0.5646(2) 0.4833(3) 0.38005(18)
C6 C 0.5987(2) 0.3485(3) 0.49946(18)
C7 C 0.6942(2) 0.4040(3) 0.53340(18)
H4 H 0.7379 0.3778 0.5865
C8 C 0.4891(2) 0.5170(3) 0.29786(19)
H5 H 0.4711 0.4472 0.2610
H6 H 0.5230 0.5759 0.2664
H7 H 0.4237 0.5499 0.3123
C9 C 0.5605(2) 0.2412(3) 0.5387(2)
H8 H 0.4840 0.2490 0.5389
H9 H 0.6003 0.2319 0.5988
H10 H 0.5722 0.1721 0.5042
C10 C 0.8979(2) 0.5106(3) 0.57885(18)
C11 C 0.9320(2) 0.5738(3) 0.65427(19)
H11 H 0.9006 0.6475 0.6631
C12 C 1.0135(2) 0.5270(3) 0.71692(19)
C13 C 1.0248(2) 0.3602(3) 0.62686(19)
C14 C 0.9443(2) 0.4049(3) 0.56316(19)
H12 H 0.9212 0.3640 0.5097
C15 C 1.0564(3) 0.5851(3) 0.8025(2)
H13 H 1.0534 0.5298 0.8501
H14 H 1.0131 0.6547 0.8088
H15 H 1.1308 0.6089 0.8046
C16 C 1.0780(3) 0.2449(3) 0.6199(2)
H16 H 1.1537 0.2503 0.6483
H17 H 1.0725 0.2247 0.5581
H18 H 1.0429 0.1839 0.6485
F4? F 0.2686(5) 0.0044(4) 0.3063(4)
F5? F 0.3863(4) 0.0710(5) 0.4133(4)
F6? F 0.2151(5) 0.0891(5) 0.4199(3)
O4? O 0.3796(13) 0.206(3) 0.2489(14)
loop_
_geom_bond_atom_site_label_1
_geom_bond_atom_site_label_2
_geom_bond_site_symmetry_1
_geom_bond_site_symmetry_2
S1 O1 1_555 1_555
F1 C1 1_555 1_555
F2 C1 1_555 1_555
F3 C1 1_555 1_555
O2 S1 1_555 1_555
O3 S1 1_555 1_555
C1 S1 1_555 1_555
S2 O5 1_555 1_555
F7 C2 1_555 1_555
F8 C2 1_555 1_555
F9 C2 1_555 1_555
O6 S2 1_555 1_555
O7 S2 1_555 1_555
C2 S2 1_555 1_555
O8 C3 1_555 1_555
N1 H1 1_555 1_555
N2 H2 1_555 1_555
C3 C4 1_555 1_555
C4 H3 1_555 1_555
C5 N1 1_555 1_555
C6 N1 1_555 1_555
C7 C3 1_555 1_555
H4 C7 1_555 1_555
C8 C5 1_555 1_555
H5 C8 1_555 1_555
H6 C8 1_555 1_555
H7 C8 1_555 1_555
C9 C6 1_555 1_555
H8 C9 1_555 1_555
H9 C9 1_555 1_555
H10 C9 1_555 1_555
C10 O8 1_555 1_555
C11 C10 1_555 1_555
H11 C11 1_555 1_555
C12 N2 1_555 1_555
C13 N2 1_555 1_555
C14 C10 1_555 1_555
H12 C14 1_555 1_555
C15 C12 1_555 1_555
H13 C15 1_555 1_555
H14 C15 1_555 1_555
H15 C15 1_555 1_555
C16 C13 1_555 1_555
H16 C16 1_555 1_555
H17 C16 1_555 1_555
H18 C16 1_555 1_555
C4 C5 1_555 1_555
C6 C7 1_555 1_555
C11 C12 1_555 1_555
C13 C14 1_555 1_555

#END
