
#######################################################################
#
#                 Cambridge Crystallographic Data Centre
#                                CCDC 
#
#######################################################################
#
# If this CIF has been generated from an entry in the Cambridge 
# Structural Database, then it will include bibliographic, chemical, 
# crystal, experimental, refinement or atomic coordinate data resulting 
# from the CCDC's data processing and validation procedures.
#
#######################################################################

data_LIKVOR
_chemical_formula_moiety         'C44 H31 N5 O4,0.5(C7 H8)'
_chemical_name_systematic        
'22-Nitro-2,7,12,17-tetraphenyl-5,21,23,24-tetra-azapentacylco-(16.2.1.1^3,6^.1^8,11^.1^13,16^)tetracosa-1(21),3,6(22),8(23),9,11,13,15,17,19-decaene-2,7-diol toluene solvate'
_symmetry_cell_setting           monoclinic
_symmetry_space_group_name_H-M   'P 21/n'
_symmetry_Int_Tables_number      14
_space_group_name_Hall           '-P 2yn'
loop_
_symmetry_equiv_pos_site_id
_symmetry_equiv_pos_as_xyz
1 x,y,z
2 1/2-x,1/2+y,1/2-z
3 -x,-y,-z
4 1/2+x,1/2-y,1/2+z
_cell_length_a                   12.6842(5)
_cell_length_b                   17.5004(7)
_cell_length_c                   16.7302(7)
_cell_angle_alpha                90
_cell_angle_beta                 92.430(3)
_cell_angle_gamma                90
_cell_volume                     3710.41
_exptl_crystal_colour            red
_exptl_crystal_description       prism
_cell_formula_units_Z            4
_exptl_crystal_recrystallization_method n-hexane/toluene
loop_
_atom_site_label
_atom_site_type_symbol
_atom_site_fract_x
_atom_site_fract_y
_atom_site_fract_z
C5 C 0.58042(19) 0.17705(12) 0.89818(14)
C6 C 0.38132(18) 0.21446(13) 0.92875(15)
C7 C 0.3795(2) 0.29868(13) 0.90682(14)
C8 C 0.28163(19) 0.34092(14) 0.90118(14)
H4 H 0.2123 0.3212 0.9055
C9 C 0.30912(19) 0.41361(14) 0.88864(14)
H5 H 0.2627 0.4561 0.8838
C10 C 0.42268(19) 0.41547(14) 0.88391(14)
C11 C 0.48209(19) 0.47752(14) 0.86770(13)
C12 C 0.5912(2) 0.47867(14) 0.85212(13)
C13 C 0.64992(19) 0.54210(13) 0.83234(13)
H6 H 0.6257 0.5935 0.8315
C14 C 0.75003(19) 0.51785(13) 0.81403(13)
H7 H 0.8060 0.5498 0.7982
C15 C 0.7547(2) 0.43853(14) 0.82279(14)
C16 C 0.84518(19) 0.39091(14) 0.80856(14)
C17 C 0.86056(19) 0.31743(14) 0.83339(14)
C18 C 0.94884(18) 0.26922(14) 0.81428(14)
H8 H 1.0079 0.2833 0.7845
C19 C 0.93060(18) 0.20052(14) 0.84709(14)
H9 H 0.9745 0.1566 0.8456
C20 C 0.83008(19) 0.20712(13) 0.88535(14)
C21 C 0.78342(19) 0.13998(13) 0.92822(14)
C22 C 0.66871(19) 0.15343(12) 0.94604(14)
C23 C 0.63182(17) 0.14592(11) 1.02072(13)
H10 H 0.6728 0.1301 1.0666
C24 C 0.31517(19) 0.20525(13) 1.00281(15)
C25 C 0.33377(18) 0.25236(13) 1.06834(15)
H11 H 0.3893 0.2887 1.0676
C26 C 0.27283(19) 0.24744(13) 1.13491(15)
H12 H 0.2877 0.2792 1.1801
C27 C 0.19067(19) 0.19620(13) 1.13509(15)
H13 H 0.1474 0.1932 1.1799
C28 C 0.17140(19) 0.14924(14) 1.06989(16)
H14 H 0.1149 0.1137 1.0703
C29 C 0.23371(18) 0.15332(13) 1.00354(14)
H15 H 0.2201 0.1205 0.9591
C30 C 0.42787(18) 0.55361(13) 0.86247(15)
C31 C 0.40265(19) 0.59140(14) 0.93077(15)
H16 H 0.4204 0.5698 0.9817
C32 C 0.35101(19) 0.66146(14) 0.92557(15)
H17 H 0.3342 0.6877 0.9730
C33 C 0.32420(18) 0.69295(13) 0.85216(16)
H18 H 0.2884 0.7406 0.8489
C34 C 0.34930(19) 0.65546(13) 0.78409(15)
H19 H 0.3314 0.6769 0.7331
C35 C 0.40120(18) 0.58586(13) 0.78990(15)
H20 H 0.4187 0.5599 0.7424
C36 C 0.9262(2) 0.42874(13) 0.75903(16)
C37 C 1.0272(2) 0.44288(15) 0.78965(16)
H21 H 1.0465 0.4293 0.8433
C38 C 1.1005(2) 0.47731(16) 0.74119(17)
H22 H 1.1705 0.4859 0.7617
C39 C 1.0728(2) 0.49877(14) 0.66483(17)
H23 H 1.1230 0.5229 0.6327
C40 C 0.9726(2) 0.48559(12) 0.63461(14)
H24 H 0.9532 0.5006 0.5814
C41 C 0.89915(19) 0.45038(12) 0.68153(15)
H25 H 0.8298 0.4411 0.6602
C42 C 0.84571(17) 0.12428(14) 1.00562(14)
C43 C 0.86902(17) 0.18313(13) 1.05850(15)
H26 H 0.8533 0.2343 1.0432
C44 C 0.91480(18) 0.16874(15) 1.13323(15)
H27 H 0.9286 0.2098 1.1694
C45 C 0.94061(19) 0.09508(16) 1.15567(15)
H28 H 0.9714 0.0847 1.2073
C46 C 0.9208(2) 0.03677(14) 1.10164(16)
H29 H 0.9408 -0.0140 1.1155
C47 C 0.87226(18) 0.05105(14) 1.02744(15)
H30 H 0.8573 0.0100 0.9916
N1 N 0.52627(16) 0.16462(11) 1.02001(13)
H31 H 0.4868 0.1630 1.0620
N2 N 0.46372(14) 0.34048(11) 0.89673(11)
N3 N 0.65744(15) 0.41594(10) 0.84762(10)
H32 H 0.6399 0.3686 0.8590
N4 N 0.78821(14) 0.27520(10) 0.87859(11)
N5 N 0.57826(17) 0.18320(11) 0.81393(13)
O1 O 0.32850(12) 0.17182(9) 0.86594(9)
H33 H 0.3603 0.1777 0.8233
O2 O 0.79380(12) 0.07341(8) 0.87938(9)
H34 H 0.7577 0.0789 0.8365
O3 O 0.49756(12) 0.20718(8) 0.77705(9)
O4 O 0.65752(12) 0.16272(8) 0.77809(9)
C48 C 0.49215(19) 0.18559(12) 0.94618(15)
C1 C 0.1012(4) 0.4989(4) 0.0086(4)
C2 C 0.0910(6) 0.5737(4) -0.0186(4)
H1 H 0.1521 0.6040 -0.0256
C3 C -0.0087(8) 0.6042(3) -0.0356(4)
H2 H -0.0157 0.6553 -0.0542
C4 C 0.0980(6) 0.4401(5) 0.0253(4)
H3 H 0.1661 0.4193 0.0369
C1B C -0.1012(4) 0.5011(4) -0.0086(4)
C2B C -0.0910(6) 0.4263(4) 0.0186(4)
H1B H -0.1521 0.3960 0.0256
C3B C 0.0087(8) 0.3958(3) 0.0356(4)
H2B H 0.0157 0.3447 0.0542
C4B C -0.0980(6) 0.5599(5) -0.0253(4)
H3B H -0.1661 0.5807 -0.0369
H35? H 0.1693 0.4781 0.0202
C49? C -0.0878(5) 0.4851(5) 0.0019(4)
H36? H -0.1489 0.4548 0.0089
C50? C 0.0119(6) 0.4546(3) 0.0189(4)
C51? C 0.0163(7) 0.3762(6) 0.0453(8)
H37? H 0.0901 0.3612 0.0558
H38? H -0.0156 0.3431 0.0036
H39? H -0.0225 0.3708 0.0944
C52? C 0.52627(16) 0.16462(11) 1.02001(13)
H40? H 0.4837 0.1629 1.0653
N6? N 0.63182(17) 0.14592(11) 1.02072(13)
H41? H 0.6698 0.1313 1.0632
loop_
_geom_bond_atom_site_label_1
_geom_bond_atom_site_label_2
_geom_bond_site_symmetry_1
_geom_bond_site_symmetry_2
C1 C2 1_555 1_555
C2 H1 1_555 1_555
C3 C2 1_555 1_555
H2 C3 1_555 1_555
C4 C1 1_555 1_555
H3 C4 1_555 1_555
C5 C22 1_555 1_555
C6 C7 1_555 1_555
C7 C8 1_555 1_555
C8 H4 1_555 1_555
C9 C8 1_555 1_555
H5 C9 1_555 1_555
C10 C9 1_555 1_555
C11 C10 1_555 1_555
C12 C11 1_555 1_555
C13 C12 1_555 1_555
H6 C13 1_555 1_555
C14 C13 1_555 1_555
H7 C14 1_555 1_555
C15 C14 1_555 1_555
C16 C15 1_555 1_555
C17 C16 1_555 1_555
C18 C17 1_555 1_555
H8 C18 1_555 1_555
C19 C18 1_555 1_555
H9 C19 1_555 1_555
C20 C19 1_555 1_555
C21 C20 1_555 1_555
C22 C21 1_555 1_555
C23 C22 1_555 1_555
H10 C23 1_555 1_555
C24 C6 1_555 1_555
C25 C24 1_555 1_555
H11 C25 1_555 1_555
C26 C25 1_555 1_555
H12 C26 1_555 1_555
C27 C26 1_555 1_555
H13 C27 1_555 1_555
C28 C27 1_555 1_555
H14 C28 1_555 1_555
C29 C24 1_555 1_555
H15 C29 1_555 1_555
C30 C11 1_555 1_555
C31 C30 1_555 1_555
H16 C31 1_555 1_555
C32 C31 1_555 1_555
H17 C32 1_555 1_555
C33 C32 1_555 1_555
H18 C33 1_555 1_555
C34 C33 1_555 1_555
H19 C34 1_555 1_555
C35 C30 1_555 1_555
H20 C35 1_555 1_555
C36 C16 1_555 1_555
C37 C36 1_555 1_555
H21 C37 1_555 1_555
C38 C37 1_555 1_555
H22 C38 1_555 1_555
C39 C38 1_555 1_555
H23 C39 1_555 1_555
C40 C39 1_555 1_555
H24 C40 1_555 1_555
C41 C36 1_555 1_555
H25 C41 1_555 1_555
C42 C21 1_555 1_555
C43 C42 1_555 1_555
H26 C43 1_555 1_555
C44 C43 1_555 1_555
H27 C44 1_555 1_555
C45 C44 1_555 1_555
H28 C45 1_555 1_555
C46 C45 1_555 1_555
H29 C46 1_555 1_555
C47 C42 1_555 1_555
H30 C47 1_555 1_555
N1 C23 1_555 1_555
H31 N1 1_555 1_555
N2 C7 1_555 1_555
N3 C12 1_555 1_555
H32 N3 1_555 1_555
N4 C17 1_555 1_555
N5 C5 1_555 1_555
O1 C6 1_555 1_555
H33 O1 1_555 1_555
O2 C21 1_555 1_555
H34 O2 1_555 1_555
O3 N5 1_555 1_555
O4 N5 1_555 1_555
C48 C5 1_555 1_555
C1B C2B 1_555 1_555
C2B H1B 1_555 1_555
C3B C4 1_555 1_555
H2B C3B 1_555 1_555
C4B C3 1_555 1_555
H3B C4B 1_555 1_555
C6 C48 1_555 1_555
C10 N2 1_555 1_555
C15 N3 1_555 1_555
C20 N4 1_555 1_555
C28 C29 1_555 1_555
C34 C35 1_555 1_555
C40 C41 1_555 1_555
C46 C47 1_555 1_555
N1 C48 1_555 1_555
C1B C4B 1_555 1_555
C2B C3B 1_555 1_555

#END
