
#######################################################################
#
#                 Cambridge Crystallographic Data Centre
#                                CCDC 
#
#######################################################################
#
# If this CIF has been generated from an entry in the Cambridge 
# Structural Database, then it will include bibliographic, chemical, 
# crystal, experimental, refinement or atomic coordinate data resulting 
# from the CCDC's data processing and validation procedures.
#
#######################################################################

data_LIKWEH
_chemical_formula_moiety         'C72 H72 N6 O12 S6,C2 H6 O1,C1 H4 O1,3(H2 O1)'
_chemical_name_systematic        
'2,11,20,29,32,41-hexakis(4-Tolylsulfonyl)-2,11,20,29,32,41-hexa-aza(3.3)(1,3)(1,3)(3.3)(4,6)(1,3)(3.3)(4,6)(4,6) benzeno(13)phane ethanol methanol solvate trihydrate'
_symmetry_cell_setting           triclinic
_symmetry_space_group_name_H-M   'P -1'
_symmetry_Int_Tables_number      2
_space_group_name_Hall           '-P 1'
loop_
_symmetry_equiv_pos_site_id
_symmetry_equiv_pos_as_xyz
1 x,y,z
2 -x,-y,-z
_cell_length_a                   11.743(1)
_cell_length_b                   12.896(2)
_cell_length_c                   28.757(3)
_cell_angle_alpha                102.28(1)
_cell_angle_beta                 92.84(1)
_cell_angle_gamma                109.14(1)
_cell_volume                     3986.32
_exptl_crystal_colour            colorless
_chemical_melting_point          'above 312deg.C'
_cell_formula_units_Z            2
loop_
_atom_site_label
_atom_site_type_symbol
_atom_site_fract_x
_atom_site_fract_y
_atom_site_fract_z
S1 S 0.3182(6) 0.8583(4) 0.6185(2)
S2 S 0.2975(5) 0.3740(4) 0.5890(2)
S3 S 0.5305(5) 0.3296(4) 0.7526(2)
S4 S 0.7021(5) 0.7967(5) 0.9083(2)
S5 S 0.1827(6) 0.6693(6) 0.9288(2)
S6 S -0.0690(5) 0.7107(5) 0.7524(2)
O1 O 0.2091(13) 0.8788(10) 0.6280(5)
O2 O 0.3120(11) 0.7579(10) 0.5821(4)
O3 O 0.2477(11) 0.2601(8) 0.5945(4)
O4 O 0.4239(11) 0.4213(10) 0.5829(4)
O5 O 0.4286(12) 0.2211(9) 0.7349(4)
O6 O 0.6088(11) 0.3782(10) 0.7206(4)
O7 O 0.7233(12) 0.6913(10) 0.8982(4)
O8 O 0.6267(12) 0.8199(11) 0.9445(4)
O9 O 0.0618(13) 0.5973(15) 0.9216(5)
O10 O 0.2115(14) 0.7917(13) 0.9396(5)
O11 O -0.0172(11) 0.8257(9) 0.7801(4)
O12 O -0.1441(11) 0.6292(9) 0.7736(4)
N1 N 0.3789(14) 0.8461(11) 0.6684(4)
N2 N 0.2777(13) 0.4516(10) 0.6367(4)
N3 N 0.4727(13) 0.4266(11) 0.7769(5)
N4 N 0.6342(14) 0.8063(12) 0.8588(5)
N5 N 0.2358(13) 0.6422(11) 0.8797(4)
N6 N 0.0460(13) 0.6734(10) 0.7382(5)
C1 C 0.3844(66) 0.9336(14) 0.7123(6)
C2 C 0.4950(16) 0.8237(13) 0.6669(6)
C3 C 0.5086(14) 0.7493(12) 0.6981(5)
C4 C 0.5984(15) 0.7939(12) 0.7367(5)
C5 C 0.6092(14) 0.7276(14) 0.7697(5)
C6 C 0.5431(15) 0.6120(12) 0.7576(5)
C7 C 0.4669(13) 0.5659(12) 0.7159(5)
C8 C 0.4458(15) 0.6336(12) 0.6862(5)
C9 C 0.3401(16) 0.5793(13) 0.6439(5)
C10 C 0.1557(15) 0.4214(15) 0.6511(5)
C11 C 0.1576(16) 0.4395(15) 0.7061(6)
C12 C 0.0999(16) 0.4963(15) 0.7321(6)
C13 C 0.1138(15) 0.5135(13) 0.7825(6)
C14 C 0.2035(17) 0.4826(15) 0.8056(6)
C15 C 0.2630(17) 0.4216(14) 0.7780(6)
C16 C 0.2353(15) 0.3929(12) 0.7294(5)
C17 C 0.3643(16) 0.3869(15) 0.7988(6)
C18 C 0.5532(15) 0.5380(11) 0.7916(5)
C19 C 0.6998(15) 0.7889(13) 0.8159(6)
C20 C 0.5862(15) 0.8963(18) 0.8615(6)
C21 C 0.4666(15) 0.8692(13) 0.8305(5)
C22 C 0.4658(15) 0.9213(13) 0.7923(5)
C23 C 0.3675(16) 0.8839(13) 0.7571(5)
C24 C 0.2610(15) 0.8021(13) 0.7630(5)
C25 C 0.2607(15) 0.7657(13) 0.8043(6)
C26 C 0.3593(15) 0.7891(13) 0.8364(5)
C27 C 0.3661(15) 0.7233(15) 0.8755(6)
C28 C 0.2207(17) 0.5242(13) 0.8611(5)
C29 C 0.1483(13) 0.7560(14) 0.7246(5)
C30 C 0.0153(14) 0.5480(12) 0.7122(5)
C31 C 0.4219(15) 0.9740(13) 0.6015(6)
C32 C 0.4196(7) 1.0843(14) 0.6227(6)
C33 C 0.4928(20) 1.1772(18) 0.6097(8)
C34 C 0.5710(22) 1.1562(10) 0.5787(8)
C35 C 0.5881(24) 1.0496(21) 0.5594(9)
C36 C 0.4958(19) 0.9512(17) 0.5687(7)
C37 C 0.6602(27) 1.2643(24) 0.5642(10)
C38 C 0.2118(15) 0.3874(13) 0.5398(5)
C39 C 0.2568(16) 0.4752(13) 0.5200(5)
C40 C 0.1847(16) 0.4858(14) 0.4820(6)
C41 C 0.0696(16) 0.4068(13) 0.4638(6)
C42 C 0.0311(16) 0.3199(13) 0.4838(6)
C43 C 0.0965(16) 0.3103(14) 0.5229(6)
C44 C 0.0020(17) 0.4196(15) 0.4213(6)
C45 C 0.6259(17) 0.3110(14) 0.7974(6)
C46 C 0.5720(19) 0.2285(15) 0.8212(6)
C47 C 0.6452(18) 0.2176(16) 0.8593(7)
C48 C 0.7666(20) 0.2899(17) 0.8715(7)
C49 C 0.8105(19) 0.3729(16) 0.8486(7)
C50 C 0.7432(19) 0.3802(16) 0.8099(7)
C51 C 0.8478(23) 0.2813(20) 0.9137(9)
C52 C 0.8471(17) 0.9075(14) 0.9225(6)
C53 C 0.8462(22) 1.0099(18) 0.9531(7)
C54 C 0.9591(21) 1.1005(18) 0.9660(8)
C55 C 1.0483(23) 1.0717(19) 0.9440(8)
C56 C 1.0603(23) 0.9746(20) 0.9145(8)
C57 C 0.9381(20) 0.8817(17) 0.9025(7)
C58 C 1.1870(33) 1.1737(32) 0.9535(13)
C59 C 0.2565(17) 0.6315(15) 0.9713(6)
C60 C 0.3767(19) 0.7034(16) 0.9923(7)
C61 C 0.4487(20) 0.6714(17) 1.0251(7)
C62 C 0.3970(19) 0.5747(16) 1.0372(7)
C63 C 0.2882(19) 0.5044(16) 1.0186(7)
C64 C 0.2135(19) 0.5304(16) 0.9845(7)
C65 C 0.4763(19) 0.5519(16) 1.0760(7)
C66 C -0.1510(15) 0.7088(13) 0.6991(5)
C67 C -0.1155(17) 0.8104(15) 0.6819(6)
C68 C -0.1763(19) 0.8076(17) 0.6395(7)
C69 C -0.2747(17) 0.7098(16) 0.6154(6)
C70 C -0.3019(19) 0.6216(17) 0.6308(7)
C71 C -0.2398(17) 0.6179(15) 0.6755(6)
C72 C -0.3424(21) 0.7094(18) 0.5697(8)
H1 H 0.3187 0.9602 0.7071
H2 H 0.4592 0.9967 0.7179
H3 H 0.5619 0.8942 0.6764
H4 H 0.4984 0.7889 0.6342
H5 H 0.6550 0.8697 0.7417
H6 H 0.4275 0.4853 0.7065
H7 H 0.2812 0.6159 0.6499
H8 H 0.3724 0.5941 0.6150
H9 H 0.1104 0.3433 0.6363
H10 H 0.1143 0.4668 0.6404
H11 H 0.0617 0.5446 0.8010
H12 H 0.2683 0.3423 0.7099
H13 H 0.3820 0.4184 0.8329
H14 H 0.3367 0.3060 0.7930
H15 H 0.6346 0.5367 0.7941
H16 H 0.5391 0.5715 0.8229
H17 H 0.7475 0.7436 0.8212
H18 H 0.7537 0.8600 0.8121
H19 H 0.6446 0.9594 0.8533
H20 H 0.5736 0.9199 0.8943
H21 H 0.5359 0.9848 0.7911
H22 H 0.1833 0.7215 0.8113
H23 H 0.4195 0.6810 0.8684
H24 H 0.3987 0.7785 0.9054
H25 H 0.1498 0.4802 0.8726
H26 H 0.2892 0.5090 0.8736
H27 H 0.1255 0.8177 0.7189
H28 H 0.1701 0.7201 0.6954
H29 H 0.0197 0.5418 0.6785
H30 H -0.0662 0.5056 0.7160
H31 H 0.3630 1.0897 0.6453
H32 H 0.4897 1.2519 0.6205
H33 H 0.6515 1.0455 0.5400
H34 H 0.4863 0.8742 0.5540
H35 H 0.6536 1.3365 0.5777
H36 H 0.7407 1.2661 0.5735
H37 H 0.6446 1.2476 0.5299
H38 H 0.3369 0.5294 0.5314
H39 H 0.2159 0.5483 0.4675
H40 H -0.0446 0.2611 0.4697
H41 H 0.0624 0.2516 0.5391
H42 H -0.0754 0.3594 0.4138
H43 H -0.0103 0.4910 0.4297
H44 H 0.0453 0.4168 0.3939
H45 H 0.4886 0.1802 0.8117
H46 H 0.6099 0.1642 0.8778
H47 H 0.8897 0.4276 0.8612
H48 H 0.7774 0.4350 0.7918
H49 H 0.8093 0.2174 0.9265
H50 H 0.9194 0.2739 0.9008
H51 H 0.8700 0.3495 0.9387
H52 H 0.7738 1.0175 0.9652
H53 H 0.9738 1.1724 0.9879
H54 H 1.1361 0.9721 0.9042
H55 H 0.9254 0.8079 0.8827
H56 H 1.1815 1.2414 0.9733
H57 H 1.2456 1.1513 0.9694
H58 H 1.2119 1.1876 0.9234
H59 H 0.4118 0.7714 0.9818
H60 H 0.5262 0.7240 1.0411
H61 H 0.2540 0.4377 1.0302
H62 H 0.1344 0.4779 0.9703
H63 H 0.4334 0.4778 1.0802
H64 H 0.5520 0.5535 1.0644
H65 H 0.4918 0.6065 1.1062
H66 H -0.0488 0.8758 0.6992
H67 H -0.1529 0.8732 0.6265
H68 H -0.3629 0.5544 0.6115
H69 H -0.2641 0.5526 0.6886
H70 H -0.4060 0.6372 0.5583
H71 H -0.3773 0.7679 0.5755
H72 H -0.2881 0.7217 0.5459
O13 O -0.0346(30) 0.0617(26) 0.5899(13)
C73 C -0.0676(25) 0.0038(21) 0.5461(10)
C74 C -0.1404(38) 0.0218(33) 0.5000(15)
O14 O 0.0926(36) 0.0795(32) 0.6479(14)
O15 O 1.0833(27) 0.1962(24) 0.8342(10)
O16 O 1.1541(39) 0.0792(35) 0.7761(15)
O17 O 0.7974(35) 0.1204(32) 0.7306(14)
C75 C 0.7935(43) 0.1926(38) 0.6963(15)
loop_
_geom_bond_atom_site_label_1
_geom_bond_atom_site_label_2
_geom_bond_site_symmetry_1
_geom_bond_site_symmetry_2
S1 O1 1_555 1_555
S2 O3 1_555 1_555
S3 O5 1_555 1_555
S4 O7 1_555 1_555
S5 O9 1_555 1_555
S6 O11 1_555 1_555
O2 S1 1_555 1_555
O4 S2 1_555 1_555
O6 S3 1_555 1_555
O8 S4 1_555 1_555
O10 S5 1_555 1_555
O12 S6 1_555 1_555
N1 S1 1_555 1_555
N2 S2 1_555 1_555
N3 S3 1_555 1_555
N4 S4 1_555 1_555
N5 S5 1_555 1_555
N6 S6 1_555 1_555
C1 N1 1_555 1_555
C2 N1 1_555 1_555
C3 C2 1_555 1_555
C4 C3 1_555 1_555
C5 C4 1_555 1_555
C6 C5 1_555 1_555
C7 C6 1_555 1_555
C8 C3 1_555 1_555
C9 N2 1_555 1_555
C10 N2 1_555 1_555
C11 C10 1_555 1_555
C12 C11 1_555 1_555
C13 C12 1_555 1_555
C14 C13 1_555 1_555
C15 C14 1_555 1_555
C16 C11 1_555 1_555
C17 N3 1_555 1_555
C18 N3 1_555 1_555
C19 N4 1_555 1_555
C20 N4 1_555 1_555
C21 C20 1_555 1_555
C22 C21 1_555 1_555
C23 C1 1_555 1_555
C24 C23 1_555 1_555
C25 C24 1_555 1_555
C26 C21 1_555 1_555
C27 N5 1_555 1_555
C28 N5 1_555 1_555
C29 N6 1_555 1_555
C30 N6 1_555 1_555
C31 S1 1_555 1_555
C32 C31 1_555 1_555
C33 C32 1_555 1_555
C34 C33 1_555 1_555
C35 C34 1_555 1_555
C36 C31 1_555 1_555
C37 C34 1_555 1_555
C38 S2 1_555 1_555
C39 C38 1_555 1_555
C40 C39 1_555 1_555
C41 C40 1_555 1_555
C42 C41 1_555 1_555
C43 C38 1_555 1_555
C44 C41 1_555 1_555
C45 S3 1_555 1_555
C46 C45 1_555 1_555
C47 C46 1_555 1_555
C48 C47 1_555 1_555
C49 C48 1_555 1_555
C50 C45 1_555 1_555
C51 C48 1_555 1_555
C52 S4 1_555 1_555
C53 C52 1_555 1_555
C54 C53 1_555 1_555
C55 C54 1_555 1_555
C56 C55 1_555 1_555
C57 C52 1_555 1_555
C58 C55 1_555 1_555
C59 S5 1_555 1_555
C60 C59 1_555 1_555
C61 C60 1_555 1_555
C62 C61 1_555 1_555
C63 C62 1_555 1_555
C64 C59 1_555 1_555
C65 C62 1_555 1_555
C66 S6 1_555 1_555
C67 C66 1_555 1_555
C68 C67 1_555 1_555
C69 C68 1_555 1_555
C70 C69 1_555 1_555
C71 C66 1_555 1_555
C72 C69 1_555 1_555
H1 C1 1_555 1_555
H2 C1 1_555 1_555
H3 C2 1_555 1_555
H4 C2 1_555 1_555
H5 C4 1_555 1_555
H6 C7 1_555 1_555
H7 C9 1_555 1_555
H8 C9 1_555 1_555
H9 C10 1_555 1_555
H10 C10 1_555 1_555
H11 C13 1_555 1_555
H12 C16 1_555 1_555
H13 C17 1_555 1_555
H14 C17 1_555 1_555
H15 C18 1_555 1_555
H16 C18 1_555 1_555
H17 C19 1_555 1_555
H18 C19 1_555 1_555
H19 C20 1_555 1_555
H20 C20 1_555 1_555
H21 C22 1_555 1_555
H22 C25 1_555 1_555
H23 C27 1_555 1_555
H24 C27 1_555 1_555
H25 C28 1_555 1_555
H26 C28 1_555 1_555
H27 C29 1_555 1_555
H28 C29 1_555 1_555
H29 C30 1_555 1_555
H30 C30 1_555 1_555
H31 C32 1_555 1_555
H32 C33 1_555 1_555
H33 C35 1_555 1_555
H34 C36 1_555 1_555
H35 C37 1_555 1_555
H36 C37 1_555 1_555
H37 C37 1_555 1_555
H38 C39 1_555 1_555
H39 C40 1_555 1_555
H40 C42 1_555 1_555
H41 C43 1_555 1_555
H42 C44 1_555 1_555
H43 C44 1_555 1_555
H44 C44 1_555 1_555
H45 C46 1_555 1_555
H46 C47 1_555 1_555
H47 C49 1_555 1_555
H48 C50 1_555 1_555
H49 C51 1_555 1_555
H50 C51 1_555 1_555
H51 C51 1_555 1_555
H52 C53 1_555 1_555
H53 C54 1_555 1_555
H54 C56 1_555 1_555
H55 C57 1_555 1_555
H56 C58 1_555 1_555
H57 C58 1_555 1_555
H58 C58 1_555 1_555
H59 C60 1_555 1_555
H60 C61 1_555 1_555
H61 C63 1_555 1_555
H62 C64 1_555 1_555
H63 C65 1_555 1_555
H64 C65 1_555 1_555
H65 C65 1_555 1_555
H66 C67 1_555 1_555
H67 C68 1_555 1_555
H68 C70 1_555 1_555
H69 C71 1_555 1_555
H70 C72 1_555 1_555
H71 C72 1_555 1_555
H72 C72 1_555 1_555
O13 C73 1_555 1_555
C73 C74 1_555 1_555
O17 C75 1_555 1_555
C5 C19 1_555 1_555
C6 C18 1_555 1_555
C7 C8 1_555 1_555
C8 C9 1_555 1_555
C12 C30 1_555 1_555
C14 C28 1_555 1_555
C15 C16 1_555 1_555
C15 C17 1_555 1_555
C22 C23 1_555 1_555
C24 C29 1_555 1_555
C25 C26 1_555 1_555
C26 C27 1_555 1_555
C35 C36 1_555 1_555
C42 C43 1_555 1_555
C49 C50 1_555 1_555
C56 C57 1_555 1_555
C63 C64 1_555 1_555
C70 C71 1_555 1_555

#END
