
#######################################################################
#
#                 Cambridge Crystallographic Data Centre
#                                CCDC 
#
#######################################################################
#
# If this CIF has been generated from an entry in the Cambridge 
# Structural Database, then it will include bibliographic, chemical, 
# crystal, experimental, refinement or atomic coordinate data resulting 
# from the CCDC's data processing and validation procedures.
#
#######################################################################

data_LIKWIL
_chemical_formula_moiety         
'C66 H70 N4 O16 S4,2(C6 H6),2(C1 H1 Cl3),2(H2 O1)'
_chemical_name_systematic        
'Tetraethyl 2,6,10,14-tetra-p-tolylsulfonyl-2,6,10,14-tetra-aza-4,12(1,3),8(1,3,4,6)-tribenzenaspiro(7.7)pentadecaphane-1,3,10,12-tetracarboxylate benzene chloroform solvate dihydrate'
_symmetry_cell_setting           triclinic
_symmetry_space_group_name_H-M   'P -1'
_symmetry_Int_Tables_number      2
_space_group_name_Hall           '-P 1'
loop_
_symmetry_equiv_pos_site_id
_symmetry_equiv_pos_as_xyz
1 x,y,z
2 -x,-y,-z
_cell_length_a                   11.064(1)
_cell_length_b                   14.210(1)
_cell_length_c                   16.513(1)
_cell_angle_alpha                68.83(1)
_cell_angle_beta                 80.99(1)
_cell_angle_gamma                69.25(1)
_cell_volume                     2262.7
_exptl_crystal_colour            colorless
_cell_formula_units_Z            1
loop_
_atom_site_label
_atom_site_type_symbol
_atom_site_fract_x
_atom_site_fract_y
_atom_site_fract_z
C1 C 0.4046(7) 0.3315(6) 0.5053(5)
N1 N 0.2854(6) 0.3753(4) 0.4535(4)
C2 C 0.1670(7) 0.4339(5) 0.4927(5)
C3 C 0.1683(7) 0.5416(6) 0.4872(5)
C4 C 0.1781(7) 0.6211(6) 0.4073(5)
C5 C 0.1919(7) 0.7159(5) 0.4073(5)
C6 C 0.2017(7) 0.7295(6) 0.4845(5)
C7 C 0.1919(7) 0.6525(6) 0.5635(5)
C8 C 0.1709(7) 0.5620(6) 0.5622(5)
C9 C 0.2142(8) 0.6551(6) 0.6513(6)
N2 N 0.3237(6) 0.5617(5) 0.6924(4)
C10 C 0.4533(8) 0.5630(7) 0.6556(5)
C11 C 0.4827(7) 0.5298(6) 0.5750(5)
C12 C 0.4454(7) 0.4464(6) 0.5739(5)
C13 C 0.4589(7) 0.4170(5) 0.5013(5)
S1 S 0.2694(2) 0.2833(2) 0.4198(1)
O1 O 0.1445(6) 0.3272(4) 0.3818(4)
O2 O 0.3828(6) 0.2513(4) 0.3689(4)
C14 C 0.2683(8) 0.1736(6) 0.5133(5)
C15 C 0.3831(9) 0.0931(6) 0.5413(6)
C16 C 0.3789(11) 0.0075(7) 0.6159(7)
C17 C 0.2652(12) 0.0008(8) 0.6601(7)
C18 C 0.1548(11) 0.0819(8) 0.6327(7)
C19 C 0.1537(9) 0.1688(7) 0.5583(6)
C20 C 0.2615(15) -0.0952(9) 0.7399(8)
C21 C 0.1791(10) 0.6108(7) 0.3210(7)
O3 O 0.2558(9) 0.6328(8) 0.2641(6)
O4 O 0.0887(7) 0.5734(5) 0.3147(4)
C22 C 0.0812(14) 0.5623(10) 0.2316(7)
C23 C 0.0132(20) 0.6601(15) 0.1685(12)
C24 C 0.2269(9) 0.8301(6) 0.4782(6)
O5 O 0.2994(7) 0.8342(5) 0.5219(5)
O6 O 0.1590(6) 0.9138(4) 0.4170(5)
C25 C 0.1769(13) 1.0159(7) 0.4038(9)
C26 C 0.0666(14) 1.0995(9) 0.3571(11)
S2 S 0.3075(2) 0.4959(2) 0.7940(2)
O7 O 0.4152(7) 0.4004(5) 0.8121(4)
O8 O 0.1772(7) 0.4910(6) 0.8078(4)
C27 C 0.3197(10) 0.5696(7) 0.8555(5)
C28 C 0.4401(11) 0.5668(9) 0.8715(7)
C29 C 0.4439(16) 0.6273(11) 0.9206(8)
C30 C 0.3401(19) 0.6887(10) 0.9520(7)
C31 C 0.2220(17) 0.6909(10) 0.9341(8)
C32 C 0.2094(12) 0.6349(9) 0.8848(7)
C33 C 0.3482(19) 0.7503(12) 1.0074(10)
H1 H 0.4700(7) 0.2789(6) 0.4835(5)
H2 H 0.3843(7) 0.2958(6) 0.5654(5)
H3 H 0.1587(7) 0.3921(5) 0.5532(5)
H4 H 0.0924(7) 0.4430(5) 0.4632(5)
H5 H 0.1944(7) 0.7698(5) 0.3549(5)
H6 H 0.1579(7) 0.5126(6) 0.6151(5)
H7 H 0.2322(8) 0.7199(6) 0.6435(6)
H8 H 0.1371(8) 0.6546(6) 0.6884(6)
H9 H 0.5174(8) 0.5146(7) 0.6987(5)
H10 H 0.4582(8) 0.6341(7) 0.6407(5)
H11 H 0.4097(7) 0.4088(6) 0.6245(5)
H12 H 0.4608(9) 0.0959(6) 0.5112(6)
H13 H 0.4556(11) -0.0466(7) 0.6363(7)
H14 H 0.0780(11) 0.0797(8) 0.6643(7)
H15 H 0.0766(9) 0.2230(7) 0.5392(6)
H16 H 0.3472(15) -0.1454(9) 0.7507(8)
H17 H 0.2059(15) -0.1285(9) 0.7300(8)
H18 H 0.2290(15) -0.0721(9) 0.7894(8)
H19 H 0.1682(14) 0.5353(10) 0.2091(7)
H20 H 0.0384(14) 0.5102(10) 0.2406(7)
H21 H 0.0114(20) 0.6478(15) 0.1152(12)
H22 H 0.0562(20) 0.7116(15) 0.1581(12)
H23 H -0.0737(20) 0.6865(15) 0.1896(12)
H24 H 0.1815(13) 1.0231(7) 0.4594(9)
H25 H 0.2563(13) 1.0199(7) 0.3705(9)
H26 H 0.0750(14) 1.1677(9) 0.3473(11)
H27 H -0.0114(14) 1.0946(9) 0.3907(11)
H28 H 0.0631(14) 1.0914(9) 0.3023(11)
H29 H 0.5155(11) 0.5263(9) 0.8502(7)
H30 H 0.5247(16) 0.6246(11) 0.9325(8)
H31 H 0.1476(17) 0.7317(10) 0.9561(8)
H32 H 0.1279(12) 0.6409(9) 0.8714(7)
H33 H 0.2626(19) 0.7889(12) 1.0229(10)
H34 H 0.3939(19) 0.7994(12) 0.9755(10)
H35 H 0.3935(19) 0.7016(12) 1.0592(10)
C13A C 0.5411(7) 0.5830(5) 0.4987(5)
C11A C 0.5173(7) 0.4702(6) 0.4250(5)
C1A C 0.5954(7) 0.6685(6) 0.4947(5)
C12A C 0.5546(7) 0.5536(6) 0.4261(5)
C10A C 0.5467(8) 0.4370(7) 0.3444(5)
N1A N 0.7146(6) 0.6247(4) 0.5465(4)
H1A H 0.5300(7) 0.7211(6) 0.5165(5)
H2A H 0.6157(7) 0.7042(6) 0.4346(5)
H11A H 0.5903(7) 0.5912(6) 0.3755(5)
N2A N 0.6763(6) 0.4383(5) 0.3076(4)
H9A H 0.4826(8) 0.4854(7) 0.3013(5)
H10A H 0.5418(8) 0.3659(7) 0.3593(5)
C2A C 0.8330(7) 0.5661(5) 0.5073(5)
S1A S 0.7306(2) 0.7167(2) 0.5802(1)
C9A C 0.7858(8) 0.3449(6) 0.3487(6)
S2A S 0.6925(2) 0.5041(2) 0.2060(2)
C3A C 0.8317(7) 0.4584(6) 0.5128(5)
H3A H 0.8413(7) 0.6079(5) 0.4468(5)
H4A H 0.9076(7) 0.5570(5) 0.5368(5)
O1A O 0.8555(6) 0.6728(4) 0.6182(4)
O2A O 0.6172(6) 0.7487(4) 0.6311(4)
C14A C 0.7317(8) 0.8264(6) 0.4867(5)
C7A C 0.8081(7) 0.3475(6) 0.4365(5)
H7A H 0.7678(8) 0.2801(6) 0.3565(6)
H8A H 0.8629(8) 0.3454(6) 0.3116(6)
O7A O 0.5848(7) 0.5996(5) 0.1879(4)
O8A O 0.8228(7) 0.5090(6) 0.1922(4)
C27A C 0.6803(10) 0.4304(7) 0.1445(5)
C4A C 0.8219(7) 0.3789(6) 0.5927(5)
C8A C 0.8291(7) 0.4380(6) 0.4378(5)
C15A C 0.6169(9) 0.9069(6) 0.4587(6)
C19A C 0.8463(9) 0.8312(7) 0.4417(6)
C6A C 0.7983(7) 0.2705(6) 0.5155(5)
C28A C 0.5599(11) 0.4332(9) 0.1285(7)
C32A C 0.7906(12) 0.3651(9) 0.1152(7)
C5A C 0.8081(7) 0.2841(5) 0.5927(5)
C21A C 0.8209(10) 0.3892(7) 0.6790(7)
H6A H 0.8421(7) 0.4874(6) 0.3849(5)
C16A C 0.6211(11) 0.9925(7) 0.3841(7)
H12A H 0.5392(9) 0.9041(6) 0.4888(6)
C18A C 0.8452(11) 0.9181(8) 0.3673(7)
H15A H 0.9234(9) 0.7770(7) 0.4608(6)
C24A C 0.7731(9) 0.1699(6) 0.5218(6)
C29A C 0.5561(16) 0.3727(11) 0.0794(8)
H29A H 0.4845(11) 0.4737(9) 0.1498(7)
C31A C 0.7780(17) 0.3091(10) 0.0659(8)
H32A H 0.8721(12) 0.3591(9) 0.1286(7)
H5A H 0.8056(7) 0.2302(5) 0.6451(5)
O3A O 0.7442(9) 0.3672(8) 0.7359(6)
O4A O 0.9113(7) 0.4266(5) 0.6853(4)
C17A C 0.7348(12) 0.9992(8) 0.3399(7)
H13A H 0.5444(11) 1.0466(7) 0.3637(7)
H14A H 0.9220(11) 0.9203(8) 0.3357(7)
O5A O 0.7006(7) 0.1658(5) 0.4781(5)
O6A O 0.8410(6) 0.0862(4) 0.5830(5)
C30A C 0.6599(19) 0.3113(10) 0.0480(7)
H30A H 0.4753(16) 0.3754(11) 0.0675(8)
H31A H 0.8524(17) 0.2683(10) 0.0439(8)
C22A C 0.9188(14) 0.4377(10) 0.7684(7)
C20A C 0.7385(15) 1.0952(9) 0.2601(8)
C25A C 0.8231(13) -0.0159(7) 0.5962(9)
C33A C 0.6518(19) 0.2497(12) -0.0074(10)
C23A C 0.9868(20) 0.3399(15) 0.8315(12)
H19A H 0.8318(14) 0.4647(10) 0.7909(7)
H20A H 0.9616(14) 0.4898(10) 0.7594(7)
H16A H 0.6528(15) 1.1454(9) 0.2493(8)
H17A H 0.7941(15) 1.1285(9) 0.2700(8)
H18A H 0.7710(15) 1.0721(9) 0.2106(8)
C26A C 0.9334(14) -0.0995(9) 0.6429(11)
H24A H 0.8185(13) -0.0231(7) 0.5406(9)
H25A H 0.7437(13) -0.0199(7) 0.6295(9)
H33A H 0.7374(19) 0.2111(12) -0.0229(10)
H34A H 0.6061(19) 0.2006(12) 0.0245(10)
H35A H 0.6065(19) 0.2984(12) -0.0592(10)
H21A H 0.9886(20) 0.3522(15) 0.8848(12)
H22A H 0.9438(20) 0.2884(15) 0.8419(12)
H23A H 1.0737(20) 0.3135(15) 0.8104(12)
H26A H 0.9250(14) -0.1677(9) 0.6527(11)
H27A H 1.0114(14) -0.0946(9) 0.6093(11)
H28A H 0.9369(14) -0.0914(9) 0.6977(11)
C34 C 0.3302(19) 0.1914(13) 0.0927(14)
C35 C 0.3064(17) 0.2127(14) 0.1706(11)
C36 C 0.2139(20) 0.3071(15) 0.1754(8)
C37 C 0.1453(17) 0.3802(12) 0.1024(11)
C38 C 0.1691(17) 0.3589(15) 0.0246(9)
C39 C 0.2615(22) 0.2645(16) 0.0197(10)
H36 H 0.3921(9) 0.1283(13) 0.0894(14)
H37 H 0.3523(24) 0.1638(19) 0.2194(14)
H38 H 0.1980(31) 0.3213(22) 0.2275(10)
H39 H 0.0834(25) 0.4434(15) 0.1057(17)
H40 H 0.1231(23) 0.4078(20) -0.0242(12)
H41 H 0.2775(32) 0.2503(23) -0.0324(13)
C40 C 0.4795(23) 0.1809(16) 0.7998(11)
Cl1 Cl 0.3265(23) 0.1964(26) 0.7612(16)
Cl2 Cl 0.4908(17) 0.1013(9) 0.9023(6)
Cl3 Cl 0.5796(25) 0.1391(29) 0.7206(13)
H42 H 0.4820(23) 0.2506(16) 0.7962(11)
O9 O 0.6678(27) 0.1134(21) 0.8318(18)
O10 O -0.0660(31) 0.9593(25) 0.0317(20)
C41? C 0.2401(64) 0.1668(37) 0.0916(37)
C42? C 0.2997(52) 0.1626(34) 0.1615(31)
C43? C 0.2907(54) 0.2564(46) 0.1742(28)
C44? C 0.2220(60) 0.3544(35) 0.1170(36)
C45? C 0.1623(46) 0.3585(36) 0.0472(32)
C46? C 0.1714(54) 0.2647(49) 0.0344(29)
C47? C 0.4200(49) 0.1746(32) 0.7939(23)
Cl4? Cl 0.2727(56) 0.2180(58) 0.7424(38)
Cl5? Cl 0.4218(41) 0.0649(22) 0.8834(15)
Cl6? Cl 0.5401(64) 0.1355(69) 0.7200(30)
H43? H 0.2462(64) 0.1040(37) 0.0831(37)
H44? H 0.3457(12) 0.0971(40) 0.1997(43)
H45? H 0.3306(97) 0.2537(66) 0.2209(36)
H46? H 0.2159(91) 0.4171(43) 0.1256(52)
H47? H 0.1163(64) 0.4241(43) 0.0089(43)
H48? H 0.1315(78) 0.2675(69) -0.0123(28)
H49? H 0.4309(49) 0.2312(32) 0.8097(23)
loop_
_geom_bond_atom_site_label_1
_geom_bond_atom_site_label_2
_geom_bond_site_symmetry_1
_geom_bond_site_symmetry_2
C1 N1 1_555 1_555
N1 C2 1_555 1_555
C2 C3 1_555 1_555
C3 C4 1_555 1_555
C4 C5 1_555 1_555
C5 C6 1_555 1_555
C6 C7 1_555 1_555
C7 C8 1_555 1_555
C8 C3 1_555 1_555
C9 C7 1_555 1_555
N2 C9 1_555 1_555
C10 N2 1_555 1_555
C11 C10 1_555 1_555
C12 C11 1_555 1_555
C13 C1 1_555 1_555
S1 N1 1_555 1_555
O1 S1 1_555 1_555
O2 S1 1_555 1_555
C14 S1 1_555 1_555
C15 C14 1_555 1_555
C16 C15 1_555 1_555
C17 C16 1_555 1_555
C18 C17 1_555 1_555
C19 C14 1_555 1_555
C20 C17 1_555 1_555
C21 C4 1_555 1_555
O3 C21 1_555 1_555
O4 C21 1_555 1_555
C22 O4 1_555 1_555
C23 C22 1_555 1_555
C24 C6 1_555 1_555
O5 C24 1_555 1_555
O6 C24 1_555 1_555
C25 O6 1_555 1_555
C26 C25 1_555 1_555
S2 N2 1_555 1_555
O7 S2 1_555 1_555
O8 S2 1_555 1_555
C27 S2 1_555 1_555
C28 C27 1_555 1_555
C29 C28 1_555 1_555
C30 C29 1_555 1_555
C31 C30 1_555 1_555
C32 C27 1_555 1_555
C33 C30 1_555 1_555
H1 C1 1_555 1_555
H2 C1 1_555 1_555
H3 C2 1_555 1_555
H4 C2 1_555 1_555
H5 C5 1_555 1_555
H6 C8 1_555 1_555
H7 C9 1_555 1_555
H8 C9 1_555 1_555
H9 C10 1_555 1_555
H10 C10 1_555 1_555
H11 C12 1_555 1_555
H12 C15 1_555 1_555
H13 C16 1_555 1_555
H14 C18 1_555 1_555
H15 C19 1_555 1_555
H16 C20 1_555 1_555
H17 C20 1_555 1_555
H18 C20 1_555 1_555
H19 C22 1_555 1_555
H20 C22 1_555 1_555
H21 C23 1_555 1_555
H22 C23 1_555 1_555
H23 C23 1_555 1_555
H24 C25 1_555 1_555
H25 C25 1_555 1_555
H26 C26 1_555 1_555
H27 C26 1_555 1_555
H28 C26 1_555 1_555
H29 C28 1_555 1_555
H30 C29 1_555 1_555
H31 C31 1_555 1_555
H32 C32 1_555 1_555
H33 C33 1_555 1_555
H34 C33 1_555 1_555
H35 C33 1_555 1_555
C34 C35 1_555 1_555
C35 C36 1_555 1_555
C36 C37 1_555 1_555
C37 C38 1_555 1_555
C38 C39 1_555 1_555
C39 C34 1_555 1_555
H36 C34 1_555 1_555
H37 C35 1_555 1_555
H38 C36 1_555 1_555
H39 C37 1_555 1_555
H40 C38 1_555 1_555
H41 C39 1_555 1_555
C40 Cl1 1_555 1_555
Cl2 C40 1_555 1_555
Cl3 C40 1_555 1_555
H42 C40 1_555 1_555
C13A C11 1_555 1_555
C11A C13 1_555 1_555
C1A C13A 1_555 1_555
C12A C13A 1_555 1_555
C10A C11A 1_555 1_555
N1A C1A 1_555 1_555
H1A C1A 1_555 1_555
H2A C1A 1_555 1_555
H11A C12A 1_555 1_555
N2A C10A 1_555 1_555
H9A C10A 1_555 1_555
H10A C10A 1_555 1_555
C2A N1A 1_555 1_555
S1A N1A 1_555 1_555
C9A N2A 1_555 1_555
S2A N2A 1_555 1_555
C3A C2A 1_555 1_555
H3A C2A 1_555 1_555
H4A C2A 1_555 1_555
O1A S1A 1_555 1_555
O2A S1A 1_555 1_555
C14A S1A 1_555 1_555
C7A C9A 1_555 1_555
H7A C9A 1_555 1_555
H8A C9A 1_555 1_555
O7A S2A 1_555 1_555
O8A S2A 1_555 1_555
C27A S2A 1_555 1_555
C4A C3A 1_555 1_555
C8A C3A 1_555 1_555
C15A C14A 1_555 1_555
C19A C14A 1_555 1_555
C6A C7A 1_555 1_555
C28A C27A 1_555 1_555
C32A C27A 1_555 1_555
C5A C4A 1_555 1_555
C21A C4A 1_555 1_555
H6A C8A 1_555 1_555
C16A C15A 1_555 1_555
H12A C15A 1_555 1_555
C18A C19A 1_555 1_555
H15A C19A 1_555 1_555
C24A C6A 1_555 1_555
C29A C28A 1_555 1_555
H29A C28A 1_555 1_555
C31A C32A 1_555 1_555
H32A C32A 1_555 1_555
H5A C5A 1_555 1_555
O3A C21A 1_555 1_555
O4A C21A 1_555 1_555
C17A C16A 1_555 1_555
H13A C16A 1_555 1_555
H14A C18A 1_555 1_555
O5A C24A 1_555 1_555
O6A C24A 1_555 1_555
C30A C29A 1_555 1_555
H30A C29A 1_555 1_555
H31A C31A 1_555 1_555
C22A O4A 1_555 1_555
C20A C17A 1_555 1_555
C25A O6A 1_555 1_555
C33A C30A 1_555 1_555
C23A C22A 1_555 1_555
H19A C22A 1_555 1_555
H20A C22A 1_555 1_555
H16A C20A 1_555 1_555
H17A C20A 1_555 1_555
H18A C20A 1_555 1_555
C26A C25A 1_555 1_555
H24A C25A 1_555 1_555
H25A C25A 1_555 1_555
H33A C33A 1_555 1_555
H34A C33A 1_555 1_555
H35A C33A 1_555 1_555
H21A C23A 1_555 1_555
H22A C23A 1_555 1_555
H23A C23A 1_555 1_555
H26A C26A 1_555 1_555
H27A C26A 1_555 1_555
H28A C26A 1_555 1_555
C12 C13 1_555 1_555
C18 C19 1_555 1_555
C31 C32 1_555 1_555
C11A C12A 1_555 1_555
C7A C8A 1_555 1_555
C6A C5A 1_555 1_555
C18A C17A 1_555 1_555
C31A C30A 1_555 1_555

#END
