
#######################################################################
#
#                 Cambridge Crystallographic Data Centre
#                                CCDC 
#
#######################################################################
#
# If this CIF has been generated from an entry in the Cambridge 
# Structural Database, then it will include bibliographic, chemical, 
# crystal, experimental, refinement or atomic coordinate data resulting 
# from the CCDC's data processing and validation procedures.
#
#######################################################################

data_LILBOX
_chemical_formula_moiety         'C22 H38 O5'
_chemical_name_systematic        
9\a,13S:15S,16-Diepoxy-7R-hydroxyethoxy-labdan-15-ol
_symmetry_cell_setting           orthorhombic
_symmetry_space_group_name_H-M   'P 21 21 21'
_symmetry_Int_Tables_number      19
_space_group_name_Hall           'P 2ac 2ab'
loop_
_symmetry_equiv_pos_site_id
_symmetry_equiv_pos_as_xyz
1 x,y,z
2 1/2-x,-y,1/2+z
3 1/2+x,1/2-y,-z
4 -x,1/2+y,1/2-z
_cell_length_a                   10.370
_cell_length_b                   11.785
_cell_length_c                   17.454
_cell_angle_alpha                90
_cell_angle_beta                 90
_cell_angle_gamma                90
_cell_volume                     2133.06
_exptl_crystal_colour            colorless
_cell_formula_units_Z            4
loop_
_atom_site_label
_atom_site_type_symbol
_atom_site_fract_x
_atom_site_fract_y
_atom_site_fract_z
O1 O -0.1465(5) -0.0241(4) 0.4048(3)
O2 O -0.2292(4) 0.1999(3) 0.3462(2)
O3 O -0.0058(4) 0.3208(4) 0.3021(2)
O4 O 0.2397(5) 0.2037(6) 0.3510(4)
O5 O 0.0034(4) 0.1243(4) 0.4027(3)
C1 C -0.4283(6) 0.1865(6) 0.2277(4)
C2 C -0.4581(9) 0.1638(8) 0.1456(4)
C3 C -0.3323(9) 0.1467(7) 0.1005(4)
C4 C -0.2418(7) 0.2469(6) 0.1056(4)
C5 C -0.2221(6) 0.2837(4) 0.1897(3)
C6 C -0.1399(7) 0.3899(5) 0.1997(3)
C7 C -0.0981(6) 0.4060(5) 0.2816(4)
C8 C -0.2108(7) 0.4044(5) 0.3390(4)
C9 C -0.3009(6) 0.3020(5) 0.3270(4)
C10 C -0.3461(5) 0.2934(5) 0.2406(4)
C11 C -0.4146(7) 0.3000(7) 0.3826(4)
C12 C -0.4187(7) 0.1826(7) 0.4191(4)
C13 C -0.2852(6) 0.1355(5) 0.4068(3)
C14 C -0.1948(7) 0.1363(6) 0.4752(3)
C15 C -0.0850(7) 0.0649(6) 0.4458(3)
C16 C -0.2745(7) 0.0101(5) 0.3855(4)
C17 C -0.1574(9) 0.4213(7) 0.4207(4)
C18 C -0.1074(9) 0.2090(9) 0.0750(3)
C19 C -0.2912(10) 0.3440(7) 0.0545(5)
C20 C -0.4277(7) 0.3991(6) 0.2200(4)
C21 C 0.1205(7) 0.3444(7) 0.2763(6)
C22 C 0.2046(8) 0.2404(11) 0.2798(6)
H1 H 0.1829 0.1878 0.3957
H2 H -0.0427 0.1856 0.3781
H3 H -0.5074 0.1962 0.2555
H4 H -0.3845 0.1220 0.2488
H5 H -0.5103 0.0968 0.1417
H6 H -0.5054 0.2262 0.1242
H7 H -0.2889 0.0815 0.1209
H8 H -0.3520 0.1312 0.0478
H9 H -0.1720 0.2242 0.2125
H10 H -0.0650 0.3840 0.1676
H11 H -0.1889 0.4543 0.1827
H12 H -0.0557 0.4782 0.2849
H13 H -0.2623 0.4701 0.3280
H14 H -0.4048 0.3572 0.4213
H15 H -0.4929 0.3144 0.3549
H16 H -0.4401 0.1871 0.4726
H17 H -0.4806 0.1350 0.3939
H18 H -0.1678 0.2122 0.4870
H19 H -0.2332 0.1027 0.5197
H20 H -0.0399 0.0332 0.4888
H21 H -0.2888 0.0010 0.3315
H22 H -0.3367 -0.0348 0.4127
H23 H -0.2268 0.4238 0.4571
H24 H -0.1010 0.3593 0.4329
H25 H -0.1085 0.4903 0.4237
H26 H -0.0490 0.2721 0.0743
H27 H -0.0741 0.1508 0.1080
H28 H -0.1148 0.1780 0.0243
H29 H -0.3759 0.3672 0.0702
H30 H -0.2332 0.4073 0.0578
H31 H -0.2936 0.3192 0.0021
H32 H -0.4563 0.3916 0.1679
H33 H -0.5006 0.4046 0.2536
H34 H -0.3769 0.4667 0.2255
H35 H 0.1154 0.3712 0.2245
H36 H 0.1584 0.4029 0.3072
H37 H 0.2813 0.2523 0.2502
H38 H 0.1578 0.1790 0.2568
loop_
_geom_bond_atom_site_label_1
_geom_bond_atom_site_label_2
_geom_bond_site_symmetry_1
_geom_bond_site_symmetry_2
O1 C15 1_555 1_555
O2 C9 1_555 1_555
O3 C7 1_555 1_555
O4 C22 1_555 1_555
O5 C15 1_555 1_555
C1 C2 1_555 1_555
C2 C3 1_555 1_555
C3 C4 1_555 1_555
C4 C5 1_555 1_555
C5 C6 1_555 1_555
C6 C7 1_555 1_555
C7 C8 1_555 1_555
C8 C9 1_555 1_555
C9 C10 1_555 1_555
C10 C1 1_555 1_555
C11 C9 1_555 1_555
C12 C11 1_555 1_555
C13 O2 1_555 1_555
C14 C13 1_555 1_555
C15 C14 1_555 1_555
C16 O1 1_555 1_555
C17 C8 1_555 1_555
C18 C4 1_555 1_555
C19 C4 1_555 1_555
C20 C10 1_555 1_555
C21 O3 1_555 1_555
C22 C21 1_555 1_555
H1 O4 1_555 1_555
H2 O5 1_555 1_555
H3 C1 1_555 1_555
H4 C1 1_555 1_555
H5 C2 1_555 1_555
H6 C2 1_555 1_555
H7 C3 1_555 1_555
H8 C3 1_555 1_555
H9 C5 1_555 1_555
H10 C6 1_555 1_555
H11 C6 1_555 1_555
H12 C7 1_555 1_555
H13 C8 1_555 1_555
H14 C11 1_555 1_555
H15 C11 1_555 1_555
H16 C12 1_555 1_555
H17 C12 1_555 1_555
H18 C14 1_555 1_555
H19 C14 1_555 1_555
H20 C15 1_555 1_555
H21 C16 1_555 1_555
H22 C16 1_555 1_555
H23 C17 1_555 1_555
H24 C17 1_555 1_555
H25 C17 1_555 1_555
H26 C18 1_555 1_555
H27 C18 1_555 1_555
H28 C18 1_555 1_555
H29 C19 1_555 1_555
H30 C19 1_555 1_555
H31 C19 1_555 1_555
H32 C20 1_555 1_555
H33 C20 1_555 1_555
H34 C20 1_555 1_555
H35 C21 1_555 1_555
H36 C21 1_555 1_555
H37 C22 1_555 1_555
H38 C22 1_555 1_555
C5 C10 1_555 1_555
C12 C13 1_555 1_555
C13 C16 1_555 1_555

#END
