
#######################################################################
#
#                 Cambridge Crystallographic Data Centre
#                                CCDC 
#
#######################################################################
#
# If this CIF has been generated from an entry in the Cambridge 
# Structural Database, then it will include bibliographic, chemical, 
# crystal, experimental, refinement or atomic coordinate data resulting 
# from the CCDC's data processing and validation procedures.
#
#######################################################################

data_LILCIV
_chemical_formula_moiety         'C76 H68 N4 O8'
_chemical_name_systematic        
21,22,46,47-tetrabutoxy-2,16,27,41-tetraoxa-51,54,60,63-tetraazatridecacyclo[40.8.4.4^17,26^.2^3,6^.2^12,15^.2^28,31^.2^37,40^.1^7,11^.1^32,36^.0^20,62^.0^23,61^.0^45,53^.0^48,52^]octahexaconta-1(50),3,5,7(66),8,10,12,14,17,19,21,23,25,28,30,32(57),33,35,37,39,42,44,46,48,51,53,55,58,60,62,64,67-dotriacontaene
_symmetry_cell_setting           monoclinic
_symmetry_space_group_name_H-M   'P 21/c'
_symmetry_Int_Tables_number      14
_space_group_name_Hall           '-P 2ybc'
loop_
_symmetry_equiv_pos_site_id
_symmetry_equiv_pos_as_xyz
1 x,y,z
2 -x,1/2+y,1/2-z
3 -x,-y,-z
4 x,1/2-y,1/2+z
_cell_length_a                   15.285(4)
_cell_length_b                   16.060(4)
_cell_length_c                   24.814(6)
_cell_angle_alpha                90
_cell_angle_beta                 91.153(4)
_cell_angle_gamma                90
_cell_volume                     6090.04
_exptl_crystal_colour            colorless
_exptl_crystal_description       plate
_cell_formula_units_Z            4
loop_
_atom_site_label
_atom_site_type_symbol
_atom_site_fract_x
_atom_site_fract_y
_atom_site_fract_z
O1 O 0.01801(18) 0.74908(17) 0.56290(12)
O2 O 0.19603(19) 0.38498(17) 0.65184(13)
O3 O 0.73504(18) 0.49706(18) 0.69718(12)
O4 O 0.77748(18) 0.64605(18) 0.95407(12)
O5 O -0.25208(18) 0.45863(19) 0.51693(12)
O6 O -0.16542(19) 0.30633(18) 0.53521(12)
O7 O 1.09084(18) 0.36890(17) 0.79801(12)
O8 O 1.12047(19) 0.45048(19) 0.89810(12)
N1 N 0.0110(2) 0.6048(2) 0.57247(13)
N2 N 0.0840(2) 0.4577(2) 0.60862(14)
N3 N 0.8141(2) 0.5133(2) 0.77811(13)
N4 N 0.8327(2) 0.5746(2) 0.88141(13)
C1 C -0.0262(3) 0.6748(3) 0.55857(16)
C2 C -0.1130(3) 0.6817(3) 0.53712(17)
H1 H -0.1372 0.7331 0.5281
C3 C -0.1587(3) 0.6097(3) 0.53050(18)
H2 H -0.2158 0.6116 0.5168
C4 C -0.1212(3) 0.5326(3) 0.54408(16)
C5 C -0.1667(3) 0.4549(3) 0.53557(17)
C6 C -0.1260(3) 0.3822(3) 0.54665(17)
C7 C -0.0397(3) 0.3806(2) 0.57041(17)
C8 C 0.0035(3) 0.3058(3) 0.58456(17)
H3 H -0.0219 0.2550 0.5755
C9 C 0.0823(3) 0.3074(3) 0.61145(17)
H4 H 0.1112 0.2587 0.6215
C10 C 0.1175(3) 0.3865(3) 0.62321(17)
C11 C 0.0049(3) 0.4551(3) 0.58184(16)
C12 C -0.0358(3) 0.5332(3) 0.56595(16)
C13 C 0.2250(3) 0.4529(2) 0.68278(17)
C14 C 0.3146(3) 0.4600(3) 0.68804(18)
H5 H 0.3509 0.4234 0.6700
C15 C 0.3506(3) 0.5226(3) 0.72067(18)
H6 H 0.4110 0.5285 0.7235
C16 C 0.2967(3) 0.5766(2) 0.74909(16)
C17 C 0.2064(3) 0.5666(3) 0.74309(17)
H7 H 0.1695 0.6021 0.7616
C18 C 0.1702(3) 0.5053(3) 0.71041(17)
H8 H 0.1097 0.4996 0.7071
C19 C 0.3358(3) 0.6445(3) 0.78271(16)
C20 C 0.2984(3) 0.7240(3) 0.78281(17)
H9 H 0.2465 0.7336 0.7636
C21 C 0.3378(3) 0.7885(3) 0.81112(17)
H10 H 0.3129 0.8413 0.8106
C22 C 0.4148(3) 0.7741(3) 0.84033(18)
H11 H 0.4409 0.8176 0.8595
C23 C 0.4541(3) 0.6949(2) 0.84139(16)
C24 C 0.4131(3) 0.6316(3) 0.81200(17)
H12 H 0.4382 0.5789 0.8120
C25 C 0.5371(3) 0.6807(2) 0.87197(16)
C26 C 0.5970(3) 0.7446(3) 0.87945(18)
H13 H 0.5829 0.7974 0.8665
C27 C 0.6774(3) 0.7331(3) 0.90557(18)
H14 H 0.7163 0.7772 0.9099
C28 C 0.6984(3) 0.6552(3) 0.92492(17)
C29 C 0.6403(3) 0.5899(3) 0.91881(18)
H15 H 0.6545 0.5376 0.9325
C30 C 0.5611(3) 0.6025(3) 0.89233(17)
H16 H 0.5228 0.5579 0.8879
C31 C 0.8443(3) 0.6034(2) 0.93022(17)
C32 C 0.9218(3) 0.5968(3) 0.96179(18)
H17 H 0.9265 0.6209 0.9958
C33 C 0.9889(3) 0.5539(2) 0.94047(17)
H18 H 1.0413 0.5485 0.9598
C34 C 0.9792(3) 0.5170(2) 0.88842(16)
C35 C 1.0457(3) 0.4636(3) 0.86667(18)
C36 C 1.0316(3) 0.4245(2) 0.81879(17)
C37 C 0.9539(3) 0.4409(2) 0.78704(17)
C38 C 0.9401(3) 0.4063(3) 0.73526(17)
H19 H 0.9808 0.3696 0.7211
C39 C 0.8670(3) 0.4268(3) 0.70624(18)
H20 H 0.8571 0.4056 0.6718
C40 C 0.8063(3) 0.4816(2) 0.73007(17)
C41 C 0.8885(3) 0.4945(2) 0.80690(16)
C42 C 0.9000(3) 0.5299(2) 0.86012(17)
C43 C 0.6785(3) 0.5659(2) 0.69984(17)
C44 C 0.6316(3) 0.5785(3) 0.65292(18)
H21 H 0.6401 0.5433 0.6238
C45 C 0.5720(3) 0.6425(3) 0.64823(18)
H22 H 0.5397 0.6493 0.6164
C46 C 0.5599(3) 0.6976(3) 0.69153(17)
C47 C 0.6085(3) 0.6837(3) 0.73807(17)
H23 H 0.6019 0.7199 0.7669
C48 C 0.6674(3) 0.6175(3) 0.74375(17)
H24 H 0.6980 0.6084 0.7760
C49 C 0.4957(3) 0.7677(3) 0.68770(17)
C50 C 0.4144(3) 0.7557(3) 0.66219(17)
H25 H 0.4018 0.7037 0.6475
C51 C 0.3512(3) 0.8183(2) 0.65775(16)
C52 C 0.3716(3) 0.8960(3) 0.67977(17)
H26 H 0.3309 0.9391 0.6775
C53 C 0.4520(3) 0.9094(3) 0.70501(18)
H27 H 0.4650 0.9617 0.7191
C54 C 0.5134(3) 0.8462(3) 0.70964(18)
H28 H 0.5665 0.8560 0.7274
C55 C 0.2637(3) 0.8000(2) 0.63409(17)
C56 C 0.2164(3) 0.8578(2) 0.60283(18)
H29 H 0.2391 0.9109 0.5977
C57 C 0.1366(3) 0.8369(3) 0.57946(17)
H30 H 0.1073 0.8754 0.5577
C58 C 0.0997(3) 0.7593(2) 0.58791(17)
C59 C 0.1432(3) 0.7019(3) 0.62054(17)
H31 H 0.1181 0.6505 0.6277
C60 C 0.2246(3) 0.7227(3) 0.64225(17)
H32 H 0.2544 0.6834 0.6631
C61 C -0.2625(3) 0.4367(3) 0.46034(18)
H33 H -0.2468 0.3788 0.4548
H34 H -0.2251 0.4712 0.4385
C62 C -0.3573(3) 0.4506(3) 0.44483(19)
H35 H -0.3934 0.4145 0.4664
H36 H -0.3663 0.4352 0.4073
C63 C -0.3869(3) 0.5402(3) 0.4524(2)
H37 H -0.3823 0.5544 0.4903
H38 H -0.3482 0.5768 0.4330
C64 C -0.4801(3) 0.5548(4) 0.4327(2)
H39 H -0.4834 0.5483 0.3943
H40 H -0.4979 0.6101 0.4422
H41 H -0.5182 0.5151 0.4493
C65 C -0.2214(3) 0.2782(3) 0.57807(19)
H42 H -0.2634 0.3212 0.5868
H43 H -0.1866 0.2657 0.6102
C66 C -0.2687(3) 0.2007(3) 0.55847(19)
H44 H -0.2261 0.1617 0.5447
H45 H -0.2969 0.1745 0.5888
C67 C -0.3366(3) 0.2181(3) 0.5150(2)
H46 H -0.3083 0.2424 0.4841
H47 H -0.3782 0.2584 0.5282
C68 C -0.3854(4) 0.1398(4) 0.4973(2)
H48 H -0.4240 0.1528 0.4675
H49 H -0.4188 0.1190 0.5268
H50 H -0.3441 0.0983 0.4865
C69 C 1.0935(3) 0.2906(3) 0.82779(19)
H51 H 1.0347 0.2700 0.8329
H52 H 1.1212 0.2989 0.8629
C70 C 1.1451(3) 0.2296(3) 0.7954(2)
H53 H 1.1505 0.1779 0.8155
H54 H 1.2036 0.2515 0.7907
C71 C 1.1046(3) 0.2109(3) 0.7403(2)
H55 H 1.0998 0.2626 0.7202
H56 H 1.1438 0.1746 0.7210
C72 C 1.0150(4) 0.1704(4) 0.7415(3)
H57 H 0.9977 0.1536 0.7058
H58 H 0.9732 0.2094 0.7551
H59 H 1.0174 0.1224 0.7646
C73 C 1.1988(3) 0.4848(3) 0.8753(2)
H60 H 1.1948 0.5451 0.8745
H61 H 1.2047 0.4651 0.8386
C74 C 1.2771(3) 0.4589(4) 0.9085(2)
H62 H 1.3267 0.4921 0.8976
H63 H 1.2661 0.4720 0.9459
C75 C 1.3007(4) 0.3718(5) 0.9049(3)
H64 H 1.3018 0.3556 0.8673
H65 H 1.2564 0.3386 0.9223
C76 C 1.3915(4) 0.3529(6) 0.9317(3)
H66 H 1.4355 0.3861 0.9150
H67 H 1.4052 0.2950 0.9272
H68 H 1.3899 0.3658 0.9695
loop_
_geom_bond_atom_site_label_1
_geom_bond_atom_site_label_2
_geom_bond_site_symmetry_1
_geom_bond_site_symmetry_2
O1 C1 1_555 1_555
O2 C10 1_555 1_555
O3 C40 1_555 1_555
O4 C28 1_555 1_555
O5 C5 1_555 1_555
O6 C6 1_555 1_555
O7 C36 1_555 1_555
O8 C35 1_555 1_555
N1 C1 1_555 1_555
N2 C10 1_555 1_555
N3 C40 1_555 1_555
N4 C31 1_555 1_555
C1 C2 1_555 1_555
C2 H1 1_555 1_555
C3 C2 1_555 1_555
H2 C3 1_555 1_555
C4 C3 1_555 1_555
C5 C4 1_555 1_555
C6 C5 1_555 1_555
C7 C6 1_555 1_555
C8 C7 1_555 1_555
H3 C8 1_555 1_555
C9 C8 1_555 1_555
H4 C9 1_555 1_555
C10 C9 1_555 1_555
C11 N2 1_555 1_555
C12 N1 1_555 1_555
C13 O2 1_555 1_555
C14 C13 1_555 1_555
H5 C14 1_555 1_555
C15 C14 1_555 1_555
H6 C15 1_555 1_555
C16 C15 1_555 1_555
C17 C16 1_555 1_555
H7 C17 1_555 1_555
C18 C13 1_555 1_555
H8 C18 1_555 1_555
C19 C16 1_555 1_555
C20 C19 1_555 1_555
H9 C20 1_555 1_555
C21 C20 1_555 1_555
H10 C21 1_555 1_555
C22 C21 1_555 1_555
H11 C22 1_555 1_555
C23 C22 1_555 1_555
C24 C19 1_555 1_555
H12 C24 1_555 1_555
C25 C23 1_555 1_555
C26 C25 1_555 1_555
H13 C26 1_555 1_555
C27 C26 1_555 1_555
H14 C27 1_555 1_555
C28 C27 1_555 1_555
C29 C28 1_555 1_555
H15 C29 1_555 1_555
C30 C25 1_555 1_555
H16 C30 1_555 1_555
C31 O4 1_555 1_555
C32 C31 1_555 1_555
H17 C32 1_555 1_555
C33 C32 1_555 1_555
H18 C33 1_555 1_555
C34 C33 1_555 1_555
C35 C34 1_555 1_555
C36 C35 1_555 1_555
C37 C36 1_555 1_555
C38 C37 1_555 1_555
H19 C38 1_555 1_555
C39 C38 1_555 1_555
H20 C39 1_555 1_555
C40 C39 1_555 1_555
C41 N3 1_555 1_555
C42 N4 1_555 1_555
C43 O3 1_555 1_555
C44 C43 1_555 1_555
H21 C44 1_555 1_555
C45 C44 1_555 1_555
H22 C45 1_555 1_555
C46 C45 1_555 1_555
C47 C46 1_555 1_555
H23 C47 1_555 1_555
C48 C43 1_555 1_555
H24 C48 1_555 1_555
C49 C46 1_555 1_555
C50 C49 1_555 1_555
H25 C50 1_555 1_555
C51 C50 1_555 1_555
C52 C51 1_555 1_555
H26 C52 1_555 1_555
C53 C52 1_555 1_555
H27 C53 1_555 1_555
C54 C49 1_555 1_555
H28 C54 1_555 1_555
C55 C51 1_555 1_555
C56 C55 1_555 1_555
H29 C56 1_555 1_555
C57 C56 1_555 1_555
H30 C57 1_555 1_555
C58 O1 1_555 1_555
C59 C58 1_555 1_555
H31 C59 1_555 1_555
C60 C55 1_555 1_555
H32 C60 1_555 1_555
C61 O5 1_555 1_555
H33 C61 1_555 1_555
H34 C61 1_555 1_555
C62 C61 1_555 1_555
H35 C62 1_555 1_555
H36 C62 1_555 1_555
C63 C62 1_555 1_555
H37 C63 1_555 1_555
H38 C63 1_555 1_555
C64 C63 1_555 1_555
H39 C64 1_555 1_555
H40 C64 1_555 1_555
H41 C64 1_555 1_555
C65 O6 1_555 1_555
H42 C65 1_555 1_555
H43 C65 1_555 1_555
C66 C65 1_555 1_555
H44 C66 1_555 1_555
H45 C66 1_555 1_555
C67 C66 1_555 1_555
H46 C67 1_555 1_555
H47 C67 1_555 1_555
C68 C67 1_555 1_555
H48 C68 1_555 1_555
H49 C68 1_555 1_555
H50 C68 1_555 1_555
C69 O7 1_555 1_555
H51 C69 1_555 1_555
H52 C69 1_555 1_555
C70 C69 1_555 1_555
H53 C70 1_555 1_555
H54 C70 1_555 1_555
C71 C70 1_555 1_555
H55 C71 1_555 1_555
H56 C71 1_555 1_555
C72 C71 1_555 1_555
H57 C72 1_555 1_555
H58 C72 1_555 1_555
H59 C72 1_555 1_555
C73 O8 1_555 1_555
H60 C73 1_555 1_555
H61 C73 1_555 1_555
C74 C73 1_555 1_555
H62 C74 1_555 1_555
H63 C74 1_555 1_555
C75 C74 1_555 1_555
H64 C75 1_555 1_555
H65 C75 1_555 1_555
C76 C75 1_555 1_555
H66 C76 1_555 1_555
H67 C76 1_555 1_555
H68 C76 1_555 1_555
C4 C12 1_555 1_555
C7 C11 1_555 1_555
C11 C12 1_555 1_555
C17 C18 1_555 1_555
C23 C24 1_555 1_555
C29 C30 1_555 1_555
C34 C42 1_555 1_555
C37 C41 1_555 1_555
C41 C42 1_555 1_555
C47 C48 1_555 1_555
C53 C54 1_555 1_555
C57 C58 1_555 1_555
C59 C60 1_555 1_555

#END
