
#######################################################################
#
#                 Cambridge Crystallographic Data Centre
#                                CCDC 
#
#######################################################################
#
# If this CIF has been generated from an entry in the Cambridge 
# Structural Database, then it will include bibliographic, chemical, 
# crystal, experimental, refinement or atomic coordinate data resulting 
# from the CCDC's data processing and validation procedures.
#
#######################################################################

data_LILDOC
_chemical_formula_moiety         'C5 H8 N3 O1 1+,C2 H1 O4 1-,H2 O1'
_chemical_name_systematic        
'2-amino-6-methyl-4-oxo-3,4-dihydropyrimidin-1-ium hydrogen ethanedioate monohydrate'
_symmetry_cell_setting           triclinic
_symmetry_space_group_name_H-M   'P -1'
_symmetry_Int_Tables_number      2
_space_group_name_Hall           '-P 1'
loop_
_symmetry_equiv_pos_site_id
_symmetry_equiv_pos_as_xyz
1 x,y,z
2 -x,-y,-z
_cell_length_a                   6.6189(13)
_cell_length_b                   7.2115(14)
_cell_length_c                   11.856(2)
_cell_angle_alpha                82.42(3)
_cell_angle_beta                 76.00(3)
_cell_angle_gamma                66.20(3)
_cell_volume                     502.032
_exptl_crystal_colour            colorless
_exptl_crystal_description       block
_cell_formula_units_Z            2
loop_
_atom_site_label
_atom_site_type_symbol
_atom_site_fract_x
_atom_site_fract_y
_atom_site_fract_z
O1 O 0.4770(5) 0.8040(6) 0.3077(3)
N1 N 1.0598(5) 0.8131(4) 0.3340(2)
N2 N 0.9693(6) 0.7529(5) 0.5321(3)
N3 N 0.7220(4) 0.7807(4) 0.4169(2)
C1 C 0.6580(6) 0.8101(6) 0.3109(3)
C2 C 0.8156(6) 0.8425(6) 0.2118(3)
H1 H 0.779941 0.865856 0.136869
C3 C 1.0136(5) 0.8400(5) 0.2240(3)
C4 C 1.1909(6) 0.8651(6) 0.1262(3)
H2 H 1.332151 0.745938 0.124920
H3 H 1.214759 0.986714 0.136798
H4 H 1.142719 0.879076 0.052566
C5 C 0.9192(5) 0.7822(4) 0.4298(3)
H5 H 0.880(9) 0.722(7) 0.591(4)
H6 H 1.111(8) 0.742(6) 0.540(4)
H7 H 0.620(9) 0.768(7) 0.488(4)
H8 H 1.192(8) 0.804(6) 0.340(3)
O2 O 0.2448(5) 0.3523(5) 0.0829(2)
H9 H 0.256(8) 0.433(6) 0.019(3)
H10 H 0.341(8) 0.344(8) 0.127(4)
O3 O 0.3698(5) 0.3373(5) 0.2940(2)
O4 O 0.6100(4) 0.2690(4) 0.4114(2)
O5 O 0.9084(4) 0.3438(4) 0.2402(2)
O6 O 0.6841(5) 0.4002(5) 0.1154(2)
C6 C 0.7220(6) 0.3600(5) 0.2121(3)
C7 C 0.5506(5) 0.3190(5) 0.3164(3)
H11 H 1.011(5) 0.359(6) 0.181(3)
loop_
_geom_bond_atom_site_label_1
_geom_bond_atom_site_label_2
_geom_bond_site_symmetry_1
_geom_bond_site_symmetry_2
O1 C1 1_555 1_555
N1 C3 1_555 1_555
N2 C5 1_555 1_555
N3 C1 1_555 1_555
C1 C2 1_555 1_555
C2 H1 1_555 1_555
C3 C2 1_555 1_555
C4 C3 1_555 1_555
H2 C4 1_555 1_555
H3 C4 1_555 1_555
H4 C4 1_555 1_555
C5 N1 1_555 1_555
H5 N2 1_555 1_555
H6 N2 1_555 1_555
H7 N3 1_555 1_555
H8 N1 1_555 1_555
O2 H9 1_555 1_555
H10 O2 1_555 1_555
O3 C7 1_555 1_555
O4 C7 1_555 1_555
O5 C6 1_555 1_555
O6 C6 1_555 1_555
C6 C7 1_555 1_555
H11 O5 1_555 1_555
N3 C5 1_555 1_555

#END
