
#######################################################################
#
#                 Cambridge Crystallographic Data Centre
#                                CCDC 
#
#######################################################################
#
# If this CIF has been generated from an entry in the Cambridge 
# Structural Database, then it will include bibliographic, chemical, 
# crystal, experimental, refinement or atomic coordinate data resulting 
# from the CCDC's data processing and validation procedures.
#
#######################################################################

data_LILFIW
_chemical_formula_moiety         'C16 H10 N2 S4'
_chemical_name_systematic        2,6-bis(4-Pyridyl)-1,4,5,8-tetrathiafulvalene
_symmetry_cell_setting           monoclinic
_symmetry_space_group_name_H-M   'P 21/c'
_symmetry_Int_Tables_number      14
_space_group_name_Hall           '-P 2ybc'
loop_
_symmetry_equiv_pos_site_id
_symmetry_equiv_pos_as_xyz
1 x,y,z
2 -x,1/2+y,1/2-z
3 -x,-y,-z
4 x,1/2-y,1/2+z
_cell_length_a                   3.8413(12)
_cell_length_b                   11.646(4)
_cell_length_c                   21.232(7)
_cell_angle_alpha                90
_cell_angle_beta                 98.944(7)
_cell_angle_gamma                90
_cell_volume                     938.281
_exptl_crystal_colour            red
_exptl_crystal_description       block
_cell_formula_units_Z            2
_exptl_crystal_recrystallization_method dichloromethane/hexane
loop_
_atom_site_label
_atom_site_type_symbol
_atom_site_fract_x
_atom_site_fract_y
_atom_site_fract_z
S1 S 0.2660(2) 0.59015(8) 0.08491(4)
S2 S 0.2158(2) 0.34474(8) 0.05004(4)
N1 N 0.9386(8) 0.1081(3) 0.2441(2)
C1 C 0.4598(8) 0.3813(3) 0.1250(2)
C2 C 0.4792(9) 0.4925(3) 0.1391(2)
C3 C 0.0992(8) 0.4869(3) 0.0282(2)
C4 C 0.6241(8) 0.2871(3) 0.1655(2)
C5 C 0.5890(10) 0.1736(4) 0.1465(2)
C6 C 0.7476(10) 0.0881(4) 0.1870(2)
C7 C 0.9713(10) 0.2186(4) 0.2615(2)
C8 C 0.8255(9) 0.3096(4) 0.2250(2)
H1 H 0.6076(9) 0.5176(3) 0.1786(2)
H2 H 0.4528(10) 0.1538(4) 0.1068(2)
H3 H 0.7215(10) 0.0107(4) 0.1729(2)
H4 H 1.1064(10) 0.2358(4) 0.3017(2)
H5 H 0.8559(9) 0.3862(4) 0.2403(2)
S1B S -0.2660(2) 0.40985(8) -0.08491(4)
S2B S -0.2158(2) 0.65526(8) -0.05004(4)
N1B N -0.9386(8) 0.8919(3) -0.2441(2)
C1B C -0.4598(8) 0.6187(3) -0.1250(2)
C2B C -0.4792(9) 0.5075(3) -0.1391(2)
C3B C -0.0992(8) 0.5131(3) -0.0282(2)
C4B C -0.6241(8) 0.7129(3) -0.1655(2)
C5B C -0.5890(10) 0.8264(4) -0.1465(2)
C6B C -0.7476(10) 0.9119(4) -0.1870(2)
C7B C -0.9713(10) 0.7814(4) -0.2615(2)
C8B C -0.8255(9) 0.6904(4) -0.2250(2)
H1B H -0.6076(9) 0.4824(3) -0.1786(2)
H2B H -0.4528(10) 0.8462(4) -0.1068(2)
H3B H -0.7215(10) 0.9893(4) -0.1729(2)
H4B H -1.1064(10) 0.7642(4) -0.3017(2)
H5B H -0.8559(9) 0.6138(4) -0.2403(2)
loop_
_geom_bond_atom_site_label_1
_geom_bond_atom_site_label_2
_geom_bond_site_symmetry_1
_geom_bond_site_symmetry_2
S1 C2 1_555 1_555
S2 C1 1_555 1_555
N1 C6 1_555 1_555
C1 C2 1_555 1_555
C2 H1 1_555 1_555
C3 S1 1_555 1_555
C4 C1 1_555 1_555
C5 C4 1_555 1_555
C6 C5 1_555 1_555
C7 N1 1_555 1_555
C8 C4 1_555 1_555
H2 C5 1_555 1_555
H3 C6 1_555 1_555
H4 C7 1_555 1_555
H5 C8 1_555 1_555
S1B C2B 1_555 1_555
S2B C1B 1_555 1_555
N1B C6B 1_555 1_555
C1B C2B 1_555 1_555
C2B H1B 1_555 1_555
C3B C3 1_555 1_555
C4B C1B 1_555 1_555
C5B C4B 1_555 1_555
C6B C5B 1_555 1_555
C7B N1B 1_555 1_555
C8B C4B 1_555 1_555
H2B C5B 1_555 1_555
H3B C6B 1_555 1_555
H4B C7B 1_555 1_555
H5B C8B 1_555 1_555
S2 C3 1_555 1_555
C7 C8 1_555 1_555
S1B C3B 1_555 1_555
S2B C3B 1_555 1_555
C7B C8B 1_555 1_555

#END
