
#######################################################################
#
#                 Cambridge Crystallographic Data Centre
#                                CCDC 
#
#######################################################################
#
# If this CIF has been generated from an entry in the Cambridge 
# Structural Database, then it will include bibliographic, chemical, 
# crystal, experimental, refinement or atomic coordinate data resulting 
# from the CCDC's data processing and validation procedures.
#
#######################################################################

data_LILFOE
_chemical_formula_moiety         'C5 H8 N3 O1 1+,C7 H4 N1 O3 S1 1-,C5 H7 N3 O1'
_chemical_name_systematic        
'2-amino-6-methyl-4-oxo-3,4-dihydropyrimidin-1-ium 1,1,3-trioxo-1,3-dihydro-1\l^6^,2-benzothiazol-2-ide 2-amino-6-methylpyrimidin-4(1H)-one'
_symmetry_cell_setting           triclinic
_symmetry_space_group_name_H-M   'P -1'
_symmetry_Int_Tables_number      2
_space_group_name_Hall           '-P 1'
loop_
_symmetry_equiv_pos_site_id
_symmetry_equiv_pos_as_xyz
1 x,y,z
2 -x,-y,-z
_cell_length_a                   7.9794(5)
_cell_length_b                   9.2354(6)
_cell_length_c                   13.1180(11)
_cell_angle_alpha                88.652(6)
_cell_angle_beta                 84.108(6)
_cell_angle_gamma                76.900(6)
_cell_volume                     936.573
_exptl_crystal_colour            colorless
_exptl_crystal_description       plate
_cell_formula_units_Z            2
loop_
_atom_site_label
_atom_site_type_symbol
_atom_site_fract_x
_atom_site_fract_y
_atom_site_fract_z
S1 S 0.43754(10) 0.87127(9) 0.15305(6)
O1 O 0.2706(3) 0.9583(3) 0.12889(18)
O2 O 0.4733(3) 0.7855(3) 0.42460(17)
O3 O 0.5323(3) 0.7803(3) 0.07009(18)
N1 N 0.4165(3) 0.7768(3) 0.2574(2)
C1 C 0.5618(4) 0.9607(4) 0.3037(2)
C2 C 0.5569(4) 0.9908(4) 0.1999(2)
C3 C 0.6293(4) 1.0989(4) 0.1510(3)
C4 C 0.4790(4) 0.8339(4) 0.3358(2)
C5 C 0.6364(4) 1.0442(4) 0.3640(3)
C6 C 0.7093(4) 1.1548(4) 0.3164(3)
C7 C 0.7074(4) 1.1808(4) 0.2120(3)
H1 H 0.757(5) 1.253(5) 0.179(3)
H2 H 0.638(5) 1.025(5) 0.434(3)
H3 H 0.625(5) 1.119(4) 0.074(3)
H4 H 0.762(5) 1.213(5) 0.356(3)
O4 O 0.2207(3) 0.5143(3) 0.68419(19)
N2 N 0.0982(3) 0.3251(3) 0.6464(2)
N3 N -0.0045(4) 0.1864(3) 0.7822(2)
N4 N -0.0323(4) 0.1363(4) 0.6140(2)
C8 C 0.1511(4) 0.4117(4) 0.7153(3)
C9 C 0.0495(4) 0.2660(4) 0.8549(3)
C10 C 0.0222(4) 0.2174(4) 0.6805(3)
C11 C 0.1261(4) 0.3770(4) 0.8230(3)
C12 C 0.0203(5) 0.2189(5) 0.9639(3)
H5 H -0.007(5) 0.154(5) 0.545(3)
H6 H 0.167(5) 0.425(5) 0.868(3)
H7 H -0.064(5) 0.128(5) 0.810(3)
H8 H 0.040(5) 0.291(5) 1.014(3)
H9 H -0.068(5) 0.057(5) 0.635(3)
H10 H -0.090(6) 0.206(5) 0.980(3)
H11 H 0.090(5) 0.130(5) 0.976(3)
O5 O 0.1101(3) 0.1559(3) 0.39560(19)
N5 N 0.2026(3) 0.3596(3) 0.4345(2)
N6 N 0.3184(4) 0.5006(3) 0.3093(2)
N7 N 0.2967(4) 0.5643(3) 0.4799(2)
C13 C 0.1744(4) 0.2604(4) 0.3639(3)
C14 C 0.2738(4) 0.4767(4) 0.4094(3)
C15 C 0.2945(4) 0.4082(4) 0.2332(3)
C16 C 0.2235(4) 0.2914(4) 0.2587(3)
C17 C 0.3523(5) 0.4507(5) 0.1270(3)
H12 H 0.174(5) 0.347(5) 0.502(3)
H13 H 0.215(5) 0.227(5) 0.209(3)
H14 H 0.273(5) 0.544(5) 0.546(3)
H15 H 0.347(5) 0.640(5) 0.461(3)
H16 H 0.341(5) 0.377(5) 0.080(3)
H17 H 0.468(6) 0.460(5) 0.126(3)
H18 H 0.357(5) 0.581(5) 0.293(3)
H19 H 0.282(5) 0.551(5) 0.107(3)
loop_
_geom_bond_atom_site_label_1
_geom_bond_atom_site_label_2
_geom_bond_site_symmetry_1
_geom_bond_site_symmetry_2
S1 O1 1_555 1_555
O2 C4 1_555 1_555
O3 S1 1_555 1_555
N1 S1 1_555 1_555
C1 C2 1_555 1_555
C2 S1 1_555 1_555
C3 C2 1_555 1_555
C4 N1 1_555 1_555
C5 C1 1_555 1_555
C6 C5 1_555 1_555
C7 C3 1_555 1_555
H1 C7 1_555 1_555
H2 C5 1_555 1_555
H3 C3 1_555 1_555
H4 C6 1_555 1_555
O4 C8 1_555 1_555
N2 C8 1_555 1_555
N3 C9 1_555 1_555
N4 C10 1_555 1_555
C8 C11 1_555 1_555
C9 C11 1_555 1_555
C10 N2 1_555 1_555
C11 H6 1_555 1_555
C12 C9 1_555 1_555
H5 N4 1_555 1_555
H7 N3 1_555 1_555
H8 C12 1_555 1_555
H9 N4 1_555 1_555
H10 C12 1_555 1_555
H11 C12 1_555 1_555
O5 C13 1_555 1_555
N5 C13 1_555 1_555
N6 C14 1_555 1_555
N7 C14 1_555 1_555
C13 C16 1_555 1_555
C14 N5 1_555 1_555
C15 N6 1_555 1_555
C16 C15 1_555 1_555
C17 C15 1_555 1_555
H12 N5 1_555 1_555
H13 C16 1_555 1_555
H14 N7 1_555 1_555
H15 N7 1_555 1_555
H16 C17 1_555 1_555
H17 C17 1_555 1_555
H18 N6 1_555 1_555
H19 C17 1_555 1_555
C1 C4 1_555 1_555
C6 C7 1_555 1_555
N3 C10 1_555 1_555

#END
