
#######################################################################
#
#                 Cambridge Crystallographic Data Centre
#                                CCDC 
#
#######################################################################
#
# If this CIF has been generated from an entry in the Cambridge 
# Structural Database, then it will include bibliographic, chemical, 
# crystal, experimental, refinement or atomic coordinate data resulting 
# from the CCDC's data processing and validation procedures.
#
#######################################################################

data_LILGEV01
_chemical_formula_moiety         'C5 H8 N3 O1 1+,C7 H4 N1 O3 S1 1-,H2 O1'
_chemical_name_systematic        
'2-amino-6-methyl-4-oxo-3,4-dihydropyrimidin-1-ium 1,1,3-trioxo-1,3-dihydro-1\l^6^,2-benzothiazol-2-ide monohydrate'
_symmetry_cell_setting           monoclinic
_symmetry_space_group_name_H-M   'P 21/n'
_symmetry_Int_Tables_number      14
_space_group_name_Hall           '-P 2yn'
loop_
_symmetry_equiv_pos_site_id
_symmetry_equiv_pos_as_xyz
1 x,y,z
2 1/2-x,1/2+y,1/2-z
3 -x,-y,-z
4 1/2+x,1/2-y,1/2+z
_cell_length_a                   9.1545(3)
_cell_length_b                   10.7373(3)
_cell_length_c                   28.9295(8)
_cell_angle_alpha                90
_cell_angle_beta                 91.826(2)
_cell_angle_gamma                90
_cell_volume                     2842.17
_exptl_crystal_colour            colorless
_exptl_crystal_description       block
_cell_formula_units_Z            8
loop_
_atom_site_label
_atom_site_type_symbol
_atom_site_fract_x
_atom_site_fract_y
_atom_site_fract_z
S1 S 0.67736(4) 0.84734(3) 0.65969(2)
O1 O 0.46199(11) 0.59579(9) 0.60648(3)
O2 O 0.60046(12) 0.96320(10) 0.66834(3)
O3 O 0.83149(11) 0.86173(10) 0.65279(3)
N1 N 0.59658(13) 0.77365(11) 0.61747(4)
C1 C 0.55579(14) 0.64541(13) 0.68286(5)
C2 C 0.53278(15) 0.66828(13) 0.63207(5)
C3 C 0.63991(15) 0.73849(13) 0.70331(5)
C4 C 0.68331(15) 0.73608(14) 0.74952(5)
H1 H 0.740698 0.800869 0.763166
C5 C 0.50851(15) 0.54540(14) 0.70852(5)
H2 H 0.448619 0.482228 0.694884
C6 C 0.63850(16) 0.63368(15) 0.77505(5)
H3 H 0.667824 0.627400 0.806756
C7 C 0.55192(16) 0.54059(15) 0.75516(5)
H4 H 0.521799 0.472613 0.773590
S2 S 0.00364(4) 0.45531(3) 0.34535(2)
O4 O -0.06139(11) 0.57871(9) 0.34340(3)
O5 O -0.19596(11) 0.20054(10) 0.39870(3)
O6 O 0.16055(11) 0.45546(10) 0.34587(4)
N2 N -0.05802(13) 0.37596(11) 0.38804(4)
C8 C -0.07649(15) 0.36429(13) 0.30038(5)
C9 C -0.15697(15) 0.27212(13) 0.32121(5)
C10 C -0.14007(15) 0.27883(13) 0.37287(5)
C11 C -0.07325(16) 0.37938(14) 0.25291(5)
H5 H -0.015888 0.442279 0.239198
C12 C -0.24089(16) 0.19034(14) 0.29460(5)
H6 H -0.296091 0.126356 0.308521
C13 C -0.24179(17) 0.20488(15) 0.24672(5)
H7 H -0.299967 0.150933 0.227729
C14 C -0.15881(17) 0.29718(15) 0.22629(5)
H8 H -0.160464 0.304367 0.193546
O7 O 0.26993(12) 0.34775(10) 0.59668(4)
H9 H 0.219(2) 0.378(2) 0.6186(8)
H10 H 0.295(3) 0.412(2) 0.5812(9)
O8 O 0.58933(12) 0.96007(10) 0.40366(4)
H11 H 0.537(2) 0.994(2) 0.3807(8)
H12 H 0.637(3) 1.017(2) 0.4189(8)
O9 O 0.28633(11) 0.48466(10) 0.51594(3)
N3 N 0.42451(13) 0.65719(11) 0.51749(4)
N4 N 0.46686(13) 0.77100(11) 0.45133(4)
N5 N 0.58370(14) 0.82285(12) 0.52099(4)
C15 C 0.49310(15) 0.75226(13) 0.49686(5)
C16 C 0.33600(15) 0.57304(13) 0.49400(5)
C17 C 0.37774(15) 0.69269(13) 0.42521(5)
C18 C 0.31124(15) 0.59598(14) 0.44556(5)
H13 H 0.248018 0.543075 0.427806
C19 C 0.36570(17) 0.72174(15) 0.37491(5)
H14 H 0.335449 0.808657 0.370676
H15 H 0.292997 0.666756 0.359951
H16 H 0.460736 0.708938 0.360981
H17 H 0.5949(19) 0.8096(17) 0.5524(7)
H18 H 0.622(2) 0.8850(19) 0.5089(7)
H19 H 0.510(2) 0.8349(18) 0.4375(6)
H20 H 0.439(2) 0.6410(19) 0.5484(7)
O10 O -0.26461(11) 0.02402(10) 0.48702(4)
N6 N 0.05492(13) 0.22388(11) 0.54816(4)
N7 N -0.10312(13) 0.18101(11) 0.48591(4)
N8 N 0.06189(14) 0.34141(12) 0.48094(5)
C20 C 0.00603(15) 0.25040(13) 0.50472(5)
C21 C -0.00393(15) 0.12761(13) 0.57324(5)
C22 C -0.16701(15) 0.08206(13) 0.50829(5)
C23 C -0.11288(15) 0.05732(13) 0.55438(5)
H21 H -0.153581 -0.008556 0.571715
C24 C 0.06017(16) 0.10964(14) 0.62075(5)
H22 H 0.165870 0.096848 0.619089
H23 H 0.015611 0.036630 0.634953
H24 H 0.041211 0.183622 0.639473
H25 H 0.027(2) 0.3536(17) 0.4505(7)
H26 H 0.133(2) 0.3860(18) 0.4923(6)
H27 H 0.132(2) 0.2696(19) 0.5611(7)
H28 H -0.135(2) 0.1947(19) 0.4555(7)
loop_
_geom_bond_atom_site_label_1
_geom_bond_atom_site_label_2
_geom_bond_site_symmetry_1
_geom_bond_site_symmetry_2
S1 O2 1_555 1_555
O1 C2 1_555 1_555
O3 S1 1_555 1_555
N1 S1 1_555 1_555
C1 C2 1_555 1_555
C2 N1 1_555 1_555
C3 S1 1_555 1_555
C4 C3 1_555 1_555
H1 C4 1_555 1_555
C5 C1 1_555 1_555
H2 C5 1_555 1_555
C6 C4 1_555 1_555
H3 C6 1_555 1_555
C7 C5 1_555 1_555
H4 C7 1_555 1_555
S2 O4 1_555 1_555
O5 C10 1_555 1_555
O6 S2 1_555 1_555
N2 S2 1_555 1_555
C8 S2 1_555 1_555
C9 C8 1_555 1_555
C10 N2 1_555 1_555
C11 C8 1_555 1_555
H5 C11 1_555 1_555
C12 C9 1_555 1_555
H6 C12 1_555 1_555
C13 C12 1_555 1_555
H7 C13 1_555 1_555
C14 C11 1_555 1_555
H8 C14 1_555 1_555
O7 H9 1_555 1_555
H10 O7 1_555 1_555
O8 H11 1_555 1_555
H12 O8 1_555 1_555
O9 C16 1_555 1_555
N3 C15 1_555 1_555
N4 C15 1_555 1_555
N5 C15 1_555 1_555
C16 N3 1_555 1_555
C17 N4 1_555 1_555
C18 C16 1_555 1_555
H13 C18 1_555 1_555
C19 C17 1_555 1_555
H14 C19 1_555 1_555
H15 C19 1_555 1_555
H16 C19 1_555 1_555
H17 N5 1_555 1_555
H18 N5 1_555 1_555
H19 N4 1_555 1_555
H20 N3 1_555 1_555
O10 C22 1_555 1_555
N6 C20 1_555 1_555
N7 C20 1_555 1_555
N8 C20 1_555 1_555
C21 N6 1_555 1_555
C22 N7 1_555 1_555
C23 C21 1_555 1_555
H21 C23 1_555 1_555
C24 C21 1_555 1_555
H22 C24 1_555 1_555
H23 C24 1_555 1_555
H24 C24 1_555 1_555
H25 N8 1_555 1_555
H26 N8 1_555 1_555
H27 N6 1_555 1_555
H28 N7 1_555 1_555
C1 C3 1_555 1_555
C6 C7 1_555 1_555
C9 C10 1_555 1_555
C13 C14 1_555 1_555
C17 C18 1_555 1_555
C22 C23 1_555 1_555

#END
