
#######################################################################
#
#                 Cambridge Crystallographic Data Centre
#                                CCDC 
#
#######################################################################
#
# If this CIF has been generated from an entry in the Cambridge 
# Structural Database, then it will include bibliographic, chemical, 
# crystal, experimental, refinement or atomic coordinate data resulting 
# from the CCDC's data processing and validation procedures.
#
#######################################################################

data_LILLUQ
_chemical_name_common            '(+-)-Dimericbiscognienyne A'
_chemical_formula_moiety         'C32 H40 O6'
_chemical_name_systematic        
5-methyl-8a,9b-bis(3-methylbut-2-en-1-yl)-8c-(3-methylbut-3-en-1-yn-1-yl)-1a,2,3b,6a,7,7a,8a,8c,9a,9b-decahydrobenzo[kl]bisoxireno[c,h]xanthene-2,7,8b(6H)-triol
_symmetry_cell_setting           monoclinic
_symmetry_space_group_name_H-M   'P 21/c'
_symmetry_Int_Tables_number      14
_space_group_name_Hall           '-P 2ybc'
loop_
_symmetry_equiv_pos_site_id
_symmetry_equiv_pos_as_xyz
1 x,y,z
2 -x,1/2+y,1/2-z
3 -x,-y,-z
4 x,1/2-y,1/2+z
_cell_length_a                   12.5757(4)
_cell_length_b                   18.7320(6)
_cell_length_c                   12.1019(4)
_cell_angle_alpha                90
_cell_angle_beta                 93.1695(12)
_cell_angle_gamma                90
_cell_volume                     2846.46
_exptl_crystal_colour            colorless
_exptl_crystal_description       block
_cell_formula_units_Z            4
_exptl_crystal_recrystallization_method 
'Re-crystallisation from solvent: Methanol'
loop_
_atom_site_label
_atom_site_type_symbol
_atom_site_fract_x
_atom_site_fract_y
_atom_site_fract_z
O1 O 0.34491(8) 0.64094(5) 0.76318(8)
O2 O 0.38893(10) 0.59337(6) 0.93110(8)
H1 H 0.4485(16) 0.6119(11) 0.9483(16)
O3 O 0.35333(9) 0.76944(5) 0.63046(9)
O4 O 0.40905(12) 0.70393(7) 0.35053(10)
H2 H 0.3977(19) 0.7402(14) 0.314(2)
O5 O 0.47302(10) 0.36502(6) 0.86809(10)
H3 H 0.5193(18) 0.3391(12) 0.8416(18)
O6 O 0.29060(9) 0.47977(5) 0.70430(9)
C1 C 0.38339(12) 0.57719(7) 0.81829(11)
C2 C 0.49414(12) 0.55722(7) 0.77673(11)
C3 C 0.49198(12) 0.55353(8) 0.64807(11)
H4 H 0.4392(14) 0.5171(10) 0.6269(15)
C4 C 0.44451(12) 0.62118(7) 0.59841(11)
C5 C 0.33755(12) 0.63746(7) 0.64305(11)
H5 H 0.2867(14) 0.5987(10) 0.6214(14)
C6 C 0.28759(13) 0.70714(8) 0.60567(12)
C7 C 0.33569(14) 0.74713(8) 0.51647(13)
H6 H 0.2899(15) 0.7800(11) 0.4721(16)
C8 C 0.43401(14) 0.72245(8) 0.46338(12)
H7 H 0.4870(16) 0.7616(11) 0.4661(16)
C9 C 0.48633(13) 0.65912(8) 0.51895(12)
H8 H 0.5571(16) 0.6459(10) 0.4903(16)
C10 C 0.59810(13) 0.52902(8) 0.61131(13)
H9 H 0.6159(15) 0.5415(10) 0.5355(16)
C11 C 0.66476(13) 0.48872(8) 0.67316(13)
C12 C 0.64461(13) 0.46779(9) 0.79037(14)
H10 H 0.6575(15) 0.4163(11) 0.7982(16)
H11 H 0.6966(16) 0.4923(11) 0.8400(17)
C13 C 0.53218(13) 0.48449(8) 0.82548(12)
H12 H 0.5334(14) 0.4881(10) 0.9068(16)
C14 C 0.45467(13) 0.42379(8) 0.79351(13)
H13 H 0.4642(15) 0.4085(10) 0.7161(16)
C15 C 0.33887(13) 0.44357(8) 0.80047(13)
H14 H 0.2948(15) 0.4062(11) 0.8293(16)
C16 C 0.30057(12) 0.51744(8) 0.80906(13)
C17 C 0.56905(12) 0.61408(8) 0.81495(12)
C18 C 0.62699(13) 0.66073(8) 0.84874(12)
C19 C 0.69674(14) 0.71874(9) 0.88199(14)
C20 C 0.7348(2) 0.76299(15) 0.7915(2)
H15 H 0.771514 0.805165 0.822582
H16 H 0.673941 0.778093 0.742936
H17 H 0.784088 0.735114 0.748742
C21 C 0.72102(19) 0.73239(12) 0.98855(17)
H18 H 0.7706(18) 0.7733(13) 1.0098(18)
H19 H 0.6915(18) 0.7066(13) 1.0451(19)
C22 C 0.17185(15) 0.71821(10) 0.62892(16)
H20 H 0.1632(15) 0.7105(11) 0.7072(17)
H21 H 0.1573(16) 0.7679(11) 0.6138(16)
C23 C 0.0976(3) 0.67650(19) 0.5455(4)
H22 H 0.119(2) 0.6795(16) 0.473(3)
C24 C 0.0111(3) 0.63951(17) 0.5650(3)
C25 C -0.0460(8) 0.6029(6) 0.4748(8)
H23 H -0.019897 0.619149 0.404307
H24 H -0.122215 0.613275 0.476748
H25 H -0.034504 0.551293 0.482371
C26 C -0.0323(3) 0.6306(3) 0.6763(3)
H26 H -0.022006 0.581196 0.701087
H27 H -0.108500 0.641963 0.671905
H28 H 0.005024 0.662927 0.729024
C27 C 0.76679(15) 0.46068(10) 0.63092(17)
H29 H 0.776208 0.479752 0.556687
H30 H 0.764002 0.408438 0.627693
H31 H 0.826738 0.475571 0.680819
C28 C 0.19600(15) 0.53414(10) 0.86008(18)
H32 H 0.1695(18) 0.5772(13) 0.8289(19)
H33 H 0.2102(17) 0.5459(12) 0.941(2)
C29 C 0.11415(15) 0.47666(10) 0.84126(19)
H34 H 0.0857(17) 0.4696(12) 0.7652(19)
C30 C 0.08036(15) 0.43223(10) 0.91705(18)
C31 C 0.11869(19) 0.43250(13) 1.0359(2)
H35 H 0.187363 0.457217 1.043941
H36 H 0.127164 0.383231 1.062183
H37 H 0.066730 0.457219 1.079684
C32 C -0.00343(19) 0.37705(13) 0.8878(2)
H38 H -0.024731 0.380551 0.808890
H39 H -0.065532 0.385297 0.931609
H40 H 0.025403 0.329335 0.903946
C33? C 0.0987(6) 0.6637(4) 0.5993(8)
H41? H 0.095(5) 0.623(4) 0.651(5)
C34? C 0.0387(6) 0.6625(4) 0.5053(7)
C35? C -0.0490(14) 0.6008(7) 0.4720(8)
H42? H -0.051045 0.566008 0.532243
H43? H -0.029147 0.576713 0.404288
H44? H -0.119354 0.622779 0.459458
C36? C 0.0434(6) 0.7196(4) 0.4183(6)
H45? H 0.093099 0.757098 0.444255
H46? H -0.027650 0.740269 0.403969
H47? H 0.067780 0.698732 0.349875
loop_
_geom_bond_atom_site_label_1
_geom_bond_atom_site_label_2
_geom_bond_site_symmetry_1
_geom_bond_site_symmetry_2
O1 C1 1_555 1_555
O2 H1 1_555 1_555
O3 C6 1_555 1_555
O4 H2 1_555 1_555
O5 H3 1_555 1_555
O6 C15 1_555 1_555
C1 O2 1_555 1_555
C2 C1 1_555 1_555
C3 C2 1_555 1_555
H4 C3 1_555 1_555
C4 C3 1_555 1_555
C5 O1 1_555 1_555
H5 C5 1_555 1_555
C6 C5 1_555 1_555
C7 O3 1_555 1_555
H6 C7 1_555 1_555
C8 O4 1_555 1_555
H7 C8 1_555 1_555
C9 C4 1_555 1_555
H8 C9 1_555 1_555
C10 C3 1_555 1_555
H9 C10 1_555 1_555
C11 C10 1_555 1_555
C12 C11 1_555 1_555
H10 C12 1_555 1_555
H11 C12 1_555 1_555
C13 C2 1_555 1_555
H12 C13 1_555 1_555
C14 O5 1_555 1_555
H13 C14 1_555 1_555
C15 C14 1_555 1_555
H14 C15 1_555 1_555
C16 O6 1_555 1_555
C17 C2 1_555 1_555
C18 C17 1_555 1_555
C19 C18 1_555 1_555
C20 C19 1_555 1_555
H15 C20 1_555 1_555
H16 C20 1_555 1_555
H17 C20 1_555 1_555
C21 C19 1_555 1_555
H18 C21 1_555 1_555
H19 C21 1_555 1_555
C22 C6 1_555 1_555
H20 C22 1_555 1_555
H21 C22 1_555 1_555
C23 C22 1_555 1_555
H22 C23 1_555 1_555
C24 C23 1_555 1_555
C25 C24 1_555 1_555
H23 C25 1_555 1_555
H24 C25 1_555 1_555
H25 C25 1_555 1_555
C26 C24 1_555 1_555
H26 C26 1_555 1_555
H27 C26 1_555 1_555
H28 C26 1_555 1_555
C27 C11 1_555 1_555
H29 C27 1_555 1_555
H30 C27 1_555 1_555
H31 C27 1_555 1_555
C28 C16 1_555 1_555
H32 C28 1_555 1_555
H33 C28 1_555 1_555
C29 C28 1_555 1_555
H34 C29 1_555 1_555
C30 C29 1_555 1_555
C31 C30 1_555 1_555
H35 C31 1_555 1_555
H36 C31 1_555 1_555
H37 C31 1_555 1_555
C32 C30 1_555 1_555
H38 C32 1_555 1_555
H39 C32 1_555 1_555
H40 C32 1_555 1_555
C1 C16 1_555 1_555
C4 C5 1_555 1_555
C6 C7 1_555 1_555
C7 C8 1_555 1_555
C8 C9 1_555 1_555
C12 C13 1_555 1_555
C13 C14 1_555 1_555
C15 C16 1_555 1_555

#END
