
#######################################################################
#
#                 Cambridge Crystallographic Data Centre
#                                CCDC 
#
#######################################################################
#
# If this CIF has been generated from an entry in the Cambridge 
# Structural Database, then it will include bibliographic, chemical, 
# crystal, experimental, refinement or atomic coordinate data resulting 
# from the CCDC's data processing and validation procedures.
#
#######################################################################

data_LILNAY
_chemical_formula_moiety         'C20 H29 B1 O4'
_chemical_name_systematic        
'ethyl 3-phenyl-5-(4,4,5,5-tetramethyl-1,3,2-dioxaborolan-2-yl)hex-4-enoate'
_symmetry_cell_setting           orthorhombic
_symmetry_space_group_name_H-M   'P 21 21 21'
_symmetry_Int_Tables_number      19
_space_group_name_Hall           'P 2ac 2ab'
loop_
_symmetry_equiv_pos_site_id
_symmetry_equiv_pos_as_xyz
1 x,y,z
2 1/2-x,-y,1/2+z
3 -x,1/2+y,1/2-z
4 1/2+x,1/2-y,-z
_cell_length_a                   7.9026(5)
_cell_length_b                   9.1716(5)
_cell_length_c                   28.4235(17)
_cell_angle_alpha                90
_cell_angle_beta                 90
_cell_angle_gamma                90
_cell_volume                     2060.12
_exptl_crystal_colour            colorless
_exptl_crystal_description       prismatic
_cell_formula_units_Z            4
_exptl_crystal_recrystallization_method 
'Re-crystallisation from solvent: ethyl acetate/Petroleum ether'
loop_
_atom_site_label
_atom_site_type_symbol
_atom_site_fract_x
_atom_site_fract_y
_atom_site_fract_z
O1 O 0.6552(3) 0.7740(3) 0.30308(8)
O2 O 0.4741(3) 0.9198(2) 0.33926(8)
B1 B 0.4303(3) 0.5078(3) 0.52698(8)
C1 C 0.4050(4) 0.7862(2) 0.50403(9)
H1 H 0.4377 0.8484 0.4784
H2 H 0.4795 0.8019 0.5302
H3 H 0.2909 0.8083 0.5132
C2 C 0.4158(3) 0.6297(2) 0.48872(7)
C3 C 0.4144(3) 0.5889(2) 0.44404(7)
H4 H 0.4237 0.4893 0.4384
C4 C 0.3996(3) 0.6851(2) 0.40120(7)
H5 H 0.3439 0.7758 0.4107
C5 C 0.2916(3) 0.6138(2) 0.36368(7)
C6 C 0.3485(3) 0.4937(3) 0.33868(8)
H6 H 0.4546 0.4554 0.3456
C7 C 0.2527(5) 0.4293(4) 0.30391(10)
H7 H 0.2948 0.3494 0.2875
C8 C 0.0974(5) 0.4824(5) 0.29357(12)
H8 H 0.0326 0.4390 0.2701
C9 C 0.0362(4) 0.5992(4) 0.31748(13)
H9 H -0.0704 0.6356 0.3101
C10 C 0.1313(4) 0.6655(3) 0.35308(10)
H10 H 0.0870 0.7442 0.3696
C11 C 0.5769(4) 0.7237(3) 0.38295(9)
H11 H 0.6345 0.7821 0.4065
H12 H 0.6410 0.6345 0.3788
C12 C 0.5751(4) 0.8060(3) 0.33716(10)
C13 C 0.4584(6) 1.0055(5) 0.29665(15)
H13 H 0.5677 1.0127 0.2813
H14 H 0.4210 1.1033 0.3045
C14 C 0.3351(6) 0.9368(9) 0.26432(18)
H15 H 0.3746 0.8415 0.2556
H16 H 0.3232 0.9957 0.2366
H17 H 0.2275 0.9284 0.2798
O3 O 0.4665(7) 0.5373(6) 0.5725(2)
O4 O 0.4951(6) 0.3712(5) 0.51739(15)
C15 C 0.4977(10) 0.3960(6) 0.59484(18)
C16 C 0.3969(10) 0.2932(6) 0.56390(19)
C17 C 0.5032(16) 0.142(2) 0.5560(7)
H18 H 0.6084 0.1641 0.5406
H19 H 0.4383 0.0770 0.5367
H20 H 0.5252 0.0977 0.5859
C18 C 0.6946(16) 0.3706(11) 0.5910(4)
H21 H 0.7244 0.3530 0.5588
H22 H 0.7260 0.2879 0.6098
H23 H 0.7531 0.4556 0.6021
C19 C 0.4197(17) 0.401(3) 0.6447(8)
H24 H 0.4836 0.4670 0.6640
H25 H 0.4223 0.3054 0.6583
H26 H 0.3046 0.4341 0.6427
C20 C 0.209(2) 0.2856(14) 0.5783(4)
H27 H 0.1977 0.2304 0.6068
H28 H 0.1447 0.2392 0.5538
H29 H 0.1661 0.3825 0.5832
O5? O 0.3839(6) 0.5252(6) 0.5724(2)
O6? O 0.3998(7) 0.3664(5) 0.51855(16)
C21? C 0.3878(9) 0.3822(6) 0.59418(18)
C22? C 0.5185(8) 0.2990(5) 0.56281(16)
C23? C 0.4435(17) 0.137(2) 0.5578(7)
H30? H 0.5135 0.0812 0.5368
H31? H 0.3305 0.1415 0.5455
H32? H 0.4416 0.0907 0.5881
C24? C 0.6982(16) 0.3200(10) 0.5759(3)
H33? H 0.7215 0.4223 0.5789
H34? H 0.7695 0.2789 0.5520
H35? H 0.7201 0.2724 0.6054
C25? C 0.4737(18) 0.405(2) 0.6461(7)
H36? H 0.5735 0.4636 0.6432
H37? H 0.5034 0.3114 0.6590
H38? H 0.3944 0.4523 0.6666
C26? C 0.2114(19) 0.3247(13) 0.5927(4)
H39? H 0.1367 0.3922 0.6080
H40? H 0.2069 0.2323 0.6085
H41? H 0.1770 0.3124 0.5605
loop_
_geom_bond_atom_site_label_1
_geom_bond_atom_site_label_2
_geom_bond_site_symmetry_1
_geom_bond_site_symmetry_2
O1 C12 1_555 1_555
O2 C12 1_555 1_555
B1 C2 1_555 1_555
C1 H1 1_555 1_555
H2 C1 1_555 1_555
H3 C1 1_555 1_555
C2 C1 1_555 1_555
C3 C2 1_555 1_555
H4 C3 1_555 1_555
C4 C3 1_555 1_555
H5 C4 1_555 1_555
C5 C4 1_555 1_555
C6 C5 1_555 1_555
H6 C6 1_555 1_555
C7 C6 1_555 1_555
H7 C7 1_555 1_555
C8 C7 1_555 1_555
H8 C8 1_555 1_555
C9 C8 1_555 1_555
H9 C9 1_555 1_555
C10 C5 1_555 1_555
H10 C10 1_555 1_555
C11 C4 1_555 1_555
H11 C11 1_555 1_555
H12 C11 1_555 1_555
C12 C11 1_555 1_555
C13 O2 1_555 1_555
H13 C13 1_555 1_555
H14 C13 1_555 1_555
C14 C13 1_555 1_555
H15 C14 1_555 1_555
H16 C14 1_555 1_555
H17 C14 1_555 1_555
O3 B1 1_555 1_555
O4 B1 1_555 1_555
C15 O3 1_555 1_555
C16 O4 1_555 1_555
C17 C16 1_555 1_555
H18 C17 1_555 1_555
H19 C17 1_555 1_555
H20 C17 1_555 1_555
C18 C15 1_555 1_555
H21 C18 1_555 1_555
H22 C18 1_555 1_555
H23 C18 1_555 1_555
C19 C15 1_555 1_555
H24 C19 1_555 1_555
H25 C19 1_555 1_555
H26 C19 1_555 1_555
C20 C16 1_555 1_555
H27 C20 1_555 1_555
H28 C20 1_555 1_555
H29 C20 1_555 1_555
C9 C10 1_555 1_555
C15 C16 1_555 1_555

#END
