
#######################################################################
#
#                 Cambridge Crystallographic Data Centre
#                                CCDC 
#
#######################################################################
#
# If this CIF has been generated from an entry in the Cambridge 
# Structural Database, then it will include bibliographic, chemical, 
# crystal, experimental, refinement or atomic coordinate data resulting 
# from the CCDC's data processing and validation procedures.
#
#######################################################################

data_LILWAF
_chemical_formula_moiety         'C24 H22 N4'
_chemical_name_systematic        
N-(1-(6-(Quinoxalin-2-yl)pyridin-2-yl)ethylidene)-2,4,6-trimethylaniline
_symmetry_cell_setting           triclinic
_symmetry_space_group_name_H-M   'P -1'
_symmetry_Int_Tables_number      2
_space_group_name_Hall           '-P 1'
loop_
_symmetry_equiv_pos_site_id
_symmetry_equiv_pos_as_xyz
1 x,y,z
2 -x,-y,-z
_cell_length_a                   8.1766(2)
_cell_length_b                   9.3682(2)
_cell_length_c                   13.7087(3)
_cell_angle_alpha                86.4580(10)
_cell_angle_beta                 78.1780(10)
_cell_angle_gamma                82.0770(10)
_cell_volume                     1017.39
_exptl_crystal_colour            yellow
_exptl_crystal_description       block
_cell_formula_units_Z            2
_exptl_crystal_recrystallization_method 'hexane/ethyl acetate'
loop_
_atom_site_label
_atom_site_type_symbol
_atom_site_fract_x
_atom_site_fract_y
_atom_site_fract_z
N1 N 0.03180(13) 0.12314(11) 0.77371(8)
N2 N -0.24262(14) 0.03558(12) 1.00291(8)
C1 C -0.14503(15) 0.01806(14) 0.91406(9)
C2 C -0.06388(15) 0.14310(14) 0.86523(9)
C3 C 0.35991(17) 0.30930(13) 0.47640(10)
N3 N 0.25634(15) 0.31912(12) 0.57336(9)
C4 C -0.30165(18) -0.20896(15) 0.99458(11)
C5 C -0.32323(17) -0.07877(16) 1.04428(10)
C6 C 0.63138(17) 0.31500(14) 0.37121(10)
H1 H 0.7467 0.3169 0.3641
C7 C 0.10370(17) 0.23472(14) 0.72591(10)
C8 C -0.43464(19) -0.06417(19) 1.13778(12)
H2 H -0.4505 0.0214 1.1714
C9 C 0.08368(19) 0.36845(15) 0.76788(11)
H3 H 0.1355 0.4439 0.7331
C10 C 0.20988(18) 0.20933(14) 0.62434(10)
C11 C 0.53385(17) 0.31108(14) 0.46664(10)
N4 N -0.19531(17) -0.22683(13) 0.90348(10)
C12 C 0.39197(19) 0.31568(15) 0.29855(11)
H4 H 0.3445 0.3175 0.2423
C13 C 0.56489(18) 0.31623(14) 0.28637(10)
C14 C -0.12185(19) -0.11464(16) 0.86541(12)
H5 H -0.0507 -0.1224 0.8031
C15 C -0.08879(18) 0.27444(15) 0.91159(11)
H6 H -0.1548 0.2853 0.9752
C16 C 0.28760(17) 0.31256(15) 0.39255(11)
C17 C -0.0140(2) 0.38794(16) 0.86176(12)
H7 H -0.0293 0.4769 0.8911
C18 C -0.4959(2) -0.3059(2) 1.12887(15)
H8 H -0.5537 -0.3814 1.1581
C19 C -0.3903(2) -0.32320(19) 1.03865(15)
H9 H -0.3767 -0.4097 1.0063
C20 C 0.6758(2) 0.31732(18) 0.18380(12)
H10 H 0.6078 0.3181 0.1343
H11 H 0.7576 0.2327 0.1774
H12 H 0.7324 0.4018 0.1744
C21 C 0.6128(2) 0.30856(17) 0.55645(11)
H13 H 0.7320 0.3098 0.5354
H14 H 0.5920 0.2226 0.5964
H15 H 0.5648 0.3916 0.5951
C22 C -0.5187(2) -0.1770(2) 1.17823(13)
H16 H -0.5923 -0.1675 1.2396
C23 C 0.2552(3) 0.05643(17) 0.59248(14)
H17 H 0.3233 0.0544 0.5265
H18 H 0.1543 0.0148 0.5926
H19 H 0.3171 0.0021 0.6379
C24 C 0.1003(2) 0.3144(2) 0.40235(15)
H20 H 0.0737 0.3168 0.3372
H21 H 0.0423 0.3983 0.4372
H22 H 0.0658 0.2293 0.4389
loop_
_geom_bond_atom_site_label_1
_geom_bond_atom_site_label_2
_geom_bond_site_symmetry_1
_geom_bond_site_symmetry_2
N1 C2 1_555 1_555
N2 C1 1_555 1_555
C1 C2 1_555 1_555
C2 C15 1_555 1_555
C3 N3 1_555 1_555
N3 C10 1_555 1_555
C4 C5 1_555 1_555
C5 N2 1_555 1_555
C6 H1 1_555 1_555
C7 N1 1_555 1_555
C8 C5 1_555 1_555
H2 C8 1_555 1_555
C9 C7 1_555 1_555
H3 C9 1_555 1_555
C10 C7 1_555 1_555
C11 C3 1_555 1_555
N4 C4 1_555 1_555
C12 H4 1_555 1_555
C13 C6 1_555 1_555
C14 C1 1_555 1_555
H5 C14 1_555 1_555
C15 H6 1_555 1_555
C16 C3 1_555 1_555
C17 C9 1_555 1_555
H7 C17 1_555 1_555
C18 H8 1_555 1_555
C19 C4 1_555 1_555
H9 C19 1_555 1_555
C20 C13 1_555 1_555
H10 C20 1_555 1_555
H11 C20 1_555 1_555
H12 C20 1_555 1_555
C21 C11 1_555 1_555
H13 C21 1_555 1_555
H14 C21 1_555 1_555
H15 C21 1_555 1_555
C22 C8 1_555 1_555
H16 C22 1_555 1_555
C23 C10 1_555 1_555
H17 C23 1_555 1_555
H18 C23 1_555 1_555
H19 C23 1_555 1_555
C24 C16 1_555 1_555
H20 C24 1_555 1_555
H21 C24 1_555 1_555
H22 C24 1_555 1_555
C6 C11 1_555 1_555
N4 C14 1_555 1_555
C12 C13 1_555 1_555
C12 C16 1_555 1_555
C15 C17 1_555 1_555
C18 C19 1_555 1_555
C18 C22 1_555 1_555

#END
