
#######################################################################
#
#                 Cambridge Crystallographic Data Centre
#                                CCDC 
#
#######################################################################
#
# If this CIF has been generated from an entry in the Cambridge 
# Structural Database, then it will include bibliographic, chemical, 
# crystal, experimental, refinement or atomic coordinate data resulting 
# from the CCDC's data processing and validation procedures.
#
#######################################################################

data_LILXOW
_chemical_formula_moiety         'C18 H16 O2'
_chemical_name_systematic        
(1-hydroxy-1-methyl-3-methylidene-2,3-dihydro-1H-inden-2-yl)(phenyl)methanone
_symmetry_cell_setting           triclinic
_symmetry_space_group_name_H-M   'P -1'
_symmetry_Int_Tables_number      2
_space_group_name_Hall           '-P 1'
loop_
_symmetry_equiv_pos_site_id
_symmetry_equiv_pos_as_xyz
1 x,y,z
2 -x,-y,-z
_cell_length_a                   8.2469(3)
_cell_length_b                   9.0265(3)
_cell_length_c                   9.4627(3)
_cell_angle_alpha                95.548(3)
_cell_angle_beta                 94.576(3)
_cell_angle_gamma                92.972(3)
_cell_volume                     697.614
_exptl_crystal_colour            colorless
_exptl_crystal_description       plate
_cell_formula_units_Z            2
_exptl_crystal_recrystallization_method 'diethyl ether/n-pentane'
loop_
_atom_site_label
_atom_site_type_symbol
_atom_site_fract_x
_atom_site_fract_y
_atom_site_fract_z
C1 C 0.95424(12) 0.31278(11) 0.68201(11)
C2 C 0.83276(13) 0.20634(11) 0.74930(11)
H1 H 0.722612 0.247654 0.750110
C3 C 0.90836(16) 0.19921(12) 0.90129(12)
C4 C 1.08092(15) 0.24909(11) 0.90302(12)
C5 C 1.20776(19) 0.24296(14) 1.00837(14)
H2 H 1.189227 0.199333 1.093524
C6 C 1.36043(18) 0.30124(15) 0.98694(16)
H3 H 1.447738 0.297732 1.058143
C7 C 1.38864(16) 0.36524(15) 0.86238(16)
H4 H 1.494569 0.405773 0.849921
C8 C 1.26310(14) 0.37035(12) 0.75606(13)
H5 H 1.282050 0.413165 0.670576
C9 C 1.10971(13) 0.31143(11) 0.77793(11)
O1 O 0.97445(9) 0.27312(8) 0.53580(8)
H6 H 1.0061(17) 0.1839(17) 0.5252(15)
C10 C 0.89102(14) 0.46913(11) 0.68964(12)
H7 H 0.788065 0.467298 0.629954
H8 H 0.971327 0.537943 0.655350
H9 H 0.873082 0.502496 0.788530
C11 C 0.82057(12) 0.04693(11) 0.67887(10)
O2 O 0.94282(9) -0.00877(8) 0.63805(8)
C12 C 0.66219(12) -0.04296(11) 0.66784(10)
C13 C 0.66320(13) -0.19640(12) 0.62858(11)
H10 H 0.762447 -0.239962 0.608953
C14 C 0.51978(14) -0.28459(12) 0.61836(12)
H11 H 0.521439 -0.388950 0.593306
C15 C 0.37321(14) -0.22210(13) 0.64435(12)
H12 H 0.275145 -0.283431 0.636979
C16 C 0.37079(13) -0.07030(13) 0.68099(12)
H13 H 0.270641 -0.026928 0.697590
C17 C 0.51442(13) 0.01881(12) 0.69355(11)
H14 H 0.512143 0.122892 0.719908
C18 C 0.8295(2) 0.15570(15) 1.00897(15)
H15 H 0.885855 0.154673 1.100383
H16 H 0.716754 0.125694 0.994388
loop_
_geom_bond_atom_site_label_1
_geom_bond_atom_site_label_2
_geom_bond_site_symmetry_1
_geom_bond_site_symmetry_2
C1 C2 1_555 1_555
C2 H1 1_555 1_555
C3 C2 1_555 1_555
C4 C3 1_555 1_555
C5 C4 1_555 1_555
H2 C5 1_555 1_555
C6 C5 1_555 1_555
H3 C6 1_555 1_555
C7 C6 1_555 1_555
H4 C7 1_555 1_555
C8 C7 1_555 1_555
H5 C8 1_555 1_555
C9 C1 1_555 1_555
O1 C1 1_555 1_555
H6 O1 1_555 1_555
C10 C1 1_555 1_555
H7 C10 1_555 1_555
H8 C10 1_555 1_555
H9 C10 1_555 1_555
C11 C2 1_555 1_555
O2 C11 1_555 1_555
C12 C11 1_555 1_555
C13 C12 1_555 1_555
H10 C13 1_555 1_555
C14 C13 1_555 1_555
H11 C14 1_555 1_555
C15 C14 1_555 1_555
H12 C15 1_555 1_555
C16 C15 1_555 1_555
H13 C16 1_555 1_555
C17 C12 1_555 1_555
H14 C17 1_555 1_555
C18 C3 1_555 1_555
H15 C18 1_555 1_555
H16 C18 1_555 1_555
C4 C9 1_555 1_555
C8 C9 1_555 1_555
C16 C17 1_555 1_555

#END
