
#######################################################################
#
#                 Cambridge Crystallographic Data Centre
#                                CCDC 
#
#######################################################################
#
# If this CIF has been generated from an entry in the Cambridge 
# Structural Database, then it will include bibliographic, chemical, 
# crystal, experimental, refinement or atomic coordinate data resulting 
# from the CCDC's data processing and validation procedures.
#
#######################################################################

data_LILYOX
_chemical_formula_moiety         'C26 H36 N2 O5 S2'
_chemical_name_systematic        
'ethyl {4-methyl-1-[(4-methylphenyl)sulfonyl]piperidin-4-yl}{[(2,4,6-trimethylphenyl)sulfinyl]amino}acetate'
_symmetry_cell_setting           trigonal
_symmetry_space_group_name_H-M   'P 32'
_symmetry_Int_Tables_number      145
_space_group_name_Hall           'P 32'
loop_
_symmetry_equiv_pos_site_id
_symmetry_equiv_pos_as_xyz
1 x,y,z
2 -y,x-y,2/3+z
3 -x+y,-x,1/3+z
_cell_length_a                   26.5285(11)
_cell_length_b                   26.5285(11)
_cell_length_c                   9.7658(5)
_cell_angle_alpha                90
_cell_angle_beta                 90
_cell_angle_gamma                120
_cell_volume                     5952.01
_exptl_crystal_colour            colorless
_exptl_crystal_description       needle
_cell_formula_units_Z            9
loop_
_atom_site_label
_atom_site_type_symbol
_atom_site_fract_x
_atom_site_fract_y
_atom_site_fract_z
S1 S 0.39855(7) 0.24029(7) 1.20126(18)
S2 S 0.64445(7) 0.39257(7) 0.87536(17)
O1 O 0.57267(18) 0.49044(17) 1.0534(5)
O2 O 0.5960(2) 0.33223(19) 0.8522(5)
O3 O 0.36023(18) 0.2528(2) 1.2791(5)
C1 C 0.6593(3) 0.5369(3) 0.6975(7)
H1 H 0.6903 0.5754 0.6821
N1 N 0.4657(2) 0.2931(2) 1.2387(6)
N2 N 0.6457(2) 0.4119(2) 1.0353(6)
H2 H 0.6795 0.4432 1.0523
C2 C 0.4745(3) 0.3518(3) 1.2306(7)
H3 H 0.4417 0.3531 1.2755
H4 H 0.4758 0.3632 1.1335
O4 O 0.66534(19) 0.52304(18) 1.1201(5)
C3 C 0.6696(3) 0.4980(3) 0.7713(7)
C4 C 0.5993(3) 0.4191(2) 1.0973(7)
H5 H 0.5634 0.3972 1.0402
C5 C 0.6050(3) 0.5206(3) 0.6468(7)
C6 C 0.6237(3) 0.4403(3) 0.7906(7)
C7 C 0.5684(3) 0.4228(3) 0.7397(7)
C8 C 0.3705(3) 0.2606(3) 0.7511(8)
O5 O 0.39780(19) 0.18630(18) 1.2195(5)
C9 C 0.6364(3) 0.4276(3) 1.3436(7)
H6 H 0.6704 0.4258 1.3111
H7 H 0.6260 0.4109 1.4358
H8 H 0.6455 0.4683 1.3461
C10 C 0.5703(2) 0.3293(3) 1.2428(7)
H9 H 0.6021 0.3273 1.1951
H10 H 0.5691 0.3161 1.3381
C11 C 0.3613(4) 0.2675(3) 0.5998(9)
H11 H 0.3261 0.2327 0.5675
H12 H 0.3950 0.2726 0.5473
H13 H 0.3568 0.3017 0.5874
C12 C 0.5313(2) 0.3940(3) 1.3013(7)
H14 H 0.5274 0.3847 1.4003
H15 H 0.5377 0.4339 1.2913
C13 C 0.4029(3) 0.2202(3) 0.9287(8)
H16 H 0.4192 0.1970 0.9550
C14 C 0.5159(3) 0.3623(3) 0.7526(8)
H17 H 0.5218 0.3351 0.6963
H18 H 0.4811 0.3627 0.7212
H19 H 0.5109 0.3499 0.8485
C15 C 0.5851(2) 0.3929(3) 1.2462(6)
C16 C 0.5942(3) 0.5641(3) 0.5674(9)
H20 H 0.5959 0.5936 0.6304
H21 H 0.5557 0.5435 0.5243
H22 H 0.6240 0.5830 0.4966
C17 C 0.3872(3) 0.2477(3) 1.0277(7)
C18 C 0.3554(3) 0.2878(3) 0.8494(7)
H23 H 0.3393 0.3113 0.8225
C19 C 0.6171(3) 0.4833(3) 1.0938(7)
C20 C 0.5596(3) 0.4636(3) 0.6683(6)
H24 H 0.5219 0.4524 0.6337
C21 C 0.5865(3) 0.5788(3) 1.1661(9)
H25 H 0.5946 0.6186 1.1486
H26 H 0.6167 0.5800 1.2262
H27 H 0.5484 0.5565 1.2104
C22 C 0.3632(3) 0.2813(3) 0.9870(7)
H28 H 0.3521 0.2999 1.0538
C23 C 0.7296(3) 0.5199(3) 0.8346(7)
H29 H 0.7556 0.5603 0.8066
H30 H 0.7456 0.4956 0.8033
H31 H 0.7262 0.5179 0.9347
C24 C 0.5862(3) 0.5508(3) 1.0351(8)
H32 H 0.5570 0.5515 0.9731
H33 H 0.6248 0.5734 0.9911
C25 C 0.5133(2) 0.2875(3) 1.1734(7)
H34 H 0.5154 0.2966 1.0746
H35 H 0.5055 0.2471 1.1831
C26 C 0.3945(3) 0.2270(3) 0.7928(8)
H36 H 0.4053 0.2083 0.7256
S3 S 0.75208(7) 0.75601(8) 0.67330(18)
S4 S 1.00153(8) 0.93258(7) 0.93228(18)
O6 O 0.98969(17) 0.77709(17) 0.7270(5)
C27 C 0.9685(3) 0.8308(3) 1.0913(7)
C28 C 1.0181(3) 0.8339(3) 0.7021(7)
O7 O 0.72916(19) 0.7950(2) 0.6669(5)
O8 O 0.72486(18) 0.7028(2) 0.5937(5)
O9 O 1.06872(18) 0.86231(19) 0.6688(5)
N3 N 0.8201(2) 0.7927(2) 0.6239(6)
C29 C 0.7455(3) 0.6833(3) 0.8782(8)
H37 H 0.7429 0.6576 0.8072
C30 C 0.9770(3) 0.8587(3) 0.7171(7)
H38 H 0.9456 0.8336 0.7833
C31 C 1.0126(3) 0.8798(3) 1.0247(7)
C32 C 0.8517(3) 0.7605(3) 0.6172(7)
H39 H 0.8264 0.7215 0.5770
H40 H 0.8629 0.7553 0.7106
O10 O 0.9401(2) 0.9175(2) 0.9593(5)
C33 C 0.8561(3) 0.8522(3) 0.6872(8)
H41 H 0.8680 0.8485 0.7810
H42 H 0.8330 0.8720 0.6928
C34 C 0.9096(3) 0.8874(3) 0.5983(7)
H43 H 0.9340 0.9260 0.6409
H44 H 0.8970 0.8936 0.5076
C35 C 1.0588(3) 0.7571(3) 0.8478(8)
H45 H 1.0782 0.7339 0.8438
H46 H 1.0327 0.7449 0.9271
H47 H 1.0881 0.7984 0.8566
C36 C 0.9858(3) 0.8000(3) 1.1780(7)
H48 H 0.9564 0.7660 1.2219
C37 C 1.0425(4) 0.8162(3) 1.2029(8)
C38 C 0.7438(3) 0.6680(3) 1.0121(8)
H49 H 0.7402 0.6314 1.0329
C39 C 0.7518(3) 0.7570(3) 1.0843(7)
H50 H 0.7528 0.7819 1.1555
C40 C 0.9474(3) 0.8582(3) 0.5771(7)
C41 C 0.9927(3) 0.8914(3) 0.4668(7)
H51 H 1.0208 0.9302 0.5011
H52 H 0.9733 0.8952 0.3852
H53 H 1.0129 0.8702 0.4433
C42 C 1.0716(3) 0.8967(3) 1.0421(7)
C43 C 0.7511(3) 0.7369(3) 0.8471(7)
C44 C 0.7550(3) 0.7744(3) 0.9513(8)
H54 H 0.7598 0.8115 0.9304
C45 C 1.0593(4) 0.7837(4) 1.3039(10)
H55 H 1.0263 0.7603 1.3648
H56 H 1.0926 0.8117 1.3584
H57 H 1.0697 0.7582 1.2540
C46 C 1.1192(3) 0.9460(4) 0.9646(9)
H58 H 1.1184 0.9345 0.8689
H59 H 1.1568 0.9561 1.0054
H60 H 1.1137 0.9799 0.9685
C47 C 1.0852(3) 0.8644(4) 1.1311(8)
H61 H 1.1249 0.8754 1.1437
C48 C 0.9041(3) 0.8076(3) 1.0756(8)
H62 H 0.8940 0.8355 1.1144
H63 H 0.8825 0.7704 1.1240
H64 H 0.8937 0.8018 0.9783
N4 N 1.0087(2) 0.9177(2) 0.7734(6)
H65 H 1.0459 0.9333 0.7534
C49 C 0.9061(3) 0.7947(2) 0.5288(7)
H66 H 0.8938 0.7957 0.4336
H67 H 0.9282 0.7737 0.5278
C50 C 1.0236(3) 0.7476(3) 0.7166(7)
H68 H 1.0503 0.7632 0.6373
H69 H 0.9971 0.7055 0.7019
C51 C 0.7470(3) 0.7037(3) 1.1184(8)
C52 C 0.7453(4) 0.6862(4) 1.2680(8)
H70 H 0.7279 0.6439 1.2742
H71 H 0.7218 0.6984 1.3210
H72 H 0.7849 0.7052 1.3048
S5 S 0.41165(7) 0.68545(7) 0.09011(17)
S6 S 0.35787(8) 0.43838(7) -0.22905(18)
C53 C 0.3393(3) 0.4268(3) 0.1805(7)
H73 H 0.3099 0.4198 0.2457
O11 O 0.3923(2) 0.4194(2) -0.3034(5)
O12 O 0.36292(18) 0.62508(19) 0.1140(5)
O13 O 0.2958(2) 0.41002(19) -0.2506(5)
O14 O 0.54238(19) 0.64504(19) -0.0604(5)
N5 N 0.4392(2) 0.6927(2) -0.0657(6)
C54 C 0.5191(3) 0.7521(3) 0.1979(7)
C55 C 0.3702(3) 0.4349(3) -0.0532(7)
C56 C 0.3928(3) 0.4367(3) 0.2255(6)
C57 C 0.4244(3) 0.4449(3) -0.0097(7)
H74 H 0.4537 0.4509 -0.0741
C58 C 0.3529(3) 0.5348(3) -0.2077(7)
H75 H 0.3594 0.5388 -0.1075
H76 H 0.3106 0.5099 -0.2243
C59 C 0.4404(3) 0.6358(3) -0.2668(7)
C60 C 0.6458(3) 0.8213(3) -0.0912(10)
H77 H 0.6419 0.8337 -0.1832
H78 H 0.6872 0.8390 -0.0678
H79 H 0.6265 0.8336 -0.0247
C61 C 0.6187(3) 0.7575(3) -0.0880(9)
H80 H 0.6253 0.7445 0.0019
H81 H 0.6354 0.7441 -0.1603
C62 C 0.4741(3) 0.6943(3) 0.1858(7)
C63 C 0.4348(3) 0.4462(3) 0.1286(7)
H82 H 0.4720 0.4537 0.1588
O15 O 0.55602(18) 0.73378(19) -0.1116(5)
C64 C 0.4318(3) 0.5858(3) 0.2440(8)
H83 H 0.3951 0.5804 0.2812
H84 H 0.4444 0.5629 0.2975
H85 H 0.4260 0.5729 0.1483
C65 C 0.4684(3) 0.6007(3) -0.3265(7)
H86 H 0.4586 0.5934 -0.4250
H87 H 0.5112 0.6248 -0.3189
C66 C 0.4051(3) 0.4375(3) 0.3775(7)
H88 H 0.3909 0.4603 0.4259
H89 H 0.4472 0.4551 0.3920
H90 H 0.3853 0.3976 0.4128
C67 C 0.5274(3) 0.6636(3) 0.3271(7)
H91 H 0.5309 0.6334 0.3701
N6 N 0.3838(2) 0.5078(2) -0.2670(6)
C68 C 0.5716(3) 0.7194(3) 0.3425(7)
C69 C 0.5186(3) 0.8025(3) 0.1260(7)
H92 H 0.5229 0.7996 0.0271
H93 H 0.5508 0.8393 0.1600
H94 H 0.4816 0.8011 0.1444
C70 C 0.5676(3) 0.7640(3) 0.2758(7)
H95 H 0.5986 0.8030 0.2839
C71 C 0.4769(3) 0.6484(3) 0.2513(7)
C72 C 0.5236(3) 0.6766(3) -0.0900(7)
C73 C 0.3276(3) 0.4269(3) 0.0433(7)
H96 H 0.2911 0.4216 0.0142
C74 C 0.4589(3) 0.6890(3) -0.3588(7)
H97 H 0.5011 0.7149 -0.3518
H98 H 0.4390 0.7098 -0.3294
H99 H 0.4485 0.6762 -0.4539
C75 C 0.6249(3) 0.7339(3) 0.4294(9)
H100 H 0.6215 0.6978 0.4654
H101 H 0.6273 0.7590 0.5058
H102 H 0.6600 0.7541 0.3730
C76 C 0.4486(3) 0.5435(3) -0.2555(7)
H103 H 0.4668 0.5228 -0.2988
H104 H 0.4602 0.5502 -0.1579
C77 C 0.4581(3) 0.6527(3) -0.1145(7)
H105 H 0.4367 0.6162 -0.0593
C78 C 0.3746(3) 0.5955(3) -0.2724(7)
H106 H 0.3621 0.5903 -0.3693
H107 H 0.3557 0.6146 -0.2246
H108 H 0.420(2) 0.703(2) -0.129(7)
loop_
_geom_bond_atom_site_label_1
_geom_bond_atom_site_label_2
_geom_bond_site_symmetry_1
_geom_bond_site_symmetry_2
S1 O3 1_555 1_555
S2 O2 1_555 1_555
O1 C19 1_555 1_555
C1 H1 1_555 1_555
N1 S1 1_555 1_555
N2 S2 1_555 1_555
H2 N2 1_555 1_555
C2 N1 1_555 1_555
H3 C2 1_555 1_555
H4 C2 1_555 1_555
O4 C19 1_555 1_555
C3 C1 1_555 1_555
C4 N2 1_555 1_555
H5 C4 1_555 1_555
C5 C1 1_555 1_555
C6 S2 1_555 1_555
C7 C6 1_555 1_555
C8 C11 1_555 1_555
O5 S1 1_555 1_555
C9 H6 1_555 1_555
H7 C9 1_555 1_555
H8 C9 1_555 1_555
C10 H9 1_555 1_555
H10 C10 1_555 1_555
C11 H11 1_555 1_555
H12 C11 1_555 1_555
H13 C11 1_555 1_555
C12 C2 1_555 1_555
H14 C12 1_555 1_555
H15 C12 1_555 1_555
C13 H16 1_555 1_555
C14 C7 1_555 1_555
H17 C14 1_555 1_555
H18 C14 1_555 1_555
H19 C14 1_555 1_555
C15 C4 1_555 1_555
C16 C5 1_555 1_555
H20 C16 1_555 1_555
H21 C16 1_555 1_555
H22 C16 1_555 1_555
C17 S1 1_555 1_555
C18 C8 1_555 1_555
H23 C18 1_555 1_555
C19 C4 1_555 1_555
C20 C5 1_555 1_555
H24 C20 1_555 1_555
C21 H25 1_555 1_555
H26 C21 1_555 1_555
H27 C21 1_555 1_555
C22 C17 1_555 1_555
H28 C22 1_555 1_555
C23 C3 1_555 1_555
H29 C23 1_555 1_555
H30 C23 1_555 1_555
H31 C23 1_555 1_555
C24 O1 1_555 1_555
H32 C24 1_555 1_555
H33 C24 1_555 1_555
C25 N1 1_555 1_555
H34 C25 1_555 1_555
H35 C25 1_555 1_555
C26 C8 1_555 1_555
H36 C26 1_555 1_555
S3 O7 1_555 1_555
S4 C31 1_555 1_555
O6 C28 1_555 1_555
C27 C31 1_555 1_555
C28 O9 1_555 1_555
O8 S3 1_555 1_555
N3 S3 1_555 1_555
C29 H37 1_555 1_555
C30 C28 1_555 1_555
H38 C30 1_555 1_555
C31 C42 1_555 1_555
C32 N3 1_555 1_555
H39 C32 1_555 1_555
H40 C32 1_555 1_555
O10 S4 1_555 1_555
C33 N3 1_555 1_555
H41 C33 1_555 1_555
H42 C33 1_555 1_555
C34 C33 1_555 1_555
H43 C34 1_555 1_555
H44 C34 1_555 1_555
C35 H45 1_555 1_555
H46 C35 1_555 1_555
H47 C35 1_555 1_555
C36 C27 1_555 1_555
H48 C36 1_555 1_555
C37 C36 1_555 1_555
C38 C29 1_555 1_555
H49 C38 1_555 1_555
C39 H50 1_555 1_555
C40 C30 1_555 1_555
C41 C40 1_555 1_555
H51 C41 1_555 1_555
H52 C41 1_555 1_555
H53 C41 1_555 1_555
C42 C46 1_555 1_555
C43 S3 1_555 1_555
C44 C39 1_555 1_555
H54 C44 1_555 1_555
C45 C37 1_555 1_555
H55 C45 1_555 1_555
H56 C45 1_555 1_555
H57 C45 1_555 1_555
C46 H58 1_555 1_555
H59 C46 1_555 1_555
H60 C46 1_555 1_555
C47 C37 1_555 1_555
H61 C47 1_555 1_555
C48 C27 1_555 1_555
H62 C48 1_555 1_555
H63 C48 1_555 1_555
H64 C48 1_555 1_555
N4 S4 1_555 1_555
H65 N4 1_555 1_555
C49 C32 1_555 1_555
H66 C49 1_555 1_555
H67 C49 1_555 1_555
C50 O6 1_555 1_555
H68 C50 1_555 1_555
H69 C50 1_555 1_555
C51 C38 1_555 1_555
C52 C51 1_555 1_555
H70 C52 1_555 1_555
H71 C52 1_555 1_555
H72 C52 1_555 1_555
S5 O12 1_555 1_555
S6 O11 1_555 1_555
C53 H73 1_555 1_555
O13 S6 1_555 1_555
O14 C72 1_555 1_555
N5 S5 1_555 1_555
C54 C62 1_555 1_555
C55 S6 1_555 1_555
C56 C53 1_555 1_555
C57 C55 1_555 1_555
H74 C57 1_555 1_555
C58 H75 1_555 1_555
H76 C58 1_555 1_555
C59 C65 1_555 1_555
C60 H77 1_555 1_555
H78 C60 1_555 1_555
H79 C60 1_555 1_555
C61 C60 1_555 1_555
H80 C61 1_555 1_555
H81 C61 1_555 1_555
C62 S5 1_555 1_555
C63 C56 1_555 1_555
H82 C63 1_555 1_555
O15 C61 1_555 1_555
C64 H83 1_555 1_555
H84 C64 1_555 1_555
H85 C64 1_555 1_555
C65 H86 1_555 1_555
H87 C65 1_555 1_555
C66 C56 1_555 1_555
H88 C66 1_555 1_555
H89 C66 1_555 1_555
H90 C66 1_555 1_555
C67 H91 1_555 1_555
N6 S6 1_555 1_555
C68 C67 1_555 1_555
C69 C54 1_555 1_555
H92 C69 1_555 1_555
H93 C69 1_555 1_555
H94 C69 1_555 1_555
C70 C54 1_555 1_555
H95 C70 1_555 1_555
C71 C62 1_555 1_555
C72 O15 1_555 1_555
C73 C53 1_555 1_555
H96 C73 1_555 1_555
C74 C59 1_555 1_555
H97 C74 1_555 1_555
H98 C74 1_555 1_555
H99 C74 1_555 1_555
C75 C68 1_555 1_555
H100 C75 1_555 1_555
H101 C75 1_555 1_555
H102 C75 1_555 1_555
C76 C65 1_555 1_555
H103 C76 1_555 1_555
H104 C76 1_555 1_555
C77 N5 1_555 1_555
H105 C77 1_555 1_555
C78 C58 1_555 1_555
H106 C78 1_555 1_555
H107 C78 1_555 1_555
H108 N5 1_555 1_555
C3 C6 1_555 1_555
C7 C20 1_555 1_555
C9 C15 1_555 1_555
C10 C15 1_555 1_555
C10 C25 1_555 1_555
C12 C15 1_555 1_555
C13 C17 1_555 1_555
C13 C26 1_555 1_555
C18 C22 1_555 1_555
C21 C24 1_555 1_555
C29 C43 1_555 1_555
C30 N4 1_555 1_555
C34 C40 1_555 1_555
C35 C50 1_555 1_555
C39 C51 1_555 1_555
C40 C49 1_555 1_555
C42 C47 1_555 1_555
C43 C44 1_555 1_555
C55 C73 1_555 1_555
C57 C63 1_555 1_555
C58 N6 1_555 1_555
C59 C77 1_555 1_555
C59 C78 1_555 1_555
C64 C71 1_555 1_555
C67 C71 1_555 1_555
N6 C76 1_555 1_555
C68 C70 1_555 1_555
C72 C77 1_555 1_555

#END
