
#######################################################################
#
#                 Cambridge Crystallographic Data Centre
#                                CCDC 
#
#######################################################################
#
# If this CIF has been generated from an entry in the Cambridge 
# Structural Database, then it will include bibliographic, chemical, 
# crystal, experimental, refinement or atomic coordinate data resulting 
# from the CCDC's data processing and validation procedures.
#
#######################################################################

data_LILYAJ
_chemical_formula_moiety         'C14 H14 O3'
_chemical_name_systematic        
1-hydroxy-1-methyl-3-methylidene-1,3-dihydro-2'H-spiro[indene-2,3'-oxolan]-2'-one
_symmetry_cell_setting           orthorhombic
_symmetry_space_group_name_H-M   'P c a 21'
_symmetry_Int_Tables_number      29
_space_group_name_Hall           'P 2c -2ac'
loop_
_symmetry_equiv_pos_site_id
_symmetry_equiv_pos_as_xyz
1 x,y,z
2 -x,-y,1/2+z
3 1/2+x,-y,z
4 1/2-x,y,1/2+z
_cell_length_a                   23.9951(5)
_cell_length_b                   14.2011(3)
_cell_length_c                   6.89980(10)
_cell_angle_alpha                90
_cell_angle_beta                 90
_cell_angle_gamma                90
_cell_volume                     2351.15
_exptl_crystal_colour            colorless
_exptl_crystal_description       needle
_cell_formula_units_Z            8
_exptl_crystal_recrystallization_method 'diethyl ether/n-pentane'
loop_
_atom_site_label
_atom_site_type_symbol
_atom_site_fract_x
_atom_site_fract_y
_atom_site_fract_z
C1 C 0.41146(10) 1.00370(17) 0.6659(4)
C2 C 0.40698(10) 0.89358(17) 0.6960(4)
C3 C 0.34759(10) 0.87904(18) 0.7680(4)
C4 C 0.33083(10) 0.96842(18) 0.8584(4)
C5 C 0.28659(11) 0.9878(2) 0.9832(4)
H1 H 0.261607 0.939368 1.021719
C6 C 0.27986(11) 1.0791(2) 1.0498(4)
H2 H 0.249731 1.093525 1.134034
C7 C 0.31657(11) 1.1501(2) 0.9950(4)
H3 H 0.311316 1.212251 1.042461
C8 C 0.36089(11) 1.13086(18) 0.8714(4)
H4 H 0.386111 1.179135 0.834101
C9 C 0.36744(10) 1.03932(18) 0.8038(4)
O1 O 0.46490(7) 1.03693(13) 0.7261(3)
H5 H 0.4853(15) 1.061(3) 0.640(5)
C10 C 0.39845(12) 1.03421(19) 0.4585(4)
H6 H 0.395640 1.103001 0.452928
H7 H 0.363041 1.006219 0.417365
H8 H 0.428327 1.012977 0.372041
C11 C 0.44846(11) 0.87078(18) 0.8584(4)
O2 O 0.44377(8) 0.88495(13) 1.0292(3)
O3 O 0.49440(7) 0.83019(13) 0.7856(3)
C12 C 0.49058(13) 0.8239(2) 0.5760(4)
H9 H 0.505975 0.763366 0.529208
H10 H 0.511186 0.876181 0.513741
C13 C 0.42857(12) 0.83067(19) 0.5322(4)
H11 H 0.410712 0.767851 0.535658
H12 H 0.421914 0.859779 0.403931
C14 C 0.31688(12) 0.8019(2) 0.7501(5)
H13 H 0.279815 0.800943 0.798447
H14 H 0.331922 0.747702 0.688780
C15 C 0.40461(10) 0.45840(17) 0.1577(4)
C16 C 0.39859(10) 0.56773(17) 0.1979(4)
C17 C 0.33927(10) 0.57739(18) 0.2747(4)
C18 C 0.32522(10) 0.48560(18) 0.3620(4)
C19 C 0.28292(10) 0.4616(2) 0.4911(4)
H15 H 0.256935 0.507536 0.534154
C20 C 0.27953(11) 0.3696(2) 0.5553(4)
H16 H 0.250740 0.352116 0.642685
C21 C 0.31777(11) 0.3023(2) 0.4936(4)
H17 H 0.314857 0.239485 0.539702
C22 C 0.36011(11) 0.32601(18) 0.3656(4)
H18 H 0.386344 0.280198 0.323805
C23 C 0.36319(10) 0.41811(17) 0.3002(4)
O4 O 0.45856(7) 0.42482(13) 0.2089(3)
H19 H 0.4853(15) 0.427(2) 0.123(5)
C24 C 0.38937(12) 0.4323(2) -0.0500(4)
H20 H 0.417142 0.458527 -0.139038
H21 H 0.352542 0.457934 -0.081383
H22 H 0.388621 0.363571 -0.063131
C25 C 0.43945(11) 0.59002(18) 0.3617(4)
O5 O 0.43525(8) 0.57253(14) 0.5316(3)
O6 O 0.48428(7) 0.63485(14) 0.2935(3)
C26 C 0.48044(13) 0.6456(2) 0.0840(4)
H23 H 0.502352 0.596295 0.017122
H24 H 0.494338 0.708176 0.043245
C27 C 0.41877(12) 0.63548(19) 0.0389(4)
H25 H 0.412890 0.608426 -0.091722
H26 H 0.399396 0.696900 0.047261
C28 C 0.30702(12) 0.6529(2) 0.2639(5)
H27 H 0.270393 0.651354 0.316069
H28 H 0.320523 0.708668 0.203977
loop_
_geom_bond_atom_site_label_1
_geom_bond_atom_site_label_2
_geom_bond_site_symmetry_1
_geom_bond_site_symmetry_2
C1 C2 1_555 1_555
C2 C3 1_555 1_555
C3 C4 1_555 1_555
C4 C5 1_555 1_555
C5 H1 1_555 1_555
C6 C5 1_555 1_555
H2 C6 1_555 1_555
C7 C6 1_555 1_555
H3 C7 1_555 1_555
C8 C7 1_555 1_555
H4 C8 1_555 1_555
C9 C1 1_555 1_555
O1 C1 1_555 1_555
H5 O1 1_555 1_555
C10 C1 1_555 1_555
H6 C10 1_555 1_555
H7 C10 1_555 1_555
H8 C10 1_555 1_555
C11 C2 1_555 1_555
O2 C11 1_555 1_555
O3 C11 1_555 1_555
C12 O3 1_555 1_555
H9 C12 1_555 1_555
H10 C12 1_555 1_555
C13 C2 1_555 1_555
H11 C13 1_555 1_555
H12 C13 1_555 1_555
C14 C3 1_555 1_555
H13 C14 1_555 1_555
H14 C14 1_555 1_555
C15 C16 1_555 1_555
C16 C17 1_555 1_555
C17 C18 1_555 1_555
C18 C19 1_555 1_555
C19 H15 1_555 1_555
C20 C19 1_555 1_555
H16 C20 1_555 1_555
C21 C20 1_555 1_555
H17 C21 1_555 1_555
C22 C21 1_555 1_555
H18 C22 1_555 1_555
C23 C15 1_555 1_555
O4 C15 1_555 1_555
H19 O4 1_555 1_555
C24 C15 1_555 1_555
H20 C24 1_555 1_555
H21 C24 1_555 1_555
H22 C24 1_555 1_555
C25 C16 1_555 1_555
O5 C25 1_555 1_555
O6 C25 1_555 1_555
C26 O6 1_555 1_555
H23 C26 1_555 1_555
H24 C26 1_555 1_555
C27 C16 1_555 1_555
H25 C27 1_555 1_555
H26 C27 1_555 1_555
C28 C17 1_555 1_555
H27 C28 1_555 1_555
H28 C28 1_555 1_555
C4 C9 1_555 1_555
C8 C9 1_555 1_555
C12 C13 1_555 1_555
C18 C23 1_555 1_555
C22 C23 1_555 1_555
C26 C27 1_555 1_555

#END
