
#######################################################################
#
#                 Cambridge Crystallographic Data Centre
#                                CCDC 
#
#######################################################################
#
# If this CIF has been generated from an entry in the Cambridge 
# Structural Database, then it will include bibliographic, chemical, 
# crystal, experimental, refinement or atomic coordinate data resulting 
# from the CCDC's data processing and validation procedures.
#
#######################################################################

data_LIMDOD
_chemical_formula_moiety         'C12 H9 N1 O3'
_chemical_name_systematic        
5,6-dihydro-2H-2,5-epoxyoxepino[4,5-b]indol-1(4H)-one
_symmetry_cell_setting           orthorhombic
_symmetry_space_group_name_H-M   'P 21 21 21'
_symmetry_Int_Tables_number      19
_space_group_name_Hall           'P 2ac 2ab'
loop_
_symmetry_equiv_pos_site_id
_symmetry_equiv_pos_as_xyz
1 x,y,z
2 1/2-x,-y,1/2+z
3 -x,1/2+y,1/2-z
4 1/2+x,1/2-y,-z
_cell_length_a                   6.72830(10)
_cell_length_b                   9.5441(2)
_cell_length_c                   15.1689(4)
_cell_angle_alpha                90
_cell_angle_beta                 90
_cell_angle_gamma                90
_cell_volume                     974.08
_exptl_crystal_colour            colorless
_exptl_crystal_description       plate
_cell_formula_units_Z            4
_exptl_crystal_recrystallization_method 'ethyl acetate/diethyl ether'
loop_
_atom_site_label
_atom_site_type_symbol
_atom_site_fract_x
_atom_site_fract_y
_atom_site_fract_z
C1 C 0.5222(3) 0.7634(2) 0.63848(12)
C2 C 0.7171(3) 0.71996(19) 0.62705(13)
C3 C 0.8692(3) 0.7872(2) 0.67750(14)
C4 C 0.7877(3) 0.9037(2) 0.73845(14)
H1 H 0.8944 0.9674 0.7565
O1 O 0.6329(2) 0.97816(14) 0.69713(10)
C5 C 0.4713(3) 0.8790(2) 0.70103(13)
H2 H 0.3417 0.9216 0.6888
O2 O 1.0476(2) 0.75670(18) 0.67873(11)
C6 C 0.7112(3) 0.6037(2) 0.56627(12)
C7 C 0.4908(3) 0.8268(2) 0.79608(13)
H3 H 0.4152 0.8852 0.8363
H4 H 0.4455 0.7307 0.8014
O3 O 0.7007(2) 0.83736(17) 0.81339(10)
C8 C 0.5090(3) 0.58498(19) 0.54396(12)
C9 C 0.4457(3) 0.4812(2) 0.48561(13)
H5 H 0.3123 0.4713 0.4707
C10 C 0.5896(3) 0.3935(2) 0.45081(14)
H6 H 0.5524 0.3236 0.4114
C11 C 0.7903(4) 0.4082(2) 0.47387(14)
H7 H 0.8834 0.3467 0.4502
C12 C 0.8531(3) 0.5123(2) 0.53109(15)
H8 H 0.9867 0.5213 0.5458
N1 N 0.3984(2) 0.68415(18) 0.58994(12)
H9 H 0.262(4) 0.689(3) 0.5958(17)
loop_
_geom_bond_atom_site_label_1
_geom_bond_atom_site_label_2
_geom_bond_site_symmetry_1
_geom_bond_site_symmetry_2
C1 C2 1_555 1_555
C2 C3 1_555 1_555
C3 C4 1_555 1_555
C4 H1 1_555 1_555
O1 C4 1_555 1_555
C5 C1 1_555 1_555
H2 C5 1_555 1_555
O2 C3 1_555 1_555
C6 C2 1_555 1_555
C7 C5 1_555 1_555
H3 C7 1_555 1_555
H4 C7 1_555 1_555
O3 C4 1_555 1_555
C8 C6 1_555 1_555
C9 C8 1_555 1_555
H5 C9 1_555 1_555
C10 C9 1_555 1_555
H6 C10 1_555 1_555
C11 C10 1_555 1_555
H7 C11 1_555 1_555
C12 C6 1_555 1_555
H8 C12 1_555 1_555
N1 C1 1_555 1_555
H9 N1 1_555 1_555
O1 C5 1_555 1_555
C7 O3 1_555 1_555
C8 N1 1_555 1_555
C11 C12 1_555 1_555

#END
