
#######################################################################
#
#                 Cambridge Crystallographic Data Centre
#                                CCDC 
#
#######################################################################
#
# If this CIF has been generated from an entry in the Cambridge 
# Structural Database, then it will include bibliographic, chemical, 
# crystal, experimental, refinement or atomic coordinate data resulting 
# from the CCDC's data processing and validation procedures.
#
#######################################################################

data_LIMFOD
_chemical_name_common            
'2-(1-(2-Trifluoromethylphenyl)guanidin-2-ium-3-yl)-6-methyl-4-oxo-4H-pyrimidin-1-ide methanol solvate'
_chemical_formula_moiety         'C13 H12 F3 N5 O1,C1 H4 O1'
_chemical_name_systematic        
"N-(4-Methyl-6-oxo-1,6-dihydropyrimidin-2-yl)-N'-(2-trifluoromethylphenyl)-guanidine methanol solvate"
_chemical_properties_biological  'weak herbicidal activity'
_symmetry_cell_setting           triclinic
_symmetry_space_group_name_H-M   'P -1'
_symmetry_Int_Tables_number      2
_space_group_name_Hall           '-P 1'
loop_
_symmetry_equiv_pos_site_id
_symmetry_equiv_pos_as_xyz
1 x,y,z
2 -x,-y,-z
_cell_length_a                   11.515(4)
_cell_length_b                   11.838(4)
_cell_length_c                   13.737(4)
_cell_angle_alpha                100.774(6)
_cell_angle_beta                 99.657(6)
_cell_angle_gamma                110.745(6)
_cell_volume                     1663.56
_exptl_crystal_colour            colorless
_exptl_crystal_description       block
_cell_formula_units_Z            4
loop_
_atom_site_label
_atom_site_type_symbol
_atom_site_fract_x
_atom_site_fract_y
_atom_site_fract_z
F1 F 0.9117(5) 0.7285(5) 0.4568(3)
F2 F 0.8146(5) 0.7218(5) 0.3093(4)
F3 F 0.9863(5) 0.8800(4) 0.3917(3)
O1 O 0.8529(4) 1.1990(3) 0.0196(3)
N1 N 0.8572(4) 1.0123(3) 0.0340(3)
N2 N 1.0013(4) 1.0060(3) 0.1776(3)
N3 N 0.8636(4) 0.8252(3) 0.0494(3)
H1 H 0.8071 0.7946 -0.0085
N4 N 0.8393(5) 0.6230(4) 0.0439(4)
H2 H 0.852(5) 0.557(5) 0.075(4)
H3 H 0.786(5) 0.597(4) -0.015(4)
N5 N 0.9871(4) 0.7843(4) 0.1789(3)
H4 H 1.0209 0.8637 0.2070
C1 C 0.9305(8) 0.7550(8) 0.3682(5)
C2 C 1.0091(6) 0.6945(5) 0.3229(4)
C3 C 1.0565(7) 0.6213(6) 0.3711(5)
H9 H 1.0415 0.6119 0.4341
C4 C 1.1260(7) 0.5622(6) 0.3266(7)
H10 H 1.1584 0.5138 0.3597
C5 C 1.1468(6) 0.5749(5) 0.2343(6)
H11 H 1.1923 0.5338 0.2038
C6 C 1.1013(5) 0.6481(5) 0.1848(5)
H12 H 1.1177 0.6579 0.1222
C7 C 1.0311(5) 0.7068(4) 0.2294(4)
C8 C 0.8973(5) 0.7417(4) 0.0912(4)
C9 C 0.9101(5) 0.9529(4) 0.0898(4)
C10 C 0.9011(5) 1.1395(4) 0.0706(4)
C11 C 0.9983(5) 1.1996(4) 0.1632(4)
H13 H 1.0303 1.2862 0.1886
C12 C 1.0447(5) 1.1326(4) 0.2148(3)
C13 C 1.1435(5) 1.1876(5) 0.3146(4)
H14 H 1.1802 1.2773 0.3282
H15 H 1.2097 1.1565 0.3117
H16 H 1.1042 1.1645 0.3683
F4 F 0.2805(4) 0.9236(4) 0.7582(3)
F5 F 0.2480(4) 0.7907(4) 0.6188(3)
F6 F 0.1394(4) 0.9045(5) 0.6278(4)
O2 O 0.6523(4) 0.5255(3) 0.8664(3)
N6 N 0.5209(4) 0.9423(3) 0.7078(3)
H5 H 0.4843 0.8628 0.6800
N7 N 0.6568(5) 1.0992(4) 0.8507(4)
H6 H 0.722(5) 1.124(4) 0.916(4)
H7 H 0.615(5) 1.142(5) 0.840(4)
N8 N 0.6463(4) 0.8999(3) 0.8356(3)
H8 H 0.7053 0.9307 0.8921
N9 N 0.6504(4) 0.7125(3) 0.8501(3)
N10 N 0.5129(4) 0.7194(3) 0.7027(3)
C14 C 0.2568(6) 0.9074(7) 0.6579(6)
C15 C 0.3561(5) 1.0046(4) 0.6268(4)
C16 C 0.3204(6) 1.0771(6) 0.5689(4)
H17 H 0.2345 1.0642 0.5488
C17 C 0.4118(7) 1.1677(5) 0.5414(5)
H18 H 0.3878 1.2175 0.5043
C18 C 0.5380(6) 1.1849(5) 0.5685(4)
H19 H 0.5994 1.2451 0.5485
C19 C 0.5744(5) 1.1128(4) 0.6255(4)
H20 H 0.6605 1.1259 0.6447
C20 C 0.4838(5) 1.0215(4) 0.6542(4)
C21 C 0.6070(5) 0.9816(4) 0.7968(4)
C22 C 0.5996(4) 0.7702(4) 0.7922(4)
C23 C 0.6071(5) 0.5849(4) 0.8127(4)
C24 C 0.5147(5) 0.5253(4) 0.7184(4)
H21 H 0.4844 0.4389 0.6922
C25 C 0.4696(5) 0.5931(4) 0.6654(4)
C26 C 0.3713(6) 0.5373(5) 0.5664(4)
H22 H 0.3480 0.4484 0.5464
H23 H 0.4052 0.5737 0.5151
H24 H 0.2967 0.5536 0.5734
O3 O 0.5401(4) 0.2743(3) 0.8415(3)
H25 H 0.5800 0.3491 0.8478
C27 C 0.4389(9) 0.2588(8) 0.8887(7)
H27 H 0.4281 0.1914 0.9205
H28 H 0.3612 0.2396 0.8382
H29 H 0.4579 0.3348 0.9397
O4 O 0.8223(4) 0.4061(3) 0.1080(3)
H26 H 0.8290 0.3459 0.0725
C28 C 0.7260(9) 0.3641(9) 0.1572(7)
H30 H 0.7545 0.3299 0.2099
H31 H 0.6507 0.3003 0.1084
H32 H 0.7059 0.4326 0.1871
loop_
_geom_bond_atom_site_label_1
_geom_bond_atom_site_label_2
_geom_bond_site_symmetry_1
_geom_bond_site_symmetry_2
F1 C1 1_555 1_555
F2 C1 1_555 1_555
F3 C1 1_555 1_555
F4 C14 1_555 1_555
F5 C14 1_555 1_555
F6 C14 1_555 1_555
O1 C10 1_555 1_555
O2 C23 1_555 1_555
N1 C9 1_555 1_555
N2 C9 1_555 1_555
N3 H1 1_555 1_555
N4 H2 1_555 1_555
H3 N4 1_555 1_555
N5 H4 1_555 1_555
N6 H5 1_555 1_555
N7 H6 1_555 1_555
H7 N7 1_555 1_555
N8 H8 1_555 1_555
N9 C22 1_555 1_555
N10 C22 1_555 1_555
C1 C2 1_555 1_555
C2 C3 1_555 1_555
C3 H9 1_555 1_555
C4 C3 1_555 1_555
H10 C4 1_555 1_555
C5 C4 1_555 1_555
H11 C5 1_555 1_555
C6 C5 1_555 1_555
H12 C6 1_555 1_555
C7 N5 1_555 1_555
C8 N3 1_555 1_555
C9 N3 1_555 1_555
C10 N1 1_555 1_555
C11 C10 1_555 1_555
H13 C11 1_555 1_555
C12 N2 1_555 1_555
C13 C12 1_555 1_555
H14 C13 1_555 1_555
H15 C13 1_555 1_555
H16 C13 1_555 1_555
C14 C15 1_555 1_555
C15 C16 1_555 1_555
C16 H17 1_555 1_555
C17 C16 1_555 1_555
H18 C17 1_555 1_555
C18 C17 1_555 1_555
H19 C18 1_555 1_555
C19 C18 1_555 1_555
H20 C19 1_555 1_555
C20 N6 1_555 1_555
C21 N6 1_555 1_555
C22 N8 1_555 1_555
C23 N9 1_555 1_555
C24 C23 1_555 1_555
H21 C24 1_555 1_555
C25 N10 1_555 1_555
C26 C25 1_555 1_555
H22 C26 1_555 1_555
H23 C26 1_555 1_555
H24 C26 1_555 1_555
O3 H25 1_555 1_555
O4 H26 1_555 1_555
C27 O3 1_555 1_555
H27 C27 1_555 1_555
H28 C27 1_555 1_555
H29 C27 1_555 1_555
C28 O4 1_555 1_555
H30 C28 1_555 1_555
H31 C28 1_555 1_555
H32 C28 1_555 1_555
N4 C8 1_555 1_555
N5 C8 1_555 1_555
N7 C21 1_555 1_555
N8 C21 1_555 1_555
C2 C7 1_555 1_555
C6 C7 1_555 1_555
C11 C12 1_555 1_555
C15 C20 1_555 1_555
C19 C20 1_555 1_555
C24 C25 1_555 1_555

#END
