
#######################################################################
#
#                 Cambridge Crystallographic Data Centre
#                                CCDC 
#
#######################################################################
#
# If this CIF has been generated from an entry in the Cambridge 
# Structural Database, then it will include bibliographic, chemical, 
# crystal, experimental, refinement or atomic coordinate data resulting 
# from the CCDC's data processing and validation procedures.
#
#######################################################################

data_LIMGEU
_chemical_formula_moiety         'C26 H25 N1 O4 S1'
_chemical_name_systematic        
2-(bis(2-Methoxyphenyl)methyl)-1-(4-methylphenylsulfonyl)-1H-pyrrole
_symmetry_cell_setting           triclinic
_symmetry_space_group_name_H-M   'P -1'
_symmetry_Int_Tables_number      2
_space_group_name_Hall           '-P 1'
loop_
_symmetry_equiv_pos_site_id
_symmetry_equiv_pos_as_xyz
1 x,y,z
2 -x,-y,-z
_cell_length_a                   7.8767(16)
_cell_length_b                   9.4870(19)
_cell_length_c                   16.389(3)
_cell_angle_alpha                88.55(3)
_cell_angle_beta                 84.28(3)
_cell_angle_gamma                66.22(3)
_cell_volume                     1114.98
_exptl_crystal_colour            colorless
_exptl_crystal_description       prism
_chemical_melting_point          '201-202 deg.C'
_cell_formula_units_Z            2
_exptl_crystal_recrystallization_method dichloromethane
loop_
_atom_site_label
_atom_site_type_symbol
_atom_site_fract_x
_atom_site_fract_y
_atom_site_fract_z
S1 S 0.93046(13) 0.08119(10) 0.81826(5)
O1 O 1.0588(3) -0.0508(2) 0.85624(15)
O2 O 0.9788(3) 0.1218(3) 0.73771(13)
O3 O 0.4694(4) 0.5414(3) 0.75523(17)
O4 O 0.6910(4) 0.3723(3) 0.57628(14)
N1 N 0.7396(4) 0.0456(3) 0.81553(16)
C1 C 0.6981(6) 0.6251(4) 1.0501(3)
H1 H 0.6859 0.5915 1.1052
H2 H 0.5804 0.7019 1.0371
H3 H 0.7899 0.6682 1.0450
C2 C 0.7578(5) 0.4899(4) 0.9917(2)
C3 C 0.7837(6) 0.3453(4) 1.0210(2)
H4 H 0.7666 0.3319 1.0772
C4 C 0.8344(5) 0.2205(4) 0.9682(2)
H5 H 0.8498 0.1241 0.9885
C5 C 0.8620(4) 0.2409(4) 0.88483(19)
C6 C 0.8379(6) 0.3823(4) 0.8545(2)
H6 H 0.8560 0.3955 0.7984
C7 C 0.7864(6) 0.5050(4) 0.9081(2)
H7 H 0.7704 0.6012 0.8873
C8 C 0.6961(6) -0.0460(4) 0.8753(2)
H8 H 0.7763 -0.1100 0.9114
C9 C 0.5167(6) -0.0245(4) 0.8711(2)
H9 H 0.4517 -0.0719 0.9035
C10 C 0.4457(5) 0.0831(4) 0.8086(2)
H10 H 0.3256 0.1172 0.7927
C11 C 0.5798(5) 0.1291(3) 0.77542(18)
C12 C 0.5762(4) 0.2360(3) 0.70463(18)
H11 H 0.6555 0.2891 0.7160
C13 C 0.3808(5) 0.3580(4) 0.69984(18)
C14 C 0.2438(5) 0.3239(4) 0.66873(19)
H12 H 0.2736 0.2235 0.6512
C15 C 0.0661(6) 0.4321(5) 0.6628(2)
H13 H -0.0224 0.4057 0.6415
C16 C 0.0215(6) 0.5820(5) 0.6892(2)
H14 H -0.0987 0.6566 0.6866
C17 C 0.1546(6) 0.6201(4) 0.7192(2)
H15 H 0.1247 0.7210 0.7359
C18 C 0.3319(5) 0.5100(4) 0.7247(2)
C19 C 0.4666(6) 0.6903(4) 0.7435(3)
H16 H 0.4481 0.7192 0.6875
H17 H 0.5830 0.6904 0.7561
H18 H 0.3667 0.7626 0.7790
C20 C 0.6542(4) 0.1507(4) 0.62258(19)
C21 C 0.6674(5) 0.0039(4) 0.6076(2)
H19 H 0.6340 -0.0494 0.6502
C22 C 0.7290(6) -0.0663(5) 0.5308(2)
H20 H 0.7355 -0.1649 0.5219
C23 C 0.7800(6) 0.0111(5) 0.4683(2)
H21 H 0.8227 -0.0356 0.4168
C24 C 0.7687(5) 0.1571(5) 0.4810(2)
H22 H 0.8033 0.2089 0.4380
C25 C 0.7061(5) 0.2276(4) 0.5573(2)
C26 C 0.7429(6) 0.4569(5) 0.5127(2)
H23 H 0.8716 0.4013 0.4931
H24 H 0.7251 0.5559 0.5337
H25 H 0.6669 0.4704 0.4684
loop_
_geom_bond_atom_site_label_1
_geom_bond_atom_site_label_2
_geom_bond_site_symmetry_1
_geom_bond_site_symmetry_2
S1 O1 1_555 1_555
O2 S1 1_555 1_555
O3 C18 1_555 1_555
O4 C25 1_555 1_555
N1 S1 1_555 1_555
C1 H1 1_555 1_555
H2 C1 1_555 1_555
H3 C1 1_555 1_555
C2 C1 1_555 1_555
C3 C2 1_555 1_555
H4 C3 1_555 1_555
C4 C3 1_555 1_555
H5 C4 1_555 1_555
C5 S1 1_555 1_555
C6 C5 1_555 1_555
H6 C6 1_555 1_555
C7 C2 1_555 1_555
H7 C7 1_555 1_555
C8 N1 1_555 1_555
H8 C8 1_555 1_555
C9 C8 1_555 1_555
H9 C9 1_555 1_555
C10 C9 1_555 1_555
H10 C10 1_555 1_555
C11 N1 1_555 1_555
C12 C11 1_555 1_555
H11 C12 1_555 1_555
C13 C12 1_555 1_555
C14 C13 1_555 1_555
H12 C14 1_555 1_555
C15 C14 1_555 1_555
H13 C15 1_555 1_555
C16 C15 1_555 1_555
H14 C16 1_555 1_555
C17 C16 1_555 1_555
H15 C17 1_555 1_555
C18 C13 1_555 1_555
C19 O3 1_555 1_555
H16 C19 1_555 1_555
H17 C19 1_555 1_555
H18 C19 1_555 1_555
C20 C12 1_555 1_555
C21 C20 1_555 1_555
H19 C21 1_555 1_555
C22 C21 1_555 1_555
H20 C22 1_555 1_555
C23 C22 1_555 1_555
H21 C23 1_555 1_555
C24 C23 1_555 1_555
H22 C24 1_555 1_555
C25 C20 1_555 1_555
C26 O4 1_555 1_555
H23 C26 1_555 1_555
H24 C26 1_555 1_555
H25 C26 1_555 1_555
C4 C5 1_555 1_555
C6 C7 1_555 1_555
C10 C11 1_555 1_555
C17 C18 1_555 1_555
C24 C25 1_555 1_555

#END
