
#######################################################################
#
#                 Cambridge Crystallographic Data Centre
#                                CCDC 
#
#######################################################################
#
# If this CIF has been generated from an entry in the Cambridge 
# Structural Database, then it will include bibliographic, chemical, 
# crystal, experimental, refinement or atomic coordinate data resulting 
# from the CCDC's data processing and validation procedures.
#
#######################################################################

data_LIMJOJ
_chemical_formula_moiety         'C22 H22 Br1 N1 O1'
_chemical_name_systematic        4-bromo-2-[1-(dibenzylamino)ethyl]phenol
_symmetry_cell_setting           orthorhombic
_symmetry_space_group_name_H-M   'P 21 21 21'
_symmetry_Int_Tables_number      19
_space_group_name_Hall           'P 2ac 2ab'
loop_
_symmetry_equiv_pos_site_id
_symmetry_equiv_pos_as_xyz
1 x,y,z
2 1/2-x,-y,1/2+z
3 -x,1/2+y,1/2-z
4 1/2+x,1/2-y,-z
_cell_length_a                   8.9870(4)
_cell_length_b                   9.3898(3)
_cell_length_c                   22.6937(7)
_cell_angle_alpha                90
_cell_angle_beta                 90
_cell_angle_gamma                90
_cell_volume                     1915.03
_exptl_crystal_colour            colorless
_exptl_crystal_description       block
_cell_formula_units_Z            4
loop_
_atom_site_label
_atom_site_type_symbol
_atom_site_fract_x
_atom_site_fract_y
_atom_site_fract_z
Br1 Br 0.92016(7) 0.26170(5) 0.33463(2)
O1 O 0.9266(3) 0.8951(3) 0.37211(11)
H1 H 0.850022 0.921501 0.390318
N1 N 0.6649(3) 0.8520(3) 0.42818(12)
C1 C 0.7531(4) 0.7321(4) 0.45280(12)
H2 H 0.829736 0.775906 0.479122
C2 C 0.8382(4) 0.6633(4) 0.40210(14)
C3 C 0.8380(5) 0.5183(4) 0.39153(14)
H3 H 0.780523 0.457202 0.415938
C4 C 0.9204(5) 0.4613(4) 0.34584(14)
C5 C 1.0053(5) 0.5464(5) 0.30924(15)
H4 H 1.061830 0.505961 0.278057
C6 C 1.0060(4) 0.6925(4) 0.31916(14)
H5 H 1.063927 0.752809 0.294579
C7 C 0.9228(4) 0.7511(4) 0.36471(13)
C8 C 0.6665(4) 0.6266(4) 0.49087(14)
H6 H 0.619376 0.677517 0.523643
H7 H 0.734681 0.554450 0.506467
H8 H 0.589705 0.580263 0.466937
C9 C 0.5440(4) 0.8015(4) 0.38873(15)
H9 H 0.461381 0.764008 0.413082
H10 H 0.582025 0.722264 0.364218
C10 C 0.4849(4) 0.9166(4) 0.34902(14)
C11 C 0.3331(5) 0.9417(5) 0.34609(16)
H11 H 0.267623 0.888509 0.370532
C12 C 0.2753(6) 1.0429(6) 0.3081(2)
H12 H 0.170841 1.057819 0.306254
C13 C 0.3683(6) 1.1214(6) 0.2732(2)
H13 H 0.328646 1.191175 0.247308
C14 C 0.5196(6) 1.0993(6) 0.2758(2)
H14 H 0.584116 1.154863 0.251924
C15 C 0.5787(6) 0.9960(5) 0.31315(17)
H15 H 0.683083 0.979892 0.314071
C16 C 0.6026(5) 0.9460(4) 0.47430(14)
H16 H 0.542091 0.888090 0.501780
H17 H 0.535914 1.016681 0.455598
C17 C 0.7212(4) 1.0236(4) 0.50882(14)
C18 C 0.8100(5) 1.1244(4) 0.48122(17)
H18 H 0.797440 1.141918 0.440291
C19 C 0.9169(6) 1.2001(4) 0.51240(17)
H19 H 0.978672 1.266980 0.492692
C20 C 0.9330(6) 1.1776(4) 0.57241(18)
H20 H 1.003932 1.230739 0.594322
C21 C 0.8453(5) 1.0774(5) 0.60006(17)
H21 H 0.856459 1.061522 0.641163
C22 C 0.7412(5) 0.9996(4) 0.56877(15)
H22 H 0.683169 0.929452 0.588310
loop_
_geom_bond_atom_site_label_1
_geom_bond_atom_site_label_2
_geom_bond_site_symmetry_1
_geom_bond_site_symmetry_2
Br1 C4 1_555 1_555
O1 H1 1_555 1_555
N1 C1 1_555 1_555
C1 H2 1_555 1_555
C2 C1 1_555 1_555
C3 C2 1_555 1_555
H3 C3 1_555 1_555
C4 C3 1_555 1_555
C5 C4 1_555 1_555
H4 C5 1_555 1_555
C6 C5 1_555 1_555
H5 C6 1_555 1_555
C7 O1 1_555 1_555
C8 C1 1_555 1_555
H6 C8 1_555 1_555
H7 C8 1_555 1_555
H8 C8 1_555 1_555
C9 N1 1_555 1_555
H9 C9 1_555 1_555
H10 C9 1_555 1_555
C10 C9 1_555 1_555
C11 C10 1_555 1_555
H11 C11 1_555 1_555
C12 C11 1_555 1_555
H12 C12 1_555 1_555
C13 C12 1_555 1_555
H13 C13 1_555 1_555
C14 C13 1_555 1_555
H14 C14 1_555 1_555
C15 C10 1_555 1_555
H15 C15 1_555 1_555
C16 N1 1_555 1_555
H16 C16 1_555 1_555
H17 C16 1_555 1_555
C17 C16 1_555 1_555
C18 C17 1_555 1_555
H18 C18 1_555 1_555
C19 C18 1_555 1_555
H19 C19 1_555 1_555
C20 C19 1_555 1_555
H20 C20 1_555 1_555
C21 C20 1_555 1_555
H21 C21 1_555 1_555
C22 C17 1_555 1_555
H22 C22 1_555 1_555
C2 C7 1_555 1_555
C6 C7 1_555 1_555
C14 C15 1_555 1_555
C21 C22 1_555 1_555

#END
