
#######################################################################
#
#                 Cambridge Crystallographic Data Centre
#                                CCDC 
#
#######################################################################
#
# If this CIF has been generated from an entry in the Cambridge 
# Structural Database, then it will include bibliographic, chemical, 
# crystal, experimental, refinement or atomic coordinate data resulting 
# from the CCDC's data processing and validation procedures.
#
#######################################################################

data_LIMJAT
_chemical_formula_moiety         'C22 H19 Cl1 F3 N1 O3'
_chemical_name_systematic        
(+)-4-(3-Allyl-5-chloro-2-hydroxyphenyl)-3-(2-hydroxyethyl)-1-methyl-6-(trifluoromethyl)quinolin-2(1H)-one
_chemical_properties_biological  
'activity on hSlo Maxi-K currents expressed in Xenopus laevis oocytes'
_symmetry_cell_setting           monoclinic
_symmetry_space_group_name_H-M   'P 21'
_symmetry_Int_Tables_number      4
_space_group_name_Hall           'P 2yb'
loop_
_symmetry_equiv_pos_site_id
_symmetry_equiv_pos_as_xyz
1 x,y,z
2 -x,1/2+y,-z
_cell_length_a                   12.9345(2)
_cell_length_b                   9.0095(1)
_cell_length_c                   18.6879(2)
_cell_angle_alpha                90
_cell_angle_beta                 109.436(1)
_cell_angle_gamma                90
_cell_volume                     2053.66
_exptl_crystal_colour            colorless
_exptl_crystal_description       plate
_cell_formula_units_Z            4
_exptl_crystal_recrystallization_method 'ethyl acetate/hexane'
loop_
_atom_site_label
_atom_site_type_symbol
_atom_site_fract_x
_atom_site_fract_y
_atom_site_fract_z
Cl1 Cl 0.88657(10) 0.49535(19) 0.32374(9)
O1 O 0.2733(3) 0.3060(5) 0.0642(2)
O2 O 0.2917(4) 0.7065(6) 0.1348(3)
H1 H 0.2481 0.6373 0.1368
O3 O 0.4490(3) 0.7440(4) 0.2726(2)
H2 H 0.4049 0.7088 0.2232
N1 N 0.3107(3) 0.2060(4) 0.1813(2)
C1 C 0.3654(4) 0.2101(5) 0.2583(3)
C2 C 0.3423(4) 0.1070(6) 0.3069(3)
H3 H 0.2883 0.0357 0.2870
C3 C 0.3974(5) 0.1097(6) 0.3822(4)
H4 H 0.3807 0.0401 0.4134
C4 C 0.4788(4) 0.2148(6) 0.4139(3)
C5 C 0.5013(4) 0.3192(6) 0.3671(3)
H5 H 0.5543 0.3910 0.3883
C6 C 0.4467(4) 0.3202(5) 0.2891(3)
C7 C 0.4666(4) 0.4290(5) 0.2383(3)
C8 C 0.4067(4) 0.4286(5) 0.1639(3)
C9 C 0.3249(4) 0.3131(6) 0.1319(3)
C10 C 0.5373(6) 0.2124(8) 0.4967(3)
F1 F 0.6200(4) 0.3050(6) 0.5195(2)
F2 F 0.5795(4) 0.0800(5) 0.5218(2)
F3 F 0.4749(4) 0.2483(8) 0.5370(2)
C11 C 0.4196(4) 0.5362(6) 0.1068(3)
H6 H 0.4312 0.4819 0.0653
H7 H 0.4839 0.5969 0.1302
C12 C 0.3202(5) 0.6366(8) 0.0753(4)
H8 H 0.3360 0.7121 0.0434
H9 H 0.2586 0.5784 0.0442
C13 C 0.2380(5) 0.0805(7) 0.1474(4)
H10 H 0.2344 0.0145 0.1868
H11 H 0.2663 0.0282 0.1131
H12 H 0.1659 0.1171 0.1201
C14 C 0.5619(4) 0.5335(5) 0.2697(2)
C15 C 0.5500(4) 0.6829(6) 0.2842(3)
C16 C 0.6411(4) 0.7738(6) 0.3141(3)
C17 C 0.7442(4) 0.7135(6) 0.3273(3)
H13 H 0.8060 0.7728 0.3470
C18 C 0.7561(4) 0.5669(6) 0.3115(3)
C19 C 0.6667(4) 0.4765(6) 0.2834(2)
H14 H 0.6760 0.3772 0.2734
C20 C 0.6259(5) 0.9365(7) 0.3288(4)
H15 H 0.5672 0.9749 0.2856
H16 H 0.6013 0.9426 0.3725
C21 C 0.7176(7) 1.0323(9) 0.3422(7)
H17 H 0.7424 1.0340 0.3009
C22 C 0.7724(7) 1.1126(9) 0.3929(7)
H18 H 0.7560 1.1210 0.4375
H19 H 0.8307 1.1658 0.3870
Cl2 Cl -0.44259(11) 0.14959(19) 0.11502(11)
O4 O 0.1091(3) 0.5433(4) 0.1475(2)
O5 O -0.0591(4) 0.3015(7) -0.0553(2)
H20 H -0.0743 0.2242 -0.0829
O6 O 0.0030(3) -0.0635(4) 0.16455(19)
H21 H -0.0095 -0.0980 0.1145
N2 N 0.1336(3) 0.4509(5) 0.2647(2)
C23 C 0.1190(4) 0.3379(6) 0.3106(2)
C24 C 0.1781(5) 0.3295(8) 0.3883(3)
H22 H 0.2270 0.4052 0.4107
C25 C 0.1667(5) 0.2158(9) 0.4314(3)
H23 H 0.2067 0.2144 0.4829
C26 C 0.0961(5) 0.1018(7) 0.3997(3)
C27 C 0.0323(4) 0.1085(6) 0.3242(2)
H24 H -0.0188 0.0339 0.3037
C28 C 0.0427(4) 0.2243(6) 0.2782(2)
C29 C -0.0244(3) 0.2339(5) 0.1984(2)
C30 C -0.0021(4) 0.3411(5) 0.1541(2)
C31 C 0.0821(4) 0.4494(6) 0.1865(3)
C32 C 0.0881(8) -0.0268(12) 0.4462(4)
F4 F 0.1747(4) -0.0553(7) 0.5018(3)
F5 F 0.0442(9) -0.1358(9) 0.4114(3)
F6 F 0.0206(6) -0.0031(13) 0.4846(5)
C33 C -0.0636(4) 0.3541(6) 0.0705(3)
H25 H -0.0713 0.4583 0.0566
H26 H -0.1365 0.3133 0.0599
C34 C -0.0076(4) 0.2750(7) 0.0223(3)
H27 H 0.0680 0.3076 0.0369
H28 H -0.0076 0.1691 0.0317
C35 C 0.2066(6) 0.5755(8) 0.2972(4)
H29 H 0.2070 0.6429 0.2576
H30 H 0.2795 0.5391 0.3221
H31 H 0.1811 0.6262 0.3334
C36 C -0.1175(4) 0.1283(5) 0.1691(2)
C37 C -0.1027(3) -0.0187(5) 0.1522(2)
C38 C -0.1900(4) -0.1174(6) 0.1271(2)
C39 C -0.2950(4) -0.0635(6) 0.1161(3)
H32 H -0.3552 -0.1266 0.0990
C40 C -0.3098(4) 0.0851(6) 0.1307(3)
C41 C -0.2242(4) 0.1801(6) 0.1577(2)
H33 H -0.2361 0.2781 0.1686
C42 C -0.1718(4) -0.2774(5) 0.1130(3)
H34 H -0.1598 -0.2848 0.0646
H35 H -0.1051 -0.3101 0.1518
C43 C -0.2622(5) -0.3820(6) 0.1121(3)
H36 H -0.2781 -0.3909 0.1569
C44 C -0.3197(5) -0.4603(7) 0.0558(4)
H37 H -0.3070 -0.4552 0.0098
H38 H -0.3743 -0.5222 0.0610
loop_
_geom_bond_atom_site_label_1
_geom_bond_atom_site_label_2
_geom_bond_site_symmetry_1
_geom_bond_site_symmetry_2
Cl1 C18 1_555 1_555
O1 C9 1_555 1_555
O2 H1 1_555 1_555
O3 H2 1_555 1_555
N1 C1 1_555 1_555
C1 C2 1_555 1_555
C2 H3 1_555 1_555
C3 C2 1_555 1_555
H4 C3 1_555 1_555
C4 C3 1_555 1_555
C5 C4 1_555 1_555
H5 C5 1_555 1_555
C6 C1 1_555 1_555
C7 C6 1_555 1_555
C8 C7 1_555 1_555
C9 N1 1_555 1_555
C10 C4 1_555 1_555
F1 C10 1_555 1_555
F2 C10 1_555 1_555
F3 C10 1_555 1_555
C11 C8 1_555 1_555
H6 C11 1_555 1_555
H7 C11 1_555 1_555
C12 O2 1_555 1_555
H8 C12 1_555 1_555
H9 C12 1_555 1_555
C13 N1 1_555 1_555
H10 C13 1_555 1_555
H11 C13 1_555 1_555
H12 C13 1_555 1_555
C14 C7 1_555 1_555
C15 O3 1_555 1_555
C16 C15 1_555 1_555
C17 C16 1_555 1_555
H13 C17 1_555 1_555
C18 C17 1_555 1_555
C19 C14 1_555 1_555
H14 C19 1_555 1_555
C20 C16 1_555 1_555
H15 C20 1_555 1_555
H16 C20 1_555 1_555
C21 C20 1_555 1_555
H17 C21 1_555 1_555
C22 C21 1_555 1_555
H18 C22 1_555 1_555
H19 C22 1_555 1_555
Cl2 C40 1_555 1_555
O4 C31 1_555 1_555
O5 H20 1_555 1_555
O6 H21 1_555 1_555
N2 C23 1_555 1_555
C23 C24 1_555 1_555
C24 H22 1_555 1_555
C25 C24 1_555 1_555
H23 C25 1_555 1_555
C26 C25 1_555 1_555
C27 C26 1_555 1_555
H24 C27 1_555 1_555
C28 C23 1_555 1_555
C29 C28 1_555 1_555
C30 C29 1_555 1_555
C31 N2 1_555 1_555
C32 C26 1_555 1_555
F4 C32 1_555 1_555
F5 C32 1_555 1_555
F6 C32 1_555 1_555
C33 C30 1_555 1_555
H25 C33 1_555 1_555
H26 C33 1_555 1_555
C34 O5 1_555 1_555
H27 C34 1_555 1_555
H28 C34 1_555 1_555
C35 N2 1_555 1_555
H29 C35 1_555 1_555
H30 C35 1_555 1_555
H31 C35 1_555 1_555
C36 C29 1_555 1_555
C37 O6 1_555 1_555
C38 C37 1_555 1_555
C39 C38 1_555 1_555
H32 C39 1_555 1_555
C40 C39 1_555 1_555
C41 C36 1_555 1_555
H33 C41 1_555 1_555
C42 C38 1_555 1_555
H34 C42 1_555 1_555
H35 C42 1_555 1_555
C43 C42 1_555 1_555
H36 C43 1_555 1_555
C44 C43 1_555 1_555
H37 C44 1_555 1_555
H38 C44 1_555 1_555
C5 C6 1_555 1_555
C8 C9 1_555 1_555
C11 C12 1_555 1_555
C14 C15 1_555 1_555
C18 C19 1_555 1_555
C27 C28 1_555 1_555
C30 C31 1_555 1_555
C33 C34 1_555 1_555
C36 C37 1_555 1_555
C40 C41 1_555 1_555

#END
