
#######################################################################
#
#                 Cambridge Crystallographic Data Centre
#                                CCDC 
#
#######################################################################
#
# If this CIF has been generated from an entry in the Cambridge 
# Structural Database, then it will include bibliographic, chemical, 
# crystal, experimental, refinement or atomic coordinate data resulting 
# from the CCDC's data processing and validation procedures.
#
#######################################################################

data_LIMKEA
_chemical_formula_moiety         'C21 H23 N1 O5 S1'
_chemical_name_systematic        
9-hydroxy-7-methoxy-10-[(4-methylphenyl)sulfonyl]-3,4,4a,9,9a,10-hexahydroacridin-1(2H)-one
_symmetry_cell_setting           monoclinic
_symmetry_space_group_name_H-M   'P 21'
_symmetry_Int_Tables_number      4
_space_group_name_Hall           'P 2yb'
loop_
_symmetry_equiv_pos_site_id
_symmetry_equiv_pos_as_xyz
1 x,y,z
2 -x,1/2+y,-z
_cell_length_a                   8.7508(6)
_cell_length_b                   7.8977(5)
_cell_length_c                   14.1765(11)
_cell_angle_alpha                90
_cell_angle_beta                 95.447(4)
_cell_angle_gamma                90
_cell_volume                     975.331
_exptl_crystal_colour            colorless
_exptl_crystal_description       BAR
_cell_formula_units_Z            2
loop_
_atom_site_label
_atom_site_type_symbol
_atom_site_fract_x
_atom_site_fract_y
_atom_site_fract_z
S1 S -0.00150(5) 0.24952(8) 0.21920(4)
O1 O 0.58711(17) 0.4420(2) 0.20349(12)
H1 H 0.6360 0.3854 0.1683
N1 N 0.14768(17) 0.2254(3) 0.15596(13)
O2 O 0.5487(2) 0.2457(3) 0.03703(13)
O3 O -0.12266(18) 0.3141(3) 0.15456(16)
O4 O 0.6312(2) -0.1321(3) 0.34694(15)
C1 C 0.2736(2) 0.1265(3) 0.19862(15)
C2 C 0.4259(3) 0.3138(3) 0.02058(16)
C3 C 0.3720(3) -0.1361(3) 0.26690(18)
H2 H 0.3578 -0.2497 0.2808
C4 C 0.0497(2) 0.4089(3) 0.30298(16)
O5 O -0.0224(2) 0.0962(3) 0.26894(19)
C5 C 0.4151(2) 0.2038(3) 0.22429(14)
C6 C 0.1779(2) 0.3793(3) 0.09745(16)
H3 H 0.1374 0.4763 0.1303
C7 C 0.4326(2) 0.3866(3) 0.19560(14)
H4 H 0.3782 0.4557 0.2391
C8 C 0.3507(2) 0.4107(3) 0.09668(14)
H5 H 0.3616 0.5309 0.0816
C9 C 0.5328(2) 0.1118(3) 0.27183(16)
H6 H 0.6276 0.1626 0.2878
C10 C 0.5100(2) -0.0564(3) 0.29591(16)
C11 C 0.1634(3) 0.3795(4) 0.37638(18)
H7 H 0.2109 0.2743 0.3827
C12 C 0.2554(2) -0.0447(3) 0.21699(18)
H8 H 0.1642 -0.0986 0.1956
C13 C 0.1368(3) 0.6668(4) 0.4311(2)
C14 C 0.0214(3) 0.6922(4) 0.3590(2)
H9 H -0.0274 0.7969 0.3532
C15 C 0.2048(3) 0.5061(5) 0.4392(2)
H10 H 0.2800 0.4852 0.4887
C16 C -0.0230(3) 0.5649(4) 0.29512(19)
H11 H -0.1013 0.5838 0.2472
C17 C 0.0957(4) 0.3791(6) -0.0009(2)
H12 H -0.0098 0.3441 0.0025
H13 H 0.0945 0.4934 -0.0261
C18 C 0.1677(4) 0.2666(6) -0.0653(3)
H14 H 0.1099 0.2706 -0.1271
H15 H 0.1637 0.1514 -0.0419
C19 C 0.3384(4) 0.3146(4) -0.07588(18)
H16 H 0.3831 0.2335 -0.1167
H17 H 0.3434 0.4260 -0.1042
C20 C 0.6079(3) -0.2949(4) 0.3845(2)
H18 H 0.5920 -0.3751 0.3336
H19 H 0.5193 -0.2930 0.4196
H20 H 0.6965 -0.3271 0.4257
C21 C 0.1882(5) 0.8074(6) 0.4978(3)
H21 H 0.2911 0.8398 0.4877
H22 H 0.1852 0.7696 0.5619
H23 H 0.1211 0.9029 0.4863
loop_
_geom_bond_atom_site_label_1
_geom_bond_atom_site_label_2
_geom_bond_site_symmetry_1
_geom_bond_site_symmetry_2
S1 N1 1_555 1_555
O1 H1 1_555 1_555
N1 C1 1_555 1_555
O2 C2 1_555 1_555
O3 S1 1_555 1_555
O4 C10 1_555 1_555
C1 C5 1_555 1_555
C2 C8 1_555 1_555
C3 H2 1_555 1_555
C4 S1 1_555 1_555
O5 S1 1_555 1_555
C5 C7 1_555 1_555
C6 N1 1_555 1_555
H3 C6 1_555 1_555
C7 O1 1_555 1_555
H4 C7 1_555 1_555
C8 C6 1_555 1_555
H5 C8 1_555 1_555
C9 C5 1_555 1_555
H6 C9 1_555 1_555
C10 C3 1_555 1_555
C11 C4 1_555 1_555
H7 C11 1_555 1_555
C12 C1 1_555 1_555
H8 C12 1_555 1_555
C13 C14 1_555 1_555
C14 H9 1_555 1_555
C15 C11 1_555 1_555
H10 C15 1_555 1_555
C16 C4 1_555 1_555
H11 C16 1_555 1_555
C17 C6 1_555 1_555
H12 C17 1_555 1_555
H13 C17 1_555 1_555
C18 C17 1_555 1_555
H14 C18 1_555 1_555
H15 C18 1_555 1_555
C19 C2 1_555 1_555
H16 C19 1_555 1_555
H17 C19 1_555 1_555
C20 O4 1_555 1_555
H18 C20 1_555 1_555
H19 C20 1_555 1_555
H20 C20 1_555 1_555
C21 C13 1_555 1_555
H21 C21 1_555 1_555
H22 C21 1_555 1_555
H23 C21 1_555 1_555
C3 C12 1_555 1_555
C7 C8 1_555 1_555
C9 C10 1_555 1_555
C13 C15 1_555 1_555
C14 C16 1_555 1_555
C18 C19 1_555 1_555

#END
