
#######################################################################
#
#                 Cambridge Crystallographic Data Centre
#                                CCDC 
#
#######################################################################
#
# If this CIF has been generated from an entry in the Cambridge 
# Structural Database, then it will include bibliographic, chemical, 
# crystal, experimental, refinement or atomic coordinate data resulting 
# from the CCDC's data processing and validation procedures.
#
#######################################################################

data_LIMNIH
_chemical_formula_moiety         'C21 H17 N2 O2 P1'
_chemical_name_systematic        2-(diphenylphosphoryl)-7-methoxyquinoxaline
_symmetry_cell_setting           monoclinic
_symmetry_space_group_name_H-M   'P 21/c'
_symmetry_Int_Tables_number      14
_space_group_name_Hall           '-P 2ybc'
loop_
_symmetry_equiv_pos_site_id
_symmetry_equiv_pos_as_xyz
1 x,y,z
2 -x,1/2+y,1/2-z
3 -x,-y,-z
4 x,1/2-y,1/2+z
_cell_length_a                   17.2306(4)
_cell_length_b                   12.4787(4)
_cell_length_c                   17.0064(5)
_cell_angle_alpha                90
_cell_angle_beta                 90.400(3)
_cell_angle_gamma                90
_cell_volume                     3656.55
_exptl_crystal_colour            yellow
_exptl_crystal_description       prism
_cell_formula_units_Z            8
loop_
_atom_site_label
_atom_site_type_symbol
_atom_site_fract_x
_atom_site_fract_y
_atom_site_fract_z
P1 P 1.04923(4) 0.58290(6) 0.25654(5)
O1 O 1.08367(12) 0.69163(17) 0.25986(15)
O2 O 0.77982(14) 0.2586(3) 0.00533(16)
N1 N 0.95260(11) 0.47371(17) 0.16189(12)
N2 N 0.94756(17) 0.6306(2) 0.04322(16)
C1 C 1.12234(14) 0.4796(2) 0.25066(16)
C2 C 1.19913(16) 0.5129(3) 0.25536(18)
H1 H 1.2104 0.5849 0.2640
C3 C 1.25873(18) 0.4403(4) 0.2473(2)
H2 H 1.3099 0.4634 0.2514
C4 C 1.2433(2) 0.3351(3) 0.2336(2)
H3 H 1.2839 0.2868 0.2274
C5 C 1.1675(2) 0.2999(3) 0.2287(2)
H4 H 1.1571 0.2278 0.2196
C6 C 1.10700(17) 0.3714(2) 0.23729(19)
H5 H 1.0560 0.3474 0.2342
C7 C 0.98627(15) 0.5552(2) 0.33878(16)
C8 C 0.94832(18) 0.4585(2) 0.34978(17)
H6 H 0.9554 0.4029 0.3141
C9 C 0.9002(2) 0.4445(3) 0.4133(2)
H7 H 0.8750 0.3794 0.4204
C10 C 0.8893(2) 0.5266(3) 0.4663(2)
H8 H 0.8567 0.5170 0.5091
C11 C 0.9267(2) 0.6226(3) 0.4557(2)
H9 H 0.9195 0.6781 0.4914
C12 C 0.97488(18) 0.6370(3) 0.3923(2)
H10 H 1.0000 0.7023 0.3854
C13 C 0.99058(14) 0.5645(2) 0.16820(16)
C14 C 0.98787(19) 0.6440(2) 0.1082(2)
H11 H 1.0155 0.7074 0.1153
C15 C 0.90888(17) 0.5373(3) 0.03545(16)
C16 C 0.91035(14) 0.4588(2) 0.09469(14)
C17 C 0.86790(15) 0.3631(3) 0.08604(16)
H12 H 0.8693 0.3113 0.1254
C18 C 0.82437(17) 0.3466(3) 0.01927(18)
C19 C 0.8229(2) 0.4237(4) -0.0400(2)
H13 H 0.7933 0.4113 -0.0851
C20 C 0.8639(2) 0.5171(4) -0.03377(17)
H14 H 0.8624 0.5672 -0.0743
C21 C 0.7736(3) 0.1837(4) 0.0692(3)
H15 H 0.7423 0.1239 0.0530
H16 H 0.7500 0.2183 0.1134
H17 H 0.8244 0.1588 0.0838
P2 P 0.54932(4) 0.58638(6) 0.23301(5)
O3 O 0.58435(13) 0.69448(17) 0.22616(16)
O4 O 0.28558(17) 0.2914(3) 0.50506(18)
N3 N 0.45305(11) 0.48646(18) 0.33333(12)
N4 N 0.46249(19) 0.6491(3) 0.44774(18)
C22 C 0.62180(15) 0.4825(2) 0.24181(16)
C23 C 0.69871(16) 0.5143(3) 0.23607(19)
H18 H 0.7104 0.5851 0.2239
C24 C 0.75790(18) 0.4417(4) 0.2482(2)
H19 H 0.8092 0.4640 0.2441
C25 C 0.7421(2) 0.3382(3) 0.2660(2)
H20 H 0.7825 0.2901 0.2745
C26 C 0.66626(19) 0.3043(3) 0.2715(2)
H21 H 0.6555 0.2330 0.2832
C27 C 0.60608(17) 0.3757(2) 0.25976(18)
H22 H 0.5550 0.3526 0.2638
C28 C 0.48412(15) 0.5544(2) 0.15313(16)
C29 C 0.47255(18) 0.6324(3) 0.0964(2)
H23 H 0.4982 0.6977 0.1003
C30 C 0.4226(2) 0.6128(3) 0.0338(2)
H24 H 0.4150 0.6653 -0.0043
C31 C 0.38489(19) 0.5182(3) 0.02759(19)
H25 H 0.3518 0.5057 -0.0148
C32 C 0.3953(2) 0.4404(3) 0.08369(18)
H26 H 0.3691 0.3756 0.0794
C33 C 0.44466(18) 0.4585(2) 0.14647(17)
H27 H 0.4514 0.4057 0.1845
C34 C 0.49383(15) 0.5744(2) 0.32316(17)
C35 C 0.4985(2) 0.6552(3) 0.3806(2)
H28 H 0.5284 0.7155 0.3703
C36 C 0.42086(19) 0.5590(3) 0.46000(17)
C37 C 0.41504(14) 0.4769(2) 0.40263(14)
C38 C 0.37005(15) 0.3850(3) 0.41612(16)
H29 H 0.3668 0.3314 0.3783
C39 C 0.33107(19) 0.3755(4) 0.4857(2)
C40 C 0.3374(2) 0.4574(5) 0.5432(2)
H30 H 0.3109 0.4499 0.5904
C41 C 0.3804(3) 0.5451(4) 0.5313(2)
H31 H 0.3838 0.5973 0.5703
C42 C 0.2697(3) 0.2153(5) 0.4447(3)
H32 H 0.2422 0.2496 0.4024
H33 H 0.2386 0.1582 0.4655
H34 H 0.3177 0.1866 0.4255
loop_
_geom_bond_atom_site_label_1
_geom_bond_atom_site_label_2
_geom_bond_site_symmetry_1
_geom_bond_site_symmetry_2
P1 O1 1_555 1_555
O2 C18 1_555 1_555
N1 C13 1_555 1_555
N2 C14 1_555 1_555
C1 P1 1_555 1_555
C2 C1 1_555 1_555
H1 C2 1_555 1_555
C3 C2 1_555 1_555
H2 C3 1_555 1_555
C4 C3 1_555 1_555
H3 C4 1_555 1_555
C5 C4 1_555 1_555
H4 C5 1_555 1_555
C6 C1 1_555 1_555
H5 C6 1_555 1_555
C7 P1 1_555 1_555
C8 C7 1_555 1_555
H6 C8 1_555 1_555
C9 C8 1_555 1_555
H7 C9 1_555 1_555
C10 C9 1_555 1_555
H8 C10 1_555 1_555
C11 C10 1_555 1_555
H9 C11 1_555 1_555
C12 C7 1_555 1_555
H10 C12 1_555 1_555
C13 P1 1_555 1_555
C14 C13 1_555 1_555
H11 C14 1_555 1_555
C15 N2 1_555 1_555
C16 N1 1_555 1_555
C17 C16 1_555 1_555
H12 C17 1_555 1_555
C18 C17 1_555 1_555
C19 C18 1_555 1_555
H13 C19 1_555 1_555
C20 C15 1_555 1_555
H14 C20 1_555 1_555
C21 O2 1_555 1_555
H15 C21 1_555 1_555
H16 C21 1_555 1_555
H17 C21 1_555 1_555
P2 O3 1_555 1_555
O4 C39 1_555 1_555
N3 C34 1_555 1_555
N4 C35 1_555 1_555
C22 P2 1_555 1_555
C23 C22 1_555 1_555
H18 C23 1_555 1_555
C24 C23 1_555 1_555
H19 C24 1_555 1_555
C25 C24 1_555 1_555
H20 C25 1_555 1_555
C26 C25 1_555 1_555
H21 C26 1_555 1_555
C27 C22 1_555 1_555
H22 C27 1_555 1_555
C28 P2 1_555 1_555
C29 C28 1_555 1_555
H23 C29 1_555 1_555
C30 C29 1_555 1_555
H24 C30 1_555 1_555
C31 C30 1_555 1_555
H25 C31 1_555 1_555
C32 C31 1_555 1_555
H26 C32 1_555 1_555
C33 C28 1_555 1_555
H27 C33 1_555 1_555
C34 P2 1_555 1_555
C35 C34 1_555 1_555
H28 C35 1_555 1_555
C36 N4 1_555 1_555
C37 N3 1_555 1_555
C38 C37 1_555 1_555
H29 C38 1_555 1_555
C39 C38 1_555 1_555
C40 C39 1_555 1_555
H30 C40 1_555 1_555
C41 C36 1_555 1_555
H31 C41 1_555 1_555
C42 O4 1_555 1_555
H32 C42 1_555 1_555
H33 C42 1_555 1_555
H34 C42 1_555 1_555
C5 C6 1_555 1_555
C11 C12 1_555 1_555
C15 C16 1_555 1_555
C19 C20 1_555 1_555
C26 C27 1_555 1_555
C32 C33 1_555 1_555
C36 C37 1_555 1_555
C40 C41 1_555 1_555

#END
