
#######################################################################
#
#                 Cambridge Crystallographic Data Centre
#                                CCDC 
#
#######################################################################
#
# If this CIF has been generated from an entry in the Cambridge 
# Structural Database, then it will include bibliographic, chemical, 
# crystal, experimental, refinement or atomic coordinate data resulting 
# from the CCDC's data processing and validation procedures.
#
#######################################################################

data_LIMSIM
_chemical_formula_moiety         'C12 H11 N1 O2,0.5(C4 H8 O2)'
_chemical_name_systematic        
'9-hydroxy-1,2,3,9-tetrahydro-4H-carbazol-4-one ethyl acetate solvate'
_symmetry_cell_setting           monoclinic
_symmetry_space_group_name_H-M   'P 21/c'
_symmetry_Int_Tables_number      14
_space_group_name_Hall           '-P 2ybc'
loop_
_symmetry_equiv_pos_site_id
_symmetry_equiv_pos_as_xyz
1 x,y,z
2 -x,1/2+y,1/2-z
3 -x,-y,-z
4 x,1/2-y,1/2+z
_cell_length_a                   8.6966(2)
_cell_length_b                   12.4116(4)
_cell_length_c                   21.1857(7)
_cell_angle_alpha                90
_cell_angle_beta                 96.602(3)
_cell_angle_gamma                90
_cell_volume                     2271.59
_exptl_crystal_colour            colorless
_exptl_crystal_description       needle
_cell_formula_units_Z            8
_exptl_crystal_recrystallization_method 'ethyl acetate'
loop_
_atom_site_label
_atom_site_type_symbol
_atom_site_fract_x
_atom_site_fract_y
_atom_site_fract_z
C13 C 0.4641(2) 0.77880(18) 0.32597(12)
H12 H 0.3711 0.8024 0.3431
H13 H 0.5436 0.8326 0.3370
C14 C 0.5171(3) 0.6720(2) 0.35731(11)
H14 H 0.4309 0.6219 0.3534
H15 H 0.5476 0.6841 0.4022
C15 C 0.6529(2) 0.62122(19) 0.32792(12)
H16 H 0.7474 0.6604 0.3415
H17 H 0.6667 0.5471 0.3419
C16 C 0.6201(2) 0.62510(17) 0.25829(11)
C17 C 0.5135(2) 0.69258(16) 0.22374(11)
C18 C 0.4315(2) 0.77281(17) 0.25450(11)
O3 O 0.34158(16) 0.83685(12) 0.22402(8)
N2 N 0.6875(2) 0.56516(15) 0.21650(10)
C19 C 0.6301(2) 0.58868(18) 0.15455(12)
C20 C 0.5183(2) 0.67013(19) 0.15738(11)
O4 O 0.80659(18) 0.49285(14) 0.23243(11)
H18 H 0.752(4) 0.430(2) 0.2448(17)
C21 C 0.6721(3) 0.5481(2) 0.09815(15)
H19 H 0.7469 0.4947 0.0976
C22 C 0.5976(3) 0.5909(3) 0.04305(16)
H20 H 0.6225 0.5658 0.0041
C23 C 0.4857(3) 0.6708(3) 0.04416(14)
H21 H 0.4373 0.6974 0.0059
C24 C 0.4444(3) 0.7118(2) 0.10053(12)
H22 H 0.3698 0.7655 0.1006
C1 C 1.0436(2) 0.68681(18) 0.17781(11)
H1 H 0.9649 0.6327 0.1664
H2 H 1.1360 0.6652 0.1594
C2 C 0.9873(3) 0.79438(19) 0.14843(11)
H3 H 0.9529 0.7835 0.1037
H4 H 1.0734 0.8446 0.1515
C3 C 0.8546(2) 0.84419(19) 0.18049(11)
H5 H 0.8402 0.9189 0.1678
H6 H 0.7590 0.8056 0.1677
C4 C 0.8941(2) 0.83705(17) 0.25021(10)
C5 C 1.0031(2) 0.76829(16) 0.28234(10)
C6 C 1.0796(2) 0.68870(16) 0.24891(10)
O1 O 1.16863(16) 0.62132(12) 0.27718(8)
N1 N 0.83242(19) 0.89817(14) 0.29371(9)
C7 C 0.8970(2) 0.87262(18) 0.35463(11)
C8 C 1.0063(2) 0.79008(17) 0.34908(11)
O2 O 0.71044(17) 0.96840(13) 0.28091(9)
H7 H 0.754(4) 1.028(3) 0.2635(16)
C9 C 0.8664(3) 0.9149(2) 0.41241(12)
H8 H 0.7939 0.9695 0.4148
C10 C 0.9485(3) 0.8723(3) 0.46625(13)
H9 H 0.9311 0.8987 0.5059
C11 C 1.0579(3) 0.7899(3) 0.46243(13)
H10 H 1.1117 0.7629 0.4995
C12 C 1.0868(3) 0.7484(2) 0.40451(11)
H11 H 1.1587 0.6934 0.4025
loop_
_geom_bond_atom_site_label_1
_geom_bond_atom_site_label_2
_geom_bond_site_symmetry_1
_geom_bond_site_symmetry_2
C1 H1 1_555 1_555
H2 C1 1_555 1_555
C2 C1 1_555 1_555
H3 C2 1_555 1_555
H4 C2 1_555 1_555
C3 C2 1_555 1_555
H5 C3 1_555 1_555
H6 C3 1_555 1_555
C4 C3 1_555 1_555
C5 C4 1_555 1_555
C6 C1 1_555 1_555
O1 C6 1_555 1_555
N1 C4 1_555 1_555
C7 N1 1_555 1_555
C8 C5 1_555 1_555
O2 N1 1_555 1_555
H7 O2 1_555 1_555
C9 C7 1_555 1_555
H8 C9 1_555 1_555
C10 C9 1_555 1_555
H9 C10 1_555 1_555
C11 C10 1_555 1_555
H10 C11 1_555 1_555
C12 C8 1_555 1_555
H11 C12 1_555 1_555
C13 H12 1_555 1_555
H13 C13 1_555 1_555
C14 C13 1_555 1_555
H14 C14 1_555 1_555
H15 C14 1_555 1_555
C15 C14 1_555 1_555
H16 C15 1_555 1_555
H17 C15 1_555 1_555
C16 C15 1_555 1_555
C17 C16 1_555 1_555
C18 C13 1_555 1_555
O3 C18 1_555 1_555
N2 C16 1_555 1_555
C19 N2 1_555 1_555
C20 C17 1_555 1_555
O4 N2 1_555 1_555
H18 O4 1_555 1_555
C21 C19 1_555 1_555
H19 C21 1_555 1_555
C22 C21 1_555 1_555
H20 C22 1_555 1_555
C23 C22 1_555 1_555
H21 C23 1_555 1_555
C24 C20 1_555 1_555
H22 C24 1_555 1_555
C5 C6 1_555 1_555
C7 C8 1_555 1_555
C11 C12 1_555 1_555
C17 C18 1_555 1_555
C19 C20 1_555 1_555
C23 C24 1_555 1_555

#END
