
#######################################################################
#
#                 Cambridge Crystallographic Data Centre
#                                CCDC 
#
#######################################################################
#
# If this CIF has been generated from an entry in the Cambridge 
# Structural Database, then it will include bibliographic, chemical, 
# crystal, experimental, refinement or atomic coordinate data resulting 
# from the CCDC's data processing and validation procedures.
#
#######################################################################

data_LIMSUY
_chemical_formula_moiety         'C45 H64 O6'
_chemical_name_systematic        
"3,3,3',3',5,5'-hexamethyl-2,2',3,3'-tetrahydro-1,1'-spirobi[indene]-6,6'-diyl bis[5-methyl-2-(propan-2-yl)cyclohexyl] biscarbonate"
_symmetry_cell_setting           orthorhombic
_symmetry_space_group_name_H-M   'P 21 21 21'
_symmetry_Int_Tables_number      19
_space_group_name_Hall           'P 2ac 2ab'
loop_
_symmetry_equiv_pos_site_id
_symmetry_equiv_pos_as_xyz
1 x,y,z
2 1/2-x,-y,1/2+z
3 1/2+x,1/2-y,-z
4 -x,1/2+y,1/2-z
_cell_length_a                   8.02988(12)
_cell_length_b                   14.0700(2)
_cell_length_c                   37.5353(6)
_cell_angle_alpha                90
_cell_angle_beta                 90
_cell_angle_gamma                90
_cell_volume                     4240.75
_exptl_crystal_colour            colorless
_exptl_crystal_description       block
_cell_formula_units_Z            4
loop_
_atom_site_label
_atom_site_type_symbol
_atom_site_fract_x
_atom_site_fract_y
_atom_site_fract_z
O1 O 0.8291(3) 0.76443(12) 0.66072(5)
O2 O 0.9343(3) 0.91197(15) 0.65408(5)
O3 O 0.7702(3) 0.86851(13) 0.70022(5)
O4 O 0.9347(2) 0.30414(13) 0.66687(5)
O5 O 0.7638(3) 0.18271(16) 0.65793(6)
O6 O 0.9815(2) 0.20899(13) 0.62109(5)
C1 C 1.0338(3) 0.67230(17) 0.63094(7)
H1 H 1.085144 0.659983 0.653267
C2 C 0.9004(3) 0.73308(17) 0.62849(6)
C3 C 0.8205(4) 0.75478(18) 0.59654(7)
C4 C 0.8833(4) 0.71236(18) 0.56585(7)
H2 H 0.834028 0.726291 0.543445
C5 C 1.0173(3) 0.64984(18) 0.56757(7)
C6 C 1.0919(3) 0.62917(16) 0.59998(6)
C7 C 1.2283(3) 0.55547(18) 0.59672(7)
C8 C 1.2041(4) 0.5216(2) 0.55736(7)
H3 H 1.313776 0.513672 0.545697
H4 H 1.145799 0.459601 0.556962
C9 C 1.1005(4) 0.59664(19) 0.53726(7)
C10 C 1.4047(3) 0.59292(19) 0.60607(8)
H5 H 1.461970 0.615135 0.584254
H6 H 1.396481 0.646897 0.622901
C11 C 1.5036(3) 0.5101(2) 0.62330(8)
C12 C 1.3634(3) 0.44790(18) 0.63727(7)
C13 C 1.2118(3) 0.47421(16) 0.62291(6)
C14 C 1.0678(3) 0.42538(17) 0.63230(6)
H7 H 0.962904 0.442726 0.622584
C15 C 1.0814(3) 0.35104(17) 0.65612(7)
C16 C 1.2326(4) 0.32252(19) 0.67114(7)
C17 C 1.3739(4) 0.37256(19) 0.66115(8)
H8 H 1.479075 0.355171 0.670725
C18 C 0.8538(3) 0.85569(18) 0.67029(7)
C19 C 0.7686(4) 0.96625(18) 0.71400(7)
H9 H 0.770939 1.011672 0.693513
C20 C 0.6084(4) 0.9797(2) 0.73448(8)
H10 H 0.607831 0.933965 0.754869
C21 C 0.6115(4) 1.0816(3) 0.74979(9)
H11 H 0.612303 1.127840 0.729912
H12 H 0.509091 1.092478 0.763915
C22 C 0.7616(4) 1.0983(2) 0.77309(8)
H13 H 0.757242 1.054808 0.793810
H14 H 0.759420 1.164315 0.782164
C23 C 0.9227(4) 1.0818(2) 0.75272(8)
H15 H 0.926600 1.128298 0.732590
C24 C 0.9210(4) 0.9820(2) 0.73685(8)
H16 H 1.022267 0.972657 0.722232
H17 H 0.922611 0.934606 0.756335
C25 C 0.4483(5) 0.9632(3) 0.71218(12)
H18 H 0.358667 1.000658 0.724232
C26 C 0.4574(6) 1.0010(4) 0.67434(12)
H19 H 0.493596 1.067455 0.674750
H20 H 0.347180 0.996670 0.663232
H21 H 0.537191 0.963076 0.660610
C27 C 0.3925(6) 0.8623(4) 0.71321(17)
H22 H 0.482296 0.821112 0.704569
H23 H 0.294271 0.854488 0.697990
H24 H 0.364204 0.844781 0.737748
C28 C 1.0757(5) 1.0977(3) 0.77569(10)
H25 H 1.076566 1.051566 0.795237
H26 H 1.073169 1.162275 0.785486
H27 H 1.176124 1.089634 0.761170
C29 C 0.6706(4) 0.8188(2) 0.59524(8)
H28 H 0.590443 0.799050 0.613482
H29 H 0.618636 0.814500 0.571675
H30 H 0.705106 0.884530 0.599719
C30 C 1.2140(6) 0.6653(2) 0.51661(9)
H31 H 1.296810 0.692416 0.532856
H32 H 1.146643 0.716473 0.506315
H33 H 1.270800 0.630677 0.497484
C31 C 0.9760(5) 0.5526(3) 0.51141(9)
H34 H 1.036279 0.518607 0.492606
H35 H 0.907766 0.602789 0.500743
H36 H 0.904126 0.507955 0.524269
C32 C 1.6042(4) 0.4547(3) 0.59546(10)
H37 H 1.658573 0.400274 0.606898
H38 H 1.688944 0.496363 0.585030
H39 H 1.529429 0.431926 0.576670
C33 C 1.6205(4) 0.5431(3) 0.65275(10)
H40 H 1.557652 0.579830 0.670390
H41 H 1.708318 0.582999 0.642507
H42 H 1.670850 0.487630 0.664314
C34 C 0.8832(4) 0.22619(18) 0.64870(7)
C35 C 0.9500(4) 0.12349(18) 0.59946(7)
H43 H 0.852137 0.088011 0.609198
C36 C 0.9139(4) 0.1557(2) 0.56145(7)
H44 H 1.012405 0.193420 0.553330
C37 C 0.9043(4) 0.0670(2) 0.53760(8)
H45 H 0.807404 0.027995 0.544820
H46 H 0.887220 0.086892 0.512563
C38 C 1.0615(4) 0.0072(2) 0.54006(8)
H47 H 1.049908 -0.049359 0.524578
H48 H 1.157475 0.044778 0.531338
C39 C 1.0949(4) -0.0246(2) 0.57804(8)
H49 H 0.997963 -0.063812 0.586018
C40 C 1.1047(4) 0.06322(19) 0.60222(7)
H50 H 1.119534 0.042535 0.627231
H51 H 1.202816 0.101777 0.595462
C41 C 0.7603(5) 0.2214(2) 0.55845(9)
H52 H 0.777051 0.274088 0.575985
C42 C 0.5965(5) 0.1733(3) 0.56822(12)
H53 H 0.572767 0.122557 0.551052
H54 H 0.506286 0.220164 0.567691
H55 H 0.605108 0.146096 0.592186
C43 C 0.7500(7) 0.2675(3) 0.52173(12)
H56 H 0.856092 0.298614 0.516222
H57 H 0.660423 0.314812 0.521581
H58 H 0.726831 0.218649 0.503787
C44 C 1.2502(5) -0.0851(3) 0.58142(10)
H59 H 1.347188 -0.048453 0.573505
H60 H 1.238606 -0.142027 0.566586
H61 H 1.265281 -0.103907 0.606348
C45 C 1.2401(5) 0.2414(2) 0.69720(10)
H62 H 1.176454 0.257832 0.718608
H63 H 1.356309 0.229173 0.703710
H64 H 1.192346 0.184336 0.686247
loop_
_geom_bond_atom_site_label_1
_geom_bond_atom_site_label_2
_geom_bond_site_symmetry_1
_geom_bond_site_symmetry_2
O1 C2 1_555 1_555
O2 C18 1_555 1_555
O3 C18 1_555 1_555
O4 C15 1_555 1_555
O5 C34 1_555 1_555
O6 C34 1_555 1_555
C1 H1 1_555 1_555
C2 C1 1_555 1_555
C3 C2 1_555 1_555
C4 C3 1_555 1_555
H2 C4 1_555 1_555
C5 C4 1_555 1_555
C6 C1 1_555 1_555
C7 C6 1_555 1_555
C8 C7 1_555 1_555
H3 C8 1_555 1_555
H4 C8 1_555 1_555
C9 C5 1_555 1_555
C10 C7 1_555 1_555
H5 C10 1_555 1_555
H6 C10 1_555 1_555
C11 C10 1_555 1_555
C12 C11 1_555 1_555
C13 C7 1_555 1_555
C14 C13 1_555 1_555
H7 C14 1_555 1_555
C15 C14 1_555 1_555
C16 C15 1_555 1_555
C17 C12 1_555 1_555
H8 C17 1_555 1_555
C18 O1 1_555 1_555
C19 O3 1_555 1_555
H9 C19 1_555 1_555
C20 C19 1_555 1_555
H10 C20 1_555 1_555
C21 C20 1_555 1_555
H11 C21 1_555 1_555
H12 C21 1_555 1_555
C22 C21 1_555 1_555
H13 C22 1_555 1_555
H14 C22 1_555 1_555
C23 C22 1_555 1_555
H15 C23 1_555 1_555
C24 C19 1_555 1_555
H16 C24 1_555 1_555
H17 C24 1_555 1_555
C25 C20 1_555 1_555
H18 C25 1_555 1_555
C26 C25 1_555 1_555
H19 C26 1_555 1_555
H20 C26 1_555 1_555
H21 C26 1_555 1_555
C27 C25 1_555 1_555
H22 C27 1_555 1_555
H23 C27 1_555 1_555
H24 C27 1_555 1_555
C28 C23 1_555 1_555
H25 C28 1_555 1_555
H26 C28 1_555 1_555
H27 C28 1_555 1_555
C29 C3 1_555 1_555
H28 C29 1_555 1_555
H29 C29 1_555 1_555
H30 C29 1_555 1_555
C30 C9 1_555 1_555
H31 C30 1_555 1_555
H32 C30 1_555 1_555
H33 C30 1_555 1_555
C31 C9 1_555 1_555
H34 C31 1_555 1_555
H35 C31 1_555 1_555
H36 C31 1_555 1_555
C32 C11 1_555 1_555
H37 C32 1_555 1_555
H38 C32 1_555 1_555
H39 C32 1_555 1_555
C33 C11 1_555 1_555
H40 C33 1_555 1_555
H41 C33 1_555 1_555
H42 C33 1_555 1_555
C34 O4 1_555 1_555
C35 O6 1_555 1_555
H43 C35 1_555 1_555
C36 C35 1_555 1_555
H44 C36 1_555 1_555
C37 C36 1_555 1_555
H45 C37 1_555 1_555
H46 C37 1_555 1_555
C38 C37 1_555 1_555
H47 C38 1_555 1_555
H48 C38 1_555 1_555
C39 C38 1_555 1_555
H49 C39 1_555 1_555
C40 C35 1_555 1_555
H50 C40 1_555 1_555
H51 C40 1_555 1_555
C41 C36 1_555 1_555
H52 C41 1_555 1_555
C42 C41 1_555 1_555
H53 C42 1_555 1_555
H54 C42 1_555 1_555
H55 C42 1_555 1_555
C43 C41 1_555 1_555
H56 C43 1_555 1_555
H57 C43 1_555 1_555
H58 C43 1_555 1_555
C44 C39 1_555 1_555
H59 C44 1_555 1_555
H60 C44 1_555 1_555
H61 C44 1_555 1_555
C45 C16 1_555 1_555
H62 C45 1_555 1_555
H63 C45 1_555 1_555
H64 C45 1_555 1_555
C5 C6 1_555 1_555
C8 C9 1_555 1_555
C12 C13 1_555 1_555
C16 C17 1_555 1_555
C23 C24 1_555 1_555
C39 C40 1_555 1_555

#END
