
#######################################################################
#
#                 Cambridge Crystallographic Data Centre
#                                CCDC 
#
#######################################################################
#
# If this CIF has been generated from an entry in the Cambridge 
# Structural Database, then it will include bibliographic, chemical, 
# crystal, experimental, refinement or atomic coordinate data resulting 
# from the CCDC's data processing and validation procedures.
#
#######################################################################

data_LIMZAL01
_chemical_formula_moiety         
'C30 H31 N7 S1 2+,2(C30 H30 N7 S1 1+),4(B1 F4 1-)'
_chemical_name_systematic        
'bis(3,7-bis[4-(pyridin-3-yl)piperazin-1-yl]phenothiazin-5-ium) 3-[4-(pyridin-1-ium-3-yl)piperazin-1-yl]-7-[4-(pyridin-3-yl)piperazin-1-yl]phenothiazin-5-ium tetrakis(tetrafluoroborate) unknown solvate'
_symmetry_cell_setting           monoclinic
_symmetry_space_group_name_H-M   'C 2/c'
_symmetry_Int_Tables_number      15
_space_group_name_Hall           '-C 2yn'
loop_
_symmetry_equiv_pos_site_id
_symmetry_equiv_pos_as_xyz
1 x,y,z
2 -x,y,1/2-z
3 1/2+x,1/2+y,z
4 1/2-x,1/2+y,1/2-z
5 -x,-y,-z
6 x,-y,1/2+z
7 1/2-x,1/2-y,-z
8 1/2+x,1/2-y,1/2+z
_cell_length_a                   40.070(18)
_cell_length_b                   16.564(4)
_cell_length_c                   13.753(3)
_cell_angle_alpha                90
_cell_angle_beta                 98.54(2)
_cell_angle_gamma                90
_cell_volume                     9026.93
_exptl_crystal_description       'long, flat needle'
_cell_formula_units_Z            4
_exptl_crystal_recrystallization_method methanol
loop_
_atom_site_label
_atom_site_type_symbol
_atom_site_fract_x
_atom_site_fract_y
_atom_site_fract_z
C1 C 0.7048(3) 0.2531(6) 1.0467(8)
C2 C 0.7159(3) 0.3328(6) 1.0538(9)
H1 H 0.701152 0.377245 1.008674
N1 N 0.7435(3) 0.3583(7) 1.1123(9)
H2 H 0.750437 0.421398 1.114676
C3 C 0.7622(3) 0.3048(9) 1.1674(9)
H3 H 0.784769 0.324681 1.214241
C4 C 0.7535(3) 0.2232(8) 1.1664(9)
H4 H 0.768969 0.180654 1.212480
C5 C 0.7248(3) 0.1974(7) 1.1058(9)
H5 H 0.717884 0.134343 1.104040
N2 N 0.6750(3) 0.2304(5) 0.9900(8)
C6 C 0.6557(4) 0.2860(7) 0.9212(12)
H6 H 0.666766 0.287105 0.853364
H7 H 0.657769 0.346550 0.952410
C7 C 0.6197(4) 0.2641(6) 0.8978(15)
H8 H 0.607535 0.277401 0.961765
H9 H 0.608097 0.302681 0.837956
N3 N 0.6125(3) 0.1801(5) 0.8696(9)
C8 C 0.6330(4) 0.1246(6) 0.9365(10)
H10 H 0.630731 0.064121 0.905055
H11 H 0.622866 0.122861 1.005859
C9 C 0.6690(4) 0.1467(6) 0.9566(16)
H12 H 0.681722 0.106203 1.012635
H13 H 0.680171 0.137810 0.889863
C10 C 0.5841(2) 0.1590(4) 0.8056(7)
C11 C 0.5632(2) 0.2175(4) 0.7534(7)
H14 H 0.568268 0.280855 0.766667
C12 C 0.5358(2) 0.1935(4) 0.6845(6)
C13 C 0.5284(2) 0.1105(4) 0.6654(6)
C14 C 0.5489(3) 0.0534(5) 0.7208(7)
H15 H 0.543436 -0.010095 0.710224
C15 C 0.5760(3) 0.0773(5) 0.7887(8)
H16 H 0.591341 0.031835 0.830115
S1 S 0.51108(14) 0.2700(2) 0.6208(4)
N4 N 0.5026(2) 0.0841(5) 0.5973(6)
C16 C 0.4813(2) 0.2154(4) 0.5380(6)
C17 C 0.4580(2) 0.2603(5) 0.4738(6)
H17 H 0.459498 0.325334 0.476566
C18 C 0.4328(3) 0.2240(5) 0.4058(7)
C19 C 0.4326(3) 0.1384(5) 0.4049(8)
H18 H 0.414124 0.107225 0.353045
C20 C 0.4553(3) 0.0941(5) 0.4682(7)
H19 H 0.453762 0.029083 0.465069
C21 C 0.4804(3) 0.1300(4) 0.5369(6)
N5 N 0.4092(3) 0.2659(4) 0.3453(7)
C22 C 0.4121(3) 0.3529(5) 0.3317(12)
H20 H 0.425892 0.363803 0.270399
H21 H 0.426819 0.378541 0.397494
C23 C 0.3792(3) 0.3955(6) 0.3123(8)
H22 H 0.368095 0.396637 0.380003
H23 H 0.383698 0.457784 0.292369
N6 N 0.3547(2) 0.3593(4) 0.2341(6)
C24 C 0.3510(3) 0.2728(5) 0.2522(9)
H24 H 0.335081 0.245814 0.189453
H25 H 0.338469 0.264728 0.316648
C25 C 0.3847(3) 0.2298(6) 0.2686(9)
H26 H 0.380576 0.167150 0.288179
H27 H 0.395176 0.229646 0.199942
C26 C 0.3254(3) 0.4033(5) 0.1987(6)
C27 C 0.3282(3) 0.4843(6) 0.1719(10)
H28 H 0.352926 0.511579 0.181031
N7 N 0.3018(3) 0.5289(6) 0.1357(10)
C28 C 0.2712(3) 0.4970(7) 0.1239(10)
H29 H 0.249879 0.534406 0.095535
C29 C 0.2655(3) 0.4174(7) 0.1466(10)
H30 H 0.240430 0.391850 0.135650
C30 C 0.2934(3) 0.3718(6) 0.1841(9)
H31 H 0.289884 0.309354 0.202558
C31 C 0.3000(3) 0.6379(6) 0.4065(8)
C32 C 0.2923(4) 0.5568(7) 0.3879(11)
H32 H 0.312893 0.516115 0.381220
N8 N 0.2612(4) 0.5262(8) 0.3778(10)
C33 C 0.2356(4) 0.5755(10) 0.3858(12)
H33 H 0.210288 0.551112 0.375390
C34 C 0.2400(3) 0.6569(9) 0.4069(11)
H34 H 0.218894 0.695033 0.416242
C35 C 0.2726(3) 0.6881(8) 0.4156(11)
H35 H 0.276799 0.751702 0.429676
N9 N 0.3332(3) 0.6675(5) 0.4166(9)
C36 C 0.3613(3) 0.6181(7) 0.4640(13)
H36 H 0.360006 0.615487 0.542553
H37 H 0.358011 0.556765 0.435396
C37 C 0.3947(3) 0.6458(6) 0.4510(14)
H38 H 0.398416 0.633420 0.375536
H39 H 0.413330 0.610853 0.499284
N10 N 0.4010(3) 0.7314(6) 0.4709(10)
C38 C 0.4267(4) 0.7610(6) 0.5367(10)
C39 C 0.3742(3) 0.7791(8) 0.4140(12)
H40 H 0.375957 0.772761 0.335977
H41 H 0.377992 0.842599 0.433288
C40 C 0.3398(3) 0.7539(6) 0.4316(11)
H42 H 0.336733 0.769536 0.506726
H43 H 0.321031 0.787777 0.382236
C41 C 0.4494(3) 0.7151(5) 0.6001(8)
H44 H 0.448019 0.650178 0.593943
C42 C 0.4738(2) 0.7488(4) 0.6714(6)
C43 C 0.4773(2) 0.8331(4) 0.6798(6)
C44 C 0.4561(3) 0.8815(6) 0.6133(7)
H45 H 0.458907 0.946242 0.617999
C45 C 0.4318(3) 0.8495(6) 0.5423(8)
H46 H 0.416597 0.888817 0.490921
S2 S 0.500000 0.6818(4) 0.750000
N11 N 0.500000 0.8689(7) 0.750000
C31A C 0.7000(3) 0.6379(6) 1.0935(8)
C32A C 0.7077(4) 0.5568(7) 1.1121(11)
H32A H 0.687107 0.516115 1.118780
N8A N 0.7388(4) 0.5262(8) 1.1222(10)
C33A C 0.7644(4) 0.5755(10) 1.1142(12)
H33A H 0.789712 0.551112 1.124610
C34A C 0.7600(3) 0.6569(9) 1.0931(11)
H34A H 0.781106 0.695033 1.083758
C35A C 0.7274(3) 0.6881(8) 1.0844(11)
H35A H 0.723201 0.751702 1.070324
N9A N 0.6668(3) 0.6675(5) 1.0834(9)
C36A C 0.6387(3) 0.6181(7) 1.0360(13)
H36A H 0.639994 0.615487 0.957447
H37A H 0.641989 0.556765 1.064604
C37A C 0.6053(3) 0.6458(6) 1.0490(14)
H38A H 0.601584 0.633420 1.124464
H39A H 0.586670 0.610853 1.000716
N10A N 0.5990(3) 0.7314(6) 1.0291(10)
C38A C 0.5733(4) 0.7610(6) 0.9633(10)
C39A C 0.6258(3) 0.7791(8) 1.0860(12)
H40A H 0.624043 0.772761 1.164023
H41A H 0.622008 0.842599 1.066712
C40A C 0.6602(3) 0.7539(6) 1.0684(11)
H42A H 0.663267 0.769536 0.993274
H43A H 0.678969 0.787777 1.117764
C41A C 0.5506(3) 0.7151(5) 0.8999(8)
H44A H 0.551981 0.650178 0.906057
C42A C 0.5262(2) 0.7488(4) 0.8286(6)
C43A C 0.5227(2) 0.8331(4) 0.8202(6)
C44A C 0.5439(3) 0.8815(6) 0.8867(7)
H45A H 0.541093 0.946242 0.882001
C45A C 0.5682(3) 0.8495(6) 0.9577(8)
H46A H 0.583403 0.888817 1.009079
B1 B 0.4242(5) 0.4529(8) 0.6370(14)
F1 F 0.4356(6) 0.5305(7) 0.6550(13)
F2 F 0.4476(6) 0.3979(9) 0.619(2)
F3 F 0.3977(7) 0.4506(12) 0.5583(16)
F4 F 0.4107(7) 0.4306(9) 0.7201(14)
B2 B 0.3376(9) -0.0129(19) 0.327(3)
F5 F 0.3240(16) -0.086(2) 0.292(4)
F6 F 0.3567(16) -0.0240(19) 0.419(3)
F7 F 0.3577(12) 0.021(3) 0.263(4)
F8 F 0.3123(10) 0.042(3) 0.333(3)
B3? B 0.3437(8) -0.0147(14) 0.342(2)
F9? F 0.3764(7) -0.025(3) 0.394(2)
F10? F 0.3409(11) 0.0612(13) 0.300(3)
F11? F 0.3210(9) -0.020(2) 0.409(3)
F12? F 0.3377(14) -0.0788(17) 0.277(3)
loop_
_geom_bond_atom_site_label_1
_geom_bond_atom_site_label_2
_geom_bond_site_symmetry_1
_geom_bond_site_symmetry_2
C1 C2 1_555 1_555
C2 H1 1_555 1_555
N1 C2 1_555 1_555
H2 N1 1_555 1_555
C3 N1 1_555 1_555
H3 C3 1_555 1_555
C4 C3 1_555 1_555
H4 C4 1_555 1_555
C5 C1 1_555 1_555
H5 C5 1_555 1_555
N2 C1 1_555 1_555
C6 N2 1_555 1_555
H6 C6 1_555 1_555
H7 C6 1_555 1_555
C7 C6 1_555 1_555
H8 C7 1_555 1_555
H9 C7 1_555 1_555
N3 C7 1_555 1_555
C8 N3 1_555 1_555
H10 C8 1_555 1_555
H11 C8 1_555 1_555
C9 N2 1_555 1_555
H12 C9 1_555 1_555
H13 C9 1_555 1_555
C10 N3 1_555 1_555
C11 C10 1_555 1_555
H14 C11 1_555 1_555
C12 C11 1_555 1_555
C13 C12 1_555 1_555
C14 C13 1_555 1_555
H15 C14 1_555 1_555
C15 C10 1_555 1_555
H16 C15 1_555 1_555
S1 C12 1_555 1_555
N4 C13 1_555 1_555
C16 S1 1_555 1_555
C17 C16 1_555 1_555
H17 C17 1_555 1_555
C18 C17 1_555 1_555
C19 C18 1_555 1_555
H18 C19 1_555 1_555
C20 C19 1_555 1_555
H19 C20 1_555 1_555
C21 N4 1_555 1_555
N5 C18 1_555 1_555
C22 N5 1_555 1_555
H20 C22 1_555 1_555
H21 C22 1_555 1_555
C23 C22 1_555 1_555
H22 C23 1_555 1_555
H23 C23 1_555 1_555
N6 C23 1_555 1_555
C24 N6 1_555 1_555
H24 C24 1_555 1_555
H25 C24 1_555 1_555
C25 N5 1_555 1_555
H26 C25 1_555 1_555
H27 C25 1_555 1_555
C26 N6 1_555 1_555
C27 C26 1_555 1_555
H28 C27 1_555 1_555
N7 C27 1_555 1_555
C28 N7 1_555 1_555
H29 C28 1_555 1_555
C29 C28 1_555 1_555
H30 C29 1_555 1_555
C30 C26 1_555 1_555
H31 C30 1_555 1_555
C31 C32 1_555 1_555
C32 H32 1_555 1_555
N8 C32 1_555 1_555
C33 N8 1_555 1_555
H33 C33 1_555 1_555
C34 C33 1_555 1_555
H34 C34 1_555 1_555
C35 C31 1_555 1_555
H35 C35 1_555 1_555
N9 C31 1_555 1_555
C36 N9 1_555 1_555
H36 C36 1_555 1_555
H37 C36 1_555 1_555
C37 C36 1_555 1_555
H38 C37 1_555 1_555
H39 C37 1_555 1_555
N10 C37 1_555 1_555
C38 N10 1_555 1_555
C39 N10 1_555 1_555
H40 C39 1_555 1_555
H41 C39 1_555 1_555
C40 N9 1_555 1_555
H42 C40 1_555 1_555
H43 C40 1_555 1_555
C41 C38 1_555 1_555
H44 C41 1_555 1_555
C42 C41 1_555 1_555
C43 C42 1_555 1_555
C44 C43 1_555 1_555
H45 C44 1_555 1_555
C45 C38 1_555 1_555
H46 C45 1_555 1_555
S2 C42 1_555 1_555
N11 C43 1_555 1_555
B1 F1 1_555 1_555
F2 B1 1_555 1_555
F3 B1 1_555 1_555
F4 B1 1_555 1_555
B2 F5 1_555 1_555
F6 B2 1_555 1_555
F7 B2 1_555 1_555
F8 B2 1_555 1_555
C31A C32A 1_555 1_555
C32A H32A 1_555 1_555
N8A C32A 1_555 1_555
C33A N8A 1_555 1_555
H33A C33A 1_555 1_555
C34A C33A 1_555 1_555
H34A C34A 1_555 1_555
C35A C31A 1_555 1_555
H35A C35A 1_555 1_555
N9A C31A 1_555 1_555
C36A N9A 1_555 1_555
H36A C36A 1_555 1_555
H37A C36A 1_555 1_555
C37A C36A 1_555 1_555
H38A C37A 1_555 1_555
H39A C37A 1_555 1_555
N10A C37A 1_555 1_555
C38A N10A 1_555 1_555
C39A N10A 1_555 1_555
H40A C39A 1_555 1_555
H41A C39A 1_555 1_555
C40A N9A 1_555 1_555
H42A C40A 1_555 1_555
H43A C40A 1_555 1_555
C41A C38A 1_555 1_555
H44A C41A 1_555 1_555
C42A S2 1_555 1_555
C43A N11 1_555 1_555
C44A C43A 1_555 1_555
H45A C44A 1_555 1_555
C45A C38A 1_555 1_555
H46A C45A 1_555 1_555
C4 C5 1_555 1_555
C8 C9 1_555 1_555
C14 C15 1_555 1_555
C16 C21 1_555 1_555
C20 C21 1_555 1_555
C24 C25 1_555 1_555
C29 C30 1_555 1_555
C34 C35 1_555 1_555
C39 C40 1_555 1_555
C44 C45 1_555 1_555
C34A C35A 1_555 1_555
C39A C40A 1_555 1_555
C41A C42A 1_555 1_555
C42A C43A 1_555 1_555
C44A C45A 1_555 1_555

#END
