
#######################################################################
#
#                 Cambridge Crystallographic Data Centre
#                                CCDC 
#
#######################################################################
#
# If this CIF has been generated from an entry in the Cambridge 
# Structural Database, then it will include bibliographic, chemical, 
# crystal, experimental, refinement or atomic coordinate data resulting 
# from the CCDC's data processing and validation procedures.
#
#######################################################################

data_LINJUQ
_chemical_formula_moiety         'C20 H30 O4,H2 O1'
_chemical_name_systematic        
'14-hydroxy-16-oxobeyeran-18-oic acid monohydrate'
_symmetry_cell_setting           orthorhombic
_symmetry_space_group_name_H-M   'P 21 21 21'
_symmetry_Int_Tables_number      19
_space_group_name_Hall           'P 2ac 2ab'
loop_
_symmetry_equiv_pos_site_id
_symmetry_equiv_pos_as_xyz
1 x,y,z
2 1/2-x,-y,1/2+z
3 -x,1/2+y,1/2-z
4 1/2+x,1/2-y,-z
_cell_length_a                   7.6058(10)
_cell_length_b                   9.5960(9)
_cell_length_c                   25.628(3)
_cell_angle_alpha                90
_cell_angle_beta                 90
_cell_angle_gamma                90
_cell_volume                     1870.47
_exptl_crystal_colour            colorless
_exptl_crystal_description       needle
_cell_formula_units_Z            4
loop_
_atom_site_label
_atom_site_type_symbol
_atom_site_fract_x
_atom_site_fract_y
_atom_site_fract_z
O1 O 0.2375(6) 1.1714(4) 0.69153(15)
O2 O 0.0284(5) 1.0184(4) 0.67349(17)
H1 H -0.0134 1.0853 0.6579
O3 O 0.2333(6) 0.3211(4) 0.60036(14)
H2 H 0.2238 0.2855 0.6293
O4 O 0.3164(6) 0.4986(4) 0.46858(14)
C1 C 0.1813(7) 1.0529(5) 0.69328(19)
C2 C 0.2768(7) 0.9330(5) 0.72010(18)
C3 C 0.1648(9) 0.8985(6) 0.7688(2)
H3 H 0.1561 0.9796 0.7906
H4 H 0.2195 0.8243 0.7880
H5 H 0.0493 0.8702 0.7581
C4 C 0.4582(7) 0.9795(6) 0.73813(18)
H6 H 0.4461 1.0660 0.7574
H7 H 0.5046 0.9101 0.7619
C5 C 0.5897(7) 1.0016(6) 0.6946(2)
H8 H 0.7031 1.0259 0.7093
H9 H 0.5514 1.0781 0.6727
C6 C 0.6080(7) 0.8692(6) 0.6615(2)
H10 H 0.6612 0.7967 0.6827
H11 H 0.6868 0.8882 0.6326
C7 C 0.4321(6) 0.8148(5) 0.63968(18)
C8 C 0.3679(8) 0.9155(5) 0.5971(2)
H12 H 0.2519 0.8890 0.5862
H13 H 0.4464 0.9117 0.5678
H14 H 0.3653 1.0086 0.6108
C9 C 0.2983(6) 0.7997(4) 0.68549(17)
H15 H 0.3532 0.7316 0.7089
C10 C 0.1293(7) 0.7285(5) 0.6676(2)
H16 H 0.0447 0.7273 0.6959
H17 H 0.0785 0.7797 0.6386
C11 C 0.1703(7) 0.5801(5) 0.6507(2)
H18 H 0.0625 0.5358 0.6391
H19 H 0.2135 0.5284 0.6805
C12 C 0.3062(7) 0.5715(5) 0.60690(18)
C13 C 0.4690(6) 0.6642(5) 0.61808(18)
H20 H 0.5318 0.6164 0.6463
C14 C 0.5951(8) 0.6597(5) 0.5715(2)
H21 H 0.7052 0.7035 0.5812
H22 H 0.5449 0.7125 0.5429
C15 C 0.6315(7) 0.5099(6) 0.5532(2)
H23 H 0.7099 0.4652 0.5779
H24 H 0.6911 0.5131 0.5197
C16 C 0.4639(8) 0.4210(5) 0.54769(19)
C17 C 0.5093(9) 0.2769(6) 0.5254(2)
H25 H 0.4031 0.2248 0.5200
H26 H 0.5837 0.2279 0.5494
H27 H 0.5695 0.2879 0.4927
C18 C 0.3345(7) 0.5036(5) 0.51560(19)
C19 C 0.2270(7) 0.5951(5) 0.55179(18)
H28 H 0.1040 0.5683 0.5510
H29 H 0.2366 0.6923 0.5417
C20 C 0.3742(7) 0.4200(5) 0.60090(19)
H30 H 0.4588 0.3976 0.6285
O5 O -0.1105(6) 1.2041(5) 0.60952(16)
H31 H -0.0219 1.2571 0.6055
H32 H -0.1337 1.1749 0.5790
loop_
_geom_bond_atom_site_label_1
_geom_bond_atom_site_label_2
_geom_bond_site_symmetry_1
_geom_bond_site_symmetry_2
O1 C1 1_555 1_555
O2 H1 1_555 1_555
O3 H2 1_555 1_555
O4 C18 1_555 1_555
C1 O2 1_555 1_555
C2 C1 1_555 1_555
C3 C2 1_555 1_555
H3 C3 1_555 1_555
H4 C3 1_555 1_555
H5 C3 1_555 1_555
C4 C2 1_555 1_555
H6 C4 1_555 1_555
H7 C4 1_555 1_555
C5 C4 1_555 1_555
H8 C5 1_555 1_555
H9 C5 1_555 1_555
C6 C5 1_555 1_555
H10 C6 1_555 1_555
H11 C6 1_555 1_555
C7 C6 1_555 1_555
C8 C7 1_555 1_555
H12 C8 1_555 1_555
H13 C8 1_555 1_555
H14 C8 1_555 1_555
C9 C2 1_555 1_555
H15 C9 1_555 1_555
C10 C9 1_555 1_555
H16 C10 1_555 1_555
H17 C10 1_555 1_555
C11 C10 1_555 1_555
H18 C11 1_555 1_555
H19 C11 1_555 1_555
C12 C11 1_555 1_555
C13 C7 1_555 1_555
H20 C13 1_555 1_555
C14 C13 1_555 1_555
H21 C14 1_555 1_555
H22 C14 1_555 1_555
C15 C14 1_555 1_555
H23 C15 1_555 1_555
H24 C15 1_555 1_555
C16 C15 1_555 1_555
C17 C16 1_555 1_555
H25 C17 1_555 1_555
H26 C17 1_555 1_555
H27 C17 1_555 1_555
C18 C16 1_555 1_555
C19 C12 1_555 1_555
H28 C19 1_555 1_555
H29 C19 1_555 1_555
C20 O3 1_555 1_555
H30 C20 1_555 1_555
O5 H31 1_555 1_555
H32 O5 1_555 1_555
C7 C9 1_555 1_555
C12 C13 1_555 1_555
C12 C20 1_555 1_555
C16 C20 1_555 1_555
C18 C19 1_555 1_555

#END
