
#######################################################################
#
#                 Cambridge Crystallographic Data Centre
#                                CCDC 
#
#######################################################################
#
# If this CIF has been generated from an entry in the Cambridge 
# Structural Database, then it will include bibliographic, chemical, 
# crystal, experimental, refinement or atomic coordinate data resulting 
# from the CCDC's data processing and validation procedures.
#
#######################################################################

data_LINPED
_chemical_name_common            
5-Ethoxymethyl-1'-ethyl-1,5'-methylenedi-2,4(1H,3H)-pyrimidinedione
_chemical_formula_moiety         'C14 H18 N4 O5'
_chemical_name_systematic        
5-Ethoxymethyl-1-(1-ethyl-2,4-dioxo-5-(pyrimidinyl)methyl)uracil
_symmetry_cell_setting           triclinic
_symmetry_space_group_name_H-M   'P -1'
_symmetry_Int_Tables_number      2
_space_group_name_Hall           '-P 1'
loop_
_symmetry_equiv_pos_site_id
_symmetry_equiv_pos_as_xyz
1 x,y,z
2 -x,-y,-z
_cell_length_a                   9.326(2)
_cell_length_b                   11.991(3)
_cell_length_c                   7.964(1)
_cell_angle_alpha                94.58(2)
_cell_angle_beta                 105.39(2)
_cell_angle_gamma                113.84(3)
_cell_volume                     767.517
_cell_formula_units_Z            2
loop_
_atom_site_label
_atom_site_type_symbol
_atom_site_fract_x
_atom_site_fract_y
_atom_site_fract_z
N1 N 0.3659(2) 0.8898(1) 0.6150(2)
C1 C 0.5234(2) 0.9201(1) 0.7236(2)
C2 C 0.6320(2) 0.8925(1) 0.6708(2)
C3 C 0.5830(2) 0.8300(1) 0.4882(2)
N2 N 0.4244(2) 0.8048(1) 0.3857(2)
C4 C 0.3092(2) 0.8286(1) 0.4390(2)
C5 C 0.8014(3) 0.9241(2) 0.7940(3)
O1 O 0.8101(2) 0.8206(1) 0.8643(2)
C6 C 0.7393(3) 0.7975(2) 1.0033(3)
C7 C 0.7432(5) 0.6827(3) 1.0597(5)
O2 O 0.6707(2) 0.8016(1) 0.4208(2)
O3 O 0.1703(1) 0.8002(1) 0.3406(2)
C8 C 0.2472(2) 0.9132(2) 0.6864(3)
C9 C 0.1324(2) 0.7970(1) 0.7275(2)
C10 C -0.0218(2) 0.7267(2) 0.6169(3)
N3 N -0.1263(2) 0.6159(1) 0.6448(2)
C11 C -0.0775(2) 0.5714(1) 0.7910(2)
N4 N 0.0793(2) 0.6453(1) 0.9064(2)
C12 C 0.1923(2) 0.7564(1) 0.8846(2)
C13 C -0.2896(2) 0.5379(2) 0.5097(3)
C14 C -0.2779(5) 0.4529(3) 0.3710(4)
O4 O -0.1677(1) 0.4716(1) 0.8175(2)
O5 O 0.3328(1) 0.8110(1) 0.9953(1)
H1 H 0.545(2) 0.960(2) 0.844(3)
H2 H 0.392(3) 0.773(2) 0.267(3)
H3 H 0.836(3) 0.994(2) 0.899(3)
H4 H 0.877(3) 0.946(2) 0.721(3)
H5 H 0.619(3) 0.802(2) 0.961(3)
H6 H 0.819(3) 0.880(2) 1.108(3)
H7 H 0.692(3) 0.665(2) 1.149(4)
H8 H 0.869(3) 0.695(2) 1.111(3)
H9 H 0.675(3) 0.597(2) 0.950(4)
H10 H 0.181(2) 0.939(2) 0.590(3)
H11 H 0.310(2) 0.983(2) 0.795(3)
H12 H -0.070(2) 0.752(2) 0.507(3)
H13 H 0.117(3) 0.610(2) 1.011(3)
H14 H -0.333(2) 0.597(2) 0.450(3)
H15 H -0.350(3) 0.495(2) 0.579(3)
H16 H -0.232(3) 0.400(2) 0.429(3)
H17 H -0.209(3) 0.502(2) 0.303(3)
H18 H -0.391(3) 0.400(2) 0.285(4)
loop_
_geom_bond_atom_site_label_1
_geom_bond_atom_site_label_2
_geom_bond_site_symmetry_1
_geom_bond_site_symmetry_2
N1 C1 1_555 1_555
C1 C2 1_555 1_555
C2 C3 1_555 1_555
C3 N2 1_555 1_555
N2 C4 1_555 1_555
C4 N1 1_555 1_555
C5 C2 1_555 1_555
O1 C5 1_555 1_555
C6 O1 1_555 1_555
C7 C6 1_555 1_555
O2 C3 1_555 1_555
O3 C4 1_555 1_555
C8 N1 1_555 1_555
C9 C8 1_555 1_555
C10 C9 1_555 1_555
N3 C10 1_555 1_555
C11 N3 1_555 1_555
N4 C11 1_555 1_555
C12 C9 1_555 1_555
C13 N3 1_555 1_555
C14 C13 1_555 1_555
O4 C11 1_555 1_555
O5 C12 1_555 1_555
H1 C1 1_555 1_555
H2 N2 1_555 1_555
H3 C5 1_555 1_555
H4 C5 1_555 1_555
H5 C6 1_555 1_555
H6 C6 1_555 1_555
H7 C7 1_555 1_555
H8 C7 1_555 1_555
H9 C7 1_555 1_555
H10 C8 1_555 1_555
H11 C8 1_555 1_555
H12 C10 1_555 1_555
H13 N4 1_555 1_555
H14 C13 1_555 1_555
H15 C13 1_555 1_555
H16 C14 1_555 1_555
H17 C14 1_555 1_555
H18 C14 1_555 1_555
N4 C12 1_555 1_555

#END
