
#######################################################################
#
#                 Cambridge Crystallographic Data Centre
#                                CCDC 
#
#######################################################################
#
# If this CIF has been generated from an entry in the Cambridge 
# Structural Database, then it will include bibliographic, chemical, 
# crystal, experimental, refinement or atomic coordinate data resulting 
# from the CCDC's data processing and validation procedures.
#
#######################################################################

data_LINPOQ
_chemical_formula_moiety         'C30 H20 N2 O3 S1'
_chemical_name_systematic        
2-(10H-phenoxazin-10-yl)-10-phenyl-5-phenothiazine-5,5(10H)-dione
_symmetry_cell_setting           monoclinic
_symmetry_space_group_name_H-M   'P 21/n'
_symmetry_Int_Tables_number      14
_space_group_name_Hall           '-P 2yn'
loop_
_symmetry_equiv_pos_site_id
_symmetry_equiv_pos_as_xyz
1 x,y,z
2 1/2-x,1/2+y,1/2-z
3 -x,-y,-z
4 1/2+x,1/2-y,1/2+z
_cell_length_a                   7.74804(7)
_cell_length_b                   30.9577(2)
_cell_length_c                   9.60423(7)
_cell_angle_alpha                90
_cell_angle_beta                 100.8987(8)
_cell_angle_gamma                90
_cell_volume                     2262.13
_exptl_crystal_colour            'yellow / colorless'
_exptl_crystal_description       block
_cell_formula_units_Z            4
loop_
_atom_site_label
_atom_site_type_symbol
_atom_site_fract_x
_atom_site_fract_y
_atom_site_fract_z
S1 S 0.37206(3) 0.17371(2) 0.55225(2)
O1 O 0.22007(12) -0.05428(3) 0.02162(9)
O2 O 0.48030(11) 0.16178(3) 0.68561(8)
O3 O 0.44339(11) 0.20456(3) 0.46596(9)
N1 N 0.03063(13) 0.16339(3) 0.34479(10)
N2 N 0.18860(13) 0.02285(3) 0.17445(10)
C1 C 0.22919(15) 0.05914(4) 0.26758(11)
C2 C 0.17175(14) -0.01804(4) 0.23542(12)
C3 C 0.30701(14) 0.12801(3) 0.44997(11)
C4 C -0.42213(17) 0.14162(4) 0.14799(13)
C5 C 0.10949(16) -0.06311(4) 0.42610(13)
C6 C 0.25073(15) -0.01439(4) -0.03382(12)
C7 C 0.16927(14) 0.19249(4) 0.57721(11)
C8 C 0.23415(15) 0.02418(4) 0.03858(12)
C9 C 0.41900(15) 0.09236(4) 0.46437(11)
C10 C 0.15024(14) 0.12925(3) 0.34873(11)
C11 C -0.42433(18) 0.16521(4) 0.02520(13)
C12 C 0.31060(16) 0.06293(4) -0.16111(12)
C13 C 0.02453(14) 0.18887(3) 0.46484(11)
C14 C 0.11436(15) 0.09380(4) 0.25510(11)
C15 C 0.38193(16) 0.05783(4) 0.37292(12)
C16 C -0.12421(15) 0.16347(4) 0.23356(11)
C17 C -0.13093(15) 0.21021(4) 0.48107(12)
C18 C 0.12770(16) -0.10003(4) 0.34832(13)
C19 C 0.29751(17) -0.01449(4) -0.16566(13)
C20 C -0.27193(16) 0.14037(4) 0.25264(12)
C21 C 0.18761(15) -0.05554(4) 0.15775(12)
C22 C -0.12494(16) 0.18757(4) 0.11189(12)
C23 C 0.16778(16) -0.09600(4) 0.21377(13)
C24 C -0.27652(18) 0.18844(4) 0.00729(12)
C25 C -0.13978(16) 0.23142(4) 0.60670(13)
C26 C 0.32800(17) 0.02421(4) -0.22961(12)
C27 C 0.15829(16) 0.21333(4) 0.70335(12)
C28 C 0.00190(17) 0.23280(4) 0.71935(14)
C29 C 0.26292(16) 0.06270(4) -0.02849(12)
C30 C 0.13182(16) -0.02244(4) 0.37048(13)
H1 H 0.011(2) 0.0935(5) 0.1860(16)
H2 H -0.531(2) 0.1674(5) -0.0425(19)
H3 H -0.019(2) 0.2023(5) 0.1008(16)
H4 H 0.457(2) 0.0334(5) 0.3823(15)
H5 H -0.526(2) 0.1260(6) 0.1682(17)
H6 H -0.235(2) 0.2073(5) 0.4140(18)
H7 H -0.2775(19) 0.1244(5) 0.3387(15)
H8 H 0.1175(18) 0.0017(6) 0.4305(15)
H9 H 0.262(2) 0.2145(5) 0.7801(17)
H10 H 0.519(2) 0.0926(5) 0.5426(17)
H11 H -0.007(2) 0.2458(5) 0.8025(19)
H12 H -0.264(2) 0.2039(5) -0.0784(19)
H13 H 0.354(2) 0.0237(5) -0.3225(17)
H14 H -0.256(3) 0.2463(6) 0.6148(19)
H15 H 0.082(2) -0.0651(5) 0.5310(18)
H16 H 0.250(2) 0.0899(5) 0.0147(16)
H17 H 0.116(2) -0.1298(5) 0.3890(16)
H18 H 0.306(2) -0.0433(5) -0.2139(16)
H19 H 0.335(2) 0.0903(5) -0.2094(18)
H20 H 0.178(2) -0.1199(6) 0.1591(18)
loop_
_geom_bond_atom_site_label_1
_geom_bond_atom_site_label_2
_geom_bond_site_symmetry_1
_geom_bond_site_symmetry_2
S1 O2 1_555 1_555
O1 C6 1_555 1_555
O3 S1 1_555 1_555
N1 C10 1_555 1_555
N2 C1 1_555 1_555
C1 C14 1_555 1_555
C2 N2 1_555 1_555
C3 S1 1_555 1_555
C4 C11 1_555 1_555
C5 C18 1_555 1_555
C6 C8 1_555 1_555
C7 S1 1_555 1_555
C8 N2 1_555 1_555
C9 C3 1_555 1_555
C10 C3 1_555 1_555
C11 C24 1_555 1_555
C12 C26 1_555 1_555
C13 N1 1_555 1_555
C14 C10 1_555 1_555
C15 C1 1_555 1_555
C16 N1 1_555 1_555
C17 C13 1_555 1_555
C18 C23 1_555 1_555
C19 C6 1_555 1_555
C20 C4 1_555 1_555
C21 O1 1_555 1_555
C22 C16 1_555 1_555
C23 C21 1_555 1_555
C24 C22 1_555 1_555
C25 C17 1_555 1_555
C26 C19 1_555 1_555
C27 C7 1_555 1_555
C28 C25 1_555 1_555
C29 C8 1_555 1_555
C30 C2 1_555 1_555
H1 C14 1_555 1_555
H2 C11 1_555 1_555
H3 C22 1_555 1_555
H4 C15 1_555 1_555
H5 C4 1_555 1_555
H6 C17 1_555 1_555
H7 C20 1_555 1_555
H8 C30 1_555 1_555
H9 C27 1_555 1_555
H10 C9 1_555 1_555
H11 C28 1_555 1_555
H12 C24 1_555 1_555
H13 C26 1_555 1_555
H14 C25 1_555 1_555
H15 C5 1_555 1_555
H16 C29 1_555 1_555
H17 C18 1_555 1_555
H18 C19 1_555 1_555
H19 C12 1_555 1_555
H20 C23 1_555 1_555
C2 C21 1_555 1_555
C5 C30 1_555 1_555
C7 C13 1_555 1_555
C9 C15 1_555 1_555
C12 C29 1_555 1_555
C16 C20 1_555 1_555
C27 C28 1_555 1_555

#END
