
#######################################################################
#
#                 Cambridge Crystallographic Data Centre
#                                CCDC 
#
#######################################################################
#
# If this CIF has been generated from an entry in the Cambridge 
# Structural Database, then it will include bibliographic, chemical, 
# crystal, experimental, refinement or atomic coordinate data resulting 
# from the CCDC's data processing and validation procedures.
#
#######################################################################

data_LINQEH
_chemical_name_common            
'(2.2.2)cryptand-potassium bis(9-{2-[oxido(2,4,6-trimethylphenyl)boranyl]phenyl}-4a,9,9a,10-tetrahydroanthracen-9-yl radical)-(tetrahydrofuran)-tri-potassium tetrahydrofuran solvate'
_chemical_formula_moiety         
'C62 H58 B2 K3 O3 1-,C18 H36 K1 N2 O6 1+,3(C4 H8 O1)'
_chemical_name_systematic        
'(4,7,13,16,21,24-hexaoxa-1,10-diazabicyclo[8.8.8]hexacosane)-potassium bis(9-{2-[oxido(2,4,6-trimethylphenyl)boranyl]phenyl}-4a,9,9a,10-tetrahydroanthracen-9-yl radical)-(tetrahydrofuran)-tri-potassium tetrahydrofuran solvate'
_symmetry_cell_setting           triclinic
_symmetry_space_group_name_H-M   'P -1'
_symmetry_Int_Tables_number      2
_space_group_name_Hall           '-P 1'
loop_
_symmetry_equiv_pos_site_id
_symmetry_equiv_pos_as_xyz
1 x,y,z
2 -x,-y,-z
_cell_length_a                   16.1610(11)
_cell_length_b                   16.2208(14)
_cell_length_c                   17.6545(18)
_cell_angle_alpha                104.894(8)
_cell_angle_beta                 103.118(7)
_cell_angle_gamma                91.506(6)
_cell_volume                     4338.19
_exptl_crystal_colour            'dark red'
_exptl_crystal_description       block
_cell_formula_units_Z            2
loop_
_atom_site_label
_atom_site_type_symbol
_atom_site_fract_x
_atom_site_fract_y
_atom_site_fract_z
K1 K 0.79835(7) 0.57291(7) 0.13219(7)
K2 K 0.92852(7) 0.69673(7) 0.32611(7)
K3 K 0.72822(7) 0.78186(7) 0.23882(7)
O1 O 0.8608(2) 0.7323(2) 0.18225(18)
O2 O 0.7691(2) 0.6407(2) 0.28300(19)
O3 O 0.9352(3) 0.4792(4) 0.1428(5)
C1 C 0.9095(3) 0.8118(3) 0.0870(3)
C2 C 0.9797(4) 0.8608(3) 0.0829(3)
H1 H 1.0282 0.8711 0.1254
C3 C 0.9807(5) 0.8947(4) 0.0188(4)
H2 H 1.0291 0.9264 0.0177
C4 C 0.9083(5) 0.8806(4) -0.0438(4)
H3 H 0.9076 0.9024 -0.0878
C5 C 0.8380(5) 0.8347(4) -0.0406(3)
H4 H 0.7897 0.8265 -0.0829
C6 C 0.8346(4) 0.7991(3) 0.0230(3)
C7 C 0.7557(4) 0.7458(4) 0.0177(3)
C8 C 0.7521(3) 0.6564(3) -0.0115(3)
C9 C 0.8212(4) 0.6136(3) -0.0337(3)
H5 H 0.8707 0.6453 -0.0319
C10 C 0.8165(5) 0.5249(4) -0.0582(4)
H6 H 0.8633 0.4981 -0.0720
C11 C 0.7436(5) 0.4756(4) -0.0625(5)
H7 H 0.7414 0.4161 -0.0789
C12 C 0.6752(4) 0.5146(4) -0.0424(4)
H8 H 0.6264 0.4812 -0.0452
C13 C 0.6763(4) 0.6031(4) -0.0180(3)
C14 C 0.5998(4) 0.6451(4) -0.0036(4)
H9 H 0.5684 0.6103 0.0195
H10 H 0.5639 0.6462 -0.0554
C15 C 0.6146(4) 0.7329(4) 0.0496(3)
C16 C 0.5566(5) 0.7694(6) 0.0903(4)
H11 H 0.5085 0.7354 0.0883
C17 C 0.5656(5) 0.8548(6) 0.1345(4)
H12 H 0.5250 0.8768 0.1622
C18 C 0.6362(6) 0.9065(5) 0.1366(4)
H13 H 0.6420 0.9644 0.1639
C19 C 0.6993(4) 0.8713(4) 0.0973(3)
H14 H 0.7473 0.9059 0.1001
C20 C 0.6904(4) 0.7844(4) 0.0540(3)
C21 C 1.0104(3) 0.7987(3) 0.2328(3)
C22 C 1.0188(3) 0.8652(3) 0.3026(3)
C23 C 1.0869(3) 0.8720(3) 0.3688(3)
H15 H 1.0911 0.9166 0.4151
C24 C 1.1487(3) 0.8145(3) 0.3680(3)
C25 C 1.1414(3) 0.7512(3) 0.2965(3)
H16 H 1.1831 0.7130 0.2935
C26 C 1.0745(3) 0.7426(3) 0.2296(3)
C27 C 1.0716(4) 0.6737(3) 0.1534(3)
H17 H 1.1173 0.6382 0.1629
H18 H 1.0776 0.6994 0.1115
H19 H 1.0180 0.6394 0.1372
C28 C 1.2212(4) 0.8223(4) 0.4408(4)
H20 H 1.2293 0.8801 0.4746
H21 H 1.2725 0.8077 0.4236
H22 H 1.2081 0.7840 0.4707
C29 C 0.9538(3) 0.9303(3) 0.3079(3)
H23 H 0.9385 0.9458 0.2579
H24 H 0.9776 0.9804 0.3512
H25 H 0.9039 0.9062 0.3181
C30 C 0.6783(3) 0.6022(3) 0.3749(3)
C31 C 0.6149(4) 0.5408(4) 0.3731(4)
H26 H 0.6058 0.4896 0.3326
C32 C 0.5650(4) 0.5523(4) 0.4284(4)
H27 H 0.5223 0.5104 0.4237
C33 C 0.5791(4) 0.6264(4) 0.4903(4)
H28 H 0.5468 0.6348 0.5286
C34 C 0.6424(4) 0.6885(4) 0.4952(3)
H29 H 0.6512 0.7390 0.5366
C35 C 0.6928(3) 0.6773(3) 0.4400(3)
C36 C 0.7602(3) 0.7485(3) 0.4521(3)
C37 C 0.8479(3) 0.7373(3) 0.4769(3)
C38 C 0.8798(4) 0.6587(3) 0.4866(3)
H30 H 0.8411 0.6126 0.4806
C39 C 0.9652(4) 0.6485(4) 0.5045(4)
H31 H 0.9827 0.5956 0.5096
C40 C 1.0264(4) 0.7145(4) 0.5151(4)
H32 H 1.0842 0.7065 0.5264
C41 C 0.9982(4) 0.7932(4) 0.5083(3)
H33 H 1.0382 0.8389 0.5165
C42 C 0.9125(3) 0.8053(3) 0.4898(3)
C43 C 0.8844(3) 0.8916(3) 0.4904(3)
H34 H 0.9256 0.9228 0.4734
H35 H 0.8844 0.9222 0.5454
C44 C 0.7978(3) 0.8920(3) 0.4373(3)
C45 C 0.7745(4) 0.9596(3) 0.4063(3)
H36 H 0.8158 1.0035 0.4127
C46 C 0.6913(4) 0.9649(4) 0.3658(3)
H37 H 0.6776 1.0104 0.3437
C47 C 0.6286(4) 0.9005(4) 0.3587(3)
H38 H 0.5720 0.9046 0.3345
C48 C 0.6510(3) 0.8309(3) 0.3876(3)
H39 H 0.6088 0.7876 0.3806
C49 C 0.7356(3) 0.8225(3) 0.4276(3)
C50 C 0.7074(3) 0.4880(3) 0.2394(3)
C51 C 0.6444(3) 0.4723(3) 0.1674(3)
C52 C 0.6413(3) 0.3969(3) 0.1059(3)
H40 H 0.5990 0.3868 0.0582
C53 C 0.6993(4) 0.3378(4) 0.1145(4)
C54 C 0.7589(4) 0.3515(3) 0.1859(4)
H41 H 0.7970 0.3105 0.1932
C55 C 0.7638(4) 0.4257(3) 0.2480(3)
C56 C 0.8312(4) 0.4383(4) 0.3267(4)
H42 H 0.8627 0.4932 0.3400
H43 H 0.8695 0.3941 0.3205
H44 H 0.8041 0.4355 0.3691
C57 C 0.6978(4) 0.2569(4) 0.0449(4)
H45 H 0.6427 0.2461 0.0079
H46 H 0.7095 0.2087 0.0665
H47 H 0.7405 0.2657 0.0170
C58 C 0.5780(4) 0.5339(4) 0.1553(4)
H48 H 0.6049 0.5871 0.1548
H49 H 0.5496 0.5437 0.1987
H50 H 0.5371 0.5102 0.1049
C59 C 0.9953(9) 0.4735(9) 0.2085(9)
H51 H 0.9719 0.4823 0.2557
H52 H 1.0439 0.5151 0.2202
C60 C 1.0203(7) 0.3816(10) 0.1829(8)
H53 H 1.0794 0.3825 0.1796
H54 H 1.0139 0.3514 0.2224
C61 C 0.9628(7) 0.3366(7) 0.1013(9)
H55 H 0.9940 0.3008 0.0665
H56 H 0.9154 0.3022 0.1063
C62 C 0.9345(6) 0.4095(6) 0.0723(7)
H57 H 0.9726 0.4252 0.0420
H58 H 0.8775 0.3959 0.0373
B1 B 0.9192(4) 0.7773(4) 0.1654(3)
B2 B 0.7236(4) 0.5845(4) 0.3011(4)
K4 K 0.62953(7) 0.86482(7) -0.25445(6)
O4 O 0.5984(2) 0.9199(2) -0.1011(2)
O5 O 0.7015(2) 1.0291(2) -0.1483(2)
O6 O 0.6450(3) 0.6891(2) -0.2617(2)
O7 O 0.7845(2) 0.7952(2) -0.2700(2)
O8 O 0.4576(2) 0.8443(3) -0.3480(2)
O9 O 0.5904(2) 0.9071(2) -0.40120(19)
N1 N 0.7622(3) 0.9641(3) -0.2955(2)
N2 N 0.4967(3) 0.7679(4) -0.2122(3)
C63 C 0.8435(4) 0.9260(4) -0.2801(4)
H59 H 0.8679 0.9411 -0.2223
H60 H 0.8826 0.9505 -0.3045
C64 C 0.8354(4) 0.8310(4) -0.3122(4)
H61 H 0.8088 0.8146 -0.3696
H62 H 0.8915 0.8098 -0.3042
C65 C 0.7795(5) 0.7039(4) -0.2951(4)
H63 H 0.8364 0.6847 -0.2883
H64 H 0.7501 0.6832 -0.3517
C66 C 0.7319(6) 0.6694(4) -0.2446(4)
H65 H 0.7340 0.6079 -0.2560
H66 H 0.7585 0.6946 -0.1878
C67 C 0.5950(7) 0.6523(4) -0.2195(5)
H67 H 0.6198 0.6721 -0.1618
H68 H 0.5945 0.5904 -0.2358
C68 C 0.5057(6) 0.6774(5) -0.2382(4)
H69 H 0.4824 0.6577 -0.2962
H70 H 0.4715 0.6478 -0.2131
C69 C 0.4116(4) 0.7862(6) -0.2509(4)
H71 H 0.4009 0.8432 -0.2228
H72 H 0.3694 0.7458 -0.2455
C70 C 0.4003(5) 0.7811(6) -0.3399(4)
H73 H 0.4115 0.7247 -0.3686
H74 H 0.3420 0.7905 -0.3630
C71 C 0.4515(4) 0.8391(5) -0.4298(3)
H75 H 0.3924 0.8397 -0.4572
H76 H 0.4719 0.7858 -0.4554
C72 C 0.5030(4) 0.9122(4) -0.4366(4)
H77 H 0.4957 0.9109 -0.4930
H78 H 0.4843 0.9656 -0.4091
C73 C 0.6435(4) 0.9748(3) -0.4099(3)
H79 H 0.6317 1.0297 -0.3783
H80 H 0.6317 0.9756 -0.4661
C74 C 0.7339(4) 0.9603(4) -0.3817(3)
H81 H 0.7437 0.9045 -0.4131
H82 H 0.7693 1.0028 -0.3929
C75 C 0.7718(4) 1.0546(3) -0.2472(3)
H83 H 0.7232 1.0828 -0.2683
H84 H 0.8226 1.0831 -0.2532
C76 C 0.7786(4) 1.0646(4) -0.1592(3)
H85 H 0.8264 1.0355 -0.1376
H86 H 0.7887 1.1248 -0.1301
C77 C 0.7084(4) 1.0312(4) -0.0666(3)
H87 H 0.7287 1.0885 -0.0325
H88 H 0.7492 0.9922 -0.0509
C78 C 0.6238(4) 1.0058(4) -0.0556(3)
H89 H 0.6274 1.0113 0.0011
H90 H 0.5821 1.0430 -0.0737
C79 C 0.5225(4) 0.8886(4) -0.0873(4)
H91 H 0.4744 0.9152 -0.1119
H92 H 0.5264 0.9018 -0.0297
C80 C 0.5108(4) 0.7949(5) -0.1231(3)
H93 H 0.4623 0.7719 -0.1087
H94 H 0.5608 0.7700 -0.0996
O10 O 0.3887(5) 0.8002(5) 0.3127(5)
C81 C 0.4093(6) 0.7316(8) 0.3436(5)
H95 H 0.3646 0.7162 0.3673
H96 H 0.4621 0.7465 0.3854
C82 C 0.4191(8) 0.6605(7) 0.2786(7)
H97 H 0.3688 0.6199 0.2598
H98 H 0.4685 0.6312 0.2959
C83 C 0.4303(7) 0.6998(6) 0.2151(6)
H99 H 0.4895 0.7199 0.2227
H100 H 0.4103 0.6603 0.1618
C84 C 0.3781(7) 0.7694(8) 0.2267(7)
H101 H 0.3188 0.7502 0.1999
H102 H 0.3963 0.8143 0.2052
O11 O 0.8229(9) 1.1273(10) 0.2526(11)
C85 C 0.9143(8) 1.1628(7) 0.2662(7)
H103 H 0.9194 1.2248 0.2860
H104 H 0.9519 1.1402 0.3058
C86 C 0.9349(8) 1.1392(14) 0.1957(9)
H105 H 0.9527 1.1895 0.1813
H106 H 0.9823 1.1038 0.1998
C87 C 0.8722(13) 1.0980(10) 0.1420(10)
H107 H 0.8799 1.0374 0.1319
H108 H 0.8711 1.1138 0.0924
C88 C 0.7945(9) 1.1117(7) 0.1614(11)
H109 H 0.7536 1.0619 0.1365
H110 H 0.7707 1.1613 0.1466
O12 O 0.8033(9) 0.4681(6) -0.3594(7)
C89 C 0.8243(6) 0.4485(8) -0.4356(11)
H111 H 0.8476 0.4999 -0.4446
H112 H 0.8668 0.4073 -0.4372
C90 C 0.7486(10) 0.4138(9) -0.4961(5)
H113 H 0.7555 0.3563 -0.5261
H114 H 0.7363 0.4489 -0.5335
C91 C 0.6809(5) 0.4120(7) -0.4574(8)
H115 H 0.6560 0.3536 -0.4692
H116 H 0.6368 0.4462 -0.4766
C92 C 0.7147(10) 0.4455(8) -0.3729(7)
H117 H 0.7056 0.4029 -0.3451
H118 H 0.6864 0.4956 -0.3525
loop_
_geom_bond_atom_site_label_1
_geom_bond_atom_site_label_2
_geom_bond_site_symmetry_1
_geom_bond_site_symmetry_2
K1 O1 1_555 1_555
K2 O1 1_555 1_555
K3 O1 1_555 1_555
O1 B1 1_555 1_555
O2 K1 1_555 1_555
O3 K1 1_555 1_555
C1 C2 1_555 1_555
C2 H1 1_555 1_555
C3 C2 1_555 1_555
H2 C3 1_555 1_555
C4 C3 1_555 1_555
H3 C4 1_555 1_555
C5 C4 1_555 1_555
H4 C5 1_555 1_555
C6 C1 1_555 1_555
C7 C6 1_555 1_555
C8 K1 1_555 1_555
C9 K1 1_555 1_555
H5 C9 1_555 1_555
C10 K1 1_555 1_555
H6 C10 1_555 1_555
C11 K1 1_555 1_555
H7 C11 1_555 1_555
C12 K1 1_555 1_555
H8 C12 1_555 1_555
C13 K1 1_555 1_555
C14 C13 1_555 1_555
H9 C14 1_555 1_555
H10 C14 1_555 1_555
C15 K3 1_555 1_555
C16 K3 1_555 1_555
H11 C16 1_555 1_555
C17 K3 1_555 1_555
H12 C17 1_555 1_555
C18 K3 1_555 1_555
H13 C18 1_555 1_555
C19 K3 1_555 1_555
H14 C19 1_555 1_555
C20 K3 1_555 1_555
C21 K2 1_555 1_555
C22 K2 1_555 1_555
C23 C22 1_555 1_555
H15 C23 1_555 1_555
C24 C23 1_555 1_555
C25 C24 1_555 1_555
H16 C25 1_555 1_555
C26 K2 1_555 1_555
C27 C26 1_555 1_555
H17 C27 1_555 1_555
H18 C27 1_555 1_555
H19 C27 1_555 1_555
C28 C24 1_555 1_555
H20 C28 1_555 1_555
H21 C28 1_555 1_555
H22 C28 1_555 1_555
C29 C22 1_555 1_555
H23 C29 1_555 1_555
H24 C29 1_555 1_555
H25 C29 1_555 1_555
C30 C31 1_555 1_555
C31 H26 1_555 1_555
C32 C31 1_555 1_555
H27 C32 1_555 1_555
C33 C32 1_555 1_555
H28 C33 1_555 1_555
C34 C33 1_555 1_555
H29 C34 1_555 1_555
C35 C30 1_555 1_555
C36 C35 1_555 1_555
C37 K2 1_555 1_555
C38 K2 1_555 1_555
H30 C38 1_555 1_555
C39 K2 1_555 1_555
H31 C39 1_555 1_555
C40 K2 1_555 1_555
H32 C40 1_555 1_555
C41 K2 1_555 1_555
H33 C41 1_555 1_555
C42 K2 1_555 1_555
C43 C42 1_555 1_555
H34 C43 1_555 1_555
H35 C43 1_555 1_555
C44 C43 1_555 1_555
C45 C44 1_555 1_555
H36 C45 1_555 1_555
C46 K3 1_555 1_555
H37 C46 1_555 1_555
C47 K3 1_555 1_555
H38 C47 1_555 1_555
C48 K3 1_555 1_555
H39 C48 1_555 1_555
C49 K3 1_555 1_555
C50 K1 1_555 1_555
C51 K1 1_555 1_555
C52 C51 1_555 1_555
H40 C52 1_555 1_555
C53 C52 1_555 1_555
C54 C53 1_555 1_555
H41 C54 1_555 1_555
C55 C50 1_555 1_555
C56 C55 1_555 1_555
H42 C56 1_555 1_555
H43 C56 1_555 1_555
H44 C56 1_555 1_555
C57 C53 1_555 1_555
H45 C57 1_555 1_555
H46 C57 1_555 1_555
H47 C57 1_555 1_555
C58 C51 1_555 1_555
H48 C58 1_555 1_555
H49 C58 1_555 1_555
H50 C58 1_555 1_555
C59 O3 1_555 1_555
H51 C59 1_555 1_555
H52 C59 1_555 1_555
C60 C59 1_555 1_555
H53 C60 1_555 1_555
H54 C60 1_555 1_555
C61 C60 1_555 1_555
H55 C61 1_555 1_555
H56 C61 1_555 1_555
C62 O3 1_555 1_555
H57 C62 1_555 1_555
H58 C62 1_555 1_555
B1 C1 1_555 1_555
B2 O2 1_555 1_555
K4 O4 1_555 1_555
O4 C78 1_555 1_555
O5 K4 1_555 1_555
O6 K4 1_555 1_555
O7 K4 1_555 1_555
O8 K4 1_555 1_555
O9 K4 1_555 1_555
N1 K4 1_555 1_555
N2 K4 1_555 1_555
C63 N1 1_555 1_555
H59 C63 1_555 1_555
H60 C63 1_555 1_555
C64 O7 1_555 1_555
H61 C64 1_555 1_555
H62 C64 1_555 1_555
C65 O7 1_555 1_555
H63 C65 1_555 1_555
H64 C65 1_555 1_555
C66 O6 1_555 1_555
H65 C66 1_555 1_555
H66 C66 1_555 1_555
C67 O6 1_555 1_555
H67 C67 1_555 1_555
H68 C67 1_555 1_555
C68 N2 1_555 1_555
H69 C68 1_555 1_555
H70 C68 1_555 1_555
C69 N2 1_555 1_555
H71 C69 1_555 1_555
H72 C69 1_555 1_555
C70 O8 1_555 1_555
H73 C70 1_555 1_555
H74 C70 1_555 1_555
C71 O8 1_555 1_555
H75 C71 1_555 1_555
H76 C71 1_555 1_555
C72 O9 1_555 1_555
H77 C72 1_555 1_555
H78 C72 1_555 1_555
C73 O9 1_555 1_555
H79 C73 1_555 1_555
H80 C73 1_555 1_555
C74 N1 1_555 1_555
H81 C74 1_555 1_555
H82 C74 1_555 1_555
C75 N1 1_555 1_555
H83 C75 1_555 1_555
H84 C75 1_555 1_555
C76 O5 1_555 1_555
H85 C76 1_555 1_555
H86 C76 1_555 1_555
C77 O5 1_555 1_555
H87 C77 1_555 1_555
H88 C77 1_555 1_555
C78 C77 1_555 1_555
H89 C78 1_555 1_555
H90 C78 1_555 1_555
C79 O4 1_555 1_555
H91 C79 1_555 1_555
H92 C79 1_555 1_555
C80 N2 1_555 1_555
H93 C80 1_555 1_555
H94 C80 1_555 1_555
O10 C81 1_555 1_555
C81 H95 1_555 1_555
H96 C81 1_555 1_555
C82 C81 1_555 1_555
H97 C82 1_555 1_555
H98 C82 1_555 1_555
C83 C82 1_555 1_555
H99 C83 1_555 1_555
H100 C83 1_555 1_555
C84 O10 1_555 1_555
H101 C84 1_555 1_555
H102 C84 1_555 1_555
O11 C85 1_555 1_555
C85 H103 1_555 1_555
H104 C85 1_555 1_555
C86 C85 1_555 1_555
H105 C86 1_555 1_555
H106 C86 1_555 1_555
C87 C86 1_555 1_555
H107 C87 1_555 1_555
H108 C87 1_555 1_555
C88 O11 1_555 1_555
H109 C88 1_555 1_555
H110 C88 1_555 1_555
O12 C89 1_555 1_555
C89 H111 1_555 1_555
H112 C89 1_555 1_555
C90 C89 1_555 1_555
H113 C90 1_555 1_555
H114 C90 1_555 1_555
C91 C90 1_555 1_555
H115 C91 1_555 1_555
H116 C91 1_555 1_555
C92 O12 1_555 1_555
H117 C92 1_555 1_555
H118 C92 1_555 1_555
K2 O2 1_555 1_555
K3 O2 1_555 1_555
C5 C6 1_555 1_555
C7 C8 1_555 1_555
C7 C20 1_555 1_555
C8 C9 1_555 1_555
C8 C13 1_555 1_555
C9 C10 1_555 1_555
C10 C11 1_555 1_555
C11 C12 1_555 1_555
C12 C13 1_555 1_555
C14 C15 1_555 1_555
C15 C16 1_555 1_555
C15 C20 1_555 1_555
C16 C17 1_555 1_555
C17 C18 1_555 1_555
C18 C19 1_555 1_555
C19 C20 1_555 1_555
C21 C22 1_555 1_555
C21 C26 1_555 1_555
C21 B1 1_555 1_555
C25 C26 1_555 1_555
C30 B2 1_555 1_555
C34 C35 1_555 1_555
C36 C37 1_555 1_555
C36 C49 1_555 1_555
C37 C38 1_555 1_555
C37 C42 1_555 1_555
C38 C39 1_555 1_555
C39 C40 1_555 1_555
C40 C41 1_555 1_555
C41 C42 1_555 1_555
C44 C49 1_555 1_555
C45 C46 1_555 1_555
C46 C47 1_555 1_555
C47 C48 1_555 1_555
C48 C49 1_555 1_555
C50 C51 1_555 1_555
C50 B2 1_555 1_555
C54 C55 1_555 1_555
C61 C62 1_555 1_555
C63 C64 1_555 1_555
C65 C66 1_555 1_555
C67 C68 1_555 1_555
C69 C70 1_555 1_555
C71 C72 1_555 1_555
C73 C74 1_555 1_555
C75 C76 1_555 1_555
C79 C80 1_555 1_555
C83 C84 1_555 1_555
C87 C88 1_555 1_555
C91 C92 1_555 1_555

#END
