
#######################################################################
#
#                 Cambridge Crystallographic Data Centre
#                                CCDC 
#
#######################################################################
#
# If this CIF has been generated from an entry in the Cambridge 
# Structural Database, then it will include bibliographic, chemical, 
# crystal, experimental, refinement or atomic coordinate data resulting 
# from the CCDC's data processing and validation procedures.
#
#######################################################################

data_LINRIM
_chemical_formula_moiety         'C66 H64 B2 K2 O4,3(C4 H8 O1)'
_chemical_name_systematic        
'bis(\m-[2-(anthracen-9-yl)phenyl](2,4,6-trimethylphenyl)borinate)-bis(tetrahydrofuran)-di-potassium tetrahydrofuran solvate'
_symmetry_cell_setting           monoclinic
_symmetry_space_group_name_H-M   'C 2/c'
_symmetry_Int_Tables_number      15
_space_group_name_Hall           '-C 2yn'
loop_
_symmetry_equiv_pos_site_id
_symmetry_equiv_pos_as_xyz
1 x,y,z
2 -x,y,1/2-z
3 1/2+x,1/2+y,z
4 1/2-x,1/2+y,1/2-z
5 -x,-y,-z
6 x,-y,1/2+z
7 1/2-x,1/2-y,-z
8 1/2+x,1/2-y,1/2+z
_cell_length_a                   22.7705(5)
_cell_length_b                   16.0243(3)
_cell_length_c                   18.7731(3)
_cell_angle_alpha                90
_cell_angle_beta                 96.1312(19)
_cell_angle_gamma                90
_cell_volume                     6810.77
_exptl_crystal_colour            yellowish
_exptl_crystal_description       block
_cell_formula_units_Z            4
loop_
_atom_site_label
_atom_site_type_symbol
_atom_site_fract_x
_atom_site_fract_y
_atom_site_fract_z
K1 K 0.31731(2) 0.74234(4) 0.06402(3)
O1 O 0.28964(10) 0.82095(16) -0.05309(11)
O2 O 0.37700(15) 0.6077(2) 0.02031(19)
C1 C 0.35641(10) 0.90671(14) -0.12747(12)
C2 C 0.37785(12) 0.90809(16) -0.19480(13)
H1 H 0.3584 0.8765 -0.2316
C3 C 0.42659(12) 0.95427(17) -0.20881(14)
H2 H 0.4398 0.9524 -0.2540
C4 C 0.45560(12) 1.00313(17) -0.15563(15)
H3 H 0.4881 1.0350 -0.1647
C5 C 0.43545(11) 1.00401(16) -0.08811(14)
H4 H 0.4548 1.0368 -0.0520
C6 C 0.38684(10) 0.95663(14) -0.07375(12)
C7 C 0.36785(10) 0.96301(15) -0.00009(12)
C8 C 0.39349(11) 0.91132(15) 0.05494(13)
C9 C 0.43644(12) 0.84980(17) 0.04296(15)
H5 H 0.4491 0.8448 -0.0023
C10 C 0.45937(13) 0.79791(19) 0.09662(17)
H6 H 0.4872 0.7579 0.0875
C11 C 0.44085(15) 0.8048(2) 0.16642(17)
H7 H 0.4565 0.7690 0.2026
C12 C 0.40076(14) 0.8628(2) 0.18043(15)
H8 H 0.3896 0.8670 0.2265
C13 C 0.37513(12) 0.91791(17) 0.12576(13)
C14 C 0.33263(13) 0.97707(19) 0.13904(14)
H9 H 0.3206 0.9811 0.1847
C15 C 0.30804(13) 1.02965(18) 0.08575(15)
C16 C 0.26519(15) 1.0926(2) 0.09895(19)
H10 H 0.2541 1.0989 0.1449
C17 C 0.24110(16) 1.1421(2) 0.0464(2)
H11 H 0.2133 1.1818 0.0563
C18 C 0.25753(16) 1.1347(2) -0.0244(2)
H12 H 0.2402 1.1692 -0.0606
C19 C 0.29837(13) 1.07767(17) -0.03910(16)
H13 H 0.3090 1.0740 -0.0855
C20 C 0.32546(12) 1.02312(15) 0.01447(14)
C21 C 0.25620(11) 0.82391(16) -0.18568(13)
C22 C 0.21038(12) 0.87855(17) -0.21085(14)
C23 C 0.16686(12) 0.85400(19) -0.26482(14)
H14 H 0.1364 0.8908 -0.2796
C24 C 0.16780(12) 0.77635(19) -0.29684(14)
C25 C 0.21399(13) 0.72387(19) -0.27470(15)
H15 H 0.2164 0.6724 -0.2971
C26 C 0.25752(13) 0.74570(17) -0.21951(16)
C27 C 0.30572(19) 0.6842(2) -0.1965(2)
H16 H 0.2923 0.6461 -0.1623
H17 H 0.3158 0.6536 -0.2375
H18 H 0.3399 0.7135 -0.1751
C28 C 0.11893(16) 0.7502(2) -0.35353(17)
H19 H 0.1121 0.7937 -0.3886
H20 H 0.1303 0.7000 -0.3764
H21 H 0.0834 0.7402 -0.3315
C29 C 0.20790(17) 0.9656(2) -0.18022(19)
H22 H 0.2171 0.9635 -0.1291
H23 H 0.2361 1.0005 -0.2005
H24 H 0.1690 0.9881 -0.1916
C30 C 0.3491(4) 0.5391(5) -0.0080(5)
H25 H 0.3105 0.5542 -0.0313
H26 H 0.3438 0.4993 0.0296
C31 C 0.3848(5) 0.5012(5) -0.0606(5)
H27 H 0.4043 0.4514 -0.0406
H28 H 0.3596 0.4856 -0.1035
C32 C 0.4255(4) 0.5573(5) -0.0772(5)
H29 H 0.4158 0.5778 -0.1257
H30 H 0.4643 0.5318 -0.0739
C33 C 0.4247(3) 0.6273(5) -0.0246(5)
H31 H 0.4624 0.6312 0.0047
H32 H 0.4170 0.6799 -0.0493
B1 B 0.30112(13) 0.84697(19) -0.11461(15)
K1F K 0.18269(2) 0.75766(4) -0.06402(3)
O1F O 0.21036(10) 0.67905(16) 0.05309(11)
O2F O 0.12300(15) 0.8923(2) -0.02031(19)
C1F C 0.14359(10) 0.59329(14) 0.12747(12)
C2F C 0.12215(12) 0.59191(16) 0.19480(13)
H1F H 0.1416 0.6235 0.2316
C3F C 0.07341(12) 0.54573(17) 0.20881(14)
H2F H 0.0602 0.5476 0.2540
C4F C 0.04440(12) 0.49687(17) 0.15563(15)
H3F H 0.0119 0.4650 0.1647
C5F C 0.06455(11) 0.49599(16) 0.08811(14)
H4F H 0.0452 0.4632 0.0520
C6F C 0.11316(10) 0.54337(14) 0.07375(12)
C7F C 0.13215(10) 0.53699(15) 0.00009(12)
C8F C 0.10651(11) 0.58868(15) -0.05494(13)
C9F C 0.06356(12) 0.65020(17) -0.04296(15)
H5F H 0.0509 0.6552 0.0023
C10F C 0.04063(13) 0.70209(19) -0.09662(17)
H6F H 0.0128 0.7421 -0.0875
C11F C 0.05915(15) 0.6952(2) -0.16642(17)
H7F H 0.0435 0.7310 -0.2026
C12F C 0.09924(14) 0.6372(2) -0.18043(15)
H8F H 0.1104 0.6330 -0.2265
C13F C 0.12487(12) 0.58209(17) -0.12576(13)
C14F C 0.16737(13) 0.52293(19) -0.13904(14)
H9F H 0.1794 0.5189 -0.1847
C15F C 0.19196(13) 0.47035(18) -0.08575(15)
C16F C 0.23481(15) 0.4074(2) -0.09895(19)
H10F H 0.2459 0.4011 -0.1449
C17F C 0.25890(16) 0.3579(2) -0.0464(2)
H11F H 0.2867 0.3182 -0.0563
C18F C 0.24247(16) 0.3653(2) 0.0244(2)
H12F H 0.2598 0.3308 0.0606
C19F C 0.20163(13) 0.42233(17) 0.03910(16)
H13F H 0.1910 0.4260 0.0855
C20F C 0.17454(12) 0.47688(15) -0.01447(14)
C21F C 0.24380(11) 0.67609(16) 0.18568(13)
C22F C 0.28962(12) 0.62145(17) 0.21085(14)
C23F C 0.33314(12) 0.64600(19) 0.26482(14)
H14F H 0.3636 0.6092 0.2796
C24F C 0.33220(12) 0.72365(19) 0.29684(14)
C25F C 0.28601(13) 0.77613(19) 0.27470(15)
H15F H 0.2836 0.8276 0.2971
C26F C 0.24248(13) 0.75430(17) 0.21951(16)
C27F C 0.19428(19) 0.8158(2) 0.1965(2)
H16F H 0.2077 0.8539 0.1623
H17F H 0.1842 0.8464 0.2375
H18F H 0.1601 0.7865 0.1751
C28F C 0.38107(16) 0.7498(2) 0.35353(17)
H19F H 0.3879 0.7063 0.3886
H20F H 0.3697 0.8000 0.3764
H21F H 0.4166 0.7598 0.3315
C29F C 0.29210(17) 0.5344(2) 0.18022(19)
H22F H 0.2829 0.5365 0.1291
H23F H 0.2639 0.4995 0.2005
H24F H 0.3310 0.5119 0.1916
C30F C 0.1509(4) 0.9609(5) 0.0080(5)
H25F H 0.1895 0.9458 0.0313
H26F H 0.1562 1.0007 -0.0296
C31F C 0.1152(5) 0.9988(5) 0.0606(5)
H27F H 0.0957 1.0486 0.0406
H28F H 0.1404 1.0144 0.1035
C32F C 0.0745(4) 0.9427(5) 0.0772(5)
H29F H 0.0842 0.9222 0.1257
H30F H 0.0357 0.9682 0.0739
C33F C 0.0753(3) 0.8727(5) 0.0246(5)
H31F H 0.0376 0.8688 -0.0047
H32F H 0.0830 0.8201 0.0493
B1F B 0.19888(13) 0.65303(19) 0.11461(15)
O3 O 0.5000 0.6303(3) 0.2500
C34 C 0.4751(3) 0.5804(3) 0.1939(4)
H33 H 0.4990 0.5824 0.1541
H34 H 0.4357 0.6000 0.1773
C35 C 0.4726(3) 0.4926(4) 0.2220(5)
H35 H 0.4761 0.4516 0.1847
H36 H 0.4366 0.4825 0.2440
C34A C 0.5249(3) 0.5804(3) 0.3061(4)
H33A H 0.5010 0.5824 0.3459
H34A H 0.5643 0.6000 0.3227
C35A C 0.5274(3) 0.4926(4) 0.2780(5)
H35A H 0.5239 0.4516 0.3153
H36A H 0.5634 0.4825 0.2560
O4 O 0.5316(6) 0.6834(6) -0.1176(8)
C36 C 0.5152(5) 0.7664(8) -0.1374(8)
H37 H 0.4788 0.7813 -0.1180
H38 H 0.5090 0.7712 -0.1892
C37 C 0.5616(5) 0.8203(5) -0.1096(7)
H39 H 0.5470 0.8605 -0.0771
H40 H 0.5771 0.8504 -0.1483
C38 C 0.6067(5) 0.7706(7) -0.0726(8)
H41 H 0.6132 0.7875 -0.0227
H42 H 0.6433 0.7774 -0.0939
C39 C 0.5881(6) 0.6860(6) -0.0776(8)
H43 H 0.5860 0.6631 -0.0301
H44 H 0.6161 0.6531 -0.1012
O5? O 0.5334(6) 0.7293(9) -0.0627(5)
C40? C 0.5098(5) 0.7559(9) -0.1320(6)
H45? H 0.4784 0.7186 -0.1511
H46? H 0.4936 0.8117 -0.1297
C41? C 0.5562(7) 0.7553(10) -0.1768(5)
H47? H 0.5618 0.8109 -0.1956
H48? H 0.5467 0.7177 -0.2169
C42? C 0.6085(5) 0.7284(12) -0.1352(9)
H49? H 0.6387 0.7713 -0.1343
H50? H 0.6235 0.6781 -0.1557
C43? C 0.5944(6) 0.7123(13) -0.0646(7)
H51? H 0.6027 0.6545 -0.0520
H52? H 0.6179 0.7476 -0.0306
loop_
_geom_bond_atom_site_label_1
_geom_bond_atom_site_label_2
_geom_bond_site_symmetry_1
_geom_bond_site_symmetry_2
K1 O1 1_555 1_555
O1 B1 1_555 1_555
O2 K1 1_555 1_555
C1 C2 1_555 1_555
C2 H1 1_555 1_555
C3 C2 1_555 1_555
H2 C3 1_555 1_555
C4 C3 1_555 1_555
H3 C4 1_555 1_555
C5 C4 1_555 1_555
H4 C5 1_555 1_555
C6 C1 1_555 1_555
C7 C6 1_555 1_555
C8 K1 1_555 1_555
C9 K1 1_555 1_555
H5 C9 1_555 1_555
C10 K1 1_555 1_555
H6 C10 1_555 1_555
C11 K1 1_555 1_555
H7 C11 1_555 1_555
C12 K1 1_555 1_555
H8 C12 1_555 1_555
C13 K1 1_555 1_555
C14 C13 1_555 1_555
H9 C14 1_555 1_555
C15 C14 1_555 1_555
C16 C15 1_555 1_555
H10 C16 1_555 1_555
C17 C16 1_555 1_555
H11 C17 1_555 1_555
C18 C17 1_555 1_555
H12 C18 1_555 1_555
C19 C18 1_555 1_555
H13 C19 1_555 1_555
C20 C7 1_555 1_555
C21 C22 1_555 1_555
C22 C23 1_555 1_555
C23 H14 1_555 1_555
C24 C23 1_555 1_555
C25 C24 1_555 1_555
H15 C25 1_555 1_555
C26 C21 1_555 1_555
C27 C26 1_555 1_555
H16 C27 1_555 1_555
H17 C27 1_555 1_555
H18 C27 1_555 1_555
C28 C24 1_555 1_555
H19 C28 1_555 1_555
H20 C28 1_555 1_555
H21 C28 1_555 1_555
C29 C22 1_555 1_555
H22 C29 1_555 1_555
H23 C29 1_555 1_555
H24 C29 1_555 1_555
C30 O2 1_555 1_555
H25 C30 1_555 1_555
H26 C30 1_555 1_555
C31 C30 1_555 1_555
H27 C31 1_555 1_555
H28 C31 1_555 1_555
C32 C31 1_555 1_555
H29 C32 1_555 1_555
H30 C32 1_555 1_555
C33 O2 1_555 1_555
H31 C33 1_555 1_555
H32 C33 1_555 1_555
B1 C1 1_555 1_555
O3 C34 1_555 1_555
C34 H33 1_555 1_555
H34 C34 1_555 1_555
C35 C34 1_555 1_555
H35 C35 1_555 1_555
H36 C35 1_555 1_555
O4 C36 1_555 1_555
C36 H37 1_555 1_555
H38 C36 1_555 1_555
C37 C36 1_555 1_555
H39 C37 1_555 1_555
H40 C37 1_555 1_555
C38 C37 1_555 1_555
H41 C38 1_555 1_555
H42 C38 1_555 1_555
C39 O4 1_555 1_555
H43 C39 1_555 1_555
H44 C39 1_555 1_555
K1F O1 1_555 1_555
O1F K1 1_555 1_555
O2F K1F 1_555 1_555
C1F C2F 1_555 1_555
C2F H1F 1_555 1_555
C3F C2F 1_555 1_555
H2F C3F 1_555 1_555
C4F C3F 1_555 1_555
H3F C4F 1_555 1_555
C5F C4F 1_555 1_555
H4F C5F 1_555 1_555
C6F C1F 1_555 1_555
C7F C6F 1_555 1_555
C8F K1F 1_555 1_555
C9F K1F 1_555 1_555
H5F C9F 1_555 1_555
C10F K1F 1_555 1_555
H6F C10F 1_555 1_555
C11F K1F 1_555 1_555
H7F C11F 1_555 1_555
C12F K1F 1_555 1_555
H8F C12F 1_555 1_555
C13F K1F 1_555 1_555
C14F C13F 1_555 1_555
H9F C14F 1_555 1_555
C15F C14F 1_555 1_555
C16F C15F 1_555 1_555
H10F C16F 1_555 1_555
C17F C16F 1_555 1_555
H11F C17F 1_555 1_555
C18F C17F 1_555 1_555
H12F C18F 1_555 1_555
C19F C18F 1_555 1_555
H13F C19F 1_555 1_555
C20F C7F 1_555 1_555
C21F K1 1_555 1_555
C22F C21F 1_555 1_555
C23F C22F 1_555 1_555
H14F C23F 1_555 1_555
C24F C23F 1_555 1_555
C25F C24F 1_555 1_555
H15F C25F 1_555 1_555
C26F C21F 1_555 1_555
C27F C26F 1_555 1_555
H16F C27F 1_555 1_555
H17F C27F 1_555 1_555
H18F C27F 1_555 1_555
C28F C24F 1_555 1_555
H19F C28F 1_555 1_555
H20F C28F 1_555 1_555
H21F C28F 1_555 1_555
C29F C22F 1_555 1_555
H22F C29F 1_555 1_555
H23F C29F 1_555 1_555
H24F C29F 1_555 1_555
C30F O2F 1_555 1_555
H25F C30F 1_555 1_555
H26F C30F 1_555 1_555
C31F C30F 1_555 1_555
H27F C31F 1_555 1_555
H28F C31F 1_555 1_555
C32F C31F 1_555 1_555
H29F C32F 1_555 1_555
H30F C32F 1_555 1_555
C33F O2F 1_555 1_555
H31F C33F 1_555 1_555
H32F C33F 1_555 1_555
B1F O1F 1_555 1_555
C34A O3 1_555 1_555
H33A C34A 1_555 1_555
H34A C34A 1_555 1_555
C35A C35 1_555 1_555
H35A C35A 1_555 1_555
H36A C35A 1_555 1_555
C5 C6 1_555 1_555
C7 C8 1_555 1_555
C8 C9 1_555 1_555
C8 C13 1_555 1_555
C9 C10 1_555 1_555
C10 C11 1_555 1_555
C11 C12 1_555 1_555
C12 C13 1_555 1_555
C15 C20 1_555 1_555
C19 C20 1_555 1_555
C21 B1 1_555 1_555
C21 K1F 1_555 1_555
C25 C26 1_555 1_555
C32 C33 1_555 1_555
C38 C39 1_555 1_555
K1F O1F 1_555 1_555
C1F B1F 1_555 1_555
C5F C6F 1_555 1_555
C7F C8F 1_555 1_555
C8F C9F 1_555 1_555
C8F C13F 1_555 1_555
C9F C10F 1_555 1_555
C10F C11F 1_555 1_555
C11F C12F 1_555 1_555
C12F C13F 1_555 1_555
C15F C20F 1_555 1_555
C19F C20F 1_555 1_555
C21F B1F 1_555 1_555
C25F C26F 1_555 1_555
C32F C33F 1_555 1_555
C34A C35A 1_555 1_555

#END
