
#######################################################################
#
#                 Cambridge Crystallographic Data Centre
#                                CCDC 
#
#######################################################################
#
# If this CIF has been generated from an entry in the Cambridge 
# Structural Database, then it will include bibliographic, chemical, 
# crystal, experimental, refinement or atomic coordinate data resulting 
# from the CCDC's data processing and validation procedures.
#
#######################################################################

data_LIOXPH
_chemical_formula_moiety         'C2 O4 2-,2(Li1 1+),H2 O2'
_chemical_name_systematic        'Lithium oxalate monoperhydrate'
_symmetry_cell_setting           triclinic
_symmetry_space_group_name_H-M   'P -1'
_symmetry_Int_Tables_number      2
_space_group_name_Hall           '-P 1'
loop_
_symmetry_equiv_pos_site_id
_symmetry_equiv_pos_as_xyz
1 x,y,z
2 -x,-y,-z
_cell_length_a                   5.663(5)
_cell_length_b                   3.362(3)
_cell_length_c                   5.968(4)
_cell_angle_alpha                98.43(6)
_cell_angle_beta                 97.92(7)
_cell_angle_gamma                78.77(8)
_cell_volume                     109.544
_cell_formula_units_Z            1
loop_
_atom_site_label
_atom_site_type_symbol
_atom_site_fract_x
_atom_site_fract_y
_atom_site_fract_z
C1 C 0.09620 -0.10040 0.09180
O1 O 0.31170 -0.12380 0.06380
O2 O 0.01580 -0.23040 0.24720
C1A C -0.09620 0.10040 -0.09180
O1A O -0.31170 0.12380 -0.06380
O2A O -0.01580 0.23040 -0.24720
H1 H 0.28140 -0.40480 -0.54510
O3 O 0.39320 -0.44160 -0.44170
O3A O 0.60680 -0.55840 -0.55830
H1A H 0.71860 -0.59520 -0.45490
Li1 Li 0.36610 0.16550 -0.20970
loop_
_geom_bond_atom_site_label_1
_geom_bond_atom_site_label_2
_geom_bond_site_symmetry_1
_geom_bond_site_symmetry_2
C1 O1 1_555 1_555
O2 C1 1_555 1_555
H1 O3 1_555 1_555
O3 O3A 1_555 1_555
C1A C1 1_555 1_555
O1A C1A 1_555 1_555
O2A C1A 1_555 1_555
O3A H1A 1_555 1_555

#END
