
#######################################################################
#
#                 Cambridge Crystallographic Data Centre
#                                CCDC 
#
#######################################################################
#
# If this CIF has been generated from an entry in the Cambridge 
# Structural Database, then it will include bibliographic, chemical, 
# crystal, experimental, refinement or atomic coordinate data resulting 
# from the CCDC's data processing and validation procedures.
#
#######################################################################

data_LIPBEU
_chemical_formula_moiety         'C18 H15 Br1 O2'
_chemical_name_systematic        
3-(4-bromophenyl)-5,5-dimethyl-4-phenylfuran-2(5H)-one
_symmetry_cell_setting           triclinic
_symmetry_space_group_name_H-M   'P -1'
_symmetry_Int_Tables_number      2
_space_group_name_Hall           '-P 1'
loop_
_symmetry_equiv_pos_site_id
_symmetry_equiv_pos_as_xyz
1 x,y,z
2 -x,-y,-z
_cell_length_a                   9.2983(19)
_cell_length_b                   9.5365(19)
_cell_length_c                   10.425(2)
_cell_angle_alpha                107.87(3)
_cell_angle_beta                 104.21(3)
_cell_angle_gamma                109.44(3)
_cell_volume                     764.908
_cell_formula_units_Z            2
loop_
_atom_site_label
_atom_site_type_symbol
_atom_site_fract_x
_atom_site_fract_y
_atom_site_fract_z
Br1 Br 1.24672(5) 1.19751(6) 0.45613(5)
C1 C 1.0257(5) 1.0733(5) 0.3205(4)
O1 O 0.3167(4) 0.6895(4) -0.2108(3)
C2 C 0.3896(4) 0.7118(4) 0.0267(4)
O2 O 0.5666(4) 0.8496(4) -0.1920(3)
C3 C 0.5271(5) 0.7981(5) 0.0135(4)
C4 C 0.3699(4) 0.6869(4) 0.1556(4)
C5 C 0.8298(5) 0.8910(5) 0.0785(4)
H1 H 0.8073 0.8284 -0.0186
C6 C 0.1128(5) 0.6948(6) -0.1078(5)
H2 H 0.1651 0.8128 -0.0628
H3 H 0.0575 0.6549 -0.0507
H4 H 0.0336 0.6558 -0.2046
C7 C 0.6995(5) 0.8938(4) 0.1202(4)
C8 C 0.9913(5) 0.9784(5) 0.1772(5)
H5 H 1.0767 0.9736 0.1475
C9 C 0.4808(5) 0.7862(5) -0.1365(4)
C10 C 0.8987(5) 1.0813(6) 0.3636(5)
H6 H 0.9227 1.1483 0.4597
C11 C 0.7373(5) 0.9914(5) 0.2660(4)
H7 H 0.6526 0.9953 0.2971
C12 C 0.3809(5) 0.5554(5) 0.1779(5)
H8 H 0.4010 0.4818 0.1111
C13 C 0.3315(6) 0.6374(7) 0.3964(5)
H9 H 0.3174 0.6204 0.4765
C14 C 0.3378(5) 0.7946(6) 0.2552(5)
H10 H 0.3275 0.8828 0.2406
C15 C 0.2445(5) 0.6325(5) -0.1161(4)
C16 C 0.3625(6) 0.5311(6) 0.2980(5)
H11 H 0.3713 0.4420 0.3120
C17 C 0.3211(6) 0.7711(7) 0.3756(5)
H12 H 0.3028 0.8454 0.4435
C18 C 0.1691(6) 0.4471(5) -0.1851(5)
H13 H 0.2545 0.4126 -0.1889
H14 H 0.0895 0.4051 -0.2824
H15 H 0.1153 0.4057 -0.1278
loop_
_geom_bond_atom_site_label_1
_geom_bond_atom_site_label_2
_geom_bond_site_symmetry_1
_geom_bond_site_symmetry_2
Br1 C1 1_555 1_555
C1 C8 1_555 1_555
O1 C9 1_555 1_555
C2 C3 1_555 1_555
O2 C9 1_555 1_555
C3 C7 1_555 1_555
C4 C2 1_555 1_555
C5 H1 1_555 1_555
C6 H2 1_555 1_555
H3 C6 1_555 1_555
H4 C6 1_555 1_555
C7 C5 1_555 1_555
C8 C5 1_555 1_555
H5 C8 1_555 1_555
C9 C3 1_555 1_555
C10 C1 1_555 1_555
H6 C10 1_555 1_555
C11 C7 1_555 1_555
H7 C11 1_555 1_555
C12 C4 1_555 1_555
H8 C12 1_555 1_555
C13 H9 1_555 1_555
C14 C4 1_555 1_555
H10 C14 1_555 1_555
C15 O1 1_555 1_555
C16 C12 1_555 1_555
H11 C16 1_555 1_555
C17 C13 1_555 1_555
H12 C17 1_555 1_555
C18 C15 1_555 1_555
H13 C18 1_555 1_555
H14 C18 1_555 1_555
H15 C18 1_555 1_555
C2 C15 1_555 1_555
C6 C15 1_555 1_555
C10 C11 1_555 1_555
C13 C16 1_555 1_555
C14 C17 1_555 1_555

#END
