
#######################################################################
#
#                 Cambridge Crystallographic Data Centre
#                                CCDC 
#
#######################################################################
#
# If this CIF has been generated from an entry in the Cambridge 
# Structural Database, then it will include bibliographic, chemical, 
# crystal, experimental, refinement or atomic coordinate data resulting 
# from the CCDC's data processing and validation procedures.
#
#######################################################################

data_LIPBUI
_chemical_name_common            
'Triethylammonium 5-phenylhydrantoic acid 5-phenylhydrantoate'
_chemical_formula_moiety         'C6 H16 N1 1+,C9 H10 N2 O3,C9 H9 N2 O3 1-'
_chemical_name_systematic        
"Triethylammonium 2-(N'-phenylurea-N)acetic acid 2-(N'-phenylurea-N)acetate"
_symmetry_cell_setting           monoclinic
_symmetry_space_group_name_H-M   'P 21/c'
_symmetry_Int_Tables_number      14
_space_group_name_Hall           '-P 2ybc'
loop_
_symmetry_equiv_pos_site_id
_symmetry_equiv_pos_as_xyz
1 x,y,z
2 -x,1/2+y,1/2-z
3 -x,-y,-z
4 x,1/2-y,1/2+z
_cell_length_a                   9.2300(10)
_cell_length_b                   15.578(3)
_cell_length_c                   19.070(4)
_cell_angle_alpha                90
_cell_angle_beta                 113.907(15)
_cell_angle_gamma                90
_cell_volume                     2506.73
_exptl_crystal_colour            colorless
_exptl_crystal_description       block
_cell_formula_units_Z            4
loop_
_atom_site_label
_atom_site_type_symbol
_atom_site_fract_x
_atom_site_fract_y
_atom_site_fract_z
O1 O 1.08276(10) 0.32987(6) 0.19975(5)
O2 O 1.08152(10) 0.50340(6) 0.10272(5)
O3 O 1.20358(10) 0.42122(6) 0.04768(5)
N1 N 0.85216(13) 0.37169(7) 0.20903(6)
N2 N 0.87202(13) 0.37028(7) 0.09311(6)
C1 C 0.90414(14) 0.36467(8) 0.28925(7)
C2 C 1.00016(16) 0.29743(8) 0.33054(8)
C3 C 1.04769(18) 0.29341(9) 0.40915(8)
C4 C 1.00072(18) 0.35503(10) 0.44745(8)
C5 C 0.90351(17) 0.42127(10) 0.40647(8)
C6 C 0.85488(15) 0.42615(9) 0.32771(8)
C7 C 0.94514(14) 0.35608(7) 0.16985(7)
C8 C 0.96553(14) 0.36783(8) 0.04838(7)
C9 C 1.09117(14) 0.43739(8) 0.06983(6)
H1 H 0.7676(19) 0.4047(9) 0.1844(9)
H2 H 0.7850(18) 0.3956(9) 0.0750(8)
H3 H 1.03290 0.25440 0.30480
H4 H 1.278(2) 0.4781(11) 0.0537(9)
H5 H 1.11360 0.24760 0.43720
H6 H 1.03480 0.35200 0.50160
H7 H 0.86990 0.46360 0.43250
H8 H 0.78760 0.47170 0.29990
H9 H 0.89430 0.37400 -0.00650
H10 H 1.01780 0.31110 0.05520
O4 O 0.21615(10) 0.12516(6) 0.26953(5)
O5 O 0.41981(10) -0.03733(6) 0.38671(5)
O6 O 0.62857(10) 0.04622(6) 0.44768(5)
N3 N -0.01055(12) 0.07113(7) 0.27419(6)
N4 N 0.21094(12) 0.09273(7) 0.38439(6)
C10 C -0.10457(14) 0.06915(8) 0.19435(7)
C11 C -0.10449(15) 0.13693(9) 0.14690(7)
C12 C -0.19972(16) 0.13239(10) 0.06930(8)
C13 C -0.29341(16) 0.06132(11) 0.03858(8)
C14 C -0.29322(16) -0.00568(10) 0.08623(8)
C15 C -0.20011(14) -0.00173(9) 0.16411(8)
C16 C 0.14324(14) 0.09756(7) 0.30704(7)
C17 C 0.37892(14) 0.10478(8) 0.42511(7)
C18 C 0.47976(14) 0.03075(8) 0.41780(6)
H11 H -0.0459(17) 0.0433(9) 0.3031(9)
H12 H 0.1572(18) 0.0689(9) 0.4068(8)
H13 H -0.03970 0.18580 0.16760
H14 H -0.20070 0.17870 0.03670
H15 H -0.35750 0.05840 -0.01490
H16 H -0.35750 -0.05470 0.06530
H17 H -0.20170 -0.04750 0.19670
H18 H 0.40280 0.11350 0.48010
H19 H 0.40990 0.15780 0.40600
N5 N 0.43120(13) 0.21511(7) 0.23175(6)
C19 C 0.57918(15) 0.16226(9) 0.26959(8)
C20 C 0.55290(17) 0.06797(9) 0.25227(9)
C21 C 0.35167(17) 0.20344(10) 0.14636(8)
C22 C 0.4541(2) 0.22874(13) 0.10458(9)
C23 C 0.45942(17) 0.30862(9) 0.25245(8)
C24 C 0.4833(2) 0.32555(11) 0.33379(9)
H20 H 0.3570(18) 0.1940(9) 0.2498(8)
H21 H 0.66060 0.18310 0.25230
H22 H 0.62070 0.17070 0.32580
H23 H 0.46220 0.04850 0.26240
H24 H 0.64780 0.03600 0.28490
H25 H 0.53160 0.05790 0.19820
H26 H 0.25350 0.23820 0.12630
H27 H 0.32080 0.14250 0.13510
H28 H 0.47940 0.29000 0.11250
H29 H 0.39670 0.21730 0.04960
H30 H 0.55230 0.19520 0.12460
H31 H 0.55430 0.32810 0.24490
H32 H 0.36760 0.34240 0.21760
H33 H 0.39030 0.30570 0.34170
H34 H 0.49760 0.38730 0.34420
H35 H 0.57750 0.29470 0.36860
loop_
_geom_bond_atom_site_label_1
_geom_bond_atom_site_label_2
_geom_bond_site_symmetry_1
_geom_bond_site_symmetry_2
O1 C7 1_555 1_555
O2 C9 1_555 1_555
O3 C9 1_555 1_555
N1 C1 1_555 1_555
N2 C7 1_555 1_555
C1 C2 1_555 1_555
C2 C3 1_555 1_555
C3 C4 1_555 1_555
C4 C5 1_555 1_555
C5 C6 1_555 1_555
C6 C1 1_555 1_555
C7 N1 1_555 1_555
C8 N2 1_555 1_555
C9 C8 1_555 1_555
O4 C16 1_555 1_555
O5 C18 1_555 1_555
O6 C18 1_555 1_555
N3 C10 1_555 1_555
N4 C16 1_555 1_555
C10 C11 1_555 1_555
C11 C12 1_555 1_555
C12 C13 1_555 1_555
C13 C14 1_555 1_555
C14 C15 1_555 1_555
C15 C10 1_555 1_555
C16 N3 1_555 1_555
C17 N4 1_555 1_555
C18 C17 1_555 1_555
N5 C19 1_555 1_555
C19 C20 1_555 1_555
C20 H23 1_555 1_555
C21 N5 1_555 1_555
C22 C21 1_555 1_555
C23 N5 1_555 1_555
C24 C23 1_555 1_555
H1 N1 1_555 1_555
H2 N2 1_555 1_555
H3 C2 1_555 1_555
H4 O3 1_555 1_555
H5 C3 1_555 1_555
H6 C4 1_555 1_555
H7 C5 1_555 1_555
H8 C6 1_555 1_555
H9 C8 1_555 1_555
H10 C8 1_555 1_555
H11 N3 1_555 1_555
H12 N4 1_555 1_555
H13 C11 1_555 1_555
H14 C12 1_555 1_555
H15 C13 1_555 1_555
H16 C14 1_555 1_555
H17 C15 1_555 1_555
H18 C17 1_555 1_555
H19 C17 1_555 1_555
H20 N5 1_555 1_555
H21 C19 1_555 1_555
H22 C19 1_555 1_555
H24 C20 1_555 1_555
H25 C20 1_555 1_555
H26 C21 1_555 1_555
H27 C21 1_555 1_555
H28 C22 1_555 1_555
H29 C22 1_555 1_555
H30 C22 1_555 1_555
H31 C23 1_555 1_555
H32 C23 1_555 1_555
H33 C24 1_555 1_555
H34 C24 1_555 1_555
H35 C24 1_555 1_555

#END
