
#######################################################################
#
#                 Cambridge Crystallographic Data Centre
#                                CCDC 
#
#######################################################################
#
# If this CIF has been generated from an entry in the Cambridge 
# Structural Database, then it will include bibliographic, chemical, 
# crystal, experimental, refinement or atomic coordinate data resulting 
# from the CCDC's data processing and validation procedures.
#
#######################################################################

data_LIPDAR
_chemical_formula_moiety         'C26 H18 O1'
_chemical_name_systematic        3-(2-(2-Naphthyl)-1-phenylvinyl)-1-benzofuran
_symmetry_cell_setting           monoclinic
_symmetry_space_group_name_H-M   'I 2/a'
_symmetry_Int_Tables_number      15
_space_group_name_Hall           '-I 2ya'
loop_
_symmetry_equiv_pos_site_id
_symmetry_equiv_pos_as_xyz
1 x,y,z
2 1/2-x,y,-z
3 1/2+x,1/2+y,1/2+z
4 -x,1/2+y,1/2-z
5 -x,-y,-z
6 1/2+x,-y,z
7 1/2-x,1/2-y,1/2-z
8 x,1/2-y,1/2+z
_cell_length_a                   18.6916(12)
_cell_length_b                   5.7783(5)
_cell_length_c                   33.895(2)
_cell_angle_alpha                90
_cell_angle_beta                 102.828(7)
_cell_angle_gamma                90
_cell_volume                     3569.48
_cell_formula_units_Z            8
loop_
_atom_site_label
_atom_site_type_symbol
_atom_site_fract_x
_atom_site_fract_y
_atom_site_fract_z
C1 C 0.87011(8) 0.4090(3) 0.41890(4)
C2 C 0.92135(9) 0.5717(3) 0.41441(5)
H1 H 0.9678 0.5801 0.4327
C3 C 0.90249(10) 0.7209(3) 0.38249(5)
H2 H 0.9364 0.8357 0.3782
C4 C 0.83415(10) 0.7058(3) 0.35625(5)
H3 H 0.8219 0.8119 0.3344
C5 C 0.78360(9) 0.5407(3) 0.36114(5)
H4 H 0.7370 0.5333 0.3429
C6 C 0.80168(8) 0.3845(3) 0.39320(4)
C7 C 0.76484(8) 0.2014(3) 0.41063(4)
C8 C 0.81340(8) 0.1373(3) 0.44447(5)
H5 H 0.8035 0.0213 0.4624
C9 C 0.69135(8) 0.1028(3) 0.39615(4)
C10 C 0.65947(8) -0.0299(3) 0.42591(4)
C11 C 0.59666(8) 0.0526(3) 0.43648(5)
H6 H 0.5767 0.1973 0.4262
C12 C 0.56293(10) -0.0724(4) 0.46171(5)
H7 H 0.5193 -0.0154 0.4682
C13 C 0.59207(11) -0.2790(4) 0.47758(5)
H8 H 0.5688 -0.3647 0.4951
C14 C 0.65498(11) -0.3616(3) 0.46807(5)
H9 H 0.6755 -0.5039 0.4793
C15 C 0.68873(9) -0.2384(3) 0.44224(5)
H10 H 0.7321 -0.2970 0.4357
C16 C 0.65291(8) 0.1386(3) 0.35820(4)
H11 H 0.6767 0.2300 0.3416
C17 C 0.57917(8) 0.0557(3) 0.33874(4)
C18 C 0.53658(8) 0.1910(3) 0.30932(4)
H12 H 0.5559 0.3331 0.3022
C19 C 0.46502(8) 0.1254(3) 0.28937(4)
C20 C 0.42081(8) 0.2642(3) 0.25944(5)
H13 H 0.4393 0.4076 0.2522
C21 C 0.35209(9) 0.1958(3) 0.24074(5)
H14 H 0.3230 0.2915 0.2206
C22 C 0.32405(9) -0.0141(3) 0.25097(5)
H15 H 0.2759 -0.0602 0.2377
C23 C 0.36502(8) -0.1532(3) 0.27971(5)
H16 H 0.3452 -0.2955 0.2864
C24 C 0.43669(8) -0.0877(3) 0.29961(4)
C25 C 0.48174(9) -0.2279(3) 0.32914(5)
H17 H 0.4636 -0.3725 0.3360
C26 C 0.55047(9) -0.1604(3) 0.34787(5)
H18 H 0.5798 -0.2592 0.3674
O1 O 0.87827(6) 0.2553(2) 0.45050(3)
loop_
_geom_bond_atom_site_label_1
_geom_bond_atom_site_label_2
_geom_bond_site_symmetry_1
_geom_bond_site_symmetry_2
C1 C2 1_555 1_555
C2 H1 1_555 1_555
C3 C2 1_555 1_555
H2 C3 1_555 1_555
C4 C3 1_555 1_555
H3 C4 1_555 1_555
C5 C4 1_555 1_555
H4 C5 1_555 1_555
C6 C1 1_555 1_555
C7 C6 1_555 1_555
C8 C7 1_555 1_555
H5 C8 1_555 1_555
C9 C7 1_555 1_555
C10 C9 1_555 1_555
C11 C10 1_555 1_555
H6 C11 1_555 1_555
C12 C11 1_555 1_555
H7 C12 1_555 1_555
C13 C12 1_555 1_555
H8 C13 1_555 1_555
C14 C13 1_555 1_555
H9 C14 1_555 1_555
C15 C10 1_555 1_555
H10 C15 1_555 1_555
C16 C9 1_555 1_555
H11 C16 1_555 1_555
C17 C16 1_555 1_555
C18 C17 1_555 1_555
H12 C18 1_555 1_555
C19 C18 1_555 1_555
C20 C19 1_555 1_555
H13 C20 1_555 1_555
C21 C20 1_555 1_555
H14 C21 1_555 1_555
C22 C21 1_555 1_555
H15 C22 1_555 1_555
C23 C22 1_555 1_555
H16 C23 1_555 1_555
C24 C19 1_555 1_555
C25 C24 1_555 1_555
H17 C25 1_555 1_555
C26 C17 1_555 1_555
H18 C26 1_555 1_555
O1 C1 1_555 1_555
C5 C6 1_555 1_555
C8 O1 1_555 1_555
C14 C15 1_555 1_555
C23 C24 1_555 1_555
C25 C26 1_555 1_555

#END
