
#######################################################################
#
#                 Cambridge Crystallographic Data Centre
#                                CCDC 
#
#######################################################################
#
# If this CIF has been generated from an entry in the Cambridge 
# Structural Database, then it will include bibliographic, chemical, 
# crystal, experimental, refinement or atomic coordinate data resulting 
# from the CCDC's data processing and validation procedures.
#
#######################################################################

data_LIPLAA
_chemical_formula_moiety         'C23 H17 N1 O2'
_chemical_name_systematic        
1-(2-methyl-10-phenyl-9H-furo[2,3-b]carbazol-3-yl)ethan-1-one
_symmetry_cell_setting           monoclinic
_symmetry_space_group_name_H-M   'P 21/c'
_symmetry_Int_Tables_number      14
_space_group_name_Hall           '-P 2ybc'
loop_
_symmetry_equiv_pos_site_id
_symmetry_equiv_pos_as_xyz
1 x,y,z
2 -x,1/2+y,1/2-z
3 -x,-y,-z
4 x,1/2-y,1/2+z
_cell_length_a                   10.3613(2)
_cell_length_b                   9.12439(18)
_cell_length_c                   17.7316(3)
_cell_angle_alpha                90
_cell_angle_beta                 103.3377(19)
_cell_angle_gamma                90
_cell_volume                     1631.14
_exptl_crystal_colour            'light yellow'
_exptl_crystal_description       plate
_cell_formula_units_Z            4
loop_
_atom_site_label
_atom_site_type_symbol
_atom_site_fract_x
_atom_site_fract_y
_atom_site_fract_z
C1 C 0.40415(13) 0.59067(15) 0.07941(7)
C2 C 0.32561(13) 0.48497(15) 0.10323(8)
H1 H 0.3405 0.4559 0.1548
C3 C 0.22408(14) 0.42459(15) 0.04697(8)
H2 H 0.1706 0.3526 0.0611
C4 C 0.19996(13) 0.46904(16) -0.03036(8)
H3 H 0.1308 0.4268 -0.0668
C5 C 0.27816(13) 0.57567(15) -0.05337(7)
H4 H 0.2613 0.6059 -0.1048
C6 C 0.38215(13) 0.63690(14) 0.00144(7)
C7 C 0.48429(13) 0.74298(14) -0.00238(7)
C8 C 0.56459(13) 0.75591(14) 0.07413(7)
C9 C 0.67615(13) 0.84776(14) 0.09287(7)
C10 C 0.69723(12) 0.92431(14) 0.02896(7)
C11 C 0.62218(13) 0.91338(14) -0.04731(7)
C12 C 0.51259(13) 0.82097(14) -0.06392(7)
H5 H 0.4605 0.8118 -0.1140
C13 C 0.68683(13) 1.00878(14) -0.09305(8)
C14 C 0.64419(14) 1.02773(16) -0.17724(8)
C15 C 0.70599(17) 1.14424(17) -0.21752(9)
H6 H 0.7954 1.1169 -0.2176
H7 H 0.7063 1.2357 -0.1908
H8 H 0.6557 1.1545 -0.2700
C16 C 0.79321(13) 1.07011(15) -0.04261(8)
C17 C 0.90096(14) 1.17420(16) -0.04907(9)
H9 H 0.9382 1.1459 -0.0917
H10 H 0.9689 1.1723 -0.0020
H11 H 0.8653 1.2715 -0.0577
C18 C 0.76602(13) 0.85613(15) 0.17095(7)
C19 C 0.80253(14) 0.72846(16) 0.21405(8)
H12 H 0.7675 0.6389 0.1942
C20 C 0.89048(14) 0.73340(18) 0.28614(8)
H13 H 0.9133 0.6476 0.3144
C21 C 0.94399(14) 0.86563(19) 0.31590(8)
H14 H 1.0045 0.8689 0.3636
C22 C 0.90710(15) 0.99316(18) 0.27444(8)
H15 H 0.9414 1.0825 0.2950
C23 C 0.81934(14) 0.98912(16) 0.20238(8)
H16 H 0.7959 1.0756 0.1749
N1 N 0.51321(11) 0.66484(12) 0.12236(6)
H17 H 0.5442 0.6557 0.1715
O1 O 0.80210(9) 1.02039(10) 0.03159(5)
O2 O 0.55763(11) 0.94793(13) -0.21489(6)
loop_
_geom_bond_atom_site_label_1
_geom_bond_atom_site_label_2
_geom_bond_site_symmetry_1
_geom_bond_site_symmetry_2
C1 C2 1_555 1_555
C2 H1 1_555 1_555
C3 C2 1_555 1_555
H2 C3 1_555 1_555
C4 C3 1_555 1_555
H3 C4 1_555 1_555
C5 C4 1_555 1_555
H4 C5 1_555 1_555
C6 C1 1_555 1_555
C7 C6 1_555 1_555
C8 C7 1_555 1_555
C9 C8 1_555 1_555
C10 C9 1_555 1_555
C11 C10 1_555 1_555
C12 C7 1_555 1_555
H5 C12 1_555 1_555
C13 C11 1_555 1_555
C14 C13 1_555 1_555
C15 C14 1_555 1_555
H6 C15 1_555 1_555
H7 C15 1_555 1_555
H8 C15 1_555 1_555
C16 C13 1_555 1_555
C17 C16 1_555 1_555
H9 C17 1_555 1_555
H10 C17 1_555 1_555
H11 C17 1_555 1_555
C18 C9 1_555 1_555
C19 C18 1_555 1_555
H12 C19 1_555 1_555
C20 C19 1_555 1_555
H13 C20 1_555 1_555
C21 C20 1_555 1_555
H14 C21 1_555 1_555
C22 C21 1_555 1_555
H15 C22 1_555 1_555
C23 C18 1_555 1_555
H16 C23 1_555 1_555
N1 C1 1_555 1_555
H17 N1 1_555 1_555
O1 C10 1_555 1_555
O2 C14 1_555 1_555
C5 C6 1_555 1_555
C8 N1 1_555 1_555
C11 C12 1_555 1_555
C16 O1 1_555 1_555
C22 C23 1_555 1_555

#END
