
#######################################################################
#
#                 Cambridge Crystallographic Data Centre
#                                CCDC 
#
#######################################################################
#
# If this CIF has been generated from an entry in the Cambridge 
# Structural Database, then it will include bibliographic, chemical, 
# crystal, experimental, refinement or atomic coordinate data resulting 
# from the CCDC's data processing and validation procedures.
#
#######################################################################

data_LIPLUR
_chemical_formula_moiety         '2(C10 H13 N2 O1 S1 1+),C18 H12 O8 2-,C2 H6 O1'
_chemical_name_systematic        
'bis((S)-(+)-7-Methyl-3-propargyloxy-4,5,6,7-tetrahydroisothiazolo(4,5-c)pyridine) D-(+)-dibenzoyltartrate ethanol solvate'
_chemical_properties_biological  
'the cationic part of the structure has muscarinic receptor pharmacological activity'
_symmetry_cell_setting           monoclinic
_symmetry_space_group_name_H-M   'P 21'
_symmetry_Int_Tables_number      4
_space_group_name_Hall           'P 2yb'
loop_
_symmetry_equiv_pos_site_id
_symmetry_equiv_pos_as_xyz
1 x,y,z
2 -x,1/2+y,-z
_cell_length_a                   8.7253(7)
_cell_length_b                   21.142(2)
_cell_length_c                   11.876(2)
_cell_angle_alpha                90
_cell_angle_beta                 105.28(1)
_cell_angle_gamma                90
_cell_volume                     2113.32
_chemical_melting_point          165-166deg.C
_cell_formula_units_Z            2
loop_
_atom_site_label
_atom_site_type_symbol
_atom_site_fract_x
_atom_site_fract_y
_atom_site_fract_z
S1 S 0.7053(2) 0.717 0.5514(1)
O1 O 0.8745(4) 0.6271(2) 0.3434(3)
N1 N 0.7982(6) 0.6566(2) 0.5097(3)
N2 N 0.6642(4) 0.8114(2) 0.2062(3)
C1 C 0.6795(5) 0.7593(2) 0.4239(4)
C2 C 0.5982(6) 0.8214(2) 0.3962(4)
C3 C 0.6117(9) 0.8623(3) 0.5017(6)
C4 C 0.6681(6) 0.8530(2) 0.3054(4)
C5 C 0.7543(5) 0.7506(2) 0.2346(4)
C6 C 0.7447(5) 0.7261(2) 0.3507(3)
C7 C 0.8081(6) 0.6687(2) 0.4032(4)
C8 C 0.9377(8) 0.5707(3) 0.4075(5)
C9 C 0.9833(7) 0.5275(3) 0.3265(5)
C10 C 1.0193(7) 0.4923(3) 0.2617(5)
S2 S 1.3375(2) 0.63849(7) 1.2580(1)
O2 O 1.5223(5) 0.5176(2) 1.4803(3)
N3 N 1.3972(6) 0.6084(2) 1.3914(4)
N4 N 1.4575(4) 0.4557(2) 1.1167(4)
C11 C 1.3931(5) 0.5744(2) 1.1908(4)
C12 C 1.3723(6) 0.5656(3) 1.0620(4)
C13 C 1.4147(8) 0.6259(3) 1.0028(6)
C14 C 1.4740(6) 0.5103(3) 1.0449(5)
C15 C 1.5179(6) 0.4682(2) 1.2456(5)
C16 C 1.4580(5) 0.5301(2) 1.2728(5)
C17 C 1.4580(7) 0.5532(3) 1.3861(5)
C18 C 1.5288(8) 0.5446(4) 1.5924(6)
C19 C 1.382(1) 0.5338(4) 1.6293(6)
C20 C 1.271(1) 0.5234(5) 1.6638(8)
O3 O 1.1044(6) 0.9494(2) 1.2942(3)
O4 O 1.0955(4) 0.8599(1) 1.1914(2)
O5 O 0.7978(4) 0.8972(2) 1.0929(3)
O6 O 0.8539(3) 0.9304(2) 0.9323(3)
O7 O 1.3922(4) 0.8924(2) 1.0521(5)
O8 O 1.3631(4) 0.7920(2) 1.0967(3)
O9 O 1.0508(3) 0.7928(1) 0.9946(2)
O10 O 1.1451(4) 0.7660(2) 0.8434(3)
C21 C 1.1321(5) 0.8499(2) 1.3905(4)
C22 C 1.1085(8) 0.8729(3) 1.4932(4)
C23 C 1.1180(9) 0.8320(4) 1.5863(5)
C24 C 1.1560(7) 0.7702(3) 1.5773(4)
C25 C 1.1849(7) 0.7466(3) 1.4772(4)
C26 C 1.1699(5) 0.7868(2) 1.3823(4)
C27 C 1.1107(5) 0.8927(2) 1.2896(4)
C28 C 1.0666(5) 0.8935(2) 1.0824(4)
C29 C 0.8892(5) 0.9073(2) 1.0319(4)
C30 C 1.1341(4) 0.8521(2) 1.0042(3)
C31 C 1.3132(5) 0.8445(2) 1.0555(5)
C32 C 1.0745(5) 0.7527(2) 0.9155(3)
C33 C 1.0025(5) 0.6898(2) 0.9234(4)
C34 C 0.9612(5) 0.6725(3) 1.0253(4)
C35 C 0.8925(7) 0.6132(3) 1.0300(6)
C36 C 0.8675(8) 0.5740(3) 0.9400(7)
C37 C 0.9093(8) 0.5899(3) 0.8378(6)
C38 C 0.9761(7) 0.6485(3) 0.8303(5)
O11 O 0.546(1) 0.7212(8) 0.800(1)
C39 C 0.4399(8) 0.8283(4) 0.8262(6)
C40 C 0.580(2) 0.7821(8) 0.860(1)
loop_
_geom_bond_atom_site_label_1
_geom_bond_atom_site_label_2
_geom_bond_site_symmetry_1
_geom_bond_site_symmetry_2
S1 N1 1_555 1_555
O1 C7 1_555 1_555
N1 C7 1_555 1_555
N2 C4 1_555 1_555
C1 S1 1_555 1_555
C2 C1 1_555 1_555
C3 C2 1_555 1_555
C4 C2 1_555 1_555
C5 N2 1_555 1_555
C6 C1 1_555 1_555
C7 C6 1_555 1_555
C8 O1 1_555 1_555
C9 C8 1_555 1_555
C10 C9 1_555 1_555
S2 N3 1_555 1_555
O2 C17 1_555 1_555
N3 C17 1_555 1_555
N4 C14 1_555 1_555
C11 S2 1_555 1_555
C12 C11 1_555 1_555
C13 C12 1_555 1_555
C14 C12 1_555 1_555
C15 N4 1_555 1_555
C16 C11 1_555 1_555
C17 C16 1_555 1_555
C18 O2 1_555 1_555
C19 C18 1_555 1_555
C20 C19 1_555 1_555
O3 C27 1_555 1_555
O4 C27 1_555 1_555
O5 C29 1_555 1_555
O6 C29 1_555 1_555
O7 C31 1_555 1_555
O8 C31 1_555 1_555
O9 C30 1_555 1_555
O10 C32 1_555 1_555
O11 C40 1_555 1_555
C21 C22 1_555 1_555
C22 C23 1_555 1_555
C23 C24 1_555 1_555
C24 C25 1_555 1_555
C25 C26 1_555 1_555
C26 C21 1_555 1_555
C27 C21 1_555 1_555
C28 O4 1_555 1_555
C29 C28 1_555 1_555
C30 C28 1_555 1_555
C31 C30 1_555 1_555
C32 O9 1_555 1_555
C33 C32 1_555 1_555
C34 C33 1_555 1_555
C35 C34 1_555 1_555
C36 C35 1_555 1_555
C37 C36 1_555 1_555
C38 C33 1_555 1_555
C39 C40 1_555 1_555
C5 C6 1_555 1_555
C15 C16 1_555 1_555
C37 C38 1_555 1_555

#END
