
#######################################################################
#
#                 Cambridge Crystallographic Data Centre
#                                CCDC 
#
#######################################################################
#
# If this CIF has been generated from an entry in the Cambridge 
# Structural Database, then it will include bibliographic, chemical, 
# crystal, experimental, refinement or atomic coordinate data resulting 
# from the CCDC's data processing and validation procedures.
#
#######################################################################

data_LIPPUX
_chemical_formula_moiety         'C13 H9 Br1 O2,0.17(C6 H14)'
_chemical_name_systematic        
'8-Bromo-4a,9b-dihydrodibenzo[b,d]furan-1-carbaldehyde hexane solvate'
_symmetry_cell_setting           trigonal
_symmetry_space_group_name_H-M   'P 32'
_symmetry_Int_Tables_number      145
_space_group_name_Hall           'P 32'
loop_
_symmetry_equiv_pos_site_id
_symmetry_equiv_pos_as_xyz
1 x,y,z
2 -y,x-y,2/3+z
3 -x+y,-x,1/3+z
_cell_length_a                   15.8305(10)
_cell_length_b                   15.8305(10)
_cell_length_c                   4.1963(6)
_cell_angle_alpha                90
_cell_angle_beta                 90
_cell_angle_gamma                120
_cell_volume                     910.723
_exptl_crystal_colour            colorless
_exptl_crystal_description       rod
_cell_formula_units_Z            3
loop_
_atom_site_label
_atom_site_type_symbol
_atom_site_fract_x
_atom_site_fract_y
_atom_site_fract_z
Br1 Br 0.63307(9) 0.58032(7) 0.0666(5)
O1 O 0.8580(5) 0.9154(6) 0.617(2)
O2 O 0.5368(3) 0.8987(4) 0.2138(16)
C1 C 0.8681(6) 0.9794(8) 0.455(3)
H1 H 0.9303 1.0194 0.3724
C2 C 0.7927(6) 1.0034(6) 0.365(2)
C3 C 0.8192(7) 1.0807(6) 0.215(2)
H2 H 0.8842 1.1183 0.1542
C4 C 0.7478(8) 1.1153(7) 0.127(3)
H3 H 0.7682 1.1712 0.0046
C5 C 0.6601(7) 1.0666(6) 0.224(3)
H4 H 0.6191 1.0915 0.1807
C6 C 0.6175(6) 0.9715(7) 0.404(2)
H5 H 0.5913 0.9792 0.6064
C7 C 0.6905(6) 0.9344(6) 0.477(2)
H6 H 0.6908 0.9228 0.7063
C8 C 0.6395(5) 0.8392(5) 0.3051(19)
C9 C 0.6661(6) 0.7652(6) 0.273(2)
H7 H 0.7237 0.7727 0.3583
C10 C 0.5988(6) 0.6791(6) 0.102(3)
C11 C 0.5157(7) 0.6678(7) -0.020(3)
H8 H 0.4732 0.6093 -0.1205
C12 C 0.4901(7) 0.7406(7) -0.003(3)
H9 H 0.4342 0.7342 -0.0985
C13 C 0.5537(5) 0.8220(6) 0.166(2)
H10? H 0.7546 0.4105 0.2107
H11? H 0.6180 0.2443 -0.0324
H12? H 0.7270 0.3067 0.0504
H13? H 0.7344 0.3084 0.1003
C14? C 0.703(3) 0.345(3) 0.155(12)
C15? C 0.669(3) 0.311(3) 0.009(12)
loop_
_geom_bond_atom_site_label_1
_geom_bond_atom_site_label_2
_geom_bond_site_symmetry_1
_geom_bond_site_symmetry_2
Br1 C10 1_555 1_555
O1 C1 1_555 1_555
O2 C6 1_555 1_555
C1 H1 1_555 1_555
C2 C1 1_555 1_555
C3 C2 1_555 1_555
H2 C3 1_555 1_555
C4 C3 1_555 1_555
H3 C4 1_555 1_555
C5 C4 1_555 1_555
H4 C5 1_555 1_555
C6 C5 1_555 1_555
H5 C6 1_555 1_555
C7 C2 1_555 1_555
H6 C7 1_555 1_555
C8 C7 1_555 1_555
C9 C8 1_555 1_555
H7 C9 1_555 1_555
C10 C9 1_555 1_555
C11 C10 1_555 1_555
H8 C11 1_555 1_555
C12 C11 1_555 1_555
H9 C12 1_555 1_555
C13 O2 1_555 1_555
C6 C7 1_555 1_555
C8 C13 1_555 1_555
C12 C13 1_555 1_555

#END
