
#######################################################################
#
#                 Cambridge Crystallographic Data Centre
#                                CCDC 
#
#######################################################################
#
# If this CIF has been generated from an entry in the Cambridge 
# Structural Database, then it will include bibliographic, chemical, 
# crystal, experimental, refinement or atomic coordinate data resulting 
# from the CCDC's data processing and validation procedures.
#
#######################################################################

data_LIPQEI
_chemical_formula_moiety         'C31 H30 N4 O4 S1'
_chemical_name_systematic        
"t-Butyl 1-benzyl-2,8'-dioxo-4'-phenyl-1'-thioxo-1,2,7',8'-tetrahydro-6'H-spiro[indole-3,3'-pyrazolo[1,2-a][1,2,4]triazine]-2'(1'H)-carboxylate"
_symmetry_cell_setting           triclinic
_symmetry_space_group_name_H-M   'P -1'
_symmetry_Int_Tables_number      2
_space_group_name_Hall           '-P 1'
loop_
_symmetry_equiv_pos_site_id
_symmetry_equiv_pos_as_xyz
1 x,y,z
2 -x,-y,-z
_cell_length_a                   11.246(2)
_cell_length_b                   11.452(2)
_cell_length_c                   12.825(4)
_cell_angle_alpha                98.268(3)
_cell_angle_beta                 97.479(3)
_cell_angle_gamma                117.011(2)
_cell_volume                     1420.01
_exptl_crystal_colour            yellow
_exptl_crystal_description       block
_cell_formula_units_Z            2
loop_
_atom_site_label
_atom_site_type_symbol
_atom_site_fract_x
_atom_site_fract_y
_atom_site_fract_z
S1 S -0.27158(8) 0.35706(9) 0.14551(9)
O1 O -0.1663(3) 0.6364(3) 0.1207(3)
O2 O -0.1094(3) 0.1821(3) 0.2862(3)
O3 O -0.1852(2) 0.1338(2) 0.1057(2)
O4 O 0.1304(3) 0.2306(3) 0.1221(2)
N1 N 0.1318(2) 0.6171(2) 0.1964(2)
N2 N -0.0162(2) 0.5525(2) 0.1599(2)
N3 N -0.0400(3) 0.3503(2) 0.1934(2)
N4 N 0.2383(3) 0.3132(3) 0.3022(3)
C1 C 0.2027(4) 0.5750(4) 0.5376(3)
H1 H 0.1910 0.6333 0.5884
C2 C 0.1385(3) 0.5450(3) 0.4292(3)
H2 H 0.0845 0.5827 0.4071
C3 C 0.2828(4) 0.5197(5) 0.5703(3)
H3 H 0.3245 0.5413 0.6430
C4 C 0.3026(4) 0.4324(4) 0.4973(3)
H4 H 0.3575 0.3955 0.5194
C5 C 0.2375(4) 0.4022(4) 0.3902(3)
C6 C 0.1573(3) 0.4576(3) 0.3553(3)
C7 C 0.1087(3) 0.4100(3) 0.2355(3)
C8 C 0.1567(3) 0.3036(3) 0.2096(3)
C9 C 0.3243(5) 0.2500(5) 0.3047(4)
H5 H 0.4159 0.3164 0.3448
H6 H 0.3302 0.2223 0.2313
C10 C 0.1789(3) 0.5180(3) 0.1721(3)
H7 H 0.1476 0.4763 0.0946
C11 C -0.1035(3) 0.4227(3) 0.1677(3)
C12 C 0.1800(3) 0.7240(3) 0.1353(3)
H8 H 0.1801 0.6881 0.0620
H9 H 0.2714 0.7957 0.1706
C13 C 0.0764(3) 0.7732(3) 0.1364(3)
H10 H 0.1032 0.8441 0.2002
H11 H 0.0657 0.8070 0.0726
C14 C -0.0527(4) 0.6511(3) 0.1374(3)
C15 C -0.1194(4) 0.2122(3) 0.2013(3)
C16 C -0.2712(4) -0.0149(4) 0.0925(4)
C17 C -0.3817(5) -0.0403(5) 0.1568(5)
H12 H -0.3405 -0.0122 0.2327
H13 H -0.4467 -0.1346 0.1389
H14 H -0.4275 0.0099 0.1395
C18 C -0.1802(5) -0.0732(5) 0.1258(6)
H15 H -0.1037 -0.0409 0.0919
H16 H -0.2312 -0.1696 0.1040
H17 H -0.1478 -0.0462 0.2029
C19 C -0.3299(6) -0.0608(5) -0.0277(5)
H18 H -0.3850 -0.0200 -0.0474
H19 H -0.3854 -0.1570 -0.0469
H20 H -0.2566 -0.0346 -0.0654
C20 C 0.3334(3) 0.5816(3) 0.2031(3)
C21 C 0.4109(3) 0.6780(3) 0.2975(3)
H21 H 0.3693 0.7124 0.3415
C22 C 0.5502(4) 0.7235(4) 0.3269(3)
H22 H 0.6021 0.7890 0.3901
C23 C 0.6123(4) 0.6716(5) 0.2622(4)
H23 H 0.7056 0.7009 0.2826
C24 C 0.5364(4) 0.5772(4) 0.1685(4)
H24 H 0.5784 0.5427 0.1250
C25 C 0.3975(4) 0.5326(4) 0.1377(3)
H25 H 0.3470 0.4696 0.0730
C26 C 0.2754(7) 0.1290(6) 0.3546(4)
C27 C 0.1124(11) -0.0410(7) 0.4259(7)
H26 H 0.0258 -0.0817 0.4409
C28 C 0.3480(18) -0.031(3) 0.421(2)
C29 C 0.3674(8) 0.0780(7) 0.3748(6)
C30 C 0.1516(10) 0.0699(6) 0.3796(5)
H27 H 0.0916 0.1039 0.3658
C31 C 0.2005(13) -0.0912(8) 0.4494(7)
C32? C 0.2989(17) -0.042(2) 0.4194(17)
loop_
_geom_bond_atom_site_label_1
_geom_bond_atom_site_label_2
_geom_bond_site_symmetry_1
_geom_bond_site_symmetry_2
S1 C11 1_555 1_555
O1 C14 1_555 1_555
O2 C15 1_555 1_555
O3 C15 1_555 1_555
O4 C8 1_555 1_555
N1 N2 1_555 1_555
N2 C11 1_555 1_555
N3 C7 1_555 1_555
N4 C5 1_555 1_555
C1 H1 1_555 1_555
C2 C1 1_555 1_555
H2 C2 1_555 1_555
C3 C1 1_555 1_555
H3 C3 1_555 1_555
C4 C3 1_555 1_555
H4 C4 1_555 1_555
C5 C4 1_555 1_555
C6 C2 1_555 1_555
C7 C6 1_555 1_555
C8 N4 1_555 1_555
C9 N4 1_555 1_555
H5 C9 1_555 1_555
H6 C9 1_555 1_555
C10 N1 1_555 1_555
H7 C10 1_555 1_555
C11 N3 1_555 1_555
C12 N1 1_555 1_555
H8 C12 1_555 1_555
H9 C12 1_555 1_555
C13 C12 1_555 1_555
H10 C13 1_555 1_555
H11 C13 1_555 1_555
C14 N2 1_555 1_555
C15 N3 1_555 1_555
C16 O3 1_555 1_555
C17 C16 1_555 1_555
H12 C17 1_555 1_555
H13 C17 1_555 1_555
H14 C17 1_555 1_555
C18 C16 1_555 1_555
H15 C18 1_555 1_555
H16 C18 1_555 1_555
H17 C18 1_555 1_555
C19 C16 1_555 1_555
H18 C19 1_555 1_555
H19 C19 1_555 1_555
H20 C19 1_555 1_555
C20 C10 1_555 1_555
C21 C20 1_555 1_555
H21 C21 1_555 1_555
C22 C21 1_555 1_555
H22 C22 1_555 1_555
C23 C22 1_555 1_555
H23 C23 1_555 1_555
C24 C23 1_555 1_555
H24 C24 1_555 1_555
C25 C20 1_555 1_555
H25 C25 1_555 1_555
C26 C9 1_555 1_555
C27 H26 1_555 1_555
C28 C29 1_555 1_555
C29 C26 1_555 1_555
C30 C26 1_555 1_555
H27 C30 1_555 1_555
C31 C27 1_555 1_555
C5 C6 1_555 1_555
C7 C8 1_555 1_555
C7 C10 1_555 1_555
C13 C14 1_555 1_555
C24 C25 1_555 1_555
C27 C30 1_555 1_555
C28 C31 1_555 1_555

#END
