
#######################################################################
#
#                 Cambridge Crystallographic Data Centre
#                                CCDC 
#
#######################################################################
#
# If this CIF has been generated from an entry in the Cambridge 
# Structural Database, then it will include bibliographic, chemical, 
# crystal, experimental, refinement or atomic coordinate data resulting 
# from the CCDC's data processing and validation procedures.
#
#######################################################################

data_LIPRIM
_chemical_formula_moiety         'C24 H23 N1 O2'
_chemical_name_systematic        
2-Hydroxy-N-(1-(naphthalen-2-yl)ethyl)-3-phenylhexa-3,5-dienamide
_symmetry_cell_setting           orthorhombic
_symmetry_space_group_name_H-M   'P 21 21 21'
_symmetry_Int_Tables_number      19
_space_group_name_Hall           'P 2ac 2ab'
loop_
_symmetry_equiv_pos_site_id
_symmetry_equiv_pos_as_xyz
1 x,y,z
2 1/2-x,-y,1/2+z
3 1/2+x,1/2-y,-z
4 -x,1/2+y,1/2-z
_cell_length_a                   5.84900(10)
_cell_length_b                   16.3630(4)
_cell_length_c                   20.7290(5)
_cell_angle_alpha                90
_cell_angle_beta                 90
_cell_angle_gamma                90
_cell_volume                     1983.91
_exptl_crystal_colour            colorless
_exptl_crystal_description       needles
_cell_formula_units_Z            4
_exptl_crystal_recrystallization_method chloroform
loop_
_atom_site_label
_atom_site_type_symbol
_atom_site_fract_x
_atom_site_fract_y
_atom_site_fract_z
O1 O -0.2291(3) 0.42946(10) 0.23766(7)
O2 O 0.3486(3) 0.46104(10) 0.28005(7)
N1 N 0.1581(3) 0.44988(12) 0.18523(9)
C1 C -0.2816(7) 0.3584(3) 0.50095(15)
H1 H -0.335(7) 0.419(2) 0.5025(16)
H2 H -0.279(7) 0.316(2) 0.5357(17)
C2 C -0.1782(5) 0.33921(18) 0.44607(13)
C3 C -0.1440(4) 0.39614(16) 0.39385(11)
C4 C -0.0547(4) 0.38007(14) 0.33584(10)
C5 C -0.0562(4) 0.44488(15) 0.28450(12)
C6 C 0.1704(4) 0.45171(12) 0.24915(10)
C7 C 0.3472(4) 0.46796(14) 0.14151(11)
C8 C 0.2568(5) 0.51949(17) 0.08536(13)
C9 C 0.0337(4) 0.29746(13) 0.31756(11)
C10 C -0.0896(4) 0.24714(16) 0.27562(12)
C11 C -0.0078(6) 0.17041(16) 0.25971(14)
C12 C 0.1974(5) 0.14352(16) 0.28446(13)
C13 C 0.3234(5) 0.19281(16) 0.32464(13)
C14 C 0.2427(5) 0.27000(16) 0.34094(12)
C15 C 0.4766(4) 0.39272(14) 0.11935(10)
C16 C 0.4089(4) 0.31472(14) 0.13266(11)
C17 C 0.5403(4) 0.24629(15) 0.11275(10)
C18 C 0.4729(5) 0.16501(16) 0.12588(12)
C19 C 0.6059(5) 0.10028(18) 0.10682(12)
C20 C 0.8108(5) 0.11352(17) 0.07334(12)
C21 C 0.8798(5) 0.19110(17) 0.05972(12)
C22 C 0.7481(4) 0.25930(14) 0.07876(10)
C23 C 0.8132(4) 0.34076(15) 0.06474(11)
C24 C 0.6818(4) 0.40497(16) 0.08372(11)
H3 H -0.133(4) 0.2809(14) 0.4387(11)
H4 H -0.200(4) 0.4534(14) 0.4045(10)
H5 H -0.082(4) 0.5001(13) 0.3061(11)
H6 H 0.459(4) 0.4994(11) 0.1651(10)
H7 H 0.183(5) 0.5680(16) 0.1043(12)
H8 H 0.389(6) 0.5400(17) 0.0586(15)
H9 H 0.146(5) 0.4859(14) 0.0577(13)
H10 H -0.234(5) 0.2705(14) 0.2545(11)
H11 H -0.095(5) 0.1343(17) 0.2308(13)
H12 H 0.256(5) 0.0872(16) 0.2722(12)
H13 H 0.470(6) 0.1699(17) 0.3382(14)
H14 H 0.328(5) 0.3041(15) 0.3712(13)
H15 H 0.259(4) 0.3058(12) 0.1580(10)
H16 H 0.323(5) 0.1539(14) 0.1483(11)
H17 H 0.563(5) 0.0395(16) 0.1160(12)
H18 H 0.898(5) 0.0640(16) 0.0610(13)
H19 H 1.013(5) 0.2000(14) 0.0367(12)
H20 H 0.950(5) 0.3496(14) 0.0396(11)
H21 H 0.729(4) 0.4617(13) 0.0746(10)
H22 H -0.381(5) 0.4373(14) 0.2565(12)
H23 H 0.025(5) 0.4429(14) 0.1717(11)
loop_
_geom_bond_atom_site_label_1
_geom_bond_atom_site_label_2
_geom_bond_site_symmetry_1
_geom_bond_site_symmetry_2
O1 C5 1_555 1_555
O2 C6 1_555 1_555
N1 C6 1_555 1_555
C1 H1 1_555 1_555
H2 C1 1_555 1_555
C2 C1 1_555 1_555
C3 C2 1_555 1_555
C4 C3 1_555 1_555
C5 C4 1_555 1_555
C6 C5 1_555 1_555
C7 N1 1_555 1_555
C8 C7 1_555 1_555
C9 C4 1_555 1_555
C10 C9 1_555 1_555
C11 C10 1_555 1_555
C12 C11 1_555 1_555
C13 C12 1_555 1_555
C14 C9 1_555 1_555
C15 C7 1_555 1_555
C16 C15 1_555 1_555
C17 C16 1_555 1_555
C18 C17 1_555 1_555
C19 C18 1_555 1_555
C20 C19 1_555 1_555
C21 C20 1_555 1_555
C22 C17 1_555 1_555
C23 C22 1_555 1_555
C24 C15 1_555 1_555
H3 C2 1_555 1_555
H4 C3 1_555 1_555
H5 C5 1_555 1_555
H6 C7 1_555 1_555
H7 C8 1_555 1_555
H8 C8 1_555 1_555
H9 C8 1_555 1_555
H10 C10 1_555 1_555
H11 C11 1_555 1_555
H12 C12 1_555 1_555
H13 C13 1_555 1_555
H14 C14 1_555 1_555
H15 C16 1_555 1_555
H16 C18 1_555 1_555
H17 C19 1_555 1_555
H18 C20 1_555 1_555
H19 C21 1_555 1_555
H20 C23 1_555 1_555
H21 C24 1_555 1_555
H22 O1 1_555 1_555
H23 N1 1_555 1_555
C13 C14 1_555 1_555
C21 C22 1_555 1_555
C23 C24 1_555 1_555

#END
