
#######################################################################
#
#                 Cambridge Crystallographic Data Centre
#                                CCDC 
#
#######################################################################
#
# If this CIF has been generated from an entry in the Cambridge 
# Structural Database, then it will include bibliographic, chemical, 
# crystal, experimental, refinement or atomic coordinate data resulting 
# from the CCDC's data processing and validation procedures.
#
#######################################################################

data_LIPSOS
_chemical_formula_moiety         'C24 H21 O6 P1'
_chemical_name_systematic        
10-(2,5-bis(2,3-Epoxy-1-propoxy)phenyl)-9-oxa-10-phosphaphenanthren-10-one
_symmetry_cell_setting           triclinic
_symmetry_space_group_name_H-M   'P -1'
_symmetry_Int_Tables_number      2
_space_group_name_Hall           '-P 1'
loop_
_symmetry_equiv_pos_site_id
_symmetry_equiv_pos_as_xyz
1 x,y,z
2 -x,-y,-z
_cell_length_a                   8.507(3)
_cell_length_b                   10.613(4)
_cell_length_c                   12.457(3)
_cell_angle_alpha                80.05(3)
_cell_angle_beta                 71.380(20)
_cell_angle_gamma                76.69(3)
_cell_volume                     1031.15
_exptl_crystal_colour            colorless
_exptl_crystal_description       block
_cell_formula_units_Z            2
_exptl_crystal_recrystallization_method 'acetone/diethyl ether'
loop_
_atom_site_label
_atom_site_type_symbol
_atom_site_fract_x
_atom_site_fract_y
_atom_site_fract_z
P1 P 0.91830(7) 0.72952(5) 0.42866(4)
O1 O 0.91393(20) 0.88184(13) 0.41924(11)
O2 O 1.01965(18) 0.65441(14) 0.50183(12)
O3 O 0.62925(19) 0.88473(16) 0.34941(13)
O4 O 0.43348(23) 0.50935(19) 0.70245(17)
O5 O 0.6501(3) 1.07616(21) 0.13093(17)
O6 O 0.3526(3) 0.35111(20) 0.93426(15)
C1 C 0.99099(24) 0.69429(19) 0.28446(17)
C2 C 0.9979(3) 0.56760(21) 0.26422(19)
C3 C 1.0522(4) 0.53423(23) 0.15454(21)
C4 C 1.0977(3) 0.62705(24) 0.06468(20)
C5 C 1.0911(3) 0.75264(22) 0.08321(18)
C6 C 1.03995(24) 0.78933(19) 0.19331(17)
C7 C 1.04305(24) 0.92132(19) 0.21477(17)
C8 C 1.1068(3) 1.01450(22) 0.12615(18)
C9 C 1.1138(3) 1.13594(23) 0.14696(21)
C10 C 1.0608(3) 1.16890(21) 0.25709(20)
C11 C 0.9971(3) 1.08089(20) 0.34569(18)
C12 C 0.98745(24) 0.96034(19) 0.32373(17)
C13 C 0.70086(25) 0.71466(20) 0.48413(17)
C14 C 0.5772(3) 0.79267(21) 0.43766(18)
C15 C 0.4131(3) 0.7708(3) 0.47928(21)
C16 C 0.3723(3) 0.6749(3) 0.56627(23)
C17 C 0.4916(3) 0.59915(23) 0.61484(20)
C18 C 0.6568(3) 0.61766(21) 0.57315(19)
C19 C 0.5078(3) 0.9919(3) 0.32510(21)
C20 C 0.5989(4) 1.0917(3) 0.24555(24)
C21 C 0.5268(4) 1.1872(3) 0.1737(3)
C22 C 0.5480(4) 0.4195(3) 0.74853(25)
C23 C 0.4298(5) 0.3256(4) 0.8195(3)
C24 C 0.4840(6) 0.2380(6) 0.9056(4)
H1 H 0.964 0.503 0.328
H2 H 1.060 0.445 0.141
H3 H 1.135 0.604 -0.013
H4 H 1.121 0.817 0.019
H5 H 1.146 0.992 0.049
H6 H 1.158 1.199 0.084
H7 H 1.069 1.254 0.272
H8 H 0.959 1.103 0.424
H9 H 0.328 0.825 0.446
H10 H 0.257 0.659 0.595
H11 H 0.743 0.563 0.605
H12 H 0.459 0.990 0.274
H13 H 0.434 1.029 0.395
H14 H 0.684 1.119 0.274
H15 H 0.547 1.273 0.143
H16 H 0.414 1.188 0.176
H17 H 0.634 0.378 0.687
H18 H 0.589 0.467 0.792
H19 H 0.366 0.295 0.781
H20 H 0.464 0.150 0.926
H21 H 0.599 0.232 0.913
C25? C 0.4999(8) 0.3175(7) 0.8488(6)
C26? C 0.3475(8) 0.2776(6) 0.8532(5)
H22? H 0.591 0.247 0.867
H23? H 0.331 0.190 0.869
H24? H 0.293 0.318 0.793
loop_
_geom_bond_atom_site_label_1
_geom_bond_atom_site_label_2
_geom_bond_site_symmetry_1
_geom_bond_site_symmetry_2
P1 O1 1_555 1_555
O1 C12 1_555 1_555
O2 P1 1_555 1_555
O3 C14 1_555 1_555
O4 C17 1_555 1_555
O5 C20 1_555 1_555
O6 C23 1_555 1_555
C1 P1 1_555 1_555
C2 C1 1_555 1_555
C3 C2 1_555 1_555
C4 C3 1_555 1_555
C5 C4 1_555 1_555
C6 C1 1_555 1_555
C7 C6 1_555 1_555
C8 C7 1_555 1_555
C9 C8 1_555 1_555
C10 C9 1_555 1_555
C11 C10 1_555 1_555
C12 C7 1_555 1_555
C13 P1 1_555 1_555
C14 C13 1_555 1_555
C15 C14 1_555 1_555
C16 C15 1_555 1_555
C17 C16 1_555 1_555
C18 C13 1_555 1_555
C19 O3 1_555 1_555
C20 C19 1_555 1_555
C21 O5 1_555 1_555
C22 O4 1_555 1_555
C23 C22 1_555 1_555
C24 O6 1_555 1_555
H1 C2 1_555 1_555
H2 C3 1_555 1_555
H3 C4 1_555 1_555
H4 C5 1_555 1_555
H5 C8 1_555 1_555
H6 C9 1_555 1_555
H7 C10 1_555 1_555
H8 C11 1_555 1_555
H9 C15 1_555 1_555
H10 C16 1_555 1_555
H11 C18 1_555 1_555
H12 C19 1_555 1_555
H13 C19 1_555 1_555
H14 C20 1_555 1_555
H15 C21 1_555 1_555
H16 C21 1_555 1_555
H17 C22 1_555 1_555
H18 C22 1_555 1_555
H19 C23 1_555 1_555
H20 C24 1_555 1_555
H21 C24 1_555 1_555
C5 C6 1_555 1_555
C11 C12 1_555 1_555
C17 C18 1_555 1_555
C20 C21 1_555 1_555
C23 C24 1_555 1_555

#END
