
#######################################################################
#
#                 Cambridge Crystallographic Data Centre
#                                CCDC 
#
#######################################################################
#
# If this CIF has been generated from an entry in the Cambridge 
# Structural Database, then it will include bibliographic, chemical, 
# crystal, experimental, refinement or atomic coordinate data resulting 
# from the CCDC's data processing and validation procedures.
#
#######################################################################

data_LIPSEJ
_chemical_name_common            
4,5,9,10-Tetrabromo-2,7-dioctylbenzo(lmn)(3,8)phenanthroline-1,3,6,8-tetraone
_chemical_formula_moiety         'C30 H34 Br4 N2 O4'
_chemical_name_systematic        
"N,N'-bis(n-Octyl)-2,3,6,7-tetrabromonaphthalene diimide"
_symmetry_cell_setting           triclinic
_symmetry_space_group_name_H-M   'P -1'
_symmetry_Int_Tables_number      2
_space_group_name_Hall           '-P 1'
loop_
_symmetry_equiv_pos_site_id
_symmetry_equiv_pos_as_xyz
1 x,y,z
2 -x,-y,-z
_cell_length_a                   9.839(5)
_cell_length_b                   9.925(5)
_cell_length_c                   17.139(7)
_cell_angle_alpha                101.693(10)
_cell_angle_beta                 91.224(17)
_cell_angle_gamma                112.630(15)
_cell_volume                     1503.58
_exptl_crystal_colour            yellow
_exptl_crystal_description       platelet
_chemical_melting_point          '258 deg.C'
_cell_formula_units_Z            2
_exptl_crystal_recrystallization_method methanol/chloroform
loop_
_atom_site_label
_atom_site_type_symbol
_atom_site_fract_x
_atom_site_fract_y
_atom_site_fract_z
Br1 Br 0.67435(10) 1.33784(10) 0.07923(5)
Br2 Br 0.59300(10) 1.15136(10) 0.21518(6)
Br3 Br -0.20791(10) 0.60537(10) -0.04357(5)
Br4 Br -0.12296(10) 0.79217(10) -0.17951(5)
O1 O 0.5600(7) 1.2737(7) -0.0853(4)
O2 O 0.3241(7) 0.9421(7) 0.2534(4)
O3 O -0.0400(7) 0.5734(7) 0.0821(4)
O4 O 0.0739(7) 1.0960(7) -0.1719(4)
N1 N 0.3175(8) 1.1893(8) -0.1267(4)
N2 N 0.1565(8) 0.7501(8) 0.1622(4)
C1 C 0.4343(10) 1.2061(9) -0.0736(6)
C2 C 0.3916(9) 1.1325(9) -0.0047(5)
C3 C 0.4895(9) 1.1747(10) 0.0631(5)
C4 C 0.4512(10) 1.0933(10) 0.1256(5)
C5 C 0.3164(9) 0.9732(9) 0.1181(5)
C6 C 0.2692(11) 0.8903(10) 0.1840(6)
C7 C 0.0594(10) 0.6978(10) 0.0933(5)
C8 C 0.0801(9) 0.7978(10) 0.0368(5)
C9 C -0.0185(10) 0.7636(9) -0.0290(5)
C10 C 0.0111(10) 0.8555(9) -0.0868(5)
C11 C 0.1422(9) 0.9794(9) -0.0772(5)
C12 C 0.1716(11) 1.0901(9) -0.1302(6)
C13 C 0.2521(9) 1.0156(9) -0.0118(4)
C14 C 0.2155(9) 0.9302(9) 0.0479(5)
C15 C 0.3497(11) 1.2874(10) -0.1842(5)
H1 H 0.4430 1.3762 -0.1637
H2 H 0.2693 1.3232 -0.1877
C16 C 0.3645(10) 1.2104(10) -0.2670(5)
H3 H 0.2773 1.1143 -0.2845
H4 H 0.4536 1.1872 -0.2647
C17 C 0.3769(10) 1.3034(10) -0.3283(5)
H5 H 0.2859 1.3231 -0.3320
H6 H 0.3821 1.2446 -0.3813
C18 C 0.5117(11) 1.4536(11) -0.3095(6)
H7 H 0.5998 1.4368 -0.2928
H8 H 0.4947 1.5222 -0.2639
C19 C 0.5436(11) 1.5288(10) -0.3808(6)
H9 H 0.5572 1.4589 -0.4271
H10 H 0.4570 1.5489 -0.3963
C20 C 0.6806(10) 1.6751(10) -0.3627(6)
H11 H 0.7662 1.6543 -0.3461
H12 H 0.6659 1.7444 -0.3166
C21 C 0.7189(11) 1.7539(10) -0.4318(6)
H13 H 0.6352 1.7785 -0.4473
H14 H 0.7316 1.6844 -0.4786
C22 C 0.8604(12) 1.8982(12) -0.4110(7)
H15 H 0.8871 1.9364 -0.4593
H16 H 0.9412 1.8768 -0.3897
H17 H 0.8432 1.9736 -0.3706
C23 C 0.1398(10) 0.6466(9) 0.2160(5)
H18 H 0.2350 0.6803 0.2497
H19 H 0.1193 0.5454 0.1828
C24 C 0.0182(10) 0.6348(9) 0.2705(5)
H20 H -0.0756 0.6142 0.2388
H21 H 0.0453 0.7303 0.3109
C25 C -0.0012(11) 0.5065(11) 0.3125(6)
H22 H -0.0242 0.4135 0.2707
H23 H 0.0946 0.5292 0.3429
C26 C -0.1179(11) 0.4764(10) 0.3684(6)
H24 H -0.2145 0.4539 0.3389
H25 H -0.0946 0.5676 0.4116
C27 C -0.1306(11) 0.3442(11) 0.4062(6)
H26 H -0.1526 0.2540 0.3625
H27 H -0.0332 0.3675 0.4352
C28 C -0.2452(11) 0.3077(11) 0.4626(6)
H28 H -0.3437 0.2783 0.4332
H29 H -0.2266 0.3988 0.5051
C29 C -0.2479(11) 0.1809(11) 0.5020(6)
H30 H -0.2769 0.0868 0.4603
H31 H -0.1473 0.2056 0.5273
C30 C -0.3557(11) 0.1579(11) 0.5649(6)
H32 H -0.3586 0.0732 0.5869
H33 H -0.4547 0.1368 0.5403
H34 H -0.3233 0.2488 0.6080
loop_
_geom_bond_atom_site_label_1
_geom_bond_atom_site_label_2
_geom_bond_site_symmetry_1
_geom_bond_site_symmetry_2
Br1 C3 1_555 1_555
Br2 C4 1_555 1_555
Br3 C9 1_555 1_555
Br4 C10 1_555 1_555
O1 C1 1_555 1_555
O2 C6 1_555 1_555
O3 C7 1_555 1_555
O4 C12 1_555 1_555
N1 C1 1_555 1_555
N2 C6 1_555 1_555
C1 C2 1_555 1_555
C2 C3 1_555 1_555
C3 C4 1_555 1_555
C4 C5 1_555 1_555
C5 C6 1_555 1_555
C7 N2 1_555 1_555
C8 C7 1_555 1_555
C9 C8 1_555 1_555
C10 C9 1_555 1_555
C11 C10 1_555 1_555
C12 N1 1_555 1_555
C13 C2 1_555 1_555
C14 C5 1_555 1_555
C15 N1 1_555 1_555
H1 C15 1_555 1_555
H2 C15 1_555 1_555
C16 C15 1_555 1_555
H3 C16 1_555 1_555
H4 C16 1_555 1_555
C17 C16 1_555 1_555
H5 C17 1_555 1_555
H6 C17 1_555 1_555
C18 C17 1_555 1_555
H7 C18 1_555 1_555
H8 C18 1_555 1_555
C19 C18 1_555 1_555
H9 C19 1_555 1_555
H10 C19 1_555 1_555
C20 C19 1_555 1_555
H11 C20 1_555 1_555
H12 C20 1_555 1_555
C21 C20 1_555 1_555
H13 C21 1_555 1_555
H14 C21 1_555 1_555
C22 C21 1_555 1_555
H15 C22 1_555 1_555
H16 C22 1_555 1_555
H17 C22 1_555 1_555
C23 N2 1_555 1_555
H18 C23 1_555 1_555
H19 C23 1_555 1_555
C24 C23 1_555 1_555
H20 C24 1_555 1_555
H21 C24 1_555 1_555
C25 C24 1_555 1_555
H22 C25 1_555 1_555
H23 C25 1_555 1_555
C26 C25 1_555 1_555
H24 C26 1_555 1_555
H25 C26 1_555 1_555
C27 C26 1_555 1_555
H26 C27 1_555 1_555
H27 C27 1_555 1_555
C28 C27 1_555 1_555
H28 C28 1_555 1_555
H29 C28 1_555 1_555
C29 C28 1_555 1_555
H30 C29 1_555 1_555
H31 C29 1_555 1_555
C30 C29 1_555 1_555
H32 C30 1_555 1_555
H33 C30 1_555 1_555
H34 C30 1_555 1_555
C8 C14 1_555 1_555
C11 C12 1_555 1_555
C11 C13 1_555 1_555
C13 C14 1_555 1_555

#END
