
#######################################################################
#
#                 Cambridge Crystallographic Data Centre
#                                CCDC 
#
#######################################################################
#
# If this CIF has been generated from an entry in the Cambridge 
# Structural Database, then it will include bibliographic, chemical, 
# crystal, experimental, refinement or atomic coordinate data resulting 
# from the CCDC's data processing and validation procedures.
#
#######################################################################

data_LIPVIR
_chemical_formula_moiety         'C8 H9 Cl1 N2 O1'
_chemical_name_systematic        2-Amino-6-chloro-N-methylbenzamide
_symmetry_cell_setting           orthorhombic
_symmetry_space_group_name_H-M   'P b c a'
_symmetry_Int_Tables_number      61
_space_group_name_Hall           '-P 2ac 2ab'
loop_
_symmetry_equiv_pos_site_id
_symmetry_equiv_pos_as_xyz
1 x,y,z
2 1/2-x,-y,1/2+z
3 -x,1/2+y,1/2-z
4 1/2+x,1/2-y,-z
5 -x,-y,-z
6 1/2+x,y,1/2-z
7 x,1/2-y,1/2+z
8 1/2-x,1/2+y,z
_cell_length_a                   9.2709(19)
_cell_length_b                   11.812(2)
_cell_length_c                   15.982(3)
_cell_angle_alpha                90
_cell_angle_beta                 90
_cell_angle_gamma                90
_cell_volume                     1750.15
_exptl_crystal_colour            colorless
_exptl_crystal_description       block
_cell_formula_units_Z            8
loop_
_atom_site_label
_atom_site_type_symbol
_atom_site_fract_x
_atom_site_fract_y
_atom_site_fract_z
Cl1 Cl 0.16414(9) 0.67224(7) 0.15558(6)
O1 O -0.2070(2) 0.70451(18) 0.04718(16)
C1 C -0.0247(3) 0.8296(2) 0.0969(2)
N1 N -0.1950(3) 0.9652(2) 0.0421(2)
H1 H -0.2129 0.9255 -0.0017
H2 H -0.2227 1.0347 0.0402
C2 C -0.0826(3) 0.7415(2) 0.0382(2)
N2 N 0.0030(3) 0.7101(2) -0.02413(17)
H3 H 0.0870 0.7405 -0.0280
C3 C 0.0854(3) 0.8068(3) 0.1541(2)
C4 C -0.0872(3) 0.9385(3) 0.0972(2)
C5 C -0.0390(4) 1.0177(3) 0.1558(2)
H4 H -0.0809 1.0911 0.1568
C6 C 0.1338(4) 0.8853(3) 0.2115(2)
H5 H 0.2095 0.8675 0.2493
C7 C 0.0685(4) 0.9910(3) 0.2123(2)
H6 H 0.0982 1.0458 0.2522
C8 C -0.0395(4) 0.6261(3) -0.0866(3)
H7 H -0.0103 0.6522 -0.1423
H8 H -0.1443 0.6160 -0.0851
H9 H 0.0079 0.5538 -0.0742
loop_
_geom_bond_atom_site_label_1
_geom_bond_atom_site_label_2
_geom_bond_site_symmetry_1
_geom_bond_site_symmetry_2
Cl1 C3 1_555 1_555
O1 C2 1_555 1_555
C1 C2 1_555 1_555
N1 H1 1_555 1_555
H2 N1 1_555 1_555
C2 N2 1_555 1_555
N2 H3 1_555 1_555
C3 C1 1_555 1_555
C4 C1 1_555 1_555
C5 C4 1_555 1_555
H4 C5 1_555 1_555
C6 C3 1_555 1_555
H5 C6 1_555 1_555
C7 C5 1_555 1_555
H6 C7 1_555 1_555
C8 N2 1_555 1_555
H7 C8 1_555 1_555
H8 C8 1_555 1_555
H9 C8 1_555 1_555
N1 C4 1_555 1_555
C6 C7 1_555 1_555

#END
