
#######################################################################
#
#                 Cambridge Crystallographic Data Centre
#                                CCDC 
#
#######################################################################
#
# If this CIF has been generated from an entry in the Cambridge 
# Structural Database, then it will include bibliographic, chemical, 
# crystal, experimental, refinement or atomic coordinate data resulting 
# from the CCDC's data processing and validation procedures.
#
#######################################################################

data_LIPWAJ
_chemical_formula_moiety         'C23 H20 N2 O4'
_chemical_name_systematic        
3-(Cyclohept-1-enyl)-1-(4-nitrophenyl)-4-phenylpyrrole-2,5-dione
_symmetry_cell_setting           monoclinic
_symmetry_space_group_name_H-M   'P 21/c'
_symmetry_Int_Tables_number      14
_space_group_name_Hall           '-P 2ybc'
loop_
_symmetry_equiv_pos_site_id
_symmetry_equiv_pos_as_xyz
1 x,y,z
2 -x,1/2+y,1/2-z
3 -x,-y,-z
4 x,1/2-y,1/2+z
_cell_length_a                   19.368(4)
_cell_length_b                   14.472(3)
_cell_length_c                   7.2337(14)
_cell_angle_alpha                90
_cell_angle_beta                 100.02(3)
_cell_angle_gamma                90
_cell_volume                     1996.63
_exptl_crystal_colour            colorless
_exptl_crystal_description       block
_cell_formula_units_Z            4
loop_
_atom_site_label
_atom_site_type_symbol
_atom_site_fract_x
_atom_site_fract_y
_atom_site_fract_z
O1 O 0.60618(8) 0.46336(12) -0.5680(3)
O2 O 0.70437(9) 0.27456(14) -0.0867(3)
O3 O 0.32652(11) 0.23266(17) -0.2961(3)
O4 O 0.37759(11) 0.10109(17) -0.3023(3)
N1 N 0.37751(14) 0.1854(2) -0.3033(3)
N2 N 0.63648(10) 0.36071(14) -0.3205(3)
C1 C 0.65027(13) 0.42806(18) -0.4492(4)
C2 C 0.72844(12) 0.44549(18) -0.4096(4)
C3 C 0.75647(12) 0.39045(18) -0.2660(4)
C4 C 0.69959(13) 0.3337(2) -0.2069(4)
C5 C 0.83082(14) 0.37869(18) -0.1781(5)
C6 C 0.88280(14) 0.39102(19) -0.2849(5)
H1 H 0.8705 0.4019 -0.4131
C7 C 0.95390(16) 0.3874(2) -0.2024(7)
H2 H 0.9885 0.3980 -0.2743
C8 C 0.9721(2) 0.3676(3) -0.0112(8)
H3 H 1.0192 0.3654 0.0444
C9 C 0.92186(19) 0.3515(2) 0.0945(6)
H4 H 0.9345 0.3362 0.2206
C10 C 0.85028(15) 0.35823(19) 0.0124(5)
H5 H 0.8159 0.3490 0.0858
C11 C 0.75899(12) 0.51565(19) -0.5171(4)
C12 C 0.80188(12) 0.59025(19) -0.4074(4)
H6 H 0.8129 0.5701 -0.2778
H7 H 0.7724 0.6446 -0.4102
C13 C 0.87107(13) 0.6202(2) -0.4680(4)
H8 H 0.8958 0.6612 -0.3728
H9 H 0.9001 0.5658 -0.4716
C14 C 0.86344(15) 0.6682(2) -0.6557(5)
H10 H 0.8301 0.7183 -0.6571
H11 H 0.9083 0.6955 -0.6670
C15 C 0.83997(15) 0.6088(2) -0.8245(4)
H12 H 0.8698 0.5546 -0.8157
H13 H 0.8467 0.6429 -0.9355
C16 C 0.76494(13) 0.5776(2) -0.8499(4)
H14 H 0.7539 0.5472 -0.9710
H15 H 0.7358 0.6324 -0.8562
C17 C 0.74306(12) 0.51364(19) -0.7058(5)
H16 H 0.7140 0.4652 -0.7550
C18 C 0.57010(12) 0.3174(2) -0.3210(3)
C19 C 0.56660(13) 0.2219(2) -0.3213(4)
H17 H 0.6068 0.1872 -0.3242
C20 C 0.50355(14) 0.1781(2) -0.3173(3)
H18 H 0.5005 0.1139 -0.3173
C21 C 0.44526(13) 0.2322(2) -0.3135(4)
C22 C 0.44650(13) 0.3274(2) -0.3174(3)
H19 H 0.4060 0.3619 -0.3170
C23 C 0.51023(13) 0.36971(19) -0.3218(3)
H20 H 0.5129 0.4338 -0.3254
loop_
_geom_bond_atom_site_label_1
_geom_bond_atom_site_label_2
_geom_bond_site_symmetry_1
_geom_bond_site_symmetry_2
O1 C1 1_555 1_555
O2 C4 1_555 1_555
O3 N1 1_555 1_555
O4 N1 1_555 1_555
N1 C21 1_555 1_555
N2 C1 1_555 1_555
C1 C2 1_555 1_555
C2 C3 1_555 1_555
C3 C4 1_555 1_555
C4 N2 1_555 1_555
C5 C3 1_555 1_555
C6 C5 1_555 1_555
H1 C6 1_555 1_555
C7 C6 1_555 1_555
H2 C7 1_555 1_555
C8 C7 1_555 1_555
H3 C8 1_555 1_555
C9 C8 1_555 1_555
H4 C9 1_555 1_555
C10 C5 1_555 1_555
H5 C10 1_555 1_555
C11 C2 1_555 1_555
C12 C11 1_555 1_555
H6 C12 1_555 1_555
H7 C12 1_555 1_555
C13 C12 1_555 1_555
H8 C13 1_555 1_555
H9 C13 1_555 1_555
C14 C13 1_555 1_555
H10 C14 1_555 1_555
H11 C14 1_555 1_555
C15 C14 1_555 1_555
H12 C15 1_555 1_555
H13 C15 1_555 1_555
C16 C15 1_555 1_555
H14 C16 1_555 1_555
H15 C16 1_555 1_555
C17 C11 1_555 1_555
H16 C17 1_555 1_555
C18 N2 1_555 1_555
C19 C18 1_555 1_555
H17 C19 1_555 1_555
C20 C19 1_555 1_555
H18 C20 1_555 1_555
C21 C20 1_555 1_555
C22 C21 1_555 1_555
H19 C22 1_555 1_555
C23 C18 1_555 1_555
H20 C23 1_555 1_555
C9 C10 1_555 1_555
C16 C17 1_555 1_555
C22 C23 1_555 1_555

#END
