
#######################################################################
#
#                 Cambridge Crystallographic Data Centre
#                                CCDC 
#
#######################################################################
#
# If this CIF has been generated from an entry in the Cambridge 
# Structural Database, then it will include bibliographic, chemical, 
# crystal, experimental, refinement or atomic coordinate data resulting 
# from the CCDC's data processing and validation procedures.
#
#######################################################################

data_LIPWEN
_chemical_formula_moiety         'C22 H16 N2 O4'
_chemical_name_systematic        
3-(Cyclohexa-1,4-dienyl)-1-(4-nitrophenyl)-4-phenylpyrrole-2,5-dione
_symmetry_cell_setting           monoclinic
_symmetry_space_group_name_H-M   'P 21/c'
_symmetry_Int_Tables_number      14
_space_group_name_Hall           '-P 2ybc'
loop_
_symmetry_equiv_pos_site_id
_symmetry_equiv_pos_as_xyz
1 x,y,z
2 -x,1/2+y,1/2-z
3 -x,-y,-z
4 x,1/2-y,1/2+z
_cell_length_a                   18.774(4)
_cell_length_b                   14.394(3)
_cell_length_c                   6.8848(14)
_cell_angle_alpha                90
_cell_angle_beta                 99.94(3)
_cell_angle_gamma                90
_cell_volume                     1832.57
_exptl_crystal_colour            colorless
_exptl_crystal_description       block
_cell_formula_units_Z            4
loop_
_atom_site_label
_atom_site_type_symbol
_atom_site_fract_x
_atom_site_fract_y
_atom_site_fract_z
O1 O 0.10996(9) 0.53178(11) 0.1678(3)
O2 O 0.21553(10) 0.71956(14) -0.2270(3)
O3 O -0.12137(12) 0.89723(17) -0.2959(5)
O4 O -0.16943(12) 0.76920(19) -0.4056(4)
N1 N 0.14372(11) 0.63370(13) -0.0546(3)
N2 N -0.11849(13) 0.8140(2) -0.3201(4)
C1 C 0.20920(14) 0.66100(19) -0.1078(5)
C2 C 0.26660(13) 0.60487(17) 0.0140(4)
C3 C 0.23571(13) 0.54915(16) 0.1296(4)
C4 C 0.15589(15) 0.56638(16) 0.0904(4)
C5 C 0.34282(15) 0.61810(17) 0.0026(5)
C6 C 0.36633(18) 0.6289(2) -0.1729(7)
H1 H 0.3328 0.6318 -0.2891
C7 C 0.4401(2) 0.6357(3) -0.1809(8)
H2 H 0.4555 0.6383 -0.3021
C8 C 0.4891(2) 0.6383(3) -0.0117(11)
H3 H 0.5378 0.6474 -0.0161
C9 C 0.4670(2) 0.6278(3) 0.1628(9)
H4 H 0.5011 0.6257 0.2778
C10 C 0.39430(17) 0.6202(2) 0.1744(6)
H5 H 0.3799 0.6165 0.2968
C11 C 0.26801(14) 0.47978(17) 0.2737(5)
C12 C 0.24883(17) 0.4743(2) 0.4465(6)
H6 H 0.2128 0.5140 0.4739
C13 C 0.2814(2) 0.4081(3) 0.6017(6)
H7 H 0.2433 0.3715 0.6429
H8 H 0.3053 0.4428 0.7153
C14 C 0.3349(2) 0.3442(4) 0.5342(11)
H9 H 0.3470 0.2887 0.6011
C15 C 0.3653(3) 0.3656(3) 0.3803(8)
H10 H 0.4132 0.3497 0.3781
C16 C 0.32228(17) 0.4146(2) 0.2133(6)
H11 H 0.2972 0.3693 0.1219
H12 H 0.3546 0.4494 0.1446
C17 C 0.07630(13) 0.67786(17) -0.1197(4)
C18 C 0.01467(14) 0.62624(17) -0.1810(4)
H13 H 0.0169 0.5617 -0.1777
C19 C -0.04983(14) 0.66970(19) -0.2467(4)
H14 H -0.0917 0.6355 -0.2887
C20 C -0.05110(13) 0.76577(19) -0.2490(4)
C21 C 0.00968(14) 0.81788(18) -0.1863(4)
H15 H 0.0074 0.8824 -0.1881
C22 C 0.07334(14) 0.77382(16) -0.1214(4)
H16 H 0.1150 0.8083 -0.0782
loop_
_geom_bond_atom_site_label_1
_geom_bond_atom_site_label_2
_geom_bond_site_symmetry_1
_geom_bond_site_symmetry_2
O1 C4 1_555 1_555
O2 C1 1_555 1_555
O3 N2 1_555 1_555
O4 N2 1_555 1_555
N1 C1 1_555 1_555
N2 C20 1_555 1_555
C1 C2 1_555 1_555
C2 C3 1_555 1_555
C3 C4 1_555 1_555
C4 N1 1_555 1_555
C5 C2 1_555 1_555
C6 C5 1_555 1_555
H1 C6 1_555 1_555
C7 C6 1_555 1_555
H2 C7 1_555 1_555
C8 C7 1_555 1_555
H3 C8 1_555 1_555
C9 C8 1_555 1_555
H4 C9 1_555 1_555
C10 C5 1_555 1_555
H5 C10 1_555 1_555
C11 C3 1_555 1_555
C12 C11 1_555 1_555
H6 C12 1_555 1_555
C13 C12 1_555 1_555
H7 C13 1_555 1_555
H8 C13 1_555 1_555
C14 C13 1_555 1_555
H9 C14 1_555 1_555
C15 C14 1_555 1_555
H10 C15 1_555 1_555
C16 C11 1_555 1_555
H11 C16 1_555 1_555
H12 C16 1_555 1_555
C17 N1 1_555 1_555
C18 C17 1_555 1_555
H13 C18 1_555 1_555
C19 C18 1_555 1_555
H14 C19 1_555 1_555
C20 C19 1_555 1_555
C21 C20 1_555 1_555
H15 C21 1_555 1_555
C22 C17 1_555 1_555
H16 C22 1_555 1_555
C9 C10 1_555 1_555
C15 C16 1_555 1_555
C21 C22 1_555 1_555

#END
