
#######################################################################
#
#                 Cambridge Crystallographic Data Centre
#                                CCDC 
#
#######################################################################
#
# If this CIF has been generated from an entry in the Cambridge 
# Structural Database, then it will include bibliographic, chemical, 
# crystal, experimental, refinement or atomic coordinate data resulting 
# from the CCDC's data processing and validation procedures.
#
#######################################################################

data_LIQDEV
_chemical_formula_moiety         'C17 H20 O2'
_chemical_name_systematic        
cis-1-Methyl-6-oxo-3-phenyl-10-oxabicyclo(6.3.0)undec-2-ene
_symmetry_cell_setting           monoclinic
_symmetry_space_group_name_H-M   'P 21/n'
_symmetry_Int_Tables_number      14
_space_group_name_Hall           '-P 2yn'
loop_
_symmetry_equiv_pos_site_id
_symmetry_equiv_pos_as_xyz
1 x,y,z
2 1/2-x,1/2+y,1/2-z
3 -x,-y,-z
4 1/2+x,1/2-y,1/2+z
_cell_length_a                   8.6264(17)
_cell_length_b                   11.231(2)
_cell_length_c                   14.416(3)
_cell_angle_alpha                90
_cell_angle_beta                 98.86(3)
_cell_angle_gamma                90
_cell_volume                     1380
_exptl_crystal_colour            colorless
_exptl_crystal_description       block
_chemical_melting_point          '361 K'
_cell_formula_units_Z            4
_exptl_crystal_recrystallization_method 'petroleum ether/ethyl acetate'
loop_
_atom_site_label
_atom_site_type_symbol
_atom_site_fract_x
_atom_site_fract_y
_atom_site_fract_z
O1 O 0.73994(17) 0.24555(13) 1.19807(10)
O2 O 0.20682(16) 0.11603(14) 0.97908(10)
C1 C 0.5693(2) 0.08398(16) 1.20907(12)
C2 C 0.5031(2) -0.02845(17) 1.16130(12)
H1 H 0.5709 -0.0710 1.1294
C3 C 0.3610(2) -0.07463(17) 1.15872(12)
C4 C 0.2330(2) -0.00874(18) 1.19822(13)
H2 H 0.2791 0.0315 1.2554
H3 H 0.1580 -0.0663 1.2148
C5 C 0.1443(2) 0.08391(18) 1.13080(14)
H4 H 0.0516 0.0468 1.0961
H5 H 0.1099 0.1485 1.1674
C6 C 0.2416(2) 0.13425(19) 1.06261(15)
C7 C 0.3783(2) 0.21410(19) 1.09665(14)
H6 H 0.3402 0.2955 1.0916
H7 H 0.4529 0.2060 1.0531
C8 C 0.4688(2) 0.19824(16) 1.19551(13)
H8 H 0.3970 0.2017 1.2420
C9 C 0.5953(2) 0.29425(18) 1.21600(16)
H9 H 0.5675 0.3630 1.1762
H10 H 0.6047 0.3194 1.2810
C10 C 0.7141(2) 0.12469(18) 1.16942(15)
H11 H 0.8040 0.0760 1.1939
H12 H 0.6967 0.1188 1.1015
C11 C 0.3242(2) -0.19372(17) 1.11607(12)
C12 C 0.4360(2) -0.28342(18) 1.12603(13)
H13 H 0.5339 -0.2691 1.1614
C13 C 0.4053(3) -0.39354(18) 1.08463(14)
H14 H 0.4822 -0.4522 1.0919
C14 C 0.2609(3) -0.4164(2) 1.03272(14)
H15 H 0.2401 -0.4902 1.0044
C15 C 0.1485(3) -0.3299(2) 1.02309(14)
H16 H 0.0509 -0.3453 0.9879
C16 C 0.1780(2) -0.21949(19) 1.06515(13)
H17 H 0.0991 -0.1622 1.0592
C17 C 0.6148(2) 0.05717(18) 1.31426(12)
H18 H 0.5234 0.0327 1.3397
H19 H 0.6580 0.1275 1.3462
H20 H 0.6915 -0.0054 1.3226
loop_
_geom_bond_atom_site_label_1
_geom_bond_atom_site_label_2
_geom_bond_site_symmetry_1
_geom_bond_site_symmetry_2
O1 C9 1_555 1_555
O2 C6 1_555 1_555
C1 C2 1_555 1_555
C2 H1 1_555 1_555
C3 C2 1_555 1_555
C4 C3 1_555 1_555
H2 C4 1_555 1_555
H3 C4 1_555 1_555
C5 C4 1_555 1_555
H4 C5 1_555 1_555
H5 C5 1_555 1_555
C6 C5 1_555 1_555
C7 C6 1_555 1_555
H6 C7 1_555 1_555
H7 C7 1_555 1_555
C8 C1 1_555 1_555
H8 C8 1_555 1_555
C9 C8 1_555 1_555
H9 C9 1_555 1_555
H10 C9 1_555 1_555
C10 O1 1_555 1_555
H11 C10 1_555 1_555
H12 C10 1_555 1_555
C11 C3 1_555 1_555
C12 C11 1_555 1_555
H13 C12 1_555 1_555
C13 C12 1_555 1_555
H14 C13 1_555 1_555
C14 C13 1_555 1_555
H15 C14 1_555 1_555
C15 C14 1_555 1_555
H16 C15 1_555 1_555
C16 C11 1_555 1_555
H17 C16 1_555 1_555
C17 C1 1_555 1_555
H18 C17 1_555 1_555
H19 C17 1_555 1_555
H20 C17 1_555 1_555
C1 C10 1_555 1_555
C7 C8 1_555 1_555
C15 C16 1_555 1_555

#END
