
#######################################################################
#
#                 Cambridge Crystallographic Data Centre
#                                CCDC 
#
#######################################################################
#
# If this CIF has been generated from an entry in the Cambridge 
# Structural Database, then it will include bibliographic, chemical, 
# crystal, experimental, refinement or atomic coordinate data resulting 
# from the CCDC's data processing and validation procedures.
#
#######################################################################

data_LIQTOX
_chemical_formula_moiety         'C24 H22 S2 Se4 Si2'
_chemical_name_systematic        
selenopheno[3,2-b]selenopheno[2''',3''':4'',5'']thieno[2'',3'':4',5']selenopheno[3',2':4,5][1]benzoselenopheno[2,3-d]thiene-2,9-diylbis(trimethylsilane)
_symmetry_cell_setting           monoclinic
_symmetry_space_group_name_H-M   'C 2/c'
_symmetry_Int_Tables_number      15
_space_group_name_Hall           '-C 2yn'
loop_
_symmetry_equiv_pos_site_id
_symmetry_equiv_pos_as_xyz
1 x,y,z
2 -x,y,1/2-z
3 1/2+x,1/2+y,z
4 1/2-x,1/2+y,1/2-z
5 -x,-y,-z
6 x,-y,1/2+z
7 1/2-x,1/2-y,-z
8 1/2+x,1/2-y,1/2+z
_cell_length_a                   43.5409(16)
_cell_length_b                   6.07902(15)
_cell_length_c                   25.6532(10)
_cell_angle_alpha                90
_cell_angle_beta                 126.743(6)
_cell_angle_gamma                90
_cell_volume                     5441.04
_exptl_crystal_colour            colorless
_exptl_crystal_description       needle
_cell_formula_units_Z            8
loop_
_atom_site_label
_atom_site_type_symbol
_atom_site_fract_x
_atom_site_fract_y
_atom_site_fract_z
C1 C 0.45005(18) -0.3858(11) 0.5562(3)
C2 C 0.41842(17) -0.2709(11) 0.5401(3)
H1 H 0.4066 -0.2982 0.5599
C3 C 0.40508(16) -0.1113(10) 0.4924(3)
C4 C 0.42422(15) -0.0856(10) 0.4658(3)
C5 C 0.40992(15) 0.0892(10) 0.4211(3)
C6 C 0.38018(14) 0.2004(10) 0.4134(2)
C7 C 0.36506(15) 0.3896(10) 0.3698(3)
C8 C 0.38545(14) 0.4256(10) 0.3445(2)
C9 C 0.37878(16) 0.6037(10) 0.3048(3)
H2 H 0.3934 0.6222 0.2896
C10 C 0.35058(16) 0.7511(10) 0.2883(3)
H3 H 0.3461 0.8730 0.2627
C11 C 0.32870(14) 0.7152(9) 0.3106(2)
C12 C 0.33442(14) 0.5362(9) 0.3507(2)
C13 C 0.30734(15) 0.5414(10) 0.3659(3)
C14 C 0.28155(15) 0.7166(10) 0.3397(3)
C15 C 0.25462(15) 0.7051(9) 0.3526(2)
C16 C 0.25878(16) 0.5233(10) 0.3883(3)
C17 C 0.23303(18) 0.5039(11) 0.4037(3)
H4 H 0.2340 0.3861 0.4278
C18 C 0.20662(17) 0.6666(11) 0.3816(3)
C19 C 0.4512(2) -0.7178(13) 0.6446(4)
H5 H 0.4672 -0.8079 0.6825
H6 H 0.4331 -0.8089 0.6081
H7 H 0.4378 -0.6130 0.6521
C20 C 0.5172(2) -0.3912(12) 0.6966(3)
H8 H 0.5301 -0.3015 0.6842
H9 H 0.5357 -0.4814 0.7330
H10 H 0.5044 -0.2985 0.7084
C21 C 0.5082(2) -0.7598(12) 0.6116(4)
H11 H 0.5227 -0.6769 0.6013
H12 H 0.4905 -0.8545 0.5758
H13 H 0.5253 -0.8471 0.6497
C22 C 0.1849(2) 0.5761(14) 0.4714(4)
H14 H 0.1843 0.4190 0.4671
H15 H 0.1682 0.6198 0.4824
H16 H 0.2106 0.6226 0.5050
C23 C 0.1223(2) 0.5844(15) 0.3237(4)
H17 H 0.1159 0.6418 0.2835
H18 H 0.1024 0.6216 0.3278
H19 H 0.1247 0.4273 0.3241
C24 C 0.1624(3) 1.0072(14) 0.3965(5)
H20 H 0.1870 1.0741 0.4271
H21 H 0.1464 1.0326 0.4101
H22 H 0.1506 1.0702 0.3542
S1 S 0.36844(4) 0.0833(3) 0.46153(7)
S2 S 0.29683(4) 0.3606(3) 0.40624(8)
Se1 Se 0.46429(2) -0.28996(13) 0.50282(3)
Se2 Se 0.42471(2) 0.21624(12) 0.37228(3)
Se3 Se 0.28792(2) 0.90205(11) 0.28871(3)
Se4 Se 0.21333(2) 0.87486(12) 0.33381(3)
Si1 Si 0.48144(5) -0.5697(3) 0.62700(8)
Si2 Si 0.16858(6) 0.7059(3) 0.39308(10)
loop_
_geom_bond_atom_site_label_1
_geom_bond_atom_site_label_2
_geom_bond_site_symmetry_1
_geom_bond_site_symmetry_2
C1 C2 1_555 1_555
C2 H1 1_555 1_555
C3 C2 1_555 1_555
C4 C3 1_555 1_555
C5 C4 1_555 1_555
C6 C5 1_555 1_555
C7 C6 1_555 1_555
C8 C7 1_555 1_555
C9 C8 1_555 1_555
H2 C9 1_555 1_555
C10 C9 1_555 1_555
H3 C10 1_555 1_555
C11 C10 1_555 1_555
C12 C7 1_555 1_555
C13 C12 1_555 1_555
C14 C13 1_555 1_555
C15 C14 1_555 1_555
C16 C15 1_555 1_555
C17 C16 1_555 1_555
H4 C17 1_555 1_555
C18 C17 1_555 1_555
C19 H5 1_555 1_555
H6 C19 1_555 1_555
H7 C19 1_555 1_555
C20 H8 1_555 1_555
H9 C20 1_555 1_555
H10 C20 1_555 1_555
C21 H11 1_555 1_555
H12 C21 1_555 1_555
H13 C21 1_555 1_555
C22 H14 1_555 1_555
H15 C22 1_555 1_555
H16 C22 1_555 1_555
C23 H17 1_555 1_555
H18 C23 1_555 1_555
H19 C23 1_555 1_555
C24 H20 1_555 1_555
H21 C24 1_555 1_555
H22 C24 1_555 1_555
S1 C3 1_555 1_555
S2 C13 1_555 1_555
Se1 C1 1_555 1_555
Se2 C5 1_555 1_555
Se3 C11 1_555 1_555
Se4 C15 1_555 1_555
Si1 C1 1_555 1_555
Si2 C18 1_555 1_555
C4 Se1 1_555 1_555
C6 S1 1_555 1_555
C8 Se2 1_555 1_555
C11 C12 1_555 1_555
C14 Se3 1_555 1_555
C16 S2 1_555 1_555
C18 Se4 1_555 1_555
C19 Si1 1_555 1_555
C20 Si1 1_555 1_555
C21 Si1 1_555 1_555
C22 Si2 1_555 1_555
C23 Si2 1_555 1_555
C24 Si2 1_555 1_555

#END
