
#######################################################################
#
#                 Cambridge Crystallographic Data Centre
#                                CCDC 
#
#######################################################################
#
# If this CIF has been generated from an entry in the Cambridge 
# Structural Database, then it will include bibliographic, chemical, 
# crystal, experimental, refinement or atomic coordinate data resulting 
# from the CCDC's data processing and validation procedures.
#
#######################################################################

data_LIRHUR
_chemical_formula_moiety         'C32 H20 N2'
_chemical_name_systematic        2,4,5,6-tetraphenylbenzene-1,3-dicarbonitrile
_symmetry_cell_setting           monoclinic
_symmetry_space_group_name_H-M   'C 2/c'
_symmetry_Int_Tables_number      15
_space_group_name_Hall           '-C 2yn'
loop_
_symmetry_equiv_pos_site_id
_symmetry_equiv_pos_as_xyz
1 x,y,z
2 -x,y,1/2-z
3 1/2+x,1/2+y,z
4 1/2-x,1/2+y,1/2-z
5 -x,-y,-z
6 x,-y,1/2+z
7 1/2-x,1/2-y,-z
8 1/2+x,1/2-y,1/2+z
_cell_length_a                   10.5990(19)
_cell_length_b                   21.231(4)
_cell_length_c                   10.5909(19)
_cell_angle_alpha                90
_cell_angle_beta                 96.136(4)
_cell_angle_gamma                90
_cell_volume                     2369.59
_exptl_crystal_colour            yellow
_exptl_crystal_description       rod
_cell_formula_units_Z            4
loop_
_atom_site_label
_atom_site_type_symbol
_atom_site_fract_x
_atom_site_fract_y
_atom_site_fract_z
C1 C 0.89943(11) -0.00271(6) 0.18345(11)
C2 C 1.0000 -0.03639(8) 0.2500
C3 C 0.79744(12) 0.09733(6) 0.11446(11)
C4 C 0.90145(11) 0.06340(6) 0.18396(11)
N1 N 0.71580(10) 0.12453(6) 0.05990(11)
C5 C 0.79190(11) -0.03591(6) 0.10859(11)
C6 C 1.0000 0.16797(8) 0.2500
C7 C 0.66848(12) -0.03058(6) 0.14122(12)
C8 C 1.0000 0.09811(8) 0.2500
C9 C 0.59381(13) -0.09749(6) -0.03409(12)
C10 C 1.0000 -0.10678(8) 0.2500
C11 C 0.71618(13) -0.10315(7) -0.06634(12)
C12 C 0.81501(13) -0.07238(6) 0.00461(11)
C13 C 0.99400(13) 0.20122(7) 0.13607(12)
C14 C 1.10046(14) -0.14007(7) 0.20745(12)
C15 C 0.56985(13) -0.06140(6) 0.06972(12)
C16 C 1.10050(16) -0.20553(7) 0.20762(14)
C17 C 1.0000 -0.23785(11) 0.2500
C18 C 0.99376(16) 0.26626(7) 0.13648(14)
C19 C 1.0000 0.29860(11) 0.2500
H1 H 1.1716(13) -0.1164(7) 0.1781(12)
H2 H 0.6524(12) -0.0045(6) 0.2144(12)
H3 H 0.4811(13) -0.0580(6) 0.0929(11)
H4 H 0.9033(13) -0.0762(6) -0.0169(12)
H5 H 0.5218(12) -0.1186(6) -0.0845(12)
H6 H 0.7334(12) -0.1292(7) -0.1390(12)
H7 H 0.9922(13) 0.1778(7) 0.0540(13)
H8 H 1.0000 -0.2842(11) 0.2500
H9 H 1.0000 0.3448(11) 0.2500
H10 H 0.9883(14) 0.2888(7) 0.0529(14)
H11 H 1.1741(15) -0.2281(8) 0.1751(14)
C1A C 1.10057(11) -0.00271(6) 0.31655(11)
C3A C 1.20256(12) 0.09733(6) 0.38554(11)
C4A C 1.09855(11) 0.06340(6) 0.31604(11)
N1A N 1.28420(10) 0.12453(6) 0.44010(11)
C5A C 1.20810(11) -0.03591(6) 0.39141(11)
C7A C 1.33152(12) -0.03058(6) 0.35878(12)
C9A C 1.40619(13) -0.09749(6) 0.53409(12)
C11A C 1.28382(13) -0.10315(7) 0.56634(12)
C12A C 1.18499(13) -0.07238(6) 0.49539(11)
C13A C 1.00600(13) 0.20122(7) 0.36393(12)
C14A C 0.89954(14) -0.14007(7) 0.29255(12)
C15A C 1.43015(13) -0.06140(6) 0.43028(12)
C16A C 0.89950(16) -0.20553(7) 0.29238(14)
C18A C 1.00624(16) 0.26626(7) 0.36352(14)
H1A H 0.8284(13) -0.1164(7) 0.3219(12)
H2A H 1.3476(12) -0.0045(6) 0.2856(12)
H3A H 1.5189(13) -0.0580(6) 0.4071(11)
H4A H 1.0967(13) -0.0762(6) 0.5169(12)
H5A H 1.4782(12) -0.1186(6) 0.5845(12)
H6A H 1.2666(12) -0.1292(7) 0.6390(12)
H7A H 1.0078(13) 0.1778(7) 0.4460(13)
H10A H 1.0117(14) 0.2888(7) 0.4471(14)
H11A H 0.8259(15) -0.2281(8) 0.3249(14)
loop_
_geom_bond_atom_site_label_1
_geom_bond_atom_site_label_2
_geom_bond_site_symmetry_1
_geom_bond_site_symmetry_2
C1 C2 1_555 1_555
C2 C10 1_555 1_555
C3 C4 1_555 1_555
C4 C1 1_555 1_555
N1 C3 1_555 1_555
C5 C1 1_555 1_555
C6 C8 1_555 1_555
C7 C5 1_555 1_555
C8 C4 1_555 1_555
C9 C11 1_555 1_555
C10 C14 1_555 1_555
C11 C12 1_555 1_555
C12 C5 1_555 1_555
C13 C6 1_555 1_555
C14 C16 1_555 1_555
C15 C7 1_555 1_555
C16 C17 1_555 1_555
C17 H8 1_555 1_555
C18 C13 1_555 1_555
C19 C18 1_555 1_555
H1 C14 1_555 1_555
H2 C7 1_555 1_555
H3 C15 1_555 1_555
H4 C12 1_555 1_555
H5 C9 1_555 1_555
H6 C11 1_555 1_555
H7 C13 1_555 1_555
H9 C19 1_555 1_555
H10 C18 1_555 1_555
H11 C16 1_555 1_555
C1A C2 1_555 1_555
C3A C4A 1_555 1_555
C4A C8 1_555 1_555
N1A C3A 1_555 1_555
C5A C1A 1_555 1_555
C7A C5A 1_555 1_555
C9A C11A 1_555 1_555
C11A C12A 1_555 1_555
C12A C5A 1_555 1_555
C13A C6 1_555 1_555
C14A C10 1_555 1_555
C15A C7A 1_555 1_555
C16A C17 1_555 1_555
C18A C19 1_555 1_555
H1A C14A 1_555 1_555
H2A C7A 1_555 1_555
H3A C15A 1_555 1_555
H4A C12A 1_555 1_555
H5A C9A 1_555 1_555
H6A C11A 1_555 1_555
H7A C13A 1_555 1_555
H10A C18A 1_555 1_555
H11A C16A 1_555 1_555
C9 C15 1_555 1_555
C1A C4A 1_555 1_555
C9A C15A 1_555 1_555
C13A C18A 1_555 1_555
C14A C16A 1_555 1_555

#END
