
#######################################################################
#
#                 Cambridge Crystallographic Data Centre
#                                CCDC 
#
#######################################################################
#
# If this CIF has been generated from an entry in the Cambridge 
# Structural Database, then it will include bibliographic, chemical, 
# crystal, experimental, refinement or atomic coordinate data resulting 
# from the CCDC's data processing and validation procedures.
#
#######################################################################

data_LIRHOL
_chemical_formula_moiety         'C24 H14 N2'
_chemical_name_systematic        
(2,3-Diphenyl-1H-inden-1-ylidene)malononitrile
_symmetry_cell_setting           monoclinic
_symmetry_space_group_name_H-M   'P 21/c'
_symmetry_Int_Tables_number      14
_space_group_name_Hall           '-P 2ybc'
loop_
_symmetry_equiv_pos_site_id
_symmetry_equiv_pos_as_xyz
1 x,y,z
2 -x,1/2+y,1/2-z
3 -x,-y,-z
4 x,1/2-y,1/2+z
_cell_length_a                   10.3251(5)
_cell_length_b                   18.9613(11)
_cell_length_c                   9.1658(6)
_cell_angle_alpha                90
_cell_angle_beta                 108.650(2)
_cell_angle_gamma                90
_cell_volume                     1700.23
_exptl_crystal_colour            red
_exptl_crystal_description       needle
_cell_formula_units_Z            4
loop_
_atom_site_label
_atom_site_type_symbol
_atom_site_fract_x
_atom_site_fract_y
_atom_site_fract_z
C1 C 0.86430(13) 0.10878(7) 0.25732(17)
N1 N 1.42407(13) 0.18828(7) 0.48471(17)
C2 C 1.12401(14) -0.02845(8) 0.24658(16)
C3 C 0.79018(14) 0.09462(8) 0.35723(18)
C4 C 0.98251(13) -0.00534(8) 0.22879(17)
C5 C 1.21117(14) 0.02979(8) 0.29606(17)
N2 N 1.02599(13) 0.25288(7) 0.44406(16)
C6 C 0.74030(15) -0.03195(9) 0.07648(18)
C7 C 1.35031(14) 0.02335(8) 0.32043(17)
C8 C 0.98356(13) 0.06475(8) 0.26120(16)
C9 C 0.67925(14) 0.13588(8) 0.35491(18)
C10 C 0.86282(14) -0.05226(8) 0.18534(17)
C11 C 1.16945(14) 0.15334(8) 0.37646(17)
C12 C 1.17416(15) -0.09266(8) 0.21936(17)
C13 C 0.63905(15) 0.19103(8) 0.25152(18)
C14 C 1.31134(15) 0.17158(8) 0.43616(18)
C15 C 1.40108(15) -0.04198(8) 0.29444(18)
C16 C 0.86952(16) -0.11771(8) 0.25630(19)
C17 C 1.12536(14) 0.08991(8) 0.31205(17)
C18 C 0.82351(14) 0.16475(8) 0.15437(18)
C19 C 0.75533(15) -0.16101(9) 0.22085(19)
C20 C 1.08321(15) 0.20756(8) 0.40858(18)
C21 C 1.31437(15) -0.09879(8) 0.24404(18)
C22 C 0.63495(15) -0.14029(9) 0.11255(19)
C23 C 0.71151(15) 0.20541(9) 0.15087(19)
C24 C 0.62745(15) -0.07606(9) 0.03935(19)
H1 H 1.5009(13) -0.0472(7) 0.3126(16)
H2 H 1.4121(14) 0.0636(8) 0.3515(17)
H3 H 1.3502(14) -0.1429(8) 0.2252(17)
H4 H 0.5550(16) 0.2199(8) 0.2477(19)
H5 H 0.6824(15) 0.2444(8) 0.0778(19)
H6 H 0.5400(16) -0.0594(8) -0.0443(19)
H7 H 0.6310(14) 0.1254(7) 0.4266(18)
H8 H 0.8730(14) 0.1748(7) 0.0870(18)
H9 H 0.7352(14) 0.0138(8) 0.0256(17)
H10 H 0.7617(16) -0.2070(9) 0.272(2)
H11 H 0.5564(16) -0.1731(8) 0.0838(19)
H12 H 0.9550(16) -0.1337(8) 0.3284(18)
H13 H 1.1175(15) -0.1328(8) 0.1876(17)
H14 H 0.8182(14) 0.0562(8) 0.4308(18)
loop_
_geom_bond_atom_site_label_1
_geom_bond_atom_site_label_2
_geom_bond_site_symmetry_1
_geom_bond_site_symmetry_2
C1 C3 1_555 1_555
N1 C14 1_555 1_555
C2 C4 1_555 1_555
C3 C9 1_555 1_555
C4 C8 1_555 1_555
C5 C2 1_555 1_555
N2 C20 1_555 1_555
C6 C10 1_555 1_555
C7 C5 1_555 1_555
C8 C1 1_555 1_555
C9 C13 1_555 1_555
C10 C4 1_555 1_555
C11 C14 1_555 1_555
C12 C2 1_555 1_555
C13 C23 1_555 1_555
C15 C7 1_555 1_555
C16 C10 1_555 1_555
C17 C5 1_555 1_555
C18 C1 1_555 1_555
C19 C16 1_555 1_555
C20 C11 1_555 1_555
C21 C12 1_555 1_555
C22 C19 1_555 1_555
C23 C18 1_555 1_555
C24 C6 1_555 1_555
H1 C15 1_555 1_555
H2 C7 1_555 1_555
H3 C21 1_555 1_555
H4 C13 1_555 1_555
H5 C23 1_555 1_555
H6 C24 1_555 1_555
H7 C9 1_555 1_555
H8 C18 1_555 1_555
H9 C6 1_555 1_555
H10 C19 1_555 1_555
H11 C22 1_555 1_555
H12 C16 1_555 1_555
H13 C12 1_555 1_555
H14 C3 1_555 1_555
C8 C17 1_555 1_555
C11 C17 1_555 1_555
C15 C21 1_555 1_555
C22 C24 1_555 1_555

#END
