
#######################################################################
#
#                 Cambridge Crystallographic Data Centre
#                                CCDC 
#
#######################################################################
#
# If this CIF has been generated from an entry in the Cambridge 
# Structural Database, then it will include bibliographic, chemical, 
# crystal, experimental, refinement or atomic coordinate data resulting 
# from the CCDC's data processing and validation procedures.
#
#######################################################################

data_LIRHAX
_chemical_name_common            2,4-di-t-butyl-6,6-dicyanofulvene
_chemical_formula_moiety         'C16 H20 N2'
_chemical_name_systematic        
(2,4-Di-t-butylcyclopenta-2,4-dien-1-ylidene)malononitrile
_symmetry_cell_setting           orthorhombic
_symmetry_space_group_name_H-M   'P b c a'
_symmetry_Int_Tables_number      61
_space_group_name_Hall           '-P 2ac 2ab'
loop_
_symmetry_equiv_pos_site_id
_symmetry_equiv_pos_as_xyz
1 x,y,z
2 1/2+x,1/2-y,-z
3 -x,1/2+y,1/2-z
4 1/2-x,-y,1/2+z
5 -x,-y,-z
6 1/2-x,1/2+y,z
7 x,1/2-y,1/2+z
8 1/2+x,y,1/2-z
_cell_length_a                   11.6891(5)
_cell_length_b                   13.7520(7)
_cell_length_c                   18.0243(11)
_cell_angle_alpha                90
_cell_angle_beta                 90
_cell_angle_gamma                90
_cell_volume                     2897.38
_exptl_crystal_colour            brown
_exptl_crystal_description       plate
_cell_formula_units_Z            8
loop_
_atom_site_label
_atom_site_type_symbol
_atom_site_fract_x
_atom_site_fract_y
_atom_site_fract_z
N1 N 0.48535(12) 0.81651(10) 0.67960(7)
N2 N 0.31154(10) 1.06016(9) 0.59555(7)
C1 C 0.41966(11) 0.87497(9) 0.48694(8)
C2 C 0.46846(11) 0.78902(10) 0.44670(8)
C3 C 0.43862(12) 0.80134(10) 0.37539(8)
H1 H 0.4604(13) 0.7595(13) 0.3349(10)
C4 C 0.37072(11) 0.89177(10) 0.36494(8)
C5 C 0.36333(11) 0.93598(10) 0.43098(8)
H2 H 0.3217(13) 0.9947(12) 0.4426(9)
C6 C 0.41544(11) 0.90052(10) 0.55982(8)
C7 C 0.45712(12) 0.84984(10) 0.62412(8)
C8 C 0.35855(11) 0.98970(10) 0.57987(7)
C9 C 0.53857(11) 0.70604(10) 0.47819(8)
C10 C 0.64550(13) 0.74475(12) 0.51796(9)
H3 H 0.6252(14) 0.7918(13) 0.5593(10)
H4 H 0.6965(15) 0.7757(13) 0.4821(11)
H5 H 0.6871(15) 0.6896(13) 0.5406(10)
C11 C 0.46476(13) 0.64386(11) 0.53042(9)
H6 H 0.4338(14) 0.6819(13) 0.5746(10)
H7 H 0.3995(16) 0.6128(13) 0.5017(11)
H8 H 0.5145(15) 0.5894(12) 0.5530(11)
C12 C 0.57929(15) 0.64033(12) 0.41472(9)
H9 H 0.5129(16) 0.6105(12) 0.3874(10)
H10 H 0.6239(15) 0.5846(13) 0.4363(10)
H11 H 0.6299(14) 0.6757(13) 0.3780(10)
C13 C 0.31734(11) 0.91916(10) 0.29203(8)
C14 C 0.24607(14) 1.01171(12) 0.29945(9)
H12 H 0.2114(15) 1.0275(14) 0.2487(11)
H13 H 0.1840(15) 1.0019(13) 0.3359(10)
H14 H 0.2945(15) 1.0677(14) 0.3159(11)
C15 C 0.41275(13) 0.93568(12) 0.23480(8)
H15 H 0.4641(14) 0.9903(13) 0.2501(9)
H16 H 0.4638(14) 0.8767(13) 0.2291(9)
H17 H 0.3787(14) 0.9490(13) 0.1845(11)
C16 C 0.24080(14) 0.83428(12) 0.26690(9)
H18 H 0.1804(14) 0.8220(12) 0.3048(10)
H19 H 0.2054(14) 0.8500(13) 0.2194(10)
H20 H 0.2879(14) 0.7711(13) 0.2582(9)
loop_
_geom_bond_atom_site_label_1
_geom_bond_atom_site_label_2
_geom_bond_site_symmetry_1
_geom_bond_site_symmetry_2
N1 C7 1_555 1_555
N2 C8 1_555 1_555
C1 C2 1_555 1_555
C2 C3 1_555 1_555
C3 H1 1_555 1_555
C4 C3 1_555 1_555
C5 C1 1_555 1_555
H2 C5 1_555 1_555
C6 C1 1_555 1_555
C7 C6 1_555 1_555
C8 C6 1_555 1_555
C9 C2 1_555 1_555
C10 C9 1_555 1_555
H3 C10 1_555 1_555
H4 C10 1_555 1_555
H5 C10 1_555 1_555
C11 C9 1_555 1_555
H6 C11 1_555 1_555
H7 C11 1_555 1_555
H8 C11 1_555 1_555
C12 C9 1_555 1_555
H9 C12 1_555 1_555
H10 C12 1_555 1_555
H11 C12 1_555 1_555
C13 C4 1_555 1_555
C14 C13 1_555 1_555
H12 C14 1_555 1_555
H13 C14 1_555 1_555
H14 C14 1_555 1_555
C15 C13 1_555 1_555
H15 C15 1_555 1_555
H16 C15 1_555 1_555
H17 C15 1_555 1_555
C16 C13 1_555 1_555
H18 C16 1_555 1_555
H19 C16 1_555 1_555
H20 C16 1_555 1_555
C4 C5 1_555 1_555

#END
