
#######################################################################
#
#                 Cambridge Crystallographic Data Centre
#                                CCDC 
#
#######################################################################
#
# If this CIF has been generated from an entry in the Cambridge 
# Structural Database, then it will include bibliographic, chemical, 
# crystal, experimental, refinement or atomic coordinate data resulting 
# from the CCDC's data processing and validation procedures.
#
#######################################################################

data_LIRJED
_chemical_formula_moiety         'C32 H16 Br4 N2,C2 H4 Cl2'
_chemical_name_systematic        
'2,4,5,6-tetrakis(4-bromophenyl)benzene-1,3-dicarbonitrile 1,2-dichloroethane solvate'
_symmetry_cell_setting           triclinic
_symmetry_space_group_name_H-M   'P -1'
_symmetry_Int_Tables_number      2
_space_group_name_Hall           '-P 1'
loop_
_symmetry_equiv_pos_site_id
_symmetry_equiv_pos_as_xyz
1 x,y,z
2 -x,-y,-z
_cell_length_a                   8.5990(19)
_cell_length_b                   11.558(3)
_cell_length_c                   16.765(4)
_cell_angle_alpha                84.439(5)
_cell_angle_beta                 77.084(5)
_cell_angle_gamma                82.297(5)
_cell_volume                     1605.54
_exptl_crystal_colour            colorless
_exptl_crystal_description       plate
_cell_formula_units_Z            2
loop_
_atom_site_label
_atom_site_type_symbol
_atom_site_fract_x
_atom_site_fract_y
_atom_site_fract_z
Br1 Br -0.05266(7) 1.09674(4) 0.66000(4)
Br2 Br 1.13907(6) 0.33832(5) 0.52047(4)
Br3 Br -0.22686(7) 0.07324(5) 1.05347(3)
Br4 Br 0.66899(8) -0.13736(5) 0.85315(4)
C1 C 0.1257(6) 0.5071(4) 0.7908(3)
C2 C 0.6060(6) 0.4025(4) 0.6635(3)
C3 C -0.0405(7) 0.8499(5) 0.6584(3)
N1 N -0.1603(5) 0.5766(4) 0.8719(3)
C4 C 0.0977(6) 0.3130(4) 0.8672(3)
C5 C 0.0230(6) 0.9390(4) 0.6850(3)
C6 C 0.2079(6) 0.5869(4) 0.7349(3)
C7 C 0.4641(7) 0.1490(5) 0.7288(3)
C8 C 0.5686(6) 0.0128(4) 0.8255(3)
C9 C -0.0947(6) 0.1709(4) 0.9783(3)
C10 C -0.0349(6) 0.5457(4) 0.8365(3)
C11 C -0.0685(7) 0.1555(5) 0.8950(4)
C12 C 0.3639(6) 0.5477(4) 0.6925(3)
C13 C 0.1388(6) 0.7099(4) 0.7197(3)
C14 C 0.1944(6) 0.3926(4) 0.8062(3)
C15 C 0.8887(7) 0.4045(5) 0.6564(3)
C16 C 0.4641(6) 0.2076(5) 0.8611(3)
C17 C 0.6417(6) 0.3601(5) 0.5857(3)
C18 C 0.8013(6) 0.3389(5) 0.5436(3)
C19 C 0.4367(6) 0.4331(4) 0.7065(3)
C20 C 0.1978(7) 0.8006(4) 0.7480(3)
C21 C 0.9224(6) 0.3636(4) 0.5786(3)
N2 N 0.5159(6) 0.6949(4) 0.5866(3)
C22 C 0.1385(6) 0.9160(4) 0.7313(3)
C23 C 0.0276(7) 0.2276(5) 0.8401(4)
C24 C 0.3500(6) 0.3554(4) 0.7641(3)
C25 C 0.4502(6) 0.6292(4) 0.6335(3)
C26 C 0.4276(6) 0.2349(4) 0.7837(3)
C27 C 0.5351(7) 0.0965(5) 0.8822(3)
C28 C 0.7306(7) 0.4264(5) 0.6983(4)
C29 C -0.0253(7) 0.2544(5) 1.0069(4)
C30 C 0.0703(7) 0.3258(5) 0.9507(3)
C31 C 0.0183(6) 0.7357(4) 0.6750(3)
C32 C 0.5349(7) 0.0375(5) 0.7490(4)
H1 H 0.555(7) 0.346(4) 0.560(3)
H2 H 0.821(7) 0.303(5) 0.488(3)
H3 H -0.049(7) 0.257(5) 1.061(4)
H4 H 0.449(6) 0.163(4) 0.685(3)
H5 H 0.971(7) 0.423(5) 0.681(3)
H6 H 0.698(6) 0.456(4) 0.749(3)
H7 H 0.119(7) 0.383(5) 0.969(3)
H8 H 0.047(8) 0.221(5) 0.788(4)
H9 H -0.103(6) 0.867(4) 0.630(3)
H10 H 0.437(7) 0.275(5) 0.901(4)
H11 H 0.290(9) 0.784(6) 0.776(4)
H12 H 0.179(6) 0.978(5) 0.756(3)
H13 H -0.105(7) 0.106(5) 0.878(3)
H14 H 0.561(8) -0.015(6) 0.706(4)
H15 H 0.545(7) 0.077(5) 0.945(3)
H16 H -0.026(7) 0.679(5) 0.660(3)
Cl1 Cl 0.28140(18) 0.95350(13) 0.47695(9)
C33 C 0.4184(7) 1.0038(6) 0.5276(4)
H17 H 0.388(8) 1.093(6) 0.546(4)
H18 H 0.427(10) 0.959(7) 0.583(5)
Cl1A Cl 0.71860(18) 1.04650(13) 0.52305(9)
C33A C 0.5816(7) 0.9962(6) 0.4724(4)
H17A H 0.612(8) 0.907(6) 0.454(4)
H18A H 0.573(10) 1.041(7) 0.417(5)
Cl2 Cl 0.3956(2) 0.56426(14) 0.89703(9)
C34 C 0.4674(7) 0.5616(5) 0.9891(3)
H19 H 0.384(7) 0.586(5) 1.030(3)
H20 H 0.558(7) 0.616(5) 0.980(3)
Cl2A Cl 0.6044(2) 0.43574(14) 1.10297(9)
C34A C 0.5326(7) 0.4384(5) 1.0109(3)
H19A H 0.616(7) 0.414(5) 0.970(3)
H20A H 0.442(7) 0.384(5) 1.020(3)
loop_
_geom_bond_atom_site_label_1
_geom_bond_atom_site_label_2
_geom_bond_site_symmetry_1
_geom_bond_site_symmetry_2
Br1 C5 1_555 1_555
Br2 C21 1_555 1_555
Br3 C9 1_555 1_555
Br4 C8 1_555 1_555
C1 C6 1_555 1_555
C2 C17 1_555 1_555
C3 C5 1_555 1_555
N1 C10 1_555 1_555
C4 C14 1_555 1_555
C5 C22 1_555 1_555
C6 C12 1_555 1_555
C7 C26 1_555 1_555
C8 C27 1_555 1_555
C9 C11 1_555 1_555
C10 C1 1_555 1_555
C11 C23 1_555 1_555
C12 C19 1_555 1_555
C13 C6 1_555 1_555
C14 C1 1_555 1_555
C15 C21 1_555 1_555
C16 C26 1_555 1_555
C17 C18 1_555 1_555
C18 C21 1_555 1_555
C19 C2 1_555 1_555
C20 C13 1_555 1_555
N2 C25 1_555 1_555
C22 C20 1_555 1_555
C23 C4 1_555 1_555
C24 C14 1_555 1_555
C25 C12 1_555 1_555
C26 C24 1_555 1_555
C27 C16 1_555 1_555
C28 C2 1_555 1_555
C29 C9 1_555 1_555
C30 C4 1_555 1_555
C31 C3 1_555 1_555
C32 C7 1_555 1_555
H1 C17 1_555 1_555
H2 C18 1_555 1_555
H3 C29 1_555 1_555
H4 C7 1_555 1_555
H5 C15 1_555 1_555
H6 C28 1_555 1_555
H7 C30 1_555 1_555
H8 C23 1_555 1_555
H9 C3 1_555 1_555
H10 C16 1_555 1_555
H11 C20 1_555 1_555
H12 C22 1_555 1_555
H13 C11 1_555 1_555
H14 C32 1_555 1_555
H15 C27 1_555 1_555
H16 C31 1_555 1_555
Cl1 C33 1_555 1_555
C33 H17 1_555 1_555
H18 C33 1_555 1_555
Cl2 C34 1_555 1_555
C34 H19 1_555 1_555
H20 C34 1_555 1_555
Cl1A C33A 1_555 1_555
C33A C33 1_555 1_555
H17A C33A 1_555 1_555
H18A C33A 1_555 1_555
Cl2A C34A 1_555 1_555
C34A C34 1_555 1_555
H19A C34A 1_555 1_555
H20A C34A 1_555 1_555
C8 C32 1_555 1_555
C13 C31 1_555 1_555
C15 C28 1_555 1_555
C19 C24 1_555 1_555
C29 C30 1_555 1_555

#END
