
#######################################################################
#
#                 Cambridge Crystallographic Data Centre
#                                CCDC 
#
#######################################################################
#
# If this CIF has been generated from an entry in the Cambridge 
# Structural Database, then it will include bibliographic, chemical, 
# crystal, experimental, refinement or atomic coordinate data resulting 
# from the CCDC's data processing and validation procedures.
#
#######################################################################

data_LIRJAZ
_chemical_formula_moiety         'C36 H28 N2,2(C1 H1 Cl3)'
_chemical_name_systematic        
'2,3,5,6-tetrakis(p-tolyl)benzene-1,4-dicarbonitrile chloroform solvate'
_symmetry_cell_setting           triclinic
_symmetry_space_group_name_H-M   'P -1'
_symmetry_Int_Tables_number      2
_space_group_name_Hall           '-P 1'
loop_
_symmetry_equiv_pos_site_id
_symmetry_equiv_pos_as_xyz
1 x,y,z
2 -x,-y,-z
_cell_length_a                   7.926(5)
_cell_length_b                   10.089(7)
_cell_length_c                   11.935(8)
_cell_angle_alpha                72.703(12)
_cell_angle_beta                 86.675(14)
_cell_angle_gamma                79.218(13)
_cell_volume                     895.137
_exptl_crystal_colour            brown
_exptl_crystal_description       plate
_cell_formula_units_Z            1
loop_
_atom_site_label
_atom_site_type_symbol
_atom_site_fract_x
_atom_site_fract_y
_atom_site_fract_z
Cl1 Cl 0.4448(2) 0.00638(19) 0.86282(15)
Cl2 Cl 0.3658(3) -0.0391(2) 0.64588(18)
Cl3 Cl 0.2615(3) 0.2355(2) 0.68152(18)
C1 C 0.4197(8) 0.0819(6) 0.7112(5)
H1 H 0.5311 0.1085 0.6772
N1 N 0.3033(6) 0.7762(5) 0.4732(4)
C2 C -0.0299(7) 0.6619(5) 0.6675(5)
C3 C 0.2136(7) 0.6993(6) 0.4807(5)
C4 C 0.3406(7) 0.7020(6) 0.1300(5)
H2 H 0.3197 0.7879 0.0682
C5 C 0.0036(7) 0.6768(6) 0.8630(5)
H3 H 0.0335 0.6306 0.9429
C6 C 0.1202(7) 0.5215(6) 0.4066(5)
C7 C 0.2474(7) 0.5495(6) 0.3102(5)
C8 C 0.1002(7) 0.5998(6) 0.4899(5)
C9 C 0.3940(8) 0.4494(6) 0.3078(6)
H4 H 0.4123 0.3618 0.3678
C10 C -0.0511(8) 0.9064(7) 0.9123(6)
H5 H -0.0377 0.8421 0.9922
H6 H -0.1610 0.9716 0.9059
H7 H 0.0430 0.9602 0.8945
C11 C -0.0812(7) 0.8086(6) 0.6305(5)
H8 H -0.1100 0.8554 0.5506
C12 C 0.6193(8) 0.6333(7) 0.0315(6)
H9 H 0.5596 0.6865 -0.0424
H10 H 0.6862 0.5445 0.0234
H11 H 0.6965 0.6891 0.0501
C13 C 0.4903(8) 0.6023(6) 0.1280(5)
C14 C -0.0169(7) 0.5786(5) 0.5820(5)
C15 C -0.0900(7) 0.8860(6) 0.7099(5)
H12 H -0.1264 0.9854 0.6833
C16 C 0.2251(7) 0.6765(6) 0.2200(5)
H13 H 0.1273 0.7467 0.2212
C17 C -0.0474(7) 0.8225(6) 0.8264(5)
C18 C 0.0117(7) 0.5972(6) 0.7848(5)
H14 H 0.0462 0.4977 0.8121
C19 C 0.5113(8) 0.4768(6) 0.2194(6)
H15 H 0.6110 0.4077 0.2202
N1A N -0.3033(6) 0.2238(5) 0.5268(4)
C2A C 0.0299(7) 0.3381(5) 0.3325(5)
C3A C -0.2136(7) 0.3007(6) 0.5193(5)
C4A C -0.3406(7) 0.2980(6) 0.8700(5)
H2A H -0.3197 0.2121 0.9318
C5A C -0.0036(7) 0.3232(6) 0.1370(5)
H3A H -0.0335 0.3694 0.0571
C6A C -0.1202(7) 0.4785(6) 0.5934(5)
C7A C -0.2474(7) 0.4505(6) 0.6898(5)
C8A C -0.1002(7) 0.4002(6) 0.5101(5)
C9A C -0.3940(8) 0.5506(6) 0.6922(6)
H4A H -0.4123 0.6382 0.6322
C10A C 0.0511(8) 0.0936(7) 0.0877(6)
H5A H 0.0377 0.1579 0.0078
H6A H 0.1610 0.0284 0.0941
H7A H -0.0430 0.0398 0.1055
C11A C 0.0812(7) 0.1914(6) 0.3695(5)
H8A H 0.1100 0.1446 0.4494
C12A C -0.6193(8) 0.3667(7) 0.9685(6)
H9A H -0.5596 0.3135 1.0424
H10A H -0.6862 0.4555 0.9766
H11A H -0.6965 0.3109 0.9499
C13A C -0.4903(8) 0.3977(6) 0.8720(5)
C14A C 0.0169(7) 0.4214(5) 0.4180(5)
C15A C 0.0900(7) 0.1140(6) 0.2901(5)
H12A H 0.1264 0.0146 0.3167
C16A C -0.2251(7) 0.3235(6) 0.7800(5)
H13A H -0.1273 0.2533 0.7788
C17A C 0.0474(7) 0.1775(6) 0.1736(5)
C18A C -0.0117(7) 0.4028(6) 0.2152(5)
H14A H -0.0462 0.5023 0.1879
C19A C -0.5113(8) 0.5232(6) 0.7806(6)
H15A H -0.6110 0.5923 0.7798
loop_
_geom_bond_atom_site_label_1
_geom_bond_atom_site_label_2
_geom_bond_site_symmetry_1
_geom_bond_site_symmetry_2
Cl1 C1 1_555 1_555
Cl2 C1 1_555 1_555
Cl3 C1 1_555 1_555
C1 H1 1_555 1_555
N1 C3 1_555 1_555
C2 C11 1_555 1_555
C3 C8 1_555 1_555
C4 H2 1_555 1_555
C5 H3 1_555 1_555
C6 C7 1_555 1_555
C7 C9 1_555 1_555
C8 C6 1_555 1_555
C9 H4 1_555 1_555
C10 H5 1_555 1_555
H6 C10 1_555 1_555
H7 C10 1_555 1_555
C11 H8 1_555 1_555
C12 H9 1_555 1_555
H10 C12 1_555 1_555
H11 C12 1_555 1_555
C13 C4 1_555 1_555
C14 C2 1_555 1_555
C15 C11 1_555 1_555
H12 C15 1_555 1_555
C16 C4 1_555 1_555
H13 C16 1_555 1_555
C17 C5 1_555 1_555
C18 C2 1_555 1_555
H14 C18 1_555 1_555
C19 C9 1_555 1_555
H15 C19 1_555 1_555
N1A C3A 1_555 1_555
C2A C11A 1_555 1_555
C3A C8A 1_555 1_555
C4A H2A 1_555 1_555
C5A H3A 1_555 1_555
C6A C14 1_555 1_555
C7A C6A 1_555 1_555
C8A C6A 1_555 1_555
C9A C7A 1_555 1_555
H4A C9A 1_555 1_555
C10A H5A 1_555 1_555
H6A C10A 1_555 1_555
H7A C10A 1_555 1_555
C11A H8A 1_555 1_555
C12A H9A 1_555 1_555
H10A C12A 1_555 1_555
H11A C12A 1_555 1_555
C13A C4A 1_555 1_555
C14A C6 1_555 1_555
C15A C11A 1_555 1_555
H12A C15A 1_555 1_555
C16A C4A 1_555 1_555
H13A C16A 1_555 1_555
C17A C5A 1_555 1_555
C18A C2A 1_555 1_555
H14A C18A 1_555 1_555
C19A C9A 1_555 1_555
H15A C19A 1_555 1_555
C5 C18 1_555 1_555
C7 C16 1_555 1_555
C8 C14 1_555 1_555
C10 C17 1_555 1_555
C12 C13 1_555 1_555
C13 C19 1_555 1_555
C15 C17 1_555 1_555
C2A C14A 1_555 1_555
C5A C18A 1_555 1_555
C7A C16A 1_555 1_555
C8A C14A 1_555 1_555
C10A C17A 1_555 1_555
C12A C13A 1_555 1_555
C13A C19A 1_555 1_555
C15A C17A 1_555 1_555

#END
