
#######################################################################
#
#                 Cambridge Crystallographic Data Centre
#                                CCDC 
#
#######################################################################
#
# If this CIF has been generated from an entry in the Cambridge 
# Structural Database, then it will include bibliographic, chemical, 
# crystal, experimental, refinement or atomic coordinate data resulting 
# from the CCDC's data processing and validation procedures.
#
#######################################################################

data_LIRKAB
_chemical_formula_moiety         'C18 H16 F3 N1 O7'
_chemical_name_systematic        
'dimethyl 2-(trifluoroacetyl)-2,3-dihydro-1H,6H,7H-3a,6:7,9a-diepoxybenzo[de]isoquinoline-6a,9b-dicarboxylate'
_symmetry_cell_setting           monoclinic
_symmetry_space_group_name_H-M   'P 21/n'
_symmetry_Int_Tables_number      14
_space_group_name_Hall           '-P 2yn'
loop_
_symmetry_equiv_pos_site_id
_symmetry_equiv_pos_as_xyz
1 x,y,z
2 1/2-x,1/2+y,1/2-z
3 -x,-y,-z
4 1/2+x,1/2-y,1/2+z
_cell_length_a                   8.7661(2)
_cell_length_b                   11.2908(3)
_cell_length_c                   17.5089(4)
_cell_angle_alpha                90
_cell_angle_beta                 96.0210(10)
_cell_angle_gamma                90
_cell_volume                     1723.41
_exptl_crystal_colour            colorless
_exptl_crystal_description       block
_cell_formula_units_Z            4
loop_
_atom_site_label
_atom_site_type_symbol
_atom_site_fract_x
_atom_site_fract_y
_atom_site_fract_z
C1 C 0.39473(17) 0.49611(14) 0.67777(9)
C2 C 0.34636(17) 0.36454(14) 0.65512(9)
C3 C 0.17517(18) 0.35392(15) 0.66061(10)
H1 H 0.125910 0.313775 0.698918
C4 C 0.10926(18) 0.41275(15) 0.60044(9)
H2 H 0.002414 0.423058 0.586488
C5 C 0.23948(17) 0.46040(14) 0.55824(9)
H3 H 0.211134 0.478143 0.502604
C6 C 0.31682(17) 0.56580(14) 0.60653(9)
C7 C 0.46580(18) 0.61837(14) 0.57545(9)
H4 H 0.450625 0.648514 0.521478
C8 C 0.53785(19) 0.70697(16) 0.63430(10)
H5 H 0.534938 0.790901 0.630565
C9 C 0.60537(19) 0.64310(16) 0.69172(10)
H6 H 0.663054 0.671359 0.737022
C10 C 0.57077(18) 0.51491(15) 0.66959(9)
C11 C 0.67413(18) 0.41488(15) 0.70014(9)
H7 H 0.777907 0.426465 0.683886
H8 H 0.683028 0.415179 0.756980
C12 C 0.45739(18) 0.27365(15) 0.69121(9)
H9 H 0.456518 0.274715 0.747704
H10 H 0.426248 0.193647 0.672394
C13 C 0.68211(18) 0.24366(16) 0.61696(10)
C14 C 0.61562(19) 0.12361(17) 0.58786(11)
C15 C 0.34324(19) 0.52840(15) 0.75488(9)
C16 C 0.4132(2) 0.54441(18) 0.88782(9)
H11 H 0.502378 0.535376 0.926090
H12 H 0.332265 0.489567 0.899623
H13 H 0.375106 0.625921 0.888922
C17 C 0.20610(18) 0.66654(15) 0.61749(9)
C18 C -0.0373(2) 0.74427(17) 0.57152(12)
H14 H -0.136339 0.716249 0.547019
H15 H -0.001422 0.810491 0.541928
H16 H -0.048909 0.770680 0.623910
N1 N 0.61226(15) 0.30034(12) 0.67137(8)
O1 O 0.35051(12) 0.36756(10) 0.57348(6)
O2 O 0.57083(12) 0.52159(10) 0.58756(6)
O3 O 0.79898(15) 0.27623(13) 0.59189(8)
O4 O 0.45760(13) 0.51821(11) 0.81186(6)
O5 O 0.21495(14) 0.55547(12) 0.76498(7)
O6 O 0.07292(13) 0.64922(10) 0.57403(7)
O7 O 0.23490(14) 0.75410(11) 0.65517(7)
F1 F 0.60895(14) 0.04589(10) 0.64497(7)
F2 F 0.47566(12) 0.13074(10) 0.55061(6)
F3 F 0.70476(14) 0.07621(12) 0.53923(8)
loop_
_geom_bond_atom_site_label_1
_geom_bond_atom_site_label_2
_geom_bond_site_symmetry_1
_geom_bond_site_symmetry_2
C1 C2 1_555 1_555
C2 C3 1_555 1_555
C3 H1 1_555 1_555
C4 C3 1_555 1_555
H2 C4 1_555 1_555
C5 C4 1_555 1_555
H3 C5 1_555 1_555
C6 C1 1_555 1_555
C7 C6 1_555 1_555
H4 C7 1_555 1_555
C8 C7 1_555 1_555
H5 C8 1_555 1_555
C9 C8 1_555 1_555
H6 C9 1_555 1_555
C10 C1 1_555 1_555
C11 C10 1_555 1_555
H7 C11 1_555 1_555
H8 C11 1_555 1_555
C12 C2 1_555 1_555
H9 C12 1_555 1_555
H10 C12 1_555 1_555
C13 C14 1_555 1_555
C14 F1 1_555 1_555
C15 C1 1_555 1_555
C16 H11 1_555 1_555
H12 C16 1_555 1_555
H13 C16 1_555 1_555
C17 C6 1_555 1_555
C18 H14 1_555 1_555
H15 C18 1_555 1_555
H16 C18 1_555 1_555
N1 C11 1_555 1_555
O1 C2 1_555 1_555
O2 C7 1_555 1_555
O3 C13 1_555 1_555
O4 C15 1_555 1_555
O5 C15 1_555 1_555
O6 C17 1_555 1_555
O7 C17 1_555 1_555
F2 C14 1_555 1_555
F3 C14 1_555 1_555
C5 C6 1_555 1_555
C5 O1 1_555 1_555
C9 C10 1_555 1_555
C10 O2 1_555 1_555
C12 N1 1_555 1_555
C13 N1 1_555 1_555
C16 O4 1_555 1_555
C18 O6 1_555 1_555

#END
