
#######################################################################
#
#                 Cambridge Crystallographic Data Centre
#                                CCDC 
#
#######################################################################
#
# If this CIF has been generated from an entry in the Cambridge 
# Structural Database, then it will include bibliographic, chemical, 
# crystal, experimental, refinement or atomic coordinate data resulting 
# from the CCDC's data processing and validation procedures.
#
#######################################################################

data_LIRRIN
_chemical_formula_moiety         'C34 H28 O4 S2'
_chemical_name_systematic        
2,6-Dithia(3)(1,3)benzeno(3)(4,4''')-o-quaterphenylophan-2,2,6,6-tetroxide
_symmetry_cell_setting           monoclinic
_symmetry_space_group_name_H-M   'P 21/n'
_symmetry_Int_Tables_number      14
_space_group_name_Hall           '-P 2yn'
loop_
_symmetry_equiv_pos_site_id
_symmetry_equiv_pos_as_xyz
1 x,y,z
2 1/2+x,1/2-y,1/2+z
3 -x,-y,-z
4 1/2-x,1/2+y,1/2-z
_cell_length_a                   13.3080(10)
_cell_length_b                   15.999(2)
_cell_length_c                   13.4300(10)
_cell_angle_alpha                90
_cell_angle_beta                 104.350(10)
_cell_angle_gamma                90
_cell_volume                     2770.23
_exptl_crystal_colour            colorless
_exptl_crystal_description       plates
_cell_formula_units_Z            4
loop_
_atom_site_label
_atom_site_type_symbol
_atom_site_fract_x
_atom_site_fract_y
_atom_site_fract_z
C1 C 0.2667(4) 0.1274(3) 0.5538(4)
H1 H 0.2699 0.1669 0.4999
H2 H 0.2348 0.1560 0.6019
S1 S 0.18383(9) 0.04295(8) 0.49745(9)
O1 O 0.0817(2) 0.0778(2) 0.4615(3)
O2 O 0.2297(3) 0.0023(2) 0.4244(2)
C2 C 0.1815(4) -0.0303(3) 0.5960(3)
H3 H 0.1298 -0.0724 0.5675
H4 H 0.2482 -0.0583 0.6139
C3 C 0.1593(4) 0.0013(3) 0.6936(3)
C4 C 0.0726(4) 0.0481(3) 0.6965(4)
H5 H 0.0255 0.0621 0.6353
C5 C 0.0544(3) 0.0745(3) 0.7888(3)
H6 H -0.0052 0.1050 0.7883
C6 C 0.1237(3) 0.0563(3) 0.8821(3)
C7 C 0.2102(4) 0.0100(3) 0.8788(4)
H7 H 0.2579 -0.0032 0.9401
C8 C 0.2283(4) -0.0176(3) 0.7865(4)
H8 H 0.2873 -0.0490 0.7871
C9 C 0.1059(3) 0.0802(3) 0.9841(3)
C10 C 0.1463(4) 0.0280(3) 1.0688(4)
H9 H 0.1826 -0.0197 1.0589
C11 C 0.1343(4) 0.0445(3) 1.1649(4)
H10 H 0.1621 0.0084 1.2190
C12 C 0.0809(4) 0.1148(4) 1.1815(4)
H11 H 0.0728 0.1267 1.2469
C13 C 0.0398(4) 0.1672(3) 1.1006(4)
H12 H 0.0024 0.2139 1.1118
C14 C 0.0526(3) 0.1521(3) 1.0017(3)
C15 C 0.0034(3) 0.2150(3) 0.9210(4)
C16 C -0.1038(4) 0.2215(3) 0.8956(4)
H13 H -0.1413 0.1876 0.9296
C17 C -0.1572(4) 0.2764(4) 0.8219(4)
H14 H -0.2293 0.2780 0.8045
C18 C -0.1006(4) 0.3289(4) 0.7748(4)
H15 H -0.1350 0.3675 0.7265
C19 C 0.0051(4) 0.3249(3) 0.7984(4)
H16 H 0.0414 0.3611 0.7658
C20 C 0.0609(3) 0.2673(3) 0.8707(3)
C21 C 0.1741(4) 0.2623(3) 0.8862(3)
C22 C 0.2449(4) 0.2518(3) 0.9821(4)
H17 H 0.2204 0.2496 1.0412
C23 C 0.3497(4) 0.2446(3) 0.9903(4)
H18 H 0.3943 0.2380 1.0551
C24 C 0.3909(3) 0.2469(3) 0.9052(4)
C25 C 0.3212(4) 0.2610(3) 0.8102(4)
H19 H 0.3465 0.2666 0.7519
C26 C 0.2168(4) 0.2667(3) 0.8009(4)
H20 H 0.1727 0.2738 0.7359
C27 C 0.5046(4) 0.2420(3) 0.9108(4)
H21 H 0.5378 0.2893 0.9510
H22 H 0.5131 0.2493 0.8417
S2 S 0.57381(9) 0.15041(8) 0.96280(9)
O3 O 0.5604(3) 0.1348(3) 1.0643(3)
O4 O 0.6761(3) 0.1614(2) 0.9508(3)
C28 C 0.5145(4) 0.0651(3) 0.8856(4)
H23 H 0.5570 0.0157 0.9062
H24 H 0.4476 0.0545 0.8997
C29 C 0.4984(4) 0.0767(3) 0.7705(4)
C30 C 0.5755(4) 0.0685(3) 0.7201(4)
H25 H 0.6428 0.0565 0.7569
C31 C 0.5532(4) 0.0781(4) 0.6140(5)
H26 H 0.6058 0.0723 0.5800
C32 C 0.4544(4) 0.0960(3) 0.5593(4)
H27 H 0.4404 0.1021 0.4883
C33 C 0.3749(4) 0.1050(3) 0.6089(4)
C34 C 0.3992(4) 0.0949(3) 0.7151(4)
H28 H 0.3470 0.1005 0.7496
loop_
_geom_bond_atom_site_label_1
_geom_bond_atom_site_label_2
_geom_bond_site_symmetry_1
_geom_bond_site_symmetry_2
C1 H1 1_555 1_555
H2 C1 1_555 1_555
S1 C1 1_555 1_555
O1 S1 1_555 1_555
O2 S1 1_555 1_555
C2 S1 1_555 1_555
H3 C2 1_555 1_555
H4 C2 1_555 1_555
C3 C2 1_555 1_555
C4 C3 1_555 1_555
H5 C4 1_555 1_555
C5 C4 1_555 1_555
H6 C5 1_555 1_555
C6 C5 1_555 1_555
C7 C6 1_555 1_555
H7 C7 1_555 1_555
C8 C3 1_555 1_555
H8 C8 1_555 1_555
C9 C6 1_555 1_555
C10 C9 1_555 1_555
H9 C10 1_555 1_555
C11 C10 1_555 1_555
H10 C11 1_555 1_555
C12 C11 1_555 1_555
H11 C12 1_555 1_555
C13 C12 1_555 1_555
H12 C13 1_555 1_555
C14 C9 1_555 1_555
C15 C14 1_555 1_555
C16 C15 1_555 1_555
H13 C16 1_555 1_555
C17 C16 1_555 1_555
H14 C17 1_555 1_555
C18 C17 1_555 1_555
H15 C18 1_555 1_555
C19 C18 1_555 1_555
H16 C19 1_555 1_555
C20 C15 1_555 1_555
C21 C20 1_555 1_555
C22 C21 1_555 1_555
H17 C22 1_555 1_555
C23 C22 1_555 1_555
H18 C23 1_555 1_555
C24 C23 1_555 1_555
C25 C24 1_555 1_555
H19 C25 1_555 1_555
C26 C21 1_555 1_555
H20 C26 1_555 1_555
C27 C24 1_555 1_555
H21 C27 1_555 1_555
H22 C27 1_555 1_555
S2 C27 1_555 1_555
O3 S2 1_555 1_555
O4 S2 1_555 1_555
C28 S2 1_555 1_555
H23 C28 1_555 1_555
H24 C28 1_555 1_555
C29 C28 1_555 1_555
C30 C29 1_555 1_555
H25 C30 1_555 1_555
C31 C30 1_555 1_555
H26 C31 1_555 1_555
C32 C31 1_555 1_555
H27 C32 1_555 1_555
C33 C1 1_555 1_555
C34 C29 1_555 1_555
H28 C34 1_555 1_555
C7 C8 1_555 1_555
C13 C14 1_555 1_555
C19 C20 1_555 1_555
C25 C26 1_555 1_555
C32 C33 1_555 1_555
C33 C34 1_555 1_555

#END
