
#######################################################################
#
#                 Cambridge Crystallographic Data Centre
#                                CCDC 
#
#######################################################################
#
# If this CIF has been generated from an entry in the Cambridge 
# Structural Database, then it will include bibliographic, chemical, 
# crystal, experimental, refinement or atomic coordinate data resulting 
# from the CCDC's data processing and validation procedures.
#
#######################################################################

data_LIRREK01
_chemical_formula_moiety         'C18 H30 O6,C1 H1 Cl3'
_chemical_name_systematic        
'7,8,15,16,23,24-Hexaoxatrispiro[5.2.5^9^.2.5^17^.2^6^]tetracosane chloroform solvate'
_symmetry_cell_setting           rhombohedral
_symmetry_space_group_name_H-M   'R 3 c'
_symmetry_Int_Tables_number      161
_space_group_name_Hall           'R 3 -2"c'
loop_
_symmetry_equiv_pos_site_id
_symmetry_equiv_pos_as_xyz
1 x,y,z
2 -y,x-y,z
3 -x+y,-x,z
4 -x+y,y,1/2+z
5 x,x-y,1/2+z
6 -y,-x,1/2+z
7 2/3+x,1/3+y,1/3+z
8 2/3-y,1/3+x-y,1/3+z
9 2/3-x+y,1/3-x,1/3+z
10 2/3-x+y,1/3+y,5/6+z
11 2/3+x,1/3+x-y,5/6+z
12 2/3-y,1/3-x,5/6+z
13 1/3+x,2/3+y,2/3+z
14 1/3-y,2/3+x-y,2/3+z
15 1/3-x+y,2/3-x,2/3+z
16 1/3-x+y,2/3+y,1/6+z
17 1/3+x,2/3+x-y,1/6+z
18 1/3-y,2/3-x,1/6+z
_cell_length_a                   14.3252(3)
_cell_length_b                   14.3252(3)
_cell_length_c                   18.4732(5)
_cell_angle_alpha                90
_cell_angle_beta                 90
_cell_angle_gamma                120
_cell_volume                     3283.02
_cell_formula_units_Z            6
loop_
_atom_site_label
_atom_site_type_symbol
_atom_site_fract_x
_atom_site_fract_y
_atom_site_fract_z
C1 C 0.14608(11) 0.01804(11) 0.27168(8)
C2 C 0.22799(11) 0.06126(12) 0.33282(7)
H1 H 0.1947 0.0714 0.3755
H2 H 0.2878 0.1310 0.3190
C3 C 0.27077(13) -0.01436(14) 0.35116(8)
H3 H 0.3290 0.0205 0.3859
H4 H 0.2137 -0.0792 0.3734
C4 C 0.31159(15) -0.04495(16) 0.28449(10)
H5 H 0.3316 -0.0982 0.2977
H6 H 0.3754 0.0182 0.2663
C5 C 0.22639(14) -0.09059(14) 0.22525(9)
H7 H 0.2560 -0.1060 0.1827
H8 H 0.1653 -0.1576 0.2417
C6 C 0.18898(12) -0.01158(12) 0.20551(8)
H9 H 0.1328 -0.0436 0.1691
H10 H 0.2488 0.0531 0.1851
O1 O 0.12148(8) 0.09574(8) 0.24422(5)
O2 O 0.07159(8) 0.12612(7) 0.30247(6)
C1A C -0.01804(11) 0.12804(16) 0.27168(8)
C1B C -0.12804(16) -0.14608(11) 0.27168(8)
C2A C -0.06126(12) 0.16673(16) 0.33282(7)
C2B C -0.16673(16) -0.22799(11) 0.33282(7)
H1A H -0.0714 0.1233 0.3755
H1B H -0.1233 -0.1947 0.3755
H2A H -0.1310 0.1568 0.3190
H2B H -0.1568 -0.2878 0.3190
C3A C 0.01436(14) 0.28513(19) 0.35116(8)
C3B C -0.28513(19) -0.27077(13) 0.35116(8)
H3A H -0.0205 0.3085 0.3859
H3B H -0.3085 -0.3290 0.3859
H4A H 0.0792 0.2929 0.3734
H4B H -0.2929 -0.2137 0.3734
C4A C 0.04495(16) 0.35654(22) 0.28449(10)
C4B C -0.35654(22) -0.31159(15) 0.28449(10)
H5A H 0.0982 0.4298 0.2977
H5B H -0.4298 -0.3316 0.2977
H6A H -0.0182 0.3572 0.2663
H6B H -0.3572 -0.3754 0.2663
C5A C 0.09059(14) 0.31698(20) 0.22525(9)
C5B C -0.31698(20) -0.22639(14) 0.22525(9)
H7A H 0.1060 0.3620 0.1827
H7B H -0.3620 -0.2560 0.1827
H8A H 0.1576 0.3229 0.2417
H8B H -0.3229 -0.1653 0.2417
C6A C 0.01158(12) 0.20056(17) 0.20551(8)
C6B C -0.20056(17) -0.18898(12) 0.20551(8)
H9A H 0.0436 0.1764 0.1691
H9B H -0.1764 -0.1328 0.1691
H10A H -0.0531 0.1957 0.1851
H10B H -0.1957 -0.2488 0.1851
O1A O -0.09574(8) 0.02574(11) 0.24422(5)
O1B O -0.02574(11) -0.12148(8) 0.24422(5)
O2A O -0.12612(7) -0.05453(11) 0.30247(6)
O2B O 0.05453(11) -0.07159(8) 0.30247(6)
C7 C 0.0000 0.0000 0.47190(15)
H11 H 0.0000 0.0000 0.4188
Cl1 Cl 0.08917(4) 0.13108(4) 0.50166(3)
Cl1A Cl -0.13108(4) -0.04191(6) 0.50166(3)
Cl1B Cl 0.04191(6) -0.08917(4) 0.50166(3)
loop_
_geom_bond_atom_site_label_1
_geom_bond_atom_site_label_2
_geom_bond_site_symmetry_1
_geom_bond_site_symmetry_2
C1 C2 1_555 1_555
C2 H1 1_555 1_555
H2 C2 1_555 1_555
C3 C2 1_555 1_555
H3 C3 1_555 1_555
H4 C3 1_555 1_555
C4 C3 1_555 1_555
H5 C4 1_555 1_555
H6 C4 1_555 1_555
C5 C4 1_555 1_555
H7 C5 1_555 1_555
H8 C5 1_555 1_555
C6 C1 1_555 1_555
H9 C6 1_555 1_555
H10 C6 1_555 1_555
C7 H11 1_555 1_555
O1 C1 1_555 1_555
O2 O1 1_555 1_555
Cl1 C7 1_555 1_555
C1A O2 1_555 1_555
C1B C2B 1_555 1_555
C2A C1A 1_555 1_555
C2B H1B 1_555 1_555
H1A C2A 1_555 1_555
H2A C2A 1_555 1_555
H2B C2B 1_555 1_555
C3A C2A 1_555 1_555
C3B C2B 1_555 1_555
H3A C3A 1_555 1_555
H3B C3B 1_555 1_555
H4A C3A 1_555 1_555
H4B C3B 1_555 1_555
C4A C3A 1_555 1_555
C4B C3B 1_555 1_555
H5A C4A 1_555 1_555
H5B C4B 1_555 1_555
H6A C4A 1_555 1_555
H6B C4B 1_555 1_555
C5A C4A 1_555 1_555
C5B C4B 1_555 1_555
H7A C5A 1_555 1_555
H7B C5B 1_555 1_555
H8A C5A 1_555 1_555
H8B C5B 1_555 1_555
C6A C1A 1_555 1_555
C6B C1B 1_555 1_555
H9A C6A 1_555 1_555
H9B C6B 1_555 1_555
H10A C6A 1_555 1_555
H10B C6B 1_555 1_555
O1A C1A 1_555 1_555
O1B C1B 1_555 1_555
O2A C1B 1_555 1_555
O2B C1 1_555 1_555
Cl1A C7 1_555 1_555
Cl1B C7 1_555 1_555
C5 C6 1_555 1_555
C5A C6A 1_555 1_555
C5B C6B 1_555 1_555
O1A O2A 1_555 1_555
O1B O2B 1_555 1_555

#END
