
#######################################################################
#
#                 Cambridge Crystallographic Data Centre
#                                CCDC 
#
#######################################################################
#
# If this CIF has been generated from an entry in the Cambridge 
# Structural Database, then it will include bibliographic, chemical, 
# crystal, experimental, refinement or atomic coordinate data resulting 
# from the CCDC's data processing and validation procedures.
#
#######################################################################

data_LIRSEM
_chemical_formula_moiety         'C22 H24 B10'
_chemical_name_systematic        
1,2-bis(naphthalen-1-yl)-1,2-dicarba-dodecaborane(10)
_symmetry_cell_setting           monoclinic
_symmetry_space_group_name_H-M   'P 21/c'
_symmetry_Int_Tables_number      14
_space_group_name_Hall           '-P 2ybc'
loop_
_symmetry_equiv_pos_site_id
_symmetry_equiv_pos_as_xyz
1 x,y,z
2 -x,1/2+y,1/2-z
3 -x,-y,-z
4 x,1/2-y,1/2+z
_cell_length_a                   12.2906(19)
_cell_length_b                   14.063(2)
_cell_length_c                   13.795(2)
_cell_angle_alpha                90
_cell_angle_beta                 116.221(3)
_cell_angle_gamma                90
_cell_volume                     2139.01
_exptl_crystal_colour            colorless
_exptl_crystal_description       block
_cell_formula_units_Z            4
loop_
_atom_site_label
_atom_site_type_symbol
_atom_site_fract_x
_atom_site_fract_y
_atom_site_fract_z
B1 B 0.35379(12) 0.82849(9) 0.21436(10)
H1 H 0.3006 0.8205 0.2604
B2 B 0.48945(12) 0.76360(11) 0.25010(11)
H2 H 0.5261 0.7150 0.3198
B3 B 0.50013(12) 0.73897(10) 0.12932(12)
H3 H 0.5445 0.6740 0.1201
B4 B 0.36951(12) 0.78849(9) 0.02113(10)
H4 H 0.3266 0.7546 -0.0589
B5 B 0.37410(13) 0.91396(10) 0.03524(11)
H5 H 0.3365 0.9619 -0.0350
B6 B 0.36451(12) 0.93948(9) 0.15685(11)
H6 H 0.3207 1.0046 0.1666
B7 B 0.49295(12) 0.88963(11) 0.26590(12)
H7 H 0.5322 0.9227 0.3465
B8 B 0.58440(13) 0.83459(11) 0.21200(13)
H8 H 0.6838 0.8323 0.2571
B9 B 0.50980(14) 0.84813(10) 0.06886(13)
H9 H 0.5602 0.8536 0.0201
B10 B 0.50788(13) 0.94227(11) 0.15447(13)
H10 H 0.5578 1.0090 0.1623
C1 C 0.36242(10) 0.73791(8) 0.13236(9)
C2 C 0.28490(10) 0.84715(8) 0.07624(9)
C3 C 0.28473(10) 0.65024(8) 0.11841(9)
C4 C 0.22039(14) 0.64541(10) 0.17880(12)
H11 H 0.2265 0.6958 0.2246
C5 C 0.14634(14) 0.56821(11) 0.17438(13)
H12 H 0.1038 0.5686 0.2159
C6 C 0.13659(13) 0.49313(10) 0.10987(12)
H13 H 0.0879 0.4417 0.1075
C7 C 0.20028(11) 0.49254(9) 0.04603(10)
C8 C 0.19088(13) 0.41172(10) -0.01985(12)
H14 H 0.1417 0.3611 -0.0209
C9 C 0.25126(14) 0.40717(10) -0.08019(12)
H15 H 0.2449 0.3534 -0.1217
C10 C 0.32418(12) 0.48385(9) -0.08059(10)
H16 H 0.3649 0.4809 -0.1235
C11 C 0.33621(11) 0.56279(8) -0.01886(10)
H17 H 0.3855 0.6123 -0.0205
C12 C 0.27534(10) 0.57143(8) 0.04808(9)
C13 C 0.14769(10) 0.84254(8) 0.01275(9)
C14 C 0.10078(13) 0.81052(11) -0.09232(10)
H18 H 0.1539 0.7976 -0.1221
C15 C -0.02414(14) 0.79662(13) -0.15635(12)
H19 H -0.0523 0.7758 -0.2273
C16 C -0.10334(13) 0.81350(11) -0.11475(13)
H20 H -0.1856 0.8022 -0.1566
C17 C -0.06238(11) 0.84804(9) -0.00852(11)
C18 C -0.14678(12) 0.86514(11) 0.03436(14)
H21 H -0.2282 0.8509 -0.0076
C19 C -0.11199(14) 0.90117(12) 0.13358(15)
H22 H -0.1682 0.9095 0.1610
C20 C 0.01020(14) 0.92630(11) 0.19587(13)
H23 H 0.0338 0.9540 0.2634
C21 C 0.09470(12) 0.91051(10) 0.15833(11)
H24 H 0.1746 0.9287 0.2007
C22 C 0.06409(10) 0.86720(8) 0.05656(10)
loop_
_geom_bond_atom_site_label_1
_geom_bond_atom_site_label_2
_geom_bond_site_symmetry_1
_geom_bond_site_symmetry_2
B1 H1 1_555 1_555
B2 B1 1_555 1_555
H2 B2 1_555 1_555
B3 B2 1_555 1_555
H3 B3 1_555 1_555
B4 B3 1_555 1_555
H4 B4 1_555 1_555
B5 B4 1_555 1_555
H5 B5 1_555 1_555
B6 B1 1_555 1_555
H6 B6 1_555 1_555
B7 B1 1_555 1_555
H7 B7 1_555 1_555
B8 B2 1_555 1_555
H8 B8 1_555 1_555
B9 B3 1_555 1_555
H9 B9 1_555 1_555
B10 B5 1_555 1_555
H10 B10 1_555 1_555
C1 B1 1_555 1_555
C2 B1 1_555 1_555
C3 C1 1_555 1_555
C4 C3 1_555 1_555
H11 C4 1_555 1_555
C5 C4 1_555 1_555
H12 C5 1_555 1_555
C6 C5 1_555 1_555
H13 C6 1_555 1_555
C7 C6 1_555 1_555
C8 C7 1_555 1_555
H14 C8 1_555 1_555
C9 C8 1_555 1_555
H15 C9 1_555 1_555
C10 C9 1_555 1_555
H16 C10 1_555 1_555
C11 C10 1_555 1_555
H17 C11 1_555 1_555
C12 C3 1_555 1_555
C13 C2 1_555 1_555
C14 C13 1_555 1_555
H18 C14 1_555 1_555
C15 C14 1_555 1_555
H19 C15 1_555 1_555
C16 C15 1_555 1_555
H20 C16 1_555 1_555
C17 C16 1_555 1_555
C18 C17 1_555 1_555
H21 C18 1_555 1_555
C19 C18 1_555 1_555
H22 C19 1_555 1_555
C20 C19 1_555 1_555
H23 C20 1_555 1_555
C21 C20 1_555 1_555
H24 C21 1_555 1_555
C22 C13 1_555 1_555
B2 B7 1_555 1_555
B2 C1 1_555 1_555
B3 B8 1_555 1_555
B3 C1 1_555 1_555
B4 B9 1_555 1_555
B4 C1 1_555 1_555
B4 C2 1_555 1_555
B5 B6 1_555 1_555
B5 B9 1_555 1_555
B5 C2 1_555 1_555
B6 B7 1_555 1_555
B6 B10 1_555 1_555
B6 C2 1_555 1_555
B7 B8 1_555 1_555
B7 B10 1_555 1_555
B8 B9 1_555 1_555
B8 B10 1_555 1_555
B9 B10 1_555 1_555
C1 C2 1_555 1_555
C7 C12 1_555 1_555
C11 C12 1_555 1_555
C17 C22 1_555 1_555
C21 C22 1_555 1_555

#END
