
#######################################################################
#
#                 Cambridge Crystallographic Data Centre
#                                CCDC 
#
#######################################################################
#
# If this CIF has been generated from an entry in the Cambridge 
# Structural Database, then it will include bibliographic, chemical, 
# crystal, experimental, refinement or atomic coordinate data resulting 
# from the CCDC's data processing and validation procedures.
#
#######################################################################

data_LIRSAI01
_chemical_formula_moiety         'C22 H24 B10'
_chemical_name_systematic        
1,2-bis(naphthalen-2-yl)-1,2-dicarba-dodecaborane(10)
_symmetry_cell_setting           monoclinic
_symmetry_space_group_name_H-M   'P 21'
_symmetry_Int_Tables_number      4
_space_group_name_Hall           'P 2yb'
loop_
_symmetry_equiv_pos_site_id
_symmetry_equiv_pos_as_xyz
1 x,y,z
2 -x,1/2+y,-z
_cell_length_a                   11.6874(19)
_cell_length_b                   6.9339(11)
_cell_length_c                   13.691(2)
_cell_angle_alpha                90
_cell_angle_beta                 103.445(3)
_cell_angle_gamma                90
_cell_volume                     1079.1
_exptl_crystal_colour            yellow
_exptl_crystal_description       rod
_cell_formula_units_Z            2
loop_
_atom_site_label
_atom_site_type_symbol
_atom_site_fract_x
_atom_site_fract_y
_atom_site_fract_z
C1 C -0.48101(17) 0.2666(3) -0.20128(15)
C2 C -0.46697(17) 0.3769(3) -0.31251(14)
C3 C -0.37396(17) 0.2197(3) -0.12022(14)
C4 C -0.32105(18) 0.0437(3) -0.11756(15)
H1 H -0.3497 -0.0438 -0.1689
C5 C -0.22374(18) -0.0107(3) -0.03910(15)
C6 C -0.1680(2) -0.1924(4) -0.03616(19)
H2 H -0.1945 -0.2805 -0.0877
C7 C -0.0756(2) -0.2399(5) 0.0417(2)
H3 H -0.0404 -0.3605 0.0429
C8 C -0.0337(2) -0.1087(5) 0.11905(18)
H4 H 0.0298 -0.1415 0.1711
C9 C -0.0854(2) 0.0666(5) 0.11842(18)
H5 H -0.0570 0.1520 0.1708
C10 C -0.1817(2) 0.1229(4) 0.03983(15)
C11 C -0.2393(2) 0.3013(4) 0.03662(18)
H6 H -0.2132 0.3892 0.0883
C12 C -0.3327(2) 0.3500(4) -0.04030(17)
H7 H -0.3690 0.4692 -0.0399
C13 C -0.34765(16) 0.4265(3) -0.32943(14)
C14 C -0.30051(17) 0.6052(3) -0.30632(15)
H8 H -0.3403 0.6933 -0.2750
C15 C -0.19229(17) 0.6609(3) -0.32867(15)
C16 C -0.14271(18) 0.8459(4) -0.30485(19)
H9 H -0.1812 0.9357 -0.2734
C17 C -0.0381(2) 0.8938(4) -0.3279(2)
H10 H -0.0062 1.0160 -0.3122
C18 C 0.0210(2) 0.7598(5) -0.3750(2)
H11 H 0.0920 0.7938 -0.3900
C19 C -0.02395(19) 0.5813(5) -0.39895(18)
H12 H 0.0166 0.4940 -0.4300
C20 C -0.13268(17) 0.5258(3) -0.37707(15)
C21 C -0.18330(19) 0.3428(4) -0.40074(17)
H13 H -0.1448 0.2532 -0.4323
C22 C -0.28725(18) 0.2935(3) -0.37870(16)
H14 H -0.3190 0.1718 -0.3960
B1 B -0.5072(2) 0.1378(4) -0.31231(17)
H15 H -0.4500 0.0195 -0.3255
B2 B -0.5991(2) 0.1141(4) -0.2263(2)
H16 H -0.6034 -0.0205 -0.1847
B3 B -0.6069(2) 0.3458(4) -0.1712(2)
H17 H -0.6166 0.3627 -0.0937
B4 B -0.5196(2) 0.5061(3) -0.22413(18)
H18 H -0.4704 0.6252 -0.1805
B5 B -0.5832(2) 0.5284(4) -0.35458(19)
H19 H -0.5775 0.6631 -0.3957
B6 B -0.5754(2) 0.2969(4) -0.40987(19)
H20 H -0.5644 0.2805 -0.4871
B7 B -0.6622(2) 0.1342(5) -0.3573(2)
H21 H -0.7083 0.0124 -0.4010
B8 B -0.7242(2) 0.2626(5) -0.2700(2)
H22 H -0.8108 0.2247 -0.2568
B9 B -0.6746(2) 0.5081(4) -0.2679(2)
H23 H -0.7287 0.6296 -0.2533
B10 B -0.7093(2) 0.3760(5) -0.3830(2)
H24 H -0.7866 0.4117 -0.4432
loop_
_geom_bond_atom_site_label_1
_geom_bond_atom_site_label_2
_geom_bond_site_symmetry_1
_geom_bond_site_symmetry_2
C1 C2 1_555 1_555
C2 C13 1_555 1_555
C3 C1 1_555 1_555
C4 C3 1_555 1_555
H1 C4 1_555 1_555
C5 C4 1_555 1_555
C6 C5 1_555 1_555
H2 C6 1_555 1_555
C7 C6 1_555 1_555
H3 C7 1_555 1_555
C8 C7 1_555 1_555
H4 C8 1_555 1_555
C9 C8 1_555 1_555
H5 C9 1_555 1_555
C10 C5 1_555 1_555
C11 C10 1_555 1_555
H6 C11 1_555 1_555
C12 C3 1_555 1_555
H7 C12 1_555 1_555
C13 C14 1_555 1_555
C14 H8 1_555 1_555
C15 C14 1_555 1_555
C16 C15 1_555 1_555
H9 C16 1_555 1_555
C17 C16 1_555 1_555
H10 C17 1_555 1_555
C18 C17 1_555 1_555
H11 C18 1_555 1_555
C19 C18 1_555 1_555
H12 C19 1_555 1_555
C20 C15 1_555 1_555
C21 C20 1_555 1_555
H13 C21 1_555 1_555
C22 C13 1_555 1_555
H14 C22 1_555 1_555
B1 C1 1_555 1_555
H15 B1 1_555 1_555
B2 C1 1_555 1_555
H16 B2 1_555 1_555
B3 C1 1_555 1_555
H17 B3 1_555 1_555
B4 C1 1_555 1_555
H18 B4 1_555 1_555
B5 C2 1_555 1_555
H19 B5 1_555 1_555
B6 C2 1_555 1_555
H20 B6 1_555 1_555
B7 B1 1_555 1_555
H21 B7 1_555 1_555
B8 B2 1_555 1_555
H22 B8 1_555 1_555
B9 B3 1_555 1_555
H23 B9 1_555 1_555
B10 B5 1_555 1_555
H24 B10 1_555 1_555
C2 B1 1_555 1_555
C2 B4 1_555 1_555
C9 C10 1_555 1_555
C11 C12 1_555 1_555
C19 C20 1_555 1_555
C21 C22 1_555 1_555
B1 B2 1_555 1_555
B1 B6 1_555 1_555
B2 B3 1_555 1_555
B2 B7 1_555 1_555
B3 B4 1_555 1_555
B3 B8 1_555 1_555
B4 B5 1_555 1_555
B4 B9 1_555 1_555
B5 B6 1_555 1_555
B5 B9 1_555 1_555
B6 B7 1_555 1_555
B6 B10 1_555 1_555
B7 B8 1_555 1_555
B7 B10 1_555 1_555
B8 B9 1_555 1_555
B8 B10 1_555 1_555
B9 B10 1_555 1_555

#END
