
#######################################################################
#
#                 Cambridge Crystallographic Data Centre
#                                CCDC 
#
#######################################################################
#
# If this CIF has been generated from an entry in the Cambridge 
# Structural Database, then it will include bibliographic, chemical, 
# crystal, experimental, refinement or atomic coordinate data resulting 
# from the CCDC's data processing and validation procedures.
#
#######################################################################

data_LIRSOW
_chemical_formula_moiety         'C19 H17 Br1 N2 O1'
_chemical_name_systematic        
5-Bromo-N-methyl-9-azapentacyclo[10.5.1.0^2,11^.0^3,8^.0^13,17^]octadeca-2(11),3,5,7,9,15-hexaene-10-carboxamide
_symmetry_cell_setting           orthorhombic
_symmetry_space_group_name_H-M   'P n a 21'
_symmetry_Int_Tables_number      33
_space_group_name_Hall           'P 2c -2n'
loop_
_symmetry_equiv_pos_site_id
_symmetry_equiv_pos_as_xyz
1 x,y,z
2 -x,-y,1/2+z
3 1/2+x,1/2-y,z
4 1/2-x,1/2+y,1/2+z
_cell_length_a                   7.5169(13)
_cell_length_b                   16.510(3)
_cell_length_c                   13.022(2)
_cell_angle_alpha                90
_cell_angle_beta                 90
_cell_angle_gamma                90
_cell_volume                     1616.08
_exptl_crystal_colour            colorless
_exptl_crystal_description       black
_cell_formula_units_Z            4
loop_
_atom_site_label
_atom_site_type_symbol
_atom_site_fract_x
_atom_site_fract_y
_atom_site_fract_z
Br1 Br 0.64067(5) 0.78851(2) 1.35545(5)
O1 O 1.1879(5) 0.8615(2) 0.7334(3)
N1 N 0.9552(4) 0.76115(17) 0.9309(2)
N2 N 1.0546(6) 0.7398(2) 0.7374(3)
H1 H 0.9942 0.7064 0.7742
C1 C 0.7631(5) 0.7073(2) 1.1765(3)
H2 H 0.7312 0.6609 1.2125
C2 C 0.7388(5) 0.78380(19) 1.2211(3)
C3 C 0.7824(4) 0.8528(2) 1.1719(3)
H3 H 0.7617 0.9028 1.2027
C4 C 0.8606(4) 0.84857(19) 1.0726(3)
C5 C 0.8828(4) 0.7715(2) 1.0251(3)
C6 C 0.8331(5) 0.7010(2) 1.0808(4)
H4 H 0.8486 0.6501 1.0514
C7 C 0.9257(4) 0.91524(18) 1.0182(3)
C8 C 1.0080(4) 0.90470(19) 0.9246(3)
C9 C 1.0150(4) 0.82633(19) 0.8810(2)
C10 C 1.0934(5) 0.8118(2) 0.7773(3)
C11 C 1.1082(8) 0.7144(4) 0.6355(5)
H5 H 1.1082 0.7603 0.5903
H6 H 1.0264 0.6744 0.6104
H7 H 1.2256 0.6916 0.6384
C12 C 0.9252(5) 1.0055(2) 1.0415(3)
H8 H 0.9108 1.0207 1.1138
C13 C 1.1014(5) 1.0293(2) 0.9907(4)
H9 H 1.2038 1.0060 1.0251
H10 H 1.1156 1.0875 0.9845
C14 C 1.0614(5) 0.9882(2) 0.8873(3)
H11 H 1.1562 0.9902 0.8357
C15 C 0.7934(5) 1.0450(2) 0.9641(4)
H12 H 0.7802 1.1028 0.9791
C16 C 0.8870(5) 1.03327(19) 0.8601(5)
H13 H 0.9149 1.0862 0.8300
C17 C 0.6109(5) 1.0057(3) 0.9520(6)
H14 H 0.5221 1.0033 1.0016
C18 C 0.6017(6) 0.9741(3) 0.8529(8)
H15 H 0.5033 0.9456 0.8290
C19 C 0.7533(7) 0.9887(3) 0.7918(5)
H16 H 0.7224 1.0216 0.7327
H17 H 0.8034 0.9380 0.7676
loop_
_geom_bond_atom_site_label_1
_geom_bond_atom_site_label_2
_geom_bond_site_symmetry_1
_geom_bond_site_symmetry_2
Br1 C2 1_555 1_555
O1 C10 1_555 1_555
N1 C5 1_555 1_555
N2 H1 1_555 1_555
C1 H2 1_555 1_555
C2 C1 1_555 1_555
C3 C2 1_555 1_555
H3 C3 1_555 1_555
C4 C3 1_555 1_555
C5 C4 1_555 1_555
C6 C1 1_555 1_555
H4 C6 1_555 1_555
C7 C4 1_555 1_555
C8 C7 1_555 1_555
C9 N1 1_555 1_555
C10 N2 1_555 1_555
C11 N2 1_555 1_555
H5 C11 1_555 1_555
H6 C11 1_555 1_555
H7 C11 1_555 1_555
C12 C7 1_555 1_555
H8 C12 1_555 1_555
C13 C12 1_555 1_555
H9 C13 1_555 1_555
H10 C13 1_555 1_555
C14 C8 1_555 1_555
H11 C14 1_555 1_555
C15 C12 1_555 1_555
H12 C15 1_555 1_555
C16 C14 1_555 1_555
H13 C16 1_555 1_555
C17 C15 1_555 1_555
H14 C17 1_555 1_555
C18 C17 1_555 1_555
H15 C18 1_555 1_555
C19 C16 1_555 1_555
H16 C19 1_555 1_555
H17 C19 1_555 1_555
C5 C6 1_555 1_555
C8 C9 1_555 1_555
C9 C10 1_555 1_555
C13 C14 1_555 1_555
C15 C16 1_555 1_555
C18 C19 1_555 1_555

#END
