
#######################################################################
#
#                 Cambridge Crystallographic Data Centre
#                                CCDC 
#
#######################################################################
#
# If this CIF has been generated from an entry in the Cambridge 
# Structural Database, then it will include bibliographic, chemical, 
# crystal, experimental, refinement or atomic coordinate data resulting 
# from the CCDC's data processing and validation procedures.
#
#######################################################################

data_LIRTEL
_chemical_formula_moiety         'C30 H30 N20 O10,4(H2 O1)'
_chemical_name_systematic        'Cucurbit[5]uril tetrahydrate clathrate'
_symmetry_cell_setting           orthorhombic
_symmetry_space_group_name_H-M   'P n m a'
_symmetry_Int_Tables_number      62
_space_group_name_Hall           '-P 2ac 2n'
loop_
_symmetry_equiv_pos_site_id
_symmetry_equiv_pos_as_xyz
1 x,y,z
2 1/2+x,y,1/2-z
3 x,1/2-y,z
4 1/2-x,1/2+y,1/2+z
5 -x,-y,-z
6 1/2-x,-y,1/2+z
7 -x,1/2+y,-z
8 1/2+x,1/2-y,1/2-z
_cell_length_a                   13.2314(8)
_cell_length_b                   18.8133(12)
_cell_length_c                   14.0361(9)
_cell_angle_alpha                90
_cell_angle_beta                 90
_cell_angle_gamma                90
_cell_volume                     3493.95
_exptl_crystal_colour            colorless
_exptl_crystal_description       block
_cell_formula_units_Z            4
loop_
_atom_site_label
_atom_site_type_symbol
_atom_site_fract_x
_atom_site_fract_y
_atom_site_fract_z
O1 O -0.50793(17) 0.65429(12) 0.45488(16)
O2 O -0.35339(17) 0.59624(12) 0.29941(16)
O3 O -0.2633(2) 0.7500 0.2253(3)
O4 O -0.16409(17) 0.66319(13) 0.75227(19)
O5 O -0.00638(16) 0.60971(12) 0.59633(15)
O6 O 0.1154(2) 0.7500 0.4875(2)
N1 N -0.46474(19) 0.68550(13) 0.60909(18)
N2 N -0.41156(19) 0.58155(14) 0.55217(19)
N3 N -0.28540(18) 0.54634(14) 0.43519(19)
N4 N -0.18141(19) 0.57793(13) 0.31751(18)
N5 N -0.11417(18) 0.69087(13) 0.26028(19)
N6 N -0.33543(19) 0.68535(14) 0.73469(19)
N7 N -0.26849(19) 0.59024(14) 0.66413(19)
N8 N -0.14601(19) 0.54361(13) 0.55089(18)
N9 N -0.04684(18) 0.58959(13) 0.43832(18)
N10 N 0.03383(18) 0.69120(13) 0.36455(18)
C1 C -0.4648(2) 0.64300(16) 0.5301(2)
C2 C -0.3816(2) 0.53059(16) 0.4806(2)
H1 H -0.4347 0.5285 0.4310
H2 H -0.3773 0.4830 0.5105
C3 C -0.2808(2) 0.57675(15) 0.3462(2)
C4 C -0.1491(2) 0.62029(15) 0.2359(2)
H3 H -0.0940 0.5948 0.2027
H4 H -0.2064 0.6246 0.1909
C5 C -0.1741(3) 0.7500 0.2464(3)
C6 C -0.5249(3) 0.7500 0.6154(3)
H5 H -0.5754 0.7500 0.5633
H6 H -0.5622 0.7500 0.6765
C7 C -0.4223(2) 0.65070(16) 0.6926(2)
H7 H -0.4754 0.6401 0.7412
C8 C -0.3764(2) 0.58113(16) 0.6498(2)
H8 H -0.4018 0.5383 0.6845
C9 C -0.1890(2) 0.51590(16) 0.4635(2)
H9 H -0.1916 0.4628 0.4641
C10 C -0.1147(2) 0.54396(15) 0.3851(2)
H10 H -0.0771 0.5039 0.3547
C11 C -0.0082(2) 0.70874(15) 0.2715(2)
H11 H 0.0338 0.6890 0.2185
C12 C -0.2473(2) 0.64888(18) 0.7208(2)
C13 C -0.1924(2) 0.53740(16) 0.6439(2)
H12 H -0.2235 0.4897 0.6494
H13 H -0.1388 0.5408 0.6930
C14 C -0.0610(2) 0.58500(16) 0.5351(2)
C15 C 0.0459(2) 0.61944(16) 0.3987(2)
H14 H 0.0990 0.6188 0.4483
H15 H 0.0689 0.5890 0.3454
C16 C 0.0651(3) 0.7500 0.4134(3)
C17 C -0.3395(4) 0.7500 0.7913(3)
H16 H -0.2822 0.7500 0.8367
H17 H -0.4028 0.7500 0.8289
N1B N -0.46474(19) 0.81450(13) 0.60909(18)
C1B C -0.4648(2) 0.85700(16) 0.5301(2)
O1B O -0.50793(17) 0.84571(12) 0.45488(16)
N2B N -0.41156(19) 0.91845(14) 0.55217(19)
C2B C -0.3816(2) 0.96941(16) 0.4806(2)
N3B N -0.28540(18) 0.95366(14) 0.43519(19)
C3B C -0.2808(2) 0.92325(15) 0.3462(2)
O2B O -0.35339(17) 0.90376(12) 0.29941(16)
N4B N -0.18141(19) 0.92207(13) 0.31751(18)
C4B C -0.1491(2) 0.87971(15) 0.2359(2)
N5B N -0.11417(18) 0.80913(13) 0.26028(19)
N6B N -0.33543(19) 0.81465(14) 0.73469(19)
C7B C -0.4223(2) 0.84930(16) 0.6926(2)
H7B H -0.4754 0.8599 0.7412
C8B C -0.3764(2) 0.91887(16) 0.6498(2)
N7B N -0.26849(19) 0.90976(14) 0.66413(19)
C12B C -0.2473(2) 0.85112(18) 0.7208(2)
O4B O -0.16409(17) 0.83681(13) 0.75227(19)
C13B C -0.1924(2) 0.96260(16) 0.6439(2)
N8B N -0.14601(19) 0.95639(13) 0.55089(18)
C9B C -0.1890(2) 0.98410(16) 0.4635(2)
H9B H -0.1916 1.0372 0.4641
C10B C -0.1147(2) 0.95604(15) 0.3851(2)
N9B N -0.04684(18) 0.91041(13) 0.43832(18)
C14B C -0.0610(2) 0.91500(16) 0.5351(2)
O5B O -0.00638(16) 0.89029(12) 0.59633(15)
C15B C 0.0459(2) 0.88056(16) 0.3987(2)
N10B N 0.03383(18) 0.80880(13) 0.36455(18)
C11B C -0.0082(2) 0.79126(15) 0.2715(2)
H11B H 0.0338 0.8110 0.2185
H14B H 0.0990 0.8812 0.4483
H15B H 0.0689 0.9110 0.3454
H10B H -0.0771 0.9961 0.3547
H12B H -0.2235 1.0103 0.6494
H13B H -0.1388 0.9592 0.6930
H8B H -0.4018 0.9617 0.6845
H3B H -0.0940 0.9052 0.2027
H4B H -0.2064 0.8754 0.1909
H1B H -0.4347 0.9715 0.4310
H2B H -0.3773 1.0170 0.5105
O7 O 0.2773(2) 0.64444(14) 0.4921(2)
H18 H 0.235(8) 0.678(5) 0.498(10)
H19 H 0.334(5) 0.664(7) 0.498(11)
O8 O -0.1284(9) 0.7500 0.5589(7)
O9 O -0.2833(10) 0.7500 0.4565(9)
loop_
_geom_bond_atom_site_label_1
_geom_bond_atom_site_label_2
_geom_bond_site_symmetry_1
_geom_bond_site_symmetry_2
O1 C1 1_555 1_555
O2 C3 1_555 1_555
O3 C5 1_555 1_555
O4 C12 1_555 1_555
O5 C14 1_555 1_555
O6 C16 1_555 1_555
N1 C1 1_555 1_555
N2 C1 1_555 1_555
N3 C2 1_555 1_555
N4 C3 1_555 1_555
N5 C4 1_555 1_555
N6 C7 1_555 1_555
N7 C8 1_555 1_555
N8 C9 1_555 1_555
N9 C10 1_555 1_555
N10 C11 1_555 1_555
C2 N2 1_555 1_555
H1 C2 1_555 1_555
H2 C2 1_555 1_555
C3 N3 1_555 1_555
C4 N4 1_555 1_555
H3 C4 1_555 1_555
H4 C4 1_555 1_555
C5 N5 1_555 1_555
C6 N1 1_555 1_555
H5 C6 1_555 1_555
H6 C6 1_555 1_555
C7 N1 1_555 1_555
H7 C7 1_555 1_555
C8 N2 1_555 1_555
H8 C8 1_555 1_555
C9 N3 1_555 1_555
H9 C9 1_555 1_555
C10 N4 1_555 1_555
H10 C10 1_555 1_555
C11 N5 1_555 1_555
H11 C11 1_555 1_555
C12 N6 1_555 1_555
C13 N7 1_555 1_555
H12 C13 1_555 1_555
H13 C13 1_555 1_555
C14 N8 1_555 1_555
C15 N9 1_555 1_555
H14 C15 1_555 1_555
H15 C15 1_555 1_555
C16 N10 1_555 1_555
C17 N6 1_555 1_555
H16 C17 1_555 1_555
H17 C17 1_555 1_555
O7 H18 1_555 1_555
H19 O7 1_555 1_555
N1B C6 1_555 1_555
C1B N1B 1_555 1_555
O1B C1B 1_555 1_555
N2B C1B 1_555 1_555
C2B N2B 1_555 1_555
N3B C2B 1_555 1_555
C3B N3B 1_555 1_555
O2B C3B 1_555 1_555
N4B C3B 1_555 1_555
C4B N4B 1_555 1_555
N5B C5 1_555 1_555
N6B C17 1_555 1_555
C7B N1B 1_555 1_555
H7B C7B 1_555 1_555
C8B N2B 1_555 1_555
N7B C8B 1_555 1_555
C12B N6B 1_555 1_555
O4B C12B 1_555 1_555
C13B N7B 1_555 1_555
N8B C13B 1_555 1_555
C9B N3B 1_555 1_555
H9B C9B 1_555 1_555
C10B N4B 1_555 1_555
N9B C10B 1_555 1_555
C14B N8B 1_555 1_555
O5B C14B 1_555 1_555
C15B N9B 1_555 1_555
N10B C16 1_555 1_555
C11B C11 1_555 1_555
H11B C11B 1_555 1_555
H14B C15B 1_555 1_555
H15B C15B 1_555 1_555
H10B C10B 1_555 1_555
H12B C13B 1_555 1_555
H13B C13B 1_555 1_555
H8B C8B 1_555 1_555
H3B C4B 1_555 1_555
H4B C4B 1_555 1_555
H1B C2B 1_555 1_555
H2B C2B 1_555 1_555
N7 C12 1_555 1_555
N8 C13 1_555 1_555
N9 C14 1_555 1_555
N10 C15 1_555 1_555
C7 C8 1_555 1_555
C9 C10 1_555 1_555
C4B N5B 1_555 1_555
N5B C11B 1_555 1_555
N6B C7B 1_555 1_555
C7B C8B 1_555 1_555
N7B C12B 1_555 1_555
N8B C9B 1_555 1_555
C9B C10B 1_555 1_555
N9B C14B 1_555 1_555
C15B N10B 1_555 1_555
N10B C11B 1_555 1_555

#END
