
#######################################################################
#
#                 Cambridge Crystallographic Data Centre
#                                CCDC 
#
#######################################################################
#
# If this CIF has been generated from an entry in the Cambridge 
# Structural Database, then it will include bibliographic, chemical, 
# crystal, experimental, refinement or atomic coordinate data resulting 
# from the CCDC's data processing and validation procedures.
#
#######################################################################

data_LIRTIP
_chemical_formula_moiety         
'C42 H42 N28 O14,4(O4 S1 2-),C4 H8 O1,11(H2 O1),8(H3 O1 1+)'
_chemical_name_systematic        
'Cucurbit[7]uril tetrahydrofuran tetrasulfate octaoxonium clathrate undecahydrate'
_symmetry_cell_setting           monoclinic
_symmetry_space_group_name_H-M   'P 21/n'
_symmetry_Int_Tables_number      14
_space_group_name_Hall           '-P 2yn'
loop_
_symmetry_equiv_pos_site_id
_symmetry_equiv_pos_as_xyz
1 x,y,z
2 1/2-x,1/2+y,1/2-z
3 -x,-y,-z
4 1/2+x,1/2-y,1/2+z
_cell_length_a                   12.8547(2)
_cell_length_b                   20.1325(2)
_cell_length_c                   31.66160(10)
_cell_angle_alpha                90
_cell_angle_beta                 92.5880(10)
_cell_angle_gamma                90
_cell_volume                     8185.58
_exptl_crystal_colour            colorless
_exptl_crystal_description       plate
_cell_formula_units_Z            4
loop_
_atom_site_label
_atom_site_type_symbol
_atom_site_fract_x
_atom_site_fract_y
_atom_site_fract_z
O1 O 0.6547(4) 0.3135(2) 0.30411(15)
O2 O 0.7163(4) 0.3359(2) 0.41397(15)
O3 O 0.9449(4) 0.4372(2) 0.45316(16)
O4 O 1.1248(4) 0.5327(2) 0.39032(16)
O5 O 1.1193(4) 0.5495(3) 0.27627(18)
O6 O 0.9450(4) 0.4853(2) 0.18925(18)
O7 O 0.7312(4) 0.3811(3) 0.20116(17)
O8 O 0.8844(4) 0.0612(2) 0.28715(15)
O9 O 0.9878(4) 0.0927(3) 0.38706(18)
O10 O 1.2258(4) 0.1983(3) 0.42340(17)
O11 O 1.4103(4) 0.2991(3) 0.37004(18)
O12 O 1.4214(4) 0.3209(3) 0.26368(16)
O13 O 1.2342(4) 0.2447(2) 0.18686(15)
O14 O 1.0004(4) 0.1344(2) 0.19926(14)
N1 N 0.6528(4) 0.2215(3) 0.25983(18)
N2 N 0.6471(4) 0.2061(3) 0.32932(17)
N3 N 0.7137(5) 0.2233(3) 0.40122(18)
N4 N 0.8265(5) 0.2634(3) 0.44984(18)
N5 N 0.9750(5) 0.3286(3) 0.47477(18)
N6 N 1.1115(4) 0.3950(3) 0.46632(17)
N7 N 1.2346(4) 0.4649(3) 0.43125(18)
N8 N 1.2918(5) 0.5057(3) 0.37171(19)
N9 N 1.2896(5) 0.5186(3) 0.2952(2)
N10 N 1.2292(5) 0.5012(3) 0.2292(2)
N11 N 1.1126(5) 0.4525(3) 0.1758(2)
N12 N 0.9816(5) 0.3924(3) 0.14950(18)
N13 N 0.8294(4) 0.3215(3) 0.15537(18)
N14 N 0.7259(4) 0.2660(3) 0.19675(16)
N15 N 0.7505(5) 0.1198(3) 0.25355(18)
N16 N 0.7430(5) 0.1018(3) 0.32221(18)
N17 N 0.8172(5) 0.1233(3) 0.39332(18)
N18 N 0.9352(5) 0.1668(3) 0.43765(17)
N19 N 1.0862(5) 0.2333(3) 0.46088(18)
N20 N 1.2246(5) 0.2988(3) 0.4582(2)
N21 N 1.3444(5) 0.3677(3) 0.42115(19)
N22 N 1.4139(5) 0.4143(3) 0.3654(2)
N23 N 1.4150(5) 0.4287(3) 0.28909(19)
N24 N 1.3469(5) 0.4066(3) 0.22514(19)
N25 N 1.2299(4) 0.3572(3) 0.17244(18)
N26 N 1.0953(4) 0.2951(3) 0.15042(17)
N27 N 0.9453(4) 0.2256(3) 0.15980(16)
N28 N 0.8263(4) 0.1642(3) 0.19077(17)
C1 C 0.6521(5) 0.2528(4) 0.2983(2)
C2 C 0.6229(6) 0.2218(4) 0.3723(2)
H1 H 0.5732 0.1884 0.3824
H2 H 0.5883 0.2657 0.3727
C3 C 0.7476(6) 0.2801(4) 0.4208(2)
C4 C 0.8673(6) 0.3099(4) 0.4811(2)
H3 H 0.8628 0.2898 0.5095
H4 H 0.8235 0.3503 0.4802
C5 C 1.0038(6) 0.3920(4) 0.4636(2)
C6 C 1.1676(6) 0.4578(3) 0.4663(2)
H5 H 1.1166 0.4947 0.4655
H6 H 1.2102 0.4617 0.4931
C7 C 1.2083(6) 0.5032(3) 0.3968(2)
C8 C 1.2963(7) 0.5507(4) 0.3360(2)
H7 H 1.2386 0.5831 0.3374
H8 H 1.3624 0.5759 0.3386
C9 C 1.2040(6) 0.5255(4) 0.2677(3)
C10 C 1.1645(7) 0.5115(4) 0.1918(3)
H9 H 1.2078 0.5298 0.1694
H10 H 1.1111 0.5453 0.1979
C11 C 1.0077(6) 0.4467(3) 0.1732(2)
C12 C 0.8745(6) 0.3779(3) 0.1345(2)
H11 H 0.8307 0.4175 0.1391
H12 H 0.8735 0.3692 0.1037
C13 C 0.7603(6) 0.3279(4) 0.1862(2)
C14 C 0.6321(5) 0.2560(4) 0.2205(2)
H13 H 0.6007 0.2998 0.2265
H14 H 0.5808 0.2303 0.2030
C15 C 0.6531(5) 0.1505(4) 0.2637(2)
H15 H 0.5923 0.1297 0.2479
C16 C 0.6493(5) 0.1392(3) 0.3123(2)
H16 H 0.5858 0.1137 0.3195
C17 C 0.7568(6) 0.1638(3) 0.4210(2)
H17 H 0.7024 0.1373 0.4351
C18 C 0.8394(6) 0.1920(3) 0.4534(2)
H18 H 0.8281 0.1759 0.4827
C19 C 1.0634(6) 0.2875(4) 0.4888(2)
H19 H 1.0566 0.2718 0.5185
C20 C 1.1570(6) 0.3346(4) 0.4853(2)
H20 H 1.1918 0.3438 0.5136
C21 C 1.3390(5) 0.4386(4) 0.4301(2)
H21 H 1.3820 0.4507 0.4561
C22 C 1.3818(5) 0.4704(4) 0.3899(2)
H22 H 1.4411 0.5012 0.3969
C23 C 1.3791(6) 0.4926(3) 0.2742(2)
H23 H 1.4372 0.5257 0.2743
C24 C 1.3363(6) 0.4785(3) 0.2290(2)
H24 H 1.3766 0.5025 0.2074
C25 C 1.1631(6) 0.4044(3) 0.1490(2)
H25 H 1.1994 0.4260 0.1253
C26 C 1.0699(6) 0.3597(3) 0.1328(2)
H26 H 1.0645 0.3582 0.1012
C27 C 0.8464(5) 0.2526(3) 0.1438(2)
H27 H 0.8354 0.2454 0.1127
C28 C 0.7659(5) 0.2150(3) 0.1690(2)
H28 H 0.7094 0.1956 0.1500
C29 C 0.8007(6) 0.0916(3) 0.2878(2)
C30 C 0.7687(6) 0.0752(3) 0.3641(2)
H29 H 0.8166 0.0371 0.3613
H30 H 0.7042 0.0584 0.3763
C31 C 0.9201(6) 0.1248(4) 0.4038(2)
C32 C 1.0337(6) 0.1700(4) 0.4625(2)
H31 H 1.0200 0.1599 0.4924
H32 H 1.0807 0.1352 0.4524
C33 C 1.1829(6) 0.2397(4) 0.4451(2)
C34 C 1.3320(6) 0.3173(4) 0.4527(3)
H33 H 1.3627 0.3335 0.4800
H34 H 1.3714 0.2773 0.4446
C35 C 1.3911(5) 0.3547(4) 0.3839(3)
C36 C 1.4752(6) 0.4187(4) 0.3283(2)
H35 H 1.5251 0.4559 0.3321
H36 H 1.5162 0.3773 0.3260
C37 C 1.3965(5) 0.3797(4) 0.2599(2)
C38 C 1.3365(6) 0.3717(4) 0.1848(2)
H37 H 1.3673 0.3991 0.1627
H38 H 1.3761 0.3295 0.1870
C39 C 1.1900(5) 0.2941(3) 0.1715(2)
C40 C 1.0405(5) 0.2349(3) 0.1380(2)
H39 H 1.0238 0.2363 0.1071
H40 H 1.0868 0.1964 0.1437
C41 C 0.9311(5) 0.1716(3) 0.18481(19)
C42 C 0.7825(6) 0.1076(3) 0.2107(2)
H41 H 0.8344 0.0712 0.2114
H42 H 0.7212 0.0923 0.1932
S1 S 0.85641(14) 0.07653(9) 0.08398(5)
O15 O 0.8636(5) 0.0307(3) 0.12066(17)
O16 O 0.7590(4) 0.1171(3) 0.08805(18)
O17 O 0.8503(5) 0.0401(3) 0.04481(18)
O18 O 0.9451(5) 0.1201(3) 0.0881(2)
S2 S 0.5581(2) 0.21133(16) 0.50586(9)
O19 O 0.4748(6) 0.2196(5) 0.5333(2)
O20 O 0.5074(8) 0.1862(4) 0.4624(2)
O21 O 0.6102(11) 0.2662(7) 0.4946(4)
O22 O 0.6182(12) 0.1544(7) 0.5165(5)
S3 S 0.5685(2) 0.32945(19) 0.09280(8)
O23 O 0.6340(9) 0.2750(8) 0.0833(4)
O24 O 0.4770(6) 0.3287(7) 0.0666(2)
O25 O 0.5460(9) 0.3231(9) 0.1370(3)
O26 O 0.6310(16) 0.3891(12) 0.0904(8)
O27 O 1.1089(5) 0.0983(3) 0.04523(18)
O28 O 0.9129(4) -0.0881(3) 0.03449(16)
O29 O 1.3873(6) 0.1996(3) 0.2932(3)
O30 O 1.0346(8) 0.6683(4) 0.3995(3)
O31 O 0.7250(6) -0.0611(3) 0.1362(2)
O32 O 0.5788(5) 0.0717(3) 0.0644(2)
O33 O 1.2527(6) 0.6676(4) 0.4194(2)
O34 O 0.8841(7) 0.4914(4) 0.2680(3)
O35 O 1.2193(7) 0.1601(4) 0.2547(2)
O36 O 0.9553(7) -0.0458(4) 0.3285(4)
O37 O 1.0754(5) 0.6679(4) 0.3167(2)
O38 O 1.0707(7) 0.1318(5) 0.2999(3)
O39 O 1.3631(8) 0.1578(5) 0.3638(3)
O40 O 0.2829(7) 0.1793(8) 0.5264(3)
O41 O 0.9667(10) 0.4834(11) 0.3400(4)
O42 O 1.1946(14) 0.0497(11) 0.3980(6)
O43 O 1.2277(8) 0.8005(8) 0.4204(3)
O44 O 0.578(4) 0.5305(11) -0.0975(7)
S4 S 0.9935(7) 0.5286(3) 0.0669(2)
O45 O 1.039(2) 0.4668(9) 0.0620(8)
O46 O 0.9995(13) 0.5616(9) 0.1039(5)
O47 O 0.894(3) 0.495(2) 0.0606(8)
O48 O 1.020(3) 0.5678(10) 0.0314(6)
O49 O 1.023(3) 0.313(2) 0.2724(15)
C43 C 1.115(3) 0.334(2) 0.2937(14)
H43 H 1.1245 0.3829 0.2904
H44 H 1.1760 0.3117 0.2819
C44 C 1.108(4) 0.318(2) 0.3377(13)
H45 H 1.1730 0.2957 0.3485
H46 H 1.0973 0.3582 0.3546
C45 C 1.021(3) 0.274(2) 0.3403(13)
H47 H 0.9769 0.2876 0.3635
H48 H 1.0459 0.2278 0.3462
C46 C 0.964(3) 0.276(2) 0.3006(14)
H49 H 0.9515 0.2308 0.2895
H50 H 0.8952 0.2977 0.3041
O50? O 0.7196(6) 0.4371(3) 0.2781(2)
O51? O 1.201(2) 0.876(2) 0.4348(9)
O52? O 1.031(5) 0.505(3) 0.0590(11)
S5? S 0.6964(16) 0.5006(6) 0.0152(4)
O53? O 0.575(2) 0.5004(12) 0.0295(6)
O54? O 0.745(3) 0.4361(11) -0.0024(8)
O55? O 0.708(4) 0.5478(15) -0.0179(17)
O56? O 0.776(8) 0.510(2) 0.0468(9)
O57? O 1.038(3) 0.3321(18) 0.3501(12)
C47? C 0.951(3) 0.292(2) 0.3273(13)
H51? H 0.9599 0.2434 0.3329
H52? H 0.8816 0.3057 0.3360
C48? C 0.966(4) 0.307(3) 0.2817(15)
H53? H 0.9605 0.2663 0.2646
H54? H 0.9110 0.3385 0.2712
C49? C 1.072(4) 0.338(3) 0.2773(17)
H55? H 1.0638 0.3810 0.2619
H56? H 1.1153 0.3086 0.2607
C50? C 1.124(4) 0.351(3) 0.3198(19)
H57? H 1.1447 0.3976 0.3231
H58? H 1.1858 0.3218 0.3243
loop_
_geom_bond_atom_site_label_1
_geom_bond_atom_site_label_2
_geom_bond_site_symmetry_1
_geom_bond_site_symmetry_2
O1 C1 1_555 1_555
O2 C3 1_555 1_555
O3 C5 1_555 1_555
O4 C7 1_555 1_555
O5 C9 1_555 1_555
O6 C11 1_555 1_555
O7 C13 1_555 1_555
O8 C29 1_555 1_555
O9 C31 1_555 1_555
O10 C33 1_555 1_555
O11 C35 1_555 1_555
O12 C37 1_555 1_555
O13 C39 1_555 1_555
O14 C41 1_555 1_555
N1 C1 1_555 1_555
N2 C1 1_555 1_555
N3 C2 1_555 1_555
N4 C3 1_555 1_555
N5 C4 1_555 1_555
N6 C5 1_555 1_555
N7 C6 1_555 1_555
N8 C7 1_555 1_555
N9 C8 1_555 1_555
N10 C9 1_555 1_555
N11 C10 1_555 1_555
N12 C11 1_555 1_555
N13 C12 1_555 1_555
N14 C13 1_555 1_555
N15 C15 1_555 1_555
N16 C16 1_555 1_555
N17 C17 1_555 1_555
N18 C18 1_555 1_555
N19 C19 1_555 1_555
N20 C20 1_555 1_555
N21 C21 1_555 1_555
N22 C22 1_555 1_555
N23 C23 1_555 1_555
N24 C24 1_555 1_555
N25 C25 1_555 1_555
N26 C26 1_555 1_555
N27 C27 1_555 1_555
N28 C28 1_555 1_555
C2 N2 1_555 1_555
H1 C2 1_555 1_555
H2 C2 1_555 1_555
C3 N3 1_555 1_555
C4 N4 1_555 1_555
H3 C4 1_555 1_555
H4 C4 1_555 1_555
C5 N5 1_555 1_555
C6 N6 1_555 1_555
H5 C6 1_555 1_555
H6 C6 1_555 1_555
C7 N7 1_555 1_555
C8 N8 1_555 1_555
H7 C8 1_555 1_555
H8 C8 1_555 1_555
C9 N9 1_555 1_555
C10 N10 1_555 1_555
H9 C10 1_555 1_555
H10 C10 1_555 1_555
C11 N11 1_555 1_555
C12 N12 1_555 1_555
H11 C12 1_555 1_555
H12 C12 1_555 1_555
C13 N13 1_555 1_555
C14 N1 1_555 1_555
H13 C14 1_555 1_555
H14 C14 1_555 1_555
C15 N1 1_555 1_555
H15 C15 1_555 1_555
C16 N2 1_555 1_555
H16 C16 1_555 1_555
C17 N3 1_555 1_555
H17 C17 1_555 1_555
C18 N4 1_555 1_555
H18 C18 1_555 1_555
C19 N5 1_555 1_555
H19 C19 1_555 1_555
C20 N6 1_555 1_555
H20 C20 1_555 1_555
C21 N7 1_555 1_555
H21 C21 1_555 1_555
C22 N8 1_555 1_555
H22 C22 1_555 1_555
C23 N9 1_555 1_555
H23 C23 1_555 1_555
C24 N10 1_555 1_555
H24 C24 1_555 1_555
C25 N11 1_555 1_555
H25 C25 1_555 1_555
C26 N12 1_555 1_555
H26 C26 1_555 1_555
C27 N13 1_555 1_555
H27 C27 1_555 1_555
C28 N14 1_555 1_555
H28 C28 1_555 1_555
C29 N15 1_555 1_555
C30 N16 1_555 1_555
H29 C30 1_555 1_555
H30 C30 1_555 1_555
C31 N17 1_555 1_555
C32 N18 1_555 1_555
H31 C32 1_555 1_555
H32 C32 1_555 1_555
C33 N19 1_555 1_555
C34 N20 1_555 1_555
H33 C34 1_555 1_555
H34 C34 1_555 1_555
C35 N21 1_555 1_555
C36 N22 1_555 1_555
H35 C36 1_555 1_555
H36 C36 1_555 1_555
C37 N23 1_555 1_555
C38 N24 1_555 1_555
H37 C38 1_555 1_555
H38 C38 1_555 1_555
C39 N25 1_555 1_555
C40 N26 1_555 1_555
H39 C40 1_555 1_555
H40 C40 1_555 1_555
C41 N27 1_555 1_555
C42 N15 1_555 1_555
H41 C42 1_555 1_555
H42 C42 1_555 1_555
S1 O15 1_555 1_555
O16 S1 1_555 1_555
O17 S1 1_555 1_555
O18 S1 1_555 1_555
S2 O19 1_555 1_555
O20 S2 1_555 1_555
O21 S2 1_555 1_555
O22 S2 1_555 1_555
S3 O23 1_555 1_555
O24 S3 1_555 1_555
O25 S3 1_555 1_555
O26 S3 1_555 1_555
S4 O45 1_555 1_555
O46 S4 1_555 1_555
O47 S4 1_555 1_555
O48 S4 1_555 1_555
O49 C43 1_555 1_555
C43 H43 1_555 1_555
H44 C43 1_555 1_555
C44 C43 1_555 1_555
H45 C44 1_555 1_555
H46 C44 1_555 1_555
C45 C44 1_555 1_555
H47 C45 1_555 1_555
H48 C45 1_555 1_555
C46 O49 1_555 1_555
H49 C46 1_555 1_555
H50 C46 1_555 1_555
N14 C14 1_555 1_555
N16 C29 1_555 1_555
N17 C30 1_555 1_555
N18 C31 1_555 1_555
N19 C32 1_555 1_555
N20 C33 1_555 1_555
N21 C34 1_555 1_555
N22 C35 1_555 1_555
N23 C36 1_555 1_555
N24 C37 1_555 1_555
N25 C38 1_555 1_555
N26 C39 1_555 1_555
N27 C40 1_555 1_555
N28 C41 1_555 1_555
N28 C42 1_555 1_555
C15 C16 1_555 1_555
C17 C18 1_555 1_555
C19 C20 1_555 1_555
C21 C22 1_555 1_555
C23 C24 1_555 1_555
C25 C26 1_555 1_555
C27 C28 1_555 1_555
C45 C46 1_555 1_555

#END
