
#######################################################################
#
#                 Cambridge Crystallographic Data Centre
#                                CCDC 
#
#######################################################################
#
# If this CIF has been generated from an entry in the Cambridge 
# Structural Database, then it will include bibliographic, chemical, 
# crystal, experimental, refinement or atomic coordinate data resulting 
# from the CCDC's data processing and validation procedures.
#
#######################################################################

data_LISFOL
_chemical_formula_moiety         'C24 H21 F3 O4'
_chemical_name_systematic        
3-(3,5-dimethylphenyl)-5-hydroxy-4',6-dimethyl-3-(trifluoromethyl)-2'H,3H,5'H-spiro[1-benzofuran-2,1'-cyclohex[3]ene]-2',5'-dione
_symmetry_cell_setting           orthorhombic
_symmetry_space_group_name_H-M   'P n a 21'
_symmetry_Int_Tables_number      33
_space_group_name_Hall           'P 2c -2n'
loop_
_symmetry_equiv_pos_site_id
_symmetry_equiv_pos_as_xyz
1 x,y,z
2 -x,-y,1/2+z
3 1/2+x,1/2-y,z
4 1/2-x,1/2+y,1/2+z
_cell_length_a                   19.8090(10)
_cell_length_b                   12.5601(6)
_cell_length_c                   8.0598(4)
_cell_angle_alpha                90
_cell_angle_beta                 90
_cell_angle_gamma                90
_cell_volume                     2005.3
_exptl_crystal_colour            colorless
_exptl_crystal_description       Plate
_cell_formula_units_Z            4
loop_
_atom_site_label
_atom_site_type_symbol
_atom_site_fract_x
_atom_site_fract_y
_atom_site_fract_z
F1 F 0.46203(7) 0.68921(10) 0.25915(19)
F2 F 0.36016(7) 0.70854(11) 0.16844(18)
F3 F 0.39593(7) 0.55371(10) 0.24521(19)
O1 O 0.47046(8) 0.70841(12) 0.6416(2)
O2 O 0.36067(11) 1.08631(13) 0.4269(2)
H1 H 0.323(2) 1.074(3) 0.382(5)
O3 O 0.51174(9) 0.52836(13) 0.4932(2)
O4 O 0.27998(9) 0.50967(13) 0.8306(2)
C1 C 0.37282(11) 0.68434(16) 0.4596(3)
C2 C 0.39086(11) 0.80131(17) 0.4896(3)
C3 C 0.36166(12) 0.89383(17) 0.4274(3)
H2 H 0.3241 0.8908 0.3541
C4 C 0.38912(12) 0.99106(18) 0.4757(3)
C5 C 0.44657(12) 0.99704(17) 0.5784(3)
C6 C 0.47554(12) 0.90292(17) 0.6366(3)
H3 H 0.5143 0.9046 0.7058
C7 C 0.44649(12) 0.80679(17) 0.5912(3)
C8 C 0.41902(11) 0.63117(18) 0.6021(3)
C9 C 0.45492(12) 0.52762(17) 0.5491(3)
C10 C 0.41588(12) 0.42852(18) 0.5695(3)
H4 H 0.4324 0.3663 0.5162
C11 C 0.35884(12) 0.41983(17) 0.6579(3)
C12 C 0.33325(12) 0.51359(17) 0.7543(3)
C13 C 0.37882(11) 0.61032(17) 0.7616(3)
H5 H 0.4110 0.6012 0.8546
H6 H 0.3509 0.6737 0.7861
C14 C 0.39773(12) 0.65787(18) 0.2825(3)
C15 C 0.29741(11) 0.65836(17) 0.4777(3)
C16 C 0.25503(12) 0.72971(17) 0.5614(3)
H7 H 0.2735 0.7942 0.6031
C17 C 0.18685(12) 0.70899(18) 0.5854(3)
C18 C 0.16084(12) 0.6118(2) 0.5291(3)
H8 H 0.1144 0.5961 0.5458
C19 C 0.20173(12) 0.53785(19) 0.4493(3)
C20 C 0.26949(12) 0.56238(18) 0.4209(3)
H9 H 0.2971 0.5133 0.3623
C21 C 0.47433(14) 1.10457(18) 0.6302(4)
H10 H 0.4872 1.1451 0.5312
H11 H 0.5140 1.0943 0.7010
H12 H 0.4397 1.1438 0.6917
C22 C 0.31851(14) 0.31903(18) 0.6692(4)
H13 H 0.3201 0.2919 0.7831
H14 H 0.3375 0.2658 0.5935
H15 H 0.2715 0.3335 0.6384
C23 C 0.14170(13) 0.79069(19) 0.6665(4)
H16 H 0.1694 0.8475 0.7145
H17 H 0.1152 0.7566 0.7543
H18 H 0.1112 0.8210 0.5833
C24 C 0.17338(13) 0.4312(2) 0.3946(3)
H19 H 0.1364 0.4106 0.4686
H20 H 0.2090 0.3772 0.3992
H21 H 0.1564 0.4370 0.2807
loop_
_geom_bond_atom_site_label_1
_geom_bond_atom_site_label_2
_geom_bond_site_symmetry_1
_geom_bond_site_symmetry_2
F1 C14 1_555 1_555
F2 C14 1_555 1_555
F3 C14 1_555 1_555
O1 C7 1_555 1_555
O2 H1 1_555 1_555
O3 C9 1_555 1_555
O4 C12 1_555 1_555
C1 C2 1_555 1_555
C2 C3 1_555 1_555
C3 H2 1_555 1_555
C4 O2 1_555 1_555
C5 C4 1_555 1_555
C6 C5 1_555 1_555
H3 C6 1_555 1_555
C7 C2 1_555 1_555
C8 O1 1_555 1_555
C9 C8 1_555 1_555
C10 C9 1_555 1_555
H4 C10 1_555 1_555
C11 C10 1_555 1_555
C12 C11 1_555 1_555
C13 C8 1_555 1_555
H5 C13 1_555 1_555
H6 C13 1_555 1_555
C14 C1 1_555 1_555
C15 C1 1_555 1_555
C16 C15 1_555 1_555
H7 C16 1_555 1_555
C17 C16 1_555 1_555
C18 C17 1_555 1_555
H8 C18 1_555 1_555
C19 C18 1_555 1_555
C20 C15 1_555 1_555
H9 C20 1_555 1_555
C21 C5 1_555 1_555
H10 C21 1_555 1_555
H11 C21 1_555 1_555
H12 C21 1_555 1_555
C22 C11 1_555 1_555
H13 C22 1_555 1_555
H14 C22 1_555 1_555
H15 C22 1_555 1_555
C23 C17 1_555 1_555
H16 C23 1_555 1_555
H17 C23 1_555 1_555
H18 C23 1_555 1_555
C24 C19 1_555 1_555
H19 C24 1_555 1_555
H20 C24 1_555 1_555
H21 C24 1_555 1_555
C1 C8 1_555 1_555
C3 C4 1_555 1_555
C6 C7 1_555 1_555
C12 C13 1_555 1_555
C19 C20 1_555 1_555

#END
