
#######################################################################
#
#                 Cambridge Crystallographic Data Centre
#                                CCDC 
#
#######################################################################
#
# If this CIF has been generated from an entry in the Cambridge 
# Structural Database, then it will include bibliographic, chemical, 
# crystal, experimental, refinement or atomic coordinate data resulting 
# from the CCDC's data processing and validation procedures.
#
#######################################################################

data_LISKAC
_chemical_formula_moiety         'C14 H21 N1 O3'
_chemical_name_systematic        
R,S-2-(2,6-dimethylphenoxy)-N-(2-hydroxybutyl)acetamide
_symmetry_cell_setting           orthorhombic
_symmetry_space_group_name_H-M   'P n a 21'
_symmetry_Int_Tables_number      33
_space_group_name_Hall           'P 2c -2n'
loop_
_symmetry_equiv_pos_site_id
_symmetry_equiv_pos_as_xyz
1 x,y,z
2 -x,-y,1/2+z
3 1/2-x,1/2+y,1/2+z
4 1/2+x,1/2-y,z
_cell_length_a                   21.4310(13)
_cell_length_b                   8.4830(18)
_cell_length_c                   7.516(3)
_cell_angle_alpha                90
_cell_angle_beta                 90
_cell_angle_gamma                90
_cell_volume                     1366.4
_exptl_crystal_colour            colorless
_exptl_crystal_description       block
_cell_formula_units_Z            4
loop_
_atom_site_label
_atom_site_type_symbol
_atom_site_fract_x
_atom_site_fract_y
_atom_site_fract_z
O1 O 0.30695(18) 0.7404(6) 0.2943(6)
O2 O 0.4574(2) 0.7300(7) 0.4960(6)
N1 N 0.4250(2) 0.7162(9) 0.2112(7)
C1 C 0.2447(2) 0.7062(8) 0.3381(8)
C2 C 0.2034(3) 0.8326(8) 0.3614(8)
C3 C 0.4155(3) 0.7288(8) 0.3846(9)
C4 C 0.1218(3) 0.6420(9) 0.4112(9)
H1 H 0.0803 0.6199 0.437
C5 C 0.1411(3) 0.7964(9) 0.3977(8)
H2 H 0.1123 0.8774 0.413
C6 C 0.3481(3) 0.7382(9) 0.4446(8)
H3 H 0.3385 0.6481 0.5191
H4 H 0.342 0.8329 0.5147
C7 C 0.2720(3) 0.4150(9) 0.3293(8)
H5 H 0.2503 0.3167 0.3429
H6 H 0.304 0.423 0.4181
H7 H 0.2905 0.4198 0.2131
C8 C 0.1632(3) 0.5206(8) 0.3870(9)
H8 H 0.1492 0.4171 0.3944
C9 C 0.2262(3) 0.9997(8) 0.3467(9)
H9 H 0.2701 0.9998 0.3213
H10 H 0.2188 1.0537 0.4569
H11 H 0.2042 1.0523 0.2525
C10 C 0.2264(3) 0.5498(8) 0.3511(8)
C11 C 0.4878(3) 0.7148(14) 0.1350(10)
H12 H 0.5066 0.6123 0.1544
H13 H 0.5133 0.793 0.1948
C12 C 0.5531(3) 0.7101(11) -0.1381(11)
H14 H 0.57 0.6185 -0.0776
H15 H 0.5514 0.688 -0.2647
C13 C 0.5921(5) 0.8492(11) -0.1039(14)
H16 H 0.6282 0.8462 -0.1795
H17 H 0.6051 0.8493 0.0184
H18 H 0.5686 0.943 -0.1281
C14 C 0.4863(7) 0.750(2) -0.065(2)
H19 H 0.4787 0.8632 -0.0817
O3 O 0.4377(4) 0.6636(14) -0.1524(13)
H20 H 0.4438 0.6843 -0.2616
H21 H 0.391(3) 0.716(8) 0.142(10)
C15? C 0.4906(6) 0.675(2) -0.040(2)
H22? H 0.4822 0.5618 -0.0494
O4? O 0.4445(6) 0.7557(16) -0.1385(15)
H23? H 0.4485 0.7479 -0.2507
loop_
_geom_bond_atom_site_label_1
_geom_bond_atom_site_label_2
_geom_bond_site_symmetry_1
_geom_bond_site_symmetry_2
O1 C1 1_555 1_555
O2 C3 1_555 1_555
N1 C3 1_555 1_555
C1 C2 1_555 1_555
C2 C5 1_555 1_555
C3 C6 1_555 1_555
C4 H1 1_555 1_555
C5 C4 1_555 1_555
H2 C5 1_555 1_555
C6 O1 1_555 1_555
H3 C6 1_555 1_555
H4 C6 1_555 1_555
C7 H5 1_555 1_555
H6 C7 1_555 1_555
H7 C7 1_555 1_555
C8 C4 1_555 1_555
H8 C8 1_555 1_555
C9 C2 1_555 1_555
H9 C9 1_555 1_555
H10 C9 1_555 1_555
H11 C9 1_555 1_555
C10 C1 1_555 1_555
C11 N1 1_555 1_555
H12 C11 1_555 1_555
H13 C11 1_555 1_555
C12 H14 1_555 1_555
H15 C12 1_555 1_555
C13 C12 1_555 1_555
H16 C13 1_555 1_555
H17 C13 1_555 1_555
H18 C13 1_555 1_555
C14 C11 1_555 1_555
H19 C14 1_555 1_555
O3 C14 1_555 1_555
H20 O3 1_555 1_555
H21 N1 1_555 1_555
C7 C10 1_555 1_555
C8 C10 1_555 1_555
C12 C14 1_555 1_555

#END
