
#######################################################################
#
#                 Cambridge Crystallographic Data Centre
#                                CCDC 
#
#######################################################################
#
# If this CIF has been generated from an entry in the Cambridge 
# Structural Database, then it will include bibliographic, chemical, 
# crystal, experimental, refinement or atomic coordinate data resulting 
# from the CCDC's data processing and validation procedures.
#
#######################################################################

data_LISPEK
_chemical_formula_moiety         'C21 H18 O4'
_chemical_name_systematic        
'trans-Methyl 1-(4-methoxyphenyl)-1,2-dihydronaphtho[2,1-b]furan-2-carboxylate'
_symmetry_cell_setting           orthorhombic
_symmetry_space_group_name_H-M   'P b c a'
_symmetry_Int_Tables_number      61
_space_group_name_Hall           '-P 2ac 2ab'
loop_
_symmetry_equiv_pos_site_id
_symmetry_equiv_pos_as_xyz
1 x,y,z
2 1/2-x,-y,1/2+z
3 1/2+x,1/2-y,-z
4 -x,1/2+y,1/2-z
5 -x,-y,-z
6 1/2+x,y,1/2-z
7 1/2-x,1/2+y,z
8 x,1/2-y,1/2+z
_cell_length_a                   11.5452(15)
_cell_length_b                   9.7524(12)
_cell_length_c                   29.823(3)
_cell_angle_alpha                90
_cell_angle_beta                 90
_cell_angle_gamma                90
_cell_volume                     3357.87
_exptl_crystal_colour            colorless
_exptl_crystal_description       block
_cell_formula_units_Z            8
loop_
_atom_site_label
_atom_site_type_symbol
_atom_site_fract_x
_atom_site_fract_y
_atom_site_fract_z
O1 O 0.9047(2) 0.4324(2) 0.59908(9)
O2 O 0.8058(3) 0.7102(3) 0.53149(10)
O3 O 0.9798(2) 0.6150(3) 0.54378(9)
O4 O 0.2887(2) 0.3472(3) 0.60662(10)
C1 C 0.9051(3) 0.4661(4) 0.64458(14)
C2 C 0.9923(3) 0.4196(4) 0.67331(15)
H1 H 1.0522 0.3641 0.6631
C3 C 0.9853(3) 0.4598(4) 0.71735(16)
H2 H 1.0427 0.4325 0.7373
C4 C 0.8921(3) 0.5423(4) 0.73306(14)
C5 C 0.8821(4) 0.5816(4) 0.77842(14)
H3 H 0.9387 0.5543 0.7987
C6 C 0.7923(4) 0.6580(5) 0.79289(15)
H4 H 0.7872 0.6816 0.8230
C7 C 0.7067(4) 0.7021(4) 0.76308(14)
H5 H 0.6455 0.7553 0.7735
C8 C 0.7126(3) 0.6673(4) 0.71861(13)
H6 H 0.6552 0.6973 0.6990
C9 C 0.8043(3) 0.5866(3) 0.70225(13)
C10 C 0.8154(3) 0.5440(4) 0.65725(12)
C11 C 0.7396(3) 0.5762(4) 0.61707(12)
H7 H 0.7357 0.6759 0.6132
C12 C 0.8154(3) 0.5146(4) 0.57938(13)
H8 H 0.7664 0.4545 0.5611
C13 C 0.8658(4) 0.6242(4) 0.54890(14)
C14 C 1.0324(4) 0.7149(5) 0.51366(15)
H9 H 1.0115 0.6937 0.4833
H10 H 1.1151 0.7116 0.5167
H11 H 1.0053 0.8051 0.5211
C15 C 0.6182(3) 0.5191(4) 0.61766(12)
C16 C 0.5316(3) 0.5879(4) 0.59568(13)
H12 H 0.5479 0.6732 0.5832
C17 C 0.4203(4) 0.5350(4) 0.59129(14)
H13 H 0.3639 0.5840 0.5758
C18 C 0.3943(3) 0.4103(4) 0.60993(13)
C19 C 0.4797(3) 0.3396(4) 0.63337(14)
H14 H 0.4624 0.2556 0.6465
C20 C 0.5888(3) 0.3927(4) 0.63728(13)
H15 H 0.6446 0.3442 0.6532
C21 C 0.2005(4) 0.4192(5) 0.58317(17)
H16 H 0.2241 0.4331 0.5526
H17 H 0.1876 0.5064 0.5972
H18 H 0.1302 0.3667 0.5838
loop_
_geom_bond_atom_site_label_1
_geom_bond_atom_site_label_2
_geom_bond_site_symmetry_1
_geom_bond_site_symmetry_2
O1 C1 1_555 1_555
O2 C13 1_555 1_555
O3 C13 1_555 1_555
O4 C18 1_555 1_555
C1 C2 1_555 1_555
C2 H1 1_555 1_555
C3 C2 1_555 1_555
H2 C3 1_555 1_555
C4 C3 1_555 1_555
C5 C4 1_555 1_555
H3 C5 1_555 1_555
C6 C5 1_555 1_555
H4 C6 1_555 1_555
C7 C6 1_555 1_555
H5 C7 1_555 1_555
C8 C7 1_555 1_555
H6 C8 1_555 1_555
C9 C4 1_555 1_555
C10 C1 1_555 1_555
C11 C10 1_555 1_555
H7 C11 1_555 1_555
C12 O1 1_555 1_555
H8 C12 1_555 1_555
C13 C12 1_555 1_555
C14 O3 1_555 1_555
H9 C14 1_555 1_555
H10 C14 1_555 1_555
H11 C14 1_555 1_555
C15 C11 1_555 1_555
C16 C15 1_555 1_555
H12 C16 1_555 1_555
C17 C16 1_555 1_555
H13 C17 1_555 1_555
C18 C17 1_555 1_555
C19 C18 1_555 1_555
H14 C19 1_555 1_555
C20 C15 1_555 1_555
H15 C20 1_555 1_555
C21 O4 1_555 1_555
H16 C21 1_555 1_555
H17 C21 1_555 1_555
H18 C21 1_555 1_555
C8 C9 1_555 1_555
C9 C10 1_555 1_555
C11 C12 1_555 1_555
C19 C20 1_555 1_555

#END
