
#######################################################################
#
#                 Cambridge Crystallographic Data Centre
#                                CCDC 
#
#######################################################################
#
# If this CIF has been generated from an entry in the Cambridge 
# Structural Database, then it will include bibliographic, chemical, 
# crystal, experimental, refinement or atomic coordinate data resulting 
# from the CCDC's data processing and validation procedures.
#
#######################################################################

data_LISSAK
_chemical_formula_moiety         'C13 H19 N1 O3'
_chemical_name_systematic        
S-(+)-2-(2,6-dimethylphenoxy)-N-(1-hydroxypropan-2-yl)acetamide
_symmetry_cell_setting           orthorhombic
_symmetry_space_group_name_H-M   'P 21 21 21'
_symmetry_Int_Tables_number      19
_space_group_name_Hall           'P 2ac 2ab'
loop_
_symmetry_equiv_pos_site_id
_symmetry_equiv_pos_as_xyz
1 x,y,z
2 1/2-x,-y,1/2+z
3 1/2+x,1/2-y,-z
4 -x,1/2+y,1/2-z
_cell_length_a                   7.3182(8)
_cell_length_b                   20.524(2)
_cell_length_c                   8.5965(12)
_cell_angle_alpha                90
_cell_angle_beta                 90
_cell_angle_gamma                90
_cell_volume                     1291.18
_exptl_crystal_description       prism
_cell_formula_units_Z            4
loop_
_atom_site_label
_atom_site_type_symbol
_atom_site_fract_x
_atom_site_fract_y
_atom_site_fract_z
C1 C 1.0452(8) 0.9803(3) 0.0977(8)
H1 H 1.0081 0.9597 0.0012
H2 H 1.1208 1.0176 0.0723
C2 C 0.8776(8) 1.0027(3) 0.1862(7)
H3 H 0.7953 1.0251 0.1138
C3 C 0.9220(11) 1.0486(3) 0.3198(9)
H4 H 0.9818 1.0868 0.28
H5 H 1.0011 1.027 0.3924
H6 H 0.811 1.0611 0.3714
C4 C 0.6100(8) 0.9351(3) 0.2537(8)
C5 C 0.5456(8) 0.8696(3) 0.3106(11)
H7 H 0.4717 0.8751 0.4034
H8 H 0.4709 0.849 0.2315
C6 C 0.6673(7) 0.7629(3) 0.3362(6)
C7 C 0.6409(7) 0.7309(3) 0.4748(7)
C8 C 0.6142(9) 0.6588(5) 0.4539(14)
H9 H 0.5947 0.6308 0.5374
C9 C 0.6212(10) 0.6355(3) 0.2909(11)
H10 H 0.6025 0.5913 0.2725
C10 C 0.6512(11) 0.6722(5) 0.1747(14)
H11 H 0.657 0.6544 0.0754
C11 C 0.6738(9) 0.7341(5) 0.1933(9)
C12 C 0.7140(14) 0.7762(9) 0.0496(9)
H12 H 0.7275 0.8208 0.0806
H13 H 0.6148 0.7725 -0.0229
H14 H 0.8249 0.7615 0.0013
C13 C 0.6403(11) 0.7642(7) 0.6241(9)
H15 H 0.6198 0.7332 0.7058
H16 H 0.5448 0.7963 0.6252
H17 H 0.7561 0.7853 0.6398
N1 N 0.7866(7) 0.9445(2) 0.2445(7)
O1 O 1.1471(6) 0.9356(3) 0.1885(8)
O2 O 0.4943(5) 0.97661(18) 0.2173(5)
O3 O 0.6997(6) 0.8296(2) 0.3448(7)
H18 H 0.861(11) 0.909(4) 0.256(9)
H19 H 1.248(16) 0.950(5) 0.213(15)
loop_
_geom_bond_atom_site_label_1
_geom_bond_atom_site_label_2
_geom_bond_site_symmetry_1
_geom_bond_site_symmetry_2
C1 H1 1_555 1_555
H2 C1 1_555 1_555
C2 C1 1_555 1_555
H3 C2 1_555 1_555
C3 C2 1_555 1_555
H4 C3 1_555 1_555
H5 C3 1_555 1_555
H6 C3 1_555 1_555
C4 C5 1_555 1_555
C5 H7 1_555 1_555
H8 C5 1_555 1_555
C6 C7 1_555 1_555
C7 C8 1_555 1_555
C8 H9 1_555 1_555
C9 C8 1_555 1_555
H10 C9 1_555 1_555
C10 C9 1_555 1_555
H11 C10 1_555 1_555
C11 C6 1_555 1_555
C12 C11 1_555 1_555
H12 C12 1_555 1_555
H13 C12 1_555 1_555
H14 C12 1_555 1_555
C13 C7 1_555 1_555
H15 C13 1_555 1_555
H16 C13 1_555 1_555
H17 C13 1_555 1_555
N1 C2 1_555 1_555
O1 C1 1_555 1_555
O2 C4 1_555 1_555
O3 C5 1_555 1_555
H18 N1 1_555 1_555
H19 O1 1_555 1_555
C4 N1 1_555 1_555
C6 O3 1_555 1_555
C10 C11 1_555 1_555

#END
