
#######################################################################
#
#                 Cambridge Crystallographic Data Centre
#                                CCDC 
#
#######################################################################
#
# If this CIF has been generated from an entry in the Cambridge 
# Structural Database, then it will include bibliographic, chemical, 
# crystal, experimental, refinement or atomic coordinate data resulting 
# from the CCDC's data processing and validation procedures.
#
#######################################################################

data_LISTOX
_chemical_formula_moiety         'C100 H46,4(C9 H12)'
_chemical_name_systematic        
'4,9,15,20(1,3)-Tetrabenzena-1,12(2,7,12)-ditriptycenabicyclo(10.10.10)dotriaconta-2,5,7,10,13,16,18,21,23,26,28,31-dodecayne 1,3,5-trimethylbenzene solvate'
_symmetry_cell_setting           triclinic
_symmetry_space_group_name_H-M   'P -1'
_symmetry_Int_Tables_number      2
_space_group_name_Hall           '-P 1'
loop_
_symmetry_equiv_pos_site_id
_symmetry_equiv_pos_as_xyz
1 x,y,z
2 -x,-y,-z
_cell_length_a                   18.417(3)
_cell_length_b                   20.223(3)
_cell_length_c                   21.134(3)
_cell_angle_alpha                101.472(4)
_cell_angle_beta                 109.674(2)
_cell_angle_gamma                114.6330(10)
_cell_volume                     6185.62
_exptl_crystal_colour            colorless
_exptl_crystal_description       prism
_cell_formula_units_Z            2
loop_
_atom_site_label
_atom_site_type_symbol
_atom_site_fract_x
_atom_site_fract_y
_atom_site_fract_z
C1 C 0.4006(4) 0.7390(4) 0.1342(4)
H1 H 0.3375 0.7138 0.1277
C2 C 0.4158(5) 0.7859(4) 0.0867(4)
C3 C 0.3534(5) 0.7961(4) 0.0384(4)
H2 H 0.2941 0.7741 0.0334
C4 C 0.3765(5) 0.8382(4) -0.0032(4)
H3 H 0.3335 0.8452 -0.0366
C5 C 0.4623(5) 0.8694(4) 0.0047(3)
C6 C 0.5292(5) 0.8616(4) 0.0553(4)
H4 H 0.5888 0.8842 0.0606
C7 C 0.5046(5) 0.8204(4) 0.0960(4)
C8 C 0.5657(4) 0.8046(4) 0.1521(4)
H5 H 0.6291 0.8299 0.1593
C9 C 0.5178(4) 0.7151(4) 0.1270(4)
C10 C 0.5564(5) 0.6711(4) 0.1174(3)
H6 H 0.6164 0.6957 0.1236
C11 C 0.5045(5) 0.5874(4) 0.0978(4)
C12 C 0.4156(5) 0.5522(4) 0.0844(4)
H7 H 0.3802 0.4963 0.0689
C13 C 0.3771(5) 0.5970(4) 0.0932(4)
H8 H 0.3162 0.5727 0.0846
C14 C 0.4293(5) 0.6779(4) 0.1147(4)
C15 C 0.4724(4) 0.7968(4) 0.2123(4)
C16 C 0.5597(5) 0.8319(4) 0.2207(4)
C17 C 0.6331(5) 0.8878(4) 0.2891(4)
H9 H 0.6927 0.9123 0.2947
C18 C 0.6189(4) 0.9079(4) 0.3498(4)
C19 C 0.5322(5) 0.8701(4) 0.3407(4)
H10 H 0.5224 0.8821 0.3818
C20 C 0.4563(5) 0.8132(4) 0.2710(4)
H11 H 0.3966 0.7875 0.2654
C21 C 0.4885(5) 0.9095(4) -0.0413(4)
C22 C 0.5104(5) 0.9406(4) -0.0817(4)
C23 C 0.5365(5) 0.9739(3) -0.1271(3)
C24 C 0.4807(5) 0.9898(4) -0.1765(4)
H12 H 0.4235 0.9772 -0.1794
C25 C 0.5074(5) 1.0237(4) -0.2209(4)
H13 H 0.4686 1.0342 -0.2542
C26 C 0.5910(5) 1.0428(4) -0.2178(4)
H14 H 0.6089 1.0657 -0.2491
C27 C 0.6475(5) 1.0278(4) -0.1682(4)
C28 C 0.6194(5) 0.9930(4) -0.1237(4)
H15 H 0.6580 0.9822 -0.0904
C29 C 0.7354(7) 1.0455(5) -0.1649(4)
C30 C 0.8057(6) 1.0609(5) -0.1601(5)
C31 C 0.8890(6) 1.0789(5) -0.1539(4)
C32 C 0.9628(6) 1.0968(6) -0.1457(5)
C33 C 1.0535(6) 1.1184(6) -0.1349(5)
C34 C 1.0777(8) 1.1260(8) -0.1882(6)
H16 H 1.0352 1.1203 -0.2329
C35 C 1.1601(8) 1.1413(10) -0.1801(7)
H17 H 1.1747 1.1445 -0.2188
C36 C 1.2243(8) 1.1526(9) -0.1111(6)
H18 H 1.2826 1.1637 -0.1040
C37 C 1.2031(6) 1.1477(6) -0.0552(4)
C38 C 1.1153(5) 1.1305(5) -0.0684(4)
H19 H 1.0988 1.1274 -0.0305
C39 C 1.2699(6) 1.1613(5) 0.0140(5)
C40 C 1.3245(6) 1.1730(5) 0.0718(4)
C41 C 1.5916(4) 1.2539(3) 0.3578(4)
H20 H 1.6565 1.2787 0.3686
C42 C 1.5262(4) 1.2311(3) 0.2781(4)
C43 C 1.5501(4) 1.2437(3) 0.2228(4)
H21 H 1.6111 1.2664 0.2316
C44 C 1.4798(4) 1.2213(3) 0.1544(4)
H22 H 1.4935 1.2279 0.1158
C45 C 1.3915(4) 1.1901(3) 0.1413(4)
C46 C 1.3706(4) 1.1777(4) 0.1984(4)
H23 H 1.3097 1.1553 0.1898
C47 C 1.4369(4) 1.1978(3) 0.2653(3)
C48 C 1.4228(4) 1.1900(3) 0.3309(3)
H24 H 1.3582 1.1655 0.3205
C49 C 1.4859(4) 1.2739(3) 0.3915(3)
C50 C 1.4596(4) 1.3125(4) 0.4305(3)
H25 H 1.3978 1.2881 0.4198
C51 C 1.5244(5) 1.3895(4) 0.4874(4)
C52 C 1.6131(5) 1.4259(4) 0.4968(3)
H26 H 1.6560 1.4788 0.5316
C53 C 1.6404(5) 1.3865(4) 0.4563(4)
H27 H 1.7011 1.4111 0.4642
C54 C 1.5733(4) 1.3079(3) 0.4029(3)
C55 C 1.5567(5) 1.1792(4) 0.3734(4)
C56 C 1.6084(4) 1.1462(4) 0.4010(3)
H28 H 1.6703 1.1706 0.4122
C57 C 1.5663(4) 1.0777(4) 0.4110(3)
H29 H 1.6001 1.0549 0.4297
C58 C 1.4757(4) 1.0413(4) 0.3945(3)
C59 C 1.4249(4) 1.0763(3) 0.3680(3)
H30 H 1.3633 1.0530 0.3577
C60 C 1.4670(4) 1.1441(3) 0.3578(3)
C61 C 1.4312(4) 0.9675(4) 0.4027(3)
C62 C 1.3953(4) 0.9046(4) 0.4065(3)
C63 C 1.3552(4) 0.8255(4) 0.4046(4)
C64 C 1.4100(5) 0.7988(4) 0.4380(4)
H31 H 1.4741 0.8324 0.4634
C65 C 1.3673(5) 0.7205(4) 0.4329(4)
H32 H 1.4039 0.7013 0.4552
C66 C 1.2757(5) 0.6710(4) 0.3973(4)
H33 H 1.2487 0.6183 0.3946
C67 C 1.2236(4) 0.6989(4) 0.3656(4)
C68 C 1.2628(5) 0.7770(4) 0.3701(4)
H34 H 1.2254 0.7962 0.3494
C69 C 1.1250(6) 0.6477(5) 0.3242(5)
C70 C 1.0440(6) 0.6046(5) 0.2880(5)
C71 C 0.9531(6) 0.5584(5) 0.2471(5)
C72 C 0.8730(6) 0.5174(4) 0.2096(4)
C73 C 0.7765(5) 0.4715(4) 0.1625(4)
C74 C 0.7295(5) 0.3883(4) 0.1275(4)
H35 H 0.7619 0.3618 0.1336
C75 C 0.6362(5) 0.3447(4) 0.0843(4)
H36 H 0.6045 0.2886 0.0612
C76 C 0.5895(5) 0.3840(4) 0.0751(4)
H37 H 0.5257 0.3542 0.0451
C77 C 0.6339(5) 0.4658(4) 0.1087(3)
C78 C 0.7278(5) 0.5083(4) 0.1525(4)
H38 H 0.7590 0.5643 0.1761
C79 C 0.5851(5) 0.5061(4) 0.1008(4)
C80 C 0.5470(5) 0.5423(4) 0.0973(4)
C81 C 0.6921(5) 0.9673(4) 0.4214(4)
C82 C 0.7476(5) 1.0138(4) 0.4799(4)
C83 C 0.8140(5) 1.0737(4) 0.5524(4)
C84 C 0.7955(5) 1.0658(5) 0.6104(4)
H39 H 0.7404 1.0222 0.6016
C85 C 0.8575(6) 1.1214(5) 0.6800(5)
H40 H 0.8456 1.1146 0.7193
C86 C 0.9365(5) 1.1865(5) 0.6947(4)
H41 H 0.9771 1.2256 0.7432
C87 C 0.9567(5) 1.1947(5) 0.6358(4)
C88 C 0.8941(5) 1.1380(4) 0.5661(4)
H42 H 0.9063 1.1431 0.5265
C89 C 1.0389(5) 1.2601(4) 0.6500(4)
C90 C 1.1063(6) 1.3093(5) 0.6562(5)
C91 C 1.1912(6) 1.3685(5) 0.6636(4)
C92 C 1.2610(6) 1.4135(5) 0.6664(4)
C93 C 1.3421(5) 1.4643(4) 0.6684(4)
C94 C 1.4000(5) 1.5457(4) 0.7198(4)
H43 H 1.3827 1.5662 0.7527
C95 C 1.4799(5) 1.5939(4) 0.7214(4)
H44 H 1.5175 1.6476 0.7554
C96 C 1.5066(5) 1.5651(4) 0.6735(4)
H45 H 1.5628 1.5987 0.6759
C97 C 1.4506(5) 1.4865(4) 0.6220(3)
C98 C 1.3703(5) 1.4373(4) 0.6203(4)
H46 H 1.3332 1.3838 0.5858
C99 C 1.4771(4) 1.4546(4) 0.5721(4)
C100 C 1.5007(4) 1.4278(3) 0.5336(3)
C101 C 0.4538(4) 0.3108(4) 0.6576(4)
C102 C 0.3991(6) 0.3013(4) 0.6912(3)
H47 H 0.4242 0.3347 0.7408
C103 C 0.3076(6) 0.2427(5) 0.6522(5)
C104 C 0.2709(4) 0.1938(4) 0.5796(5)
H48 H 0.2084 0.1538 0.5529
C105 C 0.3256(6) 0.2033(4) 0.5459(3)
C106 C 0.4171(6) 0.2618(5) 0.5850(4)
H49 H 0.4545 0.2684 0.5620
C107 C 0.5526(6) 0.3751(7) 0.7034(6)
H50 H 0.5637 0.4030 0.7524
H51 H 0.5682 0.4128 0.6803
H52 H 0.5899 0.3515 0.7072
C108 C 0.2470(8) 0.2271(8) 0.6886(7)
H53 H 0.2815 0.2664 0.7392
H54 H 0.2253 0.1738 0.6885
H55 H 0.1952 0.2312 0.6616
C109 C 0.2897(9) 0.1566(6) 0.4637(6)
H56 H 0.2250 0.1171 0.4413
H57 H 0.3226 0.1300 0.4586
H58 H 0.2989 0.1934 0.4390
C110 C 0.1718(6) 0.5506(7) 0.1427(6)
C111 C 0.1384(6) 0.5188(5) 0.0673(7)
H59 H 0.1268 0.4677 0.0437
C112 C 0.1217(6) 0.5616(7) 0.0265(4)
C113 C 0.1386(6) 0.6364(7) 0.0610(6)
H60 H 0.1273 0.6657 0.0331
C114 C 0.1721(6) 0.6683(5) 0.1364(6)
C115 C 0.1887(6) 0.6254(7) 0.1772(4)
H61 H 0.2116 0.6472 0.2288
C116 C 0.1898(11) 0.5067(10) 0.1917(9)
H62 H 0.1764 0.4553 0.1619
H63 H 0.1510 0.4985 0.2153
H64 H 0.2534 0.5382 0.2293
C117 C 0.0879(10) 0.5334(11) -0.0550(6)
H65 H 0.0784 0.5723 -0.0720
H66 H 0.0306 0.4823 -0.0797
H67 H 0.1328 0.5274 -0.0663
C118 C 0.1859(9) 0.7469(7) 0.1744(7)
H68 H 0.1699 0.7691 0.1384
H69 H 0.2495 0.7832 0.2114
H70 H 0.1473 0.7397 0.1981
C119 C 0.8506(5) 0.3109(6) 0.4318(5)
C120 C 0.8126(5) 0.2593(4) 0.3599(6)
H71 H 0.8009 0.2069 0.3495
C121 C 0.7916(5) 0.2843(6) 0.3032(4)
C122 C 0.8087(5) 0.3610(6) 0.3185(5)
H72 H 0.7944 0.3781 0.2797
C123 C 0.8467(5) 0.4126(4) 0.3904(6)
C124 C 0.8677(5) 0.3876(5) 0.4470(4)
H73 H 0.8937 0.4228 0.4962
C125 C 0.8810(8) 0.2923(8) 0.4985(6)
H74 H 0.8654 0.2371 0.4829
H75 H 0.8507 0.3004 0.5268
H76 H 0.9468 0.3275 0.5290
C126 C 0.7599(11) 0.2361(10) 0.2247(6)
H77 H 0.7495 0.2656 0.1946
H78 H 0.7034 0.1858 0.2068
H79 H 0.8062 0.2256 0.2216
C127 C 0.8574(9) 0.4934(7) 0.4067(9)
H80 H 0.8397 0.5019 0.3612
H81 H 0.9207 0.5344 0.4413
H82 H 0.8186 0.4962 0.4281
C128 C 0.2075(9) 0.3554(11) 0.3688(10)
C129 C 0.1853(12) 0.3145(9) 0.4116(10)
H83 H 0.2159 0.2887 0.4285
C130 C 0.1183(14) 0.3113(9) 0.4296(8)
C131 C 0.0734(9) 0.3491(12) 0.4048(11)
H84 H 0.0276 0.3469 0.4171
C132 C 0.0956(13) 0.3900(10) 0.3620(10)
C133 C 0.1626(14) 0.3931(9) 0.3440(8)
H85 H 0.1778 0.4211 0.3148
C134 C 0.2856(10) 0.3662(11) 0.3560(10)
H86 H 0.3103 0.3368 0.3775
H87 H 0.3325 0.4227 0.3789
H88 H 0.2654 0.3463 0.3033
C135 C 0.0857(16) 0.2513(13) 0.4619(13)
H89 H 0.0378 0.2525 0.4718
H90 H 0.1363 0.2644 0.5076
H91 H 0.0618 0.1982 0.4271
C136 C 0.049(2) 0.435(2) 0.347(2)
H92 H 0.0022 0.4198 0.3622
H93 H 0.0215 0.4230 0.2941
H94 H 0.0937 0.4921 0.3737
loop_
_geom_bond_atom_site_label_1
_geom_bond_atom_site_label_2
_geom_bond_site_symmetry_1
_geom_bond_site_symmetry_2
C1 H1 1_555 1_555
C2 C1 1_555 1_555
C3 C2 1_555 1_555
H2 C3 1_555 1_555
C4 C3 1_555 1_555
H3 C4 1_555 1_555
C5 C4 1_555 1_555
C6 C5 1_555 1_555
H4 C6 1_555 1_555
C7 C2 1_555 1_555
C8 C7 1_555 1_555
H5 C8 1_555 1_555
C9 C8 1_555 1_555
C10 C9 1_555 1_555
H6 C10 1_555 1_555
C11 C10 1_555 1_555
C12 C11 1_555 1_555
H7 C12 1_555 1_555
C13 C12 1_555 1_555
H8 C13 1_555 1_555
C14 C1 1_555 1_555
C15 C1 1_555 1_555
C16 C8 1_555 1_555
C17 C16 1_555 1_555
H9 C17 1_555 1_555
C18 C17 1_555 1_555
C19 C18 1_555 1_555
H10 C19 1_555 1_555
C20 C15 1_555 1_555
H11 C20 1_555 1_555
C21 C5 1_555 1_555
C22 C21 1_555 1_555
C23 C22 1_555 1_555
C24 C23 1_555 1_555
H12 C24 1_555 1_555
C25 C24 1_555 1_555
H13 C25 1_555 1_555
C26 C25 1_555 1_555
H14 C26 1_555 1_555
C27 C26 1_555 1_555
C28 C23 1_555 1_555
H15 C28 1_555 1_555
C29 C27 1_555 1_555
C30 C29 1_555 1_555
C31 C30 1_555 1_555
C32 C31 1_555 1_555
C33 C32 1_555 1_555
C34 C33 1_555 1_555
H16 C34 1_555 1_555
C35 C34 1_555 1_555
H17 C35 1_555 1_555
C36 C35 1_555 1_555
H18 C36 1_555 1_555
C37 C36 1_555 1_555
C38 C33 1_555 1_555
H19 C38 1_555 1_555
C39 C37 1_555 1_555
C40 C39 1_555 1_555
C41 H20 1_555 1_555
C42 C41 1_555 1_555
C43 C42 1_555 1_555
H21 C43 1_555 1_555
C44 C43 1_555 1_555
H22 C44 1_555 1_555
C45 C40 1_555 1_555
C46 C45 1_555 1_555
H23 C46 1_555 1_555
C47 C42 1_555 1_555
C48 C47 1_555 1_555
H24 C48 1_555 1_555
C49 C48 1_555 1_555
C50 C49 1_555 1_555
H25 C50 1_555 1_555
C51 C50 1_555 1_555
C52 C51 1_555 1_555
H26 C52 1_555 1_555
C53 C52 1_555 1_555
H27 C53 1_555 1_555
C54 C41 1_555 1_555
C55 C41 1_555 1_555
C56 C55 1_555 1_555
H28 C56 1_555 1_555
C57 C56 1_555 1_555
H29 C57 1_555 1_555
C58 C57 1_555 1_555
C59 C58 1_555 1_555
H30 C59 1_555 1_555
C60 C48 1_555 1_555
C61 C58 1_555 1_555
C62 C61 1_555 1_555
C63 C62 1_555 1_555
C64 C63 1_555 1_555
H31 C64 1_555 1_555
C65 C64 1_555 1_555
H32 C65 1_555 1_555
C66 C65 1_555 1_555
H33 C66 1_555 1_555
C67 C66 1_555 1_555
C68 C63 1_555 1_555
H34 C68 1_555 1_555
C69 C67 1_555 1_555
C70 C69 1_555 1_555
C71 C70 1_555 1_555
C72 C71 1_555 1_555
C73 C72 1_555 1_555
C74 C73 1_555 1_555
H35 C74 1_555 1_555
C75 C74 1_555 1_555
H36 C75 1_555 1_555
C76 C75 1_555 1_555
H37 C76 1_555 1_555
C77 C76 1_555 1_555
C78 C73 1_555 1_555
H38 C78 1_555 1_555
C79 C77 1_555 1_555
C80 C11 1_555 1_555
C81 C18 1_555 1_555
C82 C81 1_555 1_555
C83 C82 1_555 1_555
C84 C83 1_555 1_555
H39 C84 1_555 1_555
C85 C84 1_555 1_555
H40 C85 1_555 1_555
C86 C85 1_555 1_555
H41 C86 1_555 1_555
C87 C86 1_555 1_555
C88 C83 1_555 1_555
H42 C88 1_555 1_555
C89 C87 1_555 1_555
C90 C89 1_555 1_555
C91 C90 1_555 1_555
C92 C91 1_555 1_555
C93 C92 1_555 1_555
C94 C93 1_555 1_555
H43 C94 1_555 1_555
C95 C94 1_555 1_555
H44 C95 1_555 1_555
C96 C95 1_555 1_555
H45 C96 1_555 1_555
C97 C96 1_555 1_555
C98 C93 1_555 1_555
H46 C98 1_555 1_555
C99 C97 1_555 1_555
C100 C51 1_555 1_555
C101 C102 1_555 1_555
C102 H47 1_555 1_555
C103 C102 1_555 1_555
C104 C103 1_555 1_555
H48 C104 1_555 1_555
C105 C104 1_555 1_555
C106 C101 1_555 1_555
H49 C106 1_555 1_555
C107 C101 1_555 1_555
H50 C107 1_555 1_555
H51 C107 1_555 1_555
H52 C107 1_555 1_555
C108 C103 1_555 1_555
H53 C108 1_555 1_555
H54 C108 1_555 1_555
H55 C108 1_555 1_555
C109 C105 1_555 1_555
H56 C109 1_555 1_555
H57 C109 1_555 1_555
H58 C109 1_555 1_555
C110 C111 1_555 1_555
C111 H59 1_555 1_555
C112 C111 1_555 1_555
C113 C112 1_555 1_555
H60 C113 1_555 1_555
C114 C113 1_555 1_555
C115 C110 1_555 1_555
H61 C115 1_555 1_555
C116 C110 1_555 1_555
H62 C116 1_555 1_555
H63 C116 1_555 1_555
H64 C116 1_555 1_555
C117 C112 1_555 1_555
H65 C117 1_555 1_555
H66 C117 1_555 1_555
H67 C117 1_555 1_555
C118 C114 1_555 1_555
H68 C118 1_555 1_555
H69 C118 1_555 1_555
H70 C118 1_555 1_555
C119 C120 1_555 1_555
C120 H71 1_555 1_555
C121 C120 1_555 1_555
C122 C121 1_555 1_555
H72 C122 1_555 1_555
C123 C122 1_555 1_555
C124 C119 1_555 1_555
H73 C124 1_555 1_555
C125 C119 1_555 1_555
H74 C125 1_555 1_555
H75 C125 1_555 1_555
H76 C125 1_555 1_555
C126 C121 1_555 1_555
H77 C126 1_555 1_555
H78 C126 1_555 1_555
H79 C126 1_555 1_555
C127 C123 1_555 1_555
H80 C127 1_555 1_555
H81 C127 1_555 1_555
H82 C127 1_555 1_555
C128 C129 1_555 1_555
C129 H83 1_555 1_555
C130 C129 1_555 1_555
C131 C130 1_555 1_555
H84 C131 1_555 1_555
C132 C131 1_555 1_555
C133 C128 1_555 1_555
H85 C133 1_555 1_555
C134 C128 1_555 1_555
H86 C134 1_555 1_555
H87 C134 1_555 1_555
H88 C134 1_555 1_555
C135 C130 1_555 1_555
H89 C135 1_555 1_555
H90 C135 1_555 1_555
H91 C135 1_555 1_555
C136 C132 1_555 1_555
H92 C136 1_555 1_555
H93 C136 1_555 1_555
H94 C136 1_555 1_555
C6 C7 1_555 1_555
C9 C14 1_555 1_555
C13 C14 1_555 1_555
C15 C16 1_555 1_555
C19 C20 1_555 1_555
C27 C28 1_555 1_555
C37 C38 1_555 1_555
C44 C45 1_555 1_555
C46 C47 1_555 1_555
C49 C54 1_555 1_555
C53 C54 1_555 1_555
C55 C60 1_555 1_555
C59 C60 1_555 1_555
C67 C68 1_555 1_555
C77 C78 1_555 1_555
C79 C80 1_555 1_555
C87 C88 1_555 1_555
C97 C98 1_555 1_555
C99 C100 1_555 1_555
C105 C106 1_555 1_555
C114 C115 1_555 1_555
C123 C124 1_555 1_555
C132 C133 1_555 1_555

#END
