
#######################################################################
#
#                 Cambridge Crystallographic Data Centre
#                                CCDC 
#
#######################################################################
#
# If this CIF has been generated from an entry in the Cambridge 
# Structural Database, then it will include bibliographic, chemical, 
# crystal, experimental, refinement or atomic coordinate data resulting 
# from the CCDC's data processing and validation procedures.
#
#######################################################################

data_LISYUK
_chemical_formula_moiety         'C18 H16 O1'
_chemical_name_systematic        
2-(4-methylphenyl)-5-phenylpent-2-en-4-yn-1-ol
_symmetry_cell_setting           triclinic
_symmetry_space_group_name_H-M   'P -1'
_symmetry_Int_Tables_number      2
_space_group_name_Hall           '-P 1'
loop_
_symmetry_equiv_pos_site_id
_symmetry_equiv_pos_as_xyz
1 x,y,z
2 -x,-y,-z
_cell_length_a                   9.4621(7)
_cell_length_b                   10.4313(6)
_cell_length_c                   14.5424(10)
_cell_angle_alpha                84.009(2)
_cell_angle_beta                 76.760(2)
_cell_angle_gamma                80.574(2)
_cell_volume                     1375
_cell_formula_units_Z            4
loop_
_atom_site_label
_atom_site_type_symbol
_atom_site_fract_x
_atom_site_fract_y
_atom_site_fract_z
C1 C 0.3009(3) -0.0360(2) 0.29515(15)
H1 H 0.250753 0.005998 0.248152
C2 C 0.2594(3) -0.1497(2) 0.34430(16)
H2 H 0.180307 -0.185017 0.331189
C3 C 0.3323(3) -0.2119(2) 0.41215(17)
H3 H 0.303501 -0.289851 0.445694
C4 C 0.4476(3) -0.1603(2) 0.43124(17)
H4 H 0.498427 -0.203368 0.477615
C5 C 0.4887(3) -0.0467(2) 0.38313(15)
H5 H 0.567373 -0.011581 0.396951
C6 C 0.4161(3) 0.0169(2) 0.31450(14)
C7 C 0.4592(3) 0.1357(2) 0.26498(15)
C8 C 0.5278(3) 0.3584(2) 0.18021(15)
H6 H 0.491949 0.385220 0.124304
C9 C 0.6045(2) 0.4392(2) 0.20777(14)
C10 C 0.6680(3) 0.4040(2) 0.29455(15)
H7 H 0.666995 0.309934 0.312709
H8 H 0.771422 0.419760 0.279243
C11 C 0.6284(2) 0.5650(2) 0.15340(14)
C12 C 0.6509(2) 0.5760(2) 0.05401(14)
H9 H 0.651131 0.501680 0.021371
C13 C 0.6728(3) 0.6933(2) 0.00316(15)
H10 H 0.690330 0.697555 -0.063996
C14 C 0.6696(3) 0.8055(2) 0.04858(17)
C15 C 0.6471(3) 0.7942(2) 0.14649(16)
H11 H 0.644741 0.869227 0.178934
C16 C 0.6281(3) 0.6773(2) 0.19840(16)
H12 H 0.614695 0.673006 0.265365
C17 C 0.6958(3) 0.9321(2) -0.0072(2)
H13 H 0.651366 1.004575 0.032624
H14 H 0.651520 0.940312 -0.062636
H15 H 0.801578 0.933936 -0.028114
C18 C 0.4951(3) 0.2366(2) 0.22652(15)
O1 O 0.5891(2) 0.47681(19) 0.37306(11)
H16 H 0.510709 0.446842 0.397255
C19 C 0.0359(3) 0.5800(2) 0.10268(15)
H17 H -0.039142 0.528003 0.106699
C20 C 0.0550(3) 0.6793(2) 0.03234(15)
H18 H -0.006868 0.695557 -0.011908
C21 C 0.1644(3) 0.7552(2) 0.02638(15)
H19 H 0.177871 0.823092 -0.022309
C22 C 0.2541(3) 0.7327(2) 0.09087(15)
H20 H 0.328301 0.785589 0.086805
C23 C 0.2360(3) 0.63340(19) 0.16120(14)
H21 H 0.298165 0.617634 0.205275
C24 C 0.1260(2) 0.55591(19) 0.16756(14)
C25 C 0.1092(3) 0.4548(2) 0.24251(14)
C26 C 0.0998(2) 0.28684(19) 0.39089(14)
H22 H 0.066447 0.206214 0.389162
C27 C 0.1395(2) 0.30958(18) 0.46976(14)
C28 C 0.1916(3) 0.43693(19) 0.47662(16)
H23 H 0.183897 0.494317 0.418774
H24 H 0.128400 0.481397 0.531614
C29 C 0.1326(2) 0.21303(19) 0.55176(14)
C30 C 0.1127(3) 0.2510(2) 0.64413(15)
H25 H 0.109498 0.340212 0.653826
C31 C 0.0977(3) 0.1612(2) 0.72124(15)
H26 H 0.080285 0.190243 0.783149
C32 C 0.1075(3) 0.0292(2) 0.71014(15)
C33 C 0.1320(3) -0.0096(2) 0.61819(15)
H27 H 0.140130 -0.099412 0.608641
C34 C 0.1447(2) 0.07939(19) 0.54103(14)
H28 H 0.162021 0.049713 0.479305
C35 C 0.0951(3) -0.0686(3) 0.79413(17)
H29 H 0.193375 -0.110024 0.800537
H30 H 0.038301 -0.135032 0.785036
H31 H 0.045434 -0.024396 0.851568
C36 C 0.1045(3) 0.3761(2) 0.30949(14)
O2 O 0.33980(18) 0.41482(15) 0.48706(11)
H32 H 0.345646 0.449405 0.535445
loop_
_geom_bond_atom_site_label_1
_geom_bond_atom_site_label_2
_geom_bond_site_symmetry_1
_geom_bond_site_symmetry_2
C1 H1 1_555 1_555
C2 C1 1_555 1_555
H2 C2 1_555 1_555
C3 C2 1_555 1_555
H3 C3 1_555 1_555
C4 C3 1_555 1_555
H4 C4 1_555 1_555
C5 C4 1_555 1_555
H5 C5 1_555 1_555
C6 C1 1_555 1_555
C7 C6 1_555 1_555
C8 H6 1_555 1_555
C9 C8 1_555 1_555
C10 C9 1_555 1_555
H7 C10 1_555 1_555
H8 C10 1_555 1_555
C11 C9 1_555 1_555
C12 C11 1_555 1_555
H9 C12 1_555 1_555
C13 C12 1_555 1_555
H10 C13 1_555 1_555
C14 C13 1_555 1_555
C15 C14 1_555 1_555
H11 C15 1_555 1_555
C16 C11 1_555 1_555
H12 C16 1_555 1_555
C17 C14 1_555 1_555
H13 C17 1_555 1_555
H14 C17 1_555 1_555
H15 C17 1_555 1_555
C18 C7 1_555 1_555
O1 C10 1_555 1_555
H16 O1 1_555 1_555
C19 H17 1_555 1_555
C20 C19 1_555 1_555
H18 C20 1_555 1_555
C21 C20 1_555 1_555
H19 C21 1_555 1_555
C22 C21 1_555 1_555
H20 C22 1_555 1_555
C23 C22 1_555 1_555
H21 C23 1_555 1_555
C24 C19 1_555 1_555
C25 C24 1_555 1_555
C26 H22 1_555 1_555
C27 C26 1_555 1_555
C28 C27 1_555 1_555
H23 C28 1_555 1_555
H24 C28 1_555 1_555
C29 C27 1_555 1_555
C30 C29 1_555 1_555
H25 C30 1_555 1_555
C31 C30 1_555 1_555
H26 C31 1_555 1_555
C32 C31 1_555 1_555
C33 C32 1_555 1_555
H27 C33 1_555 1_555
C34 C29 1_555 1_555
H28 C34 1_555 1_555
C35 C32 1_555 1_555
H29 C35 1_555 1_555
H30 C35 1_555 1_555
H31 C35 1_555 1_555
C36 C25 1_555 1_555
O2 C28 1_555 1_555
H32 O2 1_555 1_555
C5 C6 1_555 1_555
C8 C18 1_555 1_555
C15 C16 1_555 1_555
C23 C24 1_555 1_555
C26 C36 1_555 1_555
C33 C34 1_555 1_555

#END
