
#######################################################################
#
#                 Cambridge Crystallographic Data Centre
#                                CCDC 
#
#######################################################################
#
# If this CIF has been generated from an entry in the Cambridge 
# Structural Database, then it will include bibliographic, chemical, 
# crystal, experimental, refinement or atomic coordinate data resulting 
# from the CCDC's data processing and validation procedures.
#
#######################################################################

data_LITVAM
_chemical_formula_moiety         'C1 H6 N3 1+,C9 H11 O3 S1 1-'
_chemical_name_systematic        'Guanidinium 2,4,5-trimethylbenzenesulfonate'
_symmetry_cell_setting           orthorhombic
_symmetry_space_group_name_H-M   'P n m a'
_symmetry_Int_Tables_number      62
_space_group_name_Hall           '-P 2ac 2n'
loop_
_symmetry_equiv_pos_site_id
_symmetry_equiv_pos_as_xyz
1 x,y,z
2 1/2-x,-y,1/2+z
3 1/2+x,1/2-y,1/2-z
4 -x,1/2+y,-z
5 -x,-y,-z
6 1/2+x,y,1/2-z
7 1/2-x,1/2+y,1/2+z
8 x,1/2-y,z
_cell_length_a                   18.513(2)
_cell_length_b                   7.4798(8)
_cell_length_c                   9.3991(10)
_cell_angle_alpha                90
_cell_angle_beta                 90
_cell_angle_gamma                90
_cell_volume                     1301.53
_exptl_crystal_colour            colorless
_exptl_crystal_description       needle
_cell_formula_units_Z            4
_exptl_crystal_recrystallization_method methanol
loop_
_atom_site_label
_atom_site_type_symbol
_atom_site_fract_x
_atom_site_fract_y
_atom_site_fract_z
S1 S 0.14541(3) 0.2500 0.13616(5)
O1 O 0.20592(7) 0.2500 0.23616(16)
C1 C 0.06515(10) 0.2500 0.2388(2)
O2 O 0.14427(5) 0.08850(13) 0.04816(11)
C2 C 0.07131(11) 0.2500 0.3865(2)
H5 H 0.1180 0.2500 0.4286
C3 C 0.01065(11) 0.2500 0.4738(2)
C4 C -0.05797(11) 0.2500 0.4090(2)
C5 C -0.06280(11) 0.2500 0.2620(2)
H6 H -0.1095 0.2500 0.2200
C6 C -0.00274(11) 0.2500 0.1720(2)
C7 C 0.01881(14) 0.2500 0.6337(2)
C8 C -0.12590(13) 0.2500 0.4987(3)
C9 C -0.01357(12) 0.2500 0.0129(2)
O2G O 0.14427(5) 0.41150(13) 0.04816(11)
N1 N 0.29580(10) 0.2500 0.6286(2)
H1 H 0.3122 0.1481 0.5946
H2 H 0.3130 0.3519 0.5963
N2 N 0.21916(7) 0.09623(17) 0.77692(14)
H3 H 0.2356 -0.0056 0.7429
H4 H 0.1855 0.0961 0.8431
C10 C 0.24513(11) 0.2500 0.7283(2)
N2G N 0.21916(7) 0.40377(17) 0.77692(14)
H3G H 0.2356 0.5056 0.7429
H4G H 0.1855 0.4039 0.8431
H7? H 0.0066 0.1315 0.6711
H8? H -0.0137 0.3394 0.6751
H9? H 0.0688 0.2791 0.6587
H10? H -0.1329 0.1313 0.5406
H11? H -0.1675 0.2797 0.4388
H12? H -0.1213 0.3390 0.5747
H13? H -0.0580 0.3150 -0.0105
H14? H -0.0174 0.1265 -0.0212
H15? H 0.0277 0.3085 -0.0331
loop_
_geom_bond_atom_site_label_1
_geom_bond_atom_site_label_2
_geom_bond_site_symmetry_1
_geom_bond_site_symmetry_2
S1 O1 1_555 1_555
N1 H1 1_555 1_555
H2 N1 1_555 1_555
C1 S1 1_555 1_555
O2 S1 1_555 1_555
N2 H3 1_555 1_555
H4 N2 1_555 1_555
C2 C1 1_555 1_555
H5 C2 1_555 1_555
C3 C2 1_555 1_555
C4 C3 1_555 1_555
C5 C4 1_555 1_555
H6 C5 1_555 1_555
C6 C1 1_555 1_555
C7 C3 1_555 1_555
C8 C4 1_555 1_555
C9 C6 1_555 1_555
C10 N1 1_555 1_555
O2G S1 1_555 1_555
N2G C10 1_555 1_555
H3G N2G 1_555 1_555
H4G N2G 1_555 1_555
N2 C10 1_555 1_555
C5 C6 1_555 1_555

#END
