
#######################################################################
#
#                 Cambridge Crystallographic Data Centre
#                                CCDC 
#
#######################################################################
#
# If this CIF has been generated from an entry in the Cambridge 
# Structural Database, then it will include bibliographic, chemical, 
# crystal, experimental, refinement or atomic coordinate data resulting 
# from the CCDC's data processing and validation procedures.
#
#######################################################################

data_LITVIU
_chemical_formula_moiety         'C1 H6 N3 1+,C8 H9 O3 S1 1-'
_chemical_name_systematic        'Guanidinium 2,5-dimethylbenzenesulfonate'
_symmetry_cell_setting           orthorhombic
_symmetry_space_group_name_H-M   'P n m a'
_symmetry_Int_Tables_number      62
_space_group_name_Hall           '-P 2ac 2n'
loop_
_symmetry_equiv_pos_site_id
_symmetry_equiv_pos_as_xyz
1 x,y,z
2 1/2-x,-y,1/2+z
3 1/2+x,1/2-y,1/2-z
4 -x,1/2+y,-z
5 -x,-y,-z
6 1/2+x,y,1/2-z
7 1/2-x,1/2+y,1/2+z
8 x,1/2-y,z
_cell_length_a                   16.621(3)
_cell_length_b                   7.4457(15)
_cell_length_c                   9.6016(19)
_cell_angle_alpha                90
_cell_angle_beta                 90
_cell_angle_gamma                90
_cell_volume                     1188.25
_exptl_crystal_colour            colorless
_exptl_crystal_description       needle
_cell_formula_units_Z            4
_exptl_crystal_recrystallization_method methanol
loop_
_atom_site_label
_atom_site_type_symbol
_atom_site_fract_x
_atom_site_fract_y
_atom_site_fract_z
S1 S 0.63715(4) 0.7500 0.30523(6)
O1 O 0.70926(10) 0.7500 0.21797(19)
O2 O 0.63175(7) 0.91150(16) 0.39011(13)
C1 C 0.55423(14) 0.7500 0.1917(2)
C2 C 0.47557(15) 0.7500 0.2446(3)
C3 C 0.41410(16) 0.7500 0.1486(3)
H1 H 0.3583(18) 0.7500 0.182(3)
C4 C 0.42874(16) 0.7500 0.0062(3)
H2 H 0.3839(19) 0.7500 -0.059(4)
C5 C 0.50634(15) 0.7500 -0.0459(3)
C6 C 0.56913(15) 0.7500 0.0502(3)
H3 H 0.6250(16) 0.7500 0.021(3)
C7 C 0.45572(17) 0.7500 0.3973(3)
C8 C 0.52183(18) 0.7500 -0.1993(3)
O2G O 0.63175(7) 0.58850(16) 0.39011(13)
C9 C 0.24559(15) 0.7500 0.7957(2)
N1 N 0.22026(10) 0.9032(2) 0.84761(18)
H10 H 0.2388(13) 0.999(3) 0.818(2)
H11 H 0.1912(13) 0.905(3) 0.921(2)
N2 N 0.29621(14) 0.7500 0.6892(2)
H12 H 0.3170(13) 0.848(3) 0.663(2)
N1G N 0.22026(10) 0.5968(2) 0.84761(18)
H10G H 0.2388(13) 0.501(3) 0.818(2)
H11G H 0.1912(13) 0.595(3) 0.921(2)
H12G H 0.3170(13) 0.652(3) 0.663(2)
H4? H 0.3996 0.7865 0.4103
H5? H 0.4912 0.8344 0.4460
H6? H 0.4635 0.6290 0.4352
H7? H 0.5736 0.6919 -0.2182
H8? H 0.5232 0.8740 -0.2334
H9? H 0.4788 0.6841 -0.2469
loop_
_geom_bond_atom_site_label_1
_geom_bond_atom_site_label_2
_geom_bond_site_symmetry_1
_geom_bond_site_symmetry_2
S1 O1 1_555 1_555
O2 S1 1_555 1_555
C1 S1 1_555 1_555
C2 C1 1_555 1_555
C3 C2 1_555 1_555
H1 C3 1_555 1_555
C4 C3 1_555 1_555
H2 C4 1_555 1_555
C5 C4 1_555 1_555
C6 C1 1_555 1_555
H3 C6 1_555 1_555
C7 C2 1_555 1_555
C8 C5 1_555 1_555
C9 N1 1_555 1_555
N1 H10 1_555 1_555
H11 N1 1_555 1_555
N2 C9 1_555 1_555
H12 N2 1_555 1_555
O2G S1 1_555 1_555
N1G C9 1_555 1_555
H10G N1G 1_555 1_555
H11G N1G 1_555 1_555
H12G N2 1_555 1_555
C5 C6 1_555 1_555

#END
