
#######################################################################
#
#                 Cambridge Crystallographic Data Centre
#                                CCDC 
#
#######################################################################
#
# If this CIF has been generated from an entry in the Cambridge 
# Structural Database, then it will include bibliographic, chemical, 
# crystal, experimental, refinement or atomic coordinate data resulting 
# from the CCDC's data processing and validation procedures.
#
#######################################################################

data_LITVUG
_chemical_formula_moiety         'C1 H6 N3 1+,C6 H4 F1 O3 S1 1-'
_chemical_name_systematic        'Guanidinium 2-fluorobenzenesulfonate'
_symmetry_cell_setting           monoclinic
_symmetry_space_group_name_H-M   'C 2/c'
_symmetry_Int_Tables_number      15
_space_group_name_Hall           '-C 2yn'
loop_
_symmetry_equiv_pos_site_id
_symmetry_equiv_pos_as_xyz
1 x,y,z
2 1/2+x,1/2+y,z
3 -x,y,1/2-z
4 1/2-x,1/2+y,1/2-z
5 -x,-y,-z
6 1/2-x,1/2-y,-z
7 x,-y,1/2+z
8 1/2+x,1/2-y,1/2+z
_cell_length_a                   12.5613(18)
_cell_length_b                   7.4686(11)
_cell_length_c                   22.990(3)
_cell_angle_alpha                90
_cell_angle_beta                 94.984(2)
_cell_angle_gamma                90
_cell_volume                     2148.66
_exptl_crystal_colour            colorless
_exptl_crystal_description       plate
_cell_formula_units_Z            8
_exptl_crystal_recrystallization_method methanol
loop_
_atom_site_label
_atom_site_type_symbol
_atom_site_fract_x
_atom_site_fract_y
_atom_site_fract_z
S1 S 0.38204(3) 0.13432(6) 0.653852(19)
F1 F 0.25599(12) -0.08828(18) 0.56448(6)
O1 O 0.44046(10) 0.29210(17) 0.67578(5)
C1 C 0.38407(14) 0.1428(2) 0.57699(8)
O2 O 0.43591(10) -0.03132(17) 0.67226(6)
C2 C 0.32097(17) 0.0304(3) 0.54055(9)
O3 O 0.27041(10) 0.13739(16) 0.66621(5)
C3 C 0.3232(2) 0.0341(3) 0.48085(10)
H7 H 0.2794 -0.0417 0.4573
C4 C 0.3913(2) 0.1515(4) 0.45656(10)
H8 H 0.3934 0.1555 0.4162
C5 C 0.4562(2) 0.2629(4) 0.49162(10)
H9 H 0.5029 0.3405 0.4750
C6 C 0.45229(17) 0.2599(3) 0.55158(9)
H10 H 0.4956 0.3367 0.5750
N1 N 0.32878(12) 0.6312(2) 0.68764(8)
H1 H 0.3634 0.7301 0.6857
H2 H 0.3622 0.5307 0.6877
N2 N 0.17242(12) 0.7880(2) 0.69031(7)
H3 H 0.1045 0.7897 0.6926
H4 H 0.2069 0.8868 0.6879
N3 N 0.17109(12) 0.4811(2) 0.69420(6)
H5 H 0.1031 0.4822 0.6965
H6 H 0.2048 0.3809 0.6943
C7 C 0.22379(14) 0.6337(2) 0.69047(7)
loop_
_geom_bond_atom_site_label_1
_geom_bond_atom_site_label_2
_geom_bond_site_symmetry_1
_geom_bond_site_symmetry_2
S1 O1 1_555 1_555
F1 C2 1_555 1_555
N1 H1 1_555 1_555
H2 N1 1_555 1_555
C1 S1 1_555 1_555
O2 S1 1_555 1_555
N2 H3 1_555 1_555
H4 N2 1_555 1_555
C2 C1 1_555 1_555
O3 S1 1_555 1_555
N3 H5 1_555 1_555
H6 N3 1_555 1_555
C3 C2 1_555 1_555
H7 C3 1_555 1_555
C4 C3 1_555 1_555
H8 C4 1_555 1_555
C5 C4 1_555 1_555
H9 C5 1_555 1_555
C6 C1 1_555 1_555
H10 C6 1_555 1_555
C7 N1 1_555 1_555
N2 C7 1_555 1_555
N3 C7 1_555 1_555
C5 C6 1_555 1_555

#END
