
#######################################################################
#
#                 Cambridge Crystallographic Data Centre
#                                CCDC 
#
#######################################################################
#
# If this CIF has been generated from an entry in the Cambridge 
# Structural Database, then it will include bibliographic, chemical, 
# crystal, experimental, refinement or atomic coordinate data resulting 
# from the CCDC's data processing and validation procedures.
#
#######################################################################

data_LITWOB
_chemical_formula_moiety         'C1 H6 N3 1+,C6 H4 Cl1 O3 S1 1-'
_chemical_name_systematic        'Guanidinium 3-chlorobenzenesulfonate'
_symmetry_cell_setting           triclinic
_symmetry_space_group_name_H-M   'P -1'
_symmetry_Int_Tables_number      2
_space_group_name_Hall           '-P 1'
loop_
_symmetry_equiv_pos_site_id
_symmetry_equiv_pos_as_xyz
1 x,y,z
2 -x,-y,-z
_cell_length_a                   7.3158(15)
_cell_length_b                   7.3242(15)
_cell_length_c                   12.272(3)
_cell_angle_alpha                73.749(3)
_cell_angle_beta                 72.979(3)
_cell_angle_gamma                62.076(3)
_cell_volume                     547.564
_exptl_crystal_colour            colorless
_exptl_crystal_description       prism
_cell_formula_units_Z            2
_exptl_crystal_recrystallization_method methanol
loop_
_atom_site_label
_atom_site_type_symbol
_atom_site_fract_x
_atom_site_fract_y
_atom_site_fract_z
S1 S 0.3322(3) 0.12730(15) 0.18933(10)
O1 O 0.2316(6) 0.3562(3) 0.1713(2)
O2 O 0.5603(4) 0.0430(6) 0.1464(3)
O3 O 0.2313(7) 0.0385(6) 0.1455(3)
C1 C 0.2952(4) 0.0417(3) 0.34174(18)
C2 C 0.2444(4) 0.1778(4) 0.41579(19)
H1 H 0.2310 0.3172 0.3863
C3 C 0.2136(4) 0.1056(4) 0.5344(2)
C4 C 0.2345(4) -0.0983(4) 0.5781(2)
H2 H 0.2133 -0.1455 0.6593
C5 C 0.2865(4) -0.2323(4) 0.5030(2)
H3 H 0.3016 -0.3721 0.5327
C6 C 0.3166(4) -0.1636(4) 0.3845(2)
H4 H 0.3515 -0.2555 0.3328
Cl1 Cl 0.13790(12) 0.27658(13) 0.62972(6)
C13 C 0.6925(3) 0.5005(3) 0.11430(14)
N1 N 0.7933(2) 0.2965(2) 0.11020(14)
H9 H 0.7237 0.2273 0.1081
H10 H 0.9296 0.2308 0.1095
N2 N 0.4867(2) 0.6003(2) 0.11530(14)
H11 H 0.4168 0.5313 0.1133
H12 H 0.4203 0.7353 0.1180
N3 N 0.7990(2) 0.6053(2) 0.11719(14)
H13 H 0.7327 0.7404 0.1198
H14 H 0.9353 0.5392 0.1165
S2? S 0.3139(14) 0.1675(11) 0.1893(5)
O4? O 0.220(3) 0.3940(13) 0.1541(12)
O5? O 0.5428(17) 0.072(3) 0.1482(14)
O6? O 0.211(4) 0.063(3) 0.1601(13)
C7? C 0.275(2) 0.1182(11) 0.3432(5)
C8? C 0.292(2) -0.0773(12) 0.4044(6)
H5? H 0.3169 -0.1851 0.3660
C9? C 0.271(2) -0.1109(11) 0.5240(6)
C10? C 0.226(2) 0.0478(12) 0.5815(7)
H6? H 0.2083 0.0226 0.6634
C11? C 0.2082(16) 0.2423(12) 0.5194(6)
H7? H 0.1760 0.3520 0.5584
C12? C 0.2369(18) 0.2772(12) 0.3997(6)
H8? H 0.2304 0.4091 0.3563
Cl2? Cl 0.2903(5) -0.3530(4) 0.6054(2)
loop_
_geom_bond_atom_site_label_1
_geom_bond_atom_site_label_2
_geom_bond_site_symmetry_1
_geom_bond_site_symmetry_2
S1 O1 1_555 1_555
O2 S1 1_555 1_555
O3 S1 1_555 1_555
C1 S1 1_555 1_555
C2 C1 1_555 1_555
H1 C2 1_555 1_555
C3 C2 1_555 1_555
C4 C3 1_555 1_555
H2 C4 1_555 1_555
C5 C4 1_555 1_555
H3 C5 1_555 1_555
C6 C1 1_555 1_555
H4 C6 1_555 1_555
Cl1 C3 1_555 1_555
C13 N1 1_555 1_555
N1 H9 1_555 1_555
H10 N1 1_555 1_555
N2 C13 1_555 1_555
H11 N2 1_555 1_555
H12 N2 1_555 1_555
N3 C13 1_555 1_555
H13 N3 1_555 1_555
H14 N3 1_555 1_555
C5 C6 1_555 1_555

#END
