
#######################################################################
#
#                 Cambridge Crystallographic Data Centre
#                                CCDC 
#
#######################################################################
#
# If this CIF has been generated from an entry in the Cambridge 
# Structural Database, then it will include bibliographic, chemical, 
# crystal, experimental, refinement or atomic coordinate data resulting 
# from the CCDC's data processing and validation procedures.
#
#######################################################################

data_LITYUJ
_chemical_name_common            'PDB Chemical Component code: N4B'
_chemical_formula_moiety         'C1 H6 N3 1+,C6 H4 Cl1 O3 S1 1-,0.5(C10 H14)'
_chemical_name_systematic        
'Guanidinium 4-chlorobenzenesulfonate hemikis(n-butylbenzene) clathrate'
_symmetry_cell_setting           orthorhombic
_symmetry_space_group_name_H-M   'P n a 21'
_symmetry_Int_Tables_number      33
_space_group_name_Hall           'P 2c -2n'
loop_
_symmetry_equiv_pos_site_id
_symmetry_equiv_pos_as_xyz
1 x,y,z
2 -x,-y,1/2+z
3 1/2-x,1/2+y,1/2+z
4 1/2+x,1/2-y,z
_cell_length_a                   18.3983(10)
_cell_length_b                   22.8237(12)
_cell_length_c                   7.7169(4)
_cell_angle_alpha                90
_cell_angle_beta                 90
_cell_angle_gamma                90
_cell_volume                     3240.46
_exptl_crystal_colour            colorless
_exptl_crystal_description       needle
_cell_formula_units_Z            8
loop_
_atom_site_label
_atom_site_type_symbol
_atom_site_fract_x
_atom_site_fract_y
_atom_site_fract_z
Cl1 Cl 0.31135(4) 0.54607(3) 0.42462(18)
S1 S 0.56101(3) 0.35995(3) 0.43421(15)
O1 O 0.60318(16) 0.37055(13) 0.5913(3)
O2 O 0.52724(10) 0.30252(7) 0.4329(4)
O3 O 0.60334(17) 0.37172(12) 0.2773(3)
C1 C 0.48985(12) 0.41210(10) 0.4340(6)
C2 C 0.49468(18) 0.46144(15) 0.5369(4)
H1 H 0.5356 0.4669 0.6101
C3 C 0.4398(2) 0.50303(15) 0.5334(5)
H2 H 0.4432 0.5374 0.6026
C4 C 0.38062(13) 0.49401(11) 0.4291(6)
C5 C 0.37510(18) 0.44488(15) 0.3266(5)
H3 H 0.3337 0.4392 0.2547
C6 C 0.43010(18) 0.40399(15) 0.3291(5)
H4 H 0.4268 0.3700 0.2583
S2 S 0.09874(3) 0.61799(2) 0.43270(15)
O4 O 0.17653(9) 0.62922(7) 0.4328(4)
C7 C 0.08893(13) 0.54074(10) 0.4371(6)
Cl2 Cl 0.06629(4) 0.34497(3) 0.44383(17)
O5 O 0.06367(16) 0.64038(11) 0.5899(3)
C8 C 0.03789(18) 0.51407(14) 0.3339(4)
H5 H 0.0079 0.5370 0.2604
O6 O 0.06268(16) 0.63821(12) 0.2757(3)
C9 C 0.03009(18) 0.45340(14) 0.3371(4)
H6 H -0.0052 0.4346 0.2665
C10 C 0.07453(14) 0.42116(11) 0.4445(6)
C11 C 0.12558(17) 0.44735(13) 0.5502(4)
H7 H 0.1551 0.4244 0.6250
C12 C 0.13307(16) 0.50767(13) 0.5456(4)
H8 H 0.1683 0.5264 0.6164
N1 N 0.13122(11) 0.63811(10) 0.9333(5)
H9 H 0.1071 0.6408 0.8352
H10 H 0.1077 0.6387 1.0326
N2 N 0.2393(2) 0.63214(16) 0.7833(4)
H11 H 0.2159 0.6348 0.6843
H12 H 0.2870 0.6288 0.7841
N3 N 0.23828(19) 0.62835(15) 1.0809(4)
H13 H 0.2141 0.6285 1.1793
H14 H 0.2859 0.6250 1.0815
C13 C 0.20287(13) 0.63311(10) 0.9315(7)
N4 N -0.06975(13) 0.82547(9) 0.4333(5)
H15 H -0.0800 0.8428 0.3345
H16 H -0.0804 0.8428 0.5320
N5 N -0.0222(2) 0.74706(15) 0.2861(4)
H17 H -0.0323 0.7642 0.1869
H18 H -0.0013 0.7124 0.2870
N6 N -0.0234(2) 0.74736(15) 0.5830(4)
H19 H -0.0027 0.7126 0.5838
H20 H -0.0341 0.7649 0.6813
C14 C -0.03834(14) 0.77336(10) 0.4337(6)
C15 C 0.2828(3) 0.36638(19) -0.0922(7)
C16 C 0.2142(4) 0.3637(2) -0.0224(5)
H21 H 0.1928 0.3265 -0.0008
C17 C 0.1756(4) 0.4137(4) 0.0168(7)
H22 H 0.1282 0.4112 0.0648
C18 C 0.2073(6) 0.4683(4) -0.0151(8)
H23 H 0.1823 0.5033 0.0143
C19 C 0.2736(5) 0.4705(3) -0.0878(11)
H24 H 0.2944 0.5075 -0.1152
C20 C 0.3107(3) 0.4217(3) -0.1222(6)
H25 H 0.3583 0.4250 -0.1692
C21 C 0.3235(3) 0.3107(2) -0.1386(7)
H26 H 0.3741 0.3140 -0.0966
H27 H 0.3005 0.2773 -0.0780
C22 C 0.3245(4) 0.2983(3) -0.3312(10)
H28 H 0.3537 0.3295 -0.3867
H29 H 0.3513 0.2611 -0.3481
C23 C 0.2614(5) 0.2940(4) -0.4208(10)
H30 H 0.2322 0.3294 -0.3967
H31 H 0.2340 0.2600 -0.3749
C24 C 0.2675(5) 0.2870(3) -0.6184(7)
H32 H 0.2851 0.3236 -0.6693
H33 H 0.2197 0.2775 -0.6666
H34 H 0.3017 0.2553 -0.6452
loop_
_geom_bond_atom_site_label_1
_geom_bond_atom_site_label_2
_geom_bond_site_symmetry_1
_geom_bond_site_symmetry_2
Cl1 C4 1_555 1_555
S1 O1 1_555 1_555
O2 S1 1_555 1_555
O3 S1 1_555 1_555
C1 S1 1_555 1_555
C2 C1 1_555 1_555
H1 C2 1_555 1_555
C3 C2 1_555 1_555
H2 C3 1_555 1_555
C4 C3 1_555 1_555
C5 C4 1_555 1_555
H3 C5 1_555 1_555
C6 C1 1_555 1_555
H4 C6 1_555 1_555
S2 O4 1_555 1_555
C7 S2 1_555 1_555
Cl2 C10 1_555 1_555
O5 S2 1_555 1_555
C8 C7 1_555 1_555
H5 C8 1_555 1_555
O6 S2 1_555 1_555
C9 C8 1_555 1_555
H6 C9 1_555 1_555
C10 C9 1_555 1_555
C11 C10 1_555 1_555
H7 C11 1_555 1_555
C12 C7 1_555 1_555
H8 C12 1_555 1_555
N1 H9 1_555 1_555
H10 N1 1_555 1_555
N2 H11 1_555 1_555
H12 N2 1_555 1_555
N3 H13 1_555 1_555
H14 N3 1_555 1_555
C13 N1 1_555 1_555
N4 H15 1_555 1_555
H16 N4 1_555 1_555
N5 H17 1_555 1_555
H18 N5 1_555 1_555
N6 H19 1_555 1_555
H20 N6 1_555 1_555
C14 N4 1_555 1_555
C15 C16 1_555 1_555
C16 H21 1_555 1_555
C17 C16 1_555 1_555
H22 C17 1_555 1_555
C18 C17 1_555 1_555
H23 C18 1_555 1_555
C19 C18 1_555 1_555
H24 C19 1_555 1_555
C20 C15 1_555 1_555
H25 C20 1_555 1_555
C21 C15 1_555 1_555
H26 C21 1_555 1_555
H27 C21 1_555 1_555
C22 C21 1_555 1_555
H28 C22 1_555 1_555
H29 C22 1_555 1_555
C23 C22 1_555 1_555
H30 C23 1_555 1_555
H31 C23 1_555 1_555
C24 C23 1_555 1_555
H32 C24 1_555 1_555
H33 C24 1_555 1_555
H34 C24 1_555 1_555
C5 C6 1_555 1_555
C11 C12 1_555 1_555
N2 C13 1_555 1_555
N3 C13 1_555 1_555
N5 C14 1_555 1_555
N6 C14 1_555 1_555
C19 C20 1_555 1_555

#END
