
#######################################################################
#
#                 Cambridge Crystallographic Data Centre
#                                CCDC 
#
#######################################################################
#
# If this CIF has been generated from an entry in the Cambridge 
# Structural Database, then it will include bibliographic, chemical, 
# crystal, experimental, refinement or atomic coordinate data resulting 
# from the CCDC's data processing and validation procedures.
#
#######################################################################

data_LITYOD
_chemical_formula_moiety         'C1 H6 N3 1+,C6 H4 Cl1 O3 S1 1-,C8 H10 N2 O2'
_chemical_name_systematic        
'Guanidinium 4-chlorobenzenesulfonate N,N-dimethyl-3-nitroaniline clathrate'
_symmetry_cell_setting           orthorhombic
_symmetry_space_group_name_H-M   'P 21 21 21'
_symmetry_Int_Tables_number      19
_space_group_name_Hall           'P 2ac 2ab'
loop_
_symmetry_equiv_pos_site_id
_symmetry_equiv_pos_as_xyz
1 x,y,z
2 1/2-x,-y,1/2+z
3 1/2+x,1/2-y,-z
4 -x,1/2+y,1/2-z
_cell_length_a                   7.4688(15)
_cell_length_b                   12.316(2)
_cell_length_c                   20.948(4)
_cell_angle_alpha                90
_cell_angle_beta                 90
_cell_angle_gamma                90
_cell_volume                     1926.92
_exptl_crystal_colour            colorless
_exptl_crystal_description       plate
_cell_formula_units_Z            4
loop_
_atom_site_label
_atom_site_type_symbol
_atom_site_fract_x
_atom_site_fract_y
_atom_site_fract_z
Cl1 Cl 0.12754(13) 0.57722(6) 1.08156(3)
S1 S 0.24306(9) 0.72658(4) 0.79928(2)
O1 O 0.2475(3) 0.84468(11) 0.79867(7)
C1 C 0.2151(3) 0.68665(17) 0.87995(10)
O2 O 0.0892(2) 0.68294(13) 0.76458(7)
C2 C 0.1156(4) 0.75058(19) 0.92133(12)
H5 H 0.0661 0.8173 0.9069
O3 O 0.4092(2) 0.67689(12) 0.77799(7)
C3 C 0.0884(4) 0.7169(2) 0.98378(12)
H8 H 0.0208 0.7602 1.0125
C4 C 0.1605(4) 0.6202(2) 1.00329(11)
C5 C 0.2595(4) 0.55555(18) 0.96247(11)
H9 H 0.3090 0.4889 0.9770
C6 C 0.2854(4) 0.58933(18) 0.90033(11)
H10 H 0.3518 0.5453 0.8716
N1 N 0.7472(3) 0.79082(13) 0.77693(8)
H1 H 0.6452 0.7567 0.7833
H2 H 0.8488 0.7547 0.7782
N2 N 0.9021(3) 0.94689(17) 0.75481(10)
H3 H 0.9031 1.0169 0.7464
H4 H 1.0032 0.9104 0.7562
N3 N 0.5959(3) 0.95115(16) 0.76341(9)
H6 H 0.4936 0.9174 0.7697
H7 H 0.5969 1.0214 0.7557
C7 C 0.7479(4) 0.89639(16) 0.76545(9)
O4 O 0.7443(4) 0.62061(14) 0.90753(9)
N4 N 0.6636(4) 0.32835(18) 1.07105(10)
O5 O 0.7574(3) 0.53851(13) 0.81727(8)
N5 N 0.7393(3) 0.53857(16) 0.87527(10)
C8 C 0.6718(4) 0.3343(2) 1.00548(11)
C9 C 0.6528(4) 0.2405(2) 0.96746(12)
H11 H 0.6340 0.1723 0.9875
C10 C 0.6608(4) 0.2458(2) 0.90176(12)
H12 H 0.6467 0.1811 0.8776
C11 C 0.6887(4) 0.3427(2) 0.87032(12)
H13 H 0.6939 0.3465 0.8251
C12 C 0.7086(3) 0.43346(19) 0.90762(11)
C13 C 0.7011(3) 0.4320(2) 0.97344(11)
H14 H 0.7159 0.4974 0.9969
C14 C 0.6734(6) 0.4257(2) 1.10923(12)
H15 H 0.7885 0.4617 1.1019
H16 H 0.6624 0.4067 1.1545
H17 H 0.5758 0.4748 1.0972
C15 C 0.6533(5) 0.2248(2) 1.10291(12)
H18 H 0.5546 0.1823 1.0848
H19 H 0.6323 0.2362 1.1486
H20 H 0.7661 0.1854 1.0970
loop_
_geom_bond_atom_site_label_1
_geom_bond_atom_site_label_2
_geom_bond_site_symmetry_1
_geom_bond_site_symmetry_2
Cl1 C4 1_555 1_555
S1 O1 1_555 1_555
N1 H1 1_555 1_555
H2 N1 1_555 1_555
C1 S1 1_555 1_555
O2 S1 1_555 1_555
N2 H3 1_555 1_555
H4 N2 1_555 1_555
C2 C1 1_555 1_555
H5 C2 1_555 1_555
O3 S1 1_555 1_555
N3 H6 1_555 1_555
H7 N3 1_555 1_555
C3 C2 1_555 1_555
H8 C3 1_555 1_555
O4 N5 1_555 1_555
N4 C8 1_555 1_555
C4 C3 1_555 1_555
O5 N5 1_555 1_555
N5 C12 1_555 1_555
C5 C4 1_555 1_555
H9 C5 1_555 1_555
C6 C1 1_555 1_555
H10 C6 1_555 1_555
C7 N1 1_555 1_555
C8 C9 1_555 1_555
C9 H11 1_555 1_555
C10 C9 1_555 1_555
H12 C10 1_555 1_555
C11 C10 1_555 1_555
H13 C11 1_555 1_555
C12 C11 1_555 1_555
C13 C8 1_555 1_555
H14 C13 1_555 1_555
C14 N4 1_555 1_555
H15 C14 1_555 1_555
H16 C14 1_555 1_555
H17 C14 1_555 1_555
C15 N4 1_555 1_555
H18 C15 1_555 1_555
H19 C15 1_555 1_555
H20 C15 1_555 1_555
N2 C7 1_555 1_555
N3 C7 1_555 1_555
C5 C6 1_555 1_555
C12 C13 1_555 1_555

#END
