
#######################################################################
#
#                 Cambridge Crystallographic Data Centre
#                                CCDC 
#
#######################################################################
#
# If this CIF has been generated from an entry in the Cambridge 
# Structural Database, then it will include bibliographic, chemical, 
# crystal, experimental, refinement or atomic coordinate data resulting 
# from the CCDC's data processing and validation procedures.
#
#######################################################################

data_LITYET
_chemical_formula_moiety         'C1 H6 N3 1+,C6 H4 Br1 O3 S1 1-,C9 H10 N2'
_chemical_name_systematic        
'Guanidinium 4-bromobenzenesulfonate 4-(dimethylamino)benzonitrile clathrate'
_symmetry_cell_setting           orthorhombic
_symmetry_space_group_name_H-M   'P n a 21'
_symmetry_Int_Tables_number      33
_space_group_name_Hall           'P 2c -2n'
loop_
_symmetry_equiv_pos_site_id
_symmetry_equiv_pos_as_xyz
1 x,y,z
2 -x,-y,1/2+z
3 1/2-x,1/2+y,1/2+z
4 1/2+x,1/2-y,z
_cell_length_a                   21.0695(19)
_cell_length_b                   12.6553(12)
_cell_length_c                   7.4141(7)
_cell_angle_alpha                90
_cell_angle_beta                 90
_cell_angle_gamma                90
_cell_volume                     1976.9
_exptl_crystal_colour            colorless
_exptl_crystal_description       plate
_cell_formula_units_Z            4
loop_
_atom_site_label
_atom_site_type_symbol
_atom_site_fract_x
_atom_site_fract_y
_atom_site_fract_z
Br1 Br 0.404921(13) 0.90300(3) 0.38691(6)
S1 S 0.70427(2) 0.81550(3) 0.42664(7)
O1 O 0.71831(8) 0.75539(12) 0.2633(2)
C1 C 0.62196(9) 0.84169(13) 0.4211(3)
O2 O 0.71553(8) 0.75541(12) 0.5903(2)
C2 C 0.57969(12) 0.7727(2) 0.5035(4)
H5 H 0.5952 0.7122 0.5654
O3 O 0.73546(7) 0.91811(9) 0.4278(2)
C3 C 0.51516(13) 0.7918(2) 0.4956(4)
H8 H 0.4861 0.7456 0.5537
C4 C 0.49357(11) 0.8786(2) 0.4025(4)
C5 C 0.53466(13) 0.94868(19) 0.3205(4)
H9 H 0.5188 1.0088 0.2584
C6 C 0.59921(12) 0.93021(17) 0.3301(4)
H10 H 0.6281 0.9779 0.2745
N1 N 0.74811(10) 0.53073(15) 0.5827(3)
H1 H 0.7499 0.4955 0.6849
H2 H 0.7403 0.5990 0.5835
N2 N 0.75461(10) 0.53403(15) 0.2729(2)
H3 H 0.7607 0.5009 0.1700
H4 H 0.7468 0.6023 0.2735
N3 N 0.76902(9) 0.37821(11) 0.4270(3)
H6 H 0.7707 0.3432 0.5294
H7 H 0.7751 0.3449 0.3242
C7 C 0.75727(9) 0.48091(13) 0.4274(3)
N4 N 0.41958(8) 0.44260(14) 0.3805(3)
C8 C 0.47528(10) 0.38765(15) 0.3829(3)
N5 N 0.69349(9) 0.16299(12) 0.4095(4)
C9 C 0.53129(11) 0.42736(16) 0.3026(3)
H11 H 0.5304 0.4941 0.2439
C10 C 0.58705(11) 0.37114(17) 0.3080(3)
H12 H 0.6241 0.3999 0.2540
C11 C 0.59008(9) 0.27214(15) 0.3920(3)
C12 C 0.53491(11) 0.23204(16) 0.4704(3)
H13 H 0.5361 0.1649 0.5276
C13 C 0.47899(11) 0.28722(17) 0.4668(3)
H14 H 0.4422 0.2578 0.5212
C14 C 0.36248(12) 0.39785(19) 0.4614(4)
H15 H 0.3511 0.3325 0.3983
H16 H 0.3276 0.4486 0.4513
H17 H 0.3704 0.3824 0.5889
C15 C 0.41492(13) 0.5451(2) 0.2961(4)
H18 H 0.4467 0.5926 0.3485
H19 H 0.3724 0.5742 0.3163
H20 H 0.4225 0.5381 0.1663
C16 C 0.64795(10) 0.21223(15) 0.4000(3)
loop_
_geom_bond_atom_site_label_1
_geom_bond_atom_site_label_2
_geom_bond_site_symmetry_1
_geom_bond_site_symmetry_2
Br1 C4 1_555 1_555
S1 O1 1_555 1_555
N1 H1 1_555 1_555
H2 N1 1_555 1_555
C1 S1 1_555 1_555
O2 S1 1_555 1_555
N2 H3 1_555 1_555
H4 N2 1_555 1_555
C2 C1 1_555 1_555
H5 C2 1_555 1_555
O3 S1 1_555 1_555
N3 H6 1_555 1_555
H7 N3 1_555 1_555
C3 C2 1_555 1_555
H8 C3 1_555 1_555
C4 C3 1_555 1_555
C5 C4 1_555 1_555
H9 C5 1_555 1_555
C6 C1 1_555 1_555
H10 C6 1_555 1_555
C7 N1 1_555 1_555
N4 C8 1_555 1_555
C8 C9 1_555 1_555
N5 C16 1_555 1_555
C9 H11 1_555 1_555
C10 C9 1_555 1_555
H12 C10 1_555 1_555
C11 C10 1_555 1_555
C12 C11 1_555 1_555
H13 C12 1_555 1_555
C13 C8 1_555 1_555
H14 C13 1_555 1_555
C14 N4 1_555 1_555
H15 C14 1_555 1_555
H16 C14 1_555 1_555
H17 C14 1_555 1_555
C15 N4 1_555 1_555
H18 C15 1_555 1_555
H19 C15 1_555 1_555
H20 C15 1_555 1_555
C16 C11 1_555 1_555
N2 C7 1_555 1_555
N3 C7 1_555 1_555
C5 C6 1_555 1_555
C12 C13 1_555 1_555

#END
