
#######################################################################
#
#                 Cambridge Crystallographic Data Centre
#                                CCDC 
#
#######################################################################
#
# If this CIF has been generated from an entry in the Cambridge 
# Structural Database, then it will include bibliographic, chemical, 
# crystal, experimental, refinement or atomic coordinate data resulting 
# from the CCDC's data processing and validation procedures.
#
#######################################################################

data_LITYAP
_chemical_formula_moiety         'C1 H6 N3 1+,C6 H4 Br1 O3 S1 1-,0.5(C10 H14)'
_chemical_name_systematic        
'Guanidinium 4-bromobenzenesulfonate hemikis(n-butylbenzene) clathrate'
_symmetry_cell_setting           orthorhombic
_symmetry_space_group_name_H-M   'P 21 21 21'
_symmetry_Int_Tables_number      19
_space_group_name_Hall           'P 2ac 2ab'
loop_
_symmetry_equiv_pos_site_id
_symmetry_equiv_pos_as_xyz
1 x,y,z
2 1/2-x,-y,1/2+z
3 1/2+x,1/2-y,-z
4 -x,1/2+y,1/2-z
_cell_length_a                   18.520(3)
_cell_length_b                   22.903(4)
_cell_length_c                   7.7707(12)
_cell_angle_alpha                90
_cell_angle_beta                 90
_cell_angle_gamma                90
_cell_volume                     3296.05
_exptl_crystal_colour            colorless
_exptl_crystal_description       plate
_cell_formula_units_Z            8
loop_
_atom_site_label
_atom_site_type_symbol
_atom_site_fract_x
_atom_site_fract_y
_atom_site_fract_z
Br1 Br 0.679108(19) 0.660106(14) 0.51577(6)
S1 S 0.65189(4) 0.38099(3) 0.50865(12)
O1 O 0.68800(16) 0.36063(12) 0.3528(3)
O2 O 0.57430(10) 0.36989(9) 0.5079(3)
O3 O 0.68627(16) 0.35888(11) 0.6648(3)
C1 C 0.66190(14) 0.45789(13) 0.5138(5)
C2 C 0.70921(19) 0.48536(17) 0.4031(5)
H13 H 0.7379 0.4629 0.3263
C3 C 0.7149(2) 0.54564(17) 0.4038(5)
H14 H 0.7471 0.5649 0.3274
C4 C 0.67283(16) 0.57740(13) 0.5181(5)
C5 C 0.62623(19) 0.55054(16) 0.6325(4)
H15 H 0.5986 0.5729 0.7117
C6 C 0.62081(18) 0.49035(15) 0.6286(4)
H16 H 0.5887 0.4710 0.7052
Br2 Br 0.442038(17) 0.454973(15) 0.49381(6)
S2 S 0.18453(4) 0.64208(3) 0.49423(13)
O4 O 0.14229(15) 0.63199(14) 0.6503(3)
O5 O 0.14312(15) 0.63038(14) 0.3382(3)
O6 O 0.21853(12) 0.69931(9) 0.4890(4)
C8 C 0.25535(14) 0.59030(12) 0.4956(5)
C9 C 0.2522(2) 0.54171(17) 0.6029(5)
H17 H 0.2119 0.5363 0.6771
C10 C 0.3071(2) 0.50162(18) 0.6013(5)
H18 H 0.3048 0.4683 0.6740
C11 C 0.36525(15) 0.50948(13) 0.4953(5)
C12 C 0.3688(2) 0.55741(18) 0.3842(5)
H19 H 0.4086 0.5622 0.3085
C13 C 0.3136(2) 0.59734(17) 0.3867(5)
H20 H 0.3154 0.6303 0.3125
N1 N 0.51451(19) 0.36713(17) 1.1546(4)
H1 H 0.5382 0.3668 1.2527
H2 H 0.4671 0.3691 1.1544
N2 N 0.62147(13) 0.36168(13) 1.0094(5)
H3 H 0.6449 0.3613 1.1079
H4 H 0.6455 0.3600 0.9118
N3 N 0.51444(19) 0.36630(16) 0.8588(4)
H5 H 0.4670 0.3690 0.8579
H6 H 0.5384 0.3646 0.7611
C7 C 0.54995(16) 0.36467(14) 1.0082(5)
N4 N 0.2323(2) 0.75015(15) 1.1396(4)
H7 H 0.2545 0.7841 1.1387
H8 H 0.2220 0.7331 1.2381
N5 N 0.18121(16) 0.67302(12) 0.9944(4)
H9 H 0.1694 0.6558 0.8972
H10 H 0.1710 0.6562 1.0933
N6 N 0.2296(2) 0.74960(15) 0.8443(4)
H11 H 0.2179 0.7324 0.7471
H12 H 0.2516 0.7837 0.8428
C14 C 0.21442(17) 0.72446(13) 0.9919(5)
C15 C 0.4684(3) 0.62912(17) -0.0256(4)
C16 C 0.5362(3) 0.6387(2) 0.0457(5)
C17 C 0.5792(3) 0.5916(3) 0.0927(7)
C18 C 0.5544(4) 0.5349(2) 0.0683(6)
C19 C 0.4866(4) 0.52532(17) -0.0031(6)
C20 C 0.4436(3) 0.57244(18) -0.0501(5)
C21 C 0.4212(3) 0.6843(2) -0.0658(5)
C22 C 0.4424(3) 0.6746(2) -0.3678(5)
C23 C 0.4683(4) 0.7102(3) -0.5542(5)
C33 C 0.4205(5) 0.7030(4) -0.2629(11)
C24? C 0.4544(6) 0.6307(4) -0.0182(9)
C25? C 0.4198(4) 0.5793(4) -0.0652(14)
C26? C 0.4535(6) 0.5258(3) -0.0381(15)
C27? C 0.5217(6) 0.5238(4) 0.0362(15)
C28? C 0.5563(6) 0.5753(4) 0.0832(16)
C29? C 0.5226(7) 0.6287(4) 0.0560(12)
C30? C 0.4870(5) 0.7013(4) -0.3608(11)
C31? C 0.4561(6) 0.7165(3) -0.2262(11)
C32? C 0.3998(4) 0.6811(4) -0.2808(12)
loop_
_geom_bond_atom_site_label_1
_geom_bond_atom_site_label_2
_geom_bond_site_symmetry_1
_geom_bond_site_symmetry_2
Br1 C4 1_555 1_555
Br2 C11 1_555 1_555
S1 O1 1_555 1_555
S2 O4 1_555 1_555
O2 S1 1_555 1_555
O3 S1 1_555 1_555
O5 S2 1_555 1_555
O6 S2 1_555 1_555
N1 H1 1_555 1_555
H2 N1 1_555 1_555
N2 H3 1_555 1_555
H4 N2 1_555 1_555
N3 H5 1_555 1_555
H6 N3 1_555 1_555
N4 H7 1_555 1_555
H8 N4 1_555 1_555
N5 H9 1_555 1_555
H10 N5 1_555 1_555
N6 H11 1_555 1_555
H12 N6 1_555 1_555
C1 S1 1_555 1_555
C2 C1 1_555 1_555
H13 C2 1_555 1_555
C3 C2 1_555 1_555
H14 C3 1_555 1_555
C4 C3 1_555 1_555
C5 C4 1_555 1_555
H15 C5 1_555 1_555
C6 C1 1_555 1_555
H16 C6 1_555 1_555
C7 N1 1_555 1_555
C8 S2 1_555 1_555
C9 C8 1_555 1_555
H17 C9 1_555 1_555
C10 C9 1_555 1_555
H18 C10 1_555 1_555
C11 C10 1_555 1_555
C12 C11 1_555 1_555
H19 C12 1_555 1_555
C13 C8 1_555 1_555
H20 C13 1_555 1_555
C14 N4 1_555 1_555
C15 C16 1_555 1_555
C16 C17 1_555 1_555
C17 C18 1_555 1_555
C18 C19 1_555 1_555
C19 C20 1_555 1_555
C20 C15 1_555 1_555
C21 C15 1_555 1_555
C22 C23 1_555 1_555
C33 C21 1_555 1_555
N2 C7 1_555 1_555
N3 C7 1_555 1_555
N5 C14 1_555 1_555
N6 C14 1_555 1_555
C5 C6 1_555 1_555
C12 C13 1_555 1_555
C22 C33 1_555 1_555

#END
