
#######################################################################
#
#                 Cambridge Crystallographic Data Centre
#                                CCDC 
#
#######################################################################
#
# If this CIF has been generated from an entry in the Cambridge 
# Structural Database, then it will include bibliographic, chemical, 
# crystal, experimental, refinement or atomic coordinate data resulting 
# from the CCDC's data processing and validation procedures.
#
#######################################################################

data_LITZAQ
_chemical_formula_moiety         'C1 H6 N3 1+,C8 H9 O3 S1 1-,C8 H10'
_chemical_name_systematic        
'Guanidinium 4-ethylbenzenesulfonate o-xylene clathrate'
_symmetry_cell_setting           monoclinic
_symmetry_space_group_name_H-M   'C c'
_symmetry_Int_Tables_number      9
_space_group_name_Hall           'C -2yc'
loop_
_symmetry_equiv_pos_site_id
_symmetry_equiv_pos_as_xyz
1 x,y,z
2 x,-y,1/2+z
3 1/2+x,1/2+y,z
4 1/2+x,1/2-y,1/2+z
_cell_length_a                   7.5080(14)
_cell_length_b                   20.473(4)
_cell_length_c                   12.377(2)
_cell_angle_alpha                90
_cell_angle_beta                 92.765(3)
_cell_angle_gamma                90
_cell_volume                     1900.27
_exptl_crystal_colour            colorless
_exptl_crystal_description       plate
_cell_formula_units_Z            4
loop_
_atom_site_label
_atom_site_type_symbol
_atom_site_fract_x
_atom_site_fract_y
_atom_site_fract_z
S1 S 0.29725(5) 0.19508(3) 0.75539(4)
O1 O 0.29768(19) 0.21105(8) 0.87082(12)
C1 C 0.3214(3) 0.10902(10) 0.74609(17)
O2 O 0.45171(18) 0.22392(7) 0.70337(11)
C2 C 0.2527(3) 0.07484(11) 0.65630(18)
H5 H 0.1877 0.0974 0.6001
O3 O 0.12855(18) 0.21197(8) 0.69651(11)
C3 C 0.2786(3) 0.00801(12) 0.64841(19)
H8 H 0.2324 -0.0146 0.5861
C4 C 0.3719(3) -0.02707(13) 0.7308(2)
C5 C 0.4410(3) 0.00792(13) 0.8195(2)
H9 H 0.5064 -0.0147 0.8755
C6 C 0.4173(3) 0.07501(13) 0.82887(18)
H10 H 0.4653 0.0977 0.8906
C7 C 0.4024(4) -0.10098(15) 0.7268(3)
H11 H 0.5326 -0.1088 0.7285
H12 H 0.3573 -0.1202 0.7937
C8 C 0.3198(6) -0.13742(15) 0.6327(2)
H13 H 0.1899 -0.1324 0.6317
H14 H 0.3506 -0.1838 0.6391
H15 H 0.3647 -0.1200 0.5655
N1 N 0.8002(2) 0.22398(9) 0.81573(15)
H1 H 0.6971 0.2184 0.7801
H2 H 0.9001 0.2207 0.7817
N2 N 0.9627(2) 0.24522(9) 0.97504(15)
H3 H 1.0623 0.2416 0.9409
H4 H 0.9666 0.2540 1.0447
N3 N 0.6544(2) 0.24229(9) 0.97301(14)
H6 H 0.5510 0.2367 0.9377
H7 H 0.6583 0.2511 1.0427
C9 C 0.8051(3) 0.23732(9) 0.92101(16)
C10 C 0.8092(3) -0.04937(12) 1.0251(2)
C11 C 0.8910(3) -0.05001(12) 0.9242(2)
C12 C 0.9484(3) 0.00897(14) 0.8831(2)
H16 H 1.0053 0.0089 0.8162
C13 C 0.9267(4) 0.06739(13) 0.9349(2)
H17 H 0.9689 0.1067 0.9045
C14 C 0.8424(4) 0.06844(14) 1.0322(3)
H18 H 0.8235 0.1086 1.0685
C15 C 0.7869(3) 0.01077(16) 1.0751(2)
H19 H 0.7306 0.0118 1.1422
C16 C 0.7447(4) -0.11182(17) 1.0746(3)
H20 H 0.6994 -0.1025 1.1459
H21 H 0.8438 -0.1429 1.0823
H22 H 0.6491 -0.1306 1.0277
C17 C 0.9199(5) -0.11248(15) 0.8641(3)
H23 H 0.9548 -0.1025 0.7906
H24 H 0.8093 -0.1380 0.8605
H25 H 1.0145 -0.1378 0.9018
loop_
_geom_bond_atom_site_label_1
_geom_bond_atom_site_label_2
_geom_bond_site_symmetry_1
_geom_bond_site_symmetry_2
S1 O1 1_555 1_555
N1 H1 1_555 1_555
H2 N1 1_555 1_555
C1 S1 1_555 1_555
O2 S1 1_555 1_555
N2 H3 1_555 1_555
H4 N2 1_555 1_555
C2 C1 1_555 1_555
H5 C2 1_555 1_555
O3 S1 1_555 1_555
N3 H6 1_555 1_555
H7 N3 1_555 1_555
C3 C2 1_555 1_555
H8 C3 1_555 1_555
C4 C3 1_555 1_555
C5 C4 1_555 1_555
H9 C5 1_555 1_555
C6 C1 1_555 1_555
H10 C6 1_555 1_555
C7 C4 1_555 1_555
H11 C7 1_555 1_555
H12 C7 1_555 1_555
C8 C7 1_555 1_555
H13 C8 1_555 1_555
H14 C8 1_555 1_555
H15 C8 1_555 1_555
C9 N1 1_555 1_555
C10 C11 1_555 1_555
C11 C12 1_555 1_555
C12 H16 1_555 1_555
C13 C12 1_555 1_555
H17 C13 1_555 1_555
C14 C13 1_555 1_555
H18 C14 1_555 1_555
C15 C10 1_555 1_555
H19 C15 1_555 1_555
C16 C10 1_555 1_555
H20 C16 1_555 1_555
H21 C16 1_555 1_555
H22 C16 1_555 1_555
C17 C11 1_555 1_555
H23 C17 1_555 1_555
H24 C17 1_555 1_555
H25 C17 1_555 1_555
N2 C9 1_555 1_555
N3 C9 1_555 1_555
C5 C6 1_555 1_555
C14 C15 1_555 1_555

#END
