
#######################################################################
#
#                 Cambridge Crystallographic Data Centre
#                                CCDC 
#
#######################################################################
#
# If this CIF has been generated from an entry in the Cambridge 
# Structural Database, then it will include bibliographic, chemical, 
# crystal, experimental, refinement or atomic coordinate data resulting 
# from the CCDC's data processing and validation procedures.
#
#######################################################################

data_LITZUK
_chemical_formula_moiety         'C1 H6 N3 1+,C6 H4 F1 O3 S1 1-'
_chemical_name_systematic        'Guanidinium 4-fluorobenzenesulfonate'
_symmetry_cell_setting           monoclinic
_symmetry_space_group_name_H-M   'P 21/c'
_symmetry_Int_Tables_number      14
_space_group_name_Hall           '-P 2ybc'
loop_
_symmetry_equiv_pos_site_id
_symmetry_equiv_pos_as_xyz
1 x,y,z
2 -x,1/2+y,1/2-z
3 -x,-y,-z
4 x,1/2-y,1/2+z
_cell_length_a                   7.4694(11)
_cell_length_b                   38.233(6)
_cell_length_c                   11.2721(18)
_cell_angle_alpha                90
_cell_angle_beta                 93.007(3)
_cell_angle_gamma                90
_cell_volume                     3214.63
_exptl_crystal_colour            colorless
_exptl_crystal_description       needle
_cell_formula_units_Z            12
_exptl_crystal_recrystallization_method methanol
loop_
_atom_site_label
_atom_site_type_symbol
_atom_site_fract_x
_atom_site_fract_y
_atom_site_fract_z
S1 S 0.20834(11) 0.00904(2) 0.18967(8)
F1 F 0.2893(3) 0.04181(6) 0.6978(2)
O1 O 0.2037(3) 0.04228(6) 0.1265(2)
C1 C 0.2312(4) 0.01937(9) 0.3423(3)
O2 O 0.3645(3) -0.01204(6) 0.1644(2)
O3 O 0.0423(3) -0.01056(6) 0.1721(2)
C2 C 0.2698(5) 0.03437(10) 0.5796(3)
C18 C 0.1989(15) 0.0522(3) 0.3813(12)
H27 H 0.1645 0.0700 0.3259
C19 C 0.2156(18) 0.0598(4) 0.4993(13)
H28 H 0.1897 0.0827 0.5263
C22 C 0.285(2) -0.0004(6) 0.548(2)
H31 H 0.3023 -0.0184 0.6056
C24 C 0.2721(16) -0.0072(5) 0.4247(18)
H33 H 0.2919 -0.0303 0.3971
N1 N 0.6994(4) 0.02409(7) 0.1266(3)
H1 H 0.5982 0.0138 0.1425
H2 H 0.8021 0.0133 0.1415
N2 N 0.5430(4) 0.07234(8) 0.0579(3)
H3 H 0.4413 0.0622 0.0736
H4 H 0.5425 0.0935 0.0272
N3 N 0.8501(4) 0.07134(8) 0.0564(3)
H5 H 0.9528 0.0605 0.0710
H6 H 0.8487 0.0925 0.0256
C3 C 0.6973(4) 0.05579(9) 0.0806(3)
S2 S 0.28244(10) 0.15154(2) 0.65211(7)
F2 F 0.1682(3) 0.28274(5) 0.9031(2)
O4 O 0.1191(3) 0.14809(6) 0.5762(2)
O5 O 0.2980(3) 0.12387(6) 0.7401(2)
O6 O 0.4404(3) 0.15533(6) 0.5830(2)
C4 C 0.2593(4) 0.19106(8) 0.7307(3)
C5 C 0.3134(4) 0.22232(8) 0.6817(3)
H19 H 0.3714 0.2224 0.6087
C6 C 0.2824(4) 0.25365(9) 0.7399(3)
H20 H 0.3179 0.2754 0.7075
C7 C 0.1989(5) 0.25231(9) 0.8453(3)
C8 C 0.1441(5) 0.22169(9) 0.8961(3)
H21 H 0.0869 0.2219 0.9694
C9 C 0.1744(4) 0.19047(9) 0.8377(3)
H22 H 0.1375 0.1689 0.8704
S3 S -0.28303(11) 0.33491(2) 0.57229(7)
F3 F -0.2269(3) 0.18442(5) 0.4825(2)
O7 O -0.1265(3) 0.34999(6) 0.5191(2)
O8 O -0.4499(3) 0.34741(6) 0.5154(2)
O9 O -0.2751(3) 0.33921(7) 0.7014(2)
C11 C -0.2746(4) 0.28921(9) 0.5469(3)
C12 C -0.1856(4) 0.26790(10) 0.6310(3)
H23 H -0.1357 0.2777 0.7028
C13 C -0.1700(5) 0.23231(10) 0.6099(3)
H24 H -0.1099 0.2174 0.6666
C14 C -0.2433(4) 0.21920(9) 0.5056(3)
C15 C -0.3334(4) 0.23965(9) 0.4218(3)
H25 H -0.3840 0.2296 0.3506
C16 C -0.3490(4) 0.27508(9) 0.4431(3)
H26 H -0.4108 0.2897 0.3864
N4 N -0.3576(4) 0.08590(7) 0.7710(3)
H7 H -0.3553 0.0652 0.8055
H8 H -0.4606 0.0966 0.7562
N5 N -0.2107(4) 0.13220(7) 0.6899(3)
H9 H -0.3137 0.1430 0.6757
H10 H -0.1103 0.1421 0.6701
N6 N -0.0507(4) 0.08493(7) 0.7631(3)
H11 H -0.0467 0.0643 0.7976
H12 H 0.0490 0.0951 0.7430
C10 C -0.2069(4) 0.10074(8) 0.7415(3)
N7 N 0.2239(4) 0.14911(8) 0.1439(2)
H13 H 0.1194 0.1485 0.1041
H14 H 0.3231 0.1509 0.1056
N8 N 0.3894(4) 0.14862(8) 0.3213(3)
H15 H 0.3952 0.1477 0.3994
H16 H 0.4883 0.1504 0.2826
N9 N 0.0827(4) 0.14464(7) 0.3195(3)
H17 H 0.0879 0.1437 0.3976
H18 H -0.0217 0.1438 0.2797
C17 C 0.2318(4) 0.14735(8) 0.2620(3)
C20? C 0.3153(17) 0.0600(4) 0.5014(13)
H29? H 0.3612 0.0820 0.5284
C21? C 0.2908(14) 0.0524(3) 0.3805(13)
H30? H 0.3149 0.0699 0.3235
C23? C 0.1998(15) -0.0062(5) 0.4261(19)
H32? H 0.1630 -0.0290 0.4016
C25? C 0.221(2) 0.0014(6) 0.541(2)
H34? H 0.2032 -0.0164 0.5974
loop_
_geom_bond_atom_site_label_1
_geom_bond_atom_site_label_2
_geom_bond_site_symmetry_1
_geom_bond_site_symmetry_2
S1 O1 1_555 1_555
F1 C2 1_555 1_555
N1 H1 1_555 1_555
H2 N1 1_555 1_555
C1 S1 1_555 1_555
S2 O4 1_555 1_555
F2 C7 1_555 1_555
O2 S1 1_555 1_555
N2 H3 1_555 1_555
H4 N2 1_555 1_555
S3 O7 1_555 1_555
F3 C14 1_555 1_555
O3 S1 1_555 1_555
N3 H5 1_555 1_555
H6 N3 1_555 1_555
N4 H7 1_555 1_555
H8 N4 1_555 1_555
C2 C19 1_555 1_555
O5 S2 1_555 1_555
N5 H9 1_555 1_555
H10 N5 1_555 1_555
O6 S2 1_555 1_555
N6 H11 1_555 1_555
H12 N6 1_555 1_555
N7 H13 1_555 1_555
H14 N7 1_555 1_555
C3 N1 1_555 1_555
O8 S3 1_555 1_555
N8 H15 1_555 1_555
H16 N8 1_555 1_555
C4 S2 1_555 1_555
O9 S3 1_555 1_555
N9 H17 1_555 1_555
H18 N9 1_555 1_555
C5 C4 1_555 1_555
H19 C5 1_555 1_555
C6 C5 1_555 1_555
H20 C6 1_555 1_555
C7 C6 1_555 1_555
C8 C7 1_555 1_555
H21 C8 1_555 1_555
C9 C4 1_555 1_555
H22 C9 1_555 1_555
C10 N4 1_555 1_555
C11 S3 1_555 1_555
C12 C11 1_555 1_555
H23 C12 1_555 1_555
C13 C12 1_555 1_555
H24 C13 1_555 1_555
C14 C13 1_555 1_555
C15 C14 1_555 1_555
H25 C15 1_555 1_555
C16 C11 1_555 1_555
H26 C16 1_555 1_555
C17 N7 1_555 1_555
C18 C1 1_555 1_555
H27 C18 1_555 1_555
C19 C18 1_555 1_555
H28 C19 1_555 1_555
C22 C2 1_555 1_555
H31 C22 1_555 1_555
C24 C1 1_555 1_555
H33 C24 1_555 1_555
N2 C3 1_555 1_555
N3 C3 1_555 1_555
N5 C10 1_555 1_555
N6 C10 1_555 1_555
N8 C17 1_555 1_555
N9 C17 1_555 1_555
C8 C9 1_555 1_555
C15 C16 1_555 1_555
C22 C24 1_555 1_555

#END
