
#######################################################################
#
#                 Cambridge Crystallographic Data Centre
#                                CCDC 
#
#######################################################################
#
# If this CIF has been generated from an entry in the Cambridge 
# Structural Database, then it will include bibliographic, chemical, 
# crystal, experimental, refinement or atomic coordinate data resulting 
# from the CCDC's data processing and validation procedures.
#
#######################################################################

data_LIVBEY
_chemical_formula_moiety         'C1 H6 N3 1+,C6 H4 I1 O3 S1 1-,C9 H10 N2'
_chemical_name_systematic        
'Guanidinium 4-iodobenzenesulfonate 4-(dimethylamino)benzonitrile clathrate'
_symmetry_cell_setting           orthorhombic
_symmetry_space_group_name_H-M   'P n a 21'
_symmetry_Int_Tables_number      33
_space_group_name_Hall           'P 2c -2n'
loop_
_symmetry_equiv_pos_site_id
_symmetry_equiv_pos_as_xyz
1 x,y,z
2 -x,-y,1/2+z
3 1/2-x,1/2+y,1/2+z
4 1/2+x,1/2-y,z
_cell_length_a                   21.3350(12)
_cell_length_b                   12.5958(7)
_cell_length_c                   7.4420(4)
_cell_angle_alpha                90
_cell_angle_beta                 90
_cell_angle_gamma                90
_cell_volume                     1999.9
_exptl_crystal_colour            colorless
_exptl_crystal_description       plate
_cell_formula_units_Z            4
loop_
_atom_site_label
_atom_site_type_symbol
_atom_site_fract_x
_atom_site_fract_y
_atom_site_fract_z
I1 I 0.402242(6) 0.901750(15) 0.14307(3)
S1 S 0.70706(2) 0.80894(3) 0.09010(6)
O1 O 0.72154(7) 0.74834(11) 0.25273(17)
C1 C 0.62555(8) 0.83578(12) 0.0986(2)
O2 O 0.71749(7) 0.74861(10) -0.07338(18)
C2 C 0.60401(9) 0.92362(16) 0.1922(3)
H5 H 0.6328 0.9706 0.2484
O3 O 0.73832(6) 0.91176(9) 0.08838(19)
C3 C 0.54004(10) 0.94243(17) 0.2032(3)
H8 H 0.5248 1.0023 0.2672
C4 C 0.49893(9) 0.87394(16) 0.1210(3)
C5 C 0.52028(11) 0.7871(2) 0.0251(3)
H9 H 0.4914 0.7415 -0.0339
C6 C 0.58363(11) 0.76723(19) 0.0156(3)
H10 H 0.5986 0.7068 -0.0475
N1 N 0.26545(8) 1.13138(11) 0.0897(2)
H1 H 0.2715 1.1648 0.1921
H2 H 0.2668 1.1667 -0.0122
N2 N 0.25237(9) 0.97476(13) 0.2427(2)
H3 H 0.2585 1.0083 0.3449
H4 H 0.2450 0.9060 0.2424
N3 N 0.24539(8) 0.97751(13) -0.0658(2)
H6 H 0.2382 0.9087 -0.0666
H7 H 0.2467 1.0130 -0.1676
C7 C 0.25431(8) 1.02780(13) 0.0890(2)
N4 N 0.41886(7) 0.44580(13) 0.1396(3)
N5 N 0.68753(8) 0.15891(12) 0.1211(3)
C8 C 0.47345(8) 0.38904(14) 0.1391(3)
C9 C 0.47614(10) 0.28691(15) 0.0599(3)
H11 H 0.4396 0.2577 0.0063
C10 C 0.53088(10) 0.22948(15) 0.0593(3)
H12 H 0.5314 0.1607 0.0071
C11 C 0.58596(8) 0.27048(14) 0.1343(3)
C12 C 0.58400(10) 0.37123(16) 0.2123(3)
H13 H 0.6210 0.4001 0.2641
C13 C 0.52947(10) 0.42935(15) 0.2152(3)
H14 H 0.5293 0.4977 0.2692
C14 C 0.41524(12) 0.54988(19) 0.2193(4)
H15 H 0.4214 0.5442 0.3495
H16 H 0.3740 0.5808 0.1947
H17 H 0.4479 0.5954 0.1680
C15 C 0.36245(11) 0.40145(17) 0.0591(3)
H18 H 0.3707 0.3835 -0.0669
H19 H 0.3285 0.4537 0.0654
H20 H 0.3502 0.3372 0.1245
C16 C 0.64275(9) 0.20892(14) 0.1279(3)
loop_
_geom_bond_atom_site_label_1
_geom_bond_atom_site_label_2
_geom_bond_site_symmetry_1
_geom_bond_site_symmetry_2
I1 C4 1_555 1_555
S1 O1 1_555 1_555
N1 H1 1_555 1_555
H2 N1 1_555 1_555
C1 S1 1_555 1_555
O2 S1 1_555 1_555
N2 H3 1_555 1_555
H4 N2 1_555 1_555
C2 C1 1_555 1_555
H5 C2 1_555 1_555
O3 S1 1_555 1_555
N3 H6 1_555 1_555
H7 N3 1_555 1_555
C3 C2 1_555 1_555
H8 C3 1_555 1_555
N4 C8 1_555 1_555
C4 C3 1_555 1_555
N5 C16 1_555 1_555
C5 C4 1_555 1_555
H9 C5 1_555 1_555
C6 C1 1_555 1_555
H10 C6 1_555 1_555
C7 N1 1_555 1_555
C8 C9 1_555 1_555
C9 H11 1_555 1_555
C10 C9 1_555 1_555
H12 C10 1_555 1_555
C11 C10 1_555 1_555
C12 C11 1_555 1_555
H13 C12 1_555 1_555
C13 C8 1_555 1_555
H14 C13 1_555 1_555
C14 N4 1_555 1_555
H15 C14 1_555 1_555
H16 C14 1_555 1_555
H17 C14 1_555 1_555
C15 N4 1_555 1_555
H18 C15 1_555 1_555
H19 C15 1_555 1_555
H20 C15 1_555 1_555
C16 C11 1_555 1_555
N2 C7 1_555 1_555
N3 C7 1_555 1_555
C5 C6 1_555 1_555
C12 C13 1_555 1_555

#END
