
#######################################################################
#
#                 Cambridge Crystallographic Data Centre
#                                CCDC 
#
#######################################################################
#
# If this CIF has been generated from an entry in the Cambridge 
# Structural Database, then it will include bibliographic, chemical, 
# crystal, experimental, refinement or atomic coordinate data resulting 
# from the CCDC's data processing and validation procedures.
#
#######################################################################

data_LIVBOI
_chemical_formula_moiety         'C1 H6 N3 1+,C9 H11 O3 S1 1-,0.67(C9 H12)'
_chemical_name_systematic        
'Guanidinium 4-isopropylbenzenesulfonate 1,2,4-trimethylbenzene clathrate'
_symmetry_cell_setting           monoclinic
_symmetry_space_group_name_H-M   'P 21/c'
_symmetry_Int_Tables_number      14
_space_group_name_Hall           '-P 2ybc'
loop_
_symmetry_equiv_pos_site_id
_symmetry_equiv_pos_as_xyz
1 x,y,z
2 -x,1/2+y,1/2-z
3 -x,-y,-z
4 x,1/2-y,1/2+z
_cell_length_a                   19.1153(16)
_cell_length_b                   21.7450(18)
_cell_length_c                   14.1234(12)
_cell_angle_alpha                90
_cell_angle_beta                 101.9870(10)
_cell_angle_gamma                90
_cell_volume                     5742.55
_exptl_crystal_colour            colorless
_cell_formula_units_Z            12
loop_
_atom_site_label
_atom_site_type_symbol
_atom_site_fract_x
_atom_site_fract_y
_atom_site_fract_z
S1 S 0.33597(3) 0.69492(3) 0.43472(5)
C1 C 0.31973(14) 0.61629(13) 0.45007(18)
O1 O 0.26576(10) 0.72404(9) 0.41450(14)
C2 C 0.3383(4) 0.5892(2) 0.5369(3)
H1 H 0.3642 0.6116 0.5905
O2 O 0.37146(10) 0.70035(10) 0.35314(14)
C3 C 0.3195(4) 0.5285(2) 0.5483(3)
H2 H 0.3337 0.5102 0.6103
C4 C 0.2820(2) 0.49426(15) 0.4756(2)
C5 C 0.2668(2) 0.52136(18) 0.3882(3)
H3 H 0.2423 0.4983 0.3343
C6 C 0.2854(2) 0.58132(18) 0.3740(2)
H4 H 0.2743 0.5985 0.3108
O3 O 0.37956(10) 0.71613(10) 0.52531(14)
C7 C 0.2553(3) 0.42968(17) 0.4964(3)
H5 H 0.2918 0.4114 0.5502
C8 C 0.2466(3) 0.38669(19) 0.4123(4)
H6 H 0.2060 0.3998 0.3621
H7 H 0.2380 0.3450 0.4336
H8 H 0.2902 0.3870 0.3861
C9 C 0.1858(3) 0.4361(2) 0.5327(4)
H9 H 0.1488 0.4538 0.4814
H10 H 0.1937 0.4632 0.5894
H11 H 0.1704 0.3955 0.5506
O4 O -0.06889(10) 0.70334(9) 0.61622(13)
S2 S 0.00400(3) 0.67951(3) 0.64077(5)
O5 O 0.04411(10) 0.70625(9) 0.73040(14)
O6 O 0.04057(10) 0.68581(9) 0.56040(14)
C10 C -0.00409(14) 0.60027(13) 0.66261(19)
C11 C 0.0316(2) 0.55707(16) 0.6189(3)
H12 H 0.0615 0.5693 0.5764
C12 C 0.0228(3) 0.49533(19) 0.6382(4)
H13 H 0.0464 0.4654 0.6072
C13 C -0.0193(3) 0.47600(19) 0.7009(4)
C14 C -0.0540(2) 0.52043(18) 0.7442(3)
H14 H -0.0833 0.5081 0.7875
C15 C -0.04699(18) 0.58187(16) 0.7259(2)
H15 H -0.0713 0.6117 0.7562
C16 C -0.0282(4) 0.4076(2) 0.7193(6)
H16 H -0.0541 0.4142 0.7731
C17 C 0.0288(4) 0.3789(2) 0.7762(4)
H17 H 0.0140 0.3385 0.7956
H18 H 0.0466 0.4039 0.8339
H19 H 0.0669 0.3737 0.7398
C18 C -0.0876(3) 0.3788(2) 0.6562(4)
H20 H -0.0802 0.3798 0.5896
H21 H -0.1317 0.4009 0.6597
H22 H -0.0915 0.3360 0.6763
S3 S -0.32244(3) 0.80268(3) 0.74420(4)
O7 O -0.28709(10) 0.79832(9) 0.84585(13)
O8 O -0.39854(9) 0.78974(9) 0.72961(13)
O9 O -0.28667(10) 0.76572(9) 0.68269(13)
C19 C -0.31511(14) 0.87984(13) 0.70975(18)
C20 C -0.25833(18) 0.89790(16) 0.6695(2)
H23 H -0.2241 0.8687 0.6580
C21 C -0.2521(2) 0.95911(18) 0.6464(3)
H24 H -0.2134 0.9713 0.6180
C22 C -0.3000(2) 1.00297(16) 0.6630(2)
C23 C -0.35785(19) 0.98344(15) 0.7009(2)
H25 H -0.3929 1.0124 0.7106
C24 C -0.36511(16) 0.92233(14) 0.7245(2)
H26 H -0.4046 0.9097 0.7510
C25 C -0.2883(3) 1.06942(19) 0.6387(3)
H27 H -0.2836 1.0708 0.5695
C26 C -0.2166(4) 1.0921(2) 0.7009(5)
H28 H -0.2187 1.0900 0.7696
H29 H -0.2080 1.1346 0.6836
H30 H -0.1776 1.0659 0.6889
C27 C -0.3490(4) 1.1126(2) 0.6488(4)
H31 H -0.3936 1.0983 0.6072
H32 H -0.3381 1.1542 0.6293
H33 H -0.3544 1.1131 0.7163
N1 N -0.47114(12) 0.74199(12) 0.54417(16)
H34 H -0.5177 0.7365 0.5345
H35 H -0.4472 0.7543 0.6011
N2 N -0.47345(12) 0.71331(13) 0.38798(16)
H36 H -0.5200 0.7079 0.3785
H37 H -0.4509 0.7065 0.3406
N3 N -0.36725(12) 0.74014(13) 0.48761(17)
H38 H -0.3432 0.7526 0.5444
H39 H -0.3448 0.7333 0.4402
C28 C -0.43731(14) 0.73177(13) 0.47347(19)
C29 C 0.22325(15) 0.73934(13) 0.6538(2)
N4 N 0.18882(12) 0.74836(12) 0.72471(17)
H40 H 0.1428 0.7404 0.7156
H41 H 0.2120 0.7623 0.7810
N5 N 0.29238(13) 0.75219(13) 0.66712(18)
H42 H 0.3152 0.7467 0.6196
H43 H 0.3155 0.7662 0.7234
N6 N 0.18825(13) 0.71836(13) 0.56957(17)
H44 H 0.1422 0.7104 0.5608
H45 H 0.2109 0.7123 0.5222
N7 N -0.03259(12) 0.74424(11) 0.88203(17)
H46 H -0.0088 0.7296 0.8399
H47 H -0.0098 0.7533 0.9412
N8 N -0.13882(12) 0.77378(12) 0.91983(17)
H48 H -0.1854 0.7787 0.9028
H49 H -0.1163 0.7829 0.9790
N9 N -0.13697(12) 0.73915(11) 0.76781(17)
H50 H -0.1836 0.7442 0.7513
H51 H -0.1132 0.7251 0.7252
C30 C -0.10265(14) 0.75267(12) 0.85643(19)
C31 C -0.1264(2) 1.0470(3) 0.4816(3)
C32 C -0.1951(3) 1.0511(2) 0.4232(3)
C33 C -0.2318(2) 0.9968(3) 0.3887(3)
H52 H -0.2784 0.9999 0.3490
C34 C -0.2030(3) 0.9400(2) 0.4102(4)
C35 C -0.1361(3) 0.9338(3) 0.4655(3)
H53 H -0.1147 0.8945 0.4796
C36 C -0.0998(3) 0.9884(3) 0.5010(4)
H54 H -0.0536 0.9844 0.5413
C37 C -0.0855(3) 1.1046(3) 0.5215(4)
H55 H -0.1104 1.1250 0.5668
H56 H -0.0826 1.1326 0.4681
H57 H -0.0371 1.0932 0.5553
C38 C -0.2251(3) 1.1081(3) 0.3997(4)
H58 H -0.2738 1.1031 0.3618
H59 H -0.1963 1.1308 0.3615
H60 H -0.2264 1.1309 0.4591
C39 C -0.2486(3) 0.8856(3) 0.3698(4)
H61 H -0.2247 0.8624 0.3261
H62 H -0.2951 0.9001 0.3340
H63 H -0.2555 0.8589 0.4230
C40 C -0.4543(3) 0.9325(2) 0.2748(4)
C41 C -0.4431(2) 0.94971(18) 0.3695(3)
C42 C -0.4366(2) 1.01121(18) 0.3957(3)
H64 H -0.4298 1.0218 0.4623
C43 C -0.43969(18) 1.05721(18) 0.3287(3)
C44 C -0.4504(2) 1.0400(2) 0.2337(3)
H65 H -0.4529 1.0712 0.1860
C45 C -0.4576(3) 0.9803(3) 0.2041(4)
H66 H -0.4647 0.9705 0.1372
C46 C -0.4624(4) 0.8676(3) 0.2449(6)
H67 H -0.4175 0.8457 0.2697
H68 H -0.4740 0.8651 0.1741
H69 H -0.5010 0.8488 0.2711
C47 C -0.4372(4) 0.9025(3) 0.4484(4)
H70 H -0.4253 0.9229 0.5116
H71 H -0.3996 0.8729 0.4430
H72 H -0.4829 0.8809 0.4422
C48 C -0.4334(2) 1.12438(18) 0.3577(4)
H73 H -0.4246 1.1491 0.3033
H74 H -0.3937 1.1296 0.4134
H75 H -0.4780 1.1379 0.3751
loop_
_geom_bond_atom_site_label_1
_geom_bond_atom_site_label_2
_geom_bond_site_symmetry_1
_geom_bond_site_symmetry_2
S1 C1 1_555 1_555
C1 C2 1_555 1_555
O1 S1 1_555 1_555
C2 H1 1_555 1_555
O2 S1 1_555 1_555
C3 C2 1_555 1_555
H2 C3 1_555 1_555
C4 C3 1_555 1_555
C5 C4 1_555 1_555
H3 C5 1_555 1_555
C6 C1 1_555 1_555
H4 C6 1_555 1_555
O3 S1 1_555 1_555
C7 C4 1_555 1_555
H5 C7 1_555 1_555
C8 C7 1_555 1_555
H6 C8 1_555 1_555
H7 C8 1_555 1_555
H8 C8 1_555 1_555
C9 C7 1_555 1_555
H9 C9 1_555 1_555
H10 C9 1_555 1_555
H11 C9 1_555 1_555
O4 S2 1_555 1_555
S2 O5 1_555 1_555
O6 S2 1_555 1_555
C10 S2 1_555 1_555
C11 C10 1_555 1_555
H12 C11 1_555 1_555
C12 C11 1_555 1_555
H13 C12 1_555 1_555
C13 C12 1_555 1_555
C14 C13 1_555 1_555
H14 C14 1_555 1_555
C15 C10 1_555 1_555
H15 C15 1_555 1_555
C16 C13 1_555 1_555
H16 C16 1_555 1_555
C17 C16 1_555 1_555
H17 C17 1_555 1_555
H18 C17 1_555 1_555
H19 C17 1_555 1_555
C18 C16 1_555 1_555
H20 C18 1_555 1_555
H21 C18 1_555 1_555
H22 C18 1_555 1_555
S3 O7 1_555 1_555
O8 S3 1_555 1_555
O9 S3 1_555 1_555
C19 S3 1_555 1_555
C20 C19 1_555 1_555
H23 C20 1_555 1_555
C21 C20 1_555 1_555
H24 C21 1_555 1_555
C22 C21 1_555 1_555
C23 C22 1_555 1_555
H25 C23 1_555 1_555
C24 C19 1_555 1_555
H26 C24 1_555 1_555
C25 C22 1_555 1_555
H27 C25 1_555 1_555
C26 C25 1_555 1_555
H28 C26 1_555 1_555
H29 C26 1_555 1_555
H30 C26 1_555 1_555
C27 C25 1_555 1_555
H31 C27 1_555 1_555
H32 C27 1_555 1_555
H33 C27 1_555 1_555
N1 H34 1_555 1_555
H35 N1 1_555 1_555
N2 H36 1_555 1_555
H37 N2 1_555 1_555
N3 H38 1_555 1_555
H39 N3 1_555 1_555
C28 N1 1_555 1_555
C29 N4 1_555 1_555
N4 H40 1_555 1_555
H41 N4 1_555 1_555
N5 C29 1_555 1_555
H42 N5 1_555 1_555
H43 N5 1_555 1_555
N6 C29 1_555 1_555
H44 N6 1_555 1_555
H45 N6 1_555 1_555
N7 H46 1_555 1_555
H47 N7 1_555 1_555
N8 H48 1_555 1_555
H49 N8 1_555 1_555
N9 H50 1_555 1_555
H51 N9 1_555 1_555
C30 N7 1_555 1_555
C31 C32 1_555 1_555
C32 C33 1_555 1_555
C33 H52 1_555 1_555
C34 C33 1_555 1_555
C35 C34 1_555 1_555
H53 C35 1_555 1_555
C36 C31 1_555 1_555
H54 C36 1_555 1_555
C37 C31 1_555 1_555
H55 C37 1_555 1_555
H56 C37 1_555 1_555
H57 C37 1_555 1_555
C38 C32 1_555 1_555
H58 C38 1_555 1_555
H59 C38 1_555 1_555
H60 C38 1_555 1_555
C39 C34 1_555 1_555
H61 C39 1_555 1_555
H62 C39 1_555 1_555
H63 C39 1_555 1_555
C40 C41 1_555 1_555
C41 C42 1_555 1_555
C42 H64 1_555 1_555
C43 C42 1_555 1_555
C44 C43 1_555 1_555
H65 C44 1_555 1_555
C45 C40 1_555 1_555
H66 C45 1_555 1_555
C46 C40 1_555 1_555
H67 C46 1_555 1_555
H68 C46 1_555 1_555
H69 C46 1_555 1_555
C47 C41 1_555 1_555
H70 C47 1_555 1_555
H71 C47 1_555 1_555
H72 C47 1_555 1_555
C48 C43 1_555 1_555
H73 C48 1_555 1_555
H74 C48 1_555 1_555
H75 C48 1_555 1_555
C5 C6 1_555 1_555
C14 C15 1_555 1_555
C23 C24 1_555 1_555
N2 C28 1_555 1_555
N3 C28 1_555 1_555
N8 C30 1_555 1_555
N9 C30 1_555 1_555
C35 C36 1_555 1_555
C44 C45 1_555 1_555

#END
