
#######################################################################
#
#                 Cambridge Crystallographic Data Centre
#                                CCDC 
#
#######################################################################
#
# If this CIF has been generated from an entry in the Cambridge 
# Structural Database, then it will include bibliographic, chemical, 
# crystal, experimental, refinement or atomic coordinate data resulting 
# from the CCDC's data processing and validation procedures.
#
#######################################################################

data_LIVBIC
_chemical_formula_moiety         'C1 H6 N3 1+,C6 H4 I1 O3 S1 1-'
_chemical_name_systematic        'Guanidinium 4-iodobenzenesulfonate'
_symmetry_cell_setting           orthorhombic
_symmetry_space_group_name_H-M   'P n m a'
_symmetry_Int_Tables_number      62
_space_group_name_Hall           '-P 2ac 2n'
loop_
_symmetry_equiv_pos_site_id
_symmetry_equiv_pos_as_xyz
1 x,y,z
2 1/2-x,-y,1/2+z
3 1/2+x,1/2-y,1/2-z
4 -x,1/2+y,-z
5 -x,-y,-z
6 1/2+x,y,1/2-z
7 1/2-x,1/2+y,1/2+z
8 x,1/2-y,z
_cell_length_a                   22.527(5)
_cell_length_b                   7.555(5)
_cell_length_c                   6.765(5)
_cell_angle_alpha                90
_cell_angle_beta                 90
_cell_angle_gamma                90
_cell_volume                     1151.35
_exptl_crystal_colour            colorless
_exptl_crystal_description       prism
_cell_formula_units_Z            4
_exptl_crystal_recrystallization_method methanol
loop_
_atom_site_label
_atom_site_type_symbol
_atom_site_fract_x
_atom_site_fract_y
_atom_site_fract_z
N1 N 0.3197(2) 0.7500 1.0269(9)
H1 H 0.3376 0.8509 1.0527
H2 H 0.3377 0.6491 1.0515
N2 N 0.23837(15) 0.9030(6) 0.9142(5)
H3 H 0.2022 0.9046 0.8651
H4 H 0.2569 1.0030 0.9394
C7 C 0.2649(3) 0.7500 0.9503(9)
N2G N 0.23837(15) 0.5970(6) 0.9142(5)
H3G H 0.2022 0.5954 0.8651
H4G H 0.2569 0.4970 0.9394
I1 I 0.59106(2) 0.2500 0.42496(8)
S1 S 0.35899(6) 0.2500 1.0229(2)
O1 O 0.30557(18) 0.2500 0.9024(7)
O2 O 0.36414(12) 0.0904(5) 1.1439(4)
C1 C 0.4205(3) 0.2217(15) 0.8602(10)
C2 C 0.4749(3) 0.1664(15) 0.9289(12)
H5 H 0.4790 0.1264 1.0613
C3 C 0.5233(3) 0.1693(15) 0.8044(13)
H6 H 0.5601 0.1189 0.8443
C4 C 0.5171(3) 0.2500 0.6133(9)
C5 C 0.4633(3) 0.2876(12) 0.5448(12)
H7 H 0.4581 0.3164 0.4092
C6 C 0.4145(3) 0.2847(17) 0.6712(12)
H8 H 0.3771 0.3263 0.6265
O2G O 0.36414(12) 0.4096(5) 1.1439(4)
C1G C 0.4205(3) 0.2783(15) 0.8602(10)
C2G C 0.4749(3) 0.3336(15) 0.9289(12)
H5G H 0.4790 0.3736 1.0613
C3G C 0.5233(3) 0.3307(15) 0.8044(13)
H6G H 0.5601 0.3811 0.8443
C5G C 0.4633(3) 0.2124(12) 0.5448(12)
H7G H 0.4581 0.1836 0.4092
C6G C 0.4145(3) 0.2153(17) 0.6712(12)
H8G H 0.3771 0.1737 0.6265
loop_
_geom_bond_atom_site_label_1
_geom_bond_atom_site_label_2
_geom_bond_site_symmetry_1
_geom_bond_site_symmetry_2
I1 C4 1_555 1_555
S1 O1 1_555 1_555
O2 S1 1_555 1_555
N1 H1 1_555 1_555
H2 N1 1_555 1_555
N2 H3 1_555 1_555
H4 N2 1_555 1_555
C1 S1 1_555 1_555
C2 C1 1_555 1_555
H5 C2 1_555 1_555
C3 C2 1_555 1_555
H6 C3 1_555 1_555
C4 C3 1_555 1_555
C5 C4 1_555 1_555
H7 C5 1_555 1_555
C6 C1 1_555 1_555
H8 C6 1_555 1_555
C7 N1 1_555 1_555
O2G S1 1_555 1_555
N2G C7 1_555 1_555
H3G N2G 1_555 1_555
H4G N2G 1_555 1_555
C1G S1 1_555 1_555
C2G C1 1_555 1_555
H5G C2G 1_555 1_555
C3G C3 1_555 1_555
H6G C3G 1_555 1_555
C5G C4 1_555 1_555
H7G C5 1_555 1_555
C6G C1 1_555 1_555
H8G C6 1_555 1_555
N2 C7 1_555 1_555
C1 C1G 1_555 1_555
C2 C1G 1_555 1_555
C2 C2G 1_555 1_555
C4 C3G 1_555 1_555
C5 C6 1_555 1_555
C5 C5G 1_555 1_555
C5 C6G 1_555 1_555
H7 C5G 1_555 1_555
C6 C1G 1_555 1_555
C6 C5G 1_555 1_555
C6 C6G 1_555 1_555
H8 C6G 1_555 1_555
C1G C2G 1_555 1_555
C1G C6G 1_555 1_555
C2G C3G 1_555 1_555
C5G H7G 1_555 1_555
C5G C6G 1_555 1_555
C6G H8G 1_555 1_555

#END
