
#######################################################################
#
#                 Cambridge Crystallographic Data Centre
#                                CCDC 
#
#######################################################################
#
# If this CIF has been generated from an entry in the Cambridge 
# Structural Database, then it will include bibliographic, chemical, 
# crystal, experimental, refinement or atomic coordinate data resulting 
# from the CCDC's data processing and validation procedures.
#
#######################################################################

data_LIVBUO
_chemical_formula_moiety         'C1 H6 N3 1+,C9 H11 O3 S1 1-,0.67(C8 H10)'
_chemical_name_systematic        
'Guanidinium 4-isopropylbenzenesulfonate p-xylene clathrate'
_symmetry_cell_setting           monoclinic
_symmetry_space_group_name_H-M   'P 21/c'
_symmetry_Int_Tables_number      14
_space_group_name_Hall           '-P 2ybc'
loop_
_symmetry_equiv_pos_site_id
_symmetry_equiv_pos_as_xyz
1 x,y,z
2 -x,1/2+y,1/2-z
3 -x,-y,-z
4 x,1/2-y,1/2+z
_cell_length_a                   18.965(3)
_cell_length_b                   21.733(3)
_cell_length_c                   13.832(2)
_cell_angle_alpha                90
_cell_angle_beta                 101.781(3)
_cell_angle_gamma                90
_cell_volume                     5580.99
_exptl_crystal_colour            colorless
_exptl_crystal_description       prism
_cell_formula_units_Z            12
loop_
_atom_site_label
_atom_site_type_symbol
_atom_site_fract_x
_atom_site_fract_y
_atom_site_fract_z
S1 S 0.83563(3) 0.68320(3) 0.30477(4)
O1 O 0.91288(9) 0.69479(7) 0.32422(12)
O2 O 0.79916(9) 0.71443(8) 0.37371(12)
O3 O 0.80230(9) 0.69724(8) 0.20201(12)
C1 C 0.82469(12) 0.60365(10) 0.32071(15)
C2 C 0.76580(14) 0.58174(12) 0.35440(19)
H19 H 0.7325 0.6096 0.3733
C3 C 0.75565(17) 0.51923(13) 0.3605(2)
H20 H 0.7151 0.5044 0.3839
C4 C 0.80311(17) 0.47737(12) 0.33328(19)
C5 C 0.86270(16) 0.50021(12) 0.30278(19)
H21 H 0.8970 0.4723 0.2863
C6 C 0.87387(14) 0.56276(12) 0.29565(18)
H22 H 0.9150 0.5775 0.2737
C7 C 0.7863(2) 0.40868(14) 0.3360(3)
H23 H 0.7789 0.3989 0.4038
C8 C 0.8455(3) 0.36722(15) 0.3158(3)
H24 H 0.8523 0.3741 0.2482
H25 H 0.8322 0.3242 0.3233
H26 H 0.8904 0.3765 0.3626
C9 C 0.7148(3) 0.39493(18) 0.2629(4)
H27 H 0.6776 0.4237 0.2745
H28 H 0.6996 0.3527 0.2727
H29 H 0.7218 0.3997 0.1950
S2 S 0.49358(3) 0.32155(3) 0.11332(4)
O4 O 0.53212(9) 0.28921(8) 0.20072(12)
O5 O 0.52918(9) 0.31596(8) 0.03002(12)
O6 O 0.41807(9) 0.30309(8) 0.08756(12)
C11 C 0.49363(14) 0.40037(12) 0.14448(18)
C12 C 0.5331(18) 0.4400(15) 0.111(2)
C13 C 0.5329(9) 0.5018(7) 0.1537(8)
H30 H 0.5658 0.5311 0.1375
C14 C 0.4888(8) 0.5200(6) 0.2150(9)
C15 C 0.4455(13) 0.4771(14) 0.2440(14)
H31 H 0.4145 0.4887 0.2868
C16 C 0.4458(10) 0.4165(8) 0.2120(14)
H32 H 0.4160 0.3864 0.2332
C17 C 0.4848(5) 0.5856(3) 0.2526(7)
H33 H 0.4671 0.5804 0.3154
C18 C 0.5583(9) 0.6156(9) 0.2855(17)
H34 H 0.5900 0.5879 0.3305
H35 H 0.5529 0.6544 0.3195
H36 H 0.5792 0.6239 0.2276
C55 C 0.4249(9) 0.6226(7) 0.1865(11)
H79 H 0.4345 0.6249 0.1196
H80 H 0.4235 0.6642 0.2132
H81 H 0.3785 0.6023 0.1844
S3 S 0.17465(3) 0.68530(3) 0.10853(4)
O7 O 0.24844(9) 0.70859(8) 0.13301(11)
O8 O 0.13269(9) 0.71577(8) 0.02169(12)
O9 O 0.14028(9) 0.68733(7) 0.19364(11)
C20 C 0.18207(12) 0.60762(11) 0.07637(16)
C21 C 0.14166(18) 0.58331(14) -0.0090(2)
H37 H 0.1062 0.6078 -0.0501
C22 C 0.1528(2) 0.52307(14) -0.0350(2)
H38 H 0.1238 0.5064 -0.0933
C23 C 0.20469(15) 0.48678(12) 0.02149(19)
C24 C 0.24084(16) 0.51062(12) 0.1097(2)
H39 H 0.2743 0.4854 0.1527
C25 C 0.22975(15) 0.57027(12) 0.13759(19)
H40 H 0.2552 0.5855 0.1993
C26 C 0.22433(19) 0.42493(13) -0.0165(2)
H41 H 0.1835 0.4115 -0.0701
C27 C 0.2909(2) 0.43325(15) -0.0622(3)
H42 H 0.2815 0.4654 -0.1129
H43 H 0.3017 0.3944 -0.0922
H44 H 0.3321 0.4453 -0.0106
C28 C 0.2375(2) 0.37497(14) 0.0609(2)
H45 H 0.2811 0.3846 0.1101
H46 H 0.2439 0.3355 0.0295
H47 H 0.1962 0.3724 0.0932
N1 N 0.77707(11) 0.23501(10) 0.11476(15)
H1 H 0.7991 0.2155 0.1682
H2 H 0.8004 0.2435 0.0675
N2 N 0.67349(11) 0.23899(9) 0.17622(14)
H3 H 0.6279 0.2495 0.1694
H4 H 0.6956 0.2200 0.2301
N3 N 0.67494(12) 0.28026(10) 0.02437(15)
H5 H 0.6294 0.2907 0.0179
H6 H 0.6981 0.2888 -0.0230
C10 C 0.70867(13) 0.25168(11) 0.10544(17)
N4 N 0.45049(11) 0.25648(10) 0.35262(15)
H7 H 0.4728 0.2488 0.4137
H8 H 0.4746 0.2716 0.3100
N5 N 0.34465(12) 0.22264(10) 0.38864(16)
H9 H 0.2980 0.2161 0.3707
H10 H 0.3673 0.2141 0.4492
N6 N 0.34665(11) 0.25817(9) 0.23384(15)
H11 H 0.3000 0.2516 0.2159
H12 H 0.3707 0.2733 0.1912
C19 C 0.38059(13) 0.24529(11) 0.32479(18)
N7 N 0.11779(11) 0.25145(10) 0.43265(16)
H13 H 0.1407 0.2696 0.4869
H14 H 0.1412 0.2411 0.3864
N8 N 0.01345(12) 0.21323(11) 0.33849(15)
H15 H -0.0331 0.2060 0.3301
H16 H 0.0369 0.2029 0.2922
N9 N 0.01302(12) 0.25528(10) 0.48990(16)
H17 H 0.0359 0.2734 0.5442
H18 H -0.0334 0.2475 0.4819
C29 C 0.04814(14) 0.23978(11) 0.42069(18)
C30 C 0.93251(17) 0.46557(16) 0.6526(3)
C31 C 0.93957(17) 0.46967(16) 0.7533(3)
H48 H 0.9391 0.4327 0.7899
C32 C 0.94715(19) 0.52381(18) 0.8028(3)
H49 H 0.9512 0.5246 0.8724
C33 C 0.9490(2) 0.57978(17) 0.7491(3)
C34 C 0.9427(2) 0.57489(19) 0.6494(3)
H50 H 0.9442 0.6115 0.6124
C35 C 0.93436(19) 0.51996(19) 0.5998(3)
H51 H 0.9299 0.5189 0.5301
C36 C 0.9236(2) 0.40389(19) 0.6005(3)
H52 H 0.9685 0.3928 0.5803
H53 H 0.8845 0.4065 0.5421
H54 H 0.9119 0.3724 0.6455
C37 C 0.9564(3) 0.6396(2) 0.8046(4)
H55 H 0.9984 0.6620 0.7918
H56 H 0.9628 0.6313 0.8755
H57 H 0.9130 0.6644 0.7827
C38 C 0.37058(19) 0.56103(16) 0.4833(2)
C39 C 0.3028(2) 0.56271(17) 0.4236(2)
H58 H 0.2798 0.6013 0.4085
C40 C 0.26747(18) 0.50968(18) 0.3850(2)
H59 H 0.2205 0.5127 0.3450
C41 C 0.29921(18) 0.45226(17) 0.4035(2)
C42 C 0.36712(19) 0.45102(17) 0.4628(2)
H60 H 0.3908 0.4126 0.4771
C43 C 0.40151(18) 0.50366(18) 0.5018(2)
H61 H 0.4481 0.5005 0.5429
C44 C 0.4087(2) 0.61832(19) 0.5261(3)
H62 H 0.4182 0.6446 0.4726
H63 H 0.4544 0.6072 0.5697
H64 H 0.3785 0.6406 0.5640
C45 C 0.2600(2) 0.39425(19) 0.3640(3)
H65 H 0.2323 0.3789 0.4115
H66 H 0.2950 0.3630 0.3537
H67 H 0.2273 0.4032 0.3010
C46? C 0.49363(14) 0.40037(12) 0.14448(18)
C47? C 0.4568(12) 0.4244(11) 0.2023(18)
H68? H 0.4286 0.3978 0.2336
C48? C 0.4551(15) 0.4873(14) 0.2226(17)
H69? H 0.4261 0.5019 0.2663
C49? C 0.4951(7) 0.5285(6) 0.1799(7)
C50? C 0.5369(8) 0.5042(7) 0.1165(7)
H70? H 0.5630 0.5310 0.0824
C51? C 0.5399(19) 0.4427(15) 0.104(2)
H71? H 0.5730 0.4266 0.0672
C52? C 0.4945(3) 0.5969(3) 0.1995(4)
H72? H 0.5214 0.6178 0.1537
C53? C 0.5329(9) 0.6115(7) 0.3057(15)
H73? H 0.5328 0.6560 0.3164
H74? H 0.5827 0.5967 0.3165
H75? H 0.5078 0.5910 0.3521
C54? C 0.4211(9) 0.6229(8) 0.1823(12)
H76? H 0.3933 0.6078 0.1192
H77? H 0.4239 0.6679 0.1805
H78? H 0.3975 0.6102 0.2358
loop_
_geom_bond_atom_site_label_1
_geom_bond_atom_site_label_2
_geom_bond_site_symmetry_1
_geom_bond_site_symmetry_2
S1 O1 1_555 1_555
S2 O4 1_555 1_555
S3 O7 1_555 1_555
O2 S1 1_555 1_555
O3 S1 1_555 1_555
O5 S2 1_555 1_555
O6 S2 1_555 1_555
O8 S3 1_555 1_555
O9 S3 1_555 1_555
N1 H1 1_555 1_555
H2 N1 1_555 1_555
N2 H3 1_555 1_555
H4 N2 1_555 1_555
N3 H5 1_555 1_555
H6 N3 1_555 1_555
N4 H7 1_555 1_555
H8 N4 1_555 1_555
N5 H9 1_555 1_555
H10 N5 1_555 1_555
N6 H11 1_555 1_555
H12 N6 1_555 1_555
N7 H13 1_555 1_555
H14 N7 1_555 1_555
N8 H15 1_555 1_555
H16 N8 1_555 1_555
N9 H17 1_555 1_555
H18 N9 1_555 1_555
C1 S1 1_555 1_555
C2 C1 1_555 1_555
H19 C2 1_555 1_555
C3 C2 1_555 1_555
H20 C3 1_555 1_555
C4 C3 1_555 1_555
C5 C4 1_555 1_555
H21 C5 1_555 1_555
C6 C1 1_555 1_555
H22 C6 1_555 1_555
C7 C4 1_555 1_555
H23 C7 1_555 1_555
C8 C7 1_555 1_555
H24 C8 1_555 1_555
H25 C8 1_555 1_555
H26 C8 1_555 1_555
C9 C7 1_555 1_555
H27 C9 1_555 1_555
H28 C9 1_555 1_555
H29 C9 1_555 1_555
C10 N1 1_555 1_555
C11 S2 1_555 1_555
C12 C11 1_555 1_555
C13 C12 1_555 1_555
H30 C13 1_555 1_555
C14 C13 1_555 1_555
C15 C14 1_555 1_555
H31 C15 1_555 1_555
C16 C11 1_555 1_555
H32 C16 1_555 1_555
C17 C14 1_555 1_555
H33 C17 1_555 1_555
C18 C17 1_555 1_555
H34 C18 1_555 1_555
H35 C18 1_555 1_555
H36 C18 1_555 1_555
C19 N4 1_555 1_555
C20 S3 1_555 1_555
C21 C20 1_555 1_555
H37 C21 1_555 1_555
C22 C21 1_555 1_555
H38 C22 1_555 1_555
C23 C22 1_555 1_555
C24 C23 1_555 1_555
H39 C24 1_555 1_555
C25 C20 1_555 1_555
H40 C25 1_555 1_555
C26 C23 1_555 1_555
H41 C26 1_555 1_555
C27 C26 1_555 1_555
H42 C27 1_555 1_555
H43 C27 1_555 1_555
H44 C27 1_555 1_555
C28 C26 1_555 1_555
H45 C28 1_555 1_555
H46 C28 1_555 1_555
H47 C28 1_555 1_555
C29 N7 1_555 1_555
C30 C31 1_555 1_555
C31 H48 1_555 1_555
C32 C31 1_555 1_555
H49 C32 1_555 1_555
C33 C32 1_555 1_555
C34 C33 1_555 1_555
H50 C34 1_555 1_555
C35 C30 1_555 1_555
H51 C35 1_555 1_555
C36 C30 1_555 1_555
H52 C36 1_555 1_555
H53 C36 1_555 1_555
H54 C36 1_555 1_555
C37 C33 1_555 1_555
H55 C37 1_555 1_555
H56 C37 1_555 1_555
H57 C37 1_555 1_555
C38 C39 1_555 1_555
C39 H58 1_555 1_555
C40 C39 1_555 1_555
H59 C40 1_555 1_555
C41 C40 1_555 1_555
C42 C41 1_555 1_555
H60 C42 1_555 1_555
C43 C38 1_555 1_555
H61 C43 1_555 1_555
C44 C38 1_555 1_555
H62 C44 1_555 1_555
H63 C44 1_555 1_555
H64 C44 1_555 1_555
C45 C41 1_555 1_555
H65 C45 1_555 1_555
H66 C45 1_555 1_555
H67 C45 1_555 1_555
C55 C17 1_555 1_555
H79 C55 1_555 1_555
H80 C55 1_555 1_555
H81 C55 1_555 1_555
N2 C10 1_555 1_555
N3 C10 1_555 1_555
N5 C19 1_555 1_555
N6 C19 1_555 1_555
N8 C29 1_555 1_555
N9 C29 1_555 1_555
C5 C6 1_555 1_555
C15 C16 1_555 1_555
C24 C25 1_555 1_555
C34 C35 1_555 1_555
C42 C43 1_555 1_555

#END
