
#######################################################################
#
#                 Cambridge Crystallographic Data Centre
#                                CCDC 
#
#######################################################################
#
# If this CIF has been generated from an entry in the Cambridge 
# Structural Database, then it will include bibliographic, chemical, 
# crystal, experimental, refinement or atomic coordinate data resulting 
# from the CCDC's data processing and validation procedures.
#
#######################################################################

data_LIVCAV
_chemical_formula_moiety         'C1 H6 N3 1+,C9 H11 O3 S1 1-'
_chemical_name_systematic        'Guanidinium 4-isopropylbenzenesulfonate'
_symmetry_cell_setting           orthorhombic
_symmetry_space_group_name_H-M   'P b c a'
_symmetry_Int_Tables_number      61
_space_group_name_Hall           '-P 2ac 2ab'
loop_
_symmetry_equiv_pos_site_id
_symmetry_equiv_pos_as_xyz
1 x,y,z
2 1/2-x,-y,1/2+z
3 1/2+x,1/2-y,-z
4 -x,1/2+y,1/2-z
5 -x,-y,-z
6 1/2+x,y,1/2-z
7 1/2-x,1/2+y,z
8 x,1/2-y,1/2+z
_cell_length_a                   14.501(5)
_cell_length_b                   12.686(5)
_cell_length_c                   47.584(5)
_cell_angle_alpha                90
_cell_angle_beta                 90
_cell_angle_gamma                90
_cell_volume                     8753.54
_exptl_crystal_colour            colorless
_exptl_crystal_description       prism
_cell_formula_units_Z            24
_exptl_crystal_recrystallization_method methanol
loop_
_atom_site_label
_atom_site_type_symbol
_atom_site_fract_x
_atom_site_fract_y
_atom_site_fract_z
S1 S -0.11769(6) -0.33415(7) 0.54616(2)
O1 O -0.11981(15) -0.44743(19) 0.54327(6)
O2 O -0.04103(17) -0.28669(18) 0.53125(6)
O3 O -0.20508(17) -0.28555(19) 0.53927(6)
C40 C -0.0998(3) -0.3061(3) 0.58185(6)
C41 C -0.0159(3) -0.2650(4) 0.59087(8)
H63 H 0.0329 -0.2551 0.5778
C42 C -0.0037(3) -0.2385(4) 0.61896(9)
H64 H 0.0536 -0.2104 0.6251
C43 C -0.0752(4) -0.2529(3) 0.63803(6)
C44 C -0.1590(3) -0.2940(4) 0.62900(7)
H65 H -0.2078 -0.3038 0.6420
C45 C -0.1713(2) -0.3205(4) 0.60091(8)
H66 H -0.2285 -0.3486 0.5947
C46 C -0.0628(6) -0.2114(5) 0.66734(7)
H67 H 0.0029 -0.1879 0.6683
C47 C -0.0685(7) -0.3135(6) 0.68720(6)
H68 H -0.0609 -0.2922 0.7069
H69 H -0.0194 -0.3631 0.6821
H70 H -0.1286 -0.3477 0.6848
C48 C -0.1207(7) -0.1099(5) 0.67168(10)
H71 H -0.1119 -0.0839 0.6909
H72 H -0.1861 -0.1258 0.6686
H73 H -0.1007 -0.0559 0.6583
S2 S -0.37820(6) -0.20004(8) 0.73215(2)
O4 O -0.29263(18) -0.2570(2) 0.73574(6)
O5 O -0.37431(18) -0.0940(2) 0.74395(7)
O6 O -0.45730(19) -0.2584(2) 0.74247(7)
C22 C -0.4028(6) -0.1885(5) 0.69632(8)
C23 C -0.4291(7) -0.2794(4) 0.68212(11)
H41 H -0.4307 -0.3450 0.6917
C24 C -0.4530(6) -0.2743(4) 0.65386(11)
H42 H -0.4710 -0.3364 0.6442
C25 C -0.4506(3) -0.1782(4) 0.63981(8)
C26 C -0.4243(5) -0.0873(3) 0.65401(9)
H43 H -0.4227 -0.0217 0.6444
C27 C -0.4004(7) -0.0924(5) 0.68227(10)
H44 H -0.3824 -0.0303 0.6920
C28 C -0.4735(4) -0.1697(5) 0.60862(8)
H45 H -0.5065 -0.2350 0.6025
C29 C -0.5380(6) -0.0735(7) 0.60459(10)
H46 H -0.5537 -0.0664 0.5847
H47 H -0.5065 -0.0095 0.6110
H48 H -0.5945 -0.0838 0.6156
C30 C -0.3776(5) -0.1549(8) 0.58911(10)
H49 H -0.3945 -0.1497 0.5692
H50 H -0.3371 -0.2159 0.5919
H51 H -0.3453 -0.0906 0.5949
S3 S -0.63501(6) -0.35408(7) 0.54708(2)
O7 O -0.62774(16) -0.4597(2) 0.53606(6)
O8 O -0.54926(16) -0.29623(18) 0.54524(6)
O9 O -0.71162(17) -0.29711(19) 0.53502(7)
C12 C -0.6602(5) -0.3673(9) 0.58334(14)
C13 C -0.7348(7) -0.3191(7) 0.59643(15)
H30 H -0.7738 -0.2732 0.5860
C14 C -0.7523(7) -0.3379(10) 0.62471(14)
H31 H -0.8033 -0.3049 0.6336
C15 C -0.6952(8) -0.4050(11) 0.63990(12)
C16 C -0.6206(7) -0.4532(11) 0.62681(18)
H32 H -0.5816 -0.4991 0.6372
C17 C -0.6031(5) -0.4344(11) 0.59853(18)
H33 H -0.5521 -0.4673 0.5896
C18 C -0.6901(11) -0.4373(14) 0.67214(12)
H34 H -0.6294 -0.4746 0.6708
C38 C -0.6656(13) -0.3743(17) 0.69030(19)
H57 H -0.6290 -0.3182 0.6816
H58 H -0.6283 -0.4109 0.7044
H59 H -0.7201 -0.3437 0.6993
C39 C -0.7422(16) -0.5277(15) 0.6776(3)
H60 H -0.7523 -0.5665 0.6601
H61 H -0.8019 -0.5073 0.6856
H62 H -0.7091 -0.5727 0.6910
N1 N -0.6257(2) -0.5977(2) 0.46707(9)
H1 H -0.5726 -0.6311 0.4670
H2 H -0.6776 -0.6335 0.4663
N2 N -0.5491(2) -0.4409(2) 0.46951(7)
H3 H -0.4963 -0.4751 0.4695
H4 H -0.5497 -0.3716 0.4704
N3 N -0.7073(2) -0.4433(2) 0.46832(7)
H5 H -0.7593 -0.4791 0.4675
H6 H -0.7085 -0.3741 0.4691
C1 C -0.6276(2) -0.4937(3) 0.46832(8)
N4 N -0.5462(2) 0.0158(3) 0.75099(8)
H7 H -0.5444 0.0846 0.7533
H8 H -0.4948 -0.0195 0.7480
N5 N -0.6277(2) -0.1382(3) 0.74861(8)
H9 H -0.6805 -0.1723 0.7494
H10 H -0.5761 -0.1730 0.7456
N6 N -0.7029(2) 0.0170(3) 0.75638(8)
H11 H -0.7018 0.0857 0.7587
H12 H -0.7556 -0.0172 0.7570
C11 C -0.6259(3) -0.0346(3) 0.75196(8)
N7 N -0.79917(19) -0.5724(2) 0.52655(7)
H13 H -0.7465 -0.5381 0.5256
H14 H -0.7995 -0.6416 0.5277
N8 N -0.95664(19) -0.5717(2) 0.52718(6)
H15 H -0.9570 -0.6410 0.5279
H16 H -1.0090 -0.5366 0.5270
N9 N -0.87731(19) -0.4165(2) 0.52462(7)
H17 H -0.8248 -0.3819 0.5237
H18 H -0.9299 -0.3818 0.5245
C21 C -0.8772(2) -0.5202(3) 0.52630(7)
C2? C -0.3845(5) -0.1785(9) 0.69571(12)
C3? C -0.4065(7) -0.2593(7) 0.67715(14)
H19? H -0.4119 -0.3296 0.6838
C4? C -0.4208(6) -0.2371(6) 0.64888(13)
H20? H -0.4359 -0.2923 0.6362
C5? C -0.4130(5) -0.1341(6) 0.63916(11)
C6? C -0.3910(5) -0.0534(7) 0.65772(14)
H21? H -0.3857 0.0170 0.6511
C7? C -0.3767(3) -0.0755(9) 0.68599(14)
H22? H -0.3616 -0.0203 0.6987
C8? C -0.4304(7) -0.1021(8) 0.60785(11)
H23? H -0.4069 -0.0291 0.6045
C9? C -0.5503(7) -0.1056(12) 0.60286(8)
H24? H -0.5802 -0.0584 0.6164
H25? H -0.5727 -0.1777 0.6057
H26? H -0.5650 -0.0828 0.5837
C10? C -0.3980(7) -0.1629(9) 0.59026(12)
H27? H -0.4121 -0.1369 0.5713
H28? H -0.4251 -0.2330 0.5927
H29? H -0.3310 -0.1672 0.5927
C19? C -0.8138(12) -0.4668(18) 0.67394(7)
H35? H -0.8295 -0.4974 0.6556
H36? H -0.8690 -0.4349 0.6823
H37? H -0.7905 -0.5223 0.6864
C20? C -0.7062(11) -0.3291(17) 0.68732(14)
H38? H -0.6619 -0.2818 0.6782
H39? H -0.6740 -0.3728 0.7012
H40? H -0.7538 -0.2872 0.6968
C31? C -0.6623(9) -0.3710(12) 0.58130(19)
C32? C -0.7057(11) -0.2883(12) 0.5951(2)
H52? H -0.7209 -0.2257 0.5852
C33? C -0.7267(10) -0.2970(12) 0.6235(2)
H53? H -0.7564 -0.2404 0.6330
C34? C -0.7044(8) -0.3885(11) 0.63810(19)
C35? C -0.6610(11) -0.4712(11) 0.6243(2)
H54? H -0.6457 -0.5338 0.6342
C36? C -0.6399(12) -0.4625(12) 0.5959(2)
H55? H -0.6102 -0.5191 0.5864
C37? C -0.7411(11) -0.3841(14) 0.6701(2)
H56? H -0.7881 -0.3291 0.6654
C49? C -0.0146(7) -0.2662(7) 0.68212(8)
C50? C -0.0675(7) -0.1038(5) 0.67319(11)
C51? C 0.0116(6) -0.1932(7) 0.67406(10)
C52? C -0.1188(6) -0.2382(5) 0.67230(6)
loop_
_geom_bond_atom_site_label_1
_geom_bond_atom_site_label_2
_geom_bond_site_symmetry_1
_geom_bond_site_symmetry_2
S1 O1 1_555 1_555
S2 O4 1_555 1_555
S3 O7 1_555 1_555
O2 S1 1_555 1_555
O3 S1 1_555 1_555
O5 S2 1_555 1_555
O6 S2 1_555 1_555
O8 S3 1_555 1_555
O9 S3 1_555 1_555
N1 H1 1_555 1_555
H2 N1 1_555 1_555
N2 H3 1_555 1_555
H4 N2 1_555 1_555
N3 H5 1_555 1_555
H6 N3 1_555 1_555
N4 H7 1_555 1_555
H8 N4 1_555 1_555
N5 H9 1_555 1_555
H10 N5 1_555 1_555
N6 H11 1_555 1_555
H12 N6 1_555 1_555
N7 H13 1_555 1_555
H14 N7 1_555 1_555
N8 H15 1_555 1_555
H16 N8 1_555 1_555
N9 H17 1_555 1_555
H18 N9 1_555 1_555
C1 N1 1_555 1_555
C11 N4 1_555 1_555
C12 S3 1_555 1_555
C13 C12 1_555 1_555
H30 C13 1_555 1_555
C14 C13 1_555 1_555
H31 C14 1_555 1_555
C15 C14 1_555 1_555
C16 C15 1_555 1_555
H32 C16 1_555 1_555
C17 C12 1_555 1_555
H33 C17 1_555 1_555
C18 C15 1_555 1_555
H34 C18 1_555 1_555
C21 N7 1_555 1_555
C22 S2 1_555 1_555
C23 C22 1_555 1_555
H41 C23 1_555 1_555
C24 C23 1_555 1_555
H42 C24 1_555 1_555
C25 C24 1_555 1_555
C26 C25 1_555 1_555
H43 C26 1_555 1_555
C27 C22 1_555 1_555
H44 C27 1_555 1_555
C28 C25 1_555 1_555
H45 C28 1_555 1_555
C29 C28 1_555 1_555
H46 C29 1_555 1_555
H47 C29 1_555 1_555
H48 C29 1_555 1_555
C30 C28 1_555 1_555
H49 C30 1_555 1_555
H50 C30 1_555 1_555
H51 C30 1_555 1_555
C38 C18 1_555 1_555
H57 C38 1_555 1_555
H58 C38 1_555 1_555
H59 C38 1_555 1_555
C39 C18 1_555 1_555
H60 C39 1_555 1_555
H61 C39 1_555 1_555
H62 C39 1_555 1_555
C40 S1 1_555 1_555
C41 C40 1_555 1_555
H63 C41 1_555 1_555
C42 C41 1_555 1_555
H64 C42 1_555 1_555
C43 C42 1_555 1_555
C44 C43 1_555 1_555
H65 C44 1_555 1_555
C45 C40 1_555 1_555
H66 C45 1_555 1_555
C46 C43 1_555 1_555
H67 C46 1_555 1_555
C47 C46 1_555 1_555
H68 C47 1_555 1_555
H69 C47 1_555 1_555
H70 C47 1_555 1_555
C48 C46 1_555 1_555
H71 C48 1_555 1_555
H72 C48 1_555 1_555
H73 C48 1_555 1_555
N2 C1 1_555 1_555
N3 C1 1_555 1_555
N5 C11 1_555 1_555
N6 C11 1_555 1_555
N8 C21 1_555 1_555
N9 C21 1_555 1_555
C16 C17 1_555 1_555
C26 C27 1_555 1_555
C44 C45 1_555 1_555

#END
