
#######################################################################
#
#                 Cambridge Crystallographic Data Centre
#                                CCDC 
#
#######################################################################
#
# If this CIF has been generated from an entry in the Cambridge 
# Structural Database, then it will include bibliographic, chemical, 
# crystal, experimental, refinement or atomic coordinate data resulting 
# from the CCDC's data processing and validation procedures.
#
#######################################################################

data_LIVCID
_chemical_formula_moiety         'C1 H6 N3 1+,C7 H7 O3 S1 1-,0.5(C10 H14)'
_chemical_name_systematic        
'Guanidinium 4-methylbenzenesulfonate hemikis(t-butylbenzene) clathrate'
_symmetry_cell_setting           orthorhombic
_symmetry_space_group_name_H-M   'P n a 21'
_symmetry_Int_Tables_number      33
_space_group_name_Hall           'P 2c -2n'
loop_
_symmetry_equiv_pos_site_id
_symmetry_equiv_pos_as_xyz
1 x,y,z
2 -x,-y,1/2+z
3 1/2-x,1/2+y,1/2+z
4 1/2+x,1/2-y,z
_cell_length_a                   18.757(3)
_cell_length_b                   23.471(4)
_cell_length_c                   7.4865(12)
_cell_angle_alpha                90
_cell_angle_beta                 90
_cell_angle_gamma                90
_cell_volume                     3295.9
_exptl_crystal_colour            colorless
_exptl_crystal_description       needle
_cell_formula_units_Z            8
loop_
_atom_site_label
_atom_site_type_symbol
_atom_site_fract_x
_atom_site_fract_y
_atom_site_fract_z
S1 S 0.43660(4) 0.35964(3) 0.80212(17)
O1 O 0.46954(11) 0.30348(9) 0.7984(5)
C1 C 0.50634(15) 0.40995(12) 0.8012(7)
O2 O 0.39449(18) 0.36965(14) 0.9635(4)
C2 C 0.4993(2) 0.46126(18) 0.8901(5)
H5 H 0.4568 0.4695 0.9539
O3 O 0.39480(19) 0.37025(14) 0.6404(4)
C3 C 0.5540(2) 0.50039(17) 0.8862(5)
H8 H 0.5488 0.5352 0.9494
C4 C 0.61601(17) 0.49027(14) 0.7930(7)
C5 C 0.6218(2) 0.43893(18) 0.7027(6)
H13 H 0.6638 0.4312 0.6360
C6 C 0.5677(2) 0.39846(18) 0.7075(5)
H16 H 0.5731 0.3632 0.6466
C7 C 0.67448(19) 0.53414(16) 0.7825(8)
H17 H 0.6801 0.5467 0.6584
H18 H 0.7193 0.5174 0.8245
H19 H 0.6621 0.5669 0.8576
N1 N 0.4765(2) 0.24429(16) 0.4533(4)
H1 H 0.4664 0.2612 0.5551
H2 H 0.4952 0.2099 0.4531
N2 N 0.4783(2) 0.24454(16) 0.1471(5)
H3 H 0.4966 0.2100 0.1471
H4 H 0.4697 0.2620 0.0453
N3 N 0.43560(14) 0.32181(11) 0.3041(6)
H6 H 0.4257 0.3382 0.4068
H7 H 0.4267 0.3397 0.2033
C8 C 0.46360(15) 0.27043(12) 0.3013(7)
S2 S 0.09467(4) 0.38144(3) 1.29612(18)
O4 O 0.17065(10) 0.36822(8) 1.2938(5)
O5 O 0.06043(19) 0.35928(12) 1.4579(3)
O6 O 0.05789(18) 0.36302(12) 1.1339(4)
C9 C 0.08814(14) 0.45670(11) 1.3049(6)
C10 C 0.0363(2) 0.48468(16) 1.2088(5)
H20 H 0.0032 0.4638 1.1385
C11 C 0.0329(2) 0.54374(16) 1.2157(5)
H21 H -0.0028 0.5632 1.1495
C12 C 0.08110(18) 0.57477(14) 1.3187(6)
C13 C 0.13188(19) 0.54535(15) 1.4145(5)
H22 H 0.1650 0.5659 1.4858
C14 C 0.13563(18) 0.48699(15) 1.4090(5)
H23 H 0.1708 0.4675 1.4768
C15 C 0.0789(2) 0.63935(15) 1.3170(8)
H24 H 0.0867 0.6531 1.1949
H25 H 0.1164 0.6543 1.3952
H26 H 0.0323 0.6524 1.3597
N4 N 0.2413(2) 0.35825(16) 0.9486(5)
H9 H 0.2882 0.3595 0.9483
H10 H 0.2180 0.3586 1.0505
N5 N 0.2400(2) 0.35517(17) 0.6420(5)
H11 H 0.2163 0.3539 0.5406
H12 H 0.2869 0.3560 0.6411
N6 N 0.13528(13) 0.35451(11) 0.7957(6)
H14 H 0.1115 0.3533 0.6944
H15 H 0.1122 0.3549 0.8980
C16 C 0.20553(15) 0.35576(12) 0.7940(7)
C17 C 0.2636(2) 0.62423(16) 0.7662(6)
C18 C 0.3087(3) 0.5802(2) 0.7223(7)
H27 H 0.3527 0.5898 0.6669
C19 C 0.2954(5) 0.5252(3) 0.7516(9)
H28 H 0.3273 0.4962 0.7133
C20 C 0.2339(6) 0.5127(3) 0.8391(7)
H29 H 0.2241 0.4738 0.8641
C21 C 0.1854(5) 0.5522(4) 0.8932(8)
H30 H 0.1431 0.5415 0.9547
C22 C 0.2009(3) 0.6114(2) 0.8531(7)
H31 H 0.1685 0.6407 0.8860
C23 C 0.2840(3) 0.6863(2) 0.7287(8)
C24 C 0.3408(5) 0.7054(3) 0.8494(15)
H32 H 0.3754 0.6746 0.8662
H33 H 0.3201 0.7159 0.9650
H34 H 0.3648 0.7386 0.7975
C25 C 0.3018(6) 0.6949(3) 0.5399(13)
H35 H 0.3144 0.7350 0.5201
H36 H 0.2605 0.6850 0.4658
H37 H 0.3422 0.6707 0.5075
C26 C 0.2214(3) 0.7275(2) 0.7614(19)
H38 H 0.2075 0.7260 0.8875
H39 H 0.1808 0.7163 0.6867
H40 H 0.2360 0.7664 0.7308
loop_
_geom_bond_atom_site_label_1
_geom_bond_atom_site_label_2
_geom_bond_site_symmetry_1
_geom_bond_site_symmetry_2
S1 O1 1_555 1_555
N1 H1 1_555 1_555
H2 N1 1_555 1_555
C1 S1 1_555 1_555
S2 O4 1_555 1_555
O2 S1 1_555 1_555
N2 H3 1_555 1_555
H4 N2 1_555 1_555
C2 C1 1_555 1_555
H5 C2 1_555 1_555
O3 S1 1_555 1_555
N3 H6 1_555 1_555
H7 N3 1_555 1_555
C3 C2 1_555 1_555
H8 C3 1_555 1_555
N4 H9 1_555 1_555
H10 N4 1_555 1_555
C4 C3 1_555 1_555
O5 S2 1_555 1_555
N5 H11 1_555 1_555
H12 N5 1_555 1_555
C5 C4 1_555 1_555
H13 C5 1_555 1_555
O6 S2 1_555 1_555
N6 H14 1_555 1_555
H15 N6 1_555 1_555
C6 C1 1_555 1_555
H16 C6 1_555 1_555
C7 C4 1_555 1_555
H17 C7 1_555 1_555
H18 C7 1_555 1_555
H19 C7 1_555 1_555
C8 N1 1_555 1_555
C9 S2 1_555 1_555
C10 C9 1_555 1_555
H20 C10 1_555 1_555
C11 C10 1_555 1_555
H21 C11 1_555 1_555
C12 C11 1_555 1_555
C13 C12 1_555 1_555
H22 C13 1_555 1_555
C14 C9 1_555 1_555
H23 C14 1_555 1_555
C15 C12 1_555 1_555
H24 C15 1_555 1_555
H25 C15 1_555 1_555
H26 C15 1_555 1_555
C16 N4 1_555 1_555
C17 C18 1_555 1_555
C18 H27 1_555 1_555
C19 C18 1_555 1_555
H28 C19 1_555 1_555
C20 C19 1_555 1_555
H29 C20 1_555 1_555
C21 C20 1_555 1_555
H30 C21 1_555 1_555
C22 C17 1_555 1_555
H31 C22 1_555 1_555
C23 C17 1_555 1_555
C24 C23 1_555 1_555
H32 C24 1_555 1_555
H33 C24 1_555 1_555
H34 C24 1_555 1_555
C25 C23 1_555 1_555
H35 C25 1_555 1_555
H36 C25 1_555 1_555
H37 C25 1_555 1_555
C26 C23 1_555 1_555
H38 C26 1_555 1_555
H39 C26 1_555 1_555
H40 C26 1_555 1_555
N2 C8 1_555 1_555
N3 C8 1_555 1_555
N5 C16 1_555 1_555
C5 C6 1_555 1_555
N6 C16 1_555 1_555
C13 C14 1_555 1_555
C21 C22 1_555 1_555

#END
