
#######################################################################
#
#                 Cambridge Crystallographic Data Centre
#                                CCDC 
#
#######################################################################
#
# If this CIF has been generated from an entry in the Cambridge 
# Structural Database, then it will include bibliographic, chemical, 
# crystal, experimental, refinement or atomic coordinate data resulting 
# from the CCDC's data processing and validation procedures.
#
#######################################################################

data_LIVCUP
_chemical_formula_moiety         'C1 H6 N3 1+,C10 H13 O3 S1 1-,0.67(C6 H6)'
_chemical_name_systematic        
'Guanidinium 4-t-butylbenzenesulfonate benzene clathrate'
_symmetry_cell_setting           monoclinic
_symmetry_space_group_name_H-M   'P 21/c'
_symmetry_Int_Tables_number      14
_space_group_name_Hall           '-P 2ybc'
loop_
_symmetry_equiv_pos_site_id
_symmetry_equiv_pos_as_xyz
1 x,y,z
2 -x,1/2+y,1/2-z
3 -x,-y,-z
4 x,1/2-y,1/2+z
_cell_length_a                   19.169(2)
_cell_length_b                   22.004(3)
_cell_length_c                   13.2277(16)
_cell_angle_alpha                90
_cell_angle_beta                 103.582(2)
_cell_angle_gamma                90
_cell_volume                     5423.35
_exptl_crystal_colour            colorless
_exptl_crystal_description       plate
_cell_formula_units_Z            12
loop_
_atom_site_label
_atom_site_type_symbol
_atom_site_fract_x
_atom_site_fract_y
_atom_site_fract_z
S1 S 1.13549(4) 0.32681(3) 0.95152(6)
O1 O 1.16677(10) 0.32345(9) 0.86073(16)
O2 O 1.17183(11) 0.28595(10) 1.03456(16)
O3 O 1.05800(10) 0.31730(9) 0.92301(16)
C1 C 1.1529(3) 0.4000(2) 1.0034(5)
C2 C 1.1151(4) 0.4467(3) 0.9532(5)
H19 H 1.0787 0.4396 0.8919
C3 C 1.1291(4) 0.5059(3) 0.9910(6)
H20 H 1.1042 0.5384 0.9507
C4 C 1.17526(18) 0.51941(16) 1.0801(3)
C5 C 1.2144(3) 0.4684(3) 1.1333(5)
H21 H 1.2490 0.4748 1.1967
C6 C 1.2023(3) 0.4100(3) 1.0937(5)
H22 H 1.2288 0.3769 1.1298
C7 C 1.1879(2) 0.58371(17) 1.1237(3)
C8 C 1.1196(3) 0.6141(2) 1.1324(5)
H23 H 1.1294 0.6567 1.1528
H24 H 1.1000 0.5932 1.1851
H25 H 1.0848 0.6123 1.0652
C9 C 1.2218(4) 0.6218(2) 1.0533(5)
H26 H 1.2344 0.6618 1.0850
H27 H 1.1877 0.6269 0.9858
H28 H 1.2652 0.6016 1.0432
C10 C 1.2376(3) 0.5828(2) 1.2317(4)
H29 H 1.2845 0.5667 1.2276
H30 H 1.2169 0.5570 1.2775
H31 H 1.2435 0.6243 1.2596
S2 S 0.79948(4) 0.32471(4) 0.50097(6)
O4 O 0.83692(11) 0.30175(10) 0.42487(17)
O5 O 0.83346(11) 0.30386(10) 0.60567(17)
O6 O 0.72270(11) 0.31157(10) 0.47363(17)
C12 C 0.80736(16) 0.40471(14) 0.5012(2)
C13 C 0.74826(18) 0.44147(17) 0.4843(3)
H32 H 0.7017 0.4240 0.4716
C14 C 0.7559(2) 0.50378(18) 0.4855(4)
H33 H 0.7141 0.5284 0.4748
C15 C 0.82137(17) 0.53139(16) 0.5015(3)
C16 C 0.8803(2) 0.49362(18) 0.5197(4)
H34 H 0.9270 0.5111 0.5332
C17 C 0.87354(19) 0.43050(17) 0.5189(4)
H35 H 0.9151 0.4056 0.5308
C18 C 0.8276(2) 0.60162(17) 0.5010(3)
C19 C 0.7845(2) 0.62630(19) 0.3959(4)
H36 H 0.7904 0.6705 0.3940
H37 H 0.7336 0.6165 0.3876
H38 H 0.8020 0.6076 0.3394
C20 C 0.7987(3) 0.6273(2) 0.5910(4)
H39 H 0.8249 0.6091 0.6566
H40 H 0.7475 0.6176 0.5797
H41 H 0.8051 0.6715 0.5942
C21 C 0.9052(2) 0.62236(19) 0.5153(4)
H42 H 0.9332 0.6092 0.5836
H43 H 0.9067 0.6668 0.5109
H44 H 0.9255 0.6045 0.4607
S3 S 0.46995(4) 0.32950(4) 0.71835(6)
O7 O 0.50911(11) 0.31040(10) 0.82119(17)
O8 O 0.49785(11) 0.29980(11) 0.63664(18)
O9 O 0.39263(10) 0.32191(9) 0.70208(17)
C23 C 0.4851(12) 0.4078(3) 0.7050(18)
C24 C 0.4374(2) 0.4510(2) 0.7135(5)
H45 H 0.3922 0.4394 0.7252
C25 C 0.4528(3) 0.5127(2) 0.7055(5)
H46 H 0.4177 0.5420 0.7119
C26 C 0.51646(17) 0.53151(15) 0.6890(3)
C27 C 0.5672(3) 0.4884(2) 0.6859(5)
H47 H 0.6129 0.5006 0.6770
C28 C 0.5533(3) 0.4275(2) 0.6957(6)
H48 H 0.5901 0.3985 0.6962
C29 C 0.5326(2) 0.59846(17) 0.6778(3)
C30 C 0.4687(2) 0.63189(18) 0.6105(4)
H49 H 0.4565 0.6137 0.5409
H50 H 0.4810 0.6748 0.6051
H51 H 0.4274 0.6286 0.6422
C31 C 0.5489(4) 0.6281(2) 0.7865(5)
H52 H 0.5051 0.6291 0.8125
H53 H 0.5664 0.6696 0.7819
H54 H 0.5857 0.6043 0.8343
C32 C 0.5965(3) 0.6080(3) 0.6316(6)
H55 H 0.6390 0.5895 0.6768
H56 H 0.6047 0.6517 0.6254
H57 H 0.5874 0.5892 0.5626
N1 N 1.42398(13) 0.27162(12) 0.9655(2)
H1 H 1.4487 0.2526 1.0209
H2 H 1.4454 0.2841 0.9173
N2 N 1.32322(13) 0.26225(12) 1.0275(2)
H3 H 1.3484 0.2433 1.0827
H4 H 1.2770 0.2685 1.0209
N3 N 1.31767(14) 0.31071(12) 0.8719(2)
H5 H 1.3392 0.3238 0.8241
H6 H 1.2715 0.3172 0.8647
C11 C 1.35482(16) 0.28131(13) 0.9546(2)
N4 N 1.08717(13) 0.25966(13) 0.6762(2)
H7 H 1.1097 0.2390 0.6367
H8 H 1.1103 0.2713 0.7388
N5 N 0.98315(13) 0.25611(13) 0.5475(2)
H9 H 1.0053 0.2354 0.5074
H10 H 0.9375 0.2654 0.5251
N6 N 0.98496(14) 0.30449(13) 0.7019(2)
H11 H 1.0083 0.3159 0.7645
H12 H 0.9393 0.3137 0.6793
C22 C 1.01864(16) 0.27331(15) 0.6416(2)
N7 N 0.74742(13) 0.24250(12) 0.7292(2)
H13 H 0.7696 0.2237 0.7864
H14 H 0.7706 0.2509 0.6808
N8 N 0.64447(13) 0.24538(13) 0.7888(2)
H15 H 0.5988 0.2549 0.7797
H16 H 0.6672 0.2273 0.8465
N9 N 0.64479(13) 0.28538(13) 0.6291(2)
H17 H 0.5992 0.2949 0.6199
H18 H 0.6678 0.2939 0.5805
C33 C 0.67887(15) 0.25822(14) 0.7158(2)
C34 C 0.5878(6) 0.4309(7) 0.0180(10)
H58 H 0.5478 0.4152 -0.0315
C35 C 0.6276(7) 0.3931(4) 0.0944(11)
H59 H 0.6148 0.3516 0.0971
C36 C 0.6863(6) 0.4161(6) 0.1668(8)
H60 H 0.7135 0.3903 0.2191
C37 C 0.7051(6) 0.4769(7) 0.1629(10)
H61 H 0.7452 0.4927 0.2124
C38 C 0.6653(8) 0.5147(4) 0.0865(14)
H62 H 0.6782 0.5563 0.0838
C39 C 0.6067(7) 0.4917(6) 0.0141(10)
H63 H 0.5795 0.5175 -0.0382
C40 C 0.9839(4) 0.49041(19) 0.2524(4)
H64 H 0.9969 0.5319 0.2651
C41 C 1.0242(2) 0.4530(3) 0.2032(4)
H65 H 1.0647 0.4689 0.1822
C42 C 1.0051(3) 0.3924(3) 0.1846(3)
H66 H 1.0326 0.3668 0.1509
C43 C 0.9459(3) 0.36912(17) 0.2152(3)
H67 H 0.9329 0.3277 0.2025
C44 C 0.9057(2) 0.4065(3) 0.2645(4)
H68 H 0.8652 0.3906 0.2854
C45 C 0.9247(3) 0.4672(2) 0.2831(4)
H69 H 0.8972 0.4927 0.3167
C46? C 0.6672(11) 0.4466(11) 0.1785(15)
H70? H 0.6986 0.4342 0.2419
C47? C 0.6513(9) 0.5079(9) 0.1602(12)
H71? H 0.6719 0.5373 0.2111
C48? C 0.6055(10) 0.5261(6) 0.0675(13)
H72? H 0.5946 0.5679 0.0550
C49? C 0.5754(9) 0.4830(8) -0.0070(11)
H73? H 0.5441 0.4955 -0.0704
C50? C 0.5913(12) 0.4218(7) 0.0113(17)
H74? H 0.5708 0.3924 -0.0396
C51? C 0.6372(14) 0.4036(7) 0.104(2)
H75? H 0.6480 0.3617 0.1166
C52? C 0.6474(11) 0.5203(7) 0.0362(14)
H76? H 0.6442 0.5592 0.0042
C53? C 0.5996(9) 0.4746(11) -0.0073(12)
H77? H 0.5638 0.4823 -0.0690
C54? C 0.6042(13) 0.4178(9) 0.0396(19)
H78? H 0.5716 0.3866 0.0098
C55? C 0.6566(15) 0.4066(7) 0.1298(19)
H79? H 0.6597 0.3677 0.1618
C56? C 0.7044(10) 0.4522(13) 0.1733(12)
H80? H 0.7402 0.4446 0.2350
C57? C 0.6998(9) 0.5091(10) 0.1265(13)
H81? H 0.7324 0.5403 0.1562
C58? C 0.7332(7) 0.4773(8) 0.1975(7)
H82? H 0.7792 0.4841 0.2419
C59? C 0.6991(7) 0.5235(9) 0.1328(8)
H83? H 0.7218 0.5619 0.1330
C60? C 0.6317(8) 0.5136(9) 0.0678(8)
H84? H 0.6084 0.5452 0.0236
C61? C 0.5985(8) 0.4574(9) 0.0675(9)
H85? H 0.5524 0.4507 0.0231
C62? C 0.6326(7) 0.4112(9) 0.1322(9)
H86? H 0.6099 0.3728 0.1320
C63? C 0.6999(7) 0.4211(8) 0.1972(8)
H87? H 0.7233 0.3895 0.2414
C64? C 1.1448(5) 0.4036(3) 0.9958(8)
C65? C 1.0906(5) 0.4349(3) 1.0274(7)
H88? H 1.0458 0.4162 1.0265
C66? C 1.1047(9) 0.4960(6) 1.0611(13)
H89? H 1.0666 0.5213 1.0708
C67? C 1.17526(18) 0.51941(16) 1.0801(3)
C68? C 1.2229(8) 0.4899(7) 1.0479(12)
H90? H 1.2686 0.5080 1.0543
C69? C 1.2110(5) 0.4311(4) 1.0029(8)
H91? H 1.2476 0.4111 0.9781
C70? C 0.494(6) 0.4068(14) 0.719(8)
C71? C 0.4397(11) 0.4398(10) 0.637(2)
H92? H 0.3985 0.4201 0.5964
C72? C 0.4533(11) 0.5000(9) 0.626(2)
H93? H 0.4204 0.5226 0.5747
C73? C 0.51646(17) 0.53151(15) 0.6890(3)
C74? C 0.5617(5) 0.4902(10) 0.7559(11)
H94? H 0.6074 0.5042 0.7931
C75? C 0.5427(11) 0.4295(10) 0.771(2)
H95? H 0.5717 0.4067 0.8257
loop_
_geom_bond_atom_site_label_1
_geom_bond_atom_site_label_2
_geom_bond_site_symmetry_1
_geom_bond_site_symmetry_2
S1 O1 1_555 1_555
S2 O4 1_555 1_555
S3 O7 1_555 1_555
O2 S1 1_555 1_555
O3 S1 1_555 1_555
O5 S2 1_555 1_555
O6 S2 1_555 1_555
O8 S3 1_555 1_555
O9 S3 1_555 1_555
N1 H1 1_555 1_555
H2 N1 1_555 1_555
N2 H3 1_555 1_555
H4 N2 1_555 1_555
N3 H5 1_555 1_555
H6 N3 1_555 1_555
N4 H7 1_555 1_555
H8 N4 1_555 1_555
N5 H9 1_555 1_555
H10 N5 1_555 1_555
N6 H11 1_555 1_555
H12 N6 1_555 1_555
N7 H13 1_555 1_555
H14 N7 1_555 1_555
N8 H15 1_555 1_555
H16 N8 1_555 1_555
N9 H17 1_555 1_555
H18 N9 1_555 1_555
C1 S1 1_555 1_555
C2 C1 1_555 1_555
H19 C2 1_555 1_555
C3 C2 1_555 1_555
H20 C3 1_555 1_555
C4 C3 1_555 1_555
C5 C4 1_555 1_555
H21 C5 1_555 1_555
C6 C1 1_555 1_555
H22 C6 1_555 1_555
C7 C4 1_555 1_555
C8 C7 1_555 1_555
H23 C8 1_555 1_555
H24 C8 1_555 1_555
H25 C8 1_555 1_555
C9 C7 1_555 1_555
H26 C9 1_555 1_555
H27 C9 1_555 1_555
H28 C9 1_555 1_555
C10 C7 1_555 1_555
H29 C10 1_555 1_555
H30 C10 1_555 1_555
H31 C10 1_555 1_555
C11 N1 1_555 1_555
C12 S2 1_555 1_555
C13 C12 1_555 1_555
H32 C13 1_555 1_555
C14 C13 1_555 1_555
H33 C14 1_555 1_555
C15 C14 1_555 1_555
C16 C15 1_555 1_555
H34 C16 1_555 1_555
C17 C12 1_555 1_555
H35 C17 1_555 1_555
C18 C15 1_555 1_555
C19 C18 1_555 1_555
H36 C19 1_555 1_555
H37 C19 1_555 1_555
H38 C19 1_555 1_555
C20 C18 1_555 1_555
H39 C20 1_555 1_555
H40 C20 1_555 1_555
H41 C20 1_555 1_555
C21 C18 1_555 1_555
H42 C21 1_555 1_555
H43 C21 1_555 1_555
H44 C21 1_555 1_555
C22 N4 1_555 1_555
C23 S3 1_555 1_555
C24 C23 1_555 1_555
H45 C24 1_555 1_555
C25 C24 1_555 1_555
H46 C25 1_555 1_555
C26 C25 1_555 1_555
C27 C26 1_555 1_555
H47 C27 1_555 1_555
C28 C23 1_555 1_555
H48 C28 1_555 1_555
C29 C26 1_555 1_555
C30 C29 1_555 1_555
H49 C30 1_555 1_555
H50 C30 1_555 1_555
H51 C30 1_555 1_555
C31 C29 1_555 1_555
H52 C31 1_555 1_555
H53 C31 1_555 1_555
H54 C31 1_555 1_555
C32 C29 1_555 1_555
H55 C32 1_555 1_555
H56 C32 1_555 1_555
H57 C32 1_555 1_555
C33 N7 1_555 1_555
C34 H58 1_555 1_555
C35 C34 1_555 1_555
H59 C35 1_555 1_555
C36 C35 1_555 1_555
H60 C36 1_555 1_555
C37 C36 1_555 1_555
H61 C37 1_555 1_555
C38 C37 1_555 1_555
H62 C38 1_555 1_555
C39 C34 1_555 1_555
H63 C39 1_555 1_555
C40 H64 1_555 1_555
C41 C40 1_555 1_555
H65 C41 1_555 1_555
C42 C41 1_555 1_555
H66 C42 1_555 1_555
C43 C42 1_555 1_555
H67 C43 1_555 1_555
C44 C43 1_555 1_555
H68 C44 1_555 1_555
C45 C40 1_555 1_555
H69 C45 1_555 1_555
N2 C11 1_555 1_555
N3 C11 1_555 1_555
N5 C22 1_555 1_555
N6 C22 1_555 1_555
N8 C33 1_555 1_555
N9 C33 1_555 1_555
C5 C6 1_555 1_555
C16 C17 1_555 1_555
C27 C28 1_555 1_555
C38 C39 1_555 1_555
C44 C45 1_555 1_555

#END
