
#######################################################################
#
#                 Cambridge Crystallographic Data Centre
#                                CCDC 
#
#######################################################################
#
# If this CIF has been generated from an entry in the Cambridge 
# Structural Database, then it will include bibliographic, chemical, 
# crystal, experimental, refinement or atomic coordinate data resulting 
# from the CCDC's data processing and validation procedures.
#
#######################################################################

data_LIVHUV
_chemical_formula_moiety         'C66 H16 F30 N6,3.48(C2 H3 N1),0.52(H2 O1)'
_chemical_name_systematic        
'5,10,15,20,25,30-hexakis(Pentafluorophenyl)[28]hexaphyrin(1.1.1.1.1.1) acetonitrile solvate hydrate'
_symmetry_cell_setting           triclinic
_symmetry_space_group_name_H-M   'P -1'
_symmetry_Int_Tables_number      2
_space_group_name_Hall           '-P 1'
loop_
_symmetry_equiv_pos_site_id
_symmetry_equiv_pos_as_xyz
1 x,y,z
2 -x,-y,-z
_cell_length_a                   11.1103(2)
_cell_length_b                   13.0539(2)
_cell_length_c                   24.4403(4)
_cell_angle_alpha                97.7830(10)
_cell_angle_beta                 95.1724(10)
_cell_angle_gamma                107.0555(10)
_cell_volume                     3325.83
_exptl_crystal_colour            violet
_exptl_crystal_description       prism
_cell_formula_units_Z            2
loop_
_atom_site_label
_atom_site_type_symbol
_atom_site_fract_x
_atom_site_fract_y
_atom_site_fract_z
F1 F 0.7429(3) 0.7927(2) 0.31118(10)
F2 F 0.8974(3) 0.9975(2) 0.32337(12)
F3 F 1.0896(3) 1.0464(2) 0.26229(13)
F4 F 1.1267(3) 0.8865(3) 0.18622(13)
F5 F 0.9796(2) 0.6807(2) 0.17775(11)
F6 F 0.3233(2) 0.4894(2) 0.10904(10)
F7 F 0.1367(3) 0.4798(2) 0.03005(11)
F8 F 0.0667(3) 0.3150(2) -0.05998(11)
F9 F 0.1904(3) 0.1654(2) -0.06954(11)
F10 F 0.3759(2) 0.1721(2) 0.00982(10)
F11 F 0.5788(2) 0.0347(2) 0.04681(10)
F12 F 0.7851(3) 0.0671(3) -0.00572(11)
F13 F 1.0185(3) 0.1080(3) 0.05336(13)
F14 F 1.0410(3) 0.1078(3) 0.16431(12)
F15 F 0.8338(2) 0.0690(2) 0.21740(10)
F16 F 0.1706(2) -0.4152(2) 0.16725(11)
F17 F 0.1202(3) -0.6312(2) 0.16403(13)
F18 F 0.2289(3) -0.7065(2) 0.24731(12)
F19 F 0.3918(3) -0.5642(2) 0.33268(11)
F20 F 0.4444(3) -0.3506(2) 0.33503(11)
F21 F 0.2793(2) -0.0380(2) 0.46978(10)
F22 F 0.1621(3) 0.0213(2) 0.55385(11)
F23 F 0.0496(3) 0.1790(2) 0.54914(11)
F24 F 0.0539(3) 0.2768(2) 0.45741(13)
F25 F 0.1618(2) 0.2132(2) 0.37085(11)
F26 F 0.7690(3) 0.2567(2) 0.43525(10)
F27 F 0.8503(3) 0.3013(3) 0.54539(11)
F28 F 0.8057(3) 0.4682(2) 0.61012(11)
F29 F 0.6762(3) 0.5907(2) 0.56355(11)
F30 F 0.5952(3) 0.5472(2) 0.45393(10)
N1 N 0.6224(3) 0.4533(3) 0.18198(15)
H1 H 0.6176 0.4087 0.2062
N2 N 0.5447(3) 0.1979(3) 0.14527(13)
H2 H 0.6251 0.2369 0.1479
N3 N 0.4481(3) -0.0951(3) 0.21518(13)
N4 N 0.3128(3) -0.0891(3) 0.30015(13)
H3 H 0.3651 -0.0457 0.2820
N5 N 0.4630(3) 0.2250(3) 0.38325(14)
H4 H 0.4647 0.2383 0.4196
N6 N 0.6915(3) 0.4735(3) 0.29654(14)
C1 C 0.7021(4) 0.5579(4) 0.19044(18)
C2 C 0.6858(4) 0.5995(4) 0.13949(18)
H5 H 0.7332 0.6687 0.1324
C3 C 0.5916(4) 0.5236(4) 0.10312(19)
H6 H 0.5586 0.5312 0.0672
C4 C 0.5507(4) 0.4279(4) 0.13028(18)
C5 C 0.4545(4) 0.3320(4) 0.10917(17)
C6 C 0.4432(4) 0.2324(3) 0.12933(17)
C7 C 0.3330(4) 0.1474(4) 0.13168(17)
H7 H 0.2482 0.1475 0.1222
C8 C 0.3682(4) 0.0635(4) 0.15004(16)
H8 H 0.3122 -0.0024 0.1571
C9 C 0.5023(4) 0.0931(3) 0.15655(16)
C10 C 0.5818(4) 0.0268(3) 0.16130(16)
C11 C 0.5457(4) -0.0695(3) 0.18323(17)
C12 C 0.5914(4) -0.1621(4) 0.17124(18)
H9 H 0.6609 -0.1649 0.1518
C13 C 0.5167(4) -0.2437(4) 0.19296(18)
H10 H 0.5204 -0.3160 0.1900
C14 C 0.4298(4) -0.1998(3) 0.22166(17)
C15 C 0.3380(4) -0.2557(3) 0.25347(16)
C16 C 0.2790(4) -0.2013(3) 0.28904(16)
C17 C 0.1873(4) -0.2389(3) 0.32528(17)
H11 H 0.1451 -0.3129 0.3269
C18 C 0.1706(4) -0.1519(3) 0.35682(17)
H12 H 0.1133 -0.1547 0.3836
C19 C 0.2549(4) -0.0534(4) 0.34295(17)
C20 C 0.2847(4) 0.0539(3) 0.36802(16)
C21 C 0.3786(4) 0.1370(4) 0.34801(18)
C22 C 0.4057(4) 0.1465(3) 0.29366(17)
H13 H 0.3627 0.0973 0.2607
C23 C 0.5068(4) 0.2411(4) 0.29668(18)
H14 H 0.5436 0.2681 0.2658
C24 C 0.5455(4) 0.2901(3) 0.35291(18)
C25 C 0.6441(4) 0.3827(3) 0.37881(17)
C26 C 0.7165(4) 0.4638(3) 0.35259(18)
C27 C 0.8215(4) 0.5565(3) 0.37972(18)
H15 H 0.8583 0.5696 0.4176
C28 C 0.8579(4) 0.6206(4) 0.34225(18)
H16 H 0.9254 0.6872 0.3483
C29 C 0.7756(4) 0.5696(3) 0.29096(18)
C30 C 0.7755(4) 0.6128(4) 0.24012(18)
C31 C 0.8560(4) 0.7288(4) 0.24430(17)
C32 C 0.8381(4) 0.8116(4) 0.28022(18)
C33 C 0.9164(5) 0.9180(5) 0.2870(2)
C34 C 1.0124(5) 0.9444(4) 0.2559(2)
C35 C 1.0324(5) 0.8646(5) 0.2173(2)
C36 C 0.9547(4) 0.7572(4) 0.21270(19)
C37 C 0.3565(4) 0.3298(4) 0.06353(18)
C38 C 0.2934(4) 0.4084(4) 0.06535(19)
C39 C 0.1965(4) 0.4042(4) 0.0252(2)
C40 C 0.1606(4) 0.3215(4) -0.0199(2)
C41 C 0.2229(4) 0.2444(4) -0.02421(19)
C42 C 0.3185(4) 0.2486(4) 0.01683(19)
C43 C 0.6989(4) 0.0514(3) 0.13410(17)
C44 C 0.6922(4) 0.0535(4) 0.07717(19)
C45 C 0.7977(5) 0.0707(4) 0.0501(2)
C46 C 0.9143(5) 0.0895(4) 0.0796(2)
C47 C 0.9250(4) 0.0887(4) 0.1354(2)
C48 C 0.8177(4) 0.0691(4) 0.16201(19)
C49 C 0.3098(4) -0.3756(4) 0.25105(19)
C50 C 0.2268(5) -0.4502(4) 0.20860(19)
C51 C 0.2001(5) -0.5605(4) 0.2069(2)
C52 C 0.2555(5) -0.5991(4) 0.2483(2)
C53 C 0.3384(5) -0.5273(4) 0.2915(2)
C54 C 0.3633(5) -0.4183(4) 0.29173(19)
C55 C 0.2239(4) 0.0839(4) 0.41618(17)
C56 C 0.2197(4) 0.0373(4) 0.46392(19)
C57 C 0.1624(4) 0.0685(4) 0.50825(19)
C58 C 0.1084(5) 0.1485(4) 0.5064(2)
C59 C 0.1087(4) 0.1981(4) 0.4598(2)
C60 C 0.1658(4) 0.1654(4) 0.41574(19)
C61 C 0.6794(4) 0.4004(3) 0.44077(17)
C62 C 0.7438(4) 0.3398(4) 0.46639(19)
C63 C 0.7858(5) 0.3616(4) 0.5223(2)
C64 C 0.7624(5) 0.4464(4) 0.5554(2)
C65 C 0.6988(5) 0.5066(4) 0.5319(2)
C66 C 0.6572(4) 0.4827(4) 0.47554(19)
N7 N 0.5127(4) 0.7884(4) 0.4928(2)
C67 C 0.5254(5) 0.8941(5) 0.4086(2)
H17 H 0.5763 0.8673 0.3828
H18 H 0.5663 0.9719 0.4223
H19 H 0.4402 0.8826 0.3891
C68 C 0.5155(5) 0.8357(5) 0.4551(3)
N8 N 0.4090(5) 0.6400(4) 0.0174(2)
C69 C 0.3598(6) 0.6961(5) 0.0421(2)
C70 C 0.3002(6) 0.7628(5) 0.0733(2)
H20 H 0.2885 0.7399 0.1095
H21 H 0.2173 0.7555 0.0528
H22 H 0.3538 0.8388 0.0790
C71 C 0.9214(8) 0.2998(7) 0.3122(3)
H23 H 0.8436 0.2604 0.3258
H24 H 0.9650 0.3671 0.3384
H25 H 0.9774 0.2542 0.3089
C72 C 0.8912(12) 0.3240(11) 0.2615(6)
N9 N 0.8330(10) 0.3144(7) 0.2126(5)
O1 O 0.7920(9) 0.3215(7) 0.1174(7)
C73? C 0.8760(10) 0.4438(8) 0.0982(4)
H26? H 0.7998 0.4546 0.0797
H27? H 0.9484 0.5098 0.1010
H28? H 0.8619 0.4281 0.1356
N10? N 0.9239(8) 0.2855(8) 0.0408(4)
C74? C 0.9012(9) 0.3585(10) 0.0678(5)
loop_
_geom_bond_atom_site_label_1
_geom_bond_atom_site_label_2
_geom_bond_site_symmetry_1
_geom_bond_site_symmetry_2
F1 C32 1_555 1_555
F2 C33 1_555 1_555
F3 C34 1_555 1_555
F4 C35 1_555 1_555
F5 C36 1_555 1_555
F6 C38 1_555 1_555
F7 C39 1_555 1_555
F8 C40 1_555 1_555
F9 C41 1_555 1_555
F10 C42 1_555 1_555
F11 C44 1_555 1_555
F12 C45 1_555 1_555
F13 C46 1_555 1_555
F14 C47 1_555 1_555
F15 C48 1_555 1_555
F16 C50 1_555 1_555
F17 C51 1_555 1_555
F18 C52 1_555 1_555
F19 C53 1_555 1_555
F20 C54 1_555 1_555
F21 C56 1_555 1_555
F22 C57 1_555 1_555
F23 C58 1_555 1_555
F24 C59 1_555 1_555
F25 C60 1_555 1_555
F26 C62 1_555 1_555
F27 C63 1_555 1_555
F28 C64 1_555 1_555
F29 C65 1_555 1_555
F30 C66 1_555 1_555
N1 H1 1_555 1_555
N2 H2 1_555 1_555
N3 C11 1_555 1_555
N4 H3 1_555 1_555
N5 H4 1_555 1_555
N6 C26 1_555 1_555
C1 N1 1_555 1_555
C2 C1 1_555 1_555
H5 C2 1_555 1_555
C3 C2 1_555 1_555
H6 C3 1_555 1_555
C4 N1 1_555 1_555
C5 C4 1_555 1_555
C6 N2 1_555 1_555
C7 C6 1_555 1_555
H7 C7 1_555 1_555
C8 C7 1_555 1_555
H8 C8 1_555 1_555
C9 N2 1_555 1_555
C10 C9 1_555 1_555
C11 C10 1_555 1_555
C12 C11 1_555 1_555
H9 C12 1_555 1_555
C13 C12 1_555 1_555
H10 C13 1_555 1_555
C14 N3 1_555 1_555
C15 C14 1_555 1_555
C16 N4 1_555 1_555
C17 C16 1_555 1_555
H11 C17 1_555 1_555
C18 C17 1_555 1_555
H12 C18 1_555 1_555
C19 N4 1_555 1_555
C20 C19 1_555 1_555
C21 N5 1_555 1_555
C22 C21 1_555 1_555
H13 C22 1_555 1_555
C23 C22 1_555 1_555
H14 C23 1_555 1_555
C24 N5 1_555 1_555
C25 C24 1_555 1_555
C26 C25 1_555 1_555
C27 C26 1_555 1_555
H15 C27 1_555 1_555
C28 C27 1_555 1_555
H16 C28 1_555 1_555
C29 N6 1_555 1_555
C30 C1 1_555 1_555
C31 C30 1_555 1_555
C32 C31 1_555 1_555
C33 C32 1_555 1_555
C34 C33 1_555 1_555
C35 C34 1_555 1_555
C36 C31 1_555 1_555
C37 C5 1_555 1_555
C38 C37 1_555 1_555
C39 C38 1_555 1_555
C40 C39 1_555 1_555
C41 C40 1_555 1_555
C42 C37 1_555 1_555
C43 C10 1_555 1_555
C44 C43 1_555 1_555
C45 C44 1_555 1_555
C46 C45 1_555 1_555
C47 C46 1_555 1_555
C48 C43 1_555 1_555
C49 C15 1_555 1_555
C50 C49 1_555 1_555
C51 C50 1_555 1_555
C52 C51 1_555 1_555
C53 C52 1_555 1_555
C54 C49 1_555 1_555
C55 C20 1_555 1_555
C56 C55 1_555 1_555
C57 C56 1_555 1_555
C58 C57 1_555 1_555
C59 C58 1_555 1_555
C60 C55 1_555 1_555
C61 C25 1_555 1_555
C62 C61 1_555 1_555
C63 C62 1_555 1_555
C64 C63 1_555 1_555
C65 C64 1_555 1_555
C66 C61 1_555 1_555
N7 C68 1_555 1_555
C67 H17 1_555 1_555
H18 C67 1_555 1_555
H19 C67 1_555 1_555
C68 C67 1_555 1_555
N8 C69 1_555 1_555
C69 C70 1_555 1_555
C70 H20 1_555 1_555
H21 C70 1_555 1_555
H22 C70 1_555 1_555
C71 H23 1_555 1_555
H24 C71 1_555 1_555
H25 C71 1_555 1_555
C72 C71 1_555 1_555
N9 C72 1_555 1_555
C3 C4 1_555 1_555
C5 C6 1_555 1_555
C8 C9 1_555 1_555
C13 C14 1_555 1_555
C15 C16 1_555 1_555
C18 C19 1_555 1_555
C20 C21 1_555 1_555
C23 C24 1_555 1_555
C28 C29 1_555 1_555
C29 C30 1_555 1_555
C35 C36 1_555 1_555
C41 C42 1_555 1_555
C47 C48 1_555 1_555
C53 C54 1_555 1_555
C59 C60 1_555 1_555
C65 C66 1_555 1_555

#END
