
#######################################################################
#
#                 Cambridge Crystallographic Data Centre
#                                CCDC 
#
#######################################################################
#
# If this CIF has been generated from an entry in the Cambridge 
# Structural Database, then it will include bibliographic, chemical, 
# crystal, experimental, refinement or atomic coordinate data resulting 
# from the CCDC's data processing and validation procedures.
#
#######################################################################

data_LIVJOR
_chemical_formula_moiety         'C102 H40 F30 N6,2.37(C6 H14)'
_chemical_name_systematic        
2,3,12,13,22,23-Hexaphenyl-5,10,15,20,25,30-hexakis(pentafluorophenyl)[28]hexaphyrin(1.1.1.1.1.1)
_symmetry_cell_setting           triclinic
_symmetry_space_group_name_H-M   'P -1'
_symmetry_Int_Tables_number      2
_space_group_name_Hall           '-P 1'
loop_
_symmetry_equiv_pos_site_id
_symmetry_equiv_pos_as_xyz
1 x,y,z
2 -x,-y,-z
_cell_length_a                   12.8603(4)
_cell_length_b                   16.1857(5)
_cell_length_c                   23.6408(7)
_cell_angle_alpha                86.7872(16)
_cell_angle_beta                 89.7270(15)
_cell_angle_gamma                83.8452(15)
_cell_volume                     4884.84
_exptl_crystal_colour            violet
_exptl_crystal_description       prism
_cell_formula_units_Z            2
loop_
_atom_site_label
_atom_site_type_symbol
_atom_site_fract_x
_atom_site_fract_y
_atom_site_fract_z
C1 C 0.6902(5) 0.7593(3) 0.0909(2)
C2 C 0.6064(5) 0.7644(4) 0.0496(3)
C3 C 0.5276(5) 0.7224(3) 0.0735(2)
C4 C 0.5637(5) 0.6944(4) 0.1307(3)
C5 C 0.5115(5) 0.6518(3) 0.1765(3)
C6 C 0.5387(5) 0.6611(4) 0.2317(3)
C7 C 0.5048(5) 0.6209(4) 0.2839(3)
H1 H 0.4572 0.5799 0.2861
C8 C 0.5501(5) 0.6499(4) 0.3288(3)
H2 H 0.5414 0.6327 0.3674
C9 C 0.6160(5) 0.7136(4) 0.3065(3)
C10 C 0.6713(5) 0.7667(4) 0.3345(3)
C11 C 0.7120(5) 0.8373(4) 0.3050(2)
C12 C 0.6642(5) 0.8965(4) 0.2644(2)
C13 C 0.7382(5) 0.9546(4) 0.2515(3)
C14 C 0.8269(5) 0.9313(4) 0.2848(3)
C15 C 0.9207(5) 0.9691(4) 0.2928(3)
C16 C 1.0055(5) 0.9317(4) 0.3250(3)
C17 C 1.0950(5) 0.9663(4) 0.3477(3)
H3 H 1.1114 1.0220 0.3422
C18 C 1.1503(5) 0.9037(4) 0.3783(3)
H4 H 1.2118 0.9083 0.3995
C19 C 1.1004(5) 0.8286(4) 0.3734(3)
C20 C 1.1336(5) 0.7459(4) 0.3933(3)
C21 C 1.1030(5) 0.6799(4) 0.3645(3)
C22 C 1.1108(5) 0.5901(4) 0.3777(3)
C23 C 1.0578(5) 0.5534(4) 0.3365(3)
C24 C 1.0126(5) 0.6195(4) 0.2976(3)
C25 C 0.9480(5) 0.6207(4) 0.2505(2)
C26 C 0.9366(5) 0.6906(3) 0.2093(2)
C27 C 1.0029(5) 0.7510(4) 0.1939(3)
H5 H 1.0678 0.7574 0.2113
C28 C 0.9570(5) 0.8002(4) 0.1487(3)
H6 H 0.9842 0.8468 0.1301
C29 C 0.8623(5) 0.7682(4) 0.1355(3)
C30 C 0.7861(5) 0.7918(3) 0.0915(2)
C31 C 0.4312(5) 0.5965(3) 0.1647(2)
C32 C 0.3290(5) 0.6112(4) 0.1819(2)
C33 C 0.2556(5) 0.5583(4) 0.1712(3)
C34 C 0.2823(5) 0.4887(4) 0.1432(3)
C35 C 0.3840(6) 0.4721(4) 0.1254(3)
C36 C 0.4552(5) 0.5261(4) 0.1364(3)
C37 C 0.6872(5) 0.7537(4) 0.3975(2)
C38 C 0.6079(5) 0.7740(4) 0.4367(3)
C39 C 0.6243(5) 0.7651(4) 0.4934(3)
C40 C 0.7226(6) 0.7375(4) 0.5144(3)
C41 C 0.8020(6) 0.7160(4) 0.4777(3)
C42 C 0.7848(5) 0.7258(4) 0.4206(3)
C43 C 0.9302(5) 1.0540(4) 0.2661(3)
C44 C 1.0022(6) 1.0658(5) 0.2239(3)
C45 C 1.0055(7) 1.1415(6) 0.1958(3)
C46 C 0.9325(9) 1.2069(6) 0.2093(4)
C47 C 0.8649(8) 1.1988(5) 0.2520(4)
C48 C 0.8633(6) 1.1227(4) 0.2798(3)
C49 C 1.2059(5) 0.7319(4) 0.4419(3)
C50 C 1.3057(5) 0.6929(4) 0.4376(3)
C51 C 1.3707(5) 0.6734(4) 0.4836(3)
C52 C 1.3359(6) 0.6955(4) 0.5358(3)
C53 C 1.2394(6) 0.7367(4) 0.5412(3)
C54 C 1.1763(6) 0.7548(4) 0.4953(3)
C55 C 0.8800(5) 0.5532(4) 0.2433(3)
C56 C 0.8110(5) 0.5292(4) 0.2851(3)
C57 C 0.7403(5) 0.4731(4) 0.2780(3)
C58 C 0.7354(5) 0.4400(4) 0.2264(4)
C59 C 0.8029(5) 0.4596(4) 0.1840(3)
C60 C 0.8739(5) 0.5146(4) 0.1929(3)
C61 C 0.8162(5) 0.8524(4) 0.0469(2)
C62 C 0.9072(5) 0.8394(4) 0.0159(3)
C63 C 0.9363(5) 0.8975(5) -0.0240(3)
C64 C 0.8752(6) 0.9702(4) -0.0345(3)
C65 C 0.7830(5) 0.9860(4) -0.0067(3)
C66 C 0.7552(5) 0.9275(4) 0.0343(3)
N1 N 0.6598(4) 0.7157(3) 0.1400(2)
N2 N 0.6098(4) 0.7146(3) 0.2488(2)
H7 H 0.6458 0.7449 0.2255
N3 N 0.8091(4) 0.8603(3) 0.3169(2)
H8 H 0.8536 0.8336 0.3415
N4 N 1.0118(4) 0.8467(3) 0.3419(2)
N5 N 1.0459(4) 0.6920(3) 0.3145(2)
H9 H 1.0327 0.7405 0.2958
N6 N 0.8533(4) 0.7030(3) 0.1739(2)
H10 H 0.8001 0.6730 0.1754
F1 F 0.2979(3) 0.6803(2) 0.21004(15)
F2 F 0.1555(3) 0.5769(2) 0.18836(16)
F3 F 0.2108(3) 0.4360(2) 0.13392(17)
F4 F 0.4118(3) 0.4006(3) 0.09968(18)
F5 F 0.5545(3) 0.5061(2) 0.11770(16)
F6 F 0.5113(3) 0.8013(2) 0.41738(14)
F7 F 0.5452(3) 0.7848(2) 0.52989(15)
F8 F 0.7380(3) 0.7288(2) 0.57043(15)
F9 F 0.8979(3) 0.6866(2) 0.49842(15)
F10 F 0.8663(3) 0.7045(2) 0.38610(14)
F11 F 1.0681(3) 1.0022(3) 0.20786(17)
F12 F 1.0751(4) 1.1522(3) 0.1542(2)
F13 F 0.9344(4) 1.2825(3) 0.1805(2)
F14 F 0.7980(4) 1.2639(3) 0.2669(2)
F15 F 0.7934(3) 1.1151(2) 0.32200(17)
F16 F 1.3424(3) 0.6689(2) 0.38644(14)
F17 F 1.4673(3) 0.6328(2) 0.47736(15)
F18 F 1.3997(3) 0.6764(2) 0.58124(15)
F19 F 1.2052(3) 0.7591(2) 0.59341(15)
F20 F 1.0788(3) 0.7924(2) 0.50329(15)
F21 F 0.8113(3) 0.5629(2) 0.33620(15)
F22 F 0.6755(3) 0.4526(2) 0.31934(18)
F23 F 0.6633(3) 0.3864(2) 0.21657(18)
F24 F 0.8007(3) 0.4225(2) 0.13435(17)
F25 F 0.9417(3) 0.5298(2) 0.15062(15)
F26 F 0.9696(3) 0.7670(2) 0.02317(15)
F27 F 1.0282(3) 0.8824(3) -0.05257(16)
F28 F 0.9043(3) 1.0272(3) -0.07495(16)
F29 F 0.7223(3) 1.0570(2) -0.01791(15)
F30 F 0.6658(3) 0.9467(2) 0.06189(14)
C67 C 0.6088(5) 0.8024(4) -0.0090(3)
C68 C 0.6882(5) 0.7756(4) -0.0461(3)
H11 H 0.7402 0.7317 -0.0348
C69 C 0.6897(5) 0.8144(4) -0.1004(3)
H12 H 0.7434 0.7963 -0.1260
C70 C 0.6156(6) 0.8780(4) -0.1173(3)
H13 H 0.6182 0.9044 -0.1542
C71 C 0.5374(5) 0.9032(4) -0.0802(3)
H14 H 0.4856 0.9471 -0.0919
C72 C 0.5325(5) 0.8666(4) -0.0272(3)
H15 H 0.4773 0.8846 -0.0024
C73 C 0.4269(5) 0.7119(4) 0.0489(2)
C74 C 0.4210(5) 0.6703(4) 0.0001(3)
H16 H 0.4840 0.6483 -0.0173
C75 C 0.3266(6) 0.6593(4) -0.0247(3)
H17 H 0.3252 0.6307 -0.0586
C76 C 0.2346(5) 0.6903(4) 0.0005(3)
H18 H 0.1692 0.6827 -0.0159
C77 C 0.2376(5) 0.7323(4) 0.0492(3)
H19 H 0.1747 0.7546 0.0664
C78 C 0.3328(5) 0.7415(4) 0.0728(3)
H20 H 0.3340 0.7696 0.1070
C79 C 0.5587(5) 0.8996(4) 0.2415(3)
C80 C 0.5397(5) 0.9066(4) 0.1841(3)
H21 H 0.5963 0.9125 0.1588
C81 C 0.4403(5) 0.9053(4) 0.1626(3)
H22 H 0.4294 0.9107 0.1228
C82 C 0.3573(5) 0.8962(4) 0.1980(3)
H23 H 0.2891 0.8948 0.1831
C83 C 0.3744(5) 0.8893(4) 0.2561(3)
H24 H 0.3173 0.8837 0.2811
C84 C 0.4733(5) 0.8903(4) 0.2777(3)
H25 H 0.4840 0.8847 0.3176
C85 C 0.7178(5) 1.0285(4) 0.2108(3)
C86 C 0.7769(5) 1.0361(4) 0.1619(3)
H26 H 0.8303 0.9937 0.1530
C87 C 0.7561(5) 1.1080(4) 0.1259(3)
H27 H 0.7958 1.1137 0.0921
C88 C 0.6798(6) 1.1698(4) 0.1384(3)
H28 H 0.6675 1.2183 0.1139
C89 C 0.6198(5) 1.1613(4) 0.1877(3)
H29 H 0.5665 1.2038 0.1967
C90 C 0.6390(5) 1.0907(4) 0.2229(3)
H30 H 0.5978 1.0843 0.2559
C91 C 1.1723(5) 0.5455(4) 0.4256(3)
C92 C 1.1404(5) 0.5534(4) 0.4812(3)
H31 H 1.0760 0.5848 0.4894
C93 C 1.2031(5) 0.5153(4) 0.5248(3)
H32 H 1.1811 0.5213 0.5629
C94 C 1.2966(6) 0.4689(4) 0.5140(3)
H33 H 1.3386 0.4432 0.5444
C95 C 1.3291(5) 0.4601(4) 0.4585(3)
H34 H 1.3939 0.4289 0.4505
C96 C 1.2662(5) 0.4971(4) 0.4144(3)
H35 H 1.2872 0.4895 0.3763
C97 C 1.0512(5) 0.4640(4) 0.3335(3)
C98 C 1.0245(5) 0.4144(4) 0.3795(3)
H36 H 1.0096 0.4383 0.4148
C99 C 1.0191(5) 0.3297(5) 0.3747(3)
H37 H 0.9974 0.2967 0.4062
C100 C 1.0451(6) 0.2937(5) 0.3245(3)
H38 H 1.0437 0.2355 0.3217
C101 C 1.0733(5) 0.3423(4) 0.2784(3)
H39 H 1.0913 0.3174 0.2437
C102 C 1.0756(5) 0.4266(4) 0.2823(3)
H40 H 1.0939 0.4598 0.2501
C103 C 0.0562(5) 0.5078(4) -0.0041(3)
H41 H 0.0776 0.5393 0.0278
H42 H 0.0618 0.5432 -0.0393
C104 C 0.1321(6) 0.4291(4) -0.0078(3)
H43 H 0.1278 0.3942 0.0277
H44 H 0.1101 0.3970 -0.0392
C105 C 0.2450(6) 0.4456(5) -0.0172(3)
H45 H 0.2501 0.4808 -0.0521
H46 H 0.2887 0.3927 -0.0207
H47 H 0.2692 0.4741 0.0150
C103A C -0.0562(5) 0.4922(4) 0.0041(3)
H41A H -0.0776 0.4607 -0.0278
H42A H -0.0618 0.4568 0.0393
C104A C -0.1321(6) 0.5709(4) 0.0078(3)
H43A H -0.1278 0.6058 -0.0277
H44A H -0.1101 0.6030 0.0392
C105A C -0.2450(6) 0.5544(5) 0.0172(3)
H45A H -0.2501 0.5192 0.0521
H46A H -0.2887 0.6073 0.0207
H47A H -0.2692 0.5259 -0.0150
C106 C 0.4148(13) 0.3910(10) 0.2887(7)
H48 H 0.3573 0.4360 0.2880
H49 H 0.4749 0.4103 0.2682
H50 H 0.4348 0.3749 0.3280
C107 C 0.3830(15) 0.3232(11) 0.2630(8)
H51 H 0.4269 0.3110 0.2294
H52 H 0.3094 0.3356 0.2504
C108 C 0.393(2) 0.2464(11) 0.3065(6)
H53 H 0.4670 0.2223 0.3120
H54 H 0.3613 0.2595 0.3435
C109 C 0.3300(17) 0.1909(10) 0.2731(8)
H55 H 0.2600 0.2216 0.2661
H56 H 0.3639 0.1846 0.2357
C110 C 0.315(2) 0.1115(13) 0.2953(7)
H57 H 0.3563 0.0706 0.2723
H58 H 0.2403 0.1037 0.2902
C111 C 0.3431(18) 0.0906(14) 0.3573(8)
H59 H 0.3251 0.0346 0.3684
H60 H 0.3040 0.1311 0.3809
H61 H 0.4183 0.0927 0.3627
C112 C 0.9598(19) -0.0040(19) 0.4953(14)
C113 C 0.863(2) -0.0990(17) 0.5351(10)
H62 H 0.8955 -0.0672 0.5629
H63 H 0.8918 -0.1576 0.5393
H64 H 0.7872 -0.0946 0.5414
C114 C 0.884(3) -0.065(2) 0.4775(13)
H65 H 0.8208 -0.0371 0.4585
H66 H 0.9186 -0.1085 0.4533
H67 H 0.9430 0.0423 0.4666
H68 H 0.9250 0.0160 0.5302
C112A C 1.0402(19) 0.0040(19) 0.5047(14)
C113A C 1.137(2) 0.0990(17) 0.4649(10)
H62A H 1.1045 0.0672 0.4371
H63A H 1.1082 0.1576 0.4607
H64A H 1.2128 0.0946 0.4586
C114A C 1.116(3) 0.065(2) 0.5225(13)
H65A H 1.1792 0.0371 0.5415
H66A H 1.0814 0.1085 0.5467
H67A H 1.0570 -0.0423 0.5334
H68A H 1.0750 -0.0160 0.4698
C115? C 0.5771(19) 0.0126(12) 0.3997(9)
H69? H 0.5215 -0.0164 0.3842
H70? H 0.6450 -0.0109 0.3854
H71? H 0.5655 0.0719 0.3881
C116? C 0.576(2) 0.0024(14) 0.4602(13)
H72? H 0.5956 -0.0557 0.4749
H73? H 0.5104 0.0263 0.4776
C117? C 0.6618(17) 0.0554(12) 0.4630(14)
H74? H 0.6754 0.0726 0.5016
H75? H 0.6555 0.1037 0.4353
C118? C 0.736(2) -0.0173(17) 0.4450(11)
H76? H 0.7271 -0.0702 0.4668
H77? H 0.7350 -0.0248 0.4038
C119? C 0.8201(19) 0.0226(10) 0.4630(8)
H78? H 0.8544 0.0514 0.4312
H79? H 0.8000 0.0619 0.4927
C120? C 0.880(3) -0.048(2) 0.4839(16)
H80? H 0.9458 -0.0324 0.4992
H81? H 0.8960 -0.0858 0.4534
H82? H 0.8420 -0.0756 0.5141
loop_
_geom_bond_atom_site_label_1
_geom_bond_atom_site_label_2
_geom_bond_site_symmetry_1
_geom_bond_site_symmetry_2
C1 C2 1_555 1_555
C2 C3 1_555 1_555
C3 C4 1_555 1_555
C4 C5 1_555 1_555
C5 C6 1_555 1_555
C6 C7 1_555 1_555
C7 H1 1_555 1_555
C8 C7 1_555 1_555
H2 C8 1_555 1_555
C9 C8 1_555 1_555
C10 C9 1_555 1_555
C11 C10 1_555 1_555
C12 C11 1_555 1_555
C13 C12 1_555 1_555
C14 C13 1_555 1_555
C15 C14 1_555 1_555
C16 C15 1_555 1_555
C17 C16 1_555 1_555
H3 C17 1_555 1_555
C18 C17 1_555 1_555
H4 C18 1_555 1_555
C19 C18 1_555 1_555
C20 C19 1_555 1_555
C21 C20 1_555 1_555
C22 C21 1_555 1_555
C23 C22 1_555 1_555
C24 C23 1_555 1_555
C25 C24 1_555 1_555
C26 C25 1_555 1_555
C27 C26 1_555 1_555
H5 C27 1_555 1_555
C28 C27 1_555 1_555
H6 C28 1_555 1_555
C29 C28 1_555 1_555
C30 C1 1_555 1_555
C31 C5 1_555 1_555
C32 C31 1_555 1_555
C33 C32 1_555 1_555
C34 C33 1_555 1_555
C35 C34 1_555 1_555
C36 C31 1_555 1_555
C37 C10 1_555 1_555
C38 C37 1_555 1_555
C39 C38 1_555 1_555
C40 C39 1_555 1_555
C41 C40 1_555 1_555
C42 C37 1_555 1_555
C43 C15 1_555 1_555
C44 C43 1_555 1_555
C45 C44 1_555 1_555
C46 C45 1_555 1_555
C47 C46 1_555 1_555
C48 C43 1_555 1_555
C49 C20 1_555 1_555
C50 C49 1_555 1_555
C51 C50 1_555 1_555
C52 C51 1_555 1_555
C53 C52 1_555 1_555
C54 C49 1_555 1_555
C55 C25 1_555 1_555
C56 C55 1_555 1_555
C57 C56 1_555 1_555
C58 C57 1_555 1_555
C59 C58 1_555 1_555
C60 C55 1_555 1_555
C61 C30 1_555 1_555
C62 C61 1_555 1_555
C63 C62 1_555 1_555
C64 C63 1_555 1_555
C65 C64 1_555 1_555
C66 C61 1_555 1_555
N1 C1 1_555 1_555
N2 C6 1_555 1_555
H7 N2 1_555 1_555
N3 C11 1_555 1_555
H8 N3 1_555 1_555
N4 C16 1_555 1_555
N5 C21 1_555 1_555
H9 N5 1_555 1_555
N6 C26 1_555 1_555
H10 N6 1_555 1_555
F1 C32 1_555 1_555
F2 C33 1_555 1_555
F3 C34 1_555 1_555
F4 C35 1_555 1_555
F5 C36 1_555 1_555
F6 C38 1_555 1_555
F7 C39 1_555 1_555
F8 C40 1_555 1_555
F9 C41 1_555 1_555
F10 C42 1_555 1_555
F11 C44 1_555 1_555
F12 C45 1_555 1_555
F13 C46 1_555 1_555
F14 C47 1_555 1_555
F15 C48 1_555 1_555
F16 C50 1_555 1_555
F17 C51 1_555 1_555
F18 C52 1_555 1_555
F19 C53 1_555 1_555
F20 C54 1_555 1_555
F21 C56 1_555 1_555
F22 C57 1_555 1_555
F23 C58 1_555 1_555
F24 C59 1_555 1_555
F25 C60 1_555 1_555
F26 C62 1_555 1_555
F27 C63 1_555 1_555
F28 C64 1_555 1_555
F29 C65 1_555 1_555
F30 C66 1_555 1_555
C67 C2 1_555 1_555
C68 C67 1_555 1_555
H11 C68 1_555 1_555
C69 C68 1_555 1_555
H12 C69 1_555 1_555
C70 C69 1_555 1_555
H13 C70 1_555 1_555
C71 C70 1_555 1_555
H14 C71 1_555 1_555
C72 C67 1_555 1_555
H15 C72 1_555 1_555
C73 C3 1_555 1_555
C74 C73 1_555 1_555
H16 C74 1_555 1_555
C75 C74 1_555 1_555
H17 C75 1_555 1_555
C76 C75 1_555 1_555
H18 C76 1_555 1_555
C77 C76 1_555 1_555
H19 C77 1_555 1_555
C78 C73 1_555 1_555
H20 C78 1_555 1_555
C79 C12 1_555 1_555
C80 C79 1_555 1_555
H21 C80 1_555 1_555
C81 C80 1_555 1_555
H22 C81 1_555 1_555
C82 C81 1_555 1_555
H23 C82 1_555 1_555
C83 C82 1_555 1_555
H24 C83 1_555 1_555
C84 C79 1_555 1_555
H25 C84 1_555 1_555
C85 C13 1_555 1_555
C86 C85 1_555 1_555
H26 C86 1_555 1_555
C87 C86 1_555 1_555
H27 C87 1_555 1_555
C88 C87 1_555 1_555
H28 C88 1_555 1_555
C89 C88 1_555 1_555
H29 C89 1_555 1_555
C90 C85 1_555 1_555
H30 C90 1_555 1_555
C91 C22 1_555 1_555
C92 C91 1_555 1_555
H31 C92 1_555 1_555
C93 C92 1_555 1_555
H32 C93 1_555 1_555
C94 C93 1_555 1_555
H33 C94 1_555 1_555
C95 C94 1_555 1_555
H34 C95 1_555 1_555
C96 C91 1_555 1_555
H35 C96 1_555 1_555
C97 C23 1_555 1_555
C98 C97 1_555 1_555
H36 C98 1_555 1_555
C99 C98 1_555 1_555
H37 C99 1_555 1_555
C100 C99 1_555 1_555
H38 C100 1_555 1_555
C101 C100 1_555 1_555
H39 C101 1_555 1_555
C102 C97 1_555 1_555
H40 C102 1_555 1_555
C103 H41 1_555 1_555
H42 C103 1_555 1_555
C104 C103 1_555 1_555
H43 C104 1_555 1_555
H44 C104 1_555 1_555
C105 C104 1_555 1_555
H45 C105 1_555 1_555
H46 C105 1_555 1_555
H47 C105 1_555 1_555
C106 H48 1_555 1_555
H49 C106 1_555 1_555
H50 C106 1_555 1_555
C107 C106 1_555 1_555
H51 C107 1_555 1_555
H52 C107 1_555 1_555
C108 C107 1_555 1_555
H53 C108 1_555 1_555
H54 C108 1_555 1_555
C109 C108 1_555 1_555
H55 C109 1_555 1_555
H56 C109 1_555 1_555
C110 C109 1_555 1_555
H57 C110 1_555 1_555
H58 C110 1_555 1_555
C111 C110 1_555 1_555
H59 C111 1_555 1_555
H60 C111 1_555 1_555
H61 C111 1_555 1_555
C112 C114 1_555 1_555
C113 H62 1_555 1_555
H63 C113 1_555 1_555
H64 C113 1_555 1_555
C114 C113 1_555 1_555
H65 C114 1_555 1_555
H66 C114 1_555 1_555
H67 C112 1_555 1_555
H68 C112 1_555 1_555
C103A C103 1_555 1_555
H41A C103A 1_555 1_555
H42A C103A 1_555 1_555
C104A C103A 1_555 1_555
H43A C104A 1_555 1_555
H44A C104A 1_555 1_555
C105A C104A 1_555 1_555
H45A C105A 1_555 1_555
H46A C105A 1_555 1_555
H47A C105A 1_555 1_555
C112A C112 1_555 1_555
C113A H62A 1_555 1_555
H63A C113A 1_555 1_555
H64A C113A 1_555 1_555
C114A C112A 1_555 1_555
H65A C114A 1_555 1_555
H66A C114A 1_555 1_555
H67A C112A 1_555 1_555
H68A C112A 1_555 1_555
C4 N1 1_555 1_555
C9 N2 1_555 1_555
C14 N3 1_555 1_555
C19 N4 1_555 1_555
C24 N5 1_555 1_555
C29 C30 1_555 1_555
C29 N6 1_555 1_555
C35 C36 1_555 1_555
C41 C42 1_555 1_555
C47 C48 1_555 1_555
C53 C54 1_555 1_555
C59 C60 1_555 1_555
C65 C66 1_555 1_555
C71 C72 1_555 1_555
C77 C78 1_555 1_555
C83 C84 1_555 1_555
C89 C90 1_555 1_555
C95 C96 1_555 1_555
C101 C102 1_555 1_555
C113A C114A 1_555 1_555

#END
