
#######################################################################
#
#                 Cambridge Crystallographic Data Centre
#                                CCDC 
#
#######################################################################
#
# If this CIF has been generated from an entry in the Cambridge 
# Structural Database, then it will include bibliographic, chemical, 
# crystal, experimental, refinement or atomic coordinate data resulting 
# from the CCDC's data processing and validation procedures.
#
#######################################################################

data_LIVJIL
_chemical_formula_moiety         'C68 H26 F20 N4'
_chemical_name_systematic        
5,10,15,20-tetrakis(pentafluorophenyl)-2,3,12,13-tetraphenylporphyrin
_symmetry_cell_setting           triclinic
_symmetry_space_group_name_H-M   'P -1'
_symmetry_Int_Tables_number      2
_space_group_name_Hall           '-P 1'
loop_
_symmetry_equiv_pos_site_id
_symmetry_equiv_pos_as_xyz
1 x,y,z
2 -x,-y,-z
_cell_length_a                   8.6134(5)
_cell_length_b                   12.3980(7)
_cell_length_c                   13.7461(7)
_cell_angle_alpha                68.173(3)
_cell_angle_beta                 80.108(3)
_cell_angle_gamma                81.032(3)
_cell_volume                     1335.63
_exptl_crystal_colour            purple
_exptl_crystal_description       prism
_cell_formula_units_Z            1
loop_
_atom_site_label
_atom_site_type_symbol
_atom_site_fract_x
_atom_site_fract_y
_atom_site_fract_z
F1 F 0.3913(4) 0.5823(2) 0.8625(2)
F2 F 0.2881(4) 0.8387(2) 0.1795(2)
F3 F 0.6847(4) 0.8720(2) 0.6024(2)
F4 F 0.3860(4) 0.6907(3) 1.0006(2)
F5 F 0.6841(4) 0.9764(3) 0.7417(2)
F6 F -0.1162(4) 0.7641(3) 0.4662(2)
F7 F 0.5363(4) 0.8863(2) 0.9417(2)
N1 N 0.3880(5) 0.6476(3) 0.5212(3)
F8 F -0.3047(4) 0.9445(3) 0.3488(3)
F9 F 0.1023(4) 1.0199(3) 0.0650(2)
C1 C 0.7884(6) 0.5292(4) 0.7189(3)
C2 C 0.4604(6) 0.7356(4) 0.9013(4)
F10 F -0.1944(5) 1.0726(3) 0.1483(3)
N2 N 0.6497(4) 0.4875(3) 0.6107(3)
H1 H 0.5819 0.4929 0.5675
C3 C 0.8632(6) 0.4299(4) 0.7032(3)
C4 C 0.5367(6) 0.8343(4) 0.8717(4)
C5 C 0.6093(6) 0.8252(4) 0.6997(4)
C6 C 0.4232(6) 0.7019(4) 0.5837(3)
C7 C 0.8092(6) 0.5605(4) 0.8855(3)
H2 H 0.7368 0.5039 0.9225
C8 C 0.2010(6) 0.6987(4) 0.3886(3)
C9 C 0.2762(6) 0.7218(4) 0.4615(3)
C10 C 0.6501(6) 0.5639(4) 0.6615(3)
C11 C 1.0211(6) 0.3750(4) 0.7359(4)
C12 C 0.4624(6) 0.6813(4) 0.8300(4)
C13 C 0.0934(6) 0.7977(4) 0.3268(4)
C14 C 0.7717(6) 0.4014(4) 0.6377(3)
C15 C 0.8735(6) 0.6138(4) 0.9401(4)
H3 H 0.8443 0.5942 1.0141
C16 C 0.5379(6) 0.7239(4) 0.7279(4)
C17 C 0.5385(6) 0.6603(4) 0.6534(3)
C18 C 1.0369(6) 0.3054(4) 0.8405(3)
H4 H 0.9462 0.2928 0.8921
C19 C 1.0232(7) 0.7241(4) 0.7795(4)
H5 H 1.0967 0.7801 0.7432
C20 C -0.1567(7) 0.9194(5) 0.3087(5)
C21 C 1.1537(7) 0.3935(4) 0.6611(4)
H6 H 1.1430 0.4417 0.5899
C22 C 0.1424(6) 0.8632(4) 0.2251(4)
C23 C 0.2408(6) 0.8274(4) 0.4864(3)
H7 H 0.1688 0.8929 0.4552
C24 C 0.3303(6) 0.8145(4) 0.5630(3)
H8 H 0.3318 0.8688 0.5965
C25 C 0.6096(6) 0.8791(4) 0.7712(4)
C26 C -0.0602(6) 0.8275(4) 0.3671(4)
C27 C -0.1024(8) 0.9832(4) 0.2070(5)
C28 C 0.8501(6) 0.5894(4) 0.7768(4)
C29 C 0.9796(7) 0.6954(4) 0.8866(4)
H9 H 1.0230 0.7321 0.9240
C30 C 1.3025(7) 0.3417(5) 0.6898(5)
H10 H 1.3930 0.3533 0.6380
C31 C 1.1846(6) 0.2547(4) 0.8692(4)
H11 H 1.1950 0.2069 0.9406
C32 C 0.9583(6) 0.6701(4) 0.7244(4)
H12 H 0.9889 0.6891 0.6506
C33 C 0.0486(7) 0.9576(4) 0.1652(4)
C34 C 1.3179(7) 0.2730(4) 0.7944(5)
H13 H 1.4194 0.2387 0.8148
F1A F 0.6087(4) 0.4177(2) 0.1375(2)
F2A F 0.7119(4) 0.1613(2) 0.8205(2)
F3A F 0.3153(4) 0.1280(2) 0.3976(2)
F4A F 0.6140(4) 0.3093(3) -0.0006(2)
F5A F 0.3159(4) 0.0236(3) 0.2583(2)
F6A F 1.1162(4) 0.2359(3) 0.5338(2)
F7A F 0.4637(4) 0.1137(2) 0.0583(2)
N1A N 0.6120(5) 0.3524(3) 0.4788(3)
F8A F 1.3047(4) 0.0555(3) 0.6512(3)
F9A F 0.8977(4) -0.0199(3) 0.9350(2)
C1A C 0.2116(6) 0.4708(4) 0.2811(3)
C2A C 0.5396(6) 0.2644(4) 0.0987(4)
F10A F 1.1944(5) -0.0726(3) 0.8517(3)
N2A N 0.3503(4) 0.5125(3) 0.3893(3)
H1A H 0.4181 0.5071 0.4325
C3A C 0.1368(6) 0.5701(4) 0.2968(3)
C4A C 0.4633(6) 0.1657(4) 0.1283(4)
C5A C 0.3907(6) 0.1748(4) 0.3003(4)
C6A C 0.5768(6) 0.2981(4) 0.4163(3)
C7A C 0.1908(6) 0.4395(4) 0.1145(3)
H2A H 0.2632 0.4961 0.0775
C8A C 0.7990(6) 0.3013(4) 0.6114(3)
C9A C 0.7238(6) 0.2782(4) 0.5385(3)
C10A C 0.3499(6) 0.4361(4) 0.3385(3)
C11A C -0.0211(6) 0.6250(4) 0.2641(4)
C12A C 0.5376(6) 0.3187(4) 0.1700(4)
C13A C 0.9066(6) 0.2023(4) 0.6732(4)
C14A C 0.2283(6) 0.5986(4) 0.3623(3)
C15A C 0.1265(6) 0.3862(4) 0.0599(4)
H3A H 0.1557 0.4058 -0.0141
C16A C 0.4621(6) 0.2761(4) 0.2721(4)
C17A C 0.4615(6) 0.3397(4) 0.3466(3)
C18A C -0.0369(6) 0.6946(4) 0.1595(3)
H4A H 0.0538 0.7072 0.1079
C19A C -0.0232(7) 0.2759(4) 0.2205(4)
H5A H -0.0967 0.2199 0.2568
C20A C 1.1567(7) 0.0806(5) 0.6913(5)
C21A C -0.1537(7) 0.6065(4) 0.3389(4)
H6A H -0.1430 0.5583 0.4101
C22A C 0.8576(6) 0.1368(4) 0.7749(4)
C23A C 0.7592(6) 0.1726(4) 0.5136(3)
H7A H 0.8312 0.1071 0.5448
C24A C 0.6697(6) 0.1855(4) 0.4370(3)
H8A H 0.6682 0.1312 0.4035
C25A C 0.3904(6) 0.1209(4) 0.2288(4)
C26A C 1.0602(6) 0.1725(4) 0.6329(4)
C27A C 1.1024(8) 0.0168(4) 0.7930(5)
C28A C 0.1499(6) 0.4106(4) 0.2232(4)
C29A C 0.0204(7) 0.3046(4) 0.1134(4)
H9A H -0.0230 0.2679 0.0760
C30A C -0.3025(7) 0.6583(5) 0.3102(5)
H10A H -0.3930 0.6467 0.3620
C31A C -0.1846(6) 0.7453(4) 0.1308(4)
H11A H -0.1950 0.7931 0.0594
C32A C 0.0417(6) 0.3299(4) 0.2756(4)
H12A H 0.0111 0.3109 0.3494
C33A C 0.9514(7) 0.0424(4) 0.8348(4)
C34A C -0.3179(7) 0.7270(4) 0.2056(5)
H13A H -0.4194 0.7613 0.1852
loop_
_geom_bond_atom_site_label_1
_geom_bond_atom_site_label_2
_geom_bond_site_symmetry_1
_geom_bond_site_symmetry_2
F1 C12 1_555 1_555
F2 C22 1_555 1_555
F3 C5 1_555 1_555
F4 C2 1_555 1_555
F5 C25 1_555 1_555
F6 C26 1_555 1_555
F7 C4 1_555 1_555
N1 C6 1_555 1_555
F8 C20 1_555 1_555
F9 C33 1_555 1_555
C1 C3 1_555 1_555
C2 C4 1_555 1_555
F10 C27 1_555 1_555
N2 H1 1_555 1_555
C3 C11 1_555 1_555
C4 C25 1_555 1_555
C5 C16 1_555 1_555
C6 C17 1_555 1_555
C7 H2 1_555 1_555
C8 C9 1_555 1_555
C9 N1 1_555 1_555
C10 C1 1_555 1_555
C11 C18 1_555 1_555
C12 C2 1_555 1_555
C13 C8 1_555 1_555
C14 N2 1_555 1_555
C15 C7 1_555 1_555
H3 C15 1_555 1_555
C16 C12 1_555 1_555
C17 C10 1_555 1_555
C18 H4 1_555 1_555
C19 H5 1_555 1_555
C20 C26 1_555 1_555
C21 C11 1_555 1_555
H6 C21 1_555 1_555
C22 C13 1_555 1_555
C23 C9 1_555 1_555
H7 C23 1_555 1_555
C24 C6 1_555 1_555
H8 C24 1_555 1_555
C25 C5 1_555 1_555
C26 C13 1_555 1_555
C27 C20 1_555 1_555
C28 C1 1_555 1_555
C29 C15 1_555 1_555
H9 C29 1_555 1_555
C30 C21 1_555 1_555
H10 C30 1_555 1_555
C31 C18 1_555 1_555
H11 C31 1_555 1_555
C32 C19 1_555 1_555
H12 C32 1_555 1_555
C33 C22 1_555 1_555
C34 C30 1_555 1_555
H13 C34 1_555 1_555
F1A C12A 1_555 1_555
F2A C22A 1_555 1_555
F3A C5A 1_555 1_555
F4A C2A 1_555 1_555
F5A C25A 1_555 1_555
F6A C26A 1_555 1_555
F7A C4A 1_555 1_555
N1A C6A 1_555 1_555
F8A C20A 1_555 1_555
F9A C33A 1_555 1_555
C1A C3A 1_555 1_555
C2A C4A 1_555 1_555
F10A C27A 1_555 1_555
N2A H1A 1_555 1_555
C3A C11A 1_555 1_555
C4A C25A 1_555 1_555
C5A C16A 1_555 1_555
C6A C17A 1_555 1_555
C7A H2A 1_555 1_555
C8A C14 1_555 1_555
C9A N1A 1_555 1_555
C10A C1A 1_555 1_555
C11A C18A 1_555 1_555
C12A C2A 1_555 1_555
C13A C8A 1_555 1_555
C14A C8 1_555 1_555
C15A C7A 1_555 1_555
H3A C15A 1_555 1_555
C16A C12A 1_555 1_555
C17A C10A 1_555 1_555
C18A H4A 1_555 1_555
C19A H5A 1_555 1_555
C20A C26A 1_555 1_555
C21A C11A 1_555 1_555
H6A C21A 1_555 1_555
C22A C13A 1_555 1_555
C23A C9A 1_555 1_555
H7A C23A 1_555 1_555
C24A C6A 1_555 1_555
H8A C24A 1_555 1_555
C25A C5A 1_555 1_555
C26A C13A 1_555 1_555
C27A C20A 1_555 1_555
C28A C1A 1_555 1_555
C29A C15A 1_555 1_555
H9A C29A 1_555 1_555
C30A C21A 1_555 1_555
H10A C30A 1_555 1_555
C31A C18A 1_555 1_555
H11A C31A 1_555 1_555
C32A C19A 1_555 1_555
H12A C32A 1_555 1_555
C33A C22A 1_555 1_555
C34A C30A 1_555 1_555
H13A C34A 1_555 1_555
N2 C10 1_555 1_555
C3 C14 1_555 1_555
C7 C28 1_555 1_555
C16 C17 1_555 1_555
C19 C29 1_555 1_555
C23 C24 1_555 1_555
C27 C33 1_555 1_555
C28 C32 1_555 1_555
C31 C34 1_555 1_555
N2A C10A 1_555 1_555
N2A C14A 1_555 1_555
C3A C14A 1_555 1_555
C7A C28A 1_555 1_555
C8A C9A 1_555 1_555
C16A C17A 1_555 1_555
C19A C29A 1_555 1_555
C23A C24A 1_555 1_555
C27A C33A 1_555 1_555
C28A C32A 1_555 1_555
C31A C34A 1_555 1_555

#END
