
#######################################################################
#
#                 Cambridge Crystallographic Data Centre
#                                CCDC 
#
#######################################################################
#
# If this CIF has been generated from an entry in the Cambridge 
# Structural Database, then it will include bibliographic, chemical, 
# crystal, experimental, refinement or atomic coordinate data resulting 
# from the CCDC's data processing and validation procedures.
#
#######################################################################

data_LIVKAE
_chemical_formula_moiety         
'C102 H42 F30 N6 2+,2(C1 H3 O3 S1 1-),2(C1 H4 O3 S1),C1 H2 Cl2,3(C1 H4 O1),3(H2 O1)'
_chemical_name_systematic        
'Dihydrogen 2,3,12,13,22,23-hexaphenyl-5,10,15,20,25,30-hexakis(pentafluorophenyl)[28]hexaphyrin(1.1.1.1.1.1) bis(methanesulfonate) dichloromethane methanesulfonic acid methanol solvate trihydrate'
_symmetry_cell_setting           rhombohedral
_symmetry_space_group_name_H-M   'R 3 m'
_symmetry_Int_Tables_number      160
_space_group_name_Hall           'R 3 -2"'
loop_
_symmetry_equiv_pos_site_id
_symmetry_equiv_pos_as_xyz
1 x,y,z
2 -y,x-y,z
3 -x+y,-x,z
4 -x+y,y,z
5 x,x-y,z
6 -y,-x,z
7 2/3+x,1/3+y,1/3+z
8 2/3-y,1/3+x-y,1/3+z
9 2/3-x+y,1/3-x,1/3+z
10 2/3-x+y,1/3+y,1/3+z
11 2/3+x,1/3+x-y,1/3+z
12 2/3-y,1/3-x,1/3+z
13 1/3+x,2/3+y,2/3+z
14 1/3-y,2/3+x-y,2/3+z
15 1/3-x+y,2/3-x,2/3+z
16 1/3-x+y,2/3+y,2/3+z
17 1/3+x,2/3+x-y,2/3+z
18 1/3-y,2/3-x,2/3+z
_cell_length_a                   31.136(9)
_cell_length_b                   31.136(9)
_cell_length_c                   11.294(4)
_cell_angle_alpha                90
_cell_angle_beta                 90
_cell_angle_gamma                120
_cell_volume                     9482.09
_exptl_crystal_colour            brown
_exptl_crystal_description       prism
_cell_formula_units_Z            3
loop_
_atom_site_label
_atom_site_type_symbol
_atom_site_fract_x
_atom_site_fract_y
_atom_site_fract_z
S1 S 0.78725(3) 0.21275(3) 0.44885(13)
O1 O 0.78698(7) 0.21302(7) 0.3216(4)
O2 O 0.81579(18) 0.26277(15) 0.4980(4)
C18 C 0.81888(17) 0.18112(17) 0.4911(7)
O2E O 0.73723(15) 0.18421(18) 0.4980(4)
Cl1 Cl 0.63356(17) 0.2671(3) 0.2734(7)
Cl2 Cl 0.62911(14) 0.37089(14) 0.3797(7)
C19 C 0.6139(5) 0.3069(2) 0.3427(11)
Cl1A Cl 0.7329(3) 0.36646(34) 0.2734(7)
Cl2A Cl 0.62911(14) 0.25822(20) 0.3797(7)
C19A C 0.6931(2) 0.3070(5) 0.3427(11)
Cl1B Cl 0.63354(34) 0.36644(17) 0.2734(7)
Cl2B Cl 0.74178(20) 0.37089(14) 0.3797(7)
C19B C 0.6930(5) 0.3861(5) 0.3427(11)
O3 O 0.7613(7) 0.2387(7) 0.737(4)
C1 C 0.69465(13) 0.26141(14) 0.0338(4)
H1 H 0.6655 0.2546 -0.0083
C2 C 0.70049(13) 0.22757(13) 0.1085(3)
C3 C 0.66637(13) 0.17743(13) 0.1308(3)
C4 C 0.61550(13) 0.15782(13) 0.1177(3)
C5 C 0.68556(14) 0.14470(13) 0.1724(3)
C6 C 0.66867(13) 0.11670(14) 0.2749(4)
C7 C 0.68870(14) 0.08926(13) 0.3192(4)
C8 C 0.72690(16) 0.08874(14) 0.2576(4)
C9 C 0.74384(16) 0.11482(15) 0.1537(4)
C10 C 0.72322(14) 0.14199(13) 0.1118(3)
F1 F 0.63242(8) 0.11727(10) 0.3394(2)
F2 F 0.67147(10) 0.06286(10) 0.4188(2)
F3 F 0.74841(10) 0.06411(9) 0.3013(3)
F4 F 0.78147(11) 0.11466(10) 0.0962(3)
F5 F 0.74038(10) 0.16626(9) 0.00939(19)
C11 C 0.57570(14) 0.10725(12) 0.1004(3)
C12 C 0.58340(12) 0.06530(12) 0.0722(3)
C13 C 0.56406(15) 0.02300(15) 0.1413(4)
H2 H 0.5465 0.0211 0.2117
C14 C 0.57002(17) -0.01685(16) 0.1091(4)
H3 H 0.5559 -0.0460 0.1564
C15 C 0.59644(18) -0.01408(17) 0.0084(5)
H4 H 0.6006 -0.0412 -0.0135
C16 C 0.61693(15) 0.02844(17) -0.0610(4)
H5 H 0.6354 0.0305 -0.1299
C17 C 0.61050(15) 0.06768(15) -0.0300(4)
H6 H 0.6245 0.0966 -0.0779
N1 N 0.74797(8) 0.25203(8) 0.1498(4)
H7 H 0.7610 0.2390 0.1967
N2 N 0.59360(8) 0.18720(15) 0.1253(4)
H8 H 0.6098 0.2196 0.1336
C1C C 0.56676(19) 0.26141(14) 0.0338(4)
H1C H 0.5891 0.2546 -0.0083
C2C C 0.52708(18) 0.22757(13) 0.1085(3)
C3C C 0.51106(18) 0.17743(13) 0.1308(3)
C4C C 0.54232(18) 0.15782(13) 0.1177(3)
C5C C 0.45914(19) 0.14470(13) 0.1724(3)
C6C C 0.44803(19) 0.11670(14) 0.2749(4)
C7C C 0.40056(19) 0.08926(13) 0.3192(4)
C8C C 0.36184(21) 0.08874(14) 0.2576(4)
C9C C 0.37098(22) 0.11482(15) 0.1537(4)
C10C C 0.41877(19) 0.14199(13) 0.1118(3)
F1C F 0.48485(13) 0.11727(10) 0.3394(2)
F2C F 0.39139(14) 0.06286(10) 0.4188(2)
F3C F 0.31570(13) 0.06411(9) 0.3013(3)
F4C F 0.33319(15) 0.11466(10) 0.0962(3)
F5C F 0.42588(13) 0.16626(9) 0.00939(19)
C11C C 0.53155(18) 0.10725(12) 0.1004(3)
C12C C 0.48190(17) 0.06530(12) 0.0722(3)
C13C C 0.45894(21) 0.02300(15) 0.1413(4)
H2C H 0.4746 0.0211 0.2117
C14C C 0.41313(23) -0.01685(16) 0.1091(4)
H3C H 0.3981 -0.0460 0.1564
C15C C 0.38948(25) -0.01408(17) 0.0084(5)
H4C H 0.3582 -0.0412 -0.0135
C16C C 0.41151(23) 0.02844(17) -0.0610(4)
H5C H 0.3951 0.0305 -0.1299
C17C C 0.45718(21) 0.06768(15) -0.0300(4)
H6C H 0.4721 0.0966 -0.0779
N1B N 0.50406(11) 0.25203(8) 0.1498(4)
H7B H 0.4780 0.2390 0.1967
C1E C 0.73859(14) 0.30535(13) 0.0338(4)
H1E H 0.7454 0.3345 -0.0083
C2E C 0.77243(13) 0.29951(13) 0.1085(3)
C3E C 0.82257(13) 0.33363(13) 0.1308(3)
C4E C 0.84218(13) 0.38450(13) 0.1177(3)
C5E C 0.85530(13) 0.31444(14) 0.1724(3)
C6E C 0.88330(14) 0.33133(13) 0.2749(4)
C7E C 0.91074(13) 0.31130(14) 0.3192(4)
C8E C 0.91126(14) 0.27310(16) 0.2576(4)
C9E C 0.88518(15) 0.25616(16) 0.1537(4)
C10E C 0.85801(13) 0.27678(14) 0.1118(3)
F1E F 0.88273(10) 0.36758(8) 0.3394(2)
F2E F 0.93714(10) 0.32853(10) 0.4188(2)
F3E F 0.93589(9) 0.25159(10) 0.3013(3)
F4E F 0.88534(10) 0.21853(11) 0.0962(3)
F5E F 0.83374(9) 0.25962(10) 0.00939(19)
C11E C 0.89275(12) 0.42430(14) 0.1004(3)
C12E C 0.93470(12) 0.41660(12) 0.0722(3)
C13E C 0.97700(15) 0.43594(15) 0.1413(4)
H2E H 0.9789 0.4535 0.2117
C14E C 1.01685(16) 0.42998(17) 0.1091(4)
H3E H 1.0460 0.4441 0.1564
C15E C 1.01408(17) 0.40356(18) 0.0084(5)
H4E H 1.0412 0.3994 -0.0135
C16E C 0.97156(17) 0.38307(15) -0.0610(4)
H5E H 0.9695 0.3646 -0.1299
C17E C 0.93232(15) 0.38950(15) -0.0300(4)
H6E H 0.9034 0.3755 -0.0779
N2A N 0.81280(15) 0.40640(17) 0.1253(4)
H8A H 0.7804 0.3902 0.1336
C1A C 0.73859(14) 0.43324(19) 0.0338(4)
H1A H 0.7454 0.4109 -0.0083
C2A C 0.77243(13) 0.47292(18) 0.1085(3)
C3A C 0.82257(13) 0.48894(18) 0.1308(3)
C4A C 0.84218(13) 0.45768(18) 0.1177(3)
C5A C 0.85530(13) 0.54086(19) 0.1724(3)
C6A C 0.88330(14) 0.55197(19) 0.2749(4)
C7A C 0.91074(13) 0.59944(19) 0.3192(4)
C8A C 0.91126(14) 0.63816(21) 0.2576(4)
C9A C 0.88518(15) 0.62902(22) 0.1537(4)
C10A C 0.85801(13) 0.58123(19) 0.1118(3)
F1A F 0.88273(10) 0.51515(13) 0.3394(2)
F2A F 0.93714(10) 0.60861(14) 0.4188(2)
F3A F 0.93589(9) 0.68430(13) 0.3013(3)
F4A F 0.88534(10) 0.66681(15) 0.0962(3)
F5A F 0.83374(9) 0.57412(13) 0.00939(19)
C11A C 0.89275(12) 0.46845(18) 0.1004(3)
C12A C 0.93470(12) 0.51810(17) 0.0722(3)
C13A C 0.97700(15) 0.54106(21) 0.1413(4)
H2A H 0.9789 0.5254 0.2117
C14A C 1.01685(16) 0.58687(23) 0.1091(4)
H3A H 1.0460 0.6019 0.1564
C15A C 1.01408(17) 0.61052(25) 0.0084(5)
H4A H 1.0412 0.6418 -0.0135
C16A C 0.97156(17) 0.58849(23) -0.0610(4)
H5A H 0.9695 0.6049 -0.1299
C17A C 0.93232(15) 0.54282(21) -0.0300(4)
H6A H 0.9034 0.5279 -0.0779
N1A N 0.74797(8) 0.49594(11) 0.1498(4)
H7A H 0.7610 0.5220 0.1967
C1B C 0.56676(19) 0.30535(13) 0.0338(4)
H1B H 0.5891 0.3345 -0.0083
C2B C 0.52708(18) 0.29951(13) 0.1085(3)
C3B C 0.51106(18) 0.33363(13) 0.1308(3)
C4B C 0.54232(18) 0.38450(13) 0.1177(3)
C5B C 0.45914(19) 0.31444(14) 0.1724(3)
C6B C 0.44803(19) 0.33133(13) 0.2749(4)
C7B C 0.40056(19) 0.31130(14) 0.3192(4)
C8B C 0.36184(21) 0.27310(16) 0.2576(4)
C9B C 0.37098(22) 0.25616(16) 0.1537(4)
C10B C 0.41877(19) 0.27678(14) 0.1118(3)
F1B F 0.48485(13) 0.36758(8) 0.3394(2)
F2B F 0.39139(14) 0.32853(10) 0.4188(2)
F3B F 0.31570(13) 0.25159(10) 0.3013(3)
F4B F 0.33319(15) 0.21853(11) 0.0962(3)
F5B F 0.42588(13) 0.25962(10) 0.00939(19)
C11B C 0.53155(18) 0.42430(14) 0.1004(3)
C12B C 0.48190(17) 0.41660(12) 0.0722(3)
C13B C 0.45894(21) 0.43594(15) 0.1413(4)
H2B H 0.4746 0.4535 0.2117
C14B C 0.41313(23) 0.42998(17) 0.1091(4)
H3B H 0.3981 0.4441 0.1564
C15B C 0.38948(25) 0.40356(18) 0.0084(5)
H4B H 0.3582 0.3994 -0.0135
C16B C 0.41151(23) 0.38307(15) -0.0610(4)
H5B H 0.3951 0.3646 -0.1299
C17B C 0.45718(21) 0.38950(15) -0.0300(4)
H6B H 0.4721 0.3755 -0.0779
N2B N 0.59360(17) 0.40640(8) 0.1253(4)
H8B H 0.6098 0.3902 0.1336
C1D C 0.69465(13) 0.43324(19) 0.0338(4)
H1D H 0.6655 0.4109 -0.0083
C2D C 0.70049(13) 0.47292(18) 0.1085(3)
C3D C 0.66637(13) 0.48894(18) 0.1308(3)
C4D C 0.61550(13) 0.45768(18) 0.1177(3)
C5D C 0.68556(14) 0.54086(19) 0.1724(3)
C6D C 0.66867(13) 0.55197(19) 0.2749(4)
C7D C 0.68870(14) 0.59944(19) 0.3192(4)
C8D C 0.72690(16) 0.63816(21) 0.2576(4)
C9D C 0.74384(16) 0.62902(22) 0.1537(4)
C10D C 0.72322(14) 0.58123(19) 0.1118(3)
F1D F 0.63242(8) 0.51515(13) 0.3394(2)
F2D F 0.67147(10) 0.60861(14) 0.4188(2)
F3D F 0.74841(10) 0.68430(13) 0.3013(3)
F4D F 0.78147(11) 0.66681(15) 0.0962(3)
F5D F 0.74038(10) 0.57412(13) 0.00939(19)
C11D C 0.57570(14) 0.46845(18) 0.1004(3)
C12D C 0.58340(12) 0.51810(17) 0.0722(3)
C13D C 0.56406(15) 0.54106(21) 0.1413(4)
H2D H 0.5465 0.5254 0.2117
C14D C 0.57002(17) 0.58687(23) 0.1091(4)
H3D H 0.5559 0.6019 0.1564
C15D C 0.59644(18) 0.61052(25) 0.0084(5)
H4D H 0.6006 0.6418 -0.0135
C16D C 0.61693(15) 0.58849(23) -0.0610(4)
H5D H 0.6354 0.6049 -0.1299
C17D C 0.61050(15) 0.54282(21) -0.0300(4)
H6D H 0.6245 0.5279 -0.0779
O4? O 0.8360(3) 0.41798(16) -0.2539(8)
O5? O 0.8262(3) 0.4368(4) -0.2414(8)
H9? H 0.8544 0.2021 0.4745
H10? H 0.8057 0.1502 0.4461
H11? H 0.8140 0.1736 0.5759
S2? S 0.6667 0.3333 -0.2395(6)
O6? O 0.6667 0.3333 -0.1050(19)
O7? O 0.6876(5) 0.3124(5) -0.320(3)
C20? C 0.6951(4) 0.3049(4) -0.296(2)
H12? H 0.7207 0.3077 -0.2401
H13? H 0.7106 0.3203 -0.3711
H14? H 0.6709 0.2698 -0.3084
C21? C 0.8198(9) 0.4099(5) -0.152(2)
loop_
_geom_bond_atom_site_label_1
_geom_bond_atom_site_label_2
_geom_bond_site_symmetry_1
_geom_bond_site_symmetry_2
C1 H1 1_555 1_555
C2 C1 1_555 1_555
C3 C2 1_555 1_555
C4 C3 1_555 1_555
C5 C3 1_555 1_555
C6 C5 1_555 1_555
C7 C6 1_555 1_555
C8 C7 1_555 1_555
C9 C8 1_555 1_555
C10 C5 1_555 1_555
F1 C6 1_555 1_555
F2 C7 1_555 1_555
F3 C8 1_555 1_555
F4 C9 1_555 1_555
F5 C10 1_555 1_555
C11 C4 1_555 1_555
C12 C11 1_555 1_555
C13 C12 1_555 1_555
H2 C13 1_555 1_555
C14 C13 1_555 1_555
H3 C14 1_555 1_555
C15 C14 1_555 1_555
H4 C15 1_555 1_555
C16 C15 1_555 1_555
H5 C16 1_555 1_555
C17 C12 1_555 1_555
H6 C17 1_555 1_555
N1 C2 1_555 1_555
H7 N1 1_555 1_555
N2 C4 1_555 1_555
H8 N2 1_555 1_555
S1 O1 1_555 1_555
O2 S1 1_555 1_555
C18 S1 1_555 1_555
Cl1 C19 1_555 1_555
Cl2 C19 1_555 1_555
C19 Cl2A 1_555 1_555
C1C H1C 1_555 1_555
C2C C1C 1_555 1_555
C3C C2C 1_555 1_555
C4C N2 1_555 1_555
C5C C3C 1_555 1_555
C6C C5C 1_555 1_555
C7C C6C 1_555 1_555
C8C C7C 1_555 1_555
C9C C8C 1_555 1_555
C10C C5C 1_555 1_555
F1C C6C 1_555 1_555
F2C C7C 1_555 1_555
F3C C8C 1_555 1_555
F4C C9C 1_555 1_555
F5C C10C 1_555 1_555
C11C C11 1_555 1_555
C12C C11C 1_555 1_555
C13C C12C 1_555 1_555
H2C C13C 1_555 1_555
C14C C13C 1_555 1_555
H3C C14C 1_555 1_555
C15C C14C 1_555 1_555
H4C C15C 1_555 1_555
C16C C15C 1_555 1_555
H5C C16C 1_555 1_555
C17C C12C 1_555 1_555
H6C C17C 1_555 1_555
N1B C2C 1_555 1_555
H7B N1B 1_555 1_555
C1E C1 1_555 1_555
H1E C1E 1_555 1_555
C2E N1 1_555 1_555
C3E C2E 1_555 1_555
C4E C3E 1_555 1_555
C5E C3E 1_555 1_555
C6E C5E 1_555 1_555
C7E C6E 1_555 1_555
C8E C7E 1_555 1_555
C9E C8E 1_555 1_555
C10E C5E 1_555 1_555
F1E C6E 1_555 1_555
F2E C7E 1_555 1_555
F3E C8E 1_555 1_555
F4E C9E 1_555 1_555
F5E C10E 1_555 1_555
C11E C4E 1_555 1_555
C12E C11E 1_555 1_555
C13E C12E 1_555 1_555
H2E C13E 1_555 1_555
C14E C13E 1_555 1_555
H3E C14E 1_555 1_555
C15E C14E 1_555 1_555
H4E C15E 1_555 1_555
C16E C15E 1_555 1_555
H5E C16E 1_555 1_555
C17E C12E 1_555 1_555
H6E C17E 1_555 1_555
N2A C4E 1_555 1_555
H8A N2A 1_555 1_555
C1A H1A 1_555 1_555
C2A C1A 1_555 1_555
C3A C2A 1_555 1_555
C4A N2A 1_555 1_555
C5A C3A 1_555 1_555
C6A C5A 1_555 1_555
C7A C6A 1_555 1_555
C8A C7A 1_555 1_555
C9A C8A 1_555 1_555
C10A C5A 1_555 1_555
F1A C6A 1_555 1_555
F2A C7A 1_555 1_555
F3A C8A 1_555 1_555
F4A C9A 1_555 1_555
F5A C10A 1_555 1_555
C11A C11E 1_555 1_555
C12A C11A 1_555 1_555
C13A C12A 1_555 1_555
H2A C13A 1_555 1_555
C14A C13A 1_555 1_555
H3A C14A 1_555 1_555
C15A C14A 1_555 1_555
H4A C15A 1_555 1_555
C16A C15A 1_555 1_555
H5A C16A 1_555 1_555
C17A C12A 1_555 1_555
H6A C17A 1_555 1_555
N1A C2A 1_555 1_555
H7A N1A 1_555 1_555
C1B C1C 1_555 1_555
H1B C1B 1_555 1_555
C2B N1B 1_555 1_555
C3B C2B 1_555 1_555
C4B C3B 1_555 1_555
C5B C3B 1_555 1_555
C6B C5B 1_555 1_555
C7B C6B 1_555 1_555
C8B C7B 1_555 1_555
C9B C8B 1_555 1_555
C10B C5B 1_555 1_555
F1B C6B 1_555 1_555
F2B C7B 1_555 1_555
F3B C8B 1_555 1_555
F4B C9B 1_555 1_555
F5B C10B 1_555 1_555
C11B C4B 1_555 1_555
C12B C11B 1_555 1_555
C13B C12B 1_555 1_555
H2B C13B 1_555 1_555
C14B C13B 1_555 1_555
H3B C14B 1_555 1_555
C15B C14B 1_555 1_555
H4B C15B 1_555 1_555
C16B C15B 1_555 1_555
H5B C16B 1_555 1_555
C17B C12B 1_555 1_555
H6B C17B 1_555 1_555
N2B C4B 1_555 1_555
H8B N2B 1_555 1_555
C1D C1A 1_555 1_555
H1D C1D 1_555 1_555
C2D N1A 1_555 1_555
C3D C2D 1_555 1_555
C4D N2B 1_555 1_555
C5D C3D 1_555 1_555
C6D C5D 1_555 1_555
C7D C6D 1_555 1_555
C8D C7D 1_555 1_555
C9D C8D 1_555 1_555
C10D C5D 1_555 1_555
F1D C6D 1_555 1_555
F2D C7D 1_555 1_555
F3D C8D 1_555 1_555
F4D C9D 1_555 1_555
F5D C10D 1_555 1_555
C11D C11B 1_555 1_555
C12D C11D 1_555 1_555
C13D C12D 1_555 1_555
H2D C13D 1_555 1_555
C14D C13D 1_555 1_555
H3D C14D 1_555 1_555
C15D C14D 1_555 1_555
H4D C15D 1_555 1_555
C16D C15D 1_555 1_555
H5D C16D 1_555 1_555
C17D C12D 1_555 1_555
H6D C17D 1_555 1_555
O2E S1 1_555 1_555
Cl1A C19A 1_555 1_555
Cl2A Cl1 1_555 1_555
C19A Cl1 1_555 1_555
Cl1B Cl2 1_555 1_555
Cl2B Cl1A 1_555 1_555
C19B Cl2 1_555 1_555
C9 C10 1_555 1_555
C16 C17 1_555 1_555
C19 Cl1B 1_555 1_555
C3C C4C 1_555 1_555
C4C C11C 1_555 1_555
C9C C10C 1_555 1_555
C16C C17C 1_555 1_555
C1E C2E 1_555 1_555
C9E C10E 1_555 1_555
C16E C17E 1_555 1_555
C3A C4A 1_555 1_555
C4A C11A 1_555 1_555
C9A C10A 1_555 1_555
C16A C17A 1_555 1_555
C1B C2B 1_555 1_555
C9B C10B 1_555 1_555
C16B C17B 1_555 1_555
C1D C2D 1_555 1_555
C3D C4D 1_555 1_555
C4D C11D 1_555 1_555
C9D C10D 1_555 1_555
C16D C17D 1_555 1_555
Cl1A C19B 1_555 1_555
Cl2A C19A 1_555 1_555
C19A Cl2B 1_555 1_555
Cl1B C19B 1_555 1_555
Cl2B C19B 1_555 1_555

#END
