
#######################################################################
#
#                 Cambridge Crystallographic Data Centre
#                                CCDC 
#
#######################################################################
#
# If this CIF has been generated from an entry in the Cambridge 
# Structural Database, then it will include bibliographic, chemical, 
# crystal, experimental, refinement or atomic coordinate data resulting 
# from the CCDC's data processing and validation procedures.
#
#######################################################################

data_LIVNUZ
_chemical_formula_moiety         'C24 H15 N1 O5'
_chemical_name_systematic        
'rac-10-Nitro-1,2,5,6-tetrahydro-pentaheliceno(3,4-c)succinic anhydride'
_symmetry_cell_setting           triclinic
_symmetry_space_group_name_H-M   'P -1'
_symmetry_Int_Tables_number      2
_space_group_name_Hall           '-P 1'
loop_
_symmetry_equiv_pos_site_id
_symmetry_equiv_pos_as_xyz
1 x,y,z
2 -x,-y,-z
_cell_length_a                   8.1376(6)
_cell_length_b                   11.0823(8)
_cell_length_c                   11.2149(8)
_cell_angle_alpha                103.642(8)
_cell_angle_beta                 98.747(7)
_cell_angle_gamma                108.001(8)
_cell_volume                     906.641
_cell_formula_units_Z            2
_exptl_crystal_recrystallization_method dichloromethane
loop_
_atom_site_label
_atom_site_type_symbol
_atom_site_fract_x
_atom_site_fract_y
_atom_site_fract_z
O1 O -0.18635(25) 0.33306(18) 0.84076(17)
O2 O 0.0824(3) 0.35789(21) 0.95287(19)
O3 O -0.4112(3) 0.35446(19) 0.71274(19)
O4 O 0.2570(3) 1.07401(25) 0.77775(23)
O5 O 0.1157(3) 0.90600(20) 0.83541(18)
N1 N 0.2473(3) 0.97284(24) 0.80817(22)
C1 C 0.4065(3) 0.9345(3) 0.81856(24)
C2 C 0.5678(4) 1.0399(3) 0.8506(3)
C3 C 0.7241(4) 1.0156(4) 0.8780(3)
C4 C 0.7170(4) 0.8896(3) 0.8780(3)
C5 C 0.5549(4) 0.7831(3) 0.84306(25)
C6 C 0.3937(3) 0.8037(3) 0.80700(23)
C7 C 0.2263(3) 0.6840(3) 0.76391(24)
C8 C 0.2200(3) 0.5886(3) 0.82872(24)
C9 C 0.3904(4) 0.5926(3) 0.9082(3)
C10 C 0.5436(4) 0.6471(3) 0.8491(3)
C11 C 0.0540(4) 0.4932(3) 0.81248(24)
C12 C 0.0010(4) 0.3919(3) 0.8782(3)
C13 C -0.2544(4) 0.3892(3) 0.7522(3)
C14 C -0.0986(3) 0.4885(3) 0.73353(24)
C15 C -0.0903(3) 0.5682(3) 0.65467(24)
C16 C 0.0769(3) 0.66430(25) 0.66625(23)
C17 C 0.0895(3) 0.7403(3) 0.57295(23)
C18 C -0.0651(4) 0.7569(3) 0.51606(24)
C19 C -0.2365(4) 0.6961(3) 0.5514(3)
C20 C -0.2514(4) 0.5589(3) 0.5603(3)
C21 C 0.2463(4) 0.7897(3) 0.5343(3)
C22 C 0.2514(5) 0.8600(3) 0.4470(3)
C23 C 0.0992(5) 0.8789(3) 0.3943(3)
C24 C -0.0573(5) 0.8262(3) 0.4279(3)
H1 H 0.354(3) 0.7741(25) 0.5670(22)
H2 H -0.335(3) 0.6918(25) 0.4903(23)
H3 H 0.420(3) 0.657(3) 1.004(3)
H4 H 0.564(4) 1.126(3) 0.854(3)
H5 H -0.159(4) 0.841(3) 0.3930(25)
H6 H 0.376(3) 0.503(3) 0.9106(23)
H7 H -0.261(4) 0.499(3) 0.472(3)
H8 H 0.361(3) 0.892(3) 0.4211(22)
H9 H 0.515(3) 0.588(3) 0.759(3)
H10 H -0.233(3) 0.752(3) 0.634(3)
H11 H 0.819(4) 0.873(3) 0.8991(24)
H12 H -0.361(4) 0.516(3) 0.5840(23)
H13 H 0.106(4) 0.927(3) 0.334(3)
H14 H 0.656(4) 0.653(3) 0.899(3)
H15 H 0.839(4) 1.094(3) 0.898(3)
loop_
_geom_bond_atom_site_label_1
_geom_bond_atom_site_label_2
_geom_bond_site_symmetry_1
_geom_bond_site_symmetry_2
O1 C12 1_555 1_555
O2 C12 1_555 1_555
O3 C13 1_555 1_555
O4 N1 1_555 1_555
O5 N1 1_555 1_555
N1 C1 1_555 1_555
C1 C2 1_555 1_555
C2 C3 1_555 1_555
C3 C4 1_555 1_555
C4 C5 1_555 1_555
C5 C6 1_555 1_555
C6 C1 1_555 1_555
C7 C6 1_555 1_555
C8 C7 1_555 1_555
C9 C8 1_555 1_555
C10 C5 1_555 1_555
C11 C8 1_555 1_555
C12 C11 1_555 1_555
C13 O1 1_555 1_555
C14 C11 1_555 1_555
C15 C14 1_555 1_555
C16 C7 1_555 1_555
C17 C16 1_555 1_555
C18 C17 1_555 1_555
C19 C18 1_555 1_555
C20 C15 1_555 1_555
C21 C17 1_555 1_555
C22 C21 1_555 1_555
C23 C22 1_555 1_555
C24 C18 1_555 1_555
H1 C21 1_555 1_555
H2 C19 1_555 1_555
H3 C9 1_555 1_555
H4 C2 1_555 1_555
H5 C24 1_555 1_555
H6 C9 1_555 1_555
H7 C20 1_555 1_555
H8 C22 1_555 1_555
H9 C10 1_555 1_555
H10 C19 1_555 1_555
H11 C4 1_555 1_555
H12 C20 1_555 1_555
H13 C23 1_555 1_555
H14 C10 1_555 1_555
H15 C3 1_555 1_555
C9 C10 1_555 1_555
C13 C14 1_555 1_555
C15 C16 1_555 1_555
C19 C20 1_555 1_555
C23 C24 1_555 1_555

#END
