
#######################################################################
#
#                 Cambridge Crystallographic Data Centre
#                                CCDC 
#
#######################################################################
#
# If this CIF has been generated from an entry in the Cambridge 
# Structural Database, then it will include bibliographic, chemical, 
# crystal, experimental, refinement or atomic coordinate data resulting 
# from the CCDC's data processing and validation procedures.
#
#######################################################################

data_LIVNOV
_chemical_formula_moiety         'C7 H15 Cl1 N2 2+,2(Cl1 O4 1-)'
_chemical_name_systematic        
'1-(Chloromethyl)-1,4-diazoniabicyclo[2.2.2]octane diperchlorate'
_symmetry_cell_setting           orthorhombic
_symmetry_space_group_name_H-M   'P b c a'
_symmetry_Int_Tables_number      61
_space_group_name_Hall           '-P 2ac 2ab'
loop_
_symmetry_equiv_pos_site_id
_symmetry_equiv_pos_as_xyz
1 x,y,z
2 1/2-x,-y,1/2+z
3 1/2+x,1/2-y,-z
4 -x,1/2+y,1/2-z
5 -x,-y,-z
6 1/2+x,y,1/2-z
7 1/2-x,1/2+y,z
8 x,1/2-y,1/2+z
_cell_length_a                   13.585(4)
_cell_length_b                   12.926(4)
_cell_length_c                   16.012(5)
_cell_angle_alpha                90
_cell_angle_beta                 90
_cell_angle_gamma                90
_cell_volume                     2811.7
_exptl_crystal_colour            colorless
_exptl_crystal_description       block
_cell_formula_units_Z            8
loop_
_atom_site_label
_atom_site_type_symbol
_atom_site_fract_x
_atom_site_fract_y
_atom_site_fract_z
C1 C 0.3841(3) 0.2286(3) 0.1973(3)
H1 H 0.3303 0.1834 0.1813
H2 H 0.4269 0.1906 0.2349
C2 C 0.5256(3) 0.3292(4) 0.1472(3)
H3 H 0.5700 0.2908 0.1831
H4 H 0.5621 0.3518 0.0985
C3 C 0.4858(4) 0.4222(4) 0.1935(3)
H5 H 0.5113 0.4229 0.2501
H6 H 0.5068 0.4852 0.1659
C4 C 0.3741(3) 0.3211(4) 0.0637(3)
H7 H 0.4099 0.3425 0.0143
H8 H 0.3194 0.2780 0.0462
C5 C 0.3357(4) 0.4151(4) 0.1091(3)
H9 H 0.3552 0.4773 0.0795
H10 H 0.2644 0.4129 0.1112
C6 C 0.3441(4) 0.3223(3) 0.2410(3)
H11 H 0.2728 0.3192 0.2425
H12 H 0.3681 0.3244 0.2980
C7 C 0.4854(4) 0.1678(4) 0.0773(3)
H13 H 0.5282 0.1315 0.1160
H14 H 0.5252 0.1910 0.0307
Cl1 Cl 0.39535(14) 0.08298(14) 0.04114(14)
N1 N 0.4412(2) 0.2603(3) 0.12048(19)
N2 N 0.3763(3) 0.4170(3) 0.1953(2)
H15 H 0.3527 0.4737 0.2223
Cl2 Cl 0.09253(8) 0.20828(9) 0.12406(7)
O1 O 0.1441(6) 0.1813(7) 0.0529(5)
O2 O 0.1381(6) 0.1562(6) 0.1905(5)
O3 O 0.1005(6) 0.3134(6) 0.1431(5)
O4 O -0.0032(6) 0.1796(7) 0.1137(5)
Cl3 Cl 0.25622(7) 0.05388(8) 0.35773(6)
O9 O 0.3016(3) 0.0206(3) 0.2807(2)
O10 O 0.2597(3) 0.1638(3) 0.3634(3)
O11 O 0.3062(3) 0.0079(3) 0.4260(2)
O12 O 0.1551(2) 0.0204(3) 0.3550(2)
O5? O -0.0023(13) 0.2675(15) 0.1242(10)
O6? O 0.0917(11) 0.1474(11) 0.2034(9)
O7? O 0.1619(14) 0.2468(19) 0.0622(13)
O8? O 0.0461(13) 0.1326(13) 0.0632(10)
loop_
_geom_bond_atom_site_label_1
_geom_bond_atom_site_label_2
_geom_bond_site_symmetry_1
_geom_bond_site_symmetry_2
C1 H1 1_555 1_555
H2 C1 1_555 1_555
C2 H3 1_555 1_555
H4 C2 1_555 1_555
C3 C2 1_555 1_555
H5 C3 1_555 1_555
H6 C3 1_555 1_555
C4 H7 1_555 1_555
H8 C4 1_555 1_555
C5 C4 1_555 1_555
H9 C5 1_555 1_555
H10 C5 1_555 1_555
C6 C1 1_555 1_555
H11 C6 1_555 1_555
H12 C6 1_555 1_555
C7 H13 1_555 1_555
H14 C7 1_555 1_555
Cl1 C7 1_555 1_555
N1 C1 1_555 1_555
N2 C3 1_555 1_555
H15 N2 1_555 1_555
Cl2 O1 1_555 1_555
O2 Cl2 1_555 1_555
O3 Cl2 1_555 1_555
O4 Cl2 1_555 1_555
Cl3 O9 1_555 1_555
O10 Cl3 1_555 1_555
O11 Cl3 1_555 1_555
O12 Cl3 1_555 1_555
C2 N1 1_555 1_555
C4 N1 1_555 1_555
C5 N2 1_555 1_555
C6 N2 1_555 1_555
C7 N1 1_555 1_555

#END
