
#######################################################################
#
#                 Cambridge Crystallographic Data Centre
#                                CCDC 
#
#######################################################################
#
# If this CIF has been generated from an entry in the Cambridge 
# Structural Database, then it will include bibliographic, chemical, 
# crystal, experimental, refinement or atomic coordinate data resulting 
# from the CCDC's data processing and validation procedures.
#
#######################################################################

data_LIVRUE
_chemical_formula_moiety         'C12 H16 N2 O1'
_chemical_name_systematic        1-Benzyl-1,4-diazepan-5-one
_symmetry_cell_setting           monoclinic
_symmetry_space_group_name_H-M   'P 21/c'
_symmetry_Int_Tables_number      14
_space_group_name_Hall           '-P 2ybc'
loop_
_symmetry_equiv_pos_site_id
_symmetry_equiv_pos_as_xyz
1 x,y,z
2 -x,1/2+y,1/2-z
3 -x,-y,-z
4 x,1/2-y,1/2+z
_cell_length_a                   12.602(3)
_cell_length_b                   7.4920(15)
_cell_length_c                   12.824(3)
_cell_angle_alpha                90
_cell_angle_beta                 111.00(3)
_cell_angle_gamma                90
_cell_volume                     1130.35
_exptl_crystal_colour            colorless
_exptl_crystal_description       Block
_cell_formula_units_Z            4
_exptl_crystal_recrystallization_method ethanol
loop_
_atom_site_label
_atom_site_type_symbol
_atom_site_fract_x
_atom_site_fract_y
_atom_site_fract_z
N1 N 0.3935(3) -0.4319(6) 0.5667(3)
H1 H 0.4312 -0.5275 0.5667
O1 O 0.5027(3) -0.2681(5) 0.4894(3)
N2 N 0.2757(3) -0.1384(4) 0.6724(2)
C1 C 0.2993(4) -0.4434(5) 0.6094(4)
H2 H 0.2940 -0.5657 0.6319
H3 H 0.2289 -0.4158 0.5487
C2 C 0.3090(4) -0.3232(5) 0.7059(4)
H4 H 0.2613 -0.3696 0.7446
H5 H 0.3869 -0.3245 0.7579
C3 C 0.3581(3) -0.0442(5) 0.6349(3)
H6 H 0.4334 -0.0571 0.6912
H7 H 0.3396 0.0820 0.6278
C4 C 0.3596(3) -0.1132(6) 0.5236(3)
H8 H 0.2817 -0.1299 0.4735
H9 H 0.3932 -0.0222 0.4913
C5 C 0.4230(3) -0.2848(7) 0.5289(4)
C6 C 0.2595(3) -0.0404(6) 0.7642(3)
H10 H 0.3332 -0.0018 0.8157
H11 H 0.2272 -0.1204 0.8043
C7 C 0.1827(3) 0.1221(5) 0.7265(3)
C8 C 0.1029(3) 0.1333(5) 0.6142(4)
H12 H 0.1017 0.0489 0.5606
C9 C 0.0285(4) 0.2739(6) 0.5892(4)
H13 H -0.0223 0.2845 0.5161
C10 C 0.0241(4) 0.3960(7) 0.6626(5)
H14 H -0.0288 0.4879 0.6406
C11 C 0.0969(5) 0.3858(6) 0.7691(5)
H15 H 0.0954 0.4710 0.8213
C12 C 0.1748(4) 0.2447(6) 0.7999(4)
H16 H 0.2230 0.2354 0.8741
loop_
_geom_bond_atom_site_label_1
_geom_bond_atom_site_label_2
_geom_bond_site_symmetry_1
_geom_bond_site_symmetry_2
N1 H1 1_555 1_555
O1 C5 1_555 1_555
N2 C2 1_555 1_555
C1 N1 1_555 1_555
H2 C1 1_555 1_555
H3 C1 1_555 1_555
C2 C1 1_555 1_555
H4 C2 1_555 1_555
H5 C2 1_555 1_555
C3 N2 1_555 1_555
H6 C3 1_555 1_555
H7 C3 1_555 1_555
C4 C3 1_555 1_555
H8 C4 1_555 1_555
H9 C4 1_555 1_555
C5 N1 1_555 1_555
C6 N2 1_555 1_555
H10 C6 1_555 1_555
H11 C6 1_555 1_555
C7 C6 1_555 1_555
C8 C7 1_555 1_555
H12 C8 1_555 1_555
C9 C8 1_555 1_555
H13 C9 1_555 1_555
C10 C9 1_555 1_555
H14 C10 1_555 1_555
C11 C10 1_555 1_555
H15 C11 1_555 1_555
C12 C7 1_555 1_555
H16 C12 1_555 1_555
C4 C5 1_555 1_555
C11 C12 1_555 1_555

#END
