
#######################################################################
#
#                 Cambridge Crystallographic Data Centre
#                                CCDC 
#
#######################################################################
#
# If this CIF has been generated from an entry in the Cambridge 
# Structural Database, then it will include bibliographic, chemical, 
# crystal, experimental, refinement or atomic coordinate data resulting 
# from the CCDC's data processing and validation procedures.
#
#######################################################################

data_LIVRAK
_chemical_formula_moiety         'C16 H15 F2 N1 O3'
_chemical_name_systematic        
N-(3,4-Difluorophenyl)-2-(3,4-dimethoxyphenyl)acetamide
_symmetry_cell_setting           monoclinic
_symmetry_space_group_name_H-M   'P 21/c'
_symmetry_Int_Tables_number      14
_space_group_name_Hall           '-P 2ybc'
loop_
_symmetry_equiv_pos_site_id
_symmetry_equiv_pos_as_xyz
1 x,y,z
2 -x,1/2+y,1/2-z
3 -x,-y,-z
4 x,1/2-y,1/2+z
_cell_length_a                   8.6440(11)
_cell_length_b                   18.867(6)
_cell_length_c                   9.4827(13)
_cell_angle_alpha                90
_cell_angle_beta                 111.019(11)
_cell_angle_gamma                90
_cell_volume                     1443.6
_exptl_crystal_colour            colorless
_exptl_crystal_description       block
_chemical_melting_point          '393 K'
_cell_formula_units_Z            4
_exptl_crystal_recrystallization_method 'ethyl acetate'
loop_
_atom_site_label
_atom_site_type_symbol
_atom_site_fract_x
_atom_site_fract_y
_atom_site_fract_z
C1 C 0.1632(6) 0.6519(2) -0.2444(5)
C2 C 0.0544(6) 0.6516(3) -0.3939(5)
H1 H 0.0578 0.6871 -0.4606
C3 C -0.0570(7) 0.5976(3) -0.4396(6)
C4 C -0.0637(7) 0.5447(3) -0.3452(6)
C5 C 0.0438(7) 0.5443(3) -0.1995(6)
H2 H 0.0407 0.5079 -0.1346
C6 C 0.1575(6) 0.5985(3) -0.1487(5)
H3 H 0.2306 0.5988 -0.0489
F1 F -0.1663(4) 0.59760(17) -0.5842(3)
F2 F -0.1777(4) 0.49215(17) -0.3968(4)
N1 N 0.2760(5) 0.7098(2) -0.2001(4)
H4 H 0.304(6) 0.729(3) -0.273(5)
C7 C 0.3307(6) 0.7408(3) -0.0639(5)
O1 O 0.2978(4) 0.71902(17) 0.0431(3)
C8 C 0.4341(6) 0.8066(3) -0.0549(5)
H5 H 0.5055 0.7986 -0.1122
H6 H 0.3607 0.8457 -0.1019
C9 C 0.5399(6) 0.8276(3) 0.1044(5)
C10 C 0.5239(6) 0.8935(3) 0.1612(5)
H7 H 0.4463 0.9254 0.1007
C11 C 0.6219(6) 0.9127(3) 0.3069(5)
C12 C 0.7395(6) 0.8654(3) 0.3968(5)
C13 C 0.7552(6) 0.8002(3) 0.3398(5)
H8 H 0.8334 0.7682 0.3993
C14 C 0.6557(6) 0.7815(3) 0.1945(6)
H9 H 0.6677 0.737 0.1575
O2 O 0.6123(4) 0.97621(19) 0.3725(4)
C15 C 0.4880(7) 1.0251(3) 0.2884(6)
H10 H 0.4946 1.0671 0.3474
H11 H 0.3807 1.0039 0.2643
H12 H 0.505 1.0373 0.1968
O3 O 0.8299(4) 0.88921(18) 0.5388(4)
C16 C 0.9656(6) 0.8464(3) 0.6292(5)
H13 H 1.0195 0.869 0.7251
H14 H 1.0431 0.8408 0.5786
H15 H 0.9252 0.8008 0.6446
loop_
_geom_bond_atom_site_label_1
_geom_bond_atom_site_label_2
_geom_bond_site_symmetry_1
_geom_bond_site_symmetry_2
C1 C2 1_555 1_555
C2 H1 1_555 1_555
C3 C2 1_555 1_555
C4 C3 1_555 1_555
C5 C4 1_555 1_555
H2 C5 1_555 1_555
C6 C1 1_555 1_555
H3 C6 1_555 1_555
F1 C3 1_555 1_555
F2 C4 1_555 1_555
N1 C1 1_555 1_555
H4 N1 1_555 1_555
C7 N1 1_555 1_555
O1 C7 1_555 1_555
C8 C7 1_555 1_555
H5 C8 1_555 1_555
H6 C8 1_555 1_555
C9 C8 1_555 1_555
C10 C9 1_555 1_555
H7 C10 1_555 1_555
C11 C10 1_555 1_555
C12 C11 1_555 1_555
C13 C12 1_555 1_555
H8 C13 1_555 1_555
C14 C9 1_555 1_555
H9 C14 1_555 1_555
O2 C11 1_555 1_555
C15 O2 1_555 1_555
H10 C15 1_555 1_555
H11 C15 1_555 1_555
H12 C15 1_555 1_555
O3 C12 1_555 1_555
C16 O3 1_555 1_555
H13 C16 1_555 1_555
H14 C16 1_555 1_555
H15 C16 1_555 1_555
C5 C6 1_555 1_555
C13 C14 1_555 1_555

#END
