
#######################################################################
#
#                 Cambridge Crystallographic Data Centre
#                                CCDC 
#
#######################################################################
#
# If this CIF has been generated from an entry in the Cambridge 
# Structural Database, then it will include bibliographic, chemical, 
# crystal, experimental, refinement or atomic coordinate data resulting 
# from the CCDC's data processing and validation procedures.
#
#######################################################################

data_LIVXEU
_chemical_formula_moiety         'C16 H13 N1 O5 S1'
_chemical_name_systematic        
4-(3-Nitrophenyl)-3-(phenylsulfonyl)but-3-en-2-one
_symmetry_cell_setting           monoclinic
_symmetry_space_group_name_H-M   'P 21/n'
_symmetry_Int_Tables_number      14
_space_group_name_Hall           '-P 2yn'
loop_
_symmetry_equiv_pos_site_id
_symmetry_equiv_pos_as_xyz
1 x,y,z
2 1/2-x,1/2+y,1/2-z
3 -x,-y,-z
4 1/2+x,1/2-y,1/2+z
_cell_length_a                   7.957(2)
_cell_length_b                   10.580(3)
_cell_length_c                   18.271(6)
_cell_angle_alpha                90
_cell_angle_beta                 95.976(14)
_cell_angle_gamma                90
_cell_volume                     1529.79
_exptl_crystal_colour            colorless
_exptl_crystal_description       block
_cell_formula_units_Z            4
_exptl_crystal_recrystallization_method ethanol
loop_
_atom_site_label
_atom_site_type_symbol
_atom_site_fract_x
_atom_site_fract_y
_atom_site_fract_z
S1 S 0.84122(5) 0.43647(4) 0.25330(2)
O1 O 0.99494(16) 0.40871(14) 0.10399(8)
O2 O 0.02708(17) 0.12269(16) 0.11304(9)
O3 O -0.02286(17) 0.14516(19) -0.00423(9)
O4 O 0.89564(17) 0.56378(11) 0.24210(8)
O5 O 0.72060(15) 0.41361(14) 0.30472(7)
N1 N 0.07214(18) 0.14380(15) 0.05295(9)
C1 C 0.75310(18) 0.37984(14) 0.16622(8)
C2 C 0.8455(2) 0.42725(15) 0.10363(9)
C3 C 0.7499(3) 0.5076(2) 0.04658(14)
H1 H 0.8105 0.5121 0.0039
H2 H 0.7371 0.5910 0.0659
H3 H 0.6404 0.4713 0.0332
C4 C 0.61399(18) 0.30895(15) 0.16516(8)
H4 H 0.5739 0.2956 0.2106
C5 C 0.51608(18) 0.24949(14) 0.10202(8)
C6 C 0.34611(19) 0.22278(15) 0.10721(9)
H5 H 0.2974 0.2406 0.1502
C7 C 0.25178(19) 0.16961(15) 0.04761(9)
C8 C 0.3182(2) 0.13919(17) -0.01672(9)
H6 H 0.2507 0.1052 -0.0565
C9 C 0.4884(2) 0.16088(19) -0.02025(10)
H7 H 0.5374 0.1386 -0.0625
C10 C 0.5862(2) 0.21504(17) 0.03795(10)
H8 H 0.7005 0.2289 0.0346
C11 C 1.02028(18) 0.34291(15) 0.28003(8)
C12 C 1.1754(2) 0.40079(18) 0.29545(9)
H9 H 1.1883 0.4867 0.2868
C13 C 1.3113(2) 0.3282(2) 0.32406(11)
H10 H 1.4168 0.3654 0.3350
C14 C 1.2909(3) 0.2017(2) 0.33632(12)
H11 H 1.3824 0.1538 0.3563
C15 C 1.1369(3) 0.1452(2) 0.31942(13)
H12 H 1.1252 0.0589 0.3271
C16 C 0.9995(2) 0.21509(17) 0.29120(11)
H13 H 0.8947 0.1770 0.2799
loop_
_geom_bond_atom_site_label_1
_geom_bond_atom_site_label_2
_geom_bond_site_symmetry_1
_geom_bond_site_symmetry_2
S1 O4 1_555 1_555
O1 C2 1_555 1_555
O2 N1 1_555 1_555
O3 N1 1_555 1_555
O5 S1 1_555 1_555
N1 C7 1_555 1_555
C1 S1 1_555 1_555
C2 C1 1_555 1_555
C3 C2 1_555 1_555
H1 C3 1_555 1_555
H2 C3 1_555 1_555
H3 C3 1_555 1_555
C4 C1 1_555 1_555
H4 C4 1_555 1_555
C5 C4 1_555 1_555
C6 C5 1_555 1_555
H5 C6 1_555 1_555
C7 C6 1_555 1_555
C8 C7 1_555 1_555
H6 C8 1_555 1_555
C9 C8 1_555 1_555
H7 C9 1_555 1_555
C10 C5 1_555 1_555
H8 C10 1_555 1_555
C11 S1 1_555 1_555
C12 C11 1_555 1_555
H9 C12 1_555 1_555
C13 C12 1_555 1_555
H10 C13 1_555 1_555
C14 C13 1_555 1_555
H11 C14 1_555 1_555
C15 C14 1_555 1_555
H12 C15 1_555 1_555
C16 C11 1_555 1_555
H13 C16 1_555 1_555
C9 C10 1_555 1_555
C15 C16 1_555 1_555

#END
