
#######################################################################
#
#                 Cambridge Crystallographic Data Centre
#                                CCDC 
#
#######################################################################
#
# If this CIF has been generated from an entry in the Cambridge 
# Structural Database, then it will include bibliographic, chemical, 
# crystal, experimental, refinement or atomic coordinate data resulting 
# from the CCDC's data processing and validation procedures.
#
#######################################################################

data_LIVYAQ
_chemical_formula_moiety         'C11 H17 1+,C24 B1 F20 1-'
_chemical_name_systematic        
'Pentamethylbenzenium tetrakis(pentafluorophenyl)borate'
_symmetry_cell_setting           orthorhombic
_symmetry_space_group_name_H-M   'F d d 2'
_symmetry_Int_Tables_number      43
_space_group_name_Hall           'F 2 -2d'
loop_
_symmetry_equiv_pos_site_id
_symmetry_equiv_pos_as_xyz
1 x,y,z
2 -x,-y,z
3 1/4-x,1/4+y,1/4+z
4 3/4+x,3/4-y,1/4+z
5 x,1/2+y,1/2+z
6 -x,1/2-y,1/2+z
7 1/4-x,3/4+y,3/4+z
8 3/4+x,1/4-y,3/4+z
9 1/2+x,y,1/2+z
10 1/2-x,-y,1/2+z
11 3/4-x,1/4+y,3/4+z
12 1/4+x,3/4-y,3/4+z
13 1/2+x,1/2+y,z
14 1/2-x,1/2-y,z
15 3/4-x,3/4+y,1/4+z
16 1/4+x,1/4-y,1/4+z
_cell_length_a                   34.1308(10)
_cell_length_b                   34.8106(10)
_cell_length_c                   10.8128(4)
_cell_angle_alpha                90
_cell_angle_beta                 90
_cell_angle_gamma                90
_cell_volume                     12846.8
_cell_formula_units_Z            16
loop_
_atom_site_label
_atom_site_type_symbol
_atom_site_fract_x
_atom_site_fract_y
_atom_site_fract_z
C1 C -0.1345(1) 0.2735(1) 0.8525(2)
C2 C -0.0936(1) 0.2820(1) 0.8306(2)
C3 C -0.0659(1) 0.2544(1) 0.8441(3)
C4 C -0.0784(1) 0.2172(1) 0.8870(2)
C5 C -0.1178(1) 0.2079(1) 0.9118(2)
C6 C -0.1458(1) 0.2352(1) 0.8938(2)
C7 C -0.0843(1) 0.3224(1) 0.7915(3)
C8 C -0.0237(1) 0.2622(1) 0.8160(4)
C9 C -0.0477(1) 0.1870(1) 0.9067(4)
C10 C -0.1295(1) 0.1684(1) 0.9563(3)
C11 C -0.1885(1) 0.2286(1) 0.9145(3)
H1 H -0.1496(8) 0.2779(7) 0.7760(3)
H2 H -0.1461(7) 0.2949(7) 0.9070(2)
H3 H -0.0728 0.3222 0.7094
H4 H -0.0659 0.3337 0.8494
H5 H -0.1081 0.3375 0.7904
H6 H -0.0084 0.2597 0.8911
H7 H -0.0210 0.2880 0.7836
H8 H -0.0144 0.2438 0.7551
H9 H -0.0401 0.1762 0.8275
H10 H -0.0581 0.1668 0.9591
H11 H -0.0250 0.1984 0.9461
H12 H -0.1308 0.1509 0.8865
H13 H -0.1550 0.1697 0.9959
H14 H -0.1102 0.1591 1.0152
H15 H -0.1922 0.2143 0.9905
H16 H -0.1992 0.2142 0.8457
H17 H -0.2018 0.2532 0.9208
B1 B -0.1720(1) 0.1468(1) 0.4730(2)
C12 C -0.2032(11) 0.1366(1) 0.3604(2)
F1 F -0.1944(11) 0.1933(1) 0.2397(1)
C13 C -0.2132(1) 0.1597(2) 0.2612(2)
F2 F -0.2510(1) 0.1760(1) 0.0855(1)
C14 C -0.2428(1) 0.1517(1) 0.1786(2)
F3 F -0.2939(1) 0.1111(1) 0.1135(1)
C15 C -0.2649(1) 0.1189(1) 0.1926(2)
F4 F -0.2785(1) 0.0632(1) 0.3076(1)
C16 C -0.2568(1) 0.0950(1) 0.2904(2)
F5 F -0.2212(1) 0.0796(1) 0.4650(1)
C17 C -0.2268(1) 0.1041(1) 0.3701(2)
C18 C -0.1438(1) 0.1840(1) 0.4398(2)
F6 F -0.1575(1) 0.2218(1) 0.6186(1)
C19 C -0.1381(1) 0.2166(1) 0.5107(2)
F7 F -0.1087(1) 0.2768(1) 0.5521(1)
C20 C -0.1124(1) 0.2455(1) 0.4795(2)
C21 C -0.0902(1) 0.2427(1) 0.3748(2)
F8 F -0.0650(1) 0.2704(1) 0.3430(2)
F9 F -0.0727(1) 0.2072(1) 0.1979(1)
C22 C -0.0944(1) 0.2105(1) 0.3009(2)
F10 F -0.1227(1) 0.1514(1) 0.2602(1)
C23 C -0.1204(1) 0.1826(1) 0.3355(2)
C24 C -0.2022(1) 0.1538(1) 0.5910(2)
F11 F -0.2274(1) 0.2084(1) 0.4892(1)
C25 C -0.2294(1) 0.1837(1) 0.5845(2)
F12 F -0.2847(1) 0.2182(1) 0.6539(1)
C26 C -0.2592(1) 0.1893(1) 0.6677(2)
F13 F -0.2931(1) 0.1684(1) 0.8457(1)
C27 C -0.2633(1) 0.1642(1) 0.7647(2)
F14 F -0.2413(1) 0.1098(1) 0.8728(1)
C28 C -0.2374(1) 0.1347(1) 0.7778(2)
F15 F -0.1846(1) 0.0991(1) 0.7121(1)
C29 C -0.2078(1) 0.1299(1) 0.6922(2)
C30 C -0.1393(1) 0.1129(1) 0.5022(2)
F16 F -0.1179(1) 0.1490(1) 0.6746(1)
C31 C -0.1141(1) 0.1176(1) 0.6013(2)
F17 F -0.0622(1) 0.0994(1) 0.7338(1)
C32 C -0.0848(1) 0.0924(1) 0.6340(2)
F18 F -0.0509(1) 0.0349(1) 0.5949(2)
C33 C -0.0789(1) 0.0599(1) 0.5642(2)
F19 F -0.0971(1) 0.0224(1) 0.3940(1)
C34 C -0.1022(1) 0.0540(1) 0.4647(2)
F20 F -0.1522(1) 0.0715(1) 0.3319(1)
C35 C -0.1313(1) 0.0801(1) 0.4344(2)
loop_
_geom_bond_atom_site_label_1
_geom_bond_atom_site_label_2
_geom_bond_site_symmetry_1
_geom_bond_site_symmetry_2
C1 C2 1_555 1_555
C2 C3 1_555 1_555
C3 C4 1_555 1_555
C4 C5 1_555 1_555
C5 C6 1_555 1_555
C6 C1 1_555 1_555
C7 C2 1_555 1_555
C8 C3 1_555 1_555
C9 C4 1_555 1_555
C10 C5 1_555 1_555
C11 C6 1_555 1_555
B1 C12 1_555 1_555
C12 C13 1_555 1_555
F1 C13 1_555 1_555
C13 C14 1_555 1_555
F2 C14 1_555 1_555
C14 C15 1_555 1_555
F3 C15 1_555 1_555
C15 C16 1_555 1_555
F4 C16 1_555 1_555
C16 C17 1_555 1_555
F5 C17 1_555 1_555
C17 C12 1_555 1_555
C18 B1 1_555 1_555
F6 C19 1_555 1_555
C19 C18 1_555 1_555
F7 C20 1_555 1_555
C20 C19 1_555 1_555
C21 C20 1_555 1_555
F8 C21 1_555 1_555
F9 C22 1_555 1_555
C22 C21 1_555 1_555
F10 C23 1_555 1_555
C23 C18 1_555 1_555
C24 B1 1_555 1_555
F11 C25 1_555 1_555
C25 C24 1_555 1_555
F12 C26 1_555 1_555
C26 C25 1_555 1_555
F13 C27 1_555 1_555
C27 C26 1_555 1_555
F14 C28 1_555 1_555
C28 C27 1_555 1_555
F15 C29 1_555 1_555
C29 C24 1_555 1_555
C30 B1 1_555 1_555
F16 C31 1_555 1_555
C31 C30 1_555 1_555
F17 C32 1_555 1_555
C32 C31 1_555 1_555
F18 C33 1_555 1_555
C33 C32 1_555 1_555
F19 C34 1_555 1_555
C34 C33 1_555 1_555
F20 C35 1_555 1_555
C35 C30 1_555 1_555
H1 C1 1_555 1_555
H2 C1 1_555 1_555
H3 C7 1_555 1_555
H4 C7 1_555 1_555
H5 C7 1_555 1_555
H6 C8 1_555 1_555
H7 C8 1_555 1_555
H8 C8 1_555 1_555
H9 C9 1_555 1_555
H10 C9 1_555 1_555
H11 C9 1_555 1_555
H12 C10 1_555 1_555
H13 C10 1_555 1_555
H14 C10 1_555 1_555
H15 C11 1_555 1_555
H16 C11 1_555 1_555
H17 C11 1_555 1_555
C22 C23 1_555 1_555
C28 C29 1_555 1_555
C34 C35 1_555 1_555

#END
