
#######################################################################
#
#                 Cambridge Crystallographic Data Centre
#                                CCDC 
#
#######################################################################
#
# If this CIF has been generated from an entry in the Cambridge 
# Structural Database, then it will include bibliographic, chemical, 
# crystal, experimental, refinement or atomic coordinate data resulting 
# from the CCDC's data processing and validation procedures.
#
#######################################################################

data_LIVZAS
_chemical_formula_moiety         'C15 H16 N2 O4 S1'
_chemical_name_systematic        
N,4-Dimethyl-N-(4-nitrobenzyl)benzenesulfonamide
_symmetry_cell_setting           monoclinic
_symmetry_space_group_name_H-M   'P 21/c'
_symmetry_Int_Tables_number      14
_space_group_name_Hall           '-P 2ybc'
loop_
_symmetry_equiv_pos_site_id
_symmetry_equiv_pos_as_xyz
1 x,y,z
2 -x,1/2+y,1/2-z
3 -x,-y,-z
4 x,1/2-y,1/2+z
_cell_length_a                   9.5694(19)
_cell_length_b                   6.1335(12)
_cell_length_c                   26.126(5)
_cell_angle_alpha                90
_cell_angle_beta                 100.03(3)
_cell_angle_gamma                90
_cell_volume                     1510
_exptl_crystal_colour            colorless
_exptl_crystal_description       block
_chemical_melting_point          '403-404 K'
_cell_formula_units_Z            4
_exptl_crystal_recrystallization_method 'abs. alcohol'
loop_
_atom_site_label
_atom_site_type_symbol
_atom_site_fract_x
_atom_site_fract_y
_atom_site_fract_z
S1 S 0.12405(8) 0.46188(11) 0.13266(3)
O1 O 0.0775(3) 0.6688(3) 0.14746(9)
O2 O 0.2167(2) 0.4497(4) 0.09498(8)
O3 O -0.5173(2) -0.0352(3) -0.10469(8)
O4 O -0.5383(2) -0.3199(3) -0.05751(8)
N1 N -0.0187(2) 0.3232(3) 0.10887(9)
N2 N -0.4801(2) -0.1489(4) -0.06589(9)
C1 C 0.2079(3) 0.3328(4) 0.19015(11)
C2 C 0.2046(3) 0.4289(5) 0.23762(12)
H1 H 0.1530 0.5601 0.2395
C3 C 0.2765(3) 0.3336(5) 0.28224(12)
H2 H 0.2738 0.4004 0.3149
C4 C 0.3529(3) 0.1419(4) 0.28053(11)
C5 C 0.3516(3) 0.0458(4) 0.23231(12)
H3 H 0.4007 -0.0878 0.2304
C6 C 0.2809(3) 0.1393(4) 0.18703(11)
H4 H 0.2823 0.0723 0.1543
C7 C 0.4382(3) 0.0457(5) 0.32894(12)
H5 H 0.5367 0.0959 0.3327
H6 H 0.4356 -0.1137 0.3265
H7 H 0.3981 0.0922 0.3592
C8 C -0.1208(3) 0.2999(7) 0.14427(14)
H8 H -0.2139 0.2607 0.1244
H9 H -0.1282 0.4381 0.1624
H10 H -0.0886 0.1852 0.1697
C9 C 0.0035(3) 0.1211(4) 0.08077(12)
H11 H 0.0301 0.0020 0.1062
H12 H 0.0831 0.1428 0.0616
C10 C -0.1269(3) 0.0558(4) 0.04315(11)
C11 C -0.1885(3) -0.1471(4) 0.04786(11)
H13 H -0.1499 -0.2403 0.0758
C12 C -0.3050(3) -0.2153(4) 0.01256(11)
H14 H -0.3473 -0.3534 0.0159
C13 C -0.3577(3) -0.0763(4) -0.02765(11)
C14 C -0.2999(3) 0.1272(4) -0.03363(11)
H15 H -0.3386 0.2195 -0.0617
C15 C -0.1842(3) 0.1921(4) 0.00249(11)
H16 H -0.1435 0.3317 -0.0006
loop_
_geom_bond_atom_site_label_1
_geom_bond_atom_site_label_2
_geom_bond_site_symmetry_1
_geom_bond_site_symmetry_2
S1 O1 1_555 1_555
O2 S1 1_555 1_555
O3 N2 1_555 1_555
O4 N2 1_555 1_555
N1 S1 1_555 1_555
N2 C13 1_555 1_555
C1 S1 1_555 1_555
C2 C1 1_555 1_555
H1 C2 1_555 1_555
C3 C2 1_555 1_555
H2 C3 1_555 1_555
C4 C3 1_555 1_555
C5 C4 1_555 1_555
H3 C5 1_555 1_555
C6 C1 1_555 1_555
H4 C6 1_555 1_555
C7 C4 1_555 1_555
H5 C7 1_555 1_555
H6 C7 1_555 1_555
H7 C7 1_555 1_555
C8 N1 1_555 1_555
H8 C8 1_555 1_555
H9 C8 1_555 1_555
H10 C8 1_555 1_555
C9 N1 1_555 1_555
H11 C9 1_555 1_555
H12 C9 1_555 1_555
C10 C9 1_555 1_555
C11 C10 1_555 1_555
H13 C11 1_555 1_555
C12 C11 1_555 1_555
H14 C12 1_555 1_555
C13 C12 1_555 1_555
C14 C13 1_555 1_555
H15 C14 1_555 1_555
C15 C10 1_555 1_555
H16 C15 1_555 1_555
C5 C6 1_555 1_555
C14 C15 1_555 1_555

#END
