
#######################################################################
#
#                 Cambridge Crystallographic Data Centre
#                                CCDC 
#
#######################################################################
#
# If this CIF has been generated from an entry in the Cambridge 
# Structural Database, then it will include bibliographic, chemical, 
# crystal, experimental, refinement or atomic coordinate data resulting 
# from the CCDC's data processing and validation procedures.
#
#######################################################################

data_LIWBEZ
_chemical_formula_moiety         'C24 H28 O12'
_chemical_name_systematic        
2,3,4,6-Tetra-O-acetyl-1-O-(4-methoxycinnamoyl)-\b-D-glucopyranose
_chemical_properties_biological  
'medical applications such as antitumour and antibacterial activity'
_symmetry_cell_setting           monoclinic
_symmetry_space_group_name_H-M   'P 21'
_symmetry_Int_Tables_number      4
_space_group_name_Hall           'P 2yb'
loop_
_symmetry_equiv_pos_site_id
_symmetry_equiv_pos_as_xyz
1 x,y,z
2 -x,1/2+y,-z
_cell_length_a                   9.972(2)
_cell_length_b                   6.0580(12)
_cell_length_c                   21.680(4)
_cell_angle_alpha                90
_cell_angle_beta                 97.19(3)
_cell_angle_gamma                90
_cell_volume                     1299.4
_exptl_crystal_colour            colorless
_exptl_crystal_description       needle
_cell_formula_units_Z            2
_exptl_crystal_recrystallization_method methanol
loop_
_atom_site_label
_atom_site_type_symbol
_atom_site_fract_x
_atom_site_fract_y
_atom_site_fract_z
O1 O 0.5843(6) 0.1875(12) 0.2849(3)
C1 C 0.6777(7) 0.468(2) 0.3547(4)
H1 H 0.7643 0.4270 0.3433
H2 H 0.6804 0.4617 0.3990
H3 H 0.6559 0.6153 0.3405
O2 O 0.4512(4) 0.3681(9) 0.3422(2)
C2 C 0.5738(7) 0.3138(18) 0.3256(4)
O3 O 0.2760(6) 0.0744(11) 0.4807(2)
C3 C 0.3974(9) -0.2530(17) 0.4674(4)
H4 H 0.3975 -0.2727 0.5113
H5 H 0.4888 -0.2445 0.4580
H6 H 0.3526 -0.3758 0.4457
O4 O 0.3228(5) -0.0182(9) 0.38543(19)
C4 C 0.3267(7) -0.0507(14) 0.4480(3)
O5 O 0.0717(7) -0.2870(10) 0.3886(3)
C5 C -0.0937(9) -0.123(2) 0.4448(4)
H7 H -0.1026 -0.2675 0.4619
H8 H -0.1795 -0.0758 0.4239
H9 H -0.0641 -0.0212 0.4776
O6 O 0.0213(4) 0.0758(8) 0.3744(2)
C6 C 0.0086(8) -0.1292(15) 0.3991(3)
O7 O -0.1160(7) -0.2286(11) 0.2512(3)
C7 C -0.0606(8) -0.2633(14) 0.1464(3)
H10 H -0.0739 -0.4181 0.1528
H11 H 0.0305 -0.2382 0.1381
H12 H -0.1224 -0.2137 0.1116
O8 O -0.0694(5) 0.0730(8) 0.1983(2)
C8 C -0.0852(7) -0.1400(14) 0.2026(4)
O9 O 0.1321(4) 0.3455(8) 0.24191(19)
C9 C -0.0883(6) 0.2144(13) 0.2493(3)
H13 H -0.1431 0.1388 0.2767
H14 H -0.1368 0.3458 0.2337
O10 O 0.3339(4) 0.4790(8) 0.2226(2)
C10 C 0.0445(6) 0.2813(12) 0.2859(3)
H15 H 0.0288 0.4098 0.3115
C11 C 0.1097(6) 0.1011(11) 0.3280(3)
H16 H 0.1150 -0.0366 0.3047
O11 O 0.2593(5) 0.8310(8) 0.2125(2)
O12 O 0.8530(5) 0.5383(9) -0.0491(2)
C12 C 0.2491(6) 0.1706(11) 0.3578(3)
H17 H 0.2408 0.2826 0.3897
C13 C 0.3322(6) 0.2602(11) 0.3099(3)
H18 H 0.3588 0.1408 0.2835
C14 C 0.2546(6) 0.4380(12) 0.2704(3)
H19 H 0.2400 0.5710 0.2944
C15 C 0.3289(7) 0.6851(15) 0.1968(3)
C16 C 0.4170(7) 0.7047(14) 0.1476(3)
H20 H 0.4147 0.8349 0.1248
C17 C 0.4991(7) 0.5466(15) 0.1343(3)
H21 H 0.4999 0.4189 0.1582
C18 C 0.5902(6) 0.5500(11) 0.0855(3)
C19 C 0.6731(7) 0.3730(13) 0.0785(3)
H22 H 0.6720 0.2524 0.1049
C20 C 0.7586(6) 0.3706(13) 0.0325(3)
H23 H 0.8118 0.2474 0.0275
C21 C 0.7641(6) 0.5531(13) -0.0059(3)
C22 C 0.6811(6) 0.7313(13) 0.0001(3)
H24 H 0.6826 0.8520 -0.0263
C23 C 0.5952(6) 0.7300(13) 0.0457(3)
H25 H 0.5399 0.8513 0.0498
C24 C 0.8593(8) 0.7190(19) -0.0897(4)
H26 H 0.9251 0.6896 -0.1174
H27 H 0.8848 0.8495 -0.0659
H28 H 0.7723 0.7410 -0.1134
loop_
_geom_bond_atom_site_label_1
_geom_bond_atom_site_label_2
_geom_bond_site_symmetry_1
_geom_bond_site_symmetry_2
O1 C2 1_555 1_555
C1 H1 1_555 1_555
H2 C1 1_555 1_555
H3 C1 1_555 1_555
O2 C2 1_555 1_555
C2 C1 1_555 1_555
O3 C4 1_555 1_555
C3 H4 1_555 1_555
H5 C3 1_555 1_555
H6 C3 1_555 1_555
O4 C4 1_555 1_555
C4 C3 1_555 1_555
O5 C6 1_555 1_555
C5 H7 1_555 1_555
H8 C5 1_555 1_555
H9 C5 1_555 1_555
O6 C6 1_555 1_555
C6 C5 1_555 1_555
O7 C8 1_555 1_555
C7 H10 1_555 1_555
H11 C7 1_555 1_555
H12 C7 1_555 1_555
O8 C8 1_555 1_555
C8 C7 1_555 1_555
O9 C10 1_555 1_555
C9 O8 1_555 1_555
H13 C9 1_555 1_555
H14 C9 1_555 1_555
O10 C14 1_555 1_555
C10 C9 1_555 1_555
H15 C10 1_555 1_555
C11 O6 1_555 1_555
H16 C11 1_555 1_555
O11 C15 1_555 1_555
O12 C21 1_555 1_555
C12 O4 1_555 1_555
H17 C12 1_555 1_555
C13 O2 1_555 1_555
H18 C13 1_555 1_555
C14 O9 1_555 1_555
H19 C14 1_555 1_555
C15 O10 1_555 1_555
C16 C15 1_555 1_555
H20 C16 1_555 1_555
C17 C16 1_555 1_555
H21 C17 1_555 1_555
C18 C17 1_555 1_555
C19 C18 1_555 1_555
H22 C19 1_555 1_555
C20 C19 1_555 1_555
H23 C20 1_555 1_555
C21 C20 1_555 1_555
C22 C21 1_555 1_555
H24 C22 1_555 1_555
C23 C18 1_555 1_555
H25 C23 1_555 1_555
C24 O12 1_555 1_555
H26 C24 1_555 1_555
H27 C24 1_555 1_555
H28 C24 1_555 1_555
C10 C11 1_555 1_555
C11 C12 1_555 1_555
C12 C13 1_555 1_555
C13 C14 1_555 1_555
C22 C23 1_555 1_555

#END
