
#######################################################################
#
#                 Cambridge Crystallographic Data Centre
#                                CCDC 
#
#######################################################################
#
# If this CIF has been generated from an entry in the Cambridge 
# Structural Database, then it will include bibliographic, chemical, 
# crystal, experimental, refinement or atomic coordinate data resulting 
# from the CCDC's data processing and validation procedures.
#
#######################################################################

data_LIWBUP
_chemical_formula_moiety         'C14 H10 N2 O1'
_chemical_name_systematic        3-(2-Hydroxybenzylideneamino)benzonitrile
_symmetry_cell_setting           orthorhombic
_symmetry_space_group_name_H-M   'P c a 21'
_symmetry_Int_Tables_number      29
_space_group_name_Hall           'P 2c -2ac'
loop_
_symmetry_equiv_pos_site_id
_symmetry_equiv_pos_as_xyz
1 x,y,z
2 -x,-y,1/2+z
3 1/2+x,-y,z
4 1/2-x,y,1/2+z
_cell_length_a                   26.397(5)
_cell_length_b                   3.9211(8)
_cell_length_c                   10.773(2)
_cell_angle_alpha                90
_cell_angle_beta                 90
_cell_angle_gamma                90
_cell_volume                     1115.06
_exptl_crystal_colour            yellow
_exptl_crystal_description       block
_cell_formula_units_Z            4
_exptl_crystal_recrystallization_method ethanol
loop_
_atom_site_label
_atom_site_type_symbol
_atom_site_fract_x
_atom_site_fract_y
_atom_site_fract_z
N1 N 0.45685(12) 0.2216(8) 0.2698(3)
C1 C 0.54428(13) 0.2414(9) 0.3275(3)
C2 C 0.37072(13) 0.2616(9) 0.2066(3)
H1 H 0.3822 0.3707 0.1354
C3 C 0.57998(15) 0.1611(10) 0.4186(4)
H2 H 0.5695 0.0586 0.4921
C4 C 0.40528(13) 0.1483(9) 0.2953(4)
C5 C 0.49117(14) 0.1607(9) 0.3503(4)
H3 H 0.4820 0.0622 0.4256
C6 C 0.61132(15) 0.4651(11) 0.2017(4)
H4 H 0.6223 0.5718 0.1295
C7 C 0.56075(14) 0.3894(10) 0.2165(3)
C8 C 0.33594(15) -0.0687(11) 0.4159(4)
H5 H 0.3244 -0.1813 0.4864
C9 C 0.31909(14) 0.2121(10) 0.2244(4)
C10 C 0.30192(14) 0.0473(10) 0.3297(4)
H6 H 0.2674 0.0153 0.3420
C11 C 0.28372(14) 0.3426(11) 0.1339(5)
O1 O 0.52765(10) 0.4720(8) 0.1256(3)
H7 H 0.5126 0.2913 0.1024
C12 C 0.63051(15) 0.2317(11) 0.4010(4)
H8 H 0.6541 0.1762 0.4619
C13 C 0.64583(15) 0.3840(11) 0.2932(4)
H9 H 0.6799 0.4335 0.2814
C14 C 0.38734(14) -0.0194(10) 0.3987(4)
H10 H 0.4101 -0.1004 0.4577
N2 N 0.25620(14) 0.4545(11) 0.0646(4)
loop_
_geom_bond_atom_site_label_1
_geom_bond_atom_site_label_2
_geom_bond_site_symmetry_1
_geom_bond_site_symmetry_2
N1 C4 1_555 1_555
C1 C3 1_555 1_555
C2 H1 1_555 1_555
C3 H2 1_555 1_555
C4 C2 1_555 1_555
C5 N1 1_555 1_555
H3 C5 1_555 1_555
C6 H4 1_555 1_555
C7 C1 1_555 1_555
C8 H5 1_555 1_555
C9 C2 1_555 1_555
C10 C8 1_555 1_555
H6 C10 1_555 1_555
C11 C9 1_555 1_555
O1 C7 1_555 1_555
H7 O1 1_555 1_555
C12 C3 1_555 1_555
H8 C12 1_555 1_555
C13 C6 1_555 1_555
H9 C13 1_555 1_555
C14 C4 1_555 1_555
H10 C14 1_555 1_555
N2 C11 1_555 1_555
C1 C5 1_555 1_555
C6 C7 1_555 1_555
C8 C14 1_555 1_555
C9 C10 1_555 1_555
C12 C13 1_555 1_555

#END
