
#######################################################################
#
#                 Cambridge Crystallographic Data Centre
#                                CCDC 
#
#######################################################################
#
# If this CIF has been generated from an entry in the Cambridge 
# Structural Database, then it will include bibliographic, chemical, 
# crystal, experimental, refinement or atomic coordinate data resulting 
# from the CCDC's data processing and validation procedures.
#
#######################################################################

data_LIWHOP
_chemical_formula_moiety         'C24 H18 N4 O2'
_chemical_name_systematic        
1,4-bis(5-(4-Methylphenyl)-1,3,4-oxadiazol-2-yl)benzene
_symmetry_cell_setting           monoclinic
_symmetry_space_group_name_H-M   'P 21/a'
_symmetry_Int_Tables_number      14
_space_group_name_Hall           '-P 2yab'
loop_
_symmetry_equiv_pos_site_id
_symmetry_equiv_pos_as_xyz
1 x,y,z
2 1/2-x,1/2+y,-z
3 -x,-y,-z
4 1/2+x,1/2-y,z
_cell_length_a                   22.6578
_cell_length_b                   8.8431
_cell_length_c                   9.9486
_cell_angle_alpha                90
_cell_angle_beta                 112.4571
_cell_angle_gamma                90
_cell_volume                     1842.19
_exptl_crystal_colour            white
_chemical_melting_point          'above 300 deg.C'
_cell_formula_units_Z            4
loop_
_atom_site_label
_atom_site_type_symbol
_atom_site_fract_x
_atom_site_fract_y
_atom_site_fract_z
C1 C 0.59444 0.92004 0.78146
C2 C 0.55525 1.00400 0.65785
C3 C 0.51392 0.93674 0.52622
C4 C 0.51082 0.78190 0.51488
C5 C 0.54993 0.69650 0.63824
C6 C 0.59094 0.76513 0.76868
C7 C 0.46797 0.70763 0.38034
N1 N 0.45977 0.56527 0.35517
N2 N 0.41322 0.54862 0.21209
C8 C 0.39580 0.68174 0.15823
O1 O 0.42874 0.78942 0.25921
C9 C 0.34755 0.72242 0.01298
C10 C 0.33392 0.87070 -0.03159
C11 C 0.28666 0.90549 -0.17108
C12 C 0.25187 0.79280 -0.26913
C13 C 0.26579 0.64415 -0.22456
C14 C 0.31292 0.60952 -0.08581
C15 C 0.04496 1.32915 -0.86445
C16 C 0.09420 1.34763 -0.72222
C17 C 0.12501 1.22656 -0.63420
C18 C 0.10695 1.08227 -0.68714
C19 C 0.05748 1.06238 -0.82963
C20 C 0.02721 1.18410 -0.91606
C21 C 0.13761 0.95288 -0.59940
N3 N 0.12523 0.81335 -0.63541
N4 N 0.16654 0.73099 -0.51630
C22 C 0.20176 0.82499 -0.41458
O2 O 0.18609 0.96928 -0.45958
C23 C 0.01243 1.46004 -0.96048
H1 H 0.62070 0.69717 0.86322
H2 H 0.27659 1.02069 -0.20415
H3 H 0.23885 0.55696 -0.30038
H4 H 0.32345 0.49484 -0.05115
H5 H 0.10871 1.45891 -0.67921
H6 H 0.16299 1.24402 -0.52412
H7 H 0.04339 0.95068 -0.87087
H8 H -0.01105 1.16646 -1.02610
C3B C 0.48608 1.06326 0.47378
C23B C -0.01243 1.53996 -1.03952
C24? C 0.63971 0.99274 0.92305
H9? H 0.55687 1.12433 0.66491
H10? H 0.48390 1.00445 0.43213
H11? H 0.54743 0.57654 0.62975
H12? H 0.62713 1.10922 0.92730
H13? H 0.69007 0.98842 0.93264
H14? H 0.63854 0.93671 1.02097
H15? H 0.36040 0.95909 0.04318
H16? H 0.02500 1.56353 -0.89738
H17? H -0.04059 1.44863 -1.00814
H18? H 0.02735 1.47027 -1.05371
loop_
_geom_bond_atom_site_label_1
_geom_bond_atom_site_label_2
_geom_bond_site_symmetry_1
_geom_bond_site_symmetry_2
C1 C2 1_555 1_555
C2 C3 1_555 1_555
C3 C4 1_555 1_555
C4 C5 1_555 1_555
C5 C6 1_555 1_555
C6 C1 1_555 1_555
C7 C4 1_555 1_555
N1 C7 1_555 1_555
N2 N1 1_555 1_555
C8 N2 1_555 1_555
O1 C7 1_555 1_555
C9 C8 1_555 1_555
C10 C9 1_555 1_555
C11 C10 1_555 1_555
C12 C11 1_555 1_555
C13 C12 1_555 1_555
C14 C9 1_555 1_555
C15 C16 1_555 1_555
C16 C17 1_555 1_555
C17 C18 1_555 1_555
C18 C19 1_555 1_555
C19 C20 1_555 1_555
C20 C15 1_555 1_555
C21 C18 1_555 1_555
N3 C21 1_555 1_555
N4 N3 1_555 1_555
C22 C12 1_555 1_555
O2 C21 1_555 1_555
C23 C15 1_555 1_555
H1 C6 1_555 1_555
H2 C11 1_555 1_555
H3 C13 1_555 1_555
H4 C14 1_555 1_555
H5 C16 1_555 1_555
H6 C17 1_555 1_555
H7 C19 1_555 1_555
H8 C20 1_555 1_555
C3B C3 1_555 1_555
C23B C23 1_555 1_555
C8 O1 1_555 1_555
C13 C14 1_555 1_555
N4 C22 1_555 1_555
C22 O2 1_555 1_555

#END
