
#######################################################################
#
#                 Cambridge Crystallographic Data Centre
#                                CCDC 
#
#######################################################################
#
# If this CIF has been generated from an entry in the Cambridge 
# Structural Database, then it will include bibliographic, chemical, 
# crystal, experimental, refinement or atomic coordinate data resulting 
# from the CCDC's data processing and validation procedures.
#
#######################################################################

data_LIWQUD
_chemical_formula_moiety         'C28 H28 B1 N4 S3'
_chemical_name_systematic        
Diethylamino-tris(5-methyl-2-benzothiazolyl)-borane
_symmetry_cell_setting           triclinic
_symmetry_space_group_name_H-M   'P -1'
_symmetry_Int_Tables_number      2
_space_group_name_Hall           '-P 1'
loop_
_symmetry_equiv_pos_site_id
_symmetry_equiv_pos_as_xyz
1 x,y,z
2 -x,-y,-z
_cell_length_a                   9.397(8)
_cell_length_b                   11.742(6)
_cell_length_c                   13.100(2)
_cell_angle_alpha                104.29(2)
_cell_angle_beta                 92.99(3)
_cell_angle_gamma                98.58(5)
_cell_volume                     1379.06
_cell_formula_units_Z            2
loop_
_atom_site_label
_atom_site_type_symbol
_atom_site_fract_x
_atom_site_fract_y
_atom_site_fract_z
S1 S 0.1746(2) 0.3190(1) -0.3576(1)
S2 S 0.3923(2) 0.5859(1) -0.3430(1)
S3 S 0.3656(2) 0.5765(1) -0.0550(1)
N1 N 0.0791 0.3523 -0.1723
N2 N 0.1571(5) 0.6685(4) -0.3682(3)
N3 N 0.2283(5) 0.7428(4) -0.0768(3)
N4 N -0.0200(5) 0.5859(4) -0.2219(3)
C1 C -0.1170(6) 0.5176(5) -0.3212(4)
C2 C -0.2049(8) 0.5943(7) -0.3655(5)
C3 C -0.0896(5) 0.5754(5) -0.1219(4)
C4 C -0.2227(8) 0.6331(6) -0.1052(5)
C5 C 0.1188(6) 0.1956(5) -0.3130(4)
C6 C 0.1177(7) 0.0733(5) -0.3622(5)
C7 C 0.0684(7) -0.0093(5) -0.3083(5)
C8 C 0.0189(7) 0.0245(5) -0.2010(5)
C9 C 0.0221(7) 0.1420(5) -0.1603(4)
C10 C 0.3369(6) 0.7939(5) 0.0065(4)
C11 C 0.511(1) 1.0861(6) 0.2027(6)
C12 C 0.0713(6) 0.2297(4) -0.2128(4)
C13 C -0.0369(9) -0.0730(6) -0.1550(6)
C14 C 0.1287(8) 0.4105(4) -0.2393(4)
C15 C 0.3883(6) 0.6742(4) -0.4309(4)
C16 C 0.4905(6) 0.7071(5) -0.4954(5)
C17 C 0.4614(7) 0.7790(5) -0.5390(5)
C18 C 0.3253(7) 0.8155(5) -0.5639(4)
C19 C 0.2232(6) 0.7799(5) -0.5015(4)
C20 C 0.2518(6) 0.7096(4) -0.4340(4)
C21 C 0.2990(8) 0.8945(6) -0.6355(5)
C22 C 0.2139(6) 0.6030(4) -0.3153(4)
C23 C 0.4237(6) 0.7158(5) 0.0316(4)
C24 C 0.5366(8) 0.7554(6) 0.1110(5)
C25 C 0.5596(8) 0.8759(7) 0.1652(5)
C26 C 0.4755(8) 0.9562(6) 0.1313(5)
C27 C 0.3641(8) 0.9160(5) 0.0625(5)
C28 C 0.2321(6) 0.6313(4) -0.1158(4)
B1 B 0.1388(7) 0.5525(5) -0.2235(5)
loop_
_geom_bond_atom_site_label_1
_geom_bond_atom_site_label_2
_geom_bond_site_symmetry_1
_geom_bond_site_symmetry_2
S1 C5 1_555 1_555
S2 C15 1_555 1_555
S3 C23 1_555 1_555
N1 C12 1_555 1_555
N2 C20 1_555 1_555
N3 C10 1_555 1_555
N4 C1 1_555 1_555
C1 C2 1_555 1_555
C3 N4 1_555 1_555
C4 C3 1_555 1_555
C5 C6 1_555 1_555
C6 C7 1_555 1_555
C7 C8 1_555 1_555
C8 C9 1_555 1_555
C9 C12 1_555 1_555
C10 C23 1_555 1_555
C11 C26 1_555 1_555
C12 C5 1_555 1_555
C13 C8 1_555 1_555
C14 S1 1_555 1_555
C15 C16 1_555 1_555
C16 C17 1_555 1_555
C17 C18 1_555 1_555
C18 C19 1_555 1_555
C19 C20 1_555 1_555
C20 C15 1_555 1_555
C21 C18 1_555 1_555
C22 S2 1_555 1_555
C23 C24 1_555 1_555
C24 C25 1_555 1_555
C25 C26 1_555 1_555
C26 C27 1_555 1_555
C27 C10 1_555 1_555
C28 S3 1_555 1_555
B1 N4 1_555 1_555
N1 C14 1_555 1_555
N2 C22 1_555 1_555
N3 C28 1_555 1_555
C14 B1 1_555 1_555
C22 B1 1_555 1_555
C28 B1 1_555 1_555

#END
