
#######################################################################
#
#                 Cambridge Crystallographic Data Centre
#                                CCDC 
#
#######################################################################
#
# If this CIF has been generated from an entry in the Cambridge 
# Structural Database, then it will include bibliographic, chemical, 
# crystal, experimental, refinement or atomic coordinate data resulting 
# from the CCDC's data processing and validation procedures.
#
#######################################################################

data_LIWTOB
_chemical_formula_moiety         'C14 H15 F1 I1 N3'
_chemical_name_systematic        
2-(Methylamino)-4-(4-fluorophenyl)-5-iodo-6-isopropylpyrimidine
_symmetry_cell_setting           monoclinic
_symmetry_space_group_name_H-M   'P 21/n'
_symmetry_Int_Tables_number      14
_space_group_name_Hall           '-P 2yn'
loop_
_symmetry_equiv_pos_site_id
_symmetry_equiv_pos_as_xyz
1 x,y,z
2 1/2-x,1/2+y,1/2-z
3 -x,-y,-z
4 1/2+x,1/2-y,1/2+z
_cell_length_a                   11.8954(12)
_cell_length_b                   5.5807(4)
_cell_length_c                   22.887(2)
_cell_angle_alpha                90
_cell_angle_beta                 102.431(7)
_cell_angle_gamma                90
_cell_volume                     1483.73
_exptl_crystal_colour            colorless
_exptl_crystal_description       prism
_chemical_melting_point          195-196deg.C
_cell_formula_units_Z            4
_exptl_crystal_recrystallization_method chloroform
loop_
_atom_site_label
_atom_site_type_symbol
_atom_site_fract_x
_atom_site_fract_y
_atom_site_fract_z
C1 C 0.2759(2) 0.9249(5) 0.87191(11)
C2 C 0.1862(2) 0.8203(6) 0.89252(12)
C3 C 0.3160(2) 0.5844(6) 0.95537(11)
C4 C 0.3873(2) 0.8417(5) 0.89549(11)
C5 C 0.4891(2) 0.9243(5) 0.87290(11)
C6 C 0.5458(3) 1.1323(7) 0.89262(17)
H1 H 0.5218 1.2245 0.9215
C7 C 0.6393(3) 1.2064(7) 0.8696(2)
H2 H 0.6780 1.3480 0.8825
C8 C 0.6720(3) 1.0672(8) 0.82842(17)
C9 C 0.6187(3) 0.8582(8) 0.80804(16)
H3 H 0.6440 0.7670 0.7794
C10 C 0.5265(3) 0.7858(7) 0.83101(14)
H4 H 0.4892 0.6426 0.8182
C11 C 0.2474(3) 0.2918(8) 1.01971(17)
H5 H 0.2816 0.1788 1.0500
H6 H 0.1984 0.2086 0.9872
H7 H 0.2027 0.4059 1.0364
C12 C 0.0604(2) 0.8861(7) 0.86952(11)
H8 H 0.0576 1.0558 0.8583
C13 C 0.0113(5) 0.7453(11) 0.8140(2)
H10 H -0.0681 0.7876 0.7998
H11 H 0.0172 0.5772 0.8230
H12 H 0.0535 0.7812 0.7837
C14 C -0.0072(5) 0.8578(15) 0.9176(2)
H13 H -0.0861 0.9004 0.9018
H14 H 0.0245 0.9607 0.9506
H15 H -0.0030 0.6943 0.9309
F1 F 0.76334(19) 1.1418(6) 0.80558(12)
I1 I 0.251216(18) 1.20033(4) 0.807770(8)
N1 N 0.40856(19) 0.6735(4) 0.93803(10)
N2 N 0.2056(2) 0.6484(5) 0.93399(10)
N3 N 0.3365(2) 0.4146(6) 0.99803(12)
H22 H 0.399(3) 0.394(7) 1.0122(16)
H9? H 0.0553 0.9988 0.8362
C15? C -0.0084(11) 0.6663(17) 0.8467(7)
H16? H 0.0232 0.5929 0.8159
H17? H -0.0869 0.7108 0.8308
H18? H -0.0053 0.5549 0.8790
C16? C 0.0027(9) 0.997(3) 0.9152(4)
H19? H -0.0758 1.0334 0.8970
H20? H 0.0423 1.1414 0.9303
H21? H 0.0049 0.8864 0.9476
loop_
_geom_bond_atom_site_label_1
_geom_bond_atom_site_label_2
_geom_bond_site_symmetry_1
_geom_bond_site_symmetry_2
C1 C2 1_555 1_555
C2 C12 1_555 1_555
C3 N1 1_555 1_555
C4 C1 1_555 1_555
C5 C4 1_555 1_555
C6 C5 1_555 1_555
H1 C6 1_555 1_555
C7 C6 1_555 1_555
H2 C7 1_555 1_555
C8 C7 1_555 1_555
C9 C8 1_555 1_555
H3 C9 1_555 1_555
C10 C5 1_555 1_555
H4 C10 1_555 1_555
C11 H5 1_555 1_555
H6 C11 1_555 1_555
H7 C11 1_555 1_555
C12 H8 1_555 1_555
C13 C12 1_555 1_555
H10 C13 1_555 1_555
H11 C13 1_555 1_555
H12 C13 1_555 1_555
C14 C12 1_555 1_555
H13 C14 1_555 1_555
H14 C14 1_555 1_555
H15 C14 1_555 1_555
F1 C8 1_555 1_555
I1 C1 1_555 1_555
N1 C4 1_555 1_555
N2 C2 1_555 1_555
N3 C3 1_555 1_555
H22 N3 1_555 1_555
C3 N2 1_555 1_555
C9 C10 1_555 1_555
C11 N3 1_555 1_555

#END
