
#######################################################################
#
#                 Cambridge Crystallographic Data Centre
#                                CCDC 
#
#######################################################################
#
# If this CIF has been generated from an entry in the Cambridge 
# Structural Database, then it will include bibliographic, chemical, 
# crystal, experimental, refinement or atomic coordinate data resulting 
# from the CCDC's data processing and validation procedures.
#
#######################################################################

data_LIWYUL
_chemical_formula_moiety         'C17 H22 N2 S2 Te1'
_chemical_name_systematic        
'(8-(N,N-Dimethylamino)naphthyl)-telluryl diethyldithiacarbamate'
_symmetry_cell_setting           monoclinic
_symmetry_space_group_name_H-M   'P 21/c'
_symmetry_Int_Tables_number      14
_space_group_name_Hall           '-P 2ybc'
loop_
_symmetry_equiv_pos_site_id
_symmetry_equiv_pos_as_xyz
1 x,y,z
2 -x,1/2+y,1/2-z
3 -x,-y,-z
4 x,1/2-y,1/2+z
_cell_length_a                   10.496(2)
_cell_length_b                   11.7899(11)
_cell_length_c                   16.094(3)
_cell_angle_alpha                90
_cell_angle_beta                 108.427(12)
_cell_angle_gamma                90
_cell_volume                     1889.47
_chemical_melting_point          '142-144 deg.C'
_cell_formula_units_Z            4
_exptl_crystal_recrystallization_method acetone/pentane
loop_
_atom_site_label
_atom_site_type_symbol
_atom_site_fract_x
_atom_site_fract_y
_atom_site_fract_z
Te1 Te 0.3000(1) 0.9864(1) 0.1244(1)
S1 S 0.1457(1) 1.1470(1) 0.0505(1)
S2 S 0.3567(1) 1.1191(1) -0.0371(1)
N1 N 0.4193(3) 0.8332(2) 0.2277(2)
N2 N 0.1867(3) 1.2937(3) -0.0608(2)
C1 C 0.1643(3) 0.9427(3) 0.1937(2)
C2 C 0.0353(4) 0.9843(3) 0.1732(2)
C3 C -0.0491(4) 0.9505(4) 0.2218(3)
C4 C -0.0051(4) 0.8785(4) 0.2904(3)
C5 C 0.1749(5) 0.7545(4) 0.3841(3)
C6 C 0.2978(5) 0.7078(4) 0.4032(3)
C7 C 0.3813(5) 0.7334(4) 0.3528(3)
C8 C 0.3383(4) 0.8084(3) 0.2841(2)
C9 C 0.2110(3) 0.8626(3) 0.2633(2)
C10 C 0.1251(4) 0.8319(3) 0.3137(2)
C11 C 0.5561(4) 0.8734(5) 0.2762(3)
C12 C 0.4279(5) 0.7335(4) 0.1742(3)
C13 C 0.2300(4) 1.1946(3) -0.0216(2)
C14 C 0.0849(4) 1.3682(3) -0.0387(3)
C15 C -0.0514(5) 1.3397(5) -0.0955(4)
C16 C 0.2477(5) 1.3441(4) -0.1225(3)
C17 C 0.3621(5) 1.4204(4) -0.0776(4)
H1 H 0.0036(4) 1.0351(3) 0.1269(2)
H2 H -0.1365(4) 0.9781(4) 0.2064(3)
H3 H -0.0616(4) 0.8595(4) 0.3226(3)
H4 H 0.1209(5) 0.7354(4) 0.4180(3)
H5 H 0.3276(5) 0.6582(4) 0.4502(3)
H6 H 0.4655(5) 0.6998(4) 0.3657(3)
H7 H 0.6000(13) 0.8985(26) 0.2355(3)
H8 H 0.6066(11) 0.8125(9) 0.3110(17)
H9 H 0.5505(4) 0.9352(19) 0.3137(16)
H10 H 0.4705(25) 0.7549(7) 0.1319(12)
H11 H 0.3392(5) 0.7057(15) 0.1446(14)
H12 H 0.4796(24) 0.6752(9) 0.2115(4)
H13 H 0.0908(4) 1.3574(3) 0.0222(3)
H14 H 0.1038(4) 1.4473(3) -0.0468(3)
H15 H -0.1145(8) 1.3926(26) -0.0854(24)
H16 H -0.0739(20) 1.2644(17) -0.0823(22)
H17 H -0.0546(14) 1.3436(41) -0.1557(4)
H18 H 0.1801(5) 1.3869(4) -0.1664(3)
H19 H 0.2794(5) 1.2840(4) -0.1522(3)
H20 H 0.3960(21) 1.4550(21) -0.1203(4)
H21 H 0.4321(14) 1.3770(6) -0.0372(16)
H22 H 0.3317(9) 1.4783(16) -0.0463(18)
loop_
_geom_bond_atom_site_label_1
_geom_bond_atom_site_label_2
_geom_bond_site_symmetry_1
_geom_bond_site_symmetry_2
Te1 S1 1_555 1_555
S1 C13 1_555 1_555
S2 C13 1_555 1_555
N1 C8 1_555 1_555
N2 C13 1_555 1_555
C1 Te1 1_555 1_555
C2 C1 1_555 1_555
C3 C2 1_555 1_555
C4 C3 1_555 1_555
C5 C6 1_555 1_555
C6 C7 1_555 1_555
C7 C8 1_555 1_555
C8 C9 1_555 1_555
C9 C1 1_555 1_555
C10 C4 1_555 1_555
C11 N1 1_555 1_555
C12 N1 1_555 1_555
C14 N2 1_555 1_555
C15 C14 1_555 1_555
C16 N2 1_555 1_555
C17 C16 1_555 1_555
H1 C2 1_555 1_555
H2 C3 1_555 1_555
H3 C4 1_555 1_555
H4 C5 1_555 1_555
H5 C6 1_555 1_555
H6 C7 1_555 1_555
H7 C11 1_555 1_555
H8 C11 1_555 1_555
H9 C11 1_555 1_555
H10 C12 1_555 1_555
H11 C12 1_555 1_555
H12 C12 1_555 1_555
H13 C14 1_555 1_555
H14 C14 1_555 1_555
H15 C15 1_555 1_555
H16 C15 1_555 1_555
H17 C15 1_555 1_555
H18 C16 1_555 1_555
H19 C16 1_555 1_555
H20 C17 1_555 1_555
H21 C17 1_555 1_555
H22 C17 1_555 1_555
C5 C10 1_555 1_555
C9 C10 1_555 1_555

#END
