
#######################################################################
#
#                 Cambridge Crystallographic Data Centre
#                                CCDC 
#
#######################################################################
#
# If this CIF has been generated from an entry in the Cambridge 
# Structural Database, then it will include bibliographic, chemical, 
# crystal, experimental, refinement or atomic coordinate data resulting 
# from the CCDC's data processing and validation procedures.
#
#######################################################################

data_LIWYOF
_chemical_formula_moiety         'C12 H12 I1 N1 Se1'
_chemical_name_systematic        
Iodo-(8-(N,N-dimethylamino)naphthyl)-selenium(ii)
_symmetry_cell_setting           orthorhombic
_symmetry_space_group_name_H-M   'P b c a'
_symmetry_Int_Tables_number      61
_space_group_name_Hall           '-P 2ac 2ab'
loop_
_symmetry_equiv_pos_site_id
_symmetry_equiv_pos_as_xyz
1 x,y,z
2 1/2-x,-y,1/2+z
3 1/2+x,1/2-y,-z
4 -x,1/2+y,1/2-z
5 -x,-y,-z
6 1/2+x,y,1/2-z
7 1/2-x,1/2+y,z
8 x,1/2-y,1/2+z
_cell_length_a                   7.5300(10)
_cell_length_b                   12.023(2)
_cell_length_c                   28.704(4)
_cell_angle_alpha                90
_cell_angle_beta                 90
_cell_angle_gamma                90
_cell_volume                     2598.66
_exptl_crystal_colour            'brick red'
_chemical_melting_point          '132-134 deg.C'
_cell_formula_units_Z            8
_exptl_crystal_recrystallization_method dichloromethane/ether
loop_
_atom_site_label
_atom_site_type_symbol
_atom_site_fract_x
_atom_site_fract_y
_atom_site_fract_z
I1 I 0.2419(1) 0.4503(1) 0.0550(1)
Se1 Se -0.0081(1) 0.6129(1) 0.0686(1)
N1 N -0.2198(6) 0.7405(4) 0.0811(2)
C1 C 0.0606(9) 0.6548(6) 0.1309(3)
C2 C 0.1878(11) 0.6049(8) 0.1576(3)
C3 C 0.2301(14) 0.6452(12) 0.2015(4)
C4 C 0.1475(14) 0.7403(10) 0.2191(4)
C5 C -0.0734(16) 0.8908(8) 0.2078(4)
C6 C -0.2022(17) 0.9369(7) 0.1816(4)
C7 C -0.2560(13) 0.8892(6) 0.1395(3)
C8 C -0.1729(10) 0.7979(5) 0.1231(3)
C9 C -0.0332(9) 0.7479(5) 0.1486(3)
C10 C 0.0149(12) 0.7933(7) 0.1917(3)
C11 C -0.3909(9) 0.6792(6) 0.0857(3)
C12 C -0.2252(10) 0.8164(6) 0.0389(3)
H1 H 0.2470(11) 0.5427(8) 0.1462(3)
H2 H 0.3145(14) 0.6084(12) 0.2195(4)
H3 H 0.1787(14) 0.7684(10) 0.2482(4)
H4 H -0.0421(16) 0.9226(8) 0.2361(4)
H5 H -0.2567(17) 1.0019(7) 0.1918(4)
H6 H -0.3492(13) 0.9205(6) 0.1228(3)
H7 H -0.4172(32) 0.6419(31) 0.0570(6)
H8 H -0.4844(14) 0.7307(8) 0.0929(16)
H9 H -0.3813(22) 0.6254(27) 0.1103(11)
H10 H -0.2374(57) 0.7724(6) 0.0112(3)
H11 H -0.1172(27) 0.8586(26) 0.0374(9)
H12 H -0.3245(36) 0.8661(25) 0.0415(8)
loop_
_geom_bond_atom_site_label_1
_geom_bond_atom_site_label_2
_geom_bond_site_symmetry_1
_geom_bond_site_symmetry_2
I1 Se1 1_555 1_555
Se1 C1 1_555 1_555
N1 C8 1_555 1_555
C1 C2 1_555 1_555
C2 C3 1_555 1_555
C3 C4 1_555 1_555
C4 C10 1_555 1_555
C5 C6 1_555 1_555
C6 C7 1_555 1_555
C7 C8 1_555 1_555
C8 C9 1_555 1_555
C9 C1 1_555 1_555
C10 C5 1_555 1_555
C11 N1 1_555 1_555
C12 N1 1_555 1_555
H1 C2 1_555 1_555
H2 C3 1_555 1_555
H3 C4 1_555 1_555
H4 C5 1_555 1_555
H5 C6 1_555 1_555
H6 C7 1_555 1_555
H7 C11 1_555 1_555
H8 C11 1_555 1_555
H9 C11 1_555 1_555
H10 C12 1_555 1_555
H11 C12 1_555 1_555
H12 C12 1_555 1_555
C9 C10 1_555 1_555

#END
