
#######################################################################
#
#                 Cambridge Crystallographic Data Centre
#                                CCDC 
#
#######################################################################
#
# If this CIF has been generated from an entry in the Cambridge 
# Structural Database, then it will include bibliographic, chemical, 
# crystal, experimental, refinement or atomic coordinate data resulting 
# from the CCDC's data processing and validation procedures.
#
#######################################################################

data_LIWYIB01
_chemical_formula_moiety         'C8 H6 N4 S1'
_chemical_name_systematic        2,2'-Sulfanediyldipyrazine
_symmetry_cell_setting           monoclinic
_symmetry_space_group_name_H-M   'P 21/n'
_symmetry_Int_Tables_number      14
_space_group_name_Hall           '-P 2yn'
loop_
_symmetry_equiv_pos_site_id
_symmetry_equiv_pos_as_xyz
1 x,y,z
2 1/2-x,1/2+y,1/2-z
3 -x,-y,-z
4 1/2+x,1/2-y,1/2+z
_cell_length_a                   3.9096(7)
_cell_length_b                   20.518(4)
_cell_length_c                   10.6275(18)
_cell_angle_alpha                90
_cell_angle_beta                 98.402(3)
_cell_angle_gamma                90
_cell_volume                     843.358
_exptl_crystal_colour            yellow
_exptl_crystal_description       Block
_cell_formula_units_Z            4
loop_
_atom_site_label
_atom_site_type_symbol
_atom_site_fract_x
_atom_site_fract_y
_atom_site_fract_z
S1 S 0.37138(15) 0.20576(2) 0.58991(4)
N1 N 0.0853(4) 0.09515(7) 0.48161(13)
N2 N 0.2887(4) 0.18634(7) 0.82679(14)
N3 N 0.5418(5) 0.05881(7) 0.84184(14)
N4 N 0.1909(5) 0.13582(8) 0.23926(14)
C1 C 0.2389(4) 0.15151(7) 0.46306(14)
C2 C 0.3940(4) 0.15668(7) 0.72764(14)
C3 C -0.0119(5) 0.05930(9) 0.37747(17)
H1 H -0.1186 0.0194 0.3861
C4 C 0.2916(5) 0.17148(9) 0.34169(16)
H2 H 0.4009 0.2111 0.3326
C5 C 0.0393(5) 0.07903(10) 0.25857(17)
H3 H -0.0334 0.0522 0.1893
C6 C 0.4290(6) 0.08832(10) 0.94064(17)
H4 H 0.4282 0.0652 1.0159
C7 C 0.5293(5) 0.09381(8) 0.73673(16)
H5 H 0.6134 0.0759 0.6669
C8 C 0.3148(6) 0.15156(10) 0.93377(17)
H6 H 0.2533 0.1709 1.0064
loop_
_geom_bond_atom_site_label_1
_geom_bond_atom_site_label_2
_geom_bond_site_symmetry_1
_geom_bond_site_symmetry_2
S1 C1 1_555 1_555
N1 C1 1_555 1_555
N2 C2 1_555 1_555
N3 C6 1_555 1_555
N4 C4 1_555 1_555
C1 C4 1_555 1_555
C2 S1 1_555 1_555
C3 N1 1_555 1_555
H1 C3 1_555 1_555
C4 H2 1_555 1_555
C5 N4 1_555 1_555
H3 C5 1_555 1_555
C6 H4 1_555 1_555
C7 N3 1_555 1_555
H5 C7 1_555 1_555
C8 N2 1_555 1_555
H6 C8 1_555 1_555
C2 C7 1_555 1_555
C3 C5 1_555 1_555
C6 C8 1_555 1_555

#END
