
#######################################################################
#
#                 Cambridge Crystallographic Data Centre
#                                CCDC 
#
#######################################################################
#
# If this CIF has been generated from an entry in the Cambridge 
# Structural Database, then it will include bibliographic, chemical, 
# crystal, experimental, refinement or atomic coordinate data resulting 
# from the CCDC's data processing and validation procedures.
#
#######################################################################

data_LIWZAS
_chemical_formula_moiety         'C18 H24 N2 Se1'
_chemical_name_systematic        bis((N,N-Dimethylamino)benzyl)selenide
_symmetry_cell_setting           monoclinic
_symmetry_space_group_name_H-M   'P 21/n'
_symmetry_Int_Tables_number      14
_space_group_name_Hall           '-P 2yn'
loop_
_symmetry_equiv_pos_site_id
_symmetry_equiv_pos_as_xyz
1 x,y,z
2 1/2-x,1/2+y,1/2-z
3 -x,-y,-z
4 1/2+x,1/2-y,1/2+z
_cell_length_a                   10.1630(12)
_cell_length_b                   5.5209(8)
_cell_length_c                   32.125(5)
_cell_angle_alpha                90
_cell_angle_beta                 97.242(10)
_cell_angle_gamma                90
_cell_volume                     1788.12
_exptl_crystal_colour            white
_exptl_crystal_description       needles
_chemical_melting_point          '62-64 deg.C'
_cell_formula_units_Z            4
_exptl_crystal_recrystallization_method methanol
loop_
_atom_site_label
_atom_site_type_symbol
_atom_site_fract_x
_atom_site_fract_y
_atom_site_fract_z
Se1 Se 0.1249(1) 0.1870(1) 0.1131(1)
N1 N -0.1039(3) -0.1036(5) 0.0571(1)
N2 N 0.3727(2) 0.4530(6) 0.0888(1)
C1 C -0.0262(3) 0.1350(6) 0.1435(1)
C2 C -0.0494(3) 0.2956(7) 0.1749(1)
C3 C -0.1574(4) 0.2637(8) 0.1966(1)
C4 C -0.2430(4) 0.0747(9) 0.1870(1)
C5 C -0.2213(3) -0.0825(8) 0.1552(1)
C6 C -0.1136(3) -0.0563(6) 0.1326(1)
C7 C -0.0944(3) -0.2252(6) 0.0974(1)
C8 C -0.0664(5) -0.2717(9) 0.0255(1)
C9 C -0.2350(4) -0.0076(10) 0.0445(1)
C10 C 0.2558(3) 0.2268(5) 0.1619(1)
C11 C 0.2574(3) 0.0655(7) 0.1953(1)
C12 C 0.3495(3) 0.0879(7) 0.2304(1)
C13 C 0.4421(3) 0.2709(7) 0.2327(1)
C14 C 0.4424(3) 0.4289(7) 0.1993(1)
C15 C 0.3510(3) 0.4100(6) 0.1635(1)
C16 C 0.3552(3) 0.5801(7) 0.1275(1)
C17 C 0.3544(5) 0.6169(9) 0.0531(1)
C18 C 0.4998(4) 0.3301(9) 0.0911(2)
H1 H 0.0078(3) 0.4254(7) 0.1814(1)
H2 H -0.1720(4) 0.3714(8) 0.2178(1)
H3 H -0.3150(4) 0.0524(9) 0.2018(1)
H4 H -0.2803(3) -0.2096(8) 0.1486(1)
H5 H -0.0079(3) -0.3010(6) 0.1032(1)
H6 H -0.1608(3) -0.3520(6) 0.0961(1)
H7 H 0.0229(10) -0.3262(37) 0.0336(4)
H8 H -0.0720(24) -0.1911(16) -0.0011(2)
H9 H -0.1253(17) -0.4082(23) 0.0234(6)
H10 H -0.2552(12) 0.1120(39) 0.0644(5)
H11 H -0.2988(5) -0.1364(14) 0.0435(9)
H12 H -0.2383(9) 0.0654(48) 0.0173(4)
H13 H 0.1953(3) -0.0589(7) 0.1939(1)
H14 H 0.3491(3) -0.0207(7) 0.2525(1)
H15 H 0.5037(3) 0.2882(7) 0.2565(1)
H16 H 0.5057(3) 0.5513(7) 0.2009(1)
H17 H 0.2733(3) 0.6721(7) 0.1233(1)
H18 H 0.4277(3) 0.6935(7) 0.1341(1)
H19 H 0.3591(25) 0.5272(12) 0.0277(2)
H20 H 0.4228(16) 0.7379(29) 0.0562(4)
H21 H 0.2693(12) 0.6937(36) 0.0519(5)
H22 H 0.5079(12) 0.2168(36) 0.1140(6)
H23 H 0.5701(4) 0.4471(10) 0.0956(9)
H24 H 0.5056(12) 0.2453(41) 0.0653(4)
loop_
_geom_bond_atom_site_label_1
_geom_bond_atom_site_label_2
_geom_bond_site_symmetry_1
_geom_bond_site_symmetry_2
Se1 C1 1_555 1_555
N1 C7 1_555 1_555
N2 C16 1_555 1_555
C1 C2 1_555 1_555
C2 C3 1_555 1_555
C3 C4 1_555 1_555
C4 C5 1_555 1_555
C5 C6 1_555 1_555
C6 C1 1_555 1_555
C7 C6 1_555 1_555
C8 N1 1_555 1_555
C9 N1 1_555 1_555
C10 Se1 1_555 1_555
C11 C10 1_555 1_555
C12 C11 1_555 1_555
C13 C12 1_555 1_555
C14 C13 1_555 1_555
C15 C10 1_555 1_555
C16 C15 1_555 1_555
C17 N2 1_555 1_555
C18 N2 1_555 1_555
H1 C2 1_555 1_555
H2 C3 1_555 1_555
H3 C4 1_555 1_555
H4 C5 1_555 1_555
H5 C7 1_555 1_555
H6 C7 1_555 1_555
H7 C8 1_555 1_555
H8 C8 1_555 1_555
H9 C8 1_555 1_555
H10 C9 1_555 1_555
H11 C9 1_555 1_555
H12 C9 1_555 1_555
H13 C11 1_555 1_555
H14 C12 1_555 1_555
H15 C13 1_555 1_555
H16 C14 1_555 1_555
H17 C16 1_555 1_555
H18 C16 1_555 1_555
H19 C17 1_555 1_555
H20 C17 1_555 1_555
H21 C17 1_555 1_555
H22 C18 1_555 1_555
H23 C18 1_555 1_555
H24 C18 1_555 1_555
C14 C15 1_555 1_555

#END
