
#######################################################################
#
#                 Cambridge Crystallographic Data Centre
#                                CCDC 
#
#######################################################################
#
# If this CIF has been generated from an entry in the Cambridge 
# Structural Database, then it will include bibliographic, chemical, 
# crystal, experimental, refinement or atomic coordinate data resulting 
# from the CCDC's data processing and validation procedures.
#
#######################################################################

data_LIXBOK
_chemical_formula_moiety         'C34 H40 N2 O2'
_chemical_name_systematic        
(R,R)-2,2'-(1,2-bis(((6,6-Dimethylbicyclo[3.1.1]hept-2-en-2-yl)methylene)amino)ethane-1,2-diyl)diphenol
_symmetry_cell_setting           trigonal
_symmetry_space_group_name_H-M   'P 31'
_symmetry_Int_Tables_number      144
_space_group_name_Hall           'P 31'
loop_
_symmetry_equiv_pos_site_id
_symmetry_equiv_pos_as_xyz
1 x,y,z
2 -y,x-y,1/3+z
3 -x+y,-x,2/3+z
_cell_length_a                   24.194(3)
_cell_length_b                   24.194(3)
_cell_length_c                   13.040(3)
_cell_angle_alpha                90
_cell_angle_beta                 90
_cell_angle_gamma                120
_cell_volume                     6610.34
_exptl_crystal_colour            colorless
_exptl_crystal_description       needle
_chemical_melting_point          138deg.C
_cell_formula_units_Z            9
_exptl_crystal_recrystallization_method dichloromethane/acetonitrile
loop_
_atom_site_label
_atom_site_type_symbol
_atom_site_fract_x
_atom_site_fract_y
_atom_site_fract_z
O1 O 0.04091(15) 0.81928(14) 0.5641(3)
O2 O 0.22588(17) 0.70546(15) 0.5487(3)
N1 N 0.07185(15) 0.75339(15) 0.4432(3)
N2 N 0.20389(15) 0.78639(16) 0.4360(3)
C1 C 0.10208(18) 0.74090(18) 0.5305(3)
H1 H 0.0980 0.6980 0.5218
C2 C 0.17528(18) 0.79373(19) 0.5298(3)
H2 H 0.1788 0.8367 0.5290
C3 C 0.06887(18) 0.74141(17) 0.6282(3)
C4 C 0.03993(19) 0.78002(19) 0.6399(3)
C5 C 0.00967(19) 0.77842(19) 0.7310(3)
H3 H -0.0110 0.8029 0.7373
C6 C 0.00909(19) 0.7421(2) 0.8122(4)
H4 H -0.0111 0.7422 0.8746
C7 C 0.0381(2) 0.7051(2) 0.8033(4)
H5 H 0.0381 0.6800 0.8594
C8 C 0.06684(19) 0.70518(18) 0.7118(4)
H6 H 0.0860 0.6793 0.7059
C9 C 0.21061(19) 0.78971(19) 0.6222(3)
C10 C 0.2327(2) 0.7455(2) 0.6275(4)
C11 C 0.2626(2) 0.7420(2) 0.7161(4)
H7 H 0.2772 0.7122 0.7198
C12 C 0.2714(2) 0.7809(2) 0.7987(4)
H8 H 0.2908 0.7770 0.8595
C13 C 0.2518(2) 0.8259(2) 0.7935(4)
H9 H 0.2592 0.8539 0.8494
C14 C 0.22165(19) 0.8293(2) 0.7060(4)
H10 H 0.2079 0.8598 0.7030
C15 C 0.06305(18) 0.72259(19) 0.3602(3)
H11 H 0.0752 0.6909 0.3573
C16 C 0.03520(19) 0.73381(19) 0.2699(3)
C17 C 0.00823(19) 0.7785(2) 0.2708(4)
H12 H 0.0057 0.7959 0.3390
C18 C -0.05389(19) 0.7462(2) 0.2066(4)
H13 H -0.0779 0.6990 0.2113
H14 H -0.0821 0.7644 0.2174
C19 C -0.0103(2) 0.7725(2) 0.1113(4)
H15 H -0.0282 0.7853 0.0526
C20 C 0.0132(2) 0.7262(2) 0.0848(4)
H16 H -0.0218 0.6875 0.0523
H17 H 0.0488 0.7465 0.0351
C21 C 0.03545(19) 0.70754(19) 0.1796(4)
H18 H 0.0496 0.6774 0.1754
C22 C 0.03794(19) 0.82796(19) 0.1805(4)
C23 C 0.0219(2) 0.8817(2) 0.1901(4)
H19 H 0.0325 0.9058 0.1258
H20 H 0.0468 0.9104 0.2462
H21 H -0.0237 0.8633 0.2045
C24 C 0.10864(19) 0.8571(2) 0.1584(4)
H22 H 0.1190 0.8812 0.0940
H23 H 0.1192 0.8230 0.1523
H24 H 0.1333 0.8858 0.2145
C25 C 0.21884(18) 0.82744(19) 0.3647(3)
H25 H 0.2078 0.8597 0.3740
C26 C 0.25117(18) 0.82898(19) 0.2709(4)
C27 C 0.27490(19) 0.7828(2) 0.2482(4)
H26 H 0.2670 0.7502 0.3020
C28 C 0.3458(2) 0.8248(2) 0.2096(4)
H27 H 0.3694 0.8675 0.2420
H28 H 0.3709 0.8028 0.2108
C29 C 0.3167(2) 0.8244(2) 0.1036(4)
H29 H 0.3415 0.8239 0.0427
C30 C 0.2978(2) 0.8764(2) 0.1031(4)
H30 H 0.3365 0.9188 0.0955
H31 H 0.2693 0.8696 0.0441
C31 C 0.26432(19) 0.8743(2) 0.2007(3)
H32 H 0.2523 0.9055 0.2131
C32 C 0.2579(2) 0.7581(2) 0.1350(4)
C33 C 0.1923(2) 0.7402(2) 0.0925(4)
H33 H 0.1601 0.6994 0.1221
H34 H 0.1925 0.7362 0.0177
H35 H 0.1821 0.7735 0.1103
C34 C 0.2715(2) 0.7039(2) 0.1132(4)
H36 H 0.2406 0.6655 0.1502
H37 H 0.3148 0.7164 0.1359
H38 H 0.2677 0.6950 0.0394
H39 H 0.050(2) 0.807(2) 0.501(4)
H40 H 0.216(3) 0.720(3) 0.491(5)
O3 O -0.19092(13) 0.40809(13) 0.4323(3)
O4 O 0.09549(13) 0.60295(13) 0.4628(3)
N3 N -0.10674(15) 0.49606(15) 0.5544(3)
N4 N 0.01348(14) 0.49983(15) 0.5696(3)
C35 C -0.06241(18) 0.51749(19) 0.4682(3)
H41 H -0.0327 0.5645 0.4744
C36 C -0.02249(17) 0.48234(17) 0.4727(3)
H42 H -0.0521 0.4351 0.4708
C37 C -0.09825(17) 0.50395(18) 0.3674(3)
C38 C -0.15923(18) 0.45008(18) 0.3546(3)
C39 C -0.18954(19) 0.4380(2) 0.2607(4)
H43 H -0.2304 0.4011 0.2524
C40 C -0.1613(2) 0.4786(2) 0.1786(4)
H44 H -0.1826 0.4699 0.1145
C41 C -0.1014(2) 0.5322(2) 0.1905(4)
H45 H -0.0815 0.5607 0.1348
C42 C -0.07122(19) 0.54358(19) 0.2841(3)
H46 H -0.0301 0.5802 0.2915
C43 C 0.02310(18) 0.50178(18) 0.3838(3)
C44 C 0.07866(19) 0.56232(19) 0.3815(3)
C45 C 0.1171(2) 0.5826(2) 0.2949(4)
H47 H 0.1541 0.6238 0.2938
C46 C 0.1021(2) 0.5436(2) 0.2108(4)
H48 H 0.1281 0.5584 0.1512
C47 C 0.0489(2) 0.4822(2) 0.2123(4)
H49 H 0.0395 0.4543 0.1555
C48 C 0.00999(19) 0.4630(2) 0.2986(4)
H50 H -0.0269 0.4217 0.2992
C49 C -0.09397(18) 0.53199(18) 0.6316(3)
H51 H -0.0550 0.5715 0.6316
C50 C -0.13548(18) 0.51641(18) 0.7204(3)
C51 C -0.20263(17) 0.45838(19) 0.7208(3)
H52 H -0.2169 0.4318 0.6572
C52 C -0.24677(19) 0.4839(2) 0.7625(3)
H53 H -0.2326 0.5287 0.7435
H54 H -0.2928 0.4556 0.7483
C53 C -0.2257(2) 0.4759(2) 0.8705(4)
H55 H -0.2586 0.4623 0.9256
C54 C -0.1606(2) 0.53524(19) 0.8942(4)
H56 H -0.1669 0.5713 0.9130
H57 H -0.1406 0.5262 0.9532
C55 C -0.11754(19) 0.5531(2) 0.8030(3)
H58 H -0.0771 0.5910 0.8044
C56 C -0.2152(2) 0.42245(19) 0.8245(4)
C57 C -0.2782(2) 0.3578(2) 0.8220(4)
H59 H -0.2906 0.3419 0.8922
H60 H -0.2722 0.3271 0.7817
H61 H -0.3118 0.3636 0.7907
C58 C -0.1632(2) 0.4126(2) 0.8721(4)
H62 H -0.1232 0.4536 0.8752
H63 H -0.1569 0.3826 0.8301
H64 H -0.1760 0.3954 0.9415
C59 C 0.00019(19) 0.45622(19) 0.6359(3)
H65 H -0.0337 0.4145 0.6206
C60 C 0.03318(18) 0.46568(19) 0.7333(3)
C61 C 0.08785(18) 0.52918(19) 0.7675(3)
H66 H 0.1007 0.5658 0.7194
C62 C 0.1418(2) 0.5168(2) 0.8038(4)
H67 H 0.1441 0.4827 0.7655
H68 H 0.1842 0.5557 0.8093
C63 C 0.10496(19) 0.49460(19) 0.9065(4)
H69 H 0.1319 0.5047 0.9696
C64 C 0.0523(2) 0.4257(2) 0.8952(4)
H70 H 0.0710 0.3974 0.8963
H71 H 0.0223 0.4138 0.9536
C65 C 0.0168(2) 0.4165(2) 0.7968(4)
H72 H -0.0175 0.3754 0.7793
C66 C 0.07960(19) 0.54166(19) 0.8814(3)
C67 C 0.0135(2) 0.5245(2) 0.9219(4)
H73 H -0.0002 0.5524 0.8899
H74 H 0.0155 0.5303 0.9964
H75 H -0.0171 0.4800 0.9051
C68 C 0.1270(3) 0.6102(2) 0.9142(4)
H76 H 0.1142 0.6393 0.8847
H77 H 0.1698 0.6219 0.8898
H78 H 0.1274 0.6132 0.9892
H79 H -0.169(2) 0.426(2) 0.504(4)
H80 H 0.079(3) 0.580(3) 0.521(5)
O5 O 0.42630(13) 1.10955(13) 0.1761(2)
O6 O 0.14841(13) 1.05079(14) 0.2215(3)
N5 N 0.34359(15) 1.12964(14) 0.0781(3)
N6 N 0.21617(14) 1.02434(14) 0.0959(3)
C69 C 0.30897(18) 1.11570(17) 0.1749(3)
H81 H 0.2841 1.1385 0.1773
C70 C 0.26185(17) 1.04153(17) 0.1801(3)
H82 H 0.2864 1.0187 0.1717
C71 C 0.35509(17) 1.13703(17) 0.2636(3)
C72 C 0.41105(18) 1.13282(17) 0.2603(3)
C73 C 0.45240(19) 1.15293(19) 0.3429(3)
H83 H 0.4905 1.1508 0.3396
C74 C 0.4387(2) 1.1759(2) 0.4292(4)
H84 H 0.4674 1.1893 0.4857
C75 C 0.3836(2) 1.1798(2) 0.4354(4)
H85 H 0.3742 1.1955 0.4957
C76 C 0.34228(19) 1.16028(19) 0.3524(3)
H86 H 0.3044 1.1629 0.3563
C77 C 0.22629(19) 1.02256(18) 0.2803(3)
C78 C 0.17210(18) 1.02916(18) 0.2973(3)
C79 C 0.14153(19) 1.0133(2) 0.3907(4)
H87 H 0.1050 1.0177 0.4008
C80 C 0.1633(2) 0.9911(2) 0.4705(4)
H88 H 0.1415 0.9799 0.5344
C81 C 0.2172(2) 0.9856(2) 0.4562(4)
H89 H 0.2331 0.9713 0.5105
C82 C 0.2474(2) 1.00091(18) 0.3624(4)
H90 H 0.2840 0.9966 0.3531
C83 C 0.33237(18) 1.15898(18) 0.0076(3)
H91 H 0.3007 1.1704 0.0203
C84 C 0.36471(19) 1.17633(18) -0.0914(3)
C85 C 0.41919(19) 1.16466(19) -0.1173(4)
H92 H 0.4322 1.1443 -0.0628
C86 C 0.4730(2) 1.2283(2) -0.1637(4)
H93 H 0.4755 1.2672 -0.1342
H94 H 0.5155 1.2317 -0.1654
C87 C 0.4360(2) 1.2063(2) -0.2648(4)
H95 H 0.4626 1.2188 -0.3284
C88 C 0.3822(2) 1.2226(2) -0.2632(4)
H96 H 0.4003 1.2688 -0.2758
H97 H 0.3513 1.1989 -0.3185
C89 C 0.3489(2) 1.2053(2) -0.1623(4)
H98 H 0.3162 1.2151 -0.1486
C90 C 0.4104(2) 1.13660(19) -0.2274(4)
C91 C 0.4576(2) 1.1134(2) -0.2496(4)
H99 H 0.4591 1.1072 -0.3236
H100 H 0.4437 1.0729 -0.2141
H101 H 0.5001 1.1453 -0.2253
C92 C 0.3451(2) 1.0848(2) -0.2635(4)
H102 H 0.3453 1.0809 -0.3383
H103 H 0.3129 1.0959 -0.2435
H104 H 0.3351 1.0440 -0.2319
C93 C 0.22288(18) 0.99849(17) 0.0151(3)
H105 H 0.2582 0.9916 0.0120
C94 C 0.18049(17) 0.97901(18) -0.0718(3)
C95 C 0.11903(19) 0.9818(2) -0.0684(4)
H106 H 0.1095 0.9971 -0.0030
C96 C 0.0657(2) 0.9168(2) -0.1110(4)
H107 H 0.0715 0.8801 -0.0941
H108 H 0.0218 0.9074 -0.0955
C97 C 0.0896(2) 0.9449(2) -0.2180(4)
H109 H 0.0559 0.9311 -0.2721
C98 C 0.1475(2) 0.9376(2) -0.2461(4)
H110 H 0.1329 0.8928 -0.2656
H111 H 0.1704 0.9653 -0.3052
C99 C 0.19147(19) 0.95590(18) -0.1557(4)
H112 H 0.2279 0.9507 -0.1591
C100 C 0.1116(2) 1.0117(2) -0.1700(4)
C101 C 0.1698(2) 1.0704(2) -0.2126(4)
H113 H 0.1615 1.0773 -0.2836
H114 H 0.2066 1.0639 -0.2106
H115 H 0.1787 1.1077 -0.1711
C102 C 0.0561(2) 1.0260(3) -0.1644(5)
H116 H 0.0464 1.0347 -0.2335
H117 H 0.0685 1.0633 -0.1206
H118 H 0.0182 0.9891 -0.1356
H119 H 0.403(3) 1.110(3) 0.113(4)
H120 H 0.164(2) 1.045(2) 0.156(4)
loop_
_geom_bond_atom_site_label_1
_geom_bond_atom_site_label_2
_geom_bond_site_symmetry_1
_geom_bond_site_symmetry_2
O1 C4 1_555 1_555
O2 C10 1_555 1_555
N1 C1 1_555 1_555
N2 C2 1_555 1_555
C1 H1 1_555 1_555
C2 C1 1_555 1_555
H2 C2 1_555 1_555
C3 C1 1_555 1_555
C4 C3 1_555 1_555
C5 C4 1_555 1_555
H3 C5 1_555 1_555
C6 C5 1_555 1_555
H4 C6 1_555 1_555
C7 C6 1_555 1_555
H5 C7 1_555 1_555
C8 C3 1_555 1_555
H6 C8 1_555 1_555
C9 C2 1_555 1_555
C10 C9 1_555 1_555
C11 C10 1_555 1_555
H7 C11 1_555 1_555
C12 C11 1_555 1_555
H8 C12 1_555 1_555
C13 C12 1_555 1_555
H9 C13 1_555 1_555
C14 C9 1_555 1_555
H10 C14 1_555 1_555
C15 N1 1_555 1_555
H11 C15 1_555 1_555
C16 C15 1_555 1_555
C17 C16 1_555 1_555
H12 C17 1_555 1_555
C18 C17 1_555 1_555
H13 C18 1_555 1_555
H14 C18 1_555 1_555
C19 C18 1_555 1_555
H15 C19 1_555 1_555
C20 C19 1_555 1_555
H16 C20 1_555 1_555
H17 C20 1_555 1_555
C21 C16 1_555 1_555
H18 C21 1_555 1_555
C22 C17 1_555 1_555
C23 C22 1_555 1_555
H19 C23 1_555 1_555
H20 C23 1_555 1_555
H21 C23 1_555 1_555
C24 C22 1_555 1_555
H22 C24 1_555 1_555
H23 C24 1_555 1_555
H24 C24 1_555 1_555
C25 N2 1_555 1_555
H25 C25 1_555 1_555
C26 C25 1_555 1_555
C27 C26 1_555 1_555
H26 C27 1_555 1_555
C28 C27 1_555 1_555
H27 C28 1_555 1_555
H28 C28 1_555 1_555
C29 C28 1_555 1_555
H29 C29 1_555 1_555
C30 C29 1_555 1_555
H30 C30 1_555 1_555
H31 C30 1_555 1_555
C31 C26 1_555 1_555
H32 C31 1_555 1_555
C32 C27 1_555 1_555
C33 C32 1_555 1_555
H33 C33 1_555 1_555
H34 C33 1_555 1_555
H35 C33 1_555 1_555
C34 C32 1_555 1_555
H36 C34 1_555 1_555
H37 C34 1_555 1_555
H38 C34 1_555 1_555
H39 O1 1_555 1_555
H40 O2 1_555 1_555
O3 C38 1_555 1_555
O4 C44 1_555 1_555
N3 C35 1_555 1_555
N4 C36 1_555 1_555
C35 H41 1_555 1_555
C36 C35 1_555 1_555
H42 C36 1_555 1_555
C37 C35 1_555 1_555
C38 C37 1_555 1_555
C39 C38 1_555 1_555
H43 C39 1_555 1_555
C40 C39 1_555 1_555
H44 C40 1_555 1_555
C41 C40 1_555 1_555
H45 C41 1_555 1_555
C42 C37 1_555 1_555
H46 C42 1_555 1_555
C43 C36 1_555 1_555
C44 C43 1_555 1_555
C45 C44 1_555 1_555
H47 C45 1_555 1_555
C46 C45 1_555 1_555
H48 C46 1_555 1_555
C47 C46 1_555 1_555
H49 C47 1_555 1_555
C48 C43 1_555 1_555
H50 C48 1_555 1_555
C49 N3 1_555 1_555
H51 C49 1_555 1_555
C50 C49 1_555 1_555
C51 C50 1_555 1_555
H52 C51 1_555 1_555
C52 C51 1_555 1_555
H53 C52 1_555 1_555
H54 C52 1_555 1_555
C53 C52 1_555 1_555
H55 C53 1_555 1_555
C54 C53 1_555 1_555
H56 C54 1_555 1_555
H57 C54 1_555 1_555
C55 C50 1_555 1_555
H58 C55 1_555 1_555
C56 C51 1_555 1_555
C57 C56 1_555 1_555
H59 C57 1_555 1_555
H60 C57 1_555 1_555
H61 C57 1_555 1_555
C58 C56 1_555 1_555
H62 C58 1_555 1_555
H63 C58 1_555 1_555
H64 C58 1_555 1_555
C59 N4 1_555 1_555
H65 C59 1_555 1_555
C60 C59 1_555 1_555
C61 C60 1_555 1_555
H66 C61 1_555 1_555
C62 C61 1_555 1_555
H67 C62 1_555 1_555
H68 C62 1_555 1_555
C63 C62 1_555 1_555
H69 C63 1_555 1_555
C64 C63 1_555 1_555
H70 C64 1_555 1_555
H71 C64 1_555 1_555
C65 C60 1_555 1_555
H72 C65 1_555 1_555
C66 C61 1_555 1_555
C67 C66 1_555 1_555
H73 C67 1_555 1_555
H74 C67 1_555 1_555
H75 C67 1_555 1_555
C68 C66 1_555 1_555
H76 C68 1_555 1_555
H77 C68 1_555 1_555
H78 C68 1_555 1_555
H79 O3 1_555 1_555
H80 O4 1_555 1_555
O5 C72 1_555 1_555
O6 C78 1_555 1_555
N5 C69 1_555 1_555
N6 C70 1_555 1_555
C69 H81 1_555 1_555
C70 C69 1_555 1_555
H82 C70 1_555 1_555
C71 C69 1_555 1_555
C72 C71 1_555 1_555
C73 C72 1_555 1_555
H83 C73 1_555 1_555
C74 C73 1_555 1_555
H84 C74 1_555 1_555
C75 C74 1_555 1_555
H85 C75 1_555 1_555
C76 C71 1_555 1_555
H86 C76 1_555 1_555
C77 C70 1_555 1_555
C78 C77 1_555 1_555
C79 C78 1_555 1_555
H87 C79 1_555 1_555
C80 C79 1_555 1_555
H88 C80 1_555 1_555
C81 C80 1_555 1_555
H89 C81 1_555 1_555
C82 C77 1_555 1_555
H90 C82 1_555 1_555
C83 N5 1_555 1_555
H91 C83 1_555 1_555
C84 C83 1_555 1_555
C85 C84 1_555 1_555
H92 C85 1_555 1_555
C86 C85 1_555 1_555
H93 C86 1_555 1_555
H94 C86 1_555 1_555
C87 C86 1_555 1_555
H95 C87 1_555 1_555
C88 C87 1_555 1_555
H96 C88 1_555 1_555
H97 C88 1_555 1_555
C89 C84 1_555 1_555
H98 C89 1_555 1_555
C90 C85 1_555 1_555
C91 C90 1_555 1_555
H99 C91 1_555 1_555
H100 C91 1_555 1_555
H101 C91 1_555 1_555
C92 C90 1_555 1_555
H102 C92 1_555 1_555
H103 C92 1_555 1_555
H104 C92 1_555 1_555
C93 N6 1_555 1_555
H105 C93 1_555 1_555
C94 C93 1_555 1_555
C95 C94 1_555 1_555
H106 C95 1_555 1_555
C96 C95 1_555 1_555
H107 C96 1_555 1_555
H108 C96 1_555 1_555
C97 C96 1_555 1_555
H109 C97 1_555 1_555
C98 C97 1_555 1_555
H110 C98 1_555 1_555
H111 C98 1_555 1_555
C99 C94 1_555 1_555
H112 C99 1_555 1_555
C100 C95 1_555 1_555
C101 C100 1_555 1_555
H113 C101 1_555 1_555
H114 C101 1_555 1_555
H115 C101 1_555 1_555
C102 C100 1_555 1_555
H116 C102 1_555 1_555
H117 C102 1_555 1_555
H118 C102 1_555 1_555
H119 O5 1_555 1_555
H120 O6 1_555 1_555
C7 C8 1_555 1_555
C13 C14 1_555 1_555
C19 C22 1_555 1_555
C20 C21 1_555 1_555
C29 C32 1_555 1_555
C30 C31 1_555 1_555
C41 C42 1_555 1_555
C47 C48 1_555 1_555
C53 C56 1_555 1_555
C54 C55 1_555 1_555
C63 C66 1_555 1_555
C64 C65 1_555 1_555
C75 C76 1_555 1_555
C81 C82 1_555 1_555
C87 C90 1_555 1_555
C88 C89 1_555 1_555
C97 C100 1_555 1_555
C98 C99 1_555 1_555

#END
