
#######################################################################
#
#                 Cambridge Crystallographic Data Centre
#                                CCDC 
#
#######################################################################
#
# If this CIF has been generated from an entry in the Cambridge 
# Structural Database, then it will include bibliographic, chemical, 
# crystal, experimental, refinement or atomic coordinate data resulting 
# from the CCDC's data processing and validation procedures.
#
#######################################################################

data_LIXDEB
_chemical_formula_moiety         'C19 H21 Cl2 N2 O3 P1 S1'
_chemical_name_systematic        
'Diethyl 1-(6-methyl-2-benzothiazolylamino)-1-(2,4-dichlorophenyl)methylphosphonate'
_chemical_properties_biological  'possible antitobacco mosaic virus activity'
_symmetry_cell_setting           monoclinic
_symmetry_space_group_name_H-M   'P 21/c'
_symmetry_Int_Tables_number      14
_space_group_name_Hall           '-P 2ybc'
loop_
_symmetry_equiv_pos_site_id
_symmetry_equiv_pos_as_xyz
1 x,y,z
2 -x,1/2+y,1/2-z
3 -x,-y,-z
4 x,1/2-y,1/2+z
_cell_length_a                   8.318(2)
_cell_length_b                   18.202(4)
_cell_length_c                   14.673(3)
_cell_angle_alpha                90
_cell_angle_beta                 92.51(3)
_cell_angle_gamma                90
_cell_volume                     2219.42
_exptl_crystal_colour            colorless
_exptl_crystal_description       plate
_chemical_melting_point          '153.5-154.5 deg.C'
_cell_formula_units_Z            4
_exptl_crystal_recrystallization_method 'acetone/petroleum ether'
loop_
_atom_site_label
_atom_site_type_symbol
_atom_site_fract_x
_atom_site_fract_y
_atom_site_fract_z
P1 P 0.3885(3) 0.8734(1) 0.4700(1)
O1 O 0.4877(7) 0.9283(3) 0.4297(3)
O2 O 0.1923(7) 0.8805(3) 0.4654(3)
C1 C 0.1057(10) 0.8808(9) 0.3766(9)
C2 C -0.0427(10) 0.9184(9) 0.3981(9)
O4 O 0.4121(6) 0.7946(3) 0.4362(3)
C5 C 0.5051(9) 0.7727(4) 0.3598(5)
C6 C 0.6235(8) 0.7197(5) 0.3865(5)
N1 N 0.3917(6) 0.9393(3) 0.6307(3)
C7 C 0.3539(7) 0.9446(3) 0.7201(4)
N2 N 0.2953(6) 0.8922(3) 0.7669(3)
S1 S 0.3841(2) 1.0288(1) 0.7764(1)
C8 C 0.3037(7) 0.9888(3) 0.8727(4)
C9 C 0.2814(7) 1.0206(4) 0.9581(4)
C10 C 0.2136(7) 0.9785(5) 1.0242(4)
C11 C 0.1703(8) 0.9074(4) 1.0046(5)
C12 C 0.1953(8) 0.8758(4) 0.9218(5)
C13 C 0.2632(7) 0.9169(4) 0.8543(4)
C14 C 0.1847(7) 1.0115(5) 1.1169(5)
Cl1 Cl 0.4442(2) 0.6969(1) 0.6162(1)
Cl2 Cl 1.0667(3) 0.7368(1) 0.6994(2)
C15 C 0.4185(7) 0.8657(3) 0.5923(4)
C16 C 0.5801(6) 0.8326(3) 0.6211(4)
C17 C 0.7135(7) 0.8774(4) 0.6356(4)
C18 C 0.8623(7) 0.8482(4) 0.6600(5)
C19 C 0.8798(7) 0.7742(4) 0.6694(5)
C20 C 0.7514(7) 0.7280(4) 0.6558(4)
C21 C 0.6034(6) 0.7586(3) 0.6319(4)
O3? O 0.2273(7) 0.9127(4) 0.4355(4)
C3? C 0.0898(10) 0.8884(9) 0.4519(9)
C4? C -0.0526(10) 0.8583(9) 0.3952(9)
loop_
_geom_bond_atom_site_label_1
_geom_bond_atom_site_label_2
_geom_bond_site_symmetry_1
_geom_bond_site_symmetry_2
P1 O1 1_555 1_555
O2 P1 1_555 1_555
C1 O2 1_555 1_555
C2 C1 1_555 1_555
O4 P1 1_555 1_555
C5 O4 1_555 1_555
C6 C5 1_555 1_555
N1 C7 1_555 1_555
C7 N2 1_555 1_555
N2 C13 1_555 1_555
S1 C7 1_555 1_555
C8 S1 1_555 1_555
C9 C8 1_555 1_555
C10 C9 1_555 1_555
C11 C10 1_555 1_555
C12 C11 1_555 1_555
C13 C8 1_555 1_555
C14 C10 1_555 1_555
Cl1 C21 1_555 1_555
Cl2 C19 1_555 1_555
C15 P1 1_555 1_555
C16 C15 1_555 1_555
C17 C16 1_555 1_555
C18 C17 1_555 1_555
C19 C18 1_555 1_555
C20 C19 1_555 1_555
C21 C16 1_555 1_555
N1 C15 1_555 1_555
C12 C13 1_555 1_555
C20 C21 1_555 1_555

#END
