
#######################################################################
#
#                 Cambridge Crystallographic Data Centre
#                                CCDC 
#
#######################################################################
#
# If this CIF has been generated from an entry in the Cambridge 
# Structural Database, then it will include bibliographic, chemical, 
# crystal, experimental, refinement or atomic coordinate data resulting 
# from the CCDC's data processing and validation procedures.
#
#######################################################################

data_LIXFED
_chemical_name_common            Naftopidil
_chemical_formula_moiety         'C24 H28 N2 O3'
_chemical_name_systematic        
(R,S)-1-(2-Methoxyphenyl)-4-(3-(1-naphthyloxy)-2-hydroxypropyl)piperazine
_chemical_properties_biological  
'antihypertensive drug, selective alpha1-adrenoceptor antagonist, calcium ion antagonist, and 5-HT1A receptor antagonist'
_symmetry_cell_setting           triclinic
_symmetry_space_group_name_H-M   'P -1'
_symmetry_Int_Tables_number      2
_space_group_name_Hall           '-P 1'
loop_
_symmetry_equiv_pos_site_id
_symmetry_equiv_pos_as_xyz
1 x,y,z
2 -x,-y,-z
_cell_length_a                   7.375(2)
_cell_length_b                   11.733(2)
_cell_length_c                   12.402(2)
_cell_angle_alpha                91.68(2)
_cell_angle_beta                 101.31(3)
_cell_angle_gamma                95.40(2)
_cell_volume                     1046.39
_cell_formula_units_Z            2
loop_
_atom_site_label
_atom_site_type_symbol
_atom_site_fract_x
_atom_site_fract_y
_atom_site_fract_z
O1 O 0.3708(5) 0.2328(3) 0.5719(3)
O2 O 0.2173(6) 0.5058(4) 0.4846(4)
O3 O 0.1060(6) 0.7908(4) 0.9876(4)
N1 N 0.0844(7) 0.4859(4) 0.6939(4)
N2 N -0.0568(7) 0.6008(4) 0.8637(4)
C1 C 0.5225(8) 0.1715(5) 0.5835(5)
C2 C 0.6784(9) 0.2010(5) 0.5413(5)
C3 C 0.8242(9) 0.1290(6) 0.5582(6)
C4 C 0.8136(9) 0.0332(6) 0.6155(6)
C5 C 0.6555(9) 0.0018(5) 0.6610(5)
C6 C 0.6406(11) -0.0960(6) 0.7256(6)
C7 C 0.4882(12) -0.1215(6) 0.7703(6)
C8 C 0.3406(11) -0.0537(6) 0.7540(6)
C9 C 0.3472(9) 0.0421(5) 0.6913(5)
C10 C 0.5057(8) 0.0721(5) 0.6452(5)
C11 C 0.3810(9) 0.3415(5) 0.5200(5)
C12 C 0.2153(9) 0.4011(5) 0.5412(5)
C13 C 0.2373(11) 0.4251(7) 0.6636(5)
C14 C 0.0128(10) 0.4238(5) 0.7804(5)
C15 C -0.1354(9) 0.4849(5) 0.8207(5)
C16 C -0.1616(8) 0.6603(5) 0.9278(5)
C17 C -0.3419(9) 0.6208(5) 0.9348(5)
C18 C -0.4369(9) 0.6753(6) 1.0053(5)
C19 C -0.3495(10) 0.7684(7) 1.0700(5)
C20 C -0.1699(10) 0.8111(6) 1.0647(5)
C21 C -0.0751(9) 0.7566(5) 0.9945(5)
C22 C 0.0068(9) 0.6663(5) 0.7754(5)
C23 C 0.1570(9) 0.6040(6) 0.7359(5)
C24 C 0.2041(11) 0.8852(7) 1.0580(7)
loop_
_geom_bond_atom_site_label_1
_geom_bond_atom_site_label_2
_geom_bond_site_symmetry_1
_geom_bond_site_symmetry_2
O1 C1 1_555 1_555
O2 C12 1_555 1_555
O3 C21 1_555 1_555
N1 C13 1_555 1_555
N2 C15 1_555 1_555
C1 C2 1_555 1_555
C2 C3 1_555 1_555
C3 C4 1_555 1_555
C4 C5 1_555 1_555
C5 C6 1_555 1_555
C6 C7 1_555 1_555
C7 C8 1_555 1_555
C8 C9 1_555 1_555
C9 C10 1_555 1_555
C10 C1 1_555 1_555
C11 O1 1_555 1_555
C12 C11 1_555 1_555
C13 C12 1_555 1_555
C14 N1 1_555 1_555
C15 C14 1_555 1_555
C16 N2 1_555 1_555
C17 C16 1_555 1_555
C18 C17 1_555 1_555
C19 C18 1_555 1_555
C20 C19 1_555 1_555
C21 C16 1_555 1_555
C22 N2 1_555 1_555
C23 N1 1_555 1_555
C24 O3 1_555 1_555
C5 C10 1_555 1_555
C20 C21 1_555 1_555
C22 C23 1_555 1_555

#END
