
#######################################################################
#
#                 Cambridge Crystallographic Data Centre
#                                CCDC 
#
#######################################################################
#
# If this CIF has been generated from an entry in the Cambridge 
# Structural Database, then it will include bibliographic, chemical, 
# crystal, experimental, refinement or atomic coordinate data resulting 
# from the CCDC's data processing and validation procedures.
#
#######################################################################

data_LIXNIR
_chemical_formula_moiety         'C50 H44 Cl4 N4 O4 P2,C1 H4 O1'
_chemical_name_systematic        
"2,2'-(1,2-Phenylene)bis(1,3-bis(2-chlorophenyl)octahydro-1H-[1,2,4]diazaphospholo[1,2-b]phthalazine-5,10-dione) methanol solvate"
_symmetry_cell_setting           orthorhombic
_symmetry_space_group_name_H-M   'P 21 21 21'
_symmetry_Int_Tables_number      19
_space_group_name_Hall           'P 2ac 2ab'
loop_
_symmetry_equiv_pos_site_id
_symmetry_equiv_pos_as_xyz
1 x,y,z
2 1/2-x,-y,1/2+z
3 -x,1/2+y,1/2-z
4 1/2+x,1/2-y,-z
_cell_length_a                   9.8323(9)
_cell_length_b                   11.4917(11)
_cell_length_c                   42.543(4)
_cell_angle_alpha                90
_cell_angle_beta                 90
_cell_angle_gamma                90
_cell_volume                     4806.93
_exptl_crystal_colour            colorless
_exptl_crystal_description       plate
_cell_formula_units_Z            4
loop_
_atom_site_label
_atom_site_type_symbol
_atom_site_fract_x
_atom_site_fract_y
_atom_site_fract_z
P1 P 0.38613(7) -0.12114(6) 0.162592(16)
P2 P 0.25859(7) -0.24914(6) 0.105642(16)
Cl1 Cl 0.21121(8) 0.07740(7) 0.100871(17)
Cl2 Cl 0.29890(9) -0.21723(7) 0.238683(18)
Cl3 Cl -0.04422(7) -0.20618(7) 0.075513(18)
Cl4 Cl 0.02652(9) -0.28241(8) 0.184242(19)
O1 O 0.6010(3) 0.2209(2) 0.13538(6)
O2 O 0.7680(2) -0.09673(18) 0.21824(5)
O3 O 0.2782(2) -0.49718(17) 0.02259(5)
O4 O -0.0701(2) -0.52074(18) 0.11818(5)
N1 N 0.5832(2) 0.0446(2) 0.15807(5)
N2 N 0.6125(2) -0.0226(2) 0.18523(5)
N3 N 0.1916(2) -0.42769(19) 0.06763(5)
N4 N 0.1179(2) -0.44840(19) 0.09569(5)
C1 C 0.4873(3) -0.2381(2) 0.14409(6)
C2 C 0.6142(3) -0.2746(3) 0.15502(7)
H1 H 0.6545 -0.2359 0.1724
C3 C 0.6827(3) -0.3666(3) 0.14087(7)
H2 H 0.7688 -0.3903 0.1487
C4 C 0.6260(3) -0.4237(3) 0.11544(7)
H3 H 0.6738 -0.4853 0.1054
C5 C 0.4991(3) -0.3904(2) 0.10469(7)
H4 H 0.4594 -0.4312 0.0876
C6 C 0.4282(3) -0.2985(2) 0.11838(6)
C7 C 0.4543(3) 0.0136(2) 0.14235(6)
H5 H 0.3883 0.0784 0.1461
C8 C 0.4711(3) 0.0006(2) 0.10746(7)
C9 C 0.3659(3) 0.0253(2) 0.08646(7)
C10 C 0.3781(3) 0.0094(3) 0.05446(7)
H6 H 0.3048 0.0281 0.0408
C11 C 0.4984(3) -0.0341(3) 0.04262(7)
H7 H 0.5078 -0.0462 0.0206
C12 C 0.6057(3) -0.0602(3) 0.06249(7)
H8 H 0.6884 -0.0903 0.0542
C13 C 0.5915(3) -0.0422(3) 0.09443(7)
H9 H 0.6658 -0.0594 0.1079
C14 C 0.4949(3) -0.0842(2) 0.19749(6)
H10 H 0.5263 -0.1581 0.2076
C15 C 0.4153(3) -0.0144(3) 0.22142(6)
C16 C 0.3209(3) -0.0674(3) 0.24073(7)
C17 C 0.2431(4) -0.0038(3) 0.26231(8)
H11 H 0.1788 -0.0422 0.2754
C18 C 0.2606(4) 0.1141(3) 0.26440(8)
H12 H 0.2075 0.1581 0.2788
C19 C 0.3551(4) 0.1689(3) 0.24570(8)
H13 H 0.3682 0.2505 0.2475
C20 C 0.4312(3) 0.1058(3) 0.22434(7)
H14 H 0.4955 0.1449 0.2114
C21 C 0.6434(3) 0.1510(3) 0.15459(7)
C22 C 0.7694(3) 0.1669(3) 0.17474(7)
H15 H 0.7390 0.1959 0.1958
C23 C 0.8405(3) 0.0492(3) 0.17993(7)
H16 H 0.8633 0.0155 0.1589
C24 C 0.7418(3) -0.0323(2) 0.19618(6)
C25 C 0.8628(4) 0.2590(4) 0.16059(10)
H17 H 0.8153 0.3349 0.1602
H18 H 0.8855 0.2375 0.1387
C26 C 0.9941(4) 0.2700(4) 0.17981(10)
H19 H 0.9722 0.3006 0.2010
H20 H 1.0558 0.3262 0.1694
C27 C 1.0662(4) 0.1523(4) 0.18305(9)
H21 H 1.1495 0.1619 0.1959
H22 H 1.0935 0.1241 0.1620
C28 C 0.9724(3) 0.0620(3) 0.19869(8)
H23 H 1.0195 -0.0141 0.1998
H24 H 0.9511 0.0869 0.2204
C29 C 0.2523(3) -0.3118(2) 0.06488(6)
H25 H 0.3487 -0.3234 0.0581
C30 C 0.1849(3) -0.2356(2) 0.04004(6)
C31 C 0.0594(3) -0.1811(2) 0.04267(6)
C32 C 0.0090(3) -0.1067(2) 0.01990(7)
H26 H -0.0751 -0.0677 0.0229
C33 C 0.0831(3) -0.0899(3) -0.00732(7)
H27 H 0.0487 -0.0403 -0.0233
C34 C 0.2062(4) -0.1446(3) -0.01146(7)
H28 H 0.2562 -0.1335 -0.0303
C35 C 0.2571(3) -0.2163(2) 0.01216(6)
H29 H 0.3429 -0.2529 0.0093
C36 C 0.1431(3) -0.3675(2) 0.12148(6)
H30 H 0.0541 -0.3298 0.1266
C37 C 0.1905(3) -0.4284(2) 0.15096(6)
C38 C 0.1433(3) -0.3966(3) 0.18047(7)
C39 C 0.1825(5) -0.4528(3) 0.20731(7)
H31 H 0.1451 -0.4317 0.2271
C40 C 0.2782(5) -0.5416(3) 0.20506(8)
H32 H 0.3102 -0.5790 0.2235
C41 C 0.3271(4) -0.5756(3) 0.17588(9)
H33 H 0.3914 -0.6370 0.1744
C42 C 0.2829(3) -0.5210(3) 0.14946(7)
H34 H 0.3153 -0.5462 0.1296
C43 C 0.2077(3) -0.5132(2) 0.04590(6)
C44 C 0.1249(3) -0.6211(2) 0.05246(6)
H35 H 0.1733 -0.6677 0.0689
C45 C -0.0141(3) -0.5864(2) 0.06548(7)
H36 H -0.0603 -0.5362 0.0495
C46 C 0.0035(3) -0.5156(2) 0.09528(6)
C47 C 0.1105(4) -0.6968(3) 0.02287(7)
H37 H 0.0750 -0.6484 0.0054
H38 H 0.2013 -0.7260 0.0166
C48 C 0.0157(4) -0.7994(3) 0.02807(7)
H39 H 0.0019 -0.8407 0.0079
H40 H 0.0585 -0.8545 0.0430
C49 C -0.1212(4) -0.7618(3) 0.04094(8)
H41 H -0.1780 -0.8313 0.0450
H42 H -0.1685 -0.7131 0.0252
C50 C -0.1038(3) -0.6928(3) 0.07132(8)
H43 H -0.0617 -0.7428 0.0876
H44 H -0.1940 -0.6675 0.0791
O5 O 0.4313(3) 0.3241(2) 0.08956(6)
H45 H 0.477(5) 0.290(4) 0.1062(10)
C51 C 0.5042(4) 0.3010(3) 0.06215(8)
H46 H 0.5754 0.3599 0.0595
H47 H 0.4425 0.3031 0.0441
H48 H 0.5461 0.2238 0.0637
loop_
_geom_bond_atom_site_label_1
_geom_bond_atom_site_label_2
_geom_bond_site_symmetry_1
_geom_bond_site_symmetry_2
P1 C1 1_555 1_555
P2 C6 1_555 1_555
Cl1 C9 1_555 1_555
Cl2 C16 1_555 1_555
Cl3 C31 1_555 1_555
Cl4 C38 1_555 1_555
O1 C21 1_555 1_555
O2 C24 1_555 1_555
O3 C43 1_555 1_555
O4 C46 1_555 1_555
N1 N2 1_555 1_555
N2 C14 1_555 1_555
N3 N4 1_555 1_555
N4 C36 1_555 1_555
C1 C2 1_555 1_555
C2 H1 1_555 1_555
C3 C2 1_555 1_555
H2 C3 1_555 1_555
C4 C3 1_555 1_555
H3 C4 1_555 1_555
C5 C4 1_555 1_555
H4 C5 1_555 1_555
C6 C1 1_555 1_555
C7 P1 1_555 1_555
H5 C7 1_555 1_555
C8 C7 1_555 1_555
C9 C8 1_555 1_555
C10 C9 1_555 1_555
H6 C10 1_555 1_555
C11 C10 1_555 1_555
H7 C11 1_555 1_555
C12 C11 1_555 1_555
H8 C12 1_555 1_555
C13 C8 1_555 1_555
H9 C13 1_555 1_555
C14 P1 1_555 1_555
H10 C14 1_555 1_555
C15 C14 1_555 1_555
C16 C15 1_555 1_555
C17 C16 1_555 1_555
H11 C17 1_555 1_555
C18 C17 1_555 1_555
H12 C18 1_555 1_555
C19 C18 1_555 1_555
H13 C19 1_555 1_555
C20 C15 1_555 1_555
H14 C20 1_555 1_555
C21 N1 1_555 1_555
C22 C21 1_555 1_555
H15 C22 1_555 1_555
C23 C22 1_555 1_555
H16 C23 1_555 1_555
C24 N2 1_555 1_555
C25 C22 1_555 1_555
H17 C25 1_555 1_555
H18 C25 1_555 1_555
C26 C25 1_555 1_555
H19 C26 1_555 1_555
H20 C26 1_555 1_555
C27 C26 1_555 1_555
H21 C27 1_555 1_555
H22 C27 1_555 1_555
C28 C23 1_555 1_555
H23 C28 1_555 1_555
H24 C28 1_555 1_555
C29 P2 1_555 1_555
H25 C29 1_555 1_555
C30 C29 1_555 1_555
C31 C30 1_555 1_555
C32 C31 1_555 1_555
H26 C32 1_555 1_555
C33 C32 1_555 1_555
H27 C33 1_555 1_555
C34 C33 1_555 1_555
H28 C34 1_555 1_555
C35 C30 1_555 1_555
H29 C35 1_555 1_555
C36 P2 1_555 1_555
H30 C36 1_555 1_555
C37 C36 1_555 1_555
C38 C37 1_555 1_555
C39 C38 1_555 1_555
H31 C39 1_555 1_555
C40 C39 1_555 1_555
H32 C40 1_555 1_555
C41 C40 1_555 1_555
H33 C41 1_555 1_555
C42 C37 1_555 1_555
H34 C42 1_555 1_555
C43 N3 1_555 1_555
C44 C43 1_555 1_555
H35 C44 1_555 1_555
C45 C44 1_555 1_555
H36 C45 1_555 1_555
C46 N4 1_555 1_555
C47 C44 1_555 1_555
H37 C47 1_555 1_555
H38 C47 1_555 1_555
C48 C47 1_555 1_555
H39 C48 1_555 1_555
H40 C48 1_555 1_555
C49 C48 1_555 1_555
H41 C49 1_555 1_555
H42 C49 1_555 1_555
C50 C45 1_555 1_555
H43 C50 1_555 1_555
H44 C50 1_555 1_555
O5 H45 1_555 1_555
C51 O5 1_555 1_555
H46 C51 1_555 1_555
H47 C51 1_555 1_555
H48 C51 1_555 1_555
N1 C7 1_555 1_555
N3 C29 1_555 1_555
C5 C6 1_555 1_555
C12 C13 1_555 1_555
C19 C20 1_555 1_555
C23 C24 1_555 1_555
C27 C28 1_555 1_555
C34 C35 1_555 1_555
C41 C42 1_555 1_555
C45 C46 1_555 1_555
C49 C50 1_555 1_555

#END
