
#######################################################################
#
#                 Cambridge Crystallographic Data Centre
#                                CCDC 
#
#######################################################################
#
# If this CIF has been generated from an entry in the Cambridge 
# Structural Database, then it will include bibliographic, chemical, 
# crystal, experimental, refinement or atomic coordinate data resulting 
# from the CCDC's data processing and validation procedures.
#
#######################################################################

data_LIXQIU
_chemical_formula_moiety         'C30 H48 O3,C2 H6 O1'
_chemical_name_systematic        
'3-Hydroxylup-20(29)-en-28-oic acid ethanol solvate'
_symmetry_cell_setting           orthorhombic
_symmetry_space_group_name_H-M   'P 21 21 21'
_symmetry_Int_Tables_number      19
_space_group_name_Hall           'P 2ac 2ab'
loop_
_symmetry_equiv_pos_site_id
_symmetry_equiv_pos_as_xyz
1 x,y,z
2 1/2-x,-y,1/2+z
3 -x,1/2+y,1/2-z
4 1/2+x,1/2-y,-z
_cell_length_a                   7.276(4)
_cell_length_b                   12.413(3)
_cell_length_c                   32.529(7)
_cell_angle_alpha                90
_cell_angle_beta                 90
_cell_angle_gamma                90
_cell_volume                     2937.92
_exptl_crystal_colour            colorless
_exptl_crystal_description       Prism
_cell_formula_units_Z            4
loop_
_atom_site_label
_atom_site_type_symbol
_atom_site_fract_x
_atom_site_fract_y
_atom_site_fract_z
O1 O -0.2061(3) -0.55490(18) -0.40647(6)
H1 H -0.103(5) -0.518(3) -0.4162(12)
O2 O -0.0782(4) -0.91838(17) -0.07129(8)
O3 O -0.3456(4) -0.83801(16) -0.06771(9)
H2 H -0.384(7) -0.910(2) -0.0642(14)
C1 C -0.3943(4) -0.5777(2) -0.29918(8)
H3 H -0.5207 -0.5781 -0.2897
H4 H -0.3349 -0.5146 -0.2876
C2 C -0.3935(4) -0.5681(3) -0.34607(8)
H5 H -0.4632 -0.6272 -0.3578
H6 H -0.4524 -0.5013 -0.3541
C3 C -0.1990(4) -0.5705(2) -0.36268(7)
H7 H -0.1330 -0.5090 -0.3508
C4 C -0.0934(4) -0.6732(2) -0.35092(7)
C5 C -0.1043(3) -0.68528(18) -0.30334(7)
H8 H -0.0398 -0.6216 -0.2929
C6 C 0.0051(4) -0.7799(2) -0.28619(8)
H9 H 0.1194 -0.7873 -0.3013
H10 H -0.0647 -0.8459 -0.2896
C7 C 0.0462(4) -0.7617(2) -0.24067(8)
H11 H 0.1256 -0.6993 -0.2380
H12 H 0.1129 -0.8236 -0.2302
C8 C -0.1269(3) -0.74416(17) -0.21384(7)
C9 C -0.2603(3) -0.66293(18) -0.23582(7)
H13 H -0.1965 -0.5935 -0.2342
C10 C -0.2968(3) -0.6794(2) -0.28280(7)
C11 C -0.4347(4) -0.6470(2) -0.20964(8)
H14 H -0.5153 -0.5959 -0.2232
H15 H -0.4996 -0.7150 -0.2074
C12 C -0.3888(4) -0.6058(2) -0.16662(7)
H16 H -0.3393 -0.5334 -0.1687
H17 H -0.5007 -0.6022 -0.1505
C13 C -0.2500(3) -0.67762(18) -0.14459(7)
H18 H -0.3071 -0.7488 -0.1420
C14 C -0.0711(3) -0.69322(17) -0.17079(7)
C15 C 0.0625(4) -0.7686(2) -0.14708(8)
H19 H 0.0128 -0.8411 -0.1476
H20 H 0.1789 -0.7700 -0.1616
C16 C 0.0993(4) -0.7376(2) -0.10209(8)
H21 H 0.1741 -0.7927 -0.0892
H22 H 0.1668 -0.6702 -0.1012
C17 C -0.0804(4) -0.7255(2) -0.07865(8)
C18 C -0.1997(4) -0.64105(18) -0.10094(7)
H23 H -0.1205 -0.5779 -0.1045
C19 C -0.3481(4) -0.60654(19) -0.06998(7)
H24 H -0.4502 -0.6579 -0.0716
C20 C -0.4250(5) -0.4941(2) -0.07371(8)
C21 C -0.2523(5) -0.6203(2) -0.02788(8)
H25 H -0.2331 -0.5505 -0.0152
H26 H -0.3282 -0.6635 -0.0097
C22 C -0.0684(5) -0.6758(2) -0.03504(8)
H27 H -0.0481 -0.7315 -0.0146
H28 H 0.0315 -0.6243 -0.0335
C23 C 0.1078(4) -0.6551(3) -0.36325(9)
H29 H 0.1137 -0.6351 -0.3917
H30 H 0.1761 -0.7203 -0.3590
H31 H 0.1593 -0.5986 -0.3467
C24 C -0.1637(5) -0.7709(2) -0.37482(8)
H32 H -0.1360 -0.7622 -0.4035
H33 H -0.2942 -0.7771 -0.3713
H34 H -0.1050 -0.8349 -0.3647
C25 C -0.4232(4) -0.7762(2) -0.29191(9)
H35 H -0.5165 -0.7809 -0.2711
H36 H -0.3518 -0.8413 -0.2920
H37 H -0.4799 -0.7668 -0.3183
C26 C -0.2179(5) -0.85580(19) -0.20815(9)
H38 H -0.2398 -0.8877 -0.2346
H39 H -0.3325 -0.8475 -0.1939
H40 H -0.1378 -0.9015 -0.1925
C27 C 0.0290(4) -0.5843(2) -0.17630(8)
H41 H 0.0728 -0.5595 -0.1501
H42 H -0.0547 -0.5323 -0.1875
H43 H 0.1311 -0.5935 -0.1947
C28 C -0.1685(4) -0.8370(2) -0.07316(7)
C29 C -0.3325(6) -0.4103(2) -0.09089(11)
H44 H -0.3755 -0.3403 -0.0875
H45 H -0.2262 -0.4229 -0.1060
C30 C -0.5916(19) -0.4743(9) -0.0500(6)
H46 H -0.6339 -0.4022 -0.0550
H47 H -0.5658 -0.4830 -0.0213
H48 H -0.6850 -0.5247 -0.0581
O4 O -0.4908(4) -0.02044(17) -0.04878(7)
H52 H -0.603(4) -0.033(4) -0.0633(12)
C32 C -0.4095(6) -0.1178(3) -0.03621(11)
H53 H -0.3054 -0.1034 -0.0184
H54 H -0.3663 -0.1577 -0.0600
C33 C -0.503(3) -0.1734(13) -0.0021(6)
H55 H -0.4825 -0.1347 0.0230
H56 H -0.4560 -0.2452 0.0005
H57 H -0.6330 -0.1763 -0.0076
C31? C -0.618(2) -0.4831(15) -0.0653(8)
H49? H -0.6424 -0.4117 -0.0554
H50? H -0.6536 -0.5347 -0.0449
H51? H -0.6863 -0.4955 -0.0901
C34? C -0.551(6) -0.182(3) -0.0137(13)
H58? H -0.6497 -0.1994 -0.0320
H59? H -0.5977 -0.1399 0.0088
H60? H -0.4965 -0.2467 -0.0034
loop_
_geom_bond_atom_site_label_1
_geom_bond_atom_site_label_2
_geom_bond_site_symmetry_1
_geom_bond_site_symmetry_2
O1 H1 1_555 1_555
O2 C28 1_555 1_555
O3 H2 1_555 1_555
C1 H3 1_555 1_555
H4 C1 1_555 1_555
C2 C1 1_555 1_555
H5 C2 1_555 1_555
H6 C2 1_555 1_555
C3 O1 1_555 1_555
H7 C3 1_555 1_555
C4 C3 1_555 1_555
C5 C4 1_555 1_555
H8 C5 1_555 1_555
C6 C5 1_555 1_555
H9 C6 1_555 1_555
H10 C6 1_555 1_555
C7 C6 1_555 1_555
H11 C7 1_555 1_555
H12 C7 1_555 1_555
C8 C7 1_555 1_555
C9 C8 1_555 1_555
H13 C9 1_555 1_555
C10 C1 1_555 1_555
C11 C9 1_555 1_555
H14 C11 1_555 1_555
H15 C11 1_555 1_555
C12 C11 1_555 1_555
H16 C12 1_555 1_555
H17 C12 1_555 1_555
C13 C12 1_555 1_555
H18 C13 1_555 1_555
C14 C8 1_555 1_555
C15 C14 1_555 1_555
H19 C15 1_555 1_555
H20 C15 1_555 1_555
C16 C15 1_555 1_555
H21 C16 1_555 1_555
H22 C16 1_555 1_555
C17 C16 1_555 1_555
C18 C13 1_555 1_555
H23 C18 1_555 1_555
C19 C18 1_555 1_555
H24 C19 1_555 1_555
C20 C19 1_555 1_555
C21 C19 1_555 1_555
H25 C21 1_555 1_555
H26 C21 1_555 1_555
C22 C17 1_555 1_555
H27 C22 1_555 1_555
H28 C22 1_555 1_555
C23 C4 1_555 1_555
H29 C23 1_555 1_555
H30 C23 1_555 1_555
H31 C23 1_555 1_555
C24 C4 1_555 1_555
H32 C24 1_555 1_555
H33 C24 1_555 1_555
H34 C24 1_555 1_555
C25 C10 1_555 1_555
H35 C25 1_555 1_555
H36 C25 1_555 1_555
H37 C25 1_555 1_555
C26 C8 1_555 1_555
H38 C26 1_555 1_555
H39 C26 1_555 1_555
H40 C26 1_555 1_555
C27 C14 1_555 1_555
H41 C27 1_555 1_555
H42 C27 1_555 1_555
H43 C27 1_555 1_555
C28 O3 1_555 1_555
C29 C20 1_555 1_555
H44 C29 1_555 1_555
H45 C29 1_555 1_555
C30 C20 1_555 1_555
H46 C30 1_555 1_555
H47 C30 1_555 1_555
H48 C30 1_555 1_555
O4 H52 1_555 1_555
C32 O4 1_555 1_555
H53 C32 1_555 1_555
H54 C32 1_555 1_555
C33 C32 1_555 1_555
H55 C33 1_555 1_555
H56 C33 1_555 1_555
H57 C33 1_555 1_555
C2 C3 1_555 1_555
C5 C10 1_555 1_555
C9 C10 1_555 1_555
C13 C14 1_555 1_555
C17 C18 1_555 1_555
C17 C28 1_555 1_555
C21 C22 1_555 1_555

#END
