
#######################################################################
#
#                 Cambridge Crystallographic Data Centre
#                                CCDC 
#
#######################################################################
#
# If this CIF has been generated from an entry in the Cambridge 
# Structural Database, then it will include bibliographic, chemical, 
# crystal, experimental, refinement or atomic coordinate data resulting 
# from the CCDC's data processing and validation procedures.
#
#######################################################################

data_LIXQOA
_chemical_formula_moiety         'C30 H48 O3,C3 H8 O1'
_chemical_name_systematic        
'3\b-Hydroxylup-20(29)-en-28-oic acid propan-2-ol solvate'
_symmetry_cell_setting           orthorhombic
_symmetry_space_group_name_H-M   'P 21 21 21'
_symmetry_Int_Tables_number      19
_space_group_name_Hall           'P 2ac 2ab'
loop_
_symmetry_equiv_pos_site_id
_symmetry_equiv_pos_as_xyz
1 x,y,z
2 1/2-x,-y,1/2+z
3 -x,1/2+y,1/2-z
4 1/2+x,1/2-y,-z
_cell_length_a                   7.294(3)
_cell_length_b                   12.016(3)
_cell_length_c                   33.763(7)
_cell_angle_alpha                90
_cell_angle_beta                 90
_cell_angle_gamma                90
_cell_volume                     2959.15
_exptl_crystal_colour            colorless
_exptl_crystal_description       Prism
_cell_formula_units_Z            4
loop_
_atom_site_label
_atom_site_type_symbol
_atom_site_fract_x
_atom_site_fract_y
_atom_site_fract_z
O1 O 0.2311(3) 0.13106(17) 0.40732(5)
H1 H 0.306(6) 0.085(3) 0.4155(12)
O2 O 0.5002(3) 0.48180(15) 0.06984(5)
O3 O 0.2249(3) 0.43036(15) 0.09155(5)
H2 H 0.193(5) 0.5046(18) 0.0831(10)
C1 C 0.0810(4) 0.1505(2) 0.30072(7)
H3 H -0.0439 0.1539 0.2893
H4 H 0.1403 0.0819 0.2908
C2 C 0.0666(4) 0.1439(2) 0.34603(7)
H5 H -0.0030 0.2089 0.3560
H6 H -0.0013 0.0758 0.3535
C3 C 0.2543(4) 0.1421(2) 0.36504(7)
H7 H 0.3196 0.0741 0.3553
C4 C 0.3737(4) 0.2435(2) 0.35494(7)
C5 C 0.3786(4) 0.25213(19) 0.30887(7)
H8 H 0.4402 0.1820 0.3001
C6 C 0.5030(4) 0.3459(2) 0.29323(7)
H9 H 0.4386 0.4182 0.2957
H10 H 0.6160 0.3496 0.3094
C7 C 0.5534(4) 0.3255(2) 0.24994(7)
H11 H 0.6278 0.2567 0.2482
H12 H 0.6304 0.3880 0.2405
C8 C 0.3865(4) 0.3139(2) 0.22225(7)
C9 C 0.2425(4) 0.2327(2) 0.24144(7)
H13 H 0.3045 0.1585 0.2412
C10 C 0.1918(4) 0.2525(2) 0.28624(7)
C11 C 0.0750(4) 0.2175(2) 0.21408(7)
H14 H -0.0122 0.1647 0.2264
H15 H 0.0118 0.2898 0.2108
C12 C 0.1331(4) 0.1731(2) 0.17332(7)
H16 H 0.1845 0.0973 0.1764
H17 H 0.0239 0.1678 0.1560
C13 C 0.2755(4) 0.2480(2) 0.15379(7)
H18 H 0.2185 0.3233 0.1512
C14 C 0.4484(4) 0.26197(19) 0.18070(7)
C15 C 0.5883(4) 0.3393(2) 0.15956(7)
H19 H 0.5354 0.4150 0.1579
H20 H 0.7006 0.3438 0.1759
C16 C 0.6422(4) 0.3011(2) 0.11742(7)
H21 H 0.7282 0.3553 0.1055
H22 H 0.7037 0.2278 0.1186
C17 C 0.4692(4) 0.2930(2) 0.09236(7)
C18 C 0.3332(4) 0.2115(2) 0.11187(7)
H23 H 0.4029 0.1405 0.1156
C19 C 0.1861(4) 0.1857(2) 0.08004(7)
H24 H 0.0812 0.2383 0.0836
C20 C 0.1119(4) 0.0682(2) 0.07864(7)
C21 C 0.2868(4) 0.2145(2) 0.04016(7)
H25 H 0.2801 0.1509 0.0216
H26 H 0.2296 0.2802 0.0275
C22 C 0.4861(4) 0.2393(2) 0.05104(7)
H27 H 0.5426 0.2913 0.0318
H28 H 0.5597 0.1701 0.0521
C23 C 0.5685(4) 0.2190(2) 0.37001(7)
H29 H 0.5669 0.2130 0.3990
H30 H 0.6507 0.2795 0.3621
H31 H 0.6119 0.1488 0.3586
C24 C 0.3036(4) 0.3488(2) 0.37561(7)
H32 H 0.3046 0.3374 0.4043
H33 H 0.1783 0.3645 0.3668
H34 H 0.3832 0.4117 0.3689
C25 C 0.0728(4) 0.3567(2) 0.29295(7)
H35 H 0.0024 0.3481 0.3175
H36 H -0.0116 0.3660 0.2706
H37 H 0.1520 0.4224 0.2950
C26 C 0.3059(5) 0.4311(2) 0.21620(7)
H38 H 0.2679 0.4616 0.2418
H39 H 0.1994 0.4266 0.1986
H40 H 0.3989 0.4796 0.2044
C27 C 0.5466(4) 0.1488(2) 0.18713(7)
H41 H 0.5835 0.1181 0.1615
H42 H 0.4629 0.0969 0.2003
H43 H 0.6555 0.1600 0.2037
C28 C 0.3997(4) 0.4110(2) 0.08416(6)
C29 C 0.1871(5) -0.0196(2) 0.09644(8)
H44 H 0.1355 -0.0915 0.0929
H45 H 0.2923 -0.0103 0.1127
C30 C -0.0541(5) 0.0533(3) 0.05300(9)
H46 H -0.0932 -0.0247 0.0538
H47 H -0.0242 0.0741 0.0257
H48 H -0.1535 0.1008 0.0628
O4 O 0.1122(3) 0.61744(14) 0.06567(5)
H49 H -0.008(4) 0.628(3) 0.0735(11)
C31 C 0.0035(5) 0.5406(2) 0.00352(8)
H50 H 0.0420 0.4663 0.0121
H51 H 0.0152 0.5463 -0.0253
H52 H -0.1245 0.5530 0.0112
C32 C 0.1239(4) 0.6274(2) 0.02300(7)
H53 H 0.2537 0.6134 0.0149
C33 C 0.0741(5) 0.7449(2) 0.01126(8)
H54 H 0.1565 0.7974 0.0246
H55 H -0.0527 0.7604 0.0191
H56 H 0.0862 0.7532 -0.0175
loop_
_geom_bond_atom_site_label_1
_geom_bond_atom_site_label_2
_geom_bond_site_symmetry_1
_geom_bond_site_symmetry_2
O1 H1 1_555 1_555
O2 C28 1_555 1_555
O3 H2 1_555 1_555
C1 H3 1_555 1_555
H4 C1 1_555 1_555
C2 C1 1_555 1_555
H5 C2 1_555 1_555
H6 C2 1_555 1_555
C3 O1 1_555 1_555
H7 C3 1_555 1_555
C4 C3 1_555 1_555
C5 C4 1_555 1_555
H8 C5 1_555 1_555
C6 C5 1_555 1_555
H9 C6 1_555 1_555
H10 C6 1_555 1_555
C7 C6 1_555 1_555
H11 C7 1_555 1_555
H12 C7 1_555 1_555
C8 C7 1_555 1_555
C9 C8 1_555 1_555
H13 C9 1_555 1_555
C10 C1 1_555 1_555
C11 C9 1_555 1_555
H14 C11 1_555 1_555
H15 C11 1_555 1_555
C12 C11 1_555 1_555
H16 C12 1_555 1_555
H17 C12 1_555 1_555
C13 C12 1_555 1_555
H18 C13 1_555 1_555
C14 C8 1_555 1_555
C15 C14 1_555 1_555
H19 C15 1_555 1_555
H20 C15 1_555 1_555
C16 C15 1_555 1_555
H21 C16 1_555 1_555
H22 C16 1_555 1_555
C17 C16 1_555 1_555
C18 C13 1_555 1_555
H23 C18 1_555 1_555
C19 C18 1_555 1_555
H24 C19 1_555 1_555
C20 C19 1_555 1_555
C21 C19 1_555 1_555
H25 C21 1_555 1_555
H26 C21 1_555 1_555
C22 C17 1_555 1_555
H27 C22 1_555 1_555
H28 C22 1_555 1_555
C23 C4 1_555 1_555
H29 C23 1_555 1_555
H30 C23 1_555 1_555
H31 C23 1_555 1_555
C24 C4 1_555 1_555
H32 C24 1_555 1_555
H33 C24 1_555 1_555
H34 C24 1_555 1_555
C25 C10 1_555 1_555
H35 C25 1_555 1_555
H36 C25 1_555 1_555
H37 C25 1_555 1_555
C26 C8 1_555 1_555
H38 C26 1_555 1_555
H39 C26 1_555 1_555
H40 C26 1_555 1_555
C27 C14 1_555 1_555
H41 C27 1_555 1_555
H42 C27 1_555 1_555
H43 C27 1_555 1_555
C28 O3 1_555 1_555
C29 C20 1_555 1_555
H44 C29 1_555 1_555
H45 C29 1_555 1_555
C30 C20 1_555 1_555
H46 C30 1_555 1_555
H47 C30 1_555 1_555
H48 C30 1_555 1_555
O4 H49 1_555 1_555
C31 H50 1_555 1_555
H51 C31 1_555 1_555
H52 C31 1_555 1_555
C32 O4 1_555 1_555
H53 C32 1_555 1_555
C33 C32 1_555 1_555
H54 C33 1_555 1_555
H55 C33 1_555 1_555
H56 C33 1_555 1_555
C2 C3 1_555 1_555
C5 C10 1_555 1_555
C9 C10 1_555 1_555
C13 C14 1_555 1_555
C17 C18 1_555 1_555
C17 C28 1_555 1_555
C21 C22 1_555 1_555
C31 C32 1_555 1_555

#END
