
#######################################################################
#
#                 Cambridge Crystallographic Data Centre
#                                CCDC 
#
#######################################################################
#
# If this CIF has been generated from an entry in the Cambridge 
# Structural Database, then it will include bibliographic, chemical, 
# crystal, experimental, refinement or atomic coordinate data resulting 
# from the CCDC's data processing and validation procedures.
#
#######################################################################

data_LIXREQ
_chemical_formula_moiety         'C9 H5 F3 N2 O1'
_chemical_name_systematic        
2,2,2-Trifluoro-1-(imidazo(1,5-a)pyridin-3-yl)ethanone
_symmetry_cell_setting           monoclinic
_symmetry_space_group_name_H-M   'P 21/m'
_symmetry_Int_Tables_number      11
_space_group_name_Hall           '-P 2yb'
loop_
_symmetry_equiv_pos_site_id
_symmetry_equiv_pos_as_xyz
1 x,y,z
2 -x,1/2+y,-z
3 -x,-y,-z
4 x,1/2-y,z
_cell_length_a                   8.0008(4)
_cell_length_b                   6.6985(4)
_cell_length_c                   8.2615(5)
_cell_angle_alpha                90
_cell_angle_beta                 93.982(5)
_cell_angle_gamma                90
_cell_volume                     441.693
_exptl_crystal_colour            colorless
_exptl_crystal_description       block
_cell_formula_units_Z            2
loop_
_atom_site_label
_atom_site_type_symbol
_atom_site_fract_x
_atom_site_fract_y
_atom_site_fract_z
N1 N 0.61162(18) 0.2500 0.85272(19)
O1 O 0.5331(2) 0.2500 0.5004(2)
C1 C 0.7711(3) 0.2500 0.7987(3)
H1 H 0.776(3) 0.2500 0.687(3)
F1 F 0.15893(12) 0.0906(2) 0.57860(14)
N2 N 0.33444(19) 0.2500 0.8759(2)
C2 C 0.9021(3) 0.2500 0.9108(4)
H2 H 1.003(4) 0.2500 0.874(4)
F2 F 0.2302(2) 0.2500 0.37282(19)
C3 C 0.8788(3) 0.2500 1.0765(4)
H3 H 0.971(4) 0.2500 1.144(4)
C4 C 0.7236(3) 0.2500 1.1304(3)
H4 H 0.699(3) 0.2500 1.242(3)
C5 C 0.5859(2) 0.2500 1.0156(2)
C6 C 0.4121(3) 0.2500 1.0235(3)
H5 H 0.351(3) 0.2500 1.124(3)
C7 C 0.4543(2) 0.2500 0.7696(2)
C8 C 0.4265(3) 0.2500 0.5987(3)
C9 C 0.2419(3) 0.2500 0.5317(3)
F1C F 0.15893(12) 0.4094(2) 0.57860(14)
loop_
_geom_bond_atom_site_label_1
_geom_bond_atom_site_label_2
_geom_bond_site_symmetry_1
_geom_bond_site_symmetry_2
N1 C1 1_555 1_555
O1 C8 1_555 1_555
C1 H1 1_555 1_555
F1 C9 1_555 1_555
N2 C6 1_555 1_555
C2 C1 1_555 1_555
H2 C2 1_555 1_555
F2 C9 1_555 1_555
C3 C2 1_555 1_555
H3 C3 1_555 1_555
C4 C3 1_555 1_555
H4 C4 1_555 1_555
C5 N1 1_555 1_555
C6 C5 1_555 1_555
H5 C6 1_555 1_555
C7 N1 1_555 1_555
C8 C7 1_555 1_555
C9 C8 1_555 1_555
F1C C9 1_555 1_555
N2 C7 1_555 1_555
C4 C5 1_555 1_555

#END
