
#######################################################################
#
#                 Cambridge Crystallographic Data Centre
#                                CCDC 
#
#######################################################################
#
# If this CIF has been generated from an entry in the Cambridge 
# Structural Database, then it will include bibliographic, chemical, 
# crystal, experimental, refinement or atomic coordinate data resulting 
# from the CCDC's data processing and validation procedures.
#
#######################################################################

data_LIXROA
_chemical_compound_source        'dried aerial parts of Nouelia insignis Franch'
_chemical_formula_moiety         'C20 H30 O4'
_chemical_name_systematic        
'ent-11\a,16\a-Epoxy-15\a-hydroxy-(16S)-kaur-19-oic acid'
_symmetry_cell_setting           orthorhombic
_symmetry_space_group_name_H-M   'P 21 21 21'
_symmetry_Int_Tables_number      19
_space_group_name_Hall           'P 2ac 2ab'
loop_
_symmetry_equiv_pos_site_id
_symmetry_equiv_pos_as_xyz
1 x,y,z
2 1/2-x,-y,1/2+z
3 -x,1/2+y,1/2-z
4 1/2+x,1/2-y,-z
_cell_length_a                   9.7738(14)
_cell_length_b                   11.5661(13)
_cell_length_c                   15.559(2)
_cell_angle_alpha                90
_cell_angle_beta                 90
_cell_angle_gamma                90
_cell_volume                     1758.86
_exptl_crystal_colour            colorless
_chemical_melting_point          '264-265 deg.C'
_cell_formula_units_Z            4
_exptl_crystal_recrystallization_method acetone
loop_
_atom_site_label
_atom_site_type_symbol
_atom_site_fract_x
_atom_site_fract_y
_atom_site_fract_z
O1 O 1.00591(16) 0.33326(14) 0.19097(10)
O2 O 1.06546(15) 0.15174(18) 0.29209(12)
O3 O 0.32799(17) 0.11849(17) 0.34394(13)
O4 O 0.27041(16) 0.29680(16) 0.37769(12)
C1 C 0.6585(2) 0.41688(18) 0.34068(15)
H1 H 0.7401 0.4196 0.3761
H2 H 0.6668 0.4767 0.2973
C2 C 0.5351(2) 0.4429(2) 0.39644(16)
H3 H 0.5490 0.5159 0.4258
H4 H 0.4547 0.4505 0.3602
C3 C 0.5105(2) 0.3490(2) 0.46214(14)
H5 H 0.4289 0.3678 0.4947
H6 H 0.5869 0.3475 0.5019
C4 C 0.4935(2) 0.2283(2) 0.42262(13)
C5 C 0.61989(19) 0.20298(19) 0.36361(13)
H7 H 0.6982 0.2055 0.4029
C6 C 0.6270(2) 0.08276(18) 0.32370(15)
H8 H 0.6002 0.0255 0.3661
H9 H 0.5634 0.0781 0.2760
C7 C 0.7711(2) 0.05640(17) 0.29194(15)
H10 H 0.8319 0.0515 0.3411
H11 H 0.7709 -0.0185 0.2640
C8 C 0.82722(18) 0.14554(18) 0.22972(13)
C9 C 0.79874(18) 0.27128(16) 0.26091(13)
H12 H 0.8572 0.2794 0.3117
C10 C 0.6516(2) 0.29832(17) 0.29571(13)
C11 C 0.8605(2) 0.3571(2) 0.19619(14)
H13 H 0.8434 0.4373 0.2136
C12 C 0.8207(3) 0.3372(2) 0.10255(15)
H14 H 0.8621 0.3937 0.0646
H15 H 0.7222 0.3373 0.0947
C13 C 0.8818(2) 0.2169(2) 0.09007(15)
H16 H 0.9008 0.1982 0.0298
C14 C 0.7887(2) 0.1294(2) 0.13434(13)
H17 H 0.8077 0.0513 0.1150
H18 H 0.6930 0.1470 0.1244
C15 C 0.9837(2) 0.13361(19) 0.21747(14)
H19 H 1.0032 0.0563 0.1949
C16 C 1.0126(2) 0.2219(2) 0.14708(15)
C17 C 0.3542(2) 0.2209(2) 0.37860(15)
C18 C 0.4892(3) 0.1391(2) 0.49603(14)
H20 H 0.4204 0.1611 0.5369
H21 H 0.5768 0.1363 0.5239
H22 H 0.4677 0.0643 0.4730
C19 C 0.5412(2) 0.3043(2) 0.22559(14)
H23 H 0.4550 0.3244 0.2511
H24 H 0.5335 0.2304 0.1979
H25 H 0.5660 0.3618 0.1839
C20 C 1.1504(3) 0.2139(3) 0.10326(19)
H26 H 1.1594 0.2758 0.0625
H27 H 1.1576 0.1411 0.0739
H28 H 1.2217 0.2197 0.1455
H29 H 1.069(3) 0.224(3) 0.2937(19)
H30 H 0.247(3) 0.121(3) 0.321(2)
loop_
_geom_bond_atom_site_label_1
_geom_bond_atom_site_label_2
_geom_bond_site_symmetry_1
_geom_bond_site_symmetry_2
O1 C11 1_555 1_555
O2 C15 1_555 1_555
O3 C17 1_555 1_555
O4 C17 1_555 1_555
C1 H1 1_555 1_555
H2 C1 1_555 1_555
C2 C1 1_555 1_555
H3 C2 1_555 1_555
H4 C2 1_555 1_555
C3 C2 1_555 1_555
H5 C3 1_555 1_555
H6 C3 1_555 1_555
C4 C3 1_555 1_555
C5 C4 1_555 1_555
H7 C5 1_555 1_555
C6 C5 1_555 1_555
H8 C6 1_555 1_555
H9 C6 1_555 1_555
C7 C6 1_555 1_555
H10 C7 1_555 1_555
H11 C7 1_555 1_555
C8 C7 1_555 1_555
C9 C8 1_555 1_555
H12 C9 1_555 1_555
C10 C1 1_555 1_555
C11 C9 1_555 1_555
H13 C11 1_555 1_555
C12 C11 1_555 1_555
H14 C12 1_555 1_555
H15 C12 1_555 1_555
C13 C12 1_555 1_555
H16 C13 1_555 1_555
C14 C8 1_555 1_555
H17 C14 1_555 1_555
H18 C14 1_555 1_555
C15 C8 1_555 1_555
H19 C15 1_555 1_555
C16 O1 1_555 1_555
C17 C4 1_555 1_555
C18 C4 1_555 1_555
H20 C18 1_555 1_555
H21 C18 1_555 1_555
H22 C18 1_555 1_555
C19 C10 1_555 1_555
H23 C19 1_555 1_555
H24 C19 1_555 1_555
H25 C19 1_555 1_555
C20 C16 1_555 1_555
H26 C20 1_555 1_555
H27 C20 1_555 1_555
H28 C20 1_555 1_555
H29 O2 1_555 1_555
H30 O3 1_555 1_555
C5 C10 1_555 1_555
C9 C10 1_555 1_555
C13 C14 1_555 1_555
C13 C16 1_555 1_555
C15 C16 1_555 1_555

#END
