
#######################################################################
#
#                 Cambridge Crystallographic Data Centre
#                                CCDC 
#
#######################################################################
#
# If this CIF has been generated from an entry in the Cambridge 
# Structural Database, then it will include bibliographic, chemical, 
# crystal, experimental, refinement or atomic coordinate data resulting 
# from the CCDC's data processing and validation procedures.
#
#######################################################################

data_LIXSER
_chemical_formula_moiety         'C15 H26 N2 O4'
_chemical_name_systematic        
'(3S,9aR)-2-t-Butyl 3-methyl octahydro-2H-pyrido(1,2-a)pyrazine-2,3-dicarboxylate'
_symmetry_cell_setting           monoclinic
_symmetry_space_group_name_H-M   'P 21'
_symmetry_Int_Tables_number      4
_space_group_name_Hall           'P 2yb'
loop_
_symmetry_equiv_pos_site_id
_symmetry_equiv_pos_as_xyz
1 x,y,z
2 -x,1/2+y,-z
_cell_length_a                   6.6212(5)
_cell_length_b                   8.4233(4)
_cell_length_c                   14.9817(11)
_cell_angle_alpha                90
_cell_angle_beta                 96.833(3)
_cell_angle_gamma                90
_cell_volume                     829.63
_exptl_crystal_colour            colorless
_exptl_crystal_description       prism
_cell_formula_units_Z            2
loop_
_atom_site_label
_atom_site_type_symbol
_atom_site_fract_x
_atom_site_fract_y
_atom_site_fract_z
N1 N 0.8103(2) 0.18453(16) 0.84569(10)
N2 N 0.5237(3) 0.05685(18) 0.70797(11)
O1 O 0.5915(2) -0.19966(17) 0.90317(9)
O2 O 0.3306(2) -0.0440(2) 0.85239(12)
O3 O 0.3685(2) -0.15575(16) 0.64366(9)
O4 O 0.2525(3) 0.09021(18) 0.60154(13)
C1 C 0.8328(3) 0.0225(2) 0.81255(14)
C2 C 0.6308(3) -0.0487(2) 0.77440(12)
C3 C 0.5226(3) 0.2260(2) 0.73192(16)
C4 C 0.7320(3) 0.2841(2) 0.76893(13)
C5 C 0.7207(4) 0.4585(3) 0.79687(19)
C6 C 0.9250(4) 0.5185(3) 0.84167(19)
C7 C 0.9986(4) 0.4106(2) 0.92010(17)
C8 C 1.0082(3) 0.2408(2) 0.88837(16)
C9 C 0.4975(3) -0.0932(2) 0.84651(13)
C10 C 0.4785(5) -0.2600(4) 0.9723(2)
C11 C 0.3686(3) 0.0038(2) 0.64704(14)
C12 C 0.2172(3) -0.2429(2) 0.58152(13)
C13 C 0.2771(5) -0.4141(3) 0.6025(2)
C14 C 0.0052(4) -0.2116(4) 0.6050(2)
C15 C 0.2424(6) -0.2020(4) 0.48559(17)
H1 H 0.902(3) -0.047(2) 0.8633(13)
H2 H 0.924(3) 0.021(2) 0.7658(13)
H3 H 0.654(3) -0.146(3) 0.7449(13)
H4 H 0.472(3) 0.285(3) 0.6774(15)
H5 H 0.429(3) 0.238(2) 0.7779(14)
H6 H 0.825(3) 0.275(2) 0.7201(12)
H7 H 0.674(3) 0.517(3) 0.7429(16)
H8 H 0.616(4) 0.475(3) 0.8426(17)
H9 H 0.915(4) 0.632(3) 0.8629(16)
H10 H 1.020(4) 0.515(3) 0.7960(16)
H11 H 1.133(4) 0.445(3) 0.9511(16)
H12 H 0.901(4) 0.417(3) 0.9658(16)
H13 H 1.051(4) 0.169(3) 0.9413(17)
H14 H 1.106(3) 0.233(3) 0.8423(15)
H15 H 0.354(5) -0.310(3) 0.9439(19)
H16 H 0.450(5) -0.177(4) 1.009(2)
H17 H 0.567(5) -0.352(4) 1.007(2)
H18 H 0.275(4) -0.438(4) 0.673(2)
H19 H 0.189(5) -0.489(4) 0.567(2)
H20 H 0.406(4) -0.429(3) 0.5842(17)
H21 H -0.089(5) -0.270(4) 0.566(2)
H22 H -0.004(5) -0.248(5) 0.668(3)
H23 H -0.031(4) -0.097(4) 0.5978(19)
H24 H 0.147(5) -0.272(4) 0.447(2)
H25 H 0.208(4) -0.087(3) 0.4720(16)
H26 H 0.382(6) -0.224(5) 0.475(2)
loop_
_geom_bond_atom_site_label_1
_geom_bond_atom_site_label_2
_geom_bond_site_symmetry_1
_geom_bond_site_symmetry_2
N1 C1 1_555 1_555
N2 C2 1_555 1_555
O1 C9 1_555 1_555
O2 C9 1_555 1_555
O3 C11 1_555 1_555
O4 C11 1_555 1_555
C1 C2 1_555 1_555
C2 C9 1_555 1_555
C3 N2 1_555 1_555
C4 N1 1_555 1_555
C5 C4 1_555 1_555
C6 C5 1_555 1_555
C7 C6 1_555 1_555
C8 N1 1_555 1_555
C10 O1 1_555 1_555
C11 N2 1_555 1_555
C12 O3 1_555 1_555
C13 C12 1_555 1_555
C14 C12 1_555 1_555
C15 C12 1_555 1_555
H1 C1 1_555 1_555
H2 C1 1_555 1_555
H3 C2 1_555 1_555
H4 C3 1_555 1_555
H5 C3 1_555 1_555
H6 C4 1_555 1_555
H7 C5 1_555 1_555
H8 C5 1_555 1_555
H9 C6 1_555 1_555
H10 C6 1_555 1_555
H11 C7 1_555 1_555
H12 C7 1_555 1_555
H13 C8 1_555 1_555
H14 C8 1_555 1_555
H15 C10 1_555 1_555
H16 C10 1_555 1_555
H17 C10 1_555 1_555
H18 C13 1_555 1_555
H19 C13 1_555 1_555
H20 C13 1_555 1_555
H21 C14 1_555 1_555
H22 C14 1_555 1_555
H23 C14 1_555 1_555
H24 C15 1_555 1_555
H25 C15 1_555 1_555
H26 C15 1_555 1_555
C3 C4 1_555 1_555
C7 C8 1_555 1_555

#END
