
#######################################################################
#
#                 Cambridge Crystallographic Data Centre
#                                CCDC 
#
#######################################################################
#
# If this CIF has been generated from an entry in the Cambridge 
# Structural Database, then it will include bibliographic, chemical, 
# crystal, experimental, refinement or atomic coordinate data resulting 
# from the CCDC's data processing and validation procedures.
#
#######################################################################

data_LIXXUN
_chemical_formula_moiety         
'5(C34 H27 N6 O3 1+),5(Cl1 1-),H1 Cl1,3(C3 H7 N1 O1),4(H2 O1)'
_chemical_name_systematic        
'pentakis(1,2,3-tris(((2-Hydroxynaphthalen-1-yl)methylidene)amino)guanidinium) pentachloride hydrochloride N,N-dimethylformamide solvate tetrahydrate'
_symmetry_cell_setting           monoclinic
_symmetry_space_group_name_H-M   'C c'
_symmetry_Int_Tables_number      9
_space_group_name_Hall           'C -2yc'
loop_
_symmetry_equiv_pos_site_id
_symmetry_equiv_pos_as_xyz
1 x,y,z
2 x,-y,1/2+z
3 1/2+x,1/2+y,z
4 1/2+x,1/2-y,1/2+z
_cell_length_a                   31.788(2)
_cell_length_b                   18.353(2)
_cell_length_c                   34.619(4)
_cell_angle_alpha                90
_cell_angle_beta                 107.82
_cell_angle_gamma                90
_cell_volume                     19227.9
_exptl_crystal_colour            yellow
_exptl_crystal_description       Block
_cell_formula_units_Z            4
loop_
_atom_site_label
_atom_site_type_symbol
_atom_site_fract_x
_atom_site_fract_y
_atom_site_fract_z
C1 C 0.2578(3) 0.2514(6) 0.4243(3)
C2 C 0.1883(4) 0.3940(6) 0.4187(3)
C3 C 0.1855(4) 0.4745(6) 0.4226(3)
C4 C 0.2224(4) 0.5145(6) 0.4411(3)
C5 C 0.2199(4) 0.5892(7) 0.4467(3)
H1 H 0.2453 0.6155 0.4597
C6 C 0.1798(4) 0.6243(7) 0.4330(3)
H2 H 0.1781 0.6742 0.4370
C7 C 0.1406(4) 0.5840(7) 0.4128(3)
C8 C 0.0994(5) 0.6226(7) 0.4010(3)
H3 H 0.0982 0.6726 0.4049
C9 C 0.0612(5) 0.5820(8) 0.3832(4)
H4 H 0.0338 0.6052 0.3754
C10 C 0.0634(4) 0.5098(7) 0.3773(3)
H5 H 0.0376 0.4847 0.3641
C11 C 0.1017(4) 0.4728(7) 0.3900(3)
H6 H 0.1015 0.4224 0.3873
C12 C 0.1425(4) 0.5099(6) 0.4075(3)
C13 C 0.3612(4) 0.2796(6) 0.4190(3)
C14 C 0.4052(4) 0.2471(6) 0.4227(3)
C15 C 0.4167(4) 0.1811(6) 0.4417(3)
C16 C 0.4590(4) 0.1526(8) 0.4472(4)
H7 H 0.4671 0.1094 0.4615
C17 C 0.4876(4) 0.1859(7) 0.4324(3)
H8 H 0.5145 0.1637 0.4347
C18 C 0.4781(3) 0.2548(7) 0.4132(3)
C19 C 0.5106(4) 0.2927(8) 0.4003(3)
H9 H 0.5382 0.2720 0.4037
C20 C 0.5007(4) 0.3588(9) 0.3832(4)
H10 H 0.5217 0.3837 0.3745
C21 C 0.4623(4) 0.3888(7) 0.3787(4)
H11 H 0.4571 0.4349 0.3671
C22 C 0.4296(4) 0.3565(6) 0.3900(3)
H12 H 0.4027 0.3799 0.3861
C23 C 0.4373(3) 0.2858(6) 0.4080(3)
C24 C 0.2176(4) 0.0759(6) 0.4191(3)
C25 C 0.1808(4) 0.0309(6) 0.4229(3)
C26 C 0.1519(4) 0.0559(6) 0.4413(3)
C27 C 0.1187(4) 0.0099(6) 0.4468(3)
H13 H 0.0997 0.0275 0.4605
C28 C 0.1138(4) -0.0583(6) 0.4328(3)
H14 H 0.0911 -0.0874 0.4359
C29 C 0.1436(4) -0.0861(6) 0.4130(3)
C30 C 0.1389(5) -0.1607(7) 0.4004(4)
H15 H 0.1162 -0.1895 0.4040
C31 C 0.1692(5) -0.1890(8) 0.3828(4)
H16 H 0.1669 -0.2375 0.3746
C32 C 0.2009(5) -0.1484(7) 0.3774(4)
H17 H 0.2204 -0.1693 0.3653
C33 C 0.2067(4) -0.0773(6) 0.3888(3)
H18 H 0.2296 -0.0501 0.3845
C34 C 0.1766(4) -0.0447(6) 0.4077(3)
N1 N 0.2219(3) 0.2859(5) 0.4234(3)
H19 H 0.1977 0.2626 0.4206
N2 N 0.2237(3) 0.3615(5) 0.4271(2)
N3 N 0.2938(3) 0.2852(5) 0.4234(3)
H20 H 0.2937 0.3318 0.4206
N4 N 0.3309(3) 0.2466(5) 0.4267(3)
N5 N 0.2572(3) 0.1791(5) 0.4240(3)
H21 H 0.2797 0.1550 0.4222
N6 N 0.2203(3) 0.1436(5) 0.4265(3)
O1 O 0.2626(3) 0.4866(4) 0.4560(3)
H22 H 0.2618 0.4428 0.4514
O2 O 0.3896(3) 0.1418(4) 0.4556(3)
H23 H 0.3660 0.1635 0.4513
O3 O 0.1534(3) 0.1243(4) 0.4558(3)
H24 H 0.1746 0.1458 0.4525
C35 C 0.2256(3) 0.2517(6) 0.3284(3)
C36 C 0.3293(4) 0.2366(6) 0.3185(3)
C37 C 0.3638(4) 0.2719(6) 0.3042(3)
C38 C 0.3559(4) 0.3399(7) 0.2871(3)
C39 C 0.3850(4) 0.3709(7) 0.2684(3)
H25 H 0.3794 0.4169 0.2566
C40 C 0.4229(4) 0.3313(6) 0.2679(3)
H26 H 0.4423 0.3512 0.2555
C41 C 0.4311(4) 0.2654(7) 0.2851(3)
C42 C 0.4698(4) 0.2263(9) 0.2835(4)
H27 H 0.4888 0.2462 0.2706
C43 C 0.4783(4) 0.1574(9) 0.3020(4)
H28 H 0.5032 0.1313 0.3017
C44 C 0.4496(4) 0.1290(7) 0.3204(4)
H29 H 0.4561 0.0837 0.3328
C45 C 0.4125(4) 0.1626(7) 0.3218(3)
H30 H 0.3936 0.1400 0.3339
C46 C 0.4025(4) 0.2329(6) 0.3045(3)
C47 C 0.1625(4) 0.0964(6) 0.3183(3)
C48 C 0.1558(4) 0.0197(6) 0.3040(3)
C49 C 0.1848(4) -0.0123(7) 0.2871(3)
C50 C 0.1768(4) -0.0809(6) 0.2679(3)
H31 H 0.1965 -0.1015 0.2560
C51 C 0.1381(4) -0.1162(6) 0.2677(3)
H32 H 0.1320 -0.1616 0.2553
C52 C 0.1088(4) -0.0875(6) 0.2847(3)
C53 C 0.0697(4) -0.1242(7) 0.2838(3)
H33 H 0.0635 -0.1690 0.2707
C54 C 0.0405(4) -0.0958(8) 0.3016(4)
H34 H 0.0154 -0.1219 0.3013
C55 C 0.0483(4) -0.0279(8) 0.3201(4)
H35 H 0.0280 -0.0087 0.3318
C56 C 0.0851(4) 0.0106(7) 0.3214(3)
H36 H 0.0897 0.0561 0.3337
C57 C 0.1169(4) -0.0180(6) 0.3038(3)
C58 C 0.1758(4) 0.4185(7) 0.3179(3)
C59 C 0.1347(3) 0.4579(6) 0.3039(3)
C60 C 0.0949(4) 0.4217(6) 0.2873(3)
C61 C 0.0553(4) 0.4593(7) 0.2691(3)
H37 H 0.0290 0.4341 0.2582
C62 C 0.0563(4) 0.5359(6) 0.2678(3)
H38 H 0.0304 0.5610 0.2548
C63 C 0.0938(4) 0.5745(6) 0.2850(3)
C64 C 0.0940(5) 0.6509(7) 0.2841(3)
H39 H 0.0681 0.6762 0.2715
C65 C 0.1322(5) 0.6879(7) 0.3016(4)
H40 H 0.1323 0.7386 0.3015
C66 C 0.1703(5) 0.6507(7) 0.3194(5)
H41 H 0.1959 0.6778 0.3302
C67 C 0.1737(4) 0.5764(7) 0.3224(3)
H42 H 0.2003 0.5535 0.3358
C68 C 0.1348(4) 0.5361(6) 0.3039(3)
N7 N 0.2640(3) 0.2220(4) 0.3279(3)
H43 H 0.2697 0.1767 0.3335
N8 N 0.2939(3) 0.2673(5) 0.3181(3)
N9 N 0.1917(3) 0.2060(4) 0.3278(3)
H44 H 0.1687 0.2218 0.3333
N10 N 0.1951(3) 0.1350(5) 0.3183(3)
N11 N 0.2210(3) 0.3218(4) 0.3275(2)
H45 H 0.2435 0.3504 0.3327
N12 N 0.1785(3) 0.3487(5) 0.3180(3)
O4 O 0.3201(3) 0.3821(4) 0.2858(3)
H46 H 0.3048 0.3613 0.2976
O5 O 0.2225(3) 0.0208(4) 0.2856(2)
H47 H 0.2238 0.0619 0.2952
O6 O 0.0905(3) 0.3464(4) 0.2853(2)
H48 H 0.1144 0.3275 0.2971
C69 C 0.0077(4) 0.7507(6) 0.1749(3)
C70 C -0.0971(4) 0.7161(6) 0.1826(3)
C71 C -0.1388(4) 0.7513(6) 0.1802(3)
C72 C -0.1503(4) 0.8192(6) 0.1619(3)
C73 C -0.1907(4) 0.8534(6) 0.1613(3)
H49 H -0.1982 0.8982 0.1484
C74 C -0.2186(4) 0.8213(7) 0.1794(3)
H50 H -0.2443 0.8452 0.1800
C75 C -0.2086(4) 0.7525(7) 0.1970(3)
C76 C -0.2380(4) 0.7176(7) 0.2138(3)
H51 H -0.2646 0.7403 0.2124
C77 C -0.2293(5) 0.6538(9) 0.2314(4)
H52 H -0.2488 0.6329 0.2434
C78 C -0.1880(5) 0.6151(7) 0.2322(3)
H53 H -0.1826 0.5691 0.2439
C79 C -0.1574(5) 0.6456(7) 0.2160(3)
H54 H -0.1314 0.6214 0.2171
C80 C -0.1673(4) 0.7151(6) 0.1978(3)
C81 C 0.0466(4) 0.9273(6) 0.1822(3)
C82 C 0.0837(4) 0.9723(6) 0.1795(3)
C83 C 0.1146(4) 0.9468(7) 0.1607(3)
C84 C 0.1508(4) 0.9890(7) 0.1602(4)
H55 H 0.1702 0.9723 0.1468
C85 C 0.1581(4) 1.0566(7) 0.1798(3)
H56 H 0.1838 1.0824 0.1815
C86 C 0.1271(4) 1.0859(6) 0.1969(3)
C87 C 0.1330(5) 1.1541(7) 0.2147(3)
H57 H 0.1581 1.1804 0.2152
C88 C 0.1054(6) 1.1829(7) 0.2305(4)
H58 H 0.1100 1.2299 0.2411
C89 C 0.0676(5) 1.1419(7) 0.2319(3)
H59 H 0.0482 1.1622 0.2443
C90 C 0.0589(4) 1.0721(6) 0.2150(3)
H60 H 0.0338 1.0467 0.2155
C91 C 0.0893(4) 1.0416(6) 0.1975(3)
C92 C 0.0806(4) 0.6070(6) 0.1821(3)
C93 C 0.0835(4) 0.5267(6) 0.1796(3)
C94 C 0.0467(4) 0.4848(7) 0.1612(3)
C95 C 0.0495(4) 0.4079(6) 0.1610(4)
H61 H 0.0246 0.3804 0.1483
C96 C 0.0891(4) 0.3739(6) 0.1796(3)
H62 H 0.0905 0.3233 0.1802
C97 C 0.1267(4) 0.4143(6) 0.1972(3)
C98 C 0.1670(4) 0.3784(7) 0.2142(3)
H63 H 0.1679 0.3278 0.2136
C99 C 0.2038(5) 0.4156(9) 0.2310(3)
H64 H 0.2305 0.3914 0.2423
C100 C 0.2021(4) 0.4937(9) 0.2315(3)
H65 H 0.2283 0.5190 0.2430
C101 C 0.1638(4) 0.5334(8) 0.2160(3)
H66 H 0.1633 0.5839 0.2176
C102 C 0.1249(4) 0.4918(6) 0.1971(3)
N13 N -0.0287(3) 0.7139(5) 0.1756(3)
H67 H -0.0283 0.6672 0.1779
N14 N -0.0667(3) 0.7533(5) 0.1725(2)
N15 N 0.0086(3) 0.8247(4) 0.1763(3)
H68 H -0.0131 0.8494 0.1795
N16 N 0.0460(3) 0.8589(5) 0.1722(2)
N17 N 0.0451(3) 0.7129(5) 0.1753(3)
H69 H 0.0696 0.7350 0.1775
N18 N 0.0419(3) 0.6377(4) 0.1722(2)
O7 O -0.1253(3) 0.8569(4) 0.1418(2)
H70 H -0.1029 0.8338 0.1432
O8 O 0.1119(3) 0.8823(4) 0.1416(2)
H71 H 0.0896 0.8607 0.1423
O9 O 0.0054(3) 0.5152(5) 0.1426(2)
H72 H -0.0095 0.4868 0.1256
C103 C 0.1516(4) 0.2508(6) 0.1054(3)
C104 C 0.2528(4) 0.1877(7) 0.1038(3)
C105 C 0.2817(3) 0.1219(7) 0.1081(3)
C106 C 0.2721(4) 0.0561(7) 0.1216(3)
C107 C 0.3024(5) -0.0037(7) 0.1292(4)
H73 H 0.2956 -0.0481 0.1388
C108 C 0.3420(4) 0.0069(7) 0.1217(4)
H74 H 0.3622 -0.0312 0.1272
C109 C 0.3534(4) 0.0719(9) 0.1062(4)
C110 C 0.3948(4) 0.0836(10) 0.0980(4)
H75 H 0.4162 0.0472 0.1046
C111 C 0.4036(5) 0.1472(12) 0.0806(5)
H76 H 0.4301 0.1517 0.0746
C112 C 0.3742(5) 0.2039(10) 0.0719(4)
H77 H 0.3803 0.2470 0.0606
C113 C 0.3353(5) 0.1944(9) 0.0808(3)
H78 H 0.3149 0.2323 0.0743
C114 C 0.3236(3) 0.1312(6) 0.0990(3)
C115 C 0.1317(4) 0.4331(7) 0.1036(3)
C116 C 0.1518(4) 0.5076(6) 0.1076(3)
C117 C 0.1972(4) 0.5197(6) 0.1221(3)
C118 C 0.2149(5) 0.5917(8) 0.1298(4)
H79 H 0.2451 0.6003 0.1394
C119 C 0.1834(7) 0.6496(7) 0.1220(4)
H80 H 0.1940 0.6966 0.1289
C120 C 0.1386(6) 0.6410(7) 0.1051(3)
C121 C 0.1101(6) 0.7015(7) 0.0976(5)
H81 H 0.1226 0.7475 0.1042
C122 C 0.0647(6) 0.6970(8) 0.0812(4)
H82 H 0.0467 0.7380 0.0764
C123 C 0.0469(6) 0.6238(8) 0.0719(4)
H83 H 0.0168 0.6160 0.0602
C124 C 0.0758(5) 0.5677(8) 0.0806(4)
H84 H 0.0636 0.5215 0.0742
C125 C 0.1216(4) 0.5704(6) 0.0982(3)
C126 C 0.0686(4) 0.1288(6) 0.1044(3)
C127 C 0.0229(4) 0.1200(6) 0.1083(3)
C128 C 0.0022(4) 0.1735(6) 0.1226(3)
C129 C -0.0402(5) 0.1595(9) 0.1291(4)
H85 H -0.0544 0.1964 0.1387
C130 C -0.0581(4) 0.0953(9) 0.1216(4)
H86 H -0.0849 0.0867 0.1265
C131 C -0.0379(5) 0.0383(8) 0.1063(3)
C132 C -0.0585(5) -0.0317(8) 0.0970(4)
H87 H -0.0851 -0.0400 0.1024
C133 C -0.0406(6) -0.0866(9) 0.0806(4)
H88 H -0.0551 -0.1311 0.0748
C134 C 0.0019(5) -0.0757(8) 0.0720(4)
H89 H 0.0153 -0.1123 0.0612
C135 C 0.0198(4) -0.0089(7) 0.0810(3)
H90 H 0.0458 0.0005 0.0750
C136 C 0.0023(4) 0.0481(6) 0.0988(3)
N19 N 0.1942(3) 0.2474(5) 0.1059(2)
H91 H 0.2083 0.2868 0.1044
N20 N 0.2150(3) 0.1810(4) 0.1087(2)
N21 N 0.1286(3) 0.1876(5) 0.1059(2)
H92 H 0.1406 0.1461 0.1044
N22 N 0.0874(3) 0.1906(5) 0.1087(2)
N23 N 0.1316(3) 0.3158(5) 0.1059(2)
H93 H 0.1042 0.3180 0.1046
N24 N 0.1557(3) 0.3768(5) 0.1083(2)
O10 O 0.2360(3) 0.0436(5) 0.1310(3)
H94 H 0.2206 0.0803 0.1268
O11 O 0.0183(3) 0.2375(5) 0.1306(3)
H95 H 0.0424 0.2392 0.1267
O12 O 0.2249(3) 0.4674(5) 0.1297(3)
H96 H 0.2117 0.4287 0.1233
C137 C 1.1190(3) 0.7506(6) 0.5089(3)
C138 C 1.0159(3) 0.8198(6) 0.5054(3)
C139 C 0.9866(3) 0.8788(6) 0.4991(3)
C140 C 0.9961(4) 0.9452(6) 0.4824(3)
C141 C 0.9646(5) 0.9988(7) 0.4703(4)
H97 H 0.9719 1.0414 0.4594
C142 C 0.9264(5) 0.9932(8) 0.4734(4)
H98 H 0.9062 1.0309 0.4644
C143 C 0.9140(4) 0.9308(7) 0.4901(3)
C144 C 0.8717(5) 0.9241(8) 0.4936(4)
H99 H 0.8515 0.9614 0.4835
C145 C 0.8579(5) 0.8635(9) 0.5117(4)
H100 H 0.8299 0.8605 0.5149
C146 C 0.8895(4) 0.8084(7) 0.5244(4)
H101 H 0.8817 0.7665 0.5358
C147 C 0.9322(4) 0.8126(8) 0.5211(3)
H102 H 0.9520 0.7746 0.5306
C148 C 0.9453(4) 0.8743(6) 0.5035(3)
C149 C 1.2043(4) 0.8672(6) 0.5061(3)
C150 C 1.2451(4) 0.8785(6) 0.4989(3)
C151 C 1.2647(4) 0.8228(8) 0.4828(3)
C152 C 1.3007(4) 0.8355(7) 0.4700(4)
H103 H 1.3127 0.7966 0.4598
C153 C 1.3190(5) 0.8995(9) 0.4715(4)
H104 H 1.3424 0.9063 0.4609
C154 C 1.3027(4) 0.9598(7) 0.4896(3)
C155 C 1.3221(4) 1.0277(9) 0.4939(4)
H105 H 1.3466 1.0344 0.4850
C156 C 1.3065(5) 1.0876(9) 0.5111(4)
H106 H 1.3201 1.1330 0.5137
C157 C 1.2703(4) 1.0755(6) 0.5239(4)
H107 H 1.2595 1.1144 0.5353
C158 C 1.2488(5) 1.0098(7) 0.5209(3)
H108 H 1.2242 1.0049 0.5298
C159 C 1.2654(4) 0.9482(7) 0.5036(3)
C160 C 1.1347(4) 0.5628(5) 0.5058(3)
C161 C 1.1156(4) 0.4926(6) 0.4983(3)
C162 C 1.0707(4) 0.4816(6) 0.4827(3)
C163 C 1.0524(4) 0.4151(7) 0.4698(4)
H109 H 1.0219 0.4116 0.4590
C164 C 1.0756(5) 0.3578(8) 0.4721(4)
H110 H 1.0620 0.3135 0.4627
C165 C 1.1232(5) 0.3617(7) 0.4896(4)
C166 C 1.1489(6) 0.3007(8) 0.4943(4)
H111 H 1.1349 0.2564 0.4858
C167 C 1.1926(6) 0.3006(8) 0.5104(4)
H112 H 1.2086 0.2576 0.5126
C168 C 1.2149(5) 0.3698(7) 0.5244(4)
H113 H 1.2455 0.3715 0.5350
C169 C 1.1899(4) 0.4339(7) 0.5217(3)
H114 H 1.2032 0.4782 0.5313
C170 C 1.1419(4) 0.4280(7) 0.5032(3)
N25 N 1.0776(3) 0.7536(5) 0.5081(2)
H115 H 1.0636 0.7145 0.5101
N26 N 1.0564(3) 0.8212(5) 0.5038(2)
N27 N 1.1415(3) 0.8107(4) 0.5081(2)
H116 H 1.1302 0.8525 0.5103
N28 N 1.1839(3) 0.8063(5) 0.5037(2)
N29 N 1.1379(3) 0.6862(4) 0.5084(2)
H117 H 1.1656 0.6838 0.5111
N30 N 1.1126(3) 0.6217(5) 0.5035(2)
O13 O 1.0380(3) 0.9594(4) 0.4793(2)
H118 H 1.0543 0.9245 0.4881
O14 O 1.2497(3) 0.7517(4) 0.4791(3)
H119 H 1.2278 0.7488 0.4868
O15 O 1.0404(3) 0.5388(4) 0.4786(3)
H120 H 1.0538 0.5771 0.4858
C171 C 0.8776(10) -0.0639(16) 0.7040(11)
H121 H 0.8601 -0.0389 0.6801
H122 H 0.8638 -0.0594 0.7250
H123 H 0.8799 -0.1144 0.6978
C172 C 0.9525(8) -0.0554(13) 0.7481(8)
H124 H 0.9413 -0.0948 0.7604
H125 H 0.9627 -0.0170 0.7675
H126 H 0.9765 -0.0726 0.7392
C173 C 0.9281(7) 0.0264(10) 0.6956(5)
H127 H 0.9045 0.0361 0.6725
N31 N 0.9219(6) -0.0315(8) 0.7178(5)
O16 O 0.9576(3) 0.0655(5) 0.7005(3)
C174 C 0.1718(6) 0.7676(11) 0.1960(6)
H128 H 0.1677 0.7968 0.1732
C175 C 0.2452(9) 0.7938(14) 0.2079(8)
H129 H 0.2325 0.8205 0.1833
H130 H 0.2668 0.7601 0.2043
H131 H 0.2591 0.8271 0.2295
C176 C 0.2249(8) 0.7169(14) 0.2494(8)
H132 H 0.2565 0.7184 0.2610
H133 H 0.2157 0.6676 0.2422
H134 H 0.2113 0.7347 0.2687
N32 N 0.2133(5) 0.7571(9) 0.2174(5)
O17 O 0.1392(3) 0.7460(5) 0.2010(3)
C177 C 0.4293(13) 0.8790(13) 0.2083(9)
H135 H 0.4410 0.8702 0.1863
H136 H 0.3991 0.8629 0.2009
H137 H 0.4464 0.8528 0.2319
C178 C 0.4216(10) 0.9776(12) 0.2491(9)
H138 H 0.4146 0.9351 0.2621
H139 H 0.3965 1.0096 0.2416
H140 H 0.4463 1.0023 0.2674
C179 C 0.4453(6) 1.0080(9) 0.1984(6)
H141 H 0.4504 0.9888 0.1753
N33 N 0.4313(5) 0.9586(8) 0.2175(4)
O18 O 0.4534(3) 1.0683(5) 0.2013(3)
Cl1 Cl 0.13584(14) 0.05020(16) 0.05560(11)
Cl2 Cl 0.23393(12) 0.35092(19) 0.05545(10)
Cl3 Cl 0.03467(12) 0.34824(19) 0.05572(10)
Cl4 Cl 0.30407(10) 0.08040(16) 0.37236(9)
Cl5 Cl 0.12380(10) 0.23965(16) 0.37249(9)
Cl6 Cl 0.29362(10) 0.43018(16) 0.37251(9)
O19 O 0.8099(12) 0.036(2) 0.5647(12)
O20 O 0.1556(10) -0.1220(17) 0.0654(10)
O21 O 0.4205(10) 0.8612(15) 0.1010(10)
O22 O -0.0539(11) 0.4222(18) 0.0532(11)
loop_
_geom_bond_atom_site_label_1
_geom_bond_atom_site_label_2
_geom_bond_site_symmetry_1
_geom_bond_site_symmetry_2
C1 N1 1_555 1_555
C2 C3 1_555 1_555
C3 C4 1_555 1_555
C4 C5 1_555 1_555
C5 H1 1_555 1_555
C6 C5 1_555 1_555
H2 C6 1_555 1_555
C7 C6 1_555 1_555
C8 C7 1_555 1_555
H3 C8 1_555 1_555
C9 C8 1_555 1_555
H4 C9 1_555 1_555
C10 C9 1_555 1_555
H5 C10 1_555 1_555
C11 C10 1_555 1_555
H6 C11 1_555 1_555
C12 C3 1_555 1_555
C13 C14 1_555 1_555
C14 C15 1_555 1_555
C15 C16 1_555 1_555
C16 H7 1_555 1_555
C17 C16 1_555 1_555
H8 C17 1_555 1_555
C18 C17 1_555 1_555
C19 C18 1_555 1_555
H9 C19 1_555 1_555
C20 C19 1_555 1_555
H10 C20 1_555 1_555
C21 C20 1_555 1_555
H11 C21 1_555 1_555
C22 C21 1_555 1_555
H12 C22 1_555 1_555
C23 C14 1_555 1_555
C24 C25 1_555 1_555
C25 C26 1_555 1_555
C26 C27 1_555 1_555
C27 H13 1_555 1_555
C28 C27 1_555 1_555
H14 C28 1_555 1_555
C29 C28 1_555 1_555
C30 C29 1_555 1_555
H15 C30 1_555 1_555
C31 C30 1_555 1_555
H16 C31 1_555 1_555
C32 C31 1_555 1_555
H17 C32 1_555 1_555
C33 C32 1_555 1_555
H18 C33 1_555 1_555
C34 C25 1_555 1_555
N1 H19 1_555 1_555
N2 C2 1_555 1_555
N3 C1 1_555 1_555
H20 N3 1_555 1_555
N4 C13 1_555 1_555
N5 C1 1_555 1_555
H21 N5 1_555 1_555
N6 C24 1_555 1_555
O1 C4 1_555 1_555
H22 O1 1_555 1_555
O2 C15 1_555 1_555
H23 O2 1_555 1_555
O3 C26 1_555 1_555
H24 O3 1_555 1_555
C35 N7 1_555 1_555
C36 C37 1_555 1_555
C37 C38 1_555 1_555
C38 C39 1_555 1_555
C39 H25 1_555 1_555
C40 C39 1_555 1_555
H26 C40 1_555 1_555
C41 C40 1_555 1_555
C42 C41 1_555 1_555
H27 C42 1_555 1_555
C43 C42 1_555 1_555
H28 C43 1_555 1_555
C44 C43 1_555 1_555
H29 C44 1_555 1_555
C45 C44 1_555 1_555
H30 C45 1_555 1_555
C46 C37 1_555 1_555
C47 C48 1_555 1_555
C48 C49 1_555 1_555
C49 C50 1_555 1_555
C50 H31 1_555 1_555
C51 C50 1_555 1_555
H32 C51 1_555 1_555
C52 C51 1_555 1_555
C53 C52 1_555 1_555
H33 C53 1_555 1_555
C54 C53 1_555 1_555
H34 C54 1_555 1_555
C55 C54 1_555 1_555
H35 C55 1_555 1_555
C56 C55 1_555 1_555
H36 C56 1_555 1_555
C57 C48 1_555 1_555
C58 C59 1_555 1_555
C59 C60 1_555 1_555
C60 C61 1_555 1_555
C61 H37 1_555 1_555
C62 C61 1_555 1_555
H38 C62 1_555 1_555
C63 C62 1_555 1_555
C64 C63 1_555 1_555
H39 C64 1_555 1_555
C65 C64 1_555 1_555
H40 C65 1_555 1_555
C66 C65 1_555 1_555
H41 C66 1_555 1_555
C67 C66 1_555 1_555
H42 C67 1_555 1_555
C68 C59 1_555 1_555
N7 H43 1_555 1_555
N8 C36 1_555 1_555
N9 C35 1_555 1_555
H44 N9 1_555 1_555
N10 C47 1_555 1_555
N11 C35 1_555 1_555
H45 N11 1_555 1_555
N12 C58 1_555 1_555
O4 C38 1_555 1_555
H46 O4 1_555 1_555
O5 C49 1_555 1_555
H47 O5 1_555 1_555
O6 C60 1_555 1_555
H48 O6 1_555 1_555
C69 N13 1_555 1_555
C70 C71 1_555 1_555
C71 C72 1_555 1_555
C72 C73 1_555 1_555
C73 H49 1_555 1_555
C74 C73 1_555 1_555
H50 C74 1_555 1_555
C75 C74 1_555 1_555
C76 C75 1_555 1_555
H51 C76 1_555 1_555
C77 C76 1_555 1_555
H52 C77 1_555 1_555
C78 C77 1_555 1_555
H53 C78 1_555 1_555
C79 C78 1_555 1_555
H54 C79 1_555 1_555
C80 C71 1_555 1_555
C81 C82 1_555 1_555
C82 C83 1_555 1_555
C83 C84 1_555 1_555
C84 H55 1_555 1_555
C85 C84 1_555 1_555
H56 C85 1_555 1_555
C86 C85 1_555 1_555
C87 C86 1_555 1_555
H57 C87 1_555 1_555
C88 C87 1_555 1_555
H58 C88 1_555 1_555
C89 C88 1_555 1_555
H59 C89 1_555 1_555
C90 C89 1_555 1_555
H60 C90 1_555 1_555
C91 C82 1_555 1_555
C92 C93 1_555 1_555
C93 C94 1_555 1_555
C94 C95 1_555 1_555
C95 H61 1_555 1_555
C96 C95 1_555 1_555
H62 C96 1_555 1_555
C97 C96 1_555 1_555
C98 C97 1_555 1_555
H63 C98 1_555 1_555
C99 C98 1_555 1_555
H64 C99 1_555 1_555
C100 C99 1_555 1_555
H65 C100 1_555 1_555
C101 C100 1_555 1_555
H66 C101 1_555 1_555
C102 C93 1_555 1_555
N13 H67 1_555 1_555
N14 C70 1_555 1_555
N15 C69 1_555 1_555
H68 N15 1_555 1_555
N16 C81 1_555 1_555
N17 C69 1_555 1_555
H69 N17 1_555 1_555
N18 C92 1_555 1_555
O7 C72 1_555 1_555
H70 O7 1_555 1_555
O8 C83 1_555 1_555
H71 O8 1_555 1_555
O9 C94 1_555 1_555
H72 O9 1_555 1_555
C103 N19 1_555 1_555
C104 C105 1_555 1_555
C105 C106 1_555 1_555
C106 C107 1_555 1_555
C107 H73 1_555 1_555
C108 C107 1_555 1_555
H74 C108 1_555 1_555
C109 C108 1_555 1_555
C110 C109 1_555 1_555
H75 C110 1_555 1_555
C111 C110 1_555 1_555
H76 C111 1_555 1_555
C112 C111 1_555 1_555
H77 C112 1_555 1_555
C113 C112 1_555 1_555
H78 C113 1_555 1_555
C114 C105 1_555 1_555
C115 C116 1_555 1_555
C116 C117 1_555 1_555
C117 C118 1_555 1_555
C118 H79 1_555 1_555
C119 C118 1_555 1_555
H80 C119 1_555 1_555
C120 C119 1_555 1_555
C121 C120 1_555 1_555
H81 C121 1_555 1_555
C122 C121 1_555 1_555
H82 C122 1_555 1_555
C123 C122 1_555 1_555
H83 C123 1_555 1_555
C124 C123 1_555 1_555
H84 C124 1_555 1_555
C125 C116 1_555 1_555
C126 C127 1_555 1_555
C127 C128 1_555 1_555
C128 C129 1_555 1_555
C129 H85 1_555 1_555
C130 C129 1_555 1_555
H86 C130 1_555 1_555
C131 C130 1_555 1_555
C132 C131 1_555 1_555
H87 C132 1_555 1_555
C133 C132 1_555 1_555
H88 C133 1_555 1_555
C134 C133 1_555 1_555
H89 C134 1_555 1_555
C135 C134 1_555 1_555
H90 C135 1_555 1_555
C136 C127 1_555 1_555
N19 H91 1_555 1_555
N20 C104 1_555 1_555
N21 C103 1_555 1_555
H92 N21 1_555 1_555
N22 C126 1_555 1_555
N23 C103 1_555 1_555
H93 N23 1_555 1_555
N24 C115 1_555 1_555
O10 C106 1_555 1_555
H94 O10 1_555 1_555
O11 C128 1_555 1_555
H95 O11 1_555 1_555
O12 C117 1_555 1_555
H96 O12 1_555 1_555
C137 N25 1_555 1_555
C138 C139 1_555 1_555
C139 C140 1_555 1_555
C140 C141 1_555 1_555
C141 H97 1_555 1_555
C142 C141 1_555 1_555
H98 C142 1_555 1_555
C143 C142 1_555 1_555
C144 C143 1_555 1_555
H99 C144 1_555 1_555
C145 C144 1_555 1_555
H100 C145 1_555 1_555
C146 C145 1_555 1_555
H101 C146 1_555 1_555
C147 C146 1_555 1_555
H102 C147 1_555 1_555
C148 C139 1_555 1_555
C149 C150 1_555 1_555
C150 C151 1_555 1_555
C151 C152 1_555 1_555
C152 H103 1_555 1_555
C153 C152 1_555 1_555
H104 C153 1_555 1_555
C154 C153 1_555 1_555
C155 C154 1_555 1_555
H105 C155 1_555 1_555
C156 C155 1_555 1_555
H106 C156 1_555 1_555
C157 C156 1_555 1_555
H107 C157 1_555 1_555
C158 C157 1_555 1_555
H108 C158 1_555 1_555
C159 C150 1_555 1_555
C160 C161 1_555 1_555
C161 C162 1_555 1_555
C162 C163 1_555 1_555
C163 H109 1_555 1_555
C164 C163 1_555 1_555
H110 C164 1_555 1_555
C165 C164 1_555 1_555
C166 C165 1_555 1_555
H111 C166 1_555 1_555
C167 C166 1_555 1_555
H112 C167 1_555 1_555
C168 C167 1_555 1_555
H113 C168 1_555 1_555
C169 C168 1_555 1_555
H114 C169 1_555 1_555
C170 C161 1_555 1_555
N25 H115 1_555 1_555
N26 C138 1_555 1_555
N27 C137 1_555 1_555
H116 N27 1_555 1_555
N28 C149 1_555 1_555
N29 C137 1_555 1_555
H117 N29 1_555 1_555
N30 C160 1_555 1_555
O13 C140 1_555 1_555
H118 O13 1_555 1_555
O14 C151 1_555 1_555
H119 O14 1_555 1_555
O15 C162 1_555 1_555
H120 O15 1_555 1_555
C171 H121 1_555 1_555
H122 C171 1_555 1_555
H123 C171 1_555 1_555
C172 H124 1_555 1_555
H125 C172 1_555 1_555
H126 C172 1_555 1_555
C173 H127 1_555 1_555
N31 C171 1_555 1_555
O16 C173 1_555 1_555
C174 H128 1_555 1_555
C175 H129 1_555 1_555
H130 C175 1_555 1_555
H131 C175 1_555 1_555
C176 H132 1_555 1_555
H133 C176 1_555 1_555
H134 C176 1_555 1_555
N32 C174 1_555 1_555
O17 C174 1_555 1_555
C177 H135 1_555 1_555
H136 C177 1_555 1_555
H137 C177 1_555 1_555
C178 H138 1_555 1_555
H139 C178 1_555 1_555
H140 C178 1_555 1_555
C179 H141 1_555 1_555
N33 C177 1_555 1_555
O18 C179 1_555 1_555
C7 C12 1_555 1_555
C11 C12 1_555 1_555
C18 C23 1_555 1_555
C22 C23 1_555 1_555
C29 C34 1_555 1_555
C33 C34 1_555 1_555
N1 N2 1_555 1_555
N3 N4 1_555 1_555
N5 N6 1_555 1_555
C41 C46 1_555 1_555
C45 C46 1_555 1_555
C52 C57 1_555 1_555
C56 C57 1_555 1_555
C63 C68 1_555 1_555
C67 C68 1_555 1_555
N7 N8 1_555 1_555
N9 N10 1_555 1_555
N11 N12 1_555 1_555
C75 C80 1_555 1_555
C79 C80 1_555 1_555
C86 C91 1_555 1_555
C90 C91 1_555 1_555
C97 C102 1_555 1_555
C101 C102 1_555 1_555
N13 N14 1_555 1_555
N15 N16 1_555 1_555
N17 N18 1_555 1_555
C109 C114 1_555 1_555
C113 C114 1_555 1_555
C120 C125 1_555 1_555
C124 C125 1_555 1_555
C131 C136 1_555 1_555
C135 C136 1_555 1_555
N19 N20 1_555 1_555
N21 N22 1_555 1_555
N23 N24 1_555 1_555
C143 C148 1_555 1_555
C147 C148 1_555 1_555
C154 C159 1_555 1_555
C158 C159 1_555 1_555
C165 C170 1_555 1_555
C169 C170 1_555 1_555
N25 N26 1_555 1_555
N27 N28 1_555 1_555
N29 N30 1_555 1_555
C172 N31 1_555 1_555
C173 N31 1_555 1_555
C175 N32 1_555 1_555
C176 N32 1_555 1_555
C178 N33 1_555 1_555
C179 N33 1_555 1_555

#END
