
#######################################################################
#
#                 Cambridge Crystallographic Data Centre
#                                CCDC 
#
#######################################################################
#
# If this CIF has been generated from an entry in the Cambridge 
# Structural Database, then it will include bibliographic, chemical, 
# crystal, experimental, refinement or atomic coordinate data resulting 
# from the CCDC's data processing and validation procedures.
#
#######################################################################

data_LIXXOH
_chemical_formula_moiety         'C23 H21 N1 O2'
_chemical_name_systematic        
4-(4-methylphenyl)-9-phenyl-4-azatetracyclo[5.3.1.0^2,6^.0^8,10^]undecane-3,5-dione
_symmetry_cell_setting           monoclinic
_symmetry_space_group_name_H-M   'P 21/a'
_symmetry_Int_Tables_number      14
_space_group_name_Hall           '-P 2yab'
loop_
_symmetry_equiv_pos_site_id
_symmetry_equiv_pos_as_xyz
1 x,y,z
2 1/2-x,1/2+y,-z
3 -x,-y,-z
4 1/2+x,1/2-y,z
_cell_length_a                   13.6924(11)
_cell_length_b                   6.1056(4)
_cell_length_c                   22.1509(18)
_cell_angle_alpha                90
_cell_angle_beta                 107.958(9)
_cell_angle_gamma                90
_cell_volume                     1761.61
_exptl_crystal_colour            colorless
_exptl_crystal_description       block
_cell_formula_units_Z            4
loop_
_atom_site_label
_atom_site_type_symbol
_atom_site_fract_x
_atom_site_fract_y
_atom_site_fract_z
O1 O 0.26254(10) -0.03206(19) 0.27462(6)
O2 O 0.16074(9) 0.5745(2) 0.35974(6)
N1 N 0.23393(10) 0.2749(2) 0.32720(6)
C1 C 0.22634(14) 0.6557(3) 0.12499(9)
H1 H 0.2582 0.5896 0.1639
C2 C 0.28365(16) 0.7797(3) 0.09699(10)
H2 H 0.3540 0.7937 0.1166
C3 C 0.23824(17) 0.8840(3) 0.04002(10)
H3 H 0.2773 0.9688 0.0212
C4 C 0.13412(17) 0.8604(3) 0.01146(9)
H4 H 0.1023 0.9309 -0.0268
C5 C 0.07647(14) 0.7318(3) 0.03948(8)
H5 H 0.0063 0.7164 0.0195
C6 C 0.12124(13) 0.6264(3) 0.09637(7)
C7 C 0.05772(13) 0.4911(3) 0.12567(7)
H6 H -0.0139 0.4683 0.1000
C8 C 0.07750(12) 0.5134(2) 0.19683(7)
H7 H 0.1318 0.6131 0.2208
C9 C 0.10780(12) 0.3056(2) 0.16963(7)
H8 H 0.1809 0.2767 0.1768
C10 C 0.04303(13) 0.1287(3) 0.18690(7)
H9 H 0.0345 -0.0059 0.1617
C11 C -0.00304(12) 0.4393(3) 0.22671(7)
H10 H -0.0487 0.5547 0.2330
C12 C -0.05658(13) 0.2483(3) 0.18429(8)
H11 H -0.1002 0.1637 0.2027
H12 H -0.0950 0.2949 0.1417
C13 C 0.05426(12) 0.3078(3) 0.28686(7)
H13 H 0.0078 0.2717 0.3114
C14 C 0.08833(12) 0.0975(3) 0.25995(7)
H14 H 0.0592 -0.0327 0.2737
C15 C 0.20342(13) 0.0962(2) 0.28638(7)
C16 C 0.15161(12) 0.4076(3) 0.32894(7)
C17 C 0.33867(12) 0.3226(2) 0.36206(7)
C18 C 0.38001(13) 0.5243(3) 0.35562(8)
H15 H 0.3404 0.6286 0.3282
C19 C 0.48089(13) 0.5706(3) 0.39017(8)
H16 H 0.5083 0.7069 0.3858
C20 C 0.54174(13) 0.4176(3) 0.43106(7)
C21 C 0.49859(13) 0.2159(3) 0.43632(8)
H17 H 0.5383 0.1105 0.4632
C22 C 0.39793(13) 0.1676(3) 0.40255(7)
H18 H 0.3703 0.0317 0.4071
C23 C 0.65175(15) 0.4680(4) 0.46755(9)
H19 H 0.6594 0.4738 0.5121
H20 H 0.6706 0.6068 0.4540
H21 H 0.6954 0.3556 0.4598
loop_
_geom_bond_atom_site_label_1
_geom_bond_atom_site_label_2
_geom_bond_site_symmetry_1
_geom_bond_site_symmetry_2
O1 C15 1_555 1_555
O2 C16 1_555 1_555
N1 C15 1_555 1_555
C1 H1 1_555 1_555
C2 C1 1_555 1_555
H2 C2 1_555 1_555
C3 C2 1_555 1_555
H3 C3 1_555 1_555
C4 C3 1_555 1_555
H4 C4 1_555 1_555
C5 C4 1_555 1_555
H5 C5 1_555 1_555
C6 C1 1_555 1_555
C7 C6 1_555 1_555
H6 C7 1_555 1_555
C8 C7 1_555 1_555
H7 C8 1_555 1_555
C9 C7 1_555 1_555
H8 C9 1_555 1_555
C10 C9 1_555 1_555
H9 C10 1_555 1_555
C11 C8 1_555 1_555
H10 C11 1_555 1_555
C12 C10 1_555 1_555
H11 C12 1_555 1_555
H12 C12 1_555 1_555
C13 C11 1_555 1_555
H13 C13 1_555 1_555
C14 C10 1_555 1_555
H14 C14 1_555 1_555
C15 C14 1_555 1_555
C16 N1 1_555 1_555
C17 N1 1_555 1_555
C18 C17 1_555 1_555
H15 C18 1_555 1_555
C19 C18 1_555 1_555
H16 C19 1_555 1_555
C20 C19 1_555 1_555
C21 C20 1_555 1_555
H17 C21 1_555 1_555
C22 C17 1_555 1_555
H18 C22 1_555 1_555
C23 C20 1_555 1_555
H19 C23 1_555 1_555
H20 C23 1_555 1_555
H21 C23 1_555 1_555
C5 C6 1_555 1_555
C8 C9 1_555 1_555
C11 C12 1_555 1_555
C13 C14 1_555 1_555
C13 C16 1_555 1_555
C21 C22 1_555 1_555

#END
