
#######################################################################
#
#                 Cambridge Crystallographic Data Centre
#                                CCDC 
#
#######################################################################
#
# If this CIF has been generated from an entry in the Cambridge 
# Structural Database, then it will include bibliographic, chemical, 
# crystal, experimental, refinement or atomic coordinate data resulting 
# from the CCDC's data processing and validation procedures.
#
#######################################################################

data_LIYBUS
_chemical_formula_moiety         'C22 H25 F3 N2 O3 S1'
_chemical_name_systematic        
'Methyl 3-((t-butylsulfinyl)amino)-2-((diphenylmethylene)amino)-4,4,4-trifluorobutanoate'
_symmetry_cell_setting           orthorhombic
_symmetry_space_group_name_H-M   'P 21 21 21'
_symmetry_Int_Tables_number      19
_space_group_name_Hall           'P 2ac 2ab'
loop_
_symmetry_equiv_pos_site_id
_symmetry_equiv_pos_as_xyz
1 x,y,z
2 1/2-x,-y,1/2+z
3 -x,1/2+y,1/2-z
4 1/2+x,1/2-y,-z
_cell_length_a                   8.5605(18)
_cell_length_b                   10.9794(12)
_cell_length_c                   24.5169(15)
_cell_angle_alpha                90
_cell_angle_beta                 90
_cell_angle_gamma                90
_cell_volume                     2304.32
_cell_formula_units_Z            4
loop_
_atom_site_label
_atom_site_type_symbol
_atom_site_fract_x
_atom_site_fract_y
_atom_site_fract_z
C1 C 0.7497(4) 0.4196(3) 0.22291(14)
C2 C 0.7475(5) 0.3624(3) 0.27366(15)
H1 H 0.6617 0.3727 0.2965
C3 C 0.8726(5) 0.2895(4) 0.29080(17)
H2 H 0.8697 0.2514 0.3247
C4 C 0.9993(5) 0.2747(4) 0.25729(17)
H3 H 1.0816 0.2249 0.2681
C5 C 1.0055(4) 0.3340(4) 0.20701(17)
H4 H 1.0930 0.3261 0.1848
C6 C 0.8811(4) 0.4042(4) 0.19067(15)
H5 H 0.8853 0.4426 0.1569
C7 C 0.5090(4) 0.5445(3) 0.24689(13)
C8 C 0.5613(5) 0.6291(3) 0.28378(15)
H6 H 0.6636 0.6570 0.2813
C9 C 0.4654(5) 0.6741(4) 0.32467(16)
H7 H 0.5016 0.7336 0.3486
C10 C 0.3184(5) 0.6302(4) 0.32919(16)
H8 H 0.2549 0.6569 0.3575
C11 C 0.2612(5) 0.5462(4) 0.29231(18)
H9 H 0.1589 0.5186 0.2955
C12 C 0.3546(5) 0.5034(4) 0.25103(16)
H10 H 0.3155 0.4475 0.2260
C13 C 0.6149(4) 0.4930(3) 0.20449(14)
C14 C 0.4805(4) 0.5879(3) 0.13075(13)
H11 H 0.4446 0.6444 0.1590
C15 C 0.5522(4) 0.6594(3) 0.08234(14)
H12 H 0.4679 0.7017 0.0630
C16 C 0.6687(5) 0.7527(4) 0.10186(17)
C17 C 0.3423(4) 0.5140(3) 0.10844(13)
C18 C 0.1103(4) 0.5309(4) 0.05731(17)
H13 H 0.1459 0.4802 0.0279
H14 H 0.0418 0.5925 0.0432
H15 H 0.0551 0.4821 0.0835
C19 C 0.6380(5) 0.4477(4) -0.04578(16)
C20 C 0.7592(6) 0.3674(4) -0.01981(18)
H16 H 0.7350 0.3567 0.0181
H17 H 0.8602 0.4046 -0.0233
H18 H 0.7599 0.2895 -0.0376
C21 C 0.4689(5) 0.4069(4) -0.03672(18)
H19 H 0.4501 0.3328 -0.0565
H20 H 0.3991 0.4691 -0.0495
H21 H 0.4516 0.3932 0.0015
C22 C 0.6640(6) 0.4593(4) -0.10764(15)
H22 H 0.7638 0.4963 -0.1144
H23 H 0.5832 0.5090 -0.1231
H24 H 0.6613 0.3799 -0.1240
F1 F 0.7998(3) 0.7058(2) 0.12386(10)
F2 F 0.6052(3) 0.8226(2) 0.14113(11)
F3 F 0.7128(3) 0.8273(2) 0.06256(10)
N1 N 0.5995(4) 0.5070(3) 0.15260(11)
N2 N 0.6215(4) 0.5723(3) 0.04585(11)
H25 H 0.6459 0.5014 0.0581
O1 O 0.3241(3) 0.4092(3) 0.11390(11)
O2 O 0.2431(3) 0.5880(3) 0.08338(11)
O3 O 0.8223(4) 0.6381(3) -0.02750(11)
S1 S 0.65594(11) 0.60396(8) -0.01895(3)
loop_
_geom_bond_atom_site_label_1
_geom_bond_atom_site_label_2
_geom_bond_site_symmetry_1
_geom_bond_site_symmetry_2
C1 C2 1_555 1_555
C2 H1 1_555 1_555
C3 C2 1_555 1_555
H2 C3 1_555 1_555
C4 C3 1_555 1_555
H3 C4 1_555 1_555
C5 C4 1_555 1_555
H4 C5 1_555 1_555
C6 C1 1_555 1_555
H5 C6 1_555 1_555
C7 C8 1_555 1_555
C8 H6 1_555 1_555
C9 C8 1_555 1_555
H7 C9 1_555 1_555
C10 C9 1_555 1_555
H8 C10 1_555 1_555
C11 C10 1_555 1_555
H9 C11 1_555 1_555
C12 C7 1_555 1_555
H10 C12 1_555 1_555
C13 C1 1_555 1_555
C14 H11 1_555 1_555
C15 C14 1_555 1_555
H12 C15 1_555 1_555
C16 C15 1_555 1_555
C17 C14 1_555 1_555
C18 H13 1_555 1_555
H14 C18 1_555 1_555
H15 C18 1_555 1_555
C19 C20 1_555 1_555
C20 H16 1_555 1_555
H17 C20 1_555 1_555
H18 C20 1_555 1_555
C21 C19 1_555 1_555
H19 C21 1_555 1_555
H20 C21 1_555 1_555
H21 C21 1_555 1_555
C22 C19 1_555 1_555
H22 C22 1_555 1_555
H23 C22 1_555 1_555
H24 C22 1_555 1_555
F1 C16 1_555 1_555
F2 C16 1_555 1_555
F3 C16 1_555 1_555
N1 C13 1_555 1_555
N2 C15 1_555 1_555
H25 N2 1_555 1_555
O1 C17 1_555 1_555
O2 C17 1_555 1_555
O3 S1 1_555 1_555
S1 C19 1_555 1_555
C5 C6 1_555 1_555
C7 C13 1_555 1_555
C11 C12 1_555 1_555
C14 N1 1_555 1_555
C18 O2 1_555 1_555
N2 S1 1_555 1_555

#END
