
#######################################################################
#
#                 Cambridge Crystallographic Data Centre
#                                CCDC 
#
#######################################################################
#
# If this CIF has been generated from an entry in the Cambridge 
# Structural Database, then it will include bibliographic, chemical, 
# crystal, experimental, refinement or atomic coordinate data resulting 
# from the CCDC's data processing and validation procedures.
#
#######################################################################

data_LIYCAX
_chemical_formula_moiety         'C15 H19 F1 O3 S1'
_chemical_name_systematic        
(+)-(1S,2R,5S,R~S~)-1-(p-Tolylsulfinylmethyl)-2-fluorofrontalin
_symmetry_cell_setting           monoclinic
_symmetry_space_group_name_H-M   'P 21'
_symmetry_Int_Tables_number      4
_space_group_name_Hall           'P 2yb'
loop_
_symmetry_equiv_pos_site_id
_symmetry_equiv_pos_as_xyz
1 x,y,z
2 -x,1/2+y,-z
_cell_length_a                   5.2345(13)
_cell_length_b                   11.089(2)
_cell_length_c                   13.0321(11)
_cell_angle_alpha                90
_cell_angle_beta                 93.339(14)
_cell_angle_gamma                90
_cell_volume                     755.169
_cell_formula_units_Z            2
loop_
_atom_site_label
_atom_site_type_symbol
_atom_site_fract_x
_atom_site_fract_y
_atom_site_fract_z
S1 S 0.5301(2) 0.1939(1) 0.5546(1)
F1 F 0.7899(6) 0.3568(2) 0.8100(2)
O1 O 0.9072(4) 0.1150(2) 0.8235(2)
O2 O 0.5737(5) 0.0018(2) 0.8677(2)
O3 O 0.4228(7) 0.3157(4) 0.5677(3)
C1 C 0.6936(6) 0.1580(3) 0.7600(3)
C2 C 0.5933(8) 0.2706(4) 0.8079(3)
C3 C 0.5182(8) 0.2501(4) 0.9172(3)
C4 C 0.7083(8) 0.1683(4) 0.9774(3)
C5 C 0.7927(6) 0.0665(4) 0.9113(3)
C6 C 0.9776(8) -0.0201(4) 0.9646(3)
C7 C 0.5077(6) 0.0519(4) 0.7690(3)
C8 C 0.7878(6) 0.1766(4) 0.6530(3)
C9 C 0.7364(7) 0.1952(4) 0.4508(2)
C10 C 0.8198(11) 0.0877(4) 0.4120(4)
C11 C 0.9915(11) 0.0867(4) 0.3361(4)
C12 C 1.0787(7) 0.1921(5) 0.2956(3)
C13 C 0.9869(10) 0.2988(4) 0.3322(4)
C14 C 0.8172(10) 0.3021(4) 0.4108(3)
C15 C 1.2707(8) 0.1894(6) 0.2138(3)
H1 H 0.4453 0.3006 0.7660
H2 H 0.3494 0.2138 0.9157
H3 H 0.5095 0.3271 0.9520
H4 H 0.8562 0.2151 1.0017
H5 H 0.6287 0.1358 1.0369
H6 H 1.0124 -0.0852 0.9189
H7 H 0.9043 -0.0516 1.0249
H8 H 1.1341 0.0213 0.9841
H9 H 0.3316 0.0796 0.7646
H10 H 0.5301 -0.0070 0.7152
H11 H 0.8923 0.1081 0.6357
H12 H 0.8952 0.2479 0.6534
H13 H 0.7597 0.0153 0.4373
H14 H 1.0494 0.0133 0.3118
H15 H 1.0394 0.3710 0.3037
H16 H 0.7599 0.3753 0.4355
H17 H 1.4223 0.1481 0.2396
H18 H 1.3137 0.2704 0.1954
H19 H 1.1985 0.1480 0.1543
loop_
_geom_bond_atom_site_label_1
_geom_bond_atom_site_label_2
_geom_bond_site_symmetry_1
_geom_bond_site_symmetry_2
S1 O3 1_555 1_555
F1 C2 1_555 1_555
O1 C1 1_555 1_555
O2 C5 1_555 1_555
C1 C2 1_555 1_555
C2 C3 1_555 1_555
C3 C4 1_555 1_555
C4 C5 1_555 1_555
C5 O1 1_555 1_555
C6 C5 1_555 1_555
C7 O2 1_555 1_555
C8 S1 1_555 1_555
C9 S1 1_555 1_555
C10 C9 1_555 1_555
C11 C10 1_555 1_555
C12 C11 1_555 1_555
C13 C12 1_555 1_555
C14 C9 1_555 1_555
C15 C12 1_555 1_555
H1 C2 1_555 1_555
H2 C3 1_555 1_555
H3 C3 1_555 1_555
H4 C4 1_555 1_555
H5 C4 1_555 1_555
H6 C6 1_555 1_555
H7 C6 1_555 1_555
H8 C6 1_555 1_555
H9 C7 1_555 1_555
H10 C7 1_555 1_555
H11 C8 1_555 1_555
H12 C8 1_555 1_555
H13 C10 1_555 1_555
H14 C11 1_555 1_555
H15 C13 1_555 1_555
H16 C14 1_555 1_555
H17 C15 1_555 1_555
H18 C15 1_555 1_555
H19 C15 1_555 1_555
C1 C8 1_555 1_555
C1 C7 1_555 1_555
C13 C14 1_555 1_555

#END
