
#######################################################################
#
#                 Cambridge Crystallographic Data Centre
#                                CCDC 
#
#######################################################################
#
# If this CIF has been generated from an entry in the Cambridge 
# Structural Database, then it will include bibliographic, chemical, 
# crystal, experimental, refinement or atomic coordinate data resulting 
# from the CCDC's data processing and validation procedures.
#
#######################################################################

data_LIYGIL
_chemical_formula_moiety         'C34 H40 N10 O7'
_chemical_name_systematic        
5-(Benzoylamino)-N-(1-sec-butyl-2-((1-isobutyl-2-(methylcarbamoyl)-6-oxo-1,6-dihydropyrimidin-5-yl)carbamoyl)-6-oxo-1,6-dihydropyrimidin-5-yl)-1-isopropyl-6-oxo-1,6-dihydropyrimidine-2-carboxamide
_symmetry_cell_setting           monoclinic
_symmetry_space_group_name_H-M   'P 21/c'
_symmetry_Int_Tables_number      14
_space_group_name_Hall           '-P 2ybc'
loop_
_symmetry_equiv_pos_site_id
_symmetry_equiv_pos_as_xyz
1 x,y,z
2 -x,1/2+y,1/2-z
3 -x,-y,-z
4 x,1/2-y,1/2+z
_cell_length_a                   5.6997(6)
_cell_length_b                   26.578(2)
_cell_length_c                   23.461(2)
_cell_angle_alpha                90
_cell_angle_beta                 93.845(8)
_cell_angle_gamma                90
_cell_volume                     3546.03
_exptl_crystal_colour            yellow
_exptl_crystal_description       needle
_cell_formula_units_Z            4
loop_
_atom_site_label
_atom_site_type_symbol
_atom_site_fract_x
_atom_site_fract_y
_atom_site_fract_z
O1 O -0.5843(13) -0.0864(3) 0.1592(3)
O2 O 0.0655(13) 0.0310(2) 0.0940(3)
O3 O 0.5481(13) 0.0428(2) 0.2730(3)
O4 O 1.2160(12) 0.1661(3) 0.2443(3)
O5 O 1.0496(11) 0.2036(2) 0.0429(2)
O6 O 1.7353(11) 0.3076(2) -0.0250(2)
O7 O 2.0664(12) 0.3588(2) 0.1618(3)
N1 N -0.3695(17) -0.1210(3) 0.2350(4)
H1 H -0.2576 -0.1140 0.2614
N2 N -0.0645(14) -0.0463(3) 0.2360(3)
N3 N -0.1670(13) -0.0254(2) 0.1391(3)
N4 N 0.3469(14) 0.0499(3) 0.1857(3)
H2 H 0.3691 0.0604 0.1509
N5 N 0.8547(13) 0.1246(3) 0.2387(3)
N6 N 0.6734(13) 0.1059(3) 0.1475(3)
N7 N 1.2025(14) 0.1853(3) 0.1337(3)
H3 H 1.3319 0.1934 0.1542
N8 N 1.5403(12) 0.2510(3) 0.1245(3)
N9 N 1.5041(12) 0.2526(2) 0.0229(3)
N10 N 1.9754(14) 0.3383(3) 0.0684(3)
H4 H 2.0263 0.3495 0.0362
C1 C -0.559(2) -0.1551(5) 0.2481(5)
H5 H -0.4935 -0.1880 0.2592
H6 H -0.6687 -0.1589 0.2143
H7 H -0.6433 -0.1412 0.2797
C2 C -0.4090(17) -0.0880(3) 0.1912(4)
C3 C -0.1981(16) -0.0520(3) 0.1899(4)
C4 C 0.1202(17) -0.0141(3) 0.2372(4)
H8 H 0.2200 -0.0111 0.2711
C5 C 0.1655(16) 0.0141(3) 0.1904(4)
C6 C 0.0262(17) 0.0080(3) 0.1389(4)
C7 C -0.3141(16) -0.0320(3) 0.0848(4)
H9 H -0.2903 -0.0027 0.0598
H10 H -0.4818 -0.0326 0.0934
C8 C -0.258(3) -0.0805(5) 0.0522(6)
H11 H -0.2954 -0.1096 0.0771
C9 C -0.421(3) -0.0837(12) -0.0014(9)
H12 H -0.3632 -0.1095 -0.0268
H13 H -0.4253 -0.0511 -0.0209
H14 H -0.5794 -0.0926 0.0089
C10 C -0.001(3) -0.0845(5) 0.0406(6)
H15 H 0.0292 -0.1175 0.0240
H16 H 0.0954 -0.0805 0.0765
H17 H 0.0384 -0.0580 0.0138
C11 C 0.5169(17) 0.0627(3) 0.2239(4)
C12 C 0.6902(16) 0.1013(3) 0.2033(3)
C13 C 0.824(2) 0.1307(5) 0.3026(4)
H18 H 0.6713 0.1146 0.3107
C14 C 1.027(2) 0.0994(5) 0.3355(5)
H19 H 1.0427 0.0661 0.3172
H20 H 1.1783 0.1174 0.3344
C15 C 0.807(4) 0.1879(8) 0.3192(9)
H21 H 0.6882 0.2045 0.2936
H22 H 0.9598 0.2041 0.3158
H23 H 0.7620 0.1907 0.3587
C16 C 0.967(3) 0.0931(7) 0.3943(7)
H24 H 1.1034 0.0802 0.4173
H25 H 0.8361 0.0692 0.3956
H26 H 0.9196 0.1256 0.4096
C17 C 1.0432(17) 0.1497(4) 0.2157(4)
C18 C 1.0194(15) 0.1562(3) 0.1530(4)
C19 C 0.8349(15) 0.1357(3) 0.1219(4)
H27 H 0.8161 0.1420 0.0820
C20 C 1.2095(16) 0.2071(3) 0.0791(3)
C21 C 1.4310(14) 0.2369(3) 0.0762(4)
C22 C 1.7266(15) 0.2832(3) 0.1246(4)
H28 H 1.8102 0.2913 0.1599
C23 C 1.7953(15) 0.3041(3) 0.0757(4)
C24 C 1.6769(15) 0.2885(3) 0.0213(3)
C25 C 1.4122(15) 0.2283(3) -0.0336(4)
H29 H 1.3097 0.1995 -0.0235
C26 C 1.2605(17) 0.2635(4) -0.0700(4)
H30 H 1.1294 0.2751 -0.0484
H31 H 1.1987 0.2459 -0.1045
H32 H 1.3542 0.2925 -0.0808
C27 C 1.6185(16) 0.2056(3) -0.0638(4)
H33 H 1.7067 0.1826 -0.0378
H34 H 1.7225 0.2327 -0.0752
H35 H 1.5579 0.1871 -0.0979
C28 C 2.1031(16) 0.3653(3) 0.1108(4)
C29 C 2.2790(17) 0.4002(3) 0.0910(4)
C30 C 2.3821(16) 0.3940(3) 0.0391(4)
H36 H 2.3318 0.3672 0.0144
C31 C 2.560(2) 0.4269(3) 0.0227(4)
H37 H 2.6281 0.4228 -0.0128
C32 C 2.6333(19) 0.4663(3) 0.0608(4)
H38 H 2.7580 0.4880 0.0516
C33 C 2.5253(19) 0.4733(3) 0.1106(4)
H39 H 2.5708 0.5007 0.1348
C34 C 2.3496(18) 0.4406(3) 0.1262(4)
H40 H 2.2772 0.4458 0.1610
C35? C -0.171(8) -0.0717(14) 0.0447(18)
H41? H -0.0343 -0.0539 0.0292
C36? C -0.351(11) -0.083(3) -0.004(3)
H42? H -0.3368 -0.1185 -0.0152
H43? H -0.3250 -0.0614 -0.0364
H44? H -0.5096 -0.0774 0.0088
C37? C -0.081(7) -0.1162(11) 0.0803(15)
H45? H 0.0714 -0.1076 0.0998
H46? H -0.0618 -0.1453 0.0553
H47? H -0.1936 -0.1243 0.1086
C38? C 0.877(6) 0.1229(11) 0.3055(7)
H48? H 1.0117 0.1024 0.3224
C39? C 0.878(8) 0.1802(11) 0.3252(11)
H49? H 0.8332 0.1813 0.3653
H50? H 1.0410 0.1928 0.3251
C40? C 0.631(7) 0.109(2) 0.3277(16)
H51? H 0.5987 0.1310 0.3599
H52? H 0.6319 0.0739 0.3402
H53? H 0.5085 0.1138 0.2968
C41? C 0.724(9) 0.2158(18) 0.292(2)
H54? H 0.7004 0.2461 0.3147
H55? H 0.5715 0.1999 0.2819
H56? H 0.7977 0.2251 0.2568
loop_
_geom_bond_atom_site_label_1
_geom_bond_atom_site_label_2
_geom_bond_site_symmetry_1
_geom_bond_site_symmetry_2
O1 C2 1_555 1_555
O2 C6 1_555 1_555
O3 C11 1_555 1_555
O4 C17 1_555 1_555
O5 C20 1_555 1_555
O6 C24 1_555 1_555
O7 C28 1_555 1_555
N1 H1 1_555 1_555
N2 C3 1_555 1_555
N3 C3 1_555 1_555
N4 H2 1_555 1_555
N5 C12 1_555 1_555
N6 C12 1_555 1_555
N7 H3 1_555 1_555
N8 C21 1_555 1_555
N9 C21 1_555 1_555
N10 H4 1_555 1_555
C1 N1 1_555 1_555
H5 C1 1_555 1_555
H6 C1 1_555 1_555
H7 C1 1_555 1_555
C2 N1 1_555 1_555
C3 C2 1_555 1_555
C4 N2 1_555 1_555
H8 C4 1_555 1_555
C5 N4 1_555 1_555
C6 N3 1_555 1_555
C7 N3 1_555 1_555
H9 C7 1_555 1_555
H10 C7 1_555 1_555
C8 C7 1_555 1_555
H11 C8 1_555 1_555
C9 C8 1_555 1_555
H12 C9 1_555 1_555
H13 C9 1_555 1_555
H14 C9 1_555 1_555
C10 C8 1_555 1_555
H15 C10 1_555 1_555
H16 C10 1_555 1_555
H17 C10 1_555 1_555
C11 N4 1_555 1_555
C12 C11 1_555 1_555
C13 N5 1_555 1_555
H18 C13 1_555 1_555
C14 C13 1_555 1_555
H19 C14 1_555 1_555
H20 C14 1_555 1_555
C15 C13 1_555 1_555
H21 C15 1_555 1_555
H22 C15 1_555 1_555
H23 C15 1_555 1_555
C16 C14 1_555 1_555
H24 C16 1_555 1_555
H25 C16 1_555 1_555
H26 C16 1_555 1_555
C17 N5 1_555 1_555
C18 N7 1_555 1_555
C19 N6 1_555 1_555
H27 C19 1_555 1_555
C20 N7 1_555 1_555
C21 C20 1_555 1_555
C22 N8 1_555 1_555
H28 C22 1_555 1_555
C23 N10 1_555 1_555
C24 N9 1_555 1_555
C25 N9 1_555 1_555
H29 C25 1_555 1_555
C26 C25 1_555 1_555
H30 C26 1_555 1_555
H31 C26 1_555 1_555
H32 C26 1_555 1_555
C27 C25 1_555 1_555
H33 C27 1_555 1_555
H34 C27 1_555 1_555
H35 C27 1_555 1_555
C28 N10 1_555 1_555
C29 C28 1_555 1_555
C30 C29 1_555 1_555
H36 C30 1_555 1_555
C31 C30 1_555 1_555
H37 C31 1_555 1_555
C32 C31 1_555 1_555
H38 C32 1_555 1_555
C33 C32 1_555 1_555
H39 C33 1_555 1_555
C34 C29 1_555 1_555
H40 C34 1_555 1_555
C4 C5 1_555 1_555
C5 C6 1_555 1_555
C17 C18 1_555 1_555
C18 C19 1_555 1_555
C22 C23 1_555 1_555
C23 C24 1_555 1_555
C33 C34 1_555 1_555

#END
