
#######################################################################
#
#                 Cambridge Crystallographic Data Centre
#                                CCDC 
#
#######################################################################
#
# If this CIF has been generated from an entry in the Cambridge 
# Structural Database, then it will include bibliographic, chemical, 
# crystal, experimental, refinement or atomic coordinate data resulting 
# from the CCDC's data processing and validation procedures.
#
#######################################################################

data_LIYKIP
_chemical_formula_moiety         'C17 H14 N2 O2'
_chemical_name_systematic        
'Methyl 5-methyl-5H-indolo[1,2-a]benzimidazole-6-carboxylate'
_symmetry_cell_setting           monoclinic
_symmetry_space_group_name_H-M   'P 21/n'
_symmetry_Int_Tables_number      14
_space_group_name_Hall           '-P 2yn'
loop_
_symmetry_equiv_pos_site_id
_symmetry_equiv_pos_as_xyz
1 x,y,z
2 1/2-x,1/2+y,1/2-z
3 -x,-y,-z
4 1/2+x,1/2-y,1/2+z
_cell_length_a                   11.3450(7)
_cell_length_b                   8.1717(6)
_cell_length_c                   14.9978(9)
_cell_angle_alpha                90
_cell_angle_beta                 104.698(6)
_cell_angle_gamma                90
_cell_volume                     1344.92
_exptl_crystal_colour            colorless
_exptl_crystal_description       block
_cell_formula_units_Z            4
loop_
_atom_site_label
_atom_site_type_symbol
_atom_site_fract_x
_atom_site_fract_y
_atom_site_fract_z
O1 O 0.30152(10) 0.49027(16) 0.15214(7)
O2 O 0.36684(9) 0.57976(16) 0.03166(7)
N1 N 0.03929(10) 0.27818(16) 0.07884(7)
N2 N 0.01997(10) 0.28426(15) -0.07168(7)
C1 C -0.06278(13) 0.18543(19) 0.03627(9)
C2 C -0.14282(14) 0.0987(2) 0.07382(10)
H1 H -0.1346 0.0962 0.1384
C3 C -0.23577(15) 0.0153(2) 0.01300(11)
H2 H -0.2925 -0.0455 0.0367
C4 C -0.24848(14) 0.0180(2) -0.08147(11)
H3 H -0.3132 -0.0413 -0.1208
C5 C -0.16864(13) 0.1057(2) -0.11966(10)
H4 H -0.1774 0.1085 -0.1843
C6 C -0.07585(13) 0.18845(19) -0.05913(9)
C7 C 0.09044(13) 0.33762(19) 0.01208(9)
C8 C 0.18702(13) 0.43285(19) -0.00122(9)
C9 C 0.17015(13) 0.43837(19) -0.10079(9)
C10 C 0.06830(13) 0.34189(19) -0.14273(9)
C11 C 0.02767(14) 0.3171(2) -0.23714(9)
H5 H -0.0393 0.2473 -0.2628
C12 C 0.08998(14) 0.3995(2) -0.29217(10)
H6 H 0.0658 0.3857 -0.3572
C13 C 0.18736(14) 0.5021(2) -0.25336(10)
H7 H 0.2263 0.5604 -0.2927
C14 C 0.22889(14) 0.5212(2) -0.15899(10)
H8 H 0.2967 0.5900 -0.1339
C15 C 0.08202(14) 0.2964(2) 0.17850(9)
H9 H 0.0128 0.3216 0.2042
H10 H 0.1416 0.3856 0.1929
H11 H 0.1204 0.1942 0.2054
C16 C 0.28590(14) 0.50084(19) 0.06898(10)
C17 C 0.46998(15) 0.6523(3) 0.09522(12)
H12 H 0.5292 0.6882 0.0618
H13 H 0.5080 0.5714 0.1420
H14 H 0.4431 0.7466 0.1252
loop_
_geom_bond_atom_site_label_1
_geom_bond_atom_site_label_2
_geom_bond_site_symmetry_1
_geom_bond_site_symmetry_2
O1 C16 1_555 1_555
O2 C16 1_555 1_555
N1 C1 1_555 1_555
N2 C6 1_555 1_555
C1 C2 1_555 1_555
C2 H1 1_555 1_555
C3 C2 1_555 1_555
H2 C3 1_555 1_555
C4 C3 1_555 1_555
H3 C4 1_555 1_555
C5 C4 1_555 1_555
H4 C5 1_555 1_555
C6 C1 1_555 1_555
C7 N1 1_555 1_555
C8 C7 1_555 1_555
C9 C8 1_555 1_555
C10 N2 1_555 1_555
C11 C10 1_555 1_555
H5 C11 1_555 1_555
C12 C11 1_555 1_555
H6 C12 1_555 1_555
C13 C12 1_555 1_555
H7 C13 1_555 1_555
C14 C9 1_555 1_555
H8 C14 1_555 1_555
C15 N1 1_555 1_555
H9 C15 1_555 1_555
H10 C15 1_555 1_555
H11 C15 1_555 1_555
C16 C8 1_555 1_555
C17 O2 1_555 1_555
H12 C17 1_555 1_555
H13 C17 1_555 1_555
H14 C17 1_555 1_555
N2 C7 1_555 1_555
C5 C6 1_555 1_555
C9 C10 1_555 1_555
C13 C14 1_555 1_555

#END
