
#######################################################################
#
#                 Cambridge Crystallographic Data Centre
#                                CCDC 
#
#######################################################################
#
# If this CIF has been generated from an entry in the Cambridge 
# Structural Database, then it will include bibliographic, chemical, 
# crystal, experimental, refinement or atomic coordinate data resulting 
# from the CCDC's data processing and validation procedures.
#
#######################################################################

data_LIYQOZ
_chemical_formula_moiety         'C13 H11 N1 O4 S2'
_chemical_name_systematic        'S-(2-Nitrophenyl) p-toluenethiosulfonate'
_symmetry_cell_setting           monoclinic
_symmetry_space_group_name_H-M   'P 21/n'
_symmetry_Int_Tables_number      14
_space_group_name_Hall           '-P 2yn'
loop_
_symmetry_equiv_pos_site_id
_symmetry_equiv_pos_as_xyz
1 x,y,z
2 1/2+x,1/2-y,1/2+z
3 -x,-y,-z
4 1/2-x,1/2+y,1/2-z
_cell_length_a                   7.2971(4)
_cell_length_b                   7.0999(4)
_cell_length_c                   27.0085(15)
_cell_angle_alpha                90
_cell_angle_beta                 95.620(10)
_cell_angle_gamma                90
_cell_volume                     1392.55
_exptl_crystal_colour            colorless
_exptl_crystal_description       block
_chemical_melting_point          367-369K
_cell_formula_units_Z            4
_exptl_crystal_recrystallization_method ethanol
loop_
_atom_site_label
_atom_site_type_symbol
_atom_site_fract_x
_atom_site_fract_y
_atom_site_fract_z
S1 S 0.12940(6) 0.95061(7) 0.101469(18)
O1 O 0.09066(19) 0.9791(2) 0.15172(5)
O2 O -0.01575(19) 0.9573(2) 0.06178(6)
S2 S 0.23278(7) 0.67765(7) 0.095716(18)
C1 C 0.3111(2) 1.1000(3) 0.08880(7)
C2 C 0.4349(3) 1.1613(3) 0.12751(7)
C3 C 0.5885(3) 1.2604(3) 0.11678(8)
C4 C 0.6213(3) 1.2998(3) 0.06807(8)
C5 C 0.7933(3) 1.4025(3) 0.05660(10)
C6 C 0.4922(3) 1.2410(3) 0.03043(7)
C7 C 0.3378(3) 1.1401(3) 0.03983(7)
C8 C 0.3979(2) 0.6783(2) 0.14820(7)
C9 C 0.3598(2) 0.6260(3) 0.19598(7)
N1 N 0.1748(2) 0.5622(3) 0.20599(7)
O3 O 0.0933(2) 0.4512(2) 0.17726(7)
O4 O 0.1153(2) 0.6248(3) 0.24346(6)
C10 C 0.4910(3) 0.6312(3) 0.23612(8)
C11 C 0.6671(3) 0.6873(3) 0.22917(9)
C12 C 0.7084(3) 0.7405(3) 0.18251(9)
C13 C 0.5761(3) 0.7372(3) 0.14286(8)
H1 H 0.4147 1.1360 0.1603
H2 H 0.6720 1.3017 0.1427
H3 H 0.8871 1.3872 0.0838
H4 H 0.7664 1.5340 0.0519
H5 H 0.8358 1.3516 0.0268
H9 H 0.5100 1.2705 -0.0023
H10 H 0.2537 1.0999 0.0139
H11 H 0.4611 0.5973 0.2676
H12 H 0.7579 0.6892 0.2559
H13 H 0.8273 0.7792 0.1779
H14 H 0.6065 0.7751 0.1117
H6? H 0.7724 1.4613 0.0245
H7? H 0.8932 1.3145 0.0565
H8? H 0.8237 1.4969 0.0815
loop_
_geom_bond_atom_site_label_1
_geom_bond_atom_site_label_2
_geom_bond_site_symmetry_1
_geom_bond_site_symmetry_2
S1 O1 1_555 1_555
O2 S1 1_555 1_555
S2 S1 1_555 1_555
C1 S1 1_555 1_555
C2 C1 1_555 1_555
C3 C2 1_555 1_555
C4 C3 1_555 1_555
C5 C4 1_555 1_555
C6 C4 1_555 1_555
C7 C1 1_555 1_555
C8 S2 1_555 1_555
C9 C8 1_555 1_555
N1 C9 1_555 1_555
O3 N1 1_555 1_555
O4 N1 1_555 1_555
C10 C9 1_555 1_555
C11 C10 1_555 1_555
C12 C11 1_555 1_555
C13 C8 1_555 1_555
H1 C2 1_555 1_555
H2 C3 1_555 1_555
H3 C5 1_555 1_555
H4 C5 1_555 1_555
H5 C5 1_555 1_555
H9 C6 1_555 1_555
H10 C7 1_555 1_555
H11 C10 1_555 1_555
H12 C11 1_555 1_555
H13 C12 1_555 1_555
H14 C13 1_555 1_555
C6 C7 1_555 1_555
C12 C13 1_555 1_555

#END
