
#######################################################################
#
#                 Cambridge Crystallographic Data Centre
#                                CCDC 
#
#######################################################################
#
# If this CIF has been generated from an entry in the Cambridge 
# Structural Database, then it will include bibliographic, chemical, 
# crystal, experimental, refinement or atomic coordinate data resulting 
# from the CCDC's data processing and validation procedures.
#
#######################################################################

data_LIZJAH
_chemical_formula_moiety         'C32 H27 N3 O2 S1'
_chemical_name_systematic        
N-Benzyl-4-methyl-N-((5-phenylpyrazolo[5,1-a]isoquinolin-2-yl)methyl)benzenesulfonamide
_symmetry_cell_setting           monoclinic
_symmetry_space_group_name_H-M   'P 21/c'
_symmetry_Int_Tables_number      14
_space_group_name_Hall           '-P 2ybc'
loop_
_symmetry_equiv_pos_site_id
_symmetry_equiv_pos_as_xyz
1 x,y,z
2 -x,1/2+y,1/2-z
3 -x,-y,-z
4 x,1/2-y,1/2+z
_cell_length_a                   13.687(4)
_cell_length_b                   10.920(4)
_cell_length_c                   18.569(6)
_cell_angle_alpha                90
_cell_angle_beta                 107.077(4)
_cell_angle_gamma                90
_cell_volume                     2653
_exptl_crystal_colour            colorless
_exptl_crystal_description       block
_cell_formula_units_Z            4
loop_
_atom_site_label
_atom_site_type_symbol
_atom_site_fract_x
_atom_site_fract_y
_atom_site_fract_z
S1 S 0.44399(4) 0.63437(6) 0.28493(3)
O1 O 0.47550(10) 0.75363(13) 0.31325(8)
O2 O 0.50505(10) 0.53067(13) 0.31749(8)
N1 N 0.33137(11) 0.61046(14) 0.29431(9)
N2 N 0.07731(12) 0.65476(14) 0.20640(9)
N3 N 0.01953(11) 0.64789(14) 0.13284(9)
C1 C 0.29475(15) 0.48636(19) 0.30146(12)
H1 H 0.3464 0.4278 0.2979
H2 H 0.2337 0.4708 0.2601
C2 C 0.2710(2) 0.46769(19) 0.37447(13)
C3 C 0.3471(2) 0.4443(2) 0.43968(17)
H3 H 0.4148 0.4416 0.4391
C4 C 0.3237(4) 0.4247(4) 0.5069(2)
H4 H 0.3757 0.4098 0.5511
C5 C 0.2253(5) 0.4272(4) 0.5077(2)
H5 H 0.2095 0.4122 0.5523
C6 C 0.1500(3) 0.4516(3) 0.4439(3)
H6 H 0.0824 0.4549 0.4447
C7 C 0.1734(2) 0.4715(2) 0.37803(16)
H7 H 0.1208 0.4880 0.3344
C8 C 0.25375(14) 0.70719(18) 0.27456(11)
H8 H 0.2874 0.7841 0.2709
H9 H 0.2230 0.7151 0.3152
C9 C -0.08478(14) 0.61838(18) 0.10934(12)
C10 C -0.13851(16) 0.59586(19) 0.16580(12)
C11 C -0.10093(17) 0.5220(2) 0.22827(13)
H10 H -0.0369 0.4860 0.2371
C12 C -0.1575(2) 0.5008(2) 0.27784(14)
H11 H -0.1306 0.4524 0.3202
C13 C -0.2531(2) 0.5511(3) 0.26461(17)
H12 H -0.2917 0.5352 0.2972
C14 C -0.29100(19) 0.6244(3) 0.20339(18)
H13 H -0.3553 0.6596 0.1949
C15 C -0.23535(17) 0.6468(2) 0.15414(14)
H14 H -0.2626 0.6966 0.1124
C16 C -0.12987(15) 0.61696(18) 0.03487(13)
H15 H -0.1983 0.5941 0.0178
C17 C -0.07996(15) 0.64820(18) -0.01997(12)
C18 C -0.13099(17) 0.65329(19) -0.09739(13)
H16 H -0.1995 0.6310 -0.1147
C19 C -0.08181(19) 0.6903(2) -0.14760(13)
H17 H -0.1169 0.6937 -0.1987
C20 C 0.02061(18) 0.7232(2) -0.12265(13)
H18 H 0.0538 0.7494 -0.1570
C21 C 0.07266(16) 0.71699(19) -0.04788(13)
H19 H 0.1416 0.7377 -0.0317
C22 C 0.02388(15) 0.68006(17) 0.00463(12)
C23 C 0.07377(15) 0.67657(17) 0.08365(12)
C24 C 0.17174(15) 0.70111(18) 0.12823(12)
H20 H 0.2275 0.7228 0.1120
C25 C 0.17020(15) 0.68682(18) 0.20235(12)
C26 C 0.43080(13) 0.6356(2) 0.18784(12)
C27 C 0.42790(15) 0.7451(2) 0.15081(16)
H21 H 0.4378 0.8185 0.1773
C28 C 0.40998(17) 0.7446(3) 0.07318(17)
H22 H 0.4086 0.8186 0.0481
C29 C 0.39424(17) 0.6375(3) 0.03265(15)
C30 C 0.37069(19) 0.6395(3) -0.05251(14)
H23 H 0.3965 0.5662 -0.0689
H24 H 0.4026 0.7096 -0.0672
H25 H 0.2981 0.6440 -0.0752
C31 C 0.40107(15) 0.5297(3) 0.07183(15)
H26 H 0.3933 0.4560 0.0456
C32 C 0.41896(14) 0.5271(2) 0.14839(13)
H27 H 0.4231 0.4528 0.1735
loop_
_geom_bond_atom_site_label_1
_geom_bond_atom_site_label_2
_geom_bond_site_symmetry_1
_geom_bond_site_symmetry_2
S1 O1 1_555 1_555
O2 S1 1_555 1_555
N1 S1 1_555 1_555
N2 N3 1_555 1_555
N3 C9 1_555 1_555
C1 N1 1_555 1_555
H1 C1 1_555 1_555
H2 C1 1_555 1_555
C2 C1 1_555 1_555
C3 C2 1_555 1_555
H3 C3 1_555 1_555
C4 C3 1_555 1_555
H4 C4 1_555 1_555
C5 C4 1_555 1_555
H5 C5 1_555 1_555
C6 C5 1_555 1_555
H6 C6 1_555 1_555
C7 C2 1_555 1_555
H7 C7 1_555 1_555
C8 N1 1_555 1_555
H8 C8 1_555 1_555
H9 C8 1_555 1_555
C9 C10 1_555 1_555
C10 C11 1_555 1_555
C11 H10 1_555 1_555
C12 C11 1_555 1_555
H11 C12 1_555 1_555
C13 C12 1_555 1_555
H12 C13 1_555 1_555
C14 C13 1_555 1_555
H13 C14 1_555 1_555
C15 C10 1_555 1_555
H14 C15 1_555 1_555
C16 C9 1_555 1_555
H15 C16 1_555 1_555
C17 C16 1_555 1_555
C18 C17 1_555 1_555
H16 C18 1_555 1_555
C19 C18 1_555 1_555
H17 C19 1_555 1_555
C20 C19 1_555 1_555
H18 C20 1_555 1_555
C21 C20 1_555 1_555
H19 C21 1_555 1_555
C22 C17 1_555 1_555
C23 N3 1_555 1_555
C24 C23 1_555 1_555
H20 C24 1_555 1_555
C25 N2 1_555 1_555
C26 S1 1_555 1_555
C27 C26 1_555 1_555
H21 C27 1_555 1_555
C28 C27 1_555 1_555
H22 C28 1_555 1_555
C29 C28 1_555 1_555
C30 C29 1_555 1_555
H23 C30 1_555 1_555
H24 C30 1_555 1_555
H25 C30 1_555 1_555
C31 C29 1_555 1_555
H26 C31 1_555 1_555
C32 C26 1_555 1_555
H27 C32 1_555 1_555
C6 C7 1_555 1_555
C8 C25 1_555 1_555
C14 C15 1_555 1_555
C21 C22 1_555 1_555
C22 C23 1_555 1_555
C24 C25 1_555 1_555
C31 C32 1_555 1_555

#END
