
#######################################################################
#
#                 Cambridge Crystallographic Data Centre
#                                CCDC 
#
#######################################################################
#
# If this CIF has been generated from an entry in the Cambridge 
# Structural Database, then it will include bibliographic, chemical, 
# crystal, experimental, refinement or atomic coordinate data resulting 
# from the CCDC's data processing and validation procedures.
#
#######################################################################

data_LIZJOV
_chemical_formula_moiety         'C32 H30 Br1 N1 O7,C2 H6 O1'
_chemical_name_systematic        
"1'-t-Butyl 2-ethyl 5'-bromo-2'-oxo-4-(2-oxo-2-phenylethyl)-4H-spiro[chromene-3,3'-indole]-1',2(2'H)-dicarboxylate ethanol solvate"
_symmetry_cell_setting           orthorhombic
_symmetry_space_group_name_H-M   'P 21 21 21'
_symmetry_Int_Tables_number      19
_space_group_name_Hall           'P 2ac 2ab'
loop_
_symmetry_equiv_pos_site_id
_symmetry_equiv_pos_as_xyz
1 x,y,z
2 1/2-x,-y,1/2+z
3 -x,1/2+y,1/2-z
4 1/2+x,1/2-y,-z
_cell_length_a                   11.0155(9)
_cell_length_b                   15.0132(12)
_cell_length_c                   19.9012(16)
_cell_angle_alpha                90
_cell_angle_beta                 90
_cell_angle_gamma                90
_cell_volume                     3291.22
_exptl_crystal_colour            colorless
_exptl_crystal_description       prismatic
_cell_formula_units_Z            4
loop_
_atom_site_label
_atom_site_type_symbol
_atom_site_fract_x
_atom_site_fract_y
_atom_site_fract_z
Br1 Br 0.58039(4) 0.59050(3) 0.11788(2)
N1 N 1.0102(2) 0.43109(15) 0.26214(12)
O1 O 1.05126(19) 0.27919(13) 0.27434(12)
O2 O 0.7937(2) 0.25512(16) 0.11105(11)
O3 O 1.1221(2) 0.55042(15) 0.29601(14)
O4 O 1.18264(18) 0.41079(14) 0.31797(12)
O5 O 0.9491(3) 0.3510(2) 0.04464(14)
O6 O 1.0831(2) 0.3477(2) 0.12649(13)
O7 O 0.7493(3) 0.16981(18) 0.37285(14)
C1 C 0.8323(2) 0.42142(17) 0.20176(12)
C2 C 0.7316(3) 0.45340(19) 0.16838(15)
H1 H 0.6757 0.4148 0.1490
C3 C 0.7165(3) 0.5446(2) 0.16469(15)
C4 C 0.7991(3) 0.6023(2) 0.19239(16)
H2 H 0.7868 0.6634 0.1884
C5 C 0.8995(3) 0.57132(19) 0.22593(15)
H3 H 0.9552 0.6103 0.2451
C6 C 0.9148(2) 0.48021(17) 0.23019(13)
C7 C 0.9910(3) 0.33881(19) 0.25317(15)
C8 C 0.8723(2) 0.32729(17) 0.21338(13)
C9 C 0.7866(2) 0.26848(18) 0.25571(14)
H4 H 0.8301 0.2132 0.2661
C10 C 0.6770(3) 0.24402(19) 0.21428(15)
C11 C 0.5632(3) 0.2276(3) 0.24043(18)
H5 H 0.5520 0.2323 0.2866
C12 C 0.4662(3) 0.2048(3) 0.2012(2)
H6 H 0.3917 0.1921 0.2209
C13 C 0.4786(4) 0.2006(3) 0.1326(2)
H7 H 0.4123 0.1876 0.1055
C14 C 0.5896(3) 0.2159(2) 0.10506(17)
H8 H 0.5996 0.2116 0.0588
C15 C 0.6875(3) 0.2376(2) 0.14494(15)
C16 C 0.8994(3) 0.27556(19) 0.14738(14)
H9 H 0.9412 0.2199 0.1587
C17 C 0.9790(3) 0.3289(2) 0.09937(17)
C18 C 1.1673(5) 0.4000(5) 0.0879(3)
H10 H 1.1945 0.3654 0.0496
H11 H 1.1260 0.4525 0.0710
C19 C 1.2637(7) 0.4253(6) 0.1238(4)
H12 H 1.2581 0.4879 0.1333
H13 H 1.3364 0.4136 0.0987
H14 H 1.2658 0.3926 0.1652
C20 C 0.7544(3) 0.3127(2) 0.32213(15)
H15 H 0.8224 0.3491 0.3364
H16 H 0.6857 0.3520 0.3150
C21 C 0.7234(3) 0.2483(2) 0.37787(16)
C22 C 0.6620(3) 0.2832(3) 0.43916(15)
C23 C 0.6503(3) 0.3735(3) 0.45235(19)
H17 H 0.6833 0.4152 0.4231
C24 C 0.5888(4) 0.4011(4) 0.5096(2)
H18 H 0.5820 0.4614 0.5194
C25 C 0.5379(5) 0.3386(7) 0.5518(2)
H19 H 0.4963 0.3572 0.5900
C26 C 0.5477(5) 0.2507(6) 0.5384(2)
H20 H 0.5111 0.2095 0.5668
C27 C 0.6107(4) 0.2220(4) 0.48371(19)
H21 H 0.6196 0.1613 0.4760
C28 C 1.1107(3) 0.4720(2) 0.29306(15)
C29 C 1.2978(3) 0.4337(2) 0.3531(2)
C30 C 1.3819(3) 0.4798(3) 0.3049(3)
H22 H 1.4010 0.4403 0.2684
H23 H 1.4552 0.4962 0.3278
H24 H 1.3432 0.5323 0.2876
C31 C 1.2706(4) 0.4885(3) 0.4144(2)
H25 H 1.2472 0.5475 0.4010
H26 H 1.3415 0.4917 0.4423
H27 H 1.2055 0.4614 0.4391
C32 C 1.3437(3) 0.3423(3) 0.3717(2)
H28 H 1.2829 0.3116 0.3973
H29 H 1.4163 0.3478 0.3980
H30 H 1.3611 0.3092 0.3315
O8 O 0.7102(9) 0.3314(7) 0.9688(3)
H31 H 0.6978 0.3103 0.9314
C33 C 0.6562(17) 0.4093(7) 0.9735(8)
H32 H 0.7214 0.4521 0.9793
H33 H 0.6129 0.4079 1.0159
C34 C 0.5805(11) 0.4467(10) 0.9305(7)
H34 H 0.5151 0.4742 0.9547
H35 H 0.5485 0.4022 0.9007
H36 H 0.6228 0.4911 0.9048
loop_
_geom_bond_atom_site_label_1
_geom_bond_atom_site_label_2
_geom_bond_site_symmetry_1
_geom_bond_site_symmetry_2
Br1 C3 1_555 1_555
N1 C6 1_555 1_555
O1 C7 1_555 1_555
O2 C15 1_555 1_555
O3 C28 1_555 1_555
O4 C28 1_555 1_555
O5 C17 1_555 1_555
O6 C17 1_555 1_555
O7 C21 1_555 1_555
C1 C2 1_555 1_555
C2 H1 1_555 1_555
C3 C2 1_555 1_555
C4 C3 1_555 1_555
H2 C4 1_555 1_555
C5 C4 1_555 1_555
H3 C5 1_555 1_555
C6 C1 1_555 1_555
C7 N1 1_555 1_555
C8 C1 1_555 1_555
C9 C8 1_555 1_555
H4 C9 1_555 1_555
C10 C9 1_555 1_555
C11 C10 1_555 1_555
H5 C11 1_555 1_555
C12 C11 1_555 1_555
H6 C12 1_555 1_555
C13 C12 1_555 1_555
H7 C13 1_555 1_555
C14 C13 1_555 1_555
H8 C14 1_555 1_555
C15 C10 1_555 1_555
C16 O2 1_555 1_555
H9 C16 1_555 1_555
C17 C16 1_555 1_555
C18 O6 1_555 1_555
H10 C18 1_555 1_555
H11 C18 1_555 1_555
C19 C18 1_555 1_555
H12 C19 1_555 1_555
H13 C19 1_555 1_555
H14 C19 1_555 1_555
C20 C9 1_555 1_555
H15 C20 1_555 1_555
H16 C20 1_555 1_555
C21 C20 1_555 1_555
C22 C21 1_555 1_555
C23 C22 1_555 1_555
H17 C23 1_555 1_555
C24 C23 1_555 1_555
H18 C24 1_555 1_555
C25 C24 1_555 1_555
H19 C25 1_555 1_555
C26 C25 1_555 1_555
H20 C26 1_555 1_555
C27 C22 1_555 1_555
H21 C27 1_555 1_555
C28 N1 1_555 1_555
C29 O4 1_555 1_555
C30 C29 1_555 1_555
H22 C30 1_555 1_555
H23 C30 1_555 1_555
H24 C30 1_555 1_555
C31 C29 1_555 1_555
H25 C31 1_555 1_555
H26 C31 1_555 1_555
H27 C31 1_555 1_555
C32 C29 1_555 1_555
H28 C32 1_555 1_555
H29 C32 1_555 1_555
H30 C32 1_555 1_555
O8 H31 1_555 1_555
C33 O8 1_555 1_555
H32 C33 1_555 1_555
H33 C33 1_555 1_555
C34 C33 1_555 1_555
H34 C34 1_555 1_555
H35 C34 1_555 1_555
H36 C34 1_555 1_555
C5 C6 1_555 1_555
C7 C8 1_555 1_555
C8 C16 1_555 1_555
C14 C15 1_555 1_555
C26 C27 1_555 1_555

#END
