
#######################################################################
#
#                 Cambridge Crystallographic Data Centre
#                                CCDC 
#
#######################################################################
#
# If this CIF has been generated from an entry in the Cambridge 
# Structural Database, then it will include bibliographic, chemical, 
# crystal, experimental, refinement or atomic coordinate data resulting 
# from the CCDC's data processing and validation procedures.
#
#######################################################################

data_LIZKIQ
_chemical_formula_moiety         'C34 H29 N2 O2 P1'
_chemical_name_systematic        
7-butoxy-7'-(diphenylphosphoryl)-8,8'-biquinoline
_symmetry_cell_setting           monoclinic
_symmetry_space_group_name_H-M   'P 21/n'
_symmetry_Int_Tables_number      14
_space_group_name_Hall           '-P 2yn'
loop_
_symmetry_equiv_pos_site_id
_symmetry_equiv_pos_as_xyz
1 x,y,z
2 1/2-x,1/2+y,1/2-z
3 -x,-y,-z
4 1/2+x,1/2-y,1/2+z
_cell_length_a                   13.1020(6)
_cell_length_b                   11.2950(5)
_cell_length_c                   18.4184(9)
_cell_angle_alpha                90
_cell_angle_beta                 107.347(2)
_cell_angle_gamma                90
_cell_volume                     2601.71
_exptl_crystal_colour            colorless
_exptl_crystal_description       plate
_cell_formula_units_Z            4
loop_
_atom_site_label
_atom_site_type_symbol
_atom_site_fract_x
_atom_site_fract_y
_atom_site_fract_z
P1 P 0.23741(3) 0.78659(3) 1.06468(2)
O1 O 0.18438(8) 0.92014(9) 0.85587(6)
O2 O 0.22168(8) 0.88928(9) 1.11101(6)
N1 N 0.37254(10) 0.56039(11) 0.92868(7)
N2 N 0.46026(10) 0.81470(11) 0.86709(7)
C1 C 0.38395(13) 0.44627(14) 0.91693(9)
C2 C 0.31448(13) 0.38074(14) 0.85768(9)
C3 C 0.22792(13) 0.43557(14) 0.80932(9)
C4 C 0.21052(12) 0.55705(13) 0.82033(8)
C5 C 0.28612(12) 0.61734(13) 0.88038(8)
C6 C 0.27368(12) 0.74010(13) 0.89233(8)
C7 C 0.18912(12) 0.80109(13) 0.84385(8)
C8 C 0.11132(13) 0.73983(14) 0.78550(9)
C9 C 0.12237(12) 0.62152(14) 0.77493(9)
C10 C 0.35804(12) 0.79725(12) 0.95540(8)
C11 C 0.35072(12) 0.81292(13) 1.02814(8)
C12 C 0.44118(12) 0.85453(13) 1.08711(9)
C13 C 0.53614(12) 0.87725(13) 1.07396(9)
C14 C 0.54665(12) 0.86232(13) 1.00041(9)
C15 C 0.45658(12) 0.82538(12) 0.94030(8)
C16 C 0.55233(13) 0.83781(14) 0.85457(10)
C17 C 0.64642(14) 0.87108(14) 0.91077(10)
C18 C 0.64337(13) 0.88391(13) 0.98352(9)
C19 C 0.09927(13) 0.98574(14) 0.80255(9)
C20 C 0.11202(14) 1.11540(14) 0.82304(9)
C21 C 0.07127(14) 1.15068(14) 0.88937(10)
C22 C 0.08218(17) 1.28247(15) 0.90701(12)
C23 C 0.11542(12) 0.75312(14) 0.99075(9)
C24 C 0.08408(13) 0.63875(14) 0.96411(9)
C25 C -0.01485(13) 0.62115(15) 0.91120(9)
C26 C -0.08266(14) 0.71621(16) 0.88422(10)
C27 C -0.05216(13) 0.82994(16) 0.91062(10)
C28 C 0.04633(12) 0.84785(15) 0.96399(9)
C29 C 0.27402(12) 0.65337(13) 1.12095(8)
C30 C 0.34121(13) 0.56799(14) 1.10497(10)
C31 C 0.36774(14) 0.46724(15) 1.15007(10)
C32 C 0.32729(14) 0.45175(16) 1.21086(10)
C33 C 0.26024(15) 0.53570(16) 1.22703(10)
C34 C 0.23340(14) 0.63646(15) 1.18213(9)
H1 H 0.4460(15) 0.4076(15) 0.9533(10)
H2 H 0.3320(14) 0.2983(17) 0.8520(10)
H3 H 0.1772(13) 0.3936(15) 0.7660(10)
H4 H 0.0480(14) 0.7828(15) 0.7535(10)
H5 H 0.0679(13) 0.5797(15) 0.7348(9)
H6 H 0.4316(13) 0.8672(14) 1.1370(10)
H7 H 0.5979(14) 0.9063(15) 1.1147(10)
H8 H 0.5518(14) 0.8317(15) 0.8018(11)
H9 H 0.7078(16) 0.8867(16) 0.8967(10)
H10 H 0.7037(15) 0.9091(16) 1.0246(10)
H11 H 0.1033(13) 0.9713(15) 0.7500(10)
H12 H 0.0292(14) 0.9541(14) 0.8050(9)
H13 H 0.0708(15) 1.1603(17) 0.7765(11)
H14 H 0.1880(15) 1.1380(15) 0.8334(9)
H15 H 0.1123(13) 1.1026(15) 0.9374(10)
H16 H -0.0037(16) 1.1267(16) 0.8780(10)
H17 H 0.0463(17) 1.3303(19) 0.8598(12)
H18 H 0.0496(16) 1.3045(18) 0.9483(12)
H19 H 0.1611(18) 1.3076(18) 0.9263(11)
H20 H 0.1314(13) 0.5696(16) 0.9836(9)
H21 H -0.0373(14) 0.5434(17) 0.8935(10)
H22 H -0.1500(16) 0.7052(15) 0.8468(11)
H23 H -0.0993(14) 0.8976(16) 0.8920(10)
H24 H 0.0676(13) 0.9272(17) 0.9846(10)
H25 H 0.3674(14) 0.5756(16) 1.0628(11)
H26 H 0.4144(15) 0.4092(17) 1.1377(10)
H27 H 0.3477(16) 0.3778(19) 1.2422(12)
H28 H 0.2339(16) 0.5234(18) 1.2685(12)
H29 H 0.1869(15) 0.6976(17) 1.1932(10)
loop_
_geom_bond_atom_site_label_1
_geom_bond_atom_site_label_2
_geom_bond_site_symmetry_1
_geom_bond_site_symmetry_2
P1 O2 1_555 1_555
O1 C7 1_555 1_555
N1 C1 1_555 1_555
N2 C15 1_555 1_555
C1 C2 1_555 1_555
C2 C3 1_555 1_555
C3 C4 1_555 1_555
C4 C5 1_555 1_555
C5 N1 1_555 1_555
C6 C5 1_555 1_555
C7 C6 1_555 1_555
C8 C7 1_555 1_555
C9 C4 1_555 1_555
C10 C6 1_555 1_555
C11 P1 1_555 1_555
C12 C11 1_555 1_555
C13 C12 1_555 1_555
C14 C13 1_555 1_555
C15 C10 1_555 1_555
C16 N2 1_555 1_555
C17 C16 1_555 1_555
C18 C14 1_555 1_555
C19 O1 1_555 1_555
C20 C19 1_555 1_555
C21 C20 1_555 1_555
C22 C21 1_555 1_555
C23 P1 1_555 1_555
C24 C23 1_555 1_555
C25 C24 1_555 1_555
C26 C25 1_555 1_555
C27 C26 1_555 1_555
C28 C23 1_555 1_555
C29 P1 1_555 1_555
C30 C29 1_555 1_555
C31 C30 1_555 1_555
C32 C31 1_555 1_555
C33 C32 1_555 1_555
C34 C29 1_555 1_555
H1 C1 1_555 1_555
H2 C2 1_555 1_555
H3 C3 1_555 1_555
H4 C8 1_555 1_555
H5 C9 1_555 1_555
H6 C12 1_555 1_555
H7 C13 1_555 1_555
H8 C16 1_555 1_555
H9 C17 1_555 1_555
H10 C18 1_555 1_555
H11 C19 1_555 1_555
H12 C19 1_555 1_555
H13 C20 1_555 1_555
H14 C20 1_555 1_555
H15 C21 1_555 1_555
H16 C21 1_555 1_555
H17 C22 1_555 1_555
H18 C22 1_555 1_555
H19 C22 1_555 1_555
H20 C24 1_555 1_555
H21 C25 1_555 1_555
H22 C26 1_555 1_555
H23 C27 1_555 1_555
H24 C28 1_555 1_555
H25 C30 1_555 1_555
H26 C31 1_555 1_555
H27 C32 1_555 1_555
H28 C33 1_555 1_555
H29 C34 1_555 1_555
C8 C9 1_555 1_555
C10 C11 1_555 1_555
C14 C15 1_555 1_555
C17 C18 1_555 1_555
C27 C28 1_555 1_555
C33 C34 1_555 1_555

#END
