
#######################################################################
#
#                 Cambridge Crystallographic Data Centre
#                                CCDC 
#
#######################################################################
#
# If this CIF has been generated from an entry in the Cambridge 
# Structural Database, then it will include bibliographic, chemical, 
# crystal, experimental, refinement or atomic coordinate data resulting 
# from the CCDC's data processing and validation procedures.
#
#######################################################################

data_LIZLUC
_chemical_formula_moiety         'C58 H74 B1 N3 O1,3(C1 H4 O1)'
_chemical_name_systematic        
'Methoxy-(5,10,15-tris(3,5-di-t-butylphenyl)subchlorinato)-boron(iii) methanol solvate'
_symmetry_cell_setting           triclinic
_symmetry_space_group_name_H-M   'P -1'
_symmetry_Int_Tables_number      2
_space_group_name_Hall           '-P 1'
loop_
_symmetry_equiv_pos_site_id
_symmetry_equiv_pos_as_xyz
1 x,y,z
2 -x,-y,-z
_cell_length_a                   14.0272(17)
_cell_length_b                   14.2782(18)
_cell_length_c                   17.054(2)
_cell_angle_alpha                94.453(2)
_cell_angle_beta                 113.348(2)
_cell_angle_gamma                112.079(2)
_cell_volume                     2800.99
_exptl_crystal_colour            violet
_exptl_crystal_description       prism
_cell_formula_units_Z            2
_exptl_crystal_recrystallization_method dichloromethane/methanol
_exptl_crystal_preparation       fluorescent
loop_
_atom_site_label
_atom_site_type_symbol
_atom_site_fract_x
_atom_site_fract_y
_atom_site_fract_z
C7 C 0.6239(9) 0.2626(8) 0.6490(7)
H9 H 0.6207 0.2076 0.6114
C8 C 0.6867(11) 0.3686(10) 0.6624(8)
H10 H 0.7339 0.3999 0.6354
C9 C 0.5810(9) 0.6346(9) 0.7898(7)
H11 H 0.6029 0.6950 0.7687
C10 C 0.5038(8) 0.6052(7) 0.8295(7)
H12 H 0.4834 0.6495 0.8573
C11 C 0.2519(10) 0.2049(9) 0.7662(8)
H13 H 0.1779 0.2068 0.7294
H14 H 0.2507 0.1861 0.8206
C12 C 0.2691(10) 0.1283(10) 0.7163(9)
H15 H 0.2142 0.1067 0.6524
H16 H 0.2581 0.0652 0.7389
B1 B 0.5564(2) 0.37017(19) 0.81540(18)
C19 C 0.5622(2) 0.24976(17) 0.70382(15)
C20 C 0.6671(2) 0.42499(17) 0.72681(15)
C21 C 0.68314(19) 0.52949(17) 0.74977(15)
C22 C 0.6190(2) 0.55019(17) 0.78877(15)
C23 C 0.4641(2) 0.49246(18) 0.81744(16)
C24 C 0.3649(2) 0.40878(17) 0.81197(15)
C25 C 0.3488(2) 0.30486(18) 0.78831(15)
C26 C 0.3948(2) 0.18737(17) 0.73215(16)
C27 C 0.4632(2) 0.16595(17) 0.69851(16)
C28 C 0.7143(2) 0.59451(17) 0.62644(15)
H25 H 0.6563 0.5276 0.5878
C29 C 0.7662(2) 0.67228(18) 0.59140(16)
C30 C 0.8513(2) 0.76906(18) 0.65051(16)
H26 H 0.8879 0.8226 0.6280
C31 C 0.8853(2) 0.79084(17) 0.74094(16)
C32 C 0.8309(2) 0.71194(17) 0.77332(16)
H27 H 0.8517 0.7254 0.8347
C33 C 0.74568(19) 0.61284(17) 0.71631(15)
C34 C 0.2697(2) 0.42557(17) 0.81818(15)
C35 C 0.2270(2) 0.48986(18) 0.77412(16)
H28 H 0.2587 0.5230 0.7381
C36 C 0.1389(2) 0.50716(18) 0.78125(16)
C37 C 0.0915(2) 0.45453(18) 0.83167(16)
H29 H 0.0313 0.4653 0.8372
C38 C 0.1289(2) 0.38598(18) 0.87483(16)
C39 C 0.2193(2) 0.37344(18) 0.86831(16)
H30 H 0.2474 0.3288 0.8983
C40 C 0.4255(2) 0.05764(17) 0.64818(16)
C41 C 0.3110(2) -0.00220(18) 0.58295(16)
H31 H 0.2582 0.0277 0.5689
C42 C 0.2732(2) -0.10494(18) 0.53818(16)
C43 C 0.3533(2) -0.14584(18) 0.55880(16)
H32 H 0.3281 -0.2161 0.5290
C44 C 0.4691(2) -0.08742(17) 0.62168(15)
C45 C 0.5036(2) 0.01546(18) 0.66609(16)
H33 H 0.5820 0.0569 0.7092
C46 C 0.7261(2) 0.64875(19) 0.49140(16)
C47 C 0.5959(2) 0.6157(3) 0.44119(18)
H34 H 0.5796 0.6728 0.4584
H35 H 0.5538 0.5532 0.4558
H36 H 0.5709 0.5997 0.3773
C48 C 0.7496(3) 0.5587(2) 0.46271(18)
H37 H 0.7107 0.4973 0.4799
H38 H 0.8333 0.5804 0.4916
H39 H 0.7199 0.5409 0.3983
C49 C 0.7882(2) 0.7436(2) 0.46411(18)
H40 H 0.8720 0.7667 0.4957
H41 H 0.7706 0.8008 0.4791
H42 H 0.7616 0.7241 0.4001
C50 C 0.9847(2) 0.89844(18) 0.80192(17)
C51 C 0.9642(3) 0.9877(2) 0.7639(2)
H43 H 1.0302 1.0553 0.8015
H44 H 0.8933 0.9868 0.7623
H45 H 0.9563 0.9778 0.7037
C52 C 1.0972(3) 0.9047(2) 0.8024(2)
H46 H 1.1134 0.8489 0.8257
H47 H 1.1617 0.9730 0.8399
H48 H 1.0879 0.8963 0.7418
C53 C 1.0011(3) 0.9165(2) 0.8949(2)
H49 H 1.0178 0.8620 0.9204
H50 H 0.9302 0.9139 0.8948
H51 H 1.0659 0.9855 0.9303
C54 C 0.0985(2) 0.58113(19) 0.73290(17)
C55 C 0.0135(2) 0.6026(2) 0.7572(2)
H52 H 0.0498 0.6319 0.8214
H53 H -0.0565 0.5369 0.7389
H54 H -0.0072 0.6527 0.7268
C56 C 0.0384(3) 0.5325(2) 0.63273(18)
H55 H -0.0289 0.4653 0.6169
H56 H 0.0928 0.5209 0.6156
H57 H 0.0128 0.5800 0.6016
C57 C 0.2034(2) 0.6872(2) 0.7565(2)
H58 H 0.2543 0.6767 0.7345
H59 H 0.2462 0.7162 0.8210
H60 H 0.1761 0.7360 0.7291
C58 C 0.0710(2) 0.3278(2) 0.92746(17)
C59 C -0.0568(2) 0.2535(2) 0.8632(2)
H61 H -0.0945 0.2151 0.8962
H62 H -0.0607 0.2035 0.8179
H63 H -0.0964 0.2944 0.8348
C60 C 0.0777(3) 0.4076(2) 0.99806(19)
H64 H 0.1589 0.4571 1.0369
H65 H 0.0434 0.3706 1.0333
H66 H 0.0350 0.4461 0.9688
C61 C 0.1291(3) 0.2633(2) 0.97423(19)
H67 H 0.2101 0.3098 1.0164
H68 H 0.1261 0.2122 0.9304
H69 H 0.0885 0.2263 1.0060
C62 C 0.1459(2) -0.17355(18) 0.47029(16)
C63 C 0.0760(2) -0.1105(2) 0.44778(19)
H70 H 0.1097 -0.0554 0.4226
H71 H 0.0781 -0.0785 0.5017
H72 H -0.0045 -0.1572 0.4046
C64 C 0.0919(2) -0.2585(2) 0.51023(18)
H73 H 0.0946 -0.2254 0.5641
H74 H 0.1355 -0.3000 0.5249
H75 H 0.0111 -0.3045 0.4672
C65 C 0.1369(2) -0.2257(2) 0.38411(18)
H76 H 0.1764 -0.2708 0.3963
H77 H 0.1735 -0.1716 0.3595
H78 H 0.0551 -0.2681 0.3414
C66 C 0.5593(2) -0.13016(18) 0.64142(17)
C67 C 0.6322(3) -0.1061(2) 0.74167(18)
H79 H 0.5814 -0.1379 0.7681
H80 H 0.6736 -0.0300 0.7675
H81 H 0.6883 -0.1349 0.7535
C68 C 0.5034(2) -0.24939(19) 0.60266(18)
H82 H 0.4639 -0.2662 0.5378
H83 H 0.4472 -0.2842 0.6239
H84 H 0.5636 -0.2738 0.6216
C69 C 0.6379(3) -0.0767(2) 0.6006(2)
H85 H 0.6751 -0.0006 0.6256
H86 H 0.5915 -0.0937 0.5363
H87 H 0.6974 -0.1016 0.6139
C70 C 0.6033(2) 0.3825(2) 0.97174(17)
H88 H 0.5318 0.3216 0.9598
H89 H 0.5918 0.4460 0.9754
H90 H 0.6663 0.3892 1.0280
N1 N 0.59748(16) 0.34924(14) 0.75064(13)
N2 N 0.54821(17) 0.47174(14) 0.80952(13)
N3 N 0.43309(16) 0.28804(14) 0.77836(12)
O1 O 0.63264(14) 0.36919(13) 0.90174(11)
C71 C 0.2467(4) 0.7874(4) 0.0124(3)
H91 H 0.2129 0.8364 0.0119
H92 H 0.1864 0.7153 -0.0057
H93 H 0.2799 0.7962 -0.0290
O2 O 0.3327(2) 0.80764(18) 0.09665(16)
H94 H 0.3372 0.7519 0.1050
C72 C 0.6610(6) 0.8759(5) -0.0354(4)
O3 O 0.6711(3) 0.8460(3) 0.0466(3)
C74 C 0.5906(7) 1.0288(6) 0.1375(5)
O5 O 0.5448(3) 0.9236(3) 0.0973(3)
C1? C 0.6367(9) 0.2568(7) 0.6654(7)
H1? H 0.5916 0.2168 0.6022
H2? H 0.6920 0.2291 0.6970
C2? C 0.6997(11) 0.3716(10) 0.6747(8)
H3? H 0.7845 0.3953 0.7047
H4? H 0.6773 0.3859 0.6158
C3? C 0.5986(9) 0.6386(10) 0.8014(7)
H5? H 0.6450 0.7085 0.8040
C4? C 0.4947(13) 0.6014(9) 0.8095(9)
H6? H 0.4520 0.6396 0.8097
C5? C 0.2507(12) 0.2009(10) 0.7530(9)
H7? H 0.1784 0.1844 0.7530
C6? C 0.2807(15) 0.1284(14) 0.7188(12)
H8? H 0.2336 0.0552 0.6923
C13? C 0.6223(10) 0.2664(10) 0.6506(9)
H17? H 0.6189 0.2124 0.6119
C14? C 0.6849(10) 0.3716(10) 0.6643(9)
H18? H 0.7317 0.4030 0.6369
C15? C 0.5893(10) 0.6366(10) 0.7987(9)
H19? H 0.5788 0.6656 0.7467
H20? H 0.6523 0.6933 0.8524
C16? C 0.4779(10) 0.5947(10) 0.8066(9)
H21? H 0.4855 0.6387 0.8586
H22? H 0.4121 0.5903 0.7525
C17? C 0.2421(10) 0.2017(10) 0.7491(9)
H23? H 0.1659 0.1869 0.7396
C18? C 0.2847(10) 0.1327(10) 0.7301(9)
H24? H 0.2450 0.0586 0.7175
O4? O 0.6392(14) 0.8523(11) -0.0112(11)
C73? C 0.5316(11) 0.8204(10) -0.0727(9)
C75? C 0.609(3) 1.044(3) 0.1681(19)
O6? O 0.4767(14) 1.0044(12) 0.1207(10)
loop_
_geom_bond_atom_site_label_1
_geom_bond_atom_site_label_2
_geom_bond_site_symmetry_1
_geom_bond_site_symmetry_2
C7 H9 1_555 1_555
C8 C7 1_555 1_555
H10 C8 1_555 1_555
C9 H11 1_555 1_555
C10 C9 1_555 1_555
H12 C10 1_555 1_555
C11 H13 1_555 1_555
H14 C11 1_555 1_555
C12 C11 1_555 1_555
H15 C12 1_555 1_555
H16 C12 1_555 1_555
B1 N1 1_555 1_555
C19 C7 1_555 1_555
C20 C8 1_555 1_555
C21 C20 1_555 1_555
C22 C9 1_555 1_555
C23 C10 1_555 1_555
C24 C23 1_555 1_555
C25 C11 1_555 1_555
C26 C12 1_555 1_555
C27 C19 1_555 1_555
C28 H25 1_555 1_555
C29 C28 1_555 1_555
C30 C29 1_555 1_555
H26 C30 1_555 1_555
C31 C30 1_555 1_555
C32 C31 1_555 1_555
H27 C32 1_555 1_555
C33 C21 1_555 1_555
C34 C24 1_555 1_555
C35 C34 1_555 1_555
H28 C35 1_555 1_555
C36 C35 1_555 1_555
C37 C36 1_555 1_555
H29 C37 1_555 1_555
C38 C37 1_555 1_555
C39 C34 1_555 1_555
H30 C39 1_555 1_555
C40 C27 1_555 1_555
C41 C40 1_555 1_555
H31 C41 1_555 1_555
C42 C41 1_555 1_555
C43 C42 1_555 1_555
H32 C43 1_555 1_555
C44 C43 1_555 1_555
C45 C40 1_555 1_555
H33 C45 1_555 1_555
C46 C29 1_555 1_555
C47 C46 1_555 1_555
H34 C47 1_555 1_555
H35 C47 1_555 1_555
H36 C47 1_555 1_555
C48 C46 1_555 1_555
H37 C48 1_555 1_555
H38 C48 1_555 1_555
H39 C48 1_555 1_555
C49 C46 1_555 1_555
H40 C49 1_555 1_555
H41 C49 1_555 1_555
H42 C49 1_555 1_555
C50 C31 1_555 1_555
C51 C50 1_555 1_555
H43 C51 1_555 1_555
H44 C51 1_555 1_555
H45 C51 1_555 1_555
C52 C50 1_555 1_555
H46 C52 1_555 1_555
H47 C52 1_555 1_555
H48 C52 1_555 1_555
C53 C50 1_555 1_555
H49 C53 1_555 1_555
H50 C53 1_555 1_555
H51 C53 1_555 1_555
C54 C36 1_555 1_555
C55 C54 1_555 1_555
H52 C55 1_555 1_555
H53 C55 1_555 1_555
H54 C55 1_555 1_555
C56 C54 1_555 1_555
H55 C56 1_555 1_555
H56 C56 1_555 1_555
H57 C56 1_555 1_555
C57 C54 1_555 1_555
H58 C57 1_555 1_555
H59 C57 1_555 1_555
H60 C57 1_555 1_555
C58 C38 1_555 1_555
C59 C58 1_555 1_555
H61 C59 1_555 1_555
H62 C59 1_555 1_555
H63 C59 1_555 1_555
C60 C58 1_555 1_555
H64 C60 1_555 1_555
H65 C60 1_555 1_555
H66 C60 1_555 1_555
C61 C58 1_555 1_555
H67 C61 1_555 1_555
H68 C61 1_555 1_555
H69 C61 1_555 1_555
C62 C42 1_555 1_555
C63 C62 1_555 1_555
H70 C63 1_555 1_555
H71 C63 1_555 1_555
H72 C63 1_555 1_555
C64 C62 1_555 1_555
H73 C64 1_555 1_555
H74 C64 1_555 1_555
H75 C64 1_555 1_555
C65 C62 1_555 1_555
H76 C65 1_555 1_555
H77 C65 1_555 1_555
H78 C65 1_555 1_555
C66 C44 1_555 1_555
C67 C66 1_555 1_555
H79 C67 1_555 1_555
H80 C67 1_555 1_555
H81 C67 1_555 1_555
C68 C66 1_555 1_555
H82 C68 1_555 1_555
H83 C68 1_555 1_555
H84 C68 1_555 1_555
C69 C66 1_555 1_555
H85 C69 1_555 1_555
H86 C69 1_555 1_555
H87 C69 1_555 1_555
C70 H88 1_555 1_555
H89 C70 1_555 1_555
H90 C70 1_555 1_555
C71 H91 1_555 1_555
H92 C71 1_555 1_555
H93 C71 1_555 1_555
C72 O3 1_555 1_555
N1 C19 1_555 1_555
N2 B1 1_555 1_555
N3 B1 1_555 1_555
O1 B1 1_555 1_555
O2 C71 1_555 1_555
H94 O2 1_555 1_555
C74 O5 1_555 1_555
C20 N1 1_555 1_555
C21 C22 1_555 1_555
C22 N2 1_555 1_555
C23 N2 1_555 1_555
C24 C25 1_555 1_555
C25 N3 1_555 1_555
C26 C27 1_555 1_555
C26 N3 1_555 1_555
C28 C33 1_555 1_555
C32 C33 1_555 1_555
C38 C39 1_555 1_555
C44 C45 1_555 1_555
C70 O1 1_555 1_555

#END
