
#######################################################################
#
#                 Cambridge Crystallographic Data Centre
#                                CCDC 
#
#######################################################################
#
# If this CIF has been generated from an entry in the Cambridge 
# Structural Database, then it will include bibliographic, chemical, 
# crystal, experimental, refinement or atomic coordinate data resulting 
# from the CCDC's data processing and validation procedures.
#
#######################################################################

data_LIZMOX
_chemical_formula_moiety         'C12 H14 Br2 N2'
_chemical_name_systematic        
2,4-Dibromo-5,6,7,8,9,11-hexahydro-5aH-pyrido[2,1-b]quinazoline
_symmetry_cell_setting           monoclinic
_symmetry_space_group_name_H-M   'P 21/n'
_symmetry_Int_Tables_number      14
_space_group_name_Hall           '-P 2yn'
loop_
_symmetry_equiv_pos_site_id
_symmetry_equiv_pos_as_xyz
1 x,y,z
2 1/2-x,1/2+y,1/2-z
3 -x,-y,-z
4 1/2+x,1/2-y,1/2+z
_cell_length_a                   18.333(2)
_cell_length_b                   7.6856(10)
_cell_length_c                   18.386(2)
_cell_angle_alpha                90
_cell_angle_beta                 108.073(2)
_cell_angle_gamma                90
_cell_volume                     2462.77
_exptl_crystal_colour            colorless
_exptl_crystal_description       needle
_chemical_melting_point          89-92deg.C
_cell_formula_units_Z            8
loop_
_atom_site_label
_atom_site_type_symbol
_atom_site_fract_x
_atom_site_fract_y
_atom_site_fract_z
Br1 Br 0.53106(2) 0.48540(4) 0.22396(2)
Br2 Br 0.40511(4) 0.7559(2) -0.07518(3)
N1 N 0.25965(13) 0.7888(3) -0.02399(14)
H1 H 0.265(2) 0.864(4) -0.0554(17)
N2 N 0.17527(13) 0.6827(3) 0.04162(13)
C1 C 0.44710(16) 0.5809(4) 0.14616(16)
C2 C 0.45681(16) 0.6330(4) 0.07789(16)
H2 H 0.5052 0.6222 0.0695
C3 C 0.39407(16) 0.7017(3) 0.02171(15)
C4 C 0.32217(15) 0.7242(3) 0.03250(15)
C5 C 0.31444(15) 0.6668(3) 0.10242(15)
C6 C 0.37619(16) 0.5952(4) 0.15841(16)
H3 H 0.3701 0.5558 0.2051
C7 C 0.18832(15) 0.8232(3) -0.00722(16)
H4 H 0.1923 0.9368 0.0202
C8 C 0.12335(16) 0.8319(3) -0.08244(16)
H5 H 0.1219 0.7223 -0.1112
H6 H 0.1330 0.9287 -0.1138
C9 C 0.04628(16) 0.8594(4) -0.06909(18)
H7 H 0.0045 0.8555 -0.1185
H8 H 0.0452 0.9748 -0.0455
C10 C 0.03467(16) 0.7161(4) -0.01618(18)
H9 H -0.0134 0.7379 -0.0038
H10 H 0.0298 0.6024 -0.0425
C11 C 0.10185(15) 0.7104(4) 0.05727(17)
H11 H 0.1042 0.8212 0.0854
H12 H 0.0938 0.6150 0.0902
C12 C 0.23759(15) 0.6856(4) 0.11486(15)
H13 H 0.2302 0.5895 0.1477
H14 H 0.2359 0.7967 0.1416
Br5 Br 0.47410(2) -0.02585(4) 0.27578(2)
Br6 Br 0.17277(2) 0.23419(9) 0.15354(4)
N5 N 0.22322(13) 0.2827(3) 0.00823(13)
H29 H 0.1933(17) 0.358(4) 0.017(2)
N6 N 0.29266(13) 0.1965(3) -0.07600(13)
C25 C 0.39633(16) 0.0737(4) 0.19277(16)
C26 C 0.32672(17) 0.1175(4) 0.20254(16)
H30 H 0.3181 0.1003 0.2504
C27 C 0.26984(15) 0.1869(3) 0.14096(16)
C28 C 0.28088(15) 0.2185(3) 0.07006(15)
C29 C 0.35256(15) 0.1714(3) 0.06257(15)
C30 C 0.40945(16) 0.0988(3) 0.12340(16)
H31 H 0.4573 0.0665 0.1174
C31 C 0.24024(15) 0.3271(3) -0.06216(15)
H32 H 0.2649 0.4445 -0.0567
C32 C 0.16499(16) 0.3308(4) -0.12682(15)
H33 H 0.1310 0.4208 -0.1162
H34 H 0.1391 0.2168 -0.1301
C33 C 0.17862(18) 0.3705(4) -0.20293(17)
H35 H 0.1296 0.3629 -0.2451
H36 H 0.1990 0.4900 -0.2021
C34 C 0.23547(19) 0.2405(5) -0.21603(16)
H37 H 0.2481 0.2721 -0.2630
H38 H 0.2122 0.1230 -0.2235
C35 C 0.30877(17) 0.2380(4) -0.14789(16)
H39 H 0.3445 0.1503 -0.1570
H40 H 0.3340 0.3532 -0.1430
C36 C 0.36535(16) 0.2041(4) -0.01324(15)
H41 H 0.3891 0.3200 -0.0126
H42 H 0.4011 0.1156 -0.0217
Br3? Br 0.5252(4) 1.0207(9) 0.2275(4)
Br4? Br 0.4083(10) 0.744(4) -0.0715(7)
N3? N 0.2610(8) 0.705(4) -0.0240(10)
H15? H 0.2664 0.6459 -0.0584
N4? N 0.1754(7) 0.792(3) 0.0438(12)
C13? C 0.4429(7) 0.926(5) 0.1477(9)
C14? C 0.4548(11) 0.875(6) 0.0802(12)
H16? H 0.5029 0.8939 0.0720
C15? C 0.3948(9) 0.796(4) 0.0246(9)
C16? C 0.3231(8) 0.765(4) 0.0345(9)
C17? C 0.3144(7) 0.812(4) 0.1052(8)
C18? C 0.3723(8) 0.900(5) 0.1595(12)
H17? H 0.3638 0.9432 0.2046
C19? C 0.1899(7) 0.661(3) -0.0085(10)
H18? H 0.1949 0.5436 0.0158
C20? C 0.1251(9) 0.659(4) -0.0840(11)
H19? H 0.1357 0.5684 -0.1178
H20? H 0.1227 0.7727 -0.1097
C21? C 0.0482(8) 0.621(5) -0.0717(14)
H21? H 0.0482 0.5022 -0.0512
H22? H 0.0065 0.6295 -0.1210
C22? C 0.0352(7) 0.754(5) -0.0152(18)
H23? H 0.0293 0.8716 -0.0384
H24? H -0.0127 0.7255 -0.0036
C23? C 0.1023(8) 0.754(5) 0.0585(15)
H25? H 0.0932 0.8429 0.0938
H26? H 0.1056 0.6392 0.0835
C24? C 0.2377(8) 0.783(4) 0.1170(10)
H27? H 0.2373 0.6673 0.1406
H28? H 0.2293 0.8722 0.1524
Br7? Br 0.4726(4) 0.5140(8) 0.2830(4)
Br8? Br 0.1716(5) 0.258(3) 0.1543(9)
N7? N 0.2262(10) 0.205(4) 0.0120(8)
H43? H 0.1906 0.1524 0.0188
N8? N 0.2949(13) 0.303(3) -0.0710(7)
C37? C 0.3947(9) 0.423(5) 0.1977(7)
C38? C 0.3262(11) 0.369(6) 0.2073(9)
H44? H 0.3176 0.3796 0.2555
C39? C 0.2705(8) 0.298(4) 0.1451(8)
C40? C 0.2830(9) 0.268(4) 0.0747(8)
C41? C 0.3540(9) 0.323(4) 0.0678(8)
C42? C 0.4087(14) 0.402(7) 0.1285(9)
H45? H 0.4556 0.4417 0.1226
C43? C 0.2439(10) 0.167(3) -0.0587(7)
H46? H 0.2700 0.0517 -0.0543
C44? C 0.1689(11) 0.162(5) -0.1236(9)
H47? H 0.1416 0.2743 -0.1258
H48? H 0.1359 0.0687 -0.1140
C45? C 0.1832(14) 0.130(5) -0.1999(8)
H49? H 0.2050 0.0120 -0.2002
H50? H 0.1342 0.1365 -0.2422
C46? C 0.2386(19) 0.265(6) -0.2115(7)
H51? H 0.2139 0.3814 -0.2179
H52? H 0.2517 0.2385 -0.2586
C47? C 0.3117(16) 0.269(6) -0.1432(8)
H53? H 0.3383 0.1554 -0.1394
H54? H 0.3465 0.3601 -0.1512
C48? C 0.3675(10) 0.297(5) -0.0081(8)
H55? H 0.4023 0.3890 -0.0156
H56? H 0.3925 0.1831 -0.0084
loop_
_geom_bond_atom_site_label_1
_geom_bond_atom_site_label_2
_geom_bond_site_symmetry_1
_geom_bond_site_symmetry_2
Br1 C1 1_555 1_555
Br2 C3 1_555 1_555
N1 H1 1_555 1_555
N2 C7 1_555 1_555
C1 C2 1_555 1_555
C2 H2 1_555 1_555
C3 C2 1_555 1_555
C4 N1 1_555 1_555
C5 C4 1_555 1_555
C6 C1 1_555 1_555
H3 C6 1_555 1_555
C7 N1 1_555 1_555
H4 C7 1_555 1_555
C8 C7 1_555 1_555
H5 C8 1_555 1_555
H6 C8 1_555 1_555
C9 C8 1_555 1_555
H7 C9 1_555 1_555
H8 C9 1_555 1_555
C10 C9 1_555 1_555
H9 C10 1_555 1_555
H10 C10 1_555 1_555
C11 N2 1_555 1_555
H11 C11 1_555 1_555
H12 C11 1_555 1_555
C12 N2 1_555 1_555
H13 C12 1_555 1_555
H14 C12 1_555 1_555
Br5 C25 1_555 1_555
Br6 C27 1_555 1_555
N5 H29 1_555 1_555
N6 C31 1_555 1_555
C25 C26 1_555 1_555
C26 H30 1_555 1_555
C27 C26 1_555 1_555
C28 N5 1_555 1_555
C29 C28 1_555 1_555
C30 C25 1_555 1_555
H31 C30 1_555 1_555
C31 N5 1_555 1_555
H32 C31 1_555 1_555
C32 C31 1_555 1_555
H33 C32 1_555 1_555
H34 C32 1_555 1_555
C33 C32 1_555 1_555
H35 C33 1_555 1_555
H36 C33 1_555 1_555
C34 C33 1_555 1_555
H37 C34 1_555 1_555
H38 C34 1_555 1_555
C35 N6 1_555 1_555
H39 C35 1_555 1_555
H40 C35 1_555 1_555
C36 N6 1_555 1_555
H41 C36 1_555 1_555
H42 C36 1_555 1_555
C3 C4 1_555 1_555
C5 C6 1_555 1_555
C5 C12 1_555 1_555
C10 C11 1_555 1_555
C27 C28 1_555 1_555
C29 C30 1_555 1_555
C29 C36 1_555 1_555
C34 C35 1_555 1_555

#END
