
#######################################################################
#
#                 Cambridge Crystallographic Data Centre
#                                CCDC 
#
#######################################################################
#
# If this CIF has been generated from an entry in the Cambridge 
# Structural Database, then it will include bibliographic, chemical, 
# crystal, experimental, refinement or atomic coordinate data resulting 
# from the CCDC's data processing and validation procedures.
#
#######################################################################

data_LIZPAM
_chemical_formula_moiety         'C5 H1 Br1 Cl1 N3 S1'
_chemical_name_systematic        
7-Bromo-4-chloro[1,2,5]thiadiazolo[3,4-c]pyridine
_symmetry_cell_setting           monoclinic
_symmetry_space_group_name_H-M   'P 21/c'
_symmetry_Int_Tables_number      14
_space_group_name_Hall           '-P 2ybc'
loop_
_symmetry_equiv_pos_site_id
_symmetry_equiv_pos_as_xyz
1 x,y,z
2 -x,1/2+y,1/2-z
3 -x,-y,-z
4 x,1/2-y,1/2+z
_cell_length_a                   3.970(3)
_cell_length_b                   17.147(13)
_cell_length_c                   10.871(8)
_cell_angle_alpha                90
_cell_angle_beta                 90.057(9)
_cell_angle_gamma                90
_cell_volume                     740.028
_exptl_crystal_colour            brown
_exptl_crystal_description       Block
_chemical_melting_point          238-240deg.C
_cell_formula_units_Z            4
_exptl_crystal_recrystallization_method ethanol
loop_
_atom_site_label
_atom_site_type_symbol
_atom_site_fract_x
_atom_site_fract_y
_atom_site_fract_z
Br1 Br 0.5284(4) 0.46827(6) 0.81646(12)
Cl1 Cl 0.0848(8) 0.13989(15) 0.5993(3)
S1 S -0.0960(8) 0.39306(15) 0.4521(3)
N1 N 0.101(2) 0.4302(5) 0.5676(8)
N2 N -0.069(3) 0.3017(4) 0.4837(8)
C1 C 0.198(3) 0.3707(6) 0.6389(10)
C2 C 0.387(3) 0.3730(5) 0.7470(10)
C3 C 0.473(3) 0.3044(6) 0.8009(9)
H1 H 0.6040 0.3060 0.8741
N3 N 0.383(2) 0.2335(5) 0.7561(8)
C4 C 0.204(3) 0.2294(6) 0.6550(11)
C5 C 0.104(3) 0.2969(6) 0.5892(9)
loop_
_geom_bond_atom_site_label_1
_geom_bond_atom_site_label_2
_geom_bond_site_symmetry_1
_geom_bond_site_symmetry_2
Br1 C2 1_555 1_555
Cl1 C4 1_555 1_555
S1 N1 1_555 1_555
N1 C1 1_555 1_555
N2 S1 1_555 1_555
C1 C2 1_555 1_555
C2 C3 1_555 1_555
C3 H1 1_555 1_555
N3 C3 1_555 1_555
C4 N3 1_555 1_555
C5 N2 1_555 1_555
C1 C5 1_555 1_555
C4 C5 1_555 1_555

#END
