
#######################################################################
#
#                 Cambridge Crystallographic Data Centre
#                                CCDC 
#
#######################################################################
#
# If this CIF has been generated from an entry in the Cambridge 
# Structural Database, then it will include bibliographic, chemical, 
# crystal, experimental, refinement or atomic coordinate data resulting 
# from the CCDC's data processing and validation procedures.
#
#######################################################################

data_LIZTAR
_chemical_formula_moiety         'C17 H21 N2 O2 1+,Cl1 1-,H2 O1'
_chemical_name_systematic        
'N-(4-(Diethylamino)-2-hydroxybenzylidene)-2-hydroxyanilinium chloride monohydrate'
_symmetry_cell_setting           monoclinic
_symmetry_space_group_name_H-M   'C 2/c'
_symmetry_Int_Tables_number      15
_space_group_name_Hall           '-C 2yn'
loop_
_symmetry_equiv_pos_site_id
_symmetry_equiv_pos_as_xyz
1 x,y,z
2 -x,y,1/2-z
3 1/2+x,1/2+y,z
4 1/2-x,1/2+y,1/2-z
5 -x,-y,-z
6 x,-y,1/2+z
7 1/2-x,1/2-y,-z
8 1/2+x,1/2-y,1/2+z
_cell_length_a                   18.242(5)
_cell_length_b                   11.925(5)
_cell_length_c                   17.097(5)
_cell_angle_alpha                90
_cell_angle_beta                 108.114(5)
_cell_angle_gamma                90
_cell_volume                     3534.89
_exptl_crystal_colour            yellow
_exptl_crystal_description       rectangular
_cell_formula_units_Z            8
loop_
_atom_site_label
_atom_site_type_symbol
_atom_site_fract_x
_atom_site_fract_y
_atom_site_fract_z
O1 O 0.61774(13) 0.76392(18) 0.38737(11)
H1 H 0.5895 0.8137 0.3945
N1 N 0.58136(15) 0.6191(2) 0.63410(14)
O2 O 0.68979(15) 0.8083(2) 0.20909(13)
H2 H 0.6676 0.8241 0.1608
N2 N 0.73527(14) 0.6823(2) 0.34097(13)
H3 H 0.6991 0.7315 0.3308
C1 C 0.72547(18) 0.5562(3) 0.53305(18)
H4 H 0.7684 0.5102 0.5412
C2 C 0.62142(18) 0.6217(3) 0.57943(17)
C3 C 0.63852(18) 0.6960(3) 0.45380(16)
C4 C 0.70295(17) 0.6261(2) 0.46259(17)
C5 C 0.77724(18) 0.6740(3) 0.28371(17)
C6 C 0.7500(2) 0.7393(3) 0.21341(19)
C7 C 0.59825(17) 0.6933(3) 0.50998(16)
H5 H 0.5553 0.7391 0.5021
C8 C 0.74648(17) 0.6218(3) 0.40813(17)
H6 H 0.7873 0.5713 0.4206
C9 C 0.6037(2) 0.5435(3) 0.70609(19)
H7 H 0.5866 0.5758 0.7495
H8 H 0.6595 0.5381 0.7263
C10 C 0.87536(19) 0.5978(3) 0.2340(2)
H9 H 0.9176 0.5509 0.2410
C11 C 0.8481(2) 0.6612(3) 0.1639(2)
H10 H 0.8718 0.6562 0.1232
C12 C 0.50905(19) 0.6802(3) 0.61999(18)
H11 H 0.5142 0.7536 0.5978
H12 H 0.4998 0.6913 0.6723
C13 C 0.68662(19) 0.5540(3) 0.58932(17)
H13 H 0.7035 0.5070 0.6348
C14 C 0.83946(19) 0.6042(3) 0.29445(18)
H14 H 0.8574 0.5613 0.3420
C15 C 0.4400(2) 0.6214(3) 0.5617(2)
H15 H 0.4507 0.6032 0.5116
H16 H 0.3958 0.6698 0.5496
H17 H 0.4296 0.5537 0.5869
C16 C 0.7864(2) 0.7316(3) 0.15316(19)
H18 H 0.7689 0.7743 0.1055
C17 C 0.5706(2) 0.4278(3) 0.6873(2)
H19 H 0.5153 0.4324 0.6665
H20 H 0.5853 0.3835 0.7367
H21 H 0.5898 0.3934 0.6468
Cl1 Cl 0.61137(5) 0.89497(8) 0.03579(5)
O3 O 0.52858(15) 0.9307(2) 0.39576(13)
H22 H 0.5546 0.9732 0.4343
H23 H 0.4863 0.9136 0.4039
loop_
_geom_bond_atom_site_label_1
_geom_bond_atom_site_label_2
_geom_bond_site_symmetry_1
_geom_bond_site_symmetry_2
O1 H1 1_555 1_555
N1 C2 1_555 1_555
O2 H2 1_555 1_555
N2 H3 1_555 1_555
C1 H4 1_555 1_555
C2 C7 1_555 1_555
C3 O1 1_555 1_555
C4 C1 1_555 1_555
C5 N2 1_555 1_555
C6 O2 1_555 1_555
C7 C3 1_555 1_555
H5 C7 1_555 1_555
C8 N2 1_555 1_555
H6 C8 1_555 1_555
C9 N1 1_555 1_555
H7 C9 1_555 1_555
H8 C9 1_555 1_555
C10 H9 1_555 1_555
C11 C10 1_555 1_555
H10 C11 1_555 1_555
C12 N1 1_555 1_555
H11 C12 1_555 1_555
H12 C12 1_555 1_555
C13 C1 1_555 1_555
H13 C13 1_555 1_555
C14 C5 1_555 1_555
H14 C14 1_555 1_555
C15 C12 1_555 1_555
H15 C15 1_555 1_555
H16 C15 1_555 1_555
H17 C15 1_555 1_555
C16 C6 1_555 1_555
H18 C16 1_555 1_555
C17 C9 1_555 1_555
H19 C17 1_555 1_555
H20 C17 1_555 1_555
H21 C17 1_555 1_555
O3 H22 1_555 1_555
H23 O3 1_555 1_555
C2 C13 1_555 1_555
C3 C4 1_555 1_555
C4 C8 1_555 1_555
C5 C6 1_555 1_555
C10 C14 1_555 1_555
C11 C16 1_555 1_555

#END
