
#######################################################################
#
#                 Cambridge Crystallographic Data Centre
#                                CCDC 
#
#######################################################################
#
# If this CIF has been generated from an entry in the Cambridge 
# Structural Database, then it will include bibliographic, chemical, 
# crystal, experimental, refinement or atomic coordinate data resulting 
# from the CCDC's data processing and validation procedures.
#
#######################################################################

data_LIZXOH
_chemical_formula_moiety         'C28 H36 F3 N3 O4'
_chemical_name_systematic        
(1RS,3aSR,4RS,8aSR,8bRS)-N-(trans-4-(2-((1,3-Benzodioxol-5-yl)methyl)-1-isopropyl-3-oxoperhydropyrrolo(3,4-a)pyrrolizin-4-yl)cyclohexyl)-2,2,2-trifluoroethanamide
_chemical_properties_biological  'potential thrombin inhibitory activity'
_symmetry_cell_setting           monoclinic
_symmetry_space_group_name_H-M   'P 21/c'
_symmetry_Int_Tables_number      14
_space_group_name_Hall           '-P 2ybc'
loop_
_symmetry_equiv_pos_site_id
_symmetry_equiv_pos_as_xyz
1 x,y,z
2 x,1/2-y,1/2+z
3 -x,-y,-z
4 -x,1/2+y,1/2-z
_cell_length_a                   10.204(9)
_cell_length_b                   10.776(9)
_cell_length_c                   24.192(20)
_cell_angle_alpha                90
_cell_angle_beta                 90.97(7)
_cell_angle_gamma                90
_cell_volume                     2659.73
_exptl_crystal_colour            colorless
_exptl_crystal_description       prism
_chemical_melting_point          192-193deg.C
_cell_formula_units_Z            4
_exptl_crystal_recrystallization_method pentane/chloroform
loop_
_atom_site_label
_atom_site_type_symbol
_atom_site_fract_x
_atom_site_fract_y
_atom_site_fract_z
F1 F 0.1271(3) 0.1448(2) 0.85744(10)
F2 F 0.1147(3) 0.3343(3) 0.83911(12)
F3 F 0.2887(4) 0.2372(4) 0.82312(12)
O1 O 0.6963(3) 0.5188(3) 0.92004(12)
O2 O 0.6793(3) 0.3713(3) 0.85180(12)
O3 O 0.8264(2) 0.0553(2) 1.06003(11)
O4 O 0.2765(3) 0.3943(3) 0.92335(12)
N1 N 0.9085(3) 0.2418(3) 1.08819(12)
N2 N 0.5705(3) 0.2689(3) 1.17394(12)
N3 N 0.2744(3) 0.1919(3) 0.94977(13)
H1 H 0.2492(3) 0.1145(3) 0.94041(13)
C1 C 0.9209(4) 0.3180(4) 1.13805(15)
H2 H 0.9042(4) 0.4029(4) 1.12813(15)
C2 C 0.8325(4) 0.1404(4) 1.0944(2)
C3 C 0.7608(3) 0.1483(3) 1.14799(14)
H3 H 0.7885(3) 0.0812(3) 1.17151(14)
C4 C 0.6083(3) 0.1528(3) 1.14533(14)
H4 H 0.5769(3) 0.0857(3) 1.16763(14)
C5 C 0.5410(5) 0.2514(4) 1.2325(2)
H5 H 0.5976(5) 0.1902(4) 1.2491(2)
H6 H 0.4515(5) 0.2262(4) 1.2369(2)
C6 C 0.5654(6) 0.3766(5) 1.2580(2)
H7 H 0.5980(6) 0.3688(5) 1.2953(2)
H8 H 0.4858(6) 0.4240(5) 1.2583(2)
C7 C 0.6659(5) 0.4394(4) 1.2224(2)
H9 H 0.7475(5) 0.4485(4) 1.2423(2)
H10 H 0.6358(5) 0.5200(4) 1.2111(2)
C8 C 0.6829(4) 0.3541(3) 1.1720(2)
H11 H 0.6802(4) 0.4014(3) 1.1384(2)
C9 C 0.8069(4) 0.2722(3) 1.17352(15)
H12 H 0.8362(4) 0.2609(3) 1.21110(15)
C10 C 1.0567(4) 0.3082(4) 1.1645(2)
H13 H 1.1192(4) 0.3293(4) 1.1368(2)
C11 C 1.0894(5) 0.1768(5) 1.1843(2)
H14 H 1.0798(5) 0.1200(5) 1.1539(2)
H15 H 1.1775(5) 0.1727(5) 1.1988(2)
H16 H 1.0293(5) 0.1547(5) 1.2128(2)
C12 C 1.0733(5) 0.4019(5) 1.2118(2)
H17 H 1.0546(5) 0.4840(5) 1.1984(2)
H18 H 1.0131(5) 0.3811(5) 1.2404(2)
H19 H 1.1613(5) 0.3990(5) 1.2264(2)
C13 C 0.9883(4) 0.2587(4) 1.03918(15)
H20 H 1.0379(4) 0.1843(4) 1.03325(15)
H21 H 1.0489(4) 0.3256(4) 1.04552(15)
C14 C 0.9079(4) 0.2848(4) 0.9877(2)
C15 C 0.8415(4) 0.3989(4) 0.9818(2)
H22 H 0.8473(4) 0.4620(4) 1.0098(2)
C16 C 0.7689(4) 0.4153(4) 0.9352(2)
C17 C 0.6205(5) 0.4809(5) 0.8731(2)
H23 H 0.6199(5) 0.5450(5) 0.8456(2)
H24 H 0.5318(5) 0.4640(5) 0.8834(2)
C18 C 0.7582(4) 0.3283(4) 0.8945(2)
C19 C 0.8216(5) 0.2177(4) 0.8987(2)
H25 H 0.8136(5) 0.1554(4) 0.8705(2)
C20 C 0.8969(4) 0.1975(4) 0.9462(2)
H26 H 0.9439(4) 0.1208(4) 0.9504(2)
C21 C 0.5400(3) 0.1406(3) 1.08867(14)
H27 H 0.5762(3) 0.0694(3) 1.07062(14)
C22 C 0.5590(4) 0.2523(3) 1.05035(15)
H28 H 0.6509(4) 0.2648(3) 1.04432(15)
H29 H 0.5257(4) 0.3247(3) 1.06847(15)
C23 C 0.4867(4) 0.2360(4) 0.9954(2)
H30 H 0.5248(4) 0.1676(4) 0.9759(2)
H31 H 0.4974(4) 0.3094(4) 0.9734(2)
C24 C 0.3422(4) 0.2107(3) 1.00291(15)
H32 H 0.3036(4) 0.2820(3) 1.01999(15)
C25 C 0.3225(4) 0.1000(3) 1.04029(15)
H33 H 0.3553(4) 0.0272(3) 1.02238(15)
H34 H 0.2307(4) 0.0881(3) 1.04661(15)
C26 C 0.3944(4) 0.1160(3) 1.0950(2)
H35 H 0.3575(4) 0.1860(3) 1.1137(2)
H36 H 0.3818(4) 0.0441(3) 1.1178(2)
C27 C 0.2507(4) 0.2842(4) 0.9152(2)
C28 C 0.1965(5) 0.2500(4) 0.8589(2)
loop_
_geom_bond_atom_site_label_1
_geom_bond_atom_site_label_2
_geom_bond_site_symmetry_1
_geom_bond_site_symmetry_2
F1 C28 1_555 1_555
F2 C28 1_555 1_555
F3 C28 1_555 1_555
O1 C16 1_555 1_555
O2 C17 1_555 1_555
O3 C2 1_555 1_555
O4 C27 1_555 1_555
N1 C1 1_555 1_555
N2 C4 1_555 1_555
N3 H1 1_555 1_555
C1 H2 1_555 1_555
C2 N1 1_555 1_555
C3 C2 1_555 1_555
H3 C3 1_555 1_555
C4 C3 1_555 1_555
H4 C4 1_555 1_555
C5 N2 1_555 1_555
H5 C5 1_555 1_555
H6 C5 1_555 1_555
C6 C5 1_555 1_555
H7 C6 1_555 1_555
H8 C6 1_555 1_555
C7 C6 1_555 1_555
H9 C7 1_555 1_555
H10 C7 1_555 1_555
C8 N2 1_555 1_555
H11 C8 1_555 1_555
C9 C1 1_555 1_555
H12 C9 1_555 1_555
C10 C1 1_555 1_555
H13 C10 1_555 1_555
C11 C10 1_555 1_555
H14 C11 1_555 1_555
H15 C11 1_555 1_555
H16 C11 1_555 1_555
C12 C10 1_555 1_555
H17 C12 1_555 1_555
H18 C12 1_555 1_555
H19 C12 1_555 1_555
C13 N1 1_555 1_555
H20 C13 1_555 1_555
H21 C13 1_555 1_555
C14 C13 1_555 1_555
C15 C14 1_555 1_555
H22 C15 1_555 1_555
C16 C15 1_555 1_555
C17 O1 1_555 1_555
H23 C17 1_555 1_555
H24 C17 1_555 1_555
C18 O2 1_555 1_555
C19 C18 1_555 1_555
H25 C19 1_555 1_555
C20 C14 1_555 1_555
H26 C20 1_555 1_555
C21 C4 1_555 1_555
H27 C21 1_555 1_555
C22 C21 1_555 1_555
H28 C22 1_555 1_555
H29 C22 1_555 1_555
C23 C22 1_555 1_555
H30 C23 1_555 1_555
H31 C23 1_555 1_555
C24 N3 1_555 1_555
H32 C24 1_555 1_555
C25 C24 1_555 1_555
H33 C25 1_555 1_555
H34 C25 1_555 1_555
C26 C21 1_555 1_555
H35 C26 1_555 1_555
H36 C26 1_555 1_555
C27 N3 1_555 1_555
C28 C27 1_555 1_555
C3 C9 1_555 1_555
C7 C8 1_555 1_555
C8 C9 1_555 1_555
C16 C18 1_555 1_555
C19 C20 1_555 1_555
C23 C24 1_555 1_555
C25 C26 1_555 1_555

#END
