
#######################################################################
#
#                 Cambridge Crystallographic Data Centre
#                                CCDC 
#
#######################################################################
#
# If this CIF has been generated from an entry in the Cambridge 
# Structural Database, then it will include bibliographic, chemical, 
# crystal, experimental, refinement or atomic coordinate data resulting 
# from the CCDC's data processing and validation procedures.
#
#######################################################################

data_LIZZUQ
_chemical_formula_moiety         'C15 H13 Br1 O4'
_chemical_name_systematic        
(1S,4S,7S,8R)-8-Acetyl-7-(4-bromophenyl)-4-hydroxy-2-oxabicyclo(2.2.2)oct-5-en-3-one
_symmetry_cell_setting           monoclinic
_symmetry_space_group_name_H-M   'P 21'
_symmetry_Int_Tables_number      4
_space_group_name_Hall           'P 2yb'
loop_
_symmetry_equiv_pos_site_id
_symmetry_equiv_pos_as_xyz
1 x,y,z
2 -x,1/2+y,-z
_cell_length_a                   10.4903(7)
_cell_length_b                   10.5136(7)
_cell_length_c                   12.9337(8)
_cell_angle_alpha                90
_cell_angle_beta                 107.703(4)
_cell_angle_gamma                90
_cell_volume                     1358.92
_exptl_crystal_colour            colorless
_exptl_crystal_description       prism
_cell_formula_units_Z            4
loop_
_atom_site_label
_atom_site_type_symbol
_atom_site_fract_x
_atom_site_fract_y
_atom_site_fract_z
Br1 Br 0.62324(6) 0.68520(9) 0.73186(4)
O1 O 0.6161(4) 0.6587(4) 0.0110(3)
O2 O 0.5156(4) 0.9447(3) 0.1206(3)
O3 O 0.4949(4) 0.8944(4) -0.0513(3)
O4 O 0.3345(4) 0.6499(4) -0.0137(3)
C1 C 0.5048(5) 0.6759(6) 0.1557(4)
C2 C 0.4833(5) 0.7776(5) 0.2365(4)
C3 C 0.5704(6) 0.8929(5) 0.2311(4)
C4 C 0.7114(5) 0.8528(5) 0.2488(4)
C5 C 0.7223(5) 0.7714(5) 0.1735(4)
C6 C 0.5911(5) 0.7371(5) 0.0896(4)
C7 C 0.5287(5) 0.8629(5) 0.0433(4)
C8 C 0.3715(5) 0.6263(5) 0.0826(4)
C9 C 0.2898(5) 0.5467(6) 0.1364(4)
C10 C 0.5131(5) 0.7381(5) 0.3562(4)
C11 C 0.6089(5) 0.6501(5) 0.4068(4)
C12 C 0.6423(5) 0.6313(5) 0.5197(4)
C13 C 0.5760(5) 0.7008(6) 0.5775(4)
C14 C 0.4763(5) 0.7862(5) 0.5274(4)
C15 C 0.4461(5) 0.8045(6) 0.4173(4)
H1 H 0.539(5) 0.639(5) -0.026(4)
H2 H 0.5530 0.6065 0.1962
H3 H 0.3924 0.8036 0.2109
H4 H 0.5659 0.9548 0.2833
H5 H 0.7848 0.8813 0.3074
H6 H 0.8059 0.7377 0.1725
H7 H 0.1974 0.5570 0.0986
H8 H 0.3138 0.4598 0.1349
H9 H 0.3069 0.5734 0.2095
H10 H 0.6530 0.6018 0.3658
H11 H 0.7097 0.5719 0.5550
H12 H 0.4294 0.8317 0.5680
H13 H 0.3780 0.8635 0.3825
Br2 Br 0.92168(5) 0.32196(9) -0.24222(4)
O5 O 1.0876(4) 0.2765(3) 0.5061(3)
O6 O 0.7534(3) 0.3457(4) 0.3348(3)
O7 O 0.8457(4) 0.3750(4) 0.5119(3)
O8 O 0.9937(4) 0.5749(4) 0.3910(3)
C16 C 1.0214(5) 0.3699(5) 0.3268(4)
C17 C 0.8976(5) 0.3870(5) 0.2266(3)
C18 C 0.7876(5) 0.2964(5) 0.2392(4)
C19 C 0.8377(5) 0.1645(6) 0.2623(4)
C20 C 0.9408(5) 0.1554(5) 0.3520(4)
C21 C 0.9822(5) 0.2809(5) 0.4094(4)
C22 C 0.8572(5) 0.3386(6) 0.4268(4)
C23 C 1.0734(6) 0.4948(5) 0.3834(4)
C24 C 1.2202(6) 0.5118(6) 0.4319(4)
C25 C 0.9172(5) 0.3710(5) 0.1160(4)
C26 C 0.8405(5) 0.4473(5) 0.0320(4)
C27 C 0.8441(5) 0.4321(5) -0.0731(4)
C28 C 0.9252(5) 0.3418(6) -0.0949(4)
C29 C 1.0058(6) 0.2654(6) -0.0144(4)
C30 C 0.9988(5) 0.2794(6) 0.0920(4)
H14 H 1.0907 0.3305 0.3051
H15 H 0.8665 0.4715 0.2293
H16 H 0.7116 0.2992 0.1764
H17 H 0.8008 0.0942 0.2169
H18 H 0.9841 0.0773 0.3782
H19 H 1.2411 0.5998 0.4329
H20 H 1.2661 0.4672 0.3900
H21 H 1.2470 0.4797 0.5039
H22 H 0.7844 0.5107 0.0475
H23 H 0.7909 0.4850 -0.1293
H24 H 1.0633 0.2038 -0.0306
H25 H 1.0525 0.2267 0.1482
H26 H 1.0631 0.2155 0.5374
loop_
_geom_bond_atom_site_label_1
_geom_bond_atom_site_label_2
_geom_bond_site_symmetry_1
_geom_bond_site_symmetry_2
Br1 C13 1_555 1_555
Br2 C28 1_555 1_555
O1 C6 1_555 1_555
O2 C3 1_555 1_555
O3 C7 1_555 1_555
O4 C8 1_555 1_555
O5 C21 1_555 1_555
O6 C18 1_555 1_555
O7 C22 1_555 1_555
O8 C23 1_555 1_555
C1 C2 1_555 1_555
C2 C3 1_555 1_555
C3 C4 1_555 1_555
C4 C5 1_555 1_555
C5 C6 1_555 1_555
C6 C1 1_555 1_555
C7 O2 1_555 1_555
C8 C1 1_555 1_555
C9 C8 1_555 1_555
C10 C2 1_555 1_555
C11 C10 1_555 1_555
C12 C11 1_555 1_555
C13 C12 1_555 1_555
C14 C13 1_555 1_555
C15 C10 1_555 1_555
C16 C17 1_555 1_555
C17 C18 1_555 1_555
C18 C19 1_555 1_555
C19 C20 1_555 1_555
C20 C21 1_555 1_555
C21 C16 1_555 1_555
C22 O6 1_555 1_555
C23 C16 1_555 1_555
C24 C23 1_555 1_555
C25 C17 1_555 1_555
C26 C25 1_555 1_555
C27 C26 1_555 1_555
C28 C27 1_555 1_555
C29 C28 1_555 1_555
C30 C25 1_555 1_555
H1 O1 1_555 1_555
H2 C1 1_555 1_555
H3 C2 1_555 1_555
H4 C3 1_555 1_555
H5 C4 1_555 1_555
H6 C5 1_555 1_555
H7 C9 1_555 1_555
H8 C9 1_555 1_555
H9 C9 1_555 1_555
H10 C11 1_555 1_555
H11 C12 1_555 1_555
H12 C14 1_555 1_555
H13 C15 1_555 1_555
H14 C16 1_555 1_555
H15 C17 1_555 1_555
H16 C18 1_555 1_555
H17 C19 1_555 1_555
H18 C20 1_555 1_555
H19 C24 1_555 1_555
H20 C24 1_555 1_555
H21 C24 1_555 1_555
H22 C26 1_555 1_555
H23 C27 1_555 1_555
H24 C29 1_555 1_555
H25 C30 1_555 1_555
H26 O5 1_555 1_555
C6 C7 1_555 1_555
C14 C15 1_555 1_555
C21 C22 1_555 1_555
C29 C30 1_555 1_555

#END
