
#######################################################################
#
#                 Cambridge Crystallographic Data Centre
#                                CCDC 
#
#######################################################################
#
# If this CIF has been generated from an entry in the Cambridge 
# Structural Database, then it will include bibliographic, chemical, 
# crystal, experimental, refinement or atomic coordinate data resulting 
# from the CCDC's data processing and validation procedures.
#
#######################################################################

data_LOBDUD
_chemical_formula_moiety         'C20 H18 Br1 N1 O5 S1'
_chemical_name_systematic        
'Ethyl 8-(4-bromophenyl)-11,11a-dihydro-8H-pyrido[1,2-c][1,2,3]benzoxathiazine-9-carboxylate 6,6-dioxide'
_symmetry_cell_setting           monoclinic
_symmetry_space_group_name_H-M   'P 21/c'
_symmetry_Int_Tables_number      14
_space_group_name_Hall           '-P 2ybc'
loop_
_symmetry_equiv_pos_site_id
_symmetry_equiv_pos_as_xyz
1 x,y,z
2 -x,1/2+y,1/2-z
3 -x,-y,-z
4 x,1/2-y,1/2+z
_cell_length_a                   12.502(4)
_cell_length_b                   12.911(4)
_cell_length_c                   12.484(4)
_cell_angle_alpha                90
_cell_angle_beta                 93.94(4)
_cell_angle_gamma                90
_cell_volume                     2010.32
_exptl_crystal_colour            colorless
_exptl_crystal_description       block
_cell_formula_units_Z            4
loop_
_atom_site_label
_atom_site_type_symbol
_atom_site_fract_x
_atom_site_fract_y
_atom_site_fract_z
Br1 Br -0.04977(3) 0.67599(3) 0.10065(3)
S1 S 0.54771(5) 0.49071(4) 0.34208(4)
O1 O 0.60835(14) 0.53354(13) 0.24323(14)
O2 O 0.60137(15) 0.39883(14) 0.37945(14)
O3 O 0.54058(14) 0.57628(14) 0.41251(13)
O4 O 0.24579(15) 0.25924(14) 0.52791(14)
O5 O 0.20865(15) 0.42892(15) 0.50925(14)
N1 N 0.43076(16) 0.46921(15) 0.28027(15)
C1 C 0.6096(2) 0.46653(19) 0.15361(19)
C2 C 0.6977(2) 0.4752(2) 0.0933(2)
H1 H 0.7531 0.5235 0.1124
C3 C 0.7036(3) 0.4120(2) 0.0042(2)
H2 H 0.7628 0.4175 -0.0393
C4 C 0.6227(3) 0.3405(2) -0.0213(2)
H3 H 0.6275 0.2960 -0.0814
C5 C 0.5356(2) 0.3340(2) 0.0401(2)
H4 H 0.4807 0.2851 0.0214
C6 C 0.5264(2) 0.39806(19) 0.12937(19)
C7 C 0.43053(19) 0.38739(19) 0.19606(18)
H5 H 0.3650 0.3983 0.1468
C8 C 0.4230(2) 0.27816(19) 0.24322(19)
H6 H 0.3926 0.2308 0.1867
H7 H 0.4961 0.2535 0.2657
C9 C 0.3558(2) 0.27353(19) 0.33691(19)
H8 H 0.3391 0.2071 0.3639
C10 C 0.31744(19) 0.35589(19) 0.38541(18)
C11 C 0.33774(19) 0.46551(18) 0.34857(18)
H9 H 0.3562 0.5084 0.4139
C12 C 0.2417(2) 0.51543(19) 0.28743(19)
C13 C 0.2271(2) 0.6217(2) 0.2950(2)
H10 H 0.2770 0.6617 0.3382
C14 C 0.1409(3) 0.6701(2) 0.2404(3)
H11 H 0.1315 0.7429 0.2460
C15 C 0.0690(2) 0.6113(2) 0.1780(2)
C16 C 0.0811(2) 0.5060(2) 0.1680(2)
H12 H 0.0312 0.4668 0.1238
C17 C 0.1678(2) 0.4579(2) 0.2238(2)
H13 H 0.1765 0.3850 0.2184
C18 C 0.2546(2) 0.3405(2) 0.48110(19)
C19 C 0.1468(2) 0.4262(3) 0.6037(2)
H14 H 0.1907 0.3982 0.6661
H15 H 0.0825 0.3821 0.5905
C20 C 0.1150(3) 0.5359(3) 0.6243(3)
H16 H 0.0720 0.5383 0.6870
H17 H 0.0726 0.5628 0.5614
H18 H 0.1794 0.5783 0.6379
loop_
_geom_bond_atom_site_label_1
_geom_bond_atom_site_label_2
_geom_bond_site_symmetry_1
_geom_bond_site_symmetry_2
Br1 C15 1_555 1_555
S1 O1 1_555 1_555
O1 C1 1_555 1_555
O2 S1 1_555 1_555
O3 S1 1_555 1_555
O4 C18 1_555 1_555
O5 C18 1_555 1_555
N1 S1 1_555 1_555
C1 C2 1_555 1_555
C2 H1 1_555 1_555
C3 C2 1_555 1_555
H2 C3 1_555 1_555
C4 C3 1_555 1_555
H3 C4 1_555 1_555
C5 C4 1_555 1_555
H4 C5 1_555 1_555
C6 C1 1_555 1_555
C7 N1 1_555 1_555
H5 C7 1_555 1_555
C8 C7 1_555 1_555
H6 C8 1_555 1_555
H7 C8 1_555 1_555
C9 C8 1_555 1_555
H8 C9 1_555 1_555
C10 C9 1_555 1_555
C11 N1 1_555 1_555
H9 C11 1_555 1_555
C12 C11 1_555 1_555
C13 C12 1_555 1_555
H10 C13 1_555 1_555
C14 C13 1_555 1_555
H11 C14 1_555 1_555
C15 C14 1_555 1_555
C16 C15 1_555 1_555
H12 C16 1_555 1_555
C17 C12 1_555 1_555
H13 C17 1_555 1_555
C18 C10 1_555 1_555
C19 O5 1_555 1_555
H14 C19 1_555 1_555
H15 C19 1_555 1_555
C20 C19 1_555 1_555
H16 C20 1_555 1_555
H17 C20 1_555 1_555
H18 C20 1_555 1_555
C5 C6 1_555 1_555
C6 C7 1_555 1_555
C10 C11 1_555 1_555
C16 C17 1_555 1_555

#END
