
#######################################################################
#
#                 Cambridge Crystallographic Data Centre
#                                CCDC 
#
#######################################################################
#
# If this CIF has been generated from an entry in the Cambridge 
# Structural Database, then it will include bibliographic, chemical, 
# crystal, experimental, refinement or atomic coordinate data resulting 
# from the CCDC's data processing and validation procedures.
#
#######################################################################

data_LOBFIS
_chemical_formula_moiety         'C12 H60 Li6 N6 O42 P12'
_chemical_name_systematic        
hexakis(\m~2~-1-Ammonioethylidenediphosphonato)-hexaaqua-hexa-lithium
_symmetry_cell_setting           rhombohedral
_symmetry_space_group_name_H-M   'R -3'
_symmetry_Int_Tables_number      148
_space_group_name_Hall           '-R 3'
loop_
_symmetry_equiv_pos_site_id
_symmetry_equiv_pos_as_xyz
1 x,y,z
2 -y,x-y,z
3 -x+y,-x,z
4 2/3+x,1/3+y,1/3+z
5 2/3-y,1/3+x-y,1/3+z
6 2/3-x+y,1/3-x,1/3+z
7 1/3+x,2/3+y,2/3+z
8 1/3-y,2/3+x-y,2/3+z
9 1/3-x+y,2/3-x,2/3+z
10 -x,-y,-z
11 y,-x+y,-z
12 x-y,x,-z
13 1/3-x,2/3-y,2/3-z
14 1/3+y,2/3-x+y,2/3-z
15 1/3+x-y,2/3+x,2/3-z
16 2/3-x,1/3-y,1/3-z
17 2/3+y,1/3-x+y,1/3-z
18 2/3+x-y,1/3+x,1/3-z
_cell_length_a                   24.717(3)
_cell_length_b                   24.717(3)
_cell_length_c                   7.2978(18)
_cell_angle_alpha                90
_cell_angle_beta                 90
_cell_angle_gamma                120.00
_cell_volume                     3861.13
_exptl_crystal_colour            colorless
_exptl_crystal_description       rod
_chemical_melting_point          'decomposes above 240 deg.C'
_cell_formula_units_Z            3
loop_
_atom_site_label
_atom_site_type_symbol
_atom_site_fract_x
_atom_site_fract_y
_atom_site_fract_z
P1 P 0.089037(18) 0.842407(18) 0.02525(5)
P2 P 0.064146(18) 0.834569(19) 0.43971(5)
O1 O 0.10556(6) 0.80900(6) 0.49662(16)
O2 O 0.12973(5) 0.88978(5) -0.11544(15)
O3 O -0.00210(5) 0.78762(6) 0.39624(16)
O4 O 0.06557(6) 0.88042(6) 0.58991(18)
O5 O 0.11281(6) 0.79547(6) 0.06603(18)
O6 O 0.02097(5) 0.80561(6) -0.01385(16)
N1 N 0.16738(6) 0.92820(6) 0.2769(2)
C1 C 0.09852(7) 0.88595(7) 0.2401(2)
C2 C 0.06847(9) 0.92676(9) 0.2145(3)
H1 H 0.1820(9) 0.9574(9) 0.196(3)
H2 H 0.0771(10) 0.9558(10) 0.317(3)
H3 H 0.0828(11) 0.9514(11) 0.105(3)
O7 O 0.28991(8) 0.96299(7) -0.0740(2)
Li1 Li 0.21182(14) 0.95935(15) -0.1714(4)
H4 H 0.0251(12) 0.9007(11) 0.210(3)
H5 H 0.1874(10) 0.9066(11) 0.265(3)
H6 H 0.1739(11) 0.9468(11) 0.399(4)
H7 H 0.2790(15) 0.9324(14) -0.018(4)
H8 H 0.3041(15) 0.9894(14) -0.007(5)
H9 H 0.1474(13) 0.8109(12) 0.079(4)
H10 H 0.0840(13) 0.8851(14) 0.666(4)
P1K P 0.246630(25) 1.089037(18) -0.02525(5)
P1A P 0.157593(18) 1.246630(25) 0.02525(5)
P1I P -0.089037(18) 1.157593(18) -0.02525(5)
P1B P -0.246630(25) 0.910963(18) 0.02525(5)
P1J P -0.157593(18) 0.753370(25) -0.02525(5)
P2K P 0.229577(26) 1.064146(18) -0.43971(5)
P2A P 0.165431(19) 1.229577(26) 0.43971(5)
P2I P -0.064146(18) 1.165431(19) -0.43971(5)
P2B P -0.229577(26) 0.935854(18) 0.43971(5)
P2J P -0.165431(19) 0.770423(26) -0.43971(5)
O1K O 0.29656(8) 1.10556(6) -0.49662(16)
O1A O 0.19100(6) 1.29656(8) 0.49662(16)
O1I O -0.10556(6) 1.19100(6) -0.49662(16)
O1B O -0.29656(8) 0.89444(6) 0.49662(16)
O1J O -0.19100(6) 0.70344(8) -0.49662(16)
O2K O 0.23995(7) 1.12973(5) 0.11544(15)
O2A O 0.11022(5) 1.23995(7) -0.11544(15)
O2I O -0.12973(5) 1.11022(5) 0.11544(15)
O2B O -0.23995(7) 0.87027(5) -0.11544(15)
O2J O -0.11022(5) 0.76005(7) 0.11544(15)
O3K O 0.21028(8) 0.99790(5) -0.39624(16)
O3A O 0.21238(6) 1.21028(8) 0.39624(16)
O3I O 0.00210(5) 1.21238(6) -0.39624(16)
O3B O -0.21028(8) 1.00210(5) 0.39624(16)
O3J O -0.21238(6) 0.78972(8) -0.39624(16)
O4K O 0.18515(8) 1.06557(6) -0.58991(18)
O4A O 0.11958(6) 1.18515(8) 0.58991(18)
O4I O -0.06557(6) 1.11958(6) -0.58991(18)
O4B O -0.18515(8) 0.93443(6) 0.58991(18)
O4J O -0.11958(6) 0.81485(8) -0.58991(18)
O5J O -0.20453(6) 0.68266(8) -0.06603(18)
O5B O -0.31734(8) 0.88719(6) 0.06603(18)
O5I O -0.11281(6) 1.20453(6) -0.06603(18)
O5A O 0.20453(6) 1.31734(8) 0.06603(18)
O5K O 0.31734(8) 1.11281(6) -0.06603(18)
O6J O -0.19439(6) 0.78464(8) 0.01385(16)
O6B O -0.21536(8) 0.97903(5) -0.01385(16)
O6I O -0.02097(5) 1.19439(6) 0.01385(16)
O6A O 0.19439(6) 1.21536(8) -0.01385(16)
O6K O 0.21536(8) 1.02097(5) 0.01385(16)
N1J N -0.07180(6) 0.76082(8) -0.2769(2)
N1B N -0.23918(8) 0.83262(6) 0.2769(2)
N1I N -0.16738(6) 1.07180(6) -0.2769(2)
N1A N 0.07180(6) 1.23918(8) 0.2769(2)
N1K N 0.23918(8) 1.16738(6) -0.2769(2)
C1K C 0.21257(10) 1.09852(7) -0.2401(2)
C1A C 0.11405(7) 1.21257(10) 0.2401(2)
C1I C -0.09852(7) 1.11405(7) -0.2401(2)
C1B C -0.21257(10) 0.90148(7) 0.2401(2)
C1J C -0.11405(7) 0.78743(10) -0.2401(2)
C2J C -0.07324(9) 0.85829(13) -0.2145(3)
C2B C -0.14171(13) 0.93153(9) 0.2145(3)
C2I C -0.06847(9) 1.07324(9) -0.2145(3)
C2A C 0.07324(9) 1.14171(13) 0.2145(3)
C2K C 0.14171(13) 1.06847(9) -0.2145(3)
H1J H -0.0426(9) 0.7754(13) -0.196(3)
H1B H -0.2246(13) 0.8180(9) 0.196(3)
H1I H -0.1820(9) 1.0426(9) -0.196(3)
H1A H 0.0426(9) 1.2246(13) 0.196(3)
H1K H 0.2246(13) 1.1820(9) -0.196(3)
H2J H -0.0442(10) 0.8787(14) -0.317(3)
H2B H -0.1213(14) 0.9229(10) 0.317(3)
H2I H -0.0771(10) 1.0442(10) -0.317(3)
H2A H 0.0442(10) 1.1213(14) 0.317(3)
H2K H 0.1213(14) 1.0771(10) -0.317(3)
H3J H -0.0486(11) 0.8686(16) -0.105(3)
H3B H -0.1314(16) 0.9172(11) 0.105(3)
H3I H -0.0828(11) 1.0486(11) -0.105(3)
H3A H 0.0486(11) 1.1314(16) 0.105(3)
H3K H 0.1314(16) 1.0828(11) -0.105(3)
O7J O -0.03701(7) 0.67308(11) 0.0740(2)
O7B O -0.32692(11) 0.71009(8) -0.0740(2)
O7I O -0.28991(8) 1.03701(7) 0.0740(2)
O7A O 0.03701(7) 1.32692(11) -0.0740(2)
O7K O 0.32692(11) 1.28991(8) 0.0740(2)
Li1K Li 0.25247(21) 1.21182(14) 0.1714(4)
Li1A Li 0.04065(15) 1.25247(21) -0.1714(4)
Li1I Li -0.21182(14) 1.04065(15) 0.1714(4)
Li1B Li -0.25247(21) 0.78818(14) -0.1714(4)
Li1J Li -0.04065(15) 0.74753(21) 0.1714(4)
H4J H -0.0993(11) 0.8756(16) -0.210(3)
H4B H -0.1244(16) 0.9749(12) 0.210(3)
H4I H -0.0251(12) 1.0993(11) -0.210(3)
H4A H 0.0993(11) 1.1244(16) 0.210(3)
H4K H 0.1244(16) 1.0251(12) -0.210(3)
H5J H -0.0934(11) 0.7192(15) -0.265(3)
H5B H -0.2808(15) 0.8126(10) 0.265(3)
H5I H -0.1874(10) 1.0934(11) -0.265(3)
H5A H 0.0934(11) 1.2808(15) 0.265(3)
H5K H 0.2808(15) 1.1874(10) -0.265(3)
H6J H -0.0532(11) 0.7729(16) -0.399(4)
H6B H -0.2271(16) 0.8261(11) 0.399(4)
H6I H -0.1739(11) 1.0532(11) -0.399(4)
H6A H 0.0532(11) 1.2271(16) 0.399(4)
H6K H 0.2271(16) 1.1739(11) -0.399(4)
H7J H -0.0676(14) 0.6534(21) 0.018(4)
H7B H -0.3466(21) 0.7210(15) -0.018(4)
H7I H -0.2790(15) 1.0676(14) 0.018(4)
H7A H 0.0676(14) 1.3466(21) -0.018(4)
H7K H 0.3466(21) 1.2790(15) 0.018(4)
H8J H -0.0106(14) 0.6853(21) 0.007(5)
H8B H -0.3147(21) 0.6959(15) -0.007(5)
H8I H -0.3041(15) 1.0106(14) 0.007(5)
H8A H 0.0106(14) 1.3147(21) -0.007(5)
H8K H 0.3147(21) 1.3041(15) 0.007(5)
H9J H -0.1891(12) 0.6635(18) -0.079(4)
H9B H -0.3365(18) 0.8526(13) 0.079(4)
H9I H -0.1474(13) 1.1891(12) -0.079(4)
H9A H 0.1891(12) 1.3365(18) 0.079(4)
H9K H 0.3365(18) 1.1474(13) -0.079(4)
H10K H 0.1989(19) 1.0840(13) -0.666(4)
H10A H 0.1149(14) 1.1989(19) 0.666(4)
H10I H -0.0840(13) 1.1149(14) -0.666(4)
H10B H -0.1989(19) 0.9160(13) 0.666(4)
H10J H -0.1149(14) 0.8011(19) -0.666(4)
loop_
_geom_bond_atom_site_label_1
_geom_bond_atom_site_label_2
_geom_bond_site_symmetry_1
_geom_bond_site_symmetry_2
P1 O2 1_555 1_555
P2 O1 1_555 1_555
O2 Li1 1_555 1_555
O3 P2 1_555 1_555
O4 P2 1_555 1_555
O5 P1 1_555 1_555
O6 P1 1_555 1_555
N1 C1 1_555 1_555
C1 P1 1_555 1_555
C2 C1 1_555 1_555
H1 N1 1_555 1_555
H2 C2 1_555 1_555
H3 C2 1_555 1_555
O7 Li1 1_555 1_555
Li1 O3K 1_555 1_555
H4 C2 1_555 1_555
H5 N1 1_555 1_555
H6 N1 1_555 1_555
H7 O7 1_555 1_555
H8 O7 1_555 1_555
H9 O5 1_555 1_555
H10 O4 1_555 1_555
P1K O2K 1_555 1_555
P1A O2A 1_555 1_555
P1I O2I 1_555 1_555
P1B O2B 1_555 1_555
P1J O2J 1_555 1_555
P2K O1K 1_555 1_555
P2A O1A 1_555 1_555
P2I O1I 1_555 1_555
P2B O1B 1_555 1_555
P2J O1J 1_555 1_555
O2K Li1K 1_555 1_555
O2A Li1A 1_555 1_555
O2I Li1I 1_555 1_555
O2B Li1B 1_555 1_555
O2J Li1J 1_555 1_555
O3K P2K 1_555 1_555
O3A P2A 1_555 1_555
O3I P2I 1_555 1_555
O3B P2B 1_555 1_555
O3J P2J 1_555 1_555
O4K P2K 1_555 1_555
O4A P2A 1_555 1_555
O4I P2I 1_555 1_555
O4B P2B 1_555 1_555
O4J P2J 1_555 1_555
O5J P1J 1_555 1_555
O5B P1B 1_555 1_555
O5I P1I 1_555 1_555
O5A P1A 1_555 1_555
O5K P1K 1_555 1_555
O6J P1J 1_555 1_555
O6B P1B 1_555 1_555
O6I P1I 1_555 1_555
O6A P1A 1_555 1_555
O6K Li1 1_555 1_555
N1J C1J 1_555 1_555
N1B C1B 1_555 1_555
N1I C1I 1_555 1_555
N1A C1A 1_555 1_555
N1K C1K 1_555 1_555
C1K P1K 1_555 1_555
C1A P1A 1_555 1_555
C1I P1I 1_555 1_555
C1B P1B 1_555 1_555
C1J P1J 1_555 1_555
C2J C1J 1_555 1_555
C2B C1B 1_555 1_555
C2I C1I 1_555 1_555
C2A C1A 1_555 1_555
C2K C1K 1_555 1_555
H1J N1J 1_555 1_555
H1B N1B 1_555 1_555
H1I N1I 1_555 1_555
H1A N1A 1_555 1_555
H1K N1K 1_555 1_555
H2J C2J 1_555 1_555
H2B C2B 1_555 1_555
H2I C2I 1_555 1_555
H2A C2A 1_555 1_555
H2K C2K 1_555 1_555
H3J C2J 1_555 1_555
H3B C2B 1_555 1_555
H3I C2I 1_555 1_555
H3A C2A 1_555 1_555
H3K C2K 1_555 1_555
O7J Li1J 1_555 1_555
O7B Li1B 1_555 1_555
O7I Li1I 1_555 1_555
O7A Li1A 1_555 1_555
O7K Li1K 1_555 1_555
Li1K O3A 1_555 1_555
Li1A O3I 1_555 1_555
Li1I O3B 1_555 1_555
Li1B O3J 1_555 1_555
Li1J O3 1_555 1_555
H4J C2J 1_555 1_555
H4B C2B 1_555 1_555
H4I C2I 1_555 1_555
H4A C2A 1_555 1_555
H4K C2K 1_555 1_555
H5J N1J 1_555 1_555
H5B N1B 1_555 1_555
H5I N1I 1_555 1_555
H5A N1A 1_555 1_555
H5K N1K 1_555 1_555
H6J N1J 1_555 1_555
H6B N1B 1_555 1_555
H6I N1I 1_555 1_555
H6A N1A 1_555 1_555
H6K N1K 1_555 1_555
H7J O7J 1_555 1_555
H7B O7B 1_555 1_555
H7I O7I 1_555 1_555
H7A O7A 1_555 1_555
H7K O7K 1_555 1_555
H8J O7J 1_555 1_555
H8B O7B 1_555 1_555
H8I O7I 1_555 1_555
H8A O7A 1_555 1_555
H8K O7K 1_555 1_555
H9J O5J 1_555 1_555
H9B O5B 1_555 1_555
H9I O5I 1_555 1_555
H9A O5A 1_555 1_555
H9K O5K 1_555 1_555
H10K O4K 1_555 1_555
H10A O4A 1_555 1_555
H10I O4I 1_555 1_555
H10B O4B 1_555 1_555
H10J O4J 1_555 1_555
P2 C1 1_555 1_555
O6 Li1J 1_555 1_555
P1K O6K 1_555 1_555
P2K C1K 1_555 1_555
P2A C1A 1_555 1_555
P2I C1I 1_555 1_555
P2B C1B 1_555 1_555
P2J C1J 1_555 1_555
O6J Li1B 1_555 1_555
O6B Li1I 1_555 1_555
O6I Li1A 1_555 1_555
O6A Li1K 1_555 1_555

#END
