
#######################################################################
#
#                 Cambridge Crystallographic Data Centre
#                                CCDC 
#
#######################################################################
#
# If this CIF has been generated from an entry in the Cambridge 
# Structural Database, then it will include bibliographic, chemical, 
# crystal, experimental, refinement or atomic coordinate data resulting 
# from the CCDC's data processing and validation procedures.
#
#######################################################################

data_LOBGEQ
_chemical_formula_moiety         'C20 H18 Cl1 N1 O5 S1'
_chemical_name_systematic        
'Ethyl 8-(3-chlorophenyl)-11,11a-dihydro-8H-pyrido[1,2-c][1,2,3]benzoxathiazine-9-carboxylate 6,6-dioxide'
_symmetry_cell_setting           monoclinic
_symmetry_space_group_name_H-M   'P 21/c'
_symmetry_Int_Tables_number      14
_space_group_name_Hall           '-P 2ybc'
loop_
_symmetry_equiv_pos_site_id
_symmetry_equiv_pos_as_xyz
1 x,y,z
2 -x,1/2+y,1/2-z
3 -x,-y,-z
4 x,1/2-y,1/2+z
_cell_length_a                   11.620(3)
_cell_length_b                   13.424(3)
_cell_length_c                   12.416(3)
_cell_angle_alpha                90
_cell_angle_beta                 99.214(4)
_cell_angle_gamma                90
_cell_volume                     1911.74
_exptl_crystal_colour            colorless
_exptl_crystal_description       block
_cell_formula_units_Z            4
loop_
_atom_site_label
_atom_site_type_symbol
_atom_site_fract_x
_atom_site_fract_y
_atom_site_fract_z
S1 S 1.04786(4) 0.51079(3) 0.34184(3)
O1 O 1.10415(11) 0.46555(9) 0.24375(10)
O2 O 1.03218(11) 0.42820(9) 0.40937(10)
O3 O 1.11770(11) 0.59273(10) 0.38614(10)
O4 O 0.71833(14) 0.76538(11) 0.48753(12)
O5 O 0.69467(12) 0.59966(10) 0.49417(11)
N1 N 0.92240(12) 0.54359(11) 0.27386(11)
C1 C 1.11047(15) 0.53026(13) 0.15512(14)
C2 C 1.20136(16) 0.51384(14) 0.09769(15)
H1 H 1.2550 0.4610 0.1174
C3 C 1.21254(17) 0.57586(16) 0.01086(16)
H2 H 1.2734 0.5649 -0.0306
C4 C 1.13545(18) 0.65347(17) -0.01553(16)
H3 H 1.1451 0.6974 -0.0734
C5 C 1.04369(17) 0.66771(16) 0.04228(15)
H4 H 0.9908 0.7212 0.0231
C6 C 1.02836(15) 0.60450(13) 0.12806(13)
C7 C 0.92685(15) 0.62122(13) 0.18913(13)
H5 H 0.8537 0.6150 0.1349
C8 C 0.92897(17) 0.72648(13) 0.23643(15)
H6 H 1.0100 0.7438 0.2687
H7 H 0.9030 0.7743 0.1768
C9 C 0.85271(16) 0.73630(13) 0.32135(14)
H8 H 0.8372 0.8015 0.3450
C10 C 0.80484(15) 0.66032(13) 0.36647(13)
C11 C 0.82349(14) 0.55286(13) 0.33652(13)
H9 H 0.8446 0.5145 0.4059
C12 C 0.71749(15) 0.50325(13) 0.27068(13)
C13 C 0.63146(17) 0.55605(16) 0.20457(16)
H10 H 0.6363 0.6266 0.2006
C14 C 0.53764(19) 0.50617(19) 0.14372(19)
H11 H 0.4792 0.5431 0.0983
C15 C 0.52862(19) 0.40393(19) 0.14863(19)
H12 H 0.4645 0.3698 0.1076
C16 C 0.6151(2) 0.35270(17) 0.2147(2)
C17 C 0.73496(16) 0.68260(14) 0.45434(15)
C18 C 0.62843(19) 0.61121(17) 0.58358(17)
H13 H 0.5540 0.6462 0.5583
H14 H 0.6736 0.6501 0.6437
C19 C 0.6063(3) 0.5100(3) 0.6206(3)
H15 H 0.5743 0.4690 0.5576
H16 H 0.5504 0.5130 0.6718
H17 H 0.6795 0.4807 0.6571
C20 C 0.7089(2) 0.40002(15) 0.27576(18)
H18 H 0.7671 0.3625 0.3208
Cl2 Cl 0.5894(10) 0.2287(6) 0.2350(10)
Cl1? Cl 0.6245(17) 0.2183(4) 0.2082(11)
H19? H 0.6658 0.6630 0.6343
H20? H 0.6304 0.5477 0.6245
C21? C 0.5068(6) 0.6392(7) 0.5457(6)
H21? H 0.5028 0.7099 0.5260
H22? H 0.4608 0.6272 0.6040
H23? H 0.4756 0.5991 0.4817
loop_
_geom_bond_atom_site_label_1
_geom_bond_atom_site_label_2
_geom_bond_site_symmetry_1
_geom_bond_site_symmetry_2
S1 O1 1_555 1_555
O1 C1 1_555 1_555
O2 S1 1_555 1_555
O3 S1 1_555 1_555
O4 C17 1_555 1_555
O5 C17 1_555 1_555
N1 S1 1_555 1_555
C1 C2 1_555 1_555
C2 H1 1_555 1_555
C3 C2 1_555 1_555
H2 C3 1_555 1_555
C4 C3 1_555 1_555
H3 C4 1_555 1_555
C5 C4 1_555 1_555
H4 C5 1_555 1_555
C6 C1 1_555 1_555
C7 N1 1_555 1_555
H5 C7 1_555 1_555
C8 C7 1_555 1_555
H6 C8 1_555 1_555
H7 C8 1_555 1_555
C9 C8 1_555 1_555
H8 C9 1_555 1_555
C10 C9 1_555 1_555
C11 N1 1_555 1_555
H9 C11 1_555 1_555
C12 C11 1_555 1_555
C13 C12 1_555 1_555
H10 C13 1_555 1_555
C14 C13 1_555 1_555
H11 C14 1_555 1_555
C15 C14 1_555 1_555
H12 C15 1_555 1_555
C16 C15 1_555 1_555
C17 C10 1_555 1_555
C18 O5 1_555 1_555
H13 C18 1_555 1_555
H14 C18 1_555 1_555
C19 C18 1_555 1_555
H15 C19 1_555 1_555
H16 C19 1_555 1_555
H17 C19 1_555 1_555
C20 C12 1_555 1_555
H18 C20 1_555 1_555
Cl2 C16 1_555 1_555
C5 C6 1_555 1_555
C6 C7 1_555 1_555
C10 C11 1_555 1_555
C16 C20 1_555 1_555

#END
