
#######################################################################
#
#                 Cambridge Crystallographic Data Centre
#                                CCDC 
#
#######################################################################
#
# If this CIF has been generated from an entry in the Cambridge 
# Structural Database, then it will include bibliographic, chemical, 
# crystal, experimental, refinement or atomic coordinate data resulting 
# from the CCDC's data processing and validation procedures.
#
#######################################################################

data_LOBHUF01
_chemical_formula_moiety         'C30 H27 N3 O12 P4'
_chemical_name_systematic        
tris(5-Phenyl-3,7-dioxo-4,6-dioxa-1-aza-5-phosphabicyclo(3.3.0)octan-5-yl)phosphorane
_symmetry_cell_setting           orthorhombic
_symmetry_space_group_name_H-M   'P 21 21 21'
_symmetry_Int_Tables_number      19
_space_group_name_Hall           'P 2ac 2ab'
loop_
_symmetry_equiv_pos_site_id
_symmetry_equiv_pos_as_xyz
1 x,y,z
2 1/2-x,-y,1/2+z
3 1/2+x,1/2-y,-z
4 -x,1/2+y,1/2-z
_cell_length_a                   9.4387(1)
_cell_length_b                   18.424(2)
_cell_length_c                   19.358(2)
_cell_angle_alpha                90
_cell_angle_beta                 90
_cell_angle_gamma                90
_cell_volume                     3366.33
_exptl_crystal_colour            colorless
_chemical_melting_point          '216 deg.C'
_cell_formula_units_Z            4
loop_
_atom_site_label
_atom_site_type_symbol
_atom_site_fract_x
_atom_site_fract_y
_atom_site_fract_z
P1 P -0.7410(2) 0.0459(1) -0.0671(1)
P2 P -0.8641(2) -0.0627(1) -0.2075(1)
P3 P -0.5370(2) -0.1052(1) -0.1233(1)
P4 P -0.6682(2) -0.0124(1) -0.1625(1)
C1 C -0.9295(7) 0.0071(5) 0.0292(4)
C2 C -0.9905(7) 0.1121(4) -0.0487(4)
C3 C -1.0003(8) -0.1820(5) -0.1722(4)
C4 C -0.8478(9) -0.1873(5) -0.2767(4)
C5 C -0.5818(7) -0.1950(4) -0.0170(3)
C6 C -0.3922(6) -0.0973(4) -0.0058(3)
C7 C -0.5892(5) 0.0983(8) -0.0395(4)
C8 C -0.5143(7) 0.1416(4) -0.0860(3)
C9 C -0.4029(7) 0.1847(3) -0.0629(4)
C10 C -0.3665(6) 0.1849(3) 0.0067(4)
C11 C -0.4414(7) 0.1421(4) 0.0532(3)
C12 C -0.5528(6) 0.0991(3) 0.0301(3)
C13 C -0.8072(9) -0.0448(6) 0.0352(4)
C14 C -0.9234(8) 0.1412(6) -0.1121(5)
C15 C -0.9739(5) 0.0100(2) -0.2405(2)
C16 C -0.9205(4) 0.0574(3) -0.2899(2)
C17 C -1.0078(7) 0.1101(2) -0.3187(2)
C18 C -1.1485(6) 0.1153(3) -0.2981(3)
C19 C -1.2019(4) 0.0679(3) -0.2487(3)
C20 C -1.1146(6) 0.0153(3) -0.2199(2)
C21 C -0.7566(9) -0.1341(5) -0.3153(5)
C22 C -1.0166(8) -0.1306(5) -0.1134(5)
C23 C -0.4519(4) -0.1457(3) -0.1963(2)
C24 C -0.4143(5) -0.1050(2) -0.2539(3)
C25 C -0.3458(5) -0.1380(4) -0.3092(2)
C26 C -0.3149(5) -0.2117(4) -0.3069(3)
C27 C -0.3525(5) -0.2524(2) -0.2493(4)
C28 C -0.4210(5) -0.2195(3) -0.1940(3)
C29 C -0.3417(7) -0.0372(4) -0.0511(4)
C30 C -0.6893(8) -0.2107(4) -0.0698(4)
O1 O -0.7060(5) -0.0278(3) -0.0127(2)
O2 O -0.7982(5) 0.1130(3) -0.1262(2)
O3 O -0.7955(6) -0.0939(4) 0.0744(3)
O4 O -0.9723(5) 0.1916(3) -0.1469(3)
O5 O -0.7582(4) -0.0688(3) -0.2827(2)
O6 O -0.9504(4) -0.0672(3) -0.1277(2)
O7 O -0.6882(6) -0.1445(3) -0.3661(3)
O8 O -1.0745(6) -0.1409(3) -0.0594(3)
O9 O -0.4067(4) -0.0381(2) -0.1120(2)
O10 O -0.6777(4) -0.1677(2) -0.1250(2)
O11 O -0.2549(5) 0.0068(3) -0.0349(2)
O12 O -0.7791(5) -0.2571(3) -0.0659(3)
N1 N -0.8924(5) 0.0570(4) -0.0263(3)
N2 N -0.9179(6) -0.1461(3) -0.2230(3)
N3 N -0.4918(5) -0.1382(3) -0.0473(3)
loop_
_geom_bond_atom_site_label_1
_geom_bond_atom_site_label_2
_geom_bond_site_symmetry_1
_geom_bond_site_symmetry_2
P1 P4 1_555 1_555
P2 P4 1_555 1_555
P3 P4 1_555 1_555
C1 C13 1_555 1_555
C2 C14 1_555 1_555
C3 C22 1_555 1_555
C4 C21 1_555 1_555
C5 C30 1_555 1_555
C6 C29 1_555 1_555
C7 P1 1_555 1_555
C8 C7 1_555 1_555
C9 C8 1_555 1_555
C10 C9 1_555 1_555
C11 C10 1_555 1_555
C12 C7 1_555 1_555
C13 O1 1_555 1_555
C14 O2 1_555 1_555
C15 P2 1_555 1_555
C16 C15 1_555 1_555
C17 C16 1_555 1_555
C18 C17 1_555 1_555
C19 C18 1_555 1_555
C20 C15 1_555 1_555
C21 O5 1_555 1_555
C22 O6 1_555 1_555
C23 P3 1_555 1_555
C24 C23 1_555 1_555
C25 C24 1_555 1_555
C26 C25 1_555 1_555
C27 C26 1_555 1_555
C28 C23 1_555 1_555
C29 O9 1_555 1_555
C30 O10 1_555 1_555
O1 P1 1_555 1_555
O2 P1 1_555 1_555
O3 C13 1_555 1_555
O4 C14 1_555 1_555
O5 P2 1_555 1_555
O6 P2 1_555 1_555
O7 C21 1_555 1_555
O8 C22 1_555 1_555
O9 P3 1_555 1_555
O10 P3 1_555 1_555
O11 C29 1_555 1_555
O12 C30 1_555 1_555
N1 P1 1_555 1_555
N2 P2 1_555 1_555
N3 P3 1_555 1_555
C1 N1 1_555 1_555
C2 N1 1_555 1_555
C3 N2 1_555 1_555
C4 N2 1_555 1_555
C5 N3 1_555 1_555
C6 N3 1_555 1_555
C11 C12 1_555 1_555
C19 C20 1_555 1_555
C27 C28 1_555 1_555

#END
