
#######################################################################
#
#                 Cambridge Crystallographic Data Centre
#                                CCDC 
#
#######################################################################
#
# If this CIF has been generated from an entry in the Cambridge 
# Structural Database, then it will include bibliographic, chemical, 
# crystal, experimental, refinement or atomic coordinate data resulting 
# from the CCDC's data processing and validation procedures.
#
#######################################################################

data_LOBJIV
_chemical_formula_moiety         'C16 H28 N2 O4'
_chemical_name_systematic        
(2S,3'R,4'S,5R)-2,5-Dihydro-5-isopropyl-3,3',4',6-tetramethoxypyrazine-spiro-2-cyclohexane
_symmetry_cell_setting           monoclinic
_symmetry_space_group_name_H-M   'P 21'
_symmetry_Int_Tables_number      4
_space_group_name_Hall           'P 2yb'
loop_
_symmetry_equiv_pos_site_id
_symmetry_equiv_pos_as_xyz
1 x,y,z
2 -x,1/2+y,-z
_cell_length_a                   9.7253(2)
_cell_length_b                   8.7384(2)
_cell_length_c                   10.9031(2)
_cell_angle_alpha                90.00
_cell_angle_beta                 109.0130(10)
_cell_angle_gamma                90.00
_cell_volume                     876.034
_exptl_crystal_colour            white
_chemical_melting_point          61deg.C
_cell_formula_units_Z            2
loop_
_atom_site_label
_atom_site_type_symbol
_atom_site_fract_x
_atom_site_fract_y
_atom_site_fract_z
O1 O 0.0645(3) -0.2587(3) 0.2113(2)
O2 O -0.0124(3) 0.3506(3) 0.1938(2)
O3 O 0.3787(3) 0.2338(3) 0.0008(2)
O4 O 0.4374(2) 0.4039(3) 0.2353(2)
N1 N 0.1649(3) -0.0233(3) 0.2122(3)
N2 N -0.1081(3) 0.1145(3) 0.2051(3)
C1 C 0.1525(4) 0.1447(4) 0.2142(3)
C2 C 0.0574(4) -0.1030(4) 0.2129(3)
C3 C -0.0895(3) -0.0519(3) 0.2153(3)
H1 H -0.165(4) -0.099(5) 0.142(4)
C4 C -0.0007(3) 0.1952(3) 0.2037(3)
C5 C 0.1980(5) -0.3229(5) 0.2064(6)
H2 H 0.190(5) -0.426(7) 0.204(5)
H3 H 0.281(7) -0.289(7) 0.275(5)
H4 H 0.220(9) -0.301(9) 0.131(8)
C6 C -0.1203(4) -0.1131(4) 0.3384(3)
H5 H -0.120(4) -0.221(6) 0.333(3)
C7 C -0.0056(5) -0.0618(6) 0.4630(4)
H6 H -0.034(5) -0.102(6) 0.541(5)
H7 H -0.004(5) 0.054(6) 0.466(4)
H8 H 0.098(5) -0.103(6) 0.467(4)
C8 C -0.2721(5) -0.0689(5) 0.3362(5)
H9 H -0.300(4) -0.113(5) 0.415(4)
H10 H -0.344(5) -0.077(6) 0.256(5)
H11 H -0.273(5) 0.043(7) 0.362(5)
C9 C -0.1537(4) 0.4139(4) 0.1763(4)
H12 H -0.138(4) 0.530(5) 0.180(3)
H13 H -0.189(4) 0.378(5) 0.240(4)
H14 H -0.226(4) 0.384(5) 0.092(4)
C10 C 0.1945(3) 0.2097(4) 0.0993(3)
H15 H 0.132(4) 0.178(5) 0.022(4)
H16 H 0.182(4) 0.327(5) 0.095(4)
C11 C 0.3526(4) 0.1745(4) 0.1133(3)
H17 H 0.365(3) 0.057(4) 0.115(3)
C12 C 0.4553(3) 0.2411(4) 0.2392(3)
H18 H 0.564(4) 0.216(4) 0.251(3)
C13 C 0.4194(4) 0.1696(4) 0.3535(3)
H19 H 0.489(4) 0.216(4) 0.439(3)
H20 H 0.432(4) 0.053(5) 0.347(4)
C14 C 0.2614(4) 0.2043(4) 0.3439(3)
H21 H 0.247(4) 0.316(5) 0.346(3)
H22 H 0.234(5) 0.161(5) 0.415(4)
C15 C 0.5002(5) 0.1634(6) -0.0222(4)
H23 H 0.510(5) 0.216(5) -0.098(4)
H24 H 0.476(5) 0.059(6) -0.043(4)
H25 H 0.592(5) 0.163(5) 0.051(4)
C16 C 0.5404(4) 0.4811(5) 0.3386(4)
H26 H 0.538(5) 0.582(6) 0.320(4)
H27 H 0.644(6) 0.446(6) 0.352(5)
H28 H 0.525(5) 0.464(6) 0.415(5)
loop_
_geom_bond_atom_site_label_1
_geom_bond_atom_site_label_2
_geom_bond_site_symmetry_1
_geom_bond_site_symmetry_2
O1 C2 1_555 1_555
O2 C4 1_555 1_555
O3 C11 1_555 1_555
O4 C12 1_555 1_555
N1 C1 1_555 1_555
N2 C3 1_555 1_555
C1 C4 1_555 1_555
C2 N1 1_555 1_555
C3 C2 1_555 1_555
H1 C3 1_555 1_555
C4 N2 1_555 1_555
C5 O1 1_555 1_555
H2 C5 1_555 1_555
H3 C5 1_555 1_555
H4 C5 1_555 1_555
C6 C3 1_555 1_555
H5 C6 1_555 1_555
C7 C6 1_555 1_555
H6 C7 1_555 1_555
H7 C7 1_555 1_555
H8 C7 1_555 1_555
C8 C6 1_555 1_555
H9 C8 1_555 1_555
H10 C8 1_555 1_555
H11 C8 1_555 1_555
C9 O2 1_555 1_555
H12 C9 1_555 1_555
H13 C9 1_555 1_555
H14 C9 1_555 1_555
C10 C1 1_555 1_555
H15 C10 1_555 1_555
H16 C10 1_555 1_555
C11 C10 1_555 1_555
H17 C11 1_555 1_555
C12 C11 1_555 1_555
H18 C12 1_555 1_555
C13 C12 1_555 1_555
H19 C13 1_555 1_555
H20 C13 1_555 1_555
C14 C1 1_555 1_555
H21 C14 1_555 1_555
H22 C14 1_555 1_555
C15 O3 1_555 1_555
H23 C15 1_555 1_555
H24 C15 1_555 1_555
H25 C15 1_555 1_555
C16 O4 1_555 1_555
H26 C16 1_555 1_555
H27 C16 1_555 1_555
H28 C16 1_555 1_555
C13 C14 1_555 1_555

#END
