
#######################################################################
#
#                 Cambridge Crystallographic Data Centre
#                                CCDC 
#
#######################################################################
#
# If this CIF has been generated from an entry in the Cambridge 
# Structural Database, then it will include bibliographic, chemical, 
# crystal, experimental, refinement or atomic coordinate data resulting 
# from the CCDC's data processing and validation procedures.
#
#######################################################################

data_LOBKOE
_chemical_formula_moiety         'C15 H22 O3'
_chemical_name_systematic        
2-Hydroxy-4,4,8-trimethyl-10-oxatetracyclo[7.2.2.0^1,8^.0^3,5^]tridecan-11-one
_symmetry_cell_setting           orthorhombic
_symmetry_space_group_name_H-M   'P 21 21 21'
_symmetry_Int_Tables_number      19
_space_group_name_Hall           'P 2ac 2ab'
loop_
_symmetry_equiv_pos_site_id
_symmetry_equiv_pos_as_xyz
1 x,y,z
2 1/2+x,1/2-y,-z
3 -x,1/2+y,1/2-z
4 1/2-x,-y,1/2+z
_cell_length_a                   6.7012(2)
_cell_length_b                   13.5226(4)
_cell_length_c                   14.4416(4)
_cell_angle_alpha                90
_cell_angle_beta                 90
_cell_angle_gamma                90
_cell_volume                     1308.66
_exptl_crystal_description       block
_cell_formula_units_Z            4
loop_
_atom_site_label
_atom_site_type_symbol
_atom_site_fract_x
_atom_site_fract_y
_atom_site_fract_z
O1 O 0.1995(2) 1.01306(11) 0.67959(10)
H1 H 0.0989 1.0199 0.7137
O2 O -0.0668(2) 0.95037(14) 0.81826(10)
O3 O 0.0742(2) 0.84767(12) 0.92199(11)
C1 C 0.4186(3) 0.94721(13) 0.86414(12)
H2 H 0.5557 0.9509 0.8389
H3 H 0.3684 1.0151 0.8750
C2 C 0.4131(3) 0.88526(16) 0.95445(13)
H4 H 0.5474 0.8604 0.9710
H5 H 0.3587 0.9241 1.0068
C3 C 0.2744(3) 0.80141(15) 0.92777(13)
H6 H 0.2816 0.7425 0.9695
C4 C 0.3167(3) 0.77868(13) 0.82450(12)
C5 C 0.5289(3) 0.74058(13) 0.80504(13)
H7 H 0.5429 0.6733 0.8312
H8 H 0.6262 0.7839 0.8368
C6 C 0.5792(3) 0.73735(13) 0.70035(13)
H9 H 0.6888 0.6896 0.6899
H10 H 0.4610 0.7139 0.6656
C7 C 0.6409(3) 0.83750(13) 0.66367(12)
H11 H 0.7802 0.8560 0.6814
C8 C 0.5001(3) 0.92492(12) 0.66216(12)
H12 H 0.5659 0.9887 0.6794
C9 C 0.2867(3) 0.91748(12) 0.69514(12)
H13 H 0.2142 0.8668 0.6576
C10 C 0.2781(3) 0.88909(12) 0.79774(12)
C11 C 0.5762(3) 0.88209(14) 0.57213(13)
C12 C 0.7323(3) 0.94310(17) 0.52239(14)
H14 H 0.6665 0.9944 0.4854
H15 H 0.8108 0.9002 0.4816
H16 H 0.8206 0.9743 0.5679
C13 C 0.4343(3) 0.82899(17) 0.50747(14)
H17 H 0.3389 0.7901 0.5438
H18 H 0.5101 0.7848 0.4668
H19 H 0.3620 0.8776 0.4700
C14 C 0.1631(3) 0.70545(17) 0.78521(15)
H20 H 0.1657 0.7081 0.7174
H21 H 0.0296 0.7232 0.8073
H22 H 0.1961 0.6384 0.8058
C15 C 0.0755(3) 0.90112(15) 0.84251(14)
loop_
_geom_bond_atom_site_label_1
_geom_bond_atom_site_label_2
_geom_bond_site_symmetry_1
_geom_bond_site_symmetry_2
O1 H1 1_555 1_555
O2 C15 1_555 1_555
O3 C3 1_555 1_555
C1 H2 1_555 1_555
H3 C1 1_555 1_555
C2 C1 1_555 1_555
H4 C2 1_555 1_555
H5 C2 1_555 1_555
C3 C2 1_555 1_555
H6 C3 1_555 1_555
C4 C3 1_555 1_555
C5 C4 1_555 1_555
H7 C5 1_555 1_555
H8 C5 1_555 1_555
C6 C5 1_555 1_555
H9 C6 1_555 1_555
H10 C6 1_555 1_555
C7 C6 1_555 1_555
H11 C7 1_555 1_555
C8 C7 1_555 1_555
H12 C8 1_555 1_555
C9 O1 1_555 1_555
H13 C9 1_555 1_555
C10 C1 1_555 1_555
C11 C7 1_555 1_555
C12 C11 1_555 1_555
H14 C12 1_555 1_555
H15 C12 1_555 1_555
H16 C12 1_555 1_555
C13 C11 1_555 1_555
H17 C13 1_555 1_555
H18 C13 1_555 1_555
H19 C13 1_555 1_555
C14 C4 1_555 1_555
H20 C14 1_555 1_555
H21 C14 1_555 1_555
H22 C14 1_555 1_555
C15 O3 1_555 1_555
C4 C10 1_555 1_555
C8 C9 1_555 1_555
C8 C11 1_555 1_555
C9 C10 1_555 1_555
C10 C15 1_555 1_555

#END
