
#######################################################################
#
#                 Cambridge Crystallographic Data Centre
#                                CCDC 
#
#######################################################################
#
# If this CIF has been generated from an entry in the Cambridge 
# Structural Database, then it will include bibliographic, chemical, 
# crystal, experimental, refinement or atomic coordinate data resulting 
# from the CCDC's data processing and validation procedures.
#
#######################################################################

data_LOBQOK
_chemical_formula_moiety         'C15 H26 O3'
_chemical_name_systematic        
2a-(Hydroxymethyl)-1,1,5a-trimethyldecahydro-1H-cyclopropa[f]azulene-2,5-diol
_symmetry_cell_setting           trigonal
_symmetry_space_group_name_H-M   'P 31'
_symmetry_Int_Tables_number      144
_space_group_name_Hall           'P 31'
loop_
_symmetry_equiv_pos_site_id
_symmetry_equiv_pos_as_xyz
1 x,y,z
2 -y,x-y,1/3+z
3 -x+y,-x,2/3+z
_cell_length_a                   13.9263(3)
_cell_length_b                   13.9263(3)
_cell_length_c                   6.4408(2)
_cell_angle_alpha                90
_cell_angle_beta                 90
_cell_angle_gamma                120
_cell_volume                     1081.79
_exptl_crystal_colour            colorless
_exptl_crystal_description       prism
_cell_formula_units_Z            3
loop_
_atom_site_label
_atom_site_type_symbol
_atom_site_fract_x
_atom_site_fract_y
_atom_site_fract_z
O1 O 1.25798(11) 0.60125(11) 0.0786(2)
H1 H 1.2933 0.6486 -0.0137
O2 O 0.81085(11) 0.43573(12) -0.1239(2)
H2 H 0.7669 0.3897 -0.0370
O3 O 0.76369(11) 0.34148(12) 0.2507(2)
H3 H 0.7257 0.2985 0.3469
C1 C 0.96531(17) 0.37791(17) 0.0415(3)
H4 H 0.9400 0.3136 0.1359
H5 H 0.9202 0.3527 -0.0868
C2 C 1.08871(16) 0.42611(16) -0.0108(3)
H6 H 1.1219 0.3915 0.0758
H7 H 1.0985 0.4141 -0.1590
C3 C 1.14164(16) 0.54949(17) 0.0369(3)
H8 H 1.1304 0.5871 -0.0852
C4 C 1.07401(16) 0.55540(17) 0.2214(3)
C5 C 1.10888(17) 0.67627(17) 0.2747(3)
H9 H 1.0694 0.6754 0.4031
H10 H 1.1890 0.7155 0.3078
C6 C 1.08962(17) 0.74561(18) 0.1133(3)
H11 H 1.1405 0.8254 0.1406
H12 H 1.1059 0.7285 -0.0270
C7 C 0.97123(17) 0.72117(17) 0.1217(3)
H13 H 0.9542 0.7535 0.2454
C8 C 0.87936(17) 0.60623(17) 0.0646(3)
H14 H 0.8127 0.5757 0.1568
C9 C 0.90680(16) 0.52123(16) -0.0175(3)
H15 H 0.9665 0.5593 -0.1238
C10 C 0.95162(16) 0.47109(16) 0.1487(3)
C11 C 0.89965(18) 0.70663(19) -0.0643(3)
C12 C 0.81749(19) 0.7474(2) -0.0392(4)
H16 H 0.7938 0.7394 0.1061
H17 H 0.7528 0.7034 -0.1278
H18 H 0.8528 0.8256 -0.0796
C13 C 0.9446(2) 0.7219(2) -0.2828(3)
H19 H 0.9732 0.7989 -0.3262
H20 H 0.8851 0.6722 -0.3771
H21 H 1.0046 0.7044 -0.2867
C14 C 0.86921(16) 0.42335(17) 0.3304(3)
H22 H 0.8958 0.3894 0.4338
H23 H 0.8626 0.4833 0.3995
C15 C 1.10103(17) 0.50949(18) 0.4173(3)
H24 H 1.1808 0.5528 0.4456
H25 H 1.0796 0.4317 0.3946
H26 H 1.0599 0.5148 0.5359
loop_
_geom_bond_atom_site_label_1
_geom_bond_atom_site_label_2
_geom_bond_site_symmetry_1
_geom_bond_site_symmetry_2
O1 H1 1_555 1_555
O2 H2 1_555 1_555
O3 H3 1_555 1_555
C1 H4 1_555 1_555
H5 C1 1_555 1_555
C2 C1 1_555 1_555
H6 C2 1_555 1_555
H7 C2 1_555 1_555
C3 O1 1_555 1_555
H8 C3 1_555 1_555
C4 C3 1_555 1_555
C5 C4 1_555 1_555
H9 C5 1_555 1_555
H10 C5 1_555 1_555
C6 C5 1_555 1_555
H11 C6 1_555 1_555
H12 C6 1_555 1_555
C7 C6 1_555 1_555
H13 C7 1_555 1_555
C8 C7 1_555 1_555
H14 C8 1_555 1_555
C9 O2 1_555 1_555
H15 C9 1_555 1_555
C10 C1 1_555 1_555
C11 C7 1_555 1_555
C12 C11 1_555 1_555
H16 C12 1_555 1_555
H17 C12 1_555 1_555
H18 C12 1_555 1_555
C13 C11 1_555 1_555
H19 C13 1_555 1_555
H20 C13 1_555 1_555
H21 C13 1_555 1_555
C14 O3 1_555 1_555
H22 C14 1_555 1_555
H23 C14 1_555 1_555
C15 C4 1_555 1_555
H24 C15 1_555 1_555
H25 C15 1_555 1_555
H26 C15 1_555 1_555
C2 C3 1_555 1_555
C4 C10 1_555 1_555
C8 C9 1_555 1_555
C8 C11 1_555 1_555
C9 C10 1_555 1_555
C10 C14 1_555 1_555

#END
