
#######################################################################
#
#                 Cambridge Crystallographic Data Centre
#                                CCDC 
#
#######################################################################
#
# If this CIF has been generated from an entry in the Cambridge 
# Structural Database, then it will include bibliographic, chemical, 
# crystal, experimental, refinement or atomic coordinate data resulting 
# from the CCDC's data processing and validation procedures.
#
#######################################################################

data_LOBROL
_chemical_formula_moiety         'C15 H26 O2'
_chemical_name_systematic        
2-Methoxy-1,1,5a-trimethyldecahydro-1H-cyclopropa[f]azulen-5-ol
_symmetry_cell_setting           monoclinic
_symmetry_space_group_name_H-M   'P 21'
_symmetry_Int_Tables_number      4
_space_group_name_Hall           'P 2yb'
loop_
_symmetry_equiv_pos_site_id
_symmetry_equiv_pos_as_xyz
1 x,y,z
2 -x,1/2+y,-z
_cell_length_a                   7.69110(10)
_cell_length_b                   8.58830(10)
_cell_length_c                   10.5890(2)
_cell_angle_alpha                90
_cell_angle_beta                 101.7720(10)
_cell_angle_gamma                90
_cell_volume                     684.729
_exptl_crystal_colour            colorless
_exptl_crystal_description       block
_cell_formula_units_Z            2
loop_
_atom_site_label
_atom_site_type_symbol
_atom_site_fract_x
_atom_site_fract_y
_atom_site_fract_z
O1 O 0.10295(14) 0.55321(17) 0.60650(9)
H1 H 0.0301 0.5895 0.6481
O2 O 0.14563(13) 0.18374(14) 0.24290(9)
C1 C -0.06246(15) 0.4775(2) 0.30135(12)
H2 H -0.1451 0.3890 0.3010
H3 H -0.0792 0.5205 0.2129
C2 C -0.09454(17) 0.6041(2) 0.39762(13)
H4 H -0.1816 0.5674 0.4481
H5 H -0.1409 0.7003 0.3511
C3 C 0.08729(16) 0.63563(19) 0.48758(12)
H6 H 0.1047 0.7498 0.5039
C4 C 0.22694(15) 0.57215(19) 0.41392(11)
C5 C 0.25367(18) 0.7012(2) 0.31802(13)
H7 H 0.1352 0.7349 0.2704
H8 H 0.3096 0.7918 0.3683
C6 C 0.36665(18) 0.65801(19) 0.21884(14)
H9 H 0.4177 0.7540 0.1895
H10 H 0.4662 0.5906 0.2607
C7 C 0.25935(17) 0.57431(19) 0.10343(12)
H11 H 0.1766 0.6432 0.0428
C8 C 0.18563(15) 0.41342(18) 0.12011(11)
H12 H 0.0634 0.3959 0.0679
C9 C 0.21730(16) 0.33928(16) 0.25227(12)
H13 H 0.3482 0.3333 0.2867
C10 C 0.13156(15) 0.42531(17) 0.35003(12)
H14 H 0.1294 0.3499 0.4216
C11 C 0.32609(16) 0.43532(19) 0.03943(12)
C12 C 0.26137(19) 0.4198(2) -0.10485(13)
H15 H 0.1439 0.4680 -0.1301
H16 H 0.2534 0.3093 -0.1284
H17 H 0.3449 0.4720 -0.1495
C13 C 0.51350(16) 0.3750(2) 0.08493(13)
H18 H 0.5200 0.2666 0.0575
H19 H 0.5458 0.3809 0.1792
H20 H 0.5960 0.4386 0.0475
C14 C 0.40266(16) 0.5342(2) 0.50536(13)
H21 H 0.3825 0.4555 0.5678
H22 H 0.4509 0.6288 0.5512
H23 H 0.4873 0.4939 0.4556
C15 C 0.2295(2) 0.0837(2) 0.16750(14)
H24 H 0.2116 0.1239 0.0792
H25 H 0.1781 -0.0208 0.1664
H26 H 0.3570 0.0788 0.2047
loop_
_geom_bond_atom_site_label_1
_geom_bond_atom_site_label_2
_geom_bond_site_symmetry_1
_geom_bond_site_symmetry_2
O1 H1 1_555 1_555
O2 C9 1_555 1_555
C1 H2 1_555 1_555
H3 C1 1_555 1_555
C2 C1 1_555 1_555
H4 C2 1_555 1_555
H5 C2 1_555 1_555
C3 O1 1_555 1_555
H6 C3 1_555 1_555
C4 C3 1_555 1_555
C5 C4 1_555 1_555
H7 C5 1_555 1_555
H8 C5 1_555 1_555
C6 C5 1_555 1_555
H9 C6 1_555 1_555
H10 C6 1_555 1_555
C7 C6 1_555 1_555
H11 C7 1_555 1_555
C8 C7 1_555 1_555
H12 C8 1_555 1_555
C9 C8 1_555 1_555
H13 C9 1_555 1_555
C10 C1 1_555 1_555
H14 C10 1_555 1_555
C11 C7 1_555 1_555
C12 C11 1_555 1_555
H15 C12 1_555 1_555
H16 C12 1_555 1_555
H17 C12 1_555 1_555
C13 C11 1_555 1_555
H18 C13 1_555 1_555
H19 C13 1_555 1_555
H20 C13 1_555 1_555
C14 C4 1_555 1_555
H21 C14 1_555 1_555
H22 C14 1_555 1_555
H23 C14 1_555 1_555
C15 O2 1_555 1_555
H24 C15 1_555 1_555
H25 C15 1_555 1_555
H26 C15 1_555 1_555
C2 C3 1_555 1_555
C4 C10 1_555 1_555
C8 C11 1_555 1_555
C9 C10 1_555 1_555

#END
