
#######################################################################
#
#                 Cambridge Crystallographic Data Centre
#                                CCDC 
#
#######################################################################
#
# If this CIF has been generated from an entry in the Cambridge 
# Structural Database, then it will include bibliographic, chemical, 
# crystal, experimental, refinement or atomic coordinate data resulting 
# from the CCDC's data processing and validation procedures.
#
#######################################################################

data_LOBREB
_chemical_formula_moiety         'C14 H13 N1 O3'
_chemical_name_systematic        
5-(4-Methoxybenzyl)-3,5-dihydro-1H-furo[3,4-c]pyrrol-1-one
_symmetry_cell_setting           monoclinic
_symmetry_space_group_name_H-M   'P 21/n'
_symmetry_Int_Tables_number      14
_space_group_name_Hall           '-P 2yn'
loop_
_symmetry_equiv_pos_site_id
_symmetry_equiv_pos_as_xyz
1 x,y,z
2 1/2-x,1/2+y,1/2-z
3 -x,-y,-z
4 1/2+x,1/2-y,1/2+z
_cell_length_a                   11.6704(10)
_cell_length_b                   4.2988(3)
_cell_length_c                   23.398(2)
_cell_angle_alpha                90
_cell_angle_beta                 93.354(6)
_cell_angle_gamma                90
_cell_volume                     1171.84
_exptl_crystal_colour            colorless
_exptl_crystal_description       block
_cell_formula_units_Z            4
loop_
_atom_site_label
_atom_site_type_symbol
_atom_site_fract_x
_atom_site_fract_y
_atom_site_fract_z
O1 O 0.52739(10) 0.6805(3) 0.14823(5)
C1 C 0.51681(13) 0.7767(4) 0.20359(6)
N1 N 0.38160(11) 0.9538(3) 0.40490(5)
O2 O 0.14969(9) 0.4826(3) 0.50884(5)
C2 C 0.41135(13) 0.7859(3) 0.45195(6)
H1 H 0.4852 0.7545 0.4680
O3 O 0.31242(11) 0.3624(3) 0.55915(5)
C3 C 0.31123(12) 0.6697(3) 0.47176(6)
C4 C 0.26667(14) 0.4901(4) 0.51799(7)
C5 C 0.59170(14) 0.6984(4) 0.24918(7)
H2 H 0.6549 0.5725 0.2436
C6 C 0.42376(14) 0.9647(4) 0.21234(7)
H3 H 0.3732 1.0176 0.1817
C7 C 0.40537(14) 1.0744(4) 0.26631(7)
H4 H 0.3424 1.2013 0.2717
C8 C 0.47931(14) 0.9986(3) 0.31290(7)
C9 C 0.22035(14) 0.7720(4) 0.43554(6)
C10 C 0.57174(14) 0.8091(4) 0.30323(7)
H5 H 0.6220 0.7544 0.3339
C11 C 0.46218(16) 1.1316(4) 0.37131(7)
H6 H 0.5359 1.1405 0.3926
H7 H 0.4341 1.3431 0.3669
C12 C 0.26415(15) 0.9496(4) 0.39405(7)
H8 H 0.2229 1.0491 0.3641
C13 C 0.11133(14) 0.6552(5) 0.45786(7)
H9 H 0.0615 0.8261 0.4673
H10 H 0.0707 0.5211 0.4302
C14 C 0.62966(16) 0.5222(5) 0.13501(8)
H11 H 0.6255 0.4672 0.0952
H12 H 0.6379 0.3371 0.1578
H13 H 0.6946 0.6557 0.1431
loop_
_geom_bond_atom_site_label_1
_geom_bond_atom_site_label_2
_geom_bond_site_symmetry_1
_geom_bond_site_symmetry_2
O1 C1 1_555 1_555
C1 C5 1_555 1_555
N1 C2 1_555 1_555
O2 C4 1_555 1_555
C2 H1 1_555 1_555
O3 C4 1_555 1_555
C3 C2 1_555 1_555
C4 C3 1_555 1_555
C5 H2 1_555 1_555
C6 C1 1_555 1_555
H3 C6 1_555 1_555
C7 C6 1_555 1_555
H4 C7 1_555 1_555
C8 C7 1_555 1_555
C9 C3 1_555 1_555
C10 C5 1_555 1_555
H5 C10 1_555 1_555
C11 N1 1_555 1_555
H6 C11 1_555 1_555
H7 C11 1_555 1_555
C12 N1 1_555 1_555
H8 C12 1_555 1_555
C13 O2 1_555 1_555
H9 C13 1_555 1_555
H10 C13 1_555 1_555
C14 O1 1_555 1_555
H11 C14 1_555 1_555
H12 C14 1_555 1_555
H13 C14 1_555 1_555
C8 C10 1_555 1_555
C8 C11 1_555 1_555
C9 C12 1_555 1_555
C9 C13 1_555 1_555

#END
