
#######################################################################
#
#                 Cambridge Crystallographic Data Centre
#                                CCDC 
#
#######################################################################
#
# If this CIF has been generated from an entry in the Cambridge 
# Structural Database, then it will include bibliographic, chemical, 
# crystal, experimental, refinement or atomic coordinate data resulting 
# from the CCDC's data processing and validation procedures.
#
#######################################################################

data_LOBREA
_chemical_name_common            
'bis(benzo-15-crown-5-kappa$5!O)-strontium bis(triiodide)'
_chemical_formula_moiety         'C28 H40 O10 Sr1 2+,2(I3 1-)'
_chemical_name_systematic        
'bis(1,4,7,10,13-pentaoxa(13)orthocyclophane)-strontium bis(triiodide)'
_symmetry_cell_setting           monoclinic
_symmetry_space_group_name_H-M   'P 21/n'
_symmetry_Int_Tables_number      14
_space_group_name_Hall           '-P 2yn'
loop_
_symmetry_equiv_pos_site_id
_symmetry_equiv_pos_as_xyz
1 x,y,z
2 1/2-x,1/2+y,1/2-z
3 -x,-y,-z
4 1/2+x,1/2-y,1/2+z
_cell_length_a                   12.0127(17)
_cell_length_b                   12.8666(12)
_cell_length_c                   13.085(2)
_cell_angle_alpha                90
_cell_angle_beta                 90.245(18)
_cell_angle_gamma                90
_cell_volume                     2022.43
_exptl_crystal_colour            red
_exptl_crystal_description       polyhedron
_cell_formula_units_Z            2
loop_
_atom_site_label
_atom_site_type_symbol
_atom_site_fract_x
_atom_site_fract_y
_atom_site_fract_z
I1 I 1.13518(5) 0.42408(4) 1.15064(4)
I2 I 1.05971(6) 0.38042(5) 1.35816(5)
I3 I 1.21912(7) 0.46748(4) 0.94966(5)
Sr1 Sr 1.0000 0.0000 1.0000
O1 O 1.1629(5) 0.1317(4) 1.0776(4)
O2 O 1.1188(5) -0.1460(4) 0.9031(4)
O3 O 1.1714(4) 0.0601(4) 0.8803(4)
O4 O 1.0602(4) -0.0068(4) 1.1973(3)
O5 O 1.0583(5) -0.1762(3) 1.0971(4)
C1 C 1.0374(6) -0.1842(5) 1.1998(6)
C2 C 1.0947(9) -0.2637(6) 1.0413(7)
H1 H 1.1444 -0.3049 1.0836
H2 H 1.0311 -0.3065 1.0234
C3 C 1.1501(10) -0.2336(7) 0.9523(8)
H3 H 1.2284 -0.2265 0.9693
H4 H 1.1439 -0.2905 0.9040
C4 C 1.0380(6) -0.0936(5) 1.2541(6)
C5 C 1.2562(8) 0.1596(7) 1.0116(7)
H5 H 1.2834 0.2283 1.0293
H6 H 1.3166 0.1104 1.0210
C6 C 1.1048(7) 0.0853(5) 1.2453(6)
H7 H 1.1309 0.0693 1.3138
H8 H 1.0478 0.1385 1.2500
C7 C 1.1984(7) 0.1221(6) 1.1812(6)
H9 H 1.2244 0.1889 1.2061
H10 H 1.2597 0.0732 1.1856
C8 C 1.2194(8) 0.1583(6) 0.9073(7)
H11 H 1.1646 0.2127 0.8969
H12 H 1.2820 0.1724 0.8629
C9 C 1.2505(7) -0.0175(7) 0.8513(7)
H13 H 1.3005 -0.0323 0.9079
H14 H 1.2944 0.0068 0.7940
C10 C 1.1885(8) -0.1121(6) 0.8224(7)
H15 H 1.1434 -0.0980 0.7623
H16 H 1.2407 -0.1669 0.8054
C11 C 1.0111(7) -0.2778(6) 1.2495(6)
H17 H 1.0087 -0.3400 1.2134
C12 C 1.0124(7) -0.0933(6) 1.3557(6)
H18 H 1.0119 -0.0309 1.3915
C13 C 0.9875(8) -0.1844(7) 1.4055(7)
H19 H 0.9698 -0.1837 1.4746
C14 C 0.9890(7) -0.2757(7) 1.3526(8)
H20 H 0.9748 -0.3377 1.3868
O1B O 0.8371(5) -0.1317(4) 0.9224(4)
O2B O 0.8812(5) 0.1460(4) 1.0969(4)
O3B O 0.8286(4) -0.0601(4) 1.1197(4)
O4B O 0.9398(4) 0.0068(4) 0.8027(3)
O5B O 0.9417(5) 0.1762(3) 0.9029(4)
C1B C 0.9626(6) 0.1842(5) 0.8002(6)
C2B C 0.9053(9) 0.2637(6) 0.9587(7)
H1B H 0.8556 0.3049 0.9164
H2B H 0.9689 0.3065 0.9766
C3B C 0.8499(10) 0.2336(7) 1.0477(8)
H3B H 0.7716 0.2265 1.0307
H4B H 0.8561 0.2905 1.0960
C4B C 0.9620(6) 0.0936(5) 0.7459(6)
C5B C 0.7438(8) -0.1596(7) 0.9884(7)
H5B H 0.7166 -0.2283 0.9707
H6B H 0.6834 -0.1104 0.9790
C6B C 0.8952(7) -0.0853(5) 0.7547(6)
H7B H 0.8691 -0.0693 0.6862
H8B H 0.9522 -0.1385 0.7500
C7B C 0.8016(7) -0.1221(6) 0.8188(6)
H9B H 0.7756 -0.1889 0.7939
H10B H 0.7403 -0.0732 0.8144
C8B C 0.7806(8) -0.1583(6) 1.0927(7)
H11B H 0.8354 -0.2127 1.1031
H12B H 0.7180 -0.1724 1.1371
C9B C 0.7495(7) 0.0175(7) 1.1487(7)
H13B H 0.6995 0.0323 1.0921
H14B H 0.7056 -0.0068 1.2060
C10B C 0.8115(8) 0.1121(6) 1.1776(7)
H15B H 0.8566 0.0980 1.2377
H16B H 0.7593 0.1669 1.1946
C11B C 0.9889(7) 0.2778(6) 0.7505(6)
H17B H 0.9913 0.3400 0.7866
C12B C 0.9876(7) 0.0933(6) 0.6443(6)
H18B H 0.9881 0.0309 0.6085
C13B C 1.0125(8) 0.1844(7) 0.5945(7)
H19B H 1.0302 0.1837 0.5254
C14B C 1.0110(7) 0.2757(7) 0.6474(8)
H20B H 1.0252 0.3377 0.6132
loop_
_geom_bond_atom_site_label_1
_geom_bond_atom_site_label_2
_geom_bond_site_symmetry_1
_geom_bond_site_symmetry_2
I1 I2 1_555 1_555
I3 I1 1_555 1_555
Sr1 O1 1_555 1_555
O1 C5 1_555 1_555
O2 Sr1 1_555 1_555
O3 Sr1 1_555 1_555
O4 Sr1 1_555 1_555
O5 Sr1 1_555 1_555
C1 O5 1_555 1_555
C2 O5 1_555 1_555
H1 C2 1_555 1_555
H2 C2 1_555 1_555
C3 O2 1_555 1_555
H3 C3 1_555 1_555
H4 C3 1_555 1_555
C4 O4 1_555 1_555
C5 H5 1_555 1_555
H6 C5 1_555 1_555
C6 O4 1_555 1_555
H7 C6 1_555 1_555
H8 C6 1_555 1_555
C7 O1 1_555 1_555
H9 C7 1_555 1_555
H10 C7 1_555 1_555
C8 O3 1_555 1_555
H11 C8 1_555 1_555
H12 C8 1_555 1_555
C9 O3 1_555 1_555
H13 C9 1_555 1_555
H14 C9 1_555 1_555
C10 O2 1_555 1_555
H15 C10 1_555 1_555
H16 C10 1_555 1_555
C11 C1 1_555 1_555
H17 C11 1_555 1_555
C12 C4 1_555 1_555
H18 C12 1_555 1_555
C13 C12 1_555 1_555
H19 C13 1_555 1_555
C14 C11 1_555 1_555
H20 C14 1_555 1_555
O1B Sr1 1_555 1_555
O2B Sr1 1_555 1_555
O3B Sr1 1_555 1_555
O4B Sr1 1_555 1_555
O5B Sr1 1_555 1_555
C1B O5B 1_555 1_555
C2B O5B 1_555 1_555
H1B C2B 1_555 1_555
H2B C2B 1_555 1_555
C3B O2B 1_555 1_555
H3B C3B 1_555 1_555
H4B C3B 1_555 1_555
C4B O4B 1_555 1_555
C5B O1B 1_555 1_555
H5B C5B 1_555 1_555
H6B C5B 1_555 1_555
C6B O4B 1_555 1_555
H7B C6B 1_555 1_555
H8B C6B 1_555 1_555
C7B O1B 1_555 1_555
H9B C7B 1_555 1_555
H10B C7B 1_555 1_555
C8B O3B 1_555 1_555
H11B C8B 1_555 1_555
H12B C8B 1_555 1_555
C9B O3B 1_555 1_555
H13B C9B 1_555 1_555
H14B C9B 1_555 1_555
C10B O2B 1_555 1_555
H15B C10B 1_555 1_555
H16B C10B 1_555 1_555
C11B C1B 1_555 1_555
H17B C11B 1_555 1_555
C12B C4B 1_555 1_555
H18B C12B 1_555 1_555
C13B C12B 1_555 1_555
H19B C13B 1_555 1_555
C14B C11B 1_555 1_555
H20B C14B 1_555 1_555
C1 C4 1_555 1_555
C2 C3 1_555 1_555
C5 C8 1_555 1_555
C6 C7 1_555 1_555
C9 C10 1_555 1_555
C13 C14 1_555 1_555
C1B C4B 1_555 1_555
C2B C3B 1_555 1_555
C5B C8B 1_555 1_555
C6B C7B 1_555 1_555
C9B C10B 1_555 1_555
C13B C14B 1_555 1_555

#END
