
#######################################################################
#
#                 Cambridge Crystallographic Data Centre
#                                CCDC 
#
#######################################################################
#
# If this CIF has been generated from an entry in the Cambridge 
# Structural Database, then it will include bibliographic, chemical, 
# crystal, experimental, refinement or atomic coordinate data resulting 
# from the CCDC's data processing and validation procedures.
#
#######################################################################

data_LOBSEC
_chemical_compound_source        'roots of Stemona tuberosa'
_chemical_name_common            'Tuberostemoline B'
_chemical_formula_moiety         'C17 H25 N1 O5'
_chemical_name_systematic        
7-Ethyl-6-hydroxy-4-methyl-2-oxa-13-azatricyclo[11.2.1.0^1,5^]hexadecane-3,8,16-trione
_symmetry_cell_setting           orthorhombic
_symmetry_space_group_name_H-M   'P 21 21 21'
_symmetry_Int_Tables_number      19
_space_group_name_Hall           'P 2ac 2ab'
loop_
_symmetry_equiv_pos_site_id
_symmetry_equiv_pos_as_xyz
1 x,y,z
2 1/2-x,-y,1/2+z
3 -x,1/2+y,1/2-z
4 1/2+x,1/2-y,-z
_cell_length_a                   10.669(2)
_cell_length_b                   14.624(3)
_cell_length_c                   10.595(2)
_cell_angle_alpha                90
_cell_angle_beta                 90
_cell_angle_gamma                90
_cell_volume                     1653.07
_exptl_crystal_colour            colorless
_exptl_crystal_description       prism
_cell_formula_units_Z            4
_chemical_properties_physical    air-sensitive
loop_
_atom_site_label
_atom_site_type_symbol
_atom_site_fract_x
_atom_site_fract_y
_atom_site_fract_z
N1 N 0.3527(3) 0.6392(3) 0.2960(4)
O1 O 0.5213(3) 0.6337(2) 0.1641(3)
C1 C 0.3082(4) 0.6509(3) 0.0841(4)
O2 O 0.3333(3) 0.5862(2) -0.0159(3)
C2 C 0.1858(4) 0.6261(3) 0.1536(5)
H1 H 0.1184 0.6665 0.1278
H2 H 0.1617 0.5636 0.1351
O3 O 0.3323(4) 0.5783(3) -0.2256(4)
C3 C 0.2124(4) 0.6372(3) 0.2911(5)
H3 H 0.1793 0.5862 0.3393
H4 H 0.1769 0.6936 0.3233
O4 O 0.1208(2) 0.8194(2) 0.0669(3)
H5 H 0.0922 0.8334 -0.0023
O5 O 0.4968(3) 0.8941(2) 0.1229(3)
C4 C 0.4244(6) 0.6399(4) 0.4160(5)
H6 H 0.4851 0.5905 0.4152
H7 H 0.3676 0.6298 0.4861
C5 C 0.4925(8) 0.7308(5) 0.4345(7)
H8 H 0.5427 0.7231 0.5101
H9 H 0.5514 0.7352 0.3650
C6 C 0.4386(7) 0.8179(5) 0.4450(7)
H10 H 0.4571 0.8421 0.5282
H11 H 0.3483 0.8120 0.4382
C7 C 0.4848(5) 0.8880(4) 0.3436(5)
H12 H 0.4676 0.9489 0.3753
H13 H 0.5752 0.8822 0.3371
C8 C 0.4074(4) 0.6398(3) 0.1857(5)
C9 C 0.4313(4) 0.8817(3) 0.2119(5)
C10 C 0.2916(4) 0.8640(3) 0.1976(4)
H14 H 0.2663 0.8178 0.2596
C11 C 0.2548(4) 0.8306(3) 0.0658(4)
H15 H 0.2734 0.8804 0.0069
C12 C 0.3197(4) 0.7449(3) 0.0146(3)
H16 H 0.4093 0.7591 0.0095
C13 C 0.2775(4) 0.7199(3) -0.1186(4)
H17 H 0.1858 0.7231 -0.1217
C14 C 0.3149(4) 0.6231(4) -0.1308(6)
C15 C 0.3292(5) 0.7780(4) -0.2246(4)
H18 H 0.2950 0.7576 -0.3035
H19 H 0.4188 0.7726 -0.2265
H20 H 0.3065 0.8408 -0.2109
C16 C 0.2256(5) 0.9564(4) 0.2305(6)
H21 H 0.2890 1.0021 0.2487
H22 H 0.1783 0.9771 0.1577
C17 C 0.1410(6) 0.9489(5) 0.3389(8)
H23 H 0.1017 1.0069 0.3540
H24 H 0.1879 0.9310 0.4122
H25 H 0.0780 0.9037 0.3215
loop_
_geom_bond_atom_site_label_1
_geom_bond_atom_site_label_2
_geom_bond_site_symmetry_1
_geom_bond_site_symmetry_2
N1 C3 1_555 1_555
O1 C8 1_555 1_555
C1 O2 1_555 1_555
O2 C14 1_555 1_555
C2 C1 1_555 1_555
H1 C2 1_555 1_555
H2 C2 1_555 1_555
O3 C14 1_555 1_555
C3 C2 1_555 1_555
H3 C3 1_555 1_555
H4 C3 1_555 1_555
O4 H5 1_555 1_555
O5 C9 1_555 1_555
C4 N1 1_555 1_555
H6 C4 1_555 1_555
H7 C4 1_555 1_555
C5 C4 1_555 1_555
H8 C5 1_555 1_555
H9 C5 1_555 1_555
C6 C5 1_555 1_555
H10 C6 1_555 1_555
H11 C6 1_555 1_555
C7 C6 1_555 1_555
H12 C7 1_555 1_555
H13 C7 1_555 1_555
C8 N1 1_555 1_555
C9 C7 1_555 1_555
C10 C9 1_555 1_555
H14 C10 1_555 1_555
C11 O4 1_555 1_555
H15 C11 1_555 1_555
C12 C1 1_555 1_555
H16 C12 1_555 1_555
C13 C12 1_555 1_555
H17 C13 1_555 1_555
C14 C13 1_555 1_555
C15 C13 1_555 1_555
H18 C15 1_555 1_555
H19 C15 1_555 1_555
H20 C15 1_555 1_555
C16 C10 1_555 1_555
H21 C16 1_555 1_555
H22 C16 1_555 1_555
C17 C16 1_555 1_555
H23 C17 1_555 1_555
H24 C17 1_555 1_555
H25 C17 1_555 1_555
C1 C8 1_555 1_555
C10 C11 1_555 1_555
C11 C12 1_555 1_555

#END
