
#######################################################################
#
#                 Cambridge Crystallographic Data Centre
#                                CCDC 
#
#######################################################################
#
# If this CIF has been generated from an entry in the Cambridge 
# Structural Database, then it will include bibliographic, chemical, 
# crystal, experimental, refinement or atomic coordinate data resulting 
# from the CCDC's data processing and validation procedures.
#
#######################################################################

data_LOBSOM
_chemical_formula_moiety         'C6 H5 N5 O4,2(C3 H7 N1 O1)'
_chemical_name_systematic        
'2,4,6,8,10-pentaazatricyclo[3.3.3.0^1,5^]undecane-3,7,9,11-tetrone N,N-dimethylformamide solvate'
_symmetry_cell_setting           monoclinic
_symmetry_space_group_name_H-M   'C 2/c'
_symmetry_Int_Tables_number      15
_space_group_name_Hall           '-C 2yn'
loop_
_symmetry_equiv_pos_site_id
_symmetry_equiv_pos_as_xyz
1 x,y,z
2 -x,y,1/2-z
3 1/2+x,1/2+y,z
4 1/2-x,1/2+y,1/2-z
5 -x,-y,-z
6 x,-y,1/2+z
7 1/2-x,1/2-y,-z
8 1/2+x,1/2-y,1/2+z
_cell_length_a                   15.5536(54)
_cell_length_b                   12.5576(43)
_cell_length_c                   10.7307(38)
_cell_angle_alpha                90
_cell_angle_beta                 122.585(6)
_cell_angle_gamma                90
_cell_volume                     1765.97
_cell_formula_units_Z            4
_exptl_crystal_recrystallization_method N,N-dimethylformamide
loop_
_atom_site_label
_atom_site_type_symbol
_atom_site_fract_x
_atom_site_fract_y
_atom_site_fract_z
N1 N 0.5000 -0.0239 0.7500
H1 H 0.5000 -0.0844 0.7500
C1 C 0.5589 0.0333 0.7140
C2 C 0.5408 0.1509 0.7294
O1 O 0.6145 -0.0022 0.6782
N2 N 0.4918 0.2085 0.5914
H2 H 0.5175 0.2086 0.5312
C3 C 0.3927 0.2319 0.5428
N3 N 0.6268 0.2019 0.8539
H3 H 0.6855 0.2020 0.8646
O2 O 0.3319 0.2764 0.4235
C1A C 0.4411 0.0333 0.7860
C2A C 0.4592 0.1509 0.7706
O1A O 0.3855 -0.0022 0.8218
N2A N 0.5082 0.2085 0.9086
H2A H 0.4825 0.2086 0.9688
C3A C 0.6073 0.2319 0.9572
N3A N 0.3732 0.2019 0.6461
H3A H 0.3145 0.2020 0.6354
O2A O 0.6681 0.2764 1.0765
O3 O 0.5836 0.2245 0.4198
C4 C 0.6243 0.2858 0.3775
H4 H 0.6326 0.2678 0.2919
N4 N 0.6518 0.3841 0.4244
C5 C 0.7044 0.4510 0.3747
H5 H 0.7174 0.5197 0.4207
H6 H 0.6625 0.4590 0.2692
H7 H 0.7679 0.4182 0.4014
C6 C 0.6368 0.4249 0.5368
H8 H 0.6599 0.4974 0.5586
H9 H 0.6750 0.3827 0.6248
H10 H 0.5657 0.4220 0.5021
loop_
_geom_bond_atom_site_label_1
_geom_bond_atom_site_label_2
_geom_bond_site_symmetry_1
_geom_bond_site_symmetry_2
N1 H1 1_555 1_555
C1 N1 1_555 1_555
C2 C1 1_555 1_555
O1 C1 1_555 1_555
N2 C2 1_555 1_555
H2 N2 1_555 1_555
C3 N2 1_555 1_555
N3 C2 1_555 1_555
H3 N3 1_555 1_555
O2 C3 1_555 1_555
O3 C4 1_555 1_555
C4 H4 1_555 1_555
N4 C4 1_555 1_555
C5 N4 1_555 1_555
H5 C5 1_555 1_555
H6 C5 1_555 1_555
H7 C5 1_555 1_555
C6 N4 1_555 1_555
H8 C6 1_555 1_555
H9 C6 1_555 1_555
H10 C6 1_555 1_555
C1A N1 1_555 1_555
C2A C2 1_555 1_555
O1A C1A 1_555 1_555
N2A C2A 1_555 1_555
H2A N2A 1_555 1_555
C3A N3 1_555 1_555
N3A C3 1_555 1_555
H3A N3A 1_555 1_555
O2A C3A 1_555 1_555
C1A C2A 1_555 1_555
C2A N3A 1_555 1_555
N2A C3A 1_555 1_555

#END
