
#######################################################################
#
#                 Cambridge Crystallographic Data Centre
#                                CCDC 
#
#######################################################################
#
# If this CIF has been generated from an entry in the Cambridge 
# Structural Database, then it will include bibliographic, chemical, 
# crystal, experimental, refinement or atomic coordinate data resulting 
# from the CCDC's data processing and validation procedures.
#
#######################################################################

data_LOBWOP
_chemical_formula_moiety         'C13 H17 N1 O3'
_chemical_name_systematic        '(Z)-Methyl 3-(4-ethoxyanilino)but-2-enoate'
_symmetry_cell_setting           monoclinic
_symmetry_space_group_name_H-M   'P 21/n'
_symmetry_Int_Tables_number      14
_space_group_name_Hall           '-P 2yn'
loop_
_symmetry_equiv_pos_site_id
_symmetry_equiv_pos_as_xyz
1 x,y,z
2 1/2-x,1/2+y,1/2-z
3 -x,-y,-z
4 1/2+x,1/2-y,1/2+z
_cell_length_a                   12.421(2)
_cell_length_b                   6.3372(13)
_cell_length_c                   16.569(3)
_cell_angle_alpha                90
_cell_angle_beta                 96.519(3)
_cell_angle_gamma                90
_cell_volume                     1295.79
_exptl_crystal_colour            yellow
_exptl_crystal_description       Block
_cell_formula_units_Z            4
loop_
_atom_site_label
_atom_site_type_symbol
_atom_site_fract_x
_atom_site_fract_y
_atom_site_fract_z
O1 O 0.11751(9) 1.2475(2) 1.03170(8)
O2 O 0.55147(10) 0.4131(2) 0.90568(7)
O3 O 0.60606(12) 0.2866(2) 0.79053(8)
N1 N 0.39962(11) 0.7279(2) 0.88382(9)
H1 H 0.4403 0.6528 0.9181
C1 C 0.32646(13) 0.8715(3) 0.91658(9)
C2 C 0.21953(14) 0.8158(3) 0.92064(10)
H2 H 0.1934 0.6891 0.8979
C3 C 0.15124(13) 0.9455(3) 0.95793(11)
H3 H 0.0794 0.9067 0.9600
C4 C 0.18978(13) 1.1339(3) 0.99243(10)
C5 C 0.29584(13) 1.1948(3) 0.98654(11)
H4 H 0.3216 1.3232 1.0079
C6 C 0.36297(13) 1.0624(3) 0.94847(10)
H5 H 0.4341 1.1032 0.9444
C7 C 0.15753(16) 1.4153(3) 1.08352(12)
H6 H 0.1915 1.5212 1.0526
H7 H 0.2113 1.3624 1.1257
C8 C 0.06476(18) 1.5100(4) 1.12071(12)
H8 H 0.0129 1.5654 1.0787
H9 H 0.0908 1.6218 1.1569
H10 H 0.0309 1.4036 1.1505
C9 C 0.41069(14) 0.6995(3) 0.80498(10)
C10 C 0.34385(18) 0.8388(4) 0.74539(12)
H11 H 0.2687 0.8250 0.7530
H12 H 0.3542 0.7976 0.6911
H13 H 0.3660 0.9830 0.7541
C11 C 0.48003(16) 0.5549(3) 0.77912(11)
H14 H 0.4847 0.5450 0.7236
C12 C 0.54568(14) 0.4182(3) 0.83178(11)
C13 C 0.66598(19) 0.1247(4) 0.83608(13)
H15 H 0.7034 0.1842 0.8847
H16 H 0.7176 0.0641 0.8038
H17 H 0.6171 0.0170 0.8503
loop_
_geom_bond_atom_site_label_1
_geom_bond_atom_site_label_2
_geom_bond_site_symmetry_1
_geom_bond_site_symmetry_2
O1 C4 1_555 1_555
O2 C12 1_555 1_555
O3 C12 1_555 1_555
N1 H1 1_555 1_555
C1 N1 1_555 1_555
C2 C1 1_555 1_555
H2 C2 1_555 1_555
C3 C2 1_555 1_555
H3 C3 1_555 1_555
C4 C3 1_555 1_555
C5 C4 1_555 1_555
H4 C5 1_555 1_555
C6 C1 1_555 1_555
H5 C6 1_555 1_555
C7 O1 1_555 1_555
H6 C7 1_555 1_555
H7 C7 1_555 1_555
C8 C7 1_555 1_555
H8 C8 1_555 1_555
H9 C8 1_555 1_555
H10 C8 1_555 1_555
C9 N1 1_555 1_555
C10 C9 1_555 1_555
H11 C10 1_555 1_555
H12 C10 1_555 1_555
H13 C10 1_555 1_555
C11 C9 1_555 1_555
H14 C11 1_555 1_555
C12 C11 1_555 1_555
C13 O3 1_555 1_555
H15 C13 1_555 1_555
H16 C13 1_555 1_555
H17 C13 1_555 1_555
C5 C6 1_555 1_555

#END
