
#######################################################################
#
#                 Cambridge Crystallographic Data Centre
#                                CCDC 
#
#######################################################################
#
# If this CIF has been generated from an entry in the Cambridge 
# Structural Database, then it will include bibliographic, chemical, 
# crystal, experimental, refinement or atomic coordinate data resulting 
# from the CCDC's data processing and validation procedures.
#
#######################################################################

data_LOBWUV
_chemical_formula_moiety         'C13 H19 N1 O3'
_chemical_name_systematic        
(S)-N-(1-Hydroxymethyl-2-methylpropyl)-2-methoxybenzamide
_symmetry_cell_setting           orthorhombic
_symmetry_space_group_name_H-M   'P 21 21 21'
_symmetry_Int_Tables_number      19
_space_group_name_Hall           'P 2ac 2ab'
loop_
_symmetry_equiv_pos_site_id
_symmetry_equiv_pos_as_xyz
1 x,y,z
2 1/2+x,1/2-y,-z
3 -x,1/2+y,1/2-z
4 1/2-x,-y,1/2+z
_cell_length_a                   9.015(4)
_cell_length_b                   10.386(4)
_cell_length_c                   14.005(4)
_cell_angle_alpha                90
_cell_angle_beta                 90
_cell_angle_gamma                90
_cell_volume                     1311.29
_exptl_crystal_colour            colorless
_exptl_crystal_description       block
_cell_formula_units_Z            4
loop_
_atom_site_label
_atom_site_type_symbol
_atom_site_fract_x
_atom_site_fract_y
_atom_site_fract_z
O1 O 0.1432(3) 0.3872(3) 0.16126(19)
O2 O 0.5192(3) 0.3286(3) -0.00264(18)
O3 O 0.2632(4) 0.0046(3) -0.0111(2)
H1 H 0.1945 0.0562 -0.0140
N1 N 0.3536(3) 0.2340(2) 0.0926(2)
H2 H 0.2711 0.2433 0.1227
C1 C 0.1842(4) 0.4786(3) 0.0963(3)
C2 C 0.1074(5) 0.5935(4) 0.0851(3)
H3 H 0.0240 0.6099 0.1223
C3 C 0.1535(6) 0.6826(4) 0.0201(4)
H4 H 0.1009 0.7591 0.0133
C4 C 0.2760(6) 0.6610(4) -0.0355(4)
H5 H 0.3078 0.7226 -0.0791
C5 C 0.3519(5) 0.5457(4) -0.0255(3)
H6 H 0.4337 0.5300 -0.0642
C6 C 0.3096(4) 0.4533(3) 0.0402(3)
C7 C 0.0018(6) 0.3961(7) 0.2048(3)
H7 H -0.0038 0.4739 0.2416
H8 H -0.0130 0.3233 0.2460
H9 H -0.0735 0.3970 0.1564
C8 C 0.4020(4) 0.3328(3) 0.0425(2)
C9 C 0.4288(4) 0.1097(3) 0.1012(2)
H10 H 0.5050 0.1060 0.0514
C10 C 0.3202(5) 0.0025(3) 0.0824(3)
H11 H 0.3691 -0.0794 0.0932
H12 H 0.2387 0.0091 0.1273
C11 C 0.5075(5) 0.0978(4) 0.1981(3)
H13 H 0.5515 0.0115 0.2002
C12 C 0.6339(6) 0.1925(5) 0.2074(4)
H14 H 0.5957 0.2787 0.2045
H15 H 0.7031 0.1794 0.1562
H16 H 0.6832 0.1796 0.2674
C13 C 0.4068(6) 0.1084(6) 0.2833(3)
H17 H 0.4630 0.0946 0.3406
H18 H 0.3299 0.0447 0.2788
H19 H 0.3631 0.1926 0.2849
loop_
_geom_bond_atom_site_label_1
_geom_bond_atom_site_label_2
_geom_bond_site_symmetry_1
_geom_bond_site_symmetry_2
O1 C1 1_555 1_555
O2 C8 1_555 1_555
O3 H1 1_555 1_555
N1 H2 1_555 1_555
C1 C2 1_555 1_555
C2 H3 1_555 1_555
C3 C2 1_555 1_555
H4 C3 1_555 1_555
C4 C3 1_555 1_555
H5 C4 1_555 1_555
C5 C4 1_555 1_555
H6 C5 1_555 1_555
C6 C1 1_555 1_555
C7 O1 1_555 1_555
H7 C7 1_555 1_555
H8 C7 1_555 1_555
H9 C7 1_555 1_555
C8 N1 1_555 1_555
C9 N1 1_555 1_555
H10 C9 1_555 1_555
C10 O3 1_555 1_555
H11 C10 1_555 1_555
H12 C10 1_555 1_555
C11 C9 1_555 1_555
H13 C11 1_555 1_555
C12 C11 1_555 1_555
H14 C12 1_555 1_555
H15 C12 1_555 1_555
H16 C12 1_555 1_555
C13 C11 1_555 1_555
H17 C13 1_555 1_555
H18 C13 1_555 1_555
H19 C13 1_555 1_555
C5 C6 1_555 1_555
C6 C8 1_555 1_555
C9 C10 1_555 1_555

#END
