
#######################################################################
#
#                 Cambridge Crystallographic Data Centre
#                                CCDC 
#
#######################################################################
#
# If this CIF has been generated from an entry in the Cambridge 
# Structural Database, then it will include bibliographic, chemical, 
# crystal, experimental, refinement or atomic coordinate data resulting 
# from the CCDC's data processing and validation procedures.
#
#######################################################################

data_LOBXIK
_chemical_formula_moiety         'C18 H20 Cl1 N1 O4'
_chemical_name_systematic        
2-(3-Chloro-4-hydroxyphenyl)-N-(3,4-dimethoxyphenylethyl)acetamide
_symmetry_cell_setting           monoclinic
_symmetry_space_group_name_H-M   'P 21/n'
_symmetry_Int_Tables_number      14
_space_group_name_Hall           '-P 2yn'
loop_
_symmetry_equiv_pos_site_id
_symmetry_equiv_pos_as_xyz
1 x,y,z
2 1/2-x,1/2+y,1/2-z
3 -x,-y,-z
4 1/2+x,1/2-y,1/2+z
_cell_length_a                   12.329(3)
_cell_length_b                   12.839(5)
_cell_length_c                   11.062(3)
_cell_angle_alpha                90
_cell_angle_beta                 92.18(2)
_cell_angle_gamma                90
_cell_volume                     1749.76
_exptl_crystal_colour            colorless
_exptl_crystal_description       prismatic
_cell_formula_units_Z            4
loop_
_atom_site_label
_atom_site_type_symbol
_atom_site_fract_x
_atom_site_fract_y
_atom_site_fract_z
Cl1 Cl 0.45169(9) 0.55050(8) 0.30062(9)
O1 O 0.28934(19) 0.46680(18) 0.13154(19)
O2 O 0.5970(2) 0.0875(2) 0.5455(2)
O3 O 1.02796(18) 0.23926(19) 0.5658(2)
O4 O 0.94460(19) 0.41834(18) 0.6082(2)
N1 N 0.5696(2) 0.1267(2) 0.3474(3)
C1 C 0.3920(3) 0.2566(3) 0.3989(3)
C2 C 0.4348(3) 0.3564(3) 0.3927(3)
C3 C 0.3990(3) 0.4245(3) 0.3042(3)
C4 C 0.3205(3) 0.3961(3) 0.2174(3)
C5 C 0.2765(3) 0.2977(3) 0.2247(3)
C6 C 0.3118(3) 0.2284(3) 0.3136(3)
C7 C 0.4368(3) 0.1806(3) 0.4917(3)
C8 C 0.5425(3) 0.1284(3) 0.4612(4)
C9 C 0.6665(3) 0.0772(3) 0.3040(4)
C10 C 0.7448(3) 0.1555(3) 0.2523(3)
C11 C 0.7947(3) 0.2290(3) 0.3448(3)
C12 C 0.8890(3) 0.1991(3) 0.4103(3)
C13 C 0.9362(3) 0.2626(3) 0.4968(3)
C14 C 0.8904(3) 0.3599(3) 0.5209(3)
C15 C 0.7965(3) 0.3898(3) 0.4579(3)
C16 C 0.7501(3) 0.3244(3) 0.3708(3)
C17 C 1.0790(3) 0.1422(3) 0.5422(4)
C18 C 0.8999(3) 0.5175(3) 0.6355(4)
H1 H 0.52920 0.15340 0.28470
H2 H 0.48940 0.37790 0.45040
H3 H 0.22920 0.44390 0.09130
H4 H 0.22100 0.27710 0.16780
H5 H 0.28090 0.16070 0.31640
H6 H 0.44830 0.21720 0.56580
H7 H 0.38400 0.12770 0.50170
H8 H 0.70220 0.04160 0.36940
H9 H 0.64580 0.02860 0.24260
H10 H 0.80160 0.11820 0.21600
H11 H 0.70660 0.19560 0.19240
H12 H 0.92100 0.13350 0.39450
H13 H 0.76400 0.45500 0.47430
H14 H 0.68580 0.34580 0.32790
H15 H 1.14550 0.13770 0.58820
H16 H 1.03260 0.08680 0.56430
H17 H 1.09290 0.13730 0.45860
H18 H 0.82940 0.50840 0.66600
H19 H 0.94520 0.55140 0.69460
H20 H 0.89500 0.55850 0.56410
loop_
_geom_bond_atom_site_label_1
_geom_bond_atom_site_label_2
_geom_bond_site_symmetry_1
_geom_bond_site_symmetry_2
Cl1 C3 1_555 1_555
O1 C4 1_555 1_555
O2 C8 1_555 1_555
O3 C13 1_555 1_555
O4 C14 1_555 1_555
N1 C8 1_555 1_555
C1 C2 1_555 1_555
C2 C3 1_555 1_555
C3 C4 1_555 1_555
C4 C5 1_555 1_555
C5 C6 1_555 1_555
C6 C1 1_555 1_555
C7 C1 1_555 1_555
C8 C7 1_555 1_555
C9 N1 1_555 1_555
C10 C9 1_555 1_555
C11 C10 1_555 1_555
C12 C11 1_555 1_555
C13 C12 1_555 1_555
C14 C13 1_555 1_555
C15 C14 1_555 1_555
C16 C11 1_555 1_555
C17 O3 1_555 1_555
C18 O4 1_555 1_555
H1 N1 1_555 1_555
H2 C2 1_555 1_555
H3 O1 1_555 1_555
H4 C5 1_555 1_555
H5 C6 1_555 1_555
H6 C7 1_555 1_555
H7 C7 1_555 1_555
H8 C9 1_555 1_555
H9 C9 1_555 1_555
H10 C10 1_555 1_555
H11 C10 1_555 1_555
H12 C12 1_555 1_555
H13 C15 1_555 1_555
H14 C16 1_555 1_555
H15 C17 1_555 1_555
H16 C17 1_555 1_555
H17 C17 1_555 1_555
H18 C18 1_555 1_555
H19 C18 1_555 1_555
H20 C18 1_555 1_555
C15 C16 1_555 1_555

#END
