
#######################################################################
#
#                 Cambridge Crystallographic Data Centre
#                                CCDC 
#
#######################################################################
#
# If this CIF has been generated from an entry in the Cambridge 
# Structural Database, then it will include bibliographic, chemical, 
# crystal, experimental, refinement or atomic coordinate data resulting 
# from the CCDC's data processing and validation procedures.
#
#######################################################################

data_LOBYUY
_chemical_formula_moiety         'C60 H120 Ba3 N6 O9'
_chemical_name_systematic        
bis(\m~3~-1-((2-(dimethylamino)ethyl)(methyl)amino)-2-methylpropan-2-olato)-(\m~2~-1-((2-(dimethylamino)ethyl)(methyl)amino)-2-methylpropan-2-olato)-(\m~2~-2,2,6,6-tetramethyl-3,5-heptanedionato)-bis(2,2,6,6-tetramethyl-3,5-heptanedionato)-tri-barium
_symmetry_cell_setting           monoclinic
_symmetry_space_group_name_H-M   'P 21/c'
_symmetry_Int_Tables_number      14
_space_group_name_Hall           '-P 2ybc'
loop_
_symmetry_equiv_pos_site_id
_symmetry_equiv_pos_as_xyz
1 x,y,z
2 -x,1/2+y,1/2-z
3 -x,-y,-z
4 x,1/2-y,1/2+z
_cell_length_a                   14.6152(4)
_cell_length_b                   10.9544(3)
_cell_length_c                   45.8249(14)
_cell_angle_alpha                90
_cell_angle_beta                 96.130(2)
_cell_angle_gamma                90
_cell_volume                     7294.65
_exptl_crystal_colour            colorless
_exptl_crystal_description       block
_cell_formula_units_Z            4
_chemical_properties_physical    
'Air-sensitive, Moisture-sensitive, Hygroscropic, Oxygen-sensitive'
_exptl_crystal_recrystallization_method hexane
loop_
_atom_site_label
_atom_site_type_symbol
_atom_site_fract_x
_atom_site_fract_y
_atom_site_fract_z
Ba1 Ba 0.804040(19) 0.02363(3) 0.179586(6)
Ba2 Ba 0.669215(19) 0.17174(3) 0.108323(6)
Ba3 Ba 0.960976(19) 0.14444(3) 0.125955(6)
O1 O 0.6199(2) 0.0634(3) 0.16204(7)
O2 O 0.7141(2) 0.1228(3) 0.22082(7)
O3 O 0.9814(2) 0.0367(3) 0.17501(7)
O4 O 0.6839(2) 0.3369(3) 0.06579(7)
O5 O 0.5590(2) 0.3634(3) 0.10865(7)
O6 O 0.7991(2) 0.0020(3) 0.12138(7)
O7 O 1.0250(2) 0.1989(3) 0.07541(7)
O8 O 1.0511(2) -0.0361(3) 0.10144(7)
O9 O 0.8066(2) 0.2313(3) 0.14767(7)
N1 N 0.7673(3) -0.1992(4) 0.21473(9)
N2 N 0.9360(3) -0.0351(4) 0.23270(8)
N3 N 0.5261(3) 0.0783(4) 0.05807(9)
N4 N 0.7428(3) 0.0264(4) 0.05953(8)
N5 N 1.1178(3) 0.3212(4) 0.14601(9)
N6 N 0.9228(3) 0.4157(4) 0.12751(9)
C1 C 0.5504(3) 0.0761(4) 0.17658(11)
C2 C 0.5538(3) 0.1196(5) 0.20539(11)
H1 H 0.4961 0.1330 0.2126
C3 C 0.6333(3) 0.1466(5) 0.22526(11)
C4 C 0.4560(3) 0.0399(5) 0.16027(11)
C5 C 0.4430(4) 0.1043(6) 0.13041(11)
H2 H 0.4958 0.0867 0.1196
H3 H 0.4384 0.1925 0.1334
H4 H 0.3866 0.0746 0.1192
C6 C 0.3733(3) 0.0677(6) 0.17693(12)
H5 H 0.3167 0.0421 0.1651
H6 H 0.3706 0.1556 0.1808
H7 H 0.3795 0.0233 0.1956
C7 C 0.4593(4) -0.0988(5) 0.15584(13)
H8 H 0.4008 -0.1266 0.1455
H9 H 0.4695 -0.1393 0.1750
H10 H 0.5097 -0.1192 0.1442
C8 C 0.6164(4) 0.2093(6) 0.25440(12)
C9 C 0.5589(6) 0.3219(7) 0.24871(17)
H11 H 0.5922 0.3811 0.2378
H12 H 0.5463 0.3579 0.2674
H13 H 0.5008 0.3004 0.2372
C10 C 0.5574(5) 0.1210(7) 0.27216(14)
H14 H 0.5459 0.1599 0.2907
H15 H 0.5910 0.0445 0.2763
H16 H 0.4986 0.1037 0.2605
C11 C 0.7032(5) 0.2272(9) 0.27342(16)
H17 H 0.7433 0.2823 0.2638
H18 H 0.7339 0.1483 0.2770
H19 H 0.6899 0.2628 0.2921
C12 C 0.6673(4) -0.1898(6) 0.21591(13)
H20 H 0.6463 -0.2587 0.2271
H21 H 0.6359 -0.1913 0.1959
H22 H 0.6533 -0.1131 0.2255
C13 C 0.7868(4) -0.3214(5) 0.20339(12)
H23 H 0.7711 -0.3836 0.2174
H24 H 0.8524 -0.3274 0.2008
H25 H 0.7500 -0.3342 0.1845
C14 C 0.8155(3) -0.1824(5) 0.24448(11)
H26 H 0.8078 -0.2570 0.2562
H27 H 0.7866 -0.1139 0.2542
C15 C 0.9174(3) -0.1564(4) 0.24443(11)
H28 H 0.9476 -0.1626 0.2648
H29 H 0.9448 -0.2193 0.2325
C16 C 0.9211(4) 0.0592(5) 0.25437(11)
H30 H 0.9625 0.0449 0.2723
H31 H 0.8571 0.0561 0.2589
H32 H 0.9338 0.1397 0.2464
C17 C 1.0319(3) -0.0265(5) 0.22430(11)
H33 H 1.0706 -0.0882 0.2356
H34 H 1.0571 0.0550 0.2300
C18 C 1.0391(3) -0.0461(5) 0.19137(11)
C19 C 1.1391(3) -0.0226(6) 0.18636(12)
H35 H 1.1563 0.0607 0.1926
H36 H 1.1463 -0.0322 0.1655
H37 H 1.1790 -0.0811 0.1978
C20 C 1.0161(4) -0.1769(5) 0.18142(12)
H38 H 1.0210 -0.1842 0.1603
H39 H 0.9532 -0.1967 0.1854
H40 H 1.0593 -0.2335 0.1922
C21 C 0.6492(3) 0.4386(5) 0.05692(10)
C22 C 0.5814(3) 0.5021(5) 0.07070(11)
H41 H 0.5624 0.5792 0.0627
C23 C 0.5403(3) 0.4619(5) 0.09478(12)
C24 C 0.6803(3) 0.4895(5) 0.02784(11)
C25 C 0.7840(4) 0.4758(6) 0.02827(12)
H42 H 0.8034 0.5070 0.0098
H43 H 0.8007 0.3893 0.0305
H44 H 0.8148 0.5221 0.0448
C26 C 0.6550(4) 0.6230(5) 0.02191(12)
H45 H 0.5882 0.6330 0.0213
H46 H 0.6750 0.6478 0.0031
H47 H 0.6856 0.6740 0.0376
C27 C 0.6332(4) 0.4114(5) 0.00297(11)
H48 H 0.5663 0.4198 0.0025
H49 H 0.6505 0.3257 0.0063
H50 H 0.6527 0.4387 -0.0158
C28 C 0.4596(4) 0.5361(5) 0.10563(12)
C29 C 0.3716(4) 0.4636(6) 0.09622(16)
H51 H 0.3184 0.5070 0.1025
H52 H 0.3761 0.3825 0.1053
H53 H 0.3640 0.4549 0.0748
C30 C 0.4756(5) 0.5464(7) 0.13909(13)
H54 H 0.4253 0.5930 0.1462
H55 H 0.5341 0.5882 0.1447
H56 H 0.4776 0.4645 0.1478
C31 C 0.4482(3) 0.6648(5) 0.09269(13)
H57 H 0.3962 0.7054 0.1004
H58 H 0.4367 0.6595 0.0713
H59 H 0.5045 0.7118 0.0981
C32 C 0.4687(4) -0.0318(5) 0.05731(12)
H60 H 0.4304 -0.0363 0.0384
H61 H 0.4292 -0.0286 0.0733
H62 H 0.5082 -0.1042 0.0597
C33 C 0.4662(4) 0.1855(5) 0.05336(12)
H63 H 0.4169 0.1682 0.0377
H64 H 0.5024 0.2553 0.0477
H65 H 0.4393 0.2047 0.0715
C34 C 0.5869(4) 0.0751(5) 0.03431(11)
H66 H 0.6140 0.1572 0.0325
H67 H 0.5490 0.0569 0.0156
C35 C 0.6647(3) -0.0179(5) 0.03862(11)
H68 H 0.6408 -0.0950 0.0461
H69 H 0.6873 -0.0354 0.0194
C36 C 0.7993(3) 0.1098(5) 0.04398(11)
H70 H 0.8245 0.0659 0.0280
H71 H 0.8499 0.1412 0.0577
H72 H 0.7613 0.1780 0.0359
C37 C 0.7997(3) -0.0759(5) 0.07253(11)
H73 H 0.8655 -0.0557 0.0719
H74 H 0.7861 -0.1500 0.0604
C38 C 0.7831(3) -0.1042(4) 0.10438(11)
C39 C 0.6836(3) -0.1519(4) 0.10635(11)
H75 H 0.6751 -0.1686 0.1269
H76 H 0.6739 -0.2271 0.0949
H77 H 0.6391 -0.0900 0.0985
C40 C 0.8503(4) -0.2056(4) 0.11539(11)
H78 H 0.9136 -0.1778 0.1143
H79 H 0.8385 -0.2783 0.1031
H80 H 0.8417 -0.2255 0.1358
C41 C 1.0705(3) 0.1520(5) 0.05635(11)
C42 C 1.1043(3) 0.0333(5) 0.05734(12)
H81 H 1.1370 0.0082 0.0415
C43 C 1.0948(3) -0.0534(5) 0.07953(11)
C44 C 1.0921(4) 0.2389(5) 0.03114(11)
C45 C 1.0042(4) 0.3048(6) 0.01951(13)
H82 H 1.0170 0.3599 0.0036
H83 H 0.9814 0.3521 0.0354
H84 H 0.9577 0.2449 0.0121
C46 C 1.1604(5) 0.3335(6) 0.04547(13)
H85 H 1.1764 0.3917 0.0306
H86 H 1.2163 0.2919 0.0541
H87 H 1.1323 0.3773 0.0609
C47 C 1.1340(4) 0.1787(5) 0.00612(12)
H88 H 1.1447 0.2402 -0.0087
H89 H 1.0920 0.1160 -0.0027
H90 H 1.1927 0.1408 0.0135
C48 C 1.1399(4) -0.1810(5) 0.07798(12)
C49 C 1.0616(4) -0.2739(5) 0.07122(14)
H91 H 1.0877 -0.3559 0.0699
H92 H 1.0262 -0.2529 0.0525
H93 H 1.0212 -0.2721 0.0869
C50 C 1.1916(4) -0.2085(6) 0.10793(13)
H94 H 1.2206 -0.2890 0.1075
H95 H 1.1484 -0.2077 0.1229
H96 H 1.2391 -0.1463 0.1127
C51 C 1.2054(4) -0.1936(5) 0.05419(12)
H97 H 1.2303 -0.2768 0.0545
H98 H 1.2560 -0.1352 0.0580
H99 H 1.1719 -0.1770 0.0349
C52 C 1.1903(3) 0.2623(5) 0.13162(12)
H100 H 1.2477 0.3081 0.1358
H101 H 1.1728 0.2604 0.1104
H102 H 1.1991 0.1786 0.1390
C53 C 1.1492(4) 0.3385(6) 0.17703(11)
H103 H 1.1996 0.3979 0.1791
H104 H 1.1709 0.2604 0.1856
H105 H 1.0981 0.3687 0.1873
C54 C 1.0934(3) 0.4399(5) 0.13216(12)
H106 H 1.0909 0.4310 0.1106
H107 H 1.1422 0.4997 0.1385
C55 C 1.0026(3) 0.4885(5) 0.13968(11)
H108 H 1.0035 0.4913 0.1613
H109 H 0.9950 0.5731 0.1323
C56 C 0.9074(4) 0.4332(5) 0.09564(10)
H110 H 0.8933 0.5192 0.0913
H111 H 0.8557 0.3823 0.0875
H112 H 0.9630 0.4099 0.0868
C57 C 0.8384(3) 0.4449(4) 0.14105(10)
H113 H 0.7872 0.4569 0.1253
H114 H 0.8477 0.5227 0.1520
C58 C 0.8111(3) 0.3459(4) 0.16202(11)
C59 C 0.7159(3) 0.3788(5) 0.17105(11)
H115 H 0.6713 0.3837 0.1535
H116 H 0.7192 0.4578 0.1811
H117 H 0.6963 0.3158 0.1843
C60 C 0.8793(3) 0.3380(5) 0.18971(10)
H118 H 0.9404 0.3167 0.1843
H119 H 0.8589 0.2752 0.2028
H120 H 0.8824 0.4171 0.1998
loop_
_geom_bond_atom_site_label_1
_geom_bond_atom_site_label_2
_geom_bond_site_symmetry_1
_geom_bond_site_symmetry_2
Ba1 O1 1_555 1_555
Ba2 O1 1_555 1_555
Ba3 O3 1_555 1_555
O1 C1 1_555 1_555
O2 Ba1 1_555 1_555
O3 Ba1 1_555 1_555
O4 Ba2 1_555 1_555
O5 Ba2 1_555 1_555
O6 Ba1 1_555 1_555
O7 Ba3 1_555 1_555
O8 Ba3 1_555 1_555
O9 Ba1 1_555 1_555
N1 Ba1 1_555 1_555
N2 Ba1 1_555 1_555
N3 Ba2 1_555 1_555
N4 Ba2 1_555 1_555
N5 Ba3 1_555 1_555
N6 Ba3 1_555 1_555
C1 C2 1_555 1_555
C2 H1 1_555 1_555
C3 O2 1_555 1_555
C4 C1 1_555 1_555
C5 C4 1_555 1_555
H2 C5 1_555 1_555
H3 C5 1_555 1_555
H4 C5 1_555 1_555
C6 C4 1_555 1_555
H5 C6 1_555 1_555
H6 C6 1_555 1_555
H7 C6 1_555 1_555
C7 C4 1_555 1_555
H8 C7 1_555 1_555
H9 C7 1_555 1_555
H10 C7 1_555 1_555
C8 C3 1_555 1_555
C9 C8 1_555 1_555
H11 C9 1_555 1_555
H12 C9 1_555 1_555
H13 C9 1_555 1_555
C10 C8 1_555 1_555
H14 C10 1_555 1_555
H15 C10 1_555 1_555
H16 C10 1_555 1_555
C11 C8 1_555 1_555
H17 C11 1_555 1_555
H18 C11 1_555 1_555
H19 C11 1_555 1_555
C12 N1 1_555 1_555
H20 C12 1_555 1_555
H21 C12 1_555 1_555
H22 C12 1_555 1_555
C13 N1 1_555 1_555
H23 C13 1_555 1_555
H24 C13 1_555 1_555
H25 C13 1_555 1_555
C14 N1 1_555 1_555
H26 C14 1_555 1_555
H27 C14 1_555 1_555
C15 N2 1_555 1_555
H28 C15 1_555 1_555
H29 C15 1_555 1_555
C16 N2 1_555 1_555
H30 C16 1_555 1_555
H31 C16 1_555 1_555
H32 C16 1_555 1_555
C17 N2 1_555 1_555
H33 C17 1_555 1_555
H34 C17 1_555 1_555
C18 O3 1_555 1_555
C19 C18 1_555 1_555
H35 C19 1_555 1_555
H36 C19 1_555 1_555
H37 C19 1_555 1_555
C20 C18 1_555 1_555
H38 C20 1_555 1_555
H39 C20 1_555 1_555
H40 C20 1_555 1_555
C21 O4 1_555 1_555
C22 C21 1_555 1_555
H41 C22 1_555 1_555
C23 O5 1_555 1_555
C24 C21 1_555 1_555
C25 C24 1_555 1_555
H42 C25 1_555 1_555
H43 C25 1_555 1_555
H44 C25 1_555 1_555
C26 C24 1_555 1_555
H45 C26 1_555 1_555
H46 C26 1_555 1_555
H47 C26 1_555 1_555
C27 C24 1_555 1_555
H48 C27 1_555 1_555
H49 C27 1_555 1_555
H50 C27 1_555 1_555
C28 C23 1_555 1_555
C29 C28 1_555 1_555
H51 C29 1_555 1_555
H52 C29 1_555 1_555
H53 C29 1_555 1_555
C30 C28 1_555 1_555
H54 C30 1_555 1_555
H55 C30 1_555 1_555
H56 C30 1_555 1_555
C31 C28 1_555 1_555
H57 C31 1_555 1_555
H58 C31 1_555 1_555
H59 C31 1_555 1_555
C32 N3 1_555 1_555
H60 C32 1_555 1_555
H61 C32 1_555 1_555
H62 C32 1_555 1_555
C33 N3 1_555 1_555
H63 C33 1_555 1_555
H64 C33 1_555 1_555
H65 C33 1_555 1_555
C34 N3 1_555 1_555
H66 C34 1_555 1_555
H67 C34 1_555 1_555
C35 N4 1_555 1_555
H68 C35 1_555 1_555
H69 C35 1_555 1_555
C36 N4 1_555 1_555
H70 C36 1_555 1_555
H71 C36 1_555 1_555
H72 C36 1_555 1_555
C37 N4 1_555 1_555
H73 C37 1_555 1_555
H74 C37 1_555 1_555
C38 O6 1_555 1_555
C39 C38 1_555 1_555
H75 C39 1_555 1_555
H76 C39 1_555 1_555
H77 C39 1_555 1_555
C40 C38 1_555 1_555
H78 C40 1_555 1_555
H79 C40 1_555 1_555
H80 C40 1_555 1_555
C41 O7 1_555 1_555
C42 C41 1_555 1_555
H81 C42 1_555 1_555
C43 O8 1_555 1_555
C44 C41 1_555 1_555
C45 C44 1_555 1_555
H82 C45 1_555 1_555
H83 C45 1_555 1_555
H84 C45 1_555 1_555
C46 C44 1_555 1_555
H85 C46 1_555 1_555
H86 C46 1_555 1_555
H87 C46 1_555 1_555
C47 C44 1_555 1_555
H88 C47 1_555 1_555
H89 C47 1_555 1_555
H90 C47 1_555 1_555
C48 C43 1_555 1_555
C49 C48 1_555 1_555
H91 C49 1_555 1_555
H92 C49 1_555 1_555
H93 C49 1_555 1_555
C50 C48 1_555 1_555
H94 C50 1_555 1_555
H95 C50 1_555 1_555
H96 C50 1_555 1_555
C51 C48 1_555 1_555
H97 C51 1_555 1_555
H98 C51 1_555 1_555
H99 C51 1_555 1_555
C52 N5 1_555 1_555
H100 C52 1_555 1_555
H101 C52 1_555 1_555
H102 C52 1_555 1_555
C53 N5 1_555 1_555
H103 C53 1_555 1_555
H104 C53 1_555 1_555
H105 C53 1_555 1_555
C54 N5 1_555 1_555
H106 C54 1_555 1_555
H107 C54 1_555 1_555
C55 N6 1_555 1_555
H108 C55 1_555 1_555
H109 C55 1_555 1_555
C56 N6 1_555 1_555
H110 C56 1_555 1_555
H111 C56 1_555 1_555
H112 C56 1_555 1_555
C57 N6 1_555 1_555
H113 C57 1_555 1_555
H114 C57 1_555 1_555
C58 O9 1_555 1_555
C59 C58 1_555 1_555
H115 C59 1_555 1_555
H116 C59 1_555 1_555
H117 C59 1_555 1_555
C60 C58 1_555 1_555
H118 C60 1_555 1_555
H119 C60 1_555 1_555
H120 C60 1_555 1_555
Ba2 O6 1_555 1_555
Ba2 O9 1_555 1_555
Ba3 O6 1_555 1_555
Ba3 O9 1_555 1_555
C2 C3 1_555 1_555
C14 C15 1_555 1_555
C17 C18 1_555 1_555
C22 C23 1_555 1_555
C34 C35 1_555 1_555
C37 C38 1_555 1_555
C42 C43 1_555 1_555
C54 C55 1_555 1_555
C57 C58 1_555 1_555

#END
