
#######################################################################
#
#                 Cambridge Crystallographic Data Centre
#                                CCDC 
#
#######################################################################
#
# If this CIF has been generated from an entry in the Cambridge 
# Structural Database, then it will include bibliographic, chemical, 
# crystal, experimental, refinement or atomic coordinate data resulting 
# from the CCDC's data processing and validation procedures.
#
#######################################################################

data_LOBZUZ
_chemical_formula_moiety         'C32 H16 S8'
_chemical_name_systematic        
2,5,8,11-tetrakis(3-thienyl)tristhieno[2',3':5,6;3'',2'':3,4;3''',2''':7,8]cycloocta[1,2-b]thiophene
_symmetry_cell_setting           monoclinic
_symmetry_space_group_name_H-M   'P 21/c'
_symmetry_Int_Tables_number      14
_space_group_name_Hall           '-P 2ybc'
loop_
_symmetry_equiv_pos_site_id
_symmetry_equiv_pos_as_xyz
1 x,y,z
2 -x,1/2+y,1/2-z
3 -x,-y,-z
4 x,1/2-y,1/2+z
_cell_length_a                   12.7395(12)
_cell_length_b                   20.142(2)
_cell_length_c                   13.0720(13)
_cell_angle_alpha                90
_cell_angle_beta                 118.888(2)
_cell_angle_gamma                90
_cell_volume                     2936.88
_exptl_crystal_colour            'light yellow'
_exptl_crystal_description       rod
_cell_formula_units_Z            4
loop_
_atom_site_label
_atom_site_type_symbol
_atom_site_fract_x
_atom_site_fract_y
_atom_site_fract_z
S1 S 0.30236(15) 0.30666(9) 0.38530(14)
S2 S 0.46255(14) 0.33948(9) 0.94765(14)
S3 S 0.23931(14) 0.44480(8) 0.77492(14)
S4 S 0.16461(15) 0.17942(9) 0.45655(15)
S5 S 0.4843(3) 0.43970(18) 0.2001(3)
S6 S 0.8333(2) 0.27432(19) 1.2816(2)
S7 S -0.0632(2) 0.60472(14) 0.6888(3)
S8 S -0.1603(4) 0.02461(19) 0.3473(4)
C1 C 0.3124(6) 0.2892(3) 0.5237(5)
C2 C 0.4307(6) 0.3514(4) 0.4497(6)
C3 C 0.4686(6) 0.3889(4) 0.3757(5)
C4 C 0.4230(9) 0.3866(5) 0.2552(6)
H1 H 0.3622 0.3574 0.2081
C5 C 0.5769(9) 0.4673(6) 0.3305(8)
H2 H 0.6359 0.4987 0.3452
C6 C 0.5578(10) 0.4380(6) 0.4199(8)
H3 H 0.5997 0.4502 0.4982
C7 C 0.4800(6) 0.3503(4) 0.5717(6)
H4 H 0.5529 0.3706 0.6209
C8 C 0.4131(5) 0.3169(3) 0.6151(6)
C9 C 0.4493(5) 0.3134(3) 0.7433(6)
C10 C 0.5598(5) 0.2897(4) 0.8339(6)
H5 H 0.6161 0.2689 0.8187
C11 C 0.5795(6) 0.2995(4) 0.9490(7)
C12 C 0.6790(6) 0.2799(4) 1.0597(5)
C13 C 0.7545(7) 0.2248(6) 1.0726(7)
H6 H 0.7437 0.1983 1.0100
C14 C 0.8488(6) 0.2133(5) 1.1900(6)
H7 H 0.9070 0.1803 1.2139
C15 C 0.7151(8) 0.3088(5) 1.1690(6)
H8 H 0.6755 0.3451 1.1783
C16 C 0.3861(5) 0.3411(3) 0.7931(5)
C17 C 0.2671(5) 0.3679(3) 0.7310(5)
C18 C 0.0929(6) 0.4396(3) 0.6737(6)
C19 C 0.0123(6) 0.4933(3) 0.6591(6)
C20 C 0.0440(8) 0.5528(4) 0.7182(9)
H9 H 0.1231 0.5626 0.7723
C21 C -0.1760(5) 0.5530(2) 0.5812(5)
H10 H -0.2576 0.5616 0.5365
C22 C -0.1101(6) 0.4940(4) 0.5797(7)
H11 H -0.1476 0.4589 0.5288
C23 C 0.0677(5) 0.3812(3) 0.6109(5)
H12 H -0.0088 0.3698 0.5526
C24 C 0.1687(5) 0.3406(3) 0.6432(5)
C25 C 0.1567(5) 0.2747(3) 0.5865(5)
C26 C 0.0662(5) 0.2301(3) 0.5689(5)
H13 H 0.0156 0.2363 0.6008
C27 C 0.0573(6) 0.1756(3) 0.5000(6)
C28 C -0.0327(6) 0.1239(3) 0.4584(6)
C29 C -0.1298(8) 0.1240(5) 0.4746(9)
H14 H -0.1417 0.1565 0.5186
C30 C -0.2140(8) 0.0701(4) 0.4189(9)
H15 H -0.2842 0.0623 0.4223
C31 C -0.0394(12) 0.0699(5) 0.3898(11)
H16 H 0.0197 0.0602 0.3697
C32 C 0.2197(5) 0.2543(3) 0.5314(6)
loop_
_geom_bond_atom_site_label_1
_geom_bond_atom_site_label_2
_geom_bond_site_symmetry_1
_geom_bond_site_symmetry_2
S1 C1 1_555 1_555
S2 C11 1_555 1_555
S3 C17 1_555 1_555
S4 C27 1_555 1_555
S5 C4 1_555 1_555
S6 C14 1_555 1_555
S7 C20 1_555 1_555
S8 C30 1_555 1_555
C1 C8 1_555 1_555
C2 S1 1_555 1_555
C3 C2 1_555 1_555
C4 C3 1_555 1_555
H1 C4 1_555 1_555
C5 S5 1_555 1_555
H2 C5 1_555 1_555
C6 C3 1_555 1_555
H3 C6 1_555 1_555
C7 C2 1_555 1_555
H4 C7 1_555 1_555
C8 C7 1_555 1_555
C9 C8 1_555 1_555
C10 C9 1_555 1_555
H5 C10 1_555 1_555
C11 C10 1_555 1_555
C12 C11 1_555 1_555
C13 C12 1_555 1_555
H6 C13 1_555 1_555
C14 C13 1_555 1_555
H7 C14 1_555 1_555
C15 S6 1_555 1_555
H8 C15 1_555 1_555
C16 S2 1_555 1_555
C17 C16 1_555 1_555
C18 S3 1_555 1_555
C19 C18 1_555 1_555
C20 C19 1_555 1_555
H9 C20 1_555 1_555
C21 S7 1_555 1_555
H10 C21 1_555 1_555
C22 C19 1_555 1_555
H11 C22 1_555 1_555
C23 C18 1_555 1_555
H12 C23 1_555 1_555
C24 C17 1_555 1_555
C25 C24 1_555 1_555
C26 C25 1_555 1_555
H13 C26 1_555 1_555
C27 C26 1_555 1_555
C28 C27 1_555 1_555
C29 C28 1_555 1_555
H14 C29 1_555 1_555
C30 C29 1_555 1_555
H15 C30 1_555 1_555
C31 S8 1_555 1_555
H16 C31 1_555 1_555
C32 S4 1_555 1_555
C1 C32 1_555 1_555
C5 C6 1_555 1_555
C9 C16 1_555 1_555
C12 C15 1_555 1_555
C21 C22 1_555 1_555
C23 C24 1_555 1_555
C25 C32 1_555 1_555
C28 C31 1_555 1_555

#END
