
#######################################################################
#
#                 Cambridge Crystallographic Data Centre
#                                CCDC 
#
#######################################################################
#
# If this CIF has been generated from an entry in the Cambridge 
# Structural Database, then it will include bibliographic, chemical, 
# crystal, experimental, refinement or atomic coordinate data resulting 
# from the CCDC's data processing and validation procedures.
#
#######################################################################

data_LOBZOT
_chemical_formula_moiety         'C40 H24 S4'
_chemical_name_systematic        
2,5,8,11-Tetraphenyltristhieno[2',3':5,6;3'',2'':3,4;3''',2''':7,8]cycloocta[1,2-b]thiophene
_symmetry_cell_setting           monoclinic
_symmetry_space_group_name_H-M   'P 21/c'
_symmetry_Int_Tables_number      14
_space_group_name_Hall           '-P 2ybc'
loop_
_symmetry_equiv_pos_site_id
_symmetry_equiv_pos_as_xyz
1 x,y,z
2 -x,1/2+y,1/2-z
3 -x,-y,-z
4 x,1/2-y,1/2+z
_cell_length_a                   12.163(3)
_cell_length_b                   9.478(2)
_cell_length_c                   28.025(7)
_cell_angle_alpha                90
_cell_angle_beta                 101.537(5)
_cell_angle_gamma                90
_cell_volume                     3165.47
_exptl_crystal_colour            orange
_exptl_crystal_description       Needle
_cell_formula_units_Z            4
loop_
_atom_site_label
_atom_site_type_symbol
_atom_site_fract_x
_atom_site_fract_y
_atom_site_fract_z
S1 S 0.23439(7) 0.25915(10) 0.22192(3)
S2 S 0.77082(7) 0.16893(9) 0.27770(3)
S3 S 0.70709(8) 0.43321(10) 0.34551(3)
S4 S 0.28970(7) -0.00405(9) 0.30608(3)
C1 C 0.3660(3) 0.2016(3) 0.25086(12)
C2 C 0.2842(3) 0.3251(3) 0.17313(12)
C3 C 0.2103(3) 0.4051(4) 0.13436(13)
C4 C 0.0958(4) 0.3983(5) 0.12726(17)
H1 H 0.0625 0.3382 0.1465
C5 C 0.0283(4) 0.4803(6) 0.0916(2)
H2 H -0.0494 0.4738 0.0869
C6 C 0.0760(5) 0.5688(6) 0.0643(2)
H3 H 0.0308 0.6232 0.0405
C7 C 0.1892(5) 0.5797(6) 0.07100(18)
H4 H 0.2214 0.6420 0.0521
C8 C 0.2564(4) 0.4981(5) 0.10590(16)
H5 H 0.3340 0.5058 0.1103
C9 C 0.3963(3) 0.3025(3) 0.17905(11)
H6 H 0.4380 0.3308 0.1563
C10 C 0.4448(3) 0.2312(3) 0.22350(11)
C11 C 0.5642(3) 0.1895(3) 0.23630(12)
C12 C 0.6182(3) 0.1163(3) 0.20271(12)
H7 H 0.5812 0.0850 0.1723
C13 C 0.7312(3) 0.0972(3) 0.22059(12)
C14 C 0.8133(3) 0.0191(4) 0.19862(13)
C15 C 0.7770(3) -0.0834(4) 0.16343(14)
H8 H 0.7005 -0.0983 0.1527
C16 C 0.8521(4) -0.1633(4) 0.14414(15)
H9 H 0.8261 -0.2323 0.1210
C17 C 0.9660(4) -0.1410(5) 0.15913(17)
H10 H 1.0171 -0.1938 0.1460
C18 C 1.0028(3) -0.0403(5) 0.19359(18)
H11 H 1.0794 -0.0251 0.2039
C19 C 0.9278(3) 0.0391(4) 0.21326(15)
H12 H 0.9545 0.1071 0.2367
C20 C 0.6356(3) 0.2232(3) 0.27857(12)
C21 C 0.6153(3) 0.3005(3) 0.32089(12)
C22 C 0.6418(3) 0.4569(4) 0.39378(12)
C23 C 0.6855(4) 0.5616(4) 0.43198(14)
C24 C 0.7969(4) 0.6015(5) 0.44160(15)
H13 H 0.8451 0.5636 0.4230
C25 C 0.8388(6) 0.6967(6) 0.4783(2)
H14 H 0.9144 0.7209 0.4847
C26 C 0.7674(7) 0.7542(6) 0.5047(2)
H15 H 0.7952 0.8189 0.5291
C27 C 0.6572(6) 0.7197(6) 0.4964(2)
H16 H 0.6097 0.7599 0.5148
C28 C 0.6155(4) 0.6214(5) 0.45907(17)
H17 H 0.5399 0.5972 0.4529
C29 C 0.5517(3) 0.3687(3) 0.39043(11)
H18 H 0.5052 0.3677 0.4130
C30 C 0.5356(3) 0.2774(3) 0.34863(11)
C31 C 0.4511(3) 0.1650(3) 0.34133(11)
C32 C 0.4302(3) 0.0789(3) 0.38062(12)
H19 H 0.4706 0.0877 0.4124
C33 C 0.3469(3) -0.0159(4) 0.36753(12)
C34 C 0.3053(3) -0.1220(4) 0.39839(14)
C35 C 0.3616(4) -0.1452(5) 0.44520(18)
H20 H 0.4251 -0.0922 0.4579
C36 C 0.3239(5) -0.2484(7) 0.4740(2)
H21 H 0.3630 -0.2627 0.5057
C37 C 0.2330(5) -0.3268(5) 0.4569(2)
H22 H 0.2096 -0.3955 0.4764
C38 C 0.1763(5) -0.3047(5) 0.4113(2)
H23 H 0.1119 -0.3569 0.3994
C39 C 0.2130(4) -0.2038(4) 0.38151(16)
H24 H 0.1739 -0.1921 0.3497
C40 C 0.3792(3) 0.1320(3) 0.29811(12)
loop_
_geom_bond_atom_site_label_1
_geom_bond_atom_site_label_2
_geom_bond_site_symmetry_1
_geom_bond_site_symmetry_2
S1 C1 1_555 1_555
S2 C13 1_555 1_555
S3 C21 1_555 1_555
S4 C33 1_555 1_555
C1 C10 1_555 1_555
C2 S1 1_555 1_555
C3 C2 1_555 1_555
C4 C3 1_555 1_555
H1 C4 1_555 1_555
C5 C4 1_555 1_555
H2 C5 1_555 1_555
C6 C5 1_555 1_555
H3 C6 1_555 1_555
C7 C6 1_555 1_555
H4 C7 1_555 1_555
C8 C3 1_555 1_555
H5 C8 1_555 1_555
C9 C2 1_555 1_555
H6 C9 1_555 1_555
C10 C9 1_555 1_555
C11 C10 1_555 1_555
C12 C11 1_555 1_555
H7 C12 1_555 1_555
C13 C12 1_555 1_555
C14 C13 1_555 1_555
C15 C14 1_555 1_555
H8 C15 1_555 1_555
C16 C15 1_555 1_555
H9 C16 1_555 1_555
C17 C16 1_555 1_555
H10 C17 1_555 1_555
C18 C17 1_555 1_555
H11 C18 1_555 1_555
C19 C14 1_555 1_555
H12 C19 1_555 1_555
C20 S2 1_555 1_555
C21 C20 1_555 1_555
C22 S3 1_555 1_555
C23 C22 1_555 1_555
C24 C23 1_555 1_555
H13 C24 1_555 1_555
C25 C24 1_555 1_555
H14 C25 1_555 1_555
C26 C25 1_555 1_555
H15 C26 1_555 1_555
C27 C26 1_555 1_555
H16 C27 1_555 1_555
C28 C23 1_555 1_555
H17 C28 1_555 1_555
C29 C22 1_555 1_555
H18 C29 1_555 1_555
C30 C21 1_555 1_555
C31 C30 1_555 1_555
C32 C31 1_555 1_555
H19 C32 1_555 1_555
C33 C32 1_555 1_555
C34 C33 1_555 1_555
C35 C34 1_555 1_555
H20 C35 1_555 1_555
C36 C35 1_555 1_555
H21 C36 1_555 1_555
C37 C36 1_555 1_555
H22 C37 1_555 1_555
C38 C37 1_555 1_555
H23 C38 1_555 1_555
C39 C34 1_555 1_555
H24 C39 1_555 1_555
C40 S4 1_555 1_555
C1 C40 1_555 1_555
C7 C8 1_555 1_555
C11 C20 1_555 1_555
C18 C19 1_555 1_555
C27 C28 1_555 1_555
C29 C30 1_555 1_555
C31 C40 1_555 1_555
C38 C39 1_555 1_555

#END
