
#######################################################################
#
#                 Cambridge Crystallographic Data Centre
#                                CCDC 
#
#######################################################################
#
# If this CIF has been generated from an entry in the Cambridge 
# Structural Database, then it will include bibliographic, chemical, 
# crystal, experimental, refinement or atomic coordinate data resulting 
# from the CCDC's data processing and validation procedures.
#
#######################################################################

data_LOCBEL
_chemical_formula_moiety         'C14 H10 Br2 S1'
_chemical_name_systematic        
3,9-Dibromo-6,7-dihydro-5H-dibenzo(c,e)thiepine
_symmetry_cell_setting           monoclinic
_symmetry_space_group_name_H-M   'P 21/c'
_symmetry_Int_Tables_number      14
_space_group_name_Hall           '-P 2ybc'
loop_
_symmetry_equiv_pos_site_id
_symmetry_equiv_pos_as_xyz
1 x,y,z
2 -x,1/2+y,1/2-z
3 -x,-y,-z
4 x,1/2-y,1/2+z
_cell_length_a                   8.6629(12)
_cell_length_b                   4.7219(5)
_cell_length_c                   30.867(3)
_cell_angle_alpha                90
_cell_angle_beta                 93.720(5)
_cell_angle_gamma                90
_cell_volume                     1259.97
_exptl_crystal_colour            colorless
_exptl_crystal_description       block
_cell_formula_units_Z            4
_exptl_crystal_recrystallization_method ethanol
loop_
_atom_site_label
_atom_site_type_symbol
_atom_site_fract_x
_atom_site_fract_y
_atom_site_fract_z
Br1 Br 0.41895(5) 0.61945(10) 0.055440(15)
Br2 Br 1.35085(6) 1.76323(11) 0.226693(14)
S1 S 1.09057(13) 1.1401(3) 0.04915(4)
C1 C 1.2114(5) 1.4013(9) 0.16192(12)
H1 H 1.3131 1.3583 0.1564
C2 C 0.5734(5) 0.8581(9) 0.08152(14)
C3 C 0.6896(5) 1.0665(9) 0.14581(13)
H2 H 0.6905 1.0957 0.1756
C4 C 1.0890(4) 1.2718(9) 0.13757(12)
C5 C 0.9122(5) 1.5295(9) 0.17965(12)
H3 H 0.8115 1.5724 0.1861
C6 C 0.6805(4) 0.9909(9) 0.05755(13)
H4 H 0.6759 0.9670 0.0276
C7 C 0.7955(5) 1.1598(9) 0.07744(13)
C8 C 1.1815(5) 1.5920(9) 0.19398(13)
C9 C 0.9356(4) 1.3383(9) 0.14641(12)
C10 C 1.0326(5) 1.6569(9) 0.20317(13)
H5 H 1.0137 1.7854 0.2250
C11 C 0.5753(5) 0.9018(9) 0.12604(13)
H6 H 0.5000 0.8204 0.1422
C12 C 1.1210(5) 1.0451(9) 0.10551(12)
H7 H 1.0559 0.8835 0.1110
H8 H 1.2277 0.9850 0.1108
C13 C 0.8037(5) 1.1905(9) 0.12287(13)
C14 C 0.9066(4) 1.3159(9) 0.05066(12)
H9 H 0.9229 1.5046 0.0625
H10 H 0.8611 1.3355 0.0213
loop_
_geom_bond_atom_site_label_1
_geom_bond_atom_site_label_2
_geom_bond_site_symmetry_1
_geom_bond_site_symmetry_2
Br1 C2 1_555 1_555
Br2 C8 1_555 1_555
S1 C12 1_555 1_555
C1 H1 1_555 1_555
C2 C6 1_555 1_555
C3 H2 1_555 1_555
C4 C1 1_555 1_555
C5 H3 1_555 1_555
C6 H4 1_555 1_555
C7 C6 1_555 1_555
C8 C1 1_555 1_555
C9 C4 1_555 1_555
C10 C5 1_555 1_555
H5 C10 1_555 1_555
C11 C2 1_555 1_555
H6 C11 1_555 1_555
C12 C4 1_555 1_555
H7 C12 1_555 1_555
H8 C12 1_555 1_555
C13 C3 1_555 1_555
C14 S1 1_555 1_555
H9 C14 1_555 1_555
H10 C14 1_555 1_555
C3 C11 1_555 1_555
C5 C9 1_555 1_555
C7 C13 1_555 1_555
C7 C14 1_555 1_555
C8 C10 1_555 1_555
C9 C13 1_555 1_555

#END
