
#######################################################################
#
#                 Cambridge Crystallographic Data Centre
#                                CCDC 
#
#######################################################################
#
# If this CIF has been generated from an entry in the Cambridge 
# Structural Database, then it will include bibliographic, chemical, 
# crystal, experimental, refinement or atomic coordinate data resulting 
# from the CCDC's data processing and validation procedures.
#
#######################################################################

data_LOCCIQ
_chemical_formula_moiety         'C20 H17 N5'
_chemical_name_systematic        
9-Ethyl-3,6-bis(1H-imidazol-1-yl)-9H-carbazole
_symmetry_cell_setting           triclinic
_symmetry_space_group_name_H-M   'P -1'
_symmetry_Int_Tables_number      2
_space_group_name_Hall           '-P 1'
loop_
_symmetry_equiv_pos_site_id
_symmetry_equiv_pos_as_xyz
1 x,y,z
2 -x,-y,-z
_cell_length_a                   5.625(2)
_cell_length_b                   8.826(3)
_cell_length_c                   17.367(6)
_cell_angle_alpha                92.698(6)
_cell_angle_beta                 96.011(6)
_cell_angle_gamma                102.567(6)
_cell_volume                     834.753
_exptl_crystal_colour            yellow
_cell_formula_units_Z            2
_exptl_crystal_recrystallization_method 'ethyl acetate'
loop_
_atom_site_label
_atom_site_type_symbol
_atom_site_fract_x
_atom_site_fract_y
_atom_site_fract_z
N1 N 0.1045(2) 0.27742(14) 0.46100(7)
N2 N 0.5092(2) 0.65978(14) 0.89697(7)
N3 N -0.2016(2) 0.16321(15) 0.75089(7)
N4 N 0.3765(2) 0.32613(16) 0.37652(8)
C1 C 0.1141(3) 0.34718(16) 0.59877(8)
H1 H 0.2376 0.4348 0.5951
N5 N 0.8819(2) 0.80374(16) 0.93297(8)
C2 C 0.2852(3) 0.50667(17) 0.78096(8)
H2 H 0.3822 0.5709 0.7500
C3 C -0.2661(3) 0.08263(17) 0.60810(9)
H3 H -0.3933 -0.0033 0.6110
C4 C 0.1721(3) 0.43917(19) 0.90816(8)
H4 H 0.1990 0.4603 0.9617
C5 C 0.0298(3) 0.31165(16) 0.66974(8)
C6 C -0.0437(3) 0.28466(17) 0.79635(8)
C7 C 0.0101(2) 0.24932(16) 0.53369(8)
C8 C 0.3440(3) 0.31338(18) 0.44992(9)
H5 H 0.4720 0.3276 0.4900
C9 C 0.1030(3) 0.37991(17) 0.74813(8)
C10 C 0.7507(3) 0.68360(19) 0.88944(9)
H6 H 0.8166 0.6212 0.8568
C11 C -0.1587(3) 0.17865(17) 0.67410(8)
C12 C -0.1790(3) 0.11829(17) 0.53833(8)
H7 H -0.2465 0.0546 0.4937
C13 C -0.0106(3) 0.31464(19) 0.87660(9)
H8 H -0.1090 0.2524 0.9080
C14 C 0.3179(3) 0.53427(17) 0.86085(8)
C15 C 0.4867(3) 0.77539(18) 0.94991(9)
H9 H 0.3427 0.7909 0.9675
C16 C 0.7149(3) 0.86160(19) 0.97109(9)
H10 H 0.7541 0.9481 1.0065
C17 C -0.3662(3) 0.03176(18) 0.77979(10)
H11 H -0.2918 0.0086 0.8295
H12 H -0.3858 -0.0590 0.7440
C18 C -0.0248(3) 0.2658(2) 0.38847(8)
H13 H -0.1944 0.2417 0.3765
C19 C 0.1439(2) 0.29628(17) 0.33811(8)
H14 H 0.1072 0.2969 0.2847
C20 C -0.6119(2) 0.06171(17) 0.78912(8)
H15 H -0.5946 0.1487 0.8262
H16 H -0.7130 -0.0287 0.8071
H17 H -0.6869 0.0844 0.7401
loop_
_geom_bond_atom_site_label_1
_geom_bond_atom_site_label_2
_geom_bond_site_symmetry_1
_geom_bond_site_symmetry_2
N1 C7 1_555 1_555
N2 C10 1_555 1_555
N3 C6 1_555 1_555
N4 C8 1_555 1_555
C1 H1 1_555 1_555
N5 C10 1_555 1_555
C2 H2 1_555 1_555
C3 H3 1_555 1_555
C4 H4 1_555 1_555
C5 C1 1_555 1_555
C6 C9 1_555 1_555
C7 C1 1_555 1_555
C8 N1 1_555 1_555
H5 C8 1_555 1_555
C9 C2 1_555 1_555
C10 H6 1_555 1_555
C11 N3 1_555 1_555
C12 C3 1_555 1_555
H7 C12 1_555 1_555
C13 C4 1_555 1_555
H8 C13 1_555 1_555
C14 N2 1_555 1_555
C15 N2 1_555 1_555
H9 C15 1_555 1_555
C16 N5 1_555 1_555
H10 C16 1_555 1_555
C17 N3 1_555 1_555
H11 C17 1_555 1_555
H12 C17 1_555 1_555
C18 N1 1_555 1_555
H13 C18 1_555 1_555
C19 N4 1_555 1_555
H14 C19 1_555 1_555
C20 C17 1_555 1_555
H15 C20 1_555 1_555
H16 C20 1_555 1_555
H17 C20 1_555 1_555
C2 C14 1_555 1_555
C3 C11 1_555 1_555
C4 C14 1_555 1_555
C5 C9 1_555 1_555
C5 C11 1_555 1_555
C6 C13 1_555 1_555
C7 C12 1_555 1_555
C15 C16 1_555 1_555
C18 C19 1_555 1_555

#END
