
#######################################################################
#
#                 Cambridge Crystallographic Data Centre
#                                CCDC 
#
#######################################################################
#
# If this CIF has been generated from an entry in the Cambridge 
# Structural Database, then it will include bibliographic, chemical, 
# crystal, experimental, refinement or atomic coordinate data resulting 
# from the CCDC's data processing and validation procedures.
#
#######################################################################

data_LOCDAJ
_chemical_formula_moiety         'C17 H17 N1 O1'
_chemical_name_systematic        4-Ethoxy-N-(3-phenylprop-2-enylidene)aniline
_symmetry_cell_setting           monoclinic
_symmetry_space_group_name_H-M   'P 21/c'
_symmetry_Int_Tables_number      14
_space_group_name_Hall           '-P 2ybc'
loop_
_symmetry_equiv_pos_site_id
_symmetry_equiv_pos_as_xyz
1 x,y,z
2 -x,1/2+y,1/2-z
3 -x,-y,-z
4 x,1/2-y,1/2+z
_cell_length_a                   31.12(2)
_cell_length_b                   7.198(6)
_cell_length_c                   6.315(5)
_cell_angle_alpha                90
_cell_angle_beta                 95.822(10)
_cell_angle_gamma                90
_cell_volume                     1407.27
_exptl_crystal_colour            'pale yellow'
_exptl_crystal_description       block
_cell_formula_units_Z            4
loop_
_atom_site_label
_atom_site_type_symbol
_atom_site_fract_x
_atom_site_fract_y
_atom_site_fract_z
N1 N 0.26172(9) 0.5173(4) 0.8270(5)
O1 O 0.09317(8) 0.5040(4) 1.0522(4)
C1 C 0.27064(12) 0.5295(5) 0.6347(6)
H1 H 0.2481 0.5343 0.5262
C2 C 0.31443(12) 0.5359(5) 0.5801(6)
H2 H 0.3364 0.5506 0.6903
C3 C 0.32565(12) 0.5225(5) 0.3845(6)
H3 H 0.3033 0.5162 0.2750
C4 C 0.36937(11) 0.5166(5) 0.3235(6)
C5 C 0.37720(13) 0.4321(6) 0.1308(6)
H4 H 0.3542 0.3854 0.0408
C6 C 0.41851(14) 0.4178(6) 0.0742(6)
H5 H 0.4232 0.3602 -0.0532
C7 C 0.45320(14) 0.4877(6) 0.2034(7)
H6 H 0.4811 0.4772 0.1643
C8 C 0.44578(12) 0.5730(6) 0.3907(6)
H7 H 0.4688 0.6214 0.4788
C9 C 0.40471(11) 0.5873(5) 0.4489(6)
H8 H 0.4004 0.6462 0.5762
C10 C 0.21832(10) 0.5112(5) 0.8727(5)
C11 C 0.20976(11) 0.4159(5) 1.0554(5)
H9 H 0.2323 0.3578 1.1382
C12 C 0.16848(11) 0.4062(5) 1.1158(6)
H10 H 0.1633 0.3379 1.2357
C13 C 0.13480(11) 0.4965(5) 1.0008(6)
C14 C 0.14323(11) 0.5926(5) 0.8180(6)
H11 H 0.1208 0.6528 0.7370
C15 C 0.18419(11) 0.5995(5) 0.7561(5)
H12 H 0.1891 0.6647 0.6337
C16 C 0.08474(13) 0.4248(7) 1.2501(7)
H13 H 0.1052 0.4718 1.3637
H14 H 0.0876 0.2907 1.2451
C17 C 0.03980(16) 0.4766(9) 1.2899(9)
H15 H 0.0333 0.4245 1.4229
H16 H 0.0198 0.4293 1.1769
H17 H 0.0374 0.6095 1.2955
loop_
_geom_bond_atom_site_label_1
_geom_bond_atom_site_label_2
_geom_bond_site_symmetry_1
_geom_bond_site_symmetry_2
N1 C1 1_555 1_555
O1 C13 1_555 1_555
C1 H1 1_555 1_555
C2 C1 1_555 1_555
H2 C2 1_555 1_555
C3 C2 1_555 1_555
H3 C3 1_555 1_555
C4 C3 1_555 1_555
C5 C4 1_555 1_555
H4 C5 1_555 1_555
C6 C5 1_555 1_555
H5 C6 1_555 1_555
C7 C6 1_555 1_555
H6 C7 1_555 1_555
C8 C7 1_555 1_555
H7 C8 1_555 1_555
C9 C4 1_555 1_555
H8 C9 1_555 1_555
C10 N1 1_555 1_555
C11 C10 1_555 1_555
H9 C11 1_555 1_555
C12 C11 1_555 1_555
H10 C12 1_555 1_555
C13 C12 1_555 1_555
C14 C13 1_555 1_555
H11 C14 1_555 1_555
C15 C10 1_555 1_555
H12 C15 1_555 1_555
C16 O1 1_555 1_555
H13 C16 1_555 1_555
H14 C16 1_555 1_555
C17 C16 1_555 1_555
H15 C17 1_555 1_555
H16 C17 1_555 1_555
H17 C17 1_555 1_555
C8 C9 1_555 1_555
C14 C15 1_555 1_555

#END
