
#######################################################################
#
#                 Cambridge Crystallographic Data Centre
#                                CCDC 
#
#######################################################################
#
# If this CIF has been generated from an entry in the Cambridge 
# Structural Database, then it will include bibliographic, chemical, 
# crystal, experimental, refinement or atomic coordinate data resulting 
# from the CCDC's data processing and validation procedures.
#
#######################################################################

data_LOCLUL
_chemical_formula_moiety         'C36 H28 Br4 O12 S4'
_chemical_name_systematic        
'Tetramethyl (5,11,17,23-tetrabromo-2,8,14,20-tetrathiacalix(4)arene-25,26,27,28-tetraoxy)tetra-acetate'
_symmetry_cell_setting           triclinic
_symmetry_space_group_name_H-M   'P -1'
_symmetry_Int_Tables_number      2
_space_group_name_Hall           '-P 1'
loop_
_symmetry_equiv_pos_site_id
_symmetry_equiv_pos_as_xyz
1 x,y,z
2 -x,-y,-z
_cell_length_a                   10.4298(15)
_cell_length_b                   13.960(2)
_cell_length_c                   14.701(2)
_cell_angle_alpha                82.296(2)
_cell_angle_beta                 84.921(2)
_cell_angle_gamma                74.872(2)
_cell_volume                     2044.43
_exptl_crystal_colour            colorless
_exptl_crystal_description       block
_cell_formula_units_Z            2
_exptl_crystal_recrystallization_method methanol/dichloromethane
loop_
_atom_site_label
_atom_site_type_symbol
_atom_site_fract_x
_atom_site_fract_y
_atom_site_fract_z
C1 C 0.6802(3) 0.8611(2) 0.5689(2)
C2 C 0.6953(3) 0.7764(2) 0.5241(2)
H1 H 0.7535 0.7657 0.4727
C3 C 0.6222(3) 0.7090(2) 0.5579(2)
C4 C 0.5385(3) 0.7203(2) 0.6354(2)
H2 H 0.4931 0.6721 0.6579
C5 C 0.5225(3) 0.8048(2) 0.6799(2)
C6 C 0.5902(3) 0.8773(2) 0.6439(2)
C7 C 0.4607(4) 1.0390(3) 0.6628(3)
H3 H 0.3853 1.0112 0.6603
H4 H 0.4777 1.0724 0.6024
C8 C 0.4304(3) 1.1123(2) 0.7320(2)
C9 C 0.2692(5) 1.2555(3) 0.7731(3)
H5 H 0.2970 1.2290 0.8339
H6 H 0.1739 1.2766 0.7743
H7 H 0.3055 1.3115 0.7516
C10 C 0.5604(3) 0.7954(2) 0.8590(2)
C11 C 0.5822(3) 0.8738(2) 0.8987(2)
H8 H 0.5279 0.9379 0.8867
C12 C 0.6856(3) 0.8555(2) 0.9562(2)
C13 C 0.7714(3) 0.7623(2) 0.9724(2)
H9 H 0.8422 0.7522 1.0099
C14 C 0.7505(3) 0.6836(2) 0.9317(2)
C15 C 0.6444(3) 0.6993(2) 0.8761(2)
C16 C 0.5513(3) 0.5628(2) 0.8914(2)
H10 H 0.4745 0.6058 0.9204
H11 H 0.6069 0.5234 0.9396
C17 C 0.5059(3) 0.4942(2) 0.8380(2)
C18 C 0.5316(5) 0.4201(3) 0.7018(3)
H12 H 0.5503 0.3529 0.7320
H13 H 0.5793 0.4211 0.6429
H14 H 0.4379 0.4440 0.6936
C19 C 0.9414(3) 0.5495(2) 0.8426(2)
C20 C 0.9134(3) 0.4815(2) 0.7916(2)
H15 H 0.8535 0.4441 0.8152
C21 C 0.9754(3) 0.4700(2) 0.7056(2)
C22 C 1.0633(3) 0.5253(2) 0.6691(2)
H16 H 1.1036 0.5170 0.6107
C23 C 1.0913(3) 0.5934(2) 0.7202(2)
C24 C 1.0307(3) 0.6060(2) 0.8076(2)
C25 C 1.1753(3) 0.6632(2) 0.8917(2)
H17 H 1.2323 0.6887 0.8441
H18 H 1.2147 0.5925 0.9073
C26 C 1.2947(4) 0.7566(3) 1.0813(3)
H19 H 1.2490 0.8259 1.0701
H20 H 1.3867 0.7507 1.0902
H21 H 1.2551 0.7266 1.1354
C27 C 1.1246(3) 0.7444(2) 0.5810(2)
C28 C 1.1969(3) 0.7558(2) 0.4987(2)
H22 H 1.2826 0.7157 0.4903
C29 C 1.1412(4) 0.8267(2) 0.4292(2)
C30 C 1.0119(4) 0.8832(2) 0.4382(2)
H23 H 0.9745 0.9288 0.3897
C31 C 0.9376(3) 0.8714(2) 0.5205(2)
C32 C 0.9955(3) 0.8052(2) 0.5939(2)
C33 C 0.8848(3) 0.8685(2) 0.7334(2)
H24 H 0.8409 0.8446 0.7896
H25 H 0.8200 0.9223 0.7013
C34 C 0.9953(4) 0.9087(3) 0.7579(2)
C35 C 1.0451(5) 1.0105(4) 0.8578(4)
H26 H 1.1265 0.9623 0.8734
H27 H 1.0069 1.0440 0.9104
H28 H 1.0632 1.0585 0.8085
O1 O 0.9289(2) 0.78889(15) 0.67704(14)
O2 O 0.9527(3) 0.9604(2) 0.8292(2)
O3 O 1.1021(3) 0.90080(19) 0.71854(19)
O4 O 1.0472(2) 0.67708(15) 0.85840(15)
O5 O 1.2848(2) 0.7064(2) 1.00348(18)
O6 O 0.6244(2) 0.62278(15) 0.83352(14)
O7 O 0.5728(3) 0.48356(18) 0.75738(17)
O8 O 0.4221(3) 0.45265(19) 0.86803(19)
O9 O 0.5751(2) 0.96088(15) 0.68838(15)
O10 O 0.3162(3) 1.17943(19) 0.71228(18)
O11 O 0.4960(3) 1.11270(18) 0.79426(18)
Br1 Br 0.71532(4) 0.96270(3) 1.01053(3)
Br2 Br 1.24498(4) 0.84485(3) 0.31882(3)
Br3 Br 0.63959(4) 0.59478(3) 0.49598(3)
Br4 Br 0.93794(4) 0.37639(3) 0.63567(3)
S1 S 0.42566(8) 0.81723(6) 0.78538(6)
S2 S 0.86098(8) 0.56359(6) 0.95396(6)
S3 S 1.20822(8) 0.66188(6) 0.67184(6)
S4 S 0.77330(9) 0.95014(6) 0.52763(6)
C36 C 1.1657(3) 0.7163(3) 0.9745(3)
O12 O 1.072(2) 0.782(3) 0.995(4)
C37? C 1.1657(3) 0.7163(3) 0.9745(3)
O13? O 1.0668(17) 0.738(4) 1.0277(13)
loop_
_geom_bond_atom_site_label_1
_geom_bond_atom_site_label_2
_geom_bond_site_symmetry_1
_geom_bond_site_symmetry_2
C1 C2 1_555 1_555
C2 H1 1_555 1_555
C3 C2 1_555 1_555
C4 C3 1_555 1_555
H2 C4 1_555 1_555
C5 C4 1_555 1_555
C6 C1 1_555 1_555
C7 H3 1_555 1_555
H4 C7 1_555 1_555
C8 C7 1_555 1_555
C9 H5 1_555 1_555
H6 C9 1_555 1_555
H7 C9 1_555 1_555
C10 C11 1_555 1_555
C11 H8 1_555 1_555
C12 C11 1_555 1_555
C13 C12 1_555 1_555
H9 C13 1_555 1_555
C14 C13 1_555 1_555
C15 C10 1_555 1_555
C16 H10 1_555 1_555
H11 C16 1_555 1_555
C17 C16 1_555 1_555
C18 H12 1_555 1_555
H13 C18 1_555 1_555
H14 C18 1_555 1_555
C19 C20 1_555 1_555
C20 H15 1_555 1_555
C21 C20 1_555 1_555
C22 C21 1_555 1_555
H16 C22 1_555 1_555
C23 C22 1_555 1_555
C24 C19 1_555 1_555
C25 H17 1_555 1_555
H18 C25 1_555 1_555
C26 H19 1_555 1_555
H20 C26 1_555 1_555
H21 C26 1_555 1_555
C27 C28 1_555 1_555
C28 H22 1_555 1_555
C29 C28 1_555 1_555
C30 C29 1_555 1_555
H23 C30 1_555 1_555
C31 C30 1_555 1_555
C32 C27 1_555 1_555
C33 H24 1_555 1_555
H25 C33 1_555 1_555
C34 C33 1_555 1_555
C35 H26 1_555 1_555
H27 C35 1_555 1_555
H28 C35 1_555 1_555
O1 C32 1_555 1_555
O2 C34 1_555 1_555
O3 C34 1_555 1_555
O4 C24 1_555 1_555
O5 C26 1_555 1_555
O6 C15 1_555 1_555
O7 C17 1_555 1_555
O8 C17 1_555 1_555
O9 C6 1_555 1_555
O10 C8 1_555 1_555
O11 C8 1_555 1_555
Br1 C12 1_555 1_555
Br2 C29 1_555 1_555
Br3 C3 1_555 1_555
Br4 C21 1_555 1_555
S1 C5 1_555 1_555
S2 C14 1_555 1_555
S3 C23 1_555 1_555
S4 C1 1_555 1_555
C36 C25 1_555 1_555
O12 C36 1_555 1_555
C5 C6 1_555 1_555
C7 O9 1_555 1_555
C9 O10 1_555 1_555
C10 S1 1_555 1_555
C14 C15 1_555 1_555
C16 O6 1_555 1_555
C18 O7 1_555 1_555
C19 S2 1_555 1_555
C23 C24 1_555 1_555
C25 O4 1_555 1_555
C27 S3 1_555 1_555
C31 C32 1_555 1_555
C31 S4 1_555 1_555
C33 O1 1_555 1_555
C35 O2 1_555 1_555
O5 C36 1_555 1_555

#END
