
#######################################################################
#
#                 Cambridge Crystallographic Data Centre
#                                CCDC 
#
#######################################################################
#
# If this CIF has been generated from an entry in the Cambridge 
# Structural Database, then it will include bibliographic, chemical, 
# crystal, experimental, refinement or atomic coordinate data resulting 
# from the CCDC's data processing and validation procedures.
#
#######################################################################

data_LOCMUM
_chemical_formula_moiety         '2(C12 H9 N2 1+),C10 H4 O8 2-,C10 H6 O8'
_chemical_name_systematic        
'bis(1,10-Phenanthrolinium) dihydrogen benzene-1,2,4,5-tetracarboxylate benzene-1,2,4,5-tetracarboxylic acid'
_symmetry_cell_setting           triclinic
_symmetry_space_group_name_H-M   'P -1'
_symmetry_Int_Tables_number      2
_space_group_name_Hall           '-P 1'
loop_
_symmetry_equiv_pos_site_id
_symmetry_equiv_pos_as_xyz
1 x,y,z
2 -x,-y,-z
_cell_length_a                   7.3767(15)
_cell_length_b                   10.704(2)
_cell_length_c                   12.890(3)
_cell_angle_alpha                102.96(3)
_cell_angle_beta                 105.71(3)
_cell_angle_gamma                99.68(3)
_cell_volume                     925.967
_exptl_crystal_description       prismatic
_cell_formula_units_Z            1
_exptl_crystal_preparation       luminescent
loop_
_atom_site_label
_atom_site_type_symbol
_atom_site_fract_x
_atom_site_fract_y
_atom_site_fract_z
N1 N 0.9129(3) 0.62469(17) 0.40890(15)
N2 N 0.8323(3) 0.56286(18) 0.17981(16)
C1 C 0.9503(4) 0.6586(2) 0.51942(19)
H1 H 1.0018 0.6030 0.5589
C2 C 0.9168(4) 0.7724(3) 0.5793(2)
H2 H 0.9445 0.7908 0.6567
C3 C 0.8438(4) 0.8568(2) 0.5252(2)
H3 H 0.8227 0.9338 0.5651
C4 C 0.8004(3) 0.8263(2) 0.4076(2)
C5 C 0.8391(3) 0.70868(19) 0.35458(17)
C6 C 0.7955(3) 0.6752(2) 0.23446(18)
C7 C 0.7183(3) 0.7566(2) 0.17187(19)
C8 C 0.6836(4) 0.7183(2) 0.0558(2)
H4 H 0.6317 0.7705 0.0126
C9 C 0.7252(4) 0.6049(2) 0.0050(2)
H5 H 0.7033 0.5803 -0.0721
C10 C 0.8003(4) 0.5275(2) 0.06998(19)
H6 H 0.8285 0.4500 0.0363
C11 C 0.7219(4) 0.9072(2) 0.3424(2)
H7 H 0.6969 0.9848 0.3785
C12 C 0.6828(4) 0.8757(2) 0.2309(2)
H8 H 0.6322 0.9315 0.1912
H12 H 0.878(4) 0.510(2) 0.222(2)
O1 O 0.5471(3) 0.18092(15) 0.32546(14)
O2 O 0.5518(3) 0.33249(15) 0.23581(12)
O3 O 0.6327(3) 0.17674(14) 0.51710(14)
O4 O 0.7099(3) 0.31557(14) 0.68435(12)
C13 C 0.5438(4) 0.2976(2) 0.32025(18)
C14 C 0.5243(3) 0.39700(18) 0.41825(16)
C15 C 0.4539(3) 0.50193(19) 0.39109(16)
H9 H 0.4218 0.5031 0.3165
C16 C 0.5719(3) 0.39461(18) 0.53157(16)
C17 C 0.6446(3) 0.2897(2) 0.58128(18)
H11 H 0.585(5) 0.171(3) 0.418(3)
O1A O 0.4529(3) 0.81908(15) 0.67454(14)
O2A O 0.4482(3) 0.66751(15) 0.76419(12)
O3A O 0.3673(3) 0.82326(14) 0.48290(14)
O4A O 0.2901(3) 0.68443(14) 0.31565(12)
C13A C 0.4562(4) 0.7024(2) 0.67975(18)
C14A C 0.4757(3) 0.60300(18) 0.58175(16)
C15A C 0.5461(3) 0.49807(19) 0.60891(16)
H9A H 0.5782 0.4969 0.6835
C16A C 0.4281(3) 0.60539(18) 0.46843(16)
C17A C 0.3554(3) 0.7103(2) 0.41872(18)
H11A H 0.415(5) 0.829(3) 0.582(3)
O5 O 0.9560(3) 0.31371(15) 0.17202(13)
O6 O 0.6723(3) 0.16181(16) 0.10989(13)
O7 O 0.8071(3) 0.13126(15) -0.23194(12)
O8 O 0.7571(3) 0.25217(15) -0.08245(12)
C18 C 0.8528(4) 0.2055(2) 0.11593(17)
C19 C 0.9279(3) 0.09984(18) 0.05267(15)
C20 C 0.9050(3) 0.07540(19) -0.06181(16)
C21 C 0.8146(3) 0.16146(19) -0.12603(16)
C22 C 1.0217(3) 0.02410(19) 0.11283(18)
H10 H 1.042(3) 0.041(2) 0.1944(19)
H13 H 0.631(5) 0.226(3) 0.159(3)
H14 H 0.750(4) 0.198(3) -0.262(2)
O5A O 1.0440(3) -0.31371(15) -0.17202(13)
O6A O 1.3277(3) -0.16181(16) -0.10989(13)
O7A O 1.1929(3) -0.13126(15) 0.23194(12)
O8A O 1.2429(3) -0.25217(15) 0.08245(12)
C18A C 1.1472(4) -0.2055(2) -0.11593(17)
C19A C 1.0721(3) -0.09984(18) -0.05267(15)
C20A C 1.0950(3) -0.07540(19) 0.06181(16)
C21A C 1.1854(3) -0.16146(19) 0.12603(16)
C22A C 0.9783(3) -0.02410(19) -0.11283(18)
H10A H 0.958(3) -0.041(2) -0.1944(19)
H13A H 1.369(5) -0.226(3) -0.159(3)
H14A H 1.250(4) -0.198(3) 0.262(2)
loop_
_geom_bond_atom_site_label_1
_geom_bond_atom_site_label_2
_geom_bond_site_symmetry_1
_geom_bond_site_symmetry_2
N1 C1 1_555 1_555
N2 C6 1_555 1_555
O1 C13 1_555 1_555
O2 C13 1_555 1_555
O3 C17 1_555 1_555
O4 C17 1_555 1_555
O5 C18 1_555 1_555
O6 C18 1_555 1_555
O7 C21 1_555 1_555
O8 C21 1_555 1_555
C1 H1 1_555 1_555
C2 C1 1_555 1_555
H2 C2 1_555 1_555
C3 C2 1_555 1_555
H3 C3 1_555 1_555
C4 C3 1_555 1_555
C5 N1 1_555 1_555
C6 C5 1_555 1_555
C7 C6 1_555 1_555
C8 C7 1_555 1_555
H4 C8 1_555 1_555
C9 C8 1_555 1_555
H5 C9 1_555 1_555
C10 N2 1_555 1_555
H6 C10 1_555 1_555
C11 C4 1_555 1_555
H7 C11 1_555 1_555
C12 C7 1_555 1_555
H8 C12 1_555 1_555
C13 C14 1_555 1_555
C14 C15 1_555 1_555
C15 H9 1_555 1_555
C16 C14 1_555 1_555
C17 C16 1_555 1_555
C18 C19 1_555 1_555
C19 C20 1_555 1_555
C20 C21 1_555 1_555
C22 C19 1_555 1_555
H10 C22 1_555 1_555
H11 O1 1_555 1_555
H12 N2 1_555 1_555
H13 O6 1_555 1_555
H14 O7 1_555 1_555
O1A C13A 1_555 1_555
O2A C13A 1_555 1_555
O3A C17A 1_555 1_555
O4A C17A 1_555 1_555
O5A C18A 1_555 1_555
O6A C18A 1_555 1_555
O7A C21A 1_555 1_555
O8A C21A 1_555 1_555
C13A C14A 1_555 1_555
C14A C15A 1_555 1_555
C15A C16 1_555 1_555
H9A C15A 1_555 1_555
C16A C15 1_555 1_555
C17A C16A 1_555 1_555
C18A C19A 1_555 1_555
C19A C20A 1_555 1_555
C20A C22 1_555 1_555
C21A C20A 1_555 1_555
C22A C20 1_555 1_555
H10A C22A 1_555 1_555
H11A O1A 1_555 1_555
H13A O6A 1_555 1_555
H14A O7A 1_555 1_555
C4 C5 1_555 1_555
C9 C10 1_555 1_555
C11 C12 1_555 1_555
C14A C16A 1_555 1_555
C19A C22A 1_555 1_555

#END
