
#######################################################################
#
#                 Cambridge Crystallographic Data Centre
#                                CCDC 
#
#######################################################################
#
# If this CIF has been generated from an entry in the Cambridge 
# Structural Database, then it will include bibliographic, chemical, 
# crystal, experimental, refinement or atomic coordinate data resulting 
# from the CCDC's data processing and validation procedures.
#
#######################################################################

data_LOCPUQ
_chemical_formula_moiety         'C14 H8 Cl2'
_chemical_name_systematic        1,1'-Ethyne-1,2-diylbis(4-chlorobenzene)
_symmetry_cell_setting           monoclinic
_symmetry_space_group_name_H-M   'P 21/c'
_symmetry_Int_Tables_number      14
_space_group_name_Hall           '-P 2ybc'
loop_
_symmetry_equiv_pos_site_id
_symmetry_equiv_pos_as_xyz
1 x,y,z
2 -x,1/2+y,1/2-z
3 -x,-y,-z
4 x,1/2-y,1/2+z
_cell_length_a                   9.9057(9)
_cell_length_b                   4.8954(5)
_cell_length_c                   11.1324(11)
_cell_angle_alpha                90
_cell_angle_beta                 93.985(5)
_cell_angle_gamma                90
_cell_volume                     538.531
_exptl_crystal_colour            colorless
_exptl_crystal_description       Tabullar
_cell_formula_units_Z            2
loop_
_atom_site_label
_atom_site_type_symbol
_atom_site_fract_x
_atom_site_fract_y
_atom_site_fract_z
C1 C 0.6895(2) 0.6824(5) 0.1254(2)
C2 C 0.6762(2) 0.5868(5) 0.0082(2)
H1 H 0.6067 0.6552 -0.0469
C3 C 0.7654(2) 0.3901(5) -0.0280(2)
H2 H 0.7567 0.3236 -0.1083
C4 C 0.8684(2) 0.2879(5) 0.0523(2)
C5 C 0.8785(2) 0.3880(5) 0.1708(2)
H3 H 0.9474 0.3201 0.2265
C6 C 0.7897(2) 0.5843(5) 0.2076(2)
H4 H 0.7972 0.6508 0.2880
C7 C 0.9607(2) 0.0847(5) 0.0152(2)
Cl1 Cl 0.57789(6) 0.93006(13) 0.17211(5)
C1B C 1.3105(2) -0.6824(5) -0.1254(2)
C2B C 1.3238(2) -0.5868(5) -0.0082(2)
H1B H 1.3933 -0.6552 0.0469
C3B C 1.2346(2) -0.3901(5) 0.0280(2)
H2B H 1.2433 -0.3236 0.1083
C4B C 1.1316(2) -0.2879(5) -0.0523(2)
C5B C 1.1215(2) -0.3880(5) -0.1708(2)
H3B H 1.0526 -0.3201 -0.2265
C6B C 1.2103(2) -0.5843(5) -0.2076(2)
H4B H 1.2028 -0.6508 -0.2880
C7B C 1.0393(2) -0.0847(5) -0.0152(2)
Cl1B Cl 1.42211(6) -0.93006(13) -0.17211(5)
loop_
_geom_bond_atom_site_label_1
_geom_bond_atom_site_label_2
_geom_bond_site_symmetry_1
_geom_bond_site_symmetry_2
C1 C2 1_555 1_555
C2 H1 1_555 1_555
C3 C2 1_555 1_555
H2 C3 1_555 1_555
C4 C3 1_555 1_555
C5 C4 1_555 1_555
H3 C5 1_555 1_555
C6 C1 1_555 1_555
H4 C6 1_555 1_555
C7 C4 1_555 1_555
Cl1 C1 1_555 1_555
C1B C2B 1_555 1_555
C2B H1B 1_555 1_555
C3B C2B 1_555 1_555
H2B C3B 1_555 1_555
C4B C3B 1_555 1_555
C5B C4B 1_555 1_555
H3B C5B 1_555 1_555
C6B C1B 1_555 1_555
H4B C6B 1_555 1_555
C7B C7 1_555 1_555
Cl1B C1B 1_555 1_555
C5 C6 1_555 1_555
C4B C7B 1_555 1_555
C5B C6B 1_555 1_555

#END
