
#######################################################################
#
#                 Cambridge Crystallographic Data Centre
#                                CCDC 
#
#######################################################################
#
# If this CIF has been generated from an entry in the Cambridge 
# Structural Database, then it will include bibliographic, chemical, 
# crystal, experimental, refinement or atomic coordinate data resulting 
# from the CCDC's data processing and validation procedures.
#
#######################################################################

data_LOCQUR
_chemical_formula_moiety         'C31 H30 N2'
_chemical_name_systematic        
N,N'-dibenzyltetracyclo[7.7.1.0^2,7^.0^10,15^]heptadeca-2,4,6,10,12,14-hexaene-8,16-diamine
_symmetry_cell_setting           orthorhombic
_symmetry_space_group_name_H-M   'P b c n'
_symmetry_Int_Tables_number      60
_space_group_name_Hall           '-P 2n 2ab'
loop_
_symmetry_equiv_pos_site_id
_symmetry_equiv_pos_as_xyz
1 x,y,z
2 1/2-x,1/2-y,1/2+z
3 1/2+x,1/2-y,-z
4 -x,y,1/2-z
5 -x,-y,-z
6 1/2+x,1/2+y,1/2-z
7 1/2-x,1/2+y,z
8 x,-y,1/2+z
_cell_length_a                   26.280(2)
_cell_length_b                   9.4772(7)
_cell_length_c                   9.5917(8)
_cell_angle_alpha                90
_cell_angle_beta                 90
_cell_angle_gamma                90
_cell_volume                     2388.92
_cell_formula_units_Z            4
loop_
_atom_site_label
_atom_site_type_symbol
_atom_site_fract_x
_atom_site_fract_y
_atom_site_fract_z
C1 C 0.47918(8) 0.12308(19) 0.6351(2)
H1 H 0.4699 0.0638 0.5554
N1 N 0.38880(8) 0.0940(2) 0.6979(2)
C2 C 0.43928(8) 0.26297(19) 0.8301(2)
C3 C 0.43119(7) 0.19674(19) 0.6874(2)
H2 H 0.4217 0.2709 0.6211
C4 C 0.51910(8) 0.22882(18) 0.5870(2)
C5 C 0.51387(8) 0.2943(2) 0.4576(2)
H3 H 0.4858 0.2733 0.4023
C6 C 0.59617(8) 0.3610(2) 0.6212(2)
H4 H 0.6238 0.3851 0.6768
C7 C 0.5000 0.0277(3) 0.7500
H5 H 0.5268 -0.0321 0.7135
C8 C 0.54962(9) 0.3902(2) 0.4101(2)
H6 H 0.5458 0.4323 0.3232
C9 C 0.33398(8) 0.1858(2) 0.5017(3)
C10 C 0.59083(9) 0.4225(2) 0.4923(3)
H7 H 0.6152 0.4862 0.4606
C11 C 0.36355(9) 0.0644(2) 0.5649(3)
H8 H 0.3404 -0.0141 0.5785
H9 H 0.3892 0.0345 0.4984
C12 C 0.34183(10) 0.2282(3) 0.3668(3)
H10 H 0.3660 0.1822 0.3124
C13 C 0.31400(12) 0.3391(3) 0.3104(3)
H11 H 0.3195 0.3660 0.2184
C14 C 0.29803(9) 0.2582(3) 0.5781(3)
H12 H 0.2918 0.2315 0.6699
C15 C 0.27113(10) 0.3686(4) 0.5219(4)
H13 H 0.2474 0.4163 0.5762
C16 C 0.27887(12) 0.4086(3) 0.3881(4)
H14 H 0.2604 0.4828 0.3499
H15 H 0.3648(10) 0.117(3) 0.766(3)
H5C H 0.4732 -0.0321 0.7865
C1C C 0.52082(8) 0.12308(19) 0.8649(2)
H1C H 0.5301 0.0638 0.9446
N1C N 0.61120(8) 0.0940(2) 0.8021(2)
C2C C 0.56072(8) 0.26297(19) 0.6699(2)
C3C C 0.56881(7) 0.19674(19) 0.8126(2)
H2C H 0.5783 0.2709 0.8789
C4C C 0.48090(8) 0.22882(18) 0.9130(2)
C5C C 0.48613(8) 0.2943(2) 1.0424(2)
H3C H 0.5142 0.2733 1.0977
C6C C 0.40383(8) 0.3610(2) 0.8788(2)
H4C H 0.3762 0.3851 0.8232
C8C C 0.45038(9) 0.3902(2) 1.0899(2)
H6C H 0.4542 0.4323 1.1768
C9C C 0.66602(8) 0.1858(2) 0.9983(3)
C10C C 0.40917(9) 0.4225(2) 1.0077(3)
H7C H 0.3848 0.4862 1.0394
C11C C 0.63645(9) 0.0644(2) 0.9351(3)
H8C H 0.6596 -0.0141 0.9215
H9C H 0.6108 0.0345 1.0016
C12C C 0.65817(10) 0.2282(3) 1.1332(3)
H10C H 0.6340 0.1822 1.1876
C13C C 0.68600(12) 0.3391(3) 1.1896(3)
H11C H 0.6805 0.3660 1.2816
C14C C 0.70197(9) 0.2582(3) 0.9219(3)
H12C H 0.7082 0.2315 0.8301
C15C C 0.72887(10) 0.3686(4) 0.9781(4)
H13C H 0.7526 0.4163 0.9238
C16C C 0.72113(12) 0.4086(3) 1.1119(4)
H14C H 0.7396 0.4828 1.1501
H15C H 0.6352(10) 0.117(3) 0.734(3)
H16? H 0.5268 -0.0321 0.7135
loop_
_geom_bond_atom_site_label_1
_geom_bond_atom_site_label_2
_geom_bond_site_symmetry_1
_geom_bond_site_symmetry_2
C1 H1 1_555 1_555
N1 C3 1_555 1_555
C2 C3 1_555 1_555
C3 C1 1_555 1_555
H2 C3 1_555 1_555
C4 C1 1_555 1_555
C5 C4 1_555 1_555
H3 C5 1_555 1_555
C6 H4 1_555 1_555
C7 C1 1_555 1_555
H5 C7 1_555 1_555
C8 C5 1_555 1_555
H6 C8 1_555 1_555
C9 C11 1_555 1_555
C10 C6 1_555 1_555
H7 C10 1_555 1_555
C11 N1 1_555 1_555
H8 C11 1_555 1_555
H9 C11 1_555 1_555
C12 C9 1_555 1_555
H10 C12 1_555 1_555
C13 C12 1_555 1_555
H11 C13 1_555 1_555
C14 C9 1_555 1_555
H12 C14 1_555 1_555
C15 C14 1_555 1_555
H13 C15 1_555 1_555
C16 C13 1_555 1_555
H14 C16 1_555 1_555
H15 N1 1_555 1_555
H5C C7 1_555 1_555
C1C C7 1_555 1_555
H1C C1C 1_555 1_555
N1C C3C 1_555 1_555
C2C C4 1_555 1_555
C3C C1C 1_555 1_555
H2C C3C 1_555 1_555
C4C C2 1_555 1_555
C5C C4C 1_555 1_555
H3C C5C 1_555 1_555
C6C C2 1_555 1_555
H4C C6C 1_555 1_555
C8C C5C 1_555 1_555
H6C C8C 1_555 1_555
C9C C11C 1_555 1_555
C10C C6C 1_555 1_555
H7C C10C 1_555 1_555
C11C N1C 1_555 1_555
H8C C11C 1_555 1_555
H9C C11C 1_555 1_555
C12C C9C 1_555 1_555
H10C C12C 1_555 1_555
C13C C12C 1_555 1_555
H11C C13C 1_555 1_555
C14C C9C 1_555 1_555
H12C C14C 1_555 1_555
C15C C14C 1_555 1_555
H13C C15C 1_555 1_555
C16C C13C 1_555 1_555
H14C C16C 1_555 1_555
H15C N1C 1_555 1_555
C6 C2C 1_555 1_555
C8 C10 1_555 1_555
C15 C16 1_555 1_555
C1C C4C 1_555 1_555
C2C C3C 1_555 1_555
C8C C10C 1_555 1_555
C15C C16C 1_555 1_555

#END
