
#######################################################################
#
#                 Cambridge Crystallographic Data Centre
#                                CCDC 
#
#######################################################################
#
# If this CIF has been generated from an entry in the Cambridge 
# Structural Database, then it will include bibliographic, chemical, 
# crystal, experimental, refinement or atomic coordinate data resulting 
# from the CCDC's data processing and validation procedures.
#
#######################################################################

data_LOCQEB
_chemical_formula_moiety         'C19 H16 O1 S1,C2 H6 O1'
_chemical_name_systematic        
'5-((phenylsulfanyl)methyl)biphenyl-2-ol ethanol solvate'
_symmetry_cell_setting           triclinic
_symmetry_space_group_name_H-M   'P -1'
_symmetry_Int_Tables_number      2
_space_group_name_Hall           '-P 1'
loop_
_symmetry_equiv_pos_site_id
_symmetry_equiv_pos_as_xyz
1 x,y,z
2 -x,-y,-z
_cell_length_a                   8.7371(17)
_cell_length_b                   9.2269(18)
_cell_length_c                   12.186(2)
_cell_angle_alpha                89.90(3)
_cell_angle_beta                 72.14(3)
_cell_angle_gamma                80.18(3)
_cell_volume                     920.008
_exptl_crystal_colour            colorless
_exptl_crystal_description       block
_cell_formula_units_Z            2
loop_
_atom_site_label
_atom_site_type_symbol
_atom_site_fract_x
_atom_site_fract_y
_atom_site_fract_z
S1 S 0.08031(7) 0.70266(7) 0.47984(5)
O1 O 0.80084(19) 0.55132(19) 0.11424(15)
H1 H 0.822(3) 0.476(3) 0.070(2)
C1 C 0.7234(3) 0.8859(3) 0.3444(2)
H2 H 0.6985 0.8503 0.4181
C2 C 0.7930(4) 1.0111(3) 0.3225(3)
H3 H 0.8136 1.0595 0.3819
C3 C 0.8316(3) 1.0644(3) 0.2145(3)
H4 H 0.8809 1.1472 0.2004
C4 C 0.7977(3) 0.9958(3) 0.1265(3)
H5 H 0.8216 1.0334 0.0535
C5 C 0.7274(3) 0.8693(2) 0.1477(2)
H6 H 0.7050 0.8225 0.0883
C6 C 0.6905(2) 0.8129(2) 0.25669(19)
C7 C 0.6105(2) 0.6808(2) 0.28198(17)
C8 C 0.6666(2) 0.5538(2) 0.20820(18)
C9 C 0.5849(3) 0.4354(2) 0.2335(2)
H7 H 0.6221 0.3509 0.1846
C10 C 0.4497(3) 0.4406(2) 0.3296(2)
H8 H 0.3969 0.3600 0.3444
C11 C 0.3921(3) 0.5640(2) 0.40382(19)
C12 C 0.4753(2) 0.6817(2) 0.37852(18)
H9 H 0.4386 0.7649 0.4287
C13 C 0.2426(3) 0.5738(3) 0.50754(19)
H10 H 0.2648 0.6073 0.5756
H11 H 0.2113 0.4778 0.5208
C14 C -0.0621(3) 0.7480(2) 0.61804(19)
C15 C -0.0732(3) 0.6646(3) 0.7140(2)
H12 H -0.0005 0.5765 0.7077
C16 C -0.1897(3) 0.7097(3) 0.8183(2)
H13 H -0.1941 0.6531 0.8820
C17 C -0.2988(4) 0.8374(4) 0.8283(3)
H14 H -0.3789 0.8675 0.8985
C18 C -0.2894(4) 0.9213(3) 0.7341(3)
H15 H -0.3634 1.0086 0.7408
C19 C -0.1716(3) 0.8776(3) 0.6298(2)
H16 H -0.1660 0.9360 0.5669
O2 O 0.8980(2) 0.3265(2) -0.04062(17)
H17 H 1.003(5) 0.338(4) -0.079(3)
C20 C 0.8410(4) 0.2877(3) -0.1331(3)
H18 H 0.8918 0.1878 -0.1628
H19 H 0.8704 0.3533 -0.1955
C21 C 0.6654(4) 0.2991(4) -0.0911(3)
H20 H 0.6270 0.2728 -0.1528
H21 H 0.6157 0.3985 -0.0628
H22 H 0.6371 0.2337 -0.0297
loop_
_geom_bond_atom_site_label_1
_geom_bond_atom_site_label_2
_geom_bond_site_symmetry_1
_geom_bond_site_symmetry_2
S1 C13 1_555 1_555
O1 H1 1_555 1_555
C1 H2 1_555 1_555
C2 C1 1_555 1_555
H3 C2 1_555 1_555
C3 C2 1_555 1_555
H4 C3 1_555 1_555
C4 C3 1_555 1_555
H5 C4 1_555 1_555
C5 C4 1_555 1_555
H6 C5 1_555 1_555
C6 C1 1_555 1_555
C7 C6 1_555 1_555
C8 O1 1_555 1_555
C9 C8 1_555 1_555
H7 C9 1_555 1_555
C10 C9 1_555 1_555
H8 C10 1_555 1_555
C11 C10 1_555 1_555
C12 C7 1_555 1_555
H9 C12 1_555 1_555
C13 C11 1_555 1_555
H10 C13 1_555 1_555
H11 C13 1_555 1_555
C14 S1 1_555 1_555
C15 C14 1_555 1_555
H12 C15 1_555 1_555
C16 C15 1_555 1_555
H13 C16 1_555 1_555
C17 C16 1_555 1_555
H14 C17 1_555 1_555
C18 C17 1_555 1_555
H15 C18 1_555 1_555
C19 C14 1_555 1_555
H16 C19 1_555 1_555
O2 H17 1_555 1_555
C20 O2 1_555 1_555
H18 C20 1_555 1_555
H19 C20 1_555 1_555
C21 C20 1_555 1_555
H20 C21 1_555 1_555
H21 C21 1_555 1_555
H22 C21 1_555 1_555
C5 C6 1_555 1_555
C7 C8 1_555 1_555
C11 C12 1_555 1_555
C18 C19 1_555 1_555

#END
