
#######################################################################
#
#                 Cambridge Crystallographic Data Centre
#                                CCDC 
#
#######################################################################
#
# If this CIF has been generated from an entry in the Cambridge 
# Structural Database, then it will include bibliographic, chemical, 
# crystal, experimental, refinement or atomic coordinate data resulting 
# from the CCDC's data processing and validation procedures.
#
#######################################################################

data_LOCVOO01
_chemical_formula_moiety         'C14 H14 N2,C14 H8 N4'
_chemical_name_systematic        
'5,10-Dihydro-5,10-dimethylphenazine 2,5-dimethyl-7,7,8,8-tetracyano-p-quinodimethane'
_symmetry_cell_setting           monoclinic
_symmetry_space_group_name_H-M   'P 21/c'
_symmetry_Int_Tables_number      14
_space_group_name_Hall           '-P 2ybc'
loop_
_symmetry_equiv_pos_site_id
_symmetry_equiv_pos_as_xyz
1 x,y,z
2 -x,1/2+y,1/2-z
3 -x,-y,-z
4 x,1/2-y,1/2+z
_cell_length_a                   7.013(4)
_cell_length_b                   8.917(6)
_cell_length_c                   17.753(6)
_cell_angle_alpha                90
_cell_angle_beta                 93.67(5)
_cell_angle_gamma                90
_cell_volume                     1107.91
_exptl_crystal_colour            black
_exptl_crystal_description       rod
_cell_formula_units_Z            2
_exptl_crystal_recrystallization_method acetonitrile
loop_
_atom_site_label
_atom_site_type_symbol
_atom_site_fract_x
_atom_site_fract_y
_atom_site_fract_z
C1 C 0.864(1) 0.4838(9) 0.3487(4)
C2 C 0.824(1) 0.6147(10) 0.3084(4)
C3 C 0.848(1) 0.7506(9) 0.3416(4)
C4 C 0.916(1) 0.7603(8) 0.4168(4)
C5 C 0.958(1) 0.6313(8) 0.4588(4)
C6 C 0.930(1) 0.4909(9) 0.4242(4)
N1 N 1.0320(9) 0.6416(8) 0.5342(3)
C7 C 1.062(1) 0.7910(9) 0.5687(4)
N1B N 0.9680(9) 0.3584(8) 0.4658(3)
C5B C 1.042(1) 0.3687(8) 0.5412(4)
C4B C 1.084(1) 0.2397(8) 0.5832(4)
C3B C 1.152(1) 0.2494(9) 0.6584(4)
C2B C 1.176(1) 0.3853(10) 0.6916(4)
C1B C 1.136(1) 0.5162(9) 0.6513(4)
C6B C 1.070(1) 0.5091(9) 0.5758(4)
C7B C 0.938(1) 0.2090(9) 0.4313(4)
N2 N 0.277(1) 0.6474(8) 0.2427(3)
C8 C 0.329(1) 0.6640(9) 0.3036(4)
N3 N 0.397(1) 0.9805(8) 0.4075(4)
C9 C 0.397(1) 0.8549(10) 0.3953(4)
C10 C 0.394(1) 0.6972(8) 0.3805(4)
C11 C 0.447(1) 0.5941(8) 0.4371(4)
C12 C 0.509(1) 0.6517(7) 0.5110(4)
C13 C 0.442(1) 0.4341(7) 0.4278(3)
C14 C 0.385(1) 0.3613(8) 0.3543(4)
C13B C 0.558(1) 0.5659(7) 0.5722(3)
C11B C 0.553(1) 0.4059(8) 0.5629(4)
C10B C 0.606(1) 0.3028(8) 0.6195(4)
C8B C 0.671(1) 0.3360(9) 0.6964(4)
N2B N 0.723(1) 0.3526(8) 0.7573(3)
C9B C 0.603(1) 0.1451(10) 0.6047(4)
N3B N 0.603(1) 0.0195(8) 0.5925(4)
C12B C 0.491(1) 0.3483(7) 0.4890(4)
C14B C 0.615(1) 0.6387(8) 0.6457(4)
loop_
_geom_bond_atom_site_label_1
_geom_bond_atom_site_label_2
_geom_bond_site_symmetry_1
_geom_bond_site_symmetry_2
C1 C2 1_555 1_555
C2 C3 1_555 1_555
C3 C4 1_555 1_555
C4 C5 1_555 1_555
C5 C6 1_555 1_555
C6 C1 1_555 1_555
N1 C5 1_555 1_555
C7 N1 1_555 1_555
N2 C8 1_555 1_555
C8 C10 1_555 1_555
N3 C9 1_555 1_555
C9 C10 1_555 1_555
C10 C11 1_555 1_555
C11 C12 1_555 1_555
C12 C13B 1_555 1_555
C13 C11 1_555 1_555
C14 C13 1_555 1_555
N1B C6 1_555 1_555
C5B N1B 1_555 1_555
C4B C5B 1_555 1_555
C3B C4B 1_555 1_555
C2B C3B 1_555 1_555
C1B C2B 1_555 1_555
C6B N1 1_555 1_555
C7B N1B 1_555 1_555
C13B C11B 1_555 1_555
C11B C10B 1_555 1_555
C10B C8B 1_555 1_555
C8B N2B 1_555 1_555
C9B C10B 1_555 1_555
N3B C9B 1_555 1_555
C12B C13 1_555 1_555
C14B C13B 1_555 1_555
C5B C6B 1_555 1_555
C1B C6B 1_555 1_555
C11B C12B 1_555 1_555

#END
