
#######################################################################
#
#                 Cambridge Crystallographic Data Centre
#                                CCDC 
#
#######################################################################
#
# If this CIF has been generated from an entry in the Cambridge 
# Structural Database, then it will include bibliographic, chemical, 
# crystal, experimental, refinement or atomic coordinate data resulting 
# from the CCDC's data processing and validation procedures.
#
#######################################################################

data_LODBOX
_chemical_formula_moiety         'C7 H11 N2 O2 1+,F6 P1 1-'
_chemical_name_systematic        
'3-(2-carboxyethyl)-1-methyl-1H-imidazol-3-ium hexafluorophosphate'
_symmetry_cell_setting           monoclinic
_symmetry_space_group_name_H-M   'P 21/c'
_symmetry_Int_Tables_number      14
_space_group_name_Hall           '-P 2ybc'
loop_
_symmetry_equiv_pos_site_id
_symmetry_equiv_pos_as_xyz
1 x,y,z
2 -x,1/2+y,1/2-z
3 -x,-y,-z
4 x,1/2-y,1/2+z
_cell_length_a                   7.092(2)
_cell_length_b                   11.930(3)
_cell_length_c                   14.419(4)
_cell_angle_alpha                90
_cell_angle_beta                 109.603(12)
_cell_angle_gamma                90
_cell_volume                     1149.25
_exptl_crystal_colour            colorless
_exptl_crystal_description       block
_cell_formula_units_Z            4
loop_
_atom_site_label
_atom_site_type_symbol
_atom_site_fract_x
_atom_site_fract_y
_atom_site_fract_z
O1 O 0.8312(3) 1.03640(15) 0.88952(13)
O2 O 0.7825(3) 0.92822(15) 1.00577(13)
H1 H 0.9085 0.9409 1.0397
N1 N 0.6372(3) 0.87401(19) 0.59224(15)
N2 N 0.4909(3) 0.93593(17) 0.69060(15)
C1 C 0.7756(5) 0.8643(3) 0.5371(2)
H2 H 0.8581 0.9301 0.5478
H3 H 0.7011 0.8571 0.4682
H4 H 0.8586 0.7994 0.5592
C2 C 0.4844(5) 0.8018(3) 0.5871(2)
H5 H 0.4504 0.7377 0.5483
C3 C 0.3933(4) 0.8398(3) 0.6477(2)
H6 H 0.2837 0.8074 0.6590
C4 C 0.6386(4) 0.9532(2) 0.6564(2)
H7 H 0.7297 1.0120 0.6746
C5 C 0.4366(4) 1.0067(2) 0.7611(2)
H8 H 0.2922 1.0149 0.7392
H9 H 0.4941 1.0806 0.7621
C6 C 0.5076(4) 0.9595(2) 0.86412(19)
H10 H 0.4288 0.9928 0.9004
H11 H 0.4815 0.8796 0.8602
C7 C 0.7237(4) 0.9777(2) 0.92088(19)
P1 P 0.03342(10) 0.73800(6) 0.83087(5)
F1 F 0.1110(3) 0.80605(16) 0.93004(13)
F2 F 0.0265(3) 0.62638(14) 0.88959(15)
F3 F -0.1915(2) 0.76486(14) 0.82156(12)
F4 F 0.0433(2) 0.84849(14) 0.77167(14)
F5 F 0.2612(2) 0.71018(13) 0.84084(14)
F6 F -0.0430(3) 0.66968(17) 0.73184(14)
loop_
_geom_bond_atom_site_label_1
_geom_bond_atom_site_label_2
_geom_bond_site_symmetry_1
_geom_bond_site_symmetry_2
O1 C7 1_555 1_555
O2 H1 1_555 1_555
N1 C1 1_555 1_555
N2 C3 1_555 1_555
C1 H2 1_555 1_555
H3 C1 1_555 1_555
H4 C1 1_555 1_555
C2 N1 1_555 1_555
H5 C2 1_555 1_555
C3 C2 1_555 1_555
H6 C3 1_555 1_555
C4 N1 1_555 1_555
H7 C4 1_555 1_555
C5 N2 1_555 1_555
H8 C5 1_555 1_555
H9 C5 1_555 1_555
C6 C5 1_555 1_555
H10 C6 1_555 1_555
H11 C6 1_555 1_555
C7 O2 1_555 1_555
P1 F1 1_555 1_555
F2 P1 1_555 1_555
F3 P1 1_555 1_555
F4 P1 1_555 1_555
F5 P1 1_555 1_555
F6 P1 1_555 1_555
N2 C4 1_555 1_555
C6 C7 1_555 1_555

#END
