
#######################################################################
#
#                 Cambridge Crystallographic Data Centre
#                                CCDC 
#
#######################################################################
#
# If this CIF has been generated from an entry in the Cambridge 
# Structural Database, then it will include bibliographic, chemical, 
# crystal, experimental, refinement or atomic coordinate data resulting 
# from the CCDC's data processing and validation procedures.
#
#######################################################################

data_LODCUE
_chemical_formula_moiety         'C8 H13 N2 O2 1+,F6 P1 1-'
_chemical_name_systematic        
'1-(3-carboxypropyl)-3-methyl-1H-imidazol-3-ium hexafluorophosphate'
_symmetry_cell_setting           monoclinic
_symmetry_space_group_name_H-M   'P 21/c'
_symmetry_Int_Tables_number      14
_space_group_name_Hall           '-P 2ybc'
loop_
_symmetry_equiv_pos_site_id
_symmetry_equiv_pos_as_xyz
1 x,y,z
2 -x,1/2+y,1/2-z
3 -x,-y,-z
4 x,1/2-y,1/2+z
_cell_length_a                   8.264(5)
_cell_length_b                   15.703(10)
_cell_length_c                   21.517(11)
_cell_angle_alpha                90
_cell_angle_beta                 111.290(19)
_cell_angle_gamma                90
_cell_volume                     2601.69
_exptl_crystal_colour            colorless
_exptl_crystal_description       block
_cell_formula_units_Z            8
loop_
_atom_site_label
_atom_site_type_symbol
_atom_site_fract_x
_atom_site_fract_y
_atom_site_fract_z
O1 O 0.2979(9) 0.7385(6) 1.0394(3)
H1 H 0.2668 0.7386 1.0716
O2 O 0.5579(9) 0.7530(6) 1.1210(3)
N1 N 0.6494(10) 0.9480(5) 0.8705(4)
N2 N 0.7241(10) 0.8330(5) 0.9243(4)
C1 C 0.6244(17) 1.0406(6) 0.8551(7)
H2 H 0.6173 1.0704 0.8930
H3 H 0.5190 1.0490 0.8174
H4 H 0.7209 1.0620 0.8450
C2 C 0.5932(14) 0.8881(7) 0.8253(5)
H5 H 0.5331 0.8954 0.7798
C3 C 0.6405(12) 0.8135(7) 0.8584(5)
H6 H 0.6201 0.7592 0.8399
C4 C 0.7300(14) 0.9188(6) 0.9294(5)
H7 H 0.7823 0.9505 0.9681
C5 C 0.8127(14) 0.7715(8) 0.9783(6)
H8 H 0.9354 0.7852 0.9976
H9 H 0.8015 0.7145 0.9598
C6 C 0.7360(14) 0.7734(8) 1.0324(5)
H10 H 0.7468 0.8306 1.0505
H11 H 0.8024 0.7356 1.0683
C7 C 0.5449(13) 0.7469(9) 1.0078(5)
H12 H 0.4779 0.7858 0.9729
H13 H 0.5336 0.6904 0.9884
C8 C 0.4712(12) 0.7461(8) 1.0608(5)
O3 O 0.1670(9) 0.7532(6) 0.6334(4)
O4 O 0.4282(8) 0.7444(6) 0.7143(3)
H14 H 0.4595 0.7499 0.6825
N3 N 0.0931(10) 0.5304(5) 0.8802(5)
N4 N 0.0038(11) 0.6479(6) 0.8267(4)
C9 C 0.120(2) 0.4419(9) 0.8969(8)
H15 H 0.0334 0.4088 0.8638
H16 H 0.1120 0.4324 0.9397
H17 H 0.2333 0.4254 0.8983
C10 C 0.1528(13) 0.5963(7) 0.9245(5)
H18 H 0.2222 0.5918 0.9694
C11 C 0.0933(13) 0.6672(7) 0.8913(5)
H19 H 0.1101 0.7217 0.9094
C12 C 0.0067(13) 0.5624(8) 0.8225(5)
H20 H -0.0460 0.5311 0.7837
C13 C -0.0833(15) 0.7077(9) 0.7731(6)
H21 H -0.0780 0.7642 0.7921
H22 H -0.2048 0.6919 0.7530
C14 C -0.0069(14) 0.7112(8) 0.7195(5)
H23 H -0.0712 0.7523 0.6860
H24 H -0.0201 0.6559 0.6981
C15 C 0.1861(15) 0.7358(9) 0.7463(5)
H25 H 0.2004 0.7891 0.7706
H26 H 0.2516 0.6925 0.7774
C16 C 0.2571(13) 0.7453(7) 0.6930(5)
P1 P 0.1566(4) 0.95219(18) 0.88622(15)
F1 F -0.0114(14) 0.9222(12) 0.8317(8)
F2 F 0.2003(16) 0.9987(12) 0.8341(7)
F3 F 0.2695(13) 0.8745(6) 0.8784(6)
F4 F 0.101(2) 0.9003(11) 0.9316(12)
F5 F 0.0542(11) 1.0273(6) 0.9009(6)
F6 F 0.3228(14) 0.9823(10) 0.9397(7)
P2 P 0.5879(4) 0.5190(2) 0.86924(16)
F7 F 0.7659(12) 0.5333(13) 0.9215(6)
F8 F 0.6640(16) 0.4491(10) 0.8385(9)
F9 F 0.6335(17) 0.5707(12) 0.8215(9)
F10 F 0.5025(19) 0.5947(10) 0.8900(11)
F11 F 0.5380(15) 0.4753(12) 0.9209(7)
F12 F 0.4084(11) 0.5057(10) 0.8172(5)
loop_
_geom_bond_atom_site_label_1
_geom_bond_atom_site_label_2
_geom_bond_site_symmetry_1
_geom_bond_site_symmetry_2
O1 H1 1_555 1_555
O2 C8 1_555 1_555
N1 C1 1_555 1_555
N2 C3 1_555 1_555
C1 H2 1_555 1_555
H3 C1 1_555 1_555
H4 C1 1_555 1_555
C2 N1 1_555 1_555
H5 C2 1_555 1_555
C3 C2 1_555 1_555
H6 C3 1_555 1_555
C4 N1 1_555 1_555
H7 C4 1_555 1_555
C5 N2 1_555 1_555
H8 C5 1_555 1_555
H9 C5 1_555 1_555
C6 C5 1_555 1_555
H10 C6 1_555 1_555
H11 C6 1_555 1_555
C7 C6 1_555 1_555
H12 C7 1_555 1_555
H13 C7 1_555 1_555
C8 O1 1_555 1_555
O3 C16 1_555 1_555
O4 H14 1_555 1_555
N3 C9 1_555 1_555
N4 C11 1_555 1_555
C9 H15 1_555 1_555
H16 C9 1_555 1_555
H17 C9 1_555 1_555
C10 N3 1_555 1_555
H18 C10 1_555 1_555
C11 C10 1_555 1_555
H19 C11 1_555 1_555
C12 N3 1_555 1_555
H20 C12 1_555 1_555
C13 N4 1_555 1_555
H21 C13 1_555 1_555
H22 C13 1_555 1_555
C14 C13 1_555 1_555
H23 C14 1_555 1_555
H24 C14 1_555 1_555
C15 C14 1_555 1_555
H25 C15 1_555 1_555
H26 C15 1_555 1_555
C16 O4 1_555 1_555
P1 F1 1_555 1_555
F2 P1 1_555 1_555
F3 P1 1_555 1_555
F4 P1 1_555 1_555
F5 P1 1_555 1_555
F6 P1 1_555 1_555
P2 F7 1_555 1_555
F8 P2 1_555 1_555
F9 P2 1_555 1_555
F10 P2 1_555 1_555
F11 P2 1_555 1_555
F12 P2 1_555 1_555
N2 C4 1_555 1_555
C7 C8 1_555 1_555
N4 C12 1_555 1_555
C15 C16 1_555 1_555

#END
