
#######################################################################
#
#                 Cambridge Crystallographic Data Centre
#                                CCDC 
#
#######################################################################
#
# If this CIF has been generated from an entry in the Cambridge 
# Structural Database, then it will include bibliographic, chemical, 
# crystal, experimental, refinement or atomic coordinate data resulting 
# from the CCDC's data processing and validation procedures.
#
#######################################################################

data_LODCUD
_chemical_formula_moiety         'C34 H26 S4'
_chemical_name_systematic        
9,10-bis((3,4-bis(Methylthio)phenyl)ethynyl)anthracene
_symmetry_cell_setting           monoclinic
_symmetry_space_group_name_H-M   'P 21/n'
_symmetry_Int_Tables_number      14
_space_group_name_Hall           '-P 2yn'
loop_
_symmetry_equiv_pos_site_id
_symmetry_equiv_pos_as_xyz
1 x,y,z
2 1/2-x,1/2+y,1/2-z
3 -x,-y,-z
4 1/2+x,1/2-y,1/2+z
_cell_length_a                   10.9415(13)
_cell_length_b                   9.5859(12)
_cell_length_c                   13.9860(17)
_cell_angle_alpha                90
_cell_angle_beta                 112.608(2)
_cell_angle_gamma                90
_cell_volume                     1354.19
_exptl_crystal_colour            orange
_exptl_crystal_description       plate
_cell_formula_units_Z            2
_exptl_crystal_recrystallization_method acetonitrile/benzene
_exptl_crystal_preparation       luminescent
loop_
_atom_site_label
_atom_site_type_symbol
_atom_site_fract_x
_atom_site_fract_y
_atom_site_fract_z
C1 C 0.63098(15) -0.04009(16) 0.06475(12)
C2 C 0.76413(16) -0.07540(17) 0.13007(13)
H1 H 0.8019 -0.1597 0.1184
C3 C 0.83754(17) 0.01103(18) 0.20902(13)
H2 H 0.9259 -0.0137 0.2516
C4 C 0.78322(17) 0.13669(18) 0.22791(13)
H3 H 0.8348 0.1950 0.2838
C5 C 0.65709(16) 0.17503(17) 0.16646(12)
H4 H 0.6222 0.2603 0.1797
C6 C 0.57717(15) 0.08874(16) 0.08270(12)
C7 C 0.55361(16) -0.12781(16) -0.01773(12)
C8 C 0.60805(15) -0.25913(17) -0.03579(12)
C9 C 0.65155(16) -0.36545(18) -0.05021(13)
C10 C 0.70783(16) -0.49231(17) -0.07066(12)
C11 C 0.65764(17) -0.62325(17) -0.06048(13)
H5 H 0.5851 -0.6300 -0.0393
C12 C 0.71387(17) -0.74343(17) -0.08139(13)
H6 H 0.6797 -0.8320 -0.0737
C13 C 0.81960(16) -0.73634(17) -0.11343(12)
C14 C 0.87068(16) -0.60373(17) -0.12401(12)
C15 C 0.81506(16) -0.48398(17) -0.10240(12)
H7 H 0.8497 -0.3953 -0.1091
C16 C 0.81943(19) -1.02915(19) -0.10959(15)
H8 H 0.7239 -1.0279 -0.1507
H9 H 0.8576 -1.1155 -0.1236
H10 H 0.8352 -1.0244 -0.0358
C17 C 1.03876(19) -0.42050(19) -0.17176(15)
H11 H 1.0636 -0.3796 -0.1026
H12 H 1.1120 -0.4097 -0.1950
H13 H 0.9601 -0.3729 -0.2203
S1 S 0.89561(4) -0.88192(4) -0.14393(4)
S2 S 1.00301(4) -0.60285(4) -0.16691(3)
C1B C 0.36902(15) 0.04009(16) -0.06475(12)
C2B C 0.23587(16) 0.07540(17) -0.13007(13)
H1B H 0.1981 0.1597 -0.1184
C3B C 0.16246(17) -0.01103(18) -0.20902(13)
H2B H 0.0741 0.0137 -0.2516
C4B C 0.21678(17) -0.13669(18) -0.22791(13)
H3B H 0.1652 -0.1950 -0.2838
C5B C 0.34291(16) -0.17503(17) -0.16646(12)
H4B H 0.3778 -0.2603 -0.1797
C6B C 0.42283(15) -0.08874(16) -0.08270(12)
C7B C 0.44639(16) 0.12781(16) 0.01773(12)
C8B C 0.39195(15) 0.25913(17) 0.03579(12)
C9B C 0.34845(16) 0.36545(18) 0.05021(13)
C10B C 0.29217(16) 0.49231(17) 0.07066(12)
C11B C 0.34236(17) 0.62325(17) 0.06048(13)
H5B H 0.4149 0.6300 0.0393
C12B C 0.28613(17) 0.74343(17) 0.08139(13)
H6B H 0.3203 0.8320 0.0737
C13B C 0.18040(16) 0.73634(17) 0.11343(12)
C14B C 0.12932(16) 0.60373(17) 0.12401(12)
C15B C 0.18494(16) 0.48398(17) 0.10240(12)
H7B H 0.1503 0.3953 0.1091
C16B C 0.18057(19) 1.02915(19) 0.10959(15)
H8B H 0.2761 1.0279 0.1507
H9B H 0.1424 1.1155 0.1236
H10B H 0.1648 1.0244 0.0358
C17B C -0.03876(19) 0.42050(19) 0.17176(15)
H11B H -0.0636 0.3796 0.1026
H12B H -0.1120 0.4097 0.1950
H13B H 0.0399 0.3729 0.2203
S1B S 0.10439(4) 0.88192(4) 0.14393(4)
S2B S -0.00301(4) 0.60285(4) 0.16691(3)
loop_
_geom_bond_atom_site_label_1
_geom_bond_atom_site_label_2
_geom_bond_site_symmetry_1
_geom_bond_site_symmetry_2
C1 C2 1_555 1_555
C2 H1 1_555 1_555
C3 C2 1_555 1_555
H2 C3 1_555 1_555
C4 C3 1_555 1_555
H3 C4 1_555 1_555
C5 C4 1_555 1_555
H4 C5 1_555 1_555
C6 C1 1_555 1_555
C7 C1 1_555 1_555
C8 C7 1_555 1_555
C9 C8 1_555 1_555
C10 C9 1_555 1_555
C11 C10 1_555 1_555
H5 C11 1_555 1_555
C12 C11 1_555 1_555
H6 C12 1_555 1_555
C13 C12 1_555 1_555
C14 C13 1_555 1_555
C15 C10 1_555 1_555
H7 C15 1_555 1_555
C16 H8 1_555 1_555
H9 C16 1_555 1_555
H10 C16 1_555 1_555
C17 H11 1_555 1_555
H12 C17 1_555 1_555
H13 C17 1_555 1_555
S1 C13 1_555 1_555
S2 C14 1_555 1_555
C1B C2B 1_555 1_555
C2B H1B 1_555 1_555
C3B C2B 1_555 1_555
H2B C3B 1_555 1_555
C4B C3B 1_555 1_555
H3B C4B 1_555 1_555
C5B C4B 1_555 1_555
H4B C5B 1_555 1_555
C6B C7 1_555 1_555
C7B C6 1_555 1_555
C8B C7B 1_555 1_555
C9B C8B 1_555 1_555
C10B C9B 1_555 1_555
C11B C10B 1_555 1_555
H5B C11B 1_555 1_555
C12B C11B 1_555 1_555
H6B C12B 1_555 1_555
C13B C12B 1_555 1_555
C14B C13B 1_555 1_555
C15B C10B 1_555 1_555
H7B C15B 1_555 1_555
C16B H8B 1_555 1_555
H9B C16B 1_555 1_555
H10B C16B 1_555 1_555
C17B H11B 1_555 1_555
H12B C17B 1_555 1_555
H13B C17B 1_555 1_555
S1B C13B 1_555 1_555
S2B C14B 1_555 1_555
C5 C6 1_555 1_555
C14 C15 1_555 1_555
C16 S1 1_555 1_555
C17 S2 1_555 1_555
C1B C6B 1_555 1_555
C1B C7B 1_555 1_555
C5B C6B 1_555 1_555
C14B C15B 1_555 1_555
C16B S1B 1_555 1_555
C17B S2B 1_555 1_555

#END
