
#######################################################################
#
#                 Cambridge Crystallographic Data Centre
#                                CCDC 
#
#######################################################################
#
# If this CIF has been generated from an entry in the Cambridge 
# Structural Database, then it will include bibliographic, chemical, 
# crystal, experimental, refinement or atomic coordinate data resulting 
# from the CCDC's data processing and validation procedures.
#
#######################################################################

data_LODFUG
_chemical_name_common            
'1-(Dimethylamino)-8-(dimethylammonio)naphthalene 1-n-butyl-5-(4-nitrophenyl)barbiturate 2,6-diacetamidopyridine'
_chemical_formula_moiety         'C14 H19 N2 1+,C14 H14 N3 O5 1-,C9 H11 N3 O2'
_chemical_name_systematic        
'1-(Dimethylamino)-8-(dimethylammonio)naphthalene 1-n-butyl-5-(4-nitrophenyl)-2,6-dioxo-1,2,3,6-tetrahydropyrimidin-4-olate 2,6-diacetamidopyridine'
_symmetry_cell_setting           monoclinic
_symmetry_space_group_name_H-M   'P 21/n'
_symmetry_Int_Tables_number      14
_space_group_name_Hall           '-P 2yn'
loop_
_symmetry_equiv_pos_site_id
_symmetry_equiv_pos_as_xyz
1 x,y,z
2 1/2-x,1/2+y,1/2-z
3 -x,-y,-z
4 1/2+x,1/2-y,1/2+z
_cell_length_a                   8.9840(5)
_cell_length_b                   17.4356(7)
_cell_length_c                   23.5112(8)
_cell_angle_alpha                90
_cell_angle_beta                 97.3302(13)
_cell_angle_gamma                90
_cell_volume                     3652.73
_exptl_crystal_colour            orange
_exptl_crystal_description       needle
_cell_formula_units_Z            4
_exptl_crystal_recrystallization_method acetone
loop_
_atom_site_label
_atom_site_type_symbol
_atom_site_fract_x
_atom_site_fract_y
_atom_site_fract_z
O1 O 0.73140(16) 0.66328(9) 0.05842(7)
O2 O 0.95461(16) 0.50340(9) 0.19372(7)
O3 O 0.45859(17) 0.59362(9) 0.20068(6)
O4 O 0.5957(3) 0.3736(2) 0.43836(12)
O5 O 0.8332(3) 0.39751(13) 0.45766(8)
N1 N 0.83487(19) 0.58237(11) 0.12773(8)
N2 N 0.59267(19) 0.62519(10) 0.12856(8)
N3 N 0.7138(3) 0.40104(17) 0.42540(11)
C1 C 0.7205(2) 0.62624(14) 0.10256(10)
C2 C 0.8384(2) 0.54105(13) 0.17891(9)
C3 C 0.7083(2) 0.54585(12) 0.20756(9)
C4 C 0.5799(2) 0.58667(12) 0.18123(9)
C5 C 0.7084(2) 0.50847(12) 0.26318(9)
C6 C 0.5754(2) 0.48250(13) 0.28290(10)
C7 C 0.5760(3) 0.44722(15) 0.33536(10)
C8 C 0.7110(3) 0.43707(14) 0.36965(11)
C9 C 0.8446(3) 0.46089(14) 0.35262(10)
C10 C 0.8441(2) 0.49613(13) 0.29998(9)
C11 C 0.4579(2) 0.66348(14) 0.09908(9)
C12 C 0.4457(2) 0.74701(14) 0.11387(10)
C13 C 0.2939(3) 0.78063(14) 0.08732(11)
C14 C 0.2813(3) 0.86663(16) 0.09522(13)
H1 H 0.4828 0.4901 0.2592
H2 H 0.4856 0.4294 0.3478
H3 H 0.9360 0.4531 0.3771
H4 H 0.9361 0.5126 0.2881
H5 H 0.4605 0.6594 0.0589
H6 H 0.3716 0.6378 0.1090
H7 H 0.5245 0.7745 0.0997
H8 H 0.4546 0.7522 0.1544
H9 H 0.2807 0.7693 0.0475
H10 H 0.2164 0.7569 0.1050
H11 H 0.1860 0.8844 0.0781
H12 H 0.3580 0.8909 0.0775
H13 H 0.2938 0.8785 0.1350
H43 H 0.9219 0.5782 0.1157
O6 O 1.38532(18) 0.38197(10) 0.14071(8)
O7 O 1.09834(17) 0.71192(10) -0.07225(8)
N4 N 1.10190(18) 0.55565(10) 0.06244(8)
N5 N 1.18432(19) 0.46392(10) 0.12990(8)
N6 N 0.9997(2) 0.64835(11) -0.00047(8)
C15 C 1.2006(2) 0.49847(13) 0.07726(10)
C16 C 1.3072(3) 0.47480(13) 0.04236(11)
C17 C 1.3082(2) 0.51166(13) -0.00895(10)
C18 C 1.2100(2) 0.57054(13) -0.02564(10)
C19 C 1.1076(2) 0.59035(13) 0.01169(9)
C20 C 1.2750(3) 0.40917(13) 0.15829(11)
C21 C 1.2257(3) 0.38376(15) 0.21453(10)
C22 C 0.9987(2) 0.70321(13) -0.04201(10)
C23 C 0.8624(3) 0.75378(15) -0.04905(11)
H14 H 1.3757 0.4345 0.0540
H15 H 1.3786 0.4965 -0.0337
H16 H 1.2108 0.5966 -0.0611
H17 H 1.1379 0.4111 0.2210
H18 H 1.3035 0.3939 0.2449
H19 H 1.2048 0.3303 0.2131
H20 H 0.7967 0.7395 -0.0223
H21 H 0.8922 0.8057 -0.0428
H22 H 0.8122 0.7482 -0.0869
H41 H 1.1122 0.4828 0.1533
H42 H 0.9131 0.6533 0.0186
N7 N 1.39447(19) 0.80584(10) -0.09750(7)
N8 N 1.2548(2) 0.74003(10) -0.18693(8)
C24 C 1.4924(2) 0.81200(12) -0.19127(10)
C25 C 1.5046(2) 0.83655(14) -0.13292(9)
C26 C 1.6157(2) 0.88489(13) -0.11007(10)
C27 C 1.7233(3) 0.91152(14) -0.14420(11)
C28 C 1.7193(2) 0.88798(13) -0.19919(11)
C29 C 1.6062(2) 0.83757(14) -0.22457(10)
C30 C 1.6026(3) 0.81347(14) -0.28211(10)
C31 C 1.4904(3) 0.76671(15) -0.30688(11)
C32 C 1.3761(3) 0.74230(15) -0.27511(10)
C33 C 1.3772(2) 0.76399(12) -0.21974(10)
C34 C 1.4639(2) 0.74960(14) -0.05433(10)
C35 C 1.3110(3) 0.86543(13) -0.07080(11)
C36 C 1.2349(3) 0.65580(14) -0.18596(10)
C37 C 1.1122(2) 0.78042(15) -0.20636(11)
H23 H 1.6197 0.9005 -0.0712
H24 H 1.7996 0.9459 -0.1284
H25 H 1.7940 0.9056 -0.2212
H26 H 1.6790 0.8301 -0.3038
H27 H 1.4902 0.7504 -0.3454
H28 H 1.2968 0.7109 -0.2926
H29 H 1.3895 0.7310 -0.0325
H30 H 1.5413 0.7741 -0.0296
H31 H 1.5048 0.7080 -0.0733
H32 H 1.2418 0.8424 -0.0486
H33 H 1.3801 0.8960 -0.0467
H34 H 1.2581 0.8967 -0.0997
H35 H 1.1548 0.6436 -0.1648
H36 H 1.3247 0.6326 -0.1683
H37 H 1.2124 0.6371 -0.2240
H38 H 1.0368 0.7633 -0.1844
H39 H 1.1261 0.8341 -0.2013
H40 H 1.0820 0.7697 -0.2458
H44 H 1.3284 0.7768 -0.1354
H45? H 1.2939 0.7524 -0.1493
loop_
_geom_bond_atom_site_label_1
_geom_bond_atom_site_label_2
_geom_bond_site_symmetry_1
_geom_bond_site_symmetry_2
O1 C1 1_555 1_555
O2 C2 1_555 1_555
O3 C4 1_555 1_555
O4 N3 1_555 1_555
O5 N3 1_555 1_555
O6 C20 1_555 1_555
O7 C22 1_555 1_555
N1 C1 1_555 1_555
N2 C1 1_555 1_555
N3 C8 1_555 1_555
N4 C15 1_555 1_555
N5 C15 1_555 1_555
N6 C19 1_555 1_555
N7 C25 1_555 1_555
N8 C33 1_555 1_555
C2 N1 1_555 1_555
C3 C2 1_555 1_555
C4 N2 1_555 1_555
C5 C3 1_555 1_555
C6 C5 1_555 1_555
C7 C6 1_555 1_555
C8 C7 1_555 1_555
C9 C8 1_555 1_555
C10 C5 1_555 1_555
C11 N2 1_555 1_555
C12 C11 1_555 1_555
C13 C12 1_555 1_555
C14 C13 1_555 1_555
C15 C16 1_555 1_555
C16 C17 1_555 1_555
C17 C18 1_555 1_555
C18 C19 1_555 1_555
C19 N4 1_555 1_555
C20 N5 1_555 1_555
C21 C20 1_555 1_555
C22 N6 1_555 1_555
C23 C22 1_555 1_555
C24 C25 1_555 1_555
C25 C26 1_555 1_555
C26 C27 1_555 1_555
C27 C28 1_555 1_555
C28 C29 1_555 1_555
C29 C24 1_555 1_555
C30 C29 1_555 1_555
C31 C30 1_555 1_555
C32 C31 1_555 1_555
C33 C24 1_555 1_555
C34 N7 1_555 1_555
C35 N7 1_555 1_555
C36 N8 1_555 1_555
C37 N8 1_555 1_555
H1 C6 1_555 1_555
H2 C7 1_555 1_555
H3 C9 1_555 1_555
H4 C10 1_555 1_555
H5 C11 1_555 1_555
H6 C11 1_555 1_555
H7 C12 1_555 1_555
H8 C12 1_555 1_555
H9 C13 1_555 1_555
H10 C13 1_555 1_555
H11 C14 1_555 1_555
H12 C14 1_555 1_555
H13 C14 1_555 1_555
H14 C16 1_555 1_555
H15 C17 1_555 1_555
H16 C18 1_555 1_555
H17 C21 1_555 1_555
H18 C21 1_555 1_555
H19 C21 1_555 1_555
H20 C23 1_555 1_555
H21 C23 1_555 1_555
H22 C23 1_555 1_555
H23 C26 1_555 1_555
H24 C27 1_555 1_555
H25 C28 1_555 1_555
H26 C30 1_555 1_555
H27 C31 1_555 1_555
H28 C32 1_555 1_555
H29 C34 1_555 1_555
H30 C34 1_555 1_555
H31 C34 1_555 1_555
H32 C35 1_555 1_555
H33 C35 1_555 1_555
H34 C35 1_555 1_555
H35 C36 1_555 1_555
H36 C36 1_555 1_555
H37 C36 1_555 1_555
H38 C37 1_555 1_555
H39 C37 1_555 1_555
H40 C37 1_555 1_555
H41 N5 1_555 1_555
H42 N6 1_555 1_555
H43 N1 1_555 1_555
H44 N7 1_555 1_555
C3 C4 1_555 1_555
C9 C10 1_555 1_555
C32 C33 1_555 1_555

#END
