
#######################################################################
#
#                 Cambridge Crystallographic Data Centre
#                                CCDC 
#
#######################################################################
#
# If this CIF has been generated from an entry in the Cambridge 
# Structural Database, then it will include bibliographic, chemical, 
# crystal, experimental, refinement or atomic coordinate data resulting 
# from the CCDC's data processing and validation procedures.
#
#######################################################################

data_LODHES
_chemical_formula_moiety         
'C26 H42 N10 O4 4+,4(C7 H4 N1 O4 1-),4(C2 H6 O1 S1)'
_chemical_name_systematic        
'3,12,16,25-Tetraaza-6,9,19,22-tetraazonia-1,14(2,6)-dipyridinacyclohexacosaphane-2,13,15,26-tetrone tetrakis(4-nitrobenzoate) dimethylsulfoxide solvate'
_symmetry_cell_setting           triclinic
_symmetry_space_group_name_H-M   'P -1'
_symmetry_Int_Tables_number      2
_space_group_name_Hall           '-P 1'
loop_
_symmetry_equiv_pos_site_id
_symmetry_equiv_pos_as_xyz
1 x,y,z
2 -x,-y,-z
_cell_length_a                   10.6618(19)
_cell_length_b                   12.830(2)
_cell_length_c                   14.182(3)
_cell_angle_alpha                100.467(3)
_cell_angle_beta                 101.620(4)
_cell_angle_gamma                101.649(3)
_cell_volume                     1810.4
_exptl_crystal_colour            colorless
_exptl_crystal_description       prism
_cell_formula_units_Z            1
loop_
_atom_site_label
_atom_site_type_symbol
_atom_site_fract_x
_atom_site_fract_y
_atom_site_fract_z
N1 N 0.5159(3) 0.0995(4) 0.1054(3)
O9 O 1.1040(3) 0.0614(3) 0.2547(2)
O10 O 1.1349(3) 0.2374(3) 0.3226(2)
O11 O 0.4405(3) 0.0101(3) 0.0933(2)
C25 C 1.0645(4) 0.1469(4) 0.2732(3)
C26 C 0.6577(4) 0.1129(4) 0.1477(3)
C27 C 0.7405(4) 0.2163(4) 0.1758(3)
H32 H 0.7082 0.2785 0.1668
O12 O 0.4793(3) 0.1775(3) 0.0830(3)
C28 C 0.9202(4) 0.1363(3) 0.2290(3)
C29 C 0.8331(4) 0.0341(4) 0.2003(3)
H33 H 0.8653 -0.0281 0.2094
C30 C 0.7013(4) 0.0205(4) 0.1591(3)
H34 H 0.6420 -0.0500 0.1391
C31 C 0.8724(4) 0.2265(4) 0.2176(3)
H35 H 0.9314 0.2972 0.2389
S1 S 0.07494(10) 0.55185(9) 0.22682(7)
O3 O 0.0816(3) 0.6719(2) 0.2605(2)
C10 C -0.0778(4) 0.4950(4) 0.1382(3)
H12 H -0.1503 0.4954 0.1711
H13 H -0.0817 0.4196 0.1063
H14 H -0.0862 0.5385 0.0882
C15 C 0.1798(4) 0.5476(4) 0.1439(3)
H19 H 0.1530 0.5866 0.0929
H20 H 0.1726 0.4713 0.1125
H21 H 0.2715 0.5825 0.1806
N2 N 0.7046(3) 0.9763(3) 0.6135(3)
N3 N 1.0445(3) 0.7937(3) 0.4226(2)
O1 O 0.8483(3) 0.5065(3) 0.3421(2)
N4 N 0.6346(3) 0.6206(3) 0.4652(2)
N5 N 0.5786(3) 0.7604(3) 0.6056(2)
N6 N 0.8897(4) 0.6221(3) 0.4913(3)
O2 O 0.3652(3) 0.7209(3) 0.5187(2)
C1 C 0.7577(4) 1.0904(3) 0.6100(3)
H1 H 0.7701 1.1401 0.6752
H2 H 0.6962 1.1125 0.5597
C2 C 0.5070(4) 0.6207(3) 0.4553(3)
C3 C 0.6654(4) 0.5514(3) 0.3975(3)
C4 C 1.0932(4) 0.7648(4) 0.5181(3)
H3 H 1.0697 0.8115 0.5721
H4 H 1.1907 0.7782 0.5334
C5 C 0.4786(4) 0.7052(4) 0.5289(3)
C6 C 0.5712(4) 0.4772(4) 0.3183(3)
H5 H 0.5965 0.4298 0.2699
C7 C 1.0327(4) 0.6460(4) 0.5120(3)
H6 H 1.0586 0.5996 0.4592
H7 H 1.0675 0.6277 0.5755
C8 C 0.5832(4) 0.9564(4) 0.6505(3)
H8 H 0.5058 0.9556 0.5982
H9 H 0.5914 1.0159 0.7084
C9 C 0.5634(4) 0.8463(4) 0.6804(3)
H10 H 0.6286 0.8536 0.7433
H11 H 0.4739 0.8262 0.6917
C11 C 0.8094(4) 0.5578(4) 0.4073(3)
C12 C 0.4084(4) 0.5497(4) 0.3804(3)
H15 H 0.3190 0.5524 0.3758
C13 C 0.8888(4) 1.0957(3) 0.5834(3)
H16 H 0.8743 1.0443 0.5188
H17 H 0.9477 1.0713 0.6337
C14 C 0.4385(4) 0.4754(4) 0.3127(3)
H18 H 0.3705 0.4232 0.2626
H36 H 0.858(4) 0.649(3) 0.528(3)
H37 H 0.664(6) 0.754(5) 0.609(4)
H38 H 1.040(4) 0.728(4) 0.364(4)
H39 H 0.959(4) 0.802(3) 0.411(3)
H40 H 0.785(5) 0.949(4) 0.665(4)
H41 H 0.681(4) 0.938(3) 0.553(3)
N2A N 1.2954(3) 1.0237(3) 0.3865(3)
N3A N 0.9555(3) 1.2063(3) 0.5774(2)
O1A O 1.1517(3) 1.4935(3) 0.6579(2)
N4A N 1.3654(3) 1.3794(3) 0.5348(2)
N5A N 1.4214(3) 1.2396(3) 0.3944(2)
N6A N 1.1103(4) 1.3779(3) 0.5087(3)
O2A O 1.6348(3) 1.2791(3) 0.4813(2)
C1A C 1.2423(4) 0.9096(3) 0.3900(3)
H1A H 1.2299 0.8599 0.3248
H2A H 1.3038 0.8875 0.4403
C2A C 1.4930(4) 1.3793(3) 0.5447(3)
C3A C 1.3346(4) 1.4486(3) 0.6025(3)
C4A C 0.9068(4) 1.2352(4) 0.4819(3)
H3A H 0.9303 1.1885 0.4279
H4A H 0.8093 1.2218 0.4666
C5A C 1.5214(4) 1.2948(4) 0.4711(3)
C6A C 1.4288(4) 1.5228(4) 0.6817(3)
H5A H 1.4035 1.5702 0.7301
C7A C 0.9673(4) 1.3540(4) 0.4880(3)
H6A H 0.9414 1.4004 0.5408
H7A H 0.9325 1.3723 0.4245
C8A C 1.4168(4) 1.0436(4) 0.3495(3)
H8A H 1.4942 1.0444 0.4018
H9A H 1.4086 0.9841 0.2916
C9A C 1.4366(4) 1.1537(4) 0.3196(3)
H10A H 1.3714 1.1464 0.2567
H11A H 1.5261 1.1738 0.3083
C11A C 1.1906(4) 1.4422(4) 0.5927(3)
C12A C 1.5916(4) 1.4503(4) 0.6196(3)
H15A H 1.6810 1.4476 0.6242
C13A C 1.1112(4) 0.9043(3) 0.4166(3)
H16A H 1.1257 0.9557 0.4812
H17A H 1.0523 0.9287 0.3663
C14A C 1.5615(4) 1.5246(4) 0.6873(3)
H18A H 1.6295 1.5768 0.7374
H36A H 1.142(4) 1.351(3) 0.472(3)
H37A H 1.336(6) 1.246(5) 0.391(4)
H38A H 0.960(4) 1.272(4) 0.636(4)
H39A H 1.041(4) 1.198(3) 0.589(3)
H40A H 1.215(5) 1.051(4) 0.335(4)
H41A H 1.319(4) 1.062(3) 0.447(3)
S2 S -0.01651(12) 0.79249(10) 0.06885(9)
O4 O -0.0263(3) 0.6828(3) 0.0081(3)
C16 C -0.1067(5) 0.8584(5) -0.0114(4)
H22 H -0.0693 0.8615 -0.0688
H23 H -0.1010 0.9329 0.0242
H24 H -0.1995 0.8172 -0.0337
C17 C 0.1435(5) 0.8719(4) 0.0801(4)
H25 H 0.2090 0.8396 0.1153
H26 H 0.1531 0.9465 0.1173
H27 H 0.1572 0.8737 0.0141
O5 O 0.6195(3) 0.8811(2) 0.4205(2)
O6 O 0.8175(3) 0.8509(2) 0.4222(2)
O7 O 0.3857(3) 0.5966(3) -0.0646(2)
C18 C 0.6471(4) 0.7786(3) 0.2732(3)
C19 C 0.6984(4) 0.8413(3) 0.3813(3)
N7 N 0.5050(4) 0.6165(3) -0.0277(3)
C20 C 0.5194(4) 0.7709(4) 0.2246(3)
H28 H 0.4633 0.8020 0.2593
O8 O 0.5839(4) 0.5897(3) -0.0727(2)
C21 C 0.6821(4) 0.6780(4) 0.1241(3)
H29 H 0.7370 0.6449 0.0896
C22 C 0.5553(4) 0.6737(3) 0.0774(3)
C23 C 0.4713(4) 0.7182(4) 0.1253(3)
H30 H 0.3830 0.7130 0.0913
C24 C 0.7284(4) 0.7319(3) 0.2229(3)
H31 H 0.8167 0.7369 0.2566
loop_
_geom_bond_atom_site_label_1
_geom_bond_atom_site_label_2
_geom_bond_site_symmetry_1
_geom_bond_site_symmetry_2
N1 O11 1_555 1_555
S1 O3 1_555 1_555
N2 C1 1_555 1_555
N3 C4 1_555 1_555
O1 C11 1_555 1_555
N4 C2 1_555 1_555
N5 C5 1_555 1_555
N6 C7 1_555 1_555
O2 C5 1_555 1_555
C1 H1 1_555 1_555
H2 C1 1_555 1_555
C2 C5 1_555 1_555
C3 N4 1_555 1_555
C4 H3 1_555 1_555
H4 C4 1_555 1_555
C6 C3 1_555 1_555
H5 C6 1_555 1_555
C7 C4 1_555 1_555
H6 C7 1_555 1_555
H7 C7 1_555 1_555
C8 N2 1_555 1_555
H8 C8 1_555 1_555
H9 C8 1_555 1_555
C9 N5 1_555 1_555
H10 C9 1_555 1_555
H11 C9 1_555 1_555
C10 S1 1_555 1_555
H12 C10 1_555 1_555
H13 C10 1_555 1_555
H14 C10 1_555 1_555
C11 N6 1_555 1_555
C12 C2 1_555 1_555
H15 C12 1_555 1_555
C13 C1 1_555 1_555
H16 C13 1_555 1_555
H17 C13 1_555 1_555
C14 C6 1_555 1_555
H18 C14 1_555 1_555
C15 S1 1_555 1_555
H19 C15 1_555 1_555
H20 C15 1_555 1_555
H21 C15 1_555 1_555
S2 O4 1_555 1_555
C16 S2 1_555 1_555
H22 C16 1_555 1_555
H23 C16 1_555 1_555
H24 C16 1_555 1_555
C17 S2 1_555 1_555
H25 C17 1_555 1_555
H26 C17 1_555 1_555
H27 C17 1_555 1_555
O5 C19 1_555 1_555
O6 C19 1_555 1_555
O7 N7 1_555 1_555
C18 C19 1_555 1_555
N7 O8 1_555 1_555
C20 C18 1_555 1_555
H28 C20 1_555 1_555
C21 H29 1_555 1_555
C22 N7 1_555 1_555
C23 C20 1_555 1_555
H30 C23 1_555 1_555
C24 C18 1_555 1_555
H31 C24 1_555 1_555
O9 C25 1_555 1_555
O10 C25 1_555 1_555
C25 C28 1_555 1_555
C26 N1 1_555 1_555
C27 C26 1_555 1_555
H32 C27 1_555 1_555
O12 N1 1_555 1_555
C28 C29 1_555 1_555
C29 H33 1_555 1_555
C30 C26 1_555 1_555
H34 C30 1_555 1_555
C31 C27 1_555 1_555
H35 C31 1_555 1_555
H36 N6 1_555 1_555
H37 N5 1_555 1_555
H38 N3 1_555 1_555
H39 N3 1_555 1_555
H40 N2 1_555 1_555
H41 N2 1_555 1_555
N2A C1A 1_555 1_555
N3A C13 1_555 1_555
O1A C11A 1_555 1_555
N4A C2A 1_555 1_555
N5A C5A 1_555 1_555
N6A C7A 1_555 1_555
O2A C5A 1_555 1_555
C1A H1A 1_555 1_555
H2A C1A 1_555 1_555
C2A C5A 1_555 1_555
C3A N4A 1_555 1_555
C4A N3A 1_555 1_555
H3A C4A 1_555 1_555
H4A C4A 1_555 1_555
C6A C3A 1_555 1_555
H5A C6A 1_555 1_555
C7A C4A 1_555 1_555
H6A C7A 1_555 1_555
H7A C7A 1_555 1_555
C8A N2A 1_555 1_555
H8A C8A 1_555 1_555
H9A C8A 1_555 1_555
C9A N5A 1_555 1_555
H10A C9A 1_555 1_555
H11A C9A 1_555 1_555
C11A N6A 1_555 1_555
C12A C2A 1_555 1_555
H15A C12A 1_555 1_555
C13A N3 1_555 1_555
H16A C13A 1_555 1_555
H17A C13A 1_555 1_555
C14A C6A 1_555 1_555
H18A C14A 1_555 1_555
H36A N6A 1_555 1_555
H37A N5A 1_555 1_555
H38A N3A 1_555 1_555
H39A N3A 1_555 1_555
H40A N2A 1_555 1_555
H41A N2A 1_555 1_555
C3 C11 1_555 1_555
C8 C9 1_555 1_555
C12 C14 1_555 1_555
C21 C22 1_555 1_555
C21 C24 1_555 1_555
C22 C23 1_555 1_555
C28 C31 1_555 1_555
C29 C30 1_555 1_555
C1A C13A 1_555 1_555
C3A C11A 1_555 1_555
C8A C9A 1_555 1_555
C12A C14A 1_555 1_555

#END
