
#######################################################################
#
#                 Cambridge Crystallographic Data Centre
#                                CCDC 
#
#######################################################################
#
# If this CIF has been generated from an entry in the Cambridge 
# Structural Database, then it will include bibliographic, chemical, 
# crystal, experimental, refinement or atomic coordinate data resulting 
# from the CCDC's data processing and validation procedures.
#
#######################################################################

data_LODHIW
_chemical_formula_moiety         'C30 H46 N10 O4,2(C1 H4 O1)'
_chemical_name_systematic        
'6,9,19,22-Tetramethyl-3,6,9,12,16,19,22,25-octaza-1,14(2,6)-dipyridinacyclohexacosaphane-2,13,15,26-tetrone methanol solvate'
_symmetry_cell_setting           monoclinic
_symmetry_space_group_name_H-M   'P 21/n'
_symmetry_Int_Tables_number      14
_space_group_name_Hall           '-P 2yn'
loop_
_symmetry_equiv_pos_site_id
_symmetry_equiv_pos_as_xyz
1 x,y,z
2 1/2-x,1/2+y,1/2-z
3 -x,-y,-z
4 1/2+x,1/2-y,1/2+z
_cell_length_a                   8.3530(14)
_cell_length_b                   11.327(2)
_cell_length_c                   19.110(3)
_cell_angle_alpha                90
_cell_angle_beta                 94.237(4)
_cell_angle_gamma                90
_cell_volume                     1803.14
_exptl_crystal_colour            colorless
_exptl_crystal_description       block
_cell_formula_units_Z            2
loop_
_atom_site_label
_atom_site_type_symbol
_atom_site_fract_x
_atom_site_fract_y
_atom_site_fract_z
N1 N 0.55547(15) 1.18260(12) 0.15409(7)
N2 N 0.61168(14) 0.75214(11) 0.13935(7)
N3 N 1.17175(14) 0.83157(11) -0.05717(7)
O1 O 0.38062(14) 0.88384(11) 0.26693(7)
N4 N 0.60640(17) 0.94605(12) 0.21959(8)
C1 C 0.61342(17) 0.65755(14) 0.09761(8)
N5 N 0.87128(16) 0.72611(13) 0.06814(8)
C2 C 0.48591(18) 0.76476(14) 0.17843(8)
C3 C 0.75976(18) 0.64306(14) 0.05591(9)
C4 C 1.02396(18) 0.72562(15) 0.03564(9)
H1 H 1.0450 0.6471 0.0182
H2 H 1.1101 0.7463 0.0703
C5 C 0.36096(19) 0.68447(15) 0.17683(9)
H3 H 0.2758 0.6958 0.2048
C6 C 0.49300(19) 0.57364(15) 0.09267(9)
H4 H 0.4987 0.5093 0.0627
C7 C 0.48578(18) 0.87052(15) 0.22571(8)
C8 C 1.2278(2) 0.72154(15) -0.08897(10)
H5 H 1.1374 0.6683 -0.0970
H6 H 1.3056 0.6837 -0.0561
C9 C 0.36372(19) 0.58744(16) 0.13330(9)
H7 H 0.2807 0.5326 0.1313
C10 C 1.01919(18) 0.81280(15) -0.02418(9)
H8 H 0.9392 0.7863 -0.0601
H9 H 0.9835 0.8883 -0.0071
C11 C 0.6200(2) 1.05504(15) 0.25878(9)
H10 H 0.7308 1.0813 0.2618
H11 H 0.5894 1.0414 0.3061
C12 C 0.5144(2) 1.15014(16) 0.22463(10)
H12 H 0.4039 1.1233 0.2222
H13 H 0.5218 1.2200 0.2541
C13 C 0.6966(2) 1.25892(16) 0.15742(10)
H14 H 0.7770 1.2253 0.1908
H15 H 0.6667 1.3352 0.1755
C14 C 1.2954(2) 0.88535(16) -0.00945(10)
H16 H 1.3299 0.8297 0.0265
H17 H 1.2525 0.9542 0.0117
H18 H 1.3852 0.9075 -0.0351
C15 C 0.4184(2) 1.23966(17) 0.11655(12)
H19 H 0.3884 1.3082 0.1421
H20 H 0.3298 1.1855 0.1121
H21 H 0.4466 1.2629 0.0707
O2 O 0.77033(14) 0.55890(10) 0.01613(7)
H26 H 0.675(2) 0.9307(16) 0.1921(10)
H27 H 0.851(2) 0.7880(16) 0.0929(10)
N1B N 1.44453(15) 0.81740(12) -0.15409(7)
N2B N 1.38832(14) 1.24786(11) -0.13935(7)
N3B N 0.82825(14) 1.16843(11) 0.05717(7)
O1B O 1.61938(14) 1.11616(11) -0.26693(7)
N4B N 1.39360(17) 1.05395(12) -0.21959(8)
C1B C 1.38658(17) 1.34245(14) -0.09761(8)
N5B N 1.12872(16) 1.27389(13) -0.06814(8)
C2B C 1.51409(18) 1.23524(14) -0.17843(8)
C3B C 1.24024(18) 1.35694(14) -0.05591(9)
C4B C 0.97604(18) 1.27438(15) -0.03564(9)
H1B H 0.9550 1.3529 -0.0182
H2B H 0.8899 1.2537 -0.0703
C5B C 1.63904(19) 1.31553(15) -0.17683(9)
H3B H 1.7242 1.3042 -0.2048
C6B C 1.50700(19) 1.42636(15) -0.09267(9)
H4B H 1.5013 1.4907 -0.0627
C7B C 1.51422(18) 1.12948(15) -0.22571(8)
C8B C 0.7722(2) 1.27846(15) 0.08897(10)
H5B H 0.8626 1.3317 0.0970
H6B H 0.6944 1.3163 0.0561
C9B C 1.63628(19) 1.41256(16) -0.13330(9)
H7B H 1.7193 1.4674 -0.1313
C10B C 0.98081(18) 1.18720(15) 0.02418(9)
H8B H 1.0608 1.2137 0.0601
H9B H 1.0165 1.1117 0.0071
C11B C 1.3800(2) 0.94496(15) -0.25878(9)
H10B H 1.2692 0.9187 -0.2618
H11B H 1.4106 0.9586 -0.3061
C12B C 1.4856(2) 0.84986(16) -0.22463(10)
H12B H 1.5961 0.8767 -0.2222
H13B H 1.4782 0.7800 -0.2541
C13B C 1.3034(2) 0.74108(16) -0.15742(10)
H14B H 1.2230 0.7747 -0.1908
H15B H 1.3333 0.6648 -0.1755
C14B C 0.7046(2) 1.11465(16) 0.00945(10)
H16B H 0.6701 1.1703 -0.0265
H17B H 0.7475 1.0458 -0.0117
H18B H 0.6148 1.0925 0.0351
C15B C 1.5816(2) 0.76034(17) -0.11655(12)
H19B H 1.6116 0.6918 -0.1421
H20B H 1.6702 0.8145 -0.1121
H21B H 1.5534 0.7371 -0.0707
O2B O 1.22967(14) 1.44110(10) -0.01613(7)
H26B H 1.325(2) 1.0693(16) -0.1921(10)
H27B H 1.149(2) 1.2120(16) -0.0929(10)
C16 C 0.4546(2) 0.48296(18) 0.32572(11)
H22 H 0.3705 0.4690 0.3563
H23 H 0.4445 0.4283 0.2873
H24 H 0.4464 0.5622 0.3080
O3 O 0.60499(13) 0.46739(10) 0.36331(7)
H25 H 0.6301 0.5282 0.3847
loop_
_geom_bond_atom_site_label_1
_geom_bond_atom_site_label_2
_geom_bond_site_symmetry_1
_geom_bond_site_symmetry_2
N1 C12 1_555 1_555
N2 C1 1_555 1_555
N3 C8 1_555 1_555
O1 C7 1_555 1_555
N4 C7 1_555 1_555
C1 C3 1_555 1_555
N5 C3 1_555 1_555
C2 N2 1_555 1_555
C3 O2 1_555 1_555
C4 N5 1_555 1_555
H1 C4 1_555 1_555
H2 C4 1_555 1_555
C5 C2 1_555 1_555
H3 C5 1_555 1_555
C6 C1 1_555 1_555
H4 C6 1_555 1_555
C7 C2 1_555 1_555
C8 H5 1_555 1_555
H6 C8 1_555 1_555
C9 C5 1_555 1_555
H7 C9 1_555 1_555
C10 N3 1_555 1_555
H8 C10 1_555 1_555
H9 C10 1_555 1_555
C11 N4 1_555 1_555
H10 C11 1_555 1_555
H11 C11 1_555 1_555
C12 C11 1_555 1_555
H12 C12 1_555 1_555
H13 C12 1_555 1_555
C13 N1 1_555 1_555
H14 C13 1_555 1_555
H15 C13 1_555 1_555
C14 N3 1_555 1_555
H16 C14 1_555 1_555
H17 C14 1_555 1_555
H18 C14 1_555 1_555
C15 N1 1_555 1_555
H19 C15 1_555 1_555
H20 C15 1_555 1_555
H21 C15 1_555 1_555
C16 H22 1_555 1_555
H23 C16 1_555 1_555
H24 C16 1_555 1_555
O3 C16 1_555 1_555
H25 O3 1_555 1_555
H26 N4 1_555 1_555
H27 N5 1_555 1_555
N1B C12B 1_555 1_555
N2B C1B 1_555 1_555
N3B C8B 1_555 1_555
O1B C7B 1_555 1_555
N4B C7B 1_555 1_555
C1B C3B 1_555 1_555
N5B C3B 1_555 1_555
C2B N2B 1_555 1_555
C3B O2B 1_555 1_555
C4B N5B 1_555 1_555
H1B C4B 1_555 1_555
H2B C4B 1_555 1_555
C5B C2B 1_555 1_555
H3B C5B 1_555 1_555
C6B C1B 1_555 1_555
H4B C6B 1_555 1_555
C7B C2B 1_555 1_555
C8B C13 1_555 1_555
H5B C8B 1_555 1_555
H6B C8B 1_555 1_555
C9B C5B 1_555 1_555
H7B C9B 1_555 1_555
C10B N3B 1_555 1_555
H8B C10B 1_555 1_555
H9B C10B 1_555 1_555
C11B N4B 1_555 1_555
H10B C11B 1_555 1_555
H11B C11B 1_555 1_555
C12B C11B 1_555 1_555
H12B C12B 1_555 1_555
H13B C12B 1_555 1_555
C13B C8 1_555 1_555
H14B C13B 1_555 1_555
H15B C13B 1_555 1_555
C14B N3B 1_555 1_555
H16B C14B 1_555 1_555
H17B C14B 1_555 1_555
H18B C14B 1_555 1_555
C15B N1B 1_555 1_555
H19B C15B 1_555 1_555
H20B C15B 1_555 1_555
H21B C15B 1_555 1_555
H26B N4B 1_555 1_555
H27B N5B 1_555 1_555
C4 C10 1_555 1_555
C6 C9 1_555 1_555
N1B C13B 1_555 1_555
C4B C10B 1_555 1_555
C6B C9B 1_555 1_555

#END
