
#######################################################################
#
#                 Cambridge Crystallographic Data Centre
#                                CCDC 
#
#######################################################################
#
# If this CIF has been generated from an entry in the Cambridge 
# Structural Database, then it will include bibliographic, chemical, 
# crystal, experimental, refinement or atomic coordinate data resulting 
# from the CCDC's data processing and validation procedures.
#
#######################################################################

data_LODKUM
_chemical_formula_moiety         'C25 H20 N2 O1,C15 H16 O2'
_chemical_name_systematic        
"1-(5-(9-anthryl)-3-phenyl-4,5-dihydro-1H-pyrazol-1-yl)ethanone 4,4'-propane-2,2-diyldiphenol"
_symmetry_cell_setting           monoclinic
_symmetry_space_group_name_H-M   'P 21/c'
_symmetry_Int_Tables_number      14
_space_group_name_Hall           '-P 2ybc'
loop_
_symmetry_equiv_pos_site_id
_symmetry_equiv_pos_as_xyz
1 x,y,z
2 -x,1/2+y,1/2-z
3 -x,-y,-z
4 x,1/2-y,1/2+z
_cell_length_a                   11.478(2)
_cell_length_b                   15.142(3)
_cell_length_c                   19.266(4)
_cell_angle_alpha                90
_cell_angle_beta                 101.27(3)
_cell_angle_gamma                90
_cell_volume                     3283.86
_cell_formula_units_Z            4
loop_
_atom_site_label
_atom_site_type_symbol
_atom_site_fract_x
_atom_site_fract_y
_atom_site_fract_z
N1 N 0.1151(2) 0.62599(18) 0.14762(14)
C1 C -0.1644(3) 0.7419(2) 0.07255(16)
O1 O 0.0689(2) 0.61383(19) 0.03054(13)
N2 N 0.1907(2) 0.61146(18) 0.21269(15)
C2 C -0.2420(3) 0.6673(3) 0.06219(19)
H1 H -0.2160 0.6140 0.0838
C3 C -0.3536(4) 0.6722(3) 0.0212(2)
H2 H -0.4015 0.6221 0.0148
C4 C -0.3962(4) 0.7513(4) -0.0111(2)
H3 H -0.4726 0.7538 -0.0383
C5 C -0.3274(4) 0.8241(3) -0.00294(19)
H4 H -0.3570 0.8764 -0.0247
C6 C -0.2098(3) 0.8222(3) 0.03847(16)
C7 C -0.1399(3) 0.8970(3) 0.04699(18)
H5 H -0.1702 0.9489 0.0247
C8 C -0.0254(3) 0.8974(2) 0.08792(17)
C9 C 0.0441(4) 0.9754(3) 0.0956(2)
H6 H 0.0126 1.0267 0.0728
C10 C 0.1560(4) 0.9772(3) 0.1357(2)
H7 H 0.2002 1.0291 0.1408
C11 C 0.2029(3) 0.8994(3) 0.1688(2)
H8 H 0.2800 0.8997 0.1952
C12 C 0.1392(3) 0.8234(2) 0.16367(17)
H9 H 0.1730 0.7736 0.1877
C13 C 0.0212(3) 0.8178(2) 0.12213(16)
C14 C -0.0486(3) 0.7404(2) 0.11492(16)
C15 C -0.0059(3) 0.6560(2) 0.15452(18)
H10 H -0.057(3) 0.604(2) 0.1371(17)
C16 C 0.0092(3) 0.6613(2) 0.23566(18)
H11 H -0.0017 0.7214 0.2507
H12 H -0.0473 0.6231 0.2525
C17 C 0.1336(3) 0.6308(2) 0.26236(18)
C18 C 0.1918(4) 0.6250(2) 0.33729(18)
C19 C 0.1390(4) 0.6643(3) 0.3889(2)
H13 H 0.0654 0.6916 0.3761
C20 C 0.1969(6) 0.6625(4) 0.4597(2)
H14 H 0.1628 0.6898 0.4941
C21 C 0.3045(6) 0.6201(4) 0.4785(3)
H15 H 0.3429 0.6186 0.5257
C22 C 0.3545(4) 0.5807(3) 0.4284(3)
H16 H 0.4271 0.5520 0.4417
C23 C 0.2991(4) 0.5824(3) 0.3576(2)
H17 H 0.3344 0.5548 0.3238
C24 C 0.1442(3) 0.6049(2) 0.0856(2)
C25 C 0.2682(3) 0.5731(3) 0.0851(2)
H18 H 0.2758 0.5604 0.0373
H19 H 0.2836 0.5205 0.1132
H20 H 0.3242 0.6180 0.1044
O2 O 0.0659(2) 0.58992(19) -0.10553(12)
H21 H 0.0687 0.5963 -0.0630
O3 O -0.7227(2) 0.5303(2) -0.11853(18)
H22 H -0.7823 0.5603 -0.1190
C26 C -0.2273(3) 0.6911(3) -0.14709(19)
H23 H -0.2788 0.7218 -0.1240
C27 C -0.1194(3) 0.6646(3) -0.10853(19)
H24 H -0.0987 0.6770 -0.0604
C28 C -0.0418(3) 0.6191(2) -0.14235(17)
C29 C -0.0723(3) 0.6041(2) -0.21331(18)
H25 H -0.0192 0.5753 -0.2364
C30 C -0.1817(3) 0.6312(2) -0.25137(17)
H26 H -0.2010 0.6202 -0.2998
C31 C -0.2627(3) 0.6742(2) -0.21859(17)
C32 C -0.3876(3) 0.7034(3) -0.25516(18)
C33 C -0.3931(4) 0.8049(3) -0.2540(3)
H27 H -0.3745 0.8253 -0.2059
H28 H -0.4715 0.8241 -0.2756
H29 H -0.3366 0.8287 -0.2797
C34 C -0.4180(3) 0.6728(3) -0.33314(18)
H30 H -0.4961 0.6930 -0.3544
H31 H -0.4155 0.6095 -0.3350
H32 H -0.3611 0.6969 -0.3585
C35 C -0.4790(3) 0.6613(2) -0.21605(16)
C36 C -0.4720(3) 0.5720(3) -0.20209(19)
H33 H -0.4113 0.5393 -0.2153
C37 C -0.5528(3) 0.5298(3) -0.1690(2)
H34 H -0.5460 0.4695 -0.1600
C38 C -0.6432(3) 0.5768(3) -0.1492(2)
C39 C -0.6516(3) 0.6648(2) -0.16181(18)
H35 H -0.7123 0.6971 -0.1482
C40 C -0.5701(3) 0.7068(2) -0.19481(17)
H36 H -0.5770 0.7673 -0.2029
loop_
_geom_bond_atom_site_label_1
_geom_bond_atom_site_label_2
_geom_bond_site_symmetry_1
_geom_bond_site_symmetry_2
N1 N2 1_555 1_555
C1 C2 1_555 1_555
O1 C24 1_555 1_555
N2 C17 1_555 1_555
C2 H1 1_555 1_555
C3 C2 1_555 1_555
H2 C3 1_555 1_555
C4 C3 1_555 1_555
H3 C4 1_555 1_555
C5 C4 1_555 1_555
H4 C5 1_555 1_555
C6 C1 1_555 1_555
C7 C6 1_555 1_555
H5 C7 1_555 1_555
C8 C7 1_555 1_555
C9 C8 1_555 1_555
H6 C9 1_555 1_555
C10 C9 1_555 1_555
H7 C10 1_555 1_555
C11 C10 1_555 1_555
H8 C11 1_555 1_555
C12 C11 1_555 1_555
H9 C12 1_555 1_555
C13 C8 1_555 1_555
C14 C1 1_555 1_555
C15 N1 1_555 1_555
H10 C15 1_555 1_555
C16 C15 1_555 1_555
H11 C16 1_555 1_555
H12 C16 1_555 1_555
C17 C16 1_555 1_555
C18 C17 1_555 1_555
C19 C18 1_555 1_555
H13 C19 1_555 1_555
C20 C19 1_555 1_555
H14 C20 1_555 1_555
C21 C20 1_555 1_555
H15 C21 1_555 1_555
C22 C21 1_555 1_555
H16 C22 1_555 1_555
C23 C18 1_555 1_555
H17 C23 1_555 1_555
C24 N1 1_555 1_555
C25 C24 1_555 1_555
H18 C25 1_555 1_555
H19 C25 1_555 1_555
H20 C25 1_555 1_555
O2 H21 1_555 1_555
O3 H22 1_555 1_555
C26 H23 1_555 1_555
C27 C26 1_555 1_555
H24 C27 1_555 1_555
C28 O2 1_555 1_555
C29 C28 1_555 1_555
H25 C29 1_555 1_555
C30 C29 1_555 1_555
H26 C30 1_555 1_555
C31 C26 1_555 1_555
C32 C31 1_555 1_555
C33 C32 1_555 1_555
H27 C33 1_555 1_555
H28 C33 1_555 1_555
H29 C33 1_555 1_555
C34 C32 1_555 1_555
H30 C34 1_555 1_555
H31 C34 1_555 1_555
H32 C34 1_555 1_555
C35 C32 1_555 1_555
C36 C35 1_555 1_555
H33 C36 1_555 1_555
C37 C36 1_555 1_555
H34 C37 1_555 1_555
C38 O3 1_555 1_555
C39 C38 1_555 1_555
H35 C39 1_555 1_555
C40 C35 1_555 1_555
H36 C40 1_555 1_555
C5 C6 1_555 1_555
C12 C13 1_555 1_555
C13 C14 1_555 1_555
C14 C15 1_555 1_555
C22 C23 1_555 1_555
C27 C28 1_555 1_555
C30 C31 1_555 1_555
C37 C38 1_555 1_555
C39 C40 1_555 1_555

#END
