
#######################################################################
#
#                 Cambridge Crystallographic Data Centre
#                                CCDC 
#
#######################################################################
#
# If this CIF has been generated from an entry in the Cambridge 
# Structural Database, then it will include bibliographic, chemical, 
# crystal, experimental, refinement or atomic coordinate data resulting 
# from the CCDC's data processing and validation procedures.
#
#######################################################################

data_LODLAT
_chemical_formula_moiety         'C25 H20 N2 O1,C1 H1 Cl3'
_chemical_name_systematic        
'1-(5-(9-anthryl)-3-phenyl-4,5-dihydro-1H-pyrazol-1-yl)ethanone chloroform solvate'
_symmetry_cell_setting           monoclinic
_symmetry_space_group_name_H-M   'P 21/n'
_symmetry_Int_Tables_number      14
_space_group_name_Hall           '-P 2yn'
loop_
_symmetry_equiv_pos_site_id
_symmetry_equiv_pos_as_xyz
1 x,y,z
2 1/2-x,1/2+y,1/2-z
3 -x,-y,-z
4 1/2+x,1/2-y,1/2+z
_cell_length_a                   13.383(3)
_cell_length_b                   9.766(2)
_cell_length_c                   18.670(4)
_cell_angle_alpha                90
_cell_angle_beta                 100.97(3)
_cell_angle_gamma                90
_cell_volume                     2395.55
_cell_formula_units_Z            4
loop_
_atom_site_label
_atom_site_type_symbol
_atom_site_fract_x
_atom_site_fract_y
_atom_site_fract_z
O1 O 0.58186(19) -0.2277(3) 0.25712(15)
N1 N 0.6276(2) -0.0795(3) 0.09465(15)
C1 C 0.7299(3) 0.0437(3) 0.35018(18)
N2 N 0.6255(2) -0.1007(3) 0.16861(14)
C2 C 0.8106(3) -0.0587(4) 0.3743(2)
H1 H 0.8293 -0.1176 0.3399
C3 C 0.8566(3) -0.0691(5) 0.4422(2)
H2 H 0.9084 -0.1331 0.4547
C4 C 0.8295(4) 0.0151(5) 0.4978(2)
H3 H 0.8616 0.0044 0.5463
C5 C 0.7564(3) 0.1104(5) 0.4790(2)
H4 H 0.7394 0.1662 0.5153
C6 C 0.7040(3) 0.1293(4) 0.4055(2)
C7 C 0.6304(3) 0.2250(4) 0.3890(2)
H5 H 0.6157 0.2801 0.4263
C8 C 0.5754(3) 0.2446(4) 0.3179(2)
C9 C 0.5003(3) 0.3451(4) 0.3025(2)
H6 H 0.4882 0.4017 0.3400
C10 C 0.4429(3) 0.3632(4) 0.2325(3)
H7 H 0.3916 0.4287 0.2230
C11 C 0.4662(3) 0.2762(4) 0.1750(3)
H8 H 0.4300 0.2853 0.1276
C12 C 0.5424(3) 0.1796(4) 0.1912(2)
H9 H 0.5562 0.1253 0.1534
C13 C 0.5996(3) 0.1587(4) 0.26042(18)
C14 C 0.6764(2) 0.0580(3) 0.27825(18)
C15 C 0.7065(2) -0.0277(3) 0.21526(17)
H10 H 0.7565 -0.0960 0.2378
C16 C 0.7565(3) 0.0566(4) 0.16197(17)
H11 H 0.7454 0.1540 0.1668
H12 H 0.8290 0.0386 0.1683
C17 C 0.6994(2) 0.0016(3) 0.09069(19)
C18 C 0.5711(3) -0.2045(4) 0.1921(2)
C19 C 0.5042(3) -0.2842(4) 0.1353(2)
H13 H 0.4714 -0.3553 0.1577
H14 H 0.5441 -0.3244 0.1031
H15 H 0.4537 -0.2249 0.1080
C20 C 0.7221(3) 0.0474(4) 0.0200(2)
C21 C 0.6707(3) -0.0079(4) -0.0440(2)
H16 H 0.6198 -0.0720 -0.0424
C22 C 0.6919(3) 0.0283(5) -0.1101(2)
H17 H 0.6563 -0.0115 -0.1527
C23 C 0.7649(3) 0.1222(5) -0.1132(3)
H18 H 0.7783 0.1496 -0.1581
C24 C 0.8194(4) 0.1772(6) -0.0500(3)
H19 H 0.8728 0.2373 -0.0518
C25 C 0.7952(3) 0.1436(5) 0.0148(2)
H20 H 0.8289 0.1867 0.0570
Cl1 Cl 0.3490(2) -0.2767(2) 0.3397(2)
Cl2 Cl 0.34743(15) 0.0065(2) 0.31881(10)
Cl3 Cl 0.48767(15) -0.1000(3) 0.43049(12)
C26 C 0.4236(4) -0.1346(7) 0.3439(3)
H21 H 0.4721 -0.1449 0.3110
loop_
_geom_bond_atom_site_label_1
_geom_bond_atom_site_label_2
_geom_bond_site_symmetry_1
_geom_bond_site_symmetry_2
O1 C18 1_555 1_555
N1 N2 1_555 1_555
C1 C2 1_555 1_555
N2 C15 1_555 1_555
C2 H1 1_555 1_555
C3 C2 1_555 1_555
H2 C3 1_555 1_555
C4 C3 1_555 1_555
H3 C4 1_555 1_555
C5 C4 1_555 1_555
H4 C5 1_555 1_555
C6 C1 1_555 1_555
C7 C6 1_555 1_555
H5 C7 1_555 1_555
C8 C7 1_555 1_555
C9 C8 1_555 1_555
H6 C9 1_555 1_555
C10 C9 1_555 1_555
H7 C10 1_555 1_555
C11 C10 1_555 1_555
H8 C11 1_555 1_555
C12 C11 1_555 1_555
H9 C12 1_555 1_555
C13 C8 1_555 1_555
C14 C1 1_555 1_555
C15 C14 1_555 1_555
H10 C15 1_555 1_555
C16 C15 1_555 1_555
H11 C16 1_555 1_555
H12 C16 1_555 1_555
C17 N1 1_555 1_555
C18 N2 1_555 1_555
C19 C18 1_555 1_555
H13 C19 1_555 1_555
H14 C19 1_555 1_555
H15 C19 1_555 1_555
C20 C17 1_555 1_555
C21 C20 1_555 1_555
H16 C21 1_555 1_555
C22 C21 1_555 1_555
H17 C22 1_555 1_555
C23 C22 1_555 1_555
H18 C23 1_555 1_555
C24 C23 1_555 1_555
H19 C24 1_555 1_555
C25 C20 1_555 1_555
H20 C25 1_555 1_555
Cl1 C26 1_555 1_555
Cl2 C26 1_555 1_555
Cl3 C26 1_555 1_555
C26 H21 1_555 1_555
C5 C6 1_555 1_555
C12 C13 1_555 1_555
C13 C14 1_555 1_555
C16 C17 1_555 1_555
C24 C25 1_555 1_555

#END
