
#######################################################################
#
#                 Cambridge Crystallographic Data Centre
#                                CCDC 
#
#######################################################################
#
# If this CIF has been generated from an entry in the Cambridge 
# Structural Database, then it will include bibliographic, chemical, 
# crystal, experimental, refinement or atomic coordinate data resulting 
# from the CCDC's data processing and validation procedures.
#
#######################################################################

data_LODNIC
_chemical_formula_moiety         'C50 Cl10'
_chemical_name_systematic        Decachloro-C54fullerene
_symmetry_cell_setting           monoclinic
_symmetry_space_group_name_H-M   'C 2/c'
_symmetry_Int_Tables_number      15
_space_group_name_Hall           '-C 2yn'
loop_
_symmetry_equiv_pos_site_id
_symmetry_equiv_pos_as_xyz
1 x,y,z
2 1/2+x,1/2+y,z
3 -x,y,1/2-z
4 1/2-x,1/2+y,1/2-z
5 -x,-y,-z
6 1/2-x,1/2-y,-z
7 x,-y,1/2+z
8 1/2+x,1/2-y,1/2+z
_cell_length_a                   13.665(3)
_cell_length_b                   17.852(4)
_cell_length_c                   12.977(3)
_cell_angle_alpha                90
_cell_angle_beta                 93.616(4)
_cell_angle_gamma                90
_cell_volume                     3159.41
_exptl_crystal_colour            red
_cell_formula_units_Z            4
_exptl_crystal_recrystallization_method toluene/chloroform
loop_
_atom_site_label
_atom_site_type_symbol
_atom_site_fract_x
_atom_site_fract_y
_atom_site_fract_z
Cl1 Cl 0.3483(4) 0.5268(3) 0.6557(3)
Cl2 Cl 0.5466(2) 0.4451(2) 0.6105(3)
Cl3 Cl 0.6475(3) 0.2888(2) 0.5136(3)
Cl4 Cl 0.5849(3) 0.10637(18) 0.4068(3)
Cl5 Cl 0.4115(3) -0.00236(18) 0.3479(3)
C1 C 0.3363(3) 0.43549(14) 0.6062(2)
C2 C 0.4376(2) 0.39537(17) 0.5809(2)
C3 C 0.5223(2) 0.2581(2) 0.4995(3)
C4 C 0.49690(19) 0.17583(18) 0.4531(2)
C5 C 0.3356(3) 0.07208(18) 0.3978(3)
C6 C 0.4222(3) 0.3754(3) 0.4681(4)
C7 C 0.4623(2) 0.3109(2) 0.4288(3)
C8 C 0.4267(9) 0.1918(3) 0.3627(9)
C9 C 0.3494(3) 0.14321(19) 0.3364(2)
C10 C 0.3204(3) 0.3715(3) 0.6688(4)
C11 C 0.4069(3) 0.3373(3) 0.6463(4)
C12 C 0.4755(2) 0.22827(19) 0.5817(3)
C13 C 0.4545(6) 0.1585(3) 0.5413(7)
C14 C 0.3256(3) 0.07567(16) 0.4981(3)
C15 C 0.2756(3) 0.4340(3) 0.5055(4)
C16 C 0.32991(18) 0.40178(13) 0.42595(19)
C17 C 0.41174(17) 0.27003(14) 0.34714(18)
C18 C 0.25725(18) 0.17036(13) 0.29434(17)
C19 C 0.41980(17) 0.25933(13) 0.66018(18)
C20 C 0.37488(18) 0.11644(12) 0.57993(17)
C21 C 0.3227(3) 0.14403(15) 0.66215(18)
C22 C 0.34534(19) 0.2170(2) 0.70337(19)
C23 C 0.2448(3) 0.24776(15) 0.27360(18)
C24 C 0.32287(18) 0.2983(2) 0.30054(19)
C25 C 0.2807(3) 0.36509(15) 0.34024(18)
Cl1E Cl 0.1517(4) -0.0268(3) 0.3443(3)
Cl2E Cl -0.0466(2) 0.0549(2) 0.3895(3)
Cl3E Cl -0.1475(3) 0.2112(2) 0.4864(3)
Cl4E Cl -0.0849(3) 0.39363(18) 0.5932(3)
Cl5E Cl 0.0885(3) 0.50236(18) 0.6521(3)
C1E C 0.1637(3) 0.06451(14) 0.3938(2)
C2E C 0.0624(2) 0.10463(17) 0.4191(2)
C3E C -0.0223(2) 0.2419(2) 0.5005(3)
C4E C 0.00310(19) 0.32417(18) 0.5469(2)
C5E C 0.1644(3) 0.42792(18) 0.6022(3)
C6E C 0.0778(3) 0.1246(3) 0.5319(4)
C7E C 0.0377(2) 0.1891(2) 0.5712(3)
C8E C 0.0733(9) 0.3082(3) 0.6373(9)
C9E C 0.1506(3) 0.35679(19) 0.6636(2)
C10E C 0.1796(3) 0.1285(3) 0.3312(4)
C11E C 0.0931(3) 0.1627(3) 0.3537(4)
C12E C 0.0245(2) 0.27173(19) 0.4183(3)
C13E C 0.0455(6) 0.3415(3) 0.4587(7)
C14E C 0.1744(3) 0.42433(16) 0.5019(3)
C15E C 0.2244(3) 0.0660(3) 0.4945(4)
C16E C 0.17009(18) 0.09822(13) 0.57405(19)
C17E C 0.08826(17) 0.22997(14) 0.65286(18)
C18E C 0.24275(18) 0.32964(13) 0.70566(17)
C19E C 0.08020(17) 0.24067(13) 0.33982(18)
C20E C 0.12512(18) 0.38356(12) 0.42007(17)
C21E C 0.1773(3) 0.35597(15) 0.33785(18)
C22E C 0.15466(19) 0.2830(2) 0.29663(19)
C23E C 0.2552(3) 0.25224(15) 0.72640(18)
C24E C 0.17713(18) 0.2017(2) 0.69946(19)
C25E C 0.2193(3) 0.13491(15) 0.65976(18)
Cl6? Cl 0.1739(5) -0.0277(3) 0.3444(4)
Cl7? Cl -0.05060(14) 0.06091(18) 0.3975(3)
Cl8? Cl -0.1441(2) 0.21412(16) 0.4954(3)
Cl9? Cl -0.1017(3) 0.37695(19) 0.5800(3)
Cl10? Cl 0.09532(18) 0.50616(13) 0.65290(16)
C26? C 0.2810(3) 0.43855(14) 0.6047(2)
C27? C 0.4665(2) 0.36513(17) 0.5582(2)
C28? C 0.5129(2) 0.29147(19) 0.5129(3)
C29? C 0.4660(2) 0.13966(17) 0.4286(2)
C30? C 0.3789(3) 0.08357(19) 0.3984(3)
C31? C 0.3060(3) 0.4239(3) 0.4936(4)
C32? C 0.3924(3) 0.3909(2) 0.4707(4)
C33? C 0.4608(2) 0.28110(19) 0.4070(2)
C34? C 0.4369(9) 0.2116(3) 0.3670(9)
C35? C 0.3106(3) 0.12806(18) 0.3238(2)
C36? C 0.2104(4) 0.1182(3) 0.3211(4)
C37? C 0.0639(3) 0.1773(3) 0.3602(4)
C38? C 0.0242(2) 0.24206(19) 0.3973(3)
C39? C 0.0615(5) 0.3605(3) 0.4627(7)
C40? C 0.1359(2) 0.40988(18) 0.4895(2)
C41? C 0.2230(3) 0.36924(14) 0.33953(18)
C42? C 0.14515(18) 0.31844(19) 0.31252(19)
C43? C 0.1871(3) 0.25150(15) 0.27295(18)
C44? C 0.2907(3) 0.26063(15) 0.27566(18)
C45? C 0.3133(2) 0.3337(2) 0.3166(2)
C46? C 0.21930(18) 0.41284(12) 0.42991(17)
C47? C 0.39675(17) 0.34284(13) 0.38471(18)
C48? C 0.35195(19) 0.19959(13) 0.30421(18)
C49? C 0.14749(19) 0.18100(13) 0.29911(17)
C50? C 0.06548(16) 0.31323(13) 0.37674(18)
loop_
_geom_bond_atom_site_label_1
_geom_bond_atom_site_label_2
_geom_bond_site_symmetry_1
_geom_bond_site_symmetry_2
Cl1 C1 1_555 1_555
Cl2 C2 1_555 1_555
Cl3 C3 1_555 1_555
Cl4 C4 1_555 1_555
Cl5 C5 1_555 1_555
C1 C2 1_555 1_555
C2 C6 1_555 1_555
C3 C4 1_555 1_555
C4 C8 1_555 1_555
C5 C9 1_555 1_555
C6 C7 1_555 1_555
C7 C3 1_555 1_555
C8 C9 1_555 1_555
C9 C18 1_555 1_555
C10 C1 1_555 1_555
C11 C2 1_555 1_555
C12 C3 1_555 1_555
C13 C4 1_555 1_555
C14 C5 1_555 1_555
C15 C1 1_555 1_555
C16 C6 1_555 1_555
C17 C7 1_555 1_555
C18 C23 1_555 1_555
C19 C11 1_555 1_555
C20 C13 1_555 1_555
C21 C20 1_555 1_555
C22 C19 1_555 1_555
C23 C24 1_555 1_555
C24 C17 1_555 1_555
C25 C16 1_555 1_555
Cl1E C1E 1_555 1_555
Cl2E C2E 1_555 1_555
Cl3E C3E 1_555 1_555
Cl4E C4E 1_555 1_555
Cl5E C5E 1_555 1_555
C1E C2E 1_555 1_555
C2E C6E 1_555 1_555
C3E C4E 1_555 1_555
C4E C8E 1_555 1_555
C5E C9E 1_555 1_555
C6E C7E 1_555 1_555
C7E C3E 1_555 1_555
C8E C9E 1_555 1_555
C9E C18E 1_555 1_555
C10E C18 1_555 1_555
C11E C2E 1_555 1_555
C12E C3E 1_555 1_555
C13E C4E 1_555 1_555
C14E C15 1_555 1_555
C15E C14 1_555 1_555
C16E C6E 1_555 1_555
C17E C7E 1_555 1_555
C18E C10 1_555 1_555
C19E C11E 1_555 1_555
C20E C13E 1_555 1_555
C21E C25 1_555 1_555
C22E C23 1_555 1_555
C23E C22 1_555 1_555
C24E C17E 1_555 1_555
C25E C21 1_555 1_555
C8 C17 1_555 1_555
C10 C11 1_555 1_555
C12 C13 1_555 1_555
C12 C19 1_555 1_555
C14 C20 1_555 1_555
C15 C16 1_555 1_555
C21 C22 1_555 1_555
C24 C25 1_555 1_555
C1E C10E 1_555 1_555
C1E C15E 1_555 1_555
C5E C14E 1_555 1_555
C8E C17E 1_555 1_555
C10E C11E 1_555 1_555
C12E C13E 1_555 1_555
C12E C19E 1_555 1_555
C14E C20E 1_555 1_555
C15E C16E 1_555 1_555
C16E C25E 1_555 1_555
C18E C23E 1_555 1_555
C19E C22E 1_555 1_555
C20E C21E 1_555 1_555
C21E C22E 1_555 1_555
C23E C24E 1_555 1_555
C24E C25E 1_555 1_555

#END
