
#######################################################################
#
#                 Cambridge Crystallographic Data Centre
#                                CCDC 
#
#######################################################################
#
# If this CIF has been generated from an entry in the Cambridge 
# Structural Database, then it will include bibliographic, chemical, 
# crystal, experimental, refinement or atomic coordinate data resulting 
# from the CCDC's data processing and validation procedures.
#
#######################################################################

data_LODPIF
_chemical_formula_moiety         'C10 H18 O2 Si1'
_chemical_name_systematic        
'2,3-Dimethyl-5-(trimethylsilyl)pent-4-ynoic acid'
_symmetry_cell_setting           monoclinic
_symmetry_space_group_name_H-M   'P 21/c'
_symmetry_Int_Tables_number      14
_space_group_name_Hall           '-P 2ybc'
loop_
_symmetry_equiv_pos_site_id
_symmetry_equiv_pos_as_xyz
1 x,y,z
2 -x,1/2+y,1/2-z
3 -x,-y,-z
4 x,1/2-y,1/2+z
_cell_length_a                   6.4270(7)
_cell_length_b                   24.105(2)
_cell_length_c                   8.3807(8)
_cell_angle_alpha                90
_cell_angle_beta                 98.770(8)
_cell_angle_gamma                90
_cell_volume                     1283.18
_exptl_crystal_colour            colorless
_exptl_crystal_description       platelet
_cell_formula_units_Z            4
loop_
_atom_site_label
_atom_site_type_symbol
_atom_site_fract_x
_atom_site_fract_y
_atom_site_fract_z
Si1 Si 0.9850(3) 0.18011(6) 0.25107(17)
O1 O 0.6448(10) 0.0527(2) 0.9622(7)
O2 O 0.5006(9) -0.0082(2) 0.7851(6)
C1 C 1.1359(11) 0.1304(3) 0.1464(8)
H1 H 1.1765 0.1478 0.0528
H2 H 1.0501 0.0986 0.1139
H3 H 1.2595 0.1190 0.2180
C2 C 1.1550(13) 0.2399(3) 0.3196(7)
H4 H 1.2764 0.2272 0.3916
H5 H 1.0778 0.2658 0.3750
H6 H 1.1992 0.2577 0.2280
C3 C 0.7436(11) 0.2026(3) 0.1201(9)
H7 H 0.7789 0.2291 0.0431
H8 H 0.6495 0.2193 0.1848
H9 H 0.6766 0.1711 0.0641
C4 C 0.9012(12) 0.1466(3) 0.4257(7)
C5 C 0.708(2) 0.1116(5) 0.6735(16)
H10 H 0.7750 0.1299 0.7727
C6 C 0.468(7) 0.129(2) 0.638(4)
H11 H 0.3956 0.1058 0.5547
H12 H 0.4581 0.1672 0.6020
H13 H 0.4062 0.1255 0.7341
C7 C 0.740(2) 0.0523(5) 0.6897(16)
H14 H 0.6822 0.0345 0.5875
C8 C 0.990(5) 0.0337(16) 0.738(2)
H15 H 1.0765 0.0565 0.6808
H16 H 1.0062 -0.0044 0.7098
H17 H 1.0332 0.0383 0.8523
C9 C 0.6074(14) 0.0343(4) 0.8220(10)
C10 C 0.805(2) 0.1326(5) 0.5361(17)
H18 H 0.458(11) -0.019(3) 0.873(5)
C11? C 0.842(4) 0.0850(8) 0.690(3)
H19? H 0.8963 0.1045 0.7905
C12? C 0.616(4) 0.0772(9) 0.664(3)
H20? H 0.5647 0.0596 0.5600
C13? C 0.937(9) 0.031(3) 0.673(4)
H21? H 0.9910 0.0162 0.7779
H22? H 1.0507 0.0346 0.6112
H23? H 0.8335 0.0059 0.6187
C14? C 0.509(12) 0.130(4) 0.687(8)
H24? H 0.3894 0.1233 0.7406
H25? H 0.4624 0.1470 0.5840
H26? H 0.6047 0.1548 0.7518
C15? C 0.888(4) 0.1135(9) 0.537(3)
loop_
_geom_bond_atom_site_label_1
_geom_bond_atom_site_label_2
_geom_bond_site_symmetry_1
_geom_bond_site_symmetry_2
Si1 C1 1_555 1_555
O1 C9 1_555 1_555
O2 C9 1_555 1_555
C1 H1 1_555 1_555
H2 C1 1_555 1_555
H3 C1 1_555 1_555
C2 Si1 1_555 1_555
H4 C2 1_555 1_555
H5 C2 1_555 1_555
H6 C2 1_555 1_555
C3 Si1 1_555 1_555
H7 C3 1_555 1_555
H8 C3 1_555 1_555
H9 C3 1_555 1_555
C4 Si1 1_555 1_555
C5 H10 1_555 1_555
C6 C5 1_555 1_555
H11 C6 1_555 1_555
H12 C6 1_555 1_555
H13 C6 1_555 1_555
C7 C5 1_555 1_555
H14 C7 1_555 1_555
C8 C7 1_555 1_555
H15 C8 1_555 1_555
H16 C8 1_555 1_555
H17 C8 1_555 1_555
C9 C7 1_555 1_555
C10 C4 1_555 1_555
H18 O2 1_555 1_555
C5 C10 1_555 1_555

#END
