
#######################################################################
#
#                 Cambridge Crystallographic Data Centre
#                                CCDC 
#
#######################################################################
#
# If this CIF has been generated from an entry in the Cambridge 
# Structural Database, then it will include bibliographic, chemical, 
# crystal, experimental, refinement or atomic coordinate data resulting 
# from the CCDC's data processing and validation procedures.
#
#######################################################################

data_LODRON01
_chemical_formula_moiety         'C21 H18 O2 S1'
_chemical_name_systematic        '1,2-Diphenylvinyl 4-methylphenyl sulfone'
_symmetry_cell_setting           monoclinic
_symmetry_space_group_name_H-M   'P 21/n'
_symmetry_Int_Tables_number      14
_space_group_name_Hall           '-P 2yn'
loop_
_symmetry_equiv_pos_site_id
_symmetry_equiv_pos_as_xyz
1 x,y,z
2 1/2-x,1/2+y,1/2-z
3 -x,-y,-z
4 1/2+x,1/2-y,1/2+z
_cell_length_a                   12.3084(18)
_cell_length_b                   5.8277(9)
_cell_length_c                   24.345(4)
_cell_angle_alpha                90
_cell_angle_beta                 100.373(2)
_cell_angle_gamma                90
_cell_volume                     1717.72
_exptl_crystal_colour            colorless
_exptl_crystal_description       block
_cell_formula_units_Z            4
loop_
_atom_site_label
_atom_site_type_symbol
_atom_site_fract_x
_atom_site_fract_y
_atom_site_fract_z
S1 S 0.34462(4) 0.38702(10) 0.06265(2)
O1 O 0.35999(13) 0.4386(3) 0.00686(6)
O2 O 0.35101(14) 0.1515(3) 0.08081(8)
C1 C 0.65060(17) 0.8087(4) 0.17045(9)
H1 H 0.6338 0.6828 0.1909
C2 C 0.73271(19) 0.9582(4) 0.19376(9)
H2 H 0.7722 0.9291 0.2294
C3 C 0.7570(2) 1.1470(4) 0.16570(11)
H3 H 0.8113 1.2488 0.1823
C4 C 0.7001(2) 1.1867(4) 0.11212(11)
H4 H 0.7158 1.3162 0.0926
C5 C 0.62065(18) 1.0352(4) 0.08783(9)
H5 H 0.5848 1.0606 0.0513
C6 C 0.59257(15) 0.8447(3) 0.11650(8)
C7 C 0.50531(16) 0.6924(4) 0.08837(8)
H6 H 0.4943 0.6940 0.0496
C8 C 0.43959(16) 0.5521(3) 0.11052(8)
C9 C 0.43013(16) 0.5220(3) 0.17002(8)
C10 C 0.46789(19) 0.3263(4) 0.19947(10)
H7 H 0.5011 0.2103 0.1821
C11 C 0.4566(2) 0.3022(4) 0.25449(10)
H8 H 0.4829 0.1706 0.2741
C12 C 0.4073(2) 0.4691(5) 0.28044(10)
H9 H 0.4000 0.4514 0.3176
C13 C 0.3685(2) 0.6630(5) 0.25182(10)
H10 H 0.3344 0.7766 0.2695
C14 C 0.37953(19) 0.6911(4) 0.19662(9)
H11 H 0.3530 0.8234 0.1774
C15 C 0.21401(16) 0.4923(3) 0.07054(8)
C16 C 0.1468(2) 0.3643(4) 0.09758(10)
H12 H 0.1711 0.2237 0.1132
C17 C 0.0433(2) 0.4436(5) 0.10161(11)
H13 H -0.0021 0.3547 0.1198
C18 C 0.00609(18) 0.6491(5) 0.07959(10)
C19 C 0.0762(2) 0.7797(4) 0.05379(10)
H14 H 0.0530 0.9230 0.0395
C20 C 0.17957(19) 0.7019(4) 0.04892(10)
H15 H 0.2255 0.7909 0.0311
C21 C -0.1080(2) 0.7371(6) 0.08359(13)
H16 H -0.1620 0.6613 0.0562
H17 H -0.1113 0.8995 0.0769
H18 H -0.1232 0.7062 0.1202
loop_
_geom_bond_atom_site_label_1
_geom_bond_atom_site_label_2
_geom_bond_site_symmetry_1
_geom_bond_site_symmetry_2
S1 O1 1_555 1_555
O2 S1 1_555 1_555
C1 H1 1_555 1_555
C2 C1 1_555 1_555
H2 C2 1_555 1_555
C3 C2 1_555 1_555
H3 C3 1_555 1_555
C4 C3 1_555 1_555
H4 C4 1_555 1_555
C5 C4 1_555 1_555
H5 C5 1_555 1_555
C6 C1 1_555 1_555
C7 C6 1_555 1_555
H6 C7 1_555 1_555
C8 S1 1_555 1_555
C9 C8 1_555 1_555
C10 C9 1_555 1_555
H7 C10 1_555 1_555
C11 C10 1_555 1_555
H8 C11 1_555 1_555
C12 C11 1_555 1_555
H9 C12 1_555 1_555
C13 C12 1_555 1_555
H10 C13 1_555 1_555
C14 C9 1_555 1_555
H11 C14 1_555 1_555
C15 S1 1_555 1_555
C16 C15 1_555 1_555
H12 C16 1_555 1_555
C17 C16 1_555 1_555
H13 C17 1_555 1_555
C18 C17 1_555 1_555
C19 C18 1_555 1_555
H14 C19 1_555 1_555
C20 C15 1_555 1_555
H15 C20 1_555 1_555
C21 C18 1_555 1_555
H16 C21 1_555 1_555
H17 C21 1_555 1_555
H18 C21 1_555 1_555
C5 C6 1_555 1_555
C7 C8 1_555 1_555
C13 C14 1_555 1_555
C19 C20 1_555 1_555

#END
