
#######################################################################
#
#                 Cambridge Crystallographic Data Centre
#                                CCDC 
#
#######################################################################
#
# If this CIF has been generated from an entry in the Cambridge 
# Structural Database, then it will include bibliographic, chemical, 
# crystal, experimental, refinement or atomic coordinate data resulting 
# from the CCDC's data processing and validation procedures.
#
#######################################################################

data_LODRON
_chemical_formula_moiety         'C21 H18 O2 S1'
_chemical_name_systematic        '1,2-Diphenylvinyl 4-methylphenyl sulfone'
_symmetry_cell_setting           monoclinic
_symmetry_space_group_name_H-M   'P 21/n'
_symmetry_Int_Tables_number      14
_space_group_name_Hall           '-P 2yn'
loop_
_symmetry_equiv_pos_site_id
_symmetry_equiv_pos_as_xyz
1 x,y,z
2 1/2-x,1/2+y,1/2-z
3 -x,-y,-z
4 1/2+x,1/2-y,1/2+z
_cell_length_a                   12.3185(4)
_cell_length_b                   5.8327(2)
_cell_length_c                   24.3654(8)
_cell_angle_alpha                90
_cell_angle_beta                 100.361(2)
_cell_angle_gamma                90
_cell_volume                     1722.11
_exptl_crystal_colour            colorless
_exptl_crystal_description       Columnar
_cell_formula_units_Z            4
loop_
_atom_site_label
_atom_site_type_symbol
_atom_site_fract_x
_atom_site_fract_y
_atom_site_fract_z
S1 S 0.34463(4) 0.61325(11) 0.06270(3)
O1 O 0.35981(15) 0.5622(3) 0.00682(7)
O2 O 0.35075(14) 0.8483(3) 0.08071(9)
C1 C 0.00620(19) 0.3506(5) 0.07948(11)
C2 C 0.0762(2) 0.2207(4) 0.05394(11)
H1 H 0.0530 0.0773 0.0398
C3 C 0.1796(2) 0.2975(4) 0.04883(11)
H2 H 0.2254 0.2086 0.0309
C4 C 0.21398(17) 0.5076(4) 0.07070(8)
C5 C 0.43909(17) 0.4481(4) 0.11058(9)
C6 C 0.50514(16) 0.3069(4) 0.08826(9)
H3 H 0.4941 0.3048 0.0495
C7 C 0.59244(16) 0.1550(3) 0.11664(9)
C8 C 0.62095(19) -0.0357(4) 0.08776(10)
H4 H 0.5853 -0.0609 0.0513
C9 C 0.7005(2) -0.1867(4) 0.11215(12)
H5 H 0.7164 -0.3158 0.0926
C10 C 0.7570(2) -0.1479(4) 0.16555(11)
H6 H 0.8111 -0.2501 0.1820
C11 C 0.7328(2) 0.0420(5) 0.19408(10)
H7 H 0.7722 0.0707 0.2297
C12 C 0.65043(18) 0.1918(4) 0.17052(9)
H8 H 0.6336 0.3180 0.1908
C13 C 0.42987(17) 0.4784(3) 0.17001(9)
C14 C 0.3794(2) 0.3082(4) 0.19677(10)
H9 H 0.3530 0.1760 0.1775
C15 C 0.3684(2) 0.3357(5) 0.25204(11)
H10 H 0.3350 0.2217 0.2698
C16 C 0.4070(2) 0.5315(5) 0.28060(11)
H11 H 0.3992 0.5503 0.3176
C17 C 0.4568(2) 0.6978(4) 0.25448(11)
H12 H 0.4837 0.8288 0.2741
C18 C 0.4676(2) 0.6745(4) 0.19950(10)
H13 H 0.5003 0.7908 0.1821
C19 C 0.1468(2) 0.6368(4) 0.09770(11)
H14 H 0.1710 0.7775 0.1132
C20 C 0.0433(2) 0.5570(5) 0.10164(11)
H15 H -0.0022 0.6455 0.1198
C21 C -0.1081(2) 0.2631(6) 0.08383(14)
H16 H -0.1211 0.2862 0.1211
H17 H -0.1129 0.1025 0.0751
H18 H -0.1625 0.3451 0.0580
loop_
_geom_bond_atom_site_label_1
_geom_bond_atom_site_label_2
_geom_bond_site_symmetry_1
_geom_bond_site_symmetry_2
S1 O1 1_555 1_555
O2 S1 1_555 1_555
C1 C2 1_555 1_555
C2 H1 1_555 1_555
C3 C2 1_555 1_555
H2 C3 1_555 1_555
C4 S1 1_555 1_555
C5 S1 1_555 1_555
C6 C5 1_555 1_555
H3 C6 1_555 1_555
C7 C6 1_555 1_555
C8 C7 1_555 1_555
H4 C8 1_555 1_555
C9 C8 1_555 1_555
H5 C9 1_555 1_555
C10 C9 1_555 1_555
H6 C10 1_555 1_555
C11 C10 1_555 1_555
H7 C11 1_555 1_555
C12 C7 1_555 1_555
H8 C12 1_555 1_555
C13 C5 1_555 1_555
C14 C13 1_555 1_555
H9 C14 1_555 1_555
C15 C14 1_555 1_555
H10 C15 1_555 1_555
C16 C15 1_555 1_555
H11 C16 1_555 1_555
C17 C16 1_555 1_555
H12 C17 1_555 1_555
C18 C13 1_555 1_555
H13 C18 1_555 1_555
C19 C4 1_555 1_555
H14 C19 1_555 1_555
C20 C1 1_555 1_555
H15 C20 1_555 1_555
C21 C1 1_555 1_555
H16 C21 1_555 1_555
H17 C21 1_555 1_555
H18 C21 1_555 1_555
C3 C4 1_555 1_555
C11 C12 1_555 1_555
C17 C18 1_555 1_555
C19 C20 1_555 1_555

#END
