
#######################################################################
#
#                 Cambridge Crystallographic Data Centre
#                                CCDC 
#
#######################################################################
#
# If this CIF has been generated from an entry in the Cambridge 
# Structural Database, then it will include bibliographic, chemical, 
# crystal, experimental, refinement or atomic coordinate data resulting 
# from the CCDC's data processing and validation procedures.
#
#######################################################################

data_LODRUT
_chemical_formula_moiety         'C21 H16 Cl2 O2 S1'
_chemical_name_systematic        
'1,2-bis(4-chlorophenyl)vinyl 4-methylphenyl sulfone'
_symmetry_cell_setting           monoclinic
_symmetry_space_group_name_H-M   'P 21/c'
_symmetry_Int_Tables_number      14
_space_group_name_Hall           '-P 2ybc'
loop_
_symmetry_equiv_pos_site_id
_symmetry_equiv_pos_as_xyz
1 x,y,z
2 -x,1/2+y,1/2-z
3 -x,-y,-z
4 x,1/2-y,1/2+z
_cell_length_a                   13.599(6)
_cell_length_b                   5.740(3)
_cell_length_c                   25.291(14)
_cell_angle_alpha                90
_cell_angle_beta                 105.50(3)
_cell_angle_gamma                90
_cell_volume                     1902.37
_exptl_crystal_colour            colorless
_exptl_crystal_description       Blade
_cell_formula_units_Z            4
loop_
_atom_site_label
_atom_site_type_symbol
_atom_site_fract_x
_atom_site_fract_y
_atom_site_fract_z
Cl1 Cl 0.11528(9) 0.7862(2) 0.58348(5)
Cl2 Cl -0.12554(8) -0.0915(3) 0.29004(5)
S1 S 0.40316(7) -0.09396(16) 0.39457(3)
O1 O 0.50360(18) -0.0237(6) 0.42612(9)
O2 O 0.3771(2) -0.3372(5) 0.39150(11)
C1 C 0.1825(3) 0.6147(6) 0.54832(13)
C2 C 0.2787(3) 0.6796(6) 0.54655(14)
H1 H 0.3081 0.8157 0.5636
C3 C 0.3309(3) 0.5391(6) 0.51894(12)
H2 H 0.3967 0.5798 0.5181
C4 C 0.2866(2) 0.3371(5) 0.49224(12)
C5 C 0.3454(2) 0.1978(5) 0.46223(12)
H3 H 0.4160 0.2102 0.4748
C6 C 0.3106(2) 0.0566(5) 0.41946(12)
C7 C 0.3833(2) 0.0082(5) 0.32656(12)
C8 C 0.4268(3) 0.2168(6) 0.31782(13)
H4 H 0.4650 0.3033 0.3473
C9 C 0.4128(3) 0.2958(6) 0.26451(14)
H5 H 0.4412 0.4375 0.2586
C10 C 0.3574(2) 0.1687(6) 0.21993(13)
C11 C 0.3458(3) 0.2561(8) 0.16234(14)
H6 H 0.3840 0.1581 0.1443
H7 H 0.3709 0.4129 0.1637
H8 H 0.2750 0.2531 0.1424
C12 C 0.3140(3) -0.0376(6) 0.22960(13)
H9 H 0.2756 -0.1239 0.2001
C13 C 0.3264(3) -0.1197(6) 0.28298(13)
H10 H 0.2966 -0.2595 0.2890
C14 C 0.2021(2) 0.0164(5) 0.38793(12)
C15 C 0.1499(3) -0.1859(6) 0.39340(15)
H11 H 0.1825 -0.3017 0.4175
C16 C 0.0491(3) -0.2169(7) 0.36318(18)
H12 H 0.0147 -0.3527 0.3674
C17 C 0.0005(3) -0.0494(7) 0.32741(14)
C18 C 0.0503(3) 0.1507(7) 0.32091(14)
H13 H 0.0168 0.2647 0.2965
C19 C 0.1508(2) 0.1836(6) 0.35072(13)
H14 H 0.1845 0.3195 0.3458
C20 C 0.1894(2) 0.2756(6) 0.49575(13)
H15 H 0.1593 0.1399 0.4788
C21 C 0.1374(3) 0.4118(6) 0.52379(14)
H16 H 0.0729 0.3684 0.5263
loop_
_geom_bond_atom_site_label_1
_geom_bond_atom_site_label_2
_geom_bond_site_symmetry_1
_geom_bond_site_symmetry_2
Cl1 C1 1_555 1_555
Cl2 C17 1_555 1_555
S1 O1 1_555 1_555
O2 S1 1_555 1_555
C1 C2 1_555 1_555
C2 H1 1_555 1_555
C3 C2 1_555 1_555
H2 C3 1_555 1_555
C4 C3 1_555 1_555
C5 C4 1_555 1_555
H3 C5 1_555 1_555
C6 S1 1_555 1_555
C7 S1 1_555 1_555
C8 C7 1_555 1_555
H4 C8 1_555 1_555
C9 C8 1_555 1_555
H5 C9 1_555 1_555
C10 C9 1_555 1_555
C11 C10 1_555 1_555
H6 C11 1_555 1_555
H7 C11 1_555 1_555
H8 C11 1_555 1_555
C12 C10 1_555 1_555
H9 C12 1_555 1_555
C13 C7 1_555 1_555
H10 C13 1_555 1_555
C14 C6 1_555 1_555
C15 C14 1_555 1_555
H11 C15 1_555 1_555
C16 C15 1_555 1_555
H12 C16 1_555 1_555
C17 C16 1_555 1_555
C18 C17 1_555 1_555
H13 C18 1_555 1_555
C19 C14 1_555 1_555
H14 C19 1_555 1_555
C20 C4 1_555 1_555
H15 C20 1_555 1_555
C21 C1 1_555 1_555
H16 C21 1_555 1_555
C5 C6 1_555 1_555
C12 C13 1_555 1_555
C18 C19 1_555 1_555
C20 C21 1_555 1_555

#END
