
#######################################################################
#
#                 Cambridge Crystallographic Data Centre
#                                CCDC 
#
#######################################################################
#
# If this CIF has been generated from an entry in the Cambridge 
# Structural Database, then it will include bibliographic, chemical, 
# crystal, experimental, refinement or atomic coordinate data resulting 
# from the CCDC's data processing and validation procedures.
#
#######################################################################

data_LODVOR
_chemical_formula_moiety         'C22 H16 F1 N1 O5'
_chemical_name_systematic        
(R)-1-Benzyl-5-fluoro-3-hydroxy-3-(6-hydroxy-1,3-benzodioxol-5-yl)-1,3-dihydro-2H-indol-2-one
_symmetry_cell_setting           orthorhombic
_symmetry_space_group_name_H-M   'P 21 21 21'
_symmetry_Int_Tables_number      19
_space_group_name_Hall           'P 2ac 2ab'
loop_
_symmetry_equiv_pos_site_id
_symmetry_equiv_pos_as_xyz
1 x,y,z
2 1/2-x,-y,1/2+z
3 1/2+x,1/2-y,-z
4 -x,1/2+y,1/2-z
_cell_length_a                   6.587(5)
_cell_length_b                   14.128(4)
_cell_length_c                   19.106(5)
_cell_angle_alpha                90
_cell_angle_beta                 90
_cell_angle_gamma                90
_cell_volume                     1778.03
_exptl_crystal_colour            colorless
_exptl_crystal_description       Block
_cell_formula_units_Z            4
_exptl_crystal_recrystallization_method ethanol
loop_
_atom_site_label
_atom_site_type_symbol
_atom_site_fract_x
_atom_site_fract_y
_atom_site_fract_z
F1 F 0.54481(19) -0.76227(8) -0.02192(6)
O1 O 0.5017(2) -0.25789(8) -0.03322(6)
O2 O 0.75739(19) -0.38387(9) 0.06765(6)
H1 H 0.7242 -0.3983 0.0277
O3 O 0.19276(19) -0.41055(9) -0.02543(7)
H2 H 0.1424 -0.3612 -0.0110
N1 N 0.6508(2) -0.38847(11) -0.08307(8)
O4 O 0.1034(2) -0.40878(11) 0.24159(7)
O5 O 0.4107(2) -0.36521(10) 0.29101(7)
C1 C 0.4062(3) -0.40783(12) 0.07919(9)
C2 C 0.3949(3) -0.41897(12) 0.00023(9)
C3 C 0.6085(3) -0.36797(13) 0.18199(9)
H3 H 0.7317 -0.3515 0.2025
C4 C 0.4888(3) -0.50953(12) -0.02647(8)
C5 C 0.6400(3) -0.48732(13) -0.07417(9)
C6 C 0.5895(3) -0.38444(13) 0.11000(9)
C7 C 0.7520(3) -0.35565(12) -0.20516(9)
C8 C 0.4340(3) -0.37764(13) 0.22030(9)
C9 C 0.7966(3) -0.34107(13) -0.12838(9)
H4 H 0.9316 -0.3648 -0.1182
H5 H 0.7954 -0.2738 -0.1182
C10 C 0.4525(3) -0.60242(13) -0.00814(9)
H6 H 0.3511 -0.6187 0.0235
C11 C 0.2314(3) -0.42054(12) 0.12055(9)
H7 H 0.1082 -0.4390 0.1011
C12 C 0.9089(3) -0.37674(14) -0.25092(10)
H8 H 1.0403 -0.3833 -0.2339
C13 C 0.7592(3) -0.55516(13) -0.10526(9)
H9 H 0.8591 -0.5389 -0.1375
C14 C 0.5751(3) -0.67043(12) -0.03943(10)
C15 C 0.5243(3) -0.34404(12) -0.03886(9)
C16 C 0.2518(3) -0.40439(13) 0.19079(9)
C17 C 0.7250(3) -0.64922(13) -0.08671(10)
H10 H 0.8031 -0.6972 -0.1063
C18 C 0.5571(3) -0.34619(17) -0.23142(11)
H11 H 0.4507 -0.3312 -0.2014
C19 C 0.8719(4) -0.38811(15) -0.32188(11)
H12 H 0.9787 -0.4016 -0.3521
C20 C 0.2059(3) -0.3904(2) 0.30561(11)
H13 H 0.2024 -0.4462 0.3351
H14 H 0.1390 -0.3391 0.3303
C21 C 0.6788(4) -0.37955(16) -0.34759(11)
H15 H 0.6540 -0.3875 -0.3951
C22 C 0.5201(4) -0.3589(2) -0.30218(12)
H16 H 0.3885 -0.3536 -0.3194
loop_
_geom_bond_atom_site_label_1
_geom_bond_atom_site_label_2
_geom_bond_site_symmetry_1
_geom_bond_site_symmetry_2
F1 C14 1_555 1_555
O1 C15 1_555 1_555
O2 H1 1_555 1_555
O3 H2 1_555 1_555
N1 C5 1_555 1_555
O4 C16 1_555 1_555
O5 C8 1_555 1_555
C1 C2 1_555 1_555
C2 O3 1_555 1_555
C3 H3 1_555 1_555
C4 C2 1_555 1_555
C5 C4 1_555 1_555
C6 O2 1_555 1_555
C7 C9 1_555 1_555
C8 C3 1_555 1_555
C9 N1 1_555 1_555
H4 C9 1_555 1_555
H5 C9 1_555 1_555
C10 C4 1_555 1_555
H6 C10 1_555 1_555
C11 C1 1_555 1_555
H7 C11 1_555 1_555
C12 C7 1_555 1_555
H8 C12 1_555 1_555
C13 C5 1_555 1_555
H9 C13 1_555 1_555
C14 C10 1_555 1_555
C15 N1 1_555 1_555
C16 C8 1_555 1_555
C17 C13 1_555 1_555
H10 C17 1_555 1_555
C18 C7 1_555 1_555
H11 C18 1_555 1_555
C19 C12 1_555 1_555
H12 C19 1_555 1_555
C20 O4 1_555 1_555
H13 C20 1_555 1_555
H14 C20 1_555 1_555
C21 C19 1_555 1_555
H15 C21 1_555 1_555
C22 C18 1_555 1_555
H16 C22 1_555 1_555
O5 C20 1_555 1_555
C1 C6 1_555 1_555
C2 C15 1_555 1_555
C3 C6 1_555 1_555
C11 C16 1_555 1_555
C14 C17 1_555 1_555
C21 C22 1_555 1_555

#END
