
#######################################################################
#
#                 Cambridge Crystallographic Data Centre
#                                CCDC 
#
#######################################################################
#
# If this CIF has been generated from an entry in the Cambridge 
# Structural Database, then it will include bibliographic, chemical, 
# crystal, experimental, refinement or atomic coordinate data resulting 
# from the CCDC's data processing and validation procedures.
#
#######################################################################

data_LOFDOB
_chemical_formula_moiety         'C18 H14 Br1 P1'
_chemical_name_systematic        (2-bromophenyl)(diphenyl)phosphine
_symmetry_cell_setting           monoclinic
_symmetry_space_group_name_H-M   'P 21/c'
_symmetry_Int_Tables_number      14
_space_group_name_Hall           '-P 2ybc'
loop_
_symmetry_equiv_pos_site_id
_symmetry_equiv_pos_as_xyz
1 x,y,z
2 -x,1/2+y,1/2-z
3 -x,-y,-z
4 x,1/2-y,1/2+z
_cell_length_a                   9.2195(11)
_cell_length_b                   17.155(2)
_cell_length_c                   9.8057(12)
_cell_angle_alpha                90
_cell_angle_beta                 96.450(2)
_cell_angle_gamma                90
_cell_volume                     1541.06
_exptl_crystal_colour            colorless
_exptl_crystal_description       block
_cell_formula_units_Z            4
loop_
_atom_site_label
_atom_site_type_symbol
_atom_site_fract_x
_atom_site_fract_y
_atom_site_fract_z
C1 C 0.5743(3) 0.65434(15) 0.1717(3)
Br1 Br 0.12960(4) 0.56931(2) 0.38711(4)
C2 C 0.2546(3) 0.69742(18) -0.0162(4)
H1 H 0.2969 0.7442 0.0153
P1 P 0.39352(8) 0.63950(4) 0.22794(8)
C3 C 0.2789(3) 0.63077(16) 0.0632(3)
C4 C 0.2111(3) 0.56238(17) 0.0144(3)
H2 H 0.2251 0.5169 0.0659
C5 C 0.4122(4) 0.3838(2) 0.3828(3)
H3 H 0.4141 0.3324 0.4133
C6 C 0.8193(3) 0.7011(2) 0.2343(4)
H4 H 0.8887 0.7230 0.2993
C7 C 0.1037(3) 0.6276(2) -0.1870(4)
H5 H 0.0461 0.6264 -0.2712
C8 C 0.1690(3) 0.6957(2) -0.1404(4)
H6 H 0.1554 0.7409 -0.1927
C9 C 0.5199(3) 0.48819(17) 0.2704(3)
H7 H 0.5970 0.5069 0.2263
C10 C 0.1234(3) 0.5607(2) -0.1091(3)
H8 H 0.0777 0.5146 -0.1398
C11 C 0.8562(3) 0.6817(2) 0.1070(4)
H9 H 0.9509 0.6898 0.0858
C12 C 0.5246(4) 0.41208(19) 0.3175(3)
H10 H 0.6038 0.3804 0.3048
C13 C 0.2966(4) 0.4310(2) 0.4034(3)
H11 H 0.2204 0.4119 0.4485
C14 C 0.2939(3) 0.50690(18) 0.3570(3)
C15 C 0.4040(3) 0.53744(16) 0.2868(3)
C16 C 0.6129(3) 0.63631(17) 0.0435(3)
H12 H 0.5441 0.6145 -0.0221
C17 C 0.6792(3) 0.68809(17) 0.2660(3)
H13 H 0.6546 0.7022 0.3521
C18 C 0.7533(3) 0.65042(18) 0.0115(3)
H14 H 0.7775 0.6385 -0.0756
loop_
_geom_bond_atom_site_label_1
_geom_bond_atom_site_label_2
_geom_bond_site_symmetry_1
_geom_bond_site_symmetry_2
C1 P1 1_555 1_555
Br1 C14 1_555 1_555
C2 H1 1_555 1_555
P1 C3 1_555 1_555
C3 C2 1_555 1_555
C4 C3 1_555 1_555
H2 C4 1_555 1_555
C5 H3 1_555 1_555
C6 H4 1_555 1_555
C7 H5 1_555 1_555
C8 C2 1_555 1_555
H6 C8 1_555 1_555
C9 H7 1_555 1_555
C10 C4 1_555 1_555
H8 C10 1_555 1_555
C11 C6 1_555 1_555
H9 C11 1_555 1_555
C12 C5 1_555 1_555
H10 C12 1_555 1_555
C13 C5 1_555 1_555
H11 C13 1_555 1_555
C14 C13 1_555 1_555
C15 P1 1_555 1_555
C16 C1 1_555 1_555
H12 C16 1_555 1_555
C17 C1 1_555 1_555
H13 C17 1_555 1_555
C18 C11 1_555 1_555
H14 C18 1_555 1_555
C6 C17 1_555 1_555
C7 C8 1_555 1_555
C7 C10 1_555 1_555
C9 C12 1_555 1_555
C9 C15 1_555 1_555
C14 C15 1_555 1_555
C16 C18 1_555 1_555

#END
