
#######################################################################
#
#                 Cambridge Crystallographic Data Centre
#                                CCDC 
#
#######################################################################
#
# If this CIF has been generated from an entry in the Cambridge 
# Structural Database, then it will include bibliographic, chemical, 
# crystal, experimental, refinement or atomic coordinate data resulting 
# from the CCDC's data processing and validation procedures.
#
#######################################################################

data_LOFKOH
_chemical_formula_moiety         'C21 H16 N2 S1'
_chemical_name_systematic        
3-(9-Ethylcarbazol-6-yl)-2-(2-thienyl)acrylonitrile
_symmetry_cell_setting           monoclinic
_symmetry_space_group_name_H-M   'P 21/c'
_symmetry_Int_Tables_number      14
_space_group_name_Hall           '-P 2ybc'
loop_
_symmetry_equiv_pos_site_id
_symmetry_equiv_pos_as_xyz
1 x,y,z
2 -x,1/2+y,1/2-z
3 -x,-y,-z
4 x,1/2-y,1/2+z
_cell_length_a                   5.1386(9)
_cell_length_b                   16.668(3)
_cell_length_c                   19.676(3)
_cell_angle_alpha                90
_cell_angle_beta                 91.534(4)
_cell_angle_gamma                90
_cell_volume                     1684.65
_exptl_crystal_colour            yellow
_exptl_crystal_description       needle
_cell_formula_units_Z            4
_exptl_crystal_recrystallization_method acetone
loop_
_atom_site_label
_atom_site_type_symbol
_atom_site_fract_x
_atom_site_fract_y
_atom_site_fract_z
S1 S 0.0592(2) 0.38203(6) 0.11875(6)
N1 N 1.2249(5) 0.01549(15) 0.17285(14)
N2 N 0.2584(9) 0.1704(2) -0.0586(2)
C1 C 1.3277(6) 0.05224(19) 0.23072(17)
C2 C 1.5347(7) 0.0284(2) 0.27320(18)
H1 H 1.6245 -0.0190 0.2651
C3 C 1.6022(7) 0.0766(2) 0.3272(2)
H2 H 1.7416 0.0619 0.3557
C4 C 1.4673(7) 0.1467(2) 0.3405(2)
H3 H 1.5154 0.1778 0.3780
C5 C 1.2633(7) 0.1709(2) 0.29863(18)
H4 H 1.1749 0.2183 0.3074
C6 C 1.1906(6) 0.12357(18) 0.24312(17)
C7 C 0.9963(6) 0.13041(18) 0.18903(16)
C8 C 0.8048(6) 0.18615(18) 0.17354(16)
H5 H 0.7829 0.2301 0.2019
C9 C 0.6442(6) 0.17713(18) 0.11579(17)
C10 C 0.6792(7) 0.10863(19) 0.07496(17)
H6 H 0.5721 0.1017 0.0365
C11 C 0.8658(7) 0.05171(19) 0.08983(17)
H7 H 0.8842 0.0068 0.0623
C12 C 1.0257(6) 0.06287(18) 0.14690(16)
C13 C 0.4484(6) 0.23871(18) 0.10355(17)
H8 H 0.4358 0.2750 0.1392
C14 C 0.2823(6) 0.25408(18) 0.05150(16)
C15 C 0.0969(6) 0.32117(18) 0.05016(17)
C16 C -0.0715(7) 0.3436(2) -0.00294(19)
H9 H -0.0815 0.3185 -0.0452
C17 C -0.2265(8) 0.4100(3) 0.0162(2)
H10 H -0.3536 0.4326 -0.0123
C18 C -0.1739(8) 0.4370(2) 0.0785(2)
H11 H -0.2557 0.4809 0.0977
C19 C 1.3095(7) -0.06152(19) 0.14654(19)
H12 H 1.4982 -0.0634 0.1478
H13 H 1.2510 -0.0665 0.0994
C20 C 1.2058(9) -0.1314(2) 0.1866(2)
H14 H 1.2729 -0.1289 0.2325
H15 H 1.2594 -0.1808 0.1661
H16 H 1.0191 -0.1290 0.1865
C21 C 0.2727(7) 0.2060(2) -0.0090(2)
loop_
_geom_bond_atom_site_label_1
_geom_bond_atom_site_label_2
_geom_bond_site_symmetry_1
_geom_bond_site_symmetry_2
S1 C15 1_555 1_555
N1 C1 1_555 1_555
N2 C21 1_555 1_555
C1 C2 1_555 1_555
C2 H1 1_555 1_555
C3 C2 1_555 1_555
H2 C3 1_555 1_555
C4 C3 1_555 1_555
H3 C4 1_555 1_555
C5 C4 1_555 1_555
H4 C5 1_555 1_555
C6 C1 1_555 1_555
C7 C6 1_555 1_555
C8 C7 1_555 1_555
H5 C8 1_555 1_555
C9 C8 1_555 1_555
C10 C9 1_555 1_555
H6 C10 1_555 1_555
C11 C10 1_555 1_555
H7 C11 1_555 1_555
C12 N1 1_555 1_555
C13 C9 1_555 1_555
H8 C13 1_555 1_555
C14 C13 1_555 1_555
C15 C14 1_555 1_555
C16 C15 1_555 1_555
H9 C16 1_555 1_555
C17 C16 1_555 1_555
H10 C17 1_555 1_555
C18 S1 1_555 1_555
H11 C18 1_555 1_555
C19 N1 1_555 1_555
H12 C19 1_555 1_555
H13 C19 1_555 1_555
C20 C19 1_555 1_555
H14 C20 1_555 1_555
H15 C20 1_555 1_555
H16 C20 1_555 1_555
C21 C14 1_555 1_555
C5 C6 1_555 1_555
C7 C12 1_555 1_555
C11 C12 1_555 1_555
C17 C18 1_555 1_555

#END
