
#######################################################################
#
#                 Cambridge Crystallographic Data Centre
#                                CCDC 
#
#######################################################################
#
# If this CIF has been generated from an entry in the Cambridge 
# Structural Database, then it will include bibliographic, chemical, 
# crystal, experimental, refinement or atomic coordinate data resulting 
# from the CCDC's data processing and validation procedures.
#
#######################################################################

data_LOFTEG
_chemical_formula_moiety         'C31 H31 N5 O1 S1'
_chemical_name_systematic        
2-(1-Allyl-3-cyano-4-(2-(4-(di-n-butylamino)phenyl)-1-(thiophen-2-yl)vinyl)-5-oxo-1,5-dihydropyrrol-2-ylidene)malonitrile
_symmetry_cell_setting           monoclinic
_symmetry_space_group_name_H-M   'P 21/n'
_symmetry_Int_Tables_number      14
_space_group_name_Hall           '-P 2yn'
loop_
_symmetry_equiv_pos_site_id
_symmetry_equiv_pos_as_xyz
1 x,y,z
2 1/2-x,1/2+y,1/2-z
3 -x,-y,-z
4 1/2+x,1/2-y,1/2+z
_cell_length_a                   12.8510(3)
_cell_length_b                   11.3677(3)
_cell_length_c                   19.1196(5)
_cell_angle_alpha                90
_cell_angle_beta                 94.2190(10)
_cell_angle_gamma                90
_cell_volume                     2785.54
_exptl_crystal_colour            brown
_exptl_crystal_description       block
_chemical_melting_point          '178 deg.C'
_cell_formula_units_Z            4
_exptl_crystal_recrystallization_method ethanol
loop_
_atom_site_label
_atom_site_type_symbol
_atom_site_fract_x
_atom_site_fract_y
_atom_site_fract_z
C1 C -0.0487(4) -0.5799(4) 0.1300(2)
H1 H -0.0952 -0.6230 0.0978
H2 H -0.0518 -0.6116 0.1763
H3 H 0.0213 -0.5863 0.1159
C2 C -0.0808(3) -0.4515(3) 0.12982(18)
H4 H -0.1527 -0.4460 0.1417
H5 H -0.0379 -0.4100 0.1657
C3 C -0.0705(2) -0.3920(3) 0.05978(16)
H6 H -0.1080 -0.4382 0.0234
H7 H 0.0025 -0.3915 0.0501
C4 C -0.1115(2) -0.2663(3) 0.05589(16)
H8 H -0.1057 -0.2367 0.0087
H9 H -0.1849 -0.2670 0.0645
C5 C -0.2961(3) 0.1121(3) 0.19734(19)
H10 H -0.2430 0.1715 0.1968
H11 H -0.3419 0.1299 0.2334
H12 H -0.3354 0.1104 0.1527
C6 C -0.2455(3) -0.0069(3) 0.21176(17)
H13 H -0.2992 -0.0662 0.2150
H14 H -0.2041 -0.0045 0.2563
C7 C -0.1762(2) -0.0401(3) 0.15385(15)
H15 H -0.1294 0.0251 0.1467
H16 H -0.2199 -0.0507 0.1107
C8 C -0.1110(2) -0.1511(3) 0.16730(15)
H17 H -0.0603 -0.1376 0.2066
H18 H -0.1562 -0.2149 0.1798
N1 N -0.05642(19) -0.1852(2) 0.10595(13)
C9 C 0.0315(2) -0.1298(2) 0.08873(15)
C10 C 0.0781(2) -0.0383(3) 0.13160(15)
H19 H 0.0483 -0.0176 0.1727
C11 C 0.1656(2) 0.0194(3) 0.11368(15)
H20 H 0.1923 0.0801 0.1423
C12 C 0.2168(2) -0.0098(2) 0.05312(14)
C13 C 0.1712(2) -0.1029(3) 0.01192(15)
H21 H 0.2033 -0.1261 -0.0279
C14 C 0.0828(2) -0.1596(3) 0.02786(15)
H22 H 0.0556 -0.2188 -0.0016
C15 C 0.3077(2) 0.0440(2) 0.02843(14)
H23 H 0.3306 0.0101 -0.0120
C16 C 0.3676(2) 0.1377(2) 0.05420(14)
C17 C 0.3470(2) 0.1985(2) 0.12013(14)
C18 C 0.28187(19) 0.3098(2) 0.12374(12)
H24 H 0.2472 0.3523 0.0876
C19 C 0.2886(3) 0.3330(3) 0.20168(18)
H25 H 0.2567 0.3981 0.2204
C20 C 0.3429(3) 0.2550(3) 0.24286(16)
H26 H 0.3508 0.2619 0.2914
S1 S 0.39503(7) 0.14471(8) 0.19928(5)
C21 C 0.4505(2) 0.1816(2) 0.01654(14)
C22 C 0.5176(2) 0.2747(2) 0.03301(14)
C23 C 0.5854(2) 0.2935(2) -0.02336(14)
N2 N 0.56393(18) 0.2064(2) -0.07222(12)
C24 C 0.4804(2) 0.1370(2) -0.05325(15)
O1 O 0.44417(17) 0.05772(19) -0.08911(11)
C25 C 0.5285(2) 0.3382(3) 0.09760(15)
N3 N 0.5428(3) 0.3877(3) 0.14925(14)
C26 C 0.6560(2) 0.3828(3) -0.02843(15)
C27 C 0.6594(2) 0.4820(3) 0.01804(15)
N4 N 0.6639(2) 0.5668(2) 0.05058(15)
C28 C 0.7298(2) 0.3928(3) -0.08074(16)
N5 N 0.7929(2) 0.4064(3) -0.11941(16)
C29 C 0.6070(2) 0.1899(3) -0.14028(15)
H27 H 0.5959 0.1089 -0.1548
H28 H 0.6817 0.2032 -0.1348
C30 C 0.5612(3) 0.2687(3) -0.19697(17)
H29 H 0.5925 0.2674 -0.2393
C31 C 0.4819(3) 0.3388(4) -0.1931(2)
H30 H 0.4479 0.3433 -0.1519
H31 H 0.4592 0.3846 -0.2316
loop_
_geom_bond_atom_site_label_1
_geom_bond_atom_site_label_2
_geom_bond_site_symmetry_1
_geom_bond_site_symmetry_2
C1 H1 1_555 1_555
H2 C1 1_555 1_555
H3 C1 1_555 1_555
C2 C1 1_555 1_555
H4 C2 1_555 1_555
H5 C2 1_555 1_555
C3 C2 1_555 1_555
H6 C3 1_555 1_555
H7 C3 1_555 1_555
C4 C3 1_555 1_555
H8 C4 1_555 1_555
H9 C4 1_555 1_555
C5 H10 1_555 1_555
H11 C5 1_555 1_555
H12 C5 1_555 1_555
C6 C5 1_555 1_555
H13 C6 1_555 1_555
H14 C6 1_555 1_555
C7 C6 1_555 1_555
H15 C7 1_555 1_555
H16 C7 1_555 1_555
C8 C7 1_555 1_555
H17 C8 1_555 1_555
H18 C8 1_555 1_555
N1 C4 1_555 1_555
C9 N1 1_555 1_555
C10 C9 1_555 1_555
H19 C10 1_555 1_555
C11 C10 1_555 1_555
H20 C11 1_555 1_555
C12 C11 1_555 1_555
C13 C12 1_555 1_555
H21 C13 1_555 1_555
C14 C9 1_555 1_555
H22 C14 1_555 1_555
C15 C12 1_555 1_555
H23 C15 1_555 1_555
C16 C15 1_555 1_555
C17 C16 1_555 1_555
C18 C17 1_555 1_555
H24 C18 1_555 1_555
C19 C18 1_555 1_555
H25 C19 1_555 1_555
C20 C19 1_555 1_555
H26 C20 1_555 1_555
S1 C17 1_555 1_555
C21 C16 1_555 1_555
C22 C21 1_555 1_555
C23 C22 1_555 1_555
N2 C23 1_555 1_555
C24 C21 1_555 1_555
O1 C24 1_555 1_555
C25 C22 1_555 1_555
N3 C25 1_555 1_555
C26 C23 1_555 1_555
C27 C26 1_555 1_555
N4 C27 1_555 1_555
C28 C26 1_555 1_555
N5 C28 1_555 1_555
C29 N2 1_555 1_555
H27 C29 1_555 1_555
H28 C29 1_555 1_555
C30 C29 1_555 1_555
H29 C30 1_555 1_555
C31 C30 1_555 1_555
H30 C31 1_555 1_555
H31 C31 1_555 1_555
C8 N1 1_555 1_555
C13 C14 1_555 1_555
C20 S1 1_555 1_555
N2 C24 1_555 1_555

#END
