
#######################################################################
#
#                 Cambridge Crystallographic Data Centre
#                                CCDC 
#
#######################################################################
#
# If this CIF has been generated from an entry in the Cambridge 
# Structural Database, then it will include bibliographic, chemical, 
# crystal, experimental, refinement or atomic coordinate data resulting 
# from the CCDC's data processing and validation procedures.
#
#######################################################################

data_LOFWOS
_chemical_formula_moiety         'C44 H44 N2 O5'
_chemical_name_systematic        
(1R,5'R,6'R,7'S,8'S)-2-Phenyl-1-(6',7',8'-tris(benzyloxy)-5'-((benzyloxy)methyl)-5,6,7,8-tetrahydroimidazo(1,2-a)pyridin-2-yl)ethanol
_symmetry_cell_setting           monoclinic
_symmetry_space_group_name_H-M   'P 21'
_symmetry_Int_Tables_number      4
_space_group_name_Hall           'P 2yb'
loop_
_symmetry_equiv_pos_site_id
_symmetry_equiv_pos_as_xyz
1 x,y,z
2 -x,1/2+y,-z
_cell_length_a                   5.095(1)
_cell_length_b                   26.547(10)
_cell_length_c                   13.365(2)
_cell_angle_alpha                90
_cell_angle_beta                 94.54(2)
_cell_angle_gamma                90
_cell_volume                     1802.04
_exptl_crystal_colour            colorless
_exptl_crystal_description       needle
_chemical_melting_point          117deg.C
_cell_formula_units_Z            2
loop_
_atom_site_label
_atom_site_type_symbol
_atom_site_fract_x
_atom_site_fract_y
_atom_site_fract_z
O1 O 0.350(2) 0.6766(5) 0.1191(10)
H1 H 0.2411 0.6532 0.1071
O2 O 1.032(2) 0.8299(5) 0.2989(9)
O3 O 1.115(2) 0.8100(4) 0.5599(9)
O4 O 1.447(2) 0.7247(4) 0.5821(9)
O5 O 1.226(2) 0.6356(4) 0.4848(9)
N1 N 0.962(3) 0.6593(5) 0.2831(10)
N2 N 0.862(2) 0.7330(5) 0.3527(10)
C1 C 0.748(3) 0.6810(6) 0.2263(12)
C2 C 0.678(3) 0.7256(7) 0.2680(12)
H2 H 0.5360 0.7471 0.2454
C3 C 0.864(3) 0.7751(6) 0.4208(12)
H3 H 0.7223 0.7705 0.4676
C4 C 1.133(3) 0.7741(7) 0.4809(14)
H4 H 1.2730 0.7847 0.4369
C5 C 1.200(3) 0.7228(7) 0.5256(13)
H5 H 1.0592 0.7113 0.5685
C6 C 1.233(3) 0.6856(7) 0.4414(13)
H6 H 1.4085 0.6910 0.4148
C7 C 1.017(3) 0.6934(6) 0.3561(12)
C8 C 0.826(3) 0.8242(7) 0.3671(13)
H7 H 0.6512 0.8248 0.3291
H8 H 0.8343 0.8522 0.4161
C9 C 0.615(3) 0.6554(6) 0.1363(14)
H9 H 0.7141 0.6640 0.0770
C10 C 0.615(4) 0.5982(6) 0.1477(14)
H10 H 0.7980 0.5864 0.1620
H11 H 0.5147 0.5890 0.2056
C11 C 0.495(4) 0.5722(8) 0.0556(16)
C12 C 0.274(4) 0.5389(8) 0.0606(16)
H12 H 0.2000 0.5337 0.1228
C13 C 0.171(4) 0.5150(9) -0.0223(17)
H13 H 0.0229 0.4937 -0.0168
C14 C 0.268(4) 0.5198(8) -0.1128(17)
H14 H 0.1963 0.5018 -0.1699
C15 C 0.477(4) 0.5523(9) -0.1177(18)
H15 H 0.5441 0.5572 -0.1813
C16 C 0.596(4) 0.5782(8) -0.0368(16)
H16 H 0.7427 0.5995 -0.0444
C17 C 0.992(4) 0.8686(8) 0.2259(15)
H17 H 1.0198 0.9019 0.2581
H18 H 0.8097 0.8671 0.1946
C18 C 1.185(3) 0.8614(7) 0.1465(14)
C19 C 1.235(4) 0.8131(8) 0.1144(14)
H19 H 1.1531 0.7848 0.1424
C20 C 1.413(4) 0.8070(9) 0.0383(16)
H20 H 1.4506 0.7741 0.0153
C21 C 1.528(4) 0.8473(9) -0.0017(17)
H21 H 1.6489 0.8431 -0.0515
C22 C 1.464(5) 0.8956(9) 0.0320(17)
H22 H 1.5376 0.9243 0.0021
C23 C 1.300(4) 0.9024(8) 0.1066(14)
H23 H 1.2653 0.9352 0.1305
C24 C 1.309(4) 0.8493(8) 0.5661(16)
H24 H 1.3031 0.8677 0.5015
H25 H 1.4867 0.8343 0.5786
C25 C 1.261(4) 0.8843(9) 0.6468(17)
C26 C 1.371(6) 0.9291(13) 0.647(2)
H26 H 1.4753 0.9378 0.5937
C27 C 1.339(6) 0.9658(13) 0.725(3)
H27 H 1.4310 0.9969 0.7247
C28 C 1.185(5) 0.9562(10) 0.7952(19)
H28 H 1.1545 0.9804 0.8452
C29 C 1.074(8) 0.9119(15) 0.795(3)
H29 H 0.9703 0.9036 0.8485
C30 C 1.099(6) 0.8757(11) 0.718(2)
H30 H 1.0013 0.8452 0.7183
C31 C 1.432(4) 0.7353(9) 0.6865(16)
H31 H 1.2627 0.7225 0.7084
H32 H 1.4378 0.7721 0.6976
C32 C 1.662(3) 0.7100(7) 0.7485(14)
C33 C 1.765(4) 0.7334(8) 0.8323(16)
H33 H 1.6997 0.7656 0.8495
C34 C 1.970(4) 0.7103(8) 0.8951(16)
H34 H 2.0409 0.7260 0.9551
C35 C 2.058(5) 0.6656(10) 0.866(2)
H35 H 2.1880 0.6489 0.9093
C36 C 1.972(5) 0.6430(11) 0.779(2)
H36 H 2.0519 0.6130 0.7575
C37 C 1.759(4) 0.6656(8) 0.7219(17)
H37 H 1.6831 0.6490 0.6636
C38 C 1.358(4) 0.5991(8) 0.4308(16)
H38 H 1.5347 0.6115 0.4163
H39 H 1.2569 0.5914 0.3664
C39 C 1.383(4) 0.5526(8) 0.4969(14)
C40 C 1.594(4) 0.5460(9) 0.5695(15)
H40 H 1.7271 0.5711 0.5783
C41 C 1.609(4) 0.5027(9) 0.6288(17)
H41 H 1.7531 0.4986 0.6779
C42 C 1.419(5) 0.4659(10) 0.6173(18)
H42 H 1.4274 0.4367 0.6584
C43 C 1.224(5) 0.4727(11) 0.5471(19)
H43 H 1.0928 0.4474 0.5375
C44 C 1.205(5) 0.5156(9) 0.4867(19)
H44 H 1.0613 0.5186 0.4372
loop_
_geom_bond_atom_site_label_1
_geom_bond_atom_site_label_2
_geom_bond_site_symmetry_1
_geom_bond_site_symmetry_2
O1 H1 1_555 1_555
O2 C8 1_555 1_555
O3 C4 1_555 1_555
O4 C5 1_555 1_555
O5 C6 1_555 1_555
N1 C1 1_555 1_555
N2 C2 1_555 1_555
C1 C2 1_555 1_555
C2 H2 1_555 1_555
C3 N2 1_555 1_555
H3 C3 1_555 1_555
C4 C3 1_555 1_555
H4 C4 1_555 1_555
C5 C4 1_555 1_555
H5 C5 1_555 1_555
C6 C5 1_555 1_555
H6 C6 1_555 1_555
C7 N1 1_555 1_555
C8 C3 1_555 1_555
H7 C8 1_555 1_555
H8 C8 1_555 1_555
C9 O1 1_555 1_555
H9 C9 1_555 1_555
C10 C9 1_555 1_555
H10 C10 1_555 1_555
H11 C10 1_555 1_555
C11 C10 1_555 1_555
C12 C11 1_555 1_555
H12 C12 1_555 1_555
C13 C12 1_555 1_555
H13 C13 1_555 1_555
C14 C13 1_555 1_555
H14 C14 1_555 1_555
C15 C14 1_555 1_555
H15 C15 1_555 1_555
C16 C11 1_555 1_555
H16 C16 1_555 1_555
C17 O2 1_555 1_555
H17 C17 1_555 1_555
H18 C17 1_555 1_555
C18 C17 1_555 1_555
C19 C18 1_555 1_555
H19 C19 1_555 1_555
C20 C19 1_555 1_555
H20 C20 1_555 1_555
C21 C20 1_555 1_555
H21 C21 1_555 1_555
C22 C21 1_555 1_555
H22 C22 1_555 1_555
C23 C18 1_555 1_555
H23 C23 1_555 1_555
C24 O3 1_555 1_555
H24 C24 1_555 1_555
H25 C24 1_555 1_555
C25 C24 1_555 1_555
C26 C25 1_555 1_555
H26 C26 1_555 1_555
C27 C26 1_555 1_555
H27 C27 1_555 1_555
C28 C27 1_555 1_555
H28 C28 1_555 1_555
C29 C28 1_555 1_555
H29 C29 1_555 1_555
C30 C25 1_555 1_555
H30 C30 1_555 1_555
C31 O4 1_555 1_555
H31 C31 1_555 1_555
H32 C31 1_555 1_555
C32 C31 1_555 1_555
C33 C32 1_555 1_555
H33 C33 1_555 1_555
C34 C33 1_555 1_555
H34 C34 1_555 1_555
C35 C34 1_555 1_555
H35 C35 1_555 1_555
C36 C35 1_555 1_555
H36 C36 1_555 1_555
C37 C32 1_555 1_555
H37 C37 1_555 1_555
C38 O5 1_555 1_555
H38 C38 1_555 1_555
H39 C38 1_555 1_555
C39 C38 1_555 1_555
C40 C39 1_555 1_555
H40 C40 1_555 1_555
C41 C40 1_555 1_555
H41 C41 1_555 1_555
C42 C41 1_555 1_555
H42 C42 1_555 1_555
C43 C42 1_555 1_555
H43 C43 1_555 1_555
C44 C39 1_555 1_555
H44 C44 1_555 1_555
N2 C7 1_555 1_555
C1 C9 1_555 1_555
C6 C7 1_555 1_555
C15 C16 1_555 1_555
C22 C23 1_555 1_555
C29 C30 1_555 1_555
C36 C37 1_555 1_555
C43 C44 1_555 1_555

#END
