
#######################################################################
#
#                 Cambridge Crystallographic Data Centre
#                                CCDC 
#
#######################################################################
#
# If this CIF has been generated from an entry in the Cambridge 
# Structural Database, then it will include bibliographic, chemical, 
# crystal, experimental, refinement or atomic coordinate data resulting 
# from the CCDC's data processing and validation procedures.
#
#######################################################################

data_LOFWIM
_chemical_formula_moiety         'C36 H34 I2 N2 O4'
_chemical_name_systematic        
(5R,6R,7S,8S)-6,7,8-tris(Benzyloxy)-5-((benzyloxy)methyl)-2,3-di-iodo-5,6,7,8-tetrahydroimidazo(1,2-a)pyridine
_symmetry_cell_setting           orthorhombic
_symmetry_space_group_name_H-M   'P 21 21 21'
_symmetry_Int_Tables_number      19
_space_group_name_Hall           'P 2ac 2ab'
loop_
_symmetry_equiv_pos_site_id
_symmetry_equiv_pos_as_xyz
1 x,y,z
2 1/2-x,-y,1/2+z
3 -x,1/2+y,1/2-z
4 1/2+x,1/2-y,-z
_cell_length_a                   9.571(7)
_cell_length_b                   10.995(4)
_cell_length_c                   32.009(6)
_cell_angle_alpha                90
_cell_angle_beta                 90
_cell_angle_gamma                90
_cell_volume                     3368.41
_exptl_crystal_colour            colorless
_exptl_crystal_description       prism
_chemical_melting_point          76-77deg.C
_cell_formula_units_Z            4
loop_
_atom_site_label
_atom_site_type_symbol
_atom_site_fract_x
_atom_site_fract_y
_atom_site_fract_z
I1 I 0.50050(8) 0.28275(7) 0.00812(2)
I2 I 0.35000(10) 0.54158(8) 0.07886(3)
N1 N 0.5659(9) 0.4147(8) 0.1324(3)
C1 C 0.5041(12) 0.4145(9) 0.0946(3)
C2 C 0.5481(10) 0.3233(8) 0.0692(3)
N2 N 0.6495(8) 0.2659(6) 0.0929(3)
C3 C 0.7268(9) 0.1542(7) 0.0805(3)
H1 H 0.7566 0.1629 0.0514
C4 C 0.8599(9) 0.1463(8) 0.1086(3)
H2 H 0.8990 0.0643 0.1060
C5 C 0.8294(10) 0.1696(8) 0.1542(3)
H3 H 0.9182 0.1675 0.1695
C6 C 0.7584(10) 0.2909(9) 0.1634(3)
H4 H 0.7084 0.2837 0.1900
C7 C 0.6542(11) 0.3225(8) 0.1298(3)
C8 C 0.6264(11) 0.0458(8) 0.0835(4)
H5 H 0.5834 0.0433 0.1109
H6 H 0.5531 0.0535 0.0627
O1 O 0.7037(12) -0.0609(8) 0.0765(5)
C9 C 0.662(2) -0.140(2) 0.0503(8)
H7 H 0.6526 -0.1029 0.0230
H8 H 0.5715 -0.1707 0.0588
C10 C 0.7663(16) -0.2463(13) 0.0477(6)
C11 C 0.8935(19) -0.248(2) 0.0648(8)
H9 H 0.9352 -0.1754 0.0731
C12 C 0.964(2) -0.358(2) 0.0702(7)
H10 H 1.0349 -0.3645 0.0900
C13 C 0.931(3) -0.4493(19) 0.0476(8)
H11 H 0.9927 -0.5141 0.0451
C14 C 0.817(3) -0.4532(18) 0.0290(10)
H12 H 0.7887 -0.5255 0.0165
C15 C 0.7285(19) -0.348(2) 0.0263(8)
H13 H 0.6473 -0.3497 0.0103
O2 O 0.9526(6) 0.2289(6) 0.0891(2)
C16 C 1.0911(10) 0.2428(10) 0.1087(4)
H14 H 1.0793 0.2845 0.1352
H15 H 1.1481 0.2942 0.0910
C17 C 1.1675(9) 0.1276(10) 0.1164(4)
C18 C 1.1768(11) 0.0331(11) 0.0889(5)
H16 H 1.1278 0.0399 0.0639
C19 C 1.2512(16) -0.0690(14) 0.0950(6)
H17 H 1.2530 -0.1312 0.0753
C20 C 1.3239(16) -0.0768(17) 0.1317(6)
H18 H 1.3749 -0.1470 0.1371
C21 C 1.3244(15) 0.017(2) 0.1612(6)
H19 H 1.3780 0.0122 0.1854
C22 C 1.2434(15) 0.1129(18) 0.1527(6)
H20 H 1.2381 0.1741 0.1727
O3 O 0.7420(7) 0.0789(6) 0.1708(3)
C23 C 0.8097(12) -0.0286(10) 0.1841(5)
H21 H 0.8831 -0.0086 0.2039
H22 H 0.8520 -0.0691 0.1603
C24 C 0.7072(12) -0.1094(9) 0.2039(4)
C25 C 0.6528(13) -0.2068(11) 0.1829(4)
H23 H 0.6794 -0.2216 0.1555
C26 C 0.5550(14) -0.2864(12) 0.2030(7)
H24 H 0.5154 -0.3506 0.1882
C27 C 0.5217(15) -0.2678(13) 0.2423(6)
H25 H 0.4597 -0.3212 0.2551
C28 C 0.5739(16) -0.1742(14) 0.2651(6)
H26 H 0.5479 -0.1639 0.2929
C29 C 0.6685(15) -0.0927(11) 0.2459(4)
H27 H 0.7052 -0.0280 0.2611
O4 O 0.8623(7) 0.3822(6) 0.1677(2)
C30 C 0.8129(13) 0.4876(10) 0.1900(5)
H28 H 0.7669 0.4626 0.2156
H29 H 0.7458 0.5315 0.1730
C31 C 0.9354(13) 0.5694(10) 0.2002(4)
C32 C 0.9225(11) 0.6510(10) 0.2315(3)
H30 H 0.8414 0.6485 0.2474
C33 C 1.0196(17) 0.7363(12) 0.2413(5)
H31 H 1.0072 0.7899 0.2634
C34 C 1.1373(19) 0.7390(13) 0.2167(7)
H32 H 1.2039 0.7992 0.2212
C35 C 1.1580(18) 0.6596(15) 0.1872(7)
H33 H 1.2402 0.6620 0.1717
C36 C 1.0603(14) 0.5731(12) 0.1788(5)
H34 H 1.0781 0.5154 0.1582
loop_
_geom_bond_atom_site_label_1
_geom_bond_atom_site_label_2
_geom_bond_site_symmetry_1
_geom_bond_site_symmetry_2
I1 C2 1_555 1_555
I2 C1 1_555 1_555
N1 C1 1_555 1_555
C1 C2 1_555 1_555
C2 N2 1_555 1_555
N2 C3 1_555 1_555
C3 H1 1_555 1_555
C4 C3 1_555 1_555
H2 C4 1_555 1_555
C5 C4 1_555 1_555
H3 C5 1_555 1_555
C6 C5 1_555 1_555
H4 C6 1_555 1_555
C7 N1 1_555 1_555
C8 C3 1_555 1_555
H5 C8 1_555 1_555
H6 C8 1_555 1_555
O1 C8 1_555 1_555
C9 O1 1_555 1_555
H7 C9 1_555 1_555
H8 C9 1_555 1_555
C10 C9 1_555 1_555
C11 C10 1_555 1_555
H9 C11 1_555 1_555
C12 C11 1_555 1_555
H10 C12 1_555 1_555
C13 C12 1_555 1_555
H11 C13 1_555 1_555
C14 C13 1_555 1_555
H12 C14 1_555 1_555
C15 C10 1_555 1_555
H13 C15 1_555 1_555
O2 C4 1_555 1_555
C16 O2 1_555 1_555
H14 C16 1_555 1_555
H15 C16 1_555 1_555
C17 C16 1_555 1_555
C18 C17 1_555 1_555
H16 C18 1_555 1_555
C19 C18 1_555 1_555
H17 C19 1_555 1_555
C20 C19 1_555 1_555
H18 C20 1_555 1_555
C21 C20 1_555 1_555
H19 C21 1_555 1_555
C22 C17 1_555 1_555
H20 C22 1_555 1_555
O3 C5 1_555 1_555
C23 O3 1_555 1_555
H21 C23 1_555 1_555
H22 C23 1_555 1_555
C24 C23 1_555 1_555
C25 C24 1_555 1_555
H23 C25 1_555 1_555
C26 C25 1_555 1_555
H24 C26 1_555 1_555
C27 C26 1_555 1_555
H25 C27 1_555 1_555
C28 C27 1_555 1_555
H26 C28 1_555 1_555
C29 C24 1_555 1_555
H27 C29 1_555 1_555
O4 C6 1_555 1_555
C30 O4 1_555 1_555
H28 C30 1_555 1_555
H29 C30 1_555 1_555
C31 C30 1_555 1_555
C32 C31 1_555 1_555
H30 C32 1_555 1_555
C33 C32 1_555 1_555
H31 C33 1_555 1_555
C34 C33 1_555 1_555
H32 C34 1_555 1_555
C35 C34 1_555 1_555
H33 C35 1_555 1_555
C36 C31 1_555 1_555
H34 C36 1_555 1_555
N2 C7 1_555 1_555
C6 C7 1_555 1_555
C14 C15 1_555 1_555
C21 C22 1_555 1_555
C28 C29 1_555 1_555
C35 C36 1_555 1_555

#END
