
#######################################################################
#
#                 Cambridge Crystallographic Data Centre
#                                CCDC 
#
#######################################################################
#
# If this CIF has been generated from an entry in the Cambridge 
# Structural Database, then it will include bibliographic, chemical, 
# crystal, experimental, refinement or atomic coordinate data resulting 
# from the CCDC's data processing and validation procedures.
#
#######################################################################

data_LOFXOT
_chemical_formula_moiety         
'C123 H120 N6 O8 S2,3(C1 H2 Cl2),3(C1 H4 O1),1.5(H2 O1)'
_chemical_name_systematic        
"(1)(Dispiro(cyclohexane-1,1'-(24'-(N-(4-(triphenylmethyl)phenyl)-N-(3-(4-(triphenylmethyl)phenylaminocarbonyl)phenylsulfonyl)propylamine)-10'-t-butyl-4',16',22',34',38',40',43',45'-octamethyl-7',13',25',25',31'-pentaoxo-25'-thia-6',14',24',32'-tetra-azaheptacyclo(17.17.2^2,5^.2^15,18^.2^20,23^.2^33,36^.1^8,12^.1^26,30^)hexatetraconta-2',4',8',10',12'(39'),15',17',20',22',26',28',30'(44'),33',35',37',40',42',45'-octadecaene)-19',1''-cyclohexane))-rotaxane dichloromethane methanol solvate sesquihydrate"
_symmetry_cell_setting           monoclinic
_symmetry_space_group_name_H-M   'P 21/c'
_symmetry_Int_Tables_number      14
_space_group_name_Hall           '-P 2ybc'
loop_
_symmetry_equiv_pos_site_id
_symmetry_equiv_pos_as_xyz
1 x,y,z
2 x,1/2-y,1/2+z
3 -x,-y,-z
4 -x,1/2+y,1/2-z
_cell_length_a                   21.5996(3)
_cell_length_b                   23.8227(3)
_cell_length_c                   25.4520(2)
_cell_angle_alpha                90
_cell_angle_beta                 114.1960(10)
_cell_angle_gamma                90
_cell_volume                     11946
_exptl_crystal_colour            colorless
_exptl_crystal_description       plates
_cell_formula_units_Z            4
loop_
_atom_site_label
_atom_site_type_symbol
_atom_site_fract_x
_atom_site_fract_y
_atom_site_fract_z
S1 S 0.37667(5) 0.58620(5) 0.44456(5)
O1 O 0.39334(15) 0.64004(13) 0.42856(13)
O2 O 0.37896(16) 0.53778(14) 0.41213(14)
N1 N 0.30135(17) 0.59315(15) 0.44553(15)
C1 C 0.2562(2) 0.63661(18) 0.41075(18)
C2 C 0.2596(2) 0.69029(18) 0.43423(17)
C3 C 0.2135(2) 0.73071(18) 0.40208(17)
H1 H 0.2153 0.7667 0.4187
C4 C 0.1644(2) 0.72102(18) 0.34638(17)
C5 C 0.1640(2) 0.66753(19) 0.32367(18)
H2 H 0.1321 0.6597 0.2856
C6 C 0.2084(2) 0.62530(18) 0.35445(18)
C7 C 0.1145(2) 0.76721(18) 0.31129(18)
C8 C 0.0409(2) 0.74414(19) 0.28579(19)
H3 H 0.0391 0.7098 0.2633
H4 H 0.0283 0.7335 0.3177
C9 C -0.0103(3) 0.7863(2) 0.2473(2)
H5 H -0.0113 0.8194 0.2704
H6 H -0.0561 0.7691 0.2315
C10 C 0.0075(3) 0.8047(2) 0.1980(2)
H7 H -0.0243 0.8346 0.1757
H8 H 0.0023 0.7726 0.1719
C11 C 0.0804(3) 0.8268(2) 0.2205(2)
H9 H 0.0920 0.8356 0.1876
H10 H 0.0841 0.8619 0.2425
C12 C 0.1300(3) 0.7839(2) 0.25905(19)
H11 H 0.1766 0.7995 0.2733
H12 H 0.1285 0.7499 0.2362
C13 C 0.1234(2) 0.81667(18) 0.35273(17)
C14 C 0.1737(2) 0.85688(18) 0.36199(18)
H13 H 0.1946 0.8593 0.3357
C15 C 0.1942(2) 0.89368(19) 0.40867(19)
C16 C 0.1612(2) 0.89083(18) 0.44559(18)
C17 C 0.1083(2) 0.85337(19) 0.43604(19)
C18 C 0.0903(2) 0.81662(18) 0.38922(18)
H14 H 0.0543 0.7908 0.3822
N2 N 0.1843(2) 0.92719(16) 0.49506(15)
H15 H 0.2120 0.9138 0.5287
C19 C 0.1647(3) 0.9807(2) 0.4913(2)
O3 O 0.1202(2) 0.99967(17) 0.44723(17)
C20 C 0.2008(2) 1.0178(2) 0.54259(18)
C21 C 0.1815(2) 1.0730(2) 0.5390(2)
H16 H 0.1454 1.0860 0.5049
C22 C 0.2139(2) 1.1108(2) 0.5843(2)
C23 C 0.2680(2) 1.0905(2) 0.6323(2)
H17 H 0.2919 1.1155 0.6631
C24 C 0.2884(2) 1.03541(19) 0.63700(18)
C25 C 0.2541(3) 0.9984(2) 0.59221(19)
H18 H 0.2670 0.9599 0.5954
C26 C 0.3490(2) 1.01718(19) 0.69002(18)
O4 O 0.37551(19) 1.04889(14) 0.73156(14)
N3 N 0.37314(19) 0.96566(17) 0.68912(15)
H19 H 0.3552 0.9467 0.6566
C27 C 0.4267(2) 0.93861(19) 0.73768(18)
C28 C 0.4931(2) 0.9425(2) 0.7437(2)
C29 C 0.5416(2) 0.9101(2) 0.7870(2)
H20 H 0.5876 0.9120 0.7917
C30 C 0.5253(2) 0.8754(2) 0.82333(18)
C31 C 0.4589(2) 0.8755(2) 0.81758(19)
H21 H 0.4471 0.8538 0.8435
C32 C 0.4085(2) 0.9066(2) 0.77472(19)
C33 C 0.5782(2) 0.8344(2) 0.86429(18)
C34 C 0.6505(2) 0.8598(2) 0.8870(2)
H22 H 0.6637 0.8627 0.8542
H23 H 0.6482 0.8985 0.9004
C35 C 0.7033(4) 0.8308(4) 0.9325(3)
H26 H 0.7454 0.8534 0.9453
H27 H 0.7120 0.7946 0.9177
C36 C 0.6865(4) 0.8196(4) 0.9840(4)
H28 H 0.6878 0.8553 1.0044
H29 H 0.7207 0.7939 1.0111
C37 C 0.6160(4) 0.7934(4) 0.9641(3)
H30 H 0.6189 0.7539 0.9533
H31 H 0.6030 0.7930 0.9971
C38 C 0.5639(3) 0.8198(3) 0.91752(19)
H32 H 0.5520 0.8550 0.9319
H33 H 0.5234 0.7953 0.9046
C42 C 0.5720(2) 0.7815(2) 0.82715(18)
C43 C 0.6127(2) 0.7735(2) 0.79743(19)
H42 H 0.6485 0.7992 0.8032
C44 C 0.6027(2) 0.7287(2) 0.75916(19)
C45 C 0.5508(2) 0.6909(2) 0.75167(19)
C46 C 0.5096(2) 0.6969(2) 0.7813(2)
C47 C 0.5205(2) 0.7428(2) 0.8179(2)
H43 H 0.4916 0.7478 0.8373
N4 N 0.53799(18) 0.64593(16) 0.71098(16)
H44 H 0.5586 0.6135 0.7222
C48 C 0.4942(2) 0.65355(19) 0.65538(19)
O5 O 0.46507(15) 0.69852(13) 0.63798(13)
C49 C 0.4815(2) 0.60461(19) 0.61525(19)
C50 C 0.4990(2) 0.5490(2) 0.6333(2)
H45 H 0.5222 0.5409 0.6733
C51 C 0.4829(2) 0.5058(2) 0.5938(2)
H46 H 0.4960 0.4685 0.6066
C52 C 0.4475(2) 0.5167(2) 0.5353(2)
H47 H 0.4358 0.4870 0.5080
C53 C 0.4296(2) 0.57194(19) 0.51736(19)
C54 C 0.4476(2) 0.61583(19) 0.55682(19)
H48 H 0.4367 0.6534 0.5438
C55 C 0.3126(2) 0.70683(19) 0.49256(18)
H49 H 0.3227 0.6747 0.5188
H50 H 0.2955 0.7380 0.5080
H51 H 0.3541 0.7186 0.4888
C56 C 0.2039(2) 0.56848(19) 0.3261(2)
H52 H 0.1736 0.5439 0.3357
H53 H 0.2492 0.5516 0.3401
H54 H 0.1860 0.5733 0.2842
C57 C 0.2515(3) 0.9340(2) 0.4197(2)
H55 H 0.2714 0.9274 0.3920
H56 H 0.2861 0.9285 0.4589
H57 H 0.2342 0.9726 0.4156
C58 C 0.0719(3) 0.8519(2) 0.4756(2)
H58 H 0.1032 0.8390 0.5138
H59 H 0.0333 0.8261 0.4599
H60 H 0.0555 0.8896 0.4786
C59 C 0.1889(3) 1.1706(3) 0.5794(2)
C60 C 0.1895(5) 1.1989(4) 0.5283(4)
H61 H 0.1617 1.1775 0.4937
H62 H 0.2362 1.2011 0.5315
H63 H 0.1710 1.2368 0.5256
C61 C 0.2243(4) 1.2051(3) 0.6316(3)
H64 H 0.2032 1.2422 0.6261
H65 H 0.2722 1.2090 0.6385
H66 H 0.2210 1.1867 0.6648
C62 C 0.1140(4) 1.1695(4) 0.5720(4)
H67 H 0.0882 1.1429 0.5415
H68 H 0.0943 1.2071 0.5616
H69 H 0.1122 1.1578 0.6083
C66 C 0.5134(3) 0.9776(3) 0.7049(3)
H79 H 0.4877 0.9659 0.6649
H80 H 0.5621 0.9728 0.7151
H81 H 0.5039 1.0171 0.7092
C67 C 0.3357(3) 0.9045(3) 0.7684(3)
H82 H 0.3195 0.9427 0.7695
H83 H 0.3333 0.8825 0.8001
H84 H 0.3072 0.8868 0.7316
C68 C 0.6458(3) 0.7225(3) 0.7258(2)
H85 H 0.6798 0.7525 0.7367
H86 H 0.6171 0.7249 0.6845
H87 H 0.6688 0.6860 0.7345
C69 C 0.4534(3) 0.6557(2) 0.7741(3)
H88 H 0.4374 0.6618 0.8045
H89 H 0.4707 0.6173 0.7766
H90 H 0.4157 0.6614 0.7364
C70 C 0.2723(2) 0.54268(19) 0.4616(2)
H91 H 0.2956 0.5089 0.4560
H92 H 0.2237 0.5397 0.4353
C71 C 0.2787(2) 0.5434(2) 0.5230(2)
H93 H 0.3263 0.5523 0.5490
H94 H 0.2684 0.5054 0.5331
C72 C 0.2320(2) 0.5856(2) 0.53339(19)
H95 H 0.2465 0.6241 0.5288
H96 H 0.1852 0.5802 0.5040
N5 N 0.23248(19) 0.58001(19) 0.59158(16)
S2 S 0.28754(6) 0.61536(6) 0.64452(5)
O6 O 0.35095(16) 0.61225(15) 0.63971(16)
O7 O 0.2811(2) 0.5972(2) 0.69531(15)
C73 C 0.2628(2) 0.6868(2) 0.63384(19)
C74 C 0.2024(3) 0.7047(3) 0.6365(2)
H97 H 0.1728 0.6784 0.6425
C75 C 0.1865(3) 0.7605(3) 0.6304(3)
H98 H 0.1459 0.7729 0.6326
C76 C 0.2287(2) 0.7995(3) 0.6209(2)
H99 H 0.2161 0.8380 0.6154
C77 C 0.2898(2) 0.7819(2) 0.61941(19)
C78 C 0.3061(2) 0.7251(2) 0.62538(18)
H100 H 0.3470 0.7126 0.6237
C79 C 0.3352(2) 0.8248(2) 0.61045(18)
O8 O 0.31440(17) 0.87288(15) 0.59274(14)
N6 N 0.39862(18) 0.80755(16) 0.62280(16)
H101 H 0.4098 0.7744 0.6392
C80 C 0.4502(2) 0.83695(18) 0.61241(19)
C81 C 0.4385(2) 0.8601(2) 0.55947(19)
H102 H 0.3936 0.8619 0.5303
C82 C 0.4922(2) 0.8808(2) 0.54905(19)
H103 H 0.4837 0.8965 0.5124
C83 C 0.5583(2) 0.87914(18) 0.59094(18)
C84 C 0.5681(2) 0.8587(2) 0.64515(19)
H104 H 0.6123 0.8597 0.6754
C85 C 0.5152(2) 0.8373(2) 0.65582(19)
H105 H 0.5232 0.8228 0.6928
C86 C 0.6195(2) 0.90286(19) 0.58177(18)
C87 C 0.6358(2) 0.95839(19) 0.61577(18)
C88 C 0.5877(2) 1.0017(2) 0.5973(2)
H106 H 0.5475 0.9969 0.5632
C89 C 0.5977(2) 1.0513(2) 0.6278(2)
H107 H 0.5649 1.0804 0.6139
C90 C 0.6550(3) 1.0590(2) 0.6785(2)
H108 H 0.6619 1.0932 0.6993
C91 C 0.7017(3) 1.0162(2) 0.6983(2)
H109 H 0.7405 1.0207 0.7336
C92 C 0.6927(2) 0.9663(2) 0.66710(19)
H110 H 0.7258 0.9374 0.6811
C93 C 0.6800(2) 0.86126(19) 0.60087(17)
C94 C 0.7419(2) 0.8793(2) 0.6010(2)
H111 H 0.7475 0.9177 0.5942
C95 C 0.7947(2) 0.8426(2) 0.6109(2)
H112 H 0.8362 0.8560 0.6111
C96 C 0.7875(3) 0.7859(2) 0.6206(2)
H113 H 0.8238 0.7605 0.6272
C97 C 0.7270(3) 0.7671(2) 0.6204(2)
H114 H 0.7215 0.7285 0.6269
C98 C 0.6741(2) 0.8045(2) 0.61072(19)
H115 H 0.6328 0.7909 0.6108
C99 C 0.6030(2) 0.91119(19) 0.51691(18)
C100 C 0.6139(2) 0.9607(2) 0.4942(2)
H116 H 0.6279 0.9930 0.5181
C101 C 0.6048(3) 0.9642(2) 0.4370(2)
H117 H 0.6117 0.9989 0.4219
C102 C 0.5857(3) 0.9173(2) 0.4023(2)
H118 H 0.5804 0.9193 0.3634
C103 C 0.5744(3) 0.8677(2) 0.4244(2)
H119 H 0.5608 0.8354 0.4006
C104 C 0.5827(3) 0.8646(2) 0.4807(2)
H120 H 0.5744 0.8300 0.4952
C105 C 0.1769(2) 0.5534(2) 0.59857(19)
C106 C 0.1877(2) 0.5038(2) 0.62983(19)
H121 H 0.2316 0.4872 0.6458
C107 C 0.1345(2) 0.4787(2) 0.6375(2)
H122 H 0.1425 0.4451 0.6595
C108 C 0.0686(2) 0.50141(18) 0.61372(18)
C109 C 0.0591(2) 0.55116(19) 0.58251(18)
H123 H 0.0153 0.5679 0.5663
C110 C 0.1129(2) 0.5766(2) 0.57482(19)
H124 H 0.1053 0.6102 0.5530
C111 C 0.0122(2) 0.47093(18) 0.62468(18)
C112 C -0.0523(2) 0.50804(18) 0.60477(19)
C113 C -0.0892(2) 0.51768(19) 0.5458(2)
H125 H -0.0765 0.4986 0.5189
C114 C -0.1438(2) 0.5544(2) 0.5257(2)
H126 H -0.1672 0.5610 0.4855
C115 C -0.1641(2) 0.5812(2) 0.5641(2)
H127 H -0.2012 0.6067 0.5504
C116 C -0.1305(3) 0.5710(2) 0.6224(2)
H128 H -0.1454 0.5884 0.6488
C117 C -0.0739(2) 0.5346(2) 0.6426(2)
H129 H -0.0502 0.5282 0.6828
C118 C 0.0392(2) 0.46062(18) 0.69079(19)
C119 C 0.0265(2) 0.4124(2) 0.71514(19)
H130 H 0.0016 0.3826 0.6909
C120 C 0.0499(3) 0.4070(2) 0.7746(2)
H131 H 0.0406 0.3736 0.7905
C121 C 0.0861(3) 0.4493(2) 0.8108(2)
H132 H 0.1016 0.4456 0.8513
C122 C 0.0998(3) 0.4974(2) 0.7873(2)
H133 H 0.1251 0.5269 0.8118
C123 C 0.0770(2) 0.5031(2) 0.7282(2)
H134 H 0.0872 0.5363 0.7127
C124 C -0.0065(2) 0.41482(18) 0.59100(18)
C125 C -0.0654(2) 0.38582(19) 0.58679(18)
H135 H -0.0935 0.4018 0.6034
C126 C -0.0827(2) 0.3349(2) 0.5591(2)
H136 H -0.1220 0.3158 0.5575
C127 C -0.0433(3) 0.3113(2) 0.5336(2)
H137 H -0.0550 0.2759 0.5150
C128 C 0.0133(3) 0.3397(2) 0.5356(2)
H138 H 0.0402 0.3242 0.5175
C129 C 0.0311(2) 0.3910(2) 0.5640(2)
H139 H 0.0702 0.4101 0.5650
C130 C 0.1884(3) 0.3426(3) 0.7406(2)
H140 H 0.2163 0.3272 0.7793
H141 H 0.1650 0.3765 0.7457
Cl1 Cl 0.24145(8) 0.36137(7) 0.70687(7)
Cl2 Cl 0.12802(11) 0.29282(10) 0.70116(11)
C131 C 0.3398(3) 0.7569(3) 0.84937(19)
H142 H 0.2993 0.7588 0.8583
H143 H 0.3589 0.7953 0.8531
Cl3 Cl 0.31682(19) 0.73460(17) 0.78224(15)
Cl4 Cl 0.4052(2) 0.70865(15) 0.90259(15)
C132 C 0.3212(3) 0.4293(3) 0.3304(2)
H146 H 0.3290 0.4692 0.3425
H147 H 0.3524 0.4203 0.3120
Cl7 Cl 0.34521(19) 0.38886(15) 0.39253(15)
Cl8 Cl 0.23883(16) 0.42397(14) 0.27783(13)
O9 O 0.0002(3) 0.3426(2) 0.8926(2)
H150 H 0.0094 0.3111 0.9060
C134 C -0.0572(4) 0.3339(4) 0.8460(4)
H151 H -0.0882 0.3655 0.8410
H152 H -0.0785 0.2991 0.8509
H153 H -0.0470 0.3307 0.8120
O10 O -0.0700(3) 0.5287(2) 0.7833(2)
C135 C -0.0270(5) 0.5652(4) 0.8259(3)
O12 O -0.1264(5) 0.4121(4) 0.8589(4)
C136 C -0.0984(6) 0.4420(5) 0.8290(5)
O14 O 0.0000 1.0000 0.5000
O15 O 0.0801(9) 1.0685(8) 0.6150(8)
H24? H 0.6838 0.8288 0.9012
H25? H 0.6566 0.8778 0.8545
H34? H 0.5151 0.8105 0.9034
H35? H 0.5894 0.7851 0.9346
C39? C 0.6650(5) 0.8989(4) 0.9309(4)
H36? H 0.6383 0.9333 0.9146
H37? H 0.7137 0.9090 0.9452
C40? C 0.6503(5) 0.8794(5) 0.9819(4)
H38? H 0.6826 0.8494 1.0031
H39? H 0.6565 0.9112 1.0087
C41? C 0.5782(5) 0.8575(4) 0.9609(4)
H40? H 0.5717 0.8395 0.9933
H41? H 0.5461 0.8894 0.9472
C63? C 0.2452(9) 1.2104(5) 0.5812(11)
H70? H 0.2287 1.2491 0.5770
H71? H 0.2584 1.2012 0.5497
H72? H 0.2845 1.2062 0.6182
C64? C 0.1706(12) 1.1877(7) 0.6274(7)
H73? H 0.1513 1.2256 0.6201
H74? H 0.2114 1.1874 0.6636
H75? H 0.1372 1.1613 0.6300
C65? C 0.1304(9) 1.1825(8) 0.5235(6)
H76? H 0.1171 1.2220 0.5224
H77? H 0.0921 1.1583 0.5197
H78? H 0.1437 1.1750 0.4917
H144? H 0.3754 0.7857 0.8672
H145? H 0.2985 0.7704 0.8532
Cl5? Cl 0.3211(2) 0.75392(18) 0.77270(15)
Cl6? Cl 0.3643(2) 0.70000(15) 0.88663(16)
C133? C 0.2492(9) 0.4044(7) 0.3001(6)
H148? H 0.2244 0.4395 0.2993
H149? H 0.2746 0.4108 0.2759
Cl9? Cl 0.1895(5) 0.3537(4) 0.2666(4)
Cl10? Cl 0.3087(5) 0.3951(4) 0.3704(4)
O11? O -0.0061(4) 0.5289(4) 0.8713(3)
O13? O -0.1516(9) 0.4547(10) 0.8444(10)
loop_
_geom_bond_atom_site_label_1
_geom_bond_atom_site_label_2
_geom_bond_site_symmetry_1
_geom_bond_site_symmetry_2
S1 O1 1_555 1_555
O2 S1 1_555 1_555
N1 S1 1_555 1_555
C1 N1 1_555 1_555
C2 C1 1_555 1_555
C3 C2 1_555 1_555
H1 C3 1_555 1_555
C4 C3 1_555 1_555
C5 C4 1_555 1_555
H2 C5 1_555 1_555
C6 C1 1_555 1_555
C7 C4 1_555 1_555
C8 C7 1_555 1_555
H3 C8 1_555 1_555
H4 C8 1_555 1_555
C9 C8 1_555 1_555
H5 C9 1_555 1_555
H6 C9 1_555 1_555
C10 C9 1_555 1_555
H7 C10 1_555 1_555
H8 C10 1_555 1_555
C11 C10 1_555 1_555
H9 C11 1_555 1_555
H10 C11 1_555 1_555
C12 C7 1_555 1_555
H11 C12 1_555 1_555
H12 C12 1_555 1_555
C13 C7 1_555 1_555
C14 C13 1_555 1_555
H13 C14 1_555 1_555
C15 C14 1_555 1_555
C16 C15 1_555 1_555
C17 C16 1_555 1_555
C18 C13 1_555 1_555
H14 C18 1_555 1_555
N2 C16 1_555 1_555
H15 N2 1_555 1_555
C19 N2 1_555 1_555
O3 C19 1_555 1_555
C20 C19 1_555 1_555
C21 C20 1_555 1_555
H16 C21 1_555 1_555
C22 C21 1_555 1_555
C23 C22 1_555 1_555
H17 C23 1_555 1_555
C24 C23 1_555 1_555
C25 C20 1_555 1_555
H18 C25 1_555 1_555
C26 C24 1_555 1_555
O4 C26 1_555 1_555
N3 C26 1_555 1_555
H19 N3 1_555 1_555
C27 N3 1_555 1_555
C28 C27 1_555 1_555
C29 C28 1_555 1_555
H20 C29 1_555 1_555
C30 C29 1_555 1_555
C31 C30 1_555 1_555
H21 C31 1_555 1_555
C32 C27 1_555 1_555
C33 C30 1_555 1_555
C34 C33 1_555 1_555
H22 C34 1_555 1_555
H23 C34 1_555 1_555
C35 C34 1_555 1_555
H26 C35 1_555 1_555
H27 C35 1_555 1_555
C36 C35 1_555 1_555
H28 C36 1_555 1_555
H29 C36 1_555 1_555
C37 C36 1_555 1_555
H30 C37 1_555 1_555
H31 C37 1_555 1_555
C38 C33 1_555 1_555
H32 C38 1_555 1_555
H33 C38 1_555 1_555
C42 C33 1_555 1_555
C43 C42 1_555 1_555
H42 C43 1_555 1_555
C44 C43 1_555 1_555
C45 C44 1_555 1_555
C46 C45 1_555 1_555
C47 C42 1_555 1_555
H43 C47 1_555 1_555
N4 C45 1_555 1_555
H44 N4 1_555 1_555
C48 N4 1_555 1_555
O5 C48 1_555 1_555
C49 C48 1_555 1_555
C50 C49 1_555 1_555
H45 C50 1_555 1_555
C51 C50 1_555 1_555
H46 C51 1_555 1_555
C52 C51 1_555 1_555
H47 C52 1_555 1_555
C53 S1 1_555 1_555
C54 C49 1_555 1_555
H48 C54 1_555 1_555
C55 C2 1_555 1_555
H49 C55 1_555 1_555
H50 C55 1_555 1_555
H51 C55 1_555 1_555
C56 C6 1_555 1_555
H52 C56 1_555 1_555
H53 C56 1_555 1_555
H54 C56 1_555 1_555
C57 C15 1_555 1_555
H55 C57 1_555 1_555
H56 C57 1_555 1_555
H57 C57 1_555 1_555
C58 C17 1_555 1_555
H58 C58 1_555 1_555
H59 C58 1_555 1_555
H60 C58 1_555 1_555
C59 C22 1_555 1_555
C60 C59 1_555 1_555
H61 C60 1_555 1_555
H62 C60 1_555 1_555
H63 C60 1_555 1_555
C61 C59 1_555 1_555
H64 C61 1_555 1_555
H65 C61 1_555 1_555
H66 C61 1_555 1_555
C62 C59 1_555 1_555
H67 C62 1_555 1_555
H68 C62 1_555 1_555
H69 C62 1_555 1_555
C66 C28 1_555 1_555
H79 C66 1_555 1_555
H80 C66 1_555 1_555
H81 C66 1_555 1_555
C67 C32 1_555 1_555
H82 C67 1_555 1_555
H83 C67 1_555 1_555
H84 C67 1_555 1_555
C68 C44 1_555 1_555
H85 C68 1_555 1_555
H86 C68 1_555 1_555
H87 C68 1_555 1_555
C69 C46 1_555 1_555
H88 C69 1_555 1_555
H89 C69 1_555 1_555
H90 C69 1_555 1_555
C70 N1 1_555 1_555
H91 C70 1_555 1_555
H92 C70 1_555 1_555
C71 C70 1_555 1_555
H93 C71 1_555 1_555
H94 C71 1_555 1_555
C72 C71 1_555 1_555
H95 C72 1_555 1_555
H96 C72 1_555 1_555
N5 C72 1_555 1_555
S2 N5 1_555 1_555
O6 S2 1_555 1_555
O7 S2 1_555 1_555
C73 S2 1_555 1_555
C74 C73 1_555 1_555
H97 C74 1_555 1_555
C75 C74 1_555 1_555
H98 C75 1_555 1_555
C76 C75 1_555 1_555
H99 C76 1_555 1_555
C77 C76 1_555 1_555
C78 C73 1_555 1_555
H100 C78 1_555 1_555
C79 C77 1_555 1_555
O8 C79 1_555 1_555
N6 C79 1_555 1_555
H101 N6 1_555 1_555
C80 N6 1_555 1_555
C81 C80 1_555 1_555
H102 C81 1_555 1_555
C82 C81 1_555 1_555
H103 C82 1_555 1_555
C83 C82 1_555 1_555
C84 C83 1_555 1_555
H104 C84 1_555 1_555
C85 C80 1_555 1_555
H105 C85 1_555 1_555
C86 C83 1_555 1_555
C87 C86 1_555 1_555
C88 C87 1_555 1_555
H106 C88 1_555 1_555
C89 C88 1_555 1_555
H107 C89 1_555 1_555
C90 C89 1_555 1_555
H108 C90 1_555 1_555
C91 C90 1_555 1_555
H109 C91 1_555 1_555
C92 C87 1_555 1_555
H110 C92 1_555 1_555
C93 C86 1_555 1_555
C94 C93 1_555 1_555
H111 C94 1_555 1_555
C95 C94 1_555 1_555
H112 C95 1_555 1_555
C96 C95 1_555 1_555
H113 C96 1_555 1_555
C97 C96 1_555 1_555
H114 C97 1_555 1_555
C98 C93 1_555 1_555
H115 C98 1_555 1_555
C99 C86 1_555 1_555
C100 C99 1_555 1_555
H116 C100 1_555 1_555
C101 C100 1_555 1_555
H117 C101 1_555 1_555
C102 C101 1_555 1_555
H118 C102 1_555 1_555
C103 C102 1_555 1_555
H119 C103 1_555 1_555
C104 C99 1_555 1_555
H120 C104 1_555 1_555
C105 N5 1_555 1_555
C106 C105 1_555 1_555
H121 C106 1_555 1_555
C107 C106 1_555 1_555
H122 C107 1_555 1_555
C108 C107 1_555 1_555
C109 C108 1_555 1_555
H123 C109 1_555 1_555
C110 C105 1_555 1_555
H124 C110 1_555 1_555
C111 C108 1_555 1_555
C112 C111 1_555 1_555
C113 C112 1_555 1_555
H125 C113 1_555 1_555
C114 C113 1_555 1_555
H126 C114 1_555 1_555
C115 C114 1_555 1_555
H127 C115 1_555 1_555
C116 C115 1_555 1_555
H128 C116 1_555 1_555
C117 C112 1_555 1_555
H129 C117 1_555 1_555
C118 C111 1_555 1_555
C119 C118 1_555 1_555
H130 C119 1_555 1_555
C120 C119 1_555 1_555
H131 C120 1_555 1_555
C121 C120 1_555 1_555
H132 C121 1_555 1_555
C122 C121 1_555 1_555
H133 C122 1_555 1_555
C123 C118 1_555 1_555
H134 C123 1_555 1_555
C124 C111 1_555 1_555
C125 C124 1_555 1_555
H135 C125 1_555 1_555
C126 C125 1_555 1_555
H136 C126 1_555 1_555
C127 C126 1_555 1_555
H137 C127 1_555 1_555
C128 C127 1_555 1_555
H138 C128 1_555 1_555
C129 C124 1_555 1_555
H139 C129 1_555 1_555
C130 H140 1_555 1_555
H141 C130 1_555 1_555
Cl1 C130 1_555 1_555
Cl2 C130 1_555 1_555
C131 H142 1_555 1_555
H143 C131 1_555 1_555
Cl3 C131 1_555 1_555
Cl4 C131 1_555 1_555
C132 H146 1_555 1_555
H147 C132 1_555 1_555
Cl7 C132 1_555 1_555
Cl8 C132 1_555 1_555
O9 H150 1_555 1_555
C134 O9 1_555 1_555
H151 C134 1_555 1_555
H152 C134 1_555 1_555
H153 C134 1_555 1_555
O10 C135 1_555 1_555
O12 C136 1_555 1_555
C5 C6 1_555 1_555
C11 C12 1_555 1_555
C17 C18 1_555 1_555
C24 C25 1_555 1_555
C31 C32 1_555 1_555
C37 C38 1_555 1_555
C46 C47 1_555 1_555
C52 C53 1_555 1_555
C53 C54 1_555 1_555
C77 C78 1_555 1_555
C84 C85 1_555 1_555
C91 C92 1_555 1_555
C97 C98 1_555 1_555
C103 C104 1_555 1_555
C109 C110 1_555 1_555
C116 C117 1_555 1_555
C122 C123 1_555 1_555
C128 C129 1_555 1_555

#END
