
#######################################################################
#
#                 Cambridge Crystallographic Data Centre
#                                CCDC 
#
#######################################################################
#
# If this CIF has been generated from an entry in the Cambridge 
# Structural Database, then it will include bibliographic, chemical, 
# crystal, experimental, refinement or atomic coordinate data resulting 
# from the CCDC's data processing and validation procedures.
#
#######################################################################

data_LOFXUZ
_chemical_formula_moiety         'C124 H122 N6 O8 S2,4(C1 H4 O1),5(H2 O1)'
_chemical_name_systematic        
"(1)(Dispiro(cyclohexane-1,1'-(24'-(N-(4-(triphenylmethyl)phenyl)-N-(3-(4-(triphenylmethyl)phenylaminocarbonyl)phenylsulfonyl)-n-butylamine)-10'-t-butyl-4',16',22',34',38',40',43',45'-octamethyl-7',13',25',25',31'-pentaoxo-25'-thia-6',14',24',32'-tetra-azaheptacyclo(17.17.2^2,5^.2^15,18^.2^20,23^.2^33,36^.1^8,12^.1^26,30^)hexatetraconta-2',4',8',10',12'(39'),15',17',20',22',26',28',30'(44'),33',35',37',40',42',45'-octadecaene)-19',1''-cyclohexane))-rotaxane methanol solvate pentahydrate"
_symmetry_cell_setting           monoclinic
_symmetry_space_group_name_H-M   'C 2/c'
_symmetry_Int_Tables_number      15
_space_group_name_Hall           '-C 2yn'
loop_
_symmetry_equiv_pos_site_id
_symmetry_equiv_pos_as_xyz
1 x,y,z
2 1/2+x,1/2+y,z
3 x,-y,1/2+z
4 1/2+x,1/2-y,1/2+z
5 -x,-y,-z
6 1/2-x,1/2-y,-z
7 -x,y,1/2-z
8 1/2-x,1/2+y,1/2-z
_cell_length_a                   64.008(3)
_cell_length_b                   17.9135(6)
_cell_length_c                   22.4082(8)
_cell_angle_alpha                90
_cell_angle_beta                 94.856(3)
_cell_angle_gamma                90
_cell_volume                     25601.2
_exptl_crystal_colour            colorless
_exptl_crystal_description       plates
_cell_formula_units_Z            8
loop_
_atom_site_label
_atom_site_type_symbol
_atom_site_fract_x
_atom_site_fract_y
_atom_site_fract_z
S1 S 0.11211(2) 0.06058(8) 0.03325(6)
O1 O 0.12918(6) 0.1007(2) 0.01138(16)
O2 O 0.09727(6) 0.0258(2) -0.00927(16)
N1 N 0.10114(7) 0.1176(2) 0.07826(17)
C1 C 0.10292(8) 0.1980(3) 0.0683(2)
C2 C 0.11739(8) 0.2395(3) 0.1045(2)
C3 C 0.11773(8) 0.3167(3) 0.0969(2)
H1 H 0.1278 0.3447 0.1210
C4 C 0.10404(8) 0.3551(3) 0.0559(2)
C5 C 0.09023(9) 0.3109(3) 0.0197(2)
H2 H 0.0810 0.3348 -0.0099
C6 C 0.08925(9) 0.2339(3) 0.0248(2)
C7 C 0.10525(8) 0.4400(3) 0.0484(2)
C8 C 0.08313(8) 0.4754(3) 0.0367(2)
H3 H 0.0753 0.4481 0.0035
H4 H 0.0755 0.4689 0.0729
C9 C 0.08341(9) 0.5567(3) 0.0212(2)
H5 H 0.0905 0.5849 0.0551
H6 H 0.0688 0.5753 0.0145
C10 C 0.09486(9) 0.5704(4) -0.0351(3)
H7 H 0.0871 0.5464 -0.0700
H8 H 0.0955 0.6247 -0.0430
C11 C 0.11680(9) 0.5388(3) -0.0267(2)
H9 H 0.1252 0.5688 0.0038
H10 H 0.1235 0.5433 -0.0648
C12 C 0.11728(8) 0.4573(3) -0.0073(2)
H11 H 0.1321 0.4420 0.0014
H12 H 0.1113 0.4266 -0.0412
C13 C 0.11626(8) 0.4724(3) 0.1064(2)
C14 C 0.10629(9) 0.4647(3) 0.1594(2)
H13 H 0.0922 0.4480 0.1568
C15 C 0.11622(8) 0.4805(3) 0.2154(2)
C16 C 0.13668(8) 0.5078(3) 0.2185(2)
C17 C 0.14700(9) 0.5202(3) 0.1665(2)
C18 C 0.13637(8) 0.5000(3) 0.1115(2)
H14 H 0.1434 0.5056 0.0761
N2 N 0.14824(7) 0.5184(2) 0.27559(17)
H15 H 0.1595 0.4908 0.2836
C19 C 0.14328(9) 0.5669(3) 0.3175(2)
O3 O 0.12916(7) 0.6134(2) 0.30887(17)
C20 C 0.15609(8) 0.5625(3) 0.3762(2)
C21 C 0.15962(8) 0.6274(3) 0.4103(2)
H16 H 0.1538 0.6733 0.3953
C22 C 0.17146(8) 0.6268(3) 0.4659(2)
C23 C 0.17941(8) 0.5580(3) 0.4868(2)
H17 H 0.1876 0.5558 0.5241
C24 C 0.17555(8) 0.4924(3) 0.4539(2)
C25 C 0.16388(8) 0.4951(3) 0.3982(2)
H18 H 0.1613 0.4507 0.3756
C26 C 0.18389(9) 0.4205(3) 0.4815(2)
O4 O 0.19352(8) 0.4193(2) 0.53071(17)
N3 N 0.18007(8) 0.3587(2) 0.4490(2)
H19 H 0.1742 0.3649 0.4124
C27 C 0.18456(9) 0.2841(3) 0.4674(2)
C28 C 0.16753(9) 0.2367(3) 0.4747(2)
C29 C 0.17142(9) 0.1615(3) 0.4849(2)
H20 H 0.1599 0.1290 0.4886
C30 C 0.19179(9) 0.1316(3) 0.4898(2)
C31 C 0.20832(9) 0.1803(3) 0.4845(2)
H21 H 0.2222 0.1613 0.4888
C32 C 0.20531(9) 0.2577(3) 0.4727(2)
C33 C 0.19461(9) 0.0470(3) 0.4981(2)
C34 C 0.18218(9) 0.0211(3) 0.5499(2)
H22 H 0.1860 0.0534 0.5850
H23 H 0.1671 0.0284 0.5383
C35 C 0.18566(10) -0.0596(3) 0.5686(3)
H24 H 0.1782 -0.0697 0.6046
H25 H 0.1797 -0.0926 0.5361
C36 C 0.20854(10) -0.0774(3) 0.5820(3)
H26 H 0.2102 -0.1318 0.5890
H27 H 0.2140 -0.0512 0.6190
C37 C 0.22119(10) -0.0540(3) 0.5306(3)
H28 H 0.2363 -0.0629 0.5420
H29 H 0.2170 -0.0850 0.4950
C38 C 0.21787(9) 0.0272(3) 0.5149(2)
H30 H 0.2261 0.0397 0.4809
H31 H 0.2232 0.0581 0.5495
C39 C 0.18683(8) 0.0108(3) 0.4382(2)
C40 C 0.19819(9) 0.0215(3) 0.3880(2)
H32 H 0.2110 0.0485 0.3929
C41 C 0.19142(9) -0.0058(3) 0.3313(2)
C42 C 0.17264(9) -0.0445(3) 0.3243(2)
C43 C 0.16086(8) -0.0584(3) 0.3732(2)
C44 C 0.16846(9) -0.0300(3) 0.4289(2)
H33 H 0.1606 -0.0392 0.4622
N4 N 0.16386(7) -0.0689(2) 0.26626(18)
H34 H 0.1636 -0.1169 0.2577
C45 C 0.15611(9) -0.0200(3) 0.2253(2)
O5 O 0.15835(6) 0.0482(2) 0.23306(16)
C46 C 0.14460(9) -0.0467(3) 0.1693(2)
C47 C 0.14303(11) -0.1206(3) 0.1503(3)
H35 H 0.1501 -0.1584 0.1738
C48 C 0.13126(12) -0.1400(4) 0.0976(3)
H36 H 0.1304 -0.1908 0.0852
C49 C 0.12062(11) -0.0847(3) 0.0627(3)
H37 H 0.1121 -0.0976 0.0273
C50 C 0.12271(9) -0.0111(3) 0.0808(2)
C51 C 0.13448(8) 0.0080(3) 0.1338(2)
H38 H 0.1356 0.0589 0.1457
C52 C 0.13289(9) 0.2044(3) 0.1498(3)
H39 H 0.1255 0.1714 0.1759
H40 H 0.1402 0.2435 0.1739
H41 H 0.1431 0.1753 0.1292
C53 C 0.07394(11) 0.1908(4) -0.0172(3)
H42 H 0.0727 0.2150 -0.0566
H43 H 0.0602 0.1899 -0.0010
H44 H 0.0790 0.1396 -0.0213
C54 C 0.10512(9) 0.4652(3) 0.2704(2)
H45 H 0.1141 0.4349 0.2984
H46 H 0.0921 0.4382 0.2592
H47 H 0.1019 0.5125 0.2895
C55 C 0.16845(9) 0.5543(4) 0.1684(3)
H48 H 0.1756 0.5476 0.2085
H49 H 0.1672 0.6077 0.1593
H50 H 0.1765 0.5298 0.1388
C56 C 0.17594(9) 0.6991(3) 0.4999(2)
C57 C 0.15702(10) 0.7522(3) 0.4933(3)
H51 H 0.1604 0.7982 0.5157
H52 H 0.1449 0.7280 0.5091
H53 H 0.1537 0.7641 0.4508
C58 C 0.18085(12) 0.6847(4) 0.5673(3)
H54 H 0.1837 0.7323 0.5880
H55 H 0.1932 0.6523 0.5735
H56 H 0.1688 0.6603 0.5833
C59 C 0.19506(12) 0.7371(4) 0.4748(4)
H57 H 0.1982 0.7839 0.4963
H58 H 0.1919 0.7475 0.4321
H59 H 0.2072 0.7038 0.4801
C60 C 0.14556(9) 0.2676(3) 0.4733(3)
H60 H 0.1446 0.3018 0.5070
H61 H 0.1356 0.2265 0.4762
H62 H 0.1422 0.2946 0.4356
C61 C 0.22337(10) 0.3074(3) 0.4646(3)
H63 H 0.2206 0.3362 0.4276
H64 H 0.2360 0.2773 0.4621
H65 H 0.2254 0.3417 0.4987
C62 C 0.20459(9) 0.0062(3) 0.2796(2)
H66 H 0.2015 -0.0327 0.2495
H67 H 0.2195 0.0040 0.2940
H68 H 0.2014 0.0553 0.2617
C63 C 0.14055(9) -0.0991(4) 0.3653(3)
H69 H 0.1310 -0.0731 0.3357
H70 H 0.1343 -0.1010 0.4037
H71 H 0.1430 -0.1500 0.3514
C64 C 0.08224(9) 0.0909(3) 0.1059(2)
H72 H 0.0809 0.0362 0.1002
H73 H 0.0696 0.1146 0.0854
C65 C 0.08313(8) 0.1084(3) 0.1719(2)
H74 H 0.0887 0.1596 0.1789
H75 H 0.0929 0.0732 0.1942
C66 C 0.06158(9) 0.1025(3) 0.1954(2)
H76 H 0.0570 0.0497 0.1932
H77 H 0.0515 0.1319 0.1690
C67 C 0.06091(9) 0.1301(3) 0.2600(2)
H78 H 0.0464 0.1258 0.2720
H79 H 0.0701 0.0984 0.2872
N5 N 0.06782(7) 0.2081(2) 0.26572(18)
S2 S 0.07552(2) 0.23608(9) 0.33444(6)
O6 O 0.07916(6) 0.3142(2) 0.33164(16)
O7 O 0.06196(6) 0.2076(2) 0.37697(16)
C68 C 0.09969(8) 0.1902(3) 0.3478(2)
C69 C 0.10124(9) 0.1230(3) 0.3780(2)
H80 H 0.0892 0.1015 0.3933
C70 C 0.12062(9) 0.0866(3) 0.3858(2)
H81 H 0.1217 0.0400 0.4061
C71 C 0.13805(9) 0.1182(3) 0.3641(2)
H82 H 0.1511 0.0925 0.3683
C72 C 0.13679(8) 0.1881(3) 0.3357(2)
C73 C 0.11768(8) 0.2245(3) 0.3275(2)
H83 H 0.1167 0.2718 0.3085
C74 C 0.15617(8) 0.2263(3) 0.3180(2)
O8 O 0.15919(6) 0.2936(2) 0.32718(17)
N6 N 0.16943(6) 0.1806(2) 0.29188(18)
H84 H 0.1653 0.1344 0.2844
C75 C 0.18966(8) 0.2018(3) 0.2755(2)
C76 C 0.19357(8) 0.2001(3) 0.2158(2)
H85 H 0.1825 0.1905 0.1858
C77 C 0.21382(8) 0.2124(3) 0.2000(2)
H86 H 0.2163 0.2126 0.1587
C78 C 0.23043(8) 0.2245(3) 0.2421(2)
C79 C 0.22602(8) 0.2288(3) 0.3019(2)
H87 H 0.2370 0.2396 0.3319
C80 C 0.20576(8) 0.2174(3) 0.3183(2)
H88 H 0.2030 0.2204 0.3592
C81 C 0.25268(8) 0.2334(3) 0.2197(2)
C82 C 0.25963(8) 0.1587(3) 0.1926(2)
C83 C 0.24922(9) 0.0921(3) 0.1975(2)
H89 H 0.2364 0.0911 0.2162
C84 C 0.25710(10) 0.0267(3) 0.1757(3)
H90 H 0.2496 -0.0186 0.1795
C85 C 0.27552(10) 0.0260(4) 0.1487(3)
H91 H 0.2808 -0.0191 0.1334
C86 C 0.28608(10) 0.0913(4) 0.1443(3)
H92 H 0.2988 0.0916 0.1255
C87 C 0.27867(9) 0.1569(4) 0.1664(3)
H93 H 0.2866 0.2014 0.1639
C88 C 0.26950(8) 0.2506(3) 0.2719(2)
C89 C 0.28107(9) 0.3159(3) 0.2766(2)
H94 H 0.2785 0.3542 0.2476
C90 C 0.29635(10) 0.3258(4) 0.3235(3)
H95 H 0.3041 0.3710 0.3261
C91 C 0.30052(9) 0.2721(4) 0.3662(2)
H96 H 0.3110 0.2801 0.3983
C92 C 0.28935(9) 0.2063(3) 0.3621(2)
H97 H 0.2921 0.1686 0.3915
C93 C 0.27424(8) 0.1950(3) 0.3153(2)
H98 H 0.2669 0.1488 0.3123
C94 C 0.25007(8) 0.2968(3) 0.1729(2)
C95 C 0.25180(10) 0.2858(4) 0.1113(3)
H99 H 0.2559 0.2384 0.0975
C96 C 0.24762(12) 0.3426(5) 0.0710(3)
H100 H 0.2489 0.3337 0.0296
C97 C 0.24172(11) 0.4113(5) 0.0891(4)
H101 H 0.2389 0.4499 0.0605
C98 C 0.23978(10) 0.4251(4) 0.1491(3)
H102 H 0.2358 0.4730 0.1621
C99 C 0.24387(9) 0.3666(4) 0.1906(3)
H103 H 0.2423 0.3755 0.2318
C100 C 0.05584(8) 0.2629(3) 0.2284(2)
C101 C 0.03525(8) 0.2795(3) 0.2382(2)
H104 H 0.0289 0.2565 0.2703
C102 C 0.02385(8) 0.3307(3) 0.2004(2)
H105 H 0.0099 0.3433 0.2080
C103 C 0.03261(8) 0.3623(3) 0.1529(2)
C104 C 0.05364(8) 0.3429(3) 0.1438(2)
H106 H 0.0600 0.3636 0.1108
C105 C 0.06495(8) 0.2949(3) 0.1817(2)
H107 H 0.0791 0.2839 0.1755
C106 C 0.02137(8) 0.4183(3) 0.1090(2)
C107 C -0.00217(8) 0.4246(3) 0.1213(2)
C108 C -0.01861(9) 0.3888(3) 0.0879(2)
H108 H -0.0157 0.3604 0.0538
C109 C -0.03896(9) 0.3934(3) 0.1032(3)
H109 H -0.0498 0.3679 0.0798
C110 C -0.04370(9) 0.4348(3) 0.1521(3)
H110 H -0.0578 0.4376 0.1625
C111 C -0.02795(9) 0.4722(3) 0.1860(2)
H111 H -0.0311 0.5010 0.2197
C112 C -0.00734(8) 0.4674(3) 0.1703(2)
H112 H 0.0034 0.4938 0.1934
C113 C 0.03100(8) 0.4972(3) 0.1178(2)
C114 C 0.04763(9) 0.5129(3) 0.1598(2)
H113 H 0.0539 0.4735 0.1834
C115 C 0.05535(9) 0.5849(4) 0.1679(3)
H114 H 0.0669 0.5940 0.1965
C116 C 0.04621(10) 0.6444(4) 0.1344(3)
H115 H 0.0514 0.6937 0.1400
C117 C 0.02943(10) 0.6299(4) 0.0929(3)
H116 H 0.0230 0.6694 0.0697
C118 C 0.02206(9) 0.5577(3) 0.0855(3)
H117 H 0.0104 0.5487 0.0572
C119 C 0.02376(8) 0.3868(3) 0.0452(2)
C120 C 0.03079(8) 0.4292(4) -0.0012(2)
H118 H 0.0341 0.4805 0.0049
C121 C 0.03295(9) 0.3956(4) -0.0571(3)
H119 H 0.0378 0.4246 -0.0886
C122 C 0.02820(10) 0.3219(4) -0.0668(3)
H120 H 0.0295 0.3001 -0.1049
C123 C 0.02146(10) 0.2798(4) -0.0210(3)
H121 H 0.0182 0.2285 -0.0274
C124 C 0.01942(9) 0.3112(4) 0.0340(3)
H122 H 0.0149 0.2810 0.0653
O9 O 0.18066(6) 0.4096(2) 0.28455(18)
H123 H 0.1739 0.3697 0.2873
C125 C 0.19617(12) 0.3996(4) 0.2442(4)
H124 H 0.2048 0.4447 0.2437
H125 H 0.1894 0.3903 0.2040
H126 H 0.2050 0.3569 0.2570
O10 O 0.15553(8) -0.2268(3) 0.2662(2)
H127 H 0.1471 -0.2457 0.2396
C126 C 0.17263(13) -0.2722(4) 0.2761(4)
H128 H 0.1836 -0.2459 0.3010
H129 H 0.1779 -0.2856 0.2378
H130 H 0.1686 -0.3176 0.2967
O11 O 0.12055(15) 0.7033(5) 0.2183(4)
H131 H 0.1140 0.6866 0.2465
C127 C 0.11017(13) 0.6806(5) 0.1624(3)
H132 H 0.0981 0.7133 0.1522
H133 H 0.1053 0.6290 0.1655
H134 H 0.1199 0.6840 0.1311
O12 O -0.0114(3) 0.1742(11) 0.1142(8)
C128 C 0.0072(4) 0.1411(15) 0.1373(12)
O13 O 0.0000 0.6587(12) 0.2500
C129 C 0.0000 0.7382(14) 0.2500
O14 O 0.0702(3) 0.7223(9) 0.2807(7)
O16 O 0.0967(4) 0.6931(11) 0.3594(9)
O17 O 0.0721(3) 0.2220(11) 0.5239(9)
O18 O 0.0927(4) -0.1122(13) 0.2219(10)
O20 O 0.0664(5) -0.0939(15) 0.1202(12)
O21 O -0.0154(5) 0.1581(15) -0.1372(12)
O22 O 0.0382(4) 0.7983(14) 0.2939(12)
O23 O 0.0268(4) 0.0433(16) 0.0377(12)
O15? O 0.0762(4) 0.6599(14) 0.3317(11)
O19? O 0.0757(4) -0.1436(15) 0.1887(12)
loop_
_geom_bond_atom_site_label_1
_geom_bond_atom_site_label_2
_geom_bond_site_symmetry_1
_geom_bond_site_symmetry_2
S1 O1 1_555 1_555
O2 S1 1_555 1_555
N1 S1 1_555 1_555
C1 N1 1_555 1_555
C2 C1 1_555 1_555
C3 C2 1_555 1_555
H1 C3 1_555 1_555
C4 C3 1_555 1_555
C5 C4 1_555 1_555
H2 C5 1_555 1_555
C6 C1 1_555 1_555
C7 C4 1_555 1_555
C8 C7 1_555 1_555
H3 C8 1_555 1_555
H4 C8 1_555 1_555
C9 C8 1_555 1_555
H5 C9 1_555 1_555
H6 C9 1_555 1_555
C10 C9 1_555 1_555
H7 C10 1_555 1_555
H8 C10 1_555 1_555
C11 C10 1_555 1_555
H9 C11 1_555 1_555
H10 C11 1_555 1_555
C12 C7 1_555 1_555
H11 C12 1_555 1_555
H12 C12 1_555 1_555
C13 C7 1_555 1_555
C14 C13 1_555 1_555
H13 C14 1_555 1_555
C15 C14 1_555 1_555
C16 C15 1_555 1_555
C17 C16 1_555 1_555
C18 C13 1_555 1_555
H14 C18 1_555 1_555
N2 C16 1_555 1_555
H15 N2 1_555 1_555
C19 N2 1_555 1_555
O3 C19 1_555 1_555
C20 C19 1_555 1_555
C21 C20 1_555 1_555
H16 C21 1_555 1_555
C22 C21 1_555 1_555
C23 C22 1_555 1_555
H17 C23 1_555 1_555
C24 C23 1_555 1_555
C25 C20 1_555 1_555
H18 C25 1_555 1_555
C26 C24 1_555 1_555
O4 C26 1_555 1_555
N3 C26 1_555 1_555
H19 N3 1_555 1_555
C27 N3 1_555 1_555
C28 C27 1_555 1_555
C29 C28 1_555 1_555
H20 C29 1_555 1_555
C30 C29 1_555 1_555
C31 C30 1_555 1_555
H21 C31 1_555 1_555
C32 C27 1_555 1_555
C33 C30 1_555 1_555
C34 C33 1_555 1_555
H22 C34 1_555 1_555
H23 C34 1_555 1_555
C35 C34 1_555 1_555
H24 C35 1_555 1_555
H25 C35 1_555 1_555
C36 C35 1_555 1_555
H26 C36 1_555 1_555
H27 C36 1_555 1_555
C37 C36 1_555 1_555
H28 C37 1_555 1_555
H29 C37 1_555 1_555
C38 C33 1_555 1_555
H30 C38 1_555 1_555
H31 C38 1_555 1_555
C39 C33 1_555 1_555
C40 C39 1_555 1_555
H32 C40 1_555 1_555
C41 C40 1_555 1_555
C42 C41 1_555 1_555
C43 C42 1_555 1_555
C44 C39 1_555 1_555
H33 C44 1_555 1_555
N4 C42 1_555 1_555
H34 N4 1_555 1_555
C45 N4 1_555 1_555
O5 C45 1_555 1_555
C46 C45 1_555 1_555
C47 C46 1_555 1_555
H35 C47 1_555 1_555
C48 C47 1_555 1_555
H36 C48 1_555 1_555
C49 C48 1_555 1_555
H37 C49 1_555 1_555
C50 S1 1_555 1_555
C51 C46 1_555 1_555
H38 C51 1_555 1_555
C52 C2 1_555 1_555
H39 C52 1_555 1_555
H40 C52 1_555 1_555
H41 C52 1_555 1_555
C53 C6 1_555 1_555
H42 C53 1_555 1_555
H43 C53 1_555 1_555
H44 C53 1_555 1_555
C54 C15 1_555 1_555
H45 C54 1_555 1_555
H46 C54 1_555 1_555
H47 C54 1_555 1_555
C55 C17 1_555 1_555
H48 C55 1_555 1_555
H49 C55 1_555 1_555
H50 C55 1_555 1_555
C56 C22 1_555 1_555
C57 C56 1_555 1_555
H51 C57 1_555 1_555
H52 C57 1_555 1_555
H53 C57 1_555 1_555
C58 C56 1_555 1_555
H54 C58 1_555 1_555
H55 C58 1_555 1_555
H56 C58 1_555 1_555
C59 C56 1_555 1_555
H57 C59 1_555 1_555
H58 C59 1_555 1_555
H59 C59 1_555 1_555
C60 C28 1_555 1_555
H60 C60 1_555 1_555
H61 C60 1_555 1_555
H62 C60 1_555 1_555
C61 C32 1_555 1_555
H63 C61 1_555 1_555
H64 C61 1_555 1_555
H65 C61 1_555 1_555
C62 C41 1_555 1_555
H66 C62 1_555 1_555
H67 C62 1_555 1_555
H68 C62 1_555 1_555
C63 C43 1_555 1_555
H69 C63 1_555 1_555
H70 C63 1_555 1_555
H71 C63 1_555 1_555
C64 N1 1_555 1_555
H72 C64 1_555 1_555
H73 C64 1_555 1_555
C65 C64 1_555 1_555
H74 C65 1_555 1_555
H75 C65 1_555 1_555
C66 C65 1_555 1_555
H76 C66 1_555 1_555
H77 C66 1_555 1_555
C67 C66 1_555 1_555
H78 C67 1_555 1_555
H79 C67 1_555 1_555
N5 C67 1_555 1_555
S2 N5 1_555 1_555
O6 S2 1_555 1_555
O7 S2 1_555 1_555
C68 S2 1_555 1_555
C69 C68 1_555 1_555
H80 C69 1_555 1_555
C70 C69 1_555 1_555
H81 C70 1_555 1_555
C71 C70 1_555 1_555
H82 C71 1_555 1_555
C72 C71 1_555 1_555
C73 C68 1_555 1_555
H83 C73 1_555 1_555
C74 C72 1_555 1_555
O8 C74 1_555 1_555
N6 C74 1_555 1_555
H84 N6 1_555 1_555
C75 N6 1_555 1_555
C76 C75 1_555 1_555
H85 C76 1_555 1_555
C77 C76 1_555 1_555
H86 C77 1_555 1_555
C78 C77 1_555 1_555
C79 C78 1_555 1_555
H87 C79 1_555 1_555
C80 C75 1_555 1_555
H88 C80 1_555 1_555
C81 C78 1_555 1_555
C82 C81 1_555 1_555
C83 C82 1_555 1_555
H89 C83 1_555 1_555
C84 C83 1_555 1_555
H90 C84 1_555 1_555
C85 C84 1_555 1_555
H91 C85 1_555 1_555
C86 C85 1_555 1_555
H92 C86 1_555 1_555
C87 C82 1_555 1_555
H93 C87 1_555 1_555
C88 C81 1_555 1_555
C89 C88 1_555 1_555
H94 C89 1_555 1_555
C90 C89 1_555 1_555
H95 C90 1_555 1_555
C91 C90 1_555 1_555
H96 C91 1_555 1_555
C92 C91 1_555 1_555
H97 C92 1_555 1_555
C93 C88 1_555 1_555
H98 C93 1_555 1_555
C94 C81 1_555 1_555
C95 C94 1_555 1_555
H99 C95 1_555 1_555
C96 C95 1_555 1_555
H100 C96 1_555 1_555
C97 C96 1_555 1_555
H101 C97 1_555 1_555
C98 C97 1_555 1_555
H102 C98 1_555 1_555
C99 C94 1_555 1_555
H103 C99 1_555 1_555
C100 N5 1_555 1_555
C101 C100 1_555 1_555
H104 C101 1_555 1_555
C102 C101 1_555 1_555
H105 C102 1_555 1_555
C103 C102 1_555 1_555
C104 C103 1_555 1_555
H106 C104 1_555 1_555
C105 C100 1_555 1_555
H107 C105 1_555 1_555
C106 C103 1_555 1_555
C107 C106 1_555 1_555
C108 C107 1_555 1_555
H108 C108 1_555 1_555
C109 C108 1_555 1_555
H109 C109 1_555 1_555
C110 C109 1_555 1_555
H110 C110 1_555 1_555
C111 C110 1_555 1_555
H111 C111 1_555 1_555
C112 C107 1_555 1_555
H112 C112 1_555 1_555
C113 C106 1_555 1_555
C114 C113 1_555 1_555
H113 C114 1_555 1_555
C115 C114 1_555 1_555
H114 C115 1_555 1_555
C116 C115 1_555 1_555
H115 C116 1_555 1_555
C117 C116 1_555 1_555
H116 C117 1_555 1_555
C118 C113 1_555 1_555
H117 C118 1_555 1_555
C119 C106 1_555 1_555
C120 C119 1_555 1_555
H118 C120 1_555 1_555
C121 C120 1_555 1_555
H119 C121 1_555 1_555
C122 C121 1_555 1_555
H120 C122 1_555 1_555
C123 C122 1_555 1_555
H121 C123 1_555 1_555
C124 C119 1_555 1_555
H122 C124 1_555 1_555
O9 H123 1_555 1_555
C125 O9 1_555 1_555
H124 C125 1_555 1_555
H125 C125 1_555 1_555
H126 C125 1_555 1_555
O10 H127 1_555 1_555
C126 O10 1_555 1_555
H128 C126 1_555 1_555
H129 C126 1_555 1_555
H130 C126 1_555 1_555
O11 H131 1_555 1_555
C127 O11 1_555 1_555
H132 C127 1_555 1_555
H133 C127 1_555 1_555
H134 C127 1_555 1_555
O12 C128 1_555 1_555
O13 C129 1_555 1_555
C5 C6 1_555 1_555
C11 C12 1_555 1_555
C17 C18 1_555 1_555
C24 C25 1_555 1_555
C31 C32 1_555 1_555
C37 C38 1_555 1_555
C43 C44 1_555 1_555
C49 C50 1_555 1_555
C50 C51 1_555 1_555
C72 C73 1_555 1_555
C79 C80 1_555 1_555
C86 C87 1_555 1_555
C92 C93 1_555 1_555
C98 C99 1_555 1_555
C104 C105 1_555 1_555
C111 C112 1_555 1_555
C117 C118 1_555 1_555
C123 C124 1_555 1_555

#END
