
#######################################################################
#
#                 Cambridge Crystallographic Data Centre
#                                CCDC 
#
#######################################################################
#
# If this CIF has been generated from an entry in the Cambridge 
# Structural Database, then it will include bibliographic, chemical, 
# crystal, experimental, refinement or atomic coordinate data resulting 
# from the CCDC's data processing and validation procedures.
#
#######################################################################

data_LOFYAG
_chemical_formula_moiety         
'C128 H122 N6 O8 S2,5(C1 H2 Cl2),2.5(C1 H4 O1),2.5(H2 O1)'
_chemical_name_systematic        
"(1)(Dispiro(cyclohexane-1,1'-(24'-(N-(4-(triphenylmethyl)phenyl)-N-(3-(4-(triphenylmethyl)phenylaminocarbonyl)phenylsulfonyl)-m-xylylamine)-10'-t-butyl-4',16',22',34',38',40',43',45'-octamethyl-7',13',25',25',31'-pentaoxo-25'-thia-6',14',24',32'-tetra-azaheptacyclo(17.17.2^2,5^.2^15,18^.2^20,23^.2^33,36^.1^8,12^.1^26,30^)hexatetraconta-2',4',8',10',12'(39'),15',17',20',22',26',28',30'(44'),33',35',37',40',42',45'-octadecaene)-19',1''-cyclohexane))-rotaxane dichloromethane methanol solvate hydrate"
_symmetry_cell_setting           monoclinic
_symmetry_space_group_name_H-M   'P 21/c'
_symmetry_Int_Tables_number      14
_space_group_name_Hall           '-P 2ybc'
loop_
_symmetry_equiv_pos_site_id
_symmetry_equiv_pos_as_xyz
1 x,y,z
2 x,1/2-y,1/2+z
3 -x,-y,-z
4 -x,1/2+y,1/2-z
_cell_length_a                   38.3352(10)
_cell_length_b                   25.2610(9)
_cell_length_c                   27.9598(14)
_cell_angle_alpha                90
_cell_angle_beta                 107.476(2)
_cell_angle_gamma                90
_cell_volume                     25826.1
_exptl_crystal_colour            colorless
_exptl_crystal_description       plates
_cell_formula_units_Z            8
loop_
_atom_site_label
_atom_site_type_symbol
_atom_site_fract_x
_atom_site_fract_y
_atom_site_fract_z
S1 S 0.65516(8) 0.17068(12) 0.56306(11)
O1 O 0.6876(2) 0.1558(4) 0.6019(3)
O2 O 0.6421(2) 0.1384(3) 0.5189(3)
N1 N 0.6596(2) 0.2303(3) 0.5435(3)
C1 C 0.6570(2) 0.2374(4) 0.4905(3)
C2 C 0.6249(2) 0.2578(4) 0.4575(3)
C3 C 0.6220(3) 0.2592(4) 0.4064(3)
H1 H 0.6000 0.2721 0.3835
C4 C 0.6507(2) 0.2418(4) 0.3877(3)
C5 C 0.6828(3) 0.2242(5) 0.4237(4)
H2 H 0.7028 0.2131 0.4127
C6 C 0.6865(3) 0.2221(4) 0.4742(4)
C7 C 0.6470(2) 0.2386(4) 0.3315(3)
C8 C 0.6524(3) 0.1821(5) 0.3183(4)
H3 H 0.6321 0.1602 0.3223
H4 H 0.6755 0.1684 0.3415
C9 C 0.6538(4) 0.1777(6) 0.2620(5)
H5 H 0.6576 0.1403 0.2543
H6 H 0.6301 0.1894 0.2388
C10 C 0.6836(4) 0.2107(8) 0.2538(5)
H7 H 0.7076 0.1965 0.2740
H8 H 0.6826 0.2091 0.2180
C11 C 0.6801(3) 0.2654(6) 0.2679(4)
H9 H 0.6577 0.2807 0.2444
H10 H 0.7013 0.2858 0.2644
C12 C 0.6783(2) 0.2714(5) 0.3218(4)
H11 H 0.6747 0.3093 0.3283
H12 H 0.7019 0.2601 0.3456
C13 C 0.6092(2) 0.2619(4) 0.3036(3)
C14 C 0.6029(2) 0.3156(4) 0.2982(3)
H13 H 0.6233 0.3388 0.3068
C15 C 0.5686(2) 0.3370(4) 0.2810(3)
C16 C 0.5387(2) 0.3011(4) 0.2679(3)
C17 C 0.5433(3) 0.2470(5) 0.2722(4)
C18 C 0.5786(3) 0.2283(5) 0.2890(4)
H14 H 0.5825 0.1911 0.2908
N2 N 0.50186(19) 0.3236(4) 0.2526(3)
H15 H 0.4921 0.3349 0.2755
C19 C 0.4830(3) 0.3271(5) 0.2045(4)
O3 O 0.4950(2) 0.3130(4) 0.1711(3)
C20 C 0.4453(3) 0.3525(5) 0.1930(4)
C21 C 0.4300(3) 0.3751(5) 0.1476(4)
H16 H 0.4429 0.3741 0.1234
C22 C 0.3952(3) 0.4001(5) 0.1349(4)
C23 C 0.3780(3) 0.4016(5) 0.1719(4)
H17 H 0.3551 0.4190 0.1655
C24 C 0.3939(3) 0.3780(5) 0.2184(4)
C25 C 0.4270(2) 0.3527(4) 0.2295(4)
H18 H 0.4372 0.3358 0.2609
C26 C 0.3729(3) 0.3786(5) 0.2574(4)
O4 O 0.33919(19) 0.3842(4) 0.2433(3)
N3 N 0.3930(2) 0.3708(4) 0.3029(3)
H19 H 0.4169 0.3722 0.3087
C27 C 0.3799(2) 0.3599(4) 0.3446(4)
C28 C 0.3935(2) 0.3912(4) 0.3877(4)
C29 C 0.3844(2) 0.3774(4) 0.4304(4)
H20 H 0.3945 0.3970 0.4604
C30 C 0.3607(2) 0.3358(4) 0.4307(4)
C31 C 0.3462(3) 0.3073(4) 0.3862(4)
H21 H 0.3293 0.2796 0.3855
C32 C 0.3555(3) 0.3180(4) 0.3433(4)
C33 C 0.3551(3) 0.3180(4) 0.4804(4)
C34 C 0.3469(3) 0.3673(4) 0.5083(5)
H22 H 0.3687 0.3904 0.5176
H23 H 0.3266 0.3874 0.4851
C35 C 0.3368(3) 0.3546(4) 0.5540(5)
H24 H 0.3302 0.3877 0.5683
H25 H 0.3581 0.3388 0.5793
C36 C 0.3038(3) 0.3152(5) 0.5429(5)
H26 H 0.2985 0.3062 0.5745
H27 H 0.2818 0.3318 0.5199
C37 C 0.3131(4) 0.2666(5) 0.5198(5)
H28 H 0.2922 0.2417 0.5122
H29 H 0.3344 0.2490 0.5437
C38 C 0.3224(3) 0.2801(5) 0.4707(5)
H30 H 0.3281 0.2470 0.4556
H31 H 0.3009 0.2965 0.4464
C39 C 0.3914(3) 0.2909(4) 0.5079(4)
C40 C 0.4190(3) 0.3148(4) 0.5455(4)
H32 H 0.4145 0.3486 0.5573
C41 C 0.4527(3) 0.2918(4) 0.5668(4)
C42 C 0.4589(3) 0.2416(4) 0.5497(4)
C43 C 0.4330(3) 0.2158(4) 0.5115(4)
C44 C 0.4000(3) 0.2410(4) 0.4908(4)
H33 H 0.3822 0.2242 0.4639
N4 N 0.4936(2) 0.2175(3) 0.5731(3)
H34 H 0.4969 0.2017 0.6022
C45 C 0.5216(3) 0.2176(4) 0.5530(4)
O5 O 0.51851(18) 0.2343(3) 0.5110(3)
C46 C 0.5577(3) 0.1981(4) 0.5856(3)
C47 C 0.5669(3) 0.1931(4) 0.6382(4)
H35 H 0.5488 0.1999 0.6544
C48 C 0.6012(3) 0.1786(5) 0.6661(4)
H36 H 0.6066 0.1742 0.7013
C49 C 0.6284(3) 0.1703(5) 0.6433(4)
H37 H 0.6525 0.1608 0.6628
C50 C 0.6200(3) 0.1760(4) 0.5916(4)
C51 C 0.5852(3) 0.1891(4) 0.5633(3)
H38 H 0.5797 0.1920 0.5279
C52 C 0.5924(3) 0.2768(4) 0.4723(4)
H39 H 0.5887 0.3146 0.4648
H40 H 0.5968 0.2709 0.5082
H41 H 0.5706 0.2571 0.4533
C53 C 0.7217(3) 0.2004(6) 0.5096(4)
H42 H 0.7399 0.1966 0.4916
H43 H 0.7170 0.1658 0.5222
H44 H 0.7309 0.2248 0.5378
C54 C 0.5627(3) 0.3952(5) 0.2764(4)
H45 H 0.5845 0.4135 0.2972
H46 H 0.5416 0.4047 0.2877
H47 H 0.5579 0.4057 0.2413
C55 C 0.5112(3) 0.2091(5) 0.2613(5)
H48 H 0.4990 0.2126 0.2873
H49 H 0.5200 0.1727 0.2610
H50 H 0.4938 0.2174 0.2285
C56 C 0.3784(4) 0.4229(6) 0.0830(5)
C57 C 0.3650(4) 0.3772(6) 0.0454(5)
H51 H 0.3538 0.3918 0.0118
H52 H 0.3469 0.3561 0.0554
H53 H 0.3858 0.3548 0.0451
C58 C 0.3451(5) 0.4586(9) 0.0830(7)
H54 H 0.3345 0.4740 0.0496
H55 H 0.3534 0.4871 0.1076
H56 H 0.3266 0.4372 0.0919
C59 C 0.4067(5) 0.4567(6) 0.0674(6)
H57 H 0.3952 0.4721 0.0342
H58 H 0.4273 0.4343 0.0662
H59 H 0.4155 0.4851 0.0919
C60 C 0.4180(3) 0.4386(4) 0.3876(4)
H60 H 0.4266 0.4537 0.4213
H61 H 0.4041 0.4653 0.3641
H62 H 0.4390 0.4271 0.3771
C61 C 0.3411(3) 0.2824(5) 0.2985(4)
H63 H 0.3311 0.2501 0.3086
H64 H 0.3610 0.2732 0.2849
H65 H 0.3218 0.3009 0.2728
C62 C 0.4835(3) 0.3194(5) 0.6058(4)
H66 H 0.4911 0.2977 0.6363
H67 H 0.4750 0.3539 0.6138
H68 H 0.5042 0.3244 0.5927
C63 C 0.4402(3) 0.1634(5) 0.4923(5)
H69 H 0.4175 0.1497 0.4690
H70 H 0.4490 0.1388 0.5204
H71 H 0.4587 0.1672 0.4749
C64 C 0.6784(3) 0.2715(4) 0.5805(4)
H72 H 0.6988 0.2866 0.5700
H73 H 0.6890 0.2546 0.6136
C65 C 0.6533(2) 0.3160(4) 0.5858(3)
C66 C 0.6316(3) 0.3100(5) 0.6184(3)
H74 H 0.6329 0.2781 0.6369
C67 C 0.6086(3) 0.3500(5) 0.6236(4)
H75 H 0.5941 0.3455 0.6455
C68 C 0.6064(3) 0.3970(4) 0.5970(3)
H76 H 0.5903 0.4241 0.6008
C69 C 0.6277(2) 0.4048(4) 0.5646(3)
C70 C 0.6510(2) 0.3632(4) 0.5603(3)
H77 H 0.6658 0.3678 0.5388
C71 C 0.6268(3) 0.4565(4) 0.5378(3)
H78 H 0.6106 0.4815 0.5483
H79 H 0.6517 0.4719 0.5474
N5 N 0.61334(19) 0.4497(3) 0.4824(3)
S2 S 0.57459(6) 0.47941(9) 0.45261(9)
O6 O 0.57169(16) 0.4774(3) 0.4002(2)
O7 O 0.57158(17) 0.5291(3) 0.4757(3)
C72 C 0.5408(2) 0.4369(4) 0.4621(3)
C73 C 0.5276(2) 0.4433(4) 0.5039(3)
H80 H 0.5364 0.4714 0.5269
C74 C 0.5021(2) 0.4087(4) 0.5109(4)
H81 H 0.4933 0.4125 0.5391
C75 C 0.4891(2) 0.3678(4) 0.4767(3)
H82 H 0.4723 0.3428 0.4824
C76 C 0.5007(2) 0.3634(4) 0.4348(3)
C77 C 0.5268(2) 0.3982(4) 0.4270(3)
H83 H 0.5347 0.3952 0.3980
C78 C 0.4849(2) 0.3224(4) 0.3948(4)
O8 O 0.47582(16) 0.3338(2) 0.3499(2)
N6 N 0.48235(19) 0.2738(3) 0.4132(3)
H84 H 0.4910 0.2697 0.4459
C79 C 0.4668(3) 0.2285(4) 0.3842(4)
C80 C 0.4849(3) 0.1799(4) 0.3956(4)
H85 H 0.5081 0.1782 0.4204
C81 C 0.4693(3) 0.1344(4) 0.3712(4)
H86 H 0.4815 0.1014 0.3795
C82 C 0.4356(3) 0.1368(4) 0.3343(4)
C83 C 0.4184(3) 0.1842(4) 0.3221(4)
H87 H 0.3956 0.1860 0.2965
C84 C 0.4343(3) 0.2310(4) 0.3475(4)
H88 H 0.4222 0.2641 0.3388
C85 C 0.4156(3) 0.0867(4) 0.3073(4)
C86 C 0.4133(2) 0.0872(4) 0.2509(4)
C87 C 0.4254(3) 0.1299(4) 0.2272(4)
H89 H 0.4347 0.1610 0.2456
C88 C 0.4236(3) 0.1263(5) 0.1777(4)
H90 H 0.4326 0.1548 0.1625
C89 C 0.4091(3) 0.0820(4) 0.1490(4)
H91 H 0.4072 0.0806 0.1144
C90 C 0.3972(2) 0.0400(4) 0.1721(4)
H92 H 0.3873 0.0093 0.1531
C91 C 0.3997(2) 0.0423(4) 0.2220(4)
H93 H 0.3920 0.0127 0.2373
C92 C 0.4359(3) 0.0345(4) 0.3298(4)
C93 C 0.4225(4) -0.0030(5) 0.3559(4)
H94 H 0.3993 0.0025 0.3608
C94 C 0.4419(4) -0.0481(5) 0.3751(5)
H95 H 0.4319 -0.0727 0.3930
C95 C 0.4749(4) -0.0581(6) 0.3688(5)
H96 H 0.4883 -0.0889 0.3830
C96 C 0.4892(4) -0.0219(5) 0.3408(4)
H97 H 0.5119 -0.0286 0.3350
C97 C 0.4695(3) 0.0236(5) 0.3218(4)
H98 H 0.4791 0.0478 0.3030
C98 C 0.3774(3) 0.0893(4) 0.3131(4)
C99 C 0.3739(4) 0.0960(5) 0.3612(5)
H99 H 0.3952 0.0965 0.3895
C100 C 0.3397(4) 0.1020(6) 0.3681(6)
H100 H 0.3383 0.1077 0.4010
C101 C 0.3080(4) 0.1000(6) 0.3293(5)
H101 H 0.2847 0.1023 0.3346
C102 C 0.3115(3) 0.0943(5) 0.2816(5)
H102 H 0.2901 0.0936 0.2535
C103 C 0.3451(3) 0.0898(4) 0.2740(4)
H103 H 0.3462 0.0869 0.2406
C104 C 0.6407(2) 0.4496(3) 0.4560(3)
C105 C 0.6629(2) 0.4927(4) 0.4583(3)
H104 H 0.6607 0.5222 0.4783
C106 C 0.6886(2) 0.4941(3) 0.4320(3)
H105 H 0.7043 0.5238 0.4351
C107 C 0.6911(2) 0.4520(3) 0.4012(3)
C108 C 0.6699(2) 0.4074(3) 0.4012(3)
H106 H 0.6729 0.3770 0.3828
C109 C 0.6445(2) 0.4064(4) 0.4276(3)
H107 H 0.6296 0.3759 0.4261
C110 C 0.7197(2) 0.4512(4) 0.3710(3)
C111 C 0.7017(2) 0.4486(3) 0.3141(3)
C112 C 0.6653(2) 0.4367(3) 0.2911(3)
H108 H 0.6497 0.4300 0.3112
C113 C 0.6510(3) 0.4344(4) 0.2392(4)
H109 H 0.6257 0.4271 0.2244
C114 C 0.6728(3) 0.4424(5) 0.2094(4)
H110 H 0.6631 0.4387 0.1741
C115 C 0.7092(3) 0.4559(5) 0.2308(4)
H111 H 0.7243 0.4638 0.2103
C116 C 0.7230(3) 0.4578(4) 0.2821(3)
H112 H 0.7482 0.4657 0.2966
C117 C 0.7416(2) 0.5033(4) 0.3807(3)
C118 C 0.7786(3) 0.5068(5) 0.4072(4)
H113 H 0.7914 0.4752 0.4199
C119 C 0.7970(4) 0.5529(6) 0.4157(5)
H114 H 0.8224 0.5536 0.4336
C120 C 0.7786(4) 0.5987(6) 0.3980(5)
H115 H 0.7912 0.6316 0.4041
C121 C 0.7403(4) 0.5974(5) 0.3703(5)
H116 H 0.7272 0.6291 0.3584
C122 C 0.7232(3) 0.5493(4) 0.3617(4)
H117 H 0.6982 0.5475 0.3423
C123 C 0.7448(2) 0.4023(4) 0.3908(3)
C124 C 0.7551(2) 0.3676(4) 0.3590(4)
H118 H 0.7470 0.3730 0.3238
C125 C 0.7771(3) 0.3252(4) 0.3790(4)
H119 H 0.7842 0.3017 0.3571
C126 C 0.7890(3) 0.3157(5) 0.4294(4)
H120 H 0.8039 0.2858 0.4422
C127 C 0.7793(3) 0.3493(4) 0.4608(4)
H121 H 0.7875 0.3430 0.4959
C128 C 0.7574(2) 0.3929(4) 0.4422(3)
H122 H 0.7510 0.4164 0.4647
S3 S 1.09829(6) 0.14471(8) 1.07478(7)
O9 O 1.07229(16) 0.1273(2) 1.0991(2)
O10 O 1.12701(16) 0.1087(2) 1.0729(2)
N7 N 1.11496(18) 0.2013(3) 1.1002(2)
C129 C 1.1149(2) 0.2116(3) 1.1518(3)
C130 C 1.0844(2) 0.2365(3) 1.1590(3)
C131 C 1.0826(2) 0.2445(3) 1.2079(3)
H123 H 1.0623 0.2630 1.2127
C132 C 1.1099(3) 0.2258(4) 1.2495(3)
C133 C 1.1403(2) 0.2019(4) 1.2405(3)
H124 H 1.1600 0.1911 1.2686
C134 C 1.1432(2) 0.1931(4) 1.1930(3)
C135 C 1.1060(3) 0.2295(4) 1.3024(3)
C136 C 1.1411(3) 0.2539(4) 1.3394(3)
H125 H 1.1627 0.2341 1.3367
H126 H 1.1436 0.2910 1.3294
C137 C 1.1408(3) 0.2530(5) 1.3943(3)
H127 H 1.1636 0.2688 1.4162
H128 H 1.1200 0.2743 1.3978
C138 C 1.1372(4) 0.1965(5) 1.4104(4)
H129 H 1.1589 0.1759 1.4091
H130 H 1.1363 0.1962 1.4454
C139 C 1.1030(4) 0.1712(5) 1.3763(3)
H131 H 1.0812 0.1906 1.3791
H132 H 1.1012 0.1342 1.3870
C140 C 1.1034(3) 0.1720(4) 1.3210(3)
H133 H 1.0809 0.1550 1.2995
H134 H 1.1246 0.1512 1.3181
C141 C 1.0720(2) 0.2618(4) 1.2996(3)
C142 C 1.0374(3) 0.2395(4) 1.2899(3)
H135 H 1.0356 0.2022 1.2931
C143 C 1.0054(3) 0.2688(4) 1.2756(3)
C144 C 1.0081(2) 0.3236(4) 1.2734(3)
C145 C 1.0419(2) 0.3482(4) 1.2850(3)
C146 C 1.0728(3) 0.3169(4) 1.2979(3)
H136 H 1.0959 0.3339 1.3061
N8 N 0.9753(2) 0.3540(4) 1.2556(3)
H137 H 0.9702 0.3680 1.2255
C147 C 0.9515(3) 0.3628(4) 1.2824(3)
O11 O 0.95734(18) 0.3465(3) 1.3254(2)
C148 C 0.9182(3) 0.3938(4) 1.2559(3)
C149 C 0.9017(3) 0.4248(4) 1.2834(4)
H138 H 0.9122 0.4256 1.3188
C150 C 0.8708(3) 0.4547(4) 1.2623(4)
C151 C 0.8569(3) 0.4511(5) 1.2105(4)
H139 H 0.8360 0.4717 1.1940
C152 C 0.8718(3) 0.4192(4) 1.1817(3)
C153 C 0.9029(3) 0.3904(4) 1.2047(3)
H140 H 0.9136 0.3684 1.1854
C154 C 0.8542(3) 0.4182(5) 1.1253(4)
O12 O 0.8219(2) 0.4300(4) 1.1063(3)
N9 N 0.8751(2) 0.3997(3) 1.0982(3)
H141 H 0.8981 0.3922 1.1141
C155 C 0.8627(2) 0.3917(4) 1.0456(3)
C156 C 0.8381(2) 0.3499(4) 1.0263(3)
C157 C 0.8274(2) 0.3410(4) 0.9745(3)
H142 H 0.8101 0.3138 0.9611
C158 C 0.8410(2) 0.3704(3) 0.9419(3)
C159 C 0.8654(2) 0.4109(3) 0.9630(3)
H143 H 0.8749 0.4318 0.9416
C160 C 0.8762(2) 0.4219(4) 1.0136(3)
C161 C 0.8326(2) 0.3554(3) 0.8862(3)
C162 C 0.8287(2) 0.4046(3) 0.8527(3)
H144 H 0.8519 0.4246 0.8628
H145 H 0.8094 0.4277 0.8582
C163 C 0.8188(4) 0.3912(7) 0.7956(5)
H148 H 0.8160 0.4246 0.7763
H149 H 0.8392 0.3710 0.7895
C164 C 0.7840(4) 0.3593(6) 0.7774(6)
H150 H 0.7802 0.3483 0.7423
H151 H 0.7629 0.3813 0.7786
C165 C 0.7864(5) 0.3109(6) 0.8101(5)
H152 H 0.8053 0.2866 0.8050
H153 H 0.7627 0.2920 0.7997
C166 C 0.7960(2) 0.3251(4) 0.8664(3)
H154 H 0.7761 0.3471 0.8717
H155 H 0.7974 0.2922 0.8860
C170 C 0.8657(2) 0.3205(3) 0.8846(3)
C171 C 0.8977(2) 0.3428(3) 0.8813(3)
H164 H 0.8984 0.3799 0.8760
C172 C 0.9287(2) 0.3137(3) 0.8852(3)
C173 C 0.9279(2) 0.2594(3) 0.8944(3)
C174 C 0.8962(2) 0.2339(3) 0.8967(3)
C175 C 0.8656(2) 0.2667(3) 0.8915(3)
H165 H 0.8435 0.2506 0.8927
N10 N 0.96120(18) 0.2288(3) 0.9033(2)
H166 H 0.9638 0.2070 0.8801
C176 C 0.9880(2) 0.2334(3) 0.9468(3)
O13 O 0.98538(15) 0.2629(2) 0.9810(2)
C177 C 1.0221(2) 0.2010(3) 0.9533(3)
C178 C 1.0338(2) 0.1844(3) 0.9141(3)
H167 H 1.0197 0.1917 0.8805
C179 C 1.0670(2) 0.1564(4) 0.9244(3)
H168 H 1.0755 0.1456 0.8974
C180 C 1.0871(2) 0.1445(3) 0.9725(3)
H169 H 1.1093 0.1251 0.9790
C181 C 1.0745(2) 0.1613(3) 1.0118(3)
C182 C 1.0421(2) 0.1888(3) 1.0026(3)
H170 H 1.0333 0.1993 1.0296
C183 C 1.0525(2) 0.2560(4) 1.1163(3)
H171 H 1.0615 0.2693 1.0892
H172 H 1.0400 0.2845 1.1282
H173 H 1.0354 0.2267 1.1037
C184 C 1.1769(3) 0.1658(4) 1.1882(4)
H174 H 1.1702 0.1421 1.1591
H175 H 1.1883 0.1452 1.2186
H176 H 1.1943 0.1924 1.1837
C185 C 0.9687(3) 0.2406(5) 1.2621(4)
H177 H 0.9575 0.2458 1.2890
H178 H 0.9723 0.2027 1.2580
H179 H 0.9526 0.2551 1.2307
C186 C 1.0447(3) 0.4083(4) 1.2832(4)
H180 H 1.0291 0.4243 1.3014
H181 H 1.0365 0.4202 1.2482
H182 H 1.0701 0.4191 1.2988
C187 C 0.8546(3) 0.4895(5) 1.2929(4)
C188 C 0.8170(4) 0.5114(7) 1.2620(7)
H183 H 0.8026 0.4831 1.2412
H184 H 0.8204 0.5402 1.2404
H185 H 0.8039 0.5248 1.2848
C189 C 0.8759(5) 0.5290(7) 1.3246(7)
H186 H 0.8998 0.5142 1.3432
H187 H 0.8633 0.5412 1.3482
C190 C 0.8405(6) 0.4511(8) 1.3290(7)
H189 H 0.8238 0.4247 1.3087
H190 H 0.8276 0.4721 1.3479
H191 H 0.8614 0.4333 1.3524
C194 C 0.8234(3) 0.3143(5) 1.0603(4)
H201 H 0.8440 0.2993 1.0867
H202 H 0.8089 0.2856 1.0404
H203 H 0.8081 0.3353 1.0756
C195 C 0.9025(3) 0.4679(4) 1.0350(4)
H204 H 0.8901 0.4945 1.0496
H205 H 0.9103 0.4842 1.0081
H206 H 0.9240 0.4545 1.0610
C196 C 0.9636(2) 0.3396(4) 0.8811(3)
H207 H 0.9584 0.3763 0.8698
H208 H 0.9726 0.3200 0.8570
H209 H 0.9822 0.3392 0.9140
C197 C 0.8956(3) 0.1750(4) 0.9062(5)
H210 H 0.8711 0.1644 0.9067
H211 H 0.9134 0.1666 0.9387
H212 H 0.9020 0.1558 0.8796
C198 C 1.1438(3) 0.2237(4) 1.0816(4)
H213 H 1.1647 0.1988 1.0904
H214 H 1.1344 0.2249 1.0445
C199 C 1.1575(3) 0.2752(5) 1.0989(5)
C200 C 1.1941(3) 0.2868(6) 1.1216(6)
H215 H 1.2111 0.2584 1.1306
C201 C 1.2068(3) 0.3382(6) 1.1317(6)
H216 H 1.2322 0.3447 1.1464
C202 C 1.1823(3) 0.3800(5) 1.1201(5)
H217 H 1.1906 0.4153 1.1277
C203 C 1.1451(3) 0.3696(5) 1.0972(5)
C204 C 1.1324(3) 0.3212(4) 1.0855(4)
H218 H 1.1072 0.3159 1.0686
C205 C 1.1189(3) 0.4183(4) 1.0868(4)
H219 H 1.1326 0.4509 1.0845
H220 H 1.0992 0.4135 1.0547
N11 N 1.10259(18) 0.4224(3) 1.1298(3)
S4 S 1.06909(6) 0.46580(8) 1.12231(9)
O14 O 1.06137(16) 0.4680(2) 1.1694(2)
O15 O 1.07638(17) 0.5135(2) 1.1000(3)
C206 C 1.0322(2) 0.4343(3) 1.0783(3)
C207 C 1.0232(2) 0.4460(4) 1.0272(3)
H221 H 1.0375 0.4704 1.0153
C208 C 0.9936(2) 0.4221(4) 0.9944(4)
H222 H 0.9873 0.4304 0.9597
C209 C 0.9728(2) 0.3857(3) 1.0112(3)
H223 H 0.9525 0.3689 0.9880
C210 C 0.9815(2) 0.3741(3) 1.0613(3)
C211 C 1.0110(2) 0.3995(3) 1.0960(3)
H224 H 1.0164 0.3928 1.1309
C212 C 0.9594(2) 0.3359(3) 1.0825(3)
O16 O 0.95179(18) 0.3445(3) 1.1217(2)
N12 N 0.94914(19) 0.2913(3) 1.0548(3)
H225 H 0.9540 0.2893 1.0260
C213 C 0.9310(2) 0.2472(3) 1.0693(3)
C214 C 0.9472(2) 0.2194(3) 1.1117(3)
H226 H 0.9707 0.2297 1.1327
C215 C 0.9300(2) 0.1763(3) 1.1246(3)
H227 H 0.9422 0.1562 1.1535
C216 C 0.8945(2) 0.1616(3) 1.0955(3)
C217 C 0.8787(2) 0.1908(4) 1.0532(3)
H228 H 0.8547 0.1819 1.0331
C218 C 0.8966(3) 0.2328(4) 1.0389(3)
H229 H 0.8854 0.2514 1.0086
C219 C 0.8766(2) 0.1105(3) 1.1078(3)
C220 C 0.8879(2) 0.0683(4) 1.0758(3)
C221 C 0.8695(2) 0.0624(4) 1.0250(3)
H230 H 0.8478 0.0822 1.0106
C222 C 0.8818(3) 0.0287(4) 0.9948(4)
H231 H 0.8693 0.0272 0.9599
C223 C 0.9117(3) -0.0027(4) 1.0145(4)
H232 H 0.9193 -0.0269 0.9935
C224 C 0.9309(3) 0.0007(4) 1.0650(4)
H233 H 0.9517 -0.0212 1.0790
C225 C 0.9192(2) 0.0375(3) 1.0958(3)
H234 H 0.9327 0.0411 1.1302
C226 C 0.8876(2) 0.0968(3) 1.1646(3)
C227 C 0.8863(2) 0.0455(4) 1.1805(3)
H235 H 0.8803 0.0177 1.1566
C228 C 0.8935(2) 0.0340(4) 1.2310(3)
H236 H 0.8928 -0.0017 1.2413
C229 C 0.9017(3) 0.0733(4) 1.2659(3)
H237 H 0.9074 0.0651 1.3006
C230 C 0.9015(2) 0.1248(4) 1.2506(3)
H238 H 0.9062 0.1524 1.2747
C231 C 0.8947(2) 0.1369(4) 1.2004(3)
H239 H 0.8947 0.1728 1.1903
C232 C 0.8344(2) 0.1167(3) 1.0943(3)
C233 C 0.8106(2) 0.0728(4) 1.0786(3)
H240 H 0.8202 0.0397 1.0726
C234 C 0.7738(2) 0.0780(4) 1.0720(3)
H241 H 0.7581 0.0485 1.0608
C235 C 0.7592(3) 0.1262(4) 1.0815(4)
H242 H 0.7337 0.1294 1.0775
C236 C 0.7821(2) 0.1689(4) 1.0968(4)
H243 H 0.7723 0.2019 1.1026
C237 C 0.8190(2) 0.1643(4) 1.1038(3)
H244 H 0.8344 0.1940 1.1152
C238 C 1.1291(2) 0.4200(3) 1.1791(3)
C239 C 1.1302(2) 0.3758(3) 1.2076(3)
H245 H 1.1121 0.3491 1.1966
C240 C 1.1578(2) 0.3701(4) 1.2528(3)
H246 H 1.1587 0.3389 1.2720
C241 C 1.1842(2) 0.4091(3) 1.2705(3)
C242 C 1.1816(2) 0.4544(3) 1.2415(3)
H247 H 1.1987 0.4824 1.2529
C243 C 1.1545(2) 0.4592(3) 1.1962(3)
H248 H 1.1534 0.4903 1.1766
C244 C 1.2149(2) 0.3996(4) 1.3216(4)
C245 C 1.2270(2) 0.3421(4) 1.3222(4)
C246 C 1.2349(3) 0.3217(5) 1.2795(4)
H249 H 1.2332 0.3445 1.2519
C247 C 1.2450(3) 0.2697(5) 1.2768(6)
H250 H 1.2502 0.2569 1.2477
C248 C 1.2476(3) 0.2363(5) 1.3169(6)
H251 H 1.2543 0.2003 1.3150
C249 C 1.2408(3) 0.2541(5) 1.3588(6)
H252 H 1.2431 0.2309 1.3863
C250 C 1.2303(3) 0.3073(4) 1.3616(4)
H253 H 1.2253 0.3194 1.3910
C251 C 1.1995(2) 0.4108(3) 1.3668(3)
C252 C 1.1622(2) 0.4150(4) 1.3613(4)
H254 H 1.1449 0.4120 1.3289
C253 C 1.1501(3) 0.4235(4) 1.4028(4)
H255 H 1.1247 0.4276 1.3985
C254 C 1.1749(3) 0.4259(4) 1.4502(4)
H256 H 1.1664 0.4304 1.4786
C255 C 1.2113(3) 0.4221(5) 1.4566(4)
H257 H 1.2282 0.4248 1.4893
C256 C 1.2239(3) 0.4141(4) 1.4149(4)
H258 H 1.2494 0.4110 1.4195
C257 C 1.2468(2) 0.4387(4) 1.3269(3)
C258 C 1.2811(2) 0.4243(4) 1.3235(4)
H259 H 1.2859 0.3882 1.3186
C259 C 1.3079(3) 0.4615(5) 1.3272(4)
H260 H 1.3309 0.4505 1.3243
C260 C 1.3026(3) 0.5137(5) 1.3349(4)
H261 H 1.3217 0.5387 1.3376
C261 C 1.2690(3) 0.5298(4) 1.3388(4)
H262 H 1.2646 0.5661 1.3436
C262 C 1.2417(2) 0.4926(4) 1.3357(4)
H263 H 1.2191 0.5038 1.3396
C263 C 1.0090(2) 0.5763(3) 1.4858(3)
H264 H 0.9823 0.5824 1.4721
H265 H 1.0149 0.5435 1.4705
Cl1 Cl 1.03215(7) 0.62940(10) 1.46909(10)
Cl2 Cl 1.02017(9) 0.56744(12) 1.55060(11)
C264 C 1.4985(3) 0.5164(5) 1.3138(4)
H266 H 1.5241 0.5043 1.3278
H267 H 1.4984 0.5468 1.2915
Cl3 Cl 1.47278(11) 0.46559(17) 1.27862(17)
Cl4 Cl 1.48263(13) 0.5372(2) 1.3625(2)
C265 C 1.0195(5) 0.4157(3) 1.6570(4)
H268 H 0.9984 0.4074 1.6274
H269 H 1.0420 0.4063 1.6486
Cl5 Cl 1.01986(11) 0.48265(15) 1.66841(17)
Cl6 Cl 1.01682(14) 0.37688(18) 1.70631(16)
C266 C 1.3238(2) 0.2218(4) 1.6559(6)
H270 H 1.3159 0.2115 1.6200
H271 H 1.3280 0.1888 1.6760
Cl7 Cl 1.28891(14) 0.2568(2) 1.6684(2)
Cl8 Cl 1.36451(13) 0.2562(3) 1.6685(2)
C267 C 1.1946(3) 0.4425(9) 1.8906(8)
H272 H 1.2050 0.4776 1.8867
H273 H 1.2055 0.4311 1.9258
Cl9 Cl 1.1477(2) 0.4490(3) 1.8789(4)
Cl10 Cl 1.20684(14) 0.3978(3) 1.8517(3)
C268 C 1.3949(6) 0.5426(9) 1.2245(6)
H274 H 1.3804 0.5581 1.1921
H275 H 1.4092 0.5127 1.2171
Cl11 Cl 1.4250(2) 0.5903(4) 1.2586(4)
Cl12 Cl 1.3654(3) 0.5186(4) 1.2557(4)
C269 C 0.6908(3) 0.0278(6) 0.5743(9)
H276 H 0.6948 0.0593 0.5556
H277 H 0.7021 0.0352 0.6105
Cl13 Cl 0.6444(3) 0.0192(4) 0.5630(4)
Cl14 Cl 0.7130(3) -0.0253(6) 0.5580(6)
C270 C 0.7818(4) 0.4627(7) 0.9886(8)
H278 H 0.7966 0.4339 0.9804
H279 H 0.7853 0.4614 1.0251
Cl15 Cl 0.7979(3) 0.5229(4) 0.9742(4)
Cl16 Cl 0.7361(3) 0.4510(5) 0.9573(5)
C271 C 0.9897(3) 0.5287(4) 1.1826(4)
H280 H 1.0125 0.5082 1.1874
H281 H 0.9948 0.5583 1.2069
Cl17 Cl 0.95501(18) 0.4873(3) 1.1923(2)
Cl18 Cl 0.9740(2) 0.5537(3) 1.1202(3)
C272 C 1.2163(4) 0.3198(4) 1.0207(8)
H284 H 1.2066 0.3340 0.9863
H285 H 1.1992 0.3302 1.0394
Cl21 Cl 1.2168(2) 0.2516(3) 1.0173(3)
Cl22 Cl 1.2581(4) 0.3491(4) 1.0489(5)
O17 O 0.4713(2) -0.0776(4) 0.5097(3)
C273 C 0.4413(3) -0.0888(4) 0.5369(4)
O18 O 0.7565(3) 0.2322(5) 0.6867(4)
C274 C 0.7823(4) 0.2589(6) 0.7329(5)
O19 O 1.0527(4) 0.3251(6) 1.0143(5)
C275 C 1.0710(5) 0.3329(7) 0.9731(6)
O20 O 0.4310(8) -0.0915(11) 0.6379(11)
C276 C 0.4367(6) -0.1378(8) 0.6049(8)
O22 O 0.8575(2) 0.2702(4) 1.2112(3)
C278 C 0.8660(10) 0.2749(15) 1.2675(7)
O23 O 0.5173(3) -0.0360(4) 0.5087(4)
O24 O 0.8362(3) 0.3223(4) 1.2841(3)
O25 O 0.2702(6) 0.4548(10) 0.1541(8)
O26 O 0.7633(5) 0.4239(8) 1.1457(7)
O29 O 1.2623(5) 0.3843(8) 0.9361(7)
O30 O 0.3532(4) -0.0887(6) 0.5861(5)
H146? H 0.8262 0.3934 0.8179
H147? H 0.8510 0.4265 0.8646
H156? H 0.7930 0.3138 0.8315
H157? H 0.7972 0.2928 0.8869
C167? C 0.7951(4) 0.4378(6) 0.8533(7)
H158? H 0.7984 0.4509 0.8877
H159? H 0.7932 0.4689 0.8311
C168? C 0.7600(4) 0.4063(6) 0.8360(6)
H160? H 0.7394 0.4284 0.8388
H161? H 0.7552 0.3964 0.8004
C169? C 0.7625(4) 0.3569(6) 0.8672(7)
H162? H 0.7402 0.3352 0.8536
H163? H 0.7643 0.3667 0.9022
H188? H 0.8794 0.5589 1.3042
C191? C 0.8755(5) 0.4876(8) 1.3484(5)
H192? H 0.9005 0.5006 1.3536
H193? H 0.8763 0.4511 1.3605
H194? H 0.8631 0.5101 1.3669
C192? C 0.8161(4) 0.4917(9) 1.2824(8)
H195? H 0.8046 0.4937 1.2460
H196? H 0.8095 0.5230 1.2983
H197? H 0.8076 0.4598 1.2954
C193? C 0.8671(6) 0.5485(6) 1.2815(8)
H198? H 0.8938 0.5496 1.2891
H199? H 0.8594 0.5743 1.3025
H200? H 0.8557 0.5571 1.2461
H282? H 1.0124 0.5221 1.1736
H283? H 0.9973 0.5369 1.2189
Cl19? Cl 0.9673(2) 0.4709(3) 1.1758(3)
Cl20? Cl 0.9714(2) 0.5842(3) 1.1528(3)
H286? H 1.2227 0.3303 1.0564
H287? H 1.1911 0.3324 1.0040
Cl23? Cl 1.2460(8) 0.3511(7) 0.9936(11)
O21? O 0.4313(6) -0.1012(9) 0.6330(8)
C277? C 0.4060(5) -0.0710(8) 0.6580(7)
C279? C 0.8523(13) 0.2487(19) 1.2582(12)
O27? O 0.7736(5) 0.3741(8) 1.1666(7)
O28? O 0.2515(7) 0.4897(10) 0.1902(9)
loop_
_geom_bond_atom_site_label_1
_geom_bond_atom_site_label_2
_geom_bond_site_symmetry_1
_geom_bond_site_symmetry_2
S1 O1 1_555 1_555
O2 S1 1_555 1_555
N1 S1 1_555 1_555
C1 N1 1_555 1_555
C2 C1 1_555 1_555
C3 C2 1_555 1_555
H1 C3 1_555 1_555
C4 C3 1_555 1_555
C5 C4 1_555 1_555
H2 C5 1_555 1_555
C6 C1 1_555 1_555
C7 C4 1_555 1_555
C8 C7 1_555 1_555
H3 C8 1_555 1_555
H4 C8 1_555 1_555
C9 C8 1_555 1_555
H5 C9 1_555 1_555
H6 C9 1_555 1_555
C10 C9 1_555 1_555
H7 C10 1_555 1_555
H8 C10 1_555 1_555
C11 C10 1_555 1_555
H9 C11 1_555 1_555
H10 C11 1_555 1_555
C12 C7 1_555 1_555
H11 C12 1_555 1_555
H12 C12 1_555 1_555
C13 C7 1_555 1_555
C14 C13 1_555 1_555
H13 C14 1_555 1_555
C15 C14 1_555 1_555
C16 C15 1_555 1_555
C17 C16 1_555 1_555
C18 C13 1_555 1_555
H14 C18 1_555 1_555
N2 C16 1_555 1_555
H15 N2 1_555 1_555
C19 N2 1_555 1_555
O3 C19 1_555 1_555
C20 C19 1_555 1_555
C21 C20 1_555 1_555
H16 C21 1_555 1_555
C22 C21 1_555 1_555
C23 C22 1_555 1_555
H17 C23 1_555 1_555
C24 C23 1_555 1_555
C25 C20 1_555 1_555
H18 C25 1_555 1_555
C26 C24 1_555 1_555
O4 C26 1_555 1_555
N3 C26 1_555 1_555
H19 N3 1_555 1_555
C27 N3 1_555 1_555
C28 C27 1_555 1_555
C29 C28 1_555 1_555
H20 C29 1_555 1_555
C30 C29 1_555 1_555
C31 C30 1_555 1_555
H21 C31 1_555 1_555
C32 C27 1_555 1_555
C33 C30 1_555 1_555
C34 C33 1_555 1_555
H22 C34 1_555 1_555
H23 C34 1_555 1_555
C35 C34 1_555 1_555
H24 C35 1_555 1_555
H25 C35 1_555 1_555
C36 C35 1_555 1_555
H26 C36 1_555 1_555
H27 C36 1_555 1_555
C37 C36 1_555 1_555
H28 C37 1_555 1_555
H29 C37 1_555 1_555
C38 C33 1_555 1_555
H30 C38 1_555 1_555
H31 C38 1_555 1_555
C39 C33 1_555 1_555
C40 C39 1_555 1_555
H32 C40 1_555 1_555
C41 C40 1_555 1_555
C42 C41 1_555 1_555
C43 C42 1_555 1_555
C44 C39 1_555 1_555
H33 C44 1_555 1_555
N4 C42 1_555 1_555
H34 N4 1_555 1_555
C45 N4 1_555 1_555
O5 C45 1_555 1_555
C46 C45 1_555 1_555
C47 C46 1_555 1_555
H35 C47 1_555 1_555
C48 C47 1_555 1_555
H36 C48 1_555 1_555
C49 C48 1_555 1_555
H37 C49 1_555 1_555
C50 S1 1_555 1_555
C51 C46 1_555 1_555
H38 C51 1_555 1_555
C52 C2 1_555 1_555
H39 C52 1_555 1_555
H40 C52 1_555 1_555
H41 C52 1_555 1_555
C53 C6 1_555 1_555
H42 C53 1_555 1_555
H43 C53 1_555 1_555
H44 C53 1_555 1_555
C54 C15 1_555 1_555
H45 C54 1_555 1_555
H46 C54 1_555 1_555
H47 C54 1_555 1_555
C55 C17 1_555 1_555
H48 C55 1_555 1_555
H49 C55 1_555 1_555
H50 C55 1_555 1_555
C56 C22 1_555 1_555
C57 C56 1_555 1_555
H51 C57 1_555 1_555
H52 C57 1_555 1_555
H53 C57 1_555 1_555
C58 C56 1_555 1_555
H54 C58 1_555 1_555
H55 C58 1_555 1_555
H56 C58 1_555 1_555
C59 C56 1_555 1_555
H57 C59 1_555 1_555
H58 C59 1_555 1_555
H59 C59 1_555 1_555
C60 C28 1_555 1_555
H60 C60 1_555 1_555
H61 C60 1_555 1_555
H62 C60 1_555 1_555
C61 C32 1_555 1_555
H63 C61 1_555 1_555
H64 C61 1_555 1_555
H65 C61 1_555 1_555
C62 C41 1_555 1_555
H66 C62 1_555 1_555
H67 C62 1_555 1_555
H68 C62 1_555 1_555
C63 C43 1_555 1_555
H69 C63 1_555 1_555
H70 C63 1_555 1_555
H71 C63 1_555 1_555
C64 N1 1_555 1_555
H72 C64 1_555 1_555
H73 C64 1_555 1_555
C65 C64 1_555 1_555
C66 C65 1_555 1_555
H74 C66 1_555 1_555
C67 C66 1_555 1_555
H75 C67 1_555 1_555
C68 C67 1_555 1_555
H76 C68 1_555 1_555
C69 C68 1_555 1_555
C70 C65 1_555 1_555
H77 C70 1_555 1_555
C71 C69 1_555 1_555
H78 C71 1_555 1_555
H79 C71 1_555 1_555
N5 C71 1_555 1_555
S2 N5 1_555 1_555
O6 S2 1_555 1_555
O7 S2 1_555 1_555
C72 S2 1_555 1_555
C73 C72 1_555 1_555
H80 C73 1_555 1_555
C74 C73 1_555 1_555
H81 C74 1_555 1_555
C75 C74 1_555 1_555
H82 C75 1_555 1_555
C76 C75 1_555 1_555
C77 C72 1_555 1_555
H83 C77 1_555 1_555
C78 C76 1_555 1_555
O8 C78 1_555 1_555
N6 C78 1_555 1_555
H84 N6 1_555 1_555
C79 N6 1_555 1_555
C80 C79 1_555 1_555
H85 C80 1_555 1_555
C81 C80 1_555 1_555
H86 C81 1_555 1_555
C82 C81 1_555 1_555
C83 C82 1_555 1_555
H87 C83 1_555 1_555
C84 C79 1_555 1_555
H88 C84 1_555 1_555
C85 C82 1_555 1_555
C86 C85 1_555 1_555
C87 C86 1_555 1_555
H89 C87 1_555 1_555
C88 C87 1_555 1_555
H90 C88 1_555 1_555
C89 C88 1_555 1_555
H91 C89 1_555 1_555
C90 C89 1_555 1_555
H92 C90 1_555 1_555
C91 C86 1_555 1_555
H93 C91 1_555 1_555
C92 C85 1_555 1_555
C93 C92 1_555 1_555
H94 C93 1_555 1_555
C94 C93 1_555 1_555
H95 C94 1_555 1_555
C95 C94 1_555 1_555
H96 C95 1_555 1_555
C96 C95 1_555 1_555
H97 C96 1_555 1_555
C97 C92 1_555 1_555
H98 C97 1_555 1_555
C98 C85 1_555 1_555
C99 C98 1_555 1_555
H99 C99 1_555 1_555
C100 C99 1_555 1_555
H100 C100 1_555 1_555
C101 C100 1_555 1_555
H101 C101 1_555 1_555
C102 C101 1_555 1_555
H102 C102 1_555 1_555
C103 C98 1_555 1_555
H103 C103 1_555 1_555
C104 N5 1_555 1_555
C105 C104 1_555 1_555
H104 C105 1_555 1_555
C106 C105 1_555 1_555
H105 C106 1_555 1_555
C107 C106 1_555 1_555
C108 C107 1_555 1_555
H106 C108 1_555 1_555
C109 C104 1_555 1_555
H107 C109 1_555 1_555
C110 C107 1_555 1_555
C111 C110 1_555 1_555
C112 C111 1_555 1_555
H108 C112 1_555 1_555
C113 C112 1_555 1_555
H109 C113 1_555 1_555
C114 C113 1_555 1_555
H110 C114 1_555 1_555
C115 C114 1_555 1_555
H111 C115 1_555 1_555
C116 C111 1_555 1_555
H112 C116 1_555 1_555
C117 C110 1_555 1_555
C118 C117 1_555 1_555
H113 C118 1_555 1_555
C119 C118 1_555 1_555
H114 C119 1_555 1_555
C120 C119 1_555 1_555
H115 C120 1_555 1_555
C121 C120 1_555 1_555
H116 C121 1_555 1_555
C122 C117 1_555 1_555
H117 C122 1_555 1_555
C123 C110 1_555 1_555
C124 C123 1_555 1_555
H118 C124 1_555 1_555
C125 C124 1_555 1_555
H119 C125 1_555 1_555
C126 C125 1_555 1_555
H120 C126 1_555 1_555
C127 C126 1_555 1_555
H121 C127 1_555 1_555
C128 C123 1_555 1_555
H122 C128 1_555 1_555
S3 O9 1_555 1_555
O10 S3 1_555 1_555
N7 S3 1_555 1_555
C129 N7 1_555 1_555
C130 C129 1_555 1_555
C131 C130 1_555 1_555
H123 C131 1_555 1_555
C132 C131 1_555 1_555
C133 C132 1_555 1_555
H124 C133 1_555 1_555
C134 C129 1_555 1_555
C135 C132 1_555 1_555
C136 C135 1_555 1_555
H125 C136 1_555 1_555
H126 C136 1_555 1_555
C137 C136 1_555 1_555
H127 C137 1_555 1_555
H128 C137 1_555 1_555
C138 C137 1_555 1_555
H129 C138 1_555 1_555
H130 C138 1_555 1_555
C139 C138 1_555 1_555
H131 C139 1_555 1_555
H132 C139 1_555 1_555
C140 C135 1_555 1_555
H133 C140 1_555 1_555
H134 C140 1_555 1_555
C141 C135 1_555 1_555
C142 C141 1_555 1_555
H135 C142 1_555 1_555
C143 C142 1_555 1_555
C144 C143 1_555 1_555
C145 C144 1_555 1_555
C146 C141 1_555 1_555
H136 C146 1_555 1_555
N8 C144 1_555 1_555
H137 N8 1_555 1_555
C147 N8 1_555 1_555
O11 C147 1_555 1_555
C148 C147 1_555 1_555
C149 C148 1_555 1_555
H138 C149 1_555 1_555
C150 C149 1_555 1_555
C151 C150 1_555 1_555
H139 C151 1_555 1_555
C152 C151 1_555 1_555
C153 C148 1_555 1_555
H140 C153 1_555 1_555
C154 C152 1_555 1_555
O12 C154 1_555 1_555
N9 C154 1_555 1_555
H141 N9 1_555 1_555
C155 N9 1_555 1_555
C156 C155 1_555 1_555
C157 C156 1_555 1_555
H142 C157 1_555 1_555
C158 C157 1_555 1_555
C159 C158 1_555 1_555
H143 C159 1_555 1_555
C160 C155 1_555 1_555
C161 C158 1_555 1_555
C162 C161 1_555 1_555
H144 C162 1_555 1_555
H145 C162 1_555 1_555
C163 C162 1_555 1_555
H148 C163 1_555 1_555
H149 C163 1_555 1_555
C164 C163 1_555 1_555
H150 C164 1_555 1_555
H151 C164 1_555 1_555
C165 C164 1_555 1_555
H152 C165 1_555 1_555
H153 C165 1_555 1_555
C166 C161 1_555 1_555
H154 C166 1_555 1_555
H155 C166 1_555 1_555
C170 C161 1_555 1_555
C171 C170 1_555 1_555
H164 C171 1_555 1_555
C172 C171 1_555 1_555
C173 C172 1_555 1_555
C174 C173 1_555 1_555
C175 C170 1_555 1_555
H165 C175 1_555 1_555
N10 C173 1_555 1_555
H166 N10 1_555 1_555
C176 N10 1_555 1_555
O13 C176 1_555 1_555
C177 C176 1_555 1_555
C178 C177 1_555 1_555
H167 C178 1_555 1_555
C179 C178 1_555 1_555
H168 C179 1_555 1_555
C180 C179 1_555 1_555
H169 C180 1_555 1_555
C181 S3 1_555 1_555
C182 C177 1_555 1_555
H170 C182 1_555 1_555
C183 C130 1_555 1_555
H171 C183 1_555 1_555
H172 C183 1_555 1_555
H173 C183 1_555 1_555
C184 C134 1_555 1_555
H174 C184 1_555 1_555
H175 C184 1_555 1_555
H176 C184 1_555 1_555
C185 C143 1_555 1_555
H177 C185 1_555 1_555
H178 C185 1_555 1_555
H179 C185 1_555 1_555
C186 C145 1_555 1_555
H180 C186 1_555 1_555
H181 C186 1_555 1_555
H182 C186 1_555 1_555
C187 C150 1_555 1_555
C188 C187 1_555 1_555
H183 C188 1_555 1_555
H184 C188 1_555 1_555
H185 C188 1_555 1_555
C189 C187 1_555 1_555
H186 C189 1_555 1_555
H187 C189 1_555 1_555
C190 C187 1_555 1_555
H189 C190 1_555 1_555
H190 C190 1_555 1_555
H191 C190 1_555 1_555
C194 C156 1_555 1_555
H201 C194 1_555 1_555
H202 C194 1_555 1_555
H203 C194 1_555 1_555
C195 C160 1_555 1_555
H204 C195 1_555 1_555
H205 C195 1_555 1_555
H206 C195 1_555 1_555
C196 C172 1_555 1_555
H207 C196 1_555 1_555
H208 C196 1_555 1_555
H209 C196 1_555 1_555
C197 C174 1_555 1_555
H210 C197 1_555 1_555
H211 C197 1_555 1_555
H212 C197 1_555 1_555
C198 N7 1_555 1_555
H213 C198 1_555 1_555
H214 C198 1_555 1_555
C199 C198 1_555 1_555
C200 C199 1_555 1_555
H215 C200 1_555 1_555
C201 C200 1_555 1_555
H216 C201 1_555 1_555
C202 C201 1_555 1_555
H217 C202 1_555 1_555
C203 C202 1_555 1_555
C204 C199 1_555 1_555
H218 C204 1_555 1_555
C205 C203 1_555 1_555
H219 C205 1_555 1_555
H220 C205 1_555 1_555
N11 C205 1_555 1_555
S4 N11 1_555 1_555
O14 S4 1_555 1_555
O15 S4 1_555 1_555
C206 S4 1_555 1_555
C207 C206 1_555 1_555
H221 C207 1_555 1_555
C208 C207 1_555 1_555
H222 C208 1_555 1_555
C209 C208 1_555 1_555
H223 C209 1_555 1_555
C210 C209 1_555 1_555
C211 C206 1_555 1_555
H224 C211 1_555 1_555
C212 C210 1_555 1_555
O16 C212 1_555 1_555
N12 C212 1_555 1_555
H225 N12 1_555 1_555
C213 N12 1_555 1_555
C214 C213 1_555 1_555
H226 C214 1_555 1_555
C215 C214 1_555 1_555
H227 C215 1_555 1_555
C216 C215 1_555 1_555
C217 C216 1_555 1_555
H228 C217 1_555 1_555
C218 C213 1_555 1_555
H229 C218 1_555 1_555
C219 C216 1_555 1_555
C220 C219 1_555 1_555
C221 C220 1_555 1_555
H230 C221 1_555 1_555
C222 C221 1_555 1_555
H231 C222 1_555 1_555
C223 C222 1_555 1_555
H232 C223 1_555 1_555
C224 C223 1_555 1_555
H233 C224 1_555 1_555
C225 C220 1_555 1_555
H234 C225 1_555 1_555
C226 C219 1_555 1_555
C227 C226 1_555 1_555
H235 C227 1_555 1_555
C228 C227 1_555 1_555
H236 C228 1_555 1_555
C229 C228 1_555 1_555
H237 C229 1_555 1_555
C230 C229 1_555 1_555
H238 C230 1_555 1_555
C231 C226 1_555 1_555
H239 C231 1_555 1_555
C232 C219 1_555 1_555
C233 C232 1_555 1_555
H240 C233 1_555 1_555
C234 C233 1_555 1_555
H241 C234 1_555 1_555
C235 C234 1_555 1_555
H242 C235 1_555 1_555
C236 C235 1_555 1_555
H243 C236 1_555 1_555
C237 C232 1_555 1_555
H244 C237 1_555 1_555
C238 N11 1_555 1_555
C239 C238 1_555 1_555
H245 C239 1_555 1_555
C240 C239 1_555 1_555
H246 C240 1_555 1_555
C241 C240 1_555 1_555
C242 C241 1_555 1_555
H247 C242 1_555 1_555
C243 C238 1_555 1_555
H248 C243 1_555 1_555
C244 C241 1_555 1_555
C245 C244 1_555 1_555
C246 C245 1_555 1_555
H249 C246 1_555 1_555
C247 C246 1_555 1_555
H250 C247 1_555 1_555
C248 C247 1_555 1_555
H251 C248 1_555 1_555
C249 C248 1_555 1_555
H252 C249 1_555 1_555
C250 C245 1_555 1_555
H253 C250 1_555 1_555
C251 C244 1_555 1_555
C252 C251 1_555 1_555
H254 C252 1_555 1_555
C253 C252 1_555 1_555
H255 C253 1_555 1_555
C254 C253 1_555 1_555
H256 C254 1_555 1_555
C255 C254 1_555 1_555
H257 C255 1_555 1_555
C256 C251 1_555 1_555
H258 C256 1_555 1_555
C257 C244 1_555 1_555
C258 C257 1_555 1_555
H259 C258 1_555 1_555
C259 C258 1_555 1_555
H260 C259 1_555 1_555
C260 C259 1_555 1_555
H261 C260 1_555 1_555
C261 C260 1_555 1_555
H262 C261 1_555 1_555
C262 C257 1_555 1_555
H263 C262 1_555 1_555
C263 H264 1_555 1_555
H265 C263 1_555 1_555
Cl1 C263 1_555 1_555
Cl2 C263 1_555 1_555
C264 H266 1_555 1_555
H267 C264 1_555 1_555
Cl3 C264 1_555 1_555
Cl4 C264 1_555 1_555
C265 H268 1_555 1_555
H269 C265 1_555 1_555
Cl5 C265 1_555 1_555
Cl6 C265 1_555 1_555
C266 H270 1_555 1_555
H271 C266 1_555 1_555
Cl7 C266 1_555 1_555
Cl8 C266 1_555 1_555
C267 H272 1_555 1_555
H273 C267 1_555 1_555
Cl9 C267 1_555 1_555
Cl10 C267 1_555 1_555
C268 H274 1_555 1_555
H275 C268 1_555 1_555
Cl11 C268 1_555 1_555
Cl12 C268 1_555 1_555
C269 H276 1_555 1_555
H277 C269 1_555 1_555
Cl13 C269 1_555 1_555
Cl14 C269 1_555 1_555
C270 H278 1_555 1_555
H279 C270 1_555 1_555
Cl15 C270 1_555 1_555
Cl16 C270 1_555 1_555
C271 H280 1_555 1_555
H281 C271 1_555 1_555
Cl17 C271 1_555 1_555
Cl18 C271 1_555 1_555
C272 H284 1_555 1_555
H285 C272 1_555 1_555
Cl21 C272 1_555 1_555
Cl22 C272 1_555 1_555
O17 C273 1_555 1_555
O18 C274 1_555 1_555
O19 C275 1_555 1_555
O20 C276 1_555 1_555
O22 C278 1_555 1_555
C5 C6 1_555 1_555
C11 C12 1_555 1_555
C17 C18 1_555 1_555
C24 C25 1_555 1_555
C31 C32 1_555 1_555
C37 C38 1_555 1_555
C43 C44 1_555 1_555
C49 C50 1_555 1_555
C50 C51 1_555 1_555
C69 C70 1_555 1_555
C76 C77 1_555 1_555
C83 C84 1_555 1_555
C90 C91 1_555 1_555
C96 C97 1_555 1_555
C102 C103 1_555 1_555
C108 C109 1_555 1_555
C115 C116 1_555 1_555
C121 C122 1_555 1_555
C127 C128 1_555 1_555
C133 C134 1_555 1_555
C139 C140 1_555 1_555
C145 C146 1_555 1_555
C152 C153 1_555 1_555
C159 C160 1_555 1_555
C165 C166 1_555 1_555
C174 C175 1_555 1_555
C180 C181 1_555 1_555
C181 C182 1_555 1_555
C203 C204 1_555 1_555
C210 C211 1_555 1_555
C217 C218 1_555 1_555
C224 C225 1_555 1_555
C230 C231 1_555 1_555
C236 C237 1_555 1_555
C242 C243 1_555 1_555
C249 C250 1_555 1_555
C255 C256 1_555 1_555
C261 C262 1_555 1_555

#END
