
#######################################################################
#
#                 Cambridge Crystallographic Data Centre
#                                CCDC 
#
#######################################################################
#
# If this CIF has been generated from an entry in the Cambridge 
# Structural Database, then it will include bibliographic, chemical, 
# crystal, experimental, refinement or atomic coordinate data resulting 
# from the CCDC's data processing and validation procedures.
#
#######################################################################

data_LOGCUH
_chemical_formula_moiety         'C26 H36 N4 O2'
_chemical_name_systematic        
2,2'-(piperazine-1,4-diylbis(propane-3,1-diylnitrilomethylylidene))bis(4-methylphenol)
_symmetry_cell_setting           monoclinic
_symmetry_space_group_name_H-M   'P 21/c'
_symmetry_Int_Tables_number      14
_space_group_name_Hall           '-P 2ybc'
loop_
_symmetry_equiv_pos_site_id
_symmetry_equiv_pos_as_xyz
1 x,y,z
2 -x,1/2+y,1/2-z
3 -x,-y,-z
4 x,1/2-y,1/2+z
_cell_length_a                   23.952(7)
_cell_length_b                   5.8556(14)
_cell_length_c                   8.969(3)
_cell_angle_alpha                90
_cell_angle_beta                 98.727(16)
_cell_angle_gamma                90
_cell_volume                     1243.37
_exptl_crystal_colour            yellow
_exptl_crystal_description       block
_cell_formula_units_Z            2
loop_
_atom_site_label
_atom_site_type_symbol
_atom_site_fract_x
_atom_site_fract_y
_atom_site_fract_z
C1 C 0.17571(10) 0.4052(4) -0.0074(3)
C2 C 0.18919(11) 0.6235(4) 0.0552(3)
C3 C 0.15325(13) 0.7221(4) 0.1438(4)
H1 H 0.1618 0.8653 0.1860
C4 C 0.10519(12) 0.6114(5) 0.1703(3)
H2 H 0.0819 0.6816 0.2307
C5 C 0.09020(11) 0.3964(5) 0.1093(3)
C6 C 0.12660(11) 0.2995(4) 0.0219(3)
H3 H 0.1178 0.1560 -0.0195
O1 O 0.23619(9) 0.7345(3) 0.0311(3)
H4 H 0.2548(15) 0.649(8) -0.035(5)
C7 C 0.03791(13) 0.2750(5) 0.1402(4)
H5 H 0.0312 0.3103 0.2405
H6 H 0.0429 0.1132 0.1310
H7 H 0.0062 0.3239 0.0688
C8 C 0.21334(11) 0.2916(4) -0.0977(3)
H8 H 0.2036 0.1475 -0.1369
N1 N 0.25860(9) 0.3818(4) -0.1245(3)
C9 C 0.29435(12) 0.2584(5) -0.2155(4)
H9 H 0.2946 0.3393 -0.3097
H10 H 0.2785 0.1080 -0.2392
C10 C 0.35448(12) 0.2332(5) -0.1355(4)
H11 H 0.3542 0.1493 -0.0424
H12 H 0.3760 0.1450 -0.1986
C11 C 0.38322(11) 0.4609(5) -0.1000(4)
H13 H 0.3839 0.5428 -0.1937
H14 H 0.3609 0.5500 -0.0394
N2 N 0.44056(8) 0.4438(3) -0.0204(3)
C12 C 0.46214(11) 0.6689(5) 0.0281(4)
H15 H 0.4375 0.7374 0.0921
H16 H 0.4619 0.7661 -0.0596
C13 C 0.47893(11) 0.3437(5) -0.1129(4)
H17 H 0.4789 0.4351 -0.2031
H18 H 0.4661 0.1914 -0.1437
C1B C 0.82429(10) 0.5948(4) 0.0074(3)
C2B C 0.81081(11) 0.3765(4) -0.0552(3)
C3B C 0.84675(13) 0.2779(4) -0.1438(4)
H1B H 0.8382 0.1347 -0.1860
C4B C 0.89481(12) 0.3886(5) -0.1703(3)
H2B H 0.9181 0.3184 -0.2307
C5B C 0.90980(11) 0.6036(5) -0.1093(3)
C6B C 0.87340(11) 0.7005(4) -0.0219(3)
H3B H 0.8822 0.8440 0.0195
O1B O 0.76381(9) 0.2655(3) -0.0311(3)
H4B H 0.7452(15) 0.351(8) 0.035(5)
C7B C 0.96209(13) 0.7250(5) -0.1402(4)
H5B H 0.9688 0.6897 -0.2405
H6B H 0.9571 0.8868 -0.1310
H7B H 0.9938 0.6761 -0.0688
C8B C 0.78666(11) 0.7084(4) 0.0977(3)
H8B H 0.7964 0.8525 0.1369
N1B N 0.74140(9) 0.6182(4) 0.1245(3)
C9B C 0.70565(12) 0.7416(5) 0.2155(4)
H9B H 0.7054 0.6607 0.3097
H10B H 0.7215 0.8920 0.2392
C10B C 0.64552(12) 0.7668(5) 0.1355(4)
H11B H 0.6458 0.8507 0.0424
H12B H 0.6240 0.8550 0.1986
C11B C 0.61678(11) 0.5391(5) 0.1000(4)
H13B H 0.6161 0.4572 0.1937
H14B H 0.6391 0.4500 0.0394
N2B N 0.55944(8) 0.5562(3) 0.0204(3)
C12B C 0.53786(11) 0.3311(5) -0.0281(4)
H15B H 0.5625 0.2626 -0.0921
H16B H 0.5381 0.2339 0.0596
C13B C 0.52107(11) 0.6563(5) 0.1129(4)
H17B H 0.5211 0.5649 0.2031
H18B H 0.5339 0.8086 0.1437
loop_
_geom_bond_atom_site_label_1
_geom_bond_atom_site_label_2
_geom_bond_site_symmetry_1
_geom_bond_site_symmetry_2
C1 C2 1_555 1_555
C2 C3 1_555 1_555
C3 H1 1_555 1_555
C4 C3 1_555 1_555
H2 C4 1_555 1_555
C5 C4 1_555 1_555
C6 C1 1_555 1_555
H3 C6 1_555 1_555
O1 C2 1_555 1_555
H4 O1 1_555 1_555
C7 C5 1_555 1_555
H5 C7 1_555 1_555
H6 C7 1_555 1_555
H7 C7 1_555 1_555
C8 C1 1_555 1_555
H8 C8 1_555 1_555
N1 C8 1_555 1_555
C9 N1 1_555 1_555
H9 C9 1_555 1_555
H10 C9 1_555 1_555
C10 C9 1_555 1_555
H11 C10 1_555 1_555
H12 C10 1_555 1_555
C11 C10 1_555 1_555
H13 C11 1_555 1_555
H14 C11 1_555 1_555
N2 C11 1_555 1_555
C12 N2 1_555 1_555
H15 C12 1_555 1_555
H16 C12 1_555 1_555
C13 N2 1_555 1_555
H17 C13 1_555 1_555
H18 C13 1_555 1_555
C1B C2B 1_555 1_555
C2B C3B 1_555 1_555
C3B H1B 1_555 1_555
C4B C3B 1_555 1_555
H2B C4B 1_555 1_555
C5B C4B 1_555 1_555
C6B C1B 1_555 1_555
H3B C6B 1_555 1_555
O1B C2B 1_555 1_555
H4B O1B 1_555 1_555
C7B C5B 1_555 1_555
H5B C7B 1_555 1_555
H6B C7B 1_555 1_555
H7B C7B 1_555 1_555
C8B C1B 1_555 1_555
H8B C8B 1_555 1_555
N1B C8B 1_555 1_555
C9B N1B 1_555 1_555
H9B C9B 1_555 1_555
H10B C9B 1_555 1_555
C10B C9B 1_555 1_555
H11B C10B 1_555 1_555
H12B C10B 1_555 1_555
C11B C10B 1_555 1_555
H13B C11B 1_555 1_555
H14B C11B 1_555 1_555
N2B C11B 1_555 1_555
C12B C13 1_555 1_555
H15B C12B 1_555 1_555
H16B C12B 1_555 1_555
C13B C12 1_555 1_555
H17B C13B 1_555 1_555
H18B C13B 1_555 1_555
C5 C6 1_555 1_555
C5B C6B 1_555 1_555
N2B C12B 1_555 1_555
N2B C13B 1_555 1_555

#END
