
#######################################################################
#
#                 Cambridge Crystallographic Data Centre
#                                CCDC 
#
#######################################################################
#
# If this CIF has been generated from an entry in the Cambridge 
# Structural Database, then it will include bibliographic, chemical, 
# crystal, experimental, refinement or atomic coordinate data resulting 
# from the CCDC's data processing and validation procedures.
#
#######################################################################

data_LOGJIC
_chemical_formula_moiety         'C32 H33 N1 O2 S1'
_chemical_name_systematic        
3,6-di-t-butyl-9-(4-(phenylsulfonyl)phenyl)-9H-carbazole
_symmetry_cell_setting           monoclinic
_symmetry_space_group_name_H-M   'P 21'
_symmetry_Int_Tables_number      4
_space_group_name_Hall           'P 2yb'
loop_
_symmetry_equiv_pos_site_id
_symmetry_equiv_pos_as_xyz
1 x,y,z
2 -x,1/2+y,-z
_cell_length_a                   9.945(2)
_cell_length_b                   11.848(2)
_cell_length_c                   11.506(2)
_cell_angle_alpha                90
_cell_angle_beta                 90.27(3)
_cell_angle_gamma                90
_cell_volume                     1355.72
_exptl_crystal_colour            colorless
_exptl_crystal_description       block
_cell_formula_units_Z            2
loop_
_atom_site_label
_atom_site_type_symbol
_atom_site_fract_x
_atom_site_fract_y
_atom_site_fract_z
S1 S 0.10757(11) 0.43044(10) 0.92263(9)
N1 N 0.5254(3) 0.3022(3) 0.5797(3)
C1 C -0.1102(4) 0.4341(4) 0.7781(4)
H1 H -0.0932 0.3579 0.7650
O1 O 0.1702(4) 0.5139(3) 0.9960(3)
O2 O 0.0595(3) 0.3280(3) 0.9715(3)
C2 C -0.2187(5) 0.4857(4) 0.7272(5)
H2 H -0.2759 0.4441 0.6795
C3 C -0.2440(5) 0.5978(5) 0.7456(5)
H3 H -0.3175 0.6321 0.7100
C4 C -0.1611(5) 0.6590(4) 0.8164(5)
H4 H -0.1797 0.7347 0.8301
C5 C -0.0494(5) 0.6095(4) 0.8680(4)
H5 H 0.0085 0.6520 0.9143
C6 C -0.0259(4) 0.4971(3) 0.8497(3)
C7 C 0.2252(4) 0.3918(3) 0.8137(3)
C8 C 0.2921(4) 0.4743(3) 0.7544(4)
H6 H 0.2709 0.5497 0.7667
C9 C 0.3916(4) 0.4456(4) 0.6758(3)
H7 H 0.4376 0.5014 0.6355
C10 C 0.4219(3) 0.3322(3) 0.6580(3)
C11 C 0.3545(4) 0.2499(3) 0.7178(4)
H8 H 0.3750 0.1743 0.7054
C12 C 0.2552(4) 0.2798(3) 0.7972(3)
H9 H 0.2097 0.2244 0.8386
C13 C 0.5289(4) 0.3275(3) 0.4617(3)
C14 C 0.4438(4) 0.3937(4) 0.3935(4)
H10 H 0.3712 0.4313 0.4263
C15 C 0.4697(4) 0.4021(4) 0.2778(3)
H11 H 0.4114 0.4448 0.2321
C16 C 0.5803(4) 0.3494(3) 0.2229(3)
C17 C 0.6646(4) 0.2850(3) 0.2932(3)
H12 H 0.7394 0.2500 0.2610
C18 C 0.6385(4) 0.2724(3) 0.4102(3)
C19 C 0.7044(3) 0.2091(3) 0.5027(3)
C20 C 0.8171(4) 0.1404(3) 0.5074(3)
H13 H 0.8654 0.1265 0.4399
C21 C 0.8588(4) 0.0921(3) 0.6111(3)
C22 C 0.7861(4) 0.1156(3) 0.7108(3)
H14 H 0.8151 0.0852 0.7811
C23 C 0.6716(4) 0.1830(3) 0.7099(3)
H15 H 0.6237 0.1971 0.7776
C24 C 0.6318(4) 0.2283(3) 0.6045(3)
C25 C 0.6011(4) 0.3643(3) 0.0922(3)
C26 C 0.7238(5) 0.3029(5) 0.0482(4)
H16 H 0.7149 0.2237 0.0636
H17 H 0.8025 0.3314 0.0869
H18 H 0.7320 0.3148 -0.0340
C27 C 0.4806(5) 0.3179(7) 0.0280(4)
H19 H 0.4712 0.2390 0.0449
H20 H 0.4926 0.3280 -0.0540
H21 H 0.4012 0.3573 0.0524
C28 C 0.6175(10) 0.4902(5) 0.0644(5)
H22 H 0.5403 0.5308 0.0918
H23 H 0.6254 0.5001 -0.0181
H24 H 0.6969 0.5186 0.1022
C29 C 0.9825(4) 0.0143(4) 0.6132(4)
C30 C 0.9570(6) -0.0870(5) 0.5357(7)
H25 H 0.8822 -0.1293 0.5652
H26 H 1.0356 -0.1341 0.5347
H27 H 0.9371 -0.0618 0.4582
C31 C 1.1024(5) 0.0782(6) 0.5639(6)
H28 H 1.0819 0.1027 0.4862
H29 H 1.1795 0.0295 0.5625
H30 H 1.1214 0.1427 0.6117
C32 C 1.0194(7) -0.0203(7) 0.7345(5)
H31 H 0.9462 -0.0614 0.7683
H32 H 1.0378 0.0456 0.7803
H33 H 1.0979 -0.0674 0.7325
loop_
_geom_bond_atom_site_label_1
_geom_bond_atom_site_label_2
_geom_bond_site_symmetry_1
_geom_bond_site_symmetry_2
S1 O1 1_555 1_555
N1 C10 1_555 1_555
C1 H1 1_555 1_555
O2 S1 1_555 1_555
C2 C1 1_555 1_555
H2 C2 1_555 1_555
C3 C2 1_555 1_555
H3 C3 1_555 1_555
C4 C3 1_555 1_555
H4 C4 1_555 1_555
C5 C4 1_555 1_555
H5 C5 1_555 1_555
C6 S1 1_555 1_555
C7 S1 1_555 1_555
C8 C7 1_555 1_555
H6 C8 1_555 1_555
C9 C8 1_555 1_555
H7 C9 1_555 1_555
C10 C9 1_555 1_555
C11 C10 1_555 1_555
H8 C11 1_555 1_555
C12 C7 1_555 1_555
H9 C12 1_555 1_555
C13 N1 1_555 1_555
C14 C13 1_555 1_555
H10 C14 1_555 1_555
C15 C14 1_555 1_555
H11 C15 1_555 1_555
C16 C15 1_555 1_555
C17 C16 1_555 1_555
H12 C17 1_555 1_555
C18 C13 1_555 1_555
C19 C18 1_555 1_555
C20 C19 1_555 1_555
H13 C20 1_555 1_555
C21 C20 1_555 1_555
C22 C21 1_555 1_555
H14 C22 1_555 1_555
C23 C22 1_555 1_555
H15 C23 1_555 1_555
C24 N1 1_555 1_555
C25 C16 1_555 1_555
C26 C25 1_555 1_555
H16 C26 1_555 1_555
H17 C26 1_555 1_555
H18 C26 1_555 1_555
C27 C25 1_555 1_555
H19 C27 1_555 1_555
H20 C27 1_555 1_555
H21 C27 1_555 1_555
C28 C25 1_555 1_555
H22 C28 1_555 1_555
H23 C28 1_555 1_555
H24 C28 1_555 1_555
C29 C21 1_555 1_555
C30 C29 1_555 1_555
H25 C30 1_555 1_555
H26 C30 1_555 1_555
H27 C30 1_555 1_555
C31 C29 1_555 1_555
H28 C31 1_555 1_555
H29 C31 1_555 1_555
H30 C31 1_555 1_555
C32 C29 1_555 1_555
H31 C32 1_555 1_555
H32 C32 1_555 1_555
H33 C32 1_555 1_555
C1 C6 1_555 1_555
C5 C6 1_555 1_555
C11 C12 1_555 1_555
C17 C18 1_555 1_555
C19 C24 1_555 1_555
C23 C24 1_555 1_555

#END
