
#######################################################################
#
#                 Cambridge Crystallographic Data Centre
#                                CCDC 
#
#######################################################################
#
# If this CIF has been generated from an entry in the Cambridge 
# Structural Database, then it will include bibliographic, chemical, 
# crystal, experimental, refinement or atomic coordinate data resulting 
# from the CCDC's data processing and validation procedures.
#
#######################################################################

data_LOGMAX
_chemical_formula_moiety         'C43 H46 N2 O10,0.5(C1 H2 Cl2)'
_chemical_name_systematic        
'5,35-Diamino-9,14,19,24,26,28,30,32-octamethoxyhexacyclo[21.2.2.2^3,6^.2^8,11^.2^13,16^.2^18,21^]pentatriaconta-1(25),3(35),5,8,10,13,15,18,20,23,26,28,30,32-tetradecaene-4,34-dione dichloromethane unknown solvate'
_symmetry_cell_setting           monoclinic
_symmetry_space_group_name_H-M   'P 21/c'
_symmetry_Int_Tables_number      14
_space_group_name_Hall           '-P 2ybc'
loop_
_symmetry_equiv_pos_site_id
_symmetry_equiv_pos_as_xyz
1 x,y,z
2 -x,1/2+y,1/2-z
3 -x,-y,-z
4 x,1/2-y,1/2+z
_cell_length_a                   11.8328(3)
_cell_length_b                   15.6493(4)
_cell_length_c                   52.4458(13)
_cell_angle_alpha                90
_cell_angle_beta                 91.0910(10)
_cell_angle_gamma                90
_cell_volume                     9709.89
_exptl_crystal_colour            red
_exptl_crystal_description       needle
_cell_formula_units_Z            8
loop_
_atom_site_label
_atom_site_type_symbol
_atom_site_fract_x
_atom_site_fract_y
_atom_site_fract_z
Cl1 Cl 0.35452(8) -0.03835(6) 0.217920(18)
Cl2 Cl 0.32352(8) 0.05717(7) 0.170779(17)
C1 C 0.3880(3) 0.0554(2) 0.20122(7)
H1 H 0.3628 0.1057 0.2111
H2 H 0.4710 0.0594 0.1995
O1 O 0.06538(16) 0.16909(12) 0.21180(3)
O2 O 0.33135(15) 0.07755(12) 0.28229(3)
O3 O 0.04751(16) -0.15791(12) 0.25190(4)
O4 O 0.59749(17) 0.19046(14) 0.14455(4)
O5 O 0.02788(17) -0.06478(14) 0.15009(4)
O6 O 0.69660(16) -0.08262(13) 0.18681(4)
O7 O 0.38277(16) 0.35141(13) 0.21673(4)
O8 O 0.34191(17) -0.28540(14) 0.18322(4)
O9 O 0.72904(17) 0.14032(13) 0.24519(4)
O10 O 0.42742(18) -0.06766(17) 0.09949(4)
C2 C 0.0520(2) -0.07569(18) 0.24244(5)
C3 C 0.0883(2) -0.00574(18) 0.25689(5)
H3 H 0.1101 -0.0142 0.2742
C4 C 0.0936(2) 0.07591(17) 0.24663(5)
N1 N 0.1714(2) -0.25522(16) 0.21320(5)
H4 H 0.1444 -0.2265 0.2233
H5 H 0.2442 -0.2668 0.2179
C5 C 0.3482(2) 0.14525(17) 0.26611(5)
C6 C 0.2618(2) 0.25237(18) 0.23942(5)
H6 H 0.1961 0.2793 0.2325
C7 C 0.0601(2) 0.08673(17) 0.22103(5)
C8 C 0.2502(2) 0.18298(17) 0.25582(5)
C9 C 0.0189(2) -0.06392(18) 0.21694(5)
C10 C 0.3677(2) 0.28280(17) 0.23304(5)
C11 C 0.1040(2) -0.17304(19) 0.27570(5)
H7 H 0.1821 -0.1527 0.2749
H8 H 0.1038 -0.2344 0.2794
H9 H 0.0648 -0.1424 0.2892
C12 C 0.4650(2) 0.24606(17) 0.24329(5)
C13 C 0.1699(2) -0.21455(18) 0.19058(5)
C14 C 0.5798(2) -0.0140(2) 0.12621(5)
H10 H 0.5912 0.0300 0.1140
C15 C 0.6259(2) -0.08118(18) 0.16577(5)
C16 C 0.5927(2) 0.23350(18) 0.18921(5)
H11 H 0.5443 0.2802 0.1851
C17 C 0.0236(2) 0.01821(18) 0.20661(5)
H12 H 0.0012 0.0270 0.1893
C18 C 0.6260(2) 0.22048(18) 0.21451(5)
C19 C -0.0129(2) -0.13722(18) 0.19934(5)
H13 H -0.0788 -0.1207 0.1885
H14 H -0.0345 -0.1876 0.2096
C20 C 0.7353(2) 0.09914(18) 0.20038(5)
H15 H 0.7860 0.0538 0.2044
C21 C 0.6281(2) 0.18049(19) 0.16983(5)
C22 C 0.6462(2) -0.01563(19) 0.14823(5)
C23 C 0.7005(2) 0.11129(18) 0.17532(5)
N2 N 0.2039(2) -0.08732(19) 0.12140(5)
H16 H 0.2656 -0.0783 0.1178
H17 H 0.1673 -0.0370 0.1239
C24 C 0.1337(2) 0.15089(18) 0.26261(5)
H18 H 0.1346 0.1339 0.2808
H19 H 0.0789 0.1983 0.2605
C25 C 0.0856(2) -0.16021(18) 0.18259(5)
C26 C 0.0384(2) 0.18138(19) 0.18532(5)
H20 H 0.0873 0.1452 0.1750
H21 H 0.0502 0.2414 0.1808
H22 H -0.0408 0.1660 0.1820
C27 C 0.2710(2) -0.23393(19) 0.17445(6)
C28 C 0.2825(2) -0.1912(2) 0.15042(6)
C29 C 0.6979(2) 0.15146(18) 0.21991(5)
C30 C 0.0972(2) -0.11683(19) 0.15868(5)
C31 C 0.4765(2) -0.13955(19) 0.13891(5)
C32 C 0.7684(3) 0.0583(2) 0.25268(6)
H23 H 0.7135 0.0148 0.2471
H24 H 0.7774 0.0563 0.2713
H25 H 0.8413 0.0470 0.2448
C33 C 0.2023(2) -0.1336(2) 0.14303(5)
C34 C 0.4976(2) -0.0746(2) 0.12149(5)
C35 C 0.4541(2) 0.17705(17) 0.25998(5)
H26 H 0.5200 0.1515 0.2673
C36 C 0.2882(3) 0.3770(2) 0.20186(6)
H27 H 0.2569 0.3274 0.1928
H28 H 0.3114 0.4203 0.1895
H29 H 0.2307 0.4011 0.2130
C37 C 0.5816(2) 0.27622(18) 0.23553(5)
H30 H 0.5772 0.3362 0.2296
H31 H 0.6341 0.2740 0.2504
C38 C 0.4299(3) 0.0365(2) 0.29225(6)
H32 H 0.4766 0.0170 0.2781
H33 H 0.4079 -0.0127 0.3026
H34 H 0.4732 0.0768 0.3029
C39 C 0.7357(2) 0.05115(19) 0.15414(5)
H35 H 0.7502 0.0848 0.1385
H36 H 0.8070 0.0222 0.1593
C40 C 0.5418(2) -0.14155(19) 0.16124(6)
H37 H 0.5288 -0.1848 0.1736
C41 C 0.3867(2) -0.2076(2) 0.13483(6)
H38 H 0.3648 -0.2095 0.1165
H39 H 0.4186 -0.2640 0.1395
C42 C 0.4771(3) -0.0956(3) 0.07664(6)
H40 H 0.5507 -0.0678 0.0747
H41 H 0.4277 -0.0807 0.0621
H42 H 0.4874 -0.1577 0.0772
C43 C 0.5006(3) 0.2418(2) 0.13926(6)
H43 H 0.4396 0.2254 0.1506
H44 H 0.4759 0.2333 0.1215
H45 H 0.5197 0.3021 0.1420
C44 C 0.6612(3) -0.1286(2) 0.20866(6)
H46 H 0.5854 -0.1096 0.2133
H47 H 0.7142 -0.1179 0.2229
H48 H 0.6595 -0.1898 0.2048
O11 O 1.32873(16) 0.47020(13) 0.13981(3)
O12 O 0.95577(15) 0.49278(14) 0.17500(4)
O13 O 0.62881(16) 0.60488(13) 0.04873(4)
O14 O 1.32363(17) 0.70740(15) 0.07192(4)
O15 O 1.04720(19) 0.21607(14) 0.11266(4)
O16 O 1.29005(18) 0.36905(14) 0.03885(4)
O17 O 0.91456(18) 0.87351(14) 0.07347(4)
O18 O 0.6695(2) 0.37258(14) 0.10992(4)
O19 O 0.70823(19) 0.70670(15) 0.14260(4)
O20 O 0.99469(16) 0.61580(14) 0.00656(4)
C45 C 0.7041(2) 0.67000(18) 0.05456(5)
C46 C 0.9806(2) 0.42388(17) 0.15967(5)
C47 C 1.0900(2) 0.40167(18) 0.15311(5)
H49 H 1.1513 0.4351 0.1595
C48 C 0.8893(2) 0.37450(19) 0.15106(5)
C49 C 0.6302(2) 0.52429(19) 0.10353(5)
H50 H 0.5930 0.5130 0.0877
C50 C 0.8441(2) 0.80558(19) 0.06792(6)
C51 C 0.7931(2) 0.69260(19) 0.03902(5)
H51 H 0.8052 0.6617 0.0237
C52 C 1.0200(2) 0.28370(19) 0.12865(5)
N3 N 1.1497(2) 0.81019(18) 0.06676(6)
H52 H 1.1810 0.8007 0.0795
H53 H 1.0776 0.8266 0.0700
C53 C 1.0642(2) 0.72095(19) 0.03462(5)
C54 C 0.7326(2) 0.5548(2) 0.15022(5)
H54 H 0.7661 0.5658 0.1665
C55 C 1.1476(2) 0.7391(2) 0.05222(5)
C56 C 0.6407(2) 0.60805(19) 0.11192(5)
C57 C 1.3305(2) 0.47747(19) 0.06932(5)
C58 C 1.2496(2) 0.6821(2) 0.05670(5)
C59 C 1.2947(2) 0.3944(2) 0.06426(5)
C60 C 0.6732(2) 0.4565(2) 0.11788(6)
C61 C 1.2733(2) 0.36707(18) 0.10944(5)
C62 C 1.2541(2) 0.60232(19) 0.04365(5)
C63 C 1.3415(2) 0.50317(19) 0.09457(5)
H55 H 1.3672 0.5594 0.0982
C64 C 1.1653(2) 0.5794(2) 0.02788(5)
C65 C 0.8649(2) 0.76004(19) 0.04564(5)
N4 N 1.1568(2) 0.50421(17) 0.01630(5)
H56 H 1.0957 0.4976 0.0114
H57 H 1.1753 0.4620 0.0276
C66 C 0.6946(2) 0.62267(19) 0.13557(5)
C67 C 1.1124(2) 0.33220(18) 0.13758(5)
C68 C 1.3162(2) 0.44913(19) 0.11457(5)
C69 C 0.6864(2) 0.71259(18) 0.07743(5)
C70 C 0.7232(2) 0.4712(2) 0.14178(5)
C71 C 0.7553(2) 0.78111(19) 0.08373(5)
H58 H 0.7424 0.8121 0.0990
C72 C 1.2648(2) 0.34050(19) 0.08423(6)
H59 H 1.2382 0.2845 0.0805
C73 C 1.0682(2) 0.6405(2) 0.02208(5)
C74 C 0.9111(2) 0.3042(2) 0.13550(5)
H60 H 0.8500 0.2698 0.1295
C75 C 0.5972(2) 0.68225(19) 0.09596(5)
H61 H 0.5763 0.7300 0.1073
H62 H 0.5286 0.6643 0.0863
C76 C 1.3537(2) 0.5421(2) 0.04835(5)
H63 H 1.3701 0.5112 0.0324
H64 H 1.4214 0.5760 0.0532
C77 C 1.0464(2) 0.5489(2) 0.18176(6)
H65 H 1.1000 0.5191 0.1931
H66 H 1.0164 0.5991 0.1905
H67 H 1.0851 0.5670 0.1663
C78 C 1.2321(2) 0.31061(19) 0.13076(5)
H68 H 1.2361 0.2500 0.1254
H69 H 1.2820 0.3180 0.1460
C79 C 0.7696(2) 0.3977(2) 0.15781(6)
H70 H 0.7676 0.4138 0.1761
H71 H 0.7205 0.3471 0.1553
C80 C 1.3629(3) 0.5558(2) 0.14563(6)
H72 H 1.4378 0.5665 0.1386
H73 H 1.3662 0.5635 0.1642
H74 H 1.3083 0.5960 0.1381
C81 C 0.6484(3) 0.5568(2) 0.02631(6)
H75 H 0.6429 0.5944 0.0114
H76 H 0.5918 0.5113 0.0247
H77 H 0.7241 0.5314 0.0273
C82 C 1.2624(3) 0.2820(2) 0.03367(6)
H78 H 1.3175 0.2447 0.0423
H79 H 1.2641 0.2719 0.0152
H80 H 1.1866 0.2697 0.0399
C83 C 0.9649(2) 0.7795(2) 0.02899(6)
H81 H 0.9417 0.7734 0.0108
H82 H 0.9887 0.8395 0.0318
C84 C 0.6128(3) 0.3552(2) 0.08622(7)
H83 H 0.5336 0.3731 0.0872
H84 H 0.6162 0.2939 0.0826
H85 H 0.6495 0.3869 0.0725
C85 C 0.8919(3) 0.9217(2) 0.09594(7)
H86 H 0.8161 0.9466 0.0945
H87 H 0.9479 0.9675 0.0979
H88 H 0.8961 0.8840 0.1109
C86 C 0.9603(4) 0.1584(3) 0.10629(10)
H89 H 0.9326 0.1314 0.1218
H90 H 0.9893 0.1144 0.0948
H91 H 0.8981 0.1891 0.0977
C87 C 0.7778(5) 0.7223(3) 0.16411(9)
H92 H 0.7407 0.7009 0.1794
H93 H 0.7910 0.7838 0.1658
H94 H 0.8502 0.6928 0.1621
loop_
_geom_bond_atom_site_label_1
_geom_bond_atom_site_label_2
_geom_bond_site_symmetry_1
_geom_bond_site_symmetry_2
Cl1 C1 1_555 1_555
Cl2 C1 1_555 1_555
C1 H1 1_555 1_555
H2 C1 1_555 1_555
O1 C7 1_555 1_555
O2 C5 1_555 1_555
O3 C2 1_555 1_555
O4 C21 1_555 1_555
O5 C30 1_555 1_555
O6 C15 1_555 1_555
O7 C10 1_555 1_555
O8 C27 1_555 1_555
O9 C29 1_555 1_555
O10 C34 1_555 1_555
C2 C3 1_555 1_555
C3 H3 1_555 1_555
C4 C3 1_555 1_555
N1 H4 1_555 1_555
H5 N1 1_555 1_555
C5 C8 1_555 1_555
C6 H6 1_555 1_555
C7 C4 1_555 1_555
C8 C6 1_555 1_555
C9 C2 1_555 1_555
C10 C6 1_555 1_555
C11 O3 1_555 1_555
H7 C11 1_555 1_555
H8 C11 1_555 1_555
H9 C11 1_555 1_555
C12 C10 1_555 1_555
C13 N1 1_555 1_555
C14 H10 1_555 1_555
C15 C22 1_555 1_555
C16 H11 1_555 1_555
C17 C7 1_555 1_555
H12 C17 1_555 1_555
C18 C16 1_555 1_555
C19 C9 1_555 1_555
H13 C19 1_555 1_555
H14 C19 1_555 1_555
C20 H15 1_555 1_555
C21 C16 1_555 1_555
C22 C14 1_555 1_555
C23 C20 1_555 1_555
N2 H16 1_555 1_555
H17 N2 1_555 1_555
C24 C4 1_555 1_555
H18 C24 1_555 1_555
H19 C24 1_555 1_555
C25 C13 1_555 1_555
C26 O1 1_555 1_555
H20 C26 1_555 1_555
H21 C26 1_555 1_555
H22 C26 1_555 1_555
C27 C13 1_555 1_555
C28 C27 1_555 1_555
C29 C18 1_555 1_555
C30 C25 1_555 1_555
C31 C34 1_555 1_555
C32 O9 1_555 1_555
H23 C32 1_555 1_555
H24 C32 1_555 1_555
H25 C32 1_555 1_555
C33 N2 1_555 1_555
C34 C14 1_555 1_555
C35 C5 1_555 1_555
H26 C35 1_555 1_555
C36 O7 1_555 1_555
H27 C36 1_555 1_555
H28 C36 1_555 1_555
H29 C36 1_555 1_555
C37 C12 1_555 1_555
H30 C37 1_555 1_555
H31 C37 1_555 1_555
C38 O2 1_555 1_555
H32 C38 1_555 1_555
H33 C38 1_555 1_555
H34 C38 1_555 1_555
C39 C22 1_555 1_555
H35 C39 1_555 1_555
H36 C39 1_555 1_555
C40 C15 1_555 1_555
H37 C40 1_555 1_555
C41 C28 1_555 1_555
H38 C41 1_555 1_555
H39 C41 1_555 1_555
C42 O10 1_555 1_555
H40 C42 1_555 1_555
H41 C42 1_555 1_555
H42 C42 1_555 1_555
C43 O4 1_555 1_555
H43 C43 1_555 1_555
H44 C43 1_555 1_555
H45 C43 1_555 1_555
C44 O6 1_555 1_555
H46 C44 1_555 1_555
H47 C44 1_555 1_555
H48 C44 1_555 1_555
O11 C68 1_555 1_555
O12 C46 1_555 1_555
O13 C45 1_555 1_555
O14 C58 1_555 1_555
O15 C52 1_555 1_555
O16 C59 1_555 1_555
O17 C50 1_555 1_555
O18 C60 1_555 1_555
O19 C66 1_555 1_555
O20 C73 1_555 1_555
C45 C51 1_555 1_555
C46 C47 1_555 1_555
C47 H49 1_555 1_555
C48 C46 1_555 1_555
C49 H50 1_555 1_555
C50 C65 1_555 1_555
C51 H51 1_555 1_555
C52 C67 1_555 1_555
N3 H52 1_555 1_555
H53 N3 1_555 1_555
C53 C55 1_555 1_555
C54 H54 1_555 1_555
C55 N3 1_555 1_555
C56 C49 1_555 1_555
C57 C59 1_555 1_555
C58 C55 1_555 1_555
C59 C72 1_555 1_555
C60 C49 1_555 1_555
C61 C68 1_555 1_555
C62 C58 1_555 1_555
C63 C57 1_555 1_555
H55 C63 1_555 1_555
C64 C62 1_555 1_555
C65 C51 1_555 1_555
N4 C64 1_555 1_555
H56 N4 1_555 1_555
H57 N4 1_555 1_555
C66 C54 1_555 1_555
C67 C47 1_555 1_555
C68 C63 1_555 1_555
C69 C45 1_555 1_555
C70 C54 1_555 1_555
C71 C50 1_555 1_555
H58 C71 1_555 1_555
C72 C61 1_555 1_555
H59 C72 1_555 1_555
C73 C53 1_555 1_555
C74 C48 1_555 1_555
H60 C74 1_555 1_555
C75 C56 1_555 1_555
H61 C75 1_555 1_555
H62 C75 1_555 1_555
C76 C57 1_555 1_555
H63 C76 1_555 1_555
H64 C76 1_555 1_555
C77 O12 1_555 1_555
H65 C77 1_555 1_555
H66 C77 1_555 1_555
H67 C77 1_555 1_555
C78 C61 1_555 1_555
H68 C78 1_555 1_555
H69 C78 1_555 1_555
C79 C48 1_555 1_555
H70 C79 1_555 1_555
H71 C79 1_555 1_555
C80 O11 1_555 1_555
H72 C80 1_555 1_555
H73 C80 1_555 1_555
H74 C80 1_555 1_555
C81 O13 1_555 1_555
H75 C81 1_555 1_555
H76 C81 1_555 1_555
H77 C81 1_555 1_555
C82 O16 1_555 1_555
H78 C82 1_555 1_555
H79 C82 1_555 1_555
H80 C82 1_555 1_555
C83 C53 1_555 1_555
H81 C83 1_555 1_555
H82 C83 1_555 1_555
C84 O18 1_555 1_555
H83 C84 1_555 1_555
H84 C84 1_555 1_555
H85 C84 1_555 1_555
C85 O17 1_555 1_555
H86 C85 1_555 1_555
H87 C85 1_555 1_555
H88 C85 1_555 1_555
C86 O15 1_555 1_555
H89 C86 1_555 1_555
H90 C86 1_555 1_555
H91 C86 1_555 1_555
C87 O19 1_555 1_555
H92 C87 1_555 1_555
H93 C87 1_555 1_555
H94 C87 1_555 1_555
C8 C24 1_555 1_555
C9 C17 1_555 1_555
C12 C35 1_555 1_555
C18 C37 1_555 1_555
C19 C25 1_555 1_555
C20 C29 1_555 1_555
C21 C23 1_555 1_555
C23 C39 1_555 1_555
C28 C33 1_555 1_555
C30 C33 1_555 1_555
C31 C40 1_555 1_555
C31 C41 1_555 1_555
C52 C74 1_555 1_555
C56 C66 1_555 1_555
C60 C70 1_555 1_555
C62 C76 1_555 1_555
C64 C73 1_555 1_555
C65 C83 1_555 1_555
C67 C78 1_555 1_555
C69 C71 1_555 1_555
C69 C75 1_555 1_555
C70 C79 1_555 1_555

#END
