
#######################################################################
#
#                 Cambridge Crystallographic Data Centre
#                                CCDC 
#
#######################################################################
#
# If this CIF has been generated from an entry in the Cambridge 
# Structural Database, then it will include bibliographic, chemical, 
# crystal, experimental, refinement or atomic coordinate data resulting 
# from the CCDC's data processing and validation procedures.
#
#######################################################################

data_LOGMOJ
_chemical_formula_moiety         'C48 H40 N4 2+,2(C1 H3 O3 S1 1-),2(C1 H1 Cl3)'
_chemical_name_systematic        
'22,24-Dihydro-5,10,15,20-tetra-p-tolylporphyrin bis(methylsulfonate) chloroform solvate'
_symmetry_cell_setting           tetragonal
_symmetry_space_group_name_H-M   'P 43 21 2'
_symmetry_Int_Tables_number      96
_space_group_name_Hall           'P 4nw 2abw'
loop_
_symmetry_equiv_pos_site_id
_symmetry_equiv_pos_as_xyz
1 x,y,z
2 1/2-y,1/2+x,3/4+z
3 1/2+x,1/2-y,1/4-z
4 -x,-y,1/2+z
5 y,x,-z
6 1/2+y,1/2-x,1/4+z
7 1/2-x,1/2+y,3/4-z
8 -y,-x,1/2-z
_cell_length_a                   17.6633(3)
_cell_length_b                   17.6633(3)
_cell_length_c                   16.8444(4)
_cell_angle_alpha                90
_cell_angle_beta                 90
_cell_angle_gamma                90
_cell_volume                     5255.32
_exptl_crystal_colour            'blue green'
_exptl_crystal_description       equant
_cell_formula_units_Z            4
_exptl_crystal_recrystallization_method chloroform/benzene
loop_
_atom_site_label
_atom_site_type_symbol
_atom_site_fract_x
_atom_site_fract_y
_atom_site_fract_z
Cl1 Cl 0.66329(15) 0.72213(13) 0.10979(16)
Cl2 Cl 0.62973(20) 0.87830(15) 0.14386(19)
Cl3 Cl 0.53278(14) 0.75896(21) 0.20285(18)
C1 C 0.62351(46) 0.78605(48) 0.17793(50)
H1 H 0.64835 0.77355 0.21855
S1 S 0.70731(8) 0.30511(8) 0.05728(9)
O1 O 0.77143(25) 0.25462(26) 0.05560(30)
O2 O 0.63659(26) 0.27026(29) 0.03733(30)
O3 O 0.70216(21) 0.34595(22) 0.13269(24)
C2 C 0.72392(40) 0.37337(46) -0.01581(43)
H2 H 0.76294 0.39295 -0.00923
H3 H 0.69448 0.41408 -0.01748
H4 H 0.72605 0.35105 -0.06203
N1 N 0.18441(21) 0.30310(22) 0.01681(24)
N2 N 0.06484(21) 0.18120(22) 0.03129(25)
C3 C 0.32286(28) 0.32286(28) 0.00000
C4 C 0.25156(31) 0.34153(28) 0.03174(32)
C5 C 0.23334(32) 0.40210(31) 0.08434(36)
C6 C 0.15836(32) 0.40040(30) 0.09767(37)
C7 C 0.12649(28) 0.33891(28) 0.05571(34)
C8 C 0.04788(28) 0.31939(29) 0.04989(33)
C9 C 0.02242(26) 0.24686(28) 0.03121(30)
C10 C -0.05207(28) 0.22430(29) 0.00722(37)
C11 C -0.05315(26) 0.14979(30) -0.00601(37)
C12 C 0.02153(28) 0.12084(30) 0.00845(32)
C13 C 0.04507(26) 0.04507(26) 0.00000
C14 C 0.38289(26) 0.38289(26) 0.00000
C15 C 0.45594(31) 0.36576(31) 0.02454(32)
C16 C 0.51151(31) 0.42173(36) 0.02563(36)
C17 C 0.49450(33) 0.49450(33) 0.00000
C18 C -0.00646(29) 0.38206(29) 0.06024(35)
C19 C 0.00949(31) 0.45310(32) 0.02736(37)
C20 C -0.04153(39) 0.51199(32) 0.03338(40)
C21 C -0.10934(37) 0.50354(36) 0.07264(36)
C22 C -0.12600(33) 0.43264(37) 0.10577(38)
C23 C -0.07539(33) 0.37326(32) 0.10030(34)
C24 C -0.01468(26) -0.01468(26) 0.00000
C25 C -0.07080(32) -0.01562(29) 0.05729(36)
C26 C -0.12656(32) -0.07150(34) 0.05845(39)
C27 C -0.12814(32) -0.12814(32) 0.00000
C28 C 0.55586(36) 0.55586(36) 0.00000
C29 C -0.16574(51) 0.56796(48) 0.08005(58)
C30 C -0.18766(32) -0.18766(32) 0.00000
H5 H 0.18463 0.26653 -0.02631
H6 H 0.11162 0.17641 0.05640
H7 H 0.26625 0.42688 0.11056
H8 H 0.13294 0.43641 0.12642
H9 H -0.09314 0.25556 0.00308
H10 H -0.09344 0.11610 -0.02116
H11 H 0.46173 0.32167 0.04552
H12 H 0.56108 0.40884 0.05049
H13 H 0.06000 0.45919 -0.00236
H14 H -0.02923 0.54823 0.01169
H15 H -0.17310 0.42809 0.13070
H16 H -0.08556 0.32650 0.12399
H17 H -0.07485 0.02705 0.09032
H18 H -0.15822 -0.07964 0.10530
H19 H -0.21670 0.55940 0.10370
H20 H -0.18230 0.59510 0.04410
H21 H -0.14460 0.60130 0.12091
C4D C 0.34153(28) 0.25156(31) -0.03174(32)
N1D N 0.30310(22) 0.18441(21) -0.01681(24)
C7D C 0.33891(28) 0.12649(28) -0.05571(34)
C6D C 0.40040(30) 0.15836(32) -0.09767(37)
C5D C 0.40210(31) 0.23334(32) -0.08434(36)
H7D H 0.42688 0.26625 -0.11056
H8D H 0.43641 0.13294 -0.12642
C8D C 0.31939(29) 0.04788(28) -0.04989(33)
C9D C 0.24686(28) 0.02242(26) -0.03121(30)
N2D N 0.18120(22) 0.06484(21) -0.03129(25)
C12D C 0.12084(30) 0.02153(28) -0.00845(32)
C11D C 0.14979(30) -0.05315(26) 0.00601(37)
C10D C 0.22430(29) -0.05207(28) -0.00722(37)
H9D H 0.25556 -0.09314 -0.00308
H10D H 0.11610 -0.09344 0.02116
C26D C -0.07150(34) -0.12656(32) -0.05845(39)
C25D C -0.01562(29) -0.07080(32) -0.05729(36)
H17D H 0.02705 -0.07485 -0.09032
H18D H -0.07964 -0.15822 -0.10530
H6D H 0.17641 0.11162 -0.05640
C18D C 0.38206(29) -0.00646(29) -0.06024(35)
C19D C 0.45310(32) 0.00949(31) -0.02736(37)
C20D C 0.51199(32) -0.04153(39) -0.03338(40)
C21D C 0.50354(36) -0.10934(37) -0.07264(36)
C22D C 0.43264(37) -0.12600(33) -0.10577(38)
C23D C 0.37326(32) -0.07539(33) -0.10030(34)
H16D H 0.32650 -0.08556 -0.12399
H15D H 0.42809 -0.17310 -0.13070
C29D C 0.56796(48) -0.16574(51) -0.08005(58)
H19D H 0.55940 -0.21670 -0.10370
H20D H 0.59510 -0.18230 -0.04410
H21D H 0.60130 -0.14460 -0.12091
H14D H 0.54823 -0.02923 -0.01169
H13D H 0.45919 0.06000 0.00236
H5D H 0.26653 0.18463 0.02631
C16D C 0.42173(36) 0.51151(31) -0.02563(36)
C15D C 0.36576(31) 0.45594(31) -0.02454(32)
H11D H 0.32167 0.46173 -0.04552
H12D H 0.40884 0.56108 -0.05049
H22? H 0.60245(36) 0.53489(36) 0.01944
H23? H 0.56314(36) 0.57421(36) -0.05310
H24? H 0.54043(36) 0.59691(36) 0.03366
H25? H -0.17977(32) -0.22118(32) -0.04410
H26? H -0.18507(32) -0.21587(32) 0.04864
H27? H -0.23657(32) -0.16437(32) -0.00454
loop_
_geom_bond_atom_site_label_1
_geom_bond_atom_site_label_2
_geom_bond_site_symmetry_1
_geom_bond_site_symmetry_2
Cl1 C1 1_555 1_555
Cl2 C1 1_555 1_555
Cl3 C1 1_555 1_555
C1 H1 1_555 1_555
S1 O1 1_555 1_555
O2 S1 1_555 1_555
O3 S1 1_555 1_555
C2 S1 1_555 1_555
H2 C2 1_555 1_555
H3 C2 1_555 1_555
H4 C2 1_555 1_555
N1 C4 1_555 1_555
N2 C9 1_555 1_555
C3 C4 1_555 1_555
C4 C5 1_555 1_555
C5 C6 1_555 1_555
C6 C7 1_555 1_555
C7 N1 1_555 1_555
C8 C7 1_555 1_555
C9 C8 1_555 1_555
C10 C9 1_555 1_555
C11 C10 1_555 1_555
C12 N2 1_555 1_555
C13 C12 1_555 1_555
C14 C3 1_555 1_555
C15 C14 1_555 1_555
C16 C15 1_555 1_555
C17 C16 1_555 1_555
C18 C8 1_555 1_555
C19 C18 1_555 1_555
C20 C19 1_555 1_555
C21 C20 1_555 1_555
C22 C21 1_555 1_555
C23 C18 1_555 1_555
C24 C13 1_555 1_555
C25 C24 1_555 1_555
C26 C25 1_555 1_555
C27 C26 1_555 1_555
C28 C17 1_555 1_555
C29 C21 1_555 1_555
C30 C27 1_555 1_555
H5 N1 1_555 1_555
H6 N2 1_555 1_555
H7 C5 1_555 1_555
H8 C6 1_555 1_555
H9 C10 1_555 1_555
H10 C11 1_555 1_555
H11 C15 1_555 1_555
H12 C16 1_555 1_555
H13 C19 1_555 1_555
H14 C20 1_555 1_555
H15 C22 1_555 1_555
H16 C23 1_555 1_555
H17 C25 1_555 1_555
H18 C26 1_555 1_555
H19 C29 1_555 1_555
H20 C29 1_555 1_555
H21 C29 1_555 1_555
C4D C3 1_555 1_555
N1D C4D 1_555 1_555
C7D N1D 1_555 1_555
C6D C7D 1_555 1_555
C5D C4D 1_555 1_555
H7D C5D 1_555 1_555
H8D C6D 1_555 1_555
C8D C7D 1_555 1_555
C9D C8D 1_555 1_555
N2D C9D 1_555 1_555
C12D C13 1_555 1_555
C11D C12D 1_555 1_555
C10D C9D 1_555 1_555
H9D C10D 1_555 1_555
H10D C11D 1_555 1_555
C26D C27 1_555 1_555
C25D C24 1_555 1_555
H17D C25D 1_555 1_555
H18D C26D 1_555 1_555
H6D N2D 1_555 1_555
C18D C8D 1_555 1_555
C19D C18D 1_555 1_555
C20D C19D 1_555 1_555
C21D C20D 1_555 1_555
C22D C21D 1_555 1_555
C23D C18D 1_555 1_555
H16D C23D 1_555 1_555
H15D C22D 1_555 1_555
C29D C21D 1_555 1_555
H19D C29D 1_555 1_555
H20D C29D 1_555 1_555
H21D C29D 1_555 1_555
H14D C20D 1_555 1_555
H13D C19D 1_555 1_555
H5D N1D 1_555 1_555
C16D C17 1_555 1_555
C15D C14 1_555 1_555
H11D C15D 1_555 1_555
H12D C16D 1_555 1_555
C11 C12 1_555 1_555
C22 C23 1_555 1_555
C6D C5D 1_555 1_555
N2D C12D 1_555 1_555
C11D C10D 1_555 1_555
C26D C25D 1_555 1_555
C22D C23D 1_555 1_555
C16D C15D 1_555 1_555

#END
