
#######################################################################
#
#                 Cambridge Crystallographic Data Centre
#                                CCDC 
#
#######################################################################
#
# If this CIF has been generated from an entry in the Cambridge 
# Structural Database, then it will include bibliographic, chemical, 
# crystal, experimental, refinement or atomic coordinate data resulting 
# from the CCDC's data processing and validation procedures.
#
#######################################################################

data_LOGQOP
_chemical_formula_moiety         'C26 H20 F6 N2 S1'
_chemical_name_systematic        
3-(3,3,4,4,5,5-Hexafluoro-2-(2-methyl-5-(4-methylphenyl)-3-thienyl)cyclopent-1-en-1-yl)-1,2-dimethyl-1H-pyrrolo[2,3-b]pyridine
_symmetry_cell_setting           triclinic
_symmetry_space_group_name_H-M   'P -1'
_symmetry_Int_Tables_number      2
_space_group_name_Hall           '-P 1'
loop_
_symmetry_equiv_pos_site_id
_symmetry_equiv_pos_as_xyz
1 x,y,z
2 -x,-y,-z
_cell_length_a                   9.4712(7)
_cell_length_b                   11.3781(8)
_cell_length_c                   11.7751(9)
_cell_angle_alpha                85.840(4)
_cell_angle_beta                 71.517(4)
_cell_angle_gamma                76.946(4)
_cell_volume                     1172.38
_exptl_crystal_colour            colorless
_exptl_crystal_description       block
_cell_formula_units_Z            2
loop_
_atom_site_label
_atom_site_type_symbol
_atom_site_fract_x
_atom_site_fract_y
_atom_site_fract_z
S1 S 0.15589(7) 0.08330(5) -0.00404(5)
N1 N 0.0936(2) 0.43481(17) 0.35046(16)
C1 C -0.1002(2) 0.35169(17) 0.35101(17)
C2 C -0.0254(2) 0.10822(17) 0.20868(18)
C3 C -0.1369(2) 0.47690(17) 0.32133(17)
C4 C 0.3239(2) -0.12872(18) 0.06407(19)
C5 C 0.1915(2) -0.02696(18) 0.09816(18)
C6 C -0.1567(2) 0.15464(17) 0.31344(17)
C7 C -0.1931(2) 0.26118(16) 0.36834(17)
C8 C -0.0009(2) 0.16485(18) 0.09994(19)
C9 C -0.0113(2) 0.52489(18) 0.32062(17)
C10 C 0.0402(2) 0.33003(19) 0.36881(18)
C11 C 0.0836(2) -0.00183(18) 0.20727(19)
H1 H 0.0813 -0.0513 0.2739
C12 C -0.2562(3) 0.55588(19) 0.2926(2)
H2 H -0.3425 0.5305 0.2915
N2 N 0.0053(3) 0.63808(18) 0.29491(18)
F1 F -0.45011(19) 0.36584(17) 0.4361(3)
F2 F -0.3351(3) 0.0509(3) 0.29293(18)
F3 F -0.2167(2) -0.02217(16) 0.4138(2)
C13 C -0.2736(3) 0.08086(19) 0.3693(2)
C14 C -0.3944(3) 0.1583(2) 0.4690(3)
F4 F -0.3448(3) 0.3068(3) 0.56833(17)
C15 C 0.1264(3) 0.2173(2) 0.4082(2)
H3 H 0.2146 0.1845 0.3428
H4 H 0.0624 0.1597 0.4332
H5 H 0.1579 0.2347 0.4738
F5 F -0.3558(11) 0.1036(4) 0.5767(3)
F6 F -0.5329(5) 0.1576(5) 0.4948(7)
C16 C 0.3327(3) -0.2308(2) 0.1353(2)
H6 H 0.2526 -0.2361 0.2045
C17 C 0.5808(3) -0.3213(2) 0.0027(2)
C18 C -0.2410(3) 0.6741(2) 0.2656(2)
H7 H -0.3183 0.7296 0.2460
C19 C -0.3462(2) 0.2773(2) 0.4623(2)
C20 C -0.0925(3) 0.2783(2) 0.0645(2)
H8 H -0.1965 0.2895 0.1149
H9 H -0.0884 0.2724 -0.0175
H10 H -0.0516 0.3457 0.0733
C21 C -0.1120(3) 0.7098(2) 0.2676(2)
H11 H -0.1063 0.7898 0.2485
C22 C 0.4459(3) -0.1252(2) -0.0396(2)
H12 H 0.4432 -0.0582 -0.0897
C23 C 0.2370(3) 0.4509(3) 0.3613(3)
H13 H 0.2426 0.4264 0.4397
H14 H 0.2425 0.5342 0.3490
H15 H 0.3204 0.4025 0.3021
C24 C 0.5713(3) -0.2211(3) -0.0687(2)
H16 H 0.6511 -0.2172 -0.1386
C25 C 0.4593(3) -0.3250(2) 0.1046(3)
H17 H 0.4626 -0.3925 0.1540
C26 C 0.7206(4) -0.4228(3) -0.0278(3)
H18 H 0.7949 -0.4025 -0.0988
H19 H 0.6928 -0.4955 -0.0414
H20 H 0.7627 -0.4351 0.0374
F7? F -0.4681(12) 0.1152(6) 0.5553(9)
F8? F -0.5084(8) 0.1977(7) 0.3947(14)
loop_
_geom_bond_atom_site_label_1
_geom_bond_atom_site_label_2
_geom_bond_site_symmetry_1
_geom_bond_site_symmetry_2
S1 C5 1_555 1_555
N1 C9 1_555 1_555
C1 C3 1_555 1_555
C2 C6 1_555 1_555
C3 C9 1_555 1_555
C4 C5 1_555 1_555
C5 C11 1_555 1_555
C6 C7 1_555 1_555
C7 C1 1_555 1_555
C8 S1 1_555 1_555
C9 N2 1_555 1_555
C10 N1 1_555 1_555
C11 C2 1_555 1_555
H1 C11 1_555 1_555
C12 C3 1_555 1_555
H2 C12 1_555 1_555
N2 C21 1_555 1_555
F1 C19 1_555 1_555
F2 C13 1_555 1_555
F3 C13 1_555 1_555
C13 C6 1_555 1_555
C14 C13 1_555 1_555
F4 C19 1_555 1_555
C15 C10 1_555 1_555
H3 C15 1_555 1_555
H4 C15 1_555 1_555
H5 C15 1_555 1_555
F5 C14 1_555 1_555
F6 C14 1_555 1_555
C16 C4 1_555 1_555
H6 C16 1_555 1_555
C17 C24 1_555 1_555
C18 C12 1_555 1_555
H7 C18 1_555 1_555
C19 C7 1_555 1_555
C20 C8 1_555 1_555
H8 C20 1_555 1_555
H9 C20 1_555 1_555
H10 C20 1_555 1_555
C21 C18 1_555 1_555
H11 C21 1_555 1_555
C22 C4 1_555 1_555
H12 C22 1_555 1_555
C23 N1 1_555 1_555
H13 C23 1_555 1_555
H14 C23 1_555 1_555
H15 C23 1_555 1_555
C24 C22 1_555 1_555
H16 C24 1_555 1_555
C25 C16 1_555 1_555
H17 C25 1_555 1_555
C26 C17 1_555 1_555
H18 C26 1_555 1_555
H19 C26 1_555 1_555
H20 C26 1_555 1_555
C1 C10 1_555 1_555
C2 C8 1_555 1_555
C14 C19 1_555 1_555
C17 C25 1_555 1_555

#END
