
#######################################################################
#
#                 Cambridge Crystallographic Data Centre
#                                CCDC 
#
#######################################################################
#
# If this CIF has been generated from an entry in the Cambridge 
# Structural Database, then it will include bibliographic, chemical, 
# crystal, experimental, refinement or atomic coordinate data resulting 
# from the CCDC's data processing and validation procedures.
#
#######################################################################

data_LOGXAI
_chemical_formula_moiety         'C42 H29 N3'
_chemical_name_systematic        
9-(4-(2-(4-(6-Phenyl-2,2'-bipyridin-4-yl)phenyl)vinyl)phenyl)-9H-carbazole
_symmetry_cell_setting           orthorhombic
_symmetry_space_group_name_H-M   'P c a 21'
_symmetry_Int_Tables_number      29
_space_group_name_Hall           'P 2c -2ac'
loop_
_symmetry_equiv_pos_site_id
_symmetry_equiv_pos_as_xyz
1 x,y,z
2 -x,-y,1/2+z
3 1/2-x,y,1/2+z
4 1/2+x,-y,z
_cell_length_a                   23.11(4)
_cell_length_b                   13.64(2)
_cell_length_c                   9.884(15)
_cell_angle_alpha                90
_cell_angle_beta                 90
_cell_angle_gamma                90
_cell_volume                     3115.64
_exptl_crystal_colour            yellow
_exptl_crystal_description       block
_cell_formula_units_Z            4
loop_
_atom_site_label
_atom_site_type_symbol
_atom_site_fract_x
_atom_site_fract_y
_atom_site_fract_z
C1 C 1.2317(4) -0.0052(6) 0.8423(12)
H1 H 1.2133 -0.0501 0.8986
C2 C 1.2904(4) -0.0016(6) 0.8384(12)
H2 H 1.3118 -0.0400 0.8979
C3 C 1.3187(4) 0.0582(7) 0.7475(11)
H3 H 1.3588 0.0563 0.7390
C4 C 1.2854(3) 0.1215(6) 0.6690(9)
H4 H 1.3034 0.1654 0.6106
C5 C 1.2260(3) 0.1195(6) 0.6770(9)
C6 C 1.1902(3) 0.1849(5) 0.5832(8)
C7 C 1.1303(3) 0.1834(5) 0.5860(10)
H5 H 1.1109 0.1394 0.6418
C8 C 1.09907(12) 0.2485(7) 0.5045(13)
C9 C 1.1308(3) 0.3098(5) 0.4200(8)
H6 H 1.1116 0.3533 0.3631
C10 C 1.1909(3) 0.3066(5) 0.4197(9)
C11 C 1.2267(3) 0.3723(5) 0.3361(9)
C12 C 1.2007(3) 0.4336(6) 0.2461(9)
H7 H 1.1605 0.4368 0.2422
C13 C 1.2320(4) 0.4881(6) 0.1648(12)
H8 H 1.2130 0.5256 0.0999
C14 C 1.2918(4) 0.4926(7) 0.1708(12)
H9 H 1.3129 0.5367 0.1188
C15 C 1.3177(3) 0.4293(7) 0.2562(10)
H10 H 1.3579 0.4264 0.2581
C16 C 1.2864(3) 0.3686(6) 0.3412(9)
H11 H 1.3051 0.3262 0.4004
C17 C 1.03463(13) 0.2504(7) 0.5035(14)
C18 C 1.0032(3) 0.2185(6) 0.6135(12)
H12 H 1.0237 0.1969 0.6888
C19 C 0.9435(3) 0.2163(7) 0.6205(11)
H13 H 0.9245 0.1920 0.6964
C20 C 0.91233(17) 0.2523(10) 0.5075(17)
C21 C 0.9428(4) 0.2794(7) 0.4026(12)
H14 H 0.9220 0.2997 0.3271
C22 C 1.0039(3) 0.2815(6) 0.3904(12)
H15 H 1.0223 0.3024 0.3119
C23 C 0.8487(5) 0.2345(11) 0.5410(17)
H16 H 0.8376 0.1966 0.6148
C24 C 0.8108(5) 0.2748(11) 0.4613(16)
H17 H 0.8221 0.3117 0.3868
C25 C 0.74691(18) 0.2591(8) 0.4949(17)
C26 C 0.7167(4) 0.2006(7) 0.5890(12)
H18 H 0.7377 0.1612 0.6480
C27 C 0.6572(4) 0.1998(6) 0.5966(10)
H19 H 0.6384 0.1616 0.6610
C28 C 0.62591(13) 0.2565(7) 0.5070(13)
C29 C 0.6544(3) 0.3119(6) 0.4115(10)
H20 H 0.6336 0.3498 0.3503
C30 C 0.7151(4) 0.3109(6) 0.4071(12)
H21 H 0.7339 0.3475 0.3410
C31 C 0.5291(3) 0.1717(6) 0.4840(9)
C32 C 0.5453(3) 0.0738(5) 0.4433(12)
H22 H 0.5838 0.0566 0.4289
C33 C 0.5017(5) 0.0079(8) 0.4269(15)
H23 H 0.5112 -0.0577 0.4147
C34 C 0.4439(4) 0.0338(6) 0.4275(12)
H24 H 0.4157 -0.0102 0.3989
C35 C 0.4285(3) 0.1297(6) 0.4733(10)
H25 H 0.3901 0.1456 0.4897
C36 C 0.4714(3) 0.1979(6) 0.4926(9)
C37 C 0.4704(3) 0.3010(6) 0.5240(9)
C38 C 0.4266(3) 0.3710(7) 0.5563(10)
H26 H 0.3881 0.3520 0.5619
C39 C 0.4416(4) 0.4642(7) 0.5782(15)
H27 H 0.4126 0.5113 0.5819
C40 C 0.4984(5) 0.4937(8) 0.5957(17)
H28 H 0.5069 0.5551 0.6311
C41 C 0.5431(3) 0.4285(6) 0.5587(11)
H29 H 0.5813 0.4497 0.5522
C42 C 0.5286(3) 0.3343(5) 0.5331(10)
N1 N 1.1985(3) 0.0589(5) 0.7611(8)
N2 N 1.22077(10) 0.2463(5) 0.5074(10)
N3 N 0.56405(10) 0.2541(6) 0.5054(11)
C43? C 0.8486(6) 0.2727(15) 0.477(2)
H30? H 0.8383 0.3135 0.4051
C44? C 0.8086(6) 0.2319(12) 0.552(2)
H31? H 0.8155 0.1929 0.6272
loop_
_geom_bond_atom_site_label_1
_geom_bond_atom_site_label_2
_geom_bond_site_symmetry_1
_geom_bond_site_symmetry_2
C1 H1 1_555 1_555
C2 C1 1_555 1_555
H2 C2 1_555 1_555
C3 C2 1_555 1_555
H3 C3 1_555 1_555
C4 C3 1_555 1_555
H4 C4 1_555 1_555
C5 C4 1_555 1_555
C6 C5 1_555 1_555
C7 C6 1_555 1_555
H5 C7 1_555 1_555
C8 C7 1_555 1_555
C9 C8 1_555 1_555
H6 C9 1_555 1_555
C10 C9 1_555 1_555
C11 C10 1_555 1_555
C12 C11 1_555 1_555
H7 C12 1_555 1_555
C13 C12 1_555 1_555
H8 C13 1_555 1_555
C14 C13 1_555 1_555
H9 C14 1_555 1_555
C15 C14 1_555 1_555
H10 C15 1_555 1_555
C16 C11 1_555 1_555
H11 C16 1_555 1_555
C17 C8 1_555 1_555
C18 C17 1_555 1_555
H12 C18 1_555 1_555
C19 C18 1_555 1_555
H13 C19 1_555 1_555
C20 C19 1_555 1_555
C21 C20 1_555 1_555
H14 C21 1_555 1_555
C22 C17 1_555 1_555
H15 C22 1_555 1_555
C23 C20 1_555 1_555
H16 C23 1_555 1_555
C24 C23 1_555 1_555
H17 C24 1_555 1_555
C25 C24 1_555 1_555
C26 C25 1_555 1_555
H18 C26 1_555 1_555
C27 C26 1_555 1_555
H19 C27 1_555 1_555
C28 C27 1_555 1_555
C29 C28 1_555 1_555
H20 C29 1_555 1_555
C30 C25 1_555 1_555
H21 C30 1_555 1_555
C31 C32 1_555 1_555
C32 H22 1_555 1_555
C33 C32 1_555 1_555
H23 C33 1_555 1_555
C34 C33 1_555 1_555
H24 C34 1_555 1_555
C35 C34 1_555 1_555
H25 C35 1_555 1_555
C36 C31 1_555 1_555
C37 C36 1_555 1_555
C38 C37 1_555 1_555
H26 C38 1_555 1_555
C39 C38 1_555 1_555
H27 C39 1_555 1_555
C40 C39 1_555 1_555
H28 C40 1_555 1_555
C41 C40 1_555 1_555
H29 C41 1_555 1_555
C42 C37 1_555 1_555
N1 C1 1_555 1_555
N2 C6 1_555 1_555
N3 C28 1_555 1_555
C5 N1 1_555 1_555
C10 N2 1_555 1_555
C15 C16 1_555 1_555
C21 C22 1_555 1_555
C29 C30 1_555 1_555
C31 N3 1_555 1_555
C35 C36 1_555 1_555
C41 C42 1_555 1_555
C42 N3 1_555 1_555

#END
