
#######################################################################
#
#                 Cambridge Crystallographic Data Centre
#                                CCDC 
#
#######################################################################
#
# If this CIF has been generated from an entry in the Cambridge 
# Structural Database, then it will include bibliographic, chemical, 
# crystal, experimental, refinement or atomic coordinate data resulting 
# from the CCDC's data processing and validation procedures.
#
#######################################################################

data_LOHKEA
_chemical_formula_moiety         'C21 H21 F1 N2 O2'
_chemical_name_systematic        
1-(2-fluorophenyl)-N,N'-bis(2-methoxyphenyl)methanediamine
_symmetry_cell_setting           triclinic
_symmetry_space_group_name_H-M   'P -1'
_symmetry_Int_Tables_number      2
_space_group_name_Hall           '-P 1'
loop_
_symmetry_equiv_pos_site_id
_symmetry_equiv_pos_as_xyz
1 x,y,z
2 -x,-y,-z
_cell_length_a                   12.268(3)
_cell_length_b                   12.391(3)
_cell_length_c                   13.236(3)
_cell_angle_alpha                75.84(3)
_cell_angle_beta                 67.39(3)
_cell_angle_gamma                76.59(3)
_cell_volume                     1779.48
_exptl_crystal_colour            colorless
_exptl_crystal_description       block
_cell_formula_units_Z            4
loop_
_atom_site_label
_atom_site_type_symbol
_atom_site_fract_x
_atom_site_fract_y
_atom_site_fract_z
F1 F 0.0943(3) -0.0155(3) 0.1040(3)
O1 O -0.0315(3) 0.2519(3) 0.5309(3)
O2 O 0.2888(3) -0.1763(3) 0.4390(3)
N1 N 0.0426(4) 0.1342(4) 0.3708(4)
N2 N 0.1742(3) -0.0306(4) 0.3184(3)
H1 H 0.1595 -0.0986 0.3373
C1 C -0.0042(4) -0.0296(4) 0.1957(4)
C2 C -0.0138(4) 0.0081(4) 0.2886(4)
C3 C -0.1184(4) -0.0054(5) 0.3794(4)
H2 H -0.1299 0.0215 0.4431
C4 C -0.2051(5) -0.0573(5) 0.3778(5)
H3 H -0.2736 -0.0664 0.4401
C5 C -0.1904(5) -0.0955(5) 0.2842(5)
H4 H -0.2488 -0.1309 0.2829
C6 C -0.0891(5) -0.0818(5) 0.1917(5)
H5 H -0.0785 -0.1075 0.1277
C7 C 0.0863(4) 0.0602(4) 0.2912(4)
H6 H 0.1239 0.1028 0.2173
C8 C -0.0484(4) 0.3095(4) 0.4354(4)
C9 C -0.0108(4) 0.2455(4) 0.3495(4)
C10 C -0.0294(5) 0.2955(5) 0.2516(4)
H7 H -0.0070 0.2538 0.1952
C11 C -0.0813(6) 0.4078(5) 0.2358(5)
H8 H -0.0927 0.4405 0.1687
C12 C -0.1155(6) 0.4700(5) 0.3171(6)
H9 H -0.1500 0.5450 0.3056
C13 C -0.0989(5) 0.4212(5) 0.4183(5)
H10 H -0.1218 0.4639 0.4740
C14 C -0.0705(7) 0.3078(6) 0.6238(5)
H11 H -0.0292 0.3710 0.6043
H12 H -0.0538 0.2565 0.6851
H13 H -0.1550 0.3337 0.6445
C15 C 0.3441(4) -0.0848(5) 0.3767(4)
C16 C 0.2812(4) -0.0092(4) 0.3143(4)
C17 C 0.3305(5) 0.0863(5) 0.2493(5)
H14 H 0.2902 0.1387 0.2069
C18 C 0.4378(5) 0.1041(6) 0.2470(6)
H15 H 0.4705 0.1673 0.2017
C19 C 0.4973(5) 0.0298(6) 0.3106(6)
H16 H 0.5685 0.0438 0.3106
C20 C 0.4511(5) -0.0660(6) 0.3748(5)
H17 H 0.4922 -0.1178 0.4167
C21 C 0.3297(6) -0.2412(6) 0.5262(6)
H18 H 0.4079 -0.2821 0.4949
H19 H 0.2756 -0.2933 0.5721
H20 H 0.3330 -0.1919 0.5704
H21 H 0.058(5) 0.124(5) 0.429(5)
F2 F 0.9215(3) 0.3347(3) 0.8758(3)
O3 O 0.4587(3) 0.7533(3) 1.0286(3)
O4 O 0.5427(3) 0.4193(4) 0.7389(3)
N3 N 0.6814(4) 0.4620(4) 0.8312(3)
N4 N 0.6324(3) 0.5955(4) 0.9494(3)
H22 H 0.5613 0.6040 0.9482
C22 C 0.8338(4) 0.3236(5) 0.9774(4)
C23 C 0.7329(4) 0.4043(4) 0.9969(4)
C24 C 0.6473(4) 0.3892(5) 1.1013(4)
H23 H 0.5790 0.4428 1.1179
C25 C 0.6590(5) 0.2973(5) 1.1823(4)
H24 H 0.5992 0.2892 1.2519
C26 C 0.7600(5) 0.2184(5) 1.1586(4)
H25 H 0.7683 0.1557 1.2120
C27 C 0.8493(5) 0.2315(5) 1.0558(4)
H26 H 0.9187 0.1790 1.0400
C28 C 0.7180(4) 0.5014(4) 0.9050(4)
H27 H 0.7954 0.5269 0.8628
C29 C 0.6071(4) 0.5057(4) 0.6804(4)
C30 C 0.6776(4) 0.5289(4) 0.7311(4)
C31 C 0.7434(5) 0.6158(5) 0.6775(4)
H28 H 0.7907 0.6332 0.7100
C32 C 0.7400(6) 0.6770(6) 0.5768(5)
H29 H 0.7852 0.7352 0.5416
C33 C 0.6704(6) 0.6525(6) 0.5284(5)
H30 H 0.6685 0.6941 0.4601
C34 C 0.6036(5) 0.5672(6) 0.5796(4)
H31 H 0.5562 0.5510 0.5465
C35 C 0.4490(6) 0.4075(7) 0.7062(5)
H32 H 0.3980 0.4787 0.7005
H33 H 0.4032 0.3527 0.7606
H34 H 0.4824 0.3832 0.6354
C36 C 0.5671(4) 0.7590(4) 1.0336(4)
C37 C 0.6583(4) 0.6721(4) 0.9935(4)
C38 C 0.7680(5) 0.6680(5) 1.0014(5)
H35 H 0.8288 0.6089 0.9787
C39 C 0.7892(6) 0.7517(6) 1.0429(5)
H36 H 0.8644 0.7493 1.0456
C40 C 0.7009(6) 0.8355(6) 1.0788(5)
H37 H 0.7154 0.8908 1.1065
C41 C 0.5872(5) 0.8407(5) 1.0752(4)
H38 H 0.5262 0.8987 1.1006
C42 C 0.3601(5) 0.8371(6) 1.0712(7)
H39 H 0.3495 0.8377 1.1468
H40 H 0.2889 0.8203 1.0683
H41 H 0.3755 0.9096 1.0271
H42 H 0.625(5) 0.414(6) 0.856(5)
loop_
_geom_bond_atom_site_label_1
_geom_bond_atom_site_label_2
_geom_bond_site_symmetry_1
_geom_bond_site_symmetry_2
F1 C1 1_555 1_555
O1 C8 1_555 1_555
O2 C15 1_555 1_555
N1 C7 1_555 1_555
N2 H1 1_555 1_555
C1 C2 1_555 1_555
C2 C3 1_555 1_555
C3 H2 1_555 1_555
C4 C3 1_555 1_555
H3 C4 1_555 1_555
C5 C4 1_555 1_555
H4 C5 1_555 1_555
C6 C1 1_555 1_555
H5 C6 1_555 1_555
C7 N2 1_555 1_555
H6 C7 1_555 1_555
C8 C9 1_555 1_555
C9 N1 1_555 1_555
C10 C9 1_555 1_555
H7 C10 1_555 1_555
C11 C10 1_555 1_555
H8 C11 1_555 1_555
C12 C11 1_555 1_555
H9 C12 1_555 1_555
C13 C8 1_555 1_555
H10 C13 1_555 1_555
C14 O1 1_555 1_555
H11 C14 1_555 1_555
H12 C14 1_555 1_555
H13 C14 1_555 1_555
C15 C16 1_555 1_555
C16 N2 1_555 1_555
C17 C16 1_555 1_555
H14 C17 1_555 1_555
C18 C17 1_555 1_555
H15 C18 1_555 1_555
C19 C18 1_555 1_555
H16 C19 1_555 1_555
C20 C15 1_555 1_555
H17 C20 1_555 1_555
C21 O2 1_555 1_555
H18 C21 1_555 1_555
H19 C21 1_555 1_555
H20 C21 1_555 1_555
H21 N1 1_555 1_555
F2 C22 1_555 1_555
O3 C36 1_555 1_555
O4 C29 1_555 1_555
N3 C28 1_555 1_555
N4 H22 1_555 1_555
C22 C23 1_555 1_555
C23 C24 1_555 1_555
C24 H23 1_555 1_555
C25 C24 1_555 1_555
H24 C25 1_555 1_555
C26 C25 1_555 1_555
H25 C26 1_555 1_555
C27 C22 1_555 1_555
H26 C27 1_555 1_555
C28 N4 1_555 1_555
H27 C28 1_555 1_555
C29 C30 1_555 1_555
C30 N3 1_555 1_555
C31 C30 1_555 1_555
H28 C31 1_555 1_555
C32 C31 1_555 1_555
H29 C32 1_555 1_555
C33 C32 1_555 1_555
H30 C33 1_555 1_555
C34 C29 1_555 1_555
H31 C34 1_555 1_555
C35 O4 1_555 1_555
H32 C35 1_555 1_555
H33 C35 1_555 1_555
H34 C35 1_555 1_555
C36 C37 1_555 1_555
C37 N4 1_555 1_555
C38 C37 1_555 1_555
H35 C38 1_555 1_555
C39 C38 1_555 1_555
H36 C39 1_555 1_555
C40 C39 1_555 1_555
H37 C40 1_555 1_555
C41 C36 1_555 1_555
H38 C41 1_555 1_555
C42 O3 1_555 1_555
H39 C42 1_555 1_555
H40 C42 1_555 1_555
H41 C42 1_555 1_555
H42 N3 1_555 1_555
C2 C7 1_555 1_555
C5 C6 1_555 1_555
C12 C13 1_555 1_555
C19 C20 1_555 1_555
C23 C28 1_555 1_555
C26 C27 1_555 1_555
C33 C34 1_555 1_555
C40 C41 1_555 1_555

#END
