
#######################################################################
#
#                 Cambridge Crystallographic Data Centre
#                                CCDC 
#
#######################################################################
#
# If this CIF has been generated from an entry in the Cambridge 
# Structural Database, then it will include bibliographic, chemical, 
# crystal, experimental, refinement or atomic coordinate data resulting 
# from the CCDC's data processing and validation procedures.
#
#######################################################################

data_LOHKAW
_chemical_formula_moiety         'C21 H20 N2 O2'
_chemical_name_systematic        
2-methoxy-N-(2-((2-methoxyphenyl)carbonoimidoyl)phenyl)aniline
_symmetry_cell_setting           monoclinic
_symmetry_space_group_name_H-M   'P 21'
_symmetry_Int_Tables_number      4
_space_group_name_Hall           'P 2yb'
loop_
_symmetry_equiv_pos_site_id
_symmetry_equiv_pos_as_xyz
1 x,y,z
2 -x,1/2+y,-z
_cell_length_a                   11.736(2)
_cell_length_b                   7.3385(15)
_cell_length_c                   11.975(2)
_cell_angle_alpha                90
_cell_angle_beta                 119.23(3)
_cell_angle_gamma                90
_cell_volume                     900.018
_exptl_crystal_colour            yellow
_exptl_crystal_description       block
_cell_formula_units_Z            2
loop_
_atom_site_label
_atom_site_type_symbol
_atom_site_fract_x
_atom_site_fract_y
_atom_site_fract_z
O1 O 0.02578(14) 0.57008(19) 0.77730(13)
O2 O 0.10083(14) 0.5595(2) 0.51310(14)
N1 N 0.22733(16) 0.7910(2) 0.88156(16)
N2 N 0.30099(14) 0.7237(2) 0.70449(14)
C1 C 0.28313(16) 0.9605(2) 0.89551(17)
C2 C 0.34167(16) 1.0068(2) 0.81929(17)
C3 C 0.39078(18) 1.1833(3) 0.82900(19)
H1 H 0.4269 1.2153 0.7778
C4 C 0.38766(19) 1.3105(3) 0.9107(2)
H2 H 0.4221 1.4264 0.9162
C5 C 0.3320(2) 1.2626(3) 0.9852(2)
H3 H 0.3297 1.3475 1.0417
C6 C 0.27999(18) 1.0926(2) 0.97752(19)
H4 H 0.2420 1.0651 1.0279
C7 C 0.35405(17) 0.8803(2) 0.73319(17)
H5 H 0.4043 0.9159 0.6963
C8 C 0.32581(18) 0.6014(3) 0.62735(17)
C9 C 0.2202(2) 0.5072(3) 0.53164(19)
C10 C 0.2410(3) 0.3726(3) 0.4622(2)
H6 H 0.1710 0.3082 0.3989
C11 C 0.3665(4) 0.3355(4) 0.4878(3)
H7 H 0.3805 0.2452 0.4413
C12 C 0.4705(3) 0.4279(4) 0.5796(3)
H8 H 0.5545 0.4022 0.5948
C13 C 0.4503(2) 0.5610(3) 0.6506(2)
H9 H 0.5213 0.6234 0.7143
C14 C -0.0121(3) 0.4779(4) 0.4114(3)
H10 H -0.0106 0.4941 0.3326
H11 H -0.0889 0.5344 0.4048
H12 H -0.0130 0.3501 0.4282
C15 C 0.19275(17) 0.7013(2) 0.96405(17)
C16 C 0.08775(17) 0.5787(2) 0.90819(17)
C17 C 0.0536(2) 0.4765(3) 0.9839(2)
H13 H -0.0166 0.3964 0.9464
C18 C 0.1230(2) 0.4929(3) 1.1148(2)
H14 H 0.0997 0.4234 1.1654
C19 C 0.2267(2) 0.6112(3) 1.1713(2)
H15 H 0.2735 0.6215 1.2600
C20 C 0.26129(18) 0.7154(2) 1.09546(18)
H16 H 0.3315 0.7955 1.1339
C21 C -0.0558(3) 0.4205(4) 0.7169(3)
H17 H -0.0077 0.3096 0.7506
H18 H -0.0868 0.4265 0.6265
H19 H -0.1288 0.4232 0.7323
H20 H 0.2185(18) 0.730(3) 0.8179(19)
loop_
_geom_bond_atom_site_label_1
_geom_bond_atom_site_label_2
_geom_bond_site_symmetry_1
_geom_bond_site_symmetry_2
O1 C16 1_555 1_555
O2 C9 1_555 1_555
N1 C1 1_555 1_555
N2 C7 1_555 1_555
C1 C2 1_555 1_555
C2 C3 1_555 1_555
C3 H1 1_555 1_555
C4 C3 1_555 1_555
H2 C4 1_555 1_555
C5 C4 1_555 1_555
H3 C5 1_555 1_555
C6 C1 1_555 1_555
H4 C6 1_555 1_555
C7 C2 1_555 1_555
H5 C7 1_555 1_555
C8 N2 1_555 1_555
C9 C8 1_555 1_555
C10 C9 1_555 1_555
H6 C10 1_555 1_555
C11 C10 1_555 1_555
H7 C11 1_555 1_555
C12 C11 1_555 1_555
H8 C12 1_555 1_555
C13 C8 1_555 1_555
H9 C13 1_555 1_555
C14 O2 1_555 1_555
H10 C14 1_555 1_555
H11 C14 1_555 1_555
H12 C14 1_555 1_555
C15 N1 1_555 1_555
C16 C15 1_555 1_555
C17 C16 1_555 1_555
H13 C17 1_555 1_555
C18 C17 1_555 1_555
H14 C18 1_555 1_555
C19 C18 1_555 1_555
H15 C19 1_555 1_555
C20 C15 1_555 1_555
H16 C20 1_555 1_555
C21 O1 1_555 1_555
H17 C21 1_555 1_555
H18 C21 1_555 1_555
H19 C21 1_555 1_555
H20 N1 1_555 1_555
C5 C6 1_555 1_555
C12 C13 1_555 1_555
C19 C20 1_555 1_555

#END
