
#######################################################################
#
#                 Cambridge Crystallographic Data Centre
#                                CCDC 
#
#######################################################################
#
# If this CIF has been generated from an entry in the Cambridge 
# Structural Database, then it will include bibliographic, chemical, 
# crystal, experimental, refinement or atomic coordinate data resulting 
# from the CCDC's data processing and validation procedures.
#
#######################################################################

data_LOHKID
_chemical_formula_moiety         'C14 H18 N2 O1 Si1'
_chemical_name_systematic        
(4SR,5RS)-5-(4-cyanophenyl)-4-trimethylsilyl-3-methylisoxazoline
_symmetry_cell_setting           triclinic
_symmetry_space_group_name_H-M   'P -1'
_symmetry_Int_Tables_number      2
_space_group_name_Hall           '-P 1'
loop_
_symmetry_equiv_pos_site_id
_symmetry_equiv_pos_as_xyz
1 x,y,z
2 -x,-y,-z
_cell_length_a                   6.2639(3)
_cell_length_b                   10.8176(10)
_cell_length_c                   12.0845(11)
_cell_angle_alpha                69.976(4)
_cell_angle_beta                 76.959(5)
_cell_angle_gamma                81.566(3)
_cell_volume                     747.35
_exptl_crystal_colour            colorless
_exptl_crystal_description       chunk
_cell_formula_units_Z            2
_exptl_crystal_recrystallization_method 'ethyl acetate/hexane'
loop_
_atom_site_label
_atom_site_type_symbol
_atom_site_fract_x
_atom_site_fract_y
_atom_site_fract_z
Si1 Si 0.53606(11) 0.35156(7) 0.22337(6)
O1 O 0.8373(3) 0.3291(2) 0.44718(16)
N1 N 0.9304(3) 0.2115(2) 0.41902(19)
N2 N 0.0930(6) 0.1050(4) 1.0474(2)
C1 C 0.4562(8) 0.2429(4) 0.1521(4)
C2 C 0.7958(6) 0.4261(4) 0.1389(3)
C3 C 0.3158(6) 0.4834(3) 0.2349(3)
C4 C 0.5743(4) 0.2514(2) 0.3824(2)
C5 C 0.7852(4) 0.1683(2) 0.3860(2)
C6 C 0.6041(4) 0.3339(2) 0.4582(2)
C7 C 0.8343(10) 0.0463(3) 0.3515(3)
C8 C 0.4918(4) 0.2821(2) 0.5882(2)
C9 C 0.6068(5) 0.2056(2) 0.6754(2)
C10 C 0.5028(5) 0.1581(3) 0.7933(2)
C11 C 0.2820(5) 0.1884(2) 0.8253(2)
C12 C 0.1653(5) 0.2622(3) 0.7394(2)
C13 C 0.2682(4) 0.3099(2) 0.6211(2)
C14 C 0.1752(5) 0.1416(3) 0.9489(2)
H1 H 0.021(4) 0.287(2) 0.757(2)
H2 H 0.194(4) 0.363(2) 0.562(2)
H3 H 0.750(4) 0.187(2) 0.653(2)
H4 H 0.580(4) 0.112(2) 0.851(2)
H5 H 0.285(6) 0.525(3) 0.165(3)
H6 H 0.373(5) 0.549(3) 0.263(3)
H7 H 0.187(6) 0.444(3) 0.290(3)
H8 H 0.423(7) 0.294(4) 0.078(4)
H9 H 0.360(6) 0.190(4) 0.199(3)
H10 H 0.573(6) 0.180(3) 0.140(3)
H11 H 0.547(3) 0.426(2) 0.429(2)
H12 H 0.452(3) 0.199(2) 0.4169(19)
H13 H 0.848(5) 0.070(3) 0.270(3)
H14 H 0.719(9) -0.016(6) 0.398(5)
H15 H 0.944(7) -0.001(4) 0.377(4)
H16 H 0.778(5) 0.489(3) 0.061(3)
H17 H 0.907(5) 0.361(3) 0.131(2)
H18 H 0.840(7) 0.479(4) 0.171(4)
loop_
_geom_bond_atom_site_label_1
_geom_bond_atom_site_label_2
_geom_bond_site_symmetry_1
_geom_bond_site_symmetry_2
Si1 C1 1_555 1_555
O1 N1 1_555 1_555
N1 C5 1_555 1_555
N2 C14 1_555 1_555
C1 H8 1_555 1_555
C2 Si1 1_555 1_555
C3 Si1 1_555 1_555
C4 Si1 1_555 1_555
C5 C4 1_555 1_555
C6 O1 1_555 1_555
C7 C5 1_555 1_555
C8 C6 1_555 1_555
C9 C8 1_555 1_555
C10 C9 1_555 1_555
C11 C10 1_555 1_555
C12 C11 1_555 1_555
C13 C8 1_555 1_555
C14 C11 1_555 1_555
H1 C12 1_555 1_555
H2 C13 1_555 1_555
H3 C9 1_555 1_555
H4 C10 1_555 1_555
H5 C3 1_555 1_555
H6 C3 1_555 1_555
H7 C3 1_555 1_555
H9 C1 1_555 1_555
H10 C1 1_555 1_555
H11 C6 1_555 1_555
H12 C4 1_555 1_555
H13 C7 1_555 1_555
H14 C7 1_555 1_555
H15 C7 1_555 1_555
H16 C2 1_555 1_555
H17 C2 1_555 1_555
H18 C2 1_555 1_555
C4 C6 1_555 1_555
C12 C13 1_555 1_555

#END
