
#######################################################################
#
#                 Cambridge Crystallographic Data Centre
#                                CCDC 
#
#######################################################################
#
# If this CIF has been generated from an entry in the Cambridge 
# Structural Database, then it will include bibliographic, chemical, 
# crystal, experimental, refinement or atomic coordinate data resulting 
# from the CCDC's data processing and validation procedures.
#
#######################################################################

data_LOHZIS
_chemical_formula_moiety         'C16 H14 O2'
_chemical_name_systematic        1,4-Diphenylbutane-1,4-dione
_symmetry_cell_setting           orthorhombic
_symmetry_space_group_name_H-M   'P 21 21 2'
_symmetry_Int_Tables_number      18
_space_group_name_Hall           'P 2 2ab'
loop_
_symmetry_equiv_pos_site_id
_symmetry_equiv_pos_as_xyz
1 x,y,z
2 -x,-y,z
3 1/2-x,1/2+y,-z
4 1/2+x,1/2-y,-z
_cell_length_a                   8.3781(13)
_cell_length_b                   14.161(2)
_cell_length_c                   5.3186(8)
_cell_angle_alpha                90
_cell_angle_beta                 90
_cell_angle_gamma                90
_cell_volume                     631.011
_exptl_crystal_colour            colorless
_exptl_crystal_description       block
_cell_formula_units_Z            2
_exptl_crystal_recrystallization_method 'ethyl acetate/cyclohexane'
loop_
_atom_site_label
_atom_site_type_symbol
_atom_site_fract_x
_atom_site_fract_y
_atom_site_fract_z
C1 C 0.1095(3) 0.30567(15) 0.2151(4)
C2 C 0.1070(3) 0.40988(16) 0.1653(5)
C3 C 0.1208(3) 0.11385(19) 0.3179(6)
H1 H 0.1241 0.0496 0.3532
C4 C 0.0072(4) 0.44647(16) -0.0468(5)
H2 H -0.0986 0.4191 -0.0354
H3 H 0.0540 0.4263 -0.2047
C5 C 0.2031(3) 0.17678(17) 0.4670(5)
H4 H 0.2625 0.1548 0.6026
C6 C 0.0283(3) 0.24197(17) 0.0654(5)
H5 H -0.0307 0.2634 -0.0713
C7 C 0.1980(3) 0.27214(16) 0.4163(5)
H6 H 0.2541 0.3142 0.5176
O1 O 0.1843(3) 0.46221(13) 0.2966(5)
C8 C 0.0345(3) 0.14619(18) 0.1188(6)
H7 H -0.0206 0.1037 0.0177
C1A C -0.1095(3) 0.69433(15) 0.2151(4)
C2A C -0.1070(3) 0.59012(16) 0.1653(5)
C3A C -0.1208(3) 0.88615(19) 0.3179(6)
H1A H -0.1241 0.9504 0.3532
C4A C -0.0072(4) 0.55353(16) -0.0468(5)
H2A H 0.0986 0.5809 -0.0354
H3A H -0.0540 0.5737 -0.2047
C5A C -0.2031(3) 0.82322(17) 0.4670(5)
H4A H -0.2625 0.8452 0.6026
C6A C -0.0283(3) 0.75803(17) 0.0654(5)
H5A H 0.0307 0.7366 -0.0713
C7A C -0.1980(3) 0.72786(16) 0.4163(5)
H6A H -0.2541 0.6858 0.5176
O1A O -0.1843(3) 0.53779(13) 0.2966(5)
C8A C -0.0345(3) 0.85381(18) 0.1188(6)
H7A H 0.0206 0.8963 0.0177
loop_
_geom_bond_atom_site_label_1
_geom_bond_atom_site_label_2
_geom_bond_site_symmetry_1
_geom_bond_site_symmetry_2
C1 C2 1_555 1_555
C2 C4 1_555 1_555
C3 H1 1_555 1_555
C4 H2 1_555 1_555
H3 C4 1_555 1_555
C5 C3 1_555 1_555
H4 C5 1_555 1_555
C6 C1 1_555 1_555
H5 C6 1_555 1_555
C7 C1 1_555 1_555
H6 C7 1_555 1_555
O1 C2 1_555 1_555
C8 C3 1_555 1_555
H7 C8 1_555 1_555
C1A C2A 1_555 1_555
C2A C4A 1_555 1_555
C3A H1A 1_555 1_555
C4A C4 1_555 1_555
H2A C4A 1_555 1_555
H3A C4A 1_555 1_555
C5A C3A 1_555 1_555
H4A C5A 1_555 1_555
C6A C1A 1_555 1_555
H5A C6A 1_555 1_555
C7A C1A 1_555 1_555
H6A C7A 1_555 1_555
O1A C2A 1_555 1_555
C8A C3A 1_555 1_555
H7A C8A 1_555 1_555
C5 C7 1_555 1_555
C6 C8 1_555 1_555
C5A C7A 1_555 1_555
C6A C8A 1_555 1_555

#END
