
#######################################################################
#
#                 Cambridge Crystallographic Data Centre
#                                CCDC 
#
#######################################################################
#
# If this CIF has been generated from an entry in the Cambridge 
# Structural Database, then it will include bibliographic, chemical, 
# crystal, experimental, refinement or atomic coordinate data resulting 
# from the CCDC's data processing and validation procedures.
#
#######################################################################

data_LOHZUE
_chemical_formula_moiety         'C13 H10 F3 N3 O5'
_chemical_name_systematic        
1-(4,5-Dinitro-10-azatricyclo(6.3.1.0^2,7^)dodeca-2,4,6-trien-10-yl)-2,2,2-trifluoroethanone
_symmetry_cell_setting           monoclinic
_symmetry_space_group_name_H-M   'P 21/c'
_symmetry_Int_Tables_number      14
_space_group_name_Hall           '-P 2ybc'
loop_
_symmetry_equiv_pos_site_id
_symmetry_equiv_pos_as_xyz
1 x,y,z
2 -x,1/2+y,1/2-z
3 -x,-y,-z
4 x,1/2-y,1/2+z
_cell_length_a                   9.6400(19)
_cell_length_b                   7.7430(15)
_cell_length_c                   18.687(4)
_cell_angle_alpha                90
_cell_angle_beta                 96.98(3)
_cell_angle_gamma                90
_cell_volume                     1384.51
_exptl_crystal_colour            colorless
_cell_formula_units_Z            4
_exptl_crystal_recrystallization_method 'ethyl acetate'
loop_
_atom_site_label
_atom_site_type_symbol
_atom_site_fract_x
_atom_site_fract_y
_atom_site_fract_z
F1 F 0.3302(4) 0.7803(5) 0.23330(19)
F2 F 0.1596(3) 0.6268(5) 0.25814(17)
F3 F 0.3030(3) 0.5239(4) 0.19179(13)
O1 O 0.4775(4) 0.6527(5) 0.34298(19)
O2 O 0.1222(4) 0.4522(5) 0.6478(2)
O3 O 0.0247(4) 0.2030(5) 0.65267(18)
O4 O -0.2298(3) 0.1740(6) 0.4660(2)
O5 O -0.1736(4) 0.3629(5) 0.5498(2)
N1 N 0.3630(3) 0.3999(5) 0.34108(16)
N2 N 0.0824(4) 0.3155(6) 0.6213(2)
N3 N -0.1427(4) 0.2615(5) 0.5031(2)
C1 C 0.2916(5) 0.6217(7) 0.2505(2)
C2 C 0.3865(4) 0.5564(6) 0.3165(2)
C3 C 0.4621(4) 0.3471(7) 0.4042(2)
H1 H 0.4714 0.4406 0.4390
H2 H 0.5532 0.3272 0.3887
C4 C 0.4159(4) 0.1853(6) 0.4403(2)
H3 H 0.4872 0.1443 0.4784
C5 C 0.3737(5) 0.0456(7) 0.3846(3)
H4 H 0.3600 -0.0649 0.4072
H5 H 0.4419 0.0331 0.3509
C6 C 0.2364(4) 0.1203(6) 0.3485(2)
H6 H 0.1799 0.0323 0.3208
C7 C 0.2679(5) 0.2734(7) 0.3008(2)
H7 H 0.3105 0.2310 0.2598
H8 H 0.1811 0.3304 0.2827
C8 C 0.2766(4) 0.2163(5) 0.4683(2)
C9 C 0.2468(4) 0.2693(5) 0.5352(2)
H9 H 0.3181 0.2968 0.5715
C10 C 0.1095(4) 0.2805(5) 0.5470(2)
C11 C 0.0006(4) 0.2439(5) 0.4922(2)
C12 C 0.0337(4) 0.1944(6) 0.4239(2)
H10 H -0.0365 0.1737 0.3861
C13 C 0.1695(4) 0.1778(5) 0.4143(2)
loop_
_geom_bond_atom_site_label_1
_geom_bond_atom_site_label_2
_geom_bond_site_symmetry_1
_geom_bond_site_symmetry_2
F1 C1 1_555 1_555
F2 C1 1_555 1_555
F3 C1 1_555 1_555
O1 C2 1_555 1_555
O2 N2 1_555 1_555
O3 N2 1_555 1_555
O4 N3 1_555 1_555
O5 N3 1_555 1_555
N1 C2 1_555 1_555
N2 C10 1_555 1_555
N3 C11 1_555 1_555
C1 C2 1_555 1_555
C3 N1 1_555 1_555
H1 C3 1_555 1_555
H2 C3 1_555 1_555
C4 C3 1_555 1_555
H3 C4 1_555 1_555
C5 C4 1_555 1_555
H4 C5 1_555 1_555
H5 C5 1_555 1_555
C6 C5 1_555 1_555
H6 C6 1_555 1_555
C7 N1 1_555 1_555
H7 C7 1_555 1_555
H8 C7 1_555 1_555
C8 C4 1_555 1_555
C9 C8 1_555 1_555
H9 C9 1_555 1_555
C10 C9 1_555 1_555
C11 C10 1_555 1_555
C12 C11 1_555 1_555
H10 C12 1_555 1_555
C13 C6 1_555 1_555
C6 C7 1_555 1_555
C8 C13 1_555 1_555
C12 C13 1_555 1_555

#END
