
#######################################################################
#
#                 Cambridge Crystallographic Data Centre
#                                CCDC 
#
#######################################################################
#
# If this CIF has been generated from an entry in the Cambridge 
# Structural Database, then it will include bibliographic, chemical, 
# crystal, experimental, refinement or atomic coordinate data resulting 
# from the CCDC's data processing and validation procedures.
#
#######################################################################

data_LOJBOC
_chemical_formula_moiety         'C11 H10 N3 O4 S1 1+,N1 O3 1-'
_chemical_name_systematic        
'4-(4-Nitrobenzenesulfonamido)pyridinium nitrate'
_symmetry_cell_setting           monoclinic
_symmetry_space_group_name_H-M   'C 2/c'
_symmetry_Int_Tables_number      15
_space_group_name_Hall           '-C 2yn'
loop_
_symmetry_equiv_pos_site_id
_symmetry_equiv_pos_as_xyz
1 x,y,z
2 1/2+x,1/2+y,z
3 -x,y,1/2-z
4 1/2-x,1/2+y,1/2-z
5 -x,-y,-z
6 1/2-x,1/2-y,-z
7 x,-y,1/2+z
8 1/2+x,1/2-y,1/2+z
_cell_length_a                   36.516(7)
_cell_length_b                   5.3742(11)
_cell_length_c                   13.964(3)
_cell_angle_alpha                90
_cell_angle_beta                 99.54(3)
_cell_angle_gamma                90
_cell_volume                     2702.46
_exptl_crystal_colour            colorless
_exptl_crystal_description       block
_cell_formula_units_Z            8
_exptl_crystal_recrystallization_method 'nitric acid'
loop_
_atom_site_label
_atom_site_type_symbol
_atom_site_fract_x
_atom_site_fract_y
_atom_site_fract_z
S1 S 0.133115(11) 0.62515(7) 0.45086(3)
O1 O 0.12702(3) 0.8195(2) 0.51613(8)
O2 O 0.14580(3) 0.6801(2) 0.36175(8)
O3 O 0.25592(4) -0.2298(3) 0.63494(9)
O4 O 0.22026(4) -0.2269(2) 0.74432(8)
N1 N 0.06215(5) -0.1019(3) 0.23971(11)
N2 N 0.09333(4) 0.4790(2) 0.42774(10)
N3 N 0.22946(4) -0.1490(3) 0.66941(10)
C1 C 0.08430(4) 0.2815(3) 0.36372(10)
C2 C 0.05600(4) 0.1211(3) 0.38117(11)
H1 H 0.0441 0.1453 0.4361
C3 C 0.04565(5) -0.0704(3) 0.31855(12)
H2 H 0.0268 -0.1822 0.3304
C4 C 0.08911(5) 0.0488(3) 0.22111(12)
H3 H 0.1000 0.0222 0.1648
C5 C 0.10119(5) 0.2409(3) 0.28211(11)
H4 H 0.1208 0.3456 0.2694
C6 C 0.16389(4) 0.4066(3) 0.51584(11)
C7 C 0.18870(5) 0.2755(3) 0.46944(11)
H5 H 0.1905 0.3098 0.4037
C8 C 0.21072(5) 0.0943(3) 0.52069(11)
H6 H 0.2279 0.0017 0.4909
C9 C 0.20707(4) 0.0509(3) 0.61656(11)
C10 C 0.18289(5) 0.1823(3) 0.66407(11)
H7 H 0.1813 0.1492 0.7301
C11 C 0.16114(5) 0.3626(3) 0.61267(11)
H8 H 0.1443 0.4568 0.6432
H9 H 0.0541(7) -0.225(5) 0.1953(16)
H10 H 0.0832(6) 0.483(4) 0.4735(16)
O5 O 0.06125(3) 0.4370(2) 0.58801(8)
O6 O 0.01603(3) 0.5377(2) 0.66295(8)
O7 O 0.02485(4) 0.7446(2) 0.53506(8)
N4 N 0.03315(4) 0.5777(2) 0.59463(9)
loop_
_geom_bond_atom_site_label_1
_geom_bond_atom_site_label_2
_geom_bond_site_symmetry_1
_geom_bond_site_symmetry_2
S1 O1 1_555 1_555
O2 S1 1_555 1_555
O3 N3 1_555 1_555
O4 N3 1_555 1_555
N1 C3 1_555 1_555
N2 S1 1_555 1_555
N3 C9 1_555 1_555
C1 N2 1_555 1_555
C2 C1 1_555 1_555
H1 C2 1_555 1_555
C3 C2 1_555 1_555
H2 C3 1_555 1_555
C4 N1 1_555 1_555
H3 C4 1_555 1_555
C5 C1 1_555 1_555
H4 C5 1_555 1_555
C6 S1 1_555 1_555
C7 C6 1_555 1_555
H5 C7 1_555 1_555
C8 C7 1_555 1_555
H6 C8 1_555 1_555
C9 C8 1_555 1_555
C10 C9 1_555 1_555
H7 C10 1_555 1_555
C11 C6 1_555 1_555
H8 C11 1_555 1_555
H9 N1 1_555 1_555
H10 N2 1_555 1_555
O5 N4 1_555 1_555
O6 N4 1_555 1_555
O7 N4 1_555 1_555
C4 C5 1_555 1_555
C10 C11 1_555 1_555

#END
