
#######################################################################
#
#                 Cambridge Crystallographic Data Centre
#                                CCDC 
#
#######################################################################
#
# If this CIF has been generated from an entry in the Cambridge 
# Structural Database, then it will include bibliographic, chemical, 
# crystal, experimental, refinement or atomic coordinate data resulting 
# from the CCDC's data processing and validation procedures.
#
#######################################################################

data_LOJCIX
_chemical_formula_moiety         'C12 H13 N1'
_chemical_name_systematic        2,3,4,9-Tetrahydro-1H-carbazole
_symmetry_cell_setting           orthorhombic
_symmetry_space_group_name_H-M   'P 21 21 21'
_symmetry_Int_Tables_number      19
_space_group_name_Hall           'P 2ac 2ab'
loop_
_symmetry_equiv_pos_site_id
_symmetry_equiv_pos_as_xyz
1 x,y,z
2 1/2-x,-y,1/2+z
3 1/2+x,1/2-y,-z
4 -x,1/2+y,1/2-z
_cell_length_a                   6.1067(4)
_cell_length_b                   7.9488(5)
_cell_length_c                   19.4512(12)
_cell_angle_alpha                90
_cell_angle_beta                 90
_cell_angle_gamma                90
_cell_volume                     944.179
_exptl_crystal_colour            colorless
_exptl_crystal_description       block
_cell_formula_units_Z            4
_exptl_crystal_recrystallization_method methanol
loop_
_atom_site_label
_atom_site_type_symbol
_atom_site_fract_x
_atom_site_fract_y
_atom_site_fract_z
N1 N 0.7448(2) 0.5987(2) 0.95685(8)
H1 H 0.8656 0.6513 0.9495
C1 C 0.3210(3) 0.4486(2) 1.06567(10)
H2 H 0.1945 0.3846 1.0604
C2 C 0.3803(4) 0.5087(3) 1.12920(10)
H3 H 0.2921 0.4854 1.1670
C3 C 0.5689(4) 0.6033(3) 1.13826(10)
H4 H 0.6046 0.6419 1.1820
C4 C 0.7035(3) 0.6410(2) 1.08415(10)
H5 H 0.8298 0.7045 1.0904
C5 C 0.6448(3) 0.5811(2) 1.01954(9)
C6 C 0.4535(3) 0.4849(2) 1.00903(9)
C7 C 0.4433(3) 0.4464(2) 0.93742(8)
C8 C 0.6210(3) 0.5184(2) 0.90741(9)
C9 C 0.6730(3) 0.5153(3) 0.83301(10)
H6 H 0.8252 0.4841 0.8267
H7 H 0.6521 0.6267 0.8138
C10 C 0.5287(9) 0.3918(9) 0.7958(4)
H8 H 0.5876 0.2795 0.8019
H9 H 0.5318 0.4171 0.7470
C11 C 0.2927(8) 0.3943(9) 0.8204(2)
H10 H 0.2083 0.3133 0.7941
H11 H 0.2308 0.5049 0.8122
C12 C 0.2741(3) 0.3519(3) 0.89757(10)
H12 H 0.1293 0.3817 0.9141
H13 H 0.2943 0.2320 0.9043
H14? H 0.7893 0.4371 0.8240
H15? H 0.7193 0.6249 0.8182
C13? C 0.4709(17) 0.4587(13) 0.7953(5)
H16? H 0.3699 0.5527 0.7924
H17? H 0.5117 0.4282 0.7487
C14? C 0.3543(15) 0.3125(11) 0.8276(3)
H18? H 0.2313 0.2806 0.7989
H19? H 0.4534 0.2173 0.8300
H20? H 0.1428 0.4179 0.8941
H21? H 0.2390 0.2494 0.9212
loop_
_geom_bond_atom_site_label_1
_geom_bond_atom_site_label_2
_geom_bond_site_symmetry_1
_geom_bond_site_symmetry_2
N1 H1 1_555 1_555
C1 H2 1_555 1_555
C2 C1 1_555 1_555
H3 C2 1_555 1_555
C3 C2 1_555 1_555
H4 C3 1_555 1_555
C4 C3 1_555 1_555
H5 C4 1_555 1_555
C5 N1 1_555 1_555
C6 C1 1_555 1_555
C7 C6 1_555 1_555
C8 N1 1_555 1_555
C9 C8 1_555 1_555
H6 C9 1_555 1_555
H7 C9 1_555 1_555
C10 C9 1_555 1_555
H8 C10 1_555 1_555
H9 C10 1_555 1_555
C11 C10 1_555 1_555
H10 C11 1_555 1_555
H11 C11 1_555 1_555
C12 C7 1_555 1_555
H12 C12 1_555 1_555
H13 C12 1_555 1_555
C4 C5 1_555 1_555
C5 C6 1_555 1_555
C7 C8 1_555 1_555
C11 C12 1_555 1_555

#END
