
#######################################################################
#
#                 Cambridge Crystallographic Data Centre
#                                CCDC 
#
#######################################################################
#
# If this CIF has been generated from an entry in the Cambridge 
# Structural Database, then it will include bibliographic, chemical, 
# crystal, experimental, refinement or atomic coordinate data resulting 
# from the CCDC's data processing and validation procedures.
#
#######################################################################

data_LOJFOH
_chemical_formula_moiety         'C42 H32 Cl4 O2 P2,2(C1 H1 Cl3)'
_chemical_name_systematic        
"2,2'-(ethane-1,2-diylbis(diphenylphosphoranylylidene))bis(1-(2,4-dichlorophenyl)ethanone) chloroform solvate"
_symmetry_cell_setting           triclinic
_symmetry_space_group_name_H-M   'P -1'
_symmetry_Int_Tables_number      2
_space_group_name_Hall           '-P 1'
loop_
_symmetry_equiv_pos_site_id
_symmetry_equiv_pos_as_xyz
1 x,y,z
2 -x,-y,-z
_cell_length_a                   11.4908(3)
_cell_length_b                   15.0297(5)
_cell_length_c                   16.0555(5)
_cell_angle_alpha                106.327(3)
_cell_angle_beta                 110.245(3)
_cell_angle_gamma                103.841(3)
_cell_volume                     2315.71
_exptl_crystal_description       plate
_cell_formula_units_Z            2
loop_
_atom_site_label
_atom_site_type_symbol
_atom_site_fract_x
_atom_site_fract_y
_atom_site_fract_z
Cl1 Cl 0.69465(7) 0.79187(5) 0.90689(4)
Cl2 Cl 0.80000(7) 0.67984(5) 0.60223(5)
P1 P 0.45806(5) 1.04198(4) 0.87365(4)
O1 O 0.43535(15) 0.83510(11) 0.80617(11)
C1 C 0.5574(2) 0.99566(15) 0.82908(14)
H1 H 0.6287 1.0380 0.8244
C2 C 0.5288(2) 0.89399(15) 0.80039(14)
C3 C 0.6095(2) 0.84910(15) 0.75771(14)
C4 C 0.6785(2) 0.79475(16) 0.79611(15)
C5 C 0.7388(2) 0.74358(17) 0.74982(16)
H2 H 0.7848 0.7062 0.7768
C6 C 0.7306(2) 0.74821(16) 0.66354(16)
C7 C 0.6689(2) 0.80500(16) 0.62496(16)
H3 H 0.6673 0.8096 0.5668
C8 C 0.6091(2) 0.85516(16) 0.67285(15)
H4 H 0.5667 0.8948 0.6470
C9 C 0.43624(19) 1.00170(15) 0.96559(14)
H5 H 0.4070 1.0481 1.0033
H6 H 0.3648 0.9344 0.9336
C10 C 0.2900(2) 1.00480(14) 0.78247(14)
C11 C 0.2585(2) 0.96049(17) 0.68536(16)
H7 H 0.3252 0.9488 0.6667
C12 C 0.1303(2) 0.93329(19) 0.61562(17)
H8 H 0.1094 0.9035 0.5491
C13 C 0.0326(2) 0.94902(19) 0.64174(18)
H9 H -0.0556 0.9295 0.5933
C14 C 0.0628(2) 0.99330(19) 0.73871(18)
H10 H -0.0049 1.0037 0.7567
C15 C 0.1913(2) 1.02227(17) 0.80918(16)
H11 H 0.2125 1.0540 0.8756
C16 C 0.52872(19) 1.17635(14) 0.92116(14)
C17 C 0.5435(2) 1.21939(16) 0.85726(16)
H12 H 0.5220 1.1779 0.7930
C18 C 0.5891(2) 1.32153(17) 0.88673(18)
H13 H 0.5981 1.3505 0.8427
C19 C 0.6217(2) 1.38210(17) 0.98060(18)
H14 H 0.6522 1.4527 1.0009
C20 C 0.6099(2) 1.33976(17) 1.04479(17)
H15 H 0.6340 1.3816 1.1095
C21 C 0.5635(2) 1.23718(16) 1.01588(16)
H16 H 0.5554 1.2085 1.0603
Cl1A Cl 0.30535(7) 1.20813(5) 1.09311(4)
Cl2A Cl 0.20000(7) 1.32016(5) 1.39777(5)
P1A P 0.54194(5) 0.95802(4) 1.12635(4)
O1A O 0.56465(15) 1.16490(11) 1.19383(11)
C1A C 0.4426(2) 1.00434(15) 1.17092(14)
H1A H 0.3713 0.9620 1.1756
C2A C 0.4712(2) 1.10601(15) 1.19961(14)
C3A C 0.3905(2) 1.15090(15) 1.24229(14)
C4A C 0.3215(2) 1.20525(16) 1.20389(15)
C5A C 0.2612(2) 1.25642(17) 1.25018(16)
H2A H 0.2152 1.2938 1.2232
C6A C 0.2694(2) 1.25179(16) 1.33646(16)
C7A C 0.3311(2) 1.19500(16) 1.37504(16)
H3A H 0.3327 1.1904 1.4332
C8A C 0.3909(2) 1.14484(16) 1.32715(15)
H4A H 0.4333 1.1052 1.3530
C9A C 0.56376(19) 0.99830(15) 1.03441(14)
H5A H 0.5930 0.9519 0.9967
H6A H 0.6352 1.0656 1.0664
C10A C 0.7100(2) 0.99520(14) 1.21753(14)
C11A C 0.7415(2) 1.03951(17) 1.31464(16)
H7A H 0.6748 1.0512 1.3333
C12A C 0.8697(2) 1.06671(19) 1.38438(17)
H8A H 0.8906 1.0965 1.4509
C13A C 0.9674(2) 1.05098(19) 1.35826(18)
H9A H 1.0556 1.0705 1.4067
C14A C 0.9372(2) 1.00670(19) 1.26129(18)
H10A H 1.0049 0.9963 1.2433
C15A C 0.8087(2) 0.97773(17) 1.19082(16)
H11A H 0.7875 0.9460 1.1244
C16A C 0.47128(19) 0.82365(14) 1.07884(14)
C17A C 0.4565(2) 0.78061(16) 1.14274(16)
H12A H 0.4780 0.8221 1.2070
C18A C 0.4109(2) 0.67847(17) 1.11327(18)
H13A H 0.4019 0.6495 1.1573
C19A C 0.3783(2) 0.61790(17) 1.01940(18)
H14A H 0.3478 0.5473 0.9991
C20A C 0.3901(2) 0.66024(17) 0.95521(17)
H15A H 0.3660 0.6184 0.8905
C21A C 0.4365(2) 0.76282(16) 0.98412(16)
H16A H 0.4446 0.7915 0.9397
Cl3 Cl 1.18632(7) 0.28460(5) 0.90421(4)
Cl4 Cl 1.29428(6) 0.17867(4) 0.60148(4)
P2 P 0.93836(5) 0.52753(4) 0.86532(4)
O2 O 0.91092(15) 0.31480(11) 0.80741(10)
C22 C 1.0218(2) 0.46987(15) 0.81138(14)
H17 H 1.0847 0.5065 0.7957
C23 C 0.9957(2) 0.36941(15) 0.79120(14)
C24 C 1.0720(2) 0.32225(14) 0.74510(14)
C25 C 1.1571(2) 0.27986(16) 0.78884(15)
C26 C 1.2252(2) 0.23560(16) 0.74548(16)
H18 H 1.2827 0.2070 0.7768
C27 C 1.2078(2) 0.23393(15) 0.65587(15)
C28 C 1.1252(2) 0.27522(16) 0.60921(15)
H19 H 1.1145 0.2737 0.5474
C29 C 1.0580(2) 0.31907(15) 0.65456(15)
H20 H 1.0008 0.3477 0.6229
C30 C 0.93255(19) 0.49728(15) 0.96586(14)
H21 H 0.9032 0.5443 1.0027
H22 H 0.8656 0.4290 0.9402
C31 C 0.7648(2) 0.49548(15) 0.78631(14)
C32 C 0.6873(2) 0.53716(16) 0.82203(16)
H23 H 0.7255 0.5818 0.8880
C33 C 0.5552(2) 0.51400(18) 0.76198(18)
H24 H 0.5027 0.5428 0.7866
C34 C 0.4992(2) 0.4491(2) 0.66622(19)
H25 H 0.4082 0.4332 0.6247
C35 C 0.5759(3) 0.4076(2) 0.63119(18)
H26 H 0.5373 0.3628 0.5652
C36 C 0.7079(2) 0.43004(18) 0.69047(17)
H27 H 0.7597 0.4006 0.6655
C37 C 1.0170(2) 0.65996(15) 0.90415(15)
C38 C 1.0451(2) 0.72749(15) 0.99480(16)
H28 H 1.0314 0.7040 1.0411
C39 C 1.0930(2) 0.82878(17) 1.01700(18)
H29 H 1.1112 0.8749 1.0785
C40 C 1.1147(2) 0.86381(17) 0.95054(19)
H30 H 1.1462 0.9336 0.9661
C41 C 1.0903(2) 0.79693(17) 0.86106(18)
H31 H 1.1074 0.8209 0.8160
C42 C 1.0412(2) 0.69524(16) 0.83772(16)
H32 H 1.0240 0.6493 0.7764
Cl3A Cl 0.81368(7) 0.71540(5) 1.09579(4)
Cl4A Cl 0.70572(6) 0.82133(4) 1.39852(4)
P2A P 1.06164(5) 0.47247(4) 1.13468(4)
O2A O 1.08908(15) 0.68520(11) 1.19259(10)
C22A C 0.9782(2) 0.53013(15) 1.18862(14)
H17A H 0.9153 0.4935 1.2043
C23A C 1.0043(2) 0.63059(15) 1.20880(14)
C24A C 0.9280(2) 0.67775(14) 1.25490(14)
C25A C 0.8429(2) 0.72014(16) 1.21116(15)
C26A C 0.7748(2) 0.76440(16) 1.25452(16)
H18A H 0.7173 0.7930 1.2232
C27A C 0.7922(2) 0.76607(15) 1.34413(15)
C28A C 0.8748(2) 0.72478(16) 1.39079(15)
H19A H 0.8855 0.7263 1.4526
C29A C 0.9420(2) 0.68093(15) 1.34544(15)
H20A H 0.9992 0.6523 1.3771
C30A C 1.06745(19) 0.50272(15) 1.03414(14)
H21A H 1.0968 0.4557 0.9973
H22A H 1.1344 0.5710 1.0598
C31A C 1.2352(2) 0.50452(15) 1.21369(14)
C32A C 1.3127(2) 0.46284(16) 1.17797(16)
H23A H 1.2745 0.4182 1.1120
C33A C 1.4448(2) 0.48600(18) 1.23802(18)
H24A H 1.4973 0.4572 1.2134
C34A C 1.5008(2) 0.5509(2) 1.33378(19)
H25A H 1.5918 0.5668 1.3753
C35A C 1.4241(3) 0.5924(2) 1.36881(18)
H26A H 1.4627 0.6372 1.4348
C36A C 1.2921(2) 0.56996(18) 1.30953(17)
H27A H 1.2403 0.5994 1.3345
C37A C 0.9830(2) 0.34004(15) 1.09585(15)
C38A C 0.9549(2) 0.27251(15) 1.00520(16)
H28A H 0.9686 0.2960 0.9589
C39A C 0.9070(2) 0.17122(17) 0.98300(18)
H29A H 0.8888 0.1251 0.9215
C40A C 0.8853(2) 0.13619(17) 1.04946(19)
H30A H 0.8538 0.0664 1.0339
C41A C 0.9097(2) 0.20307(17) 1.13894(18)
H31A H 0.8926 0.1791 1.1840
C42A C 0.9588(2) 0.30476(16) 1.16228(16)
H32A H 0.9760 0.3507 1.2236
Cl5 Cl 0.21048(7) 0.54133(5) 0.66948(5)
Cl6 Cl 0.10363(9) 0.67378(7) 0.59841(7)
Cl7 Cl 0.29509(11) 0.61135(6) 0.54440(7)
C43 C 0.2440(2) 0.64279(17) 0.63578(17)
H33 H 0.3187 0.7017 0.6932
Cl8 Cl 0.69394(7) 0.18932(5) 0.53459(4)
Cl9 Cl 0.78144(7) 0.05003(5) 0.60554(6)
Cl10 Cl 0.55479(7) 0.08974(5) 0.62178(5)
C44 C 0.7113(2) 0.14120(16) 0.62419(16)
H34 H 0.7725 0.1968 0.6890
loop_
_geom_bond_atom_site_label_1
_geom_bond_atom_site_label_2
_geom_bond_site_symmetry_1
_geom_bond_site_symmetry_2
Cl1 C4 1_555 1_555
Cl2 C6 1_555 1_555
P1 C1 1_555 1_555
O1 C2 1_555 1_555
C1 H1 1_555 1_555
C2 C1 1_555 1_555
C3 C2 1_555 1_555
C4 C3 1_555 1_555
C5 C4 1_555 1_555
H2 C5 1_555 1_555
C6 C5 1_555 1_555
C7 C6 1_555 1_555
H3 C7 1_555 1_555
C8 C3 1_555 1_555
H4 C8 1_555 1_555
C9 P1 1_555 1_555
H5 C9 1_555 1_555
H6 C9 1_555 1_555
C10 P1 1_555 1_555
C11 C10 1_555 1_555
H7 C11 1_555 1_555
C12 C11 1_555 1_555
H8 C12 1_555 1_555
C13 C12 1_555 1_555
H9 C13 1_555 1_555
C14 C13 1_555 1_555
H10 C14 1_555 1_555
C15 C10 1_555 1_555
H11 C15 1_555 1_555
C16 P1 1_555 1_555
C17 C16 1_555 1_555
H12 C17 1_555 1_555
C18 C17 1_555 1_555
H13 C18 1_555 1_555
C19 C18 1_555 1_555
H14 C19 1_555 1_555
C20 C19 1_555 1_555
H15 C20 1_555 1_555
C21 C16 1_555 1_555
H16 C21 1_555 1_555
Cl3 C25 1_555 1_555
Cl4 C27 1_555 1_555
P2 C22 1_555 1_555
O2 C23 1_555 1_555
C22 H17 1_555 1_555
C23 C22 1_555 1_555
C24 C23 1_555 1_555
C25 C24 1_555 1_555
C26 C25 1_555 1_555
H18 C26 1_555 1_555
C27 C26 1_555 1_555
C28 C27 1_555 1_555
H19 C28 1_555 1_555
C29 C24 1_555 1_555
H20 C29 1_555 1_555
C30 P2 1_555 1_555
H21 C30 1_555 1_555
H22 C30 1_555 1_555
C31 P2 1_555 1_555
C32 C31 1_555 1_555
H23 C32 1_555 1_555
C33 C32 1_555 1_555
H24 C33 1_555 1_555
C34 C33 1_555 1_555
H25 C34 1_555 1_555
C35 C34 1_555 1_555
H26 C35 1_555 1_555
C36 C31 1_555 1_555
H27 C36 1_555 1_555
C37 P2 1_555 1_555
C38 C37 1_555 1_555
H28 C38 1_555 1_555
C39 C38 1_555 1_555
H29 C39 1_555 1_555
C40 C39 1_555 1_555
H30 C40 1_555 1_555
C41 C40 1_555 1_555
H31 C41 1_555 1_555
C42 C37 1_555 1_555
H32 C42 1_555 1_555
Cl5 C43 1_555 1_555
Cl6 C43 1_555 1_555
Cl7 C43 1_555 1_555
C43 H33 1_555 1_555
Cl8 C44 1_555 1_555
Cl9 C44 1_555 1_555
Cl10 C44 1_555 1_555
C44 H34 1_555 1_555
Cl1A C4A 1_555 1_555
Cl2A C6A 1_555 1_555
P1A C1A 1_555 1_555
O1A C2A 1_555 1_555
C1A H1A 1_555 1_555
C2A C1A 1_555 1_555
C3A C2A 1_555 1_555
C4A C3A 1_555 1_555
C5A C4A 1_555 1_555
H2A C5A 1_555 1_555
C6A C5A 1_555 1_555
C7A C6A 1_555 1_555
H3A C7A 1_555 1_555
C8A C3A 1_555 1_555
H4A C8A 1_555 1_555
C9A C9 1_555 1_555
H5A C9A 1_555 1_555
H6A C9A 1_555 1_555
C10A P1A 1_555 1_555
C11A C10A 1_555 1_555
H7A C11A 1_555 1_555
C12A C11A 1_555 1_555
H8A C12A 1_555 1_555
C13A C12A 1_555 1_555
H9A C13A 1_555 1_555
C14A C13A 1_555 1_555
H10A C14A 1_555 1_555
C15A C10A 1_555 1_555
H11A C15A 1_555 1_555
C16A P1A 1_555 1_555
C17A C16A 1_555 1_555
H12A C17A 1_555 1_555
C18A C17A 1_555 1_555
H13A C18A 1_555 1_555
C19A C18A 1_555 1_555
H14A C19A 1_555 1_555
C20A C19A 1_555 1_555
H15A C20A 1_555 1_555
C21A C16A 1_555 1_555
H16A C21A 1_555 1_555
Cl3A C25A 1_555 1_555
Cl4A C27A 1_555 1_555
P2A C22A 1_555 1_555
O2A C23A 1_555 1_555
C22A H17A 1_555 1_555
C23A C22A 1_555 1_555
C24A C23A 1_555 1_555
C25A C24A 1_555 1_555
C26A C25A 1_555 1_555
H18A C26A 1_555 1_555
C27A C26A 1_555 1_555
C28A C27A 1_555 1_555
H19A C28A 1_555 1_555
C29A C24A 1_555 1_555
H20A C29A 1_555 1_555
C30A C30 1_555 1_555
H21A C30A 1_555 1_555
H22A C30A 1_555 1_555
C31A P2A 1_555 1_555
C32A C31A 1_555 1_555
H23A C32A 1_555 1_555
C33A C32A 1_555 1_555
H24A C33A 1_555 1_555
C34A C33A 1_555 1_555
H25A C34A 1_555 1_555
C35A C34A 1_555 1_555
H26A C35A 1_555 1_555
C36A C31A 1_555 1_555
H27A C36A 1_555 1_555
C37A P2A 1_555 1_555
C38A C37A 1_555 1_555
H28A C38A 1_555 1_555
C39A C38A 1_555 1_555
H29A C39A 1_555 1_555
C40A C39A 1_555 1_555
H30A C40A 1_555 1_555
C41A C40A 1_555 1_555
H31A C41A 1_555 1_555
C42A C37A 1_555 1_555
H32A C42A 1_555 1_555
C7 C8 1_555 1_555
C14 C15 1_555 1_555
C20 C21 1_555 1_555
C28 C29 1_555 1_555
C35 C36 1_555 1_555
C41 C42 1_555 1_555
P1A C9A 1_555 1_555
C7A C8A 1_555 1_555
C14A C15A 1_555 1_555
C20A C21A 1_555 1_555
P2A C30A 1_555 1_555
C28A C29A 1_555 1_555
C35A C36A 1_555 1_555
C41A C42A 1_555 1_555

#END
