
#######################################################################
#
#                 Cambridge Crystallographic Data Centre
#                                CCDC 
#
#######################################################################
#
# If this CIF has been generated from an entry in the Cambridge 
# Structural Database, then it will include bibliographic, chemical, 
# crystal, experimental, refinement or atomic coordinate data resulting 
# from the CCDC's data processing and validation procedures.
#
#######################################################################

data_LOJKAX
_chemical_formula_moiety         'C8 H6 N2 O2'
_chemical_name_systematic        2-Methyl-3-nitrobenzonitrile
_symmetry_cell_setting           monoclinic
_symmetry_space_group_name_H-M   'P 21/n'
_symmetry_Int_Tables_number      14
_space_group_name_Hall           '-P 2yn'
loop_
_symmetry_equiv_pos_site_id
_symmetry_equiv_pos_as_xyz
1 x,y,z
2 1/2-x,1/2+y,1/2-z
3 -x,-y,-z
4 1/2+x,1/2-y,1/2+z
_cell_length_a                   14.025(3)
_cell_length_b                   7.3860(15)
_cell_length_c                   15.515(3)
_cell_angle_alpha                90
_cell_angle_beta                 101.80(3)
_cell_angle_gamma                90
_cell_volume                     1573.21
_exptl_crystal_colour            colorless
_exptl_crystal_description       block
_cell_formula_units_Z            8
_exptl_crystal_recrystallization_method ethanol
loop_
_atom_site_label
_atom_site_type_symbol
_atom_site_fract_x
_atom_site_fract_y
_atom_site_fract_z
O1 O 0.8903(3) 0.3923(5) 0.9651(2)
O2 O 0.8075(3) 0.2944(5) 0.8476(2)
N1 N 0.9792(3) -0.4285(6) 0.7823(3)
N2 N 0.8813(3) 0.2924(5) 0.9055(2)
C1 C 0.8268(3) -0.0774(7) 0.8368(3)
H1 H 0.7835 0.0171 0.8470
H2 H 0.8181 -0.1816 0.8713
H3 H 0.8128 -0.1092 0.7755
C2 C 0.9291(3) -0.0132(5) 0.8624(2)
C3 C 0.9574(2) 0.1578(5) 0.8973(2)
C4 C 1.0540(3) 0.2126(6) 0.9250(2)
H4 H 1.0702 0.3263 0.9494
C5 C 1.1250(3) 0.0870(7) 0.9140(3)
H5 H 1.1903 0.1195 0.9309
C6 C 1.1036(3) -0.0738(6) 0.8811(3)
H6 H 1.1534 -0.1538 0.8760
C7 C 1.0072(3) -0.1268(5) 0.8534(2)
C8 C 0.9868(3) -0.3022(6) 0.8160(3)
O3 O -0.2355(3) -0.1305(6) 0.2733(2)
O4 O -0.2358(2) 0.0205(5) 0.3874(2)
N3 N 0.1646(3) 0.3683(6) 0.4808(3)
N4 N -0.1954(3) -0.0405(6) 0.3328(3)
C9 C -0.0871(3) 0.2856(5) 0.4071(3)
H7 H -0.0390 0.3709 0.4351
H8 H -0.1311 0.2595 0.4455
H9 H -0.1228 0.3360 0.3531
C10 C -0.0378(3) 0.1138(5) 0.3880(2)
C11 C -0.0849(3) -0.0391(6) 0.3503(2)
C12 C -0.0389(3) -0.1889(6) 0.3260(2)
H10 H -0.0752 -0.2850 0.2977
C13 C 0.0618(3) -0.1963(6) 0.3435(3)
H11 H 0.0943 -0.2984 0.3295
C14 C 0.1137(3) -0.0442(5) 0.3834(2)
H12 H 0.1814 -0.0446 0.3950
C15 C 0.0650(3) 0.1033(5) 0.4049(2)
C16 C 0.1190(3) 0.2561(6) 0.4443(3)
loop_
_geom_bond_atom_site_label_1
_geom_bond_atom_site_label_2
_geom_bond_site_symmetry_1
_geom_bond_site_symmetry_2
O1 N2 1_555 1_555
O2 N2 1_555 1_555
N1 C8 1_555 1_555
N2 C3 1_555 1_555
C1 H1 1_555 1_555
H2 C1 1_555 1_555
H3 C1 1_555 1_555
C2 C1 1_555 1_555
C3 C2 1_555 1_555
C4 C3 1_555 1_555
H4 C4 1_555 1_555
C5 C4 1_555 1_555
H5 C5 1_555 1_555
C6 C5 1_555 1_555
H6 C6 1_555 1_555
C7 C2 1_555 1_555
C8 C7 1_555 1_555
O3 N4 1_555 1_555
O4 N4 1_555 1_555
N3 C16 1_555 1_555
N4 C11 1_555 1_555
C9 H7 1_555 1_555
H8 C9 1_555 1_555
H9 C9 1_555 1_555
C10 C9 1_555 1_555
C11 C10 1_555 1_555
C12 C11 1_555 1_555
H10 C12 1_555 1_555
C13 C12 1_555 1_555
H11 C13 1_555 1_555
C14 C13 1_555 1_555
H12 C14 1_555 1_555
C15 C10 1_555 1_555
C16 C15 1_555 1_555
C6 C7 1_555 1_555
C14 C15 1_555 1_555

#END
