
#######################################################################
#
#                 Cambridge Crystallographic Data Centre
#                                CCDC 
#
#######################################################################
#
# If this CIF has been generated from an entry in the Cambridge 
# Structural Database, then it will include bibliographic, chemical, 
# crystal, experimental, refinement or atomic coordinate data resulting 
# from the CCDC's data processing and validation procedures.
#
#######################################################################

data_LOJLIG
_chemical_formula_moiety         'C21 H18 N2 S2'
_chemical_name_systematic        
"Benzyl N'-benzhydrylidenehydrazinecarbodithioate"
_symmetry_cell_setting           monoclinic
_symmetry_space_group_name_H-M   'P 21/c'
_symmetry_Int_Tables_number      14
_space_group_name_Hall           '-P 2ybc'
loop_
_symmetry_equiv_pos_site_id
_symmetry_equiv_pos_as_xyz
1 x,y,z
2 -x,1/2+y,1/2-z
3 -x,-y,-z
4 x,1/2-y,1/2+z
_cell_length_a                   20.2903(14)
_cell_length_b                   9.0951(6)
_cell_length_c                   10.5818(7)
_cell_angle_alpha                90
_cell_angle_beta                 103.9240(10)
_cell_angle_gamma                90
_cell_volume                     1895.41
_exptl_crystal_colour            yellow
_exptl_crystal_description       block
_cell_formula_units_Z            4
_exptl_crystal_recrystallization_method tetrahydrofuran
loop_
_atom_site_label
_atom_site_type_symbol
_atom_site_fract_x
_atom_site_fract_y
_atom_site_fract_z
S1 S 0.29194(4) 0.73862(8) 0.23650(8)
S2 S 0.15831(4) 0.59677(8) 0.10325(8)
N1 N 0.17341(11) 0.8548(2) 0.2139(2)
H1 H 0.1299 0.8630 0.1909
N2 N 0.21181(11) 0.9673(2) 0.2809(2)
C1 C 0.39011(8) 0.5783(2) 0.1752(2)
C2 C 0.41212(13) 0.6495(2) 0.0766(2)
H2 H 0.3807 0.6909 0.0070
C3 C 0.48112(15) 0.6589(3) 0.0820(3)
H3 H 0.4958 0.7065 0.0160
C4 C 0.52811(9) 0.5971(3) 0.1861(3)
H4 H 0.5743 0.6034 0.1897
C5 C 0.50611(11) 0.5259(3) 0.2847(3)
H5 H 0.5376 0.4845 0.3543
C6 C 0.43711(12) 0.5165(3) 0.2793(2)
H6 H 0.4224 0.4689 0.3452
C7 C 0.31560(14) 0.5689(3) 0.1698(4)
H7 H 0.3065 0.4857 0.2204
H8 H 0.2898 0.5566 0.0805
C8 C 0.20349(13) 0.7318(3) 0.1840(2)
C9 C 0.18138(13) 1.0901(3) 0.2909(2)
C10 C 0.22361(13) 1.2075(3) 0.3651(2)
C11 C 0.29263(14) 1.1870(3) 0.4165(3)
H9 H 0.3129 1.0997 0.4000
C12 C 0.33158(15) 1.2931(3) 0.4912(3)
H10 H 0.3777 1.2770 0.5256
C13 C 0.30214(17) 1.4240(3) 0.5153(3)
H11 H 0.3284 1.4959 0.5664
C14 C 0.23479(16) 1.4474(3) 0.4641(3)
H12 H 0.2153 1.5362 0.4792
C15 C 0.19518(15) 1.3404(3) 0.3898(3)
H13 H 0.1491 1.3574 0.3559
C16 C 0.10755(13) 1.1135(3) 0.2328(2)
C17 C 0.05888(14) 1.0439(3) 0.2829(3)
H14 H 0.0723 0.9829 0.3550
C18 C -0.00925(15) 1.0638(3) 0.2275(3)
H15 H -0.0414 1.0176 0.2634
C19 C -0.02962(16) 1.1503(3) 0.1210(3)
H16 H -0.0757 1.1632 0.0839
C20 C 0.01760(16) 1.2191(3) 0.0678(3)
H17 H 0.0035 1.2776 -0.0058
C21 C 0.08623(15) 1.2016(3) 0.1237(3)
H18 H 0.1181 1.2491 0.0880
loop_
_geom_bond_atom_site_label_1
_geom_bond_atom_site_label_2
_geom_bond_site_symmetry_1
_geom_bond_site_symmetry_2
S1 C7 1_555 1_555
S2 C8 1_555 1_555
N1 H1 1_555 1_555
N2 N1 1_555 1_555
C1 C2 1_555 1_555
C2 H2 1_555 1_555
C3 C2 1_555 1_555
H3 C3 1_555 1_555
C4 C3 1_555 1_555
H4 C4 1_555 1_555
C5 C4 1_555 1_555
H5 C5 1_555 1_555
C6 C1 1_555 1_555
H6 C6 1_555 1_555
C7 C1 1_555 1_555
H7 C7 1_555 1_555
H8 C7 1_555 1_555
C8 S1 1_555 1_555
C9 N2 1_555 1_555
C10 C9 1_555 1_555
C11 C10 1_555 1_555
H9 C11 1_555 1_555
C12 C11 1_555 1_555
H10 C12 1_555 1_555
C13 C12 1_555 1_555
H11 C13 1_555 1_555
C14 C13 1_555 1_555
H12 C14 1_555 1_555
C15 C10 1_555 1_555
H13 C15 1_555 1_555
C16 C9 1_555 1_555
C17 C16 1_555 1_555
H14 C17 1_555 1_555
C18 C17 1_555 1_555
H15 C18 1_555 1_555
C19 C18 1_555 1_555
H16 C19 1_555 1_555
C20 C19 1_555 1_555
H17 C20 1_555 1_555
C21 C16 1_555 1_555
H18 C21 1_555 1_555
N1 C8 1_555 1_555
C5 C6 1_555 1_555
C14 C15 1_555 1_555
C20 C21 1_555 1_555

#END
