
#######################################################################
#
#                 Cambridge Crystallographic Data Centre
#                                CCDC 
#
#######################################################################
#
# If this CIF has been generated from an entry in the Cambridge 
# Structural Database, then it will include bibliographic, chemical, 
# crystal, experimental, refinement or atomic coordinate data resulting 
# from the CCDC's data processing and validation procedures.
#
#######################################################################

data_LOJWIR
_chemical_formula_moiety         'C23 H19 N1 O4'
_chemical_name_systematic        
3-Benzoyl-2-(4-nitrophenyl)-5-phenyltetrahydrofuran
_symmetry_cell_setting           monoclinic
_symmetry_space_group_name_H-M   'P 21/c'
_symmetry_Int_Tables_number      14
_space_group_name_Hall           '-P 2ybc'
loop_
_symmetry_equiv_pos_site_id
_symmetry_equiv_pos_as_xyz
1 x,y,z
2 -x,1/2+y,1/2-z
3 -x,-y,-z
4 x,1/2-y,1/2+z
_cell_length_a                   13.242(1)
_cell_length_b                   10.1810(9)
_cell_length_c                   14.547(1)
_cell_angle_alpha                90
_cell_angle_beta                 108.589(5)
_cell_angle_gamma                90
_cell_volume                     1858.86
_exptl_crystal_colour            colorless
_exptl_crystal_description       block
_cell_formula_units_Z            4
loop_
_atom_site_label
_atom_site_type_symbol
_atom_site_fract_x
_atom_site_fract_y
_atom_site_fract_z
O1 O -0.7947(1) -0.0701(2) -0.3047(1)
O2 O -0.5927(1) 0.1564(2) -0.3463(1)
O3 O -1.0249(2) 0.3050(2) -0.7424(1)
O4 O -1.0475(2) 0.4148(3) -0.6246(2)
N1 N -1.0151(2) 0.3184(3) -0.6569(2)
C1 C -0.9585(2) 0.2156(3) -0.5894(2)
C2 C -0.8487(2) 0.0250(2) -0.4636(1)
C3 C -0.6405(2) 0.0949(2) -0.5100(2)
C4 C -0.8750(2) 0.1422(2) -0.4283(1)
C5 C -0.7038(2) -0.1174(2) -0.1377(1)
C6 C -0.7809(2) -0.0766(2) -0.3975(1)
C7 C -0.6570(2) -0.0639(2) -0.3769(1)
C8 C -0.8823(2) 0.0026(2) -0.5632(1)
C9 C -0.6084(2) -0.1311(2) -0.0631(2)
C10 C -0.6257(2) 0.0692(2) -0.4059(2)
C11 C -0.9313(2) 0.2388(3) -0.4909(2)
C12 C -0.6472(2) 0.0231(3) -0.6690(2)
C13 C -0.6644(2) 0.2216(2) -0.5466(2)
C14 C -0.6325(2) -0.0043(2) -0.5724(2)
C15 C -0.9358(2) 0.0992(3) -0.6268(2)
C16 C -0.7952(2) -0.0854(3) -0.1158(2)
C17 C -0.6829(2) 0.2467(3) -0.6441(2)
C18 C -0.7071(2) -0.1404(2) -0.2403(1)
C19 C -0.6116(2) -0.0928(3) -0.2679(2)
C20 C -0.7906(3) -0.0642(3) -0.0210(2)
C21 C -0.6725(2) 0.1478(3) -0.7046(2)
C22 C -0.6049(3) -0.1102(3) 0.0326(2)
C23 C -0.6956(3) -0.0765(3) 0.0528(2)
H1 H -0.8505 0.1568 -0.3515
H2 H -0.8063 -0.1778 -0.4280
H3 H -0.6340 -0.1398 -0.4191
H4 H -0.8664 -0.0999 -0.5912
H5 H -0.5320 -0.1571 -0.0804
H6 H -0.9432 0.3391 -0.4622
H7 H -0.6235 -0.0494 -0.7107
H8 H -0.6680 0.3050 -0.4984
H9 H -0.6117 -0.1062 -0.5382
H10 H -0.9599 0.0841 -0.7037
H11 H -0.8673 -0.0650 -0.1790
H12 H -0.6947 0.3452 -0.6718
H13 H -0.7172 -0.2452 -0.2554
H14 H -0.5511 -0.1673 -0.2544
H15 H -0.5911 0.0097 -0.2374
H16 H -0.8584 -0.0480 -0.0055
H17 H -0.6840 0.1618 -0.7856
H18 H -0.5249 -0.1342 0.0891
H19 H -0.6881 -0.0669 0.1325
loop_
_geom_bond_atom_site_label_1
_geom_bond_atom_site_label_2
_geom_bond_site_symmetry_1
_geom_bond_site_symmetry_2
O1 C6 1_555 1_555
O2 C10 1_555 1_555
O3 N1 1_555 1_555
O4 N1 1_555 1_555
N1 C1 1_555 1_555
C1 C11 1_555 1_555
C2 C4 1_555 1_555
C3 C10 1_555 1_555
C4 C11 1_555 1_555
C5 C9 1_555 1_555
C6 C2 1_555 1_555
C7 C6 1_555 1_555
C8 C2 1_555 1_555
C9 C22 1_555 1_555
C10 C7 1_555 1_555
C11 H6 1_555 1_555
C12 C14 1_555 1_555
C13 C3 1_555 1_555
C14 C3 1_555 1_555
C15 C1 1_555 1_555
C16 C5 1_555 1_555
C17 C13 1_555 1_555
C18 O1 1_555 1_555
C19 C7 1_555 1_555
C20 C16 1_555 1_555
C21 C12 1_555 1_555
C22 C23 1_555 1_555
C23 C20 1_555 1_555
H1 C4 1_555 1_555
H2 C6 1_555 1_555
H3 C7 1_555 1_555
H4 C8 1_555 1_555
H5 C9 1_555 1_555
H7 C12 1_555 1_555
H8 C13 1_555 1_555
H9 C14 1_555 1_555
H10 C15 1_555 1_555
H11 C16 1_555 1_555
H12 C17 1_555 1_555
H13 C18 1_555 1_555
H14 C19 1_555 1_555
H15 C19 1_555 1_555
H16 C20 1_555 1_555
H17 C21 1_555 1_555
H18 C22 1_555 1_555
H19 C23 1_555 1_555
C5 C18 1_555 1_555
C8 C15 1_555 1_555
C17 C21 1_555 1_555
C18 C19 1_555 1_555

#END
