
#######################################################################
#
#                 Cambridge Crystallographic Data Centre
#                                CCDC 
#
#######################################################################
#
# If this CIF has been generated from an entry in the Cambridge 
# Structural Database, then it will include bibliographic, chemical, 
# crystal, experimental, refinement or atomic coordinate data resulting 
# from the CCDC's data processing and validation procedures.
#
#######################################################################

data_LOKCEV
_chemical_formula_moiety         'C33 H35 Br1 N2 O2 S1'
_chemical_name_systematic        
N-(1-(4-Bromophenyl)-4-tert-butyl-5-(3,3-dimethylbut-1-yn-1-yl)-2-phenyl-1H-pyrrol-3-yl)-4-methylbenzenesulfonamide
_symmetry_cell_setting           monoclinic
_symmetry_space_group_name_H-M   'P 21/n'
_symmetry_Int_Tables_number      14
_space_group_name_Hall           '-P 2yn'
loop_
_symmetry_equiv_pos_site_id
_symmetry_equiv_pos_as_xyz
1 x,y,z
2 1/2-x,1/2+y,1/2-z
3 -x,-y,-z
4 1/2+x,1/2-y,1/2+z
_cell_length_a                   13.9802(12)
_cell_length_b                   13.6497(11)
_cell_length_c                   16.6352(13)
_cell_angle_alpha                90
_cell_angle_beta                 104.443(2)
_cell_angle_gamma                90
_cell_volume                     3074.1
_exptl_crystal_colour            colorless
_exptl_crystal_description       prismatic
_cell_formula_units_Z            4
loop_
_atom_site_label
_atom_site_type_symbol
_atom_site_fract_x
_atom_site_fract_y
_atom_site_fract_z
Br1 Br 1.15290(3) 0.56948(3) 1.00562(2)
S1 S 0.57663(4) 0.36337(4) 0.55867(4)
N1 N 0.89461(13) 0.46031(14) 0.66750(12)
N2 N 0.65033(14) 0.44435(16) 0.53389(12)
O1 O 0.62080(13) 0.26953(12) 0.55893(11)
O2 O 0.48190(12) 0.38255(13) 0.50327(11)
C1 C 0.79647(16) 0.48624(16) 0.64673(13)
C2 C 0.75425(16) 0.44118(16) 0.57201(13)
C3 C 0.82733(17) 0.38883(17) 0.54351(14)
C4 C 0.91372(17) 0.40071(17) 0.60526(14)
C5 C 1.01059(18) 0.36389(18) 0.61323(15)
C6 C 1.09226(19) 0.3341(2) 0.62244(16)
C7 C 1.19389(19) 0.2969(2) 0.63361(18)
C8 C 1.2602(2) 0.3460(3) 0.7092(3)
H1 H 1.2596 0.4156 0.7007
H2 H 1.3265 0.3219 0.7173
H3 H 1.2365 0.3316 0.7573
C9 C 1.2290(3) 0.3214(3) 0.5558(2)
H4 H 1.1852 0.2921 0.5082
H5 H 1.2946 0.2964 0.5618
H6 H 1.2293 0.3912 0.5486
C10 C 1.1936(2) 0.1858(2) 0.6463(2)
H7 H 1.1663 0.1710 0.6924
H8 H 1.2601 0.1615 0.6573
H9 H 1.1543 0.1552 0.5970
C11 C 0.75211(16) 0.55532(16) 0.69480(14)
C12 C 0.70034(17) 0.63533(17) 0.65454(15)
H10 H 0.6947 0.6444 0.5981
C13 C 0.6571(2) 0.70173(19) 0.69726(18)
H11 H 0.6217 0.7545 0.6693
C14 C 0.6661(2) 0.6902(2) 0.78080(18)
H12 H 0.6374 0.7353 0.8097
C15 C 0.71803(19) 0.6110(2) 0.82166(16)
H13 H 0.7247 0.6032 0.8783
C16 C 0.75984(18) 0.54383(18) 0.77929(15)
H14 H 0.7936 0.4902 0.8073
C17 C 0.96411(15) 0.48578(17) 0.74364(14)
C18 C 0.98094(17) 0.58306(18) 0.76472(16)
H15 H 0.9543 0.6318 0.7266
C19 C 1.03781(19) 0.6082(2) 0.84299(17)
H16 H 1.0479 0.6736 0.8585
C20 C 1.07896(19) 0.5349(2) 0.89720(16)
C21 C 1.0667(2) 0.4378(2) 0.87576(18)
H17 H 1.0967 0.3894 0.9128
C22 C 1.00885(18) 0.41320(19) 0.79797(16)
H18 H 1.0001 0.3477 0.7823
C23 C 0.56517(17) 0.38779(18) 0.66006(15)
C24 C 0.50997(18) 0.4676(2) 0.67358(17)
H19 H 0.4800 0.5085 0.6298
C25 C 0.5000(2) 0.4857(2) 0.75236(18)
H20 H 0.4627 0.5390 0.7615
C26 C 0.5448(2) 0.4255(2) 0.81867(18)
C27 C 0.5991(2) 0.3473(2) 0.80365(18)
H21 H 0.6292 0.3065 0.8474
C28 C 0.6104(2) 0.32739(19) 0.72487(17)
H22 H 0.6479 0.2741 0.7158
C29 C 0.5337(3) 0.4478(3) 0.9049(2)
H23 H 0.5580 0.3935 0.9410
H24 H 0.4653 0.4584 0.9029
H25 H 0.5709 0.5056 0.9258
C30 C 0.8199(2) 0.33259(19) 0.46281(15)
C31 C 0.8998(3) 0.3699(3) 0.42119(19)
H26 H 0.8920 0.4391 0.4117
H27 H 0.8933 0.3368 0.3692
H28 H 0.9640 0.3570 0.4568
C32 C 0.8342(3) 0.2233(2) 0.48099(18)
H29 H 0.8967 0.2127 0.5199
H30 H 0.8326 0.1888 0.4304
H31 H 0.7821 0.1997 0.5041
C33 C 0.7203(2) 0.3473(3) 0.39999(17)
H32 H 0.6689 0.3180 0.4209
H33 H 0.7221 0.3169 0.3483
H34 H 0.7076 0.4161 0.3914
H35 H 0.6213(18) 0.4973(19) 0.5264(15)
loop_
_geom_bond_atom_site_label_1
_geom_bond_atom_site_label_2
_geom_bond_site_symmetry_1
_geom_bond_site_symmetry_2
Br1 C20 1_555 1_555
S1 N2 1_555 1_555
N1 C1 1_555 1_555
N2 C2 1_555 1_555
O1 S1 1_555 1_555
O2 S1 1_555 1_555
C1 C2 1_555 1_555
C2 C3 1_555 1_555
C3 C4 1_555 1_555
C4 N1 1_555 1_555
C5 C4 1_555 1_555
C6 C5 1_555 1_555
C7 C6 1_555 1_555
C8 C7 1_555 1_555
H1 C8 1_555 1_555
H2 C8 1_555 1_555
H3 C8 1_555 1_555
C9 C7 1_555 1_555
H4 C9 1_555 1_555
H5 C9 1_555 1_555
H6 C9 1_555 1_555
C10 C7 1_555 1_555
H7 C10 1_555 1_555
H8 C10 1_555 1_555
H9 C10 1_555 1_555
C11 C1 1_555 1_555
C12 C11 1_555 1_555
H10 C12 1_555 1_555
C13 C12 1_555 1_555
H11 C13 1_555 1_555
C14 C13 1_555 1_555
H12 C14 1_555 1_555
C15 C14 1_555 1_555
H13 C15 1_555 1_555
C16 C11 1_555 1_555
H14 C16 1_555 1_555
C17 N1 1_555 1_555
C18 C17 1_555 1_555
H15 C18 1_555 1_555
C19 C18 1_555 1_555
H16 C19 1_555 1_555
C20 C19 1_555 1_555
C21 C20 1_555 1_555
H17 C21 1_555 1_555
C22 C17 1_555 1_555
H18 C22 1_555 1_555
C23 S1 1_555 1_555
C24 C23 1_555 1_555
H19 C24 1_555 1_555
C25 C24 1_555 1_555
H20 C25 1_555 1_555
C26 C25 1_555 1_555
C27 C26 1_555 1_555
H21 C27 1_555 1_555
C28 C23 1_555 1_555
H22 C28 1_555 1_555
C29 C26 1_555 1_555
H23 C29 1_555 1_555
H24 C29 1_555 1_555
H25 C29 1_555 1_555
C30 C3 1_555 1_555
C31 C30 1_555 1_555
H26 C31 1_555 1_555
H27 C31 1_555 1_555
H28 C31 1_555 1_555
C32 C30 1_555 1_555
H29 C32 1_555 1_555
H30 C32 1_555 1_555
H31 C32 1_555 1_555
C33 C30 1_555 1_555
H32 C33 1_555 1_555
H33 C33 1_555 1_555
H34 C33 1_555 1_555
H35 N2 1_555 1_555
C15 C16 1_555 1_555
C21 C22 1_555 1_555
C27 C28 1_555 1_555

#END
