
#######################################################################
#
#                 Cambridge Crystallographic Data Centre
#                                CCDC 
#
#######################################################################
#
# If this CIF has been generated from an entry in the Cambridge 
# Structural Database, then it will include bibliographic, chemical, 
# crystal, experimental, refinement or atomic coordinate data resulting 
# from the CCDC's data processing and validation procedures.
#
#######################################################################

data_LOKJAY
_chemical_formula_moiety         'C31 H39 N3 O4 S2'
_chemical_name_systematic        
13-(4-(4,5-bis(2,5-Dimethyl-3-thienyl)-1H-imidazol-2-yl)phenyl)-1,4,7,10-tetraoxa-13-azacyclopentadecane
_symmetry_cell_setting           monoclinic
_symmetry_space_group_name_H-M   'P 21/n'
_symmetry_Int_Tables_number      14
_space_group_name_Hall           '-P 2yn'
loop_
_symmetry_equiv_pos_site_id
_symmetry_equiv_pos_as_xyz
1 x,y,z
2 1/2-x,1/2+y,1/2-z
3 -x,-y,-z
4 1/2+x,1/2-y,1/2+z
_cell_length_a                   9.4616(6)
_cell_length_b                   19.0789(12)
_cell_length_c                   34.2829(19)
_cell_angle_alpha                90
_cell_angle_beta                 91.989(5)
_cell_angle_gamma                90
_cell_volume                     6184.91
_exptl_crystal_colour            colorless
_exptl_crystal_description       prism
_cell_formula_units_Z            8
loop_
_atom_site_label
_atom_site_type_symbol
_atom_site_fract_x
_atom_site_fract_y
_atom_site_fract_z
S1 S -0.33602(12) 0.85971(9) 0.00439(4)
S2 S 0.27068(14) 0.91004(9) -0.02911(4)
N1 N -0.0060(3) 0.7422(2) 0.09773(10)
H1 H -0.0781 0.7354 0.1128
N2 N 0.2086(3) 0.7341(2) 0.07469(10)
N3 N 0.2786(4) 0.5236(2) 0.22506(12)
O1 O 0.5400(4) 0.5432(2) 0.27630(12)
C1 C -0.4629(5) 0.9286(3) 0.06683(18)
H2 H -0.4477 0.9389 0.0947
H3 H -0.5505 0.9017 0.0629
H4 H -0.4703 0.9726 0.0521
C2 C -0.3393(4) 0.8861(3) 0.05250(15)
C3 C -0.2267(4) 0.8605(3) 0.07203(15)
H5 H -0.2098 0.8690 0.0991
C4 C -0.1345(4) 0.8201(3) 0.05002(13)
C5 C -0.1796(5) 0.8137(3) 0.01221(14)
C6 C -0.1213(6) 0.7710(4) -0.01986(15)
H6 H -0.0918 0.7251 -0.0097
H7 H -0.0396 0.7952 -0.0304
H8 H -0.1941 0.7647 -0.0406
C7 C -0.0050(4) 0.7856(3) 0.06584(13)
C8 C 0.1293(4) 0.7805(3) 0.05205(13)
C9 C 0.1922(4) 0.8176(3) 0.01883(14)
C10 C 0.1834(5) 0.8876(3) 0.01256(14)
C11 C 0.1183(6) 0.9439(3) 0.03699(17)
H9 H 0.1259 0.9306 0.0646
H10 H 0.0184 0.9496 0.0291
H11 H 0.1683 0.9883 0.0332
C12 C 0.2688(4) 0.7819(3) -0.01069(13)
H12 H 0.2845 0.7328 -0.0105
C13 C 0.3164(5) 0.8248(3) -0.03868(15)
C14 C 0.4015(6) 0.8053(4) -0.07298(16)
H13 H 0.4158 0.7545 -0.0733
H14 H 0.4934 0.8290 -0.0711
H15 H 0.3510 0.8198 -0.0971
C15 C 0.1236(4) 0.7114(3) 0.10207(12)
C16 C 0.1625(4) 0.6631(2) 0.13364(12)
C17 C 0.2814(4) 0.6207(2) 0.13185(12)
H16 H 0.3371 0.6229 0.1094
C18 C 0.3210(4) 0.5758(3) 0.16124(13)
H17 H 0.4038 0.5482 0.1588
C19 C 0.2418(5) 0.5694(3) 0.19508(14)
C20 C 0.1206(5) 0.6121(3) 0.19675(14)
H18 H 0.0631 0.6092 0.2189
C21 C 0.0831(5) 0.6580(3) 0.16703(14)
H19 H 0.0017 0.6867 0.1694
C22 C 0.4112(5) 0.4844(3) 0.22439(17)
H20 H 0.4226 0.4657 0.1978
H21 H 0.4051 0.4440 0.2423
C23 C 0.5408(6) 0.5269(3) 0.23584(17)
H22 H 0.6270 0.4999 0.2302
H23 H 0.5418 0.5708 0.2204
C24 C 0.6481(6) 0.5891(4) 0.28828(17)
H24 H 0.6281 0.6367 0.2780
H25 H 0.7392 0.5732 0.2780
C25 C 0.6572(7) 0.5908(4) 0.3321(2)
H26 H 0.7326 0.6208 0.3413
H27 H 0.6746 0.5443 0.3418
O2 O 0.5271(10) 0.6135(6) 0.3448(3)
O3 O 0.2720(10) 0.6093(6) 0.3721(3)
O4 O 0.0687(14) 0.5398(7) 0.3144(3)
C26 C 0.5296(13) 0.5951(10) 0.3858(3)
H28 H 0.6003 0.6241 0.4004
H29 H 0.5557 0.5452 0.3892
C27 C 0.3852(12) 0.6079(11) 0.4008(4)
H30 H 0.3649 0.5709 0.4201
H31 H 0.3865 0.6533 0.4149
C28 C 0.1703(14) 0.5527(8) 0.3799(5)
H32 H 0.1361 0.5533 0.4069
H33 H 0.2047 0.5055 0.3730
C29 C 0.0652(14) 0.5832(9) 0.3500(3)
H34 H -0.0311 0.5829 0.3605
H35 H 0.0908 0.6322 0.3440
C30 C 0.1931(6) 0.5589(4) 0.28999(18)
H36 H 0.2820 0.5532 0.3040
H37 H 0.1855 0.6062 0.2807
C31 C 0.1804(6) 0.5093(3) 0.25620(16)
H38 H 0.1970 0.4610 0.2659
H39 H 0.0825 0.5114 0.2451
S3 S 0.19755(11) 0.81836(7) 0.21464(3)
S4 S 0.81615(12) 0.83994(8) 0.25399(4)
N4 N 0.4945(3) 0.7410(2) 0.10829(10)
H48 H 0.4178 0.7436 0.0931
N5 N 0.7142(3) 0.7158(2) 0.12826(10)
N6 N 0.6719(4) 0.5390(2) -0.03612(11)
O8 O 0.6619(3) 0.6027(2) -0.11759(10)
C36 C 0.0463(4) 0.9018(3) 0.16032(15)
H49 H 0.0512 0.9202 0.1337
H50 H 0.0419 0.9409 0.1788
H51 H -0.0384 0.8727 0.1623
C37 C 0.1745(4) 0.8588(3) 0.16968(14)
C38 C 0.2860(4) 0.8434(2) 0.14677(13)
H52 H 0.2946 0.8609 0.1210
C39 C 0.3894(4) 0.7978(2) 0.16557(13)
C40 C 0.3561(4) 0.7797(3) 0.20274(13)
C41 C 0.4270(5) 0.7307(3) 0.23048(13)
H53 H 0.5148 0.7137 0.2194
H54 H 0.3643 0.6910 0.2353
H55 H 0.4489 0.7550 0.2551
C42 C 0.5102(4) 0.7687(3) 0.14533(13)
C43 C 0.6491(4) 0.7549(3) 0.15697(12)
C44 C 0.7224(4) 0.7738(3) 0.19377(12)
C45 C 0.7226(4) 0.8396(3) 0.21021(14)
C46 C 0.6576(5) 0.9056(3) 0.19379(18)
H56 H 0.6091 0.8953 0.1687
H57 H 0.7320 0.9404 0.1899
H58 H 0.5895 0.9242 0.2120
C47 C 0.7995(4) 0.7242(3) 0.21787(13)
H59 H 0.8097 0.6762 0.2111
C48 C 0.8564(4) 0.7523(3) 0.25129(13)
C49 C 0.9451(5) 0.7175(3) 0.28273(14)
H60 H 0.9573 0.6679 0.2763
H61 H 0.8983 0.7216 0.3077
H62 H 1.0379 0.7403 0.2848
C50 C 0.6171(4) 0.7090(2) 0.09922(13)
C51 C 0.6337(4) 0.6678(3) 0.06384(12)
C52 C 0.5265(4) 0.6626(3) 0.03498(13)
H63 H 0.4423 0.6890 0.0379
C53 C 0.5373(4) 0.6214(3) 0.00276(13)
H64 H 0.4602 0.6192 -0.0157
C54 C 0.6591(4) 0.5823(3) -0.00376(13)
C55 C 0.7689(4) 0.5881(3) 0.02461(13)
H65 H 0.8547 0.5634 0.0211
C56 C 0.7554(4) 0.6286(3) 0.05729(13)
H66 H 0.8314 0.6301 0.0761
C57 C 0.5583(5) 0.5379(3) -0.06646(15)
H67 H 0.4668 0.5316 -0.0537
H68 H 0.5724 0.4968 -0.0835
C58 C 0.5496(5) 0.6029(4) -0.09158(15)
H69 H 0.4581 0.6039 -0.1065
H70 H 0.5556 0.6452 -0.0749
C59 C 0.6598(6) 0.6631(4) -0.14096(19)
H71 H 0.6638 0.7054 -0.1242
H72 H 0.5709 0.6647 -0.1570
C60 C 0.7838(7) 0.6623(5) -0.16688(19)
H73 H 0.7684 0.6913 -0.1895
H74 H 0.7962 0.6148 -0.1753
O9 O 0.9066(10) 0.6844(12) -0.1442(5)
O10 O 1.1633(10) 0.6178(6) -0.1080(3)
O11 O 1.0020(11) 0.5350(6) -0.0549(4)
C61 C 1.0332(15) 0.6587(9) -0.1637(4)
H75 H 1.0427 0.6826 -0.1891
H76 H 1.0257 0.6076 -0.1685
C62 C 1.1624(12) 0.6749(8) -0.1364(4)
H77 H 1.2507 0.6753 -0.1511
H78 H 1.1515 0.7208 -0.1234
C63 C 1.1192(16) 0.6374(10) -0.0694(3)
H79 H 1.1186 0.6891 -0.0669
H80 H 1.1865 0.6182 -0.0494
C64 C 0.9700(11) 0.6082(6) -0.0631(4)
H81 H 0.9250 0.6312 -0.0408
H82 H 0.9081 0.6134 -0.0868
C65 C 0.8857(5) 0.4880(3) -0.06556(16)
H83 H 0.9249 0.4423 -0.0696
H84 H 0.8433 0.5032 -0.0900
C66 C 0.7740(5) 0.4819(3) -0.03682(15)
H85 H 0.7218 0.4377 -0.0420
H86 H 0.8200 0.4779 -0.0105
O5? O 0.5476(11) 0.6425(6) 0.3410(3)
O6? O 0.3013(9) 0.5502(6) 0.3752(3)
O7? O 0.0669(16) 0.5604(8) 0.3081(3)
C32? C 0.5081(15) 0.6535(9) 0.3823(3)
H40? H 0.5921 0.6472 0.4000
H41? H 0.4718 0.7017 0.3857
C33? C 0.3975(16) 0.6018(9) 0.3918(4)
H42? H 0.4479 0.5736 0.4122
H43? H 0.3318 0.6315 0.4064
C34? C 0.1544(12) 0.5728(9) 0.3794(5)
H44? H 0.1463 0.6242 0.3761
H45? H 0.1209 0.5601 0.4055
C35? C 0.0689(15) 0.5354(9) 0.3479(3)
H46? H 0.1023 0.4862 0.3475
H47? H -0.0303 0.5343 0.3561
O12? O 0.9080(11) 0.6750(13) -0.1418(4)
O13? O 1.2027(9) 0.6516(6) -0.1083(3)
O14? O 0.9751(12) 0.5464(6) -0.0526(4)
C67? C 1.0352(15) 0.6911(9) -0.1629(4)
H87? H 1.0192 0.7310 -0.1810
H88? H 1.0672 0.6500 -0.1779
C68? C 1.1415(11) 0.7100(8) -0.1302(4)
H89? H 1.2194 0.7368 -0.1417
H90? H 1.0943 0.7414 -0.1118
C69? C 1.1113(19) 0.6373(8) -0.0764(3)
H91? H 1.0313 0.6708 -0.0761
H92? H 1.1637 0.6389 -0.0510
C70? C 1.0603(13) 0.5626(6) -0.0864(4)
H93? H 1.0025 0.5615 -0.1110
H94? H 1.1407 0.5297 -0.0884
loop_
_geom_bond_atom_site_label_1
_geom_bond_atom_site_label_2
_geom_bond_site_symmetry_1
_geom_bond_site_symmetry_2
S1 C2 1_555 1_555
S2 C10 1_555 1_555
N1 H1 1_555 1_555
N2 C8 1_555 1_555
N3 C19 1_555 1_555
O1 C23 1_555 1_555
C1 H2 1_555 1_555
H3 C1 1_555 1_555
H4 C1 1_555 1_555
C2 C1 1_555 1_555
C3 C2 1_555 1_555
H5 C3 1_555 1_555
C4 C3 1_555 1_555
C5 S1 1_555 1_555
C6 C5 1_555 1_555
H6 C6 1_555 1_555
H7 C6 1_555 1_555
H8 C6 1_555 1_555
C7 N1 1_555 1_555
C8 C7 1_555 1_555
C9 C8 1_555 1_555
C10 C9 1_555 1_555
C11 C10 1_555 1_555
H9 C11 1_555 1_555
H10 C11 1_555 1_555
H11 C11 1_555 1_555
C12 C9 1_555 1_555
H12 C12 1_555 1_555
C13 S2 1_555 1_555
C14 C13 1_555 1_555
H13 C14 1_555 1_555
H14 C14 1_555 1_555
H15 C14 1_555 1_555
C15 N1 1_555 1_555
C16 C15 1_555 1_555
C17 C16 1_555 1_555
H16 C17 1_555 1_555
C18 C17 1_555 1_555
H17 C18 1_555 1_555
C19 C18 1_555 1_555
C20 C19 1_555 1_555
H18 C20 1_555 1_555
C21 C16 1_555 1_555
H19 C21 1_555 1_555
C22 N3 1_555 1_555
H20 C22 1_555 1_555
H21 C22 1_555 1_555
C23 C22 1_555 1_555
H22 C23 1_555 1_555
H23 C23 1_555 1_555
C24 O1 1_555 1_555
H24 C24 1_555 1_555
H25 C24 1_555 1_555
C25 C24 1_555 1_555
H26 C25 1_555 1_555
H27 C25 1_555 1_555
O2 C25 1_555 1_555
O3 C27 1_555 1_555
O4 C29 1_555 1_555
C26 O2 1_555 1_555
H28 C26 1_555 1_555
H29 C26 1_555 1_555
C27 C26 1_555 1_555
H30 C27 1_555 1_555
H31 C27 1_555 1_555
C28 O3 1_555 1_555
H32 C28 1_555 1_555
H33 C28 1_555 1_555
C29 C28 1_555 1_555
H34 C29 1_555 1_555
H35 C29 1_555 1_555
C30 O4 1_555 1_555
H36 C30 1_555 1_555
H37 C30 1_555 1_555
C31 N3 1_555 1_555
H38 C31 1_555 1_555
H39 C31 1_555 1_555
S3 C37 1_555 1_555
S4 C45 1_555 1_555
N4 H48 1_555 1_555
N5 C43 1_555 1_555
N6 C54 1_555 1_555
O8 C58 1_555 1_555
C36 H49 1_555 1_555
H50 C36 1_555 1_555
H51 C36 1_555 1_555
C37 C36 1_555 1_555
C38 C37 1_555 1_555
H52 C38 1_555 1_555
C39 C38 1_555 1_555
C40 S3 1_555 1_555
C41 C40 1_555 1_555
H53 C41 1_555 1_555
H54 C41 1_555 1_555
H55 C41 1_555 1_555
C42 N4 1_555 1_555
C43 C42 1_555 1_555
C44 C43 1_555 1_555
C45 C44 1_555 1_555
C46 C45 1_555 1_555
H56 C46 1_555 1_555
H57 C46 1_555 1_555
H58 C46 1_555 1_555
C47 C44 1_555 1_555
H59 C47 1_555 1_555
C48 S4 1_555 1_555
C49 C48 1_555 1_555
H60 C49 1_555 1_555
H61 C49 1_555 1_555
H62 C49 1_555 1_555
C50 N4 1_555 1_555
C51 C50 1_555 1_555
C52 C51 1_555 1_555
H63 C52 1_555 1_555
C53 C52 1_555 1_555
H64 C53 1_555 1_555
C54 C53 1_555 1_555
C55 C54 1_555 1_555
H65 C55 1_555 1_555
C56 C51 1_555 1_555
H66 C56 1_555 1_555
C57 N6 1_555 1_555
H67 C57 1_555 1_555
H68 C57 1_555 1_555
C58 C57 1_555 1_555
H69 C58 1_555 1_555
H70 C58 1_555 1_555
C59 O8 1_555 1_555
H71 C59 1_555 1_555
H72 C59 1_555 1_555
C60 C59 1_555 1_555
H73 C60 1_555 1_555
H74 C60 1_555 1_555
O9 C60 1_555 1_555
O10 C62 1_555 1_555
O11 C64 1_555 1_555
C61 O9 1_555 1_555
H75 C61 1_555 1_555
H76 C61 1_555 1_555
C62 C61 1_555 1_555
H77 C62 1_555 1_555
H78 C62 1_555 1_555
C63 O10 1_555 1_555
H79 C63 1_555 1_555
H80 C63 1_555 1_555
C64 C63 1_555 1_555
H81 C64 1_555 1_555
H82 C64 1_555 1_555
C65 O11 1_555 1_555
H83 C65 1_555 1_555
H84 C65 1_555 1_555
C66 N6 1_555 1_555
H85 C66 1_555 1_555
H86 C66 1_555 1_555
N2 C15 1_555 1_555
C4 C5 1_555 1_555
C4 C7 1_555 1_555
C12 C13 1_555 1_555
C20 C21 1_555 1_555
C30 C31 1_555 1_555
N5 C50 1_555 1_555
C39 C40 1_555 1_555
C39 C42 1_555 1_555
C47 C48 1_555 1_555
C55 C56 1_555 1_555
C65 C66 1_555 1_555

#END
