
#######################################################################
#
#                 Cambridge Crystallographic Data Centre
#                                CCDC 
#
#######################################################################
#
# If this CIF has been generated from an entry in the Cambridge 
# Structural Database, then it will include bibliographic, chemical, 
# crystal, experimental, refinement or atomic coordinate data resulting 
# from the CCDC's data processing and validation procedures.
#
#######################################################################

data_LOKKIF01
_chemical_formula_moiety         'C22 H29 N3 O3 2+,2(Br1 1-)'
_chemical_name_systematic        
'7,8,10,11,12,13,19,20-octahydro-5H-6,9-ethanobenzo[e,p][1,4,11,8,14]dioxaazadiazoniacycloheptadecin-16-one dibromide'
_symmetry_cell_setting           rhombohedral
_symmetry_space_group_name_H-M   'R -3'
_symmetry_Int_Tables_number      148
_space_group_name_Hall           '-R 3'
loop_
_symmetry_equiv_pos_site_id
_symmetry_equiv_pos_as_xyz
1 x,y,z
2 -y,x-y,z
3 -x+y,-x,z
4 1/3+x,2/3+y,2/3+z
5 1/3-y,2/3+x-y,2/3+z
6 1/3-x+y,2/3-x,2/3+z
7 2/3+x,1/3+y,1/3+z
8 2/3-y,1/3+x-y,1/3+z
9 2/3-x+y,1/3-x,1/3+z
10 -x,-y,-z
11 y,-x+y,-z
12 x-y,x,-z
13 2/3-x,1/3-y,1/3-z
14 2/3+y,1/3-x+y,1/3-z
15 2/3+x-y,1/3+x,1/3-z
16 1/3-x,2/3-y,2/3-z
17 1/3+y,2/3-x+y,2/3-z
18 1/3+x-y,2/3+x,2/3-z
_cell_length_a                   35.194(1)
_cell_length_b                   35.194(1)
_cell_length_c                   10.397(1)
_cell_angle_alpha                90
_cell_angle_beta                 90
_cell_angle_gamma                120
_cell_volume                     11152.6
_cell_formula_units_Z            18
loop_
_atom_site_label
_atom_site_type_symbol
_atom_site_fract_x
_atom_site_fract_y
_atom_site_fract_z
Br1 Br 0.0374(1) 0.8080(1) -0.9155(1)
Br2 Br -0.0160(1) 0.8681(1) -0.2793(1)
O1 O -0.0784(2) 0.7161(1) -0.8428(4)
O2 O -0.0374(1) 0.7252(1) -0.5967(4)
O3 O -0.0894(1) 0.8005(1) -0.6158(4)
N1 N -0.0983(1) 0.8005(2) -0.9641(5)
N2 N -0.0426(2) 0.8500(2) -0.7568(5)
N3 N -0.0060(2) 0.8196(2) -0.5276(6)
C1 C -0.0753(2) 0.7778(2) -1.0201(7)
C2 C -0.1061(2) 0.7293(2) -1.0366(6)
C3 C -0.1354(2) 0.7123(2) -1.1390(7)
C4 C -0.1641(2) 0.6674(3) -1.1512(8)
C5 C -0.1638(2) 0.6396(2) -1.0626(8)
C6 C -0.1351(2) 0.6556(2) -0.9610(8)
C7 C -0.1062(2) 0.6997(2) -0.9461(7)
C8 C -0.0537(2) 0.6962(2) -0.8033(7)
C9 C -0.0597(2) 0.6857(2) -0.6714(8)
C10 C -0.0342(2) 0.7214(2) -0.4671(7)
C11 C -0.0575(2) 0.6824(2) -0.3999(8)
C12 C -0.0525(2) 0.6819(2) -0.2672(8)
C13 C -0.0238(2) 0.7207(2) -0.2063(7)
C14 C -0.0016(2) 0.7588(2) -0.2706(7)
C15 C -0.0053(2) 0.7598(2) -0.4027(7)
C16 C 0.0204(2) 0.8010(2) -0.4806(7)
C17 C 0.0179(2) 0.8590(2) -0.6103(7)
C18 C -0.0112(2) 0.8757(2) -0.6563(7)
C19 C -0.0325(2) 0.8657(2) -0.8887(6)
C20 C -0.0720(2) 0.8490(2) -0.9714(7)
C21 C -0.1133(2) 0.7881(2) -0.8278(6)
C22 C -0.0799(2) 0.8142(2) -0.7253(6)
loop_
_geom_bond_atom_site_label_1
_geom_bond_atom_site_label_2
_geom_bond_site_symmetry_1
_geom_bond_site_symmetry_2
O1 C7 1_555 1_555
O2 C9 1_555 1_555
O3 C22 1_555 1_555
N1 C1 1_555 1_555
N2 C18 1_555 1_555
N3 C16 1_555 1_555
C1 C2 1_555 1_555
C2 C3 1_555 1_555
C3 C4 1_555 1_555
C4 C5 1_555 1_555
C5 C6 1_555 1_555
C6 C7 1_555 1_555
C7 C2 1_555 1_555
C8 O1 1_555 1_555
C9 C8 1_555 1_555
C10 O2 1_555 1_555
C11 C10 1_555 1_555
C12 C11 1_555 1_555
C13 C12 1_555 1_555
C14 C13 1_555 1_555
C15 C10 1_555 1_555
C16 C15 1_555 1_555
C17 N3 1_555 1_555
C18 C17 1_555 1_555
C19 N2 1_555 1_555
C20 N1 1_555 1_555
C21 N1 1_555 1_555
C22 N2 1_555 1_555
C14 C15 1_555 1_555
C19 C20 1_555 1_555
C21 C22 1_555 1_555

#END
