
#######################################################################
#
#                 Cambridge Crystallographic Data Centre
#                                CCDC 
#
#######################################################################
#
# If this CIF has been generated from an entry in the Cambridge 
# Structural Database, then it will include bibliographic, chemical, 
# crystal, experimental, refinement or atomic coordinate data resulting 
# from the CCDC's data processing and validation procedures.
#
#######################################################################

data_LOKLEC
_chemical_formula_moiety         'C14 H31 N4 O2 1+,Cl1 1-'
_chemical_name_systematic        
'3,3,10,10-Tetramethyl-4-azonia-9-azadodecane-2,11-dione-dioxime chloride'
_symmetry_cell_setting           monoclinic
_symmetry_space_group_name_H-M   'P 2/n'
_symmetry_Int_Tables_number      13
_space_group_name_Hall           '-P 2yac'
loop_
_symmetry_equiv_pos_site_id
_symmetry_equiv_pos_as_xyz
1 x,y,z
2 1/2-x,y,1/2-z
3 -x,-y,-z
4 1/2+x,-y,1/2+z
_cell_length_a                   8.2048(1)
_cell_length_b                   10.2633(1)
_cell_length_c                   10.9508(2)
_cell_angle_alpha                90
_cell_angle_beta                 106.477(1)
_cell_angle_gamma                90
_cell_volume                     884.279
_cell_formula_units_Z            2
_exptl_crystal_recrystallization_method methanol/chloroform
loop_
_atom_site_label
_atom_site_type_symbol
_atom_site_fract_x
_atom_site_fract_y
_atom_site_fract_z
Cl1 Cl 0.7500 0.3709(1) -0.2500
O1 O 0.6630(2) 0.2104(2) -0.0361(1)
N1 N 0.1782(2) 0.3349(1) -0.1472(1)
N2 N 0.4899(2) 0.2454(2) -0.0761(1)
C1 C 0.1879(3) 0.5676(2) -0.2097(2)
C2 C 0.2222(3) 0.4697(2) -0.1007(2)
C3 C 0.2137(2) 0.2302(2) -0.0476(2)
C4 C 0.1204(3) 0.1078(2) -0.1115(2)
C5 C 0.1446(3) 0.2685(2) 0.0640(2)
C6 C 0.4045(2) 0.2021(2) -0.0037(2)
C7 C 0.4777(3) 0.1240(2) 0.1155(2)
C1A C 0.3121(3) 0.5676(2) -0.2903(2)
C2A C 0.2778(3) 0.4697(2) -0.3993(2)
N1A N 0.3218(2) 0.3349(1) -0.3528(1)
C3A C 0.2863(2) 0.2302(2) -0.4524(2)
C4A C 0.3796(3) 0.1078(2) -0.3885(2)
C5A C 0.3554(3) 0.2685(2) -0.5640(2)
C6A C 0.0955(2) 0.2021(2) -0.4963(2)
N2A N 0.0101(2) 0.2454(2) -0.4239(1)
O1A O -0.1630(2) 0.2104(2) -0.4639(1)
C7A C 0.0223(3) 0.1240(2) -0.6155(2)
loop_
_geom_bond_atom_site_label_1
_geom_bond_atom_site_label_2
_geom_bond_site_symmetry_1
_geom_bond_site_symmetry_2
O1 N2 1_555 1_555
N1 C2 1_555 1_555
N2 C6 1_555 1_555
C1 C2 1_555 1_555
C3 N1 1_555 1_555
C4 C3 1_555 1_555
C5 C3 1_555 1_555
C6 C3 1_555 1_555
C7 C6 1_555 1_555
C1A C1 1_555 1_555
C2A C1A 1_555 1_555
N1A C2A 1_555 1_555
C3A N1A 1_555 1_555
C4A C3A 1_555 1_555
C5A C3A 1_555 1_555
C6A C3A 1_555 1_555
N2A C6A 1_555 1_555
O1A N2A 1_555 1_555
C7A C6A 1_555 1_555

#END
