
#######################################################################
#
#                 Cambridge Crystallographic Data Centre
#                                CCDC 
#
#######################################################################
#
# If this CIF has been generated from an entry in the Cambridge 
# Structural Database, then it will include bibliographic, chemical, 
# crystal, experimental, refinement or atomic coordinate data resulting 
# from the CCDC's data processing and validation procedures.
#
#######################################################################

data_LOKXIT
_chemical_formula_moiety         'C54 H16 F20 N6'
_chemical_name_systematic        
'5,10,20,25-tetrakis(Pentafluorophenyl)-32,35-dihydro[26]hexaphyrin(1.1.1.1.1.1) unknown solvate'
_symmetry_cell_setting           monoclinic
_symmetry_space_group_name_H-M   'P 21/c'
_symmetry_Int_Tables_number      14
_space_group_name_Hall           '-P 2ybc'
loop_
_symmetry_equiv_pos_site_id
_symmetry_equiv_pos_as_xyz
1 x,y,z
2 -x,1/2+y,1/2-z
3 -x,-y,-z
4 x,1/2-y,1/2+z
_cell_length_a                   13.653(5)
_cell_length_b                   10.545(3)
_cell_length_c                   18.317(7)
_cell_angle_alpha                90
_cell_angle_beta                 106.974(15)
_cell_angle_gamma                90
_cell_volume                     2522.23
_exptl_crystal_colour            green
_exptl_crystal_description       prism
_cell_formula_units_Z            2
loop_
_atom_site_label
_atom_site_type_symbol
_atom_site_fract_x
_atom_site_fract_y
_atom_site_fract_z
N1 N 0.38063(10) 0.37197(12) 0.35093(8)
N2 N 0.54670(10) 0.27804(12) 0.30578(8)
H1 H 0.5381 0.3268 0.3424
N3 N 0.33037(10) 0.61514(12) 0.55782(8)
C1 C 0.31212(12) 0.42854(14) 0.38210(9)
C2 C 0.20789(12) 0.41564(15) 0.33088(9)
H2 H 0.1466 0.4455 0.3397
C3 C 0.21613(12) 0.35323(15) 0.26897(9)
H3 H 0.1617 0.3306 0.2253
C4 C 0.32450(12) 0.32711(14) 0.28190(9)
C5 C 0.36636(12) 0.26482(14) 0.23026(9)
C6 C 0.47027(12) 0.23864(15) 0.24330(9)
C7 C 0.51652(13) 0.16254(17) 0.19780(10)
H4 H 0.4820 0.1230 0.1507
C8 C 0.61891(13) 0.15684(16) 0.23411(10)
H5 H 0.6685 0.1122 0.2170
C9 C 0.63838(12) 0.23006(14) 0.30266(9)
C10 C 0.73146(12) 0.24483(14) 0.35892(9)
C11 C 0.25553(12) 0.68605(14) 0.57320(9)
C12 C 0.16243(12) 0.68364(15) 0.50919(10)
H6 H 0.0997 0.7252 0.5063
C13 C 0.18267(12) 0.61141(15) 0.45527(10)
H7 H 0.1374 0.5927 0.4063
C14 C 0.28820(12) 0.56700(14) 0.48653(9)
C15 C 0.34549(12) 0.48903(15) 0.45285(9)
H8 H 0.4150 0.4757 0.4813
C16 C 0.29441(12) 0.22747(15) 0.15538(9)
C17 C 0.21696(13) 0.13852(15) 0.14985(10)
C18 C 0.14150(13) 0.11680(15) 0.08223(10)
C19 C 0.14315(12) 0.18172(16) 0.01755(10)
C20 C 0.22065(13) 0.26733(16) 0.02004(10)
C21 C 0.29475(12) 0.28967(16) 0.08871(10)
C22 C 0.82312(12) 0.17979(14) 0.34774(10)
C23 C 0.86755(13) 0.07623(15) 0.39231(10)
C24 C 0.95367(15) 0.01695(17) 0.38323(12)
C25 C 0.99778(14) 0.0594(2) 0.32916(13)
C26 C 0.95425(14) 0.1607(2) 0.28336(12)
C27 C 0.86801(13) 0.21933(16) 0.29321(10)
F1 F 0.21328(9) 0.07450(10) 0.21176(6)
F2 F 0.06610(8) 0.03464(11) 0.08040(7)
F3 F 0.06966(8) 0.16411(11) -0.04823(6)
F4 F 0.22042(9) 0.33100(11) -0.04275(6)
F5 F 0.36510(8) 0.37828(10) 0.09083(6)
F6 F 0.82682(9) 0.03192(10) 0.44490(7)
F7 F 0.99188(10) -0.08496(12) 0.42631(9)
F8 F 1.07983(10) 0.00172(15) 0.31988(10)
F9 F 0.99437(10) 0.20120(14) 0.22885(8)
F10 F 0.82867(9) 0.31722(11) 0.24770(7)
N1B N 0.61937(10) 0.62803(12) 0.64907(8)
N2B N 0.45330(10) 0.72196(12) 0.69422(8)
H1B H 0.4619 0.6732 0.6576
N3B N 0.66963(10) 0.38486(12) 0.44218(8)
C1B C 0.68788(12) 0.57146(14) 0.61790(9)
C2B C 0.79211(12) 0.58436(15) 0.66912(9)
H2B H 0.8534 0.5545 0.6603
C3B C 0.78387(12) 0.64677(15) 0.73103(9)
H3B H 0.8383 0.6694 0.7747
C4B C 0.67550(12) 0.67289(14) 0.71810(9)
C5B C 0.63364(12) 0.73518(14) 0.76974(9)
C6B C 0.52973(12) 0.76136(15) 0.75670(9)
C7B C 0.48348(13) 0.83746(17) 0.80220(10)
H4B H 0.5180 0.8770 0.8493
C8B C 0.38109(13) 0.84316(16) 0.76589(10)
H5B H 0.3315 0.8878 0.7830
C9B C 0.36162(12) 0.76994(14) 0.69734(9)
C10B C 0.26854(12) 0.75517(14) 0.64108(9)
C11B C 0.74447(12) 0.31395(14) 0.42680(9)
C12B C 0.83757(12) 0.31636(15) 0.49081(10)
H6B H 0.9003 0.2748 0.4937
C13B C 0.81733(12) 0.38859(15) 0.54473(10)
H7B H 0.8626 0.4073 0.5937
C14B C 0.71180(12) 0.43300(14) 0.51347(9)
C15B C 0.65451(12) 0.51097(15) 0.54715(9)
H8B H 0.5850 0.5243 0.5187
C16B C 0.70559(12) 0.77253(15) 0.84462(9)
C17B C 0.78304(13) 0.86148(15) 0.85015(10)
C18B C 0.85850(13) 0.88320(15) 0.91777(10)
C19B C 0.85685(12) 0.81828(16) 0.98245(10)
C20B C 0.77935(13) 0.73267(16) 0.97996(10)
C21B C 0.70525(12) 0.71033(16) 0.91129(10)
C22B C 0.17688(12) 0.82021(14) 0.65226(10)
C23B C 0.13245(13) 0.92377(15) 0.60769(10)
C24B C 0.04633(15) 0.98305(17) 0.61677(12)
C25B C 0.00222(14) 0.9406(2) 0.67084(13)
C26B C 0.04575(14) 0.8393(2) 0.71664(12)
C27B C 0.13199(13) 0.78067(16) 0.70679(10)
F1B F 0.78672(9) 0.92550(10) 0.78824(6)
F2B F 0.93390(8) 0.96536(11) 0.91960(7)
F3B F 0.93034(8) 0.83589(11) 1.04823(6)
F4B F 0.77958(9) 0.66900(11) 1.04275(6)
F5B F 0.63490(8) 0.62172(10) 0.90917(6)
F6B F 0.17318(9) 0.96808(10) 0.55510(7)
F7B F 0.00812(10) 1.08496(12) 0.57369(9)
F8B F -0.07983(10) 0.99828(15) 0.68012(10)
F9B F 0.00563(10) 0.79880(14) 0.77115(8)
F10B F 0.17133(9) 0.68278(11) 0.75230(7)
loop_
_geom_bond_atom_site_label_1
_geom_bond_atom_site_label_2
_geom_bond_site_symmetry_1
_geom_bond_site_symmetry_2
N1 C1 1_555 1_555
N2 H1 1_555 1_555
N3 C11 1_555 1_555
C1 C2 1_555 1_555
C2 H2 1_555 1_555
C3 C2 1_555 1_555
H3 C3 1_555 1_555
C4 N1 1_555 1_555
C5 C4 1_555 1_555
C6 N2 1_555 1_555
C7 C6 1_555 1_555
H4 C7 1_555 1_555
C8 C7 1_555 1_555
H5 C8 1_555 1_555
C9 N2 1_555 1_555
C10 C9 1_555 1_555
C11 C12 1_555 1_555
C12 H6 1_555 1_555
C13 C12 1_555 1_555
H7 C13 1_555 1_555
C14 N3 1_555 1_555
C15 C1 1_555 1_555
H8 C15 1_555 1_555
C16 C5 1_555 1_555
C17 C16 1_555 1_555
C18 C17 1_555 1_555
C19 C18 1_555 1_555
C20 C19 1_555 1_555
C21 C16 1_555 1_555
C22 C10 1_555 1_555
C23 C22 1_555 1_555
C24 C23 1_555 1_555
C25 C24 1_555 1_555
C26 C25 1_555 1_555
C27 C22 1_555 1_555
F1 C17 1_555 1_555
F2 C18 1_555 1_555
F3 C19 1_555 1_555
F4 C20 1_555 1_555
F5 C21 1_555 1_555
F6 C23 1_555 1_555
F7 C24 1_555 1_555
F8 C25 1_555 1_555
F9 C26 1_555 1_555
F10 C27 1_555 1_555
N1B C1B 1_555 1_555
N2B H1B 1_555 1_555
N3B C11B 1_555 1_555
C1B C2B 1_555 1_555
C2B H2B 1_555 1_555
C3B C2B 1_555 1_555
H3B C3B 1_555 1_555
C4B N1B 1_555 1_555
C5B C4B 1_555 1_555
C6B N2B 1_555 1_555
C7B C6B 1_555 1_555
H4B C7B 1_555 1_555
C8B C7B 1_555 1_555
H5B C8B 1_555 1_555
C9B N2B 1_555 1_555
C10B C11 1_555 1_555
C11B C10 1_555 1_555
C12B C11B 1_555 1_555
H6B C12B 1_555 1_555
C13B C12B 1_555 1_555
H7B C13B 1_555 1_555
C14B N3B 1_555 1_555
C15B C1B 1_555 1_555
H8B C15B 1_555 1_555
C16B C5B 1_555 1_555
C17B C16B 1_555 1_555
C18B C17B 1_555 1_555
C19B C18B 1_555 1_555
C20B C19B 1_555 1_555
C21B C16B 1_555 1_555
C22B C10B 1_555 1_555
C23B C22B 1_555 1_555
C24B C23B 1_555 1_555
C25B C24B 1_555 1_555
C26B C25B 1_555 1_555
C27B C22B 1_555 1_555
F1B C17B 1_555 1_555
F2B C18B 1_555 1_555
F3B C19B 1_555 1_555
F4B C20B 1_555 1_555
F5B C21B 1_555 1_555
F6B C23B 1_555 1_555
F7B C24B 1_555 1_555
F8B C25B 1_555 1_555
F9B C26B 1_555 1_555
F10B C27B 1_555 1_555
C3 C4 1_555 1_555
C5 C6 1_555 1_555
C8 C9 1_555 1_555
C13 C14 1_555 1_555
C14 C15 1_555 1_555
C20 C21 1_555 1_555
C26 C27 1_555 1_555
C3B C4B 1_555 1_555
C5B C6B 1_555 1_555
C8B C9B 1_555 1_555
C9B C10B 1_555 1_555
C13B C14B 1_555 1_555
C14B C15B 1_555 1_555
C20B C21B 1_555 1_555
C26B C27B 1_555 1_555

#END
