
#######################################################################
#
#                 Cambridge Crystallographic Data Centre
#                                CCDC 
#
#######################################################################
#
# If this CIF has been generated from an entry in the Cambridge 
# Structural Database, then it will include bibliographic, chemical, 
# crystal, experimental, refinement or atomic coordinate data resulting 
# from the CCDC's data processing and validation procedures.
#
#######################################################################

data_LOKXOZ
_chemical_formula_moiety         'C54 H17 F20 N6 O1,C7 H16,C7 H8'
_chemical_name_systematic        
'5,10,20,25-tetrakis(Pentafluorophenyl)-31,33,34,36-tetrahydro[28]hexaphyrin(1.1.1.1.1.1)-15-oxidanyl radical n-heptane toluene solvate'
_symmetry_cell_setting           orthorhombic
_symmetry_space_group_name_H-M   'P b c n'
_symmetry_Int_Tables_number      60
_space_group_name_Hall           '-P 2n 2ab'
loop_
_symmetry_equiv_pos_site_id
_symmetry_equiv_pos_as_xyz
1 x,y,z
2 1/2-x,1/2-y,1/2+z
3 1/2+x,1/2-y,-z
4 -x,y,1/2-z
5 -x,-y,-z
6 1/2+x,1/2+y,1/2-z
7 1/2-x,1/2+y,z
8 x,-y,1/2+z
_cell_length_a                   10.8232(10)
_cell_length_b                   35.604(3)
_cell_length_c                   31.278(3)
_cell_angle_alpha                90
_cell_angle_beta                 90
_cell_angle_gamma                90
_cell_volume                     12053
_exptl_crystal_colour            violet
_exptl_crystal_description       prism
_cell_formula_units_Z            8
loop_
_atom_site_label
_atom_site_type_symbol
_atom_site_fract_x
_atom_site_fract_y
_atom_site_fract_z
C1 C 0.8535(4) 0.64189(10) 0.66103(13)
C2 C 0.8569(4) 0.66295(11) 0.62288(13)
H1 H 0.8649 0.6895 0.6210
C3 C 0.8470(4) 0.63906(11) 0.58926(14)
H2 H 0.8473 0.6460 0.5599
C4 C 0.8361(4) 0.60191(10) 0.60526(13)
C5 C 0.8181(4) 0.56768(11) 0.58372(12)
C6 C 0.8119(4) 0.53267(11) 0.60370(12)
C7 C 0.7875(4) 0.49783(11) 0.58079(13)
H3 H 0.7734 0.4951 0.5510
C8 C 0.7889(4) 0.47020(11) 0.61018(12)
H4 H 0.7760 0.4442 0.6051
C9 C 0.8140(4) 0.48768(10) 0.65103(12)
C10 C 0.8219(4) 0.46830(10) 0.68968(12)
C11 C 0.8374(4) 0.48395(10) 0.73071(12)
C12 C 0.8527(4) 0.46545(10) 0.77018(12)
H5 H 0.8560 0.4390 0.7742
C13 C 0.8619(4) 0.49179(10) 0.80168(12)
H6 H 0.8722 0.4869 0.8313
C14 C 0.8533(4) 0.52764(10) 0.78257(12)
C15 C 0.8567(4) 0.56478(11) 0.79881(13)
C16 C 0.8501(4) 0.57412(10) 0.84276(12)
C17 C 0.8388(4) 0.55300(11) 0.88065(12)
H7 H 0.8430 0.5264 0.8827
C18 C 0.8206(4) 0.57734(11) 0.91411(13)
H8 H 0.8103 0.5706 0.9433
C19 C 0.8198(4) 0.61440(10) 0.89749(12)
C20 C 0.7982(4) 0.64853(10) 0.91882(12)
C21 C 0.7968(4) 0.68398(10) 0.89917(12)
C22 C 0.7762(4) 0.71905(10) 0.92228(13)
H9 H 0.7619 0.7219 0.9521
C23 C 0.7816(4) 0.74649(11) 0.89293(12)
H10 H 0.7713 0.7726 0.8979
C24 C 0.8064(4) 0.72853(11) 0.85188(12)
C25 C 0.8179(4) 0.74841(11) 0.81331(13)
C26 C 0.8339(4) 0.73245(11) 0.77253(13)
C27 C 0.8545(4) 0.75084(11) 0.73288(12)
H11 H 0.8606 0.7772 0.7288
C28 C 0.8642(4) 0.72428(10) 0.70163(13)
H12 H 0.8782 0.7290 0.6721
C29 C 0.8498(4) 0.68847(11) 0.72071(12)
C30 C 0.8492(4) 0.65135(11) 0.70452(14)
H13 H 0.8456 0.6314 0.7246
C31 C 0.8101(8) 0.5704(3) 0.5382(3)
C32 C 0.7195(7) 0.5909(2) 0.5176(2)
C33 C 0.7113(8) 0.5938(2) 0.4750(2)
C34 C 0.7943(8) 0.5759(2) 0.4494(3)
C35 C 0.8861(8) 0.5556(2) 0.4673(3)
C36 C 0.8933(8) 0.5536(3) 0.5103(3)
C37 C 0.8141(4) 0.42637(10) 0.68766(12)
C38 C 0.7141(4) 0.40660(11) 0.70456(12)
C39 C 0.7061(4) 0.36784(11) 0.70168(12)
C40 C 0.7963(4) 0.34793(10) 0.68164(12)
C41 C 0.8968(4) 0.36634(11) 0.66444(12)
C42 C 0.9041(4) 0.40479(10) 0.66770(11)
C43 C 0.7711(4) 0.64665(10) 0.96536(12)
C44 C 0.6589(4) 0.65849(11) 0.98238(13)
C45 C 0.6341(4) 0.65748(12) 1.02570(14)
C46 C 0.7208(4) 0.64308(12) 1.05356(13)
C47 C 0.8318(4) 0.63069(11) 1.03785(13)
C48 C 0.8556(4) 0.63295(10) 0.99481(12)
C49 C 0.8115(4) 0.79033(10) 0.81526(12)
C50 C 0.7163(4) 0.81044(11) 0.79655(12)
C51 C 0.7091(4) 0.84906(11) 0.79893(12)
C52 C 0.7984(4) 0.86864(11) 0.82039(12)
C53 C 0.8943(4) 0.84989(11) 0.83953(12)
C54 C 0.9006(4) 0.81130(11) 0.83624(12)
F1 F 0.6329(4) 0.60908(13) 0.54197(14)
F2 F 0.6179(5) 0.61432(14) 0.45650(15)
F3 F 0.7865(5) 0.57905(15) 0.40641(15)
F4 F 0.9715(5) 0.53826(14) 0.44229(16)
F5 F 0.9913(6) 0.53472(17) 0.52742(17)
F6 F 0.6218(2) 0.42505(6) 0.72392(8)
F7 F 0.6076(2) 0.35000(6) 0.71870(7)
F8 F 0.7878(2) 0.31044(6) 0.67809(7)
F9 F 0.9852(2) 0.34653(6) 0.64468(7)
F10 F 1.0041(2) 0.42141(6) 0.65089(7)
F11 F 0.5702(2) 0.67133(7) 0.95633(7)
F12 F 0.5276(2) 0.67050(8) 1.04111(8)
F13 F 0.6974(3) 0.64159(8) 1.09523(7)
F14 F 0.9166(2) 0.61654(7) 1.06483(7)
F15 F 0.9673(2) 0.62144(6) 0.98155(7)
F16 F 0.6248(2) 0.79243(6) 0.77596(8)
F17 F 0.6144(2) 0.86737(6) 0.78018(7)
F18 F 0.7933(2) 0.90622(6) 0.82241(7)
F19 F 0.9824(2) 0.86906(6) 0.85992(7)
F20 F 0.9977(2) 0.79408(6) 0.85443(7)
N1 N 0.8416(3) 0.60491(9) 0.64834(11)
H33 H 0.8380 0.5857 0.6660
N2 N 0.8267(3) 0.52589(8) 0.64634(10)
N3 N 0.8398(3) 0.52142(8) 0.73940(10)
H34 H 0.8335 0.5392 0.7200
N4 N 0.8394(3) 0.61118(8) 0.85480(10)
H35 H 0.8446 0.6303 0.8371
N5 N 0.8147(3) 0.69039(9) 0.85638(10)
N6 N 0.8324(3) 0.69493(9) 0.76373(10)
H36 H 0.8217 0.6772 0.7830
O1 O 0.8524(8) 0.59174(15) 0.77173(18)
C55 C 0.5171(12) 0.2839(4) 0.1900(4)
H14 H 0.5750 0.2888 0.2134
H15 H 0.5412 0.2608 0.1752
H16 H 0.4335 0.2810 0.2016
C56 C 0.5193(10) 0.3175(3) 0.1579(3)
H17 H 0.5984 0.3183 0.1421
H18 H 0.4504 0.3156 0.1372
C57 C 0.5044(9) 0.3527(3) 0.1872(3)
H19 H 0.4263 0.3508 0.2035
H20 H 0.5737 0.3539 0.2078
C58 C 0.5030(10) 0.3888(3) 0.1595(4)
H21 H 0.4296 0.3888 0.1406
H22 H 0.5779 0.3898 0.1414
C59 C 0.4992(11) 0.4238(3) 0.1899(4)
H23 H 0.5757 0.4247 0.2072
H24 H 0.4281 0.4216 0.2097
C60 C 0.4869(17) 0.4612(4) 0.1627(5)
H25 H 0.4091 0.4619 0.1461
H26 H 0.5580 0.4648 0.1432
C61 C 0.4864(15) 0.4915(5) 0.2006(6)
H27 H 0.4262 0.4840 0.2224
H28 H 0.4639 0.5162 0.1892
H29 H 0.5688 0.4929 0.2135
C62 C 0.2598(13) 0.2433(2) 0.4205(3)
H30 H 0.2105 0.2204 0.4176
H31 H 0.3462 0.2366 0.4261
H32 H 0.2546 0.2579 0.3941
C69 C 0.2177(5) 0.26319(14) 0.45214(18)
C70 C 0.0922(5) 0.26167(13) 0.46144(19)
H37 H 0.0386 0.2468 0.4443
C71 C 0.0451(4) 0.28193(15) 0.4958(2)
H38 H -0.0407 0.2809 0.5021
C72 C 0.1234(6) 0.30369(14) 0.52077(17)
H39 H 0.0912 0.3175 0.5442
C73 C 0.2489(6) 0.30521(14) 0.5115(2)
H40 H 0.3025 0.3201 0.5286
C74 C 0.2960(4) 0.28496(16) 0.4771(2)
H41 H 0.3818 0.2860 0.4708
C63? C 0.4489(11) 0.5268(4) 0.5113(4)
C64? C 0.5053(16) 0.5020(5) 0.4726(5)
C65? C 0.4405(14) 0.5137(4) 0.5432(5)
C66? C 0.4919(14) 0.4764(4) 0.5525(5)
C67? C 0.5531(17) 0.4525(5) 0.5171(6)
C68? C 0.478(2) 0.4613(6) 0.5995(7)
C75? C 0.5322(16) 0.2804(5) 0.1613(6)
C76? C 0.5143(17) 0.3173(4) 0.1826(6)
C77? C 0.7919(8) 0.5679(3) 0.53349(19)
C78? C 0.6812(7) 0.5821(2) 0.5177(2)
C79? C 0.6570(6) 0.5809(2) 0.4741(2)
C80? C 0.7434(7) 0.5655(2) 0.44624(17)
C81? C 0.8541(6) 0.5514(2) 0.4620(2)
C82? C 0.8783(7) 0.5525(3) 0.5056(3)
C83? C 0.5093(16) 0.3533(4) 0.1603(6)
C84? C 0.5036(16) 0.3887(4) 0.1833(6)
C85? C 0.4953(13) 0.4249(3) 0.1609(5)
C86? C 0.4924(14) 0.4599(4) 0.1845(4)
C87? C 0.4753(11) 0.4994(3) 0.1621(4)
F21? F 0.5928(6) 0.5950(2) 0.5427(2)
F22? F 0.5544(6) 0.59485(19) 0.4580(2)
F23? F 0.7208(6) 0.56432(17) 0.40408(18)
F24? F 0.9279(6) 0.53672(18) 0.4338(2)
F25? F 0.9807(9) 0.5389(2) 0.5183(2)
H42? H 0.8640 0.5848 0.7789
H43? H 0.4834 0.2796 0.1350
H44? H 0.5053 0.2603 0.1806
H45? H 0.6199 0.2770 0.1544
H46? H 0.4363 0.3152 0.1989
H47? H 0.5814 0.3195 0.2039
H48? H 0.5829 0.3546 0.1415
H49? H 0.4363 0.3525 0.1412
H50? H 0.5778 0.3899 0.2018
H51? H 0.4314 0.3872 0.2027
H52? H 0.5665 0.4262 0.1410
H53? H 0.4199 0.4240 0.1430
H54? H 0.5706 0.4612 0.2008
H55? H 0.4251 0.4576 0.2057
H56? H 0.5389 0.5027 0.1401
H57? H 0.4830 0.5194 0.1834
H58? H 0.3933 0.5007 0.1488
O2? O 0.8222(8) 0.62456(19) 0.7327(2)
loop_
_geom_bond_atom_site_label_1
_geom_bond_atom_site_label_2
_geom_bond_site_symmetry_1
_geom_bond_site_symmetry_2
C1 C2 1_555 1_555
C2 H1 1_555 1_555
C3 C2 1_555 1_555
H2 C3 1_555 1_555
C4 C3 1_555 1_555
C5 C4 1_555 1_555
C6 C5 1_555 1_555
C7 C6 1_555 1_555
H3 C7 1_555 1_555
C8 C7 1_555 1_555
H4 C8 1_555 1_555
C9 C8 1_555 1_555
C10 C9 1_555 1_555
C11 C10 1_555 1_555
C12 C11 1_555 1_555
H5 C12 1_555 1_555
C13 C12 1_555 1_555
H6 C13 1_555 1_555
C14 C13 1_555 1_555
C15 C14 1_555 1_555
C16 C15 1_555 1_555
C17 C16 1_555 1_555
H7 C17 1_555 1_555
C18 C17 1_555 1_555
H8 C18 1_555 1_555
C19 C18 1_555 1_555
C20 C19 1_555 1_555
C21 C20 1_555 1_555
C22 C21 1_555 1_555
H9 C22 1_555 1_555
C23 C22 1_555 1_555
H10 C23 1_555 1_555
C24 C23 1_555 1_555
C25 C24 1_555 1_555
C26 C25 1_555 1_555
C27 C26 1_555 1_555
H11 C27 1_555 1_555
C28 C27 1_555 1_555
H12 C28 1_555 1_555
C29 C28 1_555 1_555
C30 C1 1_555 1_555
H13 C30 1_555 1_555
C31 C5 1_555 1_555
C32 C31 1_555 1_555
C33 C32 1_555 1_555
C34 C33 1_555 1_555
C35 C34 1_555 1_555
C36 C31 1_555 1_555
C37 C10 1_555 1_555
C38 C37 1_555 1_555
C39 C38 1_555 1_555
C40 C39 1_555 1_555
C41 C40 1_555 1_555
C42 C37 1_555 1_555
C43 C20 1_555 1_555
C44 C43 1_555 1_555
C45 C44 1_555 1_555
C46 C45 1_555 1_555
C47 C46 1_555 1_555
C48 C43 1_555 1_555
C49 C25 1_555 1_555
C50 C49 1_555 1_555
C51 C50 1_555 1_555
C52 C51 1_555 1_555
C53 C52 1_555 1_555
C54 C49 1_555 1_555
C55 H14 1_555 1_555
H15 C55 1_555 1_555
H16 C55 1_555 1_555
C56 C55 1_555 1_555
H17 C56 1_555 1_555
H18 C56 1_555 1_555
C57 C56 1_555 1_555
H19 C57 1_555 1_555
H20 C57 1_555 1_555
C58 C57 1_555 1_555
H21 C58 1_555 1_555
H22 C58 1_555 1_555
C59 C58 1_555 1_555
H23 C59 1_555 1_555
H24 C59 1_555 1_555
C60 C59 1_555 1_555
H25 C60 1_555 1_555
H26 C60 1_555 1_555
C61 C60 1_555 1_555
H27 C61 1_555 1_555
H28 C61 1_555 1_555
H29 C61 1_555 1_555
C62 H30 1_555 1_555
H31 C62 1_555 1_555
H32 C62 1_555 1_555
F1 C32 1_555 1_555
F2 C33 1_555 1_555
F3 C34 1_555 1_555
F4 C35 1_555 1_555
F5 C36 1_555 1_555
F6 C38 1_555 1_555
F7 C39 1_555 1_555
F8 C40 1_555 1_555
F9 C41 1_555 1_555
F10 C42 1_555 1_555
F11 C44 1_555 1_555
F12 C45 1_555 1_555
F13 C46 1_555 1_555
F14 C47 1_555 1_555
F15 C48 1_555 1_555
F16 C50 1_555 1_555
F17 C51 1_555 1_555
F18 C52 1_555 1_555
F19 C53 1_555 1_555
F20 C54 1_555 1_555
N1 C1 1_555 1_555
H33 N1 1_555 1_555
N2 C6 1_555 1_555
N3 C11 1_555 1_555
H34 N3 1_555 1_555
N4 C16 1_555 1_555
H35 N4 1_555 1_555
N5 C21 1_555 1_555
N6 C26 1_555 1_555
H36 N6 1_555 1_555
C69 C62 1_555 1_555
C70 C69 1_555 1_555
H37 C70 1_555 1_555
C71 C70 1_555 1_555
H38 C71 1_555 1_555
C72 C71 1_555 1_555
H39 C72 1_555 1_555
C73 C72 1_555 1_555
H40 C73 1_555 1_555
C74 C69 1_555 1_555
H41 C74 1_555 1_555
O1 C15 1_555 1_555
C4 N1 1_555 1_555
C9 N2 1_555 1_555
C14 N3 1_555 1_555
C19 N4 1_555 1_555
C24 N5 1_555 1_555
C29 C30 1_555 1_555
C29 N6 1_555 1_555
C35 C36 1_555 1_555
C41 C42 1_555 1_555
C47 C48 1_555 1_555
C53 C54 1_555 1_555
C73 C74 1_555 1_555

#END
