
#######################################################################
#
#                 Cambridge Crystallographic Data Centre
#                                CCDC 
#
#######################################################################
#
# If this CIF has been generated from an entry in the Cambridge 
# Structural Database, then it will include bibliographic, chemical, 
# crystal, experimental, refinement or atomic coordinate data resulting 
# from the CCDC's data processing and validation procedures.
#
#######################################################################

data_LOLBAQ
_chemical_formula_moiety         'C35 H40 N2'
_chemical_name_systematic        
(Z)-N-(3-(4-(3,6-Di-t-butyl-9H-carbazol-9-yl)phenyl)prop-2-yn-1-ylidene)cyclohexanamine
_symmetry_cell_setting           monoclinic
_symmetry_space_group_name_H-M   'C 2/c'
_symmetry_Int_Tables_number      15
_space_group_name_Hall           '-C 2yn'
loop_
_symmetry_equiv_pos_site_id
_symmetry_equiv_pos_as_xyz
1 x,y,z
2 -x,y,1/2-z
3 1/2+x,1/2+y,z
4 1/2-x,1/2+y,1/2-z
5 -x,-y,-z
6 x,-y,1/2+z
7 1/2-x,1/2-y,-z
8 1/2+x,1/2-y,1/2+z
_cell_length_a                   30.86(3)
_cell_length_b                   5.735(5)
_cell_length_c                   32.49(3)
_cell_angle_alpha                90
_cell_angle_beta                 99.746(18)
_cell_angle_gamma                90
_cell_volume                     5667.16
_exptl_crystal_colour            yellow
_cell_formula_units_Z            8
_exptl_crystal_recrystallization_method dichloromethane/hexane
loop_
_atom_site_label
_atom_site_type_symbol
_atom_site_fract_x
_atom_site_fract_y
_atom_site_fract_z
N1 N -0.1067(3) 1.3749(16) -0.0118(2)
N2 N 0.10436(19) 0.6017(11) 0.16335(19)
C1 C -0.0653(3) 1.4025(18) -0.0022(3)
H1 H -0.0536 1.5293 -0.0144
C2 C -0.0341(2) 1.2592(17) 0.0255(3)
C3 C -0.0085(3) 1.1444(17) 0.0475(3)
C4 C 0.0214(3) 1.0084(16) 0.0763(2)
C5 C 0.0071(2) 0.8047(16) 0.0907(2)
H2 H -0.0217 0.7578 0.0809
C6 C 0.0336(2) 0.6632(14) 0.1194(2)
H3 H 0.0231 0.5254 0.1292
C7 C 0.0772(3) 0.7397(14) 0.1329(2)
C8 C 0.0924(2) 0.9300(15) 0.1174(2)
H4 H 0.1217 0.9716 0.1259
C9 C 0.0653(2) 1.0704(15) 0.0885(2)
H5 H 0.0764 1.2031 0.0776
C10 C 0.0936(2) 0.5336(15) 0.2016(3)
C11 C 0.1213(2) 0.3633(14) 0.2201(2)
C12 C 0.1531(2) 0.3178(14) 0.1922(2)
C13 C 0.1401(2) 0.4682(15) 0.1573(2)
C14 C 0.0610(2) 0.6315(14) 0.2220(2)
H6 H 0.0432 0.7546 0.2108
C15 C 0.0574(2) 0.5291(15) 0.2604(2)
H7 H 0.0359 0.5858 0.2746
C16 C 0.0837(2) 0.3498(15) 0.2786(2)
C17 C 0.1165(2) 0.2602(14) 0.2583(2)
H8 H 0.1344 0.1377 0.2696
C18 C 0.1886(2) 0.1688(13) 0.1932(2)
H9 H 0.1956 0.0654 0.2154
C19 C 0.2133(2) 0.1708(16) 0.1625(3)
C20 C 0.1996(2) 0.3139(15) 0.1276(2)
H10 H 0.2151 0.3074 0.1055
C21 C 0.1641(2) 0.4644(15) 0.1246(2)
H11 H 0.1564 0.5601 0.1014
C22 C 0.2555(3) 0.0331(17) 0.1658(3)
C23 C 0.2608(3) -0.0801(17) 0.1244(2)
H12 H 0.2339 -0.1561 0.1124
H13 H 0.2841 -0.1928 0.1291
H14 H 0.2678 0.0375 0.1055
C24 C 0.2942(2) 0.1955(15) 0.1786(3)
H15 H 0.2935 0.3173 0.1583
H16 H 0.3211 0.1092 0.1804
H17 H 0.2925 0.2627 0.2054
C25 C 0.2580(2) -0.1716(15) 0.1961(2)
H18 H 0.2569 -0.1145 0.2237
H19 H 0.2850 -0.2547 0.1962
H20 H 0.2336 -0.2744 0.1875
C26 C 0.0726(3) 0.2417(15) 0.3196(2)
C27 C 0.1055(2) 0.0516(14) 0.3356(2)
H21 H 0.1344 0.1179 0.3422
H22 H 0.1051 -0.0658 0.3145
H23 H 0.0976 -0.0174 0.3603
C28 C 0.0756(2) 0.4369(15) 0.3527(2)
H24 H 0.1049 0.4992 0.3577
H25 H 0.0686 0.3743 0.3782
H26 H 0.0552 0.5586 0.3427
C29 C 0.0269(2) 0.1335(14) 0.3116(2)
H27 H 0.0212 0.0594 0.3367
H28 H 0.0253 0.0198 0.2897
H29 H 0.0054 0.2530 0.3035
C30 C -0.1250(3) 1.155(2) 0.0029(3)
H30 H -0.1028 1.0322 0.0089
C31 C -0.1624(4) 1.080(2) -0.0272(3)
H31 H -0.1525 1.0352 -0.0529
H32 H -0.1828 1.2086 -0.0335
C32 C -0.1856(4) 0.880(3) -0.0117(3)
H33 H -0.2093 0.8278 -0.0332
H34 H -0.1653 0.7507 -0.0047
C33 C -0.2034(3) 0.953(3) 0.0258(3)
H35 H -0.2228 1.0860 0.0197
H36 H -0.2194 0.8266 0.0363
C34 C -0.1651(5) 1.013(3) 0.0555(3)
H37 H -0.1438 0.8877 0.0578
H38 H -0.1730 1.0389 0.0828
C35 C -0.1448(4) 1.241(3) 0.0401(3)
H39 H -0.1673 1.3578 0.0317
H40 H -0.1224 1.3054 0.0617
loop_
_geom_bond_atom_site_label_1
_geom_bond_atom_site_label_2
_geom_bond_site_symmetry_1
_geom_bond_site_symmetry_2
N1 C1 1_555 1_555
N2 C7 1_555 1_555
C1 H1 1_555 1_555
C2 C1 1_555 1_555
C3 C2 1_555 1_555
C4 C3 1_555 1_555
C5 C4 1_555 1_555
H2 C5 1_555 1_555
C6 C5 1_555 1_555
H3 C6 1_555 1_555
C7 C6 1_555 1_555
C8 C7 1_555 1_555
H4 C8 1_555 1_555
C9 C4 1_555 1_555
H5 C9 1_555 1_555
C10 N2 1_555 1_555
C11 C10 1_555 1_555
C12 C11 1_555 1_555
C13 N2 1_555 1_555
C14 C10 1_555 1_555
H6 C14 1_555 1_555
C15 C14 1_555 1_555
H7 C15 1_555 1_555
C16 C15 1_555 1_555
C17 C11 1_555 1_555
H8 C17 1_555 1_555
C18 C12 1_555 1_555
H9 C18 1_555 1_555
C19 C18 1_555 1_555
C20 C19 1_555 1_555
H10 C20 1_555 1_555
C21 C13 1_555 1_555
H11 C21 1_555 1_555
C22 C19 1_555 1_555
C23 C22 1_555 1_555
H12 C23 1_555 1_555
H13 C23 1_555 1_555
H14 C23 1_555 1_555
C24 C22 1_555 1_555
H15 C24 1_555 1_555
H16 C24 1_555 1_555
H17 C24 1_555 1_555
C25 C22 1_555 1_555
H18 C25 1_555 1_555
H19 C25 1_555 1_555
H20 C25 1_555 1_555
C26 C16 1_555 1_555
C27 C26 1_555 1_555
H21 C27 1_555 1_555
H22 C27 1_555 1_555
H23 C27 1_555 1_555
C28 C26 1_555 1_555
H24 C28 1_555 1_555
H25 C28 1_555 1_555
H26 C28 1_555 1_555
C29 C26 1_555 1_555
H27 C29 1_555 1_555
H28 C29 1_555 1_555
H29 C29 1_555 1_555
C30 N1 1_555 1_555
H30 C30 1_555 1_555
C31 C30 1_555 1_555
H31 C31 1_555 1_555
H32 C31 1_555 1_555
C32 C31 1_555 1_555
H33 C32 1_555 1_555
H34 C32 1_555 1_555
C33 C32 1_555 1_555
H35 C33 1_555 1_555
H36 C33 1_555 1_555
C34 C33 1_555 1_555
H37 C34 1_555 1_555
H38 C34 1_555 1_555
C35 C30 1_555 1_555
H39 C35 1_555 1_555
H40 C35 1_555 1_555
C8 C9 1_555 1_555
C12 C13 1_555 1_555
C16 C17 1_555 1_555
C20 C21 1_555 1_555
C34 C35 1_555 1_555

#END
