
#######################################################################
#
#                 Cambridge Crystallographic Data Centre
#                                CCDC 
#
#######################################################################
#
# If this CIF has been generated from an entry in the Cambridge 
# Structural Database, then it will include bibliographic, chemical, 
# crystal, experimental, refinement or atomic coordinate data resulting 
# from the CCDC's data processing and validation procedures.
#
#######################################################################

data_LOLHID
_chemical_formula_moiety         'C13 H17 N3'
_chemical_name_systematic        N'-t-Butylisoquinoline-1,3-diamine
_symmetry_cell_setting           monoclinic
_symmetry_space_group_name_H-M   'P 21/c'
_symmetry_Int_Tables_number      14
_space_group_name_Hall           '-P 2ybc'
loop_
_symmetry_equiv_pos_site_id
_symmetry_equiv_pos_as_xyz
1 x,y,z
2 -x,1/2+y,1/2-z
3 -x,-y,-z
4 x,1/2-y,1/2+z
_cell_length_a                   11.0860(10)
_cell_length_b                   10.0330(10)
_cell_length_c                   11.5160(10)
_cell_angle_alpha                90
_cell_angle_beta                 110.257(6)
_cell_angle_gamma                90
_cell_volume                     1201.65
_exptl_crystal_colour            orange
_exptl_crystal_description       plates
_chemical_melting_point          103.5-104.5deg.C
_cell_formula_units_Z            4
loop_
_atom_site_label
_atom_site_type_symbol
_atom_site_fract_x
_atom_site_fract_y
_atom_site_fract_z
C1 C 0.6404(5) 0.2046(5) 0.4661(4)
N1 N 0.6849(4) 0.1268(4) 0.3972(3)
C2 C 0.6022(5) 0.0400(5) 0.3171(4)
N2 N 0.6591(4) -0.0315(4) 0.2460(4)
C3 C 0.4746(5) 0.0278(5) 0.3041(4)
C4 C 0.2936(5) 0.1079(5) 0.3648(5)
C5 C 0.2487(5) 0.1893(6) 0.4343(5)
C6 C 0.3294(5) 0.2797(5) 0.5184(4)
C7 C 0.4575(5) 0.2856(5) 0.5286(4)
C8 C 0.5060(5) 0.2042(4) 0.4573(4)
C9 C 0.4259(5) 0.1123(4) 0.3737(4)
N3 N 0.7258(4) 0.2873(4) 0.5494(3)
C10 C 0.8643(4) 0.3041(5) 0.5652(4)
C11 C 0.9373(5) 0.1742(5) 0.6073(5)
C12 C 0.8784(5) 0.3546(5) 0.4457(4)
C13 C 0.9159(5) 0.4072(5) 0.6669(4)
H1 H 0.6043 -0.1162 0.2032
H2 H 0.7416 -0.0409 0.2335
H3 H 0.4206 -0.0369 0.2488
H4 H 0.2360 0.0462 0.3087
H5 H 0.1595 0.1850 0.4257
H6 H 0.2966 0.3362 0.5679
H7 H 0.5138 0.3471 0.5860
H8 H 0.6903 0.3414 0.6098
H9 H 0.9052 0.1084 0.5434
H10 H 0.9251 0.1437 0.6815
H11 H 1.0272 0.1884 0.6233
H12 H 0.9679 0.3652 0.4572
H13 H 0.8354 0.4388 0.4236
H14 H 0.8406 0.2912 0.3808
H15 H 0.9073 0.3753 0.7423
H16 H 1.0050 0.4228 0.6798
H17 H 0.8688 0.4889 0.6427
loop_
_geom_bond_atom_site_label_1
_geom_bond_atom_site_label_2
_geom_bond_site_symmetry_1
_geom_bond_site_symmetry_2
C1 N1 1_555 1_555
N1 C2 1_555 1_555
C2 N2 1_555 1_555
N2 H1 1_555 1_555
C3 C2 1_555 1_555
C4 C5 1_555 1_555
C5 C6 1_555 1_555
C6 C7 1_555 1_555
C7 C8 1_555 1_555
C8 C1 1_555 1_555
C9 C3 1_555 1_555
N3 C1 1_555 1_555
C10 N3 1_555 1_555
C11 C10 1_555 1_555
C12 C10 1_555 1_555
C13 C10 1_555 1_555
H2 N2 1_555 1_555
H3 C3 1_555 1_555
H4 C4 1_555 1_555
H5 C5 1_555 1_555
H6 C6 1_555 1_555
H7 C7 1_555 1_555
H8 N3 1_555 1_555
H9 C11 1_555 1_555
H10 C11 1_555 1_555
H11 C11 1_555 1_555
H12 C12 1_555 1_555
H13 C12 1_555 1_555
H14 C12 1_555 1_555
H15 C13 1_555 1_555
H16 C13 1_555 1_555
H17 C13 1_555 1_555
C4 C9 1_555 1_555
C8 C9 1_555 1_555

#END
