
#######################################################################
#
#                 Cambridge Crystallographic Data Centre
#                                CCDC 
#
#######################################################################
#
# If this CIF has been generated from an entry in the Cambridge 
# Structural Database, then it will include bibliographic, chemical, 
# crystal, experimental, refinement or atomic coordinate data resulting 
# from the CCDC's data processing and validation procedures.
#
#######################################################################

data_LOLJON
_chemical_formula_moiety         'C26 H42 O3'
_chemical_name_systematic        
'(2,4a,6a,7,10b,12a-hexamethyl-8-oxooctadecahydrochrysen-2-yl)acetic acid'
_symmetry_cell_setting           orthorhombic
_symmetry_space_group_name_H-M   'P 21 21 21'
_symmetry_Int_Tables_number      19
_space_group_name_Hall           'P 2ac 2ab'
loop_
_symmetry_equiv_pos_site_id
_symmetry_equiv_pos_as_xyz
1 x,y,z
2 1/2+x,1/2-y,-z
3 -x,1/2+y,1/2-z
4 1/2-x,-y,1/2+z
_cell_length_a                   7.08970(10)
_cell_length_b                   11.9060(2)
_cell_length_c                   26.3296(4)
_cell_angle_alpha                90
_cell_angle_beta                 90
_cell_angle_gamma                90
_cell_volume                     2222.48
_exptl_crystal_colour            colorless
_exptl_crystal_description       prism
_cell_formula_units_Z            4
loop_
_atom_site_label
_atom_site_type_symbol
_atom_site_fract_x
_atom_site_fract_y
_atom_site_fract_z
O1 O -0.0362(2) 1.07785(14) -0.06831(5)
O2 O -0.1486(2) 0.95872(14) 0.37258(6)
H1 H -0.2443 0.9445 0.3903
C1 C -0.0479(3) 1.05982(17) -0.02260(7)
C2 C -0.2086(3) 0.99458(18) 0.00007(7)
H2 H -0.2881 0.9640 -0.0276
H3 H -0.2877 1.0457 0.0207
C3 C -0.1385(3) 0.89724(18) 0.03371(7)
H4 H -0.2464 0.8662 0.0530
H5 H -0.0883 0.8368 0.0117
C4 C 0.0154(3) 0.93394(17) 0.07111(7)
H6 H -0.0442 0.9947 0.0919
C5 C 0.0725(3) 0.84168(17) 0.11042(7)
C6 C 0.2114(3) 0.90099(17) 0.14839(7)
H7 H 0.1438 0.9704 0.1597
C7 C 0.2541(3) 0.83498(18) 0.19826(8)
C8 C 0.3755(3) 0.90675(18) 0.23490(7)
H8 H 0.4978 0.9236 0.2184
H9 H 0.3105 0.9790 0.2412
C9 C 0.4125(3) 0.8483(2) 0.28595(8)
H10 H 0.4730 0.9031 0.3090
H11 H 0.5041 0.7868 0.2801
C10 C 0.2380(3) 0.79827(18) 0.31351(8)
C11 C 0.1502(3) 0.8923(2) 0.34641(8)
H12 H 0.2405 0.9107 0.3739
H13 H 0.1370 0.9601 0.3250
C12 C -0.0386(3) 0.86835(19) 0.37047(8)
O3 O -0.0887(3) 0.77875(16) 0.38689(8)
C13 C 0.3660(3) 0.72615(19) 0.18725(8)
H14 H 0.4744 0.7436 0.1655
H15 H 0.2840 0.6721 0.1699
H16 H 0.4106 0.6938 0.2193
C14 C 0.1537(3) 0.73631(17) 0.08389(7)
H17 H 0.1322 0.6702 0.1053
H18 H 0.2895 0.7463 0.0785
H19 H 0.0909 0.7257 0.0511
C15 C 0.0968(3) 1.09922(17) 0.01528(7)
H20 H 0.0268 1.1424 0.0418
C16 C 0.2402(3) 1.17987(19) -0.00783(8)
H21 H 0.3234 1.1386 -0.0309
H22 H 0.3155 1.2140 0.0193
H23 H 0.1739 1.2388 -0.0267
C17 C 0.1814(3) 0.99314(17) 0.04235(7)
C18 C 0.2773(3) 0.91849(19) 0.00249(7)
H24 H 0.3533 0.9653 -0.0203
H25 H 0.1810 0.8787 -0.0172
H26 H 0.3589 0.8638 0.0195
C19 C 0.3273(3) 1.03374(17) 0.08153(7)
H27 H 0.4412 1.0601 0.0633
H28 H 0.2742 1.0985 0.1003
C20 C 0.3848(3) 0.94335(18) 0.11961(7)
H29 H 0.4773 0.9747 0.1439
H30 H 0.4454 0.8800 0.1015
C21 C -0.1063(3) 0.80252(18) 0.13938(7)
H31 H -0.1868 0.8688 0.1462
H32 H -0.1786 0.7509 0.1173
C22 C -0.0654(3) 0.74301(18) 0.18979(8)
H33 H -0.0036 0.6701 0.1826
H34 H -0.1863 0.7273 0.2072
C23 C 0.0616(3) 0.81189(17) 0.22555(7)
C24 C 0.0990(3) 0.74493(18) 0.27465(8)
H35 H 0.1485 0.6702 0.2650
H36 H -0.0233 0.7328 0.2920
C25 C -0.0491(3) 0.92007(17) 0.23866(8)
H37 H -0.1004 0.9529 0.2075
H38 H 0.0358 0.9741 0.2550
H39 H -0.1527 0.9017 0.2619
C26 C 0.3077(4) 0.7042(2) 0.34889(9)
H40 H 0.3988 0.7351 0.3732
H41 H 0.3684 0.6453 0.3287
H42 H 0.2004 0.6723 0.3674
loop_
_geom_bond_atom_site_label_1
_geom_bond_atom_site_label_2
_geom_bond_site_symmetry_1
_geom_bond_site_symmetry_2
O1 C1 1_555 1_555
O2 H1 1_555 1_555
C1 C2 1_555 1_555
C2 H2 1_555 1_555
H3 C2 1_555 1_555
C3 C2 1_555 1_555
H4 C3 1_555 1_555
H5 C3 1_555 1_555
C4 C3 1_555 1_555
H6 C4 1_555 1_555
C5 C4 1_555 1_555
C6 C5 1_555 1_555
H7 C6 1_555 1_555
C7 C6 1_555 1_555
C8 C7 1_555 1_555
H8 C8 1_555 1_555
H9 C8 1_555 1_555
C9 C8 1_555 1_555
H10 C9 1_555 1_555
H11 C9 1_555 1_555
C10 C9 1_555 1_555
C11 C10 1_555 1_555
H12 C11 1_555 1_555
H13 C11 1_555 1_555
C12 O2 1_555 1_555
O3 C12 1_555 1_555
C13 C7 1_555 1_555
H14 C13 1_555 1_555
H15 C13 1_555 1_555
H16 C13 1_555 1_555
C14 C5 1_555 1_555
H17 C14 1_555 1_555
H18 C14 1_555 1_555
H19 C14 1_555 1_555
C15 C1 1_555 1_555
H20 C15 1_555 1_555
C16 C15 1_555 1_555
H21 C16 1_555 1_555
H22 C16 1_555 1_555
H23 C16 1_555 1_555
C17 C4 1_555 1_555
C18 C17 1_555 1_555
H24 C18 1_555 1_555
H25 C18 1_555 1_555
H26 C18 1_555 1_555
C19 C17 1_555 1_555
H27 C19 1_555 1_555
H28 C19 1_555 1_555
C20 C6 1_555 1_555
H29 C20 1_555 1_555
H30 C20 1_555 1_555
C21 C5 1_555 1_555
H31 C21 1_555 1_555
H32 C21 1_555 1_555
C22 C21 1_555 1_555
H33 C22 1_555 1_555
H34 C22 1_555 1_555
C23 C7 1_555 1_555
C24 C10 1_555 1_555
H35 C24 1_555 1_555
H36 C24 1_555 1_555
C25 C23 1_555 1_555
H37 C25 1_555 1_555
H38 C25 1_555 1_555
H39 C25 1_555 1_555
C26 C10 1_555 1_555
H40 C26 1_555 1_555
H41 C26 1_555 1_555
H42 C26 1_555 1_555
C11 C12 1_555 1_555
C15 C17 1_555 1_555
C19 C20 1_555 1_555
C22 C23 1_555 1_555
C23 C24 1_555 1_555

#END
