
#######################################################################
#
#                 Cambridge Crystallographic Data Centre
#                                CCDC 
#
#######################################################################
#
# If this CIF has been generated from an entry in the Cambridge 
# Structural Database, then it will include bibliographic, chemical, 
# crystal, experimental, refinement or atomic coordinate data resulting 
# from the CCDC's data processing and validation procedures.
#
#######################################################################

data_LOLLUV
_chemical_formula_moiety         'C20 H32 O7,2(H2 O1)'
_chemical_name_systematic        
'2-(Hydroxymethyl)-6-((3-hydroxy-1-methyl-7-(prop-1-en-2-yl)-1,2,3,4,5,6,7,8-octahydronaphthalen-2-yl)oxy)tetrahydro-2H-pyran-3,4,5-triol monohydrate'
_symmetry_cell_setting           monoclinic
_symmetry_space_group_name_H-M   'C 2'
_symmetry_Int_Tables_number      5
_space_group_name_Hall           'C 2y'
loop_
_symmetry_equiv_pos_site_id
_symmetry_equiv_pos_as_xyz
1 x,y,z
2 -x,y,-z
3 1/2+x,1/2+y,z
4 1/2-x,1/2+y,-z
_cell_length_a                   21.4086(7)
_cell_length_b                   7.3541(3)
_cell_length_c                   28.0134(9)
_cell_angle_alpha                90
_cell_angle_beta                 95.0100(10)
_cell_angle_gamma                90
_cell_volume                     4393.61
_exptl_crystal_colour            colorless
_exptl_crystal_description       prism
_cell_formula_units_Z            8
loop_
_atom_site_label
_atom_site_type_symbol
_atom_site_fract_x
_atom_site_fract_y
_atom_site_fract_z
O1 O 0.21062(17) 0.2779(5) 0.32319(13)
O2 O 0.19187(15) 0.5209(5) 0.27379(12)
O3 O 0.14457(17) 0.1324(5) 0.43287(13)
H1 H 0.1754 0.0630 0.4392
O4 O 0.05598(17) 0.3970(6) 0.39434(14)
H2 H 0.0492 0.4880 0.4113
O5 O 0.10952(17) 0.6713(5) 0.33793(13)
H3 H 0.0974 0.6951 0.3650
O6 O 0.31160(15) 0.3112(5) 0.26972(13)
H4 H 0.2818 0.2649 0.2832
O7 O 0.3101(2) 0.0551(7) 0.3716(2)
H5 H 0.3273 -0.0363 0.3604
C1 C 0.2439(3) 0.0243(8) 0.3710(2)
H6 H 0.2345 -0.0465 0.3996
H7 H 0.2287 -0.0448 0.3420
C2 C 0.2130(2) 0.2048(7) 0.37114(18)
H8 H 0.2387 0.2876 0.3934
C3 C 0.1922(2) 0.4650(7) 0.32124(18)
H9 H 0.2218 0.5406 0.3425
C4 C 0.2500(2) 0.5938(7) 0.25896(18)
H10 H 0.2753 0.6450 0.2875
C5 C 0.2334(2) 0.7446(7) 0.22364(16)
H11 H 0.1995 0.8183 0.2366
C6 C 0.2080(2) 0.6740(8) 0.17469(17)
C7 C 0.1733(3) 0.8131(7) 0.14290(18)
H12 H 0.1972 0.9286 0.1448
H13 H 0.1320 0.8365 0.1550
C8 C 0.1634(2) 0.7533(8) 0.09028(17)
H14 H 0.2055 0.7512 0.0772
C9 C 0.1220(3) 0.8894(9) 0.0601(2)
C10 C 0.0548(3) 0.9063(11) 0.0715(2)
H15 H 0.0535 0.9430 0.1050
H16 H 0.0337 0.7889 0.0663
H17 H 0.0335 0.9981 0.0506
C11 C 0.1458(2) 0.2001(7) 0.38568(19)
H18 H 0.1193 0.1218 0.3629
C12 C 0.1198(2) 0.3959(7) 0.38434(18)
H19 H 0.1446 0.4696 0.4093
C13 C 0.1251(2) 0.4834(7) 0.33569(19)
H20 H 0.0956 0.4220 0.3112
C14 C 0.2879(2) 0.4462(7) 0.23664(18)
H21 H 0.3248 0.5067 0.2239
C15 C 0.2482(2) 0.3624(7) 0.19357(17)
H22 H 0.2760 0.2896 0.1746
H23 H 0.2171 0.2787 0.2057
C16 C 0.2145(2) 0.4995(7) 0.16141(17)
C17 C 0.1868(3) 0.4307(8) 0.1138(2)
H24 H 0.1669 0.3112 0.1184
H25 H 0.2210 0.4121 0.0926
C18 C 0.1384(3) 0.5580(9) 0.0891(2)
H26 H 0.0994 0.5527 0.1056
H27 H 0.1285 0.5192 0.0555
C19 C 0.2904(3) 0.8734(8) 0.2194(2)
H28 H 0.3287 0.8009 0.2185
H29 H 0.2947 0.9553 0.2471
H30 H 0.2836 0.9452 0.1899
C20 C 0.1455(3) 0.9901(11) 0.0279(2)
H31 H 0.1200 1.0780 0.0106
H32 H 0.1881 0.9758 0.0216
O8 O 0.42346(17) 0.1313(5) 0.30413(14)
O9 O 0.06201(19) 0.3578(7) 0.49326(15)
O10 O 0.3512(2) 0.1328(9) 0.4707(2)
O11 O 0.45569(16) 0.5461(5) 0.28001(12)
O12 O 0.48255(16) 0.4370(5) 0.35499(12)
O13 O 0.41099(19) 0.4857(7) 0.46871(14)
H33 H 0.3733 0.4802 0.4748
O14 O 0.52953(17) 0.2247(5) 0.26051(14)
H34 H 0.4948 0.1873 0.2683
O15 O 0.31869(17) 0.6415(6) 0.39822(14)
H35 H 0.3112 0.7150 0.4199
O16 O 0.37011(17) 0.7989(6) 0.31935(14)
H36 H 0.4008 0.8652 0.3144
O17 O 0.58368(17) 0.3092(5) 0.42208(13)
H37 H 0.5908 0.4013 0.4056
C21 C 0.4312(3) 1.0540(9) 0.0422(2)
H38 H 0.4170 1.1583 0.0245
H39 H 0.4710 1.0027 0.0376
C22 C 0.3954(3) 0.9794(7) 0.07366(19)
C23 C 0.4180(2) 0.8091(7) 0.09942(17)
H40 H 0.4515 0.7534 0.0814
C24 C 0.4467(2) 0.8564(7) 0.15041(19)
H41 H 0.4843 0.9330 0.1481
H42 H 0.4159 0.9279 0.1670
C25 C 0.4649(2) 0.6883(7) 0.17973(17)
C26 C 0.5116(2) 0.7177(8) 0.22401(19)
H43 H 0.4972 0.8253 0.2419
C27 C 0.5133(2) 0.5549(8) 0.25737(19)
H44 H 0.5491 0.5685 0.2825
C28 C 0.4590(2) 0.5917(7) 0.32873(17)
H45 H 0.4870 0.6991 0.3356
C29 C 0.4832(2) 0.4615(8) 0.40656(17)
H46 H 0.5051 0.5776 0.4162
C30 C 0.4146(3) 0.4711(8) 0.41832(17)
H47 H 0.3922 0.3588 0.4063
C31 C 0.5202(2) 0.3788(8) 0.23101(19)
H48 H 0.5580 0.3910 0.2126
C32 C 0.4628(3) 0.3524(8) 0.19382(18)
H49 H 0.4730 0.2587 0.1704
H50 H 0.4270 0.3069 0.2106
C33 C 0.4434(2) 0.5226(7) 0.16750(17)
C34 C 0.3964(2) 0.4919(7) 0.12418(18)
H51 H 0.4180 0.4315 0.0986
H52 H 0.3630 0.4093 0.1334
C35 C 0.3669(2) 0.6656(8) 0.10461(19)
H53 H 0.3366 0.7111 0.1265
H54 H 0.3439 0.6421 0.0730
C36 C 0.3332(3) 1.0552(10) 0.0819(3)
H55 H 0.3279 1.1738 0.0661
H56 H 0.3301 1.0698 0.1164
H57 H 0.3003 0.9722 0.0687
C37 C 0.5779(2) 0.7607(8) 0.20876(17)
H58 H 0.6083 0.7575 0.2370
H59 H 0.5778 0.8818 0.1942
H60 H 0.5893 0.6698 0.1855
C38 C 0.3917(2) 0.6352(7) 0.33994(17)
H61 H 0.3641 0.5364 0.3254
C39 C 0.3836(2) 0.6376(8) 0.39360(19)
H62 H 0.4032 0.7504 0.4081
C40 C 0.5187(2) 0.3032(8) 0.4297(2)
H63 H 0.5141 0.3041 0.4645
H64 H 0.5004 0.1884 0.4164
O18 O 0.2681(4) 0.669(4) 0.4890(3)
loop_
_geom_bond_atom_site_label_1
_geom_bond_atom_site_label_2
_geom_bond_site_symmetry_1
_geom_bond_site_symmetry_2
O1 C2 1_555 1_555
O2 C3 1_555 1_555
O3 H1 1_555 1_555
O4 H2 1_555 1_555
O5 H3 1_555 1_555
O6 H4 1_555 1_555
O7 H5 1_555 1_555
C1 O7 1_555 1_555
H6 C1 1_555 1_555
H7 C1 1_555 1_555
C2 C1 1_555 1_555
H8 C2 1_555 1_555
C3 O1 1_555 1_555
H9 C3 1_555 1_555
C4 O2 1_555 1_555
H10 C4 1_555 1_555
C5 C4 1_555 1_555
H11 C5 1_555 1_555
C6 C5 1_555 1_555
C7 C6 1_555 1_555
H12 C7 1_555 1_555
H13 C7 1_555 1_555
C8 C7 1_555 1_555
H14 C8 1_555 1_555
C9 C8 1_555 1_555
C10 C9 1_555 1_555
H15 C10 1_555 1_555
H16 C10 1_555 1_555
H17 C10 1_555 1_555
C11 O3 1_555 1_555
H18 C11 1_555 1_555
C12 O4 1_555 1_555
H19 C12 1_555 1_555
C13 O5 1_555 1_555
H20 C13 1_555 1_555
C14 O6 1_555 1_555
H21 C14 1_555 1_555
C15 C14 1_555 1_555
H22 C15 1_555 1_555
H23 C15 1_555 1_555
C16 C6 1_555 1_555
C17 C16 1_555 1_555
H24 C17 1_555 1_555
H25 C17 1_555 1_555
C18 C8 1_555 1_555
H26 C18 1_555 1_555
H27 C18 1_555 1_555
C19 C5 1_555 1_555
H28 C19 1_555 1_555
H29 C19 1_555 1_555
H30 C19 1_555 1_555
C20 C9 1_555 1_555
H31 C20 1_555 1_555
H32 C20 1_555 1_555
O11 C27 1_555 1_555
O12 C28 1_555 1_555
O13 H33 1_555 1_555
O14 H34 1_555 1_555
O15 H35 1_555 1_555
O16 H36 1_555 1_555
O17 H37 1_555 1_555
C21 H38 1_555 1_555
H39 C21 1_555 1_555
C22 C21 1_555 1_555
C23 C22 1_555 1_555
H40 C23 1_555 1_555
C24 C23 1_555 1_555
H41 C24 1_555 1_555
H42 C24 1_555 1_555
C25 C24 1_555 1_555
C26 C25 1_555 1_555
H43 C26 1_555 1_555
C27 C26 1_555 1_555
H44 C27 1_555 1_555
C28 O11 1_555 1_555
H45 C28 1_555 1_555
C29 O12 1_555 1_555
H46 C29 1_555 1_555
C30 O13 1_555 1_555
H47 C30 1_555 1_555
C31 O14 1_555 1_555
H48 C31 1_555 1_555
C32 C31 1_555 1_555
H49 C32 1_555 1_555
H50 C32 1_555 1_555
C33 C25 1_555 1_555
C34 C33 1_555 1_555
H51 C34 1_555 1_555
H52 C34 1_555 1_555
C35 C23 1_555 1_555
H53 C35 1_555 1_555
H54 C35 1_555 1_555
C36 C22 1_555 1_555
H55 C36 1_555 1_555
H56 C36 1_555 1_555
H57 C36 1_555 1_555
C37 C26 1_555 1_555
H58 C37 1_555 1_555
H59 C37 1_555 1_555
H60 C37 1_555 1_555
C38 O16 1_555 1_555
H61 C38 1_555 1_555
C39 O15 1_555 1_555
H62 C39 1_555 1_555
C40 O17 1_555 1_555
H63 C40 1_555 1_555
H64 C40 1_555 1_555
C2 C11 1_555 1_555
C3 C13 1_555 1_555
C4 C14 1_555 1_555
C11 C12 1_555 1_555
C12 C13 1_555 1_555
C15 C16 1_555 1_555
C17 C18 1_555 1_555
C27 C31 1_555 1_555
C28 C38 1_555 1_555
C29 C30 1_555 1_555
C29 C40 1_555 1_555
C30 C39 1_555 1_555
C32 C33 1_555 1_555
C34 C35 1_555 1_555
C38 C39 1_555 1_555

#END
