
#######################################################################
#
#                 Cambridge Crystallographic Data Centre
#                                CCDC 
#
#######################################################################
#
# If this CIF has been generated from an entry in the Cambridge 
# Structural Database, then it will include bibliographic, chemical, 
# crystal, experimental, refinement or atomic coordinate data resulting 
# from the CCDC's data processing and validation procedures.
#
#######################################################################

data_LOLMAC
_chemical_formula_moiety         'C20 H30 O7,H2 O1'
_chemical_name_systematic        
'2-(Hydroxymethyl)-6-((3-hydroxy-4-methyl-6-(prop-1-en-2-yl)-2,3,4,6,7,8-hexahydronaphthalen-2-yl)oxy)tetrahydro-2H-pyran-3,4,5-triol monohydrate'
_symmetry_cell_setting           monoclinic
_symmetry_space_group_name_H-M   'P 21'
_symmetry_Int_Tables_number      4
_space_group_name_Hall           'P 2yb'
loop_
_symmetry_equiv_pos_site_id
_symmetry_equiv_pos_as_xyz
1 x,y,z
2 -x,1/2+y,-z
_cell_length_a                   8.0041(6)
_cell_length_b                   63.282(5)
_cell_length_c                   8.9989(7)
_cell_angle_alpha                90
_cell_angle_beta                 116.076(4)
_cell_angle_gamma                90
_cell_volume                     4094.12
_exptl_crystal_colour            colorless
_exptl_crystal_description       prism
_cell_formula_units_Z            8
loop_
_atom_site_label
_atom_site_type_symbol
_atom_site_fract_x
_atom_site_fract_y
_atom_site_fract_z
O1 O 0.1664(13) 0.65680(13) 0.3125(10)
H1 H 0.0499 0.6559 0.2656
O2 O 0.1091(11) 0.71073(12) 0.4240(9)
O3 O 0.2995(11) 0.73980(12) 0.4844(10)
O4 O -0.2564(12) 0.69764(14) 0.2828(11)
H2 H -0.2147 0.7099 0.2856
O5 O 0.5781(13) 0.71624(14) 0.4473(11)
H3 H 0.6499 0.7234 0.5293
O6 O 0.5482(12) 0.67176(13) 0.4796(10)
H4 H 0.6161 0.6766 0.5740
O7 O -0.1238(12) 0.74573(13) 0.3142(10)
H5 H -0.0844 0.7334 0.3414
C1 C 0.2189(17) 0.67535(18) 0.4054(14)
H6 H 0.2491 0.6719 0.5229
C2 C 0.0592(17) 0.69067(18) 0.3406(15)
H7 H 0.0203 0.6930 0.2199
C3 C 0.2596(16) 0.72060(18) 0.4036(14)
H8 H 0.2236 0.7228 0.2833
C4 C 0.1939(16) 0.75833(17) 0.3973(14)
H9 H 0.1627 0.7572 0.2771
C5 C 0.3252(19) 0.7763(2) 0.4720(16)
H10 H 0.4537 0.7744 0.5012
C6 C 0.2627(16) 0.79559(18) 0.4995(13)
C7 C 0.3991(18) 0.81298(19) 0.5829(16)
H11 H 0.5023 0.8120 0.5508
H12 H 0.4522 0.8110 0.7043
C8 C 0.3118(19) 0.8348(2) 0.5389(16)
H13 H 0.2664 0.8374 0.4189
H14 H 0.4049 0.8457 0.6002
C9 C 0.1503(17) 0.83557(18) 0.5854(15)
H15 H 0.2061 0.8337 0.7082
C10 C 0.0418(17) 0.85622(19) 0.5489(15)
C11 C -0.087(2) 0.8594(3) 0.627(2)
H16 H -0.0154 0.8644 0.7410
H17 H -0.1481 0.8461 0.6271
H18 H -0.1804 0.8700 0.5641
C12 C -0.1081(16) 0.68362(19) 0.3636(14)
H19 H -0.1451 0.6692 0.3179
H20 H -0.0762 0.6832 0.4830
C13 C 0.4361(15) 0.70715(17) 0.4810(13)
H21 H 0.4790 0.7059 0.6032
C14 C 0.3933(17) 0.68499(18) 0.3997(15)
H22 H 0.3690 0.6865 0.2813
C15 C 0.0125(18) 0.7603(2) 0.4180(17)
H23 H 0.0414 0.7571 0.5357
C16 C -0.0703(17) 0.78116(19) 0.3777(15)
H24 H -0.1097 0.7833 0.2568
C17 C 0.0688(18) 0.7991(2) 0.4683(15)
C18 C 0.0205(19) 0.8168(2) 0.5114(15)
H25 H -0.1044 0.8182 0.4956
C19 C 0.051(2) 0.8707(2) 0.4359(17)
H26 H -0.0258 0.8829 0.4072
H27 H 0.1335 0.8683 0.3876
C20 C -0.249(2) 0.7835(2) 0.4047(18)
H28 H -0.3438 0.7735 0.3334
H29 H -0.2975 0.7979 0.3769
H30 H -0.2191 0.7806 0.5207
O8 O 0.5366(13) 0.62648(14) 0.8160(11)
O9 O 0.6784(14) 0.66599(14) 0.8160(11)
O10 O 0.0625(14) 0.66102(17) 0.9779(12)
O11 O 0.3148(15) 0.63113(16) 0.9772(12)
O12 O 0.5776(11) 0.55401(13) 0.4823(9)
O13 O 0.7074(11) 0.58259(12) 0.4214(10)
O14 O 0.5503(12) 0.63696(13) 0.3131(10)
H31 H 0.4351 0.6392 0.2659
O15 O 0.9397(12) 0.59558(13) 0.2766(10)
H32 H 0.9283 0.5829 0.2992
O16 O 0.3307(13) 0.62173(15) 0.4815(11)
H33 H 0.3822 0.6336 0.5013
O17 O 0.2702(12) 0.57749(14) 0.4505(11)
H34 H 0.2927 0.5674 0.5172
O18 O 0.8264(14) 0.54869(14) 0.3053(11)
H35 H 0.7476 0.5584 0.2806
C21 C 0.774(2) 0.4235(2) 0.4333(18)
H36 H 0.6444 0.4262 0.3926
H37 H 0.8159 0.4108 0.4044
C22 C 0.901(2) 0.4382(2) 0.5348(17)
C23 C 0.8362(16) 0.45803(18) 0.5804(15)
H38 H 0.9049 0.4592 0.7036
C24 C 0.8923(18) 0.47623(19) 0.5135(15)
H39 H 1.0031 0.4749 0.5000
C25 C 0.8002(17) 0.49477(18) 0.4692(14)
C26 C 0.8487(19) 0.5119(2) 0.3738(16)
H40 H 0.7688 0.5093 0.2533
C27 C 0.7987(17) 0.53389(18) 0.4153(15)
H41 H 0.8876 0.5375 0.5317
C28 C 0.6054(19) 0.5348(2) 0.4003(17)
H42 H 0.5174 0.5356 0.2800
C29 C 0.5334(15) 0.57284(16) 0.3951(13)
H43 H 0.4515 0.5705 0.2749
C30 C 0.6794(16) 0.60244(17) 0.3330(14)
H44 H 0.6021 0.6003 0.2116
C31 C 0.5852(15) 0.61855(17) 0.4032(13)
H45 H 0.6725 0.6217 0.5210
C32 C 0.8721(16) 0.60955(18) 0.3678(14)
H46 H 0.8696 0.6244 0.3314
H47 H 0.9548 0.6087 0.4879
C33 C 0.4076(15) 0.60907(16) 0.3973(12)
H48 H 0.3143 0.6080 0.2788
C34 C 0.4424(18) 0.5871(2) 0.4719(16)
H49 H 0.5258 0.5883 0.5931
C35 C 1.0534(19) 0.5113(2) 0.4010(17)
H50 H 1.0735 0.5224 0.3346
H51 H 1.0805 0.4975 0.3675
H52 H 1.1360 0.5137 0.5183
C36 C 1.108(2) 0.4342(2) 0.5992(18)
H53 H 1.1299 0.4190 0.5950
H54 H 1.1725 0.4392 0.7137
H55 H 1.1546 0.4418 0.5305
C37 C 0.634(2) 0.4591(2) 0.5391(17)
H56 H 0.6031 0.4478 0.5993
H57 H 0.5591 0.4568 0.4190
C38 C 0.587(2) 0.4815(2) 0.5894(18)
H58 H 0.4516 0.4824 0.5573
H59 H 0.6542 0.4833 0.7108
C39 C 0.6423(16) 0.49893(18) 0.5033(14)
C40 C 0.5514(19) 0.5167(2) 0.4716(16)
H60 H 0.4473 0.5180 0.4953
O19 O 0.0078(14) 0.60441(15) 0.7950(12)
H61 H 0.0470 0.6151 0.8563
O20 O 0.1681(12) 0.55073(12) 0.9304(10)
O21 O 0.0496(11) 0.52392(12) 1.0289(9)
O22 O 0.3762(13) 0.55987(14) 0.7500(10)
H62 H 0.4113 0.5488 0.8068
O23 O -0.2645(13) 0.54907(14) 0.9782(11)
H63 H -0.3036 0.5399 0.9030
O24 O -0.2229(14) 0.59338(15) 0.9442(11)
H64 H -0.3274 0.5886 0.9287
C41 C 0.0518(18) 0.5859(2) 0.8942(16)
H65 H 0.1433 0.5894 1.0098
C42 C 0.1320(17) 0.56843(18) 0.8271(15)
H66 H 0.0431 0.5648 0.7109
C43 C -0.0018(15) 0.54160(16) 0.9274(13)
H67 H -0.0889 0.5374 0.8118
C44 C 0.0783(18) 0.5039(2) 0.9605(16)
H68 H 0.0078 0.5045 0.8372
C45 C -0.0089(18) 0.48737(19) 1.0235(15)
H69 H -0.1222 0.4909 1.0276
C46 C 0.0607(16) 0.46799(18) 1.0745(14)
C47 C -0.009(2) 0.4524(2) 1.1540(18)
H70 H -0.1446 0.4545 1.1135
H71 H 0.0507 0.4550 1.2748
C48 C 0.025(2) 0.4304(2) 1.1230(18)
H72 H -0.0201 0.4209 1.1845
H73 H -0.0467 0.4274 1.0036
C49 C 0.217(2) 0.4260(2) 1.1706(18)
H74 H 0.2843 0.4280 1.2932
C50 C 0.2608(18) 0.4031(2) 1.1335(15)
C51 C 0.363(2) 0.3907(3) 1.250(2)
H75 H 0.3860 0.3767 1.2256
H76 H 0.4168 0.3955 1.3614
C52 C 0.3202(17) 0.57512(19) 0.8365(15)
H77 H 0.3096 0.5892 0.7857
H78 H 0.4141 0.5759 0.9535
C53 C 0.2766(17) 0.49987(18) 1.0040(15)
H79 H 0.3498 0.5017 1.1262
O25 O 0.3547(16) 0.51306(18) 0.9248(13)
H80 H 0.2698 0.5178 0.8368
C54 C 0.298(2) 0.4765(2) 0.9598(18)
H81 H 0.2191 0.4750 0.8382
C55 C 0.4960(18) 0.4736(2) 0.9865(16)
H82 H 0.5688 0.4672 1.0949
H83 H 0.5495 0.4874 0.9822
H84 H 0.4985 0.4645 0.8998
C56 C 0.2247(16) 0.46204(17) 1.0392(13)
C57 C 0.299(2) 0.4423(2) 1.0920(17)
H85 H 0.4069 0.4384 1.0793
C58 C 0.172(2) 0.3966(2) 0.9561(18)
H86 H 0.2222 0.3829 0.9443
H87 H 0.1987 0.4073 0.8901
H88 H 0.0374 0.3955 0.9173
C59 C -0.0924(17) 0.55804(18) 0.9897(14)
H89 H -0.0085 0.5611 1.1085
C60 C -0.1284(17) 0.57802(18) 0.8945(15)
H90 H -0.2136 0.5744 0.7773
O26 O 0.3782(13) 0.76789(14) 1.0331(11)
O27 O 0.1637(11) 0.74184(12) 0.9319(10)
O28 O 0.1818(12) 0.68764(12) 0.7899(10)
H91 H 0.1413 0.6785 0.8332
O29 O -0.2277(14) 0.73311(16) 0.7539(12)
H92 H -0.3337 0.7278 0.7233
O30 O 0.5624(13) 0.69800(14) 0.9526(11)
H93 H 0.6631 0.7034 1.0200
O31 O -0.0275(13) 0.77891(15) 0.9215(12)
H94 H 0.0075 0.7665 0.9173
O32 O 0.6442(14) 0.74145(15) 0.9893(12)
H95 H 0.6185 0.7494 0.9073
C61 C 0.444(2) 0.9033(3) 1.233(2)
H96 H 0.5804 0.9039 1.2859
H97 H 0.4003 0.9012 1.3184
H98 H 0.3934 0.9165 1.1742
C62 C 0.378(2) 0.8845(2) 1.1093(18)
C63 C 0.369(2) 0.8640(2) 1.1883(18)
H99 H 0.3541 0.8684 1.2888
C64 C 0.213(2) 0.8501(2) 1.1012(16)
H100 H 0.0929 0.8544 1.0869
C65 C 0.2302(19) 0.8307(2) 1.0373(16)
C66 C 0.0654(18) 0.8156(2) 0.9548(16)
H101 H 0.0257 0.8167 0.8331
C67 C 0.1369(19) 0.7927(2) 1.0038(17)
H102 H 0.1855 0.7911 1.1263
C68 C 0.290(2) 0.7880(2) 0.9569(17)
H103 H 0.2380 0.7869 0.8339
C69 C 0.3266(19) 0.7503(2) 0.9319(17)
H104 H 0.3000 0.7546 0.8167
C70 C 0.0948(16) 0.72342(17) 0.8320(14)
H105 H 0.0719 0.7271 0.7166
C71 C 0.2368(17) 0.70559(19) 0.8913(15)
H106 H 0.2590 0.7015 1.0057
C72 C -0.089(2) 0.7172(2) 0.8283(18)
H107 H -0.1323 0.7038 0.7653
H108 H -0.0716 0.7146 0.9427
C73 C 0.4214(17) 0.71368(19) 0.8963(15)
H109 H 0.3955 0.7169 0.7794
C74 C 0.4796(19) 0.7345(2) 0.9920(16)
H110 H 0.5093 0.7314 1.1098
C75 C 0.331(2) 0.8862(3) 0.950(2)
H111 H 0.2888 0.8741 0.8811
H112 H 0.3390 0.8995 0.9049
C76 C 0.560(2) 0.8522(2) 1.2594(19)
H113 H 0.6634 0.8624 1.3011
H114 H 0.5715 0.8428 1.3518
C77 C 0.5636(19) 0.8393(2) 1.1199(16)
H115 H 0.5509 0.8488 1.0282
H116 H 0.6844 0.8319 1.1590
C78 C 0.4129(18) 0.8239(2) 1.0600(15)
C79 C 0.437(2) 0.8038(2) 1.0172(16)
H117 H 0.5559 0.7999 1.0273
C80 C -0.102(2) 0.8204(2) 0.9800(17)
H118 H -0.0776 0.8170 1.0941
H119 H -0.2074 0.8119 0.9034
H120 H -0.1330 0.8354 0.9592
loop_
_geom_bond_atom_site_label_1
_geom_bond_atom_site_label_2
_geom_bond_site_symmetry_1
_geom_bond_site_symmetry_2
O1 H1 1_555 1_555
O2 C2 1_555 1_555
O3 C3 1_555 1_555
O4 H2 1_555 1_555
O5 H3 1_555 1_555
O6 H4 1_555 1_555
O7 H5 1_555 1_555
C1 O1 1_555 1_555
H6 C1 1_555 1_555
C2 C1 1_555 1_555
H7 C2 1_555 1_555
C3 O2 1_555 1_555
H8 C3 1_555 1_555
C4 O3 1_555 1_555
H9 C4 1_555 1_555
C5 C4 1_555 1_555
H10 C5 1_555 1_555
C6 C5 1_555 1_555
C7 C6 1_555 1_555
H11 C7 1_555 1_555
H12 C7 1_555 1_555
C8 C7 1_555 1_555
H13 C8 1_555 1_555
H14 C8 1_555 1_555
C9 C8 1_555 1_555
H15 C9 1_555 1_555
C10 C9 1_555 1_555
C11 C10 1_555 1_555
H16 C11 1_555 1_555
H17 C11 1_555 1_555
H18 C11 1_555 1_555
C12 O4 1_555 1_555
H19 C12 1_555 1_555
H20 C12 1_555 1_555
C13 O5 1_555 1_555
H21 C13 1_555 1_555
C14 O6 1_555 1_555
H22 C14 1_555 1_555
C15 O7 1_555 1_555
H23 C15 1_555 1_555
C16 C15 1_555 1_555
H24 C16 1_555 1_555
C17 C6 1_555 1_555
C18 C9 1_555 1_555
H25 C18 1_555 1_555
C19 C10 1_555 1_555
H26 C19 1_555 1_555
H27 C19 1_555 1_555
C20 C16 1_555 1_555
H28 C20 1_555 1_555
H29 C20 1_555 1_555
H30 C20 1_555 1_555
O12 C28 1_555 1_555
O13 C29 1_555 1_555
O14 H31 1_555 1_555
O15 H32 1_555 1_555
O16 H33 1_555 1_555
O17 H34 1_555 1_555
O18 H35 1_555 1_555
C21 H36 1_555 1_555
H37 C21 1_555 1_555
C22 C21 1_555 1_555
C23 C22 1_555 1_555
H38 C23 1_555 1_555
C24 C23 1_555 1_555
H39 C24 1_555 1_555
C25 C24 1_555 1_555
C26 C25 1_555 1_555
H40 C26 1_555 1_555
C27 O18 1_555 1_555
H41 C27 1_555 1_555
C28 C27 1_555 1_555
H42 C28 1_555 1_555
C29 O12 1_555 1_555
H43 C29 1_555 1_555
C30 O13 1_555 1_555
H44 C30 1_555 1_555
C31 O14 1_555 1_555
H45 C31 1_555 1_555
C32 O15 1_555 1_555
H46 C32 1_555 1_555
H47 C32 1_555 1_555
C33 O16 1_555 1_555
H48 C33 1_555 1_555
C34 O17 1_555 1_555
H49 C34 1_555 1_555
C35 C26 1_555 1_555
H50 C35 1_555 1_555
H51 C35 1_555 1_555
H52 C35 1_555 1_555
C36 C22 1_555 1_555
H53 C36 1_555 1_555
H54 C36 1_555 1_555
H55 C36 1_555 1_555
C37 C23 1_555 1_555
H56 C37 1_555 1_555
H57 C37 1_555 1_555
C38 C37 1_555 1_555
H58 C38 1_555 1_555
H59 C38 1_555 1_555
C39 C25 1_555 1_555
C40 C28 1_555 1_555
H60 C40 1_555 1_555
O19 H61 1_555 1_555
O20 C42 1_555 1_555
O21 C43 1_555 1_555
O22 H62 1_555 1_555
O23 H63 1_555 1_555
O24 H64 1_555 1_555
C41 O19 1_555 1_555
H65 C41 1_555 1_555
C42 C41 1_555 1_555
H66 C42 1_555 1_555
C43 O20 1_555 1_555
H67 C43 1_555 1_555
C44 O21 1_555 1_555
H68 C44 1_555 1_555
C45 C44 1_555 1_555
H69 C45 1_555 1_555
C46 C45 1_555 1_555
C47 C46 1_555 1_555
H70 C47 1_555 1_555
H71 C47 1_555 1_555
C48 C47 1_555 1_555
H72 C48 1_555 1_555
H73 C48 1_555 1_555
C49 C48 1_555 1_555
H74 C49 1_555 1_555
C50 C49 1_555 1_555
C51 C50 1_555 1_555
H75 C51 1_555 1_555
H76 C51 1_555 1_555
C52 O22 1_555 1_555
H77 C52 1_555 1_555
H78 C52 1_555 1_555
C53 C44 1_555 1_555
H79 C53 1_555 1_555
O25 C53 1_555 1_555
H80 O25 1_555 1_555
C54 C53 1_555 1_555
H81 C54 1_555 1_555
C55 C54 1_555 1_555
H82 C55 1_555 1_555
H83 C55 1_555 1_555
H84 C55 1_555 1_555
C56 C46 1_555 1_555
C57 C49 1_555 1_555
H85 C57 1_555 1_555
C58 C50 1_555 1_555
H86 C58 1_555 1_555
H87 C58 1_555 1_555
H88 C58 1_555 1_555
C59 O23 1_555 1_555
H89 C59 1_555 1_555
C60 O24 1_555 1_555
H90 C60 1_555 1_555
O26 C68 1_555 1_555
O27 C69 1_555 1_555
O28 H91 1_555 1_555
O29 H92 1_555 1_555
O30 H93 1_555 1_555
O31 H94 1_555 1_555
O32 H95 1_555 1_555
C61 H96 1_555 1_555
H97 C61 1_555 1_555
H98 C61 1_555 1_555
C62 C61 1_555 1_555
C63 C62 1_555 1_555
H99 C63 1_555 1_555
C64 C63 1_555 1_555
H100 C64 1_555 1_555
C65 C64 1_555 1_555
C66 C65 1_555 1_555
H101 C66 1_555 1_555
C67 O31 1_555 1_555
H102 C67 1_555 1_555
C68 C67 1_555 1_555
H103 C68 1_555 1_555
C69 O26 1_555 1_555
H104 C69 1_555 1_555
C70 O27 1_555 1_555
H105 C70 1_555 1_555
C71 O28 1_555 1_555
H106 C71 1_555 1_555
C72 O29 1_555 1_555
H107 C72 1_555 1_555
H108 C72 1_555 1_555
C73 O30 1_555 1_555
H109 C73 1_555 1_555
C74 O32 1_555 1_555
H110 C74 1_555 1_555
C75 C62 1_555 1_555
H111 C75 1_555 1_555
H112 C75 1_555 1_555
C76 C63 1_555 1_555
H113 C76 1_555 1_555
H114 C76 1_555 1_555
C77 C76 1_555 1_555
H115 C77 1_555 1_555
H116 C77 1_555 1_555
C78 C65 1_555 1_555
C79 C68 1_555 1_555
H117 C79 1_555 1_555
C80 C66 1_555 1_555
H118 C80 1_555 1_555
H119 C80 1_555 1_555
H120 C80 1_555 1_555
C1 C14 1_555 1_555
C2 C12 1_555 1_555
C3 C13 1_555 1_555
C4 C15 1_555 1_555
C13 C14 1_555 1_555
C16 C17 1_555 1_555
C17 C18 1_555 1_555
C26 C27 1_555 1_555
C29 C34 1_555 1_555
C30 C31 1_555 1_555
C30 C32 1_555 1_555
C31 C33 1_555 1_555
C33 C34 1_555 1_555
C38 C39 1_555 1_555
C39 C40 1_555 1_555
C41 C60 1_555 1_555
C42 C52 1_555 1_555
C43 C59 1_555 1_555
C54 C56 1_555 1_555
C56 C57 1_555 1_555
C59 C60 1_555 1_555
C66 C67 1_555 1_555
C69 C74 1_555 1_555
C70 C71 1_555 1_555
C70 C72 1_555 1_555
C71 C73 1_555 1_555
C73 C74 1_555 1_555
C77 C78 1_555 1_555
C78 C79 1_555 1_555

#END
