
#######################################################################
#
#                 Cambridge Crystallographic Data Centre
#                                CCDC 
#
#######################################################################
#
# If this CIF has been generated from an entry in the Cambridge 
# Structural Database, then it will include bibliographic, chemical, 
# crystal, experimental, refinement or atomic coordinate data resulting 
# from the CCDC's data processing and validation procedures.
#
#######################################################################

data_LOLNAD
_chemical_compound_source        'seeds of Euphorbia lathyris'
_chemical_name_common            
'4a-Acetoxy-3,6,8,8,10a-pentamethyl-5-oxo-1b,2,3,4,4a,5,7a,8,8a,9,10,10a-dodecahydro-1aH-cyclopenta[10,11]cyclopropa[5,6]cycloundeca[1,2-b]oxiren-2-yl benzoate methanol solvate'
_chemical_formula_moiety         'C29 H36 O6,C1 H4 O1'
_chemical_name_systematic        
'15-O-Acetyl-3-O-benzoyljolkinol-5\b,6\b-oxide methanol solvate'
_chemical_properties_biological  
'Evaulated for cytotoxic activity, showed considerable cytotoxicity against C6 or MCF-7 cell lines'
_symmetry_cell_setting           monoclinic
_symmetry_space_group_name_H-M   'P 21'
_symmetry_Int_Tables_number      4
_space_group_name_Hall           'P 2yb'
loop_
_symmetry_equiv_pos_site_id
_symmetry_equiv_pos_as_xyz
1 x,y,z
2 -x,1/2+y,-z
_cell_length_a                   10.369(2)
_cell_length_b                   10.020(2)
_cell_length_c                   14.508(3)
_cell_angle_alpha                90
_cell_angle_beta                 108.76(3)
_cell_angle_gamma                90
_cell_volume                     1427.26
_exptl_crystal_colour            colorless
_exptl_crystal_description       block
_cell_formula_units_Z            2
loop_
_atom_site_label
_atom_site_type_symbol
_atom_site_fract_x
_atom_site_fract_y
_atom_site_fract_z
O1 O 0.45592(16) 0.74050(18) 0.93626(12)
O2 O 0.5663(2) 0.8478(2) 1.07509(15)
O3 O 0.3818(2) 1.0298(2) 0.80601(14)
O4 O -0.03767(17) 0.6743(2) 0.72756(14)
O5 O 0.30573(15) 0.62189(16) 0.74400(11)
O6 O 0.1735(2) 0.4422(2) 0.69467(16)
C1 C 0.1973(2) 0.6066(3) 0.87129(18)
H1 H 0.1065 0.5713 0.8608
H2 H 0.2614 0.5330 0.8861
C2 C 0.2344(2) 0.7080(3) 0.95536(17)
H3 H 0.1511 0.7558 0.9536
C3 C 0.3276(2) 0.8060(3) 0.92753(18)
H4 H 0.3394 0.8898 0.9641
C4 C 0.2565(2) 0.8252(2) 0.81779(16)
H5 H 0.1764 0.8813 0.8103
C5 C 0.3450(2) 0.8973(3) 0.76915(18)
H6 H 0.4200 0.8442 0.7611
C6 C 0.3036(3) 1.0127(3) 0.7023(2)
C7 C 0.3912(3) 1.0414(3) 0.6373(2)
H7 H 0.3595 1.1240 0.6025
H8 H 0.4842 1.0559 0.6789
C8 C 0.3928(3) 0.9338(3) 0.5626(2)
H9 H 0.4682 0.9521 0.5386
H10 H 0.4103 0.8484 0.5956
C9 C 0.2652(3) 0.9216(3) 0.4766(2)
H11 H 0.2413 1.0038 0.4381
C10 C 0.2270(3) 0.7975(3) 0.4168(2)
C11 C 0.1413(3) 0.8412(3) 0.47959(18)
H12 H 0.0530 0.8807 0.4436
C12 C 0.1455(2) 0.7716(3) 0.56867(17)
H13 H 0.2288 0.7351 0.6049
C13 C 0.0424(2) 0.7546(3) 0.60387(16)
C14 C 0.0613(2) 0.6971(2) 0.70120(17)
C15 C 0.2032(2) 0.6821(2) 0.77982(16)
C16 C 0.2941(3) 0.6452(4) 1.0562(2)
H14 H 0.3147 0.7141 1.1048
H15 H 0.3759 0.5978 1.0597
H16 H 0.2291 0.5845 1.0674
C17 C 0.1641(3) 1.0722(3) 0.6719(2)
H17 H 0.1592 1.1437 0.6268
H18 H 0.1451 1.1061 0.7280
H19 H 0.0983 1.0051 0.6411
C18 C 0.1607(4) 0.8145(5) 0.3089(2)
H20 H 0.1398 0.7284 0.2788
H21 H 0.2218 0.8608 0.2823
H22 H 0.0783 0.8651 0.2967
C19 C 0.3162(4) 0.6748(4) 0.4455(3)
H23 H 0.2776 0.6036 0.4009
H24 H 0.3216 0.6481 0.5102
H25 H 0.4058 0.6948 0.4436
C20 C -0.1006(3) 0.8011(3) 0.5506(2)
H26 H -0.1590 0.7792 0.5880
H27 H -0.1333 0.7578 0.4883
H28 H -0.1006 0.8960 0.5414
C21 C 0.5667(2) 0.7714(3) 1.01124(17)
C22 C 0.6879(2) 0.6975(3) 1.00439(17)
C23 C 0.6800(3) 0.6154(3) 0.9266(2)
H29 H 0.5976 0.6060 0.8766
C24 C 0.7929(3) 0.5473(4) 0.9223(2)
H30 H 0.7864 0.4909 0.8700
C25 C 0.9154(3) 0.5623(5) 0.9949(3)
H31 H 0.9921 0.5169 0.9918
C26 C 0.9238(3) 0.6441(5) 1.0716(3)
H32 H 1.0068 0.6542 1.1208
C27 C 0.8112(3) 0.7121(4) 1.0777(2)
H33 H 0.8181 0.7674 1.1305
C28 C 0.2816(3) 0.4974(3) 0.70881(19)
C29 C 0.4018(3) 0.4391(3) 0.6907(3)
H34 H 0.4753 0.5024 0.7086
H35 H 0.3796 0.4175 0.6229
H36 H 0.4289 0.3595 0.7289
O7 O -0.3061(4) 0.7759(5) 0.7140(3)
H37 H -0.312(4) 0.678(2) 0.696(3)
C30 C -0.2565(6) 0.8685(7) 0.7780(5)
H38 H -0.3194 0.8871 0.8125
H39 H -0.2420 0.9481 0.7457
H40 H -0.1715 0.8391 0.8230
loop_
_geom_bond_atom_site_label_1
_geom_bond_atom_site_label_2
_geom_bond_site_symmetry_1
_geom_bond_site_symmetry_2
O1 C3 1_555 1_555
O2 C21 1_555 1_555
O3 C5 1_555 1_555
O4 C14 1_555 1_555
O5 C15 1_555 1_555
O6 C28 1_555 1_555
C1 H1 1_555 1_555
H2 C1 1_555 1_555
C2 C1 1_555 1_555
H3 C2 1_555 1_555
C3 C2 1_555 1_555
H4 C3 1_555 1_555
C4 C3 1_555 1_555
H5 C4 1_555 1_555
C5 C4 1_555 1_555
H6 C5 1_555 1_555
C6 O3 1_555 1_555
C7 C6 1_555 1_555
H7 C7 1_555 1_555
H8 C7 1_555 1_555
C8 C7 1_555 1_555
H9 C8 1_555 1_555
H10 C8 1_555 1_555
C9 C8 1_555 1_555
H11 C9 1_555 1_555
C10 C9 1_555 1_555
C11 C9 1_555 1_555
H12 C11 1_555 1_555
C12 C11 1_555 1_555
H13 C12 1_555 1_555
C13 C12 1_555 1_555
C14 C13 1_555 1_555
C15 C1 1_555 1_555
C16 C2 1_555 1_555
H14 C16 1_555 1_555
H15 C16 1_555 1_555
H16 C16 1_555 1_555
C17 C6 1_555 1_555
H17 C17 1_555 1_555
H18 C17 1_555 1_555
H19 C17 1_555 1_555
C18 C10 1_555 1_555
H20 C18 1_555 1_555
H21 C18 1_555 1_555
H22 C18 1_555 1_555
C19 C10 1_555 1_555
H23 C19 1_555 1_555
H24 C19 1_555 1_555
H25 C19 1_555 1_555
C20 C13 1_555 1_555
H26 C20 1_555 1_555
H27 C20 1_555 1_555
H28 C20 1_555 1_555
C21 O1 1_555 1_555
C22 C21 1_555 1_555
C23 C22 1_555 1_555
H29 C23 1_555 1_555
C24 C23 1_555 1_555
H30 C24 1_555 1_555
C25 C24 1_555 1_555
H31 C25 1_555 1_555
C26 C25 1_555 1_555
H32 C26 1_555 1_555
C27 C22 1_555 1_555
H33 C27 1_555 1_555
C28 O5 1_555 1_555
C29 C28 1_555 1_555
H34 C29 1_555 1_555
H35 C29 1_555 1_555
H36 C29 1_555 1_555
O7 H37 1_555 1_555
C30 O7 1_555 1_555
H38 C30 1_555 1_555
H39 C30 1_555 1_555
H40 C30 1_555 1_555
C4 C15 1_555 1_555
C5 C6 1_555 1_555
C10 C11 1_555 1_555
C14 C15 1_555 1_555
C26 C27 1_555 1_555

#END
