
#######################################################################
#
#                 Cambridge Crystallographic Data Centre
#                                CCDC 
#
#######################################################################
#
# If this CIF has been generated from an entry in the Cambridge 
# Structural Database, then it will include bibliographic, chemical, 
# crystal, experimental, refinement or atomic coordinate data resulting 
# from the CCDC's data processing and validation procedures.
#
#######################################################################

data_LOLPUZ
_chemical_compound_source        'aerial parts of Mikania micrantha'
_chemical_formula_moiety         'C15 H18 O4,H2 O1'
_chemical_name_systematic        '8-epi-Mikanokriptin monohydrate'
_symmetry_cell_setting           orthorhombic
_symmetry_space_group_name_H-M   'P 21 21 21'
_symmetry_Int_Tables_number      19
_space_group_name_Hall           'P 2ac 2ab'
loop_
_symmetry_equiv_pos_site_id
_symmetry_equiv_pos_as_xyz
1 x,y,z
2 1/2-x,-y,1/2+z
3 -x,1/2+y,1/2-z
4 1/2+x,1/2-y,-z
_cell_length_a                   6.2987(6)
_cell_length_b                   9.6324(10)
_cell_length_c                   22.813(2)
_cell_angle_alpha                90
_cell_angle_beta                 90
_cell_angle_gamma                90
_cell_volume                     1384.1
_exptl_crystal_colour            colorless
_exptl_crystal_description       prism
_chemical_melting_point          '112-114 deg.C'
_cell_formula_units_Z            4
loop_
_atom_site_label
_atom_site_type_symbol
_atom_site_fract_x
_atom_site_fract_y
_atom_site_fract_z
O1 O 0.6103(2) 0.81921(12) 0.49694(5)
O2 O 0.72980(17) 0.28726(11) 0.42577(5)
H1 H 0.680(3) 0.2325(18) 0.4504(7)
O3 O 0.6982(3) 0.00070(13) 0.29176(6)
O4 O 0.7865(2) 0.22372(12) 0.28580(5)
C1 C 0.5954(3) 0.62145(16) 0.36339(7)
H2 H 0.4738 0.6050 0.3375
C2 C 0.5640(3) 0.76131(17) 0.39393(7)
H3 H 0.6666 0.8287 0.3800
H4 H 0.4222 0.7968 0.3867
C3 C 0.5961(3) 0.73263(17) 0.45822(7)
C4 C 0.5924(2) 0.58155(15) 0.46630(6)
C5 C 0.5846(2) 0.51905(15) 0.41372(6)
C6 C 0.5528(2) 0.36602(15) 0.40456(6)
H5 H 0.4283 0.3384 0.4275
C7 C 0.5065(3) 0.33058(16) 0.34010(6)
H6 H 0.3811 0.3825 0.3273
C8 C 0.6912(3) 0.35994(17) 0.29735(7)
H7 H 0.6319 0.3958 0.2606
C9 C 0.8649(3) 0.45514(19) 0.31687(7)
H8 H 0.9773 0.4522 0.2878
H9 H 0.9230 0.4194 0.3532
C10 C 0.8025(3) 0.60755(16) 0.32659(7)
H10 H 0.7750 0.6486 0.2880
C11 C 0.4673(3) 0.17810(17) 0.33106(6)
C12 C 0.6559(3) 0.1194(2) 0.30186(7)
C13 C 0.2957(3) 0.10549(18) 0.34238(7)
H11 H 0.2892 0.0123 0.3319
H12 H 0.1808 0.1472 0.3609
C14 C 0.9912(3) 0.6832(2) 0.35303(8)
H13 H 1.1171 0.6609 0.3313
H14 H 1.0090 0.6550 0.3931
H15 H 0.9669 0.7815 0.3515
C15 C 0.5894(3) 0.51791(16) 0.52588(6)
H16 H 0.5490 0.4221 0.5229
H17 H 0.4890 0.5663 0.5501
H18 H 0.7282 0.5244 0.5430
O5 O 0.5909(2) 0.11188(14) 0.51094(6)
H19 H 0.477(3) 0.130(2) 0.5280(9)
H20 H 0.590(4) 0.0286(15) 0.5027(9)
loop_
_geom_bond_atom_site_label_1
_geom_bond_atom_site_label_2
_geom_bond_site_symmetry_1
_geom_bond_site_symmetry_2
O1 C3 1_555 1_555
O2 H1 1_555 1_555
O3 C12 1_555 1_555
O4 C8 1_555 1_555
C1 H2 1_555 1_555
C2 C1 1_555 1_555
H3 C2 1_555 1_555
H4 C2 1_555 1_555
C3 C2 1_555 1_555
C4 C3 1_555 1_555
C5 C1 1_555 1_555
C6 O2 1_555 1_555
H5 C6 1_555 1_555
C7 C6 1_555 1_555
H6 C7 1_555 1_555
C8 C7 1_555 1_555
H7 C8 1_555 1_555
C9 C8 1_555 1_555
H8 C9 1_555 1_555
H9 C9 1_555 1_555
C10 C1 1_555 1_555
H10 C10 1_555 1_555
C11 C7 1_555 1_555
C12 O4 1_555 1_555
C13 C11 1_555 1_555
H11 C13 1_555 1_555
H12 C13 1_555 1_555
C14 C10 1_555 1_555
H13 C14 1_555 1_555
H14 C14 1_555 1_555
H15 C14 1_555 1_555
C15 C4 1_555 1_555
H16 C15 1_555 1_555
H17 C15 1_555 1_555
H18 C15 1_555 1_555
O5 H19 1_555 1_555
H20 O5 1_555 1_555
C4 C5 1_555 1_555
C5 C6 1_555 1_555
C9 C10 1_555 1_555
C11 C12 1_555 1_555

#END
