
#######################################################################
#
#                 Cambridge Crystallographic Data Centre
#                                CCDC 
#
#######################################################################
#
# If this CIF has been generated from an entry in the Cambridge 
# Structural Database, then it will include bibliographic, chemical, 
# crystal, experimental, refinement or atomic coordinate data resulting 
# from the CCDC's data processing and validation procedures.
#
#######################################################################

data_LOLSAI
_chemical_compound_source        'twigs and leaves of Drypetes perreticulata'
_chemical_name_common            'Dryperrein B'
_chemical_formula_moiety         'C18 H20 O5'
_chemical_name_systematic        
'6,11,12-Trihydroxy-16,17-norabi\h-5,8,11,13-tetraene-3,7- dione'
_chemical_properties_biological  'cytotoxic activity'
_symmetry_cell_setting           orthorhombic
_symmetry_space_group_name_H-M   'P 21 21 21'
_symmetry_Int_Tables_number      19
_space_group_name_Hall           'P 2ac 2ab'
loop_
_symmetry_equiv_pos_site_id
_symmetry_equiv_pos_as_xyz
1 x,y,z
2 1/2+x,1/2-y,-z
3 -x,1/2+y,1/2-z
4 1/2-x,-y,1/2+z
_cell_length_a                   8.58820(10)
_cell_length_b                   9.36840(10)
_cell_length_c                   19.2236(3)
_cell_angle_alpha                90
_cell_angle_beta                 90
_cell_angle_gamma                90
_cell_volume                     1546.69
_exptl_crystal_colour            colorless
_exptl_crystal_description       block
_cell_formula_units_Z            4
loop_
_atom_site_label
_atom_site_type_symbol
_atom_site_fract_x
_atom_site_fract_y
_atom_site_fract_z
O1 O 0.57751(19) 0.75509(18) 0.25285(7)
O2 O 0.11874(17) 0.92710(17) 0.09398(8)
H1 H 0.0525 0.9634 0.0671
O3 O 0.14311(16) 1.06557(17) -0.02439(8)
O4 O 0.83629(16) 1.04018(17) 0.00475(7)
H2 H 0.9080 1.0762 -0.0192
O5 O 0.84058(17) 1.17773(17) -0.11253(8)
H3 H 0.8350 1.2029 -0.1544
C1 C 0.6409(2) 0.8051(2) 0.06654(10)
H4 H 0.5783 0.7431 0.0356
H5 H 0.7431 0.8211 0.0441
C2 C 0.6655(3) 0.7295(2) 0.13656(11)
H6 H 0.6605 0.6251 0.1290
H7 H 0.7711 0.7524 0.1540
C3 C 0.5482(2) 0.7700(2) 0.19129(10)
C4 C 0.3865(2) 0.8197(2) 0.16823(10)
C5 C 0.3950(2) 0.9135(2) 0.10283(9)
C6 C 0.2647(2) 0.9566(2) 0.07005(10)
C7 C 0.2680(2) 1.0344(2) 0.00359(10)
C8 C 0.4187(2) 1.0680(2) -0.02737(10)
C9 C 0.5567(2) 1.0301(2) 0.00678(9)
C10 C 0.5566(2) 0.9507(2) 0.07589(9)
C11 C 0.6959(2) 1.0714(2) -0.02485(10)
C12 C 0.6958(2) 1.1446(2) -0.08877(10)
C13 C 0.5572(2) 1.1797(2) -0.12286(10)
C14 C 0.4198(2) 1.1406(2) -0.09096(10)
H8 H 0.3236 1.1635 -0.1127
C15 C 0.5595(2) 1.2572(2) -0.19138(10)
H9 H 0.4539 1.2888 -0.2030
H10 H 0.5977 1.1929 -0.2278
H11 H 0.6283 1.3403 -0.1880
C16 C 0.3009(3) 0.6779(2) 0.15133(12)
H12 H 0.3033 0.6154 0.1922
H13 H 0.3529 0.6303 0.1123
H14 H 0.1926 0.6983 0.1388
C17 C 0.3061(3) 0.8972(2) 0.22840(10)
H15 H 0.3588 0.9882 0.2371
H16 H 0.3109 0.8379 0.2703
H17 H 0.1970 0.9152 0.2163
C18 C 0.6370(2) 1.0473(2) 0.13068(10)
H18 H 0.5921 1.1434 0.1286
H19 H 0.7488 1.0524 0.1208
H20 H 0.6209 1.0072 0.1772
loop_
_geom_bond_atom_site_label_1
_geom_bond_atom_site_label_2
_geom_bond_site_symmetry_1
_geom_bond_site_symmetry_2
O1 C3 1_555 1_555
O2 H1 1_555 1_555
O3 C7 1_555 1_555
O4 H2 1_555 1_555
O5 H3 1_555 1_555
C1 H4 1_555 1_555
H5 C1 1_555 1_555
C2 C1 1_555 1_555
H6 C2 1_555 1_555
H7 C2 1_555 1_555
C3 C2 1_555 1_555
C4 C3 1_555 1_555
C5 C4 1_555 1_555
C6 O2 1_555 1_555
C7 C6 1_555 1_555
C8 C7 1_555 1_555
C9 C8 1_555 1_555
C10 C1 1_555 1_555
C11 O4 1_555 1_555
C12 O5 1_555 1_555
C13 C12 1_555 1_555
C14 C8 1_555 1_555
H8 C14 1_555 1_555
C15 C13 1_555 1_555
H9 C15 1_555 1_555
H10 C15 1_555 1_555
H11 C15 1_555 1_555
C16 C4 1_555 1_555
H12 C16 1_555 1_555
H13 C16 1_555 1_555
H14 C16 1_555 1_555
C17 C4 1_555 1_555
H15 C17 1_555 1_555
H16 C17 1_555 1_555
H17 C17 1_555 1_555
C18 C10 1_555 1_555
H18 C18 1_555 1_555
H19 C18 1_555 1_555
H20 C18 1_555 1_555
C5 C6 1_555 1_555
C5 C10 1_555 1_555
C9 C10 1_555 1_555
C9 C11 1_555 1_555
C11 C12 1_555 1_555
C13 C14 1_555 1_555

#END
