
#######################################################################
#
#                 Cambridge Crystallographic Data Centre
#                                CCDC 
#
#######################################################################
#
# If this CIF has been generated from an entry in the Cambridge 
# Structural Database, then it will include bibliographic, chemical, 
# crystal, experimental, refinement or atomic coordinate data resulting 
# from the CCDC's data processing and validation procedures.
#
#######################################################################

data_LOLSEM
_chemical_compound_source        'seed kernels of Caesalpinia bonduc'
_chemical_name_common            'Caesall A'
_chemical_formula_moiety         'C22 H28 O5'
_chemical_name_systematic        
'4a,5-Dihydroxy-4,4,7,11b-tetramethyl-1,2,3,4,4a,5,6,11b-octahydrophenanthro[3,2-b]furan-1-yl acetate'
_chemical_properties_biological  'cytotoxic activity'
_symmetry_cell_setting           monoclinic
_symmetry_space_group_name_H-M   'P 21'
_symmetry_Int_Tables_number      4
_space_group_name_Hall           'P 2yb'
loop_
_symmetry_equiv_pos_site_id
_symmetry_equiv_pos_as_xyz
1 x,y,z
2 -x,1/2+y,-z
_cell_length_a                   8.2412(2)
_cell_length_b                   7.86130(10)
_cell_length_c                   15.8285(3)
_cell_angle_alpha                90
_cell_angle_beta                 104.899(2)
_cell_angle_gamma                90
_cell_volume                     990.998
_chemical_melting_point          '200-203 deg.C'
_cell_formula_units_Z            2
loop_
_atom_site_label
_atom_site_type_symbol
_atom_site_fract_x
_atom_site_fract_y
_atom_site_fract_z
O1 O 0.03482(13) 0.16468(18) 0.24933(7)
H1 H 0.1028 0.1908 0.2218
O2 O 0.36249(13) 0.19343(16) 0.22582(7)
O3 O -0.15309(15) 0.0273(2) 0.36167(9)
H2 H -0.2089 0.0740 0.3174
O4 O 0.30611(17) -0.2663(2) 0.02102(8)
C1 C 0.2025(2) -0.1294(2) 0.22284(10)
C2 C 0.26881(19) -0.0304(2) 0.30834(10)
C3 C 0.3422(2) -0.1673(3) 0.37816(12)
H3 H 0.2588 -0.2529 0.3776
H4 H 0.3745 -0.1151 0.4349
H5 H 0.4387 -0.2188 0.3652
C4 C 0.12000(19) 0.0768(2) 0.32820(10)
C5 C 0.0416(2) -0.2038(2) 0.20572(11)
O5 O 0.62183(16) 0.1939(3) 0.20682(11)
C6 C 0.41673(19) 0.0858(2) 0.30387(10)
H6 H 0.5117 0.0155 0.2985
C7 C 0.2322(2) -0.2426(3) 0.08928(11)
C8 C 0.3017(2) -0.1531(2) 0.16448(11)
H7 H 0.4104 -0.1101 0.1759
C9 C -0.0101(2) -0.0517(3) 0.34346(11)
H8 H 0.0444 -0.1209 0.3944
C10 C -0.0231(2) -0.3010(3) 0.13056(12)
C11 C 0.4071(3) 0.3496(4) 0.10794(16)
H9 H 0.2968 0.3101 0.0785
H10 H 0.4781 0.3458 0.0685
H11 H 0.4002 0.4644 0.1273
C12 C 0.4732(2) 0.2028(3) 0.38175(12)
H12 H 0.5647 0.2739 0.3742
H13 H 0.5138 0.1358 0.4344
C13 C 0.0373(3) 0.3483(4) 0.39866(18)
H14 H -0.0024 0.3883 0.3396
H15 H 0.0824 0.4420 0.4363
H16 H -0.0542 0.2984 0.4172
C14 C 0.1753(2) 0.2139(3) 0.40325(12)
C15 C 0.0497(3) -0.3877(3) -0.01643(13)
H17 H -0.0443 -0.4462 -0.0482
C16 C -0.0707(2) -0.1722(3) 0.26581(13)
H18 H -0.0940 -0.2814 0.2887
H19 H -0.1766 -0.1285 0.2305
C17 C 0.4781(2) 0.2390(3) 0.18442(12)
C18 C 0.0738(2) -0.3161(3) 0.07012(12)
C19 C 0.3285(2) 0.3139(3) 0.39097(13)
H20 H 0.2932 0.3845 0.3392
H21 H 0.3678 0.3888 0.4407
C20 C 0.2163(3) 0.1390(4) 0.49612(12)
H22 H 0.1228 0.0728 0.5032
H23 H 0.2378 0.2298 0.5381
H24 H 0.3138 0.0678 0.5050
C21 C -0.1932(3) -0.3841(4) 0.11275(16)
H25 H -0.2131 -0.4485 0.0595
H26 H -0.2781 -0.2982 0.1071
H27 H -0.1969 -0.4587 0.1603
C22 C 0.1878(3) -0.3537(3) -0.04176(13)
H28 H 0.2032 -0.3852 -0.0958
loop_
_geom_bond_atom_site_label_1
_geom_bond_atom_site_label_2
_geom_bond_site_symmetry_1
_geom_bond_site_symmetry_2
O1 H1 1_555 1_555
O2 C6 1_555 1_555
O3 H2 1_555 1_555
O4 C7 1_555 1_555
C1 C2 1_555 1_555
C2 C3 1_555 1_555
C3 H3 1_555 1_555
H4 C3 1_555 1_555
H5 C3 1_555 1_555
C4 O1 1_555 1_555
C5 C1 1_555 1_555
O5 C17 1_555 1_555
C6 C2 1_555 1_555
H6 C6 1_555 1_555
C7 C8 1_555 1_555
C8 C1 1_555 1_555
H7 C8 1_555 1_555
C9 O3 1_555 1_555
H8 C9 1_555 1_555
C10 C5 1_555 1_555
C11 H9 1_555 1_555
H10 C11 1_555 1_555
H11 C11 1_555 1_555
C12 C6 1_555 1_555
H12 C12 1_555 1_555
H13 C12 1_555 1_555
C13 H14 1_555 1_555
H15 C13 1_555 1_555
H16 C13 1_555 1_555
C14 C4 1_555 1_555
C15 H17 1_555 1_555
C16 C5 1_555 1_555
H18 C16 1_555 1_555
H19 C16 1_555 1_555
C17 O2 1_555 1_555
C18 C7 1_555 1_555
C19 C12 1_555 1_555
H20 C19 1_555 1_555
H21 C19 1_555 1_555
C20 C14 1_555 1_555
H22 C20 1_555 1_555
H23 C20 1_555 1_555
H24 C20 1_555 1_555
C21 C10 1_555 1_555
H25 C21 1_555 1_555
H26 C21 1_555 1_555
H27 C21 1_555 1_555
C22 O4 1_555 1_555
H28 C22 1_555 1_555
C2 C4 1_555 1_555
C4 C9 1_555 1_555
C9 C16 1_555 1_555
C10 C18 1_555 1_555
C11 C17 1_555 1_555
C13 C14 1_555 1_555
C14 C19 1_555 1_555
C15 C18 1_555 1_555
C15 C22 1_555 1_555

#END
