
#######################################################################
#
#                 Cambridge Crystallographic Data Centre
#                                CCDC 
#
#######################################################################
#
# If this CIF has been generated from an entry in the Cambridge 
# Structural Database, then it will include bibliographic, chemical, 
# crystal, experimental, refinement or atomic coordinate data resulting 
# from the CCDC's data processing and validation procedures.
#
#######################################################################

data_LOLSOW
_chemical_compound_source        'Aerial parts of Isodon sculponeatus'
_chemical_name_common            'Sculponin U'
_chemical_formula_moiety         'C20 H28 O5'
_chemical_name_systematic        6,7,15-Trihydroxy-7,20-epoxykaur-16-en-20-one
_symmetry_cell_setting           orthorhombic
_symmetry_space_group_name_H-M   'P 21 21 21'
_symmetry_Int_Tables_number      19
_space_group_name_Hall           'P 2ac 2ab'
loop_
_symmetry_equiv_pos_site_id
_symmetry_equiv_pos_as_xyz
1 x,y,z
2 1/2+x,1/2-y,-z
3 -x,1/2+y,1/2-z
4 1/2-x,-y,1/2+z
_cell_length_a                   6.59370(10)
_cell_length_b                   9.90360(10)
_cell_length_c                   26.0159(3)
_cell_angle_alpha                90
_cell_angle_beta                 90
_cell_angle_gamma                90
_cell_volume                     1698.87
_exptl_crystal_colour            colorless
_exptl_crystal_description       prism
_cell_formula_units_Z            4
loop_
_atom_site_label
_atom_site_type_symbol
_atom_site_fract_x
_atom_site_fract_y
_atom_site_fract_z
O1 O -0.0427(3) 0.8994(2) 0.06402(7)
H1 H -0.1260 0.8726 0.0418
O2 O -0.1377(3) 0.7338(2) 0.12027(7)
O3 O -0.2079(3) 0.5993(2) 0.18611(8)
O4 O 0.2576(3) 0.7119(2) 0.02070(7)
H2 H 0.3554 0.7437 0.0375
O5 O 0.5118(3) 0.8494(2) 0.07762(8)
H3 H 0.6148 0.8387 0.0962
C1 C 0.6080(5) 1.0816(4) 0.14677(12)
H4 H 0.6817 1.0872 0.1155
H5 H 0.6518 1.1312 0.1760
C2 C 0.4449(4) 1.0048(3) 0.14968(11)
C3 C 0.3625(4) 0.9216(3) 0.10539(10)
H6 H 0.2966 0.9857 0.0808
C4 C 0.1910(4) 0.8347(3) 0.12986(10)
C5 C 0.2700(4) 0.7059(3) 0.15832(10)
H7 H 0.4075 0.6843 0.1444
C6 C 0.1271(4) 0.5840(3) 0.14593(10)
C7 C 0.1554(4) 0.5480(3) 0.08831(11)
H8 H 0.3041 0.5330 0.0834
C8 C 0.0495(5) 0.4170(3) 0.06964(11)
C9 C -0.1843(5) 0.4249(3) 0.06906(12)
H9 H -0.2274 0.4998 0.0470
H10 H -0.2342 0.4400 0.1041
H11 H -0.2399 0.3401 0.0558
C10 C 0.1235(5) 0.3844(3) 0.01515(12)
H12 H 0.2713 0.3740 0.0154
H13 H 0.0860 0.4582 -0.0081
H14 H 0.0606 0.3003 0.0034
C11 C 0.0333(4) 0.7904(3) 0.09031(10)
C12 C -0.0872(4) 0.6349(3) 0.15448(11)
C13 C 0.1003(4) 0.6731(3) 0.05511(10)
H15 H -0.0197 0.6476 0.0337
C14 C 0.3060(4) 0.9828(3) 0.19551(11)
H16 H 0.2869 1.0677 0.2157
C15 C 0.1098(4) 0.9386(3) 0.16934(11)
H17 H 0.0415 1.0152 0.1521
H18 H 0.0150 0.8962 0.1941
C16 C 0.3879(5) 0.8653(3) 0.22984(11)
H19 H 0.5368 0.8586 0.2256
H20 H 0.3598 0.8862 0.2664
C17 C 0.2912(4) 0.7296(3) 0.21621(11)
H21 H 0.1552 0.7247 0.2322
H22 H 0.3747 0.6562 0.2311
C18 C 0.1767(4) 0.4612(3) 0.17989(11)
H23 H 0.3252 0.4466 0.1798
H24 H 0.1352 0.4811 0.2157
C19 C 0.0721(5) 0.3322(4) 0.16229(13)
H25 H -0.0761 0.3413 0.1672
H26 H 0.1194 0.2556 0.1836
C20 C 0.1163(5) 0.3022(4) 0.10572(12)
H27 H 0.0453 0.2181 0.0957
H28 H 0.2637 0.2868 0.1014
loop_
_geom_bond_atom_site_label_1
_geom_bond_atom_site_label_2
_geom_bond_site_symmetry_1
_geom_bond_site_symmetry_2
O1 H1 1_555 1_555
O2 C11 1_555 1_555
O3 C12 1_555 1_555
O4 H2 1_555 1_555
O5 H3 1_555 1_555
C1 H4 1_555 1_555
H5 C1 1_555 1_555
C2 C1 1_555 1_555
C3 O5 1_555 1_555
H6 C3 1_555 1_555
C4 C3 1_555 1_555
C5 C4 1_555 1_555
H7 C5 1_555 1_555
C6 C5 1_555 1_555
C7 C6 1_555 1_555
H8 C7 1_555 1_555
C8 C7 1_555 1_555
C9 C8 1_555 1_555
H9 C9 1_555 1_555
H10 C9 1_555 1_555
H11 C9 1_555 1_555
C10 C8 1_555 1_555
H12 C10 1_555 1_555
H13 C10 1_555 1_555
H14 C10 1_555 1_555
C11 O1 1_555 1_555
C12 O2 1_555 1_555
C13 O4 1_555 1_555
H15 C13 1_555 1_555
C14 C2 1_555 1_555
H16 C14 1_555 1_555
C15 C4 1_555 1_555
H17 C15 1_555 1_555
H18 C15 1_555 1_555
C16 C14 1_555 1_555
H19 C16 1_555 1_555
H20 C16 1_555 1_555
C17 C5 1_555 1_555
H21 C17 1_555 1_555
H22 C17 1_555 1_555
C18 C6 1_555 1_555
H23 C18 1_555 1_555
H24 C18 1_555 1_555
C19 C18 1_555 1_555
H25 C19 1_555 1_555
H26 C19 1_555 1_555
C20 C8 1_555 1_555
H27 C20 1_555 1_555
H28 C20 1_555 1_555
C2 C3 1_555 1_555
C4 C11 1_555 1_555
C6 C12 1_555 1_555
C7 C13 1_555 1_555
C11 C13 1_555 1_555
C14 C15 1_555 1_555
C16 C17 1_555 1_555
C19 C20 1_555 1_555

#END
