
#######################################################################
#
#                 Cambridge Crystallographic Data Centre
#                                CCDC 
#
#######################################################################
#
# If this CIF has been generated from an entry in the Cambridge 
# Structural Database, then it will include bibliographic, chemical, 
# crystal, experimental, refinement or atomic coordinate data resulting 
# from the CCDC's data processing and validation procedures.
#
#######################################################################

data_LOLWOA
_chemical_compound_source        'Coptis chinensis'
_chemical_name_common            
5-Hydroxy-9,10-dimethoxy-5,6-dihydro-8H-[1,3]dioxolo[4,5-g]isoquinolino[3,2-a]isoquinolin-8-one
_chemical_formula_moiety         'C20 H17 N1 O6'
_chemical_name_systematic        5-Hydroxyl-8-oxyberberine
_symmetry_cell_setting           monoclinic
_symmetry_space_group_name_H-M   'P 21/n'
_symmetry_Int_Tables_number      14
_space_group_name_Hall           '-P 2yn'
loop_
_symmetry_equiv_pos_site_id
_symmetry_equiv_pos_as_xyz
1 x,y,z
2 1/2-x,1/2+y,1/2-z
3 -x,-y,-z
4 1/2+x,1/2-y,1/2+z
_cell_length_a                   7.7032(3)
_cell_length_b                   10.6089(4)
_cell_length_c                   19.4070(7)
_cell_angle_alpha                90
_cell_angle_beta                 92.084(3)
_cell_angle_gamma                90
_cell_volume                     1584.94
_exptl_crystal_colour            colorless
_exptl_crystal_description       block
_cell_formula_units_Z            4
loop_
_atom_site_label
_atom_site_type_symbol
_atom_site_fract_x
_atom_site_fract_y
_atom_site_fract_z
O1 O 0.6385(4) 1.0686(2) -0.21327(12)
O2 O 0.6185(3) 1.0657(2) -0.09419(12)
O3 O 0.4341(5) 0.6365(3) -0.30526(16)
H1 H 0.3754 0.6847 -0.3296
O4 O 0.3012(3) 0.3148(2) -0.14199(11)
O5 O 0.0816(3) 0.2122(2) -0.04998(11)
O6 O 0.0342(3) 0.1974(2) 0.08482(11)
C1 C 0.4902(4) 0.8536(3) -0.08786(16)
H2 H 0.4832 0.8537 -0.0401
C2 C 0.5529(4) 0.9552(3) -0.12202(16)
C3 C 0.5642(4) 0.9574(3) -0.19271(17)
C4 C 0.5108(5) 0.8589(3) -0.23289(17)
H3 H 0.5168 0.8617 -0.2806
C5 C 0.4458(4) 0.7522(3) -0.19913(16)
C6 C 0.3790(5) 0.6406(3) -0.24029(17)
C7 C 0.4214(5) 0.5208(3) -0.20167(16)
H4 H 0.3723 0.4494 -0.2268
H5 H 0.5464 0.5097 -0.1980
N1 N 0.3507(3) 0.5250(2) -0.13188(12)
C8 C 0.2911(4) 0.4119(3) -0.10610(15)
C9 C 0.2258(4) 0.4134(3) -0.03628(15)
C10 C 0.1439(4) 0.3078(3) -0.00820(15)
C11 C 0.1091(4) 0.3053(3) 0.06168(15)
C12 C 0.1459(4) 0.4106(3) 0.10285(16)
H6 H 0.1248 0.4082 0.1497
C13 C 0.2545(4) 0.5223(3) 0.00458(15)
C14 C 0.2132(4) 0.5178(3) 0.07429(15)
H7 H 0.2317 0.5887 0.1018
C15 C 0.3676(4) 0.6357(3) -0.09284(15)
C16 C 0.4364(4) 0.7486(3) -0.12750(15)
C17 C 0.3228(4) 0.6330(3) -0.02605(15)
H8 H 0.3369 0.7054 0.0006
C18 C 0.6620(5) 1.1424(3) -0.15140(17)
H9 H 0.7817 1.1703 -0.1462
H10 H 0.5877 1.2162 -0.1538
C19 C 0.1722(5) 0.0942(3) -0.04351(19)
H11 H 0.1199 0.0340 -0.0748
H12 H 0.1655 0.0637 0.0029
H13 H 0.2918 0.1061 -0.0543
C20 C 0.0182(5) 0.1848(3) 0.15758(17)
H14 H -0.0357 0.1056 0.1675
H15 H -0.0517 0.2524 0.1743
H16 H 0.1314 0.1880 0.1799
O7? O 0.2280(7) 0.6345(5) -0.2602(3)
H17? H 0.2115 0.6821 -0.2930
loop_
_geom_bond_atom_site_label_1
_geom_bond_atom_site_label_2
_geom_bond_site_symmetry_1
_geom_bond_site_symmetry_2
O1 C3 1_555 1_555
O2 C2 1_555 1_555
O3 H1 1_555 1_555
O4 C8 1_555 1_555
O5 C10 1_555 1_555
O6 C11 1_555 1_555
C1 H2 1_555 1_555
C2 C1 1_555 1_555
C3 C2 1_555 1_555
C4 C3 1_555 1_555
H3 C4 1_555 1_555
C5 C4 1_555 1_555
C6 O3 1_555 1_555
C7 C6 1_555 1_555
H4 C7 1_555 1_555
H5 C7 1_555 1_555
N1 C7 1_555 1_555
C8 N1 1_555 1_555
C9 C8 1_555 1_555
C10 C9 1_555 1_555
C11 C10 1_555 1_555
C12 C11 1_555 1_555
H6 C12 1_555 1_555
C13 C9 1_555 1_555
C14 C12 1_555 1_555
H7 C14 1_555 1_555
C15 N1 1_555 1_555
C16 C1 1_555 1_555
C17 C13 1_555 1_555
H8 C17 1_555 1_555
C18 O1 1_555 1_555
H9 C18 1_555 1_555
H10 C18 1_555 1_555
C19 O5 1_555 1_555
H11 C19 1_555 1_555
H12 C19 1_555 1_555
H13 C19 1_555 1_555
C20 O6 1_555 1_555
H14 C20 1_555 1_555
H15 C20 1_555 1_555
H16 C20 1_555 1_555
O2 C18 1_555 1_555
C5 C6 1_555 1_555
C5 C16 1_555 1_555
C13 C14 1_555 1_555
C15 C16 1_555 1_555
C15 C17 1_555 1_555

#END
