
#######################################################################
#
#                 Cambridge Crystallographic Data Centre
#                                CCDC 
#
#######################################################################
#
# If this CIF has been generated from an entry in the Cambridge 
# Structural Database, then it will include bibliographic, chemical, 
# crystal, experimental, refinement or atomic coordinate data resulting 
# from the CCDC's data processing and validation procedures.
#
#######################################################################

data_LOLYOC
_chemical_formula_moiety         'C14 H14 N3 O2 1+,2(H2 O1),Cl1 1-'
_chemical_name_systematic        
'2-(1-[2-(2-carboxyphenyl)hydrazinylidene]ethyl)pyridinium chloride dihydrate'
_symmetry_cell_setting           monoclinic
_symmetry_space_group_name_H-M   'P 21/c'
_symmetry_Int_Tables_number      14
_space_group_name_Hall           '-P 2ybc'
loop_
_symmetry_equiv_pos_site_id
_symmetry_equiv_pos_as_xyz
1 x,y,z
2 -x,1/2+y,1/2-z
3 -x,-y,-z
4 x,1/2-y,1/2+z
_cell_length_a                   6.7927(6)
_cell_length_b                   12.0031(8)
_cell_length_c                   19.248(2)
_cell_angle_alpha                90
_cell_angle_beta                 98.811(8)
_cell_angle_gamma                90
_cell_volume                     1550.84
_exptl_crystal_colour            yellow
_exptl_crystal_description       plate
_cell_formula_units_Z            4
loop_
_atom_site_label
_atom_site_type_symbol
_atom_site_fract_x
_atom_site_fract_y
_atom_site_fract_z
O1 O 0.7100(3) 0.17701(15) 0.06112(9)
O2 O 0.7484(3) 0.11964(17) 0.17260(10)
H1 H 0.703(5) 0.057(3) 0.1557(17)
N1 N 0.7550(4) 0.39260(19) 0.03561(11)
H2 H 0.728(4) 0.325(2) 0.0170(13)
N2 N 0.7491(3) 0.48539(18) -0.00440(10)
N3 N 0.7397(4) 0.67639(17) -0.07045(12)
H3 H 0.779(5) 0.670(3) -0.0223(19)
C1 C 0.8009(4) 0.4030(2) 0.10867(12)
C2 C 0.8013(4) 0.3090(2) 0.15252(13)
C3 C 0.8467(4) 0.3249(2) 0.22551(13)
H4 H 0.8459 0.2623 0.2557
C4 C 0.8921(4) 0.4278(2) 0.25484(13)
H5 H 0.9235 0.4364 0.3044
C5 C 0.8912(4) 0.5190(2) 0.21036(13)
H6 H 0.9225 0.5907 0.2299
C6 C 0.8460(4) 0.5076(2) 0.13860(13)
H7 H 0.8454 0.5712 0.1093
C7 C 0.7005(4) 0.4762(2) -0.07175(13)
C8 C 0.6994(4) 0.5828(2) -0.10939(13)
C9 C 0.6619(4) 0.5959(2) -0.18187(13)
H8 H 0.6350 0.5325 -0.2113
C10 C 0.6635(4) 0.7015(2) -0.21149(14)
H9 H 0.6380 0.7101 -0.2611
C11 C 0.7019(4) 0.7937(2) -0.16893(14)
H10 H 0.7012 0.8662 -0.1888
C12 C 0.7412(4) 0.7793(2) -0.09760(14)
H11 H 0.7694 0.8419 -0.0675
C13 C 0.7501(4) 0.1966(2) 0.12425(13)
C14 C 0.6468(5) 0.3689(2) -0.10980(13)
H12 H 0.5342 0.3345 -0.0916
H13 H 0.7614 0.3184 -0.1025
H14 H 0.6097 0.3838 -0.1602
Cl1 Cl 0.12633(12) 0.28235(6) 0.42244(4)
O3 O 0.4207(4) 0.43631(17) 0.36328(12)
H15 H 0.341(6) 0.394(3) 0.3846(19)
H16 H 0.540(7) 0.432(4) 0.389(2)
O4 O 0.7835(4) 0.45649(19) 0.44426(13)
H17 H 0.766(6) 0.437(3) 0.489(2)
H18 H 0.865(7) 0.417(3) 0.434(2)
loop_
_geom_bond_atom_site_label_1
_geom_bond_atom_site_label_2
_geom_bond_site_symmetry_1
_geom_bond_site_symmetry_2
O1 C13 1_555 1_555
O2 H1 1_555 1_555
N1 H2 1_555 1_555
N2 N1 1_555 1_555
N3 H3 1_555 1_555
C1 N1 1_555 1_555
C2 C1 1_555 1_555
C3 C2 1_555 1_555
H4 C3 1_555 1_555
C4 C3 1_555 1_555
H5 C4 1_555 1_555
C5 C4 1_555 1_555
H6 C5 1_555 1_555
C6 C1 1_555 1_555
H7 C6 1_555 1_555
C7 N2 1_555 1_555
C8 N3 1_555 1_555
C9 C8 1_555 1_555
H8 C9 1_555 1_555
C10 C9 1_555 1_555
H9 C10 1_555 1_555
C11 C10 1_555 1_555
H10 C11 1_555 1_555
C12 N3 1_555 1_555
H11 C12 1_555 1_555
C13 O2 1_555 1_555
C14 C7 1_555 1_555
H12 C14 1_555 1_555
H13 C14 1_555 1_555
H14 C14 1_555 1_555
O3 H15 1_555 1_555
H16 O3 1_555 1_555
O4 H17 1_555 1_555
H18 O4 1_555 1_555
C2 C13 1_555 1_555
C5 C6 1_555 1_555
C7 C8 1_555 1_555
C11 C12 1_555 1_555

#END
