
#######################################################################
#
#                 Cambridge Crystallographic Data Centre
#                                CCDC 
#
#######################################################################
#
# If this CIF has been generated from an entry in the Cambridge 
# Structural Database, then it will include bibliographic, chemical, 
# crystal, experimental, refinement or atomic coordinate data resulting 
# from the CCDC's data processing and validation procedures.
#
#######################################################################

data_LOLYIW
_chemical_formula_moiety         'C13 H12 N3 O2 1+,3(H2 O1),Cl1 1-'
_chemical_name_systematic        
'2-([2-(2-carboxyphenyl)hydrazinylidene]methyl)pyridinium chloride trihydrate'
_symmetry_cell_setting           triclinic
_symmetry_space_group_name_H-M   'P -1'
_symmetry_Int_Tables_number      2
_space_group_name_Hall           '-P 1'
loop_
_symmetry_equiv_pos_site_id
_symmetry_equiv_pos_as_xyz
1 x,y,z
2 -x,-y,-z
_cell_length_a                   7.1490(9)
_cell_length_b                   10.8806(13)
_cell_length_c                   11.1968(13)
_cell_angle_alpha                68.464(13)
_cell_angle_beta                 75.374(14)
_cell_angle_gamma                81.563(14)
_cell_volume                     782.478
_exptl_crystal_colour            orange
_exptl_crystal_description       block
_cell_formula_units_Z            2
loop_
_atom_site_label
_atom_site_type_symbol
_atom_site_fract_x
_atom_site_fract_y
_atom_site_fract_z
O1 O 0.12384(17) -0.31664(10) 0.61610(11)
O2 O -0.05141(16) -0.40960(11) 0.81662(11)
H1 H -0.018(4) -0.479(3) 0.791(3)
N1 N 0.21009(17) -0.06958(13) 0.54136(12)
H2 H 0.221(3) -0.143(2) 0.523(2)
N2 N 0.29431(16) 0.03998(11) 0.45528(12)
N3 N 0.47301(18) 0.25921(12) 0.28290(14)
H3 H 0.427(3) 0.263(2) 0.356(2)
C1 C 0.09920(19) -0.07023(13) 0.66259(14)
C2 C 0.01385(19) -0.18748(13) 0.75411(14)
C3 C -0.0922(2) -0.18629(14) 0.87711(15)
H4 H -0.1473 -0.2652 0.9399
C4 C -0.1187(2) -0.07392(15) 0.90936(16)
H5 H -0.1914 -0.0748 0.9933
C5 C -0.0376(2) 0.04087(15) 0.81743(17)
H6 H -0.0572 0.1194 0.8386
C6 C 0.0706(2) 0.04333(14) 0.69622(16)
H7 H 0.1260 0.1228 0.6352
C7 C 0.3908(2) 0.03535(15) 0.34316(14)
H8 H 0.4021 -0.0435 0.3233
C8 C 0.4815(2) 0.15306(15) 0.24814(15)
C9 C 0.5749(2) 0.16131(18) 0.12091(16)
H9 H 0.5816 0.0879 0.0931
C10 C 0.6579(2) 0.27685(19) 0.03536(16)
H10 H 0.7217 0.2832 -0.0519
C11 C 0.6486(2) 0.38286(18) 0.07583(17)
H11 H 0.7078 0.4621 0.0175
C12 C 0.5532(2) 0.37304(15) 0.20093(16)
H12 H 0.5435 0.4461 0.2299
C13 C 0.0340(2) -0.30865(14) 0.72199(14)
O3 O 0.19020(19) 0.58687(12) 0.41048(14)
H13 H 0.157(3) 0.610(2) 0.481(2)
H14 H 0.291(4) 0.629(3) 0.360(3)
O4 O 0.0175(2) 0.37390(11) 0.77408(13)
H15 H -0.021(3) 0.380(2) 0.708(2)
H16 H 0.129(4) 0.343(2) 0.771(2)
O5 O 0.3216(2) 0.32314(14) 0.50023(14)
H17 H 0.371(4) 0.306(3) 0.569(3)
H18 H 0.294(4) 0.410(3) 0.471(3)
Cl1 Cl 0.55219(6) 0.73612(5) 0.23125(4)
loop_
_geom_bond_atom_site_label_1
_geom_bond_atom_site_label_2
_geom_bond_site_symmetry_1
_geom_bond_site_symmetry_2
O1 C13 1_555 1_555
O2 H1 1_555 1_555
N1 H2 1_555 1_555
N2 N1 1_555 1_555
N3 H3 1_555 1_555
C1 N1 1_555 1_555
C2 C1 1_555 1_555
C3 C2 1_555 1_555
H4 C3 1_555 1_555
C4 C3 1_555 1_555
H5 C4 1_555 1_555
C5 C4 1_555 1_555
H6 C5 1_555 1_555
C6 C1 1_555 1_555
H7 C6 1_555 1_555
C7 N2 1_555 1_555
H8 C7 1_555 1_555
C8 N3 1_555 1_555
C9 C8 1_555 1_555
H9 C9 1_555 1_555
C10 C9 1_555 1_555
H10 C10 1_555 1_555
C11 C10 1_555 1_555
H11 C11 1_555 1_555
C12 N3 1_555 1_555
H12 C12 1_555 1_555
C13 O2 1_555 1_555
O3 H13 1_555 1_555
H14 O3 1_555 1_555
O4 H15 1_555 1_555
H16 O4 1_555 1_555
O5 H17 1_555 1_555
H18 O5 1_555 1_555
C2 C13 1_555 1_555
C5 C6 1_555 1_555
C7 C8 1_555 1_555
C11 C12 1_555 1_555

#END
