
#######################################################################
#
#                 Cambridge Crystallographic Data Centre
#                                CCDC 
#
#######################################################################
#
# If this CIF has been generated from an entry in the Cambridge 
# Structural Database, then it will include bibliographic, chemical, 
# crystal, experimental, refinement or atomic coordinate data resulting 
# from the CCDC's data processing and validation procedures.
#
#######################################################################

data_LOMGIE
_chemical_formula_moiety         'C25 H22 F2 N2 O2'
_chemical_name_systematic        
'Ethyl 1,3-bis(4-fluorophenyl)-6-phenyl-1,2,3,4-tetrahydro-5-pyrimidinecarboxylate'
_symmetry_cell_setting           triclinic
_symmetry_space_group_name_H-M   'P -1'
_symmetry_Int_Tables_number      2
_space_group_name_Hall           '-P 1'
loop_
_symmetry_equiv_pos_site_id
_symmetry_equiv_pos_as_xyz
1 x,y,z
2 -x,-y,-z
_cell_length_a                   8.1186(5)
_cell_length_b                   11.8032(7)
_cell_length_c                   11.9433(7)
_cell_angle_alpha                100.653(4)
_cell_angle_beta                 93.494(3)
_cell_angle_gamma                110.033(3)
_cell_volume                     1047.08
_exptl_crystal_colour            colorless
_exptl_crystal_description       block
_cell_formula_units_Z            2
loop_
_atom_site_label
_atom_site_type_symbol
_atom_site_fract_x
_atom_site_fract_y
_atom_site_fract_z
F1 F 0.7267(2) 0.70432(12) 0.52355(11)
F2 F 0.14685(17) 0.45222(13) 0.01500(13)
O1 O 0.7417(2) 0.03500(15) 0.42958(13)
O2 O 0.53626(17) -0.08754(11) 0.28289(10)
N1 N 0.87617(17) 0.32570(13) 0.25302(12)
N2 N 0.59007(16) 0.21655(12) 0.13796(11)
C1 C 0.7618(3) 0.61004(18) 0.45738(16)
C2 C 0.8335(3) 0.62751(18) 0.35941(18)
H1 H 0.8582 0.7026 0.3375
C3 C 0.8693(2) 0.53186(17) 0.29262(16)
H2 H 0.9191 0.5432 0.2256
C4 C 0.83197(19) 0.41919(15) 0.32430(14)
C5 C 0.7592(2) 0.40595(17) 0.42502(15)
H3 H 0.7333 0.3314 0.4481
C6 C 0.7244(3) 0.50201(19) 0.49199(16)
H4 H 0.6760 0.4925 0.5598
C7 C 0.2552(2) 0.39336(17) 0.04590(18)
C8 C 0.3470(3) 0.35280(18) -0.03439(17)
H5 H 0.3376 0.3660 -0.1085
C9 C 0.4540(2) 0.29169(16) -0.00293(14)
H6 H 0.5151 0.2614 -0.0569
C10 C 0.47109(19) 0.27521(14) 0.10816(13)
C11 C 0.3780(2) 0.31909(15) 0.18767(14)
H7 H 0.3902 0.3094 0.2629
C12 C 0.2668(2) 0.37735(17) 0.15566(17)
H8 H 0.2014 0.4050 0.2081
C13 C 0.7801(2) 0.28317(17) 0.13745(15)
H9 H 0.8287 0.2289 0.0911
H10 H 0.7951 0.3536 0.1028
C14 C 0.8670(2) 0.21726(16) 0.29820(17)
H11 H 0.9050 0.2426 0.3804
H12 H 0.9477 0.1814 0.2632
C15 C 0.6825(2) 0.12040(15) 0.27532(14)
C16 C 0.5499(2) 0.13084(14) 0.20741(13)
C17 C 0.3592(2) 0.05628(14) 0.20276(13)
C18 C 0.2529(2) -0.00533(15) 0.09900(14)
H13 H 0.3011 -0.0023 0.0304
C19 C 0.0749(2) -0.07140(17) 0.09731(16)
H14 H 0.0040 -0.1140 0.0276
C20 C 0.0021(2) -0.07430(17) 0.19881(17)
H15 H -0.1179 -0.1178 0.1972
C21 C 0.1063(2) -0.01328(17) 0.30183(16)
H16 H 0.0574 -0.0156 0.3702
C22 C 0.2839(2) 0.05151(15) 0.30362(14)
H17 H 0.3543 0.0927 0.3737
C23 C 0.6574(2) 0.02125(17) 0.33809(15)
C24 C 0.4778(3) -0.1815(2) 0.3494(2)
H18 H 0.5703 -0.2138 0.3630
H19 H 0.4524 -0.1458 0.4232
C25 C 0.3209(4) -0.2797(2) 0.2871(2)
H20 H 0.2384 -0.2453 0.2608
H21 H 0.2680 -0.3334 0.3368
H22 H 0.3519 -0.3260 0.2223
loop_
_geom_bond_atom_site_label_1
_geom_bond_atom_site_label_2
_geom_bond_site_symmetry_1
_geom_bond_site_symmetry_2
F1 C1 1_555 1_555
F2 C7 1_555 1_555
O1 C23 1_555 1_555
O2 C23 1_555 1_555
N1 C4 1_555 1_555
N2 C10 1_555 1_555
C1 C2 1_555 1_555
C2 H1 1_555 1_555
C3 C2 1_555 1_555
H2 C3 1_555 1_555
C4 C3 1_555 1_555
C5 C4 1_555 1_555
H3 C5 1_555 1_555
C6 C1 1_555 1_555
H4 C6 1_555 1_555
C7 C8 1_555 1_555
C8 H5 1_555 1_555
C9 C8 1_555 1_555
H6 C9 1_555 1_555
C10 C9 1_555 1_555
C11 C10 1_555 1_555
H7 C11 1_555 1_555
C12 C7 1_555 1_555
H8 C12 1_555 1_555
C13 N1 1_555 1_555
H9 C13 1_555 1_555
H10 C13 1_555 1_555
C14 N1 1_555 1_555
H11 C14 1_555 1_555
H12 C14 1_555 1_555
C15 C14 1_555 1_555
C16 N2 1_555 1_555
C17 C16 1_555 1_555
C18 C17 1_555 1_555
H13 C18 1_555 1_555
C19 C18 1_555 1_555
H14 C19 1_555 1_555
C20 C19 1_555 1_555
H15 C20 1_555 1_555
C21 C20 1_555 1_555
H16 C21 1_555 1_555
C22 C17 1_555 1_555
H17 C22 1_555 1_555
C23 C15 1_555 1_555
C24 O2 1_555 1_555
H18 C24 1_555 1_555
H19 C24 1_555 1_555
C25 C24 1_555 1_555
H20 C25 1_555 1_555
H21 C25 1_555 1_555
H22 C25 1_555 1_555
N2 C13 1_555 1_555
C5 C6 1_555 1_555
C11 C12 1_555 1_555
C15 C16 1_555 1_555
C21 C22 1_555 1_555

#END
