
#######################################################################
#
#                 Cambridge Crystallographic Data Centre
#                                CCDC 
#
#######################################################################
#
# If this CIF has been generated from an entry in the Cambridge 
# Structural Database, then it will include bibliographic, chemical, 
# crystal, experimental, refinement or atomic coordinate data resulting 
# from the CCDC's data processing and validation procedures.
#
#######################################################################

data_LOMGAW
_chemical_formula_moiety         'C18 H19 N1 O2'
_chemical_name_systematic        'Ethyl 3-(benzylamino)-3-phenylacrylate'
_symmetry_cell_setting           triclinic
_symmetry_space_group_name_H-M   'P -1'
_symmetry_Int_Tables_number      2
_space_group_name_Hall           '-P 1'
loop_
_symmetry_equiv_pos_site_id
_symmetry_equiv_pos_as_xyz
1 x,y,z
2 -x,-y,-z
_cell_length_a                   9.5725(3)
_cell_length_b                   9.6407(3)
_cell_length_c                   10.0921(5)
_cell_angle_alpha                109.912(3)
_cell_angle_beta                 105.925(3)
_cell_angle_gamma                102.679(2)
_cell_volume                     790.022
_cell_formula_units_Z            2
loop_
_atom_site_label
_atom_site_type_symbol
_atom_site_fract_x
_atom_site_fract_y
_atom_site_fract_z
C1 C -0.1141(2) 0.4593(2) 0.11654(19)
H1 H -0.0175 0.5354 0.1515
C2 C -0.2403(3) 0.5038(2) 0.1273(2)
H2 H -0.2281 0.6100 0.1689
C3 C -0.3835(2) 0.3921(3) 0.0768(2)
H3 H -0.4674 0.4228 0.0853
C4 C -0.4024(2) 0.2357(3) 0.0140(2)
H4 H -0.4993 0.1603 -0.0204
C5 C -0.27859(18) 0.1894(2) 0.00138(19)
H5 H -0.2927 0.0829 -0.0422
C6 C -0.13249(17) 0.30058(18) 0.05333(17)
C7 C -0.00172(16) 0.24795(17) 0.03279(17)
C8 C -0.02267(17) 0.14121(18) -0.10732(18)
H6 H -0.1189 0.1034 -0.1858
C9 C 0.09543(18) 0.08451(18) -0.13968(19)
C10 C 0.1604(3) -0.0793(3) -0.3331(2)
H7 H 0.1962 -0.1391 -0.2795
H8 H 0.2487 0.0097 -0.3100
C11 C 0.0907(4) -0.1774(4) -0.4958(3)
H9 H -0.0026 -0.2589 -0.5190
H10 H 0.1618 -0.2238 -0.5274
H11 H 0.0666 -0.1145 -0.5488
C12 C 0.16604(19) 0.3912(2) 0.31140(19)
H12 H 0.1870 0.3226 0.3599
H13 H 0.0743 0.4120 0.3225
C13 C 0.30070(18) 0.54384(19) 0.39215(17)
C14 C 0.3709(2) 0.6088(2) 0.5495(2)
H14 H 0.3354 0.5566 0.6026
C15 C 0.4919(3) 0.7489(3) 0.6279(2)
H15 H 0.5381 0.7912 0.7335
C16 C 0.5445(3) 0.8263(3) 0.5512(3)
H16 H 0.6264 0.9216 0.6045
C17 C 0.4767(3) 0.7636(3) 0.3954(3)
H17 H 0.5130 0.8164 0.3430
C18 C 0.3552(2) 0.6229(2) 0.3164(2)
H18 H 0.3096 0.5810 0.2107
N1 N 0.13512(15) 0.31072(17) 0.15095(16)
H19 H 0.2141 0.3020 0.1283
O1 O 0.22931(13) 0.12784(15) -0.05116(15)
O2 O 0.04591(14) -0.02446(15) -0.28471(14)
loop_
_geom_bond_atom_site_label_1
_geom_bond_atom_site_label_2
_geom_bond_site_symmetry_1
_geom_bond_site_symmetry_2
C1 H1 1_555 1_555
C2 C1 1_555 1_555
H2 C2 1_555 1_555
C3 C2 1_555 1_555
H3 C3 1_555 1_555
C4 C3 1_555 1_555
H4 C4 1_555 1_555
C5 C4 1_555 1_555
H5 C5 1_555 1_555
C6 C1 1_555 1_555
C7 C6 1_555 1_555
C8 C7 1_555 1_555
H6 C8 1_555 1_555
C9 C8 1_555 1_555
C10 H7 1_555 1_555
H8 C10 1_555 1_555
C11 C10 1_555 1_555
H9 C11 1_555 1_555
H10 C11 1_555 1_555
H11 C11 1_555 1_555
C12 H12 1_555 1_555
H13 C12 1_555 1_555
C13 C12 1_555 1_555
C14 C13 1_555 1_555
H14 C14 1_555 1_555
C15 C14 1_555 1_555
H15 C15 1_555 1_555
C16 C15 1_555 1_555
H16 C16 1_555 1_555
C17 C16 1_555 1_555
H17 C17 1_555 1_555
C18 C13 1_555 1_555
H18 C18 1_555 1_555
N1 C7 1_555 1_555
H19 N1 1_555 1_555
O1 C9 1_555 1_555
O2 C9 1_555 1_555
C5 C6 1_555 1_555
C10 O2 1_555 1_555
C12 N1 1_555 1_555
C17 C18 1_555 1_555

#END
