
#######################################################################
#
#                 Cambridge Crystallographic Data Centre
#                                CCDC 
#
#######################################################################
#
# If this CIF has been generated from an entry in the Cambridge 
# Structural Database, then it will include bibliographic, chemical, 
# crystal, experimental, refinement or atomic coordinate data resulting 
# from the CCDC's data processing and validation procedures.
#
#######################################################################

data_LOMHAX
_chemical_formula_moiety         'C27 H45 N3'
_chemical_name_systematic        
1,3,5-tris(Piperidin-1-ylmethyl)-2,4,6-trimethylbenzene
_symmetry_cell_setting           monoclinic
_symmetry_space_group_name_H-M   'P 21/c'
_symmetry_Int_Tables_number      14
_space_group_name_Hall           '-P 2ybc'
loop_
_symmetry_equiv_pos_site_id
_symmetry_equiv_pos_as_xyz
1 x,y,z
2 -x,1/2+y,1/2-z
3 -x,-y,-z
4 x,1/2-y,1/2+z
_cell_length_a                   11.4477(15)
_cell_length_b                   24.793(3)
_cell_length_c                   9.7666(13)
_cell_angle_alpha                90
_cell_angle_beta                 113.087(2)
_cell_angle_gamma                90
_cell_volume                     2549.98
_exptl_crystal_colour            colorless
_chemical_melting_point          415-418K
_cell_formula_units_Z            4
_exptl_crystal_recrystallization_method 'dichloromethane/petroleum ether'
loop_
_atom_site_label
_atom_site_type_symbol
_atom_site_fract_x
_atom_site_fract_y
_atom_site_fract_z
C1 C 0.5376(2) 0.03102(10) 0.3441(3)
C2 C 0.3083(2) 0.00175(10) 0.1120(3)
C3 C 0.4198(2) -0.02686(9) 0.1334(3)
C4 C 0.3119(2) 0.04558(10) 0.2045(3)
C5 C 0.5341(2) -0.01229(9) 0.2495(3)
C6 C 0.4273(3) 0.06079(9) 0.3191(3)
C7 C 0.6551(3) -0.04258(11) 0.2716(3)
H1 H 0.6464 -0.0796 0.2947
H2 H 0.7250 -0.0266 0.3521
H3 H 0.6708 -0.0408 0.1821
C8 C 0.4301(3) 0.10883(11) 0.4163(3)
H4 H 0.4247 0.0965 0.5068
H5 H 0.3594 0.1321 0.3643
H6 H 0.5079 0.1284 0.4393
C9 C 0.1826(3) -0.01531(12) -0.0099(3)
H7 H 0.1365 -0.0375 0.0323
H8 H 0.1989 -0.0354 -0.0847
H9 H 0.1334 0.0162 -0.0541
C10 C 0.6589(2) 0.04129(11) 0.4798(3)
H10 H 0.6395 0.0657 0.5457
H11 H 0.6867 0.0075 0.5324
C11 C 0.4219(3) -0.07416(10) 0.0355(3)
H12 H 0.3421 -0.0753 -0.0507
H13 H 0.4894 -0.0687 0.0004
C12 C 0.1921(2) 0.07584(10) 0.1895(3)
H14 H 0.1192 0.0541 0.1311
H15 H 0.1912 0.0801 0.2878
C13 C 0.7409(3) 0.11983(10) 0.4004(3)
H16 H 0.7327 0.1417 0.4784
H17 H 0.6619 0.1222 0.3134
C14 C 0.3305(3) -0.14270(12) 0.1417(3)
H18 H 0.2594 -0.1484 0.0476
H19 H 0.3075 -0.1144 0.1950
C15 C 0.4752(3) -0.16786(11) 0.0318(4)
H20 H 0.5469 -0.1559 0.0103
H21 H 0.4043 -0.1741 -0.0622
C16 C 0.8820(3) 0.05982(12) 0.5826(3)
H22 H 0.8956 0.0226 0.6155
H23 H 0.8748 0.0812 0.6621
C17 C 0.9941(3) 0.07930(13) 0.5511(4)
H24 H 1.0057 0.0560 0.4777
H25 H 1.0705 0.0775 0.6416
C18 C 0.9737(3) 0.13670(13) 0.4941(4)
H26 H 0.9744 0.1608 0.5726
H27 H 1.0423 0.1472 0.4648
C19 C 0.3576(4) -0.19406(12) 0.2321(4)
H28 H 0.2816 -0.2053 0.2456
H29 H 0.4235 -0.1874 0.3296
C20 C 0.8486(3) 0.14148(13) 0.3625(4)
H30 H 0.8526 0.1214 0.2791
H31 H 0.8326 0.1790 0.3332
C21 C 0.1739(3) 0.12867(12) -0.0270(4)
H32 H 0.0978 0.1102 -0.0924
H33 H 0.2468 0.1093 -0.0291
C22 C 0.3997(4) -0.23878(12) 0.1557(4)
H34 H 0.4258 -0.2700 0.2206
H35 H 0.3294 -0.2494 0.0651
C23 C 0.0660(3) 0.15598(13) 0.1231(4)
H36 H 0.0692 0.1558 0.2238
H37 H -0.0094 0.1364 0.0604
C24 C 0.5088(4) -0.21959(12) 0.1187(4)
H38 H 0.5829 -0.2139 0.2100
H39 H 0.5295 -0.2469 0.0608
C25 C 0.1741(4) 0.18602(14) -0.0830(4)
H40 H 0.2517 0.2043 -0.0204
H41 H 0.1706 0.1852 -0.1838
C26 C 0.0568(4) 0.21317(15) 0.0693(5)
H42 H -0.0219 0.2290 0.0658
H43 H 0.1266 0.2339 0.1390
C27 C 0.0606(4) 0.21614(16) -0.0796(4)
H44 H 0.0649 0.2536 -0.1059
H45 H -0.0167 0.2007 -0.1525
N1 N 0.76400(19) 0.06396(8) 0.4496(2)
N2 N 0.1783(2) 0.12871(8) 0.1209(2)
N3 N 0.4413(2) -0.12598(8) 0.1139(2)
loop_
_geom_bond_atom_site_label_1
_geom_bond_atom_site_label_2
_geom_bond_site_symmetry_1
_geom_bond_site_symmetry_2
C1 C5 1_555 1_555
C2 C3 1_555 1_555
C3 C5 1_555 1_555
C4 C2 1_555 1_555
C5 C7 1_555 1_555
C6 C1 1_555 1_555
C7 H1 1_555 1_555
H2 C7 1_555 1_555
H3 C7 1_555 1_555
C8 C6 1_555 1_555
H4 C8 1_555 1_555
H5 C8 1_555 1_555
H6 C8 1_555 1_555
C9 C2 1_555 1_555
H7 C9 1_555 1_555
H8 C9 1_555 1_555
H9 C9 1_555 1_555
C10 C1 1_555 1_555
H10 C10 1_555 1_555
H11 C10 1_555 1_555
C11 C3 1_555 1_555
H12 C11 1_555 1_555
H13 C11 1_555 1_555
C12 C4 1_555 1_555
H14 C12 1_555 1_555
H15 C12 1_555 1_555
C13 H16 1_555 1_555
H17 C13 1_555 1_555
C14 H18 1_555 1_555
H19 C14 1_555 1_555
C15 H20 1_555 1_555
H21 C15 1_555 1_555
C16 H22 1_555 1_555
H23 C16 1_555 1_555
C17 C16 1_555 1_555
H24 C17 1_555 1_555
H25 C17 1_555 1_555
C18 C17 1_555 1_555
H26 C18 1_555 1_555
H27 C18 1_555 1_555
C19 C14 1_555 1_555
H28 C19 1_555 1_555
H29 C19 1_555 1_555
C20 C13 1_555 1_555
H30 C20 1_555 1_555
H31 C20 1_555 1_555
C21 H32 1_555 1_555
H33 C21 1_555 1_555
C22 C19 1_555 1_555
H34 C22 1_555 1_555
H35 C22 1_555 1_555
C23 H36 1_555 1_555
H37 C23 1_555 1_555
C24 C15 1_555 1_555
H38 C24 1_555 1_555
H39 C24 1_555 1_555
C25 C21 1_555 1_555
H40 C25 1_555 1_555
H41 C25 1_555 1_555
C26 C23 1_555 1_555
H42 C26 1_555 1_555
H43 C26 1_555 1_555
C27 C25 1_555 1_555
H44 C27 1_555 1_555
H45 C27 1_555 1_555
N1 C10 1_555 1_555
N2 C12 1_555 1_555
N3 C11 1_555 1_555
C4 C6 1_555 1_555
C13 N1 1_555 1_555
C14 N3 1_555 1_555
C15 N3 1_555 1_555
C16 N1 1_555 1_555
C18 C20 1_555 1_555
C21 N2 1_555 1_555
C22 C24 1_555 1_555
C23 N2 1_555 1_555
C26 C27 1_555 1_555

#END
