
#######################################################################
#
#                 Cambridge Crystallographic Data Centre
#                                CCDC 
#
#######################################################################
#
# If this CIF has been generated from an entry in the Cambridge 
# Structural Database, then it will include bibliographic, chemical, 
# crystal, experimental, refinement or atomic coordinate data resulting 
# from the CCDC's data processing and validation procedures.
#
#######################################################################

data_LOMHOL
_chemical_formula_moiety         'C26 H20 N2 O2 S1'
_chemical_name_systematic        "2,2'-bis(Salicylideneamino)diphenyl sulfide"
_symmetry_cell_setting           tetragonal
_symmetry_space_group_name_H-M   'I 41/a'
_symmetry_Int_Tables_number      88
_space_group_name_Hall           '-I 4ad'
loop_
_symmetry_equiv_pos_site_id
_symmetry_equiv_pos_as_xyz
1 x,y,z
2 1/2-x,-y,1/2+z
3 3/4-y,1/4+x,1/4+z
4 3/4+y,3/4-x,3/4+z
5 1/2+x,1/2+y,1/2+z
6 -x,1/2-y,z
7 1/4-y,3/4+x,3/4+z
8 1/4+y,1/4-x,1/4+z
9 -x,-y,-z
10 1/2+x,y,1/2-z
11 1/4+y,3/4-x,3/4-z
12 1/4-y,1/4+x,1/4-z
13 1/2-x,1/2-y,1/2-z
14 x,1/2+y,-z
15 3/4+y,1/4-x,1/4-z
16 3/4-y,3/4+x,3/4-z
_cell_length_a                   11.2174(6)
_cell_length_b                   11.2174(6)
_cell_length_c                   33.612(3)
_cell_angle_alpha                90
_cell_angle_beta                 90
_cell_angle_gamma                90
_cell_volume                     4229.4
_exptl_crystal_colour            yellow
_exptl_crystal_description       block
_cell_formula_units_Z            8
_exptl_crystal_recrystallization_method 'ethyl acetate/toluene'
loop_
_atom_site_label
_atom_site_type_symbol
_atom_site_fract_x
_atom_site_fract_y
_atom_site_fract_z
S1 S 1.0000 0.2500 0.01520(5)
O1 O 0.7359(4) 0.1803(3) -0.04335(13)
H1 H 0.7811 0.1640 -0.0250
N1 N 0.8259(3) 0.0524(3) 0.01374(11)
C1 C 0.9952(4) 0.1280(4) 0.04904(13)
C2 C 0.9101(4) 0.0380(3) 0.04433(13)
C3 C 0.9149(5) -0.0584(4) 0.07007(16)
H2 H 0.8598 -0.1198 0.0672
C4 C 0.9984(6) -0.0653(4) 0.09946(17)
H3 H 0.9986 -0.1302 0.1167
C5 C 1.0822(5) 0.0232(5) 0.10366(16)
H4 H 1.1399 0.0182 0.1235
C6 C 1.0799(4) 0.1181(4) 0.07857(15)
H5 H 1.1369 0.1778 0.0814
C7 C 0.7497(4) -0.0277(4) 0.00532(13)
H6 H 0.7506 -0.0987 0.0196
C8 C 0.6622(4) -0.0123(4) -0.02558(13)
C9 C 0.6579(5) 0.0903(4) -0.04860(16)
C10 C 0.5721(6) 0.0996(5) -0.07812(19)
H7 H 0.5697 0.1675 -0.0940
C11 C 0.4903(6) 0.0099(6) -0.08423(19)
H8 H 0.4336 0.0176 -0.1042
C12 C 0.4919(5) -0.0891(5) -0.06148(16)
H9 H 0.4355 -0.1488 -0.0653
C13 C 0.5775(5) -0.1005(4) -0.03266(16)
H10 H 0.5792 -0.1695 -0.0173
O1E O 1.2641(4) 0.3197(3) -0.04335(13)
H1E H 1.2189 0.3360 -0.0250
N1E N 1.1741(3) 0.4476(3) 0.01374(11)
C1E C 1.0048(4) 0.3720(4) 0.04904(13)
C2E C 1.0899(4) 0.4620(3) 0.04433(13)
C3E C 1.0851(5) 0.5584(4) 0.07007(16)
H2E H 1.1402 0.6198 0.0672
C4E C 1.0016(6) 0.5653(4) 0.09946(17)
H3E H 1.0014 0.6302 0.1167
C5E C 0.9178(5) 0.4768(5) 0.10366(16)
H4E H 0.8601 0.4818 0.1235
C6E C 0.9201(4) 0.3819(4) 0.07857(15)
H5E H 0.8631 0.3222 0.0814
C7E C 1.2503(4) 0.5277(4) 0.00532(13)
H6E H 1.2494 0.5987 0.0196
C8E C 1.3378(4) 0.5123(4) -0.02558(13)
C9E C 1.3421(5) 0.4097(4) -0.04860(16)
C10E C 1.4279(6) 0.4004(5) -0.07812(19)
H7E H 1.4303 0.3325 -0.0940
C11E C 1.5097(6) 0.4901(6) -0.08423(19)
H8E H 1.5664 0.4824 -0.1042
C12E C 1.5081(5) 0.5891(5) -0.06148(16)
H9E H 1.5645 0.6488 -0.0653
C13E C 1.4225(5) 0.6005(4) -0.03266(16)
H10E H 1.4208 0.6695 -0.0173
loop_
_geom_bond_atom_site_label_1
_geom_bond_atom_site_label_2
_geom_bond_site_symmetry_1
_geom_bond_site_symmetry_2
S1 C1 1_555 1_555
O1 H1 1_555 1_555
N1 C2 1_555 1_555
C1 C2 1_555 1_555
C2 C3 1_555 1_555
C3 H2 1_555 1_555
C4 C3 1_555 1_555
H3 C4 1_555 1_555
C5 C4 1_555 1_555
H4 C5 1_555 1_555
C6 C1 1_555 1_555
H5 C6 1_555 1_555
C7 N1 1_555 1_555
H6 C7 1_555 1_555
C8 C7 1_555 1_555
C9 O1 1_555 1_555
C10 C9 1_555 1_555
H7 C10 1_555 1_555
C11 C10 1_555 1_555
H8 C11 1_555 1_555
C12 C11 1_555 1_555
H9 C12 1_555 1_555
C13 C8 1_555 1_555
H10 C13 1_555 1_555
O1E H1E 1_555 1_555
N1E C2E 1_555 1_555
C1E S1 1_555 1_555
C2E C1E 1_555 1_555
C3E C2E 1_555 1_555
H2E C3E 1_555 1_555
C4E C3E 1_555 1_555
H3E C4E 1_555 1_555
C5E C4E 1_555 1_555
H4E C5E 1_555 1_555
C6E C1E 1_555 1_555
H5E C6E 1_555 1_555
C7E N1E 1_555 1_555
H6E C7E 1_555 1_555
C8E C7E 1_555 1_555
C9E O1E 1_555 1_555
C10E C9E 1_555 1_555
H7E C10E 1_555 1_555
C11E C10E 1_555 1_555
H8E C11E 1_555 1_555
C12E C11E 1_555 1_555
H9E C12E 1_555 1_555
C13E C8E 1_555 1_555
H10E C13E 1_555 1_555
C5 C6 1_555 1_555
C8 C9 1_555 1_555
C12 C13 1_555 1_555
C5E C6E 1_555 1_555
C8E C9E 1_555 1_555
C12E C13E 1_555 1_555

#END
