
#######################################################################
#
#                 Cambridge Crystallographic Data Centre
#                                CCDC 
#
#######################################################################
#
# If this CIF has been generated from an entry in the Cambridge 
# Structural Database, then it will include bibliographic, chemical, 
# crystal, experimental, refinement or atomic coordinate data resulting 
# from the CCDC's data processing and validation procedures.
#
#######################################################################

data_LOMJUT
_chemical_formula_moiety         '2(C5 H7 N2 1+),C10 H6 O6 S2 2-'
_chemical_name_systematic        
'bis(2-Aminopyridinium) 1,5-naphthalenedisulfonate'
_symmetry_cell_setting           triclinic
_symmetry_space_group_name_H-M   'P -1'
_symmetry_Int_Tables_number      2
_space_group_name_Hall           '-P 1'
loop_
_symmetry_equiv_pos_site_id
_symmetry_equiv_pos_as_xyz
1 x,y,z
2 -x,-y,-z
_cell_length_a                   7.265(2)
_cell_length_b                   8.183(4)
_cell_length_c                   9.516(3)
_cell_angle_alpha                111.621(12)
_cell_angle_beta                 91.835(13)
_cell_angle_gamma                96.957(13)
_cell_volume                     520.242
_exptl_crystal_colour            colorless
_exptl_crystal_description       block
_cell_formula_units_Z            1
loop_
_atom_site_label
_atom_site_type_symbol
_atom_site_fract_x
_atom_site_fract_y
_atom_site_fract_z
S1 S 0.25095(6) 0.85401(6) 0.24549(5)
O1 O 0.2733(2) 0.69345(18) 0.27471(14)
O2 O 0.07128(17) 0.83858(18) 0.16489(14)
O3 O 0.2906(2) 1.01505(18) 0.38196(13)
C1 C 0.5320(2) 0.7331(2) 0.07008(19)
H1 H 0.5228 0.6463 0.1118
C2 C 0.4213(2) 0.8650(2) 0.11561(17)
C3 C 0.4351(2) 1.0034(2) 0.05590(16)
C4 C 0.3251(2) 1.1445(2) 0.10130(19)
H2 H 0.2413 1.1500 0.1742
C5 C 0.3406(2) 1.2715(2) 0.0395(2)
H3 H 0.2667 1.3617 0.0700
S1A S 0.74905(6) 1.14599(6) -0.24549(5)
O1A O 0.7267(2) 1.30655(18) -0.27471(14)
O2A O 0.92872(17) 1.16142(18) -0.16489(14)
O3A O 0.7094(2) 0.98495(18) -0.38196(13)
C1A C 0.4680(2) 1.2669(2) -0.07008(19)
H1A H 0.4772 1.3537 -0.1118
C2A C 0.5787(2) 1.1350(2) -0.11561(17)
C3A C 0.5649(2) 0.9966(2) -0.05590(16)
C4A C 0.6749(2) 0.8555(2) -0.10130(19)
H2A H 0.7587 0.8500 -0.1742
C5A C 0.6594(2) 0.7285(2) -0.0395(2)
H3A H 0.7333 0.6383 -0.0700
N1 N 0.2491(2) 0.6302(2) 0.53720(16)
N2 N 0.1740(3) 0.9143(2) 0.6472(2)
C6 C 0.1836(2) 0.7568(2) 0.65474(19)
C7 C 0.1307(2) 0.7105(3) 0.77889(19)
H4 H 0.0864 0.7936 0.8621
C8 C 0.1443(3) 0.5451(3) 0.7769(2)
H5 H 0.1083 0.5158 0.8586
C9 C 0.2123(3) 0.4178(3) 0.6520(2)
H6 H 0.2224 0.3050 0.6507
C10 C 0.2625(3) 0.4636(3) 0.5346(2)
H7 H 0.3066 0.3811 0.4510
H8 H 0.268(3) 0.659(3) 0.4596(19)
H9 H 0.118(3) 0.988(2) 0.7145(18)
H10 H 0.211(3) 0.944(3) 0.5740(19)
loop_
_geom_bond_atom_site_label_1
_geom_bond_atom_site_label_2
_geom_bond_site_symmetry_1
_geom_bond_site_symmetry_2
S1 O1 1_555 1_555
O2 S1 1_555 1_555
O3 S1 1_555 1_555
C1 H1 1_555 1_555
C2 S1 1_555 1_555
C3 C2 1_555 1_555
C4 C3 1_555 1_555
H2 C4 1_555 1_555
C5 C4 1_555 1_555
H3 C5 1_555 1_555
N1 C6 1_555 1_555
N2 C6 1_555 1_555
C6 C7 1_555 1_555
C7 H4 1_555 1_555
C8 C7 1_555 1_555
H5 C8 1_555 1_555
C9 C8 1_555 1_555
H6 C9 1_555 1_555
C10 N1 1_555 1_555
H7 C10 1_555 1_555
H8 N1 1_555 1_555
H9 N2 1_555 1_555
H10 N2 1_555 1_555
S1A O1A 1_555 1_555
O2A S1A 1_555 1_555
O3A S1A 1_555 1_555
C1A C5 1_555 1_555
H1A C1A 1_555 1_555
C2A S1A 1_555 1_555
C3A C3 1_555 1_555
C4A C3A 1_555 1_555
H2A C4A 1_555 1_555
C5A C1 1_555 1_555
H3A C5A 1_555 1_555
C1 C2 1_555 1_555
C9 C10 1_555 1_555
C1A C2A 1_555 1_555
C2A C3A 1_555 1_555
C4A C5A 1_555 1_555

#END
