
#######################################################################
#
#                 Cambridge Crystallographic Data Centre
#                                CCDC 
#
#######################################################################
#
# If this CIF has been generated from an entry in the Cambridge 
# Structural Database, then it will include bibliographic, chemical, 
# crystal, experimental, refinement or atomic coordinate data resulting 
# from the CCDC's data processing and validation procedures.
#
#######################################################################

data_LOMKAA
_chemical_formula_moiety         '2(C5 H7 N2 1+),C10 H6 O6 S2 2-,2(H2 O1)'
_chemical_name_systematic        
'bis(3-Aminopyridinium) 1,5-naphthalenedisulfonate dihydrate'
_symmetry_cell_setting           orthorhombic
_symmetry_space_group_name_H-M   'P b c a'
_symmetry_Int_Tables_number      61
_space_group_name_Hall           '-P 2ac 2ab'
loop_
_symmetry_equiv_pos_site_id
_symmetry_equiv_pos_as_xyz
1 x,y,z
2 1/2-x,-y,1/2+z
3 -x,1/2+y,1/2-z
4 1/2+x,1/2-y,-z
5 -x,-y,-z
6 1/2+x,y,1/2-z
7 x,1/2-y,1/2+z
8 1/2-x,1/2+y,z
_cell_length_a                   12.2909(4)
_cell_length_b                   12.6265(4)
_cell_length_c                   14.6083(5)
_cell_angle_alpha                90
_cell_angle_beta                 90
_cell_angle_gamma                90
_cell_volume                     2267.08
_exptl_crystal_colour            colorless
_exptl_crystal_description       block
_cell_formula_units_Z            4
loop_
_atom_site_label
_atom_site_type_symbol
_atom_site_fract_x
_atom_site_fract_y
_atom_site_fract_z
S1 S -0.03601(3) -0.35119(3) 0.30419(2)
O1 O 0.01661(12) -0.25853(10) 0.34261(8)
O2 O 0.00634(12) -0.37683(11) 0.21474(8)
O3 O -0.15337(11) -0.34546(12) 0.30619(10)
C1 C 0.04561(13) -0.54713(13) 0.33643(11)
H1 H 0.0561(14) -0.5483(15) 0.2728(13)
C2 C -0.00066(11) -0.46015(11) 0.37614(10)
C3 C -0.01823(11) -0.45616(11) 0.47298(9)
C4 C -0.06965(13) -0.36966(12) 0.51729(11)
H2 H -0.0987(14) -0.3123(15) 0.4826(12)
C5 C -0.08097(15) -0.36754(13) 0.61010(11)
H3 H -0.1122(15) -0.3107(16) 0.6376(13)
S1D S 0.03601(3) -0.64881(3) 0.69581(2)
O1D O -0.01661(12) -0.74147(10) 0.65739(8)
O2D O -0.00634(12) -0.62317(11) 0.78526(8)
O3D O 0.15337(11) -0.65454(12) 0.69381(10)
C1D C -0.04561(13) -0.45287(13) 0.66357(11)
H1D H -0.0561(14) -0.4517(15) 0.7272(13)
C2D C 0.00066(11) -0.53985(11) 0.62386(10)
C3D C 0.01823(11) -0.54384(11) 0.52702(9)
C4D C 0.06965(13) -0.63034(12) 0.48271(11)
H2D H 0.0987(14) -0.6877(15) 0.5174(12)
C5D C 0.08097(15) -0.63246(13) 0.38990(11)
H3D H 0.1122(15) -0.6893(16) 0.3624(13)
N1 N 0.23855(12) 0.08367(13) 0.57553(12)
H4 H 0.2632(19) 0.1138(18) 0.6237(11)
N2 N 0.08033(15) -0.14686(13) 0.51930(12)
H5 H 0.0501(15) -0.1734(16) 0.4725(10)
H6 H 0.0560(18) -0.1582(18) 0.5731(9)
C6 C 0.18097(13) -0.00474(13) 0.58543(11)
H7 H 0.1700 -0.0330 0.6435
C7 C 0.13714(13) -0.05499(12) 0.50942(11)
C8 C 0.15779(15) -0.00969(16) 0.42414(12)
H8 H 0.1250(16) -0.0450(16) 0.3714(14)
C9 C 0.21806(17) 0.08132(17) 0.41763(15)
H9 H 0.2322(18) 0.1106(17) 0.3562(17)
C10 C 0.25813(16) 0.12819(17) 0.49422(18)
H10 H 0.297(2) 0.1872(19) 0.4969(16)
O4 O 0.29979(13) 0.18777(12) 0.72911(12)
H11 H 0.2631(15) 0.2415(13) 0.7168(16)
H12 H 0.3588(12) 0.2093(18) 0.7493(19)
loop_
_geom_bond_atom_site_label_1
_geom_bond_atom_site_label_2
_geom_bond_site_symmetry_1
_geom_bond_site_symmetry_2
S1 O1 1_555 1_555
O2 S1 1_555 1_555
O3 S1 1_555 1_555
C1 H1 1_555 1_555
C2 S1 1_555 1_555
C3 C2 1_555 1_555
C4 C3 1_555 1_555
H2 C4 1_555 1_555
C5 C4 1_555 1_555
H3 C5 1_555 1_555
N1 H4 1_555 1_555
N2 H5 1_555 1_555
H6 N2 1_555 1_555
C6 N1 1_555 1_555
H7 C6 1_555 1_555
C7 N2 1_555 1_555
C8 C7 1_555 1_555
H8 C8 1_555 1_555
C9 C8 1_555 1_555
H9 C9 1_555 1_555
C10 N1 1_555 1_555
H10 C10 1_555 1_555
O4 H11 1_555 1_555
H12 O4 1_555 1_555
S1D O1D 1_555 1_555
O2D S1D 1_555 1_555
O3D S1D 1_555 1_555
C1D C5 1_555 1_555
H1D C1D 1_555 1_555
C2D S1D 1_555 1_555
C3D C3 1_555 1_555
C4D C3D 1_555 1_555
H2D C4D 1_555 1_555
C5D C1 1_555 1_555
H3D C5D 1_555 1_555
C1 C2 1_555 1_555
C6 C7 1_555 1_555
C9 C10 1_555 1_555
C1D C2D 1_555 1_555
C2D C3D 1_555 1_555
C4D C5D 1_555 1_555

#END
