
#######################################################################
#
#                 Cambridge Crystallographic Data Centre
#                                CCDC 
#
#######################################################################
#
# If this CIF has been generated from an entry in the Cambridge 
# Structural Database, then it will include bibliographic, chemical, 
# crystal, experimental, refinement or atomic coordinate data resulting 
# from the CCDC's data processing and validation procedures.
#
#######################################################################

data_LOMPUA
_chemical_compound_source        
'Streptomyces sp. M56 recovered from a South African nest of Macrotermes natalensis termites'
_chemical_name_common            'Natalamycin A chloroform solvate'
_chemical_formula_moiety         'C35 H50 N2 O11,3(C1 H1 Cl3)'
_chemical_name_systematic        
'3,10-Dihydroxy-4,9,15,25-tetramethoxy-7,11,13,19,22-pentamethyl-20,24-dioxo-26-oxa-21-azatricyclo[19.6.0.0^5,27^]heptacosa-1(27),2,4,12,16,18-hexaen-14-yl carbamate chloroform solvate'
_symmetry_cell_setting           orthorhombic
_symmetry_space_group_name_H-M   'P 21 21 21'
_symmetry_Int_Tables_number      19
_space_group_name_Hall           'P 2ac 2ab'
loop_
_symmetry_equiv_pos_site_id
_symmetry_equiv_pos_as_xyz
1 x,y,z
2 1/2-x,-y,1/2+z
3 -x,1/2+y,1/2-z
4 1/2+x,1/2-y,-z
_cell_length_a                   12.9360(18)
_cell_length_b                   17.448(2)
_cell_length_c                   21.111(3)
_cell_angle_alpha                90
_cell_angle_beta                 90
_cell_angle_gamma                90
_cell_volume                     4764.91
_exptl_crystal_colour            colorless
_exptl_crystal_description       block
_cell_formula_units_Z            4
_exptl_crystal_recrystallization_method chloroform/methanol
loop_
_atom_site_label
_atom_site_type_symbol
_atom_site_fract_x
_atom_site_fract_y
_atom_site_fract_z
C1 C 0.7609(5) 0.4123(4) 0.4448(3)
C2 C 0.8169(6) 0.3475(4) 0.4643(3)
H1 H 0.7836 0.3060 0.4850
C3 C 0.9229(6) 0.3459(4) 0.4523(3)
C4 C 0.9724(6) 0.4051(4) 0.4204(3)
C5 C 0.9146(6) 0.4675(4) 0.3964(3)
C6 C 0.8093(6) 0.4697(4) 0.4106(3)
C7 C 0.7416(7) 0.5911(4) 0.4351(4)
H2 H 0.7172 0.5704 0.4756
H3 H 0.6932 0.6304 0.4201
H4 H 0.8102 0.6141 0.4409
C8 C 1.0081(6) 0.2863(4) 0.5456(3)
H5 H 1.0578 0.2442 0.5559
C9 C 0.9133(7) 0.2780(4) 0.5876(4)
H6 H 0.9351 0.2707 0.6316
H7 H 0.8728 0.2336 0.5737
H8 H 0.8709 0.3244 0.5844
C10 C 1.0617(6) 0.3644(4) 0.5582(3)
H9 H 1.0124 0.4068 0.5504
H10 H 1.0847 0.3672 0.6028
C11 C 1.1541(6) 0.3717(4) 0.5141(4)
C12 C 1.1490(6) 0.4246(4) 0.4562(4)
H11 H 1.2193 0.4256 0.4365
C13 C 1.1895(6) 0.5566(4) 0.4477(4)
H12 H 1.2548 0.5632 0.4705
H13 H 1.1513 0.6052 0.4477
H14 H 1.2037 0.5410 0.4040
C14 C 1.0365(5) 0.2337(4) 0.4387(3)
C15 C 1.0220(6) 0.2381(4) 0.3687(3)
C16 C 1.1231(6) 0.2399(4) 0.3313(3)
H15 H 1.1815 0.2424 0.3608
H16 H 1.1240 0.2851 0.3037
H17 H 1.1286 0.1935 0.3055
C17 C 0.9274(6) 0.2342(4) 0.3415(3)
H18 H 0.8682 0.2312 0.3681
C18 C 0.9130(5) 0.2344(4) 0.2730(3)
H19 H 0.9729 0.2438 0.2481
C19 C 0.8254(6) 0.2229(4) 0.2414(3)
H20 H 0.8280 0.2308 0.1969
C20 C 0.7232(6) 0.1990(4) 0.2680(3)
H21 H 0.7205 0.2103 0.3144
C21 C 0.7677(6) 0.0718(4) 0.2984(4)
H22 H 0.7394 0.0746 0.3414
H23 H 0.8395 0.0897 0.2986
H24 H 0.7653 0.0186 0.2835
C22 C 0.6357(5) 0.2411(4) 0.2336(3)
H25 H 0.6421 0.2313 0.1871
C23 C 0.4631(6) 0.1983(4) 0.2129(4)
C24 C 0.6353(6) 0.3269(4) 0.2447(4)
C25 C 0.6197(7) 0.3515(5) 0.3128(4)
H26 H 0.5539 0.3311 0.3284
H27 H 0.6188 0.4076 0.3151
H28 H 0.6764 0.3317 0.3388
C26 C 0.6482(5) 0.3744(4) 0.1961(4)
H29 H 0.6624 0.3517 0.1562
C27 C 0.6425(6) 0.4606(4) 0.1981(3)
H30 H 0.6484 0.4781 0.2431
C28 C 0.5366(6) 0.4866(4) 0.1712(4)
H31 H 0.5331 0.4743 0.1260
H32 H 0.5288 0.5420 0.1771
H33 H 0.4810 0.4599 0.1937
C29 C 0.7306(6) 0.4962(4) 0.1595(3)
H34 H 0.7286 0.4749 0.1156
C30 C 0.8394(5) 0.4828(4) 0.1875(3)
H35 H 0.8596 0.4282 0.1805
C31 C 0.9466(6) 0.5022(4) 0.0953(4)
H36 H 0.9920 0.4582 0.1029
H37 H 0.9849 0.5421 0.0727
H38 H 0.8872 0.4859 0.0698
C32 C 0.8493(5) 0.5015(4) 0.2575(3)
H39 H 0.8133 0.4612 0.2821
H40 H 0.8133 0.5506 0.2658
C33 C 0.9599(5) 0.5080(4) 0.2820(3)
H41 H 0.9933 0.5515 0.2589
C34 C 1.0229(6) 0.4357(4) 0.2674(3)
H42 H 0.9856 0.3905 0.2829
H43 H 1.0903 0.4389 0.2884
H44 H 1.0329 0.4313 0.2215
C35 C 0.9617(5) 0.5280(4) 0.3534(3)
H45 H 1.0343 0.5365 0.3664
H46 H 0.9239 0.5768 0.3597
N1 N 0.9829(5) 0.2830(3) 0.4771(3)
N2 N 0.3813(5) 0.1606(4) 0.2373(3)
H47 H 0.3243 0.1696 0.2169
H48 H 0.3697 0.1500 0.2769
O1 O 0.6580(4) 0.4198(3) 0.4572(2)
H49 H 0.6246 0.4169 0.4232
O2 O 1.0763(4) 0.4005(3) 0.4081(2)
O3 O 0.7480(4) 0.5296(3) 0.3887(2)
O4 O 1.2340(5) 0.3364(3) 0.5242(3)
O5 O 1.1281(4) 0.4981(3) 0.4788(3)
O6 O 1.0996(4) 0.1875(3) 0.4602(3)
O7 O 0.7077(4) 0.1190(3) 0.2571(3)
O8 O 0.5388(4) 0.2067(3) 0.2563(2)
O9 O 0.4674(4) 0.2220(3) 0.1585(2)
O10 O 0.7139(4) 0.5773(3) 0.1565(2)
H50 H 0.7693 0.5993 0.1463
O11 O 0.9109(4) 0.5318(3) 0.1547(2)
C36 C 0.4606(7) 0.7642(4) 0.4747(4)
H51 H 0.4907 0.7361 0.4378
Cl1 Cl 0.48629(18) 0.86292(12) 0.46551(10)
Cl2 Cl 0.32480(15) 0.74737(10) 0.47632(9)
Cl3 Cl 0.52069(16) 0.73111(11) 0.54427(9)
C37 C 0.2242(6) 0.6723(5) 0.6589(4)
H52 H 0.1611 0.6968 0.6405
Cl4 Cl 0.32387(15) 0.74256(11) 0.66246(9)
Cl5 Cl 0.19369(14) 0.63955(10) 0.73591(9)
Cl6 Cl 0.26161(18) 0.59686(11) 0.60916(9)
C38 C 0.4827(6) 0.5046(4) 0.4007(3)
H53 H 0.5567 0.4941 0.3901
Cl7 Cl 0.47745(15) 0.57515(10) 0.46016(9)
Cl8 Cl 0.41849(15) 0.53589(10) 0.33196(9)
Cl9 Cl 0.42498(15) 0.41884(10) 0.42976(11)
loop_
_geom_bond_atom_site_label_1
_geom_bond_atom_site_label_2
_geom_bond_site_symmetry_1
_geom_bond_site_symmetry_2
C1 C2 1_555 1_555
C2 H1 1_555 1_555
C3 C2 1_555 1_555
C4 C3 1_555 1_555
C5 C4 1_555 1_555
C6 C1 1_555 1_555
C7 H2 1_555 1_555
H3 C7 1_555 1_555
H4 C7 1_555 1_555
C8 H5 1_555 1_555
C9 C8 1_555 1_555
H6 C9 1_555 1_555
H7 C9 1_555 1_555
H8 C9 1_555 1_555
C10 C8 1_555 1_555
H9 C10 1_555 1_555
H10 C10 1_555 1_555
C11 C10 1_555 1_555
C12 C11 1_555 1_555
H11 C12 1_555 1_555
C13 H12 1_555 1_555
H13 C13 1_555 1_555
H14 C13 1_555 1_555
C14 C15 1_555 1_555
C15 C16 1_555 1_555
C16 H15 1_555 1_555
H16 C16 1_555 1_555
H17 C16 1_555 1_555
C17 C15 1_555 1_555
H18 C17 1_555 1_555
C18 C17 1_555 1_555
H19 C18 1_555 1_555
C19 C18 1_555 1_555
H20 C19 1_555 1_555
C20 C19 1_555 1_555
H21 C20 1_555 1_555
C21 H22 1_555 1_555
H23 C21 1_555 1_555
H24 C21 1_555 1_555
C22 C20 1_555 1_555
H25 C22 1_555 1_555
C23 N2 1_555 1_555
C24 C22 1_555 1_555
C25 C24 1_555 1_555
H26 C25 1_555 1_555
H27 C25 1_555 1_555
H28 C25 1_555 1_555
C26 C24 1_555 1_555
H29 C26 1_555 1_555
C27 C26 1_555 1_555
H30 C27 1_555 1_555
C28 C27 1_555 1_555
H31 C28 1_555 1_555
H32 C28 1_555 1_555
H33 C28 1_555 1_555
C29 C27 1_555 1_555
H34 C29 1_555 1_555
C30 C29 1_555 1_555
H35 C30 1_555 1_555
C31 H36 1_555 1_555
H37 C31 1_555 1_555
H38 C31 1_555 1_555
C32 C30 1_555 1_555
H39 C32 1_555 1_555
H40 C32 1_555 1_555
C33 C32 1_555 1_555
H41 C33 1_555 1_555
C34 C33 1_555 1_555
H42 C34 1_555 1_555
H43 C34 1_555 1_555
H44 C34 1_555 1_555
C35 C5 1_555 1_555
H45 C35 1_555 1_555
H46 C35 1_555 1_555
N1 C3 1_555 1_555
N2 H47 1_555 1_555
H48 N2 1_555 1_555
O1 C1 1_555 1_555
H49 O1 1_555 1_555
O2 C4 1_555 1_555
O3 C6 1_555 1_555
O4 C11 1_555 1_555
O5 C12 1_555 1_555
O6 C14 1_555 1_555
O7 C20 1_555 1_555
O8 C22 1_555 1_555
O9 C23 1_555 1_555
O10 C29 1_555 1_555
H50 O10 1_555 1_555
O11 C30 1_555 1_555
C36 H51 1_555 1_555
Cl1 C36 1_555 1_555
Cl2 C36 1_555 1_555
Cl3 C36 1_555 1_555
C37 H52 1_555 1_555
Cl4 C37 1_555 1_555
Cl5 C37 1_555 1_555
Cl6 C37 1_555 1_555
C38 H53 1_555 1_555
Cl7 C38 1_555 1_555
Cl8 C38 1_555 1_555
Cl9 C38 1_555 1_555
C5 C6 1_555 1_555
C7 O3 1_555 1_555
C8 N1 1_555 1_555
C12 O2 1_555 1_555
C13 O5 1_555 1_555
C14 N1 1_555 1_555
C21 O7 1_555 1_555
C23 O8 1_555 1_555
C31 O11 1_555 1_555
C33 C35 1_555 1_555

#END
