
#######################################################################
#
#                 Cambridge Crystallographic Data Centre
#                                CCDC 
#
#######################################################################
#
# If this CIF has been generated from an entry in the Cambridge 
# Structural Database, then it will include bibliographic, chemical, 
# crystal, experimental, refinement or atomic coordinate data resulting 
# from the CCDC's data processing and validation procedures.
#
#######################################################################

data_LOMQIO
_chemical_formula_moiety         'C27 H34 N4 2+,2(Br1 1-),C1 H1 Cl3,2(H2 O1)'
_chemical_name_systematic        
"3,3'-Dimesityl-1,1'-(propane-1,3-diyl)bis(imidazolium) dibromide chloroform solvate dihydrate"
_symmetry_cell_setting           monoclinic
_symmetry_space_group_name_H-M   'P 21/c'
_symmetry_Int_Tables_number      14
_space_group_name_Hall           '-P 2ybc'
loop_
_symmetry_equiv_pos_site_id
_symmetry_equiv_pos_as_xyz
1 x,y,z
2 -x,1/2+y,1/2-z
3 -x,-y,-z
4 x,1/2-y,1/2+z
_cell_length_a                   15.683(5)
_cell_length_b                   7.036(2)
_cell_length_c                   31.463(10)
_cell_angle_alpha                90
_cell_angle_beta                 98.016(6)
_cell_angle_gamma                90
_cell_volume                     3437.88
_exptl_crystal_colour            white
_cell_formula_units_Z            4
_chemical_properties_physical    deliquescent
loop_
_atom_site_label
_atom_site_type_symbol
_atom_site_fract_x
_atom_site_fract_y
_atom_site_fract_z
Br1 Br 0.62111(5) 0.07091(10) 0.37037(2)
Br2 Br 0.29690(5) 0.11467(10) 0.40305(2)
N1 N 0.7012(3) 0.5692(6) 0.45547(13)
N2 N 0.5658(3) 0.6299(6) 0.44100(13)
N3 N 0.3414(3) 0.5304(6) 0.31462(12)
N4 N 0.2910(3) 0.3665(6) 0.25900(13)
C1 C 0.7868(3) 0.4914(7) 0.45477(16)
C2 C 0.8079(4) 0.3248(8) 0.47771(18)
C3 C 0.8915(5) 0.2581(9) 0.4776(2)
H1 H 0.9077 0.1467 0.4925
C4 C 0.9508(4) 0.3481(9) 0.45684(19)
C5 C 0.9259(4) 0.5109(9) 0.43484(18)
H2 H 0.9657 0.5727 0.4204
C6 C 0.8443(4) 0.5881(7) 0.43302(18)
C7 C 0.7437(5) 0.2234(11) 0.5008(3)
H3 H 0.6971 0.1774 0.4803
H4 H 0.7216 0.3097 0.5203
H5 H 0.7712 0.1182 0.5166
C8 C 1.0417(4) 0.2722(11) 0.4577(2)
H6 H 1.0610 0.2171 0.4853
H7 H 1.0795 0.3744 0.4525
H8 H 1.0422 0.1771 0.4358
C9 C 0.8203(4) 0.7701(9) 0.4086(2)
H9 H 0.7638 0.7573 0.3926
H10 H 0.8612 0.7945 0.3892
H11 H 0.8206 0.8738 0.4284
C10 C 0.6802(4) 0.6989(9) 0.48599(18)
H12 H 0.7178 0.7519 0.5083
C11 C 0.5964(4) 0.7319(9) 0.47705(17)
H13 H 0.5641 0.8103 0.4925
C12 C 0.6303(3) 0.5330(7) 0.42915(16)
H14 H 0.6263 0.4513 0.4057
C13 C 0.4737(3) 0.6234(9) 0.42250(17)
H15 H 0.4478 0.7459 0.4267
H16 H 0.4448 0.5292 0.4379
C14 C 0.4594(3) 0.5757(7) 0.37514(15)
H17 H 0.4803 0.4487 0.3705
H18 H 0.4899 0.6651 0.3593
C15 C 0.3632(3) 0.5875(8) 0.36023(16)
H19 H 0.3332 0.5052 0.3780
H20 H 0.3437 0.7167 0.3637
C16 C 0.3594(4) 0.6319(8) 0.27933(17)
H21 H 0.3874 0.7485 0.2795
C17 C 0.3282(4) 0.5283(8) 0.24456(17)
H22 H 0.3312 0.5598 0.2161
C18 C 0.3006(3) 0.3739(7) 0.30135(16)
H23 H 0.2813 0.2823 0.3191
C19 C 0.2492(4) 0.2138(7) 0.23254(15)
C20 C 0.3022(4) 0.0940(7) 0.21209(17)
C21 C 0.2623(5) -0.0521(8) 0.18814(18)
H24 H 0.2954 -0.1331 0.1737
C22 C 0.1742(6) -0.0829(9) 0.18477(19)
C23 C 0.1240(5) 0.0411(10) 0.20490(19)
H25 H 0.0647 0.0230 0.2018
C24 C 0.1607(4) 0.1933(8) 0.22987(17)
C25 C 0.3974(4) 0.1206(9) 0.2160(2)
H26 H 0.4226 0.0144 0.2032
H27 H 0.4210 0.1290 0.2458
H28 H 0.4099 0.2354 0.2016
C26 C 0.1328(7) -0.2549(10) 0.1591(2)
H29 H 0.1486 -0.2533 0.1307
H30 H 0.0713 -0.2476 0.1573
H31 H 0.1528 -0.3706 0.1733
C27 C 0.1056(4) 0.3230(11) 0.2519(2)
H32 H 0.1134 0.2956 0.2820
H33 H 0.0462 0.3044 0.2402
H34 H 0.1216 0.4524 0.2475
Cl1 Cl 0.84445(14) 0.3333(3) 0.19519(6)
Cl2 Cl 0.86250(14) 0.0619(3) 0.12893(8)
Cl3 Cl 0.96421(15) 0.4029(4) 0.13566(9)
C28 C 0.8655(4) 0.3027(10) 0.1424(2)
H35 H 0.8204 0.3681 0.1232
O1 O 0.4225(3) 0.0334(7) 0.32462(15)
H36 H 0.3804 -0.0500 0.3141
H37 H 0.4266 0.0383 0.3521
O2 O 0.4958(3) 0.8439(8) 0.55333(15)
H38 H 0.5332 0.9306 0.5588
H39 H 0.4449 0.8875 0.5249
loop_
_geom_bond_atom_site_label_1
_geom_bond_atom_site_label_2
_geom_bond_site_symmetry_1
_geom_bond_site_symmetry_2
N1 C1 1_555 1_555
N2 C11 1_555 1_555
N3 C15 1_555 1_555
N4 C17 1_555 1_555
C1 C2 1_555 1_555
C2 C3 1_555 1_555
C3 H1 1_555 1_555
C4 C3 1_555 1_555
C5 C4 1_555 1_555
H2 C5 1_555 1_555
C6 C1 1_555 1_555
C7 C2 1_555 1_555
H3 C7 1_555 1_555
H4 C7 1_555 1_555
H5 C7 1_555 1_555
C8 C4 1_555 1_555
H6 C8 1_555 1_555
H7 C8 1_555 1_555
H8 C8 1_555 1_555
C9 C6 1_555 1_555
H9 C9 1_555 1_555
H10 C9 1_555 1_555
H11 C9 1_555 1_555
C10 N1 1_555 1_555
H12 C10 1_555 1_555
C11 C10 1_555 1_555
H13 C11 1_555 1_555
C12 N1 1_555 1_555
H14 C12 1_555 1_555
C13 N2 1_555 1_555
H15 C13 1_555 1_555
H16 C13 1_555 1_555
C14 C13 1_555 1_555
H17 C14 1_555 1_555
H18 C14 1_555 1_555
C15 C14 1_555 1_555
H19 C15 1_555 1_555
H20 C15 1_555 1_555
C16 N3 1_555 1_555
H21 C16 1_555 1_555
C17 C16 1_555 1_555
H22 C17 1_555 1_555
C18 N3 1_555 1_555
H23 C18 1_555 1_555
C19 N4 1_555 1_555
C20 C19 1_555 1_555
C21 C20 1_555 1_555
H24 C21 1_555 1_555
C22 C21 1_555 1_555
C23 C22 1_555 1_555
H25 C23 1_555 1_555
C24 C19 1_555 1_555
C25 C20 1_555 1_555
H26 C25 1_555 1_555
H27 C25 1_555 1_555
H28 C25 1_555 1_555
C26 C22 1_555 1_555
H29 C26 1_555 1_555
H30 C26 1_555 1_555
H31 C26 1_555 1_555
C27 C24 1_555 1_555
H32 C27 1_555 1_555
H33 C27 1_555 1_555
H34 C27 1_555 1_555
Cl1 C28 1_555 1_555
Cl2 C28 1_555 1_555
Cl3 C28 1_555 1_555
C28 H35 1_555 1_555
O1 H36 1_555 1_555
H37 O1 1_555 1_555
O2 H38 1_555 1_555
H39 O2 1_555 1_555
N2 C12 1_555 1_555
N4 C18 1_555 1_555
C5 C6 1_555 1_555
C23 C24 1_555 1_555

#END
