
#######################################################################
#
#                 Cambridge Crystallographic Data Centre
#                                CCDC 
#
#######################################################################
#
# If this CIF has been generated from an entry in the Cambridge 
# Structural Database, then it will include bibliographic, chemical, 
# crystal, experimental, refinement or atomic coordinate data resulting 
# from the CCDC's data processing and validation procedures.
#
#######################################################################

data_LOMZOC
_chemical_name_common            
(2,6,9,12,15,19,21,23,24,25-Decathia-8,13-bis(methylthio)-22-thiotetracyclo(18.3.1$7,10!.1$11,14!)pentacosa-1(20),7,10,13-tetraene)
_chemical_formula_moiety         'C17 H18 S13'
_chemical_name_systematic        
1^3^,1^6^-Dimethylthio-7^2^-thioxo-2,6,8,12-tetrathia-1(2,7)-tetrathiafulvalena-7(4,5)-2H-1,3-dithiolocyclododecaphane
_symmetry_cell_setting           monoclinic
_symmetry_space_group_name_H-M   'C 2/c'
_symmetry_Int_Tables_number      15
_space_group_name_Hall           '-C 2yn'
loop_
_symmetry_equiv_pos_site_id
_symmetry_equiv_pos_as_xyz
1 x,y,z
2 1/2+x,1/2+y,z
3 x,-y,1/2+z
4 1/2+x,1/2-y,1/2+z
5 -x,-y,-z
6 1/2-x,1/2-y,-z
7 -x,y,1/2-z
8 1/2-x,1/2+y,1/2-z
_cell_length_a                   24.272(2)
_cell_length_b                   9.203(1)
_cell_length_c                   22.790(1)
_cell_angle_alpha                90
_cell_angle_beta                 90.48(1)
_cell_angle_gamma                90
_cell_volume                     5090.54
_exptl_crystal_colour            red
_exptl_crystal_description       '14-face pinakoid'
_chemical_melting_point          453-454K
_cell_formula_units_Z            8
_exptl_crystal_recrystallization_method dichloromethane/hexane
loop_
_atom_site_label
_atom_site_type_symbol
_atom_site_fract_x
_atom_site_fract_y
_atom_site_fract_z
S1 S 0.17438(2) -0.00034(5) 0.31185(2)
S2 S 0.24662(2) 0.23704(5) 0.27292(2)
S3 S 0.17108(2) 0.14595(5) 0.44354(2)
S4 S 0.24055(2) 0.38787(5) 0.40206(2)
S5 S 0.12972(2) -0.05571(6) 0.18911(2)
S6 S 0.20766(2) 0.22755(5) 0.14708(2)
S7 S 0.12804(2) 0.31720(5) 0.54766(2)
S8 S 0.21118(2) 0.58626(5) 0.50130(2)
S9 S 0.13136(2) 0.57288(6) 0.28087(2)
S10 S 0.05226(2) 0.74987(5) 0.37658(2)
S11 S -0.00147(2) 0.12936(6) 0.40071(2)
S12 S 0.07378(2) 0.30062(5) 0.32401(2)
S13 S 0.01076(2) 0.45081(5) 0.41184(2)
C1 C 0.20957(7) 0.1606(2) 0.33119(7)
C2 C 0.17056(7) 0.0480(2) 0.23646(7)
C3 C 0.20364(7) 0.1572(2) 0.21860(8)
C4 C 0.20772(7) 0.2227(2) 0.38474(8)
C5 C 0.16875(8) 0.3092(2) 0.48429(8)
C6 C 0.20031(7) 0.4199(2) 0.46519(8)
C7 C 0.06465(9) -0.0582(3) 0.22689(10)
H1 H 0.0673(13) -0.0996(35) 0.2645(15)
H2 H 0.0394(11) -0.1125(31) 0.2031(12)
H3 H 0.0499(12) 0.0347(35) 0.2295(12)
C8 C 0.09346(9) 0.1443(2) 0.54695(9)
H4 H 0.0737(10) 0.1340(26) 0.5111(11)
H5 H 0.1190(10) 0.0675(27) 0.5534(10)
H6 H 0.0687(11) 0.1485(28) 0.5787(11)
C9 C 0.17960(8) 0.4072(2) 0.16329(8)
H7 H 0.2016(9) 0.4463(24) 0.1959(10)
H8 H 0.1859(10) 0.4680(27) 0.1285(11)
C10 C 0.11853(8) 0.4033(2) 0.17831(9)
H9 H 0.0972(10) 0.3873(27) 0.1431(11)
H10 H 0.1102(9) 0.3203(26) 0.2044(10)
C11 C 0.10020(9) 0.5443(2) 0.20793(9)
H11 H 0.0574(10) 0.5453(27) 0.2135(10)
H12 H 0.1108(11) 0.6296(30) 0.1839(11)
C12 C 0.16200(8) 0.7048(2) 0.46299(9)
H13 H 0.1620(10) 0.6863(26) 0.4197(11)
H14 H 0.1749(11) 0.8013(29) 0.4714(11)
C13 C 0.10375(8) 0.6823(2) 0.48601(9)
H15 H 0.0948(10) 0.5807(29) 0.4822(11)
H16 H 0.1022(10) 0.7035(28) 0.5291(11)
C14 C 0.05896(9) 0.7721(2) 0.45622(9)
H17 H 0.0659(10) 0.8718(27) 0.4601(10)
H18 H 0.0224(11) 0.7520(27) 0.4725(11)
C15 C 0.02621(8) 0.2844(2) 0.37973(8)
C16 C 0.08258(8) 0.4897(2) 0.32678(8)
C17 C 0.05338(7) 0.5601(2) 0.36828(8)
loop_
_geom_bond_atom_site_label_1
_geom_bond_atom_site_label_2
_geom_bond_site_symmetry_1
_geom_bond_site_symmetry_2
S1 C1 1_555 1_555
S2 C1 1_555 1_555
S3 C4 1_555 1_555
S4 C4 1_555 1_555
S5 C2 1_555 1_555
S6 C3 1_555 1_555
S7 C5 1_555 1_555
S8 C6 1_555 1_555
S9 C11 1_555 1_555
S10 C14 1_555 1_555
S11 C15 1_555 1_555
S12 C15 1_555 1_555
S13 C15 1_555 1_555
C1 C4 1_555 1_555
C2 S1 1_555 1_555
C3 S2 1_555 1_555
C5 S3 1_555 1_555
C6 S4 1_555 1_555
C7 S5 1_555 1_555
H1 C7 1_555 1_555
H2 C7 1_555 1_555
H3 C7 1_555 1_555
C8 S7 1_555 1_555
H4 C8 1_555 1_555
H5 C8 1_555 1_555
H6 C8 1_555 1_555
C9 S6 1_555 1_555
H7 C9 1_555 1_555
H8 C9 1_555 1_555
C10 C9 1_555 1_555
H9 C10 1_555 1_555
H10 C10 1_555 1_555
C11 C10 1_555 1_555
H11 C11 1_555 1_555
H12 C11 1_555 1_555
C12 S8 1_555 1_555
H13 C12 1_555 1_555
H14 C12 1_555 1_555
C13 C12 1_555 1_555
H15 C13 1_555 1_555
H16 C13 1_555 1_555
C14 C13 1_555 1_555
H17 C14 1_555 1_555
H18 C14 1_555 1_555
C16 S9 1_555 1_555
C17 S10 1_555 1_555
S12 C16 1_555 1_555
S13 C17 1_555 1_555
C2 C3 1_555 1_555
C5 C6 1_555 1_555
C16 C17 1_555 1_555

#END
