
#######################################################################
#
#                 Cambridge Crystallographic Data Centre
#                                CCDC 
#
#######################################################################
#
# If this CIF has been generated from an entry in the Cambridge 
# Structural Database, then it will include bibliographic, chemical, 
# crystal, experimental, refinement or atomic coordinate data resulting 
# from the CCDC's data processing and validation procedures.
#
#######################################################################

data_LONBEW
_chemical_formula_moiety         'C42 H48 N6'
_chemical_name_systematic        
1,3,5-tris((S)-4-Isopropyl-1-phenyl-4,5-dihydro-1H-imidazol-2-yl)benzene
_symmetry_cell_setting           rhombohedral
_symmetry_space_group_name_H-M   'R 3'
_symmetry_Int_Tables_number      146
_space_group_name_Hall           'R 3'
loop_
_symmetry_equiv_pos_site_id
_symmetry_equiv_pos_as_xyz
1 x,y,z
2 -y,x-y,z
3 -x+y,-x,z
4 2/3+x,1/3+y,1/3+z
5 2/3-y,1/3+x-y,1/3+z
6 2/3-x+y,1/3-x,1/3+z
7 1/3+x,2/3+y,2/3+z
8 1/3-y,2/3+x-y,2/3+z
9 1/3-x+y,2/3-x,2/3+z
_cell_length_a                   16.6295(13)
_cell_length_b                   16.6295(13)
_cell_length_c                   11.7490(13)
_cell_angle_alpha                90
_cell_angle_beta                 90
_cell_angle_gamma                120
_cell_volume                     2813.78
_exptl_crystal_colour            colorless
_exptl_crystal_description       parallelepiped
_chemical_melting_point          '232-234 deg.C'
_cell_formula_units_Z            3
_exptl_crystal_recrystallization_method 'ethyl acetate'
loop_
_atom_site_label
_atom_site_type_symbol
_atom_site_fract_x
_atom_site_fract_y
_atom_site_fract_z
N1 N 0.11669(10) -0.13538(9) 1.02615(13)
N2 N -0.00083(10) -0.22427(10) 0.90734(15)
C1 C 0.09235(10) 0.02260(11) 0.96716(14)
H1 H 0.1543 0.0377 0.9665
C2 C 0.02252(10) -0.07015(10) 0.96761(13)
C3 C 0.04935(10) -0.14271(11) 0.96717(14)
C4 C 0.12597(12) -0.21734(12) 1.00219(17)
H2 H 0.1222 -0.2488 1.0742
C5 C 0.22033(14) -0.18714(15) 0.9471(2)
H3 H 0.2678 -0.1420 0.9987
C6 C 0.2373(2) -0.2684(2) 0.9372(3)
H4 H 0.2967 -0.2479 0.9025
H5 H 0.1895 -0.3161 0.8913
H6 H 0.2364 -0.2926 1.0117
C7 C 0.2321(2) -0.13776(19) 0.8334(3)
H7 H 0.2920 -0.1201 0.8021
H8 H 0.2270 -0.0833 0.8451
H9 H 0.1846 -0.1788 0.7816
C8 C 0.04159(12) -0.28159(12) 0.92869(18)
H10 H 0.0605 -0.2978 0.8582
H11 H -0.0006 -0.3380 0.9693
C9 C -0.05781(13) -0.23964(14) 0.81112(17)
C10 C -0.13482(15) -0.3269(2) 0.7969(3)
H12 H -0.1490 -0.3728 0.8511
C11 C -0.1905(2) -0.3457(3) 0.7023(4)
H13 H -0.2406 -0.4052 0.6912
C12 C -0.1728(3) -0.2774(5) 0.6246(4)
H14 H -0.2122 -0.2894 0.5628
C13 C -0.0971(3) -0.1919(3) 0.6387(3)
H15 H -0.0848 -0.1456 0.5858
C14 C -0.0375(2) -0.1725(2) 0.73118(19)
H16 H 0.0155 -0.1144 0.7383
N1A N 0.13538(9) 0.25207(13) 1.02615(13)
N1B N -0.25207(13) -0.11669(10) 1.02615(13)
N2A N 0.22427(10) 0.22344(14) 0.90734(15)
N2B N -0.22344(14) 0.00083(10) 0.90734(15)
C1A C -0.02260(11) 0.06975(15) 0.96716(14)
C1B C -0.06975(15) -0.09235(10) 0.96716(14)
H1A H -0.0377 0.1166 0.9665
H1B H -0.1166 -0.1543 0.9665
C2A C 0.07015(10) 0.09267(14) 0.96761(13)
C2B C -0.09267(14) -0.02252(10) 0.96761(13)
C3A C 0.14271(11) 0.19206(15) 0.96717(14)
C3B C -0.19206(15) -0.04935(10) 0.96717(14)
C4A C 0.21734(12) 0.34331(17) 1.00219(17)
C4B C -0.34331(17) -0.12597(12) 1.00219(17)
H2A H 0.2488 0.3710 1.0742
H2B H -0.3710 -0.1222 1.0742
C5A C 0.18714(15) 0.40747(21) 0.9471(2)
C5B C -0.40747(21) -0.22033(14) 0.9471(2)
H3A H 0.1420 0.4098 0.9987
H3B H -0.4098 -0.2678 0.9987
C6A C 0.2684(2) 0.5057(3) 0.9372(3)
C6B C -0.5057(3) -0.2373(2) 0.9372(3)
H4A H 0.2479 0.5446 0.9025
H4B H -0.5446 -0.2967 0.9025
H5A H 0.3161 0.5056 0.8913
H5B H -0.5056 -0.1895 0.8913
H6A H 0.2926 0.5290 1.0117
H6B H -0.5290 -0.2364 1.0117
C7A C 0.13776(19) 0.36986(28) 0.8334(3)
C7B C -0.36986(28) -0.2321(2) 0.8334(3)
H7A H 0.1201 0.4121 0.8021
H7B H -0.4121 -0.2920 0.8021
H8A H 0.0833 0.3103 0.8451
H8B H -0.3103 -0.2270 0.8451
H9A H 0.1788 0.3634 0.7816
H9B H -0.3634 -0.1846 0.7816
C8A C 0.28159(12) 0.32318(17) 0.92869(18)
C8B C -0.32318(17) -0.04159(12) 0.92869(18)
H10A H 0.2978 0.3583 0.8582
H10B H -0.3583 -0.0605 0.8582
H11A H 0.3380 0.3374 0.9693
H11B H -0.3374 0.0006 0.9693
C9A C 0.23964(14) 0.18183(19) 0.81112(17)
C9B C -0.18183(19) 0.05781(13) 0.81112(17)
C10A C 0.3269(2) 0.19208(25) 0.7969(3)
C10B C -0.19208(25) 0.13482(15) 0.7969(3)
H12A H 0.3728 0.2238 0.8511
H12B H -0.2238 0.1490 0.8511
C11A C 0.3457(3) 0.1552(4) 0.7023(4)
C11B C -0.1552(4) 0.1905(2) 0.7023(4)
H13A H 0.4052 0.1646 0.6912
H13B H -0.1646 0.2406 0.6912
C12A C 0.2774(5) 0.1046(6) 0.6246(4)
C12B C -0.1046(6) 0.1728(3) 0.6246(4)
H14A H 0.2894 0.0772 0.5628
H14B H -0.0772 0.2122 0.5628
C13A C 0.1919(3) 0.0948(4) 0.6387(3)
C13B C -0.0948(4) 0.0971(3) 0.6387(3)
H15A H 0.1456 0.0608 0.5858
H15B H -0.0608 0.0848 0.5858
C14A C 0.1725(2) 0.1350(3) 0.73118(19)
C14B C -0.1350(3) 0.0375(2) 0.73118(19)
H16A H 0.1144 0.1299 0.7383
H16B H -0.1299 -0.0155 0.7383
loop_
_geom_bond_atom_site_label_1
_geom_bond_atom_site_label_2
_geom_bond_site_symmetry_1
_geom_bond_site_symmetry_2
N1 C3 1_555 1_555
N2 C3 1_555 1_555
C1 H1 1_555 1_555
C2 C1 1_555 1_555
C3 C2 1_555 1_555
C4 N1 1_555 1_555
H2 C4 1_555 1_555
C5 C4 1_555 1_555
H3 C5 1_555 1_555
C6 C5 1_555 1_555
H4 C6 1_555 1_555
H5 C6 1_555 1_555
H6 C6 1_555 1_555
C7 C5 1_555 1_555
H7 C7 1_555 1_555
H8 C7 1_555 1_555
H9 C7 1_555 1_555
C8 N2 1_555 1_555
H10 C8 1_555 1_555
H11 C8 1_555 1_555
C9 N2 1_555 1_555
C10 C9 1_555 1_555
H12 C10 1_555 1_555
C11 C10 1_555 1_555
H13 C11 1_555 1_555
C12 C11 1_555 1_555
H14 C12 1_555 1_555
C13 C12 1_555 1_555
H15 C13 1_555 1_555
C14 C9 1_555 1_555
H16 C14 1_555 1_555
N1A C3A 1_555 1_555
N1B C3B 1_555 1_555
N2A C3A 1_555 1_555
N2B C3B 1_555 1_555
C1A H1A 1_555 1_555
C1B C2 1_555 1_555
H1B C1B 1_555 1_555
C2A C1 1_555 1_555
C2B C1A 1_555 1_555
C3A C2A 1_555 1_555
C3B C2B 1_555 1_555
C4A N1A 1_555 1_555
C4B N1B 1_555 1_555
H2A C4A 1_555 1_555
H2B C4B 1_555 1_555
C5A C4A 1_555 1_555
C5B C4B 1_555 1_555
H3A C5A 1_555 1_555
H3B C5B 1_555 1_555
C6A C5A 1_555 1_555
C6B C5B 1_555 1_555
H4A C6A 1_555 1_555
H4B C6B 1_555 1_555
H5A C6A 1_555 1_555
H5B C6B 1_555 1_555
H6A C6A 1_555 1_555
H6B C6B 1_555 1_555
C7A C5A 1_555 1_555
C7B C5B 1_555 1_555
H7A C7A 1_555 1_555
H7B C7B 1_555 1_555
H8A C7A 1_555 1_555
H8B C7B 1_555 1_555
H9A C7A 1_555 1_555
H9B C7B 1_555 1_555
C8A N2A 1_555 1_555
C8B N2B 1_555 1_555
H10A C8A 1_555 1_555
H10B C8B 1_555 1_555
H11A C8A 1_555 1_555
H11B C8B 1_555 1_555
C9A N2A 1_555 1_555
C9B N2B 1_555 1_555
C10A C9A 1_555 1_555
C10B C9B 1_555 1_555
H12A C10A 1_555 1_555
H12B C10B 1_555 1_555
C11A C10A 1_555 1_555
C11B C10B 1_555 1_555
H13A C11A 1_555 1_555
H13B C11B 1_555 1_555
C12A C11A 1_555 1_555
C12B C11B 1_555 1_555
H14A C12A 1_555 1_555
H14B C12B 1_555 1_555
C13A C12A 1_555 1_555
C13B C12B 1_555 1_555
H15A C13A 1_555 1_555
H15B C13B 1_555 1_555
C14A C9A 1_555 1_555
C14B C9B 1_555 1_555
H16A C14A 1_555 1_555
H16B C14B 1_555 1_555
C4 C8 1_555 1_555
C13 C14 1_555 1_555
C1A C2A 1_555 1_555
C1B C2B 1_555 1_555
C4A C8A 1_555 1_555
C4B C8B 1_555 1_555
C13A C14A 1_555 1_555
C13B C14B 1_555 1_555

#END
