
#######################################################################
#
#                 Cambridge Crystallographic Data Centre
#                                CCDC 
#
#######################################################################
#
# If this CIF has been generated from an entry in the Cambridge 
# Structural Database, then it will include bibliographic, chemical, 
# crystal, experimental, refinement or atomic coordinate data resulting 
# from the CCDC's data processing and validation procedures.
#
#######################################################################

data_LONHUT
_chemical_formula_moiety         'C37 H41 B1 F2 N6 O1,C1 H2 Cl2'
_chemical_name_systematic        
"N-(4-(2,8-diethyl-5,5-difluoro-1,3,7,9-tetramethyl-5H-6,5-dipyrrolo[1,2-c:2',1'-f][1,3,2]diazaborinin-10-yl)phenyl)-N^2^,N^2^-bis(pyridin-2-ylmethyl)glycinamide dichloromethane solvate"
_symmetry_cell_setting           orthorhombic
_symmetry_space_group_name_H-M   'P 21 21 21'
_symmetry_Int_Tables_number      19
_space_group_name_Hall           'P 2ac 2ab'
loop_
_symmetry_equiv_pos_site_id
_symmetry_equiv_pos_as_xyz
1 x,y,z
2 1/2-x,-y,1/2+z
3 -x,1/2+y,1/2-z
4 1/2+x,1/2-y,-z
_cell_length_a                   11.169(2)
_cell_length_b                   12.381(2)
_cell_length_c                   26.228(5)
_cell_angle_alpha                90
_cell_angle_beta                 90
_cell_angle_gamma                90
_cell_volume                     3626.9
_exptl_crystal_colour            colorless
_exptl_crystal_description       Prism
_cell_formula_units_Z            4
loop_
_atom_site_label
_atom_site_type_symbol
_atom_site_fract_x
_atom_site_fract_y
_atom_site_fract_z
F1 F -0.2650(2) 0.8428(3) 1.03584(9)
F2 F -0.2959(2) 1.0066(2) 0.99877(10)
O1 O 0.2394(3) 0.4965(3) 0.76412(13)
B1 B -0.2426(4) 0.9052(5) 0.99242(18)
N1 N 0.5900(3) 0.6642(3) 0.60386(16)
N2 N 0.0794(3) 0.7878(3) 0.64209(13)
N3 N 0.2791(3) 0.6357(3) 0.64417(13)
N4 N 0.1852(3) 0.6665(3) 0.73875(12)
H1 H 0.174(4) 0.711(3) 0.7125(11)
N5 N -0.1067(3) 0.9207(3) 0.98528(13)
N6 N -0.2911(3) 0.8509(3) 0.94443(13)
C1 C 0.6926(4) 0.7126(5) 0.6199(2)
H2 H 0.7649 0.6936 0.6031
C2 C 0.6989(4) 0.7867(5) 0.6586(2)
H3 H 0.7737 0.8164 0.6686
C3 C 0.5954(5) 0.8172(5) 0.68259(18)
H4 H 0.5966 0.8684 0.7096
C4 C 0.4872(4) 0.7707(4) 0.66614(17)
H5 H 0.4136 0.7902 0.6818
C5 C 0.4893(4) 0.6961(4) 0.62688(15)
C6 C 0.3751(4) 0.6471(4) 0.60545(17)
H6 H 0.3456 0.6932 0.5773
H7 H 0.3936 0.5750 0.5911
C7 C 0.1648(4) 0.6145(3) 0.61941(16)
H8 H 0.1136 0.5721 0.6428
H9 H 0.1789 0.5703 0.5885
C8 C 0.0999(3) 0.7162(3) 0.60448(15)
C9 C 0.0561(5) 0.7347(4) 0.5553(2)
H10 H 0.0729 0.6849 0.5288
C10 C -0.0111(5) 0.8248(4) 0.5455(2)
H11 H -0.0413 0.8376 0.5122
C11 C -0.0348(4) 0.8967(4) 0.58423(19)
H12 H -0.0827 0.9590 0.5787
C12 C 0.0144(4) 0.8745(4) 0.63187(18)
H13 H 0.0004 0.9245 0.6587
C13 C 0.3083(4) 0.5553(3) 0.68299(16)
H14 H 0.3952 0.5588 0.6901
H15 H 0.2907 0.4826 0.6692
C14 C 0.2406(4) 0.5693(3) 0.73291(16)
C15 C 0.1153(3) 0.7020(3) 0.78063(14)
C16 C 0.0455(4) 0.7954(4) 0.77368(15)
H16 H 0.0462 0.8313 0.7417
C17 C -0.0227(4) 0.8348(4) 0.81220(17)
H17 H -0.0707 0.8969 0.8064
C18 C -0.0239(4) 0.7862(4) 0.86007(15)
C19 C 0.0472(3) 0.6945(3) 0.86756(15)
H18 H 0.0475 0.6601 0.8999
C20 C 0.1176(3) 0.6531(3) 0.82836(15)
H19 H 0.1669 0.5918 0.8342
C21 C -0.0977(4) 0.8288(3) 0.90322(15)
C22 C -0.0401(4) 0.8844(3) 0.94243(14)
C23 C 0.0809(4) 0.9245(4) 0.94857(17)
C24 C 0.0841(4) 0.9814(4) 0.99408(18)
C25 C -0.0321(4) 0.9759(4) 1.01593(18)
C26 C -0.0733(6) 1.0265(5) 1.06476(19)
H20 H -0.1205 1.0913 1.0572
H21 H -0.0036 1.0464 1.0854
H22 H -0.1228 0.9749 1.0837
C27 C 0.1826(4) 0.9111(4) 0.91193(18)
H23 H 0.2516 0.9531 0.9238
H24 H 0.1583 0.9369 0.8782
H25 H 0.2046 0.8346 0.9098
C28 C 0.1900(5) 1.0364(5) 1.0184(2)
H26 H 0.1633 1.1041 1.0349
H27 H 0.2491 1.0554 0.9917
C29 C 0.2489(6) 0.9643(6) 1.0577(3)
H28 H 0.1901 0.9445 1.0838
H29 H 0.3157 1.0029 1.0736
H30 H 0.2788 0.8988 1.0411
C30 C -0.2212(4) 0.8143(4) 0.90339(15)
C31 C -0.3012(4) 0.7646(4) 0.86747(18)
C32 C -0.4152(4) 0.7723(4) 0.88786(19)
C33 C -0.4064(4) 0.8255(4) 0.93508(16)
C34 C -0.5065(4) 0.8539(5) 0.97070(19)
H31 H -0.4795 0.8450 1.0060
H32 H -0.5749 0.8061 0.9643
H33 H -0.5306 0.9290 0.9651
C35 C -0.2726(5) 0.7134(7) 0.8177(2)
H34 H -0.3442 0.6775 0.8042
H35 H -0.2088 0.6599 0.8224
H36 H -0.2458 0.7688 0.7936
C36 C -0.5303(5) 0.7359(6) 0.8630(2)
H37 H -0.5917 0.7235 0.8896
H38 H -0.5164 0.6667 0.8450
C37 C -0.5763(5) 0.8198(7) 0.8251(2)
H39 H -0.5765 0.8912 0.8412
H40 H -0.6579 0.8010 0.8146
H41 H -0.5241 0.8211 0.7951
Cl1 Cl 0.60826(18) 0.41420(16) 0.21834(9)
Cl2 Cl 0.7753(3) 0.54521(18) 0.27776(10)
C38 C 0.7496(10) 0.4711(8) 0.2213(3)
H42 H 0.7604 0.5197 0.1916
H43 H 0.8101 0.4130 0.2187
loop_
_geom_bond_atom_site_label_1
_geom_bond_atom_site_label_2
_geom_bond_site_symmetry_1
_geom_bond_site_symmetry_2
F1 B1 1_555 1_555
F2 B1 1_555 1_555
O1 C14 1_555 1_555
B1 N5 1_555 1_555
N1 C1 1_555 1_555
N2 C8 1_555 1_555
N3 C6 1_555 1_555
N4 H1 1_555 1_555
N5 C22 1_555 1_555
N6 B1 1_555 1_555
C1 H2 1_555 1_555
C2 C1 1_555 1_555
H3 C2 1_555 1_555
C3 C2 1_555 1_555
H4 C3 1_555 1_555
C4 C3 1_555 1_555
H5 C4 1_555 1_555
C5 N1 1_555 1_555
C6 C5 1_555 1_555
H6 C6 1_555 1_555
H7 C6 1_555 1_555
C7 N3 1_555 1_555
H8 C7 1_555 1_555
H9 C7 1_555 1_555
C8 C7 1_555 1_555
C9 C8 1_555 1_555
H10 C9 1_555 1_555
C10 C9 1_555 1_555
H11 C10 1_555 1_555
C11 C10 1_555 1_555
H12 C11 1_555 1_555
C12 N2 1_555 1_555
H13 C12 1_555 1_555
C13 N3 1_555 1_555
H14 C13 1_555 1_555
H15 C13 1_555 1_555
C14 N4 1_555 1_555
C15 N4 1_555 1_555
C16 C15 1_555 1_555
H16 C16 1_555 1_555
C17 C16 1_555 1_555
H17 C17 1_555 1_555
C18 C17 1_555 1_555
C19 C18 1_555 1_555
H18 C19 1_555 1_555
C20 C15 1_555 1_555
H19 C20 1_555 1_555
C21 C18 1_555 1_555
C22 C21 1_555 1_555
C23 C22 1_555 1_555
C24 C23 1_555 1_555
C25 N5 1_555 1_555
C26 C25 1_555 1_555
H20 C26 1_555 1_555
H21 C26 1_555 1_555
H22 C26 1_555 1_555
C27 C23 1_555 1_555
H23 C27 1_555 1_555
H24 C27 1_555 1_555
H25 C27 1_555 1_555
C28 C24 1_555 1_555
H26 C28 1_555 1_555
H27 C28 1_555 1_555
C29 C28 1_555 1_555
H28 C29 1_555 1_555
H29 C29 1_555 1_555
H30 C29 1_555 1_555
C30 N6 1_555 1_555
C31 C30 1_555 1_555
C32 C31 1_555 1_555
C33 N6 1_555 1_555
C34 C33 1_555 1_555
H31 C34 1_555 1_555
H32 C34 1_555 1_555
H33 C34 1_555 1_555
C35 C31 1_555 1_555
H34 C35 1_555 1_555
H35 C35 1_555 1_555
H36 C35 1_555 1_555
C36 C32 1_555 1_555
H37 C36 1_555 1_555
H38 C36 1_555 1_555
C37 C36 1_555 1_555
H39 C37 1_555 1_555
H40 C37 1_555 1_555
H41 C37 1_555 1_555
Cl1 C38 1_555 1_555
Cl2 C38 1_555 1_555
C38 H42 1_555 1_555
H43 C38 1_555 1_555
C4 C5 1_555 1_555
C11 C12 1_555 1_555
C13 C14 1_555 1_555
C19 C20 1_555 1_555
C21 C30 1_555 1_555
C24 C25 1_555 1_555
C32 C33 1_555 1_555

#END
