
#######################################################################
#
#                 Cambridge Crystallographic Data Centre
#                                CCDC 
#
#######################################################################
#
# If this CIF has been generated from an entry in the Cambridge 
# Structural Database, then it will include bibliographic, chemical, 
# crystal, experimental, refinement or atomic coordinate data resulting 
# from the CCDC's data processing and validation procedures.
#
#######################################################################

data_LONKEF
_chemical_formula_moiety         'C24 H14 N2 O8 S4,2(C4 H8 O1)'
_chemical_name_systematic        
'5,17-Dinitro-25,26,27,28-tetrahydroxy-2,8,14,20-tetrathiacalix(4)arene tetrahydrofuran solvate'
_symmetry_cell_setting           orthorhombic
_symmetry_space_group_name_H-M   'P b c n'
_symmetry_Int_Tables_number      60
_space_group_name_Hall           '-P 2n 2ab'
loop_
_symmetry_equiv_pos_site_id
_symmetry_equiv_pos_as_xyz
1 x,y,z
2 1/2-x,1/2-y,1/2+z
3 -x,y,1/2-z
4 1/2+x,1/2-y,-z
5 -x,-y,-z
6 1/2+x,1/2+y,1/2-z
7 x,-y,1/2+z
8 1/2-x,1/2+y,z
_cell_length_a                   14.7427(14)
_cell_length_b                   18.8971(18)
_cell_length_c                   11.8151(18)
_cell_angle_alpha                90
_cell_angle_beta                 90
_cell_angle_gamma                90
_cell_volume                     3291.62
_exptl_crystal_colour            yellow
_exptl_crystal_description       prism
_cell_formula_units_Z            4
_exptl_crystal_recrystallization_method THF
loop_
_atom_site_label
_atom_site_type_symbol
_atom_site_fract_x
_atom_site_fract_y
_atom_site_fract_z
S1 S 0.23554(6) 0.25960(5) 0.75229(7)
S2 S 0.49755(6) 0.24527(5) 0.41913(7)
O1 O 0.39837(16) 0.20299(13) 0.6346(2)
H1 H 0.4513 0.1967 0.6160
O2 O 0.59044(18) 0.20785(14) 0.6334(2)
H2 H 0.6032 0.2076 0.7009
O3 O 0.8156(2) 0.46539(17) 0.4568(3)
O4 O 0.7264(3) 0.4491(2) 0.3161(3)
N1 N 0.7531(3) 0.4345(2) 0.4115(3)
C1 C 0.2923(2) 0.2972(2) 0.6334(3)
C2 C 0.3667(2) 0.26307(18) 0.5854(3)
C3 C 0.4057(2) 0.28964(19) 0.4857(3)
C4 C 0.3682(2) 0.3496(2) 0.4362(3)
H3 H 0.3939 0.3677 0.3704
C5 C 0.2939(3) 0.3825(2) 0.4823(3)
H4 H 0.2688 0.4219 0.4469
C6 C 0.2564(2) 0.3569(2) 0.5814(3)
H5 H 0.2069 0.3798 0.6135
C7 C 0.5926(2) 0.28870(19) 0.4816(3)
C8 C 0.6302(2) 0.26380(19) 0.5831(3)
C9 C 0.7079(2) 0.29630(19) 0.6282(3)
C10 C 0.7468(2) 0.3529(2) 0.5720(3)
H6 H 0.7979 0.3751 0.6014
C11 C 0.7089(2) 0.37617(19) 0.4717(3)
C12 C 0.6328(2) 0.34519(19) 0.4267(3)
H7 H 0.6084 0.3621 0.3594
S1B S 0.76446(6) 0.25960(5) 0.74771(7)
S2B S 0.50245(6) 0.24527(5) 1.08087(7)
O1B O 0.60163(16) 0.20299(13) 0.8654(2)
H1B H 0.5487 0.1967 0.8840
O2B O 0.40956(18) 0.20785(14) 0.8666(2)
H2B H 0.3968 0.2076 0.7991
O3B O 0.1844(2) 0.46539(17) 1.0432(3)
O4B O 0.2736(3) 0.4491(2) 1.1839(3)
N1B N 0.2469(3) 0.4345(2) 1.0885(3)
C1B C 0.7077(2) 0.2972(2) 0.8666(3)
C2B C 0.6333(2) 0.26307(18) 0.9146(3)
C3B C 0.5943(2) 0.28964(19) 1.0143(3)
C4B C 0.6318(2) 0.3496(2) 1.0638(3)
H3B H 0.6061 0.3677 1.1296
C5B C 0.7061(3) 0.3825(2) 1.0177(3)
H4B H 0.7312 0.4219 1.0531
C6B C 0.7436(2) 0.3569(2) 0.9186(3)
H5B H 0.7931 0.3798 0.8865
C7B C 0.4074(2) 0.28870(19) 1.0184(3)
C8B C 0.3698(2) 0.26380(19) 0.9169(3)
C9B C 0.2921(2) 0.29630(19) 0.8718(3)
C10B C 0.2532(2) 0.3529(2) 0.9280(3)
H6B H 0.2021 0.3751 0.8986
C11B C 0.2911(2) 0.37617(19) 1.0283(3)
C12B C 0.3672(2) 0.34519(19) 1.0733(3)
H7B H 0.3916 0.3621 1.1406
O5 O 0.5000 0.4597(2) 0.2500
C13 C 0.4891(6) 0.5036(3) 0.3419(5)
H8 H 0.5371 0.4948 0.3963
H9 H 0.4315 0.4935 0.3783
C14 C 0.4913(6) 0.5740(3) 0.3089(5)
H10 H 0.5375 0.5996 0.3490
H11 H 0.4338 0.5958 0.3238
C13B C 0.5109(6) 0.5036(3) 0.1581(5)
H8B H 0.4629 0.4948 0.1037
H9B H 0.5685 0.4935 0.1217
C14B C 0.5087(6) 0.5740(3) 0.1911(5)
H10B H 0.4625 0.5996 0.1510
H11B H 0.5662 0.5958 0.1762
O6 O 1.0000 0.4214(3) 0.2500
C15 C 0.9593(5) 0.4634(3) 0.1711(6)
H12 H 0.8956 0.4511 0.1653
H13 H 0.9872 0.4557 0.0978
C16 C 0.9682(6) 0.5370(3) 0.2027(6)
H14 H 0.9109 0.5551 0.2285
H15 H 0.9888 0.5653 0.1403
C15B C 1.0407(5) 0.4634(3) 0.3289(6)
H12B H 1.1044 0.4511 0.3347
H13B H 1.0128 0.4557 0.4022
C16B C 1.0318(6) 0.5370(3) 0.2973(6)
H14B H 1.0891 0.5551 0.2715
H15B H 1.0112 0.5653 0.3597
loop_
_geom_bond_atom_site_label_1
_geom_bond_atom_site_label_2
_geom_bond_site_symmetry_1
_geom_bond_site_symmetry_2
S1 C1 1_555 1_555
S2 C3 1_555 1_555
O1 H1 1_555 1_555
O2 H2 1_555 1_555
O3 N1 1_555 1_555
O4 N1 1_555 1_555
N1 C11 1_555 1_555
C1 C2 1_555 1_555
C2 O1 1_555 1_555
C3 C2 1_555 1_555
C4 C3 1_555 1_555
H3 C4 1_555 1_555
C5 C4 1_555 1_555
H4 C5 1_555 1_555
C6 C1 1_555 1_555
H5 C6 1_555 1_555
C7 S2 1_555 1_555
C8 O2 1_555 1_555
C9 C8 1_555 1_555
C10 C9 1_555 1_555
H6 C10 1_555 1_555
C11 C10 1_555 1_555
C12 C7 1_555 1_555
H7 C12 1_555 1_555
O5 C13 1_555 1_555
C13 H8 1_555 1_555
H9 C13 1_555 1_555
C14 C13 1_555 1_555
H10 C14 1_555 1_555
H11 C14 1_555 1_555
O6 C15 1_555 1_555
C15 H12 1_555 1_555
H13 C15 1_555 1_555
C16 C15 1_555 1_555
H14 C16 1_555 1_555
H15 C16 1_555 1_555
S1B C9 1_555 1_555
S2B C3B 1_555 1_555
O1B H1B 1_555 1_555
O2B H2B 1_555 1_555
O3B N1B 1_555 1_555
O4B N1B 1_555 1_555
N1B C11B 1_555 1_555
C1B S1B 1_555 1_555
C2B O1B 1_555 1_555
C3B C2B 1_555 1_555
C4B C3B 1_555 1_555
H3B C4B 1_555 1_555
C5B C4B 1_555 1_555
H4B C5B 1_555 1_555
C6B C1B 1_555 1_555
H5B C6B 1_555 1_555
C7B S2B 1_555 1_555
C8B O2B 1_555 1_555
C9B S1 1_555 1_555
C10B C9B 1_555 1_555
H6B C10B 1_555 1_555
C11B C10B 1_555 1_555
C12B C7B 1_555 1_555
H7B C12B 1_555 1_555
C13B O5 1_555 1_555
H8B C13B 1_555 1_555
H9B C13B 1_555 1_555
C14B C14 1_555 1_555
H10B C14B 1_555 1_555
H11B C14B 1_555 1_555
C15B O6 1_555 1_555
H12B C15B 1_555 1_555
H13B C15B 1_555 1_555
C16B C16 1_555 1_555
H14B C16B 1_555 1_555
H15B C16B 1_555 1_555
C5 C6 1_555 1_555
C7 C8 1_555 1_555
C11 C12 1_555 1_555
C1B C2B 1_555 1_555
C5B C6B 1_555 1_555
C7B C8B 1_555 1_555
C8B C9B 1_555 1_555
C11B C12B 1_555 1_555
C13B C14B 1_555 1_555
C15B C16B 1_555 1_555

#END
