
#######################################################################
#
#                 Cambridge Crystallographic Data Centre
#                                CCDC 
#
#######################################################################
#
# If this CIF has been generated from an entry in the Cambridge 
# Structural Database, then it will include bibliographic, chemical, 
# crystal, experimental, refinement or atomic coordinate data resulting 
# from the CCDC's data processing and validation procedures.
#
#######################################################################

data_LONLOQ
_chemical_formula_moiety         'C27 H16 O2'
_chemical_name_systematic        '8-(1-Pyrenyl)-1-naphthoic acid'
_chemical_properties_biological  'fluorescent receptor for 9-butyladenine'
_symmetry_cell_setting           monoclinic
_symmetry_space_group_name_H-M   'P 21/n'
_symmetry_Int_Tables_number      14
_space_group_name_Hall           '-P 2yn'
loop_
_symmetry_equiv_pos_site_id
_symmetry_equiv_pos_as_xyz
1 x,y,z
2 1/2-x,1/2+y,1/2-z
3 -x,-y,-z
4 1/2+x,1/2-y,1/2+z
_cell_length_a                   12.742(3)
_cell_length_b                   11.796(3)
_cell_length_c                   13.476(3)
_cell_angle_alpha                90
_cell_angle_beta                 114.070(5)
_cell_angle_gamma                90
_cell_volume                     1849.38
_exptl_crystal_colour            yellow
_exptl_crystal_description       prism
_chemical_melting_point          'decomposes above 260 deg.C'
_cell_formula_units_Z            4
loop_
_atom_site_label
_atom_site_type_symbol
_atom_site_fract_x
_atom_site_fract_y
_atom_site_fract_z
O1 O 0.9838(2) 0.8498(2) -0.0454(2)
H1 H 0.9641 0.9147 -0.0669
O2 O 1.0949(2) 0.9405(2) 0.1072(2)
C1 C 1.1005(4) 0.7388(3) 0.1043(3)
C2 C 1.2174(4) 0.7253(4) 0.1402(3)
H2 H 1.2622 0.7873 0.1397
C3 C 1.2713(4) 0.6195(5) 0.1777(4)
H3 H 1.3506 0.6120 0.2031
C4 C 1.2047(5) 0.5299(4) 0.1758(4)
H4 H 1.2394 0.4594 0.1968
C5 C 1.0195(5) 0.4429(4) 0.1453(4)
H5 H 1.0546 0.3724 0.1646
C6 C 0.9051(6) 0.4521(4) 0.1191(4)
H6 H 0.8625 0.3880 0.1188
C7 C 0.8514(4) 0.5575(4) 0.0926(4)
H7 H 0.7736 0.5631 0.0778
C8 C 0.9109(4) 0.6546(3) 0.0877(3)
C9 C 1.0307(4) 0.6470(3) 0.1099(3)
C10 C 1.0866(4) 0.5381(4) 0.1439(3)
C11 C 1.0572(4) 0.8524(4) 0.0557(4)
C12 C 0.8452(3) 0.7647(3) 0.0645(4)
C13 C 0.7533(4) 0.7812(4) -0.0344(4)
H8 H 0.7346 0.7245 -0.0868
C14 C 0.6883(4) 0.8791(4) -0.0579(4)
H9 H 0.6268 0.8872 -0.1250
C15 C 0.7147(4) 0.9664(3) 0.0192(4)
C16 C 0.6506(4) 1.0705(4) -0.0024(4)
H10 H 0.5893 1.0811 -0.0694
C17 C 0.6778(4) 1.1528(4) 0.0729(4)
H11 H 0.6336 1.2185 0.0568
C18 C 0.7717(4) 1.1433(3) 0.1763(4)
C19 C 0.8040(4) 1.2295(4) 0.2527(4)
H12 H 0.7641 1.2978 0.2366
C20 C 0.8943(4) 1.2152(4) 0.3523(4)
H13 H 0.9138 1.2737 0.4030
C21 C 0.9573(4) 1.1145(4) 0.3786(4)
H14 H 1.0183 1.1064 0.4462
C22 C 0.9287(4) 1.0254(3) 0.3032(4)
C23 C 0.9898(3) 0.9205(3) 0.3252(3)
H15 H 1.0499 0.9098 0.3929
C24 C 0.9639(3) 0.8371(3) 0.2521(3)
H16 H 1.0051 0.7697 0.2708
C25 C 0.8729(3) 0.8491(3) 0.1440(3)
C26 C 0.8081(3) 0.9513(3) 0.1225(3)
C27 C 0.8369(3) 1.0395(3) 0.2007(4)
loop_
_geom_bond_atom_site_label_1
_geom_bond_atom_site_label_2
_geom_bond_site_symmetry_1
_geom_bond_site_symmetry_2
O1 H1 1_555 1_555
O2 C11 1_555 1_555
C1 C2 1_555 1_555
C2 H2 1_555 1_555
C3 C2 1_555 1_555
H3 C3 1_555 1_555
C4 C3 1_555 1_555
H4 C4 1_555 1_555
C5 H5 1_555 1_555
C6 C5 1_555 1_555
H6 C6 1_555 1_555
C7 C6 1_555 1_555
H7 C7 1_555 1_555
C8 C7 1_555 1_555
C9 C1 1_555 1_555
C10 C4 1_555 1_555
C11 O1 1_555 1_555
C12 C8 1_555 1_555
C13 C12 1_555 1_555
H8 C13 1_555 1_555
C14 C13 1_555 1_555
H9 C14 1_555 1_555
C15 C14 1_555 1_555
C16 C15 1_555 1_555
H10 C16 1_555 1_555
C17 C16 1_555 1_555
H11 C17 1_555 1_555
C18 C17 1_555 1_555
C19 C18 1_555 1_555
H12 C19 1_555 1_555
C20 C19 1_555 1_555
H13 C20 1_555 1_555
C21 C20 1_555 1_555
H14 C21 1_555 1_555
C22 C21 1_555 1_555
C23 C22 1_555 1_555
H15 C23 1_555 1_555
C24 C23 1_555 1_555
H16 C24 1_555 1_555
C25 C12 1_555 1_555
C26 C15 1_555 1_555
C27 C18 1_555 1_555
C1 C11 1_555 1_555
C5 C10 1_555 1_555
C8 C9 1_555 1_555
C9 C10 1_555 1_555
C22 C27 1_555 1_555
C24 C25 1_555 1_555
C25 C26 1_555 1_555
C26 C27 1_555 1_555

#END
