
#######################################################################
#
#                 Cambridge Crystallographic Data Centre
#                                CCDC 
#
#######################################################################
#
# If this CIF has been generated from an entry in the Cambridge 
# Structural Database, then it will include bibliographic, chemical, 
# crystal, experimental, refinement or atomic coordinate data resulting 
# from the CCDC's data processing and validation procedures.
#
#######################################################################

data_LONMIL
_chemical_name_common            Oxacalix(3)arene(3)pyrimidine
_chemical_formula_moiety         'C30 H18 N6 O6'
_chemical_name_systematic        
2,9,15,22,28,35-Hexaoxa-11,13,24,26,37,39-hexaazaheptacyclo[34.3.1.1^10,14^.1^23,27^.0^3,8^.0^16,21^.0^29,34^]dotetraconta-1(40),3,5,7,10(42),11,13,16,18,20,23(41),24,26,29,31,33,36,38-octadecaene
_symmetry_cell_setting           orthorhombic
_symmetry_space_group_name_H-M   'P n m a'
_symmetry_Int_Tables_number      62
_space_group_name_Hall           '-P 2ac 2n'
loop_
_symmetry_equiv_pos_site_id
_symmetry_equiv_pos_as_xyz
1 x,y,z
2 1/2-x,-y,1/2+z
3 -x,1/2+y,-z
4 1/2+x,1/2-y,1/2-z
5 -x,-y,-z
6 1/2+x,y,1/2-z
7 x,1/2-y,z
8 1/2-x,1/2+y,1/2+z
_cell_length_a                   17.3767(6)
_cell_length_b                   21.4937(7)
_cell_length_c                   6.8235(2)
_cell_angle_alpha                90
_cell_angle_beta                 90
_cell_angle_gamma                90
_cell_volume                     2548.51
_exptl_crystal_colour            colorless
_exptl_crystal_description       block
_cell_formula_units_Z            4
loop_
_atom_site_label
_atom_site_type_symbol
_atom_site_fract_x
_atom_site_fract_y
_atom_site_fract_z
O1 O 0.21962(5) 0.35887(4) 0.17401(14)
C1 C 0.17952(7) 0.41351(5) 0.13037(19)
N1 N -0.01595(6) 0.38131(5) 0.30099(16)
O2 O 0.10548(5) 0.40283(4) 0.42274(14)
N2 N -0.10870(6) 0.33262(6) 0.50705(16)
C2 C 0.12240(7) 0.43556(6) 0.25142(19)
O3 O -0.07963(5) 0.31288(4) 0.83032(13)
N3 N 0.11477(6) 0.30538(5) 0.05608(17)
C3 C 0.08639(8) 0.49116(6) 0.2098(2)
H1 H 0.0482 0.5062 0.2927
C4 C 0.10686(9) 0.52437(7) 0.0464(2)
H2 H 0.0817 0.5613 0.0165
C5 C 0.16463(10) 0.50291(8) -0.0729(2)
H3 H 0.1790 0.5257 -0.1827
C6 C 0.20147(9) 0.44754(7) -0.0308(2)
H4 H 0.2410 0.4333 -0.1111
C7 C -0.08411(8) 0.35659(7) 0.3392(2)
H5 H -0.1190 0.3560 0.2358
C8 C 0.03252(7) 0.38147(5) 0.45070(18)
C9 C 0.01455(7) 0.35988(6) 0.63516(18)
H6 H 0.0488 0.3617 0.7398
C10 C -0.05834(7) 0.33533(5) 0.65163(17)
C11 C -0.15016(6) 0.28202(6) 0.84163(16)
C12 C -0.21792(8) 0.31436(6) 0.86308(19)
H7 H -0.2178 0.3576 0.8668
C13 C -0.28589(7) 0.28186(7) 0.87904(19)
H8 H -0.3322 0.3033 0.8899
C14 C 0.08379(11) 0.2500 0.0231(3)
H9 H 0.0344 0.2500 -0.0294
C15 C 0.22576(9) 0.2500 0.1631(2)
H10 H 0.2765 0.2500 0.2066
C16 C 0.18529(6) 0.30386(5) 0.12828(17)
O1F O 0.21962(5) 0.14113(4) 0.17401(14)
C1F C 0.17952(7) 0.08649(5) 0.13037(19)
N1F N -0.01595(6) 0.11869(5) 0.30099(16)
O2F O 0.10548(5) 0.09717(4) 0.42274(14)
N2F N -0.10870(6) 0.16738(6) 0.50705(16)
C2F C 0.12240(7) 0.06444(6) 0.25142(19)
O3F O -0.07963(5) 0.18712(4) 0.83032(13)
N3F N 0.11477(6) 0.19462(5) 0.05608(17)
C3F C 0.08639(8) 0.00884(6) 0.2098(2)
H1F H 0.0482 -0.0062 0.2927
C4F C 0.10686(9) -0.02437(7) 0.0464(2)
H2F H 0.0817 -0.0613 0.0165
C5F C 0.16463(10) -0.00291(8) -0.0729(2)
H3F H 0.1790 -0.0257 -0.1827
C6F C 0.20147(9) 0.05246(7) -0.0308(2)
H4F H 0.2410 0.0667 -0.1111
C7F C -0.08411(8) 0.14341(7) 0.3392(2)
H5F H -0.1190 0.1440 0.2358
C8F C 0.03252(7) 0.11853(5) 0.45070(18)
C9F C 0.01455(7) 0.14012(6) 0.63516(18)
H6F H 0.0488 0.1383 0.7398
C10F C -0.05834(7) 0.16467(5) 0.65163(17)
C11F C -0.15016(6) 0.21798(6) 0.84163(16)
C12F C -0.21792(8) 0.18564(6) 0.86308(19)
H7F H -0.2178 0.1424 0.8668
C13F C -0.28589(7) 0.21814(7) 0.87904(19)
H8F H -0.3322 0.1967 0.8899
C16F C 0.18529(6) 0.19614(5) 0.12828(17)
loop_
_geom_bond_atom_site_label_1
_geom_bond_atom_site_label_2
_geom_bond_site_symmetry_1
_geom_bond_site_symmetry_2
O1 C1 1_555 1_555
C1 C2 1_555 1_555
N1 C7 1_555 1_555
O2 C2 1_555 1_555
N2 C7 1_555 1_555
C2 C3 1_555 1_555
O3 C10 1_555 1_555
N3 C14 1_555 1_555
C3 H1 1_555 1_555
C4 C3 1_555 1_555
H2 C4 1_555 1_555
C5 C4 1_555 1_555
H3 C5 1_555 1_555
C6 C1 1_555 1_555
H4 C6 1_555 1_555
C7 H5 1_555 1_555
C8 N1 1_555 1_555
C9 C8 1_555 1_555
H6 C9 1_555 1_555
C10 N2 1_555 1_555
C11 O3 1_555 1_555
C12 C11 1_555 1_555
H7 C12 1_555 1_555
C13 C12 1_555 1_555
H8 C13 1_555 1_555
C14 H9 1_555 1_555
C15 H10 1_555 1_555
C16 O1 1_555 1_555
O1F C1F 1_555 1_555
C1F C2F 1_555 1_555
N1F C7F 1_555 1_555
O2F C2F 1_555 1_555
N2F C7F 1_555 1_555
C2F C3F 1_555 1_555
O3F C10F 1_555 1_555
N3F C14 1_555 1_555
C3F H1F 1_555 1_555
C4F C3F 1_555 1_555
H2F C4F 1_555 1_555
C5F C4F 1_555 1_555
H3F C5F 1_555 1_555
C6F C1F 1_555 1_555
H4F C6F 1_555 1_555
C7F H5F 1_555 1_555
C8F N1F 1_555 1_555
C9F C8F 1_555 1_555
H6F C9F 1_555 1_555
C10F N2F 1_555 1_555
C11F C11 1_555 1_555
C12F C11F 1_555 1_555
H7F C12F 1_555 1_555
C13F C13 1_555 1_555
H8F C13F 1_555 1_555
C16F C15 1_555 1_555
O2 C8 1_555 1_555
N3 C16 1_555 1_555
C5 C6 1_555 1_555
C9 C10 1_555 1_555
C15 C16 1_555 1_555
O1F C16F 1_555 1_555
O2F C8F 1_555 1_555
O3F C11F 1_555 1_555
N3F C16F 1_555 1_555
C5F C6F 1_555 1_555
C9F C10F 1_555 1_555
C12F C13F 1_555 1_555

#END
