
#######################################################################
#
#                 Cambridge Crystallographic Data Centre
#                                CCDC 
#
#######################################################################
#
# If this CIF has been generated from an entry in the Cambridge 
# Structural Database, then it will include bibliographic, chemical, 
# crystal, experimental, refinement or atomic coordinate data resulting 
# from the CCDC's data processing and validation procedures.
#
#######################################################################

data_LONMIM
_chemical_formula_moiety         'C20 H21 I1 O1'
_chemical_name_systematic        
(3as,7ar,7r)-7-Iodo-3,3-diphenyloctahydro-1-benzofuran
_symmetry_cell_setting           monoclinic
_symmetry_space_group_name_H-M   'P 21'
_symmetry_Int_Tables_number      4
_space_group_name_Hall           'P 2yb'
loop_
_symmetry_equiv_pos_site_id
_symmetry_equiv_pos_as_xyz
1 x,y,z
2 -x,1/2+y,-z
_cell_length_a                   6.1252(10)
_cell_length_b                   22.600(4)
_cell_length_c                   24.191(4)
_cell_angle_alpha                90
_cell_angle_beta                 90.067(2)
_cell_angle_gamma                90
_cell_volume                     3348.75
_exptl_crystal_colour            colorless
_exptl_crystal_description       Platelet
_cell_formula_units_Z            8
loop_
_atom_site_label
_atom_site_type_symbol
_atom_site_fract_x
_atom_site_fract_y
_atom_site_fract_z
I1 I 0.87565(10) 0.48741(3) 0.33815(2)
O1 O 1.3832(8) 0.5618(3) 0.4381(2)
C1 C 1.1640(13) 0.5490(3) 0.4193(3)
H1 H 1.1111 0.5816 0.3947
C2 C 1.1740(12) 0.4914(4) 0.3871(3)
H2 H 1.3018 0.4929 0.3614
C3 C 1.1942(15) 0.4363(4) 0.4235(4)
H3 H 1.1683 0.4006 0.4007
H4 H 1.3445 0.4339 0.4384
C4 C 1.0341(15) 0.4372(4) 0.4707(4)
H5 H 0.8837 0.4352 0.4558
H6 H 1.0577 0.4018 0.4942
C5 C 1.0569(13) 0.4917(4) 0.5056(3)
H7 H 1.2013 0.4911 0.5240
H8 H 0.9437 0.4911 0.5347
C6 C 1.0354(12) 0.5487(3) 0.4725(3)
H9 H 0.8778 0.5558 0.4639
C7 C 1.1320(12) 0.6049(3) 0.5015(3)
C8 C 1.3753(12) 0.5904(3) 0.4903(3)
H10 H 1.4633 0.6272 0.4897
H11 H 1.4337 0.5641 0.5196
C9 C 1.0860(13) 0.6107(3) 0.5632(3)
C10 C 0.8761(13) 0.5973(4) 0.5847(3)
H12 H 0.7645 0.5830 0.5609
C11 C 0.8343(16) 0.6051(4) 0.6404(3)
H13 H 0.6942 0.5955 0.6547
C12 C 0.9925(16) 0.6267(4) 0.6756(3)
H14 H 0.9610 0.6325 0.7137
C13 C 1.1964(14) 0.6399(4) 0.6552(3)
H15 H 1.3066 0.6546 0.6792
C14 C 1.2416(14) 0.6316(3) 0.5990(3)
H16 H 1.3831 0.6407 0.5853
C15 C 1.0661(13) 0.6636(3) 0.4739(3)
C16 C 0.8762(12) 0.6708(4) 0.4428(3)
H17 H 0.7820 0.6380 0.4369
C17 C 0.8233(14) 0.7258(4) 0.4201(4)
H18 H 0.6953 0.7300 0.3982
C18 C 0.9564(17) 0.7741(4) 0.4294(4)
H19 H 0.9164 0.8117 0.4151
C19 C 1.1465(16) 0.7682(4) 0.4593(3)
H20 H 1.2420 0.8009 0.4642
C20 C 1.1965(14) 0.7127(4) 0.4824(3)
H21 H 1.3238 0.7089 0.5046
I2 I 1.04489(9) -0.00117(3) 0.16539(2)
O2 O 0.5416(9) 0.0536(2) 0.0539(2)
C21 C 0.7611(12) 0.0495(4) 0.0758(3)
H22 H 0.7882 0.0838 0.1010
C22 C 0.7682(11) -0.0073(4) 0.1092(3)
H23 H 0.6319 -0.0096 0.1318
C23 C 0.7824(17) -0.0621(4) 0.0745(4)
H24 H 0.6419 -0.0679 0.0550
H25 H 0.8063 -0.0966 0.0989
C24 C 0.9658(18) -0.0592(4) 0.0322(4)
C25 C 0.9274(12) -0.0045(3) -0.0051(3)
H26 H 1.0476 -0.0022 -0.0323
H27 H 0.7900 -0.0104 -0.0259
C26 C 0.9137(13) 0.0544(3) 0.0254(3)
H28 H 1.0619 0.0686 0.0365
C27 C 0.7850(12) 0.1038(3) -0.0077(3)
C28 C 0.5491(12) 0.0798(4) -0.0003(3)
H29 H 0.4418 0.1124 -0.0032
H30 H 0.5154 0.0499 -0.0289
C29 C 0.8349(13) 0.1105(3) -0.0693(3)
C30 C 1.0365(13) 0.0959(3) -0.0924(3)
H31 H 1.1490 0.0803 -0.0696
C31 C 1.0742(14) 0.1040(4) -0.1493(3)
H32 H 1.2118 0.0944 -0.1651
C32 C 0.9034(15) 0.1267(4) -0.1825(3)
H33 H 0.9234 0.1305 -0.2213
C33 C 0.7129(16) 0.1430(4) -0.1595(3)
H34 H 0.6029 0.1606 -0.1818
C34 C 0.6755(14) 0.1343(4) -0.1038(3)
H35 H 0.5378 0.1448 -0.0887
C35 C 0.8196(13) 0.1637(3) 0.0209(3)
C36 C 0.6648(13) 0.1890(3) 0.0552(3)
H36 H 0.5301 0.1692 0.0612
C37 C 0.7039(14) 0.2433(4) 0.0811(3)
H37 H 0.5956 0.2603 0.1043
C38 C 0.9039(13) 0.2726(3) 0.0728(3)
H38 H 0.9322 0.3094 0.0905
C39 C 1.0553(14) 0.2478(4) 0.0394(4)
H39 H 1.1899 0.2676 0.0332
C40 C 1.0147(13) 0.1931(3) 0.0139(3)
H40 H 1.1244 0.1760 -0.0087
I3 I 0.56086(10) 0.41437(3) 0.08564(3)
O3 O 0.0358(8) 0.3588(3) 0.1908(2)
C41 C 0.2574(12) 0.3633(3) 0.1717(3)
H41 H 0.2902 0.3288 0.1471
C42 C 0.2753(13) 0.4200(4) 0.1381(3)
H42 H 0.1443 0.4223 0.1135
C43 C 0.2798(15) 0.4762(4) 0.1734(4)
H43 H 0.3127 0.5107 0.1496
H44 H 0.1346 0.4825 0.1903
C44 C 0.4503(16) 0.4714(4) 0.2183(4)
H45 H 0.4498 0.5078 0.2410
H46 H 0.5966 0.4672 0.2014
C45 C 0.4031(13) 0.4175(4) 0.2553(3)
H47 H 0.5162 0.4152 0.2845
H48 H 0.2603 0.4232 0.2737
C46 C 0.3992(11) 0.3592(3) 0.2236(3)
H49 H 0.5507 0.3462 0.2141
C47 C 0.2726(11) 0.3088(3) 0.2546(3)
C48 C 0.0372(11) 0.3313(3) 0.2445(3)
H50 H -0.0673 0.2979 0.2455
H51 H -0.0047 0.3603 0.2732
C49 C 0.3197(12) 0.3039(3) 0.3173(3)
C50 C 0.5187(12) 0.3157(3) 0.3412(3)
H52 H 0.6351 0.3297 0.3188
C51 C 0.5525(13) 0.3073(4) 0.3973(3)
H53 H 0.6907 0.3161 0.4132
C52 C 0.3823(17) 0.2857(4) 0.4308(4)
H54 H 0.4022 0.2817 0.4696
C53 C 0.1888(14) 0.2706(4) 0.4069(3)
H55 H 0.0752 0.2546 0.4290
C54 C 0.1549(14) 0.2785(3) 0.3499(3)
H56 H 0.0210 0.2666 0.3334
C55 C 0.3127(12) 0.2495(3) 0.2264(3)
C56 C 0.5123(13) 0.2205(3) 0.2343(3)
H57 H 0.6189 0.2380 0.2577
C57 C 0.5587(14) 0.1670(4) 0.2090(3)
H58 H 0.6963 0.1485 0.2146
C58 C 0.4013(15) 0.1402(4) 0.1750(3)
H59 H 0.4303 0.1031 0.1582
C59 C 0.2038(14) 0.1683(4) 0.1663(3)
H60 H 0.0973 0.1507 0.1430
C60 C 0.1602(13) 0.2229(4) 0.1920(3)
H61 H 0.0240 0.2419 0.1857
I4 I 0.59129(11) 0.42819(3) 0.58569(3)
O4 O 0.1156(9) 0.3546(3) 0.6937(2)
C61 C 0.3302(13) 0.3665(4) 0.6724(3)
H62 H 0.3761 0.3338 0.6471
C62 C 0.3097(13) 0.4241(4) 0.6401(3)
H63 H 0.1752 0.4218 0.6167
C63 C 0.2941(15) 0.4785(4) 0.6758(4)
H64 H 0.1502 0.4791 0.6944
H65 H 0.3039 0.5141 0.6522
C64 C 0.4799(16) 0.4808(4) 0.7208(4)
H66 H 0.6249 0.4818 0.7028
H67 H 0.4640 0.5166 0.7439
C65 C 0.4586(14) 0.4253(3) 0.7564(3)
H68 H 0.3164 0.4263 0.7758
H69 H 0.5751 0.4256 0.7848
C66 C 0.4743(13) 0.3671(3) 0.7232(3)
H70 H 0.6293 0.3595 0.7125
C67 C 0.3808(11) 0.3131(3) 0.7545(3)
C68 C 0.1378(12) 0.3274(4) 0.7465(3)
H71 H 0.0498 0.2907 0.7481
H72 H 0.0867 0.3545 0.7759
C69 C 0.4416(12) 0.2532(3) 0.7260(3)
C70 C 0.6341(12) 0.2458(3) 0.6961(3)
H73 H 0.7311 0.2783 0.6921
C71 C 0.6871(16) 0.1921(4) 0.6722(4)
H74 H 0.8166 0.1878 0.6511
C72 C 0.5469(15) 0.1447(4) 0.6799(3)
H75 H 0.5829 0.1076 0.6640
C73 C 0.3574(15) 0.1498(4) 0.7099(4)
H76 H 0.2627 0.1169 0.7147
C74 C 0.3090(13) 0.2038(3) 0.7327(3)
H77 H 0.1796 0.2076 0.7540
C75 C 0.4414(12) 0.3078(3) 0.8159(3)
C76 C 0.2940(14) 0.2827(4) 0.8530(3)
H78 H 0.1533 0.2708 0.8407
C77 C 0.3540(18) 0.2751(4) 0.9082(4)
H79 H 0.2541 0.2572 0.9332
C78 C 0.546(2) 0.2924(4) 0.9265(4)
H80 H 0.5804 0.2885 0.9646
C79 C 0.7010(16) 0.3162(4) 0.8906(4)
H81 H 0.8401 0.3281 0.9041
C80 C 0.6497(13) 0.3224(4) 0.8356(3)
H82 H 0.7569 0.3367 0.8106
loop_
_geom_bond_atom_site_label_1
_geom_bond_atom_site_label_2
_geom_bond_site_symmetry_1
_geom_bond_site_symmetry_2
I1 C2 1_555 1_555
O1 C1 1_555 1_555
C1 H1 1_555 1_555
C2 C1 1_555 1_555
H2 C2 1_555 1_555
C3 C2 1_555 1_555
H3 C3 1_555 1_555
H4 C3 1_555 1_555
C4 C3 1_555 1_555
H5 C4 1_555 1_555
H6 C4 1_555 1_555
C5 C4 1_555 1_555
H7 C5 1_555 1_555
H8 C5 1_555 1_555
C6 C1 1_555 1_555
H9 C6 1_555 1_555
C7 C6 1_555 1_555
C8 O1 1_555 1_555
H10 C8 1_555 1_555
H11 C8 1_555 1_555
C9 C7 1_555 1_555
C10 C9 1_555 1_555
H12 C10 1_555 1_555
C11 C10 1_555 1_555
H13 C11 1_555 1_555
C12 C11 1_555 1_555
H14 C12 1_555 1_555
C13 C12 1_555 1_555
H15 C13 1_555 1_555
C14 C9 1_555 1_555
H16 C14 1_555 1_555
C15 C7 1_555 1_555
C16 C15 1_555 1_555
H17 C16 1_555 1_555
C17 C16 1_555 1_555
H18 C17 1_555 1_555
C18 C17 1_555 1_555
H19 C18 1_555 1_555
C19 C18 1_555 1_555
H20 C19 1_555 1_555
C20 C15 1_555 1_555
H21 C20 1_555 1_555
I2 C22 1_555 1_555
O2 C21 1_555 1_555
C21 H22 1_555 1_555
C22 C21 1_555 1_555
H23 C22 1_555 1_555
C23 C22 1_555 1_555
H24 C23 1_555 1_555
H25 C23 1_555 1_555
C24 C23 1_555 1_555
C25 C24 1_555 1_555
H26 C25 1_555 1_555
H27 C25 1_555 1_555
C26 C21 1_555 1_555
H28 C26 1_555 1_555
C27 C26 1_555 1_555
C28 O2 1_555 1_555
H29 C28 1_555 1_555
H30 C28 1_555 1_555
C29 C27 1_555 1_555
C30 C29 1_555 1_555
H31 C30 1_555 1_555
C31 C30 1_555 1_555
H32 C31 1_555 1_555
C32 C31 1_555 1_555
H33 C32 1_555 1_555
C33 C32 1_555 1_555
H34 C33 1_555 1_555
C34 C29 1_555 1_555
H35 C34 1_555 1_555
C35 C27 1_555 1_555
C36 C35 1_555 1_555
H36 C36 1_555 1_555
C37 C36 1_555 1_555
H37 C37 1_555 1_555
C38 C37 1_555 1_555
H38 C38 1_555 1_555
C39 C38 1_555 1_555
H39 C39 1_555 1_555
C40 C35 1_555 1_555
H40 C40 1_555 1_555
I3 C42 1_555 1_555
O3 C41 1_555 1_555
C41 H41 1_555 1_555
C42 C41 1_555 1_555
H42 C42 1_555 1_555
C43 C42 1_555 1_555
H43 C43 1_555 1_555
H44 C43 1_555 1_555
C44 C43 1_555 1_555
H45 C44 1_555 1_555
H46 C44 1_555 1_555
C45 C44 1_555 1_555
H47 C45 1_555 1_555
H48 C45 1_555 1_555
C46 C41 1_555 1_555
H49 C46 1_555 1_555
C47 C46 1_555 1_555
C48 O3 1_555 1_555
H50 C48 1_555 1_555
H51 C48 1_555 1_555
C49 C47 1_555 1_555
C50 C49 1_555 1_555
H52 C50 1_555 1_555
C51 C50 1_555 1_555
H53 C51 1_555 1_555
C52 C51 1_555 1_555
H54 C52 1_555 1_555
C53 C52 1_555 1_555
H55 C53 1_555 1_555
C54 C49 1_555 1_555
H56 C54 1_555 1_555
C55 C47 1_555 1_555
C56 C55 1_555 1_555
H57 C56 1_555 1_555
C57 C56 1_555 1_555
H58 C57 1_555 1_555
C58 C57 1_555 1_555
H59 C58 1_555 1_555
C59 C58 1_555 1_555
H60 C59 1_555 1_555
C60 C55 1_555 1_555
H61 C60 1_555 1_555
I4 C62 1_555 1_555
O4 C61 1_555 1_555
C61 H62 1_555 1_555
C62 C61 1_555 1_555
H63 C62 1_555 1_555
C63 C62 1_555 1_555
H64 C63 1_555 1_555
H65 C63 1_555 1_555
C64 C63 1_555 1_555
H66 C64 1_555 1_555
H67 C64 1_555 1_555
C65 C64 1_555 1_555
H68 C65 1_555 1_555
H69 C65 1_555 1_555
C66 C61 1_555 1_555
H70 C66 1_555 1_555
C67 C66 1_555 1_555
C68 O4 1_555 1_555
H71 C68 1_555 1_555
H72 C68 1_555 1_555
C69 C67 1_555 1_555
C70 C69 1_555 1_555
H73 C70 1_555 1_555
C71 C70 1_555 1_555
H74 C71 1_555 1_555
C72 C71 1_555 1_555
H75 C72 1_555 1_555
C73 C72 1_555 1_555
H76 C73 1_555 1_555
C74 C69 1_555 1_555
H77 C74 1_555 1_555
C75 C67 1_555 1_555
C76 C75 1_555 1_555
H78 C76 1_555 1_555
C77 C76 1_555 1_555
H79 C77 1_555 1_555
C78 C77 1_555 1_555
H80 C78 1_555 1_555
C79 C78 1_555 1_555
H81 C79 1_555 1_555
C80 C75 1_555 1_555
H82 C80 1_555 1_555
C5 C6 1_555 1_555
C7 C8 1_555 1_555
C13 C14 1_555 1_555
C19 C20 1_555 1_555
C25 C26 1_555 1_555
C27 C28 1_555 1_555
C33 C34 1_555 1_555
C39 C40 1_555 1_555
C45 C46 1_555 1_555
C47 C48 1_555 1_555
C53 C54 1_555 1_555
C59 C60 1_555 1_555
C65 C66 1_555 1_555
C67 C68 1_555 1_555
C73 C74 1_555 1_555
C79 C80 1_555 1_555

#END
