
#######################################################################
#
#                 Cambridge Crystallographic Data Centre
#                                CCDC 
#
#######################################################################
#
# If this CIF has been generated from an entry in the Cambridge 
# Structural Database, then it will include bibliographic, chemical, 
# crystal, experimental, refinement or atomic coordinate data resulting 
# from the CCDC's data processing and validation procedures.
#
#######################################################################

data_LONNUZ
_chemical_formula_moiety         'C25 H32 N2 O5'
_chemical_name_systematic        
11-Benzyl-6-methyl-3-propyl-3,4,10,11,14,15,16,16a-octahydro-1H-pyrrolo[2,1-c][1,4,7]oxadiazacyclotetradecine-1,7,9,12(8H)-tetrone
_symmetry_cell_setting           orthorhombic
_symmetry_space_group_name_H-M   'P 21 21 21'
_symmetry_Int_Tables_number      19
_space_group_name_Hall           'P 2ac 2ab'
loop_
_symmetry_equiv_pos_site_id
_symmetry_equiv_pos_as_xyz
1 x,y,z
2 1/2-x,-y,1/2+z
3 1/2+x,1/2-y,-z
4 -x,1/2+y,1/2-z
_cell_length_a                   9.2128(4)
_cell_length_b                   13.0361(5)
_cell_length_c                   20.7294(8)
_cell_angle_alpha                90
_cell_angle_beta                 90
_cell_angle_gamma                90
_cell_volume                     2489.58
_cell_formula_units_Z            4
loop_
_atom_site_label
_atom_site_type_symbol
_atom_site_fract_x
_atom_site_fract_y
_atom_site_fract_z
N1 N 0.2377(3) 0.1877(2) -0.01053(18)
H1 H 0.1526 0.2031 -0.0246
N2 N 0.3102(4) -0.0142(2) 0.09012(19)
O1 O 0.4482(3) 0.2462(2) 0.03018(17)
O2 O 0.3263(5) 0.5249(3) 0.0569(2)
O3 O 0.1771(4) 0.1043(3) 0.17970(16)
O4 O 0.0708(6) -0.0322(4) 0.2260(3)
O5 O 0.0869(3) 0.0248(2) 0.05535(17)
C1 C 0.2114(7) -0.1618(4) -0.0508(3)
H2 H 0.1181 -0.1502 -0.0353
C2 C 0.2683(8) -0.2595(4) -0.0475(4)
H3 H 0.2140 -0.3124 -0.0295
C3 C 0.4035(9) -0.2781(4) -0.0705(3)
H4 H 0.4427 -0.3438 -0.0680
C4 C 0.4827(7) -0.1997(5) -0.0976(3)
H5 H 0.5742 -0.2127 -0.1147
C5 C 0.4257(6) -0.1008(4) -0.0995(3)
H6 H 0.4807 -0.0476 -0.1166
C6 C 0.2883(5) -0.0812(3) -0.0761(2)
C7 C 0.2323(5) 0.0273(3) -0.0738(2)
H7 H 0.1271 0.0269 -0.0753
H8 H 0.2674 0.0649 -0.1111
C8 C 0.2837(4) 0.0806(3) -0.0116(2)
H9 H 0.3898 0.0774 -0.0092
C9 C 0.3226(4) 0.2623(3) 0.0114(2)
C10 C 0.2597(5) 0.3690(3) 0.0090(2)
H10 H 0.1556 0.3630 0.0032
H11 H 0.2981 0.4032 -0.0289
C11 C 0.2871(5) 0.4376(3) 0.0670(3)
C12 C 0.2601(5) 0.4036(4) 0.1331(3)
C13 C 0.3051(10) 0.4765(5) 0.1862(3)
H12 H 0.3478 0.4383 0.2210
H13 H 0.2214 0.5128 0.2017
H14 H 0.3746 0.5246 0.1697
C14 C 0.1937(6) 0.3168(4) 0.1458(3)
H15 H 0.1688 0.2762 0.1106
C15 C 0.1529(9) 0.2755(5) 0.2124(3)
H16 H 0.2409 0.2688 0.2377
H17 H 0.0917 0.3257 0.2336
C16 C 0.0747(8) 0.1732(5) 0.2124(3)
H18 H 0.0604 0.1501 0.2570
C17 C -0.0723(7) 0.1715(5) 0.1762(3)
H19 H -0.0598 0.2052 0.1349
H20 H -0.0984 0.1007 0.1677
C18 C -0.1927(9) 0.2207(6) 0.2103(4)
H21 H -0.1731 0.2937 0.2130
H22 H -0.1958 0.1942 0.2540
C19 C -0.3359(9) 0.2064(6) 0.1808(4)
H23 H -0.3296 0.2191 0.1353
H24 H -0.4038 0.2533 0.1999
H25 H -0.3681 0.1373 0.1880
C20 C 0.1556(7) 0.0040(5) 0.1887(3)
C21 C 0.2547(6) -0.0611(4) 0.1492(3)
H26 H 0.2051 -0.1253 0.1384
C22 C 0.3968(8) -0.0859(8) 0.1851(4)
H27 H 0.4160 -0.0335 0.2172
H28 H 0.3877 -0.1513 0.2070
C23 C 0.5113(8) -0.0901(7) 0.1411(4)
H29 H 0.5966 -0.1275 0.1456
C24 C 0.4704(5) -0.0221(5) 0.0847(3)
H30 H 0.5157 0.0449 0.0882
H31 H 0.4985 -0.0531 0.0440
C25 C 0.2195(5) 0.0276(3) 0.0468(2)
loop_
_geom_bond_atom_site_label_1
_geom_bond_atom_site_label_2
_geom_bond_site_symmetry_1
_geom_bond_site_symmetry_2
N1 H1 1_555 1_555
N2 C21 1_555 1_555
O1 C9 1_555 1_555
O2 C11 1_555 1_555
O3 C16 1_555 1_555
O4 C20 1_555 1_555
O5 C25 1_555 1_555
C1 H2 1_555 1_555
C2 C1 1_555 1_555
H3 C2 1_555 1_555
C3 C2 1_555 1_555
H4 C3 1_555 1_555
C4 C3 1_555 1_555
H5 C4 1_555 1_555
C5 C4 1_555 1_555
H6 C5 1_555 1_555
C6 C1 1_555 1_555
C7 C6 1_555 1_555
H7 C7 1_555 1_555
H8 C7 1_555 1_555
C8 N1 1_555 1_555
H9 C8 1_555 1_555
C9 N1 1_555 1_555
C10 C9 1_555 1_555
H10 C10 1_555 1_555
H11 C10 1_555 1_555
C11 C10 1_555 1_555
C12 C11 1_555 1_555
C13 C12 1_555 1_555
H12 C13 1_555 1_555
H13 C13 1_555 1_555
H14 C13 1_555 1_555
C14 C12 1_555 1_555
H15 C14 1_555 1_555
C15 C14 1_555 1_555
H16 C15 1_555 1_555
H17 C15 1_555 1_555
C16 C15 1_555 1_555
H18 C16 1_555 1_555
C17 C16 1_555 1_555
H19 C17 1_555 1_555
H20 C17 1_555 1_555
C18 C17 1_555 1_555
H21 C18 1_555 1_555
H22 C18 1_555 1_555
C19 C18 1_555 1_555
H23 C19 1_555 1_555
H24 C19 1_555 1_555
H25 C19 1_555 1_555
C20 O3 1_555 1_555
C21 C20 1_555 1_555
H26 C21 1_555 1_555
C22 C21 1_555 1_555
H27 C22 1_555 1_555
H28 C22 1_555 1_555
C23 C22 1_555 1_555
H29 C23 1_555 1_555
C24 N2 1_555 1_555
H30 C24 1_555 1_555
H31 C24 1_555 1_555
C25 N2 1_555 1_555
C5 C6 1_555 1_555
C7 C8 1_555 1_555
C8 C25 1_555 1_555
C23 C24 1_555 1_555

#END
