
#######################################################################
#
#                 Cambridge Crystallographic Data Centre
#                                CCDC 
#
#######################################################################
#
# If this CIF has been generated from an entry in the Cambridge 
# Structural Database, then it will include bibliographic, chemical, 
# crystal, experimental, refinement or atomic coordinate data resulting 
# from the CCDC's data processing and validation procedures.
#
#######################################################################

data_LONQIP
_chemical_formula_moiety         
'H12 Mg1 O6 2+,C14 H8 N2 O4 2-,C12 H10 N2,2(H2 O1)'
_chemical_name_systematic        
"Hexaaqua-magnesium(ii) 3,3'-(1,2-diazenediyl)dibenzoate 4,4'-(1,2-ethenediyl)dipyridine dihydrate"
_symmetry_cell_setting           triclinic
_symmetry_space_group_name_H-M   'P -1'
_symmetry_Int_Tables_number      2
_space_group_name_Hall           '-P 1'
loop_
_symmetry_equiv_pos_site_id
_symmetry_equiv_pos_as_xyz
1 x,y,z
2 -x,-y,-z
_cell_length_a                   6.5933(9)
_cell_length_b                   7.2607(10)
_cell_length_c                   16.293(2)
_cell_angle_alpha                79.560(2)
_cell_angle_beta                 89.121(2)
_cell_angle_gamma                77.544(2)
_cell_volume                     748.781
_exptl_crystal_colour            yellow
_exptl_crystal_description       block
_cell_formula_units_Z            1
loop_
_atom_site_label
_atom_site_type_symbol
_atom_site_fract_x
_atom_site_fract_y
_atom_site_fract_z
Mg1 Mg 1.0000 0.5000 0.0000
O1 O 0.70522(15) 0.52287(16) 0.04572(6)
H1 H 0.6047 0.6165 0.0297
H2 H 0.6988 0.4945 0.0984
O2 O 1.07939(17) 0.24870(15) 0.09217(7)
H3 H 1.1951 0.1985 0.1139
H4 H 1.0015 0.1726 0.0966
O3 O 1.07140(16) 0.65841(16) 0.08734(7)
H5 H 0.9723 0.7427 0.0994
H6 H 1.1738 0.7073 0.0743
O1A O 1.29478(15) 0.47713(16) -0.04572(6)
H1A H 1.3953 0.3835 -0.0297
H2A H 1.3012 0.5055 -0.0984
O2A O 0.92061(17) 0.75130(15) -0.09217(7)
H3A H 0.8049 0.8015 -0.1139
H4A H 0.9985 0.8274 -0.0966
O3A O 0.92860(16) 0.34159(16) -0.08734(7)
H5A H 1.0277 0.2573 -0.0994
H6A H 0.8262 0.2927 -0.0743
O4 O 0.37905(16) 0.83510(15) 0.03666(6)
H7 H 0.4102 0.9065 0.0671
H8 H 0.3315 0.9012 -0.0092
O5 O 0.46627(16) 1.03551(18) 0.15637(7)
O6 O 0.79597(16) 0.99517(16) 0.11736(6)
N1 N 0.4711(2) 1.0035(2) 0.46334(8)
C1 C 0.9356(2) 0.9249(2) 0.28592(10)
H9 H 1.0364 0.9107 0.2456
C2 C 0.9948(3) 0.8966(2) 0.36958(10)
H10 H 1.1351 0.8633 0.3849
C3 C 0.8471(3) 0.9177(2) 0.42997(10)
H11 H 0.8872 0.8968 0.4859
C4 C 0.6372(2) 0.9706(2) 0.40660(9)
C5 C 0.5780(2) 0.9962(2) 0.32314(9)
H12 H 0.4376 1.0284 0.3079
C6 C 0.7265(2) 0.9742(2) 0.26221(9)
C7 C 0.6569(2) 1.0048(2) 0.17177(9)
O5A O 0.53373(16) 0.96449(18) 0.84363(7)
O6A O 0.20403(16) 1.00483(16) 0.88264(6)
N1A N 0.5289(2) 0.9965(2) 0.53666(8)
C1A C 0.0644(2) 1.0751(2) 0.71408(10)
H9A H -0.0364 1.0893 0.7544
C2A C 0.0052(3) 1.1034(2) 0.63042(10)
H10A H -0.1351 1.1367 0.6151
C3A C 0.1529(3) 1.0823(2) 0.57003(10)
H11A H 0.1128 1.1032 0.5141
C4A C 0.3628(2) 1.0294(2) 0.59340(9)
C5A C 0.4220(2) 1.0038(2) 0.67686(9)
H12A H 0.5624 0.9716 0.6921
C6A C 0.2735(2) 1.0258(2) 0.73779(9)
C7A C 0.3431(2) 0.9952(2) 0.82823(9)
N2 N 0.6606(3) 0.4727(2) 0.21853(9)
C8 C 0.8201(3) 0.4434(3) 0.27138(12)
H13 H 0.9535 0.4198 0.2506
C9 C 0.7990(3) 0.4461(3) 0.35553(12)
H14 H 0.9166 0.4249 0.3897
C10 C 0.6043(3) 0.4799(2) 0.38929(11)
C11 C 0.4369(3) 0.5079(3) 0.33430(12)
H15 H 0.3019 0.5293 0.3536
C12 C 0.4720(3) 0.5038(3) 0.25058(12)
H16 H 0.3576 0.5239 0.2148
C13 C 0.5855(3) 0.4859(3) 0.47924(11)
H17 H 0.7089 0.4677 0.5095
N2A N 0.3394(3) 0.5273(2) 0.78147(9)
C8A C 0.1799(3) 0.5566(3) 0.72862(12)
H13A H 0.0465 0.5802 0.7494
C9A C 0.2010(3) 0.5539(3) 0.64447(12)
H14A H 0.0834 0.5751 0.6103
C10A C 0.3957(3) 0.5201(2) 0.61071(11)
C11A C 0.5631(3) 0.4921(3) 0.66570(12)
H15A H 0.6981 0.4707 0.6464
C12A C 0.5280(3) 0.4962(3) 0.74942(12)
H16A H 0.6424 0.4761 0.7852
C13A C 0.4145(3) 0.5141(3) 0.52076(11)
H17A H 0.2911 0.5323 0.4905
loop_
_geom_bond_atom_site_label_1
_geom_bond_atom_site_label_2
_geom_bond_site_symmetry_1
_geom_bond_site_symmetry_2
Mg1 O1 1_555 1_555
O1 H1 1_555 1_555
H2 O1 1_555 1_555
O2 Mg1 1_555 1_555
H3 O2 1_555 1_555
H4 O2 1_555 1_555
O3 Mg1 1_555 1_555
H5 O3 1_555 1_555
H6 O3 1_555 1_555
O4 H7 1_555 1_555
H8 O4 1_555 1_555
O5 C7 1_555 1_555
O6 C7 1_555 1_555
N1 C4 1_555 1_555
C1 H9 1_555 1_555
C2 C1 1_555 1_555
H10 C2 1_555 1_555
C3 C2 1_555 1_555
H11 C3 1_555 1_555
C4 C3 1_555 1_555
C5 C4 1_555 1_555
H12 C5 1_555 1_555
C6 C1 1_555 1_555
C7 C6 1_555 1_555
N2 C8 1_555 1_555
C8 H13 1_555 1_555
C9 C8 1_555 1_555
H14 C9 1_555 1_555
C10 C9 1_555 1_555
C11 C10 1_555 1_555
H15 C11 1_555 1_555
C12 N2 1_555 1_555
H16 C12 1_555 1_555
C13 C10 1_555 1_555
H17 C13 1_555 1_555
O1A Mg1 1_555 1_555
H1A O1A 1_555 1_555
H2A O1A 1_555 1_555
O2A Mg1 1_555 1_555
H3A O2A 1_555 1_555
H4A O2A 1_555 1_555
O3A Mg1 1_555 1_555
H5A O3A 1_555 1_555
H6A O3A 1_555 1_555
O5A C7A 1_555 1_555
O6A C7A 1_555 1_555
N1A N1 1_555 1_555
C1A H9A 1_555 1_555
C2A C1A 1_555 1_555
H10A C2A 1_555 1_555
C3A C2A 1_555 1_555
H11A C3A 1_555 1_555
C4A N1A 1_555 1_555
C5A C4A 1_555 1_555
H12A C5A 1_555 1_555
C6A C1A 1_555 1_555
C7A C6A 1_555 1_555
N2A C8A 1_555 1_555
C8A H13A 1_555 1_555
C9A C8A 1_555 1_555
H14A C9A 1_555 1_555
C10A C9A 1_555 1_555
C11A C10A 1_555 1_555
H15A C11A 1_555 1_555
C12A N2A 1_555 1_555
H16A C12A 1_555 1_555
C13A C13 1_555 1_555
H17A C13A 1_555 1_555
C5 C6 1_555 1_555
C11 C12 1_555 1_555
C3A C4A 1_555 1_555
C5A C6A 1_555 1_555
C10A C13A 1_555 1_555
C11A C12A 1_555 1_555

#END
