
#######################################################################
#
#                 Cambridge Crystallographic Data Centre
#                                CCDC 
#
#######################################################################
#
# If this CIF has been generated from an entry in the Cambridge 
# Structural Database, then it will include bibliographic, chemical, 
# crystal, experimental, refinement or atomic coordinate data resulting 
# from the CCDC's data processing and validation procedures.
#
#######################################################################

data_LONSEN
_chemical_formula_moiety         'C7 H7 N3 O2 S1'
_chemical_name_systematic        1-(4-Nitrophenyl)thiourea
_symmetry_cell_setting           triclinic
_symmetry_space_group_name_H-M   'P -1'
_symmetry_Int_Tables_number      2
_space_group_name_Hall           '-P 1'
loop_
_symmetry_equiv_pos_site_id
_symmetry_equiv_pos_as_xyz
1 x,y,z
2 -x,-y,-z
_cell_length_a                   8.112(5)
_cell_length_b                   8.163(5)
_cell_length_c                   8.175(5)
_cell_angle_alpha                72.665(9)
_cell_angle_beta                 63.262(9)
_cell_angle_gamma                68.742(10)
_cell_volume                     444.604
_exptl_crystal_colour            yellow
_exptl_crystal_description       block
_chemical_melting_point          '220-222 deg.C'
_cell_formula_units_Z            2
_exptl_crystal_recrystallization_method chloroform
loop_
_atom_site_label
_atom_site_type_symbol
_atom_site_fract_x
_atom_site_fract_y
_atom_site_fract_z
S1 S 0.2067(2) -0.0162(2) 0.21196(19)
N1 N 0.4422(7) 0.1529(7) 0.1844(8)
H1 H 0.498(9) 0.196(9) 0.226(9)
H2 H 0.505(9) 0.108(9) 0.090(9)
N2 N 0.1785(7) 0.1518(6) 0.4566(6)
H3 H 0.098(7) 0.107(6) 0.518(6)
N3 N 0.2709(7) 0.6119(7) 0.7836(9)
O1 O 0.2667(9) 0.5636(9) 0.9396(9)
O2 O 0.3035(7) 0.7541(6) 0.6887(8)
C1 C 0.2822(7) 0.1053(7) 0.2870(7)
C2 C 0.2045(7) 0.2697(7) 0.5351(7)
C3 C 0.2404(7) 0.4314(7) 0.4343(7)
H4 H 0.2518 0.4632 0.3113
C4 C 0.2594(7) 0.5459(7) 0.5169(8)
H5 H 0.2829 0.6550 0.4509
C5 C 0.2425(7) 0.4941(7) 0.6983(8)
C6 C 0.2055(9) 0.3361(8) 0.8008(8)
H6 H 0.1928 0.3055 0.9242
C7 C 0.1872(8) 0.2227(7) 0.7173(8)
H7 H 0.1631 0.1141 0.7846
loop_
_geom_bond_atom_site_label_1
_geom_bond_atom_site_label_2
_geom_bond_site_symmetry_1
_geom_bond_site_symmetry_2
S1 C1 1_555 1_555
N1 H1 1_555 1_555
H2 N1 1_555 1_555
N2 H3 1_555 1_555
N3 O1 1_555 1_555
O2 N3 1_555 1_555
C1 N1 1_555 1_555
C2 N2 1_555 1_555
C3 C2 1_555 1_555
H4 C3 1_555 1_555
C4 C3 1_555 1_555
H5 C4 1_555 1_555
C5 N3 1_555 1_555
C6 C5 1_555 1_555
H6 C6 1_555 1_555
C7 C2 1_555 1_555
H7 C7 1_555 1_555
N2 C1 1_555 1_555
C4 C5 1_555 1_555
C6 C7 1_555 1_555

#END
