
#######################################################################
#
#                 Cambridge Crystallographic Data Centre
#                                CCDC 
#
#######################################################################
#
# If this CIF has been generated from an entry in the Cambridge 
# Structural Database, then it will include bibliographic, chemical, 
# crystal, experimental, refinement or atomic coordinate data resulting 
# from the CCDC's data processing and validation procedures.
#
#######################################################################

data_LONTIS
_chemical_name_common            
2,2'-(3,3,4,4,5,5-Hexafluoro-1-cyclopentene-1,2-diyl)dibenzonitrile
_chemical_formula_moiety         'C19 H8 F6 N2'
_chemical_name_systematic        
1,2-Bis(2-cyanophenyl)-3,3,4,4,5,5-hexafluorocyclopent-1-ene
_symmetry_cell_setting           triclinic
_symmetry_space_group_name_H-M   'P -1'
_symmetry_Int_Tables_number      2
_space_group_name_Hall           '-P 1'
loop_
_symmetry_equiv_pos_site_id
_symmetry_equiv_pos_as_xyz
1 x,y,z
2 -x,-y,-z
_cell_length_a                   7.7618(15)
_cell_length_b                   9.1261(16)
_cell_length_c                   13.315(3)
_cell_angle_alpha                74.11(2)
_cell_angle_beta                 75.290(18)
_cell_angle_gamma                65.104(14)
_cell_volume                     812.371
_exptl_crystal_colour            colorless
_exptl_crystal_description       block
_chemical_melting_point          '398.2-398.7 K'
_cell_formula_units_Z            2
loop_
_atom_site_label
_atom_site_type_symbol
_atom_site_fract_x
_atom_site_fract_y
_atom_site_fract_z
F1 F 0.49572(13) 0.44224(10) 0.36990(7)
F2 F 0.63881(14) 0.17732(11) 0.41042(7)
F3 F 0.89679(14) 0.22529(13) 0.25651(8)
F4 F 0.69416(17) 0.45816(11) 0.18619(8)
F5 F 0.70401(14) 0.29019(11) 0.05833(7)
F6 F 0.79711(13) 0.05973(10) 0.17018(7)
N1 N 0.0874(2) 0.67550(15) 0.19263(11)
N2 N 0.5058(2) -0.17983(17) 0.32131(12)
C1 C 0.4089(2) 0.27807(15) 0.29634(11)
C2 C 0.5625(2) 0.30227(16) 0.33190(11)
C3 C 0.7178(2) 0.30222(17) 0.23375(12)
C4 C 0.6753(2) 0.21972(17) 0.16159(11)
C5 C 0.4703(2) 0.23390(15) 0.20184(11)
C6 C 0.2211(2) 0.29689(15) 0.36532(11)
C7 C 0.0571(2) 0.44103(16) 0.34901(11)
C8 C -0.1178(2) 0.45670(17) 0.41528(11)
H1 H -0.2283 0.5544 0.4037
C9 C -0.1299(2) 0.32908(17) 0.49819(11)
H2 H -0.2491 0.3386 0.5432
C10 C 0.0315(2) 0.18811(17) 0.51522(12)
H3 H 0.0228 0.1014 0.5726
C11 C 0.2059(2) 0.17142(18) 0.44977(12)
H4 H 0.3158 0.0737 0.4626
C12 C 0.0729(2) 0.57268(17) 0.26228(12)
C13 C 0.3674(2) 0.19380(16) 0.14004(11)
C14 C 0.3567(2) 0.03705(17) 0.16380(11)
C15 C 0.2637(2) -0.00041(17) 0.10291(12)
H5 H 0.2571 -0.1061 0.1184
C16 C 0.1817(2) 0.11663(18) 0.02028(12)
H6 H 0.1182 0.0912 -0.0210
C17 C 0.1907(2) 0.27029(18) -0.00306(12)
H7 H 0.1325 0.3502 -0.0599
C18 C 0.2843(2) 0.30889(18) 0.05601(11)
H8 H 0.2914 0.4145 0.0388
C19 C 0.4411(2) -0.08368(18) 0.25085(13)
loop_
_geom_bond_atom_site_label_1
_geom_bond_atom_site_label_2
_geom_bond_site_symmetry_1
_geom_bond_site_symmetry_2
F1 C2 1_555 1_555
F2 C2 1_555 1_555
F3 C3 1_555 1_555
F4 C3 1_555 1_555
F5 C4 1_555 1_555
F6 C4 1_555 1_555
N1 C12 1_555 1_555
N2 C19 1_555 1_555
C1 C2 1_555 1_555
C2 C3 1_555 1_555
C3 C4 1_555 1_555
C4 C5 1_555 1_555
C5 C1 1_555 1_555
C6 C1 1_555 1_555
C7 C6 1_555 1_555
C8 C7 1_555 1_555
H1 C8 1_555 1_555
C9 C8 1_555 1_555
H2 C9 1_555 1_555
C10 C9 1_555 1_555
H3 C10 1_555 1_555
C11 C6 1_555 1_555
H4 C11 1_555 1_555
C12 C7 1_555 1_555
C13 C5 1_555 1_555
C14 C13 1_555 1_555
C15 C14 1_555 1_555
H5 C15 1_555 1_555
C16 C15 1_555 1_555
H6 C16 1_555 1_555
C17 C16 1_555 1_555
H7 C17 1_555 1_555
C18 C13 1_555 1_555
H8 C18 1_555 1_555
C19 C14 1_555 1_555
C10 C11 1_555 1_555
C17 C18 1_555 1_555

#END
