
#######################################################################
#
#                 Cambridge Crystallographic Data Centre
#                                CCDC 
#
#######################################################################
#
# If this CIF has been generated from an entry in the Cambridge 
# Structural Database, then it will include bibliographic, chemical, 
# crystal, experimental, refinement or atomic coordinate data resulting 
# from the CCDC's data processing and validation procedures.
#
#######################################################################

data_LONXET
_chemical_formula_moiety         'C20 H15 N3 O1'
_chemical_name_systematic        
1-((5-phenyl-1H-pyrazol-3-yl)carbonoimidoyl)-2-naphthol
_symmetry_cell_setting           orthorhombic
_symmetry_space_group_name_H-M   'P 21 21 21'
_symmetry_Int_Tables_number      19
_space_group_name_Hall           'P 2ac 2ab'
loop_
_symmetry_equiv_pos_site_id
_symmetry_equiv_pos_as_xyz
1 x,y,z
2 1/2-x,-y,1/2+z
3 1/2+x,1/2-y,-z
4 -x,1/2+y,1/2-z
_cell_length_a                   5.3994(12)
_cell_length_b                   14.277(4)
_cell_length_c                   20.499(5)
_cell_angle_alpha                90
_cell_angle_beta                 90
_cell_angle_gamma                90
_cell_volume                     1580.21
_cell_formula_units_Z            4
loop_
_atom_site_label
_atom_site_type_symbol
_atom_site_fract_x
_atom_site_fract_y
_atom_site_fract_z
C1 C 0.5627(9) 0.8441(4) 0.1696(3)
C2 C 0.7560(10) 0.8985(4) 0.1947(3)
H1 H 0.7819 0.9587 0.1787
C3 C 0.9051(10) 0.8645(4) 0.2419(3)
H2 H 1.0364 0.9006 0.2571
C4 C 0.8642(9) 0.7755(4) 0.2684(2)
C5 C 1.0226(10) 0.7398(4) 0.3180(3)
H3 H 1.1547 0.7757 0.3328
C6 C 0.9817(11) 0.6520(4) 0.3443(3)
H4 H 1.0876 0.6289 0.3763
C7 C 0.7847(10) 0.5986(4) 0.3234(3)
H5 H 0.7552 0.5403 0.3422
C8 C 0.6314(9) 0.6309(4) 0.2748(2)
H6 H 0.5011 0.5935 0.2606
C9 C 0.6678(9) 0.7203(3) 0.2459(2)
C10 C 0.5107(9) 0.7559(3) 0.1947(2)
C11 C 0.3095(9) 0.7015(3) 0.1683(2)
H7 H 0.2753 0.6427 0.1856
C12 C -0.0228(8) 0.6828(3) 0.0947(2)
C13 C -0.1122(9) 0.5928(3) 0.1047(2)
H8 H -0.049 0.5478 0.1329
C14 C -0.3117(9) 0.5843(3) 0.0645(2)
C15 C -0.4811(9) 0.5077(3) 0.0499(2)
C16 C -0.4620(10) 0.4253(4) 0.0857(3)
H9 H -0.341 0.4203 0.1178
C17 C -0.6188(12) 0.3509(4) 0.0746(3)
H10 H -0.6013 0.2959 0.0984
C18 C -0.8008(12) 0.3583(4) 0.0283(3)
H11 H -0.9077 0.3083 0.0208
C19 C -0.8251(11) 0.4387(4) -0.0068(3)
H12 H -0.9497 0.4437 -0.0379
C20 C -0.6659(10) 0.5127(4) 0.0035(2)
H13 H -0.6833 0.5669 -0.0212
N1 N 0.1757(7) 0.7336(3) 0.12089(19)
N2 N -0.1563(7) 0.7299(3) 0.05078(18)
N3 N -0.3315(7) 0.6682(3) 0.03292(18)
H14 H -0.4444 0.6803 0.0046
O1 O 0.4235(6) 0.8836(2) 0.12253(17)
H15 H 0.3562 0.8424 0.101
loop_
_geom_bond_atom_site_label_1
_geom_bond_atom_site_label_2
_geom_bond_site_symmetry_1
_geom_bond_site_symmetry_2
C1 C2 1_555 1_555
C2 H1 1_555 1_555
C3 C2 1_555 1_555
H2 C3 1_555 1_555
C4 C3 1_555 1_555
C5 C4 1_555 1_555
H3 C5 1_555 1_555
C6 C5 1_555 1_555
H4 C6 1_555 1_555
C7 C6 1_555 1_555
H5 C7 1_555 1_555
C8 C7 1_555 1_555
H6 C8 1_555 1_555
C9 C4 1_555 1_555
C10 C1 1_555 1_555
C11 C10 1_555 1_555
H7 C11 1_555 1_555
C12 C13 1_555 1_555
C13 H8 1_555 1_555
C14 C13 1_555 1_555
C15 C14 1_555 1_555
C16 C15 1_555 1_555
H9 C16 1_555 1_555
C17 C16 1_555 1_555
H10 C17 1_555 1_555
C18 C17 1_555 1_555
H11 C18 1_555 1_555
C19 C18 1_555 1_555
H12 C19 1_555 1_555
C20 C15 1_555 1_555
H13 C20 1_555 1_555
N1 C11 1_555 1_555
N2 C12 1_555 1_555
N3 C14 1_555 1_555
H14 N3 1_555 1_555
O1 C1 1_555 1_555
H15 O1 1_555 1_555
C8 C9 1_555 1_555
C9 C10 1_555 1_555
C12 N1 1_555 1_555
C19 C20 1_555 1_555
N2 N3 1_555 1_555

#END
