
#######################################################################
#
#                 Cambridge Crystallographic Data Centre
#                                CCDC 
#
#######################################################################
#
# If this CIF has been generated from an entry in the Cambridge 
# Structural Database, then it will include bibliographic, chemical, 
# crystal, experimental, refinement or atomic coordinate data resulting 
# from the CCDC's data processing and validation procedures.
#
#######################################################################

data_LOPCUP
_chemical_formula_moiety         'C17 H18 N2 O3'
_chemical_name_systematic        
'(6S,12bR)-Methyl 1,2,3,4,6,7,12,12b-octahydro-4-oxoindolo[2,3-a]quinolizine-6-carboxylate'
_symmetry_cell_setting           orthorhombic
_symmetry_space_group_name_H-M   'P 21 21 21'
_symmetry_Int_Tables_number      19
_space_group_name_Hall           'P 2ac 2ab'
loop_
_symmetry_equiv_pos_site_id
_symmetry_equiv_pos_as_xyz
1 x,y,z
2 1/2-x,-y,1/2+z
3 1/2+x,1/2-y,-z
4 -x,1/2+y,1/2-z
_cell_length_a                   8.6993(3)
_cell_length_b                   13.9384(9)
_cell_length_c                   15.5218(11)
_cell_angle_alpha                90
_cell_angle_beta                 90
_cell_angle_gamma                90
_cell_volume                     1882.09
_exptl_crystal_colour            colorless
_exptl_crystal_description       block
_chemical_melting_point          '165-167 deg.C'
_cell_formula_units_Z            4
loop_
_atom_site_label
_atom_site_type_symbol
_atom_site_fract_x
_atom_site_fract_y
_atom_site_fract_z
C1 C 0.9868(3) 0.59253(18) 0.50514(15)
C2 C 0.9895(3) 0.5712(2) 0.59327(17)
H1 H 0.9367 0.5166 0.6148
C3 C 1.0693(3) 0.6303(2) 0.64813(19)
H2 H 1.0724 0.6159 0.7079
C4 C 1.1466(4) 0.7117(2) 0.6169(2)
H3 H 1.1997 0.7517 0.6565
C5 C 1.1479(3) 0.7355(2) 0.52990(19)
H4 H 1.2014 0.7901 0.5088
C6 C 1.0664(3) 0.67492(18) 0.47569(16)
C7 C 0.9603(3) 0.60158(17) 0.36132(17)
C8 C 0.9228(3) 0.58037(19) 0.26815(17)
H5 H 0.8439 0.6274 0.2479
C9 C 1.0600(4) 0.5858(2) 0.20942(18)
H6 H 1.1461 0.5488 0.2346
H7 H 1.0932 0.6535 0.2036
C10 C 1.0205(5) 0.5456(3) 0.1210(2)
H8 H 0.9293 0.5788 0.0972
H9 H 1.1077 0.5549 0.0809
C11 C 0.9874(4) 0.4401(2) 0.1321(2)
H10 H 0.9363 0.4164 0.0792
H11 H 1.0865 0.4057 0.1375
C12 C 0.8893(3) 0.4147(2) 0.20772(18)
C13 C 0.7464(3) 0.45950(18) 0.33596(16)
H12 H 0.7093 0.3927 0.3249
C14 C 0.8250(3) 0.45785(19) 0.42291(18)
H13 H 0.7474 0.4557 0.4695
H14 H 0.8912 0.4003 0.4278
C15 C 0.9205(3) 0.54706(17) 0.43081(16)
C16 C 0.6077(3) 0.5237(2) 0.3301(2)
C17 C 0.3811(4) 0.5746(3) 0.4019(2)
H15 H 0.4021 0.6402 0.3824
H16 H 0.3383 0.5763 0.4602
H17 H 0.3072 0.5443 0.3628
N1 N 1.0489(2) 0.67824(15) 0.38610(14)
H18 H 1.0881 0.7220 0.3516
N2 N 0.8542(3) 0.48233(15) 0.26670(14)
O1 O 0.8401(2) 0.33128(15) 0.21580(14)
O2 O 0.5717(3) 0.57032(18) 0.26861(15)
O3 O 0.5231(2) 0.51984(18) 0.40221(14)
loop_
_geom_bond_atom_site_label_1
_geom_bond_atom_site_label_2
_geom_bond_site_symmetry_1
_geom_bond_site_symmetry_2
C1 C2 1_555 1_555
C2 H1 1_555 1_555
C3 C2 1_555 1_555
H2 C3 1_555 1_555
C4 C3 1_555 1_555
H3 C4 1_555 1_555
C5 C4 1_555 1_555
H4 C5 1_555 1_555
C6 C1 1_555 1_555
C7 C8 1_555 1_555
C8 H5 1_555 1_555
C9 C8 1_555 1_555
H6 C9 1_555 1_555
H7 C9 1_555 1_555
C10 C9 1_555 1_555
H8 C10 1_555 1_555
H9 C10 1_555 1_555
C11 C10 1_555 1_555
H10 C11 1_555 1_555
H11 C11 1_555 1_555
C12 C11 1_555 1_555
C13 H12 1_555 1_555
C14 C13 1_555 1_555
H13 C14 1_555 1_555
H14 C14 1_555 1_555
C15 C1 1_555 1_555
C16 C13 1_555 1_555
C17 H15 1_555 1_555
H16 C17 1_555 1_555
H17 C17 1_555 1_555
N1 C6 1_555 1_555
H18 N1 1_555 1_555
N2 C8 1_555 1_555
O1 C12 1_555 1_555
O2 C16 1_555 1_555
O3 C16 1_555 1_555
C5 C6 1_555 1_555
C7 C15 1_555 1_555
C7 N1 1_555 1_555
C12 N2 1_555 1_555
C13 N2 1_555 1_555
C14 C15 1_555 1_555
C17 O3 1_555 1_555

#END
