
#######################################################################
#
#                 Cambridge Crystallographic Data Centre
#                                CCDC 
#
#######################################################################
#
# If this CIF has been generated from an entry in the Cambridge 
# Structural Database, then it will include bibliographic, chemical, 
# crystal, experimental, refinement or atomic coordinate data resulting 
# from the CCDC's data processing and validation procedures.
#
#######################################################################

data_LOPLEJ
_chemical_formula_moiety         'C17 H13 Cl1 O3'
_chemical_name_systematic        
'1-hydroxy-1,2-dihydronaphthalen-2-yl 4-chlorobenzoate'
_symmetry_cell_setting           triclinic
_symmetry_space_group_name_H-M   'P 1'
_symmetry_Int_Tables_number      1
_space_group_name_Hall           'P 1'
loop_
_symmetry_equiv_pos_site_id
_symmetry_equiv_pos_as_xyz
1 x,y,z
_cell_length_a                   5.6729(8)
_cell_length_b                   8.3757(12)
_cell_length_c                   30.426(4)
_cell_angle_alpha                90.014(2)
_cell_angle_beta                 89.976(2)
_cell_angle_gamma                90.018(2)
_cell_volume                     1445.68
_cell_formula_units_Z            4
loop_
_atom_site_label
_atom_site_type_symbol
_atom_site_fract_x
_atom_site_fract_y
_atom_site_fract_z
Cl1 Cl 0.27504(17) 0.29790(14) 0.63107(4)
C1 C 0.3759(6) 0.1965(4) 0.96697(12)
C2 C 0.2140(7) 0.2669(5) 0.68627(14)
C3 C 0.3211(6) 0.2941(4) 0.76140(13)
C4 C 0.1837(7) 0.2777(4) 0.98515(13)
C5 C 0.0495(6) 0.1875(4) 0.82020(12)
C6 C 0.1733(6) 0.2003(4) 0.89457(11)
C7 C 0.4094(6) 0.2012(4) 0.91764(11)
C8 C 0.1118(6) 0.2195(4) 0.77365(12)
C9 C 0.0076(7) 0.1918(5) 0.69777(14)
C10 C 0.0131(6) 0.3258(4) 0.91309(14)
C11 C -0.0434(7) 0.1689(5) 0.74155(13)
C12 C 0.1614(8) 0.2817(6) 1.03105(16)
C13 C 0.0180(7) 0.3559(4) 0.95602(14)
C14 C 0.3692(7) 0.3180(5) 0.71742(13)
C15 C 0.3235(9) 0.2064(6) 1.05747(16)
C16 C 0.5384(7) 0.1255(5) 0.99455(13)
C17 C 0.5117(8) 0.1292(6) 1.03910(14)
O1 O 0.2192(4) 0.2298(3) 0.84831(8)
O2 O 0.5503(4) 0.0687(3) 0.90415(8)
O3 O -0.1373(4) 0.1289(3) 0.83130(9)
H1 H 0.5077(7) 0.3691(5) 0.70904(13)
H2 H 0.4278(6) 0.3275(4) 0.78270(13)
H3 H -0.1834(7) 0.1189(5) 0.74959(13)
H4 H -0.0964(7) 0.1568(5) 0.67620(14)
H5 H 0.6686(7) 0.0742(5) 0.98250(13)
H6 H 0.6218(8) 0.0790(6) 1.05704(14)
H7 H 0.3052(9) 0.2081(6) 1.08784(16)
H8 H 0.0356(8) 0.3359(6) 1.04375(16)
H9 H 0.0997(6) 0.0951(4) 0.89799(11)
H10 H 0.4924(6) 0.2999(4) 0.90997(11)
H11 H -0.0886(6) 0.3820(4) 0.89478(14)
H12 H -0.0880(7) 0.4292(4) 0.96767(14)
H13 H 0.616(7) 0.090(2) 0.8808(9)
Cl2 Cl 0.13352(17) 0.79761(14) 1.09514(4)
C18 C 0.0330(6) 0.6975(4) 0.75878(11)
C19 C 0.1970(7) 0.7652(5) 1.03933(14)
C20 C 0.3623(6) 0.6886(4) 0.90553(12)
C21 C 0.2989(6) 0.7189(4) 0.95244(12)
C22 C 0.0010(5) 0.7001(4) 0.80851(11)
C23 C 0.0914(6) 0.7940(5) 0.96471(13)
C24 C 0.2373(6) 0.6999(4) 0.83124(12)
C25 C 0.4541(7) 0.6688(5) 0.98449(13)
C26 C 0.2280(7) 0.7788(4) 0.74093(13)
C27 C 0.0409(7) 0.8177(5) 1.00847(13)
C28 C 0.3988(6) 0.8247(4) 0.81290(13)
C29 C 0.4041(8) 0.6917(5) 1.02826(13)
C30 C 0.2521(8) 0.7827(5) 0.69489(17)
C31 C 0.3937(7) 0.8563(5) 0.77023(15)
C32 C -0.1270(7) 0.6261(5) 0.73166(13)
C33 C 0.0883(9) 0.7070(6) 0.66889(16)
C34 C -0.1011(8) 0.6292(6) 0.68670(15)
O4 O 0.5479(4) 0.6282(3) 0.89474(8)
O5 O 0.1916(4) 0.7290(3) 0.87763(8)
O6 O -0.1400(4) 0.5690(3) 0.82166(8)
H14 H 0.5088(8) 0.6580(5) 1.04987(13)
H15 H 0.5940(7) 0.6189(5) 0.97640(13)
H16 H -0.0139(6) 0.8285(5) 0.94332(13)
H17 H -0.0975(7) 0.8687(5) 1.01687(13)
H18 H -0.2565(7) 0.5742(5) 0.74384(13)
H19 H -0.2107(8) 0.5790(6) 0.66866(15)
H20 H 0.1066(9) 0.7088(6) 0.63852(16)
H21 H 0.3783(8) 0.8362(5) 0.68211(17)
H22 H -0.0816(5) 0.7987(4) 0.81646(11)
H23 H 0.3105(6) 0.5947(4) 0.82782(12)
H24 H 0.5018(6) 0.8795(4) 0.83128(13)
H25 H 0.4995(7) 0.9303(5) 0.75877(15)
H26 H -0.223(6) 0.5955(17) 0.8425(10)
Cl3 Cl 0.63302(17) 0.45733(14) 0.13108(4)
C35 C 0.5337(6) 0.5607(4) 0.46691(12)
C36 C 0.5901(6) 0.4635(5) 0.26156(13)
C37 C 0.7991(6) 0.5382(4) 0.27360(12)
C38 C 0.8613(6) 0.5697(4) 0.32016(12)
C39 C 0.7379(6) 0.5573(4) 0.39483(11)
C40 C 0.5005(5) 0.5569(4) 0.41766(11)
C41 C 0.7252(7) 0.4797(4) 0.48516(13)
C42 C 0.6974(7) 0.4911(5) 0.18632(13)
C43 C 0.8913(6) 0.4006(4) 0.45552(14)
C44 C 0.5416(7) 0.4400(5) 0.21743(13)
C45 C 0.9538(7) 0.5887(5) 0.24173(13)
C46 C 0.8976(6) 0.4320(4) 0.41322(13)
C47 C 0.3718(7) 0.6331(5) 0.49409(13)
C48 C 0.7494(8) 0.4748(6) 0.53116(16)
C49 C 0.5877(9) 0.5526(6) 0.55776(15)
C50 C 0.3972(8) 0.6290(6) 0.53954(14)
O7 O 1.0484(4) 0.6286(3) 0.33125(9)
O8 O 0.6916(4) 0.5278(3) 0.34833(8)
O9 O 0.3595(4) 0.6883(3) 0.40434(8)
C51 C 0.9037(7) 0.5655(5) 0.19736(14)
H27 H 1.0082(7) 0.5997(5) 0.17575(14)
H28 H 1.0933(7) 0.6390(5) 0.24987(13)
H29 H 0.4839(6) 0.4297(5) 0.28291(13)
H30 H 0.4028(7) 0.3893(5) 0.20901(13)
H31 H 0.2433(7) 0.6857(5) 0.48186(13)
H32 H 0.2858(8) 0.6778(6) 0.55750(14)
H33 H 0.6082(9) 0.5530(6) 0.58809(15)
H34 H 0.8743(8) 0.4193(6) 0.54374(16)
H35 H 0.8116(6) 0.6624(4) 0.39826(11)
H36 H 0.4178(5) 0.4581(4) 0.40990(11)
H37 H 0.9957(6) 0.3258(4) 0.46697(14)
H38 H 1.0004(6) 0.3768(4) 0.39489(13)
H39 H 0.282(7) 0.6630(19) 0.3827(10)
Cl4 Cl 0.77471(17) -0.04225(14) 0.59506(4)
C52 C 0.8749(6) 0.0595(4) 0.25894(11)
C53 C 0.6837(7) -0.0205(4) 0.24077(13)
C54 C 0.6117(6) 0.0385(4) 0.45236(12)
C55 C 0.8194(6) -0.0358(4) 0.46447(13)
C56 C 0.7122(7) -0.0086(5) 0.53998(13)
C57 C 0.9097(5) 0.0574(4) 0.30828(11)
C58 C 0.5481(6) 0.0687(4) 0.40592(12)
C59 C 0.5072(7) 0.0657(5) 0.52880(14)
C60 C 0.6714(6) 0.0571(4) 0.33125(12)
C61 C 0.5126(6) -0.0663(4) 0.31257(13)
C62 C 0.8691(7) -0.0597(5) 0.50860(13)
C63 C 0.4548(6) 0.0879(5) 0.48427(13)
C64 C 0.5177(6) -0.0993(5) 0.27011(15)
C65 C 1.0389(7) 0.1322(5) 0.23164(13)
C66 C 0.6574(8) -0.0260(6) 0.19496(16)
C67 C 0.8226(9) 0.0501(6) 0.16825(15)
C68 C 1.0106(9) 0.1280(6) 0.18649(14)
O10 O 1.0500(4) 0.1883(3) 0.32174(8)
O11 O 0.7186(4) 0.0276(3) 0.37758(8)
O12 O 0.3623(4) 0.1287(3) 0.39471(9)
H40 H 1.0080(7) -0.1102(5) 0.51692(13)
H41 H 0.9255(6) -0.0696(4) 0.44308(13)
H42 H 0.3137(6) 0.1360(5) 0.47616(13)
H43 H 0.4037(7) 0.1011(5) 0.55041(14)
H44 H 1.1685(7) 0.1841(5) 0.24375(13)
H45 H 1.1201(9) 0.1784(6) 0.16844(14)
H46 H 0.8048(9) 0.0479(6) 0.13787(15)
H47 H 0.5307(8) -0.0800(6) 0.18249(16)
H48 H 0.9925(5) -0.0413(4) 0.31610(11)
H49 H 0.5981(6) 0.1624(4) 0.32798(12)
H50 H 0.4087(6) -0.1207(4) 0.33088(13)
H51 H 0.4133(6) -0.1744(5) 0.25877(15)
H52 H 1.134(6) 0.1610(15) 0.3423(10)
loop_
_geom_bond_atom_site_label_1
_geom_bond_atom_site_label_2
_geom_bond_site_symmetry_1
_geom_bond_site_symmetry_2
Cl1 C2 1_555 1_555
C1 C4 1_555 1_555
C2 C9 1_555 1_555
C3 C8 1_555 1_555
C4 C12 1_555 1_555
C5 C8 1_555 1_555
C6 C7 1_555 1_555
C7 C1 1_555 1_555
C8 C11 1_555 1_555
C9 C11 1_555 1_555
C10 C6 1_555 1_555
C11 H3 1_555 1_555
C12 C15 1_555 1_555
C13 C4 1_555 1_555
C14 C2 1_555 1_555
C15 C17 1_555 1_555
C16 C1 1_555 1_555
C17 C16 1_555 1_555
O1 C5 1_555 1_555
O2 C7 1_555 1_555
O3 C5 1_555 1_555
H1 C14 1_555 1_555
H2 C3 1_555 1_555
H4 C9 1_555 1_555
H5 C16 1_555 1_555
H6 C17 1_555 1_555
H7 C15 1_555 1_555
H8 C12 1_555 1_555
H9 C6 1_555 1_555
H10 C7 1_555 1_555
H11 C10 1_555 1_555
H12 C13 1_555 1_555
H13 O2 1_555 1_555
Cl2 C19 1_555 1_555
C18 C22 1_555 1_555
C19 C27 1_555 1_555
C20 C21 1_555 1_555
C21 C23 1_555 1_555
C22 C24 1_555 1_555
C23 C27 1_555 1_555
C24 C28 1_555 1_555
C25 C21 1_555 1_555
C26 C18 1_555 1_555
C27 H17 1_555 1_555
C28 C31 1_555 1_555
C29 C19 1_555 1_555
C30 C26 1_555 1_555
C31 C26 1_555 1_555
C32 C18 1_555 1_555
C33 C30 1_555 1_555
C34 C32 1_555 1_555
O4 C20 1_555 1_555
O5 C20 1_555 1_555
O6 C22 1_555 1_555
H14 C29 1_555 1_555
H15 C25 1_555 1_555
H16 C23 1_555 1_555
H18 C32 1_555 1_555
H19 C34 1_555 1_555
H20 C33 1_555 1_555
H21 C30 1_555 1_555
H22 C22 1_555 1_555
H23 C24 1_555 1_555
H24 C28 1_555 1_555
H25 C31 1_555 1_555
H26 O6 1_555 1_555
Cl3 C42 1_555 1_555
C35 C40 1_555 1_555
C36 C37 1_555 1_555
C37 C38 1_555 1_555
C38 O7 1_555 1_555
C39 C40 1_555 1_555
C40 O9 1_555 1_555
C41 C35 1_555 1_555
C42 C44 1_555 1_555
C43 C41 1_555 1_555
C44 C36 1_555 1_555
C45 C37 1_555 1_555
C46 C39 1_555 1_555
C47 C35 1_555 1_555
C48 C41 1_555 1_555
C49 C48 1_555 1_555
C50 C47 1_555 1_555
O8 C38 1_555 1_555
O9 H39 1_555 1_555
C51 C42 1_555 1_555
H27 C51 1_555 1_555
H28 C45 1_555 1_555
H29 C36 1_555 1_555
H30 C44 1_555 1_555
H31 C47 1_555 1_555
H32 C50 1_555 1_555
H33 C49 1_555 1_555
H34 C48 1_555 1_555
H35 C39 1_555 1_555
H36 C40 1_555 1_555
H37 C43 1_555 1_555
H38 C46 1_555 1_555
Cl4 C56 1_555 1_555
C52 C53 1_555 1_555
C53 C64 1_555 1_555
C54 C55 1_555 1_555
C55 C62 1_555 1_555
C56 C59 1_555 1_555
C57 C52 1_555 1_555
C58 C54 1_555 1_555
C59 C63 1_555 1_555
C60 C57 1_555 1_555
C61 C60 1_555 1_555
C62 C56 1_555 1_555
C63 C54 1_555 1_555
C64 C61 1_555 1_555
C65 C52 1_555 1_555
C66 C53 1_555 1_555
C67 C66 1_555 1_555
C68 C65 1_555 1_555
O10 C57 1_555 1_555
O11 C58 1_555 1_555
O12 C58 1_555 1_555
H40 C62 1_555 1_555
H41 C55 1_555 1_555
H42 C63 1_555 1_555
H43 C59 1_555 1_555
H44 C65 1_555 1_555
H45 C68 1_555 1_555
H46 C67 1_555 1_555
H47 C66 1_555 1_555
H48 C57 1_555 1_555
H49 C60 1_555 1_555
H50 C61 1_555 1_555
H51 C64 1_555 1_555
H52 O10 1_555 1_555
C3 C14 1_555 1_555
C6 O1 1_555 1_555
C10 C13 1_555 1_555
C24 O5 1_555 1_555
C25 C29 1_555 1_555
C33 C34 1_555 1_555
C39 O8 1_555 1_555
C43 C46 1_555 1_555
C45 C51 1_555 1_555
C49 C50 1_555 1_555
C60 O11 1_555 1_555
C67 C68 1_555 1_555

#END
