
#######################################################################
#
#                 Cambridge Crystallographic Data Centre
#                                CCDC 
#
#######################################################################
#
# If this CIF has been generated from an entry in the Cambridge 
# Structural Database, then it will include bibliographic, chemical, 
# crystal, experimental, refinement or atomic coordinate data resulting 
# from the CCDC's data processing and validation procedures.
#
#######################################################################

data_LOPLUZ
_chemical_formula_moiety         'C24 H19 N1 O5'
_chemical_name_systematic        
'dimethyl 3-(2-methylbenzoyl)pyrrolo[2,1-a]isoquinoline-1,2-dicarboxylate'
_symmetry_cell_setting           triclinic
_symmetry_space_group_name_H-M   'P -1'
_symmetry_Int_Tables_number      2
_space_group_name_Hall           '-P 1'
loop_
_symmetry_equiv_pos_site_id
_symmetry_equiv_pos_as_xyz
1 x,y,z
2 -x,-y,-z
_cell_length_a                   7.4680(9)
_cell_length_b                   11.1343(13)
_cell_length_c                   13.0354(13)
_cell_angle_alpha                105.458(3)
_cell_angle_beta                 99.287(3)
_cell_angle_gamma                106.521(4)
_cell_volume                     968.014
_cell_formula_units_Z            2
loop_
_atom_site_label
_atom_site_type_symbol
_atom_site_fract_x
_atom_site_fract_y
_atom_site_fract_z
C1 C 0.5915(3) 0.37527(19) 0.83644(16)
C2 C 0.6199(3) 0.38234(19) 0.72785(15)
C3 C 0.7224(3) 0.49668(18) 0.70661(15)
C4 C 0.7043(3) 0.46186(18) 0.59225(15)
C5 C 0.7171(3) 0.4588(2) 0.40479(17)
C6 C 0.7766(3) 0.52944(19) 0.51886(16)
C7 C 0.4210(3) 0.1409(2) 0.60884(17)
C8 C 0.5300(3) 0.2614(2) 0.43455(16)
H1 H 0.4500 0.1729 0.4072
C9 C 0.5381(3) 0.27863(19) 0.62933(16)
C10 C 0.4482(3) 0.08723(19) 0.70237(17)
C11 C 0.9062(3) 0.6601(2) 0.55453(18)
H2 H 0.9482 0.7084 0.6294
C12 C 0.8183(3) 0.6259(2) 0.79291(16)
C13 C 0.9111(4) 0.6479(3) 0.3691(2)
H3 H 0.9558 0.6878 0.3196
C14 C 0.9721(4) 0.7179(2) 0.4806(2)
H4 H 1.0583 0.8047 0.5058
C15 C 0.5918(3) 0.3245(2) 0.36623(17)
H5 H 0.5516 0.2789 0.2909
C16 C 0.7859(4) 0.5209(3) 0.33152(19)
H6 H 0.7455 0.4746 0.2563
C17 C 0.6333(3) 0.0873(2) 0.74457(19)
H7 H 0.7363 0.1273 0.7192
C18 C 0.2933(3) 0.0301(2) 0.7419(2)
C19 C 0.3289(4) -0.0272(2) 0.8233(2)
H8 H 0.2288 -0.0650 0.8516
C20 C 0.6637(4) 0.0287(3) 0.8233(2)
H9 H 0.7860 0.0274 0.8503
C21 C 0.5109(4) -0.0276(3) 0.8611(2)
H10 H 0.5313 -0.0674 0.9142
C22 C 0.7453(4) 0.4033(3) 1.0172(2)
H11 H 0.6758 0.4604 1.0439
H12 H 0.8729 0.4357 1.0652
H13 H 0.6783 0.3150 1.0153
C23 C 0.0995(4) 0.0369(3) 0.7056(3)
H14 H 0.0969 0.1220 0.7456
H15 H 0.0045 -0.0316 0.7193
H16 H 0.0712 0.0247 0.6282
C24 C 0.8158(4) 0.7549(3) 0.9680(2)
H17 H 0.9362 0.7513 1.0035
H18 H 0.7336 0.7562 1.0175
H19 H 0.8394 0.8339 0.9479
N1 N 0.5866(2) 0.32972(15) 0.54700(12)
O1 O 0.3115(2) 0.06883(16) 0.51963(13)
O2 O 0.4377(2) 0.34915(16) 0.85764(12)
O3 O 0.7585(2) 0.40182(16) 0.90759(12)
O4 O 0.9669(3) 0.70791(19) 0.79959(15)
O5 O 0.7232(2) 0.64047(14) 0.87084(12)
loop_
_geom_bond_atom_site_label_1
_geom_bond_atom_site_label_2
_geom_bond_site_symmetry_1
_geom_bond_site_symmetry_2
C1 C2 1_555 1_555
C2 C3 1_555 1_555
C3 C4 1_555 1_555
C4 C6 1_555 1_555
C5 C6 1_555 1_555
C6 C11 1_555 1_555
C7 C9 1_555 1_555
C8 H1 1_555 1_555
C9 C2 1_555 1_555
C10 C7 1_555 1_555
C11 H2 1_555 1_555
C12 C3 1_555 1_555
C13 H3 1_555 1_555
C14 C11 1_555 1_555
H4 C14 1_555 1_555
C15 C5 1_555 1_555
H5 C15 1_555 1_555
C16 C5 1_555 1_555
H6 C16 1_555 1_555
C17 C10 1_555 1_555
H7 C17 1_555 1_555
C18 C10 1_555 1_555
C19 C18 1_555 1_555
H8 C19 1_555 1_555
C20 C17 1_555 1_555
H9 C20 1_555 1_555
C21 C19 1_555 1_555
H10 C21 1_555 1_555
C22 H11 1_555 1_555
H12 C22 1_555 1_555
H13 C22 1_555 1_555
C23 C18 1_555 1_555
H14 C23 1_555 1_555
H15 C23 1_555 1_555
H16 C23 1_555 1_555
C24 H17 1_555 1_555
H18 C24 1_555 1_555
H19 C24 1_555 1_555
N1 C4 1_555 1_555
O1 C7 1_555 1_555
O2 C1 1_555 1_555
O3 C1 1_555 1_555
O4 C12 1_555 1_555
O5 C12 1_555 1_555
C8 C15 1_555 1_555
C8 N1 1_555 1_555
C9 N1 1_555 1_555
C13 C14 1_555 1_555
C13 C16 1_555 1_555
C20 C21 1_555 1_555
C22 O3 1_555 1_555
C24 O5 1_555 1_555

#END
