
#######################################################################
#
#                 Cambridge Crystallographic Data Centre
#                                CCDC 
#
#######################################################################
#
# If this CIF has been generated from an entry in the Cambridge 
# Structural Database, then it will include bibliographic, chemical, 
# crystal, experimental, refinement or atomic coordinate data resulting 
# from the CCDC's data processing and validation procedures.
#
#######################################################################

data_LOPQEO01
_chemical_formula_moiety         'C12 H21 N1 O1'
_chemical_name_systematic        
N-(1,7,7-trimethylbicyclo[2.2.1]hept-2-yl)acetamide
_symmetry_cell_setting           monoclinic
_symmetry_space_group_name_H-M   'P 21/n'
_symmetry_Int_Tables_number      14
_space_group_name_Hall           '-P 2yn'
loop_
_symmetry_equiv_pos_site_id
_symmetry_equiv_pos_as_xyz
1 x,y,z
2 1/2-x,1/2+y,1/2-z
3 -x,-y,-z
4 1/2+x,1/2-y,1/2+z
_cell_length_a                   9.6820(6)
_cell_length_b                   10.6540(3)
_cell_length_c                   23.3676(7)
_cell_angle_alpha                90
_cell_angle_beta                 97.184(10)
_cell_angle_gamma                90
_cell_volume                     2391.49
_exptl_crystal_colour            colorless
_exptl_crystal_description       plate
_cell_formula_units_Z            8
loop_
_atom_site_label
_atom_site_type_symbol
_atom_site_fract_x
_atom_site_fract_y
_atom_site_fract_z
O1 O -0.02258(14) 0.12729(16) 0.06523(7)
N1 N 0.18985(18) 0.21667(19) 0.07437(8)
H1 H 0.276(2) 0.204(2) 0.0728(9)
C1 C 0.1084(3) 0.6083(3) 0.09760(13)
H2 H 0.0660 0.6280 0.0579
H3 H 0.1171 0.6865 0.1206
C2 C 0.0227(2) 0.5082(2) 0.12569(12)
H4 H -0.0068 0.5399 0.1621
H5 H -0.0610 0.4837 0.0993
C3 C 0.1236(2) 0.3969(2) 0.13719(10)
C4 C 0.1376(2) 0.3440(2) 0.07640(10)
H6 H 0.0440 0.3475 0.0529
C5 C 0.2338(2) 0.4415(2) 0.05134(11)
H7 H 0.3248 0.4039 0.0460
H8 H 0.1898 0.4752 0.0140
C6 C 0.2501(2) 0.5434(2) 0.09772(11)
H9 H 0.3292 0.6024 0.0947
C7 C 0.2638(2) 0.4669(2) 0.15414(10)
C8 C 0.3926(2) 0.3821(3) 0.16342(12)
H10 H 0.3995 0.3333 0.1283
H11 H 0.3844 0.3248 0.1956
H12 H 0.4762 0.4339 0.1722
C9 C 0.2675(3) 0.5485(3) 0.20856(12)
H13 H 0.3534 0.5981 0.2135
H14 H 0.2645 0.4945 0.2423
H15 H 0.1870 0.6050 0.2046
C10 C 0.0805(3) 0.3019(3) 0.17942(12)
H16 H 0.0789 0.3419 0.2171
H17 H 0.1471 0.2323 0.1831
H18 H -0.0126 0.2700 0.1654
C11 C 0.1054(2) 0.1169(2) 0.06847(9)
C12 C 0.1737(2) -0.0091(2) 0.06613(12)
H19 H 0.1673 -0.0544 0.1022
H20 H 0.2719 0.0022 0.0610
H21 H 0.1267 -0.0574 0.0337
O2 O 0.52606(14) -0.16700(16) -0.05366(7)
N2 N 0.31245(18) -0.08247(18) -0.07554(8)
H22 H 0.223(2) -0.092(2) -0.0758(9)
C13 C 0.3751(3) 0.2963(3) -0.12778(15)
H23 H 0.4035 0.3332 -0.0892
H24 H 0.3675 0.3640 -0.1570
C14 C 0.4775(2) 0.1949(2) -0.14177(13)
H25 H 0.5552 0.1864 -0.1102
H26 H 0.5161 0.2145 -0.1780
C15 C 0.3881(2) 0.0737(2) -0.14821(11)
C16 C 0.3603(2) 0.0434(2) -0.08641(10)
H27 H 0.4474 0.0600 -0.0597
C17 C 0.2472(3) 0.1450(3) -0.07462(12)
H28 H 0.1567 0.1053 -0.0702
H29 H 0.2786 0.1956 -0.0399
C18 C 0.2383(3) 0.2240(3) -0.12928(14)
H30 H 0.1537 0.2786 -0.1354
C19 C 0.2459(2) 0.1260(3) -0.17734(11)
C20 C 0.1271(2) 0.0305(3) -0.18521(12)
H31 H 0.1113 -0.0029 -0.1475
H32 H 0.1518 -0.0383 -0.2098
H33 H 0.0421 0.0715 -0.2033
C21 C 0.2545(3) 0.1849(4) -0.23710(14)
H34 H 0.1685 0.2313 -0.2495
H35 H 0.2664 0.1184 -0.2650
H36 H 0.3340 0.2424 -0.2347
C22 C 0.4535(3) -0.0307(3) -0.17793(12)
H37 H 0.3955 -0.1061 -0.1779
H38 H 0.5462 -0.0483 -0.1576
H39 H 0.4618 -0.0063 -0.2178
C23 C 0.3980(2) -0.1770(2) -0.05835(9)
C24 C 0.3303(2) -0.2983(3) -0.04552(14)
H40 H 0.3754 -0.3321 -0.0089
H41 H 0.3397 -0.3585 -0.0765
H42 H 0.2314 -0.2838 -0.0428
loop_
_geom_bond_atom_site_label_1
_geom_bond_atom_site_label_2
_geom_bond_site_symmetry_1
_geom_bond_site_symmetry_2
O1 C11 1_555 1_555
N1 H1 1_555 1_555
C1 H2 1_555 1_555
H3 C1 1_555 1_555
C2 C1 1_555 1_555
H4 C2 1_555 1_555
H5 C2 1_555 1_555
C3 C2 1_555 1_555
C4 N1 1_555 1_555
H6 C4 1_555 1_555
C5 C4 1_555 1_555
H7 C5 1_555 1_555
H8 C5 1_555 1_555
C6 C1 1_555 1_555
H9 C6 1_555 1_555
C7 C3 1_555 1_555
C8 C7 1_555 1_555
H10 C8 1_555 1_555
H11 C8 1_555 1_555
H12 C8 1_555 1_555
C9 C7 1_555 1_555
H13 C9 1_555 1_555
H14 C9 1_555 1_555
H15 C9 1_555 1_555
C10 C3 1_555 1_555
H16 C10 1_555 1_555
H17 C10 1_555 1_555
H18 C10 1_555 1_555
C11 N1 1_555 1_555
C12 C11 1_555 1_555
H19 C12 1_555 1_555
H20 C12 1_555 1_555
H21 C12 1_555 1_555
O2 C23 1_555 1_555
N2 H22 1_555 1_555
C13 H23 1_555 1_555
H24 C13 1_555 1_555
C14 C13 1_555 1_555
H25 C14 1_555 1_555
H26 C14 1_555 1_555
C15 C14 1_555 1_555
C16 N2 1_555 1_555
H27 C16 1_555 1_555
C17 C16 1_555 1_555
H28 C17 1_555 1_555
H29 C17 1_555 1_555
C18 C13 1_555 1_555
H30 C18 1_555 1_555
C19 C15 1_555 1_555
C20 C19 1_555 1_555
H31 C20 1_555 1_555
H32 C20 1_555 1_555
H33 C20 1_555 1_555
C21 C19 1_555 1_555
H34 C21 1_555 1_555
H35 C21 1_555 1_555
H36 C21 1_555 1_555
C22 C15 1_555 1_555
H37 C22 1_555 1_555
H38 C22 1_555 1_555
H39 C22 1_555 1_555
C23 N2 1_555 1_555
C24 C23 1_555 1_555
H40 C24 1_555 1_555
H41 C24 1_555 1_555
H42 C24 1_555 1_555
C3 C4 1_555 1_555
C5 C6 1_555 1_555
C6 C7 1_555 1_555
C15 C16 1_555 1_555
C17 C18 1_555 1_555
C18 C19 1_555 1_555

#END
