
#######################################################################
#
#                 Cambridge Crystallographic Data Centre
#                                CCDC 
#
#######################################################################
#
# If this CIF has been generated from an entry in the Cambridge 
# Structural Database, then it will include bibliographic, chemical, 
# crystal, experimental, refinement or atomic coordinate data resulting 
# from the CCDC's data processing and validation procedures.
#
#######################################################################

data_LOPVIX
_chemical_formula_moiety         'C24 H23 N3 O1'
_chemical_name_systematic        
2-(2-(1-(3,4-Dimethylphenyl)-3,5-dimethyl-1H-pyrazol-4-yl)vinyl)quinolin-8-ol
_symmetry_cell_setting           triclinic
_symmetry_space_group_name_H-M   'P -1'
_symmetry_Int_Tables_number      2
_space_group_name_Hall           '-P 1'
loop_
_symmetry_equiv_pos_site_id
_symmetry_equiv_pos_as_xyz
1 x,y,z
2 -x,-y,-z
_cell_length_a                   7.5895(10)
_cell_length_b                   11.8359(16)
_cell_length_c                   12.3989(16)
_cell_angle_alpha                114.974(2)
_cell_angle_beta                 90.679(3)
_cell_angle_gamma                102.307(3)
_cell_volume                     979.891
_exptl_crystal_colour            colorless
_exptl_crystal_description       block
_cell_formula_units_Z            2
loop_
_atom_site_label
_atom_site_type_symbol
_atom_site_fract_x
_atom_site_fract_y
_atom_site_fract_z
N1 N 0.6887(2) 0.42592(13) -0.14786(13)
N2 N 0.2719(2) 0.05054(14) 0.10455(13)
N3 N 0.3502(2) 0.12743(13) 0.22049(12)
O1 O 0.6693(2) 0.39082(14) -0.37472(12)
H1 H 0.6133 0.3503 -0.3410
C1 C 0.7911(2) 0.52146(16) -0.17110(16)
C2 C 0.7804(3) 0.50109(17) -0.29189(16)
C3 C 0.8782(3) 0.5913(2) -0.32351(19)
H2 H 0.8725 0.5770 -0.4034
C4 C 0.9869(3) 0.7051(2) -0.2353(2)
H3 H 1.0516 0.7666 -0.2573
C5 C 1.0004(3) 0.72813(18) -0.11823(19)
H4 H 1.0737 0.8046 -0.0611
C6 C 0.9025(2) 0.63541(16) -0.08350(17)
C7 C 0.9044(3) 0.64876(17) 0.03541(17)
H5 H 0.9757 0.7221 0.0976
C8 C 0.8023(2) 0.55452(16) 0.05847(16)
H6 H 0.8034 0.5639 0.1368
C9 C 0.6940(2) 0.44196(16) -0.03497(15)
C10 C 0.5825(2) 0.33710(16) -0.01504(16)
H7 H 0.5135 0.2679 -0.0818
C11 C 0.5700(2) 0.33114(17) 0.08904(16)
H8 H 0.6400 0.4018 0.1543
C12 C 0.4643(2) 0.23168(16) 0.11695(15)
C13 C 0.3400(2) 0.11395(16) 0.04290(15)
C14 C 0.2783(3) 0.05701(18) -0.08808(16)
H9 H 0.3731 0.0243 -0.1329
H10 H 0.2504 0.1218 -0.1079
H11 H 0.1719 -0.0117 -0.1076
C15 C 0.4677(2) 0.23696(16) 0.23048(15)
C16 C 0.5779(3) 0.33673(18) 0.34392(16)
H12 H 0.5077 0.3962 0.3881
H13 H 0.6853 0.3818 0.3256
H14 H 0.6119 0.2964 0.3911
C17 C 0.3105(2) 0.07930(17) 0.30750(16)
C18 C 0.2977(3) 0.15952(18) 0.42518(16)
H15 H 0.3101 0.2466 0.4476
C19 C 0.2668(3) 0.1127(2) 0.51084(17)
C20 C 0.2547(3) 0.2041(2) 0.63778(19)
H16 H 0.3549 0.2096 0.6892
H17 H 0.1427 0.1736 0.6630
H18 H 0.2587 0.2876 0.6421
C21 C 0.2137(3) -0.0741(3) 0.5668(2)
H19 H 0.1836 -0.1662 0.5256
H20 H 0.1158 -0.0461 0.6108
H21 H 0.3223 -0.0451 0.6211
C22 C 0.2442(3) -0.0188(2) 0.47655(19)
C23 C 0.2514(3) -0.0974(2) 0.3580(2)
H22 H 0.2328 -0.1852 0.3341
C24 C 0.2851(3) -0.05090(18) 0.27312(17)
H23 H 0.2906 -0.1065 0.1940
loop_
_geom_bond_atom_site_label_1
_geom_bond_atom_site_label_2
_geom_bond_site_symmetry_1
_geom_bond_site_symmetry_2
N1 C1 1_555 1_555
N2 N3 1_555 1_555
N3 C15 1_555 1_555
O1 H1 1_555 1_555
C1 C2 1_555 1_555
C2 O1 1_555 1_555
C3 C2 1_555 1_555
H2 C3 1_555 1_555
C4 C3 1_555 1_555
H3 C4 1_555 1_555
C5 C4 1_555 1_555
H4 C5 1_555 1_555
C6 C1 1_555 1_555
C7 C6 1_555 1_555
H5 C7 1_555 1_555
C8 C7 1_555 1_555
H6 C8 1_555 1_555
C9 N1 1_555 1_555
C10 C9 1_555 1_555
H7 C10 1_555 1_555
C11 C10 1_555 1_555
H8 C11 1_555 1_555
C12 C11 1_555 1_555
C13 N2 1_555 1_555
C14 C13 1_555 1_555
H9 C14 1_555 1_555
H10 C14 1_555 1_555
H11 C14 1_555 1_555
C15 C12 1_555 1_555
C16 C15 1_555 1_555
H12 C16 1_555 1_555
H13 C16 1_555 1_555
H14 C16 1_555 1_555
C17 N3 1_555 1_555
C18 C17 1_555 1_555
H15 C18 1_555 1_555
C19 C18 1_555 1_555
C20 C19 1_555 1_555
H16 C20 1_555 1_555
H17 C20 1_555 1_555
H18 C20 1_555 1_555
C21 H19 1_555 1_555
H20 C21 1_555 1_555
H21 C21 1_555 1_555
C22 C19 1_555 1_555
C23 C22 1_555 1_555
H22 C23 1_555 1_555
C24 C17 1_555 1_555
H23 C24 1_555 1_555
C5 C6 1_555 1_555
C8 C9 1_555 1_555
C12 C13 1_555 1_555
C21 C22 1_555 1_555
C23 C24 1_555 1_555

#END
