
#######################################################################
#
#                 Cambridge Crystallographic Data Centre
#                                CCDC 
#
#######################################################################
#
# If this CIF has been generated from an entry in the Cambridge 
# Structural Database, then it will include bibliographic, chemical, 
# crystal, experimental, refinement or atomic coordinate data resulting 
# from the CCDC's data processing and validation procedures.
#
#######################################################################

data_LOPYIA
_chemical_formula_moiety         'C59 H54 N2 O3'
_chemical_name_systematic        
'8,11,14,17-Tetra-t-butyl-4,5,6-trimethoxy-1,3-diazahexabenzo[bc,ef,hi,kl,no,qr]coronene unknown solvate'
_symmetry_cell_setting           monoclinic
_symmetry_space_group_name_H-M   'P 21/c'
_symmetry_Int_Tables_number      14
_space_group_name_Hall           '-P 2ybc'
loop_
_symmetry_equiv_pos_site_id
_symmetry_equiv_pos_as_xyz
1 x,y,z
2 -x,1/2+y,1/2-z
3 -x,-y,-z
4 x,1/2-y,1/2+z
_cell_length_a                   17.8254(6)
_cell_length_b                   10.8398(4)
_cell_length_c                   29.3462(9)
_cell_angle_alpha                90
_cell_angle_beta                 124.420(2)
_cell_angle_gamma                90
_cell_volume                     4677.59
_exptl_crystal_colour            'dark yellow'
_cell_formula_units_Z            4
_exptl_crystal_recrystallization_method 'Methanol, dichoromethane'
loop_
_atom_site_label
_atom_site_type_symbol
_atom_site_fract_x
_atom_site_fract_y
_atom_site_fract_z
O1 O 0.34663(13) 0.53683(19) 1.07375(8)
O2 O 0.32931(13) 0.62820(19) 1.15375(8)
O3 O 0.19220(13) 0.56658(19) 1.16054(8)
N1 N 0.02307(17) 0.4728(3) 1.10888(11)
N2 N -0.10507(17) 0.3413(3) 1.07958(11)
C1 C 0.07075(18) 0.2901(3) 1.00114(12)
C2 C 0.00004(19) 0.2499(3) 1.00576(12)
C3 C -0.05787(19) 0.1511(3) 0.97337(12)
C4 C -0.04460(19) 0.0907(3) 0.93613(12)
C5 C 0.02591(18) 0.1301(3) 0.93059(12)
C6 C 0.08349(18) 0.2296(3) 0.96317(12)
C7 C 0.13106(18) 0.3884(3) 1.03573(12)
C8 C 0.20230(19) 0.4259(3) 1.03057(12)
C9 C 0.26846(19) 0.5075(3) 1.07101(13)
C10 C 0.26040(19) 0.5570(3) 1.11145(12)
C11 C 0.18877(19) 0.5259(3) 1.11511(12)
C12 C 0.1211(2) 0.4428(3) 1.07674(12)
C13 C 0.4202(2) 0.4536(3) 1.10853(15)
H1 H 0.4724 0.4767 1.1088
H2 H 0.4023 0.3711 1.0946
H3 H 0.4350 0.4575 1.1454
C14 C 0.3500(2) 0.7410(3) 1.13747(15)
H4 H 0.3790 0.7973 1.1681
H5 H 0.2948 0.7772 1.1073
H6 H 0.3901 0.7240 1.1262
C15 C 0.1574(2) 0.6899(3) 1.15459(15)
H7 H 0.1702 0.7175 1.1894
H8 H 0.0928 0.6899 1.1275
H9 H 0.1859 0.7443 1.1429
C16 C -0.01495(19) 0.3125(3) 1.04305(12)
C17 C 0.04232(19) 0.4087(3) 1.07720(12)
C18 C -0.0493(2) 0.4349(3) 1.10748(14)
H10 H -0.0626 0.4801 1.1290
C19 C -0.08803(19) 0.2797(3) 1.04658(12)
C20 C -0.13278(19) 0.1159(3) 0.97692(13)
C21 C -0.14820(19) 0.1781(3) 1.01325(13)
C22 C -0.2205(2) 0.1464(3) 1.01623(14)
H11 H -0.2293 0.1887 1.0404
C23 C -0.2809(2) 0.0514(3) 0.98342(14)
C24 C -0.2643(2) -0.0098(3) 0.94833(14)
H12 H -0.3023 -0.0749 0.9274
C25 C -0.19362(19) 0.0212(3) 0.94274(13)
C26 C -0.3657(2) 0.0230(3) 0.98317(15)
C27 C -0.3958(2) -0.1112(3) 0.96777(16)
H13 H -0.4090 -0.1280 0.9318
H14 H -0.4493 -0.1251 0.9674
H15 H -0.3480 -0.1647 0.9944
C28 C -0.4421(2) 0.1095(3) 0.94028(18)
H16 H -0.4531 0.0953 0.9047
H17 H -0.4241 0.1937 0.9510
H18 H -0.4967 0.0932 0.9384
C29 C -0.3485(3) 0.0475(4) 1.03977(17)
H19 H -0.2973 -0.0003 1.0674
H20 H -0.4013 0.0246 1.0389
H21 H -0.3360 0.1336 1.0485
C30 C -0.10749(19) -0.0048(3) 0.90007(13)
C31 C -0.18263(19) -0.0366(3) 0.90173(13)
C32 C -0.2480(2) -0.1173(3) 0.86128(15)
H22 H -0.2978 -0.1379 0.8622
C33 C -0.2421(2) -0.1679(3) 0.82003(14)
C34 C -0.1640(2) -0.1415(3) 0.82188(14)
H23 H -0.1565 -0.1784 0.7961
C35 C -0.0963(2) -0.0613(3) 0.86102(13)
C36 C -0.3211(2) -0.2389(3) 0.77108(14)
C37 C -0.2893(3) -0.3255(4) 0.74376(16)
H24 H -0.2629 -0.2778 0.7287
H25 H -0.3405 -0.3709 0.7147
H26 H -0.2449 -0.3819 0.7708
C38 C -0.3868(2) -0.1432(4) 0.72859(16)
H27 H -0.4095 -0.0915 0.7448
H28 H -0.4367 -0.1847 0.6970
H29 H -0.3555 -0.0934 0.7173
C39 C -0.3729(2) -0.3170(4) 0.78877(16)
H30 H -0.3993 -0.2636 0.8022
H31 H -0.3315 -0.3730 0.8175
H32 H -0.4201 -0.3629 0.7576
C40 C 0.03821(19) 0.0706(3) 0.89142(12)
C41 C -0.0183(2) -0.0292(3) 0.85918(12)
C42 C 0.0000(2) -0.0921(3) 0.82503(13)
H33 H -0.0348 -0.1610 0.8058
C43 C 0.0680(2) -0.0559(3) 0.81867(12)
C44 C 0.1186(2) 0.0482(3) 0.84775(12)
H34 H 0.1631 0.0759 0.8430
C45 C 0.10510(19) 0.1122(3) 0.88358(12)
C46 C 0.0870(2) -0.1248(3) 0.78073(13)
C47 C -0.0083(5) -0.1579(8) 0.7277(3)
H35 H -0.0445 -0.0844 0.7129
H36 H -0.0383 -0.2161 0.7370
H37 H -0.0007 -0.1935 0.7006
C48 C 0.1496(9) -0.2274(9) 0.8120(4)
H38 H 0.2068 -0.1950 0.8420
H39 H 0.1589 -0.2750 0.7880
H40 H 0.1238 -0.2789 0.8265
C49 C 0.1192(6) -0.0277(5) 0.7558(3)
H41 H 0.1802 -0.0022 0.7837
H42 H 0.0796 0.0426 0.7431
H43 H 0.1177 -0.0639 0.7255
C50 C 0.15050(19) 0.2752(3) 0.95461(12)
C51 C 0.15772(18) 0.2228(3) 0.91290(12)
C52 C 0.2134(2) 0.2797(3) 0.90012(13)
H44 H 0.2178 0.2454 0.8726
C53 C 0.26291(19) 0.3856(3) 0.92676(12)
C54 C 0.25944(19) 0.4316(3) 0.96938(13)
H45 H 0.2933 0.5015 0.9880
C55 C 0.20666(18) 0.3768(3) 0.98569(12)
C56 C 0.3191(2) 0.4465(3) 0.90804(14)
C57 C 0.2570(3) 0.4767(3) 0.84617(15)
H46 H 0.2327 0.4016 0.8255
H47 H 0.2914 0.5189 0.8349
H48 H 0.2080 0.5285 0.8394
C58 C 0.3933(2) 0.3556(3) 0.91793(17)
H49 H 0.3654 0.2805 0.8981
H50 H 0.4333 0.3381 0.9567
H51 H 0.4274 0.3915 0.9051
C59 C 0.3640(3) 0.5663(3) 0.93965(18)
H52 H 0.3180 0.6234 0.9335
H53 H 0.3983 0.6018 0.9268
H54 H 0.4040 0.5488 0.9784
C60? C 0.0470(7) -0.2598(7) 0.7652(5)
H55? H 0.0665 -0.3048 0.7983
H56? H 0.0683 -0.3007 0.7455
H57? H -0.0182 -0.2560 0.7423
C61? C 0.1918(4) -0.1564(8) 0.8107(3)
H58? H 0.2248 -0.0824 0.8150
H59? H 0.1991 -0.2149 0.7890
H60? H 0.2148 -0.1911 0.8464
C62? C 0.0506(8) -0.0617(10) 0.7268(4)
H61? H 0.0883 0.0080 0.7325
H62? H -0.0103 -0.0341 0.7117
H63? H 0.0505 -0.1183 0.7016
loop_
_geom_bond_atom_site_label_1
_geom_bond_atom_site_label_2
_geom_bond_site_symmetry_1
_geom_bond_site_symmetry_2
O1 C9 1_555 1_555
O2 C10 1_555 1_555
O3 C11 1_555 1_555
N1 C17 1_555 1_555
N2 C18 1_555 1_555
C1 C2 1_555 1_555
C2 C3 1_555 1_555
C3 C4 1_555 1_555
C4 C5 1_555 1_555
C5 C6 1_555 1_555
C6 C1 1_555 1_555
C7 C1 1_555 1_555
C8 C7 1_555 1_555
C9 C8 1_555 1_555
C10 C9 1_555 1_555
C11 C10 1_555 1_555
C12 C7 1_555 1_555
C13 O1 1_555 1_555
H1 C13 1_555 1_555
H2 C13 1_555 1_555
H3 C13 1_555 1_555
C14 O2 1_555 1_555
H4 C14 1_555 1_555
H5 C14 1_555 1_555
H6 C14 1_555 1_555
C15 O3 1_555 1_555
H7 C15 1_555 1_555
H8 C15 1_555 1_555
H9 C15 1_555 1_555
C16 C2 1_555 1_555
C17 C12 1_555 1_555
C18 N1 1_555 1_555
H10 C18 1_555 1_555
C19 N2 1_555 1_555
C20 C3 1_555 1_555
C21 C19 1_555 1_555
C22 C21 1_555 1_555
H11 C22 1_555 1_555
C23 C22 1_555 1_555
C24 C23 1_555 1_555
H12 C24 1_555 1_555
C25 C20 1_555 1_555
C26 C23 1_555 1_555
C27 C26 1_555 1_555
H13 C27 1_555 1_555
H14 C27 1_555 1_555
H15 C27 1_555 1_555
C28 C26 1_555 1_555
H16 C28 1_555 1_555
H17 C28 1_555 1_555
H18 C28 1_555 1_555
C29 C26 1_555 1_555
H19 C29 1_555 1_555
H20 C29 1_555 1_555
H21 C29 1_555 1_555
C30 C4 1_555 1_555
C31 C25 1_555 1_555
C32 C31 1_555 1_555
H22 C32 1_555 1_555
C33 C32 1_555 1_555
C34 C33 1_555 1_555
H23 C34 1_555 1_555
C35 C30 1_555 1_555
C36 C33 1_555 1_555
C37 C36 1_555 1_555
H24 C37 1_555 1_555
H25 C37 1_555 1_555
H26 C37 1_555 1_555
C38 C36 1_555 1_555
H27 C38 1_555 1_555
H28 C38 1_555 1_555
H29 C38 1_555 1_555
C39 C36 1_555 1_555
H30 C39 1_555 1_555
H31 C39 1_555 1_555
H32 C39 1_555 1_555
C40 C5 1_555 1_555
C41 C35 1_555 1_555
C42 C41 1_555 1_555
H33 C42 1_555 1_555
C43 C42 1_555 1_555
C44 C43 1_555 1_555
H34 C44 1_555 1_555
C45 C40 1_555 1_555
C46 C43 1_555 1_555
C47 C46 1_555 1_555
H35 C47 1_555 1_555
H36 C47 1_555 1_555
H37 C47 1_555 1_555
C48 C46 1_555 1_555
H38 C48 1_555 1_555
H39 C48 1_555 1_555
H40 C48 1_555 1_555
C49 C46 1_555 1_555
H41 C49 1_555 1_555
H42 C49 1_555 1_555
H43 C49 1_555 1_555
C50 C6 1_555 1_555
C51 C45 1_555 1_555
C52 C51 1_555 1_555
H44 C52 1_555 1_555
C53 C52 1_555 1_555
C54 C53 1_555 1_555
H45 C54 1_555 1_555
C55 C8 1_555 1_555
C56 C53 1_555 1_555
C57 C56 1_555 1_555
H46 C57 1_555 1_555
H47 C57 1_555 1_555
H48 C57 1_555 1_555
C58 C56 1_555 1_555
H49 C58 1_555 1_555
H50 C58 1_555 1_555
H51 C58 1_555 1_555
C59 C56 1_555 1_555
H52 C59 1_555 1_555
H53 C59 1_555 1_555
H54 C59 1_555 1_555
C11 C12 1_555 1_555
C16 C17 1_555 1_555
C16 C19 1_555 1_555
C20 C21 1_555 1_555
C24 C25 1_555 1_555
C30 C31 1_555 1_555
C34 C35 1_555 1_555
C40 C41 1_555 1_555
C44 C45 1_555 1_555
C50 C51 1_555 1_555
C50 C55 1_555 1_555
C54 C55 1_555 1_555

#END
