
#######################################################################
#
#                 Cambridge Crystallographic Data Centre
#                                CCDC 
#
#######################################################################
#
# If this CIF has been generated from an entry in the Cambridge 
# Structural Database, then it will include bibliographic, chemical, 
# crystal, experimental, refinement or atomic coordinate data resulting 
# from the CCDC's data processing and validation procedures.
#
#######################################################################

data_LOPYEU
_chemical_formula_moiety         'C16 H34 N3 O10 1+,Cl1 1-'
_chemical_name_systematic        
'bis(N-(\b-D-Glucopyranosyl)-2-aminoethyl)ammonium chloride'
_symmetry_cell_setting           triclinic
_symmetry_space_group_name_H-M   'P 1'
_symmetry_Int_Tables_number      1
_space_group_name_Hall           'P 1'
loop_
_symmetry_equiv_pos_site_id
_symmetry_equiv_pos_as_xyz
1 x,y,z
_cell_length_a                   5.1843(8)
_cell_length_b                   5.7057(8)
_cell_length_c                   17.736(3)
_cell_angle_alpha                81.485(3)
_cell_angle_beta                 85.092(3)
_cell_angle_gamma                89.381(3)
_cell_volume                     516.946
_exptl_crystal_colour            colorless
_exptl_crystal_description       plate
_cell_formula_units_Z            1
_exptl_crystal_recrystallization_method water/ethanol/methanol
loop_
_atom_site_label
_atom_site_type_symbol
_atom_site_fract_x
_atom_site_fract_y
_atom_site_fract_z
Cl1 Cl 0.0000 0.4075 0.0000
O1 O 0.060(5) 0.102(4) 0.1609(14)
O2 O -0.114(7) -0.140(6) 0.3046(18)
O3 O 0.197(7) -0.109(6) 0.431(2)
O4 O 0.358(5) 0.443(5) 0.2945(15)
O5 O 0.202(8) 0.461(6) 0.456(2)
O6 O 0.939(5) 0.253(4) -0.1602(13)
O7 O 1.142(6) 0.164(5) -0.3037(16)
O8 O 0.863(6) 0.325(6) -0.425(2)
O9 O 0.655(5) 0.731(4) -0.2909(13)
O11 O 0.848(9) 0.913(8) -0.448(3)
N1 N 0.317(6) 0.534(5) 0.1622(15)
N2 N 0.505(6) 0.741(5) 0.0023(17)
N3 N 0.682(6) 0.710(5) -0.1587(15)
C1 C 0.077(7) 0.209(6) 0.231(2)
C2 C 0.120(8) -0.015(7) 0.297(2)
C3 C 0.117(8) 0.092(7) 0.367(2)
C4 C 0.361(9) 0.240(7) 0.361(3)
C5 C 0.321(6) 0.360(5) 0.2248(15)
C6 C 0.570(7) 0.656(6) 0.142(2)
C7 C 0.550(9) 0.837(8) 0.070(3)
C8 C 0.449(7) 0.924(6) -0.0618(18)
C9 C 0.436(10) 0.822(9) -0.138(3)
C10 C 0.683(7) 0.581(6) -0.215(2)
C11 C 0.642(9) 0.596(8) -0.352(3)
C12 C 0.854(8) 0.471(7) -0.363(2)
C13 C 0.908(8) 0.290(7) -0.291(2)
C14 C 0.908(7) 0.421(6) -0.224(2)
C15 C 0.407(11) 0.377(9) 0.428(3)
C16 C 0.588(8) 0.788(7) -0.424(2)
H1 H -0.0749 0.2955 0.2430
H2 H 0.2690 -0.1071 0.2872
H3 H -0.0386 0.1717 0.3799
H4 H 0.5050 0.1420 0.3524
H5 H 0.4632 0.2601 0.2147
H6 H 0.6114 0.7353 0.1829
H7 H 0.7002 0.5436 0.1328
H8 H 0.7075 0.9232 0.0603
H9 H 0.4112 0.9411 0.0798
H10 H 0.2879 0.9955 -0.0495
H11 H 0.5823 1.0406 -0.0689
H12 H 0.4010 0.9471 -0.1776
H13 H 0.3006 0.7079 -0.1319
H14 H 0.5346 0.4819 -0.2049
H15 H 0.4970 0.4911 -0.3399
H16 H 0.9950 0.5791 -0.3734
H17 H 0.7707 0.1789 -0.2807
H18 H 1.0589 0.5208 -0.2238
H19 H 0.6548 0.6563 -0.0126
H20 H 0.3616 0.6358 0.0135
H21 H 0.5243 0.5032 0.4091
H22 H 0.4809 0.2717 0.4667
O10? O 0.317(12) 0.908(10) -0.421(3)
loop_
_geom_bond_atom_site_label_1
_geom_bond_atom_site_label_2
_geom_bond_site_symmetry_1
_geom_bond_site_symmetry_2
O1 C1 1_555 1_555
O2 C2 1_555 1_555
O3 C3 1_555 1_555
O4 C4 1_555 1_555
O5 C15 1_555 1_555
O6 C14 1_555 1_555
O7 C13 1_555 1_555
O8 C12 1_555 1_555
O9 C10 1_555 1_555
O11 C16 1_555 1_555
N1 C5 1_555 1_555
N2 C7 1_555 1_555
N3 C9 1_555 1_555
C1 C2 1_555 1_555
C2 C3 1_555 1_555
C3 C4 1_555 1_555
C4 C15 1_555 1_555
C5 O4 1_555 1_555
C6 N1 1_555 1_555
C7 C6 1_555 1_555
C8 N2 1_555 1_555
C9 C8 1_555 1_555
C10 N3 1_555 1_555
C11 O9 1_555 1_555
C12 C11 1_555 1_555
C13 C12 1_555 1_555
C14 C10 1_555 1_555
C15 H21 1_555 1_555
C16 C11 1_555 1_555
H1 C1 1_555 1_555
H2 C2 1_555 1_555
H3 C3 1_555 1_555
H4 C4 1_555 1_555
H5 C5 1_555 1_555
H6 C6 1_555 1_555
H7 C6 1_555 1_555
H8 C7 1_555 1_555
H9 C7 1_555 1_555
H10 C8 1_555 1_555
H11 C8 1_555 1_555
H12 C9 1_555 1_555
H13 C9 1_555 1_555
H14 C10 1_555 1_555
H15 C11 1_555 1_555
H16 C12 1_555 1_555
H17 C13 1_555 1_555
H18 C14 1_555 1_555
H19 N2 1_555 1_555
H20 N2 1_555 1_555
H22 C15 1_555 1_555
C1 C5 1_555 1_555
C13 C14 1_555 1_555

#END
