
#######################################################################
#
#                 Cambridge Crystallographic Data Centre
#                                CCDC 
#
#######################################################################
#
# If this CIF has been generated from an entry in the Cambridge 
# Structural Database, then it will include bibliographic, chemical, 
# crystal, experimental, refinement or atomic coordinate data resulting 
# from the CCDC's data processing and validation procedures.
#
#######################################################################

data_LOQQOZ
_chemical_formula_moiety         'C27 H18 O2'
_chemical_name_systematic        
3-(2,4-diphenylnaphtho[1,2-b]furan-5-yl)acrylaldehyde
_symmetry_cell_setting           monoclinic
_symmetry_space_group_name_H-M   'P 21/c'
_symmetry_Int_Tables_number      14
_space_group_name_Hall           '-P 2ybc'
loop_
_symmetry_equiv_pos_site_id
_symmetry_equiv_pos_as_xyz
1 x,y,z
2 -x,1/2+y,1/2-z
3 -x,-y,-z
4 x,1/2-y,1/2+z
_cell_length_a                   9.1302(8)
_cell_length_b                   25.742(2)
_cell_length_c                   8.9769(8)
_cell_angle_alpha                90
_cell_angle_beta                 112.860(2)
_cell_angle_gamma                90
_cell_volume                     1944.12
_exptl_crystal_colour            colorless
_exptl_crystal_description       prismatic
_cell_formula_units_Z            4
loop_
_atom_site_label
_atom_site_type_symbol
_atom_site_fract_x
_atom_site_fract_y
_atom_site_fract_z
O1 O 0.55620(12) 1.03219(4) 0.19087(12)
O2 O 0.5525(3) 0.77902(6) 0.8326(2)
C1 C 0.68985(18) 1.02489(6) 0.15578(18)
C2 C 0.74551(18) 0.97632(6) 0.19368(18)
H1 H 0.8330 0.9621 0.1798
C3 C 0.64555(17) 0.95056(6) 0.25906(17)
C4 C 0.53264(17) 0.98632(6) 0.25426(17)
C5 C 0.41072(17) 0.97785(6) 0.30971(17)
C6 C 0.29305(18) 1.01462(7) 0.29870(19)
H2 H 0.2935 1.0470 0.2527
C7 C 0.17846(19) 1.00301(8) 0.3552(2)
H3 H 0.1029 1.0278 0.3511
C8 C 0.17424(19) 0.95403(8) 0.4191(2)
H4 H 0.0936 0.9460 0.4542
C9 C 0.28660(18) 0.91784(7) 0.43063(19)
H5 H 0.2805 0.8852 0.4724
C10 C 0.41199(18) 0.92861(6) 0.38088(18)
C11 C 0.53611(18) 0.89155(6) 0.39614(18)
C12 C 0.64855(18) 0.90168(6) 0.33187(18)
C13 C 0.7748(2) 0.86355(6) 0.3436(2)
C14 C 0.7736(2) 0.83892(7) 0.2064(2)
H6 H 0.6945 0.8470 0.1065
C15 C 0.8873(3) 0.80274(8) 0.2149(3)
H7 H 0.8826 0.7857 0.1218
C16 C 1.0065(3) 0.79178(9) 0.3592(4)
H8 H 1.0843 0.7677 0.3644
C17 C 1.0124(3) 0.81603(9) 0.4966(3)
H9 H 1.0945 0.8086 0.5950
C18 C 0.8964(2) 0.85168(8) 0.4900(3)
H10 H 0.9001 0.8677 0.5842
C19 C 0.74172(18) 1.07016(6) 0.09264(18)
C20 C 0.6679(2) 1.11761(7) 0.0791(2)
H11 H 0.5822 1.1209 0.1100
C21 C 0.7190(3) 1.16019(8) 0.0205(3)
H12 H 0.6675 1.1919 0.0120
C22 C 0.8450(3) 1.15636(8) -0.0252(3)
H13 H 0.8795 1.1853 -0.0645
C23 C 0.9198(2) 1.10955(8) -0.0126(2)
H14 H 1.0058 1.1068 -0.0433
C24 C 0.8694(2) 1.06676(7) 0.0446(2)
H15 H 0.9207 1.0351 0.0515
C25 C 0.5485(2) 0.84267(6) 0.4836(2)
H16 H 0.5646 0.8127 0.4339
C26 C 0.5391(2) 0.83666(7) 0.6261(2)
H17 H 0.5193 0.8655 0.6777
C27 C 0.5586(3) 0.78679(8) 0.7032(3)
H18 H 0.5774 0.7584 0.6489
loop_
_geom_bond_atom_site_label_1
_geom_bond_atom_site_label_2
_geom_bond_site_symmetry_1
_geom_bond_site_symmetry_2
O1 C1 1_555 1_555
O2 C27 1_555 1_555
C1 C2 1_555 1_555
C2 H1 1_555 1_555
C3 C2 1_555 1_555
C4 O1 1_555 1_555
C5 C4 1_555 1_555
C6 C5 1_555 1_555
H2 C6 1_555 1_555
C7 C6 1_555 1_555
H3 C7 1_555 1_555
C8 C7 1_555 1_555
H4 C8 1_555 1_555
C9 C8 1_555 1_555
H5 C9 1_555 1_555
C10 C5 1_555 1_555
C11 C10 1_555 1_555
C12 C3 1_555 1_555
C13 C12 1_555 1_555
C14 C13 1_555 1_555
H6 C14 1_555 1_555
C15 C14 1_555 1_555
H7 C15 1_555 1_555
C16 C15 1_555 1_555
H8 C16 1_555 1_555
C17 C16 1_555 1_555
H9 C17 1_555 1_555
C18 C13 1_555 1_555
H10 C18 1_555 1_555
C19 C1 1_555 1_555
C20 C19 1_555 1_555
H11 C20 1_555 1_555
C21 C20 1_555 1_555
H12 C21 1_555 1_555
C22 C21 1_555 1_555
H13 C22 1_555 1_555
C23 C22 1_555 1_555
H14 C23 1_555 1_555
C24 C19 1_555 1_555
H15 C24 1_555 1_555
C25 C11 1_555 1_555
H16 C25 1_555 1_555
C26 C25 1_555 1_555
H17 C26 1_555 1_555
C27 C26 1_555 1_555
H18 C27 1_555 1_555
C3 C4 1_555 1_555
C9 C10 1_555 1_555
C11 C12 1_555 1_555
C17 C18 1_555 1_555
C23 C24 1_555 1_555

#END
