
#######################################################################
#
#                 Cambridge Crystallographic Data Centre
#                                CCDC 
#
#######################################################################
#
# If this CIF has been generated from an entry in the Cambridge 
# Structural Database, then it will include bibliographic, chemical, 
# crystal, experimental, refinement or atomic coordinate data resulting 
# from the CCDC's data processing and validation procedures.
#
#######################################################################

data_LOQQUF
_chemical_formula_moiety         'C21 H14 O5,2(H2 O1)'
_chemical_name_systematic        
'6-(4,5-dihydroxy-2-phenyl-1-naphthyl)-4-hydroxy-2H-pyran-2-one unknown solvate dihydrate'
_symmetry_cell_setting           triclinic
_symmetry_space_group_name_H-M   'P -1'
_symmetry_Int_Tables_number      2
_space_group_name_Hall           '-P 1'
loop_
_symmetry_equiv_pos_site_id
_symmetry_equiv_pos_as_xyz
1 x,y,z
2 -x,-y,-z
_cell_length_a                   7.7139(16)
_cell_length_b                   9.898(2)
_cell_length_c                   14.054(3)
_cell_angle_alpha                104.820(4)
_cell_angle_beta                 100.907(4)
_cell_angle_gamma                98.148(4)
_cell_volume                     997.978
_exptl_crystal_colour            colorless
_exptl_crystal_description       block
_cell_formula_units_Z            2
loop_
_atom_site_label
_atom_site_type_symbol
_atom_site_fract_x
_atom_site_fract_y
_atom_site_fract_z
O1 O 0.09605(19) 0.11366(16) 0.15510(10)
H1 H 0.1905 0.0843 0.1466
O2 O 0.39031(17) 0.03119(13) 0.21260(9)
H2 H 0.4356 -0.0411 0.2129
O3 O 0.47182(16) 0.25871(12) 0.67710(8)
O4 O 0.44011(19) 0.67204(13) 0.79366(9)
H3 H 0.4582 0.6970 0.8571
O5 O 0.5167(2) 0.21958(14) 0.82599(10)
C1 C 0.1158(2) 0.18151(18) 0.25503(12)
C2 C -0.0238(2) 0.2444(2) 0.28078(14)
H4 H -0.1257 0.2411 0.2297
C3 C -0.0150(2) 0.31313(19) 0.38247(14)
H5 H -0.1136 0.3533 0.3999
C4 C 0.1326(2) 0.32334(18) 0.45690(13)
H6 H 0.1359 0.3710 0.5253
C5 C 0.2812(2) 0.26342(16) 0.43303(12)
C6 C 0.4386(2) 0.27183(16) 0.50966(11)
C7 C 0.5770(2) 0.20434(17) 0.48475(12)
C8 C 0.5584(2) 0.12199(17) 0.38386(12)
H7 H 0.6505 0.0725 0.3671
C9 C 0.4098(2) 0.11236(17) 0.30990(12)
C10 C 0.2706(2) 0.18688(16) 0.33052(12)
C11 C 0.4481(2) 0.34659(17) 0.61641(12)
C12 C 0.4382(2) 0.48271(18) 0.65502(12)
H8 H 0.4191 0.5420 0.6121
C13 C 0.4568(2) 0.53808(17) 0.76147(12)
C14 C 0.4903(2) 0.45324(18) 0.82279(12)
H9 H 0.5096 0.4912 0.8941
C15 C 0.4962(2) 0.30949(18) 0.78028(12)
C16 C 0.7437(2) 0.21352(18) 0.56090(12)
C17 C 0.8331(2) 0.3428(2) 0.63299(13)
H10 H 0.7908 0.4280 0.6312
C18 C 0.9830(2) 0.3474(2) 0.70694(14)
H11 H 1.0412 0.4352 0.7564
C19 C 1.0481(2) 0.2246(2) 0.70902(15)
H12 H 1.1483 0.2274 0.7610
C20 C 0.9666(2) 0.0979(2) 0.63501(16)
H13 H 1.0140 0.0143 0.6345
C21 C 0.8163(2) 0.09266(19) 0.56169(14)
H14 H 0.7617 0.0051 0.5110
O6 O 0.4867(2) 0.79617(15) -0.01625(10)
H15 H 0.5796 0.8571 0.0014
H16 H 0.4881 0.7784 0.0378
O7 O 0.75930(19) 0.01604(16) 0.01617(11)
H17 H 0.7022 0.0803 0.0229
H18 H 0.8488 0.0486 0.0632
loop_
_geom_bond_atom_site_label_1
_geom_bond_atom_site_label_2
_geom_bond_site_symmetry_1
_geom_bond_site_symmetry_2
O1 H1 1_555 1_555
O2 H2 1_555 1_555
O3 C11 1_555 1_555
O4 H3 1_555 1_555
O5 C15 1_555 1_555
C1 O1 1_555 1_555
C2 C1 1_555 1_555
H4 C2 1_555 1_555
C3 C2 1_555 1_555
H5 C3 1_555 1_555
C4 C3 1_555 1_555
H6 C4 1_555 1_555
C5 C4 1_555 1_555
C6 C5 1_555 1_555
C7 C6 1_555 1_555
C8 C7 1_555 1_555
H7 C8 1_555 1_555
C9 O2 1_555 1_555
C10 C1 1_555 1_555
C11 C6 1_555 1_555
C12 C11 1_555 1_555
H8 C12 1_555 1_555
C13 O4 1_555 1_555
C14 C13 1_555 1_555
H9 C14 1_555 1_555
C15 O3 1_555 1_555
C16 C7 1_555 1_555
C17 C16 1_555 1_555
H10 C17 1_555 1_555
C18 C17 1_555 1_555
H11 C18 1_555 1_555
C19 C18 1_555 1_555
H12 C19 1_555 1_555
C20 C19 1_555 1_555
H13 C20 1_555 1_555
C21 C16 1_555 1_555
H14 C21 1_555 1_555
O6 H15 1_555 1_555
H16 O6 1_555 1_555
O7 H17 1_555 1_555
H18 O7 1_555 1_555
C5 C10 1_555 1_555
C8 C9 1_555 1_555
C9 C10 1_555 1_555
C12 C13 1_555 1_555
C14 C15 1_555 1_555
C20 C21 1_555 1_555

#END
