
#######################################################################
#
#                 Cambridge Crystallographic Data Centre
#                                CCDC 
#
#######################################################################
#
# If this CIF has been generated from an entry in the Cambridge 
# Structural Database, then it will include bibliographic, chemical, 
# crystal, experimental, refinement or atomic coordinate data resulting 
# from the CCDC's data processing and validation procedures.
#
#######################################################################

data_LOQREQ
_chemical_formula_moiety         'C25 H27 N1 O4'
_chemical_name_systematic        
'methyl 3-(4-methoxyphenyl)-5-((1-(1-naphthyl)ethyl)amino)-5-oxopentanoate'
_symmetry_cell_setting           orthorhombic
_symmetry_space_group_name_H-M   'P 21 21 21'
_symmetry_Int_Tables_number      19
_space_group_name_Hall           'P 2ac 2ab'
loop_
_symmetry_equiv_pos_site_id
_symmetry_equiv_pos_as_xyz
1 x,y,z
2 1/2-x,-y,1/2+z
3 1/2+x,1/2-y,-z
4 -x,1/2+y,1/2-z
_cell_length_a                   5.0559(4)
_cell_length_b                   12.3872(9)
_cell_length_c                   34.436(3)
_cell_angle_alpha                90
_cell_angle_beta                 90
_cell_angle_gamma                90
_cell_volume                     2156.67
_exptl_crystal_description       prism
_cell_formula_units_Z            4
loop_
_atom_site_label
_atom_site_type_symbol
_atom_site_fract_x
_atom_site_fract_y
_atom_site_fract_z
O1 O 0.1349(4) 0.74796(14) 0.86212(5)
O2 O 0.2333(4) 1.12909(13) 0.75827(5)
O3 O 0.8065(5) 1.07040(16) 0.99416(4)
N1 N 0.5604(5) 0.70778(14) 0.87405(5)
H1 H 0.723(5) 0.7223(5) 0.86895(17)
O4 O 0.0021(5) 0.99053(17) 0.78110(5)
C1 C 0.6615(5) 0.46323(17) 0.85809(6)
C2 C 0.3485(6) 0.96938(16) 0.84740(6)
H2 H 0.159(5) 0.9595(3) 0.85187(13)
C3 C 0.6808(6) 0.52372(17) 0.89350(6)
C4 C 0.3720(7) 0.76708(18) 0.85765(6)
C5 C 0.4605(6) 0.86056(18) 0.83241(6)
H3 H 0.3990(10) 0.8483(2) 0.8050(4)
H4 H 0.659(3) 0.86393(18) 0.83220(6)
C6 C 0.4738(6) 1.00002(18) 0.88609(6)
C7 C 0.7067(7) 1.0499(2) 0.95765(7)
C8 C 0.1820(7) 1.0518(2) 0.78428(7)
C9 C 0.4688(6) 0.4862(2) 0.82939(6)
H5 H 0.345(3) 0.5461(15) 0.83341(11)
C10 C 0.8343(6) 0.37524(19) 0.85151(7)
C11 C 0.3802(6) 1.05708(18) 0.81681(6)
H6 H 0.3649(5) 1.1290(12) 0.8298(2)
H7 H 0.562(3) 1.05187(18) 0.80554(19)
C12 C 0.3898(6) 0.95230(18) 0.92038(7)
H8 H 0.250(4) 0.9024(15) 0.91953(7)
C13 C 0.5005(7) 0.61817(17) 0.90063(6)
H9 H 0.332(5) 0.5955(7) 0.89498(18)
C14 C 0.7937(7) 1.0990(2) 0.92446(7)
H10 H 0.943(4) 1.1547(15) 0.92562(8)
C15 C 0.8661(6) 0.4923(2) 0.92028(7)
H11 H 0.8810(7) 0.5348(10) 0.9465(6)
C16 C 0.5044(7) 0.9755(2) 0.95542(7)
H12 H 0.4426(19) 0.9392(10) 0.9790(7)
C17 C 0.4520(7) 0.4259(2) 0.79604(7)
H13 H 0.316(4) 0.4432(5) 0.7765(5)
C18 C 0.6778(6) 1.0726(2) 0.88919(7)
H14 H 0.7398(18) 1.1049(9) 0.8671(6)
C19 C 0.8123(7) 0.3158(2) 0.81654(8)
H15 H 0.928(3) 0.2590(17) 0.81192(15)
C20 C 1.0237(7) 0.3484(2) 0.87985(8)
H16 H 1.138(3) 0.2928(17) 0.87546(16)
C21 C 1.0377(7) 0.4041(2) 0.91344(9)
H17 H 1.168(4) 0.3833(6) 0.9333(6)
C22 C 0.6252(7) 0.3405(2) 0.78958(8)
H18 H 0.6115(8) 0.2948(11) 0.7637(7)
C23 C 0.0562(7) 1.1397(2) 0.72581(7)
H19 H 0.1173 1.1963 0.7090
H20 H -0.1180 1.1568 0.7351
H21 H 0.0508 1.0729 0.7117
C24 C 1.0110(8) 1.1485(2) 0.99768(7)
H22 H 1.0560 1.1575 1.0246
H23 H 0.9512 1.2162 0.9873
H24 H 1.1640 1.1247 0.9836
C25 C 0.4964(9) 0.6600(2) 0.94240(7)
H25 H 0.3735 0.7188 0.9444
H26 H 0.6700 0.6845 0.9495
H27 H 0.4431 0.6029 0.9596
loop_
_geom_bond_atom_site_label_1
_geom_bond_atom_site_label_2
_geom_bond_site_symmetry_1
_geom_bond_site_symmetry_2
O1 C4 1_555 1_555
O2 C8 1_555 1_555
O3 C7 1_555 1_555
N1 H1 1_555 1_555
O4 C8 1_555 1_555
C1 C3 1_555 1_555
C2 H2 1_555 1_555
C3 C13 1_555 1_555
C4 N1 1_555 1_555
C5 C2 1_555 1_555
H3 C5 1_555 1_555
H4 C5 1_555 1_555
C6 C2 1_555 1_555
C7 C14 1_555 1_555
C8 C11 1_555 1_555
C9 C1 1_555 1_555
H5 C9 1_555 1_555
C10 C1 1_555 1_555
C11 C2 1_555 1_555
H6 C11 1_555 1_555
H7 C11 1_555 1_555
C12 C6 1_555 1_555
H8 C12 1_555 1_555
C13 N1 1_555 1_555
H9 C13 1_555 1_555
C14 H10 1_555 1_555
C15 C3 1_555 1_555
H11 C15 1_555 1_555
C16 C7 1_555 1_555
H12 C16 1_555 1_555
C17 C9 1_555 1_555
H13 C17 1_555 1_555
C18 C6 1_555 1_555
H14 C18 1_555 1_555
C19 C10 1_555 1_555
H15 C19 1_555 1_555
C20 C10 1_555 1_555
H16 C20 1_555 1_555
C21 C15 1_555 1_555
H17 C21 1_555 1_555
C22 C17 1_555 1_555
H18 C22 1_555 1_555
C23 O2 1_555 1_555
H19 C23 1_555 1_555
H20 C23 1_555 1_555
H21 C23 1_555 1_555
C24 O3 1_555 1_555
H22 C24 1_555 1_555
H23 C24 1_555 1_555
H24 C24 1_555 1_555
C25 C13 1_555 1_555
H25 C25 1_555 1_555
H26 C25 1_555 1_555
H27 C25 1_555 1_555
C4 C5 1_555 1_555
C12 C16 1_555 1_555
C14 C18 1_555 1_555
C19 C22 1_555 1_555
C20 C21 1_555 1_555

#END
