
#######################################################################
#
#                 Cambridge Crystallographic Data Centre
#                                CCDC 
#
#######################################################################
#
# If this CIF has been generated from an entry in the Cambridge 
# Structural Database, then it will include bibliographic, chemical, 
# crystal, experimental, refinement or atomic coordinate data resulting 
# from the CCDC's data processing and validation procedures.
#
#######################################################################

data_LORGUW
_chemical_formula_moiety         'C25 H19 N5'
_chemical_name_systematic        
9-(4-(di-1H-pyrazol-1-ylmethyl)phenyl)-9H-carbazole
_symmetry_cell_setting           monoclinic
_symmetry_space_group_name_H-M   'P 21'
_symmetry_Int_Tables_number      4
_space_group_name_Hall           'P 2yb'
loop_
_symmetry_equiv_pos_site_id
_symmetry_equiv_pos_as_xyz
1 x,y,z
2 -x,1/2+y,-z
_cell_length_a                   7.026(5)
_cell_length_b                   7.939(5)
_cell_length_c                   35.471(5)
_cell_angle_alpha                90
_cell_angle_beta                 91.133(5)
_cell_angle_gamma                90
_cell_volume                     1978.16
_exptl_crystal_colour            yellow
_exptl_crystal_description       block
_cell_formula_units_Z            4
loop_
_atom_site_label
_atom_site_type_symbol
_atom_site_fract_x
_atom_site_fract_y
_atom_site_fract_z
N1 N 0.7386(3) 0.1269(3) 0.02861(6)
N2 N 0.1734(3) 0.4170(3) 0.15249(6)
N3 N 0.6962(4) 0.1648(3) -0.00766(6)
C1 C 0.4838(3) 0.1275(3) 0.07561(7)
N4 N 0.7059(3) -0.1108(3) 0.06935(6)
C2 C 0.0044(4) 0.3762(4) 0.17003(7)
C3 C 0.1228(4) 0.6163(4) 0.19745(7)
C4 C -0.0309(4) 0.4989(4) 0.19773(7)
C5 C 0.4525(4) 0.2967(3) 0.06938(7)
H1 H 0.5045 0.3480 0.0484
C6 C 0.6059(4) 0.0232(3) 0.04939(7)
H2 H 0.5199 -0.0301 0.0309
C7 C 0.3455(4) 0.3910(4) 0.09377(7)
H3 H 0.3254 0.5050 0.0890
N5 N 0.8221(4) -0.0729(3) 0.09940(7)
C8 C 0.7023(4) -0.2748(4) 0.06292(8)
H4 H 0.6338 -0.3291 0.0438
C9 C 0.2680(4) 0.3172(4) 0.12517(7)
C10 C 0.2874(4) 0.1455(4) 0.13065(7)
H5 H 0.2294 0.0936 0.1509
C11 C 0.4581(5) 0.7884(4) 0.18429(9)
H6 H 0.5721 0.8453 0.1807
C12 C 0.3936(4) 0.0510(3) 0.10575(7)
H7 H 0.4047 -0.0647 0.1092
C13 C -0.1221(4) 0.2465(4) 0.16286(8)
H8 H -0.0998 0.1675 0.1441
C14 C 0.2486(4) 0.5623(3) 0.16933(7)
C15 C -0.1961(5) 0.4850(5) 0.21914(8)
H9 H -0.2221 0.5642 0.2376
C16 C 0.8314(5) 0.2744(5) -0.01673(9)
H10 H 0.8399 0.3245 -0.0403
C17 C 0.1654(5) 0.7646(4) 0.21751(8)
H11 H 0.0819 0.8052 0.2354
C18 C 0.8940(4) 0.2104(4) 0.04164(9)
H12 H 0.9477 0.2040 0.0658
C19 C 0.4184(4) 0.6439(4) 0.16312(8)
H13 H 0.5035 0.6041 0.1454
C20 C 0.8856(5) -0.2205(4) 0.11062(9)
H14 H 0.9691 -0.2349 0.1310
C21 C -0.3189(5) 0.3532(6) 0.21251(10)
H15 H -0.4270 0.3417 0.2270
C22 C 0.9563(5) 0.3051(5) 0.01262(10)
H16 H 1.0616 0.3761 0.0126
C23 C 0.8169(5) -0.3502(4) 0.08938(10)
H17 H 0.8423 -0.4645 0.0922
C24 C -0.2832(5) 0.2383(5) 0.18461(10)
H18 H -0.3702 0.1519 0.1802
C25 C 0.3320(6) 0.8490(4) 0.21049(9)
H19 H 0.3601 0.9479 0.2235
N6 N 0.6912(3) 0.3371(3) 0.43038(6)
N7 N 0.7326(3) 0.5752(3) 0.47119(6)
N8 N 0.1423(3) 0.8675(3) 0.34763(6)
C26 C 0.4694(3) 0.5776(3) 0.42403(7)
N9 N 0.6981(4) 0.6147(4) 0.50728(6)
C27 C -0.0335(4) 0.8246(4) 0.33104(7)
N10 N 0.7999(4) 0.3755(3) 0.40064(7)
C28 C 0.5946(4) 0.4736(3) 0.45050(7)
H20 H 0.5114 0.4212 0.4690
C29 C 0.2620(4) 0.5970(4) 0.36942(7)
H21 H 0.1993 0.5449 0.3493
C30 C 0.0748(4) 1.0599(4) 0.30178(7)
C31 C 0.3725(4) 0.5018(4) 0.39425(7)
H22 H 0.3815 0.3859 0.3909
C32 C 0.3309(4) 0.8436(4) 0.40566(7)
H23 H 0.3137 0.9579 0.4102
C33 C 0.4431(4) 0.7473(4) 0.43011(7)
H24 H 0.5014 0.7983 0.4509
C34 C 0.2447(4) 0.7684(4) 0.37444(7)
C35 C 0.2112(4) 1.0112(4) 0.32942(7)
C36 C -0.0795(4) 0.9429(4) 0.30285(7)
C37 C 0.6871(4) 0.1725(4) 0.43728(8)
H25 H 0.6223 0.1190 0.4565
C38 C 0.4127(6) 1.2357(4) 0.31209(10)
H26 H 0.5261 1.2949 0.3151
C39 C 0.3801(5) 1.0951(4) 0.33437(9)
H27 H 0.4703 1.0590 0.3521
C40 C -0.1557(4) 0.6944(4) 0.33985(8)
H28 H -0.1259 0.6174 0.3588
C41 C 0.8633(4) 0.2274(4) 0.38909(9)
H29 H 0.9433 0.2128 0.3688
C42 C -0.3230(4) 0.6840(5) 0.31932(9)
H30 H -0.4084 0.5984 0.3248
C43 C 0.1116(6) 1.2050(4) 0.27986(9)
H31 H 0.0225 1.2419 0.2620
C44 C 0.7956(5) 0.0976(4) 0.41094(10)
H32 H 0.8193 -0.0170 0.4082
C45 C 0.2777(6) 1.2896(5) 0.28519(10)
H33 H 0.3022 1.3847 0.2708
C46 C 0.9571(5) 0.7523(5) 0.48724(9)
H34 H 1.0633 0.8222 0.4872
C47 C -0.3691(5) 0.7958(5) 0.29080(9)
H35 H -0.4823 0.7829 0.2771
C48 C -0.2491(5) 0.9251(5) 0.28269(8)
H36 H -0.2811 1.0012 0.2637
C49 C 0.8362(5) 0.7216(5) 0.51658(9)
H37 H 0.8499 0.7705 0.5403
C50 C 0.8866(4) 0.6579(4) 0.45849(9)
H38 H 0.9353 0.6511 0.4343
loop_
_geom_bond_atom_site_label_1
_geom_bond_atom_site_label_2
_geom_bond_site_symmetry_1
_geom_bond_site_symmetry_2
N1 N3 1_555 1_555
N2 C2 1_555 1_555
N3 C16 1_555 1_555
C1 C5 1_555 1_555
N4 C6 1_555 1_555
C2 C4 1_555 1_555
C3 C4 1_555 1_555
C4 C15 1_555 1_555
C5 H1 1_555 1_555
C6 N1 1_555 1_555
H2 C6 1_555 1_555
C7 C5 1_555 1_555
H3 C7 1_555 1_555
N5 N4 1_555 1_555
C8 N4 1_555 1_555
H4 C8 1_555 1_555
C9 N2 1_555 1_555
C10 C9 1_555 1_555
H5 C10 1_555 1_555
C11 H6 1_555 1_555
C12 C1 1_555 1_555
H7 C12 1_555 1_555
C13 C2 1_555 1_555
H8 C13 1_555 1_555
C14 N2 1_555 1_555
C15 H9 1_555 1_555
C16 H10 1_555 1_555
C17 C3 1_555 1_555
H11 C17 1_555 1_555
C18 N1 1_555 1_555
H12 C18 1_555 1_555
C19 C11 1_555 1_555
H13 C19 1_555 1_555
C20 N5 1_555 1_555
H14 C20 1_555 1_555
C21 C15 1_555 1_555
H15 C21 1_555 1_555
C22 C16 1_555 1_555
H16 C22 1_555 1_555
C23 C8 1_555 1_555
H17 C23 1_555 1_555
C24 C13 1_555 1_555
H18 C24 1_555 1_555
C25 C11 1_555 1_555
H19 C25 1_555 1_555
N6 N10 1_555 1_555
N7 N9 1_555 1_555
N8 C27 1_555 1_555
C26 C28 1_555 1_555
N9 C49 1_555 1_555
C27 C36 1_555 1_555
N10 C41 1_555 1_555
C28 N6 1_555 1_555
H20 C28 1_555 1_555
C29 H21 1_555 1_555
C30 C35 1_555 1_555
C31 C26 1_555 1_555
H22 C31 1_555 1_555
C32 H23 1_555 1_555
C33 C26 1_555 1_555
H24 C33 1_555 1_555
C34 N8 1_555 1_555
C35 N8 1_555 1_555
C36 C30 1_555 1_555
C37 N6 1_555 1_555
H25 C37 1_555 1_555
C38 H26 1_555 1_555
C39 C35 1_555 1_555
H27 C39 1_555 1_555
C40 C27 1_555 1_555
H28 C40 1_555 1_555
C41 H29 1_555 1_555
C42 C40 1_555 1_555
H30 C42 1_555 1_555
C43 C30 1_555 1_555
H31 C43 1_555 1_555
C44 C37 1_555 1_555
H32 C44 1_555 1_555
C45 C38 1_555 1_555
H33 C45 1_555 1_555
C46 H34 1_555 1_555
C47 C42 1_555 1_555
H35 C47 1_555 1_555
C48 C36 1_555 1_555
H36 C48 1_555 1_555
C49 C46 1_555 1_555
H37 C49 1_555 1_555
C50 N7 1_555 1_555
H38 C50 1_555 1_555
C1 C6 1_555 1_555
C3 C14 1_555 1_555
C7 C9 1_555 1_555
C10 C12 1_555 1_555
C14 C19 1_555 1_555
C17 C25 1_555 1_555
C18 C22 1_555 1_555
C20 C23 1_555 1_555
C21 C24 1_555 1_555
N7 C28 1_555 1_555
C29 C31 1_555 1_555
C29 C34 1_555 1_555
C32 C33 1_555 1_555
C32 C34 1_555 1_555
C38 C39 1_555 1_555
C41 C44 1_555 1_555
C43 C45 1_555 1_555
C46 C50 1_555 1_555
C47 C48 1_555 1_555

#END
