
#######################################################################
#
#                 Cambridge Crystallographic Data Centre
#                                CCDC 
#
#######################################################################
#
# If this CIF has been generated from an entry in the Cambridge 
# Structural Database, then it will include bibliographic, chemical, 
# crystal, experimental, refinement or atomic coordinate data resulting 
# from the CCDC's data processing and validation procedures.
#
#######################################################################

data_LORKUA
_chemical_formula_moiety         'C9 H10 O3,0.5(C10 H8 N2),H2 O1'
_chemical_name_systematic        
"3-(2-hydroxyphenyl)propanoic acid hemikis(4,4'-bipyridine) monohydrate"
_symmetry_cell_setting           monoclinic
_symmetry_space_group_name_H-M   'P 21/c'
_symmetry_Int_Tables_number      14
_space_group_name_Hall           '-P 2ybc'
loop_
_symmetry_equiv_pos_site_id
_symmetry_equiv_pos_as_xyz
1 x,y,z
2 -x,1/2+y,1/2-z
3 -x,-y,-z
4 x,1/2-y,1/2+z
_cell_length_a                   7.172(12)
_cell_length_b                   22.70(4)
_cell_length_c                   8.108(13)
_cell_angle_alpha                90
_cell_angle_beta                 91.35(3)
_cell_angle_gamma                90
_cell_volume                     1319.65
_exptl_crystal_colour            colorless
_exptl_crystal_description       block
_cell_formula_units_Z            4
loop_
_atom_site_label
_atom_site_type_symbol
_atom_site_fract_x
_atom_site_fract_y
_atom_site_fract_z
O1 O 0.0283(4) 0.18708(13) 0.2390(4)
O2 O -0.2087(4) 0.11590(13) -0.2717(4)
O3 O -0.2420(5) 0.03346(12) -0.1328(4)
H1 H -0.3388 0.0319 -0.1886
C1 C 0.1068(6) 0.15194(15) -0.0803(5)
H2 H 0.1609 0.1531 -0.1887
H3 H 0.0122 0.1824 -0.0767
C2 C 0.2140(5) 0.18268(14) 0.2038(5)
C3 C 0.2556(5) 0.16545(15) 0.0461(5)
C4 C -0.1540(5) 0.08244(15) -0.1648(5)
C5 C 0.4421(6) 0.16244(17) 0.0092(6)
H4 H 0.4757 0.1503 -0.0956
C6 C 0.0130(6) 0.09199(16) -0.0573(5)
H5 H 0.1031 0.0613 -0.0791
H6 H -0.0227 0.0882 0.0569
C7 C 0.3514(6) 0.19691(16) 0.3210(5)
H7 H 0.3190 0.2086 0.4264
C8 C 0.5340(7) 0.19350(18) 0.2796(7)
H8 H 0.6274 0.2024 0.3572
C9 C 0.5796(6) 0.1768(2) 0.1228(7)
H9 H 0.7040 0.1753 0.0934
H10 H 0.012(9) 0.188(3) 0.3400(18)
N1 N 0.4404(5) 0.02162(14) 0.6977(5)
C10 C 0.0922(5) 0.00425(14) 0.5405(4)
C11 C 0.3635(6) 0.06222(16) 0.6005(6)
H11 H 0.4290 0.0970 0.5834
C12 C 0.1753(7) -0.03859(18) 0.6398(5)
H12 H 0.1157 -0.0745 0.6555
C13 C 0.1942(7) 0.05575(16) 0.5244(6)
H13 H 0.1457 0.0864 0.4604
C14 C 0.3446(7) -0.02804(19) 0.7145(6)
H14 H 0.3961 -0.0574 0.7812
N1B N -0.4404(5) -0.02162(14) 0.3023(5)
C10B C -0.0922(5) -0.00425(14) 0.4595(4)
C11B C -0.3635(6) -0.06222(16) 0.3995(6)
H11B H -0.4290 -0.0970 0.4166
C12B C -0.1753(7) 0.03859(18) 0.3602(5)
H12B H -0.1157 0.0745 0.3445
C13B C -0.1942(7) -0.05575(16) 0.4756(6)
H13B H -0.1457 -0.0864 0.5396
C14B C -0.3446(7) 0.02804(19) 0.2855(6)
H14B H -0.3961 0.0574 0.2188
O4 O 0.9430(5) 0.20573(13) 0.5464(4)
H15 H 0.906(8) 0.1754(14) 0.592(5)
H16 H 0.973(8) 0.2339(14) 0.607(5)
loop_
_geom_bond_atom_site_label_1
_geom_bond_atom_site_label_2
_geom_bond_site_symmetry_1
_geom_bond_site_symmetry_2
O1 C2 1_555 1_555
O2 C4 1_555 1_555
O3 H1 1_555 1_555
C1 H2 1_555 1_555
H3 C1 1_555 1_555
C2 C3 1_555 1_555
C3 C1 1_555 1_555
C4 O3 1_555 1_555
C5 C3 1_555 1_555
H4 C5 1_555 1_555
C6 C1 1_555 1_555
H5 C6 1_555 1_555
H6 C6 1_555 1_555
C7 C2 1_555 1_555
H7 C7 1_555 1_555
C8 C7 1_555 1_555
H8 C8 1_555 1_555
C9 C5 1_555 1_555
H9 C9 1_555 1_555
H10 O1 1_555 1_555
N1 C11 1_555 1_555
C10 C12 1_555 1_555
C11 H11 1_555 1_555
C12 H12 1_555 1_555
C13 C10 1_555 1_555
H13 C13 1_555 1_555
C14 N1 1_555 1_555
H14 C14 1_555 1_555
O4 H15 1_555 1_555
H16 O4 1_555 1_555
N1B C11B 1_555 1_555
C10B C10 1_555 1_555
C11B H11B 1_555 1_555
C12B C10B 1_555 1_555
H12B C12B 1_555 1_555
C13B C10B 1_555 1_555
H13B C13B 1_555 1_555
C14B N1B 1_555 1_555
H14B C14B 1_555 1_555
C4 C6 1_555 1_555
C8 C9 1_555 1_555
C11 C13 1_555 1_555
C12 C14 1_555 1_555
C11B C13B 1_555 1_555
C12B C14B 1_555 1_555

#END
