
#######################################################################
#
#                 Cambridge Crystallographic Data Centre
#                                CCDC 
#
#######################################################################
#
# If this CIF has been generated from an entry in the Cambridge 
# Structural Database, then it will include bibliographic, chemical, 
# crystal, experimental, refinement or atomic coordinate data resulting 
# from the CCDC's data processing and validation procedures.
#
#######################################################################

data_LORNAI
_chemical_name_common            (2-Methyl-3-nitrophenyl)acetonitrile
_chemical_formula_moiety         'C9 H8 N2 O2'
_chemical_name_systematic        '2-Methyl-3-nitrobenzyl cyanide'
_symmetry_cell_setting           monoclinic
_symmetry_space_group_name_H-M   'P 21/c'
_symmetry_Int_Tables_number      14
_space_group_name_Hall           '-P 2ybc'
loop_
_symmetry_equiv_pos_site_id
_symmetry_equiv_pos_as_xyz
1 x,y,z
2 -x,1/2+y,1/2-z
3 -x,-y,-z
4 x,1/2-y,1/2+z
_cell_length_a                   17.216(3)
_cell_length_b                   7.1950(14)
_cell_length_c                   15.746(3)
_cell_angle_alpha                90
_cell_angle_beta                 117.10(3)
_cell_angle_gamma                90
_cell_volume                     1736.31
_exptl_crystal_colour            yellow
_exptl_crystal_description       block
_cell_formula_units_Z            8
_exptl_crystal_recrystallization_method methanol
loop_
_atom_site_label
_atom_site_type_symbol
_atom_site_fract_x
_atom_site_fract_y
_atom_site_fract_z
O1 O 0.4276(3) 0.7334(6) 0.1977(2)
O2 O 0.3421(2) 0.9322(6) 0.0964(3)
N1 N 0.7122(2) 0.5898(7) -0.0502(3)
N2 N 0.4027(3) 0.8202(6) 0.1242(3)
C1 C 0.6910(2) 0.6447(6) 0.0045(3)
C2 C 0.6654(2) 0.7139(6) 0.0738(3)
H1 H 0.6923 0.8344 0.0959
H2 H 0.6878 0.6306 0.1282
C3 C 0.5958(3) 0.7856(7) 0.2075(2)
H3 H 0.6548 0.7639 0.2189
H4 H 0.5801 0.6965 0.2425
H5 H 0.5910 0.9088 0.2281
C4 C 0.5348(2) 0.7660(5) 0.1016(2)
C5 C 0.4440(2) 0.7870(5) 0.0633(2)
C6 C 0.3884(2) 0.7784(5) -0.0346(2)
H6 H 0.3287 0.7966 -0.0579
C7 C 0.4230(2) 0.7427(5) -0.0959(2)
H7 H 0.3867 0.7327 -0.1611
C8 C 0.5115(2) 0.7220(5) -0.0609(2)
H8 H 0.5348 0.7000 -0.1029
C9 C 0.5673(2) 0.7334(5) 0.0369(2)
O3 O 0.0637(2) 0.2551(6) 0.2586(2)
O4 O 0.1521(2) 0.0640(5) 0.2452(2)
N3 N -0.2116(2) 0.4233(6) -0.2708(3)
N4 N 0.0918(2) 0.1720(6) 0.2117(2)
C10 C -0.1920(2) 0.3586(6) -0.1986(3)
C11 C -0.1684(2) 0.2786(6) -0.1044(2)
H9 H -0.1940 0.1558 -0.1126
H10 H -0.1932 0.3550 -0.0721
C12 C -0.1011(3) 0.1927(6) 0.0956(3)
H11 H -0.0745 0.1150 0.1511
H12 H -0.1529 0.1338 0.0487
H13 H -0.1160 0.3105 0.1129
C13 C -0.0386(2) 0.2224(5) 0.0551(2)
C14 C 0.0515(2) 0.2114(5) 0.1080(2)
C15 C 0.1095(2) 0.2325(5) 0.0709(2)
H14 H 0.1693 0.2203 0.1094
C16 C 0.0764(2) 0.2721(5) -0.0249(2)
H15 H 0.1139 0.2890 -0.0520
C17 C -0.0121(2) 0.2867(5) -0.0803(2)
H16 H -0.0339 0.3126 -0.1450
C18 C -0.0704(2) 0.2634(5) -0.0415(2)
loop_
_geom_bond_atom_site_label_1
_geom_bond_atom_site_label_2
_geom_bond_site_symmetry_1
_geom_bond_site_symmetry_2
O1 N2 1_555 1_555
O2 N2 1_555 1_555
N1 C1 1_555 1_555
N2 C5 1_555 1_555
C1 C2 1_555 1_555
C2 H1 1_555 1_555
H2 C2 1_555 1_555
C3 H3 1_555 1_555
H4 C3 1_555 1_555
H5 C3 1_555 1_555
C4 C3 1_555 1_555
C5 C4 1_555 1_555
C6 C5 1_555 1_555
H6 C6 1_555 1_555
C7 C6 1_555 1_555
H7 C7 1_555 1_555
C8 C7 1_555 1_555
H8 C8 1_555 1_555
C9 C2 1_555 1_555
O3 N4 1_555 1_555
O4 N4 1_555 1_555
N3 C10 1_555 1_555
N4 C14 1_555 1_555
C10 C11 1_555 1_555
C11 H9 1_555 1_555
H10 C11 1_555 1_555
C12 H11 1_555 1_555
H12 C12 1_555 1_555
H13 C12 1_555 1_555
C13 C12 1_555 1_555
C14 C13 1_555 1_555
C15 C14 1_555 1_555
H14 C15 1_555 1_555
C16 C15 1_555 1_555
H15 C16 1_555 1_555
C17 C16 1_555 1_555
H16 C17 1_555 1_555
C18 C11 1_555 1_555
C4 C9 1_555 1_555
C8 C9 1_555 1_555
C13 C18 1_555 1_555
C17 C18 1_555 1_555

#END
