
#######################################################################
#
#                 Cambridge Crystallographic Data Centre
#                                CCDC 
#
#######################################################################
#
# If this CIF has been generated from an entry in the Cambridge 
# Structural Database, then it will include bibliographic, chemical, 
# crystal, experimental, refinement or atomic coordinate data resulting 
# from the CCDC's data processing and validation procedures.
#
#######################################################################

data_LORRAM
_chemical_name_common            
(4R,5R,10S)-N-((E)-Pyridin-2-ylmethylidene)abieta-8,11,13-trien-18-amine
_chemical_formula_moiety         'C26 H34 N2'
_chemical_name_systematic        
(1R,4aS,10aR)-1-(1,4a-Dimethyl-7-isopropyl-1,2,3,4,4a,9,10,10a-octahydrophenanthren-1-yl)-N-((E)-2-pyridylmethylene)methanamine
_symmetry_cell_setting           monoclinic
_symmetry_space_group_name_H-M   'P 21'
_symmetry_Int_Tables_number      4
_space_group_name_Hall           'P 2yb'
loop_
_symmetry_equiv_pos_site_id
_symmetry_equiv_pos_as_xyz
1 x,y,z
2 -x,1/2+y,-z
_cell_length_a                   11.294(2)
_cell_length_b                   6.0870(12)
_cell_length_c                   16.129(3)
_cell_angle_alpha                90
_cell_angle_beta                 98.71(3)
_cell_angle_gamma                90
_cell_volume                     1096.03
_exptl_crystal_colour            white
_exptl_crystal_description       block
_chemical_melting_point          '372 K'
_cell_formula_units_Z            2
loop_
_atom_site_label
_atom_site_type_symbol
_atom_site_fract_x
_atom_site_fract_y
_atom_site_fract_z
N1 N 0.2116(4) 0.1781(8) -0.1368(2)
N2 N 0.0270(5) 0.4047(9) -0.3125(3)
C1 C 0.6341(7) 0.9761(12) 0.3876(4)
H1 H 0.5647 1.0519 0.3598
H2 H 0.6861 0.9407 0.3477
H3 H 0.6758 1.0684 0.4307
C2 C 0.7016(5) 0.6441(12) 0.4723(4)
H4 H 0.6750 0.5139 0.4975
H5 H 0.7436 0.7369 0.5151
H6 H 0.7543 0.6041 0.4333
C3 C 0.5953(5) 0.7653(10) 0.4268(3)
H7 H 0.5469 0.8099 0.4695
C4 C 0.5153(5) 0.6250(9) 0.3642(3)
C5 C 0.3996(4) 0.5769(10) 0.3732(3)
H8 H 0.3690 0.6303 0.4197
C6 C 0.3280(4) 0.4524(9) 0.3157(3)
H9 H 0.2495 0.4261 0.3239
C7 C 0.3671(4) 0.3638(8) 0.2458(3)
C8 C 0.4870(4) 0.4045(9) 0.2362(3)
C9 C 0.5572(4) 0.5346(10) 0.2954(3)
H10 H 0.6360 0.5623 0.2883
C10 C 0.2857(4) 0.2215(8) 0.1825(3)
C11 C 0.3278(4) 0.2466(8) 0.0964(2)
H11 H 0.3290 0.4054 0.0865
C12 C 0.4589(4) 0.1745(10) 0.1029(3)
H12 H 0.4658 0.0218 0.1200
H13 H 0.4840 0.1863 0.0482
C13 C 0.5392(5) 0.3102(14) 0.1640(3)
H14 H 0.6185 0.3356 0.1576
C14 C 0.1547(4) 0.2973(9) 0.1759(3)
H15 H 0.1260 0.2672 0.2284
H16 H 0.1507 0.4547 0.1666
C15 C 0.0736(4) 0.1820(11) 0.1046(3)
H17 H 0.0739 0.0251 0.1152
H18 H -0.0078 0.2349 0.1022
C16 C 0.1160(4) 0.2251(9) 0.0222(3)
H19 H 0.1099 0.3814 0.0106
H20 H 0.0629 0.1501 -0.0217
C17 C 0.2442(4) 0.1517(8) 0.0188(3)
C18 C 0.2950(5) -0.0156(9) 0.2187(3)
H21 H 0.2672 -0.0171 0.2721
H22 H 0.3769 -0.0633 0.2256
H23 H 0.2466 -0.1128 0.1808
C19 C 0.2519(5) -0.1014(9) 0.0118(3)
H24 H 0.2274 -0.1678 0.0604
H25 H 0.3329 -0.1432 0.0082
H26 H 0.2002 -0.1500 -0.0376
C20 C 0.2829(4) 0.2563(10) -0.0602(3)
H27 H 0.2753 0.4147 -0.0571
H28 H 0.3665 0.2223 -0.0615
C21 C 0.1584(5) 0.3134(10) -0.1878(3)
H29 H 0.1654 0.4626 -0.1756
C22 C 0.0852(4) 0.2423(10) -0.2665(3)
C23 C -0.0394(6) 0.3452(14) -0.3848(4)
H30 H -0.0807 0.4544 -0.4176
C24 C -0.0503(6) 0.1341(14) -0.4132(4)
H31 H -0.0981 0.1010 -0.4638
C25 C 0.0104(6) -0.0273(12) -0.3659(4)
H32 H 0.0054 -0.1723 -0.3843
C26 C 0.0784(5) 0.0259(11) -0.2916(3)
H33 H 0.1196 -0.0824 -0.2582
loop_
_geom_bond_atom_site_label_1
_geom_bond_atom_site_label_2
_geom_bond_site_symmetry_1
_geom_bond_site_symmetry_2
N1 C20 1_555 1_555
N2 C22 1_555 1_555
C1 H1 1_555 1_555
H2 C1 1_555 1_555
H3 C1 1_555 1_555
C2 H4 1_555 1_555
H5 C2 1_555 1_555
H6 C2 1_555 1_555
C3 C1 1_555 1_555
H7 C3 1_555 1_555
C4 C3 1_555 1_555
C5 C4 1_555 1_555
H8 C5 1_555 1_555
C6 C5 1_555 1_555
H9 C6 1_555 1_555
C7 C6 1_555 1_555
C8 C7 1_555 1_555
C9 C4 1_555 1_555
H10 C9 1_555 1_555
C10 C7 1_555 1_555
C11 C10 1_555 1_555
H11 C11 1_555 1_555
C12 C11 1_555 1_555
H12 C12 1_555 1_555
H13 C12 1_555 1_555
C13 C8 1_555 1_555
H14 C13 1_555 1_555
C14 C10 1_555 1_555
H15 C14 1_555 1_555
H16 C14 1_555 1_555
C15 C14 1_555 1_555
H17 C15 1_555 1_555
H18 C15 1_555 1_555
C16 C15 1_555 1_555
H19 C16 1_555 1_555
H20 C16 1_555 1_555
C17 C11 1_555 1_555
C18 C10 1_555 1_555
H21 C18 1_555 1_555
H22 C18 1_555 1_555
H23 C18 1_555 1_555
C19 C17 1_555 1_555
H24 C19 1_555 1_555
H25 C19 1_555 1_555
H26 C19 1_555 1_555
C20 C17 1_555 1_555
H27 C20 1_555 1_555
H28 C20 1_555 1_555
C21 N1 1_555 1_555
H29 C21 1_555 1_555
C22 C21 1_555 1_555
C23 N2 1_555 1_555
H30 C23 1_555 1_555
C24 C23 1_555 1_555
H31 C24 1_555 1_555
C25 C24 1_555 1_555
H32 C25 1_555 1_555
C26 C22 1_555 1_555
H33 C26 1_555 1_555
C2 C3 1_555 1_555
C8 C9 1_555 1_555
C12 C13 1_555 1_555
C16 C17 1_555 1_555
C25 C26 1_555 1_555

#END
