
#######################################################################
#
#                 Cambridge Crystallographic Data Centre
#                                CCDC 
#
#######################################################################
#
# If this CIF has been generated from an entry in the Cambridge 
# Structural Database, then it will include bibliographic, chemical, 
# crystal, experimental, refinement or atomic coordinate data resulting 
# from the CCDC's data processing and validation procedures.
#
#######################################################################

data_LORTUI01
_chemical_formula_moiety         'C11 H10 N4,2(H2 O1)'
_chemical_name_systematic        
'2-(1H-Imidazol-1-ylmethyl)-1H-benzimidazole dihydrate'
_symmetry_cell_setting           orthorhombic
_symmetry_space_group_name_H-M   'P n a 21'
_symmetry_Int_Tables_number      33
_space_group_name_Hall           'P 2c -2n'
loop_
_symmetry_equiv_pos_site_id
_symmetry_equiv_pos_as_xyz
1 x,y,z
2 -x,-y,1/2+z
3 1/2+x,1/2-y,z
4 1/2-x,1/2+y,1/2+z
_cell_length_a                   14.032(8)
_cell_length_b                   19.114(10)
_cell_length_c                   4.625(3)
_cell_angle_alpha                90
_cell_angle_beta                 90
_cell_angle_gamma                90
_cell_volume                     1240.46
_exptl_crystal_colour            colorless
_exptl_crystal_description       needle
_cell_formula_units_Z            4
loop_
_atom_site_label
_atom_site_type_symbol
_atom_site_fract_x
_atom_site_fract_y
_atom_site_fract_z
O1 O 0.11398(14) 0.88175(11) -0.3813(5)
H1 H 0.1214 0.9256 -0.3612
H2 H 0.1336 0.8700 -0.2143
O2 O 0.17674(14) 0.81672(10) 0.1363(5)
H3 H 0.2362 0.8126 0.1061
H4 H 0.1639 0.8391 0.2903
C1 C -0.0830(3) 0.92786(16) 0.2054(8)
C2 C -0.2042(2) 0.87160(18) 0.0345(9)
H5 H -0.250(2) 0.8318(17) 0.000(8)
C3 C -0.2090(3) 0.93898(19) -0.0417(10)
H6 H -0.251(2) 0.9633(18) -0.188(9)
C4 C -0.0880(2) 0.80032(14) 0.3280(6)
H7 H -0.135(2) 0.7869(14) 0.487(8)
C5 C -0.06837(18) 0.74539(12) 0.1101(6)
C6 C 0.01095(18) 0.68174(13) -0.2031(5)
C7 C 0.0752(2) 0.64926(16) -0.3880(7)
H8 H 0.1325(18) 0.6672(12) -0.404(7)
C8 C 0.0435(3) 0.59271(16) -0.5437(7)
H9 H 0.092(2) 0.5675(17) -0.692(9)
C9 C -0.0499(2) 0.56848(16) -0.5172(7)
H10 H -0.069(2) 0.5275(16) -0.636(9)
C10 C -0.1140(2) 0.60049(14) -0.3381(7)
H11 H -0.184(2) 0.5816(16) -0.313(8)
C11 C -0.08331(18) 0.65782(12) -0.1791(5)
N1 N -0.1330(2) 0.97542(12) 0.0661(7)
N2 N -0.12341(15) 0.86484(11) 0.1947(5)
N3 N 0.01748(16) 0.73728(11) -0.0179(4)
H12 H 0.068(2) 0.7630(14) 0.031(7)
N4 N -0.13171(14) 0.69930(10) 0.0204(5)
H13 H -0.030(2) 0.8154(13) 0.448(8)
H14 H -0.024(2) 0.9364(16) 0.300(8)
loop_
_geom_bond_atom_site_label_1
_geom_bond_atom_site_label_2
_geom_bond_site_symmetry_1
_geom_bond_site_symmetry_2
O1 H1 1_555 1_555
H2 O1 1_555 1_555
O2 H3 1_555 1_555
H4 O2 1_555 1_555
C1 N1 1_555 1_555
C2 H5 1_555 1_555
C3 C2 1_555 1_555
H6 C3 1_555 1_555
C4 H7 1_555 1_555
C5 C4 1_555 1_555
C6 C7 1_555 1_555
C7 H8 1_555 1_555
C8 C7 1_555 1_555
H9 C8 1_555 1_555
C9 C8 1_555 1_555
H10 C9 1_555 1_555
C10 C9 1_555 1_555
H11 C10 1_555 1_555
C11 C6 1_555 1_555
N1 C3 1_555 1_555
N2 C1 1_555 1_555
N3 C5 1_555 1_555
H12 N3 1_555 1_555
N4 C5 1_555 1_555
H13 C4 1_555 1_555
H14 C1 1_555 1_555
C2 N2 1_555 1_555
C4 N2 1_555 1_555
C6 N3 1_555 1_555
C10 C11 1_555 1_555
C11 N4 1_555 1_555

#END
