
#######################################################################
#
#                 Cambridge Crystallographic Data Centre
#                                CCDC 
#
#######################################################################
#
# If this CIF has been generated from an entry in the Cambridge 
# Structural Database, then it will include bibliographic, chemical, 
# crystal, experimental, refinement or atomic coordinate data resulting 
# from the CCDC's data processing and validation procedures.
#
#######################################################################

data_LORXUN
_chemical_formula_moiety         
'C35 H32 N2 O1 2+,2(C1 F3 O3 S1 1-),0.5(C1 H3 N1 O2)'
_chemical_name_systematic        
'13-(2-(4-methoxyphenyl)vinyl)-6,7-dimethyl-4,5,8,9-tetrahydroisoquinolino[1,2-a]pyrido[1,2-k][2,9]phenanthrolinediium bis(trifluoromethanesulfonate) nitromethane solvate'
_symmetry_cell_setting           triclinic
_symmetry_space_group_name_H-M   'P -1'
_symmetry_Int_Tables_number      2
_space_group_name_Hall           '-P 1'
loop_
_symmetry_equiv_pos_site_id
_symmetry_equiv_pos_as_xyz
1 x,y,z
2 -x,-y,-z
_cell_length_a                   12.8456(3)
_cell_length_b                   13.7518(3)
_cell_length_c                   21.7960(4)
_cell_angle_alpha                75.1430(10)
_cell_angle_beta                 84.4540(10)
_cell_angle_gamma                87.5830(10)
_cell_volume                     3703.52
_exptl_crystal_colour            orange
_exptl_crystal_description       prism
_cell_formula_units_Z            4
loop_
_atom_site_label
_atom_site_type_symbol
_atom_site_fract_x
_atom_site_fract_y
_atom_site_fract_z
C1 C 0.10967(15) 0.49988(14) 0.72242(8)
H1 H 0.1120 0.4967 0.7663
C2 C 0.17634(15) 0.56498(14) 0.67724(9)
C3 C 0.16309(17) 0.57373(16) 0.61297(9)
H2 H 0.2053 0.6186 0.5806
C4 C 0.09026(16) 0.51851(15) 0.59664(9)
H3 H 0.0808 0.5266 0.5529
N1 N 0.03093(12) 0.45221(12) 0.64144(7)
C5 C -0.04700(15) 0.39231(16) 0.62193(9)
H4 H -0.0197 0.3229 0.6255
H5 H -0.0603 0.4226 0.5770
C6 C -0.14726(16) 0.39027(17) 0.66431(9)
H6 H -0.1979 0.3465 0.6533
H7 H -0.1781 0.4590 0.6572
C7 C -0.12736(15) 0.35130(14) 0.73358(9)
C8 C -0.20371(15) 0.30122(15) 0.78006(10)
C9 C -0.18132(16) 0.26677(15) 0.84370(10)
C10 C -0.07999(16) 0.27670(14) 0.86013(9)
C11 C -0.04790(16) 0.24779(16) 0.92728(9)
H8 H -0.0134 0.1805 0.9359
H9 H -0.1104 0.2448 0.9580
C12 C 0.02677(17) 0.32521(16) 0.93500(9)
H10 H -0.0079 0.3924 0.9268
H11 H 0.0479 0.3076 0.9791
N2 N 0.12011(13) 0.32701(12) 0.88895(7)
C13 C 0.21657(17) 0.33946(15) 0.90703(9)
H12 H 0.2228 0.3477 0.9485
C14 C 0.30285(17) 0.34010(16) 0.86654(10)
H13 H 0.3685 0.3565 0.8776
C15 C 0.29601(16) 0.31658(15) 0.80784(9)
C16 C 0.38467(17) 0.30873(18) 0.76533(11)
H14 H 0.4519 0.3234 0.7750
C17 C 0.37477(18) 0.28051(18) 0.71079(11)
H15 H 0.4348 0.2775 0.6822
C18 C 0.27619(17) 0.25571(16) 0.69644(10)
H16 H 0.2706 0.2325 0.6595
C19 C 0.18897(16) 0.26498(14) 0.73543(9)
H17 H 0.1227 0.2487 0.7252
C20 C 0.19605(15) 0.29868(14) 0.79118(8)
C21 C 0.10632(15) 0.31565(13) 0.83107(8)
C22 C -0.00196(15) 0.32087(14) 0.81287(9)
C23 C -0.02841(14) 0.36649(13) 0.75052(8)
C24 C 0.04041(14) 0.44002(14) 0.70468(8)
C25 C 0.25538(16) 0.61958(14) 0.69772(9)
H18 H 0.2515 0.6207 0.7413
C26 C 0.33307(16) 0.66816(15) 0.65803(9)
H19 H 0.3315 0.6690 0.6144
C27 C 0.41994(16) 0.72001(15) 0.67315(9)
C28 C 0.42963(16) 0.73545(15) 0.73351(9)
H20 H 0.3757 0.7143 0.7668
C29 C 0.51655(17) 0.78094(15) 0.74501(10)
H21 H 0.5222 0.7910 0.7861
C30 C 0.59665(16) 0.81237(15) 0.69649(10)
C31 C 0.58833(16) 0.79913(15) 0.63631(10)
H22 H 0.6422 0.8211 0.6031
C32 C 0.50034(16) 0.75340(15) 0.62522(9)
H23 H 0.4945 0.7445 0.5839
C33 C -0.26577(18) 0.21782(18) 0.89394(11)
H24 H -0.3220 0.2671 0.8975
H25 H -0.2361 0.1937 0.9350
H26 H -0.2940 0.1609 0.8819
C34 C -0.31200(16) 0.28703(18) 0.76206(12)
H27 H -0.3214 0.2159 0.7640
H28 H -0.3200 0.3277 0.7187
H29 H -0.3647 0.3083 0.7918
C35 C 0.76015(17) 0.89583(17) 0.66413(11)
H30 H 0.7838 0.8453 0.6410
H31 H 0.8194 0.9158 0.6830
H32 H 0.7316 0.9549 0.6346
O1 O 0.68088(11) 0.85418(11) 0.71343(7)
O2 O -0.43846(13) 0.44752(13) 0.87115(8)
C36 C 0.10969(15) 0.83291(14) 0.69404(9)
H33 H 0.1205 0.8193 0.7380
C37 C 0.03361(16) 0.77982(15) 0.67528(9)
C38 C 0.02547(17) 0.79768(17) 0.60919(10)
H34 H -0.0239 0.7621 0.5940
C39 C 0.08821(18) 0.86559(18) 0.56753(10)
H35 H 0.0833 0.8756 0.5231
N3 N 0.15750(13) 0.91944(13) 0.58733(7)
C40 C 0.22198(18) 0.99497(17) 0.54021(9)
H36 H 0.1952 1.0635 0.5404
H37 H 0.2180 0.9854 0.4970
C41 C 0.33342(17) 0.98380(16) 0.55652(9)
H38 H 0.3758 1.0372 0.5267
H39 H 0.3623 0.9179 0.5520
C42 C 0.33958(16) 0.99114(14) 0.62389(9)
C43 C 0.43012(16) 1.02616(14) 0.64214(9)
C44 C 0.43542(16) 1.02884(14) 0.70526(9)
C45 C 0.34786(16) 1.00113(14) 0.74906(9)
C46 C 0.35106(16) 0.99284(16) 0.81934(9)
H40 H 0.3298 1.0579 0.8288
H41 H 0.4231 0.9758 0.8317
C47 C 0.27712(16) 0.91153(16) 0.85656(9)
H42 H 0.2991 0.8462 0.8478
H43 H 0.2780 0.9049 0.9028
N4 N 0.17062(13) 0.93966(12) 0.83690(7)
C48 C 0.08838(17) 0.93112(16) 0.88266(9)
H44 H 0.1001 0.9047 0.9262
C49 C -0.00851(17) 0.95965(16) 0.86672(10)
H45 H -0.0656 0.9489 0.8987
C50 C -0.02614(16) 1.00551(15) 0.80278(9)
C51 C -0.12539(17) 1.04282(16) 0.78457(10)
H46 H -0.1837 1.0342 0.8157
C52 C -0.13883(17) 1.09097(16) 0.72309(11)
H47 H -0.2067 1.1134 0.7112
C53 C -0.05227(16) 1.10782(15) 0.67680(10)
H48 H -0.0619 1.1443 0.6343
C54 C 0.04485(16) 1.07234(14) 0.69241(9)
H49 H 0.1025 1.0848 0.6608
C55 C 0.06071(15) 1.01691(14) 0.75552(9)
C56 C 0.15941(15) 0.97513(14) 0.77435(8)
C57 C 0.25384(15) 0.97607(14) 0.72979(8)
C58 C 0.25264(15) 0.96219(14) 0.66778(9)
C59 C 0.17011(15) 0.90510(14) 0.65046(9)
C60 C -0.03424(16) 0.71047(15) 0.72251(10)
H50 H -0.0203 0.6973 0.7659
C61 C -0.11488(16) 0.66423(15) 0.70845(10)
H51 H -0.1227 0.6733 0.6644
C62 C -0.19226(16) 0.60149(15) 0.75293(10)
C63 C -0.18087(17) 0.56262(16) 0.81767(10)
H52 H -0.1171 0.5717 0.8340
C64 C -0.26105(18) 0.51095(16) 0.85844(10)
H53 H -0.2522 0.4850 0.9025
C65 C -0.35471(17) 0.49713(16) 0.83475(11)
C66 C -0.36571(17) 0.53228(16) 0.77035(11)
H54 H -0.4288 0.5213 0.7539
C67 C -0.28575(17) 0.58308(15) 0.73009(11)
H55 H -0.2940 0.6062 0.6858
C68 C 0.52112(17) 1.05493(16) 0.59208(10)
H56 H 0.5823 1.0679 0.6122
H57 H 0.5026 1.1157 0.5600
H58 H 0.5375 0.9998 0.5716
C69 C 0.53266(17) 1.06139(17) 0.72768(10)
H59 H 0.5780 1.0026 0.7425
H60 H 0.5130 1.0929 0.7628
H61 H 0.5702 1.1098 0.6924
C70 C -0.4410(2) 0.4315(2) 0.93892(13)
H62 H -0.3867 0.3819 0.9553
H63 H -0.5097 0.4066 0.9587
H64 H -0.4281 0.4952 0.9491
C71 C 0.70951(18) 0.66956(17) 0.49496(11)
F1 F 0.66907(12) 0.61799(12) 0.55176(7)
F2 F 0.64845(11) 0.75059(12) 0.47647(8)
F3 F 0.70525(13) 0.61328(12) 0.45426(7)
O3 O 0.89774(13) 0.61460(13) 0.51909(8)
O4 O 0.87026(13) 0.76292(12) 0.43377(7)
O5 O 0.82683(13) 0.76834(13) 0.54319(8)
S1 S 0.84189(4) 0.70754(4) 0.49807(2)
C72 C 0.62239(19) 0.34697(18) 0.55095(10)
F4 F 0.63262(13) 0.40123(12) 0.59218(8)
F5 F 0.53063(11) 0.30144(12) 0.56775(8)
F6 F 0.61634(14) 0.41029(12) 0.49383(7)
O6 O 0.82077(12) 0.31650(13) 0.53450(7)
O7 O 0.70557(13) 0.20957(12) 0.50132(7)
O8 O 0.71894(13) 0.19380(13) 0.61407(7)
S2 S 0.72943(4) 0.25616(4) 0.54998(2)
C73 C 0.65245(19) 0.94168(18) 0.00632(11)
F7 F 0.60670(12) 1.01372(13) 0.03075(8)
F8 F 0.63998(12) 0.96692(12) -0.05581(7)
F9 F 0.60089(12) 0.85722(13) 0.03182(8)
O9 O 0.79005(12) 0.89609(11) 0.08841(6)
O10 O 0.82667(12) 0.85144(11) -0.01230(7)
O11 O 0.83146(13) 1.02539(11) -0.00883(7)
S3 S 0.79092(4) 0.92686(4) 0.02012(2)
C74 C 0.2009(2) 0.60165(19) 0.94126(11)
F10 F 0.28831(14) 0.56028(14) 0.92148(9)
F11 F 0.15601(17) 0.53273(13) 0.99018(7)
F12 F 0.22789(16) 0.67783(13) 0.96392(8)
O12 O 0.17705(14) 0.71571(12) 0.83140(7)
O13 O 0.02686(15) 0.68654(15) 0.90932(9)
O14 O 0.09418(14) 0.55393(11) 0.86086(7)
S4 S 0.11469(5) 0.64403(4) 0.87883(2)
N5 N 0.6644(3) 0.7267(2) 0.91441(11)
C75 C 0.7535(3) 0.7770(2) 0.87202(12)
H65 H 0.8191 0.7448 0.8871
H66 H 0.7531 0.8482 0.8723
H67 H 0.7477 0.7714 0.8286
O15 O 0.5767(2) 0.7567(3) 0.90091(12)
O16 O 0.6821(2) 0.65888(16) 0.96077(9)
loop_
_geom_bond_atom_site_label_1
_geom_bond_atom_site_label_2
_geom_bond_site_symmetry_1
_geom_bond_site_symmetry_2
C1 H1 1_555 1_555
C2 C1 1_555 1_555
C3 C2 1_555 1_555
H2 C3 1_555 1_555
C4 C3 1_555 1_555
H3 C4 1_555 1_555
N1 C4 1_555 1_555
C5 N1 1_555 1_555
H4 C5 1_555 1_555
H5 C5 1_555 1_555
C6 C5 1_555 1_555
H6 C6 1_555 1_555
H7 C6 1_555 1_555
C7 C6 1_555 1_555
C8 C7 1_555 1_555
C9 C8 1_555 1_555
C10 C9 1_555 1_555
C11 C10 1_555 1_555
H8 C11 1_555 1_555
H9 C11 1_555 1_555
C12 C11 1_555 1_555
H10 C12 1_555 1_555
H11 C12 1_555 1_555
N2 C12 1_555 1_555
C13 N2 1_555 1_555
H12 C13 1_555 1_555
C14 C13 1_555 1_555
H13 C14 1_555 1_555
C15 C14 1_555 1_555
C16 C15 1_555 1_555
H14 C16 1_555 1_555
C17 C16 1_555 1_555
H15 C17 1_555 1_555
C18 C17 1_555 1_555
H16 C18 1_555 1_555
C19 C18 1_555 1_555
H17 C19 1_555 1_555
C20 C15 1_555 1_555
C21 N2 1_555 1_555
C22 C10 1_555 1_555
C23 C7 1_555 1_555
C24 C1 1_555 1_555
C25 C2 1_555 1_555
H18 C25 1_555 1_555
C26 C25 1_555 1_555
H19 C26 1_555 1_555
C27 C26 1_555 1_555
C28 C27 1_555 1_555
H20 C28 1_555 1_555
C29 C28 1_555 1_555
H21 C29 1_555 1_555
C30 C29 1_555 1_555
C31 C30 1_555 1_555
H22 C31 1_555 1_555
C32 C27 1_555 1_555
H23 C32 1_555 1_555
C33 C9 1_555 1_555
H24 C33 1_555 1_555
H25 C33 1_555 1_555
H26 C33 1_555 1_555
C34 C8 1_555 1_555
H27 C34 1_555 1_555
H28 C34 1_555 1_555
H29 C34 1_555 1_555
C35 H30 1_555 1_555
H31 C35 1_555 1_555
H32 C35 1_555 1_555
O1 C30 1_555 1_555
O2 C65 1_555 1_555
C36 H33 1_555 1_555
C37 C36 1_555 1_555
C38 C37 1_555 1_555
H34 C38 1_555 1_555
C39 C38 1_555 1_555
H35 C39 1_555 1_555
N3 C39 1_555 1_555
C40 N3 1_555 1_555
H36 C40 1_555 1_555
H37 C40 1_555 1_555
C41 C40 1_555 1_555
H38 C41 1_555 1_555
H39 C41 1_555 1_555
C42 C41 1_555 1_555
C43 C42 1_555 1_555
C44 C43 1_555 1_555
C45 C44 1_555 1_555
C46 C45 1_555 1_555
H40 C46 1_555 1_555
H41 C46 1_555 1_555
C47 C46 1_555 1_555
H42 C47 1_555 1_555
H43 C47 1_555 1_555
N4 C47 1_555 1_555
C48 N4 1_555 1_555
H44 C48 1_555 1_555
C49 C48 1_555 1_555
H45 C49 1_555 1_555
C50 C49 1_555 1_555
C51 C50 1_555 1_555
H46 C51 1_555 1_555
C52 C51 1_555 1_555
H47 C52 1_555 1_555
C53 C52 1_555 1_555
H48 C53 1_555 1_555
C54 C53 1_555 1_555
H49 C54 1_555 1_555
C55 C50 1_555 1_555
C56 N4 1_555 1_555
C57 C45 1_555 1_555
C58 C42 1_555 1_555
C59 C36 1_555 1_555
C60 C37 1_555 1_555
H50 C60 1_555 1_555
C61 C60 1_555 1_555
H51 C61 1_555 1_555
C62 C61 1_555 1_555
C63 C62 1_555 1_555
H52 C63 1_555 1_555
C64 C63 1_555 1_555
H53 C64 1_555 1_555
C65 C64 1_555 1_555
C66 C65 1_555 1_555
H54 C66 1_555 1_555
C67 C62 1_555 1_555
H55 C67 1_555 1_555
C68 C43 1_555 1_555
H56 C68 1_555 1_555
H57 C68 1_555 1_555
H58 C68 1_555 1_555
C69 C44 1_555 1_555
H59 C69 1_555 1_555
H60 C69 1_555 1_555
H61 C69 1_555 1_555
C70 O2 1_555 1_555
H62 C70 1_555 1_555
H63 C70 1_555 1_555
H64 C70 1_555 1_555
C71 F1 1_555 1_555
F2 C71 1_555 1_555
F3 C71 1_555 1_555
O3 S1 1_555 1_555
O4 S1 1_555 1_555
O5 S1 1_555 1_555
S1 C71 1_555 1_555
C72 F4 1_555 1_555
F5 C72 1_555 1_555
F6 C72 1_555 1_555
O6 S2 1_555 1_555
O7 S2 1_555 1_555
O8 S2 1_555 1_555
S2 C72 1_555 1_555
C73 F7 1_555 1_555
F8 C73 1_555 1_555
F9 C73 1_555 1_555
O9 S3 1_555 1_555
O10 S3 1_555 1_555
O11 S3 1_555 1_555
S3 C73 1_555 1_555
C74 F10 1_555 1_555
F11 C74 1_555 1_555
F12 C74 1_555 1_555
O12 S4 1_555 1_555
O13 S4 1_555 1_555
O14 S4 1_555 1_555
S4 C74 1_555 1_555
N5 C75 1_555 1_555
C75 H65 1_555 1_555
H66 C75 1_555 1_555
H67 C75 1_555 1_555
O15 N5 1_555 1_555
O16 N5 1_555 1_555
N1 C24 1_555 1_555
C19 C20 1_555 1_555
C20 C21 1_555 1_555
C21 C22 1_555 1_555
C22 C23 1_555 1_555
C23 C24 1_555 1_555
C31 C32 1_555 1_555
C35 O1 1_555 1_555
N3 C59 1_555 1_555
C54 C55 1_555 1_555
C55 C56 1_555 1_555
C56 C57 1_555 1_555
C57 C58 1_555 1_555
C58 C59 1_555 1_555
C66 C67 1_555 1_555

#END
