
#######################################################################
#
#                 Cambridge Crystallographic Data Centre
#                                CCDC 
#
#######################################################################
#
# If this CIF has been generated from an entry in the Cambridge 
# Structural Database, then it will include bibliographic, chemical, 
# crystal, experimental, refinement or atomic coordinate data resulting 
# from the CCDC's data processing and validation procedures.
#
#######################################################################

data_LORZOJ
_chemical_formula_moiety         'C42 H44 N4 2+,2(C1 F3 O3 S1 1-)'
_chemical_name_systematic        
"2,17-bis(2-(4-(dimethylamino)phenyl)vinyl)-6,7,8,11,12,13-hexahydropyrido[2,1-a]pyrido[1',2':1,2]azepino[4,3-i][2]benzazepinediium bis(trifluoromethanesulfonate) unknown solvate"
_symmetry_cell_setting           orthorhombic
_symmetry_space_group_name_H-M   'P b c a'
_symmetry_Int_Tables_number      61
_space_group_name_Hall           '-P 2ac 2ab'
loop_
_symmetry_equiv_pos_site_id
_symmetry_equiv_pos_as_xyz
1 x,y,z
2 1/2+x,1/2-y,-z
3 -x,1/2+y,1/2-z
4 1/2-x,-y,1/2+z
5 -x,-y,-z
6 1/2-x,1/2+y,z
7 x,1/2-y,1/2+z
8 1/2+x,y,1/2-z
_cell_length_a                   25.3083(18)
_cell_length_b                   17.1165(12)
_cell_length_c                   42.198(3)
_cell_angle_alpha                90
_cell_angle_beta                 90
_cell_angle_gamma                90
_cell_volume                     18279.7
_exptl_crystal_colour            violet
_exptl_crystal_description       plate
_cell_formula_units_Z            16
loop_
_atom_site_label
_atom_site_type_symbol
_atom_site_fract_x
_atom_site_fract_y
_atom_site_fract_z
C1 C 0.18837(17) 0.7119(3) 0.90987(10)
H1 H 0.1768 0.7048 0.8886
C2 C 0.17430(19) 0.7804(3) 0.92587(10)
C3 C 0.1914(2) 0.7860(3) 0.95801(11)
H2 H 0.1830 0.8313 0.9700
C4 C 0.2194(2) 0.7275(3) 0.97155(11)
H3 H 0.2288 0.7312 0.9933
N1 N 0.23423(15) 0.6642(2) 0.95483(8)
C5 C 0.2660(2) 0.6032(3) 0.97109(11)
H4 H 0.2842 0.6262 0.9896
H5 H 0.2932 0.5826 0.9564
C6 C 0.2297(2) 0.5364(3) 0.98197(11)
H6 H 0.2515 0.4907 0.9879
H7 H 0.2099 0.5532 1.0010
C7 C 0.1905(2) 0.5125(3) 0.95598(11)
H8 H 0.1755 0.4605 0.9610
H9 H 0.1610 0.5506 0.9552
C8 C 0.2176(2) 0.5096(3) 0.92407(11)
C9 C 0.2293(2) 0.4381(3) 0.91023(12)
H10 H 0.2206 0.3910 0.9209
C10 C 0.2535(2) 0.4351(3) 0.88098(12)
H11 H 0.2609 0.3856 0.8718
C11 C 0.2674(2) 0.5022(3) 0.86458(11)
C12 C 0.2915(2) 0.4982(3) 0.83208(12)
H12 H 0.3033 0.4442 0.8277
H13 H 0.3227 0.5329 0.8311
C13 C 0.2510(2) 0.5235(3) 0.80694(12)
H14 H 0.2698 0.5346 0.7868
H15 H 0.2262 0.4799 0.8030
C14 C 0.2199(2) 0.5955(3) 0.81678(11)
H16 H 0.2020 0.6181 0.7981
H17 H 0.1926 0.5806 0.8324
N2 N 0.25606(16) 0.6544(2) 0.83090(9)
C15 C 0.2728(2) 0.7155(3) 0.81303(11)
H18 H 0.2609 0.7196 0.7917
C16 C 0.3058(2) 0.7707(3) 0.82457(11)
H19 H 0.3172 0.8120 0.8112
C17 C 0.32337(18) 0.7678(3) 0.85625(10)
C18 C 0.30597(18) 0.7023(3) 0.87396(10)
H20 H 0.3172 0.6972 0.8953
C19 C 0.27365(19) 0.6464(3) 0.86143(10)
C20 C 0.25660(19) 0.5754(3) 0.87853(10)
C21 C 0.23199(18) 0.5788(3) 0.90842(11)
C22 C 0.21848(18) 0.6545(3) 0.92395(10)
C23 C 0.14549(19) 0.8419(3) 0.91003(11)
H21 H 0.1362 0.8348 0.8884
C24 C 0.13111(19) 0.9090(3) 0.92453(11)
H22 H 0.1376 0.9110 0.9467
C25 C 0.1072(2) 0.9782(3) 0.91101(11)
C26 C 0.09734(19) 0.9898(3) 0.87882(11)
H23 H 0.1039 0.9483 0.8644
C27 C 0.07838(18) 1.0595(3) 0.86725(11)
H24 H 0.0725 1.0654 0.8451
C28 C 0.06764(19) 1.1226(3) 0.88796(11)
C29 C 0.0768(2) 1.1111(3) 0.92009(12)
H25 H 0.0696 1.1521 0.9346
C30 C 0.0961(2) 1.0412(3) 0.93112(12)
H26 H 0.1020 1.0353 0.9532
C31 C 0.0423(2) 1.2056(3) 0.84314(11)
H27 H 0.0748 1.1925 0.8317
H28 H 0.0332 1.2604 0.8392
H29 H 0.0134 1.1721 0.8357
C32 C 0.0289(2) 1.2510(3) 0.89868(13)
H30 H -0.0009 1.2282 0.9103
H31 H 0.0168 1.2968 0.8868
H32 H 0.0564 1.2667 0.9137
C33 C 0.35425(19) 0.8281(3) 0.87055(11)
H33 H 0.3636 0.8225 0.8922
C34 C 0.37114(19) 0.8930(3) 0.85500(11)
H34 H 0.3664 0.8927 0.8327
C35 C 0.39522(19) 0.9622(3) 0.86795(11)
C36 C 0.40721(19) 0.9726(3) 0.89988(11)
H35 H 0.4017 0.9304 0.9141
C37 C 0.4265(2) 1.0410(4) 0.91138(12)
H36 H 0.4345 1.0453 0.9333
C38 C 0.4351(2) 1.1065(3) 0.89117(12)
C39 C 0.4255(2) 1.0946(3) 0.85893(12)
H37 H 0.4327 1.1357 0.8444
C40 C 0.4059(2) 1.0248(3) 0.84759(12)
H38 H 0.3995 1.0191 0.8255
C41 C 0.4627(3) 1.1868(4) 0.93580(16)
H39 H 0.4320 1.1708 0.9484
H40 H 0.4706 1.2418 0.9400
H41 H 0.4932 1.1546 0.9416
C42 C 0.4644(2) 1.2390(4) 0.88128(15)
H42 H 0.4965 1.2255 0.8696
H43 H 0.4703 1.2871 0.8934
H44 H 0.4353 1.2471 0.8663
N3 N 0.05022(18) 1.1936(3) 0.87688(10)
N4 N 0.45115(19) 1.1766(3) 0.90258(11)
C43 C 0.30789(18) 0.0368(3) 0.16228(10)
H45 H 0.3205 0.0311 0.1412
C44 C 0.32293(19) 0.1032(3) 0.17997(11)
C45 C 0.3037(2) 0.1062(3) 0.21155(11)
H46 H 0.3135 0.1486 0.2249
C46 C 0.27195(19) 0.0499(3) 0.22280(11)
H47 H 0.2596 0.0534 0.2440
N5 N 0.25702(16) -0.0118(2) 0.20484(8)
C47 C 0.2204(2) -0.0714(3) 0.21855(12)
H48 H 0.1943 -0.0876 0.2024
H49 H 0.2010 -0.0487 0.2367
C48 C 0.2522(2) -0.1426(4) 0.22956(12)
H50 H 0.2699 -0.1302 0.2499
H51 H 0.2278 -0.1868 0.2333
C49 C 0.2937(2) -0.1669(3) 0.20521(11)
H52 H 0.3243 -0.1309 0.2065
H53 H 0.3064 -0.2203 0.2101
C50 C 0.2713(2) -0.1651(3) 0.17238(11)
C51 C 0.2588(2) -0.2332(3) 0.15614(13)
H54 H 0.2653 -0.2821 0.1660
C52 C 0.2374(2) -0.2319(3) 0.12626(13)
H55 H 0.2300 -0.2799 0.1159
C53 C 0.2262(2) -0.1622(3) 0.11092(11)
C54 C 0.2037(2) -0.1600(3) 0.07837(11)
H56 H 0.1734 -0.1236 0.0779
H57 H 0.1906 -0.2126 0.0727
C55 C 0.2448(2) -0.1339(3) 0.05391(11)
H58 H 0.2687 -0.1782 0.0491
H59 H 0.2266 -0.1189 0.0341
C56 C 0.2770(2) -0.0657(3) 0.06577(11)
H60 H 0.3032 -0.0842 0.0815
H61 H 0.2965 -0.0418 0.0479
N6 N 0.24181(16) -0.0060(3) 0.08067(8)
C57 C 0.2270(2) 0.0569(3) 0.06440(11)
H62 H 0.2394 0.0628 0.0433
C58 C 0.1949(2) 0.1132(3) 0.07668(11)
H63 H 0.1848 0.1569 0.0642
C59 C 0.17670(19) 0.1060(3) 0.10815(10)
C60 C 0.19202(18) 0.0384(3) 0.12459(10)
H64 H 0.1800 0.0309 0.1457
C61 C 0.22415(19) -0.0174(3) 0.11084(10)
C62 C 0.23881(19) -0.0913(3) 0.12697(11)
C63 C 0.26091(19) -0.0932(3) 0.15756(10)
C64 C 0.27550(19) -0.0200(3) 0.17466(10)
C65 C 0.35375(18) 0.1656(3) 0.16608(11)
H65 H 0.3633 0.1614 0.1444
C66 C 0.36953(19) 0.2284(3) 0.18195(11)
H66 H 0.3647 0.2268 0.2043
C67 C 0.39317(19) 0.2989(3) 0.16950(11)
C68 C 0.40201(19) 0.3137(3) 0.13704(11)
H67 H 0.3953 0.2732 0.1222
C69 C 0.41982(18) 0.3838(3) 0.12628(11)
H68 H 0.4250 0.3912 0.1042
C70 C 0.43081(18) 0.4458(3) 0.14726(11)
C71 C 0.4235(2) 0.4324(3) 0.17989(11)
H69 H 0.4311 0.4726 0.1947
C72 C 0.40523(19) 0.3612(3) 0.19030(11)
H70 H 0.4006 0.3535 0.2124
C73 C 0.4564(2) 0.5304(3) 0.10270(12)
H71 H 0.4865 0.4986 0.0957
H72 H 0.4642 0.5858 0.0990
H73 H 0.4248 0.5155 0.0907
C74 C 0.4670(2) 0.5762(3) 0.15840(13)
H74 H 0.4400 0.5877 0.1744
H75 H 0.4754 0.6239 0.1466
H76 H 0.4989 0.5567 0.1689
C75 C 0.1454(2) 0.1656(3) 0.12352(12)
H77 H 0.1355 0.1572 0.1450
C76 C 0.12940(19) 0.2323(3) 0.10952(11)
H78 H 0.1341 0.2348 0.0872
C77 C 0.10621(19) 0.2999(3) 0.12392(11)
C78 C 0.0974(2) 0.3077(3) 0.15641(12)
H79 H 0.1047 0.2647 0.1700
C79 C 0.0785(2) 0.3763(3) 0.16940(13)
H80 H 0.0724 0.3795 0.1916
C80 C 0.0681(2) 0.4421(3) 0.14989(13)
C81 C 0.0753(2) 0.4328(3) 0.11711(12)
H81 H 0.0667 0.4746 0.1032
C82 C 0.0942(2) 0.3648(3) 0.10485(12)
H82 H 0.0996 0.3611 0.0826
C83 C 0.0429(3) 0.5187(4) 0.19594(15)
H83 H 0.0128 0.4856 0.2017
H84 H 0.0348 0.5732 0.2012
H85 H 0.0742 0.5018 0.2077
C84 C 0.0352(2) 0.5744(4) 0.14210(15)
H86 H 0.0616 0.5832 0.1255
H87 H 0.0306 0.6224 0.1545
H88 H 0.0014 0.5599 0.1323
N7 N 0.44712(18) 0.5173(3) 0.13677(10)
N8 N 0.05271(19) 0.5121(3) 0.16271(11)
S1 S 0.35692(8) 0.21180(12) 0.29600(4)
C85 C 0.4132(6) 0.1699(9) 0.2857(3)
F1 F 0.4218(3) 0.1542(5) 0.25655(18)
F2 F 0.4094(4) 0.1020(4) 0.30025(18)
F3 F 0.4552(4) 0.1895(6) 0.2994(2)
O1 O 0.35262(17) 0.2300(3) 0.32777(9)
O2 O 0.3618(5) 0.2895(8) 0.2797(3)
O3 O 0.3118(5) 0.1497(7) 0.2851(3)
S2 S 0.34934(6) 0.78586(9) 0.98777(3)
C86 C 0.4170(3) 0.8202(4) 0.99146(14)
F4 F 0.42643(15) 0.8801(3) 0.97230(9)
F5 F 0.45090(17) 0.7646(3) 0.98405(11)
F6 F 0.42722(18) 0.8441(3) 1.02049(9)
O4 O 0.31795(18) 0.8540(3) 0.99510(11)
O5 O 0.34584(18) 0.7626(3) 0.95568(10)
O6 O 0.3443(2) 0.7257(3) 1.01123(10)
S3 S 0.13287(6) 0.63570(9) 0.06070(3)
C87 C 0.0858(3) 0.5808(4) 0.03702(15)
F7 F 0.06706(19) 0.6224(3) 0.01321(10)
F8 F 0.10903(19) 0.5168(3) 0.02478(12)
F9 F 0.04484(16) 0.5578(3) 0.05349(9)
O7 O 0.17244(17) 0.6580(2) 0.03841(9)
O8 O 0.15039(16) 0.5809(3) 0.08406(9)
O9 O 0.10207(18) 0.6985(3) 0.07283(10)
S4 S 0.35774(7) 0.62047(11) 0.24117(4)
C88 C 0.4238(9) 0.6438(11) 0.2488(5)
F10 F 0.4260(4) 0.7224(4) 0.23144(15)
F11 F 0.4603(4) 0.6188(6) 0.2390(2)
O10 O 0.3611(5) 0.5457(7) 0.2607(3)
O11 O 0.3237(5) 0.6936(7) 0.2512(3)
O12 O 0.35304(16) 0.5997(3) 0.20961(9)
F12 F 0.4352(3) 0.6392(5) 0.28180(19)
O13? O 0.3395(5) 0.5755(7) 0.2666(3)
O14? O 0.3173(5) 0.6542(7) 0.2555(3)
C89? C 0.4109(8) 0.6788(13) 0.2493(5)
F13? F 0.4565(4) 0.5798(5) 0.2402(2)
F14? F 0.4268(3) 0.6894(5) 0.27852(19)
O15? O 0.3372(5) 0.2550(8) 0.2697(3)
O16? O 0.3196(5) 0.1869(8) 0.2785(3)
C90? C 0.4288(6) 0.2538(8) 0.2861(3)
F15? F 0.4403(3) 0.2115(5) 0.25643(17)
F16? F 0.4621(4) 0.2324(6) 0.3021(2)
loop_
_geom_bond_atom_site_label_1
_geom_bond_atom_site_label_2
_geom_bond_site_symmetry_1
_geom_bond_site_symmetry_2
C1 H1 1_555 1_555
C2 C1 1_555 1_555
C3 C2 1_555 1_555
H2 C3 1_555 1_555
C4 C3 1_555 1_555
H3 C4 1_555 1_555
N1 C4 1_555 1_555
C5 N1 1_555 1_555
H4 C5 1_555 1_555
H5 C5 1_555 1_555
C6 C5 1_555 1_555
H6 C6 1_555 1_555
H7 C6 1_555 1_555
C7 C6 1_555 1_555
H8 C7 1_555 1_555
H9 C7 1_555 1_555
C8 C7 1_555 1_555
C9 C8 1_555 1_555
H10 C9 1_555 1_555
C10 C9 1_555 1_555
H11 C10 1_555 1_555
C11 C10 1_555 1_555
C12 C11 1_555 1_555
H12 C12 1_555 1_555
H13 C12 1_555 1_555
C13 C12 1_555 1_555
H14 C13 1_555 1_555
H15 C13 1_555 1_555
C14 C13 1_555 1_555
H16 C14 1_555 1_555
H17 C14 1_555 1_555
N2 C14 1_555 1_555
C15 N2 1_555 1_555
H18 C15 1_555 1_555
C16 C15 1_555 1_555
H19 C16 1_555 1_555
C17 C16 1_555 1_555
C18 C17 1_555 1_555
H20 C18 1_555 1_555
C19 N2 1_555 1_555
C20 C11 1_555 1_555
C21 C8 1_555 1_555
C22 C1 1_555 1_555
C23 C2 1_555 1_555
H21 C23 1_555 1_555
C24 C23 1_555 1_555
H22 C24 1_555 1_555
C25 C24 1_555 1_555
C26 C25 1_555 1_555
H23 C26 1_555 1_555
C27 C26 1_555 1_555
H24 C27 1_555 1_555
C28 C27 1_555 1_555
C29 C28 1_555 1_555
H25 C29 1_555 1_555
C30 C25 1_555 1_555
H26 C30 1_555 1_555
C31 H27 1_555 1_555
H28 C31 1_555 1_555
H29 C31 1_555 1_555
C32 H30 1_555 1_555
H31 C32 1_555 1_555
H32 C32 1_555 1_555
C33 C17 1_555 1_555
H33 C33 1_555 1_555
C34 C33 1_555 1_555
H34 C34 1_555 1_555
C35 C34 1_555 1_555
C36 C35 1_555 1_555
H35 C36 1_555 1_555
C37 C36 1_555 1_555
H36 C37 1_555 1_555
C38 C37 1_555 1_555
C39 C38 1_555 1_555
H37 C39 1_555 1_555
C40 C35 1_555 1_555
H38 C40 1_555 1_555
C41 H39 1_555 1_555
H40 C41 1_555 1_555
H41 C41 1_555 1_555
C42 H42 1_555 1_555
H43 C42 1_555 1_555
H44 C42 1_555 1_555
N3 C28 1_555 1_555
N4 C38 1_555 1_555
C43 H45 1_555 1_555
C44 C43 1_555 1_555
C45 C44 1_555 1_555
H46 C45 1_555 1_555
C46 C45 1_555 1_555
H47 C46 1_555 1_555
N5 C46 1_555 1_555
C47 N5 1_555 1_555
H48 C47 1_555 1_555
H49 C47 1_555 1_555
C48 C47 1_555 1_555
H50 C48 1_555 1_555
H51 C48 1_555 1_555
C49 C48 1_555 1_555
H52 C49 1_555 1_555
H53 C49 1_555 1_555
C50 C49 1_555 1_555
C51 C50 1_555 1_555
H54 C51 1_555 1_555
C52 C51 1_555 1_555
H55 C52 1_555 1_555
C53 C52 1_555 1_555
C54 C53 1_555 1_555
H56 C54 1_555 1_555
H57 C54 1_555 1_555
C55 C54 1_555 1_555
H58 C55 1_555 1_555
H59 C55 1_555 1_555
C56 C55 1_555 1_555
H60 C56 1_555 1_555
H61 C56 1_555 1_555
N6 C56 1_555 1_555
C57 N6 1_555 1_555
H62 C57 1_555 1_555
C58 C57 1_555 1_555
H63 C58 1_555 1_555
C59 C58 1_555 1_555
C60 C59 1_555 1_555
H64 C60 1_555 1_555
C61 N6 1_555 1_555
C62 C53 1_555 1_555
C63 C50 1_555 1_555
C64 C43 1_555 1_555
C65 C44 1_555 1_555
H65 C65 1_555 1_555
C66 C65 1_555 1_555
H66 C66 1_555 1_555
C67 C66 1_555 1_555
C68 C67 1_555 1_555
H67 C68 1_555 1_555
C69 C68 1_555 1_555
H68 C69 1_555 1_555
C70 C69 1_555 1_555
C71 C70 1_555 1_555
H69 C71 1_555 1_555
C72 C67 1_555 1_555
H70 C72 1_555 1_555
C73 H71 1_555 1_555
H72 C73 1_555 1_555
H73 C73 1_555 1_555
C74 H74 1_555 1_555
H75 C74 1_555 1_555
H76 C74 1_555 1_555
C75 C59 1_555 1_555
H77 C75 1_555 1_555
C76 C75 1_555 1_555
H78 C76 1_555 1_555
C77 C76 1_555 1_555
C78 C77 1_555 1_555
H79 C78 1_555 1_555
C79 C78 1_555 1_555
H80 C79 1_555 1_555
C80 C79 1_555 1_555
C81 C80 1_555 1_555
H81 C81 1_555 1_555
C82 C77 1_555 1_555
H82 C82 1_555 1_555
C83 H83 1_555 1_555
H84 C83 1_555 1_555
H85 C83 1_555 1_555
C84 H86 1_555 1_555
H87 C84 1_555 1_555
H88 C84 1_555 1_555
N7 C70 1_555 1_555
N8 C80 1_555 1_555
S1 C85 1_555 1_555
C85 F1 1_555 1_555
F2 C85 1_555 1_555
F3 C85 1_555 1_555
O1 S1 1_555 1_555
O2 S1 1_555 1_555
O3 S1 1_555 1_555
S2 C86 1_555 1_555
C86 F4 1_555 1_555
F5 C86 1_555 1_555
F6 C86 1_555 1_555
O4 S2 1_555 1_555
O5 S2 1_555 1_555
O6 S2 1_555 1_555
S3 C87 1_555 1_555
C87 F7 1_555 1_555
F8 C87 1_555 1_555
F9 C87 1_555 1_555
O7 S3 1_555 1_555
O8 S3 1_555 1_555
O9 S3 1_555 1_555
S4 C88 1_555 1_555
C88 F10 1_555 1_555
F11 C88 1_555 1_555
O10 S4 1_555 1_555
O11 S4 1_555 1_555
O12 S4 1_555 1_555
F12 C88 1_555 1_555
N1 C22 1_555 1_555
C18 C19 1_555 1_555
C19 C20 1_555 1_555
C20 C21 1_555 1_555
C21 C22 1_555 1_555
C29 C30 1_555 1_555
C31 N3 1_555 1_555
C32 N3 1_555 1_555
C39 C40 1_555 1_555
C41 N4 1_555 1_555
C42 N4 1_555 1_555
N5 C64 1_555 1_555
C60 C61 1_555 1_555
C61 C62 1_555 1_555
C62 C63 1_555 1_555
C63 C64 1_555 1_555
C71 C72 1_555 1_555
C73 N7 1_555 1_555
C74 N7 1_555 1_555
C81 C82 1_555 1_555
C83 N8 1_555 1_555
C84 N8 1_555 1_555

#END
