
#######################################################################
#
#                 Cambridge Crystallographic Data Centre
#                                CCDC 
#
#######################################################################
#
# If this CIF has been generated from an entry in the Cambridge 
# Structural Database, then it will include bibliographic, chemical, 
# crystal, experimental, refinement or atomic coordinate data resulting 
# from the CCDC's data processing and validation procedures.
#
#######################################################################

data_LORZAV
_chemical_formula_moiety         'C24 H26 N2 2+,2(I1 1-)'
_chemical_name_systematic        
"2,17-dimethyl-6,7,8,11,12,13-hexahydropyrido[2,1-a]pyrido[1',2':1,2]azepino[4,3-i][2]benzazepinediium bis(iodide)"
_symmetry_cell_setting           orthorhombic
_symmetry_space_group_name_H-M   'P 21 21 21'
_symmetry_Int_Tables_number      19
_space_group_name_Hall           'P 2ac 2ab'
loop_
_symmetry_equiv_pos_site_id
_symmetry_equiv_pos_as_xyz
1 x,y,z
2 1/2+x,1/2-y,-z
3 -x,1/2+y,1/2-z
4 1/2-x,-y,1/2+z
_cell_length_a                   8.7530(2)
_cell_length_b                   13.2791(4)
_cell_length_c                   19.7500(6)
_cell_angle_alpha                90
_cell_angle_beta                 90
_cell_angle_gamma                90
_cell_volume                     2295.58
_exptl_crystal_colour            'light yellow'
_exptl_crystal_description       'irregular prism'
_cell_formula_units_Z            4
loop_
_atom_site_label
_atom_site_type_symbol
_atom_site_fract_x
_atom_site_fract_y
_atom_site_fract_z
C1 C 0.3842(3) 0.53237(18) 0.93145(11)
H1 H 0.3554 0.5510 0.8868
C2 C 0.3185(3) 0.4473(2) 0.96090(13)
C3 C 0.3601(4) 0.4234(2) 1.02699(13)
H2 H 0.3168 0.3664 1.0488
C4 C 0.4643(3) 0.4829(2) 1.06056(14)
H3 H 0.4919 0.4664 1.1057
N1 N 0.5279(2) 0.56390(18) 1.03086(10)
C5 C 0.6438(3) 0.6236(2) 1.06839(13)
H4 H 0.7318 0.6372 1.0382
H5 H 0.6814 0.5836 1.1073
C6 C 0.5800(3) 0.7229(2) 1.09406(13)
H6 H 0.6657 0.7671 1.1076
H7 H 0.5169 0.7100 1.1348
C7 C 0.4823(3) 0.7773(2) 1.04078(13)
H8 H 0.3797 0.7460 1.0394
H9 H 0.4694 0.8486 1.0545
C8 C 0.5518(3) 0.7737(2) 0.97081(12)
C9 C 0.6058(3) 0.8601(2) 0.93985(13)
H10 H 0.5977 0.9226 0.9629
C10 C 0.6716(3) 0.8576(2) 0.87581(14)
H11 H 0.7057 0.9184 0.8554
C11 C 0.6879(3) 0.7665(2) 0.84131(13)
C12 C 0.7639(3) 0.7628(2) 0.77293(12)
H12 H 0.8413 0.7084 0.7727
H13 H 0.8172 0.8274 0.7645
C13 C 0.6482(4) 0.7440(2) 0.71616(12)
H14 H 0.5959 0.8080 0.7051
H15 H 0.7032 0.7211 0.6751
C14 C 0.5292(3) 0.6653(2) 0.73553(14)
H16 H 0.4545 0.6954 0.7673
H17 H 0.4733 0.6434 0.6945
N2 N 0.6028(2) 0.57680(16) 0.76788(10)
C15 C 0.6252(4) 0.4934(2) 0.73009(12)
H18 H 0.5921 0.4928 0.6843
C16 C 0.6942(3) 0.4103(2) 0.75637(14)
H19 H 0.7093 0.3525 0.7288
C17 C 0.7429(3) 0.4097(2) 0.82372(13)
C18 C 0.7200(3) 0.4978(2) 0.86119(13)
H20 H 0.7535 0.4999 0.9069
C19 C 0.6510(3) 0.58082(18) 0.83409(11)
C20 C 0.6292(3) 0.67763(17) 0.87100(11)
C21 C 0.5614(3) 0.6813(2) 0.93545(12)
C22 C 0.4905(3) 0.5903(2) 0.96583(12)
C23 C 0.2042(3) 0.3848(2) 0.92284(15)
H21 H 0.2378 0.3144 0.9222
H22 H 0.1957 0.4097 0.8763
H23 H 0.1044 0.3894 0.9452
C24 C 0.8201(5) 0.3192(3) 0.85312(18)
H24 H 0.7748 0.2580 0.8340
H25 H 0.8068 0.3191 0.9024
H26 H 0.9293 0.3213 0.8423
I1 I 0.12286(2) 0.561051(13) 0.756816(8)
I2 I 0.63178(3) 0.602608(14) 0.547024(8)
loop_
_geom_bond_atom_site_label_1
_geom_bond_atom_site_label_2
_geom_bond_site_symmetry_1
_geom_bond_site_symmetry_2
C1 H1 1_555 1_555
C2 C1 1_555 1_555
C3 C2 1_555 1_555
H2 C3 1_555 1_555
C4 C3 1_555 1_555
H3 C4 1_555 1_555
N1 C4 1_555 1_555
C5 N1 1_555 1_555
H4 C5 1_555 1_555
H5 C5 1_555 1_555
C6 C5 1_555 1_555
H6 C6 1_555 1_555
H7 C6 1_555 1_555
C7 C6 1_555 1_555
H8 C7 1_555 1_555
H9 C7 1_555 1_555
C8 C7 1_555 1_555
C9 C8 1_555 1_555
H10 C9 1_555 1_555
C10 C9 1_555 1_555
H11 C10 1_555 1_555
C11 C10 1_555 1_555
C12 C11 1_555 1_555
H12 C12 1_555 1_555
H13 C12 1_555 1_555
C13 C12 1_555 1_555
H14 C13 1_555 1_555
H15 C13 1_555 1_555
C14 C13 1_555 1_555
H16 C14 1_555 1_555
H17 C14 1_555 1_555
N2 C14 1_555 1_555
C15 N2 1_555 1_555
H18 C15 1_555 1_555
C16 C15 1_555 1_555
H19 C16 1_555 1_555
C17 C16 1_555 1_555
C18 C17 1_555 1_555
H20 C18 1_555 1_555
C19 N2 1_555 1_555
C20 C11 1_555 1_555
C21 C8 1_555 1_555
C22 C1 1_555 1_555
C23 C2 1_555 1_555
H21 C23 1_555 1_555
H22 C23 1_555 1_555
H23 C23 1_555 1_555
C24 C17 1_555 1_555
H24 C24 1_555 1_555
H25 C24 1_555 1_555
H26 C24 1_555 1_555
N1 C22 1_555 1_555
C18 C19 1_555 1_555
C19 C20 1_555 1_555
C20 C21 1_555 1_555
C21 C22 1_555 1_555

#END
