
#######################################################################
#
#                 Cambridge Crystallographic Data Centre
#                                CCDC 
#
#######################################################################
#
# If this CIF has been generated from an entry in the Cambridge 
# Structural Database, then it will include bibliographic, chemical, 
# crystal, experimental, refinement or atomic coordinate data resulting 
# from the CCDC's data processing and validation procedures.
#
#######################################################################

data_LOSFAB
_chemical_formula_moiety         'C24 H9 F18 O1 P1'
_chemical_name_systematic        
'tris[3,5-bis(Trifluoromethyl)phenyl]phosphine oxide'
_symmetry_cell_setting           triclinic
_symmetry_space_group_name_H-M   'P -1'
_symmetry_Int_Tables_number      2
_space_group_name_Hall           '-P 1'
loop_
_symmetry_equiv_pos_site_id
_symmetry_equiv_pos_as_xyz
1 x,y,z
2 -x,-y,-z
_cell_length_a                   10.7937(2)
_cell_length_b                   11.8786(10)
_cell_length_c                   12.5066(10)
_cell_angle_alpha                111.065(10)
_cell_angle_beta                 103.645(10)
_cell_angle_gamma                106.562(10)
_cell_volume                     1327.7
_exptl_crystal_colour            colorless
_exptl_crystal_description       block
_cell_formula_units_Z            2
_exptl_crystal_recrystallization_method ethanol
loop_
_atom_site_label
_atom_site_type_symbol
_atom_site_fract_x
_atom_site_fract_y
_atom_site_fract_z
P1 P 0.69584(5) 0.56123(5) 0.16458(4)
O1 O 0.66832(14) 0.62576(14) 0.08623(14)
C1 C 0.56380(18) 0.52657(18) 0.22911(18)
C2 C 0.4957(2) 0.6106(2) 0.24927(19)
H1 H 0.5191 0.6809 0.2305
C3 C 0.3928(2) 0.5897(2) 0.2974(2)
C4 C 0.3564(2) 0.4856(2) 0.3248(2)
H2 H 0.2866 0.4716 0.3562
C5 C 0.4241(2) 0.4021(2) 0.3053(2)
C6 C 0.5283(2) 0.42242(19) 0.25787(19)
H3 H 0.5740 0.3661 0.2455
C7 C 0.3816(3) 0.2847(3) 0.3293(3)
C8 C 0.3197(4) 0.6811(4) 0.3178(3)
C9 C 0.70486(19) 0.40435(18) 0.08552(17)
C10 C 0.5806(2) 0.29374(19) 0.00606(18)
H4 H 0.4954 0.3003 -0.0021
C11 C 0.5843(2) 0.1740(2) -0.0606(2)
C12 C 0.7100(2) 0.1634(2) -0.0525(2)
H5 H 0.7117 0.0828 -0.0982
C13 C 0.8329(2) 0.2734(2) 0.02403(19)
C14 C 0.8311(2) 0.3936(2) 0.09427(18)
H6 H 0.9146 0.4669 0.1472
C15 C 0.4488(3) 0.0560(3) -0.1458(3)
C16 C 0.9705(3) 0.2659(3) 0.0296(3)
C17 C 0.85895(18) 0.66656(17) 0.29756(17)
C18 C 0.94351(19) 0.78052(18) 0.29999(18)
H7 H 0.9176 0.7986 0.2337
C19 C 1.0671(2) 0.86781(18) 0.40158(19)
C20 C 1.1054(2) 0.84267(19) 0.50081(19)
H8 H 1.1879 0.9015 0.5688
C21 C 1.0203(2) 0.72894(19) 0.49895(18)
C22 C 0.89764(19) 0.64089(18) 0.39795(18)
H9 H 0.8411 0.5647 0.3970
C23 C 1.1590(3) 0.9907(2) 0.4026(2)
C24 C 1.0639(3) 0.7057(2) 0.6091(2)
F1 F 0.3107(17) 0.2938(11) 0.4026(13)
F2 F 0.3053(13) 0.1725(6) 0.2330(7)
F3 F 0.4911(12) 0.2685(12) 0.3845(8)
F4 F 0.2145(11) 0.6369(9) 0.3520(13)
F5 F 0.4017(7) 0.7979(6) 0.3979(11)
F6 F 0.2564(13) 0.6778(13) 0.2152(7)
F7 F 1.0083(16) 0.289(3) -0.0448(13)
F8 F 0.9558(9) 0.1390(8) 0.010(2)
F9 F 1.0656(11) 0.3334(14) 0.1386(10)
F10 F 0.3748(10) 0.0774(10) -0.2275(11)
F11 F 0.3666(10) 0.0405(10) -0.0809(7)
F12 F 0.4594(10) -0.0513(8) -0.1913(19)
F13 F 1.2266(7) 1.0906(3) 0.5147(3)
F14 F 1.0835(3) 1.0359(4) 0.3402(5)
F15 F 1.2459(5) 0.9734(4) 0.3515(6)
F16 F 1.1855(12) 0.6770(8) 0.6200(8)
F17 F 1.1071(13) 0.8101(11) 0.7152(10)
F18 F 0.9620(17) 0.6078(13) 0.6047(10)
F19? F 0.4473(14) -0.0498(9) -0.1405(11)
F20? F 0.4366(18) 0.0163(16) -0.2650(6)
F21? F 0.3425(7) 0.0689(11) -0.140(3)
F22? F 1.2974(10) 1.030(2) 0.481(2)
F23? F 1.136(3) 1.0800(13) 0.438(4)
F24? F 1.184(3) 0.9613(17) 0.3041(18)
F25? F 1.162(2) 0.689(2) 0.625(2)
F26? F 1.068(5) 0.802(2) 0.7088(18)
F27? F 0.978(2) 0.5964(15) 0.6035(17)
F28? F 0.347(2) 0.3116(17) 0.4269(11)
F29? F 0.265(3) 0.1929(19) 0.2265(17)
F30? F 0.474(3) 0.238(3) 0.345(4)
F31? F 0.3833(18) 0.7925(14) 0.307(2)
F32? F 0.2026(13) 0.6458(12) 0.242(2)
F33? F 0.319(2) 0.733(2) 0.4278(10)
F34? F 1.0531(13) 0.3664(12) 0.009(2)
F35? F 0.9664(8) 0.1631(12) -0.0554(10)
F36? F 1.0478(16) 0.292(2) 0.1352(11)
loop_
_geom_bond_atom_site_label_1
_geom_bond_atom_site_label_2
_geom_bond_site_symmetry_1
_geom_bond_site_symmetry_2
P1 O1 1_555 1_555
C1 P1 1_555 1_555
C2 C1 1_555 1_555
H1 C2 1_555 1_555
C3 C2 1_555 1_555
C4 C3 1_555 1_555
H2 C4 1_555 1_555
C5 C4 1_555 1_555
C6 C1 1_555 1_555
H3 C6 1_555 1_555
C7 C5 1_555 1_555
C8 C3 1_555 1_555
C9 P1 1_555 1_555
C10 C9 1_555 1_555
H4 C10 1_555 1_555
C11 C10 1_555 1_555
C12 C11 1_555 1_555
H5 C12 1_555 1_555
C13 C12 1_555 1_555
C14 C9 1_555 1_555
H6 C14 1_555 1_555
C15 C11 1_555 1_555
C16 C13 1_555 1_555
C17 P1 1_555 1_555
C18 C17 1_555 1_555
H7 C18 1_555 1_555
C19 C18 1_555 1_555
C20 C19 1_555 1_555
H8 C20 1_555 1_555
C21 C20 1_555 1_555
C22 C17 1_555 1_555
H9 C22 1_555 1_555
C23 C19 1_555 1_555
C24 C21 1_555 1_555
F1 C7 1_555 1_555
F2 C7 1_555 1_555
F3 C7 1_555 1_555
F4 C8 1_555 1_555
F5 C8 1_555 1_555
F6 C8 1_555 1_555
F7 C16 1_555 1_555
F8 C16 1_555 1_555
F9 C16 1_555 1_555
F10 C15 1_555 1_555
F11 C15 1_555 1_555
F12 C15 1_555 1_555
F13 C23 1_555 1_555
F14 C23 1_555 1_555
F15 C23 1_555 1_555
F16 C24 1_555 1_555
F17 C24 1_555 1_555
F18 C24 1_555 1_555
C5 C6 1_555 1_555
C13 C14 1_555 1_555
C21 C22 1_555 1_555

#END
