
#######################################################################
#
#                 Cambridge Crystallographic Data Centre
#                                CCDC 
#
#######################################################################
#
# If this CIF has been generated from an entry in the Cambridge 
# Structural Database, then it will include bibliographic, chemical, 
# crystal, experimental, refinement or atomic coordinate data resulting 
# from the CCDC's data processing and validation procedures.
#
#######################################################################

data_LOSHOR
_chemical_name_common            "2,2'-Disulfanediylditerephthalic acid"
_chemical_formula_moiety         'C16 H10 O8 S2'
_chemical_name_systematic        "2,2'-Dithioditerephthalic acid"
_symmetry_cell_setting           monoclinic
_symmetry_space_group_name_H-M   'C 2/c'
_symmetry_Int_Tables_number      15
_space_group_name_Hall           '-C 2yn'
loop_
_symmetry_equiv_pos_site_id
_symmetry_equiv_pos_as_xyz
1 x,y,z
2 -x,y,1/2-z
3 1/2+x,1/2+y,z
4 1/2-x,1/2+y,1/2-z
5 -x,-y,-z
6 x,-y,1/2+z
7 1/2-x,1/2-y,-z
8 1/2+x,1/2-y,1/2+z
_cell_length_a                   16.396(3)
_cell_length_b                   9.8462(15)
_cell_length_c                   20.363(3)
_cell_angle_alpha                90
_cell_angle_beta                 98.840(2)
_cell_angle_gamma                90
_cell_volume                     3248.32
_exptl_crystal_colour            colorless
_exptl_crystal_description       block
_cell_formula_units_Z            8
loop_
_atom_site_label
_atom_site_type_symbol
_atom_site_fract_x
_atom_site_fract_y
_atom_site_fract_z
S1 S 0.26721(5) 1.00797(9) 0.25924(4)
S2 S 0.15066(5) 1.01218(9) 0.20597(4)
O1 O 0.41835(14) 1.0121(3) 0.32740(12)
O2 O 0.46882(15) 0.9002(3) 0.41908(14)
H1 H 0.5089 0.9490 0.4171
O3 O 0.05065(14) 0.6603(3) 0.32417(13)
H2 H 0.0114 0.6090 0.3250
O4 O 0.10411(15) 0.5422(3) 0.41363(13)
O5 O 0.00331(15) 1.0344(3) 0.13061(14)
O6 O -0.05464(15) 0.9000(3) 0.04927(14)
H3 H -0.0924 0.9549 0.0482
O7 O 0.30978(15) 0.5421(3) 0.05144(13)
O8 O 0.36843(15) 0.6784(3) 0.13228(15)
H4 H 0.4087 0.6302 0.1299
C1 C 0.33165(18) 0.8542(3) 0.37059(15)
C2 C 0.26309(18) 0.8786(3) 0.32073(15)
C3 C 0.19173(18) 0.8031(3) 0.32198(15)
H5 H 0.1462 0.8166 0.2893
C4 C 0.18767(18) 0.7073(3) 0.37180(15)
C5 C 0.25458(19) 0.6852(3) 0.42111(15)
H6 H 0.2514 0.6215 0.4544
C6 C 0.32567(19) 0.7586(3) 0.42018(15)
H7 H 0.3707 0.7443 0.4532
C7 C 0.41062(19) 0.9292(3) 0.37033(17)
C8 C 0.11000(19) 0.6282(3) 0.37180(16)
C9 C 0.15409(19) 0.8884(3) 0.14229(16)
C10 C 0.08448(18) 0.8614(3) 0.09422(15)
C11 C 0.0880(2) 0.7598(3) 0.04614(17)
H8 H 0.0416 0.7418 0.0150
C12 C 0.1597(2) 0.6863(3) 0.04463(17)
H9 H 0.1616 0.6190 0.0129
C13 C 0.22814(19) 0.7144(3) 0.09087(16)
C14 C 0.22585(18) 0.8129(3) 0.13977(16)
H10 H 0.2725 0.8287 0.1710
C15 C 0.0074(2) 0.9392(3) 0.09224(17)
C16 C 0.30639(19) 0.6367(3) 0.08988(16)
loop_
_geom_bond_atom_site_label_1
_geom_bond_atom_site_label_2
_geom_bond_site_symmetry_1
_geom_bond_site_symmetry_2
S1 S2 1_555 1_555
S2 C9 1_555 1_555
O1 C7 1_555 1_555
O2 H1 1_555 1_555
O3 H2 1_555 1_555
O4 C8 1_555 1_555
O5 C15 1_555 1_555
O6 H3 1_555 1_555
O7 C16 1_555 1_555
O8 H4 1_555 1_555
C1 C2 1_555 1_555
C2 S1 1_555 1_555
C3 C2 1_555 1_555
H5 C3 1_555 1_555
C4 C3 1_555 1_555
C5 C4 1_555 1_555
H6 C5 1_555 1_555
C6 C1 1_555 1_555
H7 C6 1_555 1_555
C7 O2 1_555 1_555
C8 O3 1_555 1_555
C9 C10 1_555 1_555
C10 C11 1_555 1_555
C11 H8 1_555 1_555
C12 C11 1_555 1_555
H9 C12 1_555 1_555
C13 C12 1_555 1_555
C14 C9 1_555 1_555
H10 C14 1_555 1_555
C15 O6 1_555 1_555
C16 O8 1_555 1_555
C1 C7 1_555 1_555
C4 C8 1_555 1_555
C5 C6 1_555 1_555
C10 C15 1_555 1_555
C13 C14 1_555 1_555
C13 C16 1_555 1_555

#END
