
#######################################################################
#
#                 Cambridge Crystallographic Data Centre
#                                CCDC 
#
#######################################################################
#
# If this CIF has been generated from an entry in the Cambridge 
# Structural Database, then it will include bibliographic, chemical, 
# crystal, experimental, refinement or atomic coordinate data resulting 
# from the CCDC's data processing and validation procedures.
#
#######################################################################

data_LOSJAF
_chemical_formula_moiety         'C14 H18 N2 O1'
_chemical_name_systematic        
6'-Methyl-1',2',3',4'-tetrahydrospirocyclohexane-2'-quinazolin-4'-one
_symmetry_cell_setting           monoclinic
_symmetry_space_group_name_H-M   'P 21/n'
_symmetry_Int_Tables_number      14
_space_group_name_Hall           '-P 2yn'
loop_
_symmetry_equiv_pos_site_id
_symmetry_equiv_pos_as_xyz
1 x,y,z
2 1/2-x,1/2+y,1/2-z
3 -x,-y,-z
4 1/2+x,1/2-y,1/2+z
_cell_length_a                   9.4077(19)
_cell_length_b                   11.853(2)
_cell_length_c                   11.067(2)
_cell_angle_alpha                90
_cell_angle_beta                 106.44(3)
_cell_angle_gamma                90
_cell_volume                     1183.62
_exptl_crystal_colour            colorless
_exptl_crystal_description       cube
_cell_formula_units_Z            4
_exptl_crystal_recrystallization_method 'ethyl acetate'
loop_
_atom_site_label
_atom_site_type_symbol
_atom_site_fract_x
_atom_site_fract_y
_atom_site_fract_z
O1 O 0.01942(8) 0.42294(7) 0.36579(7)
N1 N 0.32706(11) 0.24403(8) 0.61566(9)
N2 N 0.16255(10) 0.39739(8) 0.56703(8)
C1 C 0.31997(12) 0.22860(9) 0.49040(10)
C2 C 0.39770(12) 0.14331(9) 0.44884(11)
H1 H 0.4588 0.0928 0.5078
C3 C 0.38557(12) 0.13253(9) 0.32154(11)
H2 H 0.4379 0.0736 0.2946
C4 C 0.29853(12) 0.20585(9) 0.23162(10)
C5 C 0.21867(12) 0.28808(9) 0.27333(10)
H3 H 0.1573 0.3381 0.2139
C6 C 0.22636(11) 0.29905(9) 0.40055(10)
C7 C 0.12913(11) 0.37917(9) 0.44220(10)
C8 C 0.29082(14) 0.19553(11) 0.09415(11)
H4 H 0.2017 0.2339 0.0431
H5 H 0.2869 0.1156 0.0707
H6 H 0.3789 0.2304 0.0793
C9 C 0.30268(11) 0.35816(9) 0.65516(9)
C10 C 0.28781(13) 0.35125(9) 0.78910(10)
H7 H 0.1961 0.3095 0.7872
H8 H 0.3726 0.3080 0.8423
C11 C 0.28289(12) 0.46671(10) 0.84905(10)
H9 H 0.2840 0.4566 0.9381
H10 H 0.1895 0.5055 0.8046
C12 C 0.41467(13) 0.53975(10) 0.84304(10)
H11 H 0.4071 0.6148 0.8799
H12 H 0.5081 0.5040 0.8927
C13 C 0.41659(13) 0.55324(10) 0.70664(10)
H13 H 0.5013 0.6013 0.7029
H14 H 0.3242 0.5906 0.6574
C14 C 0.43013(12) 0.43771(9) 0.64986(10)
H15 H 0.5257 0.4030 0.6963
H16 H 0.4303 0.4474 0.5610
H17 H 0.1067(16) 0.4493(13) 0.5919(13)
H18 H 0.3942(18) 0.2055(13) 0.6744(14)
loop_
_geom_bond_atom_site_label_1
_geom_bond_atom_site_label_2
_geom_bond_site_symmetry_1
_geom_bond_site_symmetry_2
O1 C7 1_555 1_555
N1 C1 1_555 1_555
N2 C7 1_555 1_555
C1 C2 1_555 1_555
C2 H1 1_555 1_555
C3 C2 1_555 1_555
H2 C3 1_555 1_555
C4 C3 1_555 1_555
C5 C4 1_555 1_555
H3 C5 1_555 1_555
C6 C1 1_555 1_555
C7 C6 1_555 1_555
C8 C4 1_555 1_555
H4 C8 1_555 1_555
H5 C8 1_555 1_555
H6 C8 1_555 1_555
C9 N1 1_555 1_555
C10 C9 1_555 1_555
H7 C10 1_555 1_555
H8 C10 1_555 1_555
C11 C10 1_555 1_555
H9 C11 1_555 1_555
H10 C11 1_555 1_555
C12 C11 1_555 1_555
H11 C12 1_555 1_555
H12 C12 1_555 1_555
C13 C12 1_555 1_555
H13 C13 1_555 1_555
H14 C13 1_555 1_555
C14 C9 1_555 1_555
H15 C14 1_555 1_555
H16 C14 1_555 1_555
H17 N2 1_555 1_555
H18 N1 1_555 1_555
N2 C9 1_555 1_555
C5 C6 1_555 1_555
C13 C14 1_555 1_555

#END
