
#######################################################################
#
#                 Cambridge Crystallographic Data Centre
#                                CCDC 
#
#######################################################################
#
# If this CIF has been generated from an entry in the Cambridge 
# Structural Database, then it will include bibliographic, chemical, 
# crystal, experimental, refinement or atomic coordinate data resulting 
# from the CCDC's data processing and validation procedures.
#
#######################################################################

data_LOTGOS
_chemical_formula_moiety         'C14 H14 Cl1 N1 O1'
_chemical_name_systematic        
2-(chloro(phenyl)methylene)hexahydro-3H-pyrrolizin-3-one
_symmetry_cell_setting           monoclinic
_symmetry_space_group_name_H-M   'C 2/c'
_symmetry_Int_Tables_number      15
_space_group_name_Hall           '-C 2yn'
loop_
_symmetry_equiv_pos_site_id
_symmetry_equiv_pos_as_xyz
1 x,y,z
2 -x,y,1/2-z
3 1/2+x,1/2+y,z
4 1/2-x,1/2+y,1/2-z
5 -x,-y,-z
6 x,-y,1/2+z
7 1/2-x,1/2-y,-z
8 1/2+x,1/2-y,1/2+z
_cell_length_a                   17.485(2)
_cell_length_b                   10.6501(11)
_cell_length_c                   13.4479(14)
_cell_angle_alpha                90
_cell_angle_beta                 97.808(11)
_cell_angle_gamma                90
_cell_volume                     2481.01
_cell_formula_units_Z            8
loop_
_atom_site_label
_atom_site_type_symbol
_atom_site_fract_x
_atom_site_fract_y
_atom_site_fract_z
Cl1 Cl 0.06737(5) 0.18110(8) 0.37120(5)
O1 O 0.13063(12) 0.4822(2) 0.63188(12)
C1 C 0.09714(17) 0.0963(3) 0.5940(2)
H1 H 0.0490 0.0747 0.5603
C2 C 0.1295(2) 0.0247(3) 0.6742(3)
H2 H 0.1030 -0.0444 0.6943
C3 C 0.2005(2) 0.0552(3) 0.7242(2)
H3 H 0.2227 0.0061 0.7777
C4 C 0.23880(17) 0.1581(3) 0.6952(2)
H4 H 0.2867 0.1792 0.7300
C5 C 0.20737(14) 0.2311(3) 0.61522(18)
H5 H 0.2341 0.3007 0.5961
C6 C 0.13534(14) 0.2002(2) 0.56306(17)
C7 C 0.10343(13) 0.2742(3) 0.47435(17)
C8 C 0.10083(13) 0.3976(3) 0.46143(16)
C9 C 0.12291(15) 0.4946(2) 0.54179(17)
C10 C 0.1358(2) 0.7270(3) 0.5333(3)
H6 H 0.1825 0.7512 0.5764
H7 H 0.0920 0.7349 0.5701
C11 C 0.1245(3) 0.8041(4) 0.4378(3)
H8 H 0.0955 0.8800 0.4469
H9 H 0.1738 0.8271 0.4177
C12 C 0.07652(17) 0.4684(3) 0.36542(18)
H10 H 0.0212 0.4827 0.3550
H11 H 0.0912 0.4238 0.3080
N1 N 0.14179(19) 0.6002(3) 0.4941(2)
C13 C 0.0802(4) 0.7201(5) 0.3613(4)
H12 H 0.0837 0.7483 0.2934
H13 H 0.0263 0.7140 0.3709
C14 C 0.1225(2) 0.5959(4) 0.3842(3)
H14 H 0.1697 0.5936 0.3524
H15? H 0.1165 0.7708 0.5881
H16? H 0.1897 0.7061 0.5528
H17? H 0.1676 0.8596 0.4322
H18? H 0.0767 0.8515 0.4303
H19? H 0.1169 0.4644 0.3227
H20? H 0.0301 0.4313 0.3295
N2? N 0.0853(6) 0.6040(9) 0.5006(7)
C15? C 0.1211(11) 0.679(2) 0.3569(11)
H21? H 0.1066 0.7060 0.2879
H22? H 0.1704 0.6363 0.3626
C16? C 0.0618(6) 0.6002(11) 0.3909(8)
H23? H 0.0088 0.6286 0.3692
loop_
_geom_bond_atom_site_label_1
_geom_bond_atom_site_label_2
_geom_bond_site_symmetry_1
_geom_bond_site_symmetry_2
Cl1 C7 1_555 1_555
O1 C9 1_555 1_555
C1 H1 1_555 1_555
C2 C1 1_555 1_555
H2 C2 1_555 1_555
C3 C2 1_555 1_555
H3 C3 1_555 1_555
C4 C3 1_555 1_555
H4 C4 1_555 1_555
C5 C4 1_555 1_555
H5 C5 1_555 1_555
C6 C1 1_555 1_555
C7 C6 1_555 1_555
C8 C7 1_555 1_555
C9 C8 1_555 1_555
C10 H6 1_555 1_555
H7 C10 1_555 1_555
C11 C10 1_555 1_555
H8 C11 1_555 1_555
H9 C11 1_555 1_555
C12 C8 1_555 1_555
H10 C12 1_555 1_555
H11 C12 1_555 1_555
N1 C9 1_555 1_555
C13 C11 1_555 1_555
H12 C13 1_555 1_555
H13 C13 1_555 1_555
C14 C12 1_555 1_555
H14 C14 1_555 1_555
C5 C6 1_555 1_555
C10 N1 1_555 1_555
N1 C14 1_555 1_555
C13 C14 1_555 1_555

#END
