
#######################################################################
#
#                 Cambridge Crystallographic Data Centre
#                                CCDC 
#
#######################################################################
#
# If this CIF has been generated from an entry in the Cambridge 
# Structural Database, then it will include bibliographic, chemical, 
# crystal, experimental, refinement or atomic coordinate data resulting 
# from the CCDC's data processing and validation procedures.
#
#######################################################################

data_LOTHUZ
_chemical_formula_moiety         
'C70 H24 F20 N6 S4,0.91(C6 H14),0.55(C1 H2 Cl2)'
_chemical_name_systematic        
"2,17-di(2,2'-bithiophen-5-yl)-7,12,22,27-tetrakis(pentafluorophenyl)-31,32,33,34,35,36-hexaazaheptacyclo[26.2.1.1^3,6^.1^8,11^.1^13,16^.1^18,21^.1^23,26^]hexatriaconta-1(31),2,4,6(36),7,9,11,13(34),14,16,18(33),19,21,23,25,27,29-heptadecaene n-hexane dichloromethane solvate"
_symmetry_cell_setting           triclinic
_symmetry_space_group_name_H-M   'P -1'
_symmetry_Int_Tables_number      2
_space_group_name_Hall           '-P 1'
loop_
_symmetry_equiv_pos_site_id
_symmetry_equiv_pos_as_xyz
1 x,y,z
2 -x,-y,-z
_cell_length_a                   18.9073(16)
_cell_length_b                   20.7452(6)
_cell_length_c                   21.091(2)
_cell_angle_alpha                67.38(2)
_cell_angle_beta                 77.21(2)
_cell_angle_gamma                65.257(13)
_cell_volume                     6917.2
_exptl_crystal_colour            black
_exptl_crystal_description       prism
_cell_formula_units_Z            4
loop_
_atom_site_label
_atom_site_type_symbol
_atom_site_fract_x
_atom_site_fract_y
_atom_site_fract_z
C1 C 0.9917(11) 0.4924(5) 0.3279(6)
C2 C 0.9745(10) 0.4776(6) 0.3985(7)
C3 C 0.9801(7) 0.4056(6) 0.4413(4)
C4 C 1.0028(6) 0.3484(5) 0.4136(4)
C5 C 1.0199(7) 0.3632(5) 0.3430(4)
C6 C 1.0144(9) 0.4352(6) 0.3002(4)
F1 F 0.9551(10) 0.5312(7) 0.4218(7)
F2 F 0.9637(4) 0.3939(3) 0.5083(4)
F3 F 1.0081(5) 0.2804(4) 0.4552(4)
F4 F 1.0421(5) 0.3084(4) 0.3166(4)
F5 F 1.0351(10) 0.4460(7) 0.2316(8)
C7 C 0.7140(10) 1.2267(7) -0.0013(12)
C8 C 0.7698(7) 1.2595(10) -0.0253(12)
C9 C 0.7518(6) 1.3316(9) -0.0248(9)
C10 C 0.6779(6) 1.3708(6) -0.0004(6)
C11 C 0.6221(6) 1.3380(6) 0.0236(5)
C12 C 0.6401(8) 1.2660(6) 0.0231(8)
F6 F 0.5883(14) 1.2330(11) 0.0501(12)
F7 F 0.5546(5) 1.3735(4) 0.0499(4)
F8 F 0.6598(5) 1.4410(4) -0.0024(4)
F9 F 0.8046(6) 1.3651(9) -0.0520(8)
F10 F 0.8371(10) 1.2259(9) -0.0504(9)
F11 F 0.53277(11) 0.91780(13) -0.00055(10)
F12 F 0.44091(13) 0.91752(16) -0.08097(11)
F13 F 0.45306(13) 0.98546(17) -0.22029(12)
F14 F 0.55734(13) 1.05351(16) -0.27789(11)
F15 F 0.65464(12) 1.04900(13) -0.19920(10)
F16 F 1.15523(11) 0.71734(12) 0.37769(11)
F17 F 1.29108(12) 0.68593(13) 0.42453(11)
F18 F 1.42590(10) 0.66196(10) 0.33896(10)
F19 F 1.42107(10) 0.67405(11) 0.20890(10)
F20 F 1.28489(11) 0.70454(11) 0.16143(10)
S1 S 0.73253(4) 0.94946(4) 0.15089(4)
S2 S 0.75350(7) 1.05879(5) 0.28280(6)
S3 S 0.88790(5) 0.90938(5) -0.03242(4)
S4 S 0.90198(9) 0.74124(8) -0.11577(7)
C13 C 0.92648(19) 0.61857(18) 0.23685(17)
C14 C 0.8670(2) 0.60024(19) 0.22278(18)
H1 H 0.8638 0.5520 0.2384
C15 C 0.8171(2) 0.66484(19) 0.18315(17)
H2 H 0.7720 0.6710 0.1651
C16 C 0.84589(19) 0.72383(18) 0.17328(16)
C17 C 0.80405(18) 0.80441(18) 0.14033(17)
C18 C 0.76229(19) 0.82849(19) 0.08273(17)
C19 C 0.7576(2) 0.7848(2) 0.04434(17)
H3 H 0.7818 0.7319 0.0541
C20 C 0.7116(2) 0.8352(2) -0.00803(18)
H4 H 0.6959 0.8243 -0.0413
C21 C 0.69114(18) 0.9089(2) -0.00347(17)
C22 C 0.64940(19) 0.9804(2) -0.05143(17)
C23 C 0.65435(18) 1.0472(2) -0.05522(17)
C24 C 0.60739(19) 1.1244(2) -0.08990(17)
H5 H 0.5672 1.1408 -0.1191
C25 C 0.63039(19) 1.1698(2) -0.07364(18)
H6 H 0.6083 1.2232 -0.0885
C26 C 0.69454(19) 1.12228(19) -0.02974(17)
C27 C 0.73809(19) 1.14191(19) 0.00004(17)
C28 C 0.80802(18) 1.08809(18) 0.03304(17)
C29 C 0.84776(19) 1.09749(19) 0.07878(17)
H7 H 0.8336 1.1410 0.0912
C30 C 0.90873(18) 1.03199(18) 0.09996(17)
H8 H 0.9457 1.0201 0.1307
C31 C 0.90669(18) 0.98304(17) 0.06640(16)
C32 C 0.95516(18) 0.90817(17) 0.07385(16)
C33 C 1.01894(18) 0.87266(17) 0.11963(17)
C34 C 1.07174(18) 0.90818(18) 0.11934(17)
H9 H 1.0685 0.9580 0.0929
C35 C 1.12574(18) 0.85614(18) 0.16403(18)
H10 H 1.1688 0.8617 0.1745
C36 C 1.10511(18) 0.79009(18) 0.19287(18)
C37 C 1.14187(18) 0.72338(18) 0.24269(18)
C38 C 1.11741(18) 0.66136(17) 0.27142(18)
C39 C 1.15176(19) 0.59099(18) 0.32215(19)
H11 H 1.1972 0.5756 0.3448
C40 C 1.1074(2) 0.54916(18) 0.3325(2)
H12 H 1.1167 0.4996 0.3637
C41 C 1.04553(19) 0.59261(17) 0.28856(18)
C42 C 0.98698(19) 0.57185(18) 0.27916(19)
C43 C 0.80084(18) 0.85726(17) 0.17138(16)
C44 C 0.84379(19) 0.84361(17) 0.22365(17)
H13 H 0.8840 0.7966 0.2425
C45 C 0.82312(19) 0.90453(18) 0.24632(17)
H14 H 0.8479 0.9032 0.2816
C46 C 0.76286(18) 0.96697(18) 0.21209(16)
C47 C 0.72566(18) 1.03979(18) 0.22133(17)
C48 C 0.6684(2) 1.1025(2) 0.18465(19)
H15 H 0.6454 1.1038 0.1482
C49 C 0.6469(2) 1.1649(2) 0.2065(2)
H16 H 0.6079 1.2124 0.1865
C50 C 0.6877(3) 1.1499(2) 0.2589(2)
H17 H 0.6808 1.1855 0.2799
C51 C 0.59752(19) 0.9831(2) -0.09646(18)
C52 C 0.5419(2) 0.9500(2) -0.06907(18)
C53 C 0.4928(2) 0.9512(3) -0.10970(19)
C54 C 0.4990(2) 0.9852(3) -0.17996(19)
C55 C 0.5525(2) 1.0194(3) -0.20916(18)
C56 C 0.6012(2) 1.0177(2) -0.16817(18)
C57 C 0.94659(18) 0.86633(18) 0.03665(17)
C58 C 0.9856(2) 0.79009(19) 0.04521(19)
H18 H 1.0210 0.7564 0.0799
C59 C 0.9677(2) 0.7679(2) -0.0023(2)
H19 H 0.9893 0.7176 -0.0026
C60 C 0.9157(2) 0.8261(2) -0.04832(18)
C61 C 0.8821(2) 0.8250(2) -0.1031(2)
C62 C 0.8297(2) 0.8839(2) -0.14918(19)
H20 H 0.8111 0.9346 -0.1507
C63 C 0.8065(3) 0.8611(3) -0.1936(3)
H21 H 0.7709 0.8946 -0.2282
C64 C 0.8406(4) 0.7862(4) -0.1815(3)
H22 H 0.8317 0.7611 -0.2066
C65 C 1.21555(18) 0.71256(16) 0.26773(17)
C66 C 1.28427(19) 0.70237(17) 0.22578(17)
C67 C 1.35461(18) 0.68656(17) 0.24958(17)
C68 C 1.35693(18) 0.68114(17) 0.31572(17)
C69 C 1.2896(2) 0.69198(18) 0.35892(18)
C70 C 1.21979(18) 0.70780(18) 0.33428(18)
N1 N 0.91154(16) 0.69524(15) 0.20440(14)
N2 N 0.72148(15) 0.90328(16) 0.05155(14)
N3 N 0.70645(15) 1.05023(16) -0.02159(14)
H23 H 0.7432 1.0104 0.0024
N4 N 0.84430(15) 1.01961(14) 0.02625(13)
N5 N 1.03916(15) 0.80261(14) 0.16345(14)
N6 N 1.05317(15) 0.66047(14) 0.25282(15)
H24 H 1.0214 0.6980 0.2224
F31 F 0.39354(11) 0.68242(10) 0.72440(10)
F32 F 0.33343(15) 0.61713(13) 0.84802(13)
F33 F 0.4185(2) 0.47442(14) 0.92720(12)
F34 F 0.56486(18) 0.40168(12) 0.88222(12)
F35 F 0.62583(12) 0.46499(11) 0.75883(11)
F36 F 0.57867(14) 0.56063(14) 0.38049(14)
F37 F 0.61153(15) 0.46119(19) 0.31410(17)
F38 F 0.74460(17) 0.33717(18) 0.33509(19)
F39 F 0.85093(19) 0.31686(18) 0.4160(2)
F40 F 0.82155(17) 0.41764(16) 0.47866(18)
F41 F 1.06151(12) 0.82901(13) 0.47052(11)
F42 F 1.19636(13) 0.84900(15) 0.41374(14)
F43 F 1.20742(13) 0.93480(14) 0.27917(14)
F44 F 1.08136(15) 1.00178(14) 0.20294(11)
F45 F 0.94745(13) 0.98006(14) 0.25924(11)
F46 F 0.68656(11) 1.05341(10) 0.63707(10)
F47 F 0.63013(13) 1.18871(11) 0.65570(10)
F48 F 0.57200(12) 1.31789(10) 0.54642(11)
F49 F 0.58076(12) 1.30967(10) 0.42179(11)
F50 F 0.62703(13) 1.17435(11) 0.40449(11)
S5 S 0.57982(4) 0.77950(4) 0.44314(4)
S6 S 0.75431(5) 0.63511(4) 0.60685(4)
S7 S 0.72484(19) 0.65187(14) 0.81109(7)
S8 S 0.6222(3) 0.8268(3) 0.2207(2)
C83 C 0.5664(15) 0.7361(14) 0.3127(14)
H25 H 0.5484 0.7075 0.3554
C84 C 0.63957(17) 0.99308(16) 0.53216(17)
C85 C 0.56418(17) 1.00887(17) 0.57137(17)
H26 H 0.5364 1.0507 0.5871
C86 C 0.54173(18) 0.95154(17) 0.58081(17)
H27 H 0.4955 0.9445 0.6055
C87 C 0.60296(17) 0.90253(16) 0.54545(16)
C88 C 0.59664(16) 0.83824(16) 0.53595(16)
C89 C 0.57227(17) 0.78703(16) 0.59283(17)
C90 C 0.55648(19) 0.78492(18) 0.66440(18)
H28 H 0.5566 0.8209 0.6818
C91 C 0.54166(19) 0.72180(18) 0.70101(17)
H29 H 0.5283 0.7051 0.7491
C92 C 0.55013(17) 0.68439(16) 0.65216(17)
C93 C 0.54621(18) 0.61247(17) 0.66790(17)
C94 C 0.57364(18) 0.57352(17) 0.62080(17)
C95 C 0.56134(19) 0.50911(17) 0.62080(18)
H30 H 0.5329 0.4823 0.6558
C96 C 0.59738(19) 0.49364(18) 0.56245(19)
H31 H 0.5967 0.4554 0.5486
C97 C 0.63705(18) 0.54513(18) 0.52487(18)
C98 C 0.68703(19) 0.54815(19) 0.46583(19)
C99 C 0.73113(18) 0.59574(18) 0.44276(18)
C100 C 0.7668(2) 0.6211(2) 0.37372(19)
H32 H 0.7679 0.6071 0.3355
C101 C 0.79818(19) 0.66859(19) 0.37495(18)
H33 H 0.8242 0.6956 0.3373
C102 C 0.78419(18) 0.67018(17) 0.44550(17)
C103 C 0.80525(17) 0.70959(16) 0.47403(17)
C104 C 0.85430(17) 0.75266(17) 0.43266(16)
C105 C 0.92395(18) 0.72563(17) 0.38868(17)
H34 H 0.9399 0.6825 0.3752
C106 C 0.96062(18) 0.77385(18) 0.37120(17)
H35 H 1.0086 0.7707 0.3442
C107 C 0.91244(17) 0.83175(17) 0.40170(16)
C108 C 0.92478(17) 0.89364(17) 0.39882(16)
C109 C 0.87118(18) 0.95134(18) 0.42561(17)
C110 C 0.87877(19) 1.01678(19) 0.42302(19)
H36 H 0.9229 1.0306 0.4040
C111 C 0.81080(19) 1.05761(19) 0.45304(19)
H37 H 0.7998 1.1044 0.4583
C112 C 0.76096(18) 1.01716(17) 0.47432(17)
C113 C 0.68508(18) 1.03617(17) 0.50985(17)
C114 C 0.61252(16) 0.83366(16) 0.46724(16)
C115 C 0.64647(18) 0.87458(17) 0.40958(17)
H38 H 0.6680 0.9077 0.4114
C116 C 0.64625(18) 0.86279(18) 0.34857(17)
H39 H 0.6681 0.8866 0.3054
C117 C 0.61131(17) 0.81335(17) 0.35735(17)
C118 C 0.59906(18) 0.79005(18) 0.30569(18)
C119 C 0.5643(2) 0.7306(3) 0.2471(2)
H40 H 0.5452 0.6982 0.2404
C120 C 0.5936(2) 0.7783(3) 0.1972(2)
H41 H 0.5970 0.7828 0.1502
C121 C 0.5120(2) 0.57702(17) 0.73622(17)
C122 C 0.4379(2) 0.61337(18) 0.76241(18)
C123 C 0.4059(2) 0.5800(2) 0.8260(2)
C124 C 0.4484(3) 0.5083(2) 0.8660(2)
C125 C 0.5222(3) 0.47082(19) 0.84228(19)
C126 C 0.5530(2) 0.50448(19) 0.77871(19)
C127 C 0.7002(2) 0.4942(2) 0.4295(2)
C128 C 0.6475(2) 0.5026(2) 0.3884(2)
C129 C 0.6629(2) 0.4504(3) 0.3564(2)
C130 C 0.7309(3) 0.3876(3) 0.3653(3)
C131 C 0.7840(3) 0.3779(3) 0.4067(3)
C132 C 0.7683(2) 0.4303(2) 0.4378(2)
C133 C 0.78698(17) 0.70416(17) 0.54599(17)
C134 C 0.7970(2) 0.7456(2) 0.57943(18)
H42 H 0.8140 0.7864 0.5557
C135 C 0.7799(2) 0.7223(2) 0.65091(19)
H43 H 0.7836 0.7459 0.6801
C136 C 0.7572(2) 0.66175(19) 0.67429(18)
C137 C 0.7353(2) 0.6214(2) 0.74398(19)
C138 C 0.7158(3) 0.5599(2) 0.7669(2)
H44 H 0.7170 0.5345 0.7374
C139 C 0.6937(3) 0.5367(3) 0.8376(2)
H45 H 0.6789 0.4944 0.8607
C140 C 0.6960(6) 0.5801(5) 0.8677(3)
H46 H 0.6832 0.5729 0.9155
C141 C 1.00091(18) 0.90294(17) 0.36637(17)
C142 C 1.0083(2) 0.9466(2) 0.29834(18)
C143 C 1.0771(2) 0.9579(2) 0.26853(18)
C144 C 1.1407(2) 0.9243(2) 0.3074(2)
C145 C 1.1349(2) 0.8811(2) 0.3753(2)
C146 C 1.06522(19) 0.87102(19) 0.40430(18)
C147 C 0.65477(17) 1.11008(17) 0.52143(17)
C148 C 0.62808(18) 1.17675(18) 0.46711(17)
C149 C 0.60285(18) 1.24583(17) 0.47514(17)
C150 C 0.60092(18) 1.24989(17) 0.53887(18)
C151 C 0.62823(19) 1.18494(18) 0.59431(17)
C152 C 0.65595(18) 1.11588(17) 0.58412(17)
N7 N 0.66065(14) 0.92705(14) 0.51733(14)
N8 N 0.56726(15) 0.72502(14) 0.58787(14)
N9 N 0.61842(15) 0.59278(15) 0.56174(14)
H47 H 0.6335 0.6310 0.5489
N10 N 0.74223(15) 0.62569(14) 0.48470(14)
N11 N 0.84719(14) 0.81652(14) 0.43861(14)
N12 N 0.79901(14) 0.95309(14) 0.45696(14)
H48 H 0.7800 0.9184 0.4647
C154 C 0.0863(7) 0.5480(7) 0.0796(6)
H50 H 0.1272 0.5219 0.1122
H51 H 0.0375 0.5754 0.1013
H52 H 0.1022 0.5835 0.0385
C155 C 0.0732(7) 0.4865(7) 0.0573(6)
H53 H 0.1220 0.4591 0.0346
H54 H 0.0586 0.4496 0.0987
C156 C 0.0117(7) 0.5263(6) 0.0107(5)
H55 H 0.0286 0.5609 -0.0314
H56 H -0.0350 0.5572 0.0327
C154A C -0.0863(7) 0.4520(7) -0.0796(6)
H50A H -0.1272 0.4781 -0.1122
H51A H -0.0375 0.4246 -0.1013
H52A H -0.1022 0.4165 -0.0385
C155A C -0.0732(7) 0.5135(7) -0.0573(6)
H53A H -0.1220 0.5409 -0.0346
H54A H -0.0586 0.5504 -0.0987
C156A C -0.0117(7) 0.4737(6) -0.0107(5)
H55A H -0.0286 0.4391 0.0314
H56A H 0.0350 0.4428 -0.0327
C157 C 0.9059(8) 0.1800(7) 0.1785(7)
H57 H 0.9554 0.1626 0.1510
H58 H 0.8810 0.1427 0.1915
Cl1 Cl 0.9261(7) 0.1855(6) 0.2534(5)
Cl2 Cl 0.8493(3) 0.2600(2) 0.1325(3)
C158 C 1.0848(9) 0.1259(7) 0.3791(7)
H59 H 1.0660 0.1562 0.3325
H60 H 1.0543 0.1564 0.4093
Cl3 Cl 1.1728(2) 0.11919(18) 0.37437(15)
Cl4 Cl 1.0589(3) 0.0515(2) 0.4060(3)
C169 C 0.6672(12) 0.5983(13) 0.1384(11)
H84 H 0.6776 0.6153 0.1720
H85 H 0.6413 0.5623 0.1663
C170 C 0.5926(7) 0.6743(6) 0.0971(6)
H86 H 0.5464 0.6597 0.1132
H87 H 0.5839 0.7130 0.1175
C171 C 0.5853(7) 0.7149(8) 0.0234(8)
H88 H 0.5345 0.7566 0.0162
H89 H 0.5893 0.6807 0.0001
H90 H 0.6271 0.7348 0.0045
C172 C 0.7521(6) 0.5442(5) 0.1193(6)
H91 H 0.7502 0.5213 0.0867
H92 H 0.7883 0.5716 0.0993
C173 C 0.7753(5) 0.4869(5) 0.1875(5)
H93 H 0.7397 0.4589 0.2027
H94 H 0.7649 0.5141 0.2202
C174 C 0.8658(5) 0.4237(5) 0.1964(6)
H95 H 0.8707 0.3897 0.2441
H96 H 0.9025 0.4495 0.1848
H97 H 0.8777 0.3948 0.1654
C175 C 0.6468(8) 0.8258(8) -0.1829(8)
H100 H 0.6942 0.7794 -0.1727
H101 H 0.6462 0.8565 -0.1566
Cl7 Cl 0.5627(3) 0.8016(3) -0.1564(3)
Cl8 Cl 0.6502(3) 0.8762(3) -0.2712(3)
C71? C 0.9949(18) 0.4929(8) 0.3101(12)
C72? C 0.9846(16) 0.4675(11) 0.3816(12)
C73? C 0.9960(12) 0.3923(12) 0.4169(8)
C74? C 1.0177(10) 0.3425(8) 0.3808(9)
C75? C 1.0280(11) 0.3678(10) 0.3093(9)
C76? C 1.0166(15) 0.4430(11) 0.2740(8)
F21? F 0.9605(18) 0.5095(12) 0.4268(15)
F22? F 0.9849(7) 0.3629(6) 0.4875(7)
F23? F 1.0279(7) 0.2669(6) 0.4164(8)
F24? F 1.0514(8) 0.3177(7) 0.2740(8)
F25? F 1.0276(18) 0.4657(11) 0.2102(15)
C77? C 0.7094(10) 1.2170(6) 0.0003(11)
C78? C 0.7555(7) 1.2603(9) -0.0234(11)
C79? C 0.7251(6) 1.3331(8) -0.0211(9)
C80? C 0.6486(6) 1.3627(5) 0.0048(7)
C81? C 0.6025(6) 1.3194(7) 0.0285(6)
C82? C 0.6329(10) 1.2466(6) 0.0263(9)
F26? F 0.8309(8) 1.2304(5) -0.0502(5)
F27? F 0.7720(7) 1.3707(9) -0.0421(8)
F28? F 0.6210(6) 1.4338(5) 0.0048(5)
F29? F 0.5280(5) 1.3536(5) 0.0528(5)
F30? F 0.5806(15) 1.2145(11) 0.0487(14)
C153? C 0.621(2) 0.822(2) 0.2346(15)
H49? H 0.6443 0.8584 0.2139
S9? S 0.5616(6) 0.7266(6) 0.3243(6)
C159? C 0.8486(13) 0.2236(16) 0.1657(13)
H61? H 0.8552 0.2490 0.1161
H62? H 0.8109 0.2601 0.1874
H63? H 0.8295 0.1838 0.1735
C160? C 0.9124(10) 0.1957(12) 0.1912(8)
H64? H 0.9279 0.2397 0.1767
H65? H 0.9468 0.1654 0.1619
C161? C 0.9421(9) 0.1565(7) 0.2504(7)
H66? H 0.8937 0.1630 0.2814
H67? H 0.9583 0.1051 0.2489
C162? C 0.9881(7) 0.1452(8) 0.2892(5)
H68? H 1.0216 0.1710 0.2558
H69? H 1.0190 0.0912 0.2962
C163? C 1.0011(8) 0.1490(6) 0.3455(6)
H70? H 0.9544 0.1478 0.3776
H71? H 1.0025 0.1995 0.3337
C164? C 1.0634(8) 0.0998(8) 0.3820(8)
H72? H 1.0625 0.1146 0.4212
H73? H 1.1115 0.0996 0.3525
H74? H 1.0617 0.0493 0.3990
C165? C 0.5785(13) 0.8055(13) -0.1815(8)
H75? H 0.5815 0.7633 -0.1945
H76? H 0.5231 0.8401 -0.1816
Cl5? Cl 0.6349(5) 0.8545(5) -0.2447(5)
Cl6? Cl 0.6085(4) 0.7703(4) -0.0988(3)
C166? C 0.7051(6) 0.6690(5) -0.0171(5)
H77? H 0.6798 0.7030 -0.0599
H78? H 0.7376 0.6197 -0.0221
H79? H 0.7378 0.6898 -0.0074
C167? C 0.6445(8) 0.6604(9) 0.0406(7)
H80? H 0.6098 0.6427 0.0284
H81? H 0.6122 0.7107 0.0447
C168? C 0.6736(8) 0.6081(7) 0.1095(7)
H82? H 0.6341 0.5854 0.1337
H83? H 0.6722 0.6399 0.1351
H98? H 0.7570 0.5167 0.0883
H99? H 0.7921 0.5674 0.1018
loop_
_geom_bond_atom_site_label_1
_geom_bond_atom_site_label_2
_geom_bond_site_symmetry_1
_geom_bond_site_symmetry_2
C1 C2 1_555 1_555
C2 C3 1_555 1_555
C3 C4 1_555 1_555
C4 C5 1_555 1_555
C5 C6 1_555 1_555
C6 C1 1_555 1_555
F1 C2 1_555 1_555
F2 C3 1_555 1_555
F3 C4 1_555 1_555
F4 C5 1_555 1_555
F5 C6 1_555 1_555
C7 C8 1_555 1_555
C8 C9 1_555 1_555
C9 C10 1_555 1_555
C10 C11 1_555 1_555
C11 C12 1_555 1_555
C12 C7 1_555 1_555
F6 C12 1_555 1_555
F7 C11 1_555 1_555
F8 C10 1_555 1_555
F9 C9 1_555 1_555
F10 C8 1_555 1_555
F11 C52 1_555 1_555
F12 C53 1_555 1_555
F13 C54 1_555 1_555
F14 C55 1_555 1_555
F15 C56 1_555 1_555
F16 C70 1_555 1_555
F17 C69 1_555 1_555
F18 C68 1_555 1_555
F19 C67 1_555 1_555
F20 C66 1_555 1_555
S1 C43 1_555 1_555
S2 C47 1_555 1_555
S3 C57 1_555 1_555
S4 C61 1_555 1_555
C13 C14 1_555 1_555
C14 H1 1_555 1_555
C15 C14 1_555 1_555
H2 C15 1_555 1_555
C16 C15 1_555 1_555
C17 C16 1_555 1_555
C18 C17 1_555 1_555
C19 C18 1_555 1_555
H3 C19 1_555 1_555
C20 C19 1_555 1_555
H4 C20 1_555 1_555
C21 C20 1_555 1_555
C22 C21 1_555 1_555
C23 C22 1_555 1_555
C24 C23 1_555 1_555
H5 C24 1_555 1_555
C25 C24 1_555 1_555
H6 C25 1_555 1_555
C26 C25 1_555 1_555
C27 C7 1_555 1_555
C28 C27 1_555 1_555
C29 C28 1_555 1_555
H7 C29 1_555 1_555
C30 C29 1_555 1_555
H8 C30 1_555 1_555
C31 C30 1_555 1_555
C32 C31 1_555 1_555
C33 C32 1_555 1_555
C34 C33 1_555 1_555
H9 C34 1_555 1_555
C35 C34 1_555 1_555
H10 C35 1_555 1_555
C36 C35 1_555 1_555
C37 C36 1_555 1_555
C38 C37 1_555 1_555
C39 C38 1_555 1_555
H11 C39 1_555 1_555
C40 C39 1_555 1_555
H12 C40 1_555 1_555
C41 C40 1_555 1_555
C42 C1 1_555 1_555
C43 C17 1_555 1_555
C44 C43 1_555 1_555
H13 C44 1_555 1_555
C45 C44 1_555 1_555
H14 C45 1_555 1_555
C46 S1 1_555 1_555
C47 C46 1_555 1_555
C48 C47 1_555 1_555
H15 C48 1_555 1_555
C49 C48 1_555 1_555
H16 C49 1_555 1_555
C50 S2 1_555 1_555
H17 C50 1_555 1_555
C51 C22 1_555 1_555
C52 C51 1_555 1_555
C53 C52 1_555 1_555
C54 C53 1_555 1_555
C55 C54 1_555 1_555
C56 C51 1_555 1_555
C57 C32 1_555 1_555
C58 C57 1_555 1_555
H18 C58 1_555 1_555
C59 C58 1_555 1_555
H19 C59 1_555 1_555
C60 S3 1_555 1_555
C61 C60 1_555 1_555
C62 C61 1_555 1_555
H20 C62 1_555 1_555
C63 C62 1_555 1_555
H21 C63 1_555 1_555
C64 S4 1_555 1_555
H22 C64 1_555 1_555
C65 C37 1_555 1_555
C66 C65 1_555 1_555
C67 C66 1_555 1_555
C68 C67 1_555 1_555
C69 C68 1_555 1_555
C70 C65 1_555 1_555
N1 C13 1_555 1_555
N2 C18 1_555 1_555
N3 C23 1_555 1_555
H23 N3 1_555 1_555
N4 C28 1_555 1_555
N5 C33 1_555 1_555
N6 C38 1_555 1_555
H24 N6 1_555 1_555
F31 C122 1_555 1_555
F32 C123 1_555 1_555
F33 C124 1_555 1_555
F34 C125 1_555 1_555
F35 C126 1_555 1_555
F36 C128 1_555 1_555
F37 C129 1_555 1_555
F38 C130 1_555 1_555
F39 C131 1_555 1_555
F40 C132 1_555 1_555
F41 C146 1_555 1_555
F42 C145 1_555 1_555
F43 C144 1_555 1_555
F44 C143 1_555 1_555
F45 C142 1_555 1_555
F46 C152 1_555 1_555
F47 C151 1_555 1_555
F48 C150 1_555 1_555
F49 C149 1_555 1_555
F50 C148 1_555 1_555
S5 C114 1_555 1_555
S6 C133 1_555 1_555
S7 C137 1_555 1_555
S8 C118 1_555 1_555
C83 H25 1_555 1_555
C84 C85 1_555 1_555
C85 H26 1_555 1_555
C86 C85 1_555 1_555
H27 C86 1_555 1_555
C87 C86 1_555 1_555
C88 C87 1_555 1_555
C89 C88 1_555 1_555
C90 C89 1_555 1_555
H28 C90 1_555 1_555
C91 C90 1_555 1_555
H29 C91 1_555 1_555
C92 C91 1_555 1_555
C93 C92 1_555 1_555
C94 C93 1_555 1_555
C95 C94 1_555 1_555
H30 C95 1_555 1_555
C96 C95 1_555 1_555
H31 C96 1_555 1_555
C97 C96 1_555 1_555
C98 C97 1_555 1_555
C99 C98 1_555 1_555
C100 C99 1_555 1_555
H32 C100 1_555 1_555
C101 C100 1_555 1_555
H33 C101 1_555 1_555
C102 C101 1_555 1_555
C103 C102 1_555 1_555
C104 C103 1_555 1_555
C105 C104 1_555 1_555
H34 C105 1_555 1_555
C106 C105 1_555 1_555
H35 C106 1_555 1_555
C107 C106 1_555 1_555
C108 C107 1_555 1_555
C109 C108 1_555 1_555
C110 C109 1_555 1_555
H36 C110 1_555 1_555
C111 C110 1_555 1_555
H37 C111 1_555 1_555
C112 C111 1_555 1_555
C113 C84 1_555 1_555
C114 C88 1_555 1_555
C115 C114 1_555 1_555
H38 C115 1_555 1_555
C116 C115 1_555 1_555
H39 C116 1_555 1_555
C117 S5 1_555 1_555
C118 C83 1_555 1_555
C119 C83 1_555 1_555
H40 C119 1_555 1_555
C120 S8 1_555 1_555
H41 C120 1_555 1_555
C121 C93 1_555 1_555
C122 C121 1_555 1_555
C123 C122 1_555 1_555
C124 C123 1_555 1_555
C125 C124 1_555 1_555
C126 C121 1_555 1_555
C127 C98 1_555 1_555
C128 C127 1_555 1_555
C129 C128 1_555 1_555
C130 C129 1_555 1_555
C131 C130 1_555 1_555
C132 C127 1_555 1_555
C133 C103 1_555 1_555
C134 C133 1_555 1_555
H42 C134 1_555 1_555
C135 C134 1_555 1_555
H43 C135 1_555 1_555
C136 S6 1_555 1_555
C137 C136 1_555 1_555
C138 C137 1_555 1_555
H44 C138 1_555 1_555
C139 C138 1_555 1_555
H45 C139 1_555 1_555
C140 S7 1_555 1_555
H46 C140 1_555 1_555
C141 C108 1_555 1_555
C142 C141 1_555 1_555
C143 C142 1_555 1_555
C144 C143 1_555 1_555
C145 C144 1_555 1_555
C146 C141 1_555 1_555
C147 C113 1_555 1_555
C148 C147 1_555 1_555
C149 C148 1_555 1_555
C150 C149 1_555 1_555
C151 C150 1_555 1_555
C152 C147 1_555 1_555
N7 C84 1_555 1_555
N8 C89 1_555 1_555
N9 C94 1_555 1_555
H47 N9 1_555 1_555
N10 C99 1_555 1_555
N11 C104 1_555 1_555
N12 C109 1_555 1_555
H48 N12 1_555 1_555
C154 H50 1_555 1_555
H51 C154 1_555 1_555
H52 C154 1_555 1_555
C155 C154 1_555 1_555
H53 C155 1_555 1_555
H54 C155 1_555 1_555
C156 C155 1_555 1_555
H55 C156 1_555 1_555
H56 C156 1_555 1_555
C157 H57 1_555 1_555
H58 C157 1_555 1_555
Cl1 C157 1_555 1_555
Cl2 C157 1_555 1_555
C158 H59 1_555 1_555
H60 C158 1_555 1_555
Cl3 C158 1_555 1_555
Cl4 C158 1_555 1_555
C169 H84 1_555 1_555
H85 C169 1_555 1_555
C170 C169 1_555 1_555
H86 C170 1_555 1_555
H87 C170 1_555 1_555
C171 C170 1_555 1_555
H88 C171 1_555 1_555
H89 C171 1_555 1_555
H90 C171 1_555 1_555
C172 C169 1_555 1_555
H91 C172 1_555 1_555
H92 C172 1_555 1_555
C173 C172 1_555 1_555
H93 C173 1_555 1_555
H94 C173 1_555 1_555
C174 C173 1_555 1_555
H95 C174 1_555 1_555
H96 C174 1_555 1_555
H97 C174 1_555 1_555
C175 H100 1_555 1_555
H101 C175 1_555 1_555
Cl7 C175 1_555 1_555
Cl8 C175 1_555 1_555
C154A H50A 1_555 1_555
H51A C154A 1_555 1_555
H52A C154A 1_555 1_555
C155A C154A 1_555 1_555
H53A C155A 1_555 1_555
H54A C155A 1_555 1_555
C156A C156 1_555 1_555
H55A C156A 1_555 1_555
H56A C156A 1_555 1_555
C13 C42 1_555 1_555
C16 N1 1_555 1_555
C21 N2 1_555 1_555
C26 C27 1_555 1_555
C26 N3 1_555 1_555
C31 N4 1_555 1_555
C36 N5 1_555 1_555
C41 C42 1_555 1_555
C41 N6 1_555 1_555
C45 C46 1_555 1_555
C49 C50 1_555 1_555
C55 C56 1_555 1_555
C59 C60 1_555 1_555
C63 C64 1_555 1_555
C69 C70 1_555 1_555
C87 N7 1_555 1_555
C92 N8 1_555 1_555
C97 N9 1_555 1_555
C102 N10 1_555 1_555
C107 N11 1_555 1_555
C112 C113 1_555 1_555
C112 N12 1_555 1_555
C116 C117 1_555 1_555
C117 C118 1_555 1_555
C119 C120 1_555 1_555
C125 C126 1_555 1_555
C131 C132 1_555 1_555
C135 C136 1_555 1_555
C139 C140 1_555 1_555
C145 C146 1_555 1_555
C151 C152 1_555 1_555
C155A C156A 1_555 1_555

#END
