
#######################################################################
#
#                 Cambridge Crystallographic Data Centre
#                                CCDC 
#
#######################################################################
#
# If this CIF has been generated from an entry in the Cambridge 
# Structural Database, then it will include bibliographic, chemical, 
# crystal, experimental, refinement or atomic coordinate data resulting 
# from the CCDC's data processing and validation procedures.
#
#######################################################################

data_LOTJEL
_chemical_formula_moiety         
'C86 H32 F20 N6 S8,1.22(C7 H16),0.77(C1 H1 Cl3),0.5(H2 O1)'
_chemical_name_systematic        
"7,12,22,27-tetrakis(pentafluorophenyl)-2,17-di(2,2':5',2'':5'',2'''-quaterthiophen-5-yl)-31,32,33,34,35,36-hexaazaheptacyclo[26.2.1.1^3,6^.1^8,11^.1^13,16^.1^18,21^.1^23,26^]hexatriaconta-1(31),2,4,6(36),7,9,11,13(34),14,16,18(33),19,21,23,25,27,29-heptadecaene n-heptane chloroform solvate hemihydrate"
_symmetry_cell_setting           triclinic
_symmetry_space_group_name_H-M   'P -1'
_symmetry_Int_Tables_number      2
_space_group_name_Hall           '-P 1'
loop_
_symmetry_equiv_pos_site_id
_symmetry_equiv_pos_as_xyz
1 x,y,z
2 -x,-y,-z
_cell_length_a                   17.2734(8)
_cell_length_b                   18.9028(5)
_cell_length_c                   30.1289(17)
_cell_angle_alpha                105.000(14)
_cell_angle_beta                 92.92(2)
_cell_angle_gamma                107.23(3)
_cell_volume                     8988.68
_exptl_crystal_colour            brown
_exptl_crystal_description       Prism
_cell_formula_units_Z            4
loop_
_atom_site_label
_atom_site_type_symbol
_atom_site_fract_x
_atom_site_fract_y
_atom_site_fract_z
S1 S 0.16650(7) -0.08158(5) 0.36198(4)
S2 S -0.03704(8) -0.05410(6) 0.43689(4)
S3 S -0.21180(8) -0.07320(7) 0.47306(4)
S4 S 0.18265(7) -0.08390(5) 0.21127(4)
S5 S 0.27377(7) -0.17947(5) 0.14078(4)
S6 S 0.26950(7) -0.32795(6) 0.05000(4)
S7 S 0.19723(16) -0.47878(12) -0.04288(6)
N1 N 0.3412(2) 0.16280(17) 0.35783(11)
N2 N 0.2754(2) -0.11397(18) 0.30432(14)
N3 N 0.1352(2) -0.23558(18) 0.26212(14)
H1 H 0.1481 -0.1849 0.2696
N4 N 0.0567(2) -0.13110(19) 0.26072(14)
N5 N 0.1394(2) 0.14705(17) 0.30033(12)
N6 N 0.2697(2) 0.27330(17) 0.34971(11)
H2 H 0.2562 0.2226 0.3415
F1 F 0.23486(17) -0.34722(13) 0.16185(9)
F2 F 0.3362(2) -0.42361(16) 0.12608(9)
F3 F 0.4842(2) -0.39734(18) 0.17387(11)
F4 F 0.52823(18) -0.29751(17) 0.26001(12)
F5 F 0.42560(16) -0.22672(14) 0.29848(10)
F6 F -0.16212(18) -0.29128(17) 0.21688(13)
F7 F -0.30532(19) -0.37222(18) 0.23786(13)
F8 F -0.30641(19) -0.43887(16) 0.30737(12)
F9 F -0.1640(2) -0.42579(15) 0.35566(12)
F10 F -0.02174(18) -0.34336(13) 0.33688(11)
C1 C 0.08952(19) 0.33628(15) 0.32123(12)
C2 C 0.0288(2) 0.3409(2) 0.34934(14)
C3 C -0.0116(3) 0.3945(3) 0.34955(19)
C4 C 0.0087(3) 0.4436(2) 0.3217(2)
C5 C 0.0695(3) 0.4390(2) 0.29354(18)
C6 C 0.1099(2) 0.3854(2) 0.29333(14)
F11 F 0.1658(2) 0.38301(18) 0.26616(12)
F12 F 0.0897(3) 0.4873(2) 0.26781(19)
F13 F -0.0302(3) 0.4940(3) 0.3208(3)
F14 F -0.0662(3) 0.3999(3) 0.3766(2)
F15 F 0.0120(3) 0.2979(2) 0.37725(13)
F16 F 0.5250(2) 0.39628(16) 0.34204(9)
F17 F 0.6517(2) 0.51906(18) 0.39042(18)
F18 F 0.6801(2) 0.5541(2) 0.48470(18)
F19 F 0.5818(3) 0.4658(2) 0.52852(11)
F20 F 0.4554(2) 0.34400(18) 0.48143(9)
S8 S -0.4493(2) -0.1201(2) 0.51017(10)
C7 C -0.3973(6) 0.0245(5) 0.5547(2)
H3 H -0.3963 0.0746 0.5719
C8 C -0.4651(7) -0.0387(6) 0.5407(3)
H4 H -0.5177 -0.0372 0.5477
C9 C -0.3469(6) -0.0721(4) 0.5150(2)
C10 C -0.3289(6) 0.0050(5) 0.5399(2)
H5 H -0.2751 0.0411 0.5462
C11 C 0.4123(3) 0.2253(2) 0.37611(12)
C12 C 0.4798(3) 0.1966(2) 0.38400(13)
H6 H 0.5344 0.2271 0.3973
C13 C 0.4511(3) 0.1202(2) 0.36927(14)
H7 H 0.4813 0.0855 0.3687
C14 C 0.3629(3) 0.0999(2) 0.35387(14)
C15 C 0.3044(3) 0.0212(2) 0.34189(15)
C16 C 0.3263(3) -0.0392(2) 0.31404(16)
C17 C 0.3958(3) -0.0346(2) 0.28860(15)
H8 H 0.4392 0.0106 0.2894
C18 C 0.3861(3) -0.1076(2) 0.26358(16)
H9 H 0.4224 -0.1238 0.2437
C19 C 0.3093(3) -0.1578(2) 0.27256(15)
C20 C 0.2731(3) -0.2381(2) 0.25257(15)
C21 C 0.1892(3) -0.2748(2) 0.25085(17)
C22 C 0.1426(3) -0.3556(2) 0.24163(16)
H10 H 0.1630 -0.3978 0.2321
C23 C 0.0655(3) -0.3607(2) 0.24892(18)
H11 H 0.0227 -0.4071 0.2468
C24 C 0.0582(3) -0.2848(2) 0.26039(17)
C25 C -0.0083(3) -0.2588(2) 0.26866(18)
C26 C -0.0048(3) -0.1797(2) 0.27423(19)
C27 C -0.0591(3) -0.1407(2) 0.29647(17)
H12 H -0.1070 -0.1628 0.3088
C28 C -0.0278(3) -0.0664(2) 0.29617(18)
H13 H -0.0490 -0.0255 0.3084
C29 C 0.0453(3) -0.0615(2) 0.27319(15)
C30 C 0.1028(3) 0.0051(2) 0.26720(15)
C31 C 0.0851(3) 0.0783(2) 0.28056(15)
C32 C 0.0038(3) 0.0866(2) 0.27063(16)
H14 H -0.0463 0.0460 0.2582
C33 C 0.0147(3) 0.1621(2) 0.28251(16)
H15 H -0.0255 0.1859 0.2786
C34 C 0.0983(3) 0.2007(2) 0.30220(15)
C35 C 0.1360(3) 0.2796(2) 0.32107(14)
C36 C 0.2190(3) 0.3137(2) 0.34228(14)
C37 C 0.2645(3) 0.3931(2) 0.36036(14)
H16 H 0.2454 0.4351 0.3599
C38 C 0.3412(3) 0.3986(2) 0.37881(14)
H17 H 0.3841 0.4453 0.3936
C39 C 0.3455(3) 0.3240(2) 0.37205(12)
C40 C 0.4124(3) 0.3010(2) 0.38514(12)
C41 C 0.2304(3) 0.0100(2) 0.36326(15)
C42 C 0.2009(3) 0.0656(2) 0.38865(15)
H18 H 0.2270 0.1194 0.3935
C43 C 0.1295(3) 0.0365(2) 0.40674(16)
H19 H 0.1020 0.0683 0.4246
C44 C 0.1028(3) -0.0427(2) 0.39616(15)
C45 C 0.0318(3) -0.0928(2) 0.40864(15)
C46 C 0.0064(3) -0.1706(2) 0.39918(16)
H20 H 0.0360 -0.2025 0.3837
C47 C -0.0703(3) -0.1996(2) 0.41515(15)
H21 H -0.0968 -0.2530 0.4113
C48 C -0.1010(3) -0.1440(2) 0.43601(14)
C49 C -0.1760(3) -0.1518(3) 0.45634(14)
C50 C -0.2290(3) -0.2139(3) 0.46506(18)
H22 H -0.2212 -0.2631 0.4584
C51 C -0.2962(4) -0.1993(4) 0.48478(19)
H23 H -0.3379 -0.2376 0.4929
C52 C -0.2968(3) -0.1272(4) 0.49119(16)
C53 C 0.1727(3) 0.0019(2) 0.24479(15)
C54 C 0.2401(3) 0.0642(2) 0.24154(15)
H24 H 0.2471 0.1168 0.2570
C55 C 0.2948(3) 0.0414(2) 0.21379(14)
H25 H 0.3432 0.0765 0.2086
C56 C 0.2722(3) -0.0368(2) 0.19460(15)
C57 C 0.3140(3) -0.0807(2) 0.16378(15)
C58 C 0.3884(3) -0.0535(3) 0.14762(16)
H26 H 0.4202 -0.0004 0.1553
C59 C 0.4115(3) -0.1139(3) 0.11838(16)
H27 H 0.4613 -0.1053 0.1054
C60 C 0.3557(3) -0.1849(3) 0.11078(15)
C61 C 0.3581(3) -0.2592(3) 0.08207(15)
C62 C 0.4227(3) -0.2866(3) 0.07404(17)
H28 H 0.4772 -0.2581 0.0885
C63 C 0.4014(3) -0.3594(3) 0.04299(16)
H29 H 0.4403 -0.3852 0.0341
C64 C 0.3212(3) -0.3911(3) 0.02637(15)
C65 C 0.2769(4) -0.4646(3) -0.0065(2)
C66 C 0.2962(2) -0.54177(18) -0.01478(11)
H30 H 0.3403 -0.5509 0.0004
C67 C 0.2338(5) -0.5952(5) -0.0498(3)
H31 H 0.2302 -0.6481 -0.0605
C68 C 0.1806(7) -0.5682(6) -0.0673(3)
H32 H 0.1373 -0.5988 -0.0916
C69 C 0.3260(3) -0.2836(2) 0.23235(15)
C70 C 0.3064(3) -0.3350(2) 0.18768(16)
C71 C 0.3575(3) -0.3750(2) 0.16808(16)
C72 C 0.4318(3) -0.3629(3) 0.19178(18)
C73 C 0.4552(3) -0.3101(3) 0.23663(18)
C74 C 0.4007(3) -0.2737(2) 0.25605(17)
C75 C -0.0877(3) -0.3131(2) 0.27651(19)
C76 C -0.1608(3) -0.3228(3) 0.2517(2)
C77 C -0.2357(3) -0.3649(3) 0.2606(2)
C78 C -0.2357(3) -0.3997(2) 0.2966(2)
C79 C -0.1640(4) -0.3926(2) 0.3207(2)
C80 C -0.0898(3) -0.3503(2) 0.31141(18)
C81 C 0.4855(3) 0.3651(2) 0.41030(13)
C82 C 0.5383(3) 0.4122(3) 0.38873(17)
C83 C 0.6032(3) 0.4749(3) 0.4122(2)
C84 C 0.6179(4) 0.4939(3) 0.4606(2)
C85 C 0.5683(4) 0.4488(4) 0.4827(2)
C86 C 0.5034(3) 0.3847(3) 0.45797(16)
C97 C -0.1185(16) 0.4055(15) 0.1941(9)
Cl1 Cl -0.0464(3) 0.3630(3) 0.1926(3)
Cl2 Cl -0.1369(6) 0.4165(10) 0.1400(5)
Cl3 Cl -0.1318(4) 0.4602(4) 0.2380(4)
S10 S 0.77400(8) 0.21037(7) 0.18510(4)
S11 S 0.50822(6) 0.16467(5) 0.18396(3)
S12 S 0.40806(8) 0.28153(6) 0.16637(4)
S13 S 0.23393(10) 0.40838(8) 0.16814(5)
S14 S 0.12854(17) 0.4607(2) 0.05230(10)
N7 N 0.7108(2) 0.25235(17) 0.33904(10)
N8 N 0.6828(2) 0.30529(18) 0.19209(11)
N9 N 0.6341(2) 0.21505(18) 0.10143(11)
H36 H 0.6377 0.2063 0.1286
N10 N 0.5971(2) 0.08478(17) 0.13195(10)
N11 N 0.6170(2) 0.04488(17) 0.28317(11)
N12 N 0.6737(2) 0.12794(18) 0.37536(11)
H37 H 0.6640 0.1362 0.3485
F26 F 0.48344(19) 0.32369(16) 0.07163(10)
F27 F 0.4489(2) 0.4367(2) 0.04652(13)
F28 F 0.5501(3) 0.58634(19) 0.08169(13)
F29 F 0.6877(2) 0.61811(15) 0.14021(11)
F30 F 0.72505(19) 0.50314(13) 0.16322(9)
F31 F 0.7663(2) 0.14135(17) 0.00487(9)
F32 F 0.7844(2) 0.05887(19) -0.07728(9)
F33 F 0.68260(18) -0.08710(16) -0.11635(8)
F34 F 0.55701(17) -0.14730(14) -0.07216(8)
F35 F 0.53317(15) -0.06322(13) 0.00946(7)
F36 F 0.76524(16) -0.08015(15) 0.32806(10)
F37 F 0.75938(17) -0.21726(15) 0.34053(10)
F38 F 0.6311(2) -0.29574(14) 0.37507(10)
F39 F 0.50786(19) -0.23673(15) 0.39741(10)
F40 F 0.51207(15) -0.10011(13) 0.38402(9)
F41 F 0.61310(19) 0.2853(2) 0.48811(10)
F42 F 0.6584(3) 0.3864(3) 0.57322(12)
F43 F 0.8185(3) 0.4742(3) 0.60078(12)
F44 F 0.9280(3) 0.4663(3) 0.54199(14)
F45 F 0.88382(19) 0.36411(19) 0.45704(10)
C98 C 0.7246(3) 0.2960(2) 0.38550(13)
C99 C 0.7419(3) 0.3772(2) 0.38827(15)
H38 H 0.7530 0.4191 0.4157
C100 C 0.7393(3) 0.3816(2) 0.34474(14)
H39 H 0.7482 0.4273 0.3353
C101 C 0.7200(3) 0.3027(2) 0.31434(14)
C102 C 0.7184(2) 0.2816(2) 0.26446(13)
C103 C 0.6845(2) 0.3220(2) 0.23944(12)
C104 C 0.6457(3) 0.3814(2) 0.25556(14)
H40 H 0.6386 0.4030 0.2866
C105 C 0.6221(3) 0.3992(2) 0.21814(14)
H41 H 0.5957 0.4366 0.2176
C106 C 0.6446(3) 0.3507(2) 0.17823(13)
C107 C 0.6266(3) 0.3461(2) 0.13087(14)
C108 C 0.6288(3) 0.2817(2) 0.09490(14)
C109 C 0.6243(3) 0.2727(2) 0.04611(15)
H42 H 0.6194 0.3099 0.0311
C110 C 0.6280(3) 0.2018(2) 0.02533(14)
H43 H 0.6275 0.1809 -0.0070
C111 C 0.6331(3) 0.1631(2) 0.06023(13)
C112 C 0.6364(3) 0.0885(2) 0.05587(13)
C113 C 0.6274(3) 0.0555(2) 0.09360(13)
C114 C 0.6549(3) -0.0075(2) 0.09856(14)
H44 H 0.6767 -0.0386 0.0760
C115 C 0.6434(3) -0.0134(2) 0.14162(14)
H45 H 0.6572 -0.0487 0.1555
C116 C 0.6060(3) 0.0443(2) 0.16274(12)
C117 C 0.5836(2) 0.06418(19) 0.20691(13)
C118 C 0.5948(2) 0.0175(2) 0.23753(14)
C119 C 0.5773(3) -0.0660(2) 0.22212(14)
H46 H 0.5596 -0.0988 0.1913
C120 C 0.5912(3) -0.0878(2) 0.26014(15)
H47 H 0.5849 -0.1389 0.2614
C121 C 0.6176(2) -0.0184(2) 0.29850(14)
C122 C 0.6383(3) -0.0138(2) 0.34384(14)
C123 C 0.6640(2) 0.0571(2) 0.38182(13)
C124 C 0.6842(3) 0.0683(2) 0.42902(14)
H48 H 0.6832 0.0287 0.4433
C125 C 0.7059(3) 0.1455(2) 0.45139(14)
H49 H 0.7213 0.1691 0.4838
C126 C 0.7009(3) 0.1841(2) 0.41694(13)
C127 C 0.7225(3) 0.2639(2) 0.42160(13)
C128 C 0.7535(3) 0.2246(2) 0.24212(14)
C129 C 0.7795(2) 0.1720(2) 0.26128(15)
H50 H 0.7736 0.1690 0.2920
C130 C 0.8132(3) 0.1271(3) 0.23119(19)
H51 H 0.8324 0.0889 0.2387
C131 C 0.8173(3) 0.1417(3) 0.1884(2)
S15 S 0.88524(14) 0.02582(12) 0.15766(7)
S16 S 0.9677(2) -0.10168(18) 0.12151(10)
S17 S 1.0632(2) -0.28246(19) 0.04966(12)
C132 C 0.8481(3) 0.0951(3) 0.1509(2)
C133 C 0.8467(3) 0.1061(3) 0.1051(2)
H52 H 0.8280 0.1427 0.0951
C134 C 0.8798(5) 0.0499(4) 0.0776(3)
H53 H 0.8850 0.0453 0.0458
C135 C 0.9039(4) 0.0026(4) 0.1007(2)
C136 C 0.9388(4) -0.0568(5) 0.0854(3)
C137 C 0.9511(4) -0.0925(5) 0.0432(3)
H54 H 0.9384 -0.0757 0.0174
C138 C 0.9824(6) -0.1540(5) 0.0364(3)
H55 H 0.9930 -0.1821 0.0077
C139 C 0.9950(5) -0.1664(4) 0.0784(3)
C140 C 1.0224(3) -0.2254(4) 0.0884(3)
C141 C 1.0215(4) -0.2438(5) 0.1306(3)
H56 H 1.0006 -0.2183 0.1564
C142 C 1.0533(5) -0.3014(5) 0.1311(2)
H57 H 1.0581 -0.3204 0.1571
C143 C 1.0777(6) -0.3289(6) 0.0885(3)
H58 H 1.1005 -0.3699 0.0819
C144 C 0.5478(3) 0.1242(2) 0.22227(13)
C145 C 0.5318(2) 0.1540(2) 0.26624(12)
H59 H 0.5488 0.1398 0.2922
C146 C 0.4885(3) 0.2071(2) 0.26990(13)
H60 H 0.4741 0.2327 0.2982
C147 C 0.4692(2) 0.2175(2) 0.22754(13)
C148 C 0.4198(3) 0.2619(2) 0.21812(13)
C149 C 0.3704(3) 0.2933(3) 0.24832(16)
H61 H 0.3712 0.2939 0.2800
C150 C 0.3205(4) 0.3233(3) 0.22616(17)
H62 H 0.2792 0.3411 0.2403
C151 C 0.3357(3) 0.3252(3) 0.18227(17)
C152 C 0.2945(4) 0.3518(3) 0.15095(19)
C153 C 0.2965(5) 0.3406(4) 0.1044(2)
H63 H 0.3302 0.3146 0.0877
C154 C 0.2449(5) 0.3705(4) 0.0835(2)
H64 H 0.2372 0.3632 0.0509
C155 C 0.2071(4) 0.4102(3) 0.1126(2)
C156 C 0.1475(4) 0.4470(4) 0.1038(3)
C157 C 0.1023(3) 0.4818(2) 0.13761(17)
H65 H 0.1045 0.4842 0.1695
C158 C 0.0514(6) 0.5131(6) 0.1110(4)
H66 H 0.0118 0.5344 0.1245
C159 C 0.0641(7) 0.5097(9) 0.0692(5)
H67 H 0.0398 0.5323 0.0501
C160 C 0.6062(3) 0.4093(2) 0.11851(14)
C161 C 0.5361(3) 0.3951(3) 0.08852(17)
C162 C 0.5195(4) 0.4561(3) 0.07663(19)
C163 C 0.5682(4) 0.5285(3) 0.09316(18)
C164 C 0.6371(4) 0.5450(2) 0.12319(18)
C165 C 0.6560(3) 0.4850(3) 0.13608(16)
C166 C 0.6482(3) 0.0418(2) 0.01043(14)
C167 C 0.7127(3) 0.0719(3) -0.01357(15)
C168 C 0.7234(3) 0.0290(3) -0.05655(15)
C169 C 0.6709(3) -0.0455(3) -0.07579(14)
C170 C 0.6071(3) -0.0767(2) -0.05317(13)
C171 C 0.5979(3) -0.0317(2) -0.01088(13)
C172 C 0.6384(3) -0.0858(2) 0.35529(13)
C173 C 0.5754(3) -0.1268(2) 0.37340(14)
C174 C 0.5714(3) -0.1980(2) 0.38078(15)
C175 C 0.6345(3) -0.2276(2) 0.36961(15)
C176 C 0.6984(3) -0.1874(2) 0.35135(16)
C177 C 0.7009(3) -0.1173(2) 0.34494(15)
C178 C 0.7466(3) 0.3181(2) 0.46991(14)
C179 C 0.6918(3) 0.3268(3) 0.50088(16)
C180 C 0.7142(4) 0.3792(4) 0.54508(19)
C181 C 0.7944(4) 0.4251(4) 0.55850(19)
C182 C 0.8515(4) 0.4208(4) 0.5280(2)
C183 C 0.8261(3) 0.3666(3) 0.48534(16)
O1 O 0.9401(5) -0.2191(5) -0.1198(5)
C196 C 0.2525(10) 0.1550(13) 0.7836(4)
H75 H 0.2756 0.1582 0.7548
H76 H 0.2057 0.1745 0.7849
H77 H 0.2343 0.1011 0.7842
C197 C 0.3232(8) 0.2080(6) 0.8287(4)
H78 H 0.3712 0.1896 0.8286
H79 H 0.3414 0.2634 0.8299
C198 C 0.2763(7) 0.1941(5) 0.8677(3)
H80 H 0.2360 0.2223 0.8702
H81 H 0.2455 0.1382 0.8601
C199 C 0.3265(7) 0.2177(6) 0.9120(3)
H82 H 0.3506 0.2748 0.9223
H83 H 0.3720 0.1957 0.9087
C200 C 0.2777(7) 0.1913(6) 0.9481(4)
H84 H 0.2340 0.2157 0.9517
H85 H 0.2505 0.1348 0.9360
C201 C 0.3176(8) 0.2058(9) 0.9899(3)
H86 H 0.3432 0.2623 1.0038
H87 H 0.3613 0.1816 0.9876
C202 C 0.2507(18) 0.1697(10) 1.0233(7)
H88 H 0.2801 0.1761 1.0535
H89 H 0.2225 0.1147 1.0081
H90 H 0.2106 0.1974 1.0277
C203 C 0.8810(5) 0.1349(6) 0.3755(3)
H91 H 0.8897 0.1279 0.3430
H92 H 0.8779 0.1869 0.3888
H93 H 0.8298 0.0964 0.3774
C204 C 0.9510(7) 0.1250(5) 0.4022(2)
H94 H 1.0026 0.1622 0.3985
H95 H 0.9535 0.0723 0.3883
C205 C 0.9463(5) 0.1367(4) 0.4533(2)
H96 H 0.8938 0.1001 0.4565
H97 H 0.9906 0.1215 0.4663
C206 C 0.9520(5) 0.2134(4) 0.4824(3)
H98 H 0.9093 0.2296 0.4686
H99 H 0.9379 0.2084 0.5131
C207 C 1.0294(6) 0.2759(4) 0.4901(3)
H100 H 1.0373 0.2920 0.4614
H101 H 1.0750 0.2570 0.4970
C208 C 1.0314(7) 0.3488(5) 0.5321(5)
H102 H 0.9845 0.3666 0.5261
H103 H 1.0273 0.3341 0.5613
C209 C 1.1099(8) 0.4122(5) 0.5363(5)
H104 H 1.1111 0.4577 0.5614
H105 H 1.1141 0.4257 0.5071
H106 H 1.1560 0.3949 0.5434
C210 C 0.2515(6) 0.7709(6) 0.3840(3)
Cl4 Cl 0.34577(18) 0.81295(19) 0.42204(11)
Cl5 Cl 0.1773(2) 0.7650(2) 0.42027(15)
Cl6 Cl 0.2523(7) 0.6798(3) 0.35154(16)
C211 C 0.4179(5) 0.5087(5) 0.3003(3)
Cl7 Cl 0.3317(2) 0.53449(19) 0.28909(13)
Cl8 Cl 0.4750(2) 0.56869(16) 0.35252(13)
Cl9 Cl 0.4748(2) 0.51249(16) 0.25382(12)
C87? C 0.0481(5) 0.3538(4) 0.3496(3)
C88? C -0.0034(5) 0.3968(4) 0.3458(4)
C89? C -0.0243(5) 0.4063(5) 0.3030(4)
C90? C 0.0063(6) 0.3728(5) 0.2641(4)
C91? C 0.0578(6) 0.3297(5) 0.2680(3)
C92? C 0.0787(5) 0.3203(5) 0.3107(4)
F21? F 0.0652(8) 0.3469(7) 0.3914(5)
F22? F -0.0776(8) 0.4502(7) 0.2991(6)
F23? F -0.0438(11) 0.4380(10) 0.3815(6)
F24? F -0.0108(10) 0.3792(9) 0.2245(6)
F25? F 0.0853(8) 0.3003(7) 0.2342(5)
S9? S -0.3485(2) -0.01366(19) 0.53172(10)
C93? C -0.3677(5) -0.1094(4) 0.50663(17)
C94? C -0.4501(5) -0.1554(4) 0.5022(2)
H33? H -0.4726 -0.2099 0.4892
C95? C -0.4937(6) -0.1018(5) 0.5221(3)
H34? H -0.5508 -0.1185 0.5233
C96? C -0.4460(7) -0.0255(7) 0.5387(3)
H35? H -0.4663 0.0154 0.5525
S18? S 0.8671(3) 0.0280(2) 0.12189(16)
S19? S 0.8705(3) -0.0429(3) -0.02424(19)
C184? C 0.8472(4) 0.1339(5) 0.0984(3)
H68? H 0.8360 0.1801 0.0984
C185? C 0.8812(6) 0.0302(6) 0.0662(4)
C186? C 0.8678(6) 0.0934(6) 0.0576(4)
H69? H 0.8717 0.1071 0.0294
C187? C 0.8419(5) 0.1126(7) 0.1384(6)
C188? C 0.8962(4) -0.1269(7) -0.0983(4)
C189? C 0.9173(5) -0.1910(7) -0.1140(4)
H70? H 0.9333 -0.2166 -0.0936
C190? C 0.9332(6) -0.1404(6) -0.0111(4)
H71? H 0.9549 -0.1821 -0.0161
S20? S 0.8706(4) -0.0961(5) -0.1444(2)
C191? C 0.8892(6) -0.1711(7) -0.1817(5)
H72? H 0.8820 -0.1789 -0.2143
C192? C 0.9143(7) -0.2185(7) -0.1636(4)
H73? H 0.9278 -0.2623 -0.1801
C193? C 0.9296(5) -0.0954(5) 0.0337(3)
H74? H 0.9484 -0.1040 0.0615
C194? C 0.8944(5) -0.0345(6) 0.0332(4)
C195? C 0.9019(7) -0.1186(7) -0.0481(4)
C212? C 0.1868(7) 0.6708(7) 0.3598(5)
C213? C 0.1396(8) 0.5792(8) 0.3258(6)
C214? C 0.3807(6) 0.6008(6) 0.3235(4)
C215? C 0.2832(7) 0.5993(7) 0.3179(5)
C216? C 0.2857(5) 0.6850(5) 0.3519(4)
C217? C 0.3765(8) 0.5170(8) 0.2856(4)
C218? C 0.4765(10) 0.5258(11) 0.2855(7)
O2? O 0.9237(12) -0.2172(12) 0.1434(9)
loop_
_geom_bond_atom_site_label_1
_geom_bond_atom_site_label_2
_geom_bond_site_symmetry_1
_geom_bond_site_symmetry_2
S1 C41 1_555 1_555
S2 C45 1_555 1_555
S3 C49 1_555 1_555
S4 C53 1_555 1_555
S5 C57 1_555 1_555
S6 C61 1_555 1_555
S7 C65 1_555 1_555
N1 C11 1_555 1_555
N2 C16 1_555 1_555
N3 H1 1_555 1_555
N4 C26 1_555 1_555
N5 C31 1_555 1_555
N6 H2 1_555 1_555
F1 C70 1_555 1_555
F2 C71 1_555 1_555
F3 C72 1_555 1_555
F4 C73 1_555 1_555
F5 C74 1_555 1_555
F6 C76 1_555 1_555
F7 C77 1_555 1_555
F8 C78 1_555 1_555
F9 C79 1_555 1_555
F10 C80 1_555 1_555
C1 C2 1_555 1_555
C2 C3 1_555 1_555
C3 C4 1_555 1_555
C4 C5 1_555 1_555
C5 C6 1_555 1_555
C6 C1 1_555 1_555
F11 C6 1_555 1_555
F12 C5 1_555 1_555
F13 C4 1_555 1_555
F14 C3 1_555 1_555
F15 C2 1_555 1_555
F16 C82 1_555 1_555
F17 C83 1_555 1_555
F18 C84 1_555 1_555
F19 C85 1_555 1_555
F20 C86 1_555 1_555
S8 C8 1_555 1_555
C7 H3 1_555 1_555
C8 C7 1_555 1_555
H4 C8 1_555 1_555
C9 S8 1_555 1_555
C10 C7 1_555 1_555
H5 C10 1_555 1_555
C11 C12 1_555 1_555
C12 H6 1_555 1_555
C13 C12 1_555 1_555
H7 C13 1_555 1_555
C14 N1 1_555 1_555
C15 C14 1_555 1_555
C16 C15 1_555 1_555
C17 C16 1_555 1_555
H8 C17 1_555 1_555
C18 C17 1_555 1_555
H9 C18 1_555 1_555
C19 N2 1_555 1_555
C20 C19 1_555 1_555
C21 N3 1_555 1_555
C22 C21 1_555 1_555
H10 C22 1_555 1_555
C23 C22 1_555 1_555
H11 C23 1_555 1_555
C24 N3 1_555 1_555
C25 C24 1_555 1_555
C26 C25 1_555 1_555
C27 C26 1_555 1_555
H12 C27 1_555 1_555
C28 C27 1_555 1_555
H13 C28 1_555 1_555
C29 N4 1_555 1_555
C30 C29 1_555 1_555
C31 C30 1_555 1_555
C32 C31 1_555 1_555
H14 C32 1_555 1_555
C33 C32 1_555 1_555
H15 C33 1_555 1_555
C34 N5 1_555 1_555
C35 C1 1_555 1_555
C36 N6 1_555 1_555
C37 C36 1_555 1_555
H16 C37 1_555 1_555
C38 C37 1_555 1_555
H17 C38 1_555 1_555
C39 N6 1_555 1_555
C40 C11 1_555 1_555
C41 C15 1_555 1_555
C42 C41 1_555 1_555
H18 C42 1_555 1_555
C43 C42 1_555 1_555
H19 C43 1_555 1_555
C44 S1 1_555 1_555
C45 C44 1_555 1_555
C46 C45 1_555 1_555
H20 C46 1_555 1_555
C47 C46 1_555 1_555
H21 C47 1_555 1_555
C48 S2 1_555 1_555
C49 C48 1_555 1_555
C50 C49 1_555 1_555
H22 C50 1_555 1_555
C51 C50 1_555 1_555
H23 C51 1_555 1_555
C52 S3 1_555 1_555
C53 C30 1_555 1_555
C54 C53 1_555 1_555
H24 C54 1_555 1_555
C55 C54 1_555 1_555
H25 C55 1_555 1_555
C56 S4 1_555 1_555
C57 C56 1_555 1_555
C58 C57 1_555 1_555
H26 C58 1_555 1_555
C59 C58 1_555 1_555
H27 C59 1_555 1_555
C60 S5 1_555 1_555
C61 C60 1_555 1_555
C62 C61 1_555 1_555
H28 C62 1_555 1_555
C63 C62 1_555 1_555
H29 C63 1_555 1_555
C64 S6 1_555 1_555
C65 C64 1_555 1_555
C66 C65 1_555 1_555
H30 C66 1_555 1_555
C67 C66 1_555 1_555
H31 C67 1_555 1_555
C68 S7 1_555 1_555
H32 C68 1_555 1_555
C69 C20 1_555 1_555
C70 C69 1_555 1_555
C71 C70 1_555 1_555
C72 C71 1_555 1_555
C73 C72 1_555 1_555
C74 C69 1_555 1_555
C75 C25 1_555 1_555
C76 C75 1_555 1_555
C77 C76 1_555 1_555
C78 C77 1_555 1_555
C79 C78 1_555 1_555
C80 C75 1_555 1_555
C81 C40 1_555 1_555
C82 C81 1_555 1_555
C83 C82 1_555 1_555
C84 C83 1_555 1_555
C85 C84 1_555 1_555
C86 C81 1_555 1_555
C97 Cl1 1_555 1_555
Cl2 C97 1_555 1_555
Cl3 C97 1_555 1_555
S10 C128 1_555 1_555
S11 C144 1_555 1_555
S12 C148 1_555 1_555
S13 C152 1_555 1_555
S14 C156 1_555 1_555
N7 C98 1_555 1_555
N8 C103 1_555 1_555
N9 H36 1_555 1_555
N10 C113 1_555 1_555
N11 C118 1_555 1_555
N12 H37 1_555 1_555
F26 C161 1_555 1_555
F27 C162 1_555 1_555
F28 C163 1_555 1_555
F29 C164 1_555 1_555
F30 C165 1_555 1_555
F31 C167 1_555 1_555
F32 C168 1_555 1_555
F33 C169 1_555 1_555
F34 C170 1_555 1_555
F35 C171 1_555 1_555
F36 C177 1_555 1_555
F37 C176 1_555 1_555
F38 C175 1_555 1_555
F39 C174 1_555 1_555
F40 C173 1_555 1_555
F41 C179 1_555 1_555
F42 C180 1_555 1_555
F43 C181 1_555 1_555
F44 C182 1_555 1_555
F45 C183 1_555 1_555
C98 C99 1_555 1_555
C99 H38 1_555 1_555
C100 C99 1_555 1_555
H39 C100 1_555 1_555
C101 N7 1_555 1_555
C102 C101 1_555 1_555
C103 C102 1_555 1_555
C104 C103 1_555 1_555
H40 C104 1_555 1_555
C105 C104 1_555 1_555
H41 C105 1_555 1_555
C106 N8 1_555 1_555
C107 C106 1_555 1_555
C108 N9 1_555 1_555
C109 C108 1_555 1_555
H42 C109 1_555 1_555
C110 C109 1_555 1_555
H43 C110 1_555 1_555
C111 N9 1_555 1_555
C112 C111 1_555 1_555
C113 C112 1_555 1_555
C114 C113 1_555 1_555
H44 C114 1_555 1_555
C115 C114 1_555 1_555
H45 C115 1_555 1_555
C116 N10 1_555 1_555
C117 C116 1_555 1_555
C118 C117 1_555 1_555
C119 C118 1_555 1_555
H46 C119 1_555 1_555
C120 C119 1_555 1_555
H47 C120 1_555 1_555
C121 N11 1_555 1_555
C122 C121 1_555 1_555
C123 N12 1_555 1_555
C124 C123 1_555 1_555
H48 C124 1_555 1_555
C125 C124 1_555 1_555
H49 C125 1_555 1_555
C126 N12 1_555 1_555
C127 C98 1_555 1_555
C128 C102 1_555 1_555
C129 C128 1_555 1_555
H50 C129 1_555 1_555
C130 C129 1_555 1_555
H51 C130 1_555 1_555
C131 S10 1_555 1_555
S15 C132 1_555 1_555
S16 C136 1_555 1_555
S17 C140 1_555 1_555
C132 C131 1_555 1_555
C133 C132 1_555 1_555
H52 C133 1_555 1_555
C134 C133 1_555 1_555
H53 C134 1_555 1_555
C135 S15 1_555 1_555
C136 C135 1_555 1_555
C137 C136 1_555 1_555
H54 C137 1_555 1_555
C138 C137 1_555 1_555
H55 C138 1_555 1_555
C139 S16 1_555 1_555
C140 C139 1_555 1_555
C141 C140 1_555 1_555
H56 C141 1_555 1_555
C142 C141 1_555 1_555
H57 C142 1_555 1_555
C143 S17 1_555 1_555
H58 C143 1_555 1_555
C144 C117 1_555 1_555
C145 C144 1_555 1_555
H59 C145 1_555 1_555
C146 C145 1_555 1_555
H60 C146 1_555 1_555
C147 S11 1_555 1_555
C148 C147 1_555 1_555
C149 C148 1_555 1_555
H61 C149 1_555 1_555
C150 C149 1_555 1_555
H62 C150 1_555 1_555
C151 S12 1_555 1_555
C152 C151 1_555 1_555
C153 C152 1_555 1_555
H63 C153 1_555 1_555
C154 C153 1_555 1_555
H64 C154 1_555 1_555
C155 S13 1_555 1_555
C156 C155 1_555 1_555
C157 C156 1_555 1_555
H65 C157 1_555 1_555
C158 C157 1_555 1_555
H66 C158 1_555 1_555
C159 S14 1_555 1_555
H67 C159 1_555 1_555
C160 C107 1_555 1_555
C161 C160 1_555 1_555
C162 C161 1_555 1_555
C163 C162 1_555 1_555
C164 C163 1_555 1_555
C165 C160 1_555 1_555
C166 C112 1_555 1_555
C167 C166 1_555 1_555
C168 C167 1_555 1_555
C169 C168 1_555 1_555
C170 C169 1_555 1_555
C171 C166 1_555 1_555
C172 C122 1_555 1_555
C173 C172 1_555 1_555
C174 C173 1_555 1_555
C175 C174 1_555 1_555
C176 C175 1_555 1_555
C177 C172 1_555 1_555
C178 C127 1_555 1_555
C179 C178 1_555 1_555
C180 C179 1_555 1_555
C181 C180 1_555 1_555
C182 C181 1_555 1_555
C183 C178 1_555 1_555
C196 H75 1_555 1_555
H76 C196 1_555 1_555
H77 C196 1_555 1_555
C197 C196 1_555 1_555
H78 C197 1_555 1_555
H79 C197 1_555 1_555
C198 C197 1_555 1_555
H80 C198 1_555 1_555
H81 C198 1_555 1_555
C199 C198 1_555 1_555
H82 C199 1_555 1_555
H83 C199 1_555 1_555
C200 C199 1_555 1_555
H84 C200 1_555 1_555
H85 C200 1_555 1_555
C201 C200 1_555 1_555
H86 C201 1_555 1_555
H87 C201 1_555 1_555
C202 C201 1_555 1_555
H88 C202 1_555 1_555
H89 C202 1_555 1_555
H90 C202 1_555 1_555
C203 H91 1_555 1_555
H92 C203 1_555 1_555
H93 C203 1_555 1_555
C204 C203 1_555 1_555
H94 C204 1_555 1_555
H95 C204 1_555 1_555
C205 C204 1_555 1_555
H96 C205 1_555 1_555
H97 C205 1_555 1_555
C206 C205 1_555 1_555
H98 C206 1_555 1_555
H99 C206 1_555 1_555
C207 C206 1_555 1_555
H100 C207 1_555 1_555
H101 C207 1_555 1_555
C208 C207 1_555 1_555
H102 C208 1_555 1_555
H103 C208 1_555 1_555
C209 C208 1_555 1_555
H104 C209 1_555 1_555
H105 C209 1_555 1_555
H106 C209 1_555 1_555
C210 Cl4 1_555 1_555
Cl5 C210 1_555 1_555
Cl6 C210 1_555 1_555
C211 Cl7 1_555 1_555
Cl8 C211 1_555 1_555
Cl9 C211 1_555 1_555
C9 C10 1_555 1_555
C9 C52 1_555 1_555
C13 C14 1_555 1_555
C18 C19 1_555 1_555
C20 C21 1_555 1_555
C23 C24 1_555 1_555
C28 C29 1_555 1_555
C33 C34 1_555 1_555
C34 C35 1_555 1_555
C35 C36 1_555 1_555
C38 C39 1_555 1_555
C39 C40 1_555 1_555
C43 C44 1_555 1_555
C47 C48 1_555 1_555
C51 C52 1_555 1_555
C55 C56 1_555 1_555
C59 C60 1_555 1_555
C63 C64 1_555 1_555
C67 C68 1_555 1_555
C73 C74 1_555 1_555
C79 C80 1_555 1_555
C85 C86 1_555 1_555
C100 C101 1_555 1_555
C105 C106 1_555 1_555
C107 C108 1_555 1_555
C110 C111 1_555 1_555
C115 C116 1_555 1_555
C120 C121 1_555 1_555
C122 C123 1_555 1_555
C125 C126 1_555 1_555
C126 C127 1_555 1_555
C130 C131 1_555 1_555
C134 C135 1_555 1_555
C138 C139 1_555 1_555
C142 C143 1_555 1_555
C146 C147 1_555 1_555
C150 C151 1_555 1_555
C154 C155 1_555 1_555
C158 C159 1_555 1_555
C164 C165 1_555 1_555
C170 C171 1_555 1_555
C176 C177 1_555 1_555
C182 C183 1_555 1_555

#END
