
#######################################################################
#
#                 Cambridge Crystallographic Data Centre
#                                CCDC 
#
#######################################################################
#
# If this CIF has been generated from an entry in the Cambridge 
# Structural Database, then it will include bibliographic, chemical, 
# crystal, experimental, refinement or atomic coordinate data resulting 
# from the CCDC's data processing and validation procedures.
#
#######################################################################

data_LOTYUO
_chemical_formula_moiety         
'C32 H32 O8,C14 H16 N1 1+,F6 P1 1-,0.5(C2 H3 N1),0.13(C1 H2 Cl2)'
_chemical_name_systematic        
'Tetrabenzo-24-crown-8 dibenzylammonium pseudorotaxane acetonitrile clathrate hexafluorophosphate dichloromethane solvate'
_symmetry_cell_setting           triclinic
_symmetry_space_group_name_H-M   'P -1'
_symmetry_Int_Tables_number      2
_space_group_name_Hall           '-P 1'
loop_
_symmetry_equiv_pos_site_id
_symmetry_equiv_pos_as_xyz
1 x,y,z
2 -x,-y,-z
_cell_length_a                   14.1821(10)
_cell_length_b                   23.3568(15)
_cell_length_c                   28.107(2)
_cell_angle_alpha                91.513(5)
_cell_angle_beta                 90.506(5)
_cell_angle_gamma                104.367(6)
_cell_volume                     9014.95
_exptl_crystal_description       'platy prisms'
_cell_formula_units_Z            8
_exptl_crystal_recrystallization_method chloroform/acetonitrile/n-hexane
loop_
_atom_site_label
_atom_site_type_symbol
_atom_site_fract_x
_atom_site_fract_y
_atom_site_fract_z
O1 O 0.8186(4) 0.6902(2) 0.8803(2)
C1 C 0.8556(6) 0.6831(4) 0.8339(3)
H1 H 0.8014(6) 0.6673(4) 0.8110(3)
H2 H 0.8980(6) 0.6552(4) 0.8346(3)
C2 C 0.9120(6) 0.7421(4) 0.8198(3)
H3 H 0.9214(6) 0.7422(4) 0.7849(3)
H4 H 0.8761(6) 0.7722(4) 0.8282(3)
O2 O 1.0044(4) 0.7562(2) 0.8438(2)
C3 C 1.0644(6) 0.8109(3) 0.8385(2)
C4 C 1.0422(7) 0.8575(4) 0.8138(3)
H5 H 0.9796(7) 0.8521(4) 0.7994(3)
C5 C 1.1087(8) 0.9101(4) 0.8102(3)
H6 H 1.0921(8) 0.9406(4) 0.7928(3)
C6 C 1.1995(8) 0.9201(4) 0.8311(3)
H7 H 1.2448(8) 0.9575(4) 0.8288(3)
C7 C 1.2246(6) 0.8739(4) 0.8562(3)
H8 H 1.2875(6) 0.8798(4) 0.8703(3)
C8 C 1.1581(6) 0.8213(3) 0.8600(2)
O3 O 1.1719(4) 0.7741(2) 0.8856(2)
C9 C 1.2685(5) 0.7781(3) 0.9024(2)
H9 H 1.2919(5) 0.8142(3) 0.9227(2)
H10 H 1.3130(5) 0.7799(3) 0.8753(2)
C10 C 1.2657(6) 0.7242(3) 0.9305(2)
H11 H 1.2289(6) 0.6886(3) 0.9125(2)
H12 H 1.3328(6) 0.7202(3) 0.9361(2)
O4 O 1.2202(4) 0.7291(2) 0.9749(2)
C11 C 1.2177(6) 0.6838(3) 1.0054(3)
C12 C 1.2492(6) 0.6330(3) 0.9935(3)
H13 H 1.2760(6) 0.6287(3) 0.9632(3)
C13 C 1.2411(7) 0.5896(4) 1.0262(3)
H14 H 1.2620(7) 0.5551(4) 1.0179(3)
C14 C 1.2034(7) 0.5945(4) 1.0708(3)
H15 H 1.2004(7) 0.5642(4) 1.0930(3)
C15 C 1.1697(6) 0.6443(3) 1.0833(3)
H16 H 1.1413(6) 0.6476(3) 1.1134(3)
C16 C 1.1789(6) 0.6885(3) 1.0507(3)
O5 O 1.1501(4) 0.7410(2) 1.0594(2)
C17 C 1.1131(6) 0.7467(3) 1.1061(2)
H17 H 1.1626(6) 0.7438(3) 1.1303(2)
H18 H 1.0543(6) 0.7143(3) 1.1109(2)
C18 C 1.0881(6) 0.8052(4) 1.1116(3)
H19 H 1.0793(6) 0.8142(4) 1.1456(3)
H20 H 1.1414(6) 0.8370(4) 1.0993(3)
O6 O 0.9996(4) 0.8022(2) 1.0852(2)
C19 C 0.9593(5) 0.8504(3) 1.0900(2)
C20 C 1.0001(6) 0.9008(3) 1.1168(3)
H21 H 1.0587(6) 0.9040(3) 1.1344(3)
C21 C 0.9540(7) 0.9468(3) 1.1178(3)
H22 H 0.9820(7) 0.9817(3) 1.1362(3)
C22 C 0.8707(7) 0.9432(3) 1.0933(3)
H23 H 0.8409(7) 0.9754(3) 1.0945(3)
C23 C 0.8277(6) 0.8924(3) 1.0660(3)
H24 H 0.7687(6) 0.8895(3) 1.0488(3)
C24 C 0.8734(6) 0.8459(3) 1.0646(2)
O7 O 0.8370(4) 0.7933(2) 1.0390(2)
C25 C 0.7390(6) 0.7839(3) 1.0202(3)
H25 H 0.7384(6) 0.8094(3) 0.9927(3)
H26 H 0.6963(6) 0.7944(3) 1.0449(3)
C26 C 0.7021(6) 0.7200(3) 1.0050(3)
H27 H 0.7185(6) 0.6946(3) 1.0298(3)
H28 H 0.6304(6) 0.7103(3) 1.0011(3)
O8 O 0.7452(4) 0.7088(2) 0.9610(2)
C27 C 0.7209(6) 0.6504(3) 0.9444(3)
C28 C 0.6638(6) 0.6050(4) 0.9672(3)
H29 H 0.6367(6) 0.6119(4) 0.9969(3)
C29 C 0.6443(8) 0.5476(4) 0.9475(3)
H30 H 0.6034(8) 0.5155(4) 0.9633(3)
C30 C 0.6849(7) 0.5382(4) 0.9049(3)
H31 H 0.6733(7) 0.4991(4) 0.8920(3)
C31 C 0.7422(6) 0.5839(4) 0.8803(3)
H32 H 0.7681(6) 0.5766(4) 0.8503(3)
C32 C 0.7616(6) 0.6410(3) 0.9000(3)
N1 N 1.0418(4) 0.7803(2) 0.9861(2)
H33 H 1.0248(4) 0.7801(2) 1.0169(2)
H34 H 1.1027(4) 0.7753(2) 0.9848(2)
C33 C 0.9740(6) 0.7303(2) 0.9597(2)
H35 H 1.0004(6) 0.7258(2) 0.9277(2)
H36 H 0.9105(6) 0.7400(2) 0.9554(2)
C34 C 0.9766(5) 0.6238(2) 0.96027(15)
H37 H 1.0022(5) 0.6280(2) 0.92908(15)
C35 C 0.9574(5) 0.5692(2) 0.9815(2)
H38 H 0.9698(8) 0.5360(2) 0.9648(3)
C36 C 0.9199(5) 0.5630(2) 1.0271(2)
H39 H 0.9068(8) 0.5257(2) 1.0417(3)
C37 C 0.9017(4) 0.6116(2) 1.05156(15)
H40 H 0.8761(7) 0.6074(3) 1.0828(2)
C38 C 0.9209(4) 0.6663(2) 1.03033(15)
H41 H 0.9085(6) 0.6995(2) 1.0470(2)
C39 C 0.9583(4) 0.6724(2) 0.98469(15)
C40 C 1.0405(6) 0.8383(2) 0.9660(2)
H42 H 0.9748(6) 0.8451(2) 0.9699(2)
H43 H 1.0535(6) 0.8372(2) 0.9315(2)
C41 C 1.0848(4) 0.9390(2) 1.0047(2)
H44 H 1.0182(4) 0.9395(2) 1.0020(2)
C42 C 1.1524(5) 0.9881(2) 1.0237(2)
H45 H 1.1320(7) 1.0221(2) 1.0341(3)
C43 C 1.2499(5) 0.9874(2) 1.0275(2)
H46 H 1.2962(6) 1.0209(3) 1.0405(3)
C44 C 1.2798(3) 0.9376(3) 1.0124(2)
H47 H 1.3464(3) 0.9372(4) 1.0150(3)
C45 C 1.2122(4) 0.8886(2) 0.9934(2)
H48 H 1.2326(5) 0.8546(3) 0.9830(3)
C46 C 1.1147(3) 0.8893(2) 0.9895(2)
O9 O 0.2564(4) 0.7368(2) 0.7237(2)
C47 C 0.2048(6) 0.7309(3) 0.7672(2)
H49 H 0.1363(6) 0.7317(3) 0.7611(2)
H50 H 0.2345(6) 0.7644(3) 0.7893(2)
C48 C 0.2079(6) 0.6738(4) 0.7895(3)
H51 H 0.1614(6) 0.6655(4) 0.8161(3)
H52 H 0.1899(6) 0.6408(4) 0.7657(3)
O10 O 0.3061(4) 0.6798(2) 0.8071(2)
C49 C 0.3201(6) 0.6354(3) 0.8366(2)
C50 C 0.2490(7) 0.5872(3) 0.8487(3)
H53 H 0.1846(7) 0.5823(3) 0.8367(3)
C51 C 0.2695(7) 0.5454(3) 0.8782(3)
H54 H 0.2200(7) 0.5119(3) 0.8867(3)
C52 C 0.3639(8) 0.5535(4) 0.8949(3)
H55 H 0.3785(8) 0.5248(4) 0.9152(3)
C53 C 0.4367(7) 0.6009(3) 0.8836(3)
H56 H 0.5012(7) 0.6046(3) 0.8951(3)
C54 C 0.4157(6) 0.6440(3) 0.8549(2)
O11 O 0.4814(4) 0.6941(2) 0.8418(2)
C55 C 0.5743(6) 0.7057(3) 0.8667(2)
H57 H 0.6121(6) 0.6783(3) 0.8543(2)
H58 H 0.5636(6) 0.6986(3) 0.9010(2)
C56 C 0.6307(6) 0.7682(3) 0.8602(2)
H59 H 0.5868(6) 0.7950(3) 0.8633(2)
H60 H 0.6820(6) 0.7797(3) 0.8852(2)
O12 O 0.6739(4) 0.7737(2) 0.8147(2)
C57 C 0.7325(6) 0.8270(3) 0.8047(3)
C58 C 0.7544(6) 0.8753(3) 0.8362(3)
H61 H 0.7260(6) 0.8724(3) 0.8668(3)
C59 C 0.8176(6) 0.9279(3) 0.8234(3)
H62 H 0.8326(6) 0.9608(3) 0.8452(3)
C60 C 0.8583(6) 0.9320(3) 0.7790(3)
H63 H 0.9016(6) 0.9680(3) 0.7703(3)
C61 C 0.8370(6) 0.8842(3) 0.7465(3)
H64 H 0.8640(6) 0.8876(3) 0.7156(3)
C62 C 0.7760(5) 0.8321(3) 0.7603(2)
O13 O 0.7531(4) 0.7810(2) 0.7324(2)
C63 C 0.8051(6) 0.7828(3) 0.6879(2)
H65 H 0.8762(6) 0.7945(3) 0.6942(2)
H66 H 0.7879(6) 0.8121(3) 0.6668(2)
C64 C 0.7766(6) 0.7217(3) 0.6641(3)
H67 H 0.8231(6) 0.7186(3) 0.6386(3)
H68 H 0.7779(6) 0.6912(3) 0.6877(3)
O14 O 0.6813(4) 0.7130(2) 0.6444(2)
C65 C 0.6460(6) 0.6619(3) 0.6179(2)
C66 C 0.7008(6) 0.6201(3) 0.6085(2)
H69 H 0.7645(6) 0.6254(3) 0.6216(2)
C67 C 0.6583(6) 0.5702(3) 0.5791(3)
H70 H 0.6939(6) 0.5416(3) 0.5720(3)
C68 C 0.5679(6) 0.5628(3) 0.5611(3)
H71 H 0.5415(6) 0.5294(3) 0.5407(3)
C69 C 0.5122(6) 0.6024(3) 0.5711(3)
H72 H 0.4472(6) 0.5955(3) 0.5594(3)
C70 C 0.5544(6) 0.6529(3) 0.5991(2)
O15 O 0.5055(4) 0.6961(2) 0.6108(2)
C71 C 0.4204(6) 0.6969(3) 0.5837(3)
H73 H 0.3675(6) 0.6619(3) 0.5909(3)
H74 H 0.4343(6) 0.6954(3) 0.5493(3)
C72 C 0.3894(6) 0.7519(3) 0.5959(2)
H75 H 0.4464(6) 0.7864(3) 0.5959(2)
H76 H 0.3417(6) 0.7580(3) 0.5718(2)
O16 O 0.3461(4) 0.7466(2) 0.6421(2)
C73 C 0.3089(6) 0.7946(3) 0.6567(3)
C74 C 0.3199(6) 0.8446(3) 0.6315(3)
H77 H 0.3534(6) 0.8486(3) 0.6022(3)
C75 C 0.2811(7) 0.8903(4) 0.6495(3)
H78 H 0.2870(7) 0.9251(4) 0.6318(3)
C76 C 0.2350(7) 0.8854(4) 0.6920(3)
H79 H 0.2102(7) 0.9170(4) 0.7042(3)
C77 C 0.2241(6) 0.8344(3) 0.7176(3)
H80 H 0.1900(6) 0.8305(3) 0.7467(3)
C78 C 0.2634(6) 0.7885(3) 0.7006(2)
N2 N 0.4317(5) 0.6901(3) 0.7224(2)
H81 H 0.3961(5) 0.6933(3) 0.7482(2)
H82 H 0.4007(5) 0.6996(3) 0.6968(2)
C79 C 0.5302(5) 0.7320(3) 0.7278(3)
H83 H 0.5724(5) 0.7241(3) 0.7019(3)
H84 H 0.5602(5) 0.7253(3) 0.7584(3)
C80 C 0.5659(4) 0.8292(2) 0.6886(2)
H85 H 0.5971(4) 0.8124(2) 0.6642(2)
C81 C 0.5613(5) 0.8879(2) 0.6865(2)
H86 H 0.5895(8) 0.9111(3) 0.6606(3)
C82 C 0.5155(6) 0.9125(2) 0.7223(3)
H87 H 0.5124(9) 0.9526(2) 0.7209(4)
C83 C 0.4743(6) 0.8785(3) 0.7602(2)
H88 H 0.4430(8) 0.8954(4) 0.7847(3)
C84 C 0.4788(5) 0.8199(2) 0.7623(2)
H89 H 0.4506(7) 0.7967(3) 0.7882(2)
C85 C 0.5246(4) 0.7952(2) 0.7265(2)
C86 C 0.4403(6) 0.6277(3) 0.7165(3)
H90 H 0.4716(6) 0.6234(3) 0.6857(3)
H91 H 0.4836(6) 0.6199(3) 0.7420(3)
C87 C 0.3354(4) 0.5375(2) 0.7505(2)
H92 H 0.3875(4) 0.5369(2) 0.7718(2)
C88 C 0.2491(5) 0.4936(2) 0.7520(2)
H93 H 0.2422(6) 0.4630(3) 0.7743(3)
C89 C 0.1728(4) 0.4944(2) 0.7208(2)
H94 H 0.1138(4) 0.4644(3) 0.7218(3)
C90 C 0.1828(4) 0.5391(3) 0.6882(2)
H95 H 0.1307(5) 0.5396(4) 0.6669(3)
C91 C 0.2691(4) 0.5830(2) 0.6867(2)
H96 H 0.2760(6) 0.6136(3) 0.6644(2)
C92 C 0.3454(3) 0.5822(2) 0.7178(2)
O17 O 0.8140(4) 0.7233(2) 0.3748(2)
C93 C 0.8589(6) 0.7341(4) 0.3291(2)
H97 H 0.8083(6) 0.7293(4) 0.3038(2)
H98 H 0.8985(6) 0.7054(4) 0.3224(2)
C94 C 0.9214(6) 0.7949(3) 0.3297(3)
H99 H 0.9366(6) 0.8074(3) 0.2967(3)
H100 H 0.8865(6) 0.8223(3) 0.3448(3)
O18 O 1.0105(4) 0.7979(2) 0.3557(2)
C95 C 1.0816(6) 0.8487(3) 0.3515(2)
C96 C 1.0705(7) 0.8991(3) 0.3309(3)
H101 H 1.0086(7) 0.9002(3) 0.3184(3)
C97 C 1.1479(8) 0.9487(4) 0.3280(3)
H102 H 1.1384(8) 0.9831(4) 0.3133(3)
C98 C 1.2377(8) 0.9484(4) 0.3460(3)
H103 H 1.2914(8) 0.9817(4) 0.3431(3)
C99 C 1.2489(7) 0.8974(4) 0.3689(3)
H104 H 1.3102(7) 0.8972(4) 0.3827(3)
C100 C 1.1728(6) 0.8482(3) 0.3717(2)
O19 O 1.1798(4) 0.7967(2) 0.3927(2)
C101 C 1.2745(6) 0.7958(4) 0.4094(3)
H105 H 1.2962(6) 0.8264(4) 0.4349(3)
H106 H 1.3214(6) 0.8043(4) 0.3831(3)
C102 C 1.2705(6) 0.7355(4) 0.4284(2)
H107 H 1.2375(6) 0.7045(4) 0.4049(2)
H108 H 1.3374(6) 0.7311(4) 0.4340(2)
O20 O 1.2184(4) 0.7290(2) 0.4720(2)
C103 C 1.2146(6) 0.6784(3) 0.4960(3)
C104 C 1.2546(7) 0.6322(4) 0.4807(3)
H109 H 1.2883(7) 0.6349(4) 0.4515(3)
C105 C 1.2455(7) 0.5831(4) 0.5076(3)
H110 H 1.2722(7) 0.5518(4) 0.4964(3)
C106 C 1.1992(7) 0.5781(4) 0.5500(3)
H111 H 1.1947(7) 0.5442(4) 0.5686(3)
C107 C 1.1578(6) 0.6243(3) 0.5658(3)
H112 H 1.1239(6) 0.6212(3) 0.5950(3)
C108 C 1.1665(5) 0.6732(3) 0.5392(2)
O21 O 1.1283(4) 0.7206(2) 0.5520(2)
C109 C 1.0870(6) 0.7195(3) 0.5987(2)
H113 H 1.1343(6) 0.7131(3) 0.6228(2)
H114 H 1.0276(6) 0.6867(3) 0.6001(2)
C110 C 1.0623(6) 0.7775(4) 0.6088(3)
H115 H 1.0497(6) 0.7818(4) 0.6431(3)
H116 H 1.1172(6) 0.8106(4) 0.6000(3)
O22 O 0.9771(4) 0.7784(2) 0.5812(2)
C111 C 0.9384(6) 0.8259(3) 0.5895(2)
C112 C 0.9858(6) 0.8772(4) 0.6141(3)
H117 H 1.0492(6) 0.8813(4) 0.6271(3)
C113 C 0.9393(7) 0.9230(4) 0.6193(3)
H118 H 0.9715(7) 0.9582(4) 0.6363(3)
C114 C 0.8485(7) 0.9182(3) 0.6007(3)
H119 H 0.8178(7) 0.9497(3) 0.6053(3)
C115 C 0.8005(6) 0.8673(3) 0.5749(3)
H120 H 0.7378(6) 0.8640(3) 0.5613(3)
C116 C 0.8466(5) 0.8213(3) 0.5697(2)
O23 O 0.8051(4) 0.7687(2) 0.5452(2)
C117 C 0.7092(5) 0.7626(3) 0.5262(2)
H121 H 0.7087(5) 0.7952(3) 0.5045(2)
H122 H 0.6634(5) 0.7641(3) 0.5523(2)
C118 C 0.6792(5) 0.7040(3) 0.4996(2)
H123 H 0.6958(5) 0.6726(3) 0.5185(2)
H124 H 0.6081(5) 0.6933(3) 0.4934(2)
O24 O 0.7305(4) 0.7098(2) 0.4556(2)
C119 C 0.7139(6) 0.6588(3) 0.4264(2)
C120 C 0.6592(6) 0.6050(3) 0.4392(3)
H125 H 0.6303(6) 0.5998(3) 0.4697(3)
C121 C 0.6470(7) 0.5574(4) 0.4060(3)
H126 H 0.6092(7) 0.5193(4) 0.4139(3)
C122 C 0.6898(7) 0.5660(4) 0.3623(3)
H127 H 0.6805(7) 0.5337(4) 0.3400(3)
C123 C 0.7457(7) 0.6202(4) 0.3501(3)
H128 H 0.7747(7) 0.6253(4) 0.3196(3)
C124 C 0.7599(6) 0.6679(3) 0.3828(3)
N3 N 1.0383(6) 0.7709(3) 0.4717(3)
H129 H 1.0671(6) 0.7653(3) 0.4992(3)
H130 H 1.0806(6) 0.7707(3) 0.4480(3)
C125 C 0.9481(7) 0.7220(4) 0.4630(5)
H131 H 0.9090(7) 0.7329(4) 0.4370(5)
H132 H 0.9084(7) 0.7169(4) 0.4921(5)
C126 C 1.0092(7) 0.6568(4) 0.4051(3)
H133 H 1.0236(7) 0.6887(4) 0.3839(3)
C127 C 1.0250(8) 0.6023(5) 0.3914(4)
H134 H 1.0503(12) 0.5971(7) 0.3608(4)
C128 C 1.0039(9) 0.5556(3) 0.4223(5)
H135 H 1.0147(13) 0.5184(4) 0.4129(7)
C129 C 0.9670(10) 0.5633(4) 0.4670(5)
H136 H 0.9526(14) 0.5313(5) 0.4882(6)
C130 C 0.9511(8) 0.6177(4) 0.4808(3)
H137 H 0.9259(12) 0.6229(6) 0.5113(3)
C131 C 0.9722(7) 0.6644(3) 0.4498(3)
C132 C 1.0126(7) 0.8287(4) 0.4740(4)
H138 H 0.9589(7) 0.8259(4) 0.4968(4)
H139 H 0.9877(7) 0.8359(4) 0.4423(4)
C133 C 1.1842(6) 0.8753(3) 0.5042(3)
H140 H 1.1961(6) 0.8371(3) 0.5057(3)
C134 C 1.2570(5) 0.9250(4) 0.5176(4)
H141 H 1.3187(6) 0.9208(5) 0.5282(5)
C135 C 1.2396(7) 0.9809(3) 0.5154(4)
H142 H 1.2894(9) 1.0149(4) 0.5246(6)
C136 C 1.1494(8) 0.9870(3) 0.4999(5)
H143 H 1.1375(11) 1.0252(3) 0.4984(7)
C137 C 1.0766(6) 0.9373(4) 0.4865(4)
H144 H 1.0150(7) 0.9415(5) 0.4759(6)
C138 C 1.0940(5) 0.8814(3) 0.4887(3)
O25 O 0.2795(4) 0.7884(3) 0.2234(2)
C139 C 0.2246(7) 0.7775(4) 0.2656(3)
H145 H 0.1565(7) 0.7789(4) 0.2590(3)
H146 H 0.2524(7) 0.8084(4) 0.2902(3)
C140 C 0.2264(7) 0.7172(4) 0.2838(3)
H147 H 0.1740(7) 0.7038(4) 0.3070(3)
H148 H 0.2174(7) 0.6877(4) 0.2572(3)
O26 O 0.3199(4) 0.7244(2) 0.3060(2)
C141 C 0.3372(7) 0.6754(3) 0.3271(3)
C142 C 0.2698(8) 0.6205(4) 0.3280(3)
H149 H 0.2084(8) 0.6147(4) 0.3124(3)
C143 C 0.2931(11) 0.5743(4) 0.3520(4)
H150 H 0.2479(11) 0.5367(4) 0.3524(4)
C144 C 0.3813(9) 0.5830(4) 0.3751(4)
H151 H 0.3962(9) 0.5517(4) 0.3921(4)
C145 C 0.4487(8) 0.6369(4) 0.3740(3)
H152 H 0.5103(8) 0.6420(4) 0.3893(3)
C146 C 0.4268(7) 0.6839(3) 0.3506(3)
O27 O 0.4873(4) 0.7396(2) 0.3494(2)
C147 C 0.5758(6) 0.7485(4) 0.3751(3)
H153 H 0.6140(6) 0.7216(4) 0.3621(3)
H154 H 0.5623(6) 0.7391(4) 0.4089(3)
C148 C 0.6329(7) 0.8110(4) 0.3717(3)
H155 H 0.5893(7) 0.8379(4) 0.3758(3)
H156 H 0.6833(7) 0.8205(4) 0.3973(3)
O28 O 0.6781(4) 0.8191(2) 0.3261(2)
C149 C 0.7387(6) 0.8727(3) 0.3177(2)
C150 C 0.7634(6) 0.9198(3) 0.3510(3)
H157 H 0.7354(6) 0.9161(3) 0.3817(3)
C151 C 0.8291(7) 0.9721(3) 0.3391(3)
H158 H 0.8451(7) 1.0039(3) 0.3619(3)
C152 C 0.8709(6) 0.9787(3) 0.2957(3)
H159 H 0.9159(6) 1.0147(3) 0.2883(3)
C153 C 0.8469(6) 0.9314(3) 0.2614(3)
H160 H 0.8752(6) 0.9354(3) 0.2307(3)
C154 C 0.7821(6) 0.8799(3) 0.2733(2)
O29 O 0.7543(4) 0.8311(2) 0.2420(2)
C155 C 0.8080(6) 0.8325(3) 0.1985(2)
H161 H 0.8788(6) 0.8420(3) 0.2056(2)
H162 H 0.7947(6) 0.8630(3) 0.1775(2)
C156 C 0.7759(6) 0.7727(3) 0.1747(3)
H163 H 0.8233(6) 0.7682(3) 0.1501(3)
H164 H 0.7733(6) 0.7418(3) 0.1984(3)
O30 O 0.6821(4) 0.7656(2) 0.1532(2)
C157 C 0.6436(5) 0.7116(3) 0.1296(2)
C158 C 0.6899(6) 0.6651(3) 0.1302(3)
H165 H 0.7512(6) 0.6698(3) 0.1457(3)
C159 C 0.6434(7) 0.6116(4) 0.1072(3)
H166 H 0.6733(7) 0.5795(4) 0.1075(3)
C160 C 0.5571(7) 0.6050(4) 0.0848(3)
H167 H 0.5273(7) 0.5682(4) 0.0693(3)
C161 C 0.5099(6) 0.6514(3) 0.0839(3)
H168 H 0.4491(6) 0.6463(3) 0.0678(3)
C162 C 0.5541(6) 0.7044(3) 0.1068(2)
O31 O 0.5150(4) 0.7525(2) 0.1084(2)
C163 C 0.4244(6) 0.7466(3) 0.0834(3)
H169 H 0.3752(6) 0.7122(3) 0.0950(3)
H170 H 0.4331(6) 0.7402(3) 0.0489(3)
C164 C 0.3910(6) 0.8018(4) 0.0916(2)
H171 H 0.4443(6) 0.8371(4) 0.0857(2)
H172 H 0.3353(6) 0.8021(4) 0.0702(2)
O32 O 0.3619(4) 0.8014(2) 0.1412(2)
C165 C 0.3205(6) 0.8460(4) 0.1564(3)
C166 C 0.3237(7) 0.8965(4) 0.1311(3)
H173 H 0.3531(7) 0.9017(4) 0.1008(3)
C167 C 0.2819(8) 0.9402(4) 0.1517(4)
H174 H 0.2811(8) 0.9745(4) 0.1344(4)
C168 C 0.2433(8) 0.9339(5) 0.1956(3)
H175 H 0.2169(8) 0.9641(5) 0.2091(3)
C169 C 0.2419(7) 0.8844(4) 0.2205(3)
H176 H 0.2142(7) 0.8804(4) 0.2513(3)
C170 C 0.2805(7) 0.8397(4) 0.2014(3)
N4 N 0.5332(5) 0.8163(3) 0.2029(2)
H177 H 0.4835(5) 0.8081(3) 0.1817(2)
H178 H 0.5855(5) 0.8086(3) 0.1887(2)
C171 C 0.5072(7) 0.7778(3) 0.2445(2)
H179 H 0.4446(7) 0.7824(3) 0.2574(2)
H180 H 0.5577(7) 0.7909(3) 0.2698(2)
C172 C 0.4186(4) 0.6819(3) 0.2057(2)
H181 H 0.3697(4) 0.7005(3) 0.1956(2)
C173 C 0.4104(6) 0.6227(3) 0.1939(2)
H182 H 0.3560(7) 0.6008(4) 0.1756(3)
C174 C 0.4819(7) 0.5955(2) 0.2087(3)
H183 H 0.4763(10) 0.5550(2) 0.2006(4)
C175 C 0.5615(6) 0.6274(3) 0.2354(3)
H184 H 0.6104(8) 0.6088(4) 0.2455(4)
C176 C 0.5697(4) 0.6866(3) 0.2472(2)
H185 H 0.6241(5) 0.7085(4) 0.2654(3)
C177 C 0.4982(4) 0.7139(2) 0.2324(2)
C178 C 0.5557(7) 0.8811(3) 0.2177(3)
H186 H 0.5039(7) 0.8877(3) 0.2390(3)
H187 H 0.6179(7) 0.8916(3) 0.2359(3)
C179 C 0.6073(4) 0.9113(2) 0.1341(2)
H188 H 0.6335(4) 0.8778(2) 0.1305(2)
C180 C 0.6129(4) 0.9503(2) 0.09712(14)
H189 H 0.6430(6) 0.9434(3) 0.0682(2)
C181 C 0.5745(5) 0.9993(2) 0.1024(2)
H190 H 0.5783(7) 1.0259(3) 0.0771(2)
C182 C 0.5304(5) 1.0094(2) 0.1448(2)
H191 H 0.5042(7) 1.0429(3) 0.1484(3)
C183 C 0.5248(4) 0.9704(2) 0.1818(2)
H192 H 0.4947(6) 0.9773(3) 0.2107(2)
C184 C 0.5632(4) 0.9214(2) 0.17647(14)
P1 P 0.5258(2) 0.85285(9) 0.96606(7)
F1 F 0.6336(4) 0.8686(2) 0.9451(2)
F2 F 0.4828(4) 0.8571(3) 0.9142(2)
F3 F 0.5189(5) 0.7843(2) 0.9563(2)
F4 F 0.5689(4) 0.8476(2) 1.0178(2)
F5 F 0.5311(4) 0.9205(2) 0.9765(2)
F6 F 0.4187(4) 0.8354(2) 0.9870(2)
P2 P -0.0449(2) 0.62066(13) 0.70365(9)
F7 F 0.0634(4) 0.6316(3) 0.6853(2)
F8 F -0.0842(5) 0.6171(3) 0.6499(2)
F9 F -0.0556(5) 0.5509(3) 0.7021(2)
F10 F -0.0067(5) 0.6247(3) 0.7568(2)
F11 F -0.0338(5) 0.6908(3) 0.7041(3)
F12 F -0.1530(5) 0.6106(4) 0.7224(3)
P3 P 0.5200(2) 0.86114(10) 0.49573(7)
F13 F 0.4111(4) 0.8457(3) 0.5138(2)
F14 F 0.5601(4) 0.8607(3) 0.5491(2)
F15 F 0.5262(5) 0.9297(2) 0.5019(2)
F16 F 0.4812(4) 0.8620(3) 0.4426(2)
F17 F 0.5140(5) 0.7922(2) 0.4902(2)
F18 F 0.6295(4) 0.8757(2) 0.4774(2)
P4 P -0.0450(2) 0.66833(10) 0.21423(7)
F19 F 0.0643(4) 0.6771(3) 0.1972(2)
F20 F -0.0755(4) 0.6884(3) 0.1637(2)
F21 F -0.0704(5) 0.6027(3) 0.1942(3)
F22 F -0.0160(5) 0.6489(3) 0.2643(2)
F23 F -0.0224(5) 0.7354(3) 0.2323(3)
F24 F -0.1546(4) 0.6595(2) 0.2315(2)
N5 N 0.5055(10) 0.9385(6) 0.3267(4)
C185 C 0.5073(9) 0.9645(5) 0.3604(4)
C186 C 0.5047(9) 0.9999(4) 0.4040(4)
H193 H 0.5067(9) 1.0407(4) 0.3957(4)
H194 H 0.5611(9) 0.9996(4) 0.4243(4)
H195 H 0.4447(9) 0.9832(4) 0.4211(4)
C187 C 0.6271(8) 0.5640(5) 0.7620(5)
C188 C 0.6406(12) 0.5225(6) 0.7187(5)
N6 N 0.5302(18) 0.5101(9) 0.6894(7)
C189 C 0.0638(17) 0.5116(9) 0.1964(6)
H196 H 0.0271(17) 0.5422(9) 0.2009(6)
H197 H 0.0443(17) 0.4832(9) 0.2222(6)
Cl1 Cl 0.0225(4) 0.4735(3) 0.1425(2)
Cl2 Cl 0.1712(5) 0.5419(3) 0.2046(2)
N7? N 1.0237(17) 0.7423(7) 0.4540(9)
H198? H 1.0823(17) 0.7429(7) 0.4668(9)
H199? H 1.0314(17) 0.7490(7) 0.4227(9)
C190? C 0.9554(19) 0.6831(7) 0.4606(10)
H200? H 0.8903(19) 0.6832(7) 0.4477(10)
H201? H 0.9489(19) 0.6754(7) 0.4950(10)
C191? C 1.0110(19) 0.6379(8) 0.3877(6)
H202? H 1.0084(19) 0.6725(8) 0.3711(6)
C192? C 1.0346(21) 0.5908(10) 0.3635(6)
H203? H 1.0482(31) 0.5931(14) 0.3305(6)
C193? C 1.0384(21) 0.5402(9) 0.3877(8)
H204? H 1.0546(29) 0.5080(12) 0.3712(10)
C194? C 1.0186(22) 0.5368(8) 0.4361(8)
H205? H 1.0212(32) 0.5023(10) 0.4526(10)
C195? C 0.9949(21) 0.5840(9) 0.4602(6)
H206? H 0.9813(31) 0.5816(12) 0.4932(6)
C196? C 0.9911(18) 0.6345(7) 0.4360(6)
C197? C 0.9851(15) 0.7895(7) 0.4769(10)
H207? H 0.9650(15) 0.7775(7) 0.5095(10)
H208? H 0.9262(15) 0.7924(7) 0.4590(10)
C198? C 1.1467(15) 0.8573(8) 0.5005(9)
H209? H 1.1662(15) 0.8242(8) 0.5122(9)
C199? C 1.2101(14) 0.9132(10) 0.5039(10)
H210? H 1.2729(17) 0.9183(14) 0.5179(14)
C200? C 1.1816(19) 0.9617(8) 0.4867(10)
H211? H 1.2250(24) 1.0000(9) 0.4890(15)
C201? C 1.0898(20) 0.9543(8) 0.4661(11)
H212? H 1.0703(27) 0.9875(10) 0.4544(17)
C202? C 1.0263(16) 0.8984(9) 0.4627(10)
H213? H 0.9635(18) 0.8934(13) 0.4487(15)
C203? C 1.0548(14) 0.8499(7) 0.4799(9)
N8? N 0.6157(11) 0.5926(8) 0.7837(5)
loop_
_geom_bond_atom_site_label_1
_geom_bond_atom_site_label_2
_geom_bond_site_symmetry_1
_geom_bond_site_symmetry_2
O1 C1 1_555 1_555
C1 H1 1_555 1_555
H2 C1 1_555 1_555
C2 C1 1_555 1_555
H3 C2 1_555 1_555
H4 C2 1_555 1_555
O2 C2 1_555 1_555
C3 O2 1_555 1_555
C4 C3 1_555 1_555
H5 C4 1_555 1_555
C5 C4 1_555 1_555
H6 C5 1_555 1_555
C6 C5 1_555 1_555
H7 C6 1_555 1_555
C7 C6 1_555 1_555
H8 C7 1_555 1_555
C8 C3 1_555 1_555
O3 C8 1_555 1_555
C9 O3 1_555 1_555
H9 C9 1_555 1_555
H10 C9 1_555 1_555
C10 C9 1_555 1_555
H11 C10 1_555 1_555
H12 C10 1_555 1_555
O4 C10 1_555 1_555
C11 O4 1_555 1_555
C12 C11 1_555 1_555
H13 C12 1_555 1_555
C13 C12 1_555 1_555
H14 C13 1_555 1_555
C14 C13 1_555 1_555
H15 C14 1_555 1_555
C15 C14 1_555 1_555
H16 C15 1_555 1_555
C16 C11 1_555 1_555
O5 C16 1_555 1_555
C17 O5 1_555 1_555
H17 C17 1_555 1_555
H18 C17 1_555 1_555
C18 C17 1_555 1_555
H19 C18 1_555 1_555
H20 C18 1_555 1_555
O6 C18 1_555 1_555
C19 O6 1_555 1_555
C20 C19 1_555 1_555
H21 C20 1_555 1_555
C21 C20 1_555 1_555
H22 C21 1_555 1_555
C22 C21 1_555 1_555
H23 C22 1_555 1_555
C23 C22 1_555 1_555
H24 C23 1_555 1_555
C24 C19 1_555 1_555
O7 C24 1_555 1_555
C25 O7 1_555 1_555
H25 C25 1_555 1_555
H26 C25 1_555 1_555
C26 C25 1_555 1_555
H27 C26 1_555 1_555
H28 C26 1_555 1_555
O8 C26 1_555 1_555
C27 O8 1_555 1_555
C28 C27 1_555 1_555
H29 C28 1_555 1_555
C29 C28 1_555 1_555
H30 C29 1_555 1_555
C30 C29 1_555 1_555
H31 C30 1_555 1_555
C31 C30 1_555 1_555
H32 C31 1_555 1_555
C32 O1 1_555 1_555
N1 H33 1_555 1_555
H34 N1 1_555 1_555
C33 N1 1_555 1_555
H35 C33 1_555 1_555
H36 C33 1_555 1_555
C34 H37 1_555 1_555
C35 C34 1_555 1_555
H38 C35 1_555 1_555
C36 C35 1_555 1_555
H39 C36 1_555 1_555
C37 C36 1_555 1_555
H40 C37 1_555 1_555
C38 C37 1_555 1_555
H41 C38 1_555 1_555
C39 C33 1_555 1_555
C40 N1 1_555 1_555
H42 C40 1_555 1_555
H43 C40 1_555 1_555
C41 H44 1_555 1_555
C42 C41 1_555 1_555
H45 C42 1_555 1_555
C43 C42 1_555 1_555
H46 C43 1_555 1_555
C44 C43 1_555 1_555
H47 C44 1_555 1_555
C45 C44 1_555 1_555
H48 C45 1_555 1_555
C46 C40 1_555 1_555
O9 C47 1_555 1_555
C47 H49 1_555 1_555
H50 C47 1_555 1_555
C48 C47 1_555 1_555
H51 C48 1_555 1_555
H52 C48 1_555 1_555
O10 C48 1_555 1_555
C49 O10 1_555 1_555
C50 C49 1_555 1_555
H53 C50 1_555 1_555
C51 C50 1_555 1_555
H54 C51 1_555 1_555
C52 C51 1_555 1_555
H55 C52 1_555 1_555
C53 C52 1_555 1_555
H56 C53 1_555 1_555
C54 C49 1_555 1_555
O11 C54 1_555 1_555
C55 O11 1_555 1_555
H57 C55 1_555 1_555
H58 C55 1_555 1_555
C56 C55 1_555 1_555
H59 C56 1_555 1_555
H60 C56 1_555 1_555
O12 C56 1_555 1_555
C57 O12 1_555 1_555
C58 C57 1_555 1_555
H61 C58 1_555 1_555
C59 C58 1_555 1_555
H62 C59 1_555 1_555
C60 C59 1_555 1_555
H63 C60 1_555 1_555
C61 C60 1_555 1_555
H64 C61 1_555 1_555
C62 C57 1_555 1_555
O13 C62 1_555 1_555
C63 O13 1_555 1_555
H65 C63 1_555 1_555
H66 C63 1_555 1_555
C64 C63 1_555 1_555
H67 C64 1_555 1_555
H68 C64 1_555 1_555
O14 C64 1_555 1_555
C65 O14 1_555 1_555
C66 C65 1_555 1_555
H69 C66 1_555 1_555
C67 C66 1_555 1_555
H70 C67 1_555 1_555
C68 C67 1_555 1_555
H71 C68 1_555 1_555
C69 C68 1_555 1_555
H72 C69 1_555 1_555
C70 C65 1_555 1_555
O15 C70 1_555 1_555
C71 O15 1_555 1_555
H73 C71 1_555 1_555
H74 C71 1_555 1_555
C72 C71 1_555 1_555
H75 C72 1_555 1_555
H76 C72 1_555 1_555
O16 C72 1_555 1_555
C73 O16 1_555 1_555
C74 C73 1_555 1_555
H77 C74 1_555 1_555
C75 C74 1_555 1_555
H78 C75 1_555 1_555
C76 C75 1_555 1_555
H79 C76 1_555 1_555
C77 C76 1_555 1_555
H80 C77 1_555 1_555
C78 O9 1_555 1_555
N2 H81 1_555 1_555
H82 N2 1_555 1_555
C79 N2 1_555 1_555
H83 C79 1_555 1_555
H84 C79 1_555 1_555
C80 H85 1_555 1_555
C81 C80 1_555 1_555
H86 C81 1_555 1_555
C82 C81 1_555 1_555
H87 C82 1_555 1_555
C83 C82 1_555 1_555
H88 C83 1_555 1_555
C84 C83 1_555 1_555
H89 C84 1_555 1_555
C85 C79 1_555 1_555
C86 N2 1_555 1_555
H90 C86 1_555 1_555
H91 C86 1_555 1_555
C87 H92 1_555 1_555
C88 C87 1_555 1_555
H93 C88 1_555 1_555
C89 C88 1_555 1_555
H94 C89 1_555 1_555
C90 C89 1_555 1_555
H95 C90 1_555 1_555
C91 C90 1_555 1_555
H96 C91 1_555 1_555
C92 C86 1_555 1_555
O17 C93 1_555 1_555
C93 H97 1_555 1_555
H98 C93 1_555 1_555
C94 C93 1_555 1_555
H99 C94 1_555 1_555
H100 C94 1_555 1_555
O18 C94 1_555 1_555
C95 O18 1_555 1_555
C96 C95 1_555 1_555
H101 C96 1_555 1_555
C97 C96 1_555 1_555
H102 C97 1_555 1_555
C98 C97 1_555 1_555
H103 C98 1_555 1_555
C99 C98 1_555 1_555
H104 C99 1_555 1_555
C100 C95 1_555 1_555
O19 C100 1_555 1_555
C101 O19 1_555 1_555
H105 C101 1_555 1_555
H106 C101 1_555 1_555
C102 C101 1_555 1_555
H107 C102 1_555 1_555
H108 C102 1_555 1_555
O20 C102 1_555 1_555
C103 O20 1_555 1_555
C104 C103 1_555 1_555
H109 C104 1_555 1_555
C105 C104 1_555 1_555
H110 C105 1_555 1_555
C106 C105 1_555 1_555
H111 C106 1_555 1_555
C107 C106 1_555 1_555
H112 C107 1_555 1_555
C108 C103 1_555 1_555
O21 C108 1_555 1_555
C109 O21 1_555 1_555
H113 C109 1_555 1_555
H114 C109 1_555 1_555
C110 C109 1_555 1_555
H115 C110 1_555 1_555
H116 C110 1_555 1_555
O22 C110 1_555 1_555
C111 O22 1_555 1_555
C112 C111 1_555 1_555
H117 C112 1_555 1_555
C113 C112 1_555 1_555
H118 C113 1_555 1_555
C114 C113 1_555 1_555
H119 C114 1_555 1_555
C115 C114 1_555 1_555
H120 C115 1_555 1_555
C116 C111 1_555 1_555
O23 C116 1_555 1_555
C117 O23 1_555 1_555
H121 C117 1_555 1_555
H122 C117 1_555 1_555
C118 C117 1_555 1_555
H123 C118 1_555 1_555
H124 C118 1_555 1_555
O24 C118 1_555 1_555
C119 O24 1_555 1_555
C120 C119 1_555 1_555
H125 C120 1_555 1_555
C121 C120 1_555 1_555
H126 C121 1_555 1_555
C122 C121 1_555 1_555
H127 C122 1_555 1_555
C123 C122 1_555 1_555
H128 C123 1_555 1_555
C124 O17 1_555 1_555
N3 H129 1_555 1_555
H130 N3 1_555 1_555
C125 N3 1_555 1_555
H131 C125 1_555 1_555
H132 C125 1_555 1_555
C126 H133 1_555 1_555
C127 C126 1_555 1_555
H134 C127 1_555 1_555
C128 C127 1_555 1_555
H135 C128 1_555 1_555
C129 C128 1_555 1_555
H136 C129 1_555 1_555
C130 C129 1_555 1_555
H137 C130 1_555 1_555
C131 C125 1_555 1_555
C132 N3 1_555 1_555
H138 C132 1_555 1_555
H139 C132 1_555 1_555
C133 H140 1_555 1_555
C134 C133 1_555 1_555
H141 C134 1_555 1_555
C135 C134 1_555 1_555
H142 C135 1_555 1_555
C136 C135 1_555 1_555
H143 C136 1_555 1_555
C137 C136 1_555 1_555
H144 C137 1_555 1_555
C138 C132 1_555 1_555
O25 C139 1_555 1_555
C139 H145 1_555 1_555
H146 C139 1_555 1_555
C140 C139 1_555 1_555
H147 C140 1_555 1_555
H148 C140 1_555 1_555
O26 C140 1_555 1_555
C141 O26 1_555 1_555
C142 C141 1_555 1_555
H149 C142 1_555 1_555
C143 C142 1_555 1_555
H150 C143 1_555 1_555
C144 C143 1_555 1_555
H151 C144 1_555 1_555
C145 C144 1_555 1_555
H152 C145 1_555 1_555
C146 C141 1_555 1_555
O27 C146 1_555 1_555
C147 O27 1_555 1_555
H153 C147 1_555 1_555
H154 C147 1_555 1_555
C148 C147 1_555 1_555
H155 C148 1_555 1_555
H156 C148 1_555 1_555
O28 C148 1_555 1_555
C149 O28 1_555 1_555
C150 C149 1_555 1_555
H157 C150 1_555 1_555
C151 C150 1_555 1_555
H158 C151 1_555 1_555
C152 C151 1_555 1_555
H159 C152 1_555 1_555
C153 C152 1_555 1_555
H160 C153 1_555 1_555
C154 C149 1_555 1_555
O29 C154 1_555 1_555
C155 O29 1_555 1_555
H161 C155 1_555 1_555
H162 C155 1_555 1_555
C156 C155 1_555 1_555
H163 C156 1_555 1_555
H164 C156 1_555 1_555
O30 C156 1_555 1_555
C157 O30 1_555 1_555
C158 C157 1_555 1_555
H165 C158 1_555 1_555
C159 C158 1_555 1_555
H166 C159 1_555 1_555
C160 C159 1_555 1_555
H167 C160 1_555 1_555
C161 C160 1_555 1_555
H168 C161 1_555 1_555
C162 C157 1_555 1_555
O31 C162 1_555 1_555
C163 O31 1_555 1_555
H169 C163 1_555 1_555
H170 C163 1_555 1_555
C164 C163 1_555 1_555
H171 C164 1_555 1_555
H172 C164 1_555 1_555
O32 C164 1_555 1_555
C165 O32 1_555 1_555
C166 C165 1_555 1_555
H173 C166 1_555 1_555
C167 C166 1_555 1_555
H174 C167 1_555 1_555
C168 C167 1_555 1_555
H175 C168 1_555 1_555
C169 C168 1_555 1_555
H176 C169 1_555 1_555
C170 O25 1_555 1_555
N4 H177 1_555 1_555
H178 N4 1_555 1_555
C171 N4 1_555 1_555
H179 C171 1_555 1_555
H180 C171 1_555 1_555
C172 H181 1_555 1_555
C173 C172 1_555 1_555
H182 C173 1_555 1_555
C174 C173 1_555 1_555
H183 C174 1_555 1_555
C175 C174 1_555 1_555
H184 C175 1_555 1_555
C176 C175 1_555 1_555
H185 C176 1_555 1_555
C177 C171 1_555 1_555
C178 N4 1_555 1_555
H186 C178 1_555 1_555
H187 C178 1_555 1_555
C179 H188 1_555 1_555
C180 C179 1_555 1_555
H189 C180 1_555 1_555
C181 C180 1_555 1_555
H190 C181 1_555 1_555
C182 C181 1_555 1_555
H191 C182 1_555 1_555
C183 C182 1_555 1_555
H192 C183 1_555 1_555
C184 C178 1_555 1_555
P1 F1 1_555 1_555
F2 P1 1_555 1_555
F3 P1 1_555 1_555
F4 P1 1_555 1_555
F5 P1 1_555 1_555
F6 P1 1_555 1_555
P2 F7 1_555 1_555
F8 P2 1_555 1_555
F9 P2 1_555 1_555
F10 P2 1_555 1_555
F11 P2 1_555 1_555
F12 P2 1_555 1_555
P3 F13 1_555 1_555
F14 P3 1_555 1_555
F15 P3 1_555 1_555
F16 P3 1_555 1_555
F17 P3 1_555 1_555
F18 P3 1_555 1_555
P4 F19 1_555 1_555
F20 P4 1_555 1_555
F21 P4 1_555 1_555
F22 P4 1_555 1_555
F23 P4 1_555 1_555
F24 P4 1_555 1_555
N5 C185 1_555 1_555
C185 C186 1_555 1_555
C186 H193 1_555 1_555
H194 C186 1_555 1_555
H195 C186 1_555 1_555
C187 C188 1_555 1_555
C188 N6 1_555 1_555
C189 H196 1_555 1_555
H197 C189 1_555 1_555
Cl1 C189 1_555 1_555
Cl2 C189 1_555 1_555
C7 C8 1_555 1_555
C15 C16 1_555 1_555
C23 C24 1_555 1_555
C27 C32 1_555 1_555
C31 C32 1_555 1_555
C34 C39 1_555 1_555
C38 C39 1_555 1_555
C41 C46 1_555 1_555
C45 C46 1_555 1_555
C53 C54 1_555 1_555
C61 C62 1_555 1_555
C69 C70 1_555 1_555
C73 C78 1_555 1_555
C77 C78 1_555 1_555
C80 C85 1_555 1_555
C84 C85 1_555 1_555
C87 C92 1_555 1_555
C91 C92 1_555 1_555
C99 C100 1_555 1_555
C107 C108 1_555 1_555
C115 C116 1_555 1_555
C119 C124 1_555 1_555
C123 C124 1_555 1_555
C126 C131 1_555 1_555
C130 C131 1_555 1_555
C133 C138 1_555 1_555
C137 C138 1_555 1_555
C145 C146 1_555 1_555
C153 C154 1_555 1_555
C161 C162 1_555 1_555
C165 C170 1_555 1_555
C169 C170 1_555 1_555
C172 C177 1_555 1_555
C176 C177 1_555 1_555
C179 C184 1_555 1_555
C183 C184 1_555 1_555

#END
