
#######################################################################
#
#                 Cambridge Crystallographic Data Centre
#                                CCDC 
#
#######################################################################
#
# If this CIF has been generated from an entry in the Cambridge 
# Structural Database, then it will include bibliographic, chemical, 
# crystal, experimental, refinement or atomic coordinate data resulting 
# from the CCDC's data processing and validation procedures.
#
#######################################################################

data_LOTYAW
_chemical_formula_moiety         'C41 H36 N4 S1'
_chemical_name_systematic        
4'-(4-(2-(10-hexyl-10H-phenothiazin-3-yl)vinyl)phenyl)-2,2':6',2''-terpyridine
_symmetry_cell_setting           monoclinic
_symmetry_space_group_name_H-M   'P 21/c'
_symmetry_Int_Tables_number      14
_space_group_name_Hall           '-P 2ybc'
loop_
_symmetry_equiv_pos_site_id
_symmetry_equiv_pos_as_xyz
1 x,y,z
2 -x,1/2+y,1/2-z
3 -x,-y,-z
4 x,1/2-y,1/2+z
_cell_length_a                   17.257(5)
_cell_length_b                   18.630(5)
_cell_length_c                   10.792(5)
_cell_angle_alpha                90
_cell_angle_beta                 107.130(5)
_cell_angle_gamma                90
_cell_volume                     3315.69
_cell_formula_units_Z            4
loop_
_atom_site_label
_atom_site_type_symbol
_atom_site_fract_x
_atom_site_fract_y
_atom_site_fract_z
S1 S 0.51734(5) 0.24782(4) 0.35681(9)
N1 N 0.03252(10) 0.16380(9) -0.93707(16)
N2 N 0.45657(11) 0.13783(9) 0.50638(16)
C1 C 0.15236(12) 0.15756(12) -0.52924(19)
C2 C 0.41811(13) 0.13733(11) 0.3721(2)
C3 C 0.09128(12) 0.05173(11) -0.9735(2)
C4 C 0.11062(12) 0.15998(11) -0.67027(19)
C5 C 0.05958(12) 0.21656(11) -0.72640(19)
H1 H 0.0515 0.2545 -0.6756
C6 C 0.12065(12) 0.10557(11) -0.7516(2)
H2 H 0.1534 0.0664 -0.7177
C7 C 0.02102(12) 0.21583(11) -0.8586(2)
C8 C 0.08180(12) 0.10951(11) -0.8837(2)
C9 C -0.03900(13) 0.27263(11) -0.9209(2)
C10 C 0.18684(13) 0.21854(13) -0.4610(2)
H3 H 0.1822 0.2623 -0.5040
C11 C 0.44353(14) 0.18283(12) 0.2896(2)
N3 N 0.13108(11) -0.00727(10) -0.91823(19)
N4 N -0.04617(13) 0.32795(11) -0.84560(19)
C12 C 0.53993(15) 0.15115(13) 0.5534(2)
C13 C 0.40692(19) 0.18058(16) 0.1574(3)
H4 H 0.4260 0.2108 0.1042
C14 C 0.05949(14) 0.05876(13) -1.1058(2)
H5 H 0.0328 0.1006 -1.1417
C15 C -0.08643(14) 0.26625(12) -1.0484(2)
H6 H -0.0804 0.2273 -1.0987
C16 C 0.35320(14) 0.09215(14) 0.3157(2)
H7 H 0.3338 0.0619 0.3683
C17 C 0.23602(17) 0.1525(2) -0.2617(2)
C18 C 0.15932(15) 0.09357(14) -0.4597(2)
H8 H 0.1366 0.0517 -0.5020
C19 C 0.41670(17) 0.10192(15) 0.5927(2)
H9 H 0.3593 0.1130 0.5626
H10 H 0.4379 0.1224 0.6788
C20 C -0.10100(18) 0.37849(13) -0.8987(3)
H11 H -0.1061 0.4173 -0.8476
C21 C 0.57651(15) 0.19900(14) 0.4891(3)
C22 C 0.22756(14) 0.21514(16) -0.3314(2)
H12 H 0.2504 0.2569 -0.2889
C23 C -0.14289(16) 0.31898(15) -1.0991(2)
H13 H -0.1761 0.3157 -1.1842
C24 C 0.31716(17) 0.09118(19) 0.1846(3)
H14 H 0.2740 0.0600 0.1508
C25 C 0.06797(16) 0.00255(17) -1.1843(3)
H15 H 0.0467 0.0061 -1.2739
C26 C 0.13825(15) -0.06074(14) -0.9972(3)
H16 H 0.1656 -0.1021 -0.9600
C27 C 0.10773(17) -0.05805(16) -1.1295(3)
H17 H 0.1140 -0.0966 -1.1805
C28 C 0.19933(18) 0.09184(18) -0.3293(3)
H18 H 0.2020 0.0488 -0.2847
C29 C 0.34240(19) 0.1347(2) 0.1008(3)
C30 C 0.5886(2) 0.11855(18) 0.6660(3)
H19 H 0.5658 0.0869 0.7120
C31 C -0.14969(17) 0.37614(14) -1.0235(3)
H20 H -0.1868 0.4126 -1.0565
C32 C 0.2913(3) 0.1181(4) -0.0328(8)
H21 H 0.2607 0.0763 -0.0520
C33 C 0.2915(4) 0.1655(4) -0.1218(9)
H22 H 0.3242 0.2060 -0.1017
C34 C 0.4003(5) 0.0056(6) 0.7324(9)
H23 H 0.4410 0.0244 0.8079
H24 H 0.3489 0.0286 0.7265
C35 C 0.4130(7) -0.0328(10) 0.7978(12)
H25 H 0.4170 0.0147 0.8361
H26 H 0.4667 -0.0540 0.8197
C36 C 0.3506(11) -0.0836(6) 0.8482(11)
H27 H 0.2948 -0.0680 0.8134
H28 H 0.3550 -0.1337 0.8269
C37 C 0.3800(12) -0.0714(5) 0.9793(12)
H29 H 0.4364 -0.0841 1.0090
H30 H 0.3503 -0.1001 1.0237
H31 H 0.3737 -0.0216 0.9968
C38 C 0.6589(2) 0.2121(2) 0.5317(4)
H32 H 0.6825 0.2424 0.4846
C39 C 0.6708(3) 0.1333(3) 0.7090(4)
H33 H 0.7028 0.1110 0.7836
C40 C 0.4260(2) 0.02092(17) 0.6039(3)
H34 H 0.4815 0.0063 0.6142
H35 H 0.3902 -0.0032 0.5292
C41 C 0.7060(2) 0.1805(3) 0.6433(5)
H36 H 0.7610 0.1907 0.6743
C42? C 0.3930(9) -0.0761(8) 0.7436(14)
H37? H 0.4308 -0.1005 0.7070
H38? H 0.3385 -0.0919 0.6983
C43? C 0.4146(14) -0.0930(8) 0.900(2)
H39? H 0.4413 -0.1390 0.9240
H40? H 0.4464 -0.0552 0.9534
C44? C 0.329(2) -0.0936(17) 0.904(4)
H41? H 0.3111 -0.0452 0.9073
H42? H 0.3259 -0.1194 0.9787
H43? H 0.2958 -0.1165 0.8269
C45? C 0.3193(7) 0.1630(6) -0.0425(12)
H44? H 0.3437 0.2028 -0.0671
C46? C 0.2619(6) 0.1251(5) -0.1252(11)
H45? H 0.2392 0.0843 -0.1003
C47? C 0.3768(6) -0.0294(5) 0.6582(14)
H46? H 0.3214 -0.0123 0.6378
H47? H 0.3763 -0.0767 0.6205
loop_
_geom_bond_atom_site_label_1
_geom_bond_atom_site_label_2
_geom_bond_site_symmetry_1
_geom_bond_site_symmetry_2
S1 C11 1_555 1_555
N1 C7 1_555 1_555
N2 C2 1_555 1_555
C1 C4 1_555 1_555
C2 C11 1_555 1_555
C3 C8 1_555 1_555
C4 C5 1_555 1_555
C5 H1 1_555 1_555
C6 C4 1_555 1_555
H2 C6 1_555 1_555
C7 C5 1_555 1_555
C8 N1 1_555 1_555
C9 C7 1_555 1_555
C10 C1 1_555 1_555
H3 C10 1_555 1_555
C11 C13 1_555 1_555
N3 C3 1_555 1_555
N4 C9 1_555 1_555
C12 N2 1_555 1_555
C13 H4 1_555 1_555
C14 C3 1_555 1_555
H5 C14 1_555 1_555
C15 C9 1_555 1_555
H6 C15 1_555 1_555
C16 C2 1_555 1_555
H7 C16 1_555 1_555
C17 C22 1_555 1_555
C18 C1 1_555 1_555
H8 C18 1_555 1_555
C19 N2 1_555 1_555
H9 C19 1_555 1_555
H10 C19 1_555 1_555
C20 N4 1_555 1_555
H11 C20 1_555 1_555
C21 S1 1_555 1_555
C22 C10 1_555 1_555
H12 C22 1_555 1_555
C23 C15 1_555 1_555
H13 C23 1_555 1_555
C24 C16 1_555 1_555
H14 C24 1_555 1_555
C25 C14 1_555 1_555
H15 C25 1_555 1_555
C26 N3 1_555 1_555
H16 C26 1_555 1_555
C27 C25 1_555 1_555
H17 C27 1_555 1_555
C28 C17 1_555 1_555
H18 C28 1_555 1_555
C29 C13 1_555 1_555
C30 C12 1_555 1_555
H19 C30 1_555 1_555
C31 C20 1_555 1_555
H20 C31 1_555 1_555
C32 C29 1_555 1_555
H21 C32 1_555 1_555
C33 C17 1_555 1_555
H22 C33 1_555 1_555
C34 H23 1_555 1_555
H24 C34 1_555 1_555
C35 C34 1_555 1_555
H25 C35 1_555 1_555
H26 C35 1_555 1_555
C36 C35 1_555 1_555
H27 C36 1_555 1_555
H28 C36 1_555 1_555
C37 C36 1_555 1_555
H29 C37 1_555 1_555
H30 C37 1_555 1_555
H31 C37 1_555 1_555
C38 C21 1_555 1_555
H32 C38 1_555 1_555
C39 C30 1_555 1_555
H33 C39 1_555 1_555
C40 C19 1_555 1_555
H34 C40 1_555 1_555
H35 C40 1_555 1_555
C41 C38 1_555 1_555
H36 C41 1_555 1_555
C6 C8 1_555 1_555
C12 C21 1_555 1_555
C18 C28 1_555 1_555
C23 C31 1_555 1_555
C24 C29 1_555 1_555
C26 C27 1_555 1_555
C32 C33 1_555 1_555
C34 C40 1_555 1_555
C39 C41 1_555 1_555

#END
