
#######################################################################
#
#                 Cambridge Crystallographic Data Centre
#                                CCDC 
#
#######################################################################
#
# If this CIF has been generated from an entry in the Cambridge 
# Structural Database, then it will include bibliographic, chemical, 
# crystal, experimental, refinement or atomic coordinate data resulting 
# from the CCDC's data processing and validation procedures.
#
#######################################################################

data_LOVJIR
_chemical_formula_moiety         'C16 H12 Cl2 N2 O1'
_chemical_name_systematic        
4-(3,4-dichlorophenyl)-2-ethyl-3\l^5^-quinazolin-3-ol
_symmetry_cell_setting           monoclinic
_symmetry_space_group_name_H-M   'P 21/n'
_symmetry_Int_Tables_number      14
_space_group_name_Hall           '-P 2yn'
loop_
_symmetry_equiv_pos_site_id
_symmetry_equiv_pos_as_xyz
1 x,y,z
2 1/2-x,1/2+y,1/2-z
3 -x,-y,-z
4 1/2+x,1/2-y,1/2+z
_cell_length_a                   6.1581(7)
_cell_length_b                   23.877(3)
_cell_length_c                   10.1017(11)
_cell_angle_alpha                90
_cell_angle_beta                 104.4340(10)
_cell_angle_gamma                90
_cell_volume                     1438.44
_cell_formula_units_Z            4
loop_
_atom_site_label
_atom_site_type_symbol
_atom_site_fract_x
_atom_site_fract_y
_atom_site_fract_z
Cl1 Cl 0.78152(10) 0.04924(2) 0.19469(6)
Cl2 Cl 0.30231(10) 0.09550(2) 0.04028(8)
N1 N 0.4607(3) 0.31645(6) 0.23018(16)
N2 N 0.5110(3) 0.41040(6) 0.16508(17)
O1 O 0.3607(3) 0.28377(6) 0.29900(18)
C1 C 0.6057(3) 0.29627(7) 0.16150(18)
C2 C 0.7130(3) 0.33428(8) 0.09037(18)
C3 C 0.6596(3) 0.39166(8) 0.09399(18)
C4 C 0.8998(3) 0.15732(8) 0.2341(2)
H1 H 1.0418 0.1437 0.2759
C5 C 0.8703(3) 0.31671(9) 0.01697(19)
H2 H 0.9041 0.2789 0.0118
C6 C 0.4760(3) 0.19787(8) 0.1080(2)
H3 H 0.3340 0.2114 0.0656
C7 C 0.7291(3) 0.12032(8) 0.17814(19)
C8 C 0.4175(3) 0.37486(8) 0.23021(19)
C9 C 0.2589(3) 0.39216(9) 0.3127(2)
H4 H 0.3106 0.3770 0.4042
H5 H 0.1127 0.3761 0.2722
C10 C 0.6481(3) 0.23505(7) 0.16690(19)
C11 C 0.5177(3) 0.14077(8) 0.1132(2)
C12 C 0.9715(4) 0.35613(10) -0.0460(2)
H6 H 1.0782 0.3449 -0.0915
C13 C 0.7622(4) 0.43089(9) 0.0244(2)
H7 H 0.7249 0.4686 0.0243
C14 C 0.9175(4) 0.41305(10) -0.0433(2)
H8 H 0.9873 0.4390 -0.0877
C15 C 0.8606(3) 0.21451(8) 0.2283(2)
H9 H 0.9766 0.2392 0.2655
C16 C 0.2349(4) 0.45508(9) 0.3222(3)
H10 H 0.1310 0.4635 0.3763
H11 H 0.1803 0.4704 0.2322
H12 H 0.3782 0.4712 0.3643
loop_
_geom_bond_atom_site_label_1
_geom_bond_atom_site_label_2
_geom_bond_site_symmetry_1
_geom_bond_site_symmetry_2
Cl1 C7 1_555 1_555
Cl2 C11 1_555 1_555
N1 O1 1_555 1_555
N2 C3 1_555 1_555
C1 N1 1_555 1_555
C2 C1 1_555 1_555
C3 C2 1_555 1_555
C4 H1 1_555 1_555
C5 C2 1_555 1_555
H2 C5 1_555 1_555
C6 H3 1_555 1_555
C7 C4 1_555 1_555
C8 N1 1_555 1_555
C9 C8 1_555 1_555
H4 C9 1_555 1_555
H5 C9 1_555 1_555
C10 C1 1_555 1_555
C11 C6 1_555 1_555
C12 C5 1_555 1_555
H6 C12 1_555 1_555
C13 C3 1_555 1_555
H7 C13 1_555 1_555
C14 C12 1_555 1_555
H8 C14 1_555 1_555
C15 C4 1_555 1_555
H9 C15 1_555 1_555
C16 C9 1_555 1_555
H10 C16 1_555 1_555
H11 C16 1_555 1_555
H12 C16 1_555 1_555
N2 C8 1_555 1_555
C6 C10 1_555 1_555
C7 C11 1_555 1_555
C10 C15 1_555 1_555
C13 C14 1_555 1_555

#END
