
#######################################################################
#
#                 Cambridge Crystallographic Data Centre
#                                CCDC 
#
#######################################################################
#
# If this CIF has been generated from an entry in the Cambridge 
# Structural Database, then it will include bibliographic, chemical, 
# crystal, experimental, refinement or atomic coordinate data resulting 
# from the CCDC's data processing and validation procedures.
#
#######################################################################

data_LOVJEN
_chemical_formula_moiety         'C14 H10 N2 O1'
_chemical_name_systematic        '4-Phenylquinazoline 3-oxide'
_symmetry_cell_setting           monoclinic
_symmetry_space_group_name_H-M   'P 21/c'
_symmetry_Int_Tables_number      14
_space_group_name_Hall           '-P 2ybc'
loop_
_symmetry_equiv_pos_site_id
_symmetry_equiv_pos_as_xyz
1 x,y,z
2 -x,1/2+y,1/2-z
3 -x,-y,-z
4 x,1/2-y,1/2+z
_cell_length_a                   5.7701(7)
_cell_length_b                   16.055(2)
_cell_length_c                   11.8792(15)
_cell_angle_alpha                90
_cell_angle_beta                 101.568(2)
_cell_angle_gamma                90
_cell_volume                     1078.12
_cell_formula_units_Z            4
loop_
_atom_site_label
_atom_site_type_symbol
_atom_site_fract_x
_atom_site_fract_y
_atom_site_fract_z
O1 O 0.3666(2) 0.66107(8) 0.27474(11)
N1 N 0.2265(2) 0.59960(9) 0.28299(11)
C1 C -0.0476(2) 0.64672(9) 0.11261(12)
C2 C -0.1209(3) 0.51818(9) 0.22940(13)
C3 C 0.0193(2) 0.58757(10) 0.20967(12)
N2 N 0.1773(3) 0.48102(10) 0.39650(12)
C4 C -0.0356(3) 0.46528(10) 0.32447(13)
C5 C -0.3402(3) 0.49877(11) 0.15713(14)
H1 H -0.3990 0.5326 0.0943
C6 C -0.2532(3) 0.69363(10) 0.10053(13)
H2 H -0.3495 0.6888 0.1543
C7 C -0.4661(3) 0.43071(11) 0.17904(16)
H3 H -0.6110 0.4189 0.1314
C8 C 0.2967(3) 0.54431(12) 0.37457(14)
H4 H 0.4413 0.5542 0.4234
C9 C -0.1688(4) 0.39529(12) 0.34352(16)
H5 H -0.1126 0.3602 0.4052
C10 C 0.0934(3) 0.65494(11) 0.03088(14)
H6 H 0.2320 0.6241 0.0382
C11 C 0.0290(3) 0.70857(12) -0.06107(14)
H7 H 0.1232 0.7132 -0.1158
C12 C -0.1744(3) 0.75520(11) -0.07170(14)
H8 H -0.2168 0.7918 -0.1331
C13 C -0.3794(4) 0.37851(12) 0.27238(17)
H9 H -0.4662 0.3321 0.2858
C14 C -0.3149(3) 0.74757(11) 0.00866(14)
H10 H -0.4526 0.7790 0.0011
loop_
_geom_bond_atom_site_label_1
_geom_bond_atom_site_label_2
_geom_bond_site_symmetry_1
_geom_bond_site_symmetry_2
O1 N1 1_555 1_555
N1 C3 1_555 1_555
C1 C3 1_555 1_555
C2 C3 1_555 1_555
N2 C4 1_555 1_555
C4 C2 1_555 1_555
C5 C2 1_555 1_555
H1 C5 1_555 1_555
C6 C1 1_555 1_555
H2 C6 1_555 1_555
C7 C5 1_555 1_555
H3 C7 1_555 1_555
C8 N1 1_555 1_555
H4 C8 1_555 1_555
C9 C4 1_555 1_555
H5 C9 1_555 1_555
C10 C1 1_555 1_555
H6 C10 1_555 1_555
C11 C10 1_555 1_555
H7 C11 1_555 1_555
C12 C11 1_555 1_555
H8 C12 1_555 1_555
C13 C7 1_555 1_555
H9 C13 1_555 1_555
C14 C6 1_555 1_555
H10 C14 1_555 1_555
N2 C8 1_555 1_555
C9 C13 1_555 1_555
C12 C14 1_555 1_555

#END
