
#######################################################################
#
#                 Cambridge Crystallographic Data Centre
#                                CCDC 
#
#######################################################################
#
# If this CIF has been generated from an entry in the Cambridge 
# Structural Database, then it will include bibliographic, chemical, 
# crystal, experimental, refinement or atomic coordinate data resulting 
# from the CCDC's data processing and validation procedures.
#
#######################################################################

data_LOVLOZ
_chemical_formula_moiety         'C23 H25 N3 O2'
_chemical_name_systematic        
2,6-dimethyl-N,N'-bis(4-methylphenyl)-1,4-dihydropyridine-3,5-dicarboxamide
_symmetry_cell_setting           orthorhombic
_symmetry_space_group_name_H-M   'P b c a'
_symmetry_Int_Tables_number      61
_space_group_name_Hall           '-P 2ac 2ab'
loop_
_symmetry_equiv_pos_site_id
_symmetry_equiv_pos_as_xyz
1 x,y,z
2 1/2-x,-y,1/2+z
3 -x,1/2+y,1/2-z
4 1/2+x,1/2-y,-z
5 -x,-y,-z
6 1/2+x,y,1/2-z
7 x,1/2-y,1/2+z
8 1/2-x,1/2+y,z
_cell_length_a                   8.5660(17)
_cell_length_b                   21.824(4)
_cell_length_c                   22.631(5)
_cell_angle_alpha                90
_cell_angle_beta                 90
_cell_angle_gamma                90
_cell_volume                     4230.74
_exptl_crystal_colour            yellow
_exptl_crystal_description       needle
_cell_formula_units_Z            8
loop_
_atom_site_label
_atom_site_type_symbol
_atom_site_fract_x
_atom_site_fract_y
_atom_site_fract_z
O1 O 0.1264(2) -0.15529(12) 0.30697(10)
C1 C 0.4798(3) -0.07255(12) 0.29611(13)
H1 H 0.4219 -0.0465 0.2692
H2 H 0.5421 -0.0999 0.2719
C2 C 0.5842(3) -0.03472(13) 0.32697(11)
N1 N 0.3151(3) -0.16848(12) 0.23844(12)
H3 H 0.4125 -0.1623 0.2314
O2 O 0.8364(3) 0.01056(12) 0.30984(10)
C3 C 0.5775(4) -0.03810(17) 0.38818(15)
N2 N 0.6461(3) 0.02586(11) 0.24152(12)
H4 H 0.5501 0.0190 0.2326
N3 N 0.4754(4) -0.07178(15) 0.41585(11)
H5 H 0.4746 -0.0720 0.4538
C4 C 0.3724(4) -0.10582(16) 0.38653(14)
C5 C 0.3715(3) -0.10854(15) 0.32573(14)
C6 C 0.6863(4) -0.0010(2) 0.42700(16)
H6 H 0.6627 -0.0088 0.4678
H7 H 0.6727 0.0418 0.4188
H8 H 0.7924 -0.0125 0.4190
C7 C 0.2578(4) -0.1433(2) 0.42368(16)
H9 H 0.2774 -0.1360 0.4649
H10 H 0.2712 -0.1861 0.4152
H11 H 0.1529 -0.1313 0.4143
C8 C 0.2597(4) -0.14625(15) 0.28986(15)
C9 C 0.2307(4) -0.20085(17) 0.19471(16)
C10 C 0.1201(4) -0.24335(17) 0.20794(18)
H12 H 0.0937 -0.2508 0.2471
C11 C 0.0452(5) -0.27620(16) 0.16236(19)
H13 H -0.0291 -0.3057 0.1718
C12 C 0.0811(5) -0.26497(17) 0.10322(19)
C13 C 0.1906(5) -0.22126(18) 0.09139(17)
H14 H 0.2158 -0.2133 0.0522
C14 C 0.2655(4) -0.18844(17) 0.13492(16)
H15 H 0.3381 -0.1585 0.1251
C15 C -0.0014(5) -0.3003(2) 0.0554(2)
H16 H 0.0375 -0.2877 0.0175
H17 H -0.1115 -0.2924 0.0575
H18 H 0.0173 -0.3433 0.0606
C16 C 0.7004(3) 0.00210(15) 0.29316(14)
C17 C 0.7369(4) 0.06149(13) 0.20074(14)
C18 C 0.7116(4) 0.04885(16) 0.14151(15)
H19 H 0.6399 0.0190 0.1304
C19 C 0.7940(5) 0.08103(18) 0.09885(16)
H20 H 0.7790 0.0722 0.0591
C20 C 0.8972(4) 0.12578(17) 0.11513(18)
C21 C 0.9200(5) 0.13679(17) 0.17506(16)
H21 H 0.9916 0.1665 0.1866
C22 C 0.8403(4) 0.10522(16) 0.21741(16)
H22 H 0.8567 0.1136 0.2572
C23 C 0.9875(6) 0.1614(2) 0.0666(2)
H23 H 0.9558 0.1470 0.0284
H24 H 1.0975 0.1549 0.0715
H25 H 0.9649 0.2043 0.0699
loop_
_geom_bond_atom_site_label_1
_geom_bond_atom_site_label_2
_geom_bond_site_symmetry_1
_geom_bond_site_symmetry_2
O1 C8 1_555 1_555
C1 H1 1_555 1_555
H2 C1 1_555 1_555
C2 C1 1_555 1_555
N1 H3 1_555 1_555
O2 C16 1_555 1_555
C3 C2 1_555 1_555
N2 H4 1_555 1_555
N3 C3 1_555 1_555
H5 N3 1_555 1_555
C4 N3 1_555 1_555
C5 C1 1_555 1_555
C6 C3 1_555 1_555
H6 C6 1_555 1_555
H7 C6 1_555 1_555
H8 C6 1_555 1_555
C7 C4 1_555 1_555
H9 C7 1_555 1_555
H10 C7 1_555 1_555
H11 C7 1_555 1_555
C8 N1 1_555 1_555
C9 N1 1_555 1_555
C10 C9 1_555 1_555
H12 C10 1_555 1_555
C11 C10 1_555 1_555
H13 C11 1_555 1_555
C12 C11 1_555 1_555
C13 C12 1_555 1_555
H14 C13 1_555 1_555
C14 C9 1_555 1_555
H15 C14 1_555 1_555
C15 C12 1_555 1_555
H16 C15 1_555 1_555
H17 C15 1_555 1_555
H18 C15 1_555 1_555
C16 C2 1_555 1_555
C17 N2 1_555 1_555
C18 C17 1_555 1_555
H19 C18 1_555 1_555
C19 C18 1_555 1_555
H20 C19 1_555 1_555
C20 C19 1_555 1_555
C21 C20 1_555 1_555
H21 C21 1_555 1_555
C22 C17 1_555 1_555
H22 C22 1_555 1_555
C23 C20 1_555 1_555
H23 C23 1_555 1_555
H24 C23 1_555 1_555
H25 C23 1_555 1_555
N2 C16 1_555 1_555
C4 C5 1_555 1_555
C5 C8 1_555 1_555
C13 C14 1_555 1_555
C21 C22 1_555 1_555

#END
