
#######################################################################
#
#                 Cambridge Crystallographic Data Centre
#                                CCDC 
#
#######################################################################
#
# If this CIF has been generated from an entry in the Cambridge 
# Structural Database, then it will include bibliographic, chemical, 
# crystal, experimental, refinement or atomic coordinate data resulting 
# from the CCDC's data processing and validation procedures.
#
#######################################################################

data_LOVROF
_chemical_formula_moiety         'C19 H21 F5 N2 O1 S1'
_chemical_name_systematic        
N,1-dibenzyl-4-(pentafluorosulfanyl)pyrrolidine-3-carboxamide
_symmetry_cell_setting           orthorhombic
_symmetry_space_group_name_H-M   'P n 21 a'
_symmetry_Int_Tables_number      33
_space_group_name_Hall           'P -2ac -2n'
loop_
_symmetry_equiv_pos_site_id
_symmetry_equiv_pos_as_xyz
1 x,y,z
2 1/2+x,y,1/2-z
3 1/2-x,1/2+y,1/2+z
4 -x,1/2+y,-z
_cell_length_a                   9.2994(9)
_cell_length_b                   12.5496(12)
_cell_length_c                   17.0351(16)
_cell_angle_alpha                90
_cell_angle_beta                 90
_cell_angle_gamma                90
_cell_volume                     1988.06
_exptl_crystal_colour            colorless
_exptl_crystal_description       prism
_cell_formula_units_Z            4
loop_
_atom_site_label
_atom_site_type_symbol
_atom_site_fract_x
_atom_site_fract_y
_atom_site_fract_z
C1 C 0.3526(4) 1.0392(3) 0.9313(2)
H1 H 0.4034 1.0056 0.8913
C2 C 0.3283(5) 1.1464(4) 0.9262(3)
H2 H 0.3641 1.1844 0.8836
C3 C 0.2518(5) 1.1983(4) 0.9830(3)
H3 H 0.2339 1.271 0.9792
C4 C 0.2023(5) 1.1410(4) 1.0456(3)
H4 H 0.1513 1.1753 1.0852
C5 C 0.2270(5) 1.0332(4) 1.0506(2)
H5 H 0.191 0.9952 1.0931
C6 C 0.3050(4) 0.9802(3) 0.9930(2)
C7 C 0.3330(5) 0.8624(3) 1.0007(2)
H6 H 0.4249 0.8516 1.0265
H7 H 0.2591 0.8308 1.0335
C8 C 0.3618(4) 0.6942(3) 0.9330(2)
H8 H 0.2974 0.6618 0.9709
H9 H 0.4605 0.6802 0.9482
C9 C 0.3310(4) 0.6544(3) 0.8498(2)
H10 H 0.4192 0.6639 0.8191
C10 C 0.2184(3) 0.7318(3) 0.81663(19)
H11 H 0.1284 0.6943 0.8051
C11 C 0.1968(4) 0.8120(3) 0.8838(2)
H12 H 0.1772 0.8828 0.8636
H13 H 0.1185 0.7905 0.9179
C12 C 0.2736(3) 0.7884(3) 0.74409(19)
C13 C 0.2102(4) 0.9000(3) 0.6328(2)
H14 H 0.1279 0.9023 0.5979
H15 H 0.2885 0.8662 0.6046
C14 C 0.2534(4) 1.0120(4) 0.65225(18)
C15 C 0.1735(4) 1.0742(4) 0.7026(2)
H16 H 0.0928 1.0452 0.7268
C16 C 0.2109(5) 1.1790(4) 0.7180(3)
H17 H 0.1544 1.2202 0.7513
C17 C 0.3297(5) 1.2213(4) 0.6844(3)
H18 H 0.3564 1.291 0.6959
C18 C 0.4108(5) 1.1622(4) 0.6338(3)
H19 H 0.4909 1.1922 0.6098
C19 C 0.3735(4) 1.0572(4) 0.6181(2)
H20 H 0.4301 1.0169 0.5843
F1 F 0.1293(3) 0.5344(2) 0.87905(18)
F2 F 0.3387(3) 0.48622(19) 0.92844(17)
F3 F 0.2376(4) 0.3924(2) 0.83713(19)
F4 F 0.4309(3) 0.4806(2) 0.8102(2)
F5 F 0.2219(4) 0.5289(2) 0.75887(15)
N1 N 0.3346(3) 0.8087(2) 0.92508(17)
N2 N 0.1740(3) 0.8345(2) 0.70019(17)
H21 H 0.0849 0.8254 0.712
O1 O 0.4016(2) 0.7942(2) 0.72693(14)
S1 S 0.28229(13) 0.51402(8) 0.84414(6)
loop_
_geom_bond_atom_site_label_1
_geom_bond_atom_site_label_2
_geom_bond_site_symmetry_1
_geom_bond_site_symmetry_2
C1 H1 1_555 1_555
C2 C1 1_555 1_555
H2 C2 1_555 1_555
C3 C2 1_555 1_555
H3 C3 1_555 1_555
C4 C3 1_555 1_555
H4 C4 1_555 1_555
C5 C4 1_555 1_555
H5 C5 1_555 1_555
C6 C1 1_555 1_555
C7 C6 1_555 1_555
H6 C7 1_555 1_555
H7 C7 1_555 1_555
C8 H8 1_555 1_555
H9 C8 1_555 1_555
C9 C8 1_555 1_555
H10 C9 1_555 1_555
C10 C9 1_555 1_555
H11 C10 1_555 1_555
C11 C10 1_555 1_555
H12 C11 1_555 1_555
H13 C11 1_555 1_555
C12 C10 1_555 1_555
C13 H14 1_555 1_555
H15 C13 1_555 1_555
C14 C13 1_555 1_555
C15 C14 1_555 1_555
H16 C15 1_555 1_555
C16 C15 1_555 1_555
H17 C16 1_555 1_555
C17 C16 1_555 1_555
H18 C17 1_555 1_555
C18 C17 1_555 1_555
H19 C18 1_555 1_555
C19 C14 1_555 1_555
H20 C19 1_555 1_555
F1 S1 1_555 1_555
F2 S1 1_555 1_555
F3 S1 1_555 1_555
F4 S1 1_555 1_555
F5 S1 1_555 1_555
N1 C7 1_555 1_555
N2 C12 1_555 1_555
H21 N2 1_555 1_555
O1 C12 1_555 1_555
S1 C9 1_555 1_555
C5 C6 1_555 1_555
C8 N1 1_555 1_555
C11 N1 1_555 1_555
C13 N2 1_555 1_555
C18 C19 1_555 1_555

#END
