
#######################################################################
#
#                 Cambridge Crystallographic Data Centre
#                                CCDC 
#
#######################################################################
#
# If this CIF has been generated from an entry in the Cambridge 
# Structural Database, then it will include bibliographic, chemical, 
# crystal, experimental, refinement or atomic coordinate data resulting 
# from the CCDC's data processing and validation procedures.
#
#######################################################################

data_LOVRIZ
_chemical_formula_moiety         'C20 H20 F5 N1 O4 S1'
_chemical_name_systematic        
'3-benzyl 2-methyl 4-(pentafluorosulfanyl)-5-phenylpyrrolidine-2,3-dicarboxylate'
_symmetry_cell_setting           monoclinic
_symmetry_space_group_name_H-M   'P 21'
_symmetry_Int_Tables_number      4
_space_group_name_Hall           'P 2yb'
loop_
_symmetry_equiv_pos_site_id
_symmetry_equiv_pos_as_xyz
1 x,y,z
2 -x,1/2+y,-z
_cell_length_a                   5.7359(6)
_cell_length_b                   14.0228(15)
_cell_length_c                   12.8595(14)
_cell_angle_alpha                90
_cell_angle_beta                 97.839(2)
_cell_angle_gamma                90
_cell_volume                     1024.67
_exptl_crystal_colour            colorless
_exptl_crystal_description       prism
_cell_formula_units_Z            2
loop_
_atom_site_label
_atom_site_type_symbol
_atom_site_fract_x
_atom_site_fract_y
_atom_site_fract_z
C1 C -0.1243(4) 0.19877(18) 0.73574(18)
H1 H -0.2481 0.199 0.6809
C2 C -0.1468(5) 0.1495(2) 0.8274(2)
H2 H -0.2858 0.1172 0.834
C3 C 0.0350(5) 0.1483(2) 0.9082(2)
H3 H 0.0208 0.1147 0.9693
C4 C 0.2380(5) 0.1969(2) 0.89869(19)
H4 H 0.3615 0.1964 0.9536
C5 C 0.2604(4) 0.2467(2) 0.80800(17)
H5 H 0.3982 0.2801 0.8025
C6 C 0.0794(3) 0.24725(15) 0.72541(15)
C7 C 0.1030(5) 0.30231(17) 0.62760(19)
H6 H -0.0469 0.3025 0.5824
H7 H 0.1438 0.3679 0.646
C8 C 0.2144(3) 0.19291(15) 0.50285(15)
C9 C 0.4101(3) 0.16125(15) 0.44275(15)
H8 H 0.5339 0.2099 0.4492
C10 C 0.5206(4) 0.06226(16) 0.47775(16)
H9 H 0.674 0.073 0.52
C11 C 0.5092(4) 0.07565(17) 0.29202(17)
H10 H 0.6521 0.1124 0.2862
C12 C 0.3226(3) 0.14361(15) 0.32645(16)
H11 H 0.1755 0.1075 0.3229
C13 C 0.4447(3) 0.02008(16) 0.19207(16)
C14 C 0.3711(4) 0.00297(17) 0.54056(18)
C15 C 0.2454(4) -0.03681(18) 0.17719(18)
H12 H 0.1459 -0.0386 0.2285
C16 C 0.2270(6) -0.0091(2) 0.7028(3)
H13 H 0.0657 0.0015 0.674
H14 H 0.2558 0.0173 0.7723
H15 H 0.2585 -0.0763 0.7058
C17 C 0.1925(5) -0.09088(19) 0.0872(2)
H16 H 0.0582 -0.1288 0.0784
C18 C 0.3384(5) -0.0886(2) 0.01091(19)
H17 H 0.303 -0.1249 -0.0498
C19 C 0.5358(5) -0.0330(2) 0.02462(19)
H18 H 0.6354 -0.0317 -0.0267
C20 C 0.5878(4) 0.0213(2) 0.11422(19)
H19 H 0.7217 0.0594 0.1223
N1 N 0.5568(4) 0.01122(18) 0.38227(16)
O1 O 0.2839(2) 0.26125(11) 0.57057(11)
O2 O 0.0209(3) 0.15965(15) 0.48889(14)
O3 O 0.3785(3) 0.03643(12) 0.63729(12)
O4 O 0.2627(4) -0.06552(16) 0.50836(17)
S1 S 0.25768(11) 0.25265(5) 0.24748(4)
F1 F 0.388(3) 0.3193(5) 0.3253(6)
F2 F 0.0321(18) 0.2677(6) 0.3015(7)
F3 F 0.4640(15) 0.2385(8) 0.1866(8)
F4 F 0.1077(17) 0.1902(4) 0.1625(5)
F5 F 0.1954(4) 0.34434(13) 0.17781(14)
H20 H 0.458(5) -0.029(2) 0.372(2)
F6? F 0.5240(14) 0.2823(9) 0.262(2)
F7? F 0.0032(14) 0.2374(11) 0.225(2)
F8? F 0.307(6) 0.2052(8) 0.1461(6)
F9? F 0.237(4) 0.3152(7) 0.3430(6)
loop_
_geom_bond_atom_site_label_1
_geom_bond_atom_site_label_2
_geom_bond_site_symmetry_1
_geom_bond_site_symmetry_2
C1 H1 1_555 1_555
C2 C1 1_555 1_555
H2 C2 1_555 1_555
C3 C2 1_555 1_555
H3 C3 1_555 1_555
C4 C3 1_555 1_555
H4 C4 1_555 1_555
C5 C4 1_555 1_555
H5 C5 1_555 1_555
C6 C1 1_555 1_555
C7 C6 1_555 1_555
H6 C7 1_555 1_555
H7 C7 1_555 1_555
C8 C9 1_555 1_555
C9 H8 1_555 1_555
C10 C9 1_555 1_555
H9 C10 1_555 1_555
C11 H10 1_555 1_555
C12 C9 1_555 1_555
H11 C12 1_555 1_555
C13 C11 1_555 1_555
C14 C10 1_555 1_555
C15 C13 1_555 1_555
H12 C15 1_555 1_555
C16 H13 1_555 1_555
H14 C16 1_555 1_555
H15 C16 1_555 1_555
C17 C15 1_555 1_555
H16 C17 1_555 1_555
C18 C17 1_555 1_555
H17 C18 1_555 1_555
C19 C18 1_555 1_555
H18 C19 1_555 1_555
C20 C13 1_555 1_555
H19 C20 1_555 1_555
N1 C10 1_555 1_555
O1 C7 1_555 1_555
O2 C8 1_555 1_555
O3 C14 1_555 1_555
O4 C14 1_555 1_555
S1 C12 1_555 1_555
F1 S1 1_555 1_555
F2 S1 1_555 1_555
F3 S1 1_555 1_555
F4 S1 1_555 1_555
F5 S1 1_555 1_555
H20 N1 1_555 1_555
C5 C6 1_555 1_555
C8 O1 1_555 1_555
C11 C12 1_555 1_555
C11 N1 1_555 1_555
C16 O3 1_555 1_555
C19 C20 1_555 1_555

#END
