
#######################################################################
#
#                 Cambridge Crystallographic Data Centre
#                                CCDC 
#
#######################################################################
#
# If this CIF has been generated from an entry in the Cambridge 
# Structural Database, then it will include bibliographic, chemical, 
# crystal, experimental, refinement or atomic coordinate data resulting 
# from the CCDC's data processing and validation procedures.
#
#######################################################################

data_LOWHIO
_chemical_formula_moiety         'C29 H28 N2 O5,C7 H8'
_chemical_name_systematic        
"2'-Deoxy-5'-O-tritylthymidine toluene clathrate"
_symmetry_cell_setting           triclinic
_symmetry_space_group_name_H-M   'P 1'
_symmetry_Int_Tables_number      1
_space_group_name_Hall           'P 1'
loop_
_symmetry_equiv_pos_site_id
_symmetry_equiv_pos_as_xyz
1 x,y,z
_cell_length_a                   10.465(2)
_cell_length_b                   11.186(3)
_cell_length_c                   14.240(3)
_cell_angle_alpha                69.3(2)
_cell_angle_beta                 87.3(2)
_cell_angle_gamma                81.5(2)
_cell_volume                     1542.19
_cell_formula_units_Z            2
loop_
_atom_site_label
_atom_site_type_symbol
_atom_site_fract_x
_atom_site_fract_y
_atom_site_fract_z
N1 N 0.2367(3) 0.6748(3) 0.6096(2)
C1 C 0.1475(3) 0.7126(4) 0.6706(3)
O1 O 0.1739(3) 0.7649(3) 0.7274(3)
N2 N 0.0260(3) 0.6860(3) 0.6624(3)
C2 C -0.0145(3) 0.6271(4) 0.6007(3)
O2 O -0.1277(2) 0.6126(4) 0.6001(3)
C3 C 0.0855(3) 0.5868(4) 0.5408(3)
C4 C 0.2053(3) 0.6118(4) 0.5480(3)
C5 C 0.0501(5) 0.5205(6) 0.4722(5)
C6 C 0.3724(3) 0.6890(4) 0.6194(3)
C7 C 0.4542(3) 0.5631(4) 0.6787(3)
C8 C 0.5881(3) 0.5857(5) 0.6406(3)
O3 O 0.6355(3) 0.6571(4) 0.6919(3)
C9 C 0.5610(3) 0.6703(3) 0.5281(3)
O4 O 0.4274(2) 0.7294(2) 0.5227(2)
C10 C 0.5858(3) 0.6001(4) 0.4548(3)
O5 O 0.5066(2) 0.5002(2) 0.4794(1)
C11 C 0.4983(3) 0.4329(3) 0.4096(3)
C12 C 0.4722(4) 0.2971(4) 0.4765(3)
C13 C 0.4027(6) 0.2794(5) 0.5635(4)
C14 C 0.3736(8) 0.1589(6) 0.6237(5)
C15 C 0.4167(9) 0.0525(6) 0.5982(7)
C16 C 0.4824(8) 0.0697(5) 0.5086(6)
C17 C 0.5109(6) 0.1904(5) 0.4491(5)
C18 C 0.6250(4) 0.4259(4) 0.3528(3)
C19 C 0.6335(4) 0.4814(6) 0.2494(3)
C20 C 0.7513(5) 0.4718(8) 0.2018(4)
C21 C 0.8618(5) 0.4067(7) 0.2563(4)
C22 C 0.8553(4) 0.3532(5) 0.3584(4)
C23 C 0.7386(4) 0.3615(4) 0.4067(3)
C24 C 0.3834(4) 0.5008(4) 0.3364(3)
C25 C 0.3245(4) 0.4323(6) 0.2910(4)
C26 C 0.2265(5) 0.4950(7) 0.2201(5)
C27 C 0.1854(6) 0.6244(7) 0.1958(4)
C28 C 0.2412(6) 0.6927(6) 0.2420(5)
C29 C 0.3388(5) 0.6319(5) 0.3125(4)
N3 N -0.2249(2) 0.8644(3) 0.8982(2)
C30 C -0.1325(3) 0.8215(3) 0.8402(3)
O6 O -0.1581(2) 0.7679(3) 0.7843(2)
N4 N -0.0107(3) 0.8437(3) 0.8520(3)
C31 C 0.0307(3) 0.8967(4) 0.9167(3)
O7 O 0.1443(3) 0.9061(4) 0.9210(3)
C32 C -0.0703(3) 0.9363(3) 0.9780(3)
C33 C -0.1914(3) 0.9175(3) 0.9654(3)
C34 C -0.0351(4) 0.9962(6) 1.0497(4)
C35 C -0.3601(3) 0.8498(3) 0.8884(3)
C36 C -0.4137(3) 0.7568(3) 0.9818(3)
C37 C -0.5578(3) 0.8046(3) 0.9696(3)
O8 O -0.6079(3) 0.7506(3) 0.9051(3)
C38 C -0.5613(3) 0.9511(3) 0.9186(2)
O9 O -0.4360(2) 0.9716(2) 0.8737(2)
C39 C -0.5931(3) 1.0278(3) 0.9869(3)
O10 O -0.4974(2) 0.9873(2) 1.0639(2)
C40 C -0.4966(3) 1.0677(3) 1.1244(2)
C41 C -0.3796(3) 1.0032(3) 1.1946(3)
C42 C -0.3326(4) 0.8735(4) 1.2174(3)
C43 C -0.2285(4) 0.8151(5) 1.2824(3)
C44 C -0.1712(5) 0.8862(6) 1.3253(4)
C45 C -0.2173(5) 1.0150(6) 1.3046(4)
C46 C -0.3208(4) 1.0742(4) 1.2391(3)
C47 C -0.6231(3) 1.0663(3) 1.1849(3)
C48 C -0.6300(4) 0.9863(4) 1.2835(3)
C49 C -0.7455(5) 0.9845(5) 1.3361(4)
C50 C -0.8556(5) 1.0618(6) 1.2889(4)
C51 C -0.8517(4) 1.1399(5) 1.1903(4)
C52 C -0.7365(3) 1.1434(4) 1.1384(3)
C53 C -0.4738(3) 1.2044(3) 1.0582(2)
C54 C -0.5211(4) 1.3119(3) 1.0835(3)
C55 C -0.4980(4) 1.4343(4) 1.0233(3)
C56 C -0.4260(4) 1.4513(4) 0.9380(3)
C57 C -0.3761(4) 1.3456(4) 0.9126(3)
C58 C -0.3995(4) 1.2234(4) 0.9715(3)
C59 C 0.1244(7) 0.3777(8) 0.8689(5)
C60 C 0.1983(7) 0.4438(8) 0.8998(5)
C61 C 0.1465(8) 0.5147(8) 0.9588(6)
C62 C 0.0206(8) 0.5174(9) 0.9892(7)
C63 C -0.0537(9) 0.4481(11) 0.9589(9)
C64 C -0.0049(8) 0.3767(9) 0.9004(7)
C71 C 0.1780(16) 0.3047(14) 0.8042(9)
C65 C 0.8528(21) 0.1393(10) 0.6582(7)
C66 C 0.9801(11) 0.1413(15) 0.6214(10)
C67 C 1.0448(14) 0.0681(11) 0.5652(10)
C68 C 0.9666(18) -0.0014(12) 0.5423(9)
C69 C 0.8405(17) -0.0056(15) 0.5747(12)
C70 C 0.7902(17) 0.0686(10) 0.6295(9)
C72 C 0.8039(24) 0.2154(18) 0.7122(13)
loop_
_geom_bond_atom_site_label_1
_geom_bond_atom_site_label_2
_geom_bond_site_symmetry_1
_geom_bond_site_symmetry_2
N1 C1 1_555 1_555
C1 O1 1_555 1_555
N2 C1 1_555 1_555
C2 N2 1_555 1_555
O2 C2 1_555 1_555
C3 C2 1_555 1_555
C4 N1 1_555 1_555
C5 C3 1_555 1_555
C6 N1 1_555 1_555
C7 C6 1_555 1_555
C8 C7 1_555 1_555
O3 C8 1_555 1_555
C9 C8 1_555 1_555
O4 C6 1_555 1_555
C10 C9 1_555 1_555
O5 C10 1_555 1_555
C11 O5 1_555 1_555
C12 C11 1_555 1_555
C13 C12 1_555 1_555
C14 C13 1_555 1_555
C15 C14 1_555 1_555
C16 C15 1_555 1_555
C17 C12 1_555 1_555
C18 C11 1_555 1_555
C19 C18 1_555 1_555
C20 C19 1_555 1_555
C21 C20 1_555 1_555
C22 C21 1_555 1_555
C23 C18 1_555 1_555
C24 C11 1_555 1_555
C25 C24 1_555 1_555
C26 C25 1_555 1_555
C27 C26 1_555 1_555
C28 C27 1_555 1_555
C29 C24 1_555 1_555
N3 C30 1_555 1_555
C30 O6 1_555 1_555
N4 C30 1_555 1_555
C31 N4 1_555 1_555
O7 C31 1_555 1_555
C32 C31 1_555 1_555
C33 N3 1_555 1_555
C34 C32 1_555 1_555
C35 N3 1_555 1_555
C36 C35 1_555 1_555
C37 C36 1_555 1_555
O8 C37 1_555 1_555
C38 C37 1_555 1_555
O9 C35 1_555 1_555
C39 C38 1_555 1_555
O10 C39 1_555 1_555
C40 O10 1_555 1_555
C41 C40 1_555 1_555
C42 C41 1_555 1_555
C43 C42 1_555 1_555
C44 C43 1_555 1_555
C45 C44 1_555 1_555
C46 C41 1_555 1_555
C47 C40 1_555 1_555
C48 C47 1_555 1_555
C49 C48 1_555 1_555
C50 C49 1_555 1_555
C51 C50 1_555 1_555
C52 C47 1_555 1_555
C53 C40 1_555 1_555
C54 C53 1_555 1_555
C55 C54 1_555 1_555
C56 C55 1_555 1_555
C57 C56 1_555 1_555
C58 C53 1_555 1_555
C59 C60 1_555 1_555
C60 C61 1_555 1_555
C61 C62 1_555 1_555
C62 C63 1_555 1_555
C63 C64 1_555 1_555
C64 C59 1_555 1_555
C65 C66 1_555 1_555
C66 C67 1_555 1_555
C67 C68 1_555 1_555
C68 C69 1_555 1_555
C69 C70 1_555 1_555
C70 C65 1_555 1_555
C71 C59 1_555 1_555
C72 C65 1_555 1_555
C3 C4 1_555 1_555
C9 O4 1_555 1_555
C16 C17 1_555 1_555
C22 C23 1_555 1_555
C28 C29 1_555 1_555
C32 C33 1_555 1_555
C38 O9 1_555 1_555
C45 C46 1_555 1_555
C51 C52 1_555 1_555
C57 C58 1_555 1_555

#END
