
#######################################################################
#
#                 Cambridge Crystallographic Data Centre
#                                CCDC 
#
#######################################################################
#
# If this CIF has been generated from an entry in the Cambridge 
# Structural Database, then it will include bibliographic, chemical, 
# crystal, experimental, refinement or atomic coordinate data resulting 
# from the CCDC's data processing and validation procedures.
#
#######################################################################

data_LOWHUA
_chemical_formula_moiety         'C29 H28 N2 O5,0.5(C9 H12)'
_chemical_name_systematic        
"2'-Deoxy-5'-O-tritylthymidine 1,2,4-trimethylbenzene clathrate"
_symmetry_cell_setting           orthorhombic
_symmetry_space_group_name_H-M   'P 21 21 21'
_symmetry_Int_Tables_number      19
_space_group_name_Hall           'P 2ac 2ab'
loop_
_symmetry_equiv_pos_site_id
_symmetry_equiv_pos_as_xyz
1 x,y,z
2 1/2-x,-y,1/2+z
3 1/2+x,1/2-y,-z
4 -x,1/2+y,1/2-z
_cell_length_a                   9.965(3)
_cell_length_b                   15.949(3)
_cell_length_c                   36.150(6)
_cell_angle_alpha                90
_cell_angle_beta                 90
_cell_angle_gamma                90
_cell_volume                     5745.38
_cell_formula_units_Z            8
loop_
_atom_site_label
_atom_site_type_symbol
_atom_site_fract_x
_atom_site_fract_y
_atom_site_fract_z
N1 N 0.6601(7) 0.1654(4) 0.9406(2)
C1 C 0.6001(9) 0.2279(6) 0.9197(2)
O1 O 0.6646(6) 0.2765(4) 0.9006(2)
N2 N 0.4636(8) 0.2311(5) 0.9219(2)
C2 C 0.3792(9) 0.1828(6) 0.9443(3)
O2 O 0.2607(6) 0.1933(5) 0.9449(2)
C3 C 0.4517(9) 0.1182(6) 0.9654(2)
C4 C 0.5857(9) 0.1167(6) 0.9635(3)
C5 C 0.3687(1) 0.0621(8) 0.9899(4)
C6 C 0.8081(10) 0.1552(6) 0.9367(3)
C7 C 0.8941(4) 0.2080(7) 0.9604(4)
C8 C 0.9498(11) 0.1477(7) 0.9903(3)
O3 O 1.0750(7) 0.1700(4) 1.0041(2)
C9 C 0.9474(9) 0.0657(6) 0.9693(2)
O4 O 0.8397(6) 0.0714(3) 0.9434(2)
C10 C 0.9321(10) -0.0118(6) 0.9928(3)
O5 O 0.8194(6) 0.0030(3) 1.0171(1)
C11 C 0.7673(9) -0.0667(5) 1.0392(2)
C12 C 0.8606(9) -0.0899(5) 1.0710(2)
C13 C 0.8304(12) -0.1559(7) 1.0936(3)
C14 C 0.9112(13) -0.1759(7) 1.1249(3)
C15 C 1.0225(13) -0.1289(7) 1.1327(3)
C16 C 1.0514(11) -0.0620(7) 1.1108(3)
C17 C 0.9716(12) -0.0417(8) 1.0803(3)
C18 C 0.7386(8) -0.1402(5) 1.0126(2)
C19 C 0.6382(10) -0.1302(6) 0.9859(2)
C20 C 0.6119(12) -0.1944(7) 0.9609(3)
C21 C 0.6786(12) -0.2672(6) 0.9616(3)
C22 C 0.7777(13) -0.2772(7) 0.9871(4)
C23 C 0.8083(10) -0.2129(7) 1.0127(3)
C24 C 0.6397(9) -0.0299(5) 1.0560(2)
C25 C 0.5316(10) -0.0792(7) 1.0652(2)
C26 C 0.4190(10) -0.0457(7) 1.0823(3)
C27 C 0.4132(11) 0.0371(8) 1.0896(3)
C28 C 0.5187(12) 0.0877(6) 1.0810(3)
C29 C 0.6345(10) 0.0554(6) 1.0647(2)
N3 N 0.3575(6) 0.4346(4) 0.8217(2)
C30 C 0.4195(8) 0.3856(5) 0.8473(2)
O6 O 0.3569(5) 0.3467(3) 0.8717(1)
N4 N 0.5550(7) 0.3796(4) 0.8441(2)
C31 C 0.6348(8) 0.4218(5) 0.8190(2)
O7 O 0.7585(6) 0.4145(4) 0.8211(2)
C32 C 0.5643(8) 0.4735(5) 0.7923(2)
C33 C 0.4310(8) 0.4755(6) 0.7951(2)
C34 C 0.6429(9) 0.5203(7) 0.7642(3)
C35 C 0.2112(9) 0.4436(8) 0.8219(2)
C36 C 0.1667(12) 0.5384(9) 0.8301(4)
C37 C 0.0507(9) 0.5474(6) 0.8051(2)
O8 O -0.0715(6) 0.5609(5) 0.8212(2)
C38 C 0.0555(7) 0.4784(5) 0.7767(2)
O9 O 0.1666(5) 0.4244(3) 0.7851(1)
C39 C 0.0681(8) 0.5072(6) 0.7372(2)
O10 O 0.1893(5) 0.5538(3) 0.7338(1)
C40 C 0.2358(7) 0.5762(4) 0.6974(2)
C41 C 0.1272(8) 0.6261(5) 0.6764(2)
C42 C 0.1275(8) 0.7110(5) 0.6747(2)
C43 C 0.0269(9) 0.7552(6) 0.6574(3)
C44 C -0.0735(9) 0.7140(7) 0.6396(3)
C45 C -0.0798(9) 0.6274(5) 0.6413(2)
C46 C 0.0210(10) 0.5859(6) 0.6592(3)
C47 C 0.3603(7) 0.6313(5) 0.7054(2)
C48 C 0.3615(10) 0.6818(5) 0.7374(3)
C49 C 0.4707(12) 0.7319(7) 0.7445(4)
C50 C 0.5766(14) 0.7343(8) 0.7206(5)
C51 C 0.5774(12) 0.6849(9) 0.6900(5)
C52 C 0.4688(10) 0.6351(7) 0.6818(3)
C53 C 0.2758(8) 0.4975(5) 0.6762(2)
C54 C 0.2775(10) 0.4977(6) 0.6373(2)
C55 C 0.3189(15) 0.4264(8) 0.6191(3)
C56 C 0.3541(13) 0.3536(7) 0.6365(3)
C57 C 0.3551(14) 0.3551(7) 0.6747(3)
C58 C 0.3175(10) 0.4245(6) 0.6945(2)
C59 C 0.1966(18) 0.8792(10) 0.8628(5)
C60 C 0.0778(18) 0.8349(10) 0.8693(4)
C61 C 0.0064(15) 0.7957(8) 0.8406(4)
C62 C 0.0526(18) 0.8021(8) 0.8051(4)
C63 C 0.1732(19) 0.8458(9) 0.7983(5)
C64 C 0.2396(20) 0.8827(11) 0.8268(7)
C65 C 0.2799(18) 0.9223(11) 0.8907(5)
C66 C 0.0283(19) 0.8331(11) 0.9078(4)
C67 C -0.0250(16) 0.7632(7) 0.7740(4)
loop_
_geom_bond_atom_site_label_1
_geom_bond_atom_site_label_2
_geom_bond_site_symmetry_1
_geom_bond_site_symmetry_2
N1 C1 1_555 1_555
C1 O1 1_555 1_555
N2 C1 1_555 1_555
C2 N2 1_555 1_555
O2 C2 1_555 1_555
C3 C2 1_555 1_555
C4 N1 1_555 1_555
C5 C3 1_555 1_555
C6 N1 1_555 1_555
C7 C6 1_555 1_555
C8 C7 1_555 1_555
O3 C8 1_555 1_555
C9 C8 1_555 1_555
O4 C6 1_555 1_555
C10 C9 1_555 1_555
O5 C10 1_555 1_555
C11 O5 1_555 1_555
C12 C11 1_555 1_555
C13 C12 1_555 1_555
C14 C13 1_555 1_555
C15 C14 1_555 1_555
C16 C15 1_555 1_555
C17 C12 1_555 1_555
C18 C11 1_555 1_555
C19 C18 1_555 1_555
C20 C19 1_555 1_555
C21 C20 1_555 1_555
C22 C21 1_555 1_555
C23 C18 1_555 1_555
C24 C11 1_555 1_555
C25 C24 1_555 1_555
C26 C25 1_555 1_555
C27 C26 1_555 1_555
C28 C27 1_555 1_555
C29 C24 1_555 1_555
N3 C30 1_555 1_555
C30 O6 1_555 1_555
N4 C30 1_555 1_555
C31 N4 1_555 1_555
O7 C31 1_555 1_555
C32 C31 1_555 1_555
C33 N3 1_555 1_555
C34 C32 1_555 1_555
C35 N3 1_555 1_555
C36 C35 1_555 1_555
C37 C36 1_555 1_555
O8 C37 1_555 1_555
C38 C37 1_555 1_555
O9 C35 1_555 1_555
C39 C38 1_555 1_555
O10 C39 1_555 1_555
C40 O10 1_555 1_555
C41 C40 1_555 1_555
C42 C41 1_555 1_555
C43 C42 1_555 1_555
C44 C43 1_555 1_555
C45 C44 1_555 1_555
C46 C41 1_555 1_555
C47 C40 1_555 1_555
C48 C47 1_555 1_555
C49 C48 1_555 1_555
C50 C49 1_555 1_555
C51 C50 1_555 1_555
C52 C47 1_555 1_555
C53 C40 1_555 1_555
C54 C53 1_555 1_555
C55 C54 1_555 1_555
C56 C55 1_555 1_555
C57 C56 1_555 1_555
C58 C53 1_555 1_555
C59 C60 1_555 1_555
C60 C61 1_555 1_555
C61 C62 1_555 1_555
C62 C63 1_555 1_555
C63 C64 1_555 1_555
C64 C59 1_555 1_555
C65 C59 1_555 1_555
C66 C60 1_555 1_555
C67 C62 1_555 1_555
C3 C4 1_555 1_555
C9 O4 1_555 1_555
C16 C17 1_555 1_555
C22 C23 1_555 1_555
C28 C29 1_555 1_555
C32 C33 1_555 1_555
C38 O9 1_555 1_555
C45 C46 1_555 1_555
C51 C52 1_555 1_555
C57 C58 1_555 1_555

#END
