
#######################################################################
#
#                 Cambridge Crystallographic Data Centre
#                                CCDC 
#
#######################################################################
#
# If this CIF has been generated from an entry in the Cambridge 
# Structural Database, then it will include bibliographic, chemical, 
# crystal, experimental, refinement or atomic coordinate data resulting 
# from the CCDC's data processing and validation procedures.
#
#######################################################################

data_LOWJOY
_chemical_formula_moiety         'C23 H25 N5 O1 S1'
_chemical_name_systematic        
9-Benzyl-8-(benzylsulfanyl)-2-butoxy-9H-purin-6-amine
_chemical_properties_biological  
'analyzed for TLR7 activity and for the selective stimulation of B cell proliferation'
_symmetry_cell_setting           monoclinic
_symmetry_space_group_name_H-M   'P 21/c'
_symmetry_Int_Tables_number      14
_space_group_name_Hall           '-P 2ybc'
loop_
_symmetry_equiv_pos_site_id
_symmetry_equiv_pos_as_xyz
1 x,y,z
2 -x,1/2+y,1/2-z
3 -x,-y,-z
4 x,1/2-y,1/2+z
_cell_length_a                   16.2156(8)
_cell_length_b                   7.6199(5)
_cell_length_c                   19.9871(14)
_cell_angle_alpha                90
_cell_angle_beta                 115.9785(18)
_cell_angle_gamma                90
_cell_volume                     2220.1
_exptl_crystal_colour            colorless
_exptl_crystal_description       plate
_cell_formula_units_Z            4
_exptl_crystal_recrystallization_method methanol
loop_
_atom_site_label
_atom_site_type_symbol
_atom_site_fract_x
_atom_site_fract_y
_atom_site_fract_z
S1 S 0.23743(8) -0.33206(16) 0.19083(7)
O1 O 0.2270(3) 0.5028(5) 0.3716(2)
N1 N 0.1147(3) 0.3205(5) 0.3056(2)
N2 N 0.2700(3) 0.2518(5) 0.3291(2)
N3 N -0.0094(3) 0.1465(5) 0.2392(3)
H1 H -0.0446 0.2265 0.2454
H2 H -0.0338 0.0501 0.2141
N4 N 0.1282(2) -0.1040(5) 0.2212(2)
N5 N 0.2775(2) -0.0263(5) 0.2707(2)
C1 C 0.2051(4) 0.3483(6) 0.3337(3)
C2 C 0.0800(3) 0.1711(6) 0.2676(3)
C3 C 0.1421(3) 0.0558(5) 0.2590(2)
C4 C 0.2328(3) 0.1038(6) 0.2894(2)
C5 C 0.2111(3) -0.1459(6) 0.2290(2)
C6 C 0.1211(3) -0.4140(7) 0.1365(3)
H3 H 0.0981 -0.4680 0.1702
H4 H 0.0799 -0.3155 0.1100
C7 C 0.1208(3) -0.5475(6) 0.0814(3)
C8 C 0.1350(4) -0.4997(8) 0.0206(3)
H5 H 0.1478 -0.3807 0.0145
C9 C 0.1310(4) -0.6232(9) -0.0313(3)
H6 H 0.1410 -0.5887 -0.0728
C10 C 0.1125(4) -0.7961(9) -0.0231(3)
H7 H 0.1091 -0.8802 -0.0594
C11 C 0.0991(4) -0.8472(7) 0.0367(3)
H8 H 0.0885 -0.9672 0.0431
C12 C 0.1009(3) -0.7221(7) 0.0886(3)
H9 H 0.0886 -0.7566 0.1290
C13 C 0.3753(3) -0.0335(7) 0.2902(3)
H10 H 0.3987 -0.1510 0.3111
H11 H 0.4074 0.0538 0.3299
C14 C 0.3998(3) 0.0002(6) 0.2275(2)
C15 C 0.4837(3) -0.0592(7) 0.2341(3)
H12 H 0.5229 -0.1230 0.2772
C16 C 0.5115(3) -0.0268(7) 0.1786(3)
H13 H 0.5694 -0.0675 0.1838
C17 C 0.4542(4) 0.0653(7) 0.1159(3)
H14 H 0.4730 0.0890 0.0780
C18 C 0.3699(3) 0.1229(7) 0.1079(3)
H15 H 0.3303 0.1843 0.0642
C19 C 0.3427(3) 0.0911(6) 0.1641(3)
H16 H 0.2848 0.1320 0.1587
C20 C 0.3169(4) 0.5581(8) 0.4051(3)
H17 H 0.3392 0.5838 0.3673
H18 H 0.3566 0.4669 0.4393
C21 C 0.3171(5) 0.7253(9) 0.4483(4)
H19 H 0.2719 0.8083 0.4132
H20 H 0.2957 0.6937 0.4862
C22 C 0.4027(6) 0.8143(10) 0.4849(4)
H21 H 0.4232 0.8560 0.4477
H22 H 0.4498 0.7330 0.5194
C23 C 0.3912(8) 0.9725(12) 0.5289(5)
H23 H 0.3433 1.0508 0.4947
H24 H 0.4493 1.0368 0.5526
H25 H 0.3738 0.9300 0.5672
loop_
_geom_bond_atom_site_label_1
_geom_bond_atom_site_label_2
_geom_bond_site_symmetry_1
_geom_bond_site_symmetry_2
S1 C5 1_555 1_555
O1 C1 1_555 1_555
N1 C1 1_555 1_555
N2 C1 1_555 1_555
N3 H1 1_555 1_555
H2 N3 1_555 1_555
N4 C3 1_555 1_555
N5 C4 1_555 1_555
C2 N1 1_555 1_555
C3 C2 1_555 1_555
C4 N2 1_555 1_555
C5 N4 1_555 1_555
C6 S1 1_555 1_555
H3 C6 1_555 1_555
H4 C6 1_555 1_555
C7 C6 1_555 1_555
C8 C7 1_555 1_555
H5 C8 1_555 1_555
C9 C8 1_555 1_555
H6 C9 1_555 1_555
C10 C9 1_555 1_555
H7 C10 1_555 1_555
C11 C10 1_555 1_555
H8 C11 1_555 1_555
C12 C7 1_555 1_555
H9 C12 1_555 1_555
C13 N5 1_555 1_555
H10 C13 1_555 1_555
H11 C13 1_555 1_555
C14 C13 1_555 1_555
C15 C14 1_555 1_555
H12 C15 1_555 1_555
C16 C15 1_555 1_555
H13 C16 1_555 1_555
C17 C16 1_555 1_555
H14 C17 1_555 1_555
C18 C17 1_555 1_555
H15 C18 1_555 1_555
C19 C14 1_555 1_555
H16 C19 1_555 1_555
C20 O1 1_555 1_555
H17 C20 1_555 1_555
H18 C20 1_555 1_555
C21 C20 1_555 1_555
H19 C21 1_555 1_555
H20 C21 1_555 1_555
C22 C21 1_555 1_555
H21 C22 1_555 1_555
H22 C22 1_555 1_555
C23 C22 1_555 1_555
H23 C23 1_555 1_555
H24 C23 1_555 1_555
H25 C23 1_555 1_555
N3 C2 1_555 1_555
N5 C5 1_555 1_555
C3 C4 1_555 1_555
C11 C12 1_555 1_555
C18 C19 1_555 1_555

#END
