
#######################################################################
#
#                 Cambridge Crystallographic Data Centre
#                                CCDC 
#
#######################################################################
#
# If this CIF has been generated from an entry in the Cambridge 
# Structural Database, then it will include bibliographic, chemical, 
# crystal, experimental, refinement or atomic coordinate data resulting 
# from the CCDC's data processing and validation procedures.
#
#######################################################################

data_LOWJAI
_chemical_formula_moiety         'C29 H28 N2 O5,0.5(C6 H12)'
_chemical_name_systematic        
"2'-Deoxy-5'-O-tritylthymidine cyclohexane clathrate"
_symmetry_cell_setting           orthorhombic
_symmetry_space_group_name_H-M   'P 21 21 21'
_symmetry_Int_Tables_number      19
_space_group_name_Hall           'P 2ac 2ab'
loop_
_symmetry_equiv_pos_site_id
_symmetry_equiv_pos_as_xyz
1 x,y,z
2 1/2-x,-y,1/2+z
3 1/2+x,1/2-y,-z
4 -x,1/2+y,1/2-z
_cell_length_a                   9.953(3)
_cell_length_b                   15.929(3)
_cell_length_c                   36.162(7)
_cell_angle_alpha                90
_cell_angle_beta                 90
_cell_angle_gamma                90
_cell_volume                     5733.17
_cell_formula_units_Z            8
loop_
_atom_site_label
_atom_site_type_symbol
_atom_site_fract_x
_atom_site_fract_y
_atom_site_fract_z
N1 N 0.661(1) 0.1673(6) 0.9400(3)
C1 C 0.603(1) 0.2295(9) 0.9199(3)
O1 O 0.667(1) 0.2769(6) 0.9002(3)
N2 N 0.464(1) 0.2328(8) 0.9212(3)
C2 C 0.384(1) 0.1819(1) 0.9449(5)
O2 O 0.262(1) 0.1949(7) 0.9451(3)
C3 C 0.453(1) 0.1201(10) 0.9662(4)
C4 C 0.373(1) 0.0624(9) 0.9898(4)
C5 C 0.591(1) 0.1163(8) 0.9628(3)
C6 C 0.807(2) 0.1575(10) 0.9346(4)
C7 C 0.899(2) 0.2101(10) 0.9596(6)
C8 C 0.948(1) 0.1501(8) 0.9897(4)
O3 O 1.075(1) 0.1713(7) 1.0037(3)
C9 C 0.947(1) 0.0665(9) 0.9682(3)
O4 O 0.839(1) 0.0738(6) 0.9426(2)
C10 C 0.930(1) -0.0114(8) 0.9908(4)
O5 O 0.824(1) 0.0037(5) 1.0156(2)
C11 C 0.772(1) -0.0641(8) 1.0380(4)
C12 C 0.743(2) -0.1413(9) 1.0117(4)
C13 C 0.641(2) -0.1289(9) 0.9855(4)
C14 C 0.616(2) -0.1948(11) 0.9603(4)
C15 C 0.686(2) -0.2665(10) 0.9610(5)
C16 C 0.792(2) -0.2759(13) 0.9872(6)
C17 C 0.815(2) -0.2120(9) 1.0124(5)
C18 C 0.867(2) -0.0861(9) 1.0698(4)
C19 C 0.838(2) -0.1570(9) 1.0926(4)
C20 C 0.912(2) -0.1769(13) 1.1243(5)
C21 C 1.023(2) -0.1298(13) 1.1317(5)
C22 C 1.059(2) -0.0585(13) 1.1100(5)
C23 C 0.977(2) -0.0339(11) 1.0767(5)
C24 C 0.645(2) -0.02838(8) 1.0558(3)
C25 C 0.540(1) -0.0818(10) 1.0652(4)
C26 C 0.426(2) -0.0452(11) 1.0816(4)
C27 C 0.424(2) 0.0399(11) 1.0902(5)
C28 C 0.530(2) 0.0892(10) 1.0812(4)
C29 C 0.637(2) 0.0552(9) 1.0645(4)
N3 N 0.356(1) 0.4366(8) 0.8212(3)
C30 C 0.419(1) 0.3853(8) 0.8469(3)
O6 O 0.358(1) 0.3491(7) 0.8709(3)
N4 N 0.557(1) 0.3805(7) 0.8436(3)
C31 C 0.635(1) 0.4220(8) 0.8192(3)
O7 O 0.757(1) 0.4121(7) 0.8201(3)
C32 C 0.566(1) 0.4738(9) 0.7922(4)
C33 C 0.644(2) 0.5194(11) 0.7626(5)
C34 C 0.428(1) 0.4777(9) 0.7942(4)
C35 C 0.211(1) 0.4455(12) 0.8225(4)
C36 C 0.169(2) 0.5340(15) 0.8304(6)
C37 C 0.049(2) 0.5502(9) 0.8038(3)
O8 O -0.075(1) 0.5580(10) 0.8215(4)
C38 C 0.050(1) 0.4752(9) 0.7759(3)
O9 O 0.163(1) 0.4258(5) 0.7859(2)
C39 C 0.065(1) 0.5047(8) 0.7367(3)
O10 O 0.189(1) 0.5542(5) 0.7341(2)
C40 C 0.234(1) 0.5747(8) 0.6972(4)
C41 C 0.126(1) 0.6263(8) 0.6771(3)
C42 C 0.130(2) 0.7144(9) 0.6758(4)
C43 C 0.028(2) 0.7574(9) 0.6578(4)
C44 C -0.077(2) 0.7157(9) 0.6402(4)
C45 C -0.079(2) 0.6266(11) 0.6407(4)
C46 C 0.018(2) 0.5808(9) 0.6589(4)
C47 C 0.275(2) 0.4968(8) 0.6754(3)
C48 C 0.279(2) 0.4961(9) 0.6381(4)
C49 C 0.318(2) 0.4276(11) 0.6185(4)
C50 C 0.348(2) 0.3526(13) 0.6373(5)
C51 C 0.352(2) 0.3537(12) 0.6751(5)
C52 C 0.316(2) 0.4263(10) 0.6942(4)
C53 C 0.356(1) 0.6302(9) 0.7045(4)
C54 C 0.357(2) 0.6832(12) 0.7376(5)
C55 C 0.469(2) 0.7374(12) 0.7464(7)
C56 C 0.575(2) 0.7362(14) 0.7223(8)
C57 C 0.467(2) 0.6342(12) 0.6806(5)
C58 C 0.577(2) 0.6887(13) 0.6901(7)
C59 C 0.038(4) 0.7969(20) 0.8044(9)
C60 C 0.162(3) 0.8451(19) 0.8015(8)
C61 C 0.255(4) 0.8906(22) 0.8264(10)
C62 C 0.196(4) 0.8808(22) 0.8645(10)
C63 C 0.079(4) 0.8283(20) 0.8698(9)
C64 C 0.001(3) 0.7937(18) 0.8412(9)
loop_
_geom_bond_atom_site_label_1
_geom_bond_atom_site_label_2
_geom_bond_site_symmetry_1
_geom_bond_site_symmetry_2
N1 C1 1_555 1_555
C1 O1 1_555 1_555
N2 C1 1_555 1_555
C2 N2 1_555 1_555
O2 C2 1_555 1_555
C3 C2 1_555 1_555
C4 C3 1_555 1_555
C5 N1 1_555 1_555
C6 N1 1_555 1_555
C7 C6 1_555 1_555
C8 C7 1_555 1_555
O3 C8 1_555 1_555
C9 C8 1_555 1_555
O4 C6 1_555 1_555
C10 C9 1_555 1_555
O5 C10 1_555 1_555
C11 O5 1_555 1_555
C12 C11 1_555 1_555
C13 C12 1_555 1_555
C14 C13 1_555 1_555
C15 C14 1_555 1_555
C16 C15 1_555 1_555
C17 C12 1_555 1_555
C18 C11 1_555 1_555
C19 C18 1_555 1_555
C20 C19 1_555 1_555
C21 C20 1_555 1_555
C22 C21 1_555 1_555
C23 C18 1_555 1_555
C24 C11 1_555 1_555
C25 C24 1_555 1_555
C26 C25 1_555 1_555
C27 C26 1_555 1_555
C28 C27 1_555 1_555
C29 C24 1_555 1_555
N3 C30 1_555 1_555
C30 O6 1_555 1_555
N4 C30 1_555 1_555
C31 N4 1_555 1_555
O7 C31 1_555 1_555
C32 C31 1_555 1_555
C33 C32 1_555 1_555
C34 N3 1_555 1_555
C35 N3 1_555 1_555
C36 C35 1_555 1_555
C37 C36 1_555 1_555
O8 C37 1_555 1_555
C38 C37 1_555 1_555
O9 C35 1_555 1_555
C39 C38 1_555 1_555
O10 C39 1_555 1_555
C40 O10 1_555 1_555
C41 C40 1_555 1_555
C42 C41 1_555 1_555
C43 C42 1_555 1_555
C44 C43 1_555 1_555
C45 C44 1_555 1_555
C46 C41 1_555 1_555
C47 C40 1_555 1_555
C48 C47 1_555 1_555
C49 C48 1_555 1_555
C50 C49 1_555 1_555
C51 C50 1_555 1_555
C52 C47 1_555 1_555
C53 C40 1_555 1_555
C54 C53 1_555 1_555
C55 C54 1_555 1_555
C56 C55 1_555 1_555
C57 C53 1_555 1_555
C58 C56 1_555 1_555
C59 C60 1_555 1_555
C60 C61 1_555 1_555
C61 C62 1_555 1_555
C62 C63 1_555 1_555
C63 C64 1_555 1_555
C64 C59 1_555 1_555
C3 C5 1_555 1_555
C9 O4 1_555 1_555
C16 C17 1_555 1_555
C22 C23 1_555 1_555
C28 C29 1_555 1_555
C32 C34 1_555 1_555
C38 O9 1_555 1_555
C45 C46 1_555 1_555
C51 C52 1_555 1_555
C57 C58 1_555 1_555

#END
