
#######################################################################
#
#                 Cambridge Crystallographic Data Centre
#                                CCDC 
#
#######################################################################
#
# If this CIF has been generated from an entry in the Cambridge 
# Structural Database, then it will include bibliographic, chemical, 
# crystal, experimental, refinement or atomic coordinate data resulting 
# from the CCDC's data processing and validation procedures.
#
#######################################################################

data_LOWNOC
_chemical_formula_moiety         'C13 H10 N2 O1 S1'
_chemical_name_systematic        '3-phenyl-4H-1,2,4-benzothiadiazine 1-oxide'
_symmetry_cell_setting           orthorhombic
_symmetry_space_group_name_H-M   'P b c a'
_symmetry_Int_Tables_number      61
_space_group_name_Hall           '-P 2ac 2ab'
loop_
_symmetry_equiv_pos_site_id
_symmetry_equiv_pos_as_xyz
1 x,y,z
2 1/2-x,-y,1/2+z
3 -x,1/2+y,1/2-z
4 1/2+x,1/2-y,-z
5 -x,-y,-z
6 1/2+x,y,1/2-z
7 x,1/2-y,1/2+z
8 1/2-x,1/2+y,z
_cell_length_a                   8.4577(5)
_cell_length_b                   11.9926(7)
_cell_length_c                   21.3438(13)
_cell_angle_alpha                90
_cell_angle_beta                 90
_cell_angle_gamma                90
_cell_volume                     2164.9
_exptl_crystal_colour            colorless
_exptl_crystal_description       lathe
_cell_formula_units_Z            8
loop_
_atom_site_label
_atom_site_type_symbol
_atom_site_fract_x
_atom_site_fract_y
_atom_site_fract_z
S1 S 0.04937(7) 0.81249(5) 0.09887(3)
O1 O 0.1908(2) 0.75984(13) 0.12965(8)
N1 N 0.1153(2) 0.88479(15) 0.03786(9)
N2 N 0.1561(2) 1.05204(16) 0.09415(9)
C1 C -0.0094(3) 0.92110(19) 0.15005(11)
C2 C -0.1148(3) 0.8967(2) 0.19827(12)
C3 C -0.1544(3) 0.9784(2) 0.24112(12)
C4 C -0.0905(3) 1.0848(2) 0.23517(11)
C5 C 0.0128(3) 1.1101(2) 0.18714(11)
C6 C 0.0535(3) 1.02784(19) 0.14366(10)
C7 C 0.1754(3) 0.98497(18) 0.04392(10)
C8 C 0.2705(3) 1.02810(18) -0.00938(10)
C9 C 0.3362(3) 0.95137(19) -0.05120(11)
C10 C 0.4282(3) 0.9882(2) -0.10034(11)
C11 C 0.4585(3) 1.1011(2) -0.10830(12)
C12 C 0.3925(3) 1.1772(2) -0.06718(11)
C13 C 0.2967(3) 1.14147(19) -0.01847(11)
H1 H 0.055(3) 1.182(2) 0.1833(13)
H2 H -0.160(3) 0.822(2) 0.2030(12)
H3 H 0.208(3) 1.114(2) 0.0956(12)
H4 H -0.224(3) 0.959(2) 0.2728(12)
H5 H -0.118(3) 1.141(2) 0.2652(12)
H6 H 0.471(3) 0.939(2) -0.1259(13)
H7 H 0.317(3) 0.873(2) -0.0446(12)
H8 H 0.412(3) 1.256(2) -0.0718(12)
H9 H 0.250(3) 1.196(2) 0.0089(12)
H10 H 0.524(3) 1.126(2) -0.1429(13)
loop_
_geom_bond_atom_site_label_1
_geom_bond_atom_site_label_2
_geom_bond_site_symmetry_1
_geom_bond_site_symmetry_2
S1 O1 1_555 1_555
N1 S1 1_555 1_555
N2 C6 1_555 1_555
C1 S1 1_555 1_555
C2 C1 1_555 1_555
C3 C2 1_555 1_555
C4 C3 1_555 1_555
C5 C4 1_555 1_555
C6 C1 1_555 1_555
C7 N1 1_555 1_555
C8 C7 1_555 1_555
C9 C8 1_555 1_555
C10 C9 1_555 1_555
C11 C10 1_555 1_555
C12 C11 1_555 1_555
C13 C8 1_555 1_555
H1 C5 1_555 1_555
H2 C2 1_555 1_555
H3 N2 1_555 1_555
H4 C3 1_555 1_555
H5 C4 1_555 1_555
H6 C10 1_555 1_555
H7 C9 1_555 1_555
H8 C12 1_555 1_555
H9 C13 1_555 1_555
H10 C11 1_555 1_555
N2 C7 1_555 1_555
C5 C6 1_555 1_555
C12 C13 1_555 1_555

#END
