
#######################################################################
#
#                 Cambridge Crystallographic Data Centre
#                                CCDC 
#
#######################################################################
#
# If this CIF has been generated from an entry in the Cambridge 
# Structural Database, then it will include bibliographic, chemical, 
# crystal, experimental, refinement or atomic coordinate data resulting 
# from the CCDC's data processing and validation procedures.
#
#######################################################################

data_LOWPEU
_chemical_formula_moiety         'C25 H25 F5 N4'
_chemical_name_systematic        
N-t-butyl-1-(5-((5-(t-butylcarbonoimidoyl)-2H-pyrrol-2-ylidene)(pentafluorophenyl)methyl)-1H-pyrrol-2-yl)methanimine
_symmetry_cell_setting           triclinic
_symmetry_space_group_name_H-M   'P -1'
_symmetry_Int_Tables_number      2
_space_group_name_Hall           '-P 1'
loop_
_symmetry_equiv_pos_site_id
_symmetry_equiv_pos_as_xyz
1 x,y,z
2 -x,-y,-z
_cell_length_a                   12.0938(6)
_cell_length_b                   14.2191(11)
_cell_length_c                   14.6822(11)
_cell_angle_alpha                104.393(7)
_cell_angle_beta                 90.013(5)
_cell_angle_gamma                95.477(5)
_cell_volume                     2433.63
_exptl_crystal_colour            red
_exptl_crystal_description       plate
_cell_formula_units_Z            4
loop_
_atom_site_label
_atom_site_type_symbol
_atom_site_fract_x
_atom_site_fract_y
_atom_site_fract_z
N1 N 1.0273(4) 0.6030(3) -0.2642(3)
C1 C 0.8394(4) 0.8735(4) 0.1996(4)
F1 F 0.6370(2) 0.2798(2) -0.1555(2)
N2 N 0.9313(3) 0.4624(3) -0.1719(3)
H1 H 0.929(3) 0.521(2) -0.129(2)
C2 C 0.9290(5) 0.9124(4) 0.1409(5)
H2 H 0.9981 0.8833 0.1467
H3 H 0.9421 0.9836 0.1636
H4 H 0.9043 0.8954 0.0747
F2 F 0.5514(3) 0.1010(2) -0.1451(2)
N3 N 0.8620(3) 0.5513(3) 0.0059(3)
C3 C 0.7288(6) 0.9135(5) 0.1862(6)
H5 H 0.6720 0.8879 0.2237
H6 H 0.7059 0.8932 0.1196
H7 H 0.7380 0.9849 0.2067
F3 F 0.6558(3) 0.0046(2) -0.0387(3)
N4 N 0.8159(3) 0.7669(3) 0.1784(3)
C4 C 0.8766(5) 0.9043(4) 0.3027(4)
H8 H 0.8201 0.8789 0.3406
H9 H 0.8865 0.9756 0.3235
H10 H 0.9472 0.8781 0.3102
F4 F 0.8467(3) 0.0875(2) 0.0553(3)
C5 C 0.8571(4) 0.7139(3) 0.1068(4)
H11 H 0.9032 0.7426 0.0667
F5 F 0.9323(2) 0.2659(2) 0.0459(2)
C6 C 0.8330(4) 0.6079(4) 0.0865(4)
C7 C 0.7754(4) 0.5531(4) 0.1463(4)
H12 H 0.7474 0.5789 0.2069
C8 C 0.7692(4) 0.4594(4) 0.0995(4)
H13 H 0.7363 0.4054 0.1204
C9 C 0.8232(4) 0.4563(3) 0.0099(4)
C10 C 0.8342(4) 0.3768(3) -0.0633(4)
C11 C 1.0230(4) 0.5141(4) -0.3032(4)
H14 H 1.0524 0.4940 -0.3643
C12 C 0.9745(4) 0.4401(4) -0.2582(4)
C13 C 0.9564(4) 0.3404(4) -0.2937(4)
H15 H 0.9778 0.3045 -0.3535
C14 C 0.9018(4) 0.3022(4) -0.2266(4)
H16 H 0.8786 0.2353 -0.2319
C15 C 0.8868(4) 0.3793(3) -0.1500(4)
C16 C 0.8375(4) 0.2266(4) -0.0018(4)
C17 C 0.7946(5) 0.1350(4) 0.0026(4)
C18 C 0.6991(5) 0.0927(4) -0.0448(4)
C19 C 0.6467(4) 0.1412(4) -0.0990(4)
C20 C 0.6906(4) 0.2325(3) -0.1035(4)
C21 C 1.0655(5) 0.6420(5) -0.4212(4)
H17 H 1.0918 0.6961 -0.4484
H18 H 0.9875 0.6208 -0.4400
H19 H 1.1105 0.5874 -0.4438
C22 C 1.0758(5) 0.6756(4) -0.3140(5)
C23 C 1.0117(5) 0.7641(4) -0.2793(4)
H20 H 1.0434 0.8176 -0.3054
H21 H 1.0167 0.7847 -0.2105
H22 H 0.9336 0.7472 -0.2997
C24 C 1.1971(5) 0.7005(5) -0.2831(4)
H23 H 1.2308 0.7507 -0.3126
H24 H 1.2365 0.6419 -0.3021
H25 H 1.2025 0.7251 -0.2145
C25 C 0.7871(4) 0.2787(3) -0.0555(3)
H26 H 0.434(4) 0.513(4) 0.643(4)
N5 N 0.3061(3) 0.7545(3) 0.4428(3)
F6 F 0.4393(2) 0.2609(2) 0.3427(2)
N6 N 0.3595(3) 0.5435(3) 0.5149(3)
F7 F 0.3574(3) 0.0829(2) 0.2435(2)
N7 N 0.4309(3) 0.4571(3) 0.6524(3)
F8 F 0.1655(3) -0.0033(2) 0.2921(3)
N8 N 0.5276(4) 0.5995(3) 0.8120(3)
F9 F 0.0570(3) 0.0892(2) 0.4452(3)
F10 F 0.1376(2) 0.2675(2) 0.5444(2)
C26 C 0.3217(4) 0.8616(4) 0.4706(4)
C27 C 0.2058(5) 0.8943(4) 0.4876(5)
H27 H 0.2103 0.9657 0.5027
H28 H 0.1733 0.8713 0.5402
H29 H 0.1592 0.8671 0.4309
C28 C 0.3959(6) 0.9060(4) 0.5567(5)
H30 H 0.3990 0.9773 0.5707
H31 H 0.4709 0.8859 0.5446
H32 H 0.3658 0.8836 0.6105
C29 C 0.2686(4) 0.4478(3) 0.3783(4)
H33 H 0.2363 0.3926 0.3323
C30 C 0.2736(4) 0.5415(4) 0.3749(4)
H34 H 0.2459 0.5659 0.3257
C31 C 0.3298(4) 0.5986(3) 0.4615(4)
C32 C 0.3491(4) 0.7045(3) 0.4897(4)
H35 H 0.3942 0.7356 0.5437
C33 C 0.3693(5) 0.8927(4) 0.3856(5)
H36 H 0.3769 0.9641 0.3987
H37 H 0.3193 0.8655 0.3309
H38 H 0.4424 0.8687 0.3724
C34 C 0.3226(4) 0.4482(3) 0.4664(4)
C35 C 0.3348(4) 0.3696(3) 0.5022(3)
C36 C 0.3442(4) 0.2201(3) 0.3692(4)
C37 C 0.2910(4) 0.2704(3) 0.4464(3)
C38 C 0.1945(4) 0.2226(4) 0.4703(4)
C39 C 0.1517(4) 0.1315(4) 0.4201(4)
C40 C 0.2064(5) 0.0846(4) 0.3431(4)
C41 C 0.3029(5) 0.1286(4) 0.3174(4)
C42 C 0.4524(4) 0.3362(4) 0.7189(4)
H39 H 0.4720 0.3010 0.7627
C43 C 0.3991(4) 0.2968(4) 0.6322(4)
H40 H 0.3760 0.2298 0.6058
C44 C 0.3857(4) 0.3730(3) 0.5911(4)
C45 C 0.4716(4) 0.4351(4) 0.7300(4)
C46 C 0.5671(5) 0.6402(4) 0.9867(4)
H41 H 0.5951 0.6944 1.0393
H42 H 0.6123 0.5856 0.9819
H43 H 0.4897 0.6192 0.9972
C47 C 0.5070(5) 0.7604(4) 0.9033(4)
H44 H 0.5355 0.8133 0.9570
H45 H 0.4288 0.7410 0.9127
H46 H 0.5138 0.7829 0.8455
C48 C 0.5740(5) 0.6735(4) 0.8954(4)
C49 C 0.5200(4) 0.5097(4) 0.8104(4)
H47 H 0.5466 0.4904 0.8632
C50 C 0.6949(5) 0.7014(4) 0.8750(4)
H48 H 0.7261 0.7563 0.9257
H49 H 0.6985 0.7202 0.8152
H50 H 0.7378 0.6455 0.8711
loop_
_geom_bond_atom_site_label_1
_geom_bond_atom_site_label_2
_geom_bond_site_symmetry_1
_geom_bond_site_symmetry_2
N1 C11 1_555 1_555
C1 C2 1_555 1_555
F1 C20 1_555 1_555
N2 H1 1_555 1_555
C2 H2 1_555 1_555
H3 C2 1_555 1_555
H4 C2 1_555 1_555
F2 C19 1_555 1_555
N3 C6 1_555 1_555
C3 C1 1_555 1_555
H5 C3 1_555 1_555
H6 C3 1_555 1_555
H7 C3 1_555 1_555
F3 C18 1_555 1_555
N4 C1 1_555 1_555
C4 C1 1_555 1_555
H8 C4 1_555 1_555
H9 C4 1_555 1_555
H10 C4 1_555 1_555
F4 C17 1_555 1_555
C5 N4 1_555 1_555
H11 C5 1_555 1_555
F5 C16 1_555 1_555
C6 C5 1_555 1_555
C7 C6 1_555 1_555
H12 C7 1_555 1_555
C8 C7 1_555 1_555
H13 C8 1_555 1_555
C9 N3 1_555 1_555
C10 C9 1_555 1_555
C11 H14 1_555 1_555
C12 N2 1_555 1_555
C13 C12 1_555 1_555
H15 C13 1_555 1_555
C14 C13 1_555 1_555
H16 C14 1_555 1_555
C15 N2 1_555 1_555
C16 C17 1_555 1_555
C17 C18 1_555 1_555
C18 C19 1_555 1_555
C19 C20 1_555 1_555
C20 C25 1_555 1_555
C21 H17 1_555 1_555
H18 C21 1_555 1_555
H19 C21 1_555 1_555
C22 N1 1_555 1_555
C23 C22 1_555 1_555
H20 C23 1_555 1_555
H21 C23 1_555 1_555
H22 C23 1_555 1_555
C24 C22 1_555 1_555
H23 C24 1_555 1_555
H24 C24 1_555 1_555
H25 C24 1_555 1_555
C25 C10 1_555 1_555
H26 N7 1_555 1_555
N5 C26 1_555 1_555
F6 C36 1_555 1_555
N6 C31 1_555 1_555
F7 C41 1_555 1_555
N7 C44 1_555 1_555
F8 C40 1_555 1_555
N8 C48 1_555 1_555
F9 C39 1_555 1_555
F10 C38 1_555 1_555
C26 C27 1_555 1_555
C27 H27 1_555 1_555
H28 C27 1_555 1_555
H29 C27 1_555 1_555
C28 C26 1_555 1_555
H30 C28 1_555 1_555
H31 C28 1_555 1_555
H32 C28 1_555 1_555
C29 H33 1_555 1_555
C30 C29 1_555 1_555
H34 C30 1_555 1_555
C31 C30 1_555 1_555
C32 N5 1_555 1_555
H35 C32 1_555 1_555
C33 C26 1_555 1_555
H36 C33 1_555 1_555
H37 C33 1_555 1_555
H38 C33 1_555 1_555
C34 N6 1_555 1_555
C35 C34 1_555 1_555
C36 C37 1_555 1_555
C37 C35 1_555 1_555
C38 C37 1_555 1_555
C39 C38 1_555 1_555
C40 C39 1_555 1_555
C41 C36 1_555 1_555
C42 H39 1_555 1_555
C43 C42 1_555 1_555
H40 C43 1_555 1_555
C44 C35 1_555 1_555
C45 N7 1_555 1_555
C46 H41 1_555 1_555
H42 C46 1_555 1_555
H43 C46 1_555 1_555
C47 H44 1_555 1_555
H45 C47 1_555 1_555
H46 C47 1_555 1_555
C48 C46 1_555 1_555
C49 N8 1_555 1_555
H47 C49 1_555 1_555
C50 C48 1_555 1_555
H48 C50 1_555 1_555
H49 C50 1_555 1_555
H50 C50 1_555 1_555
C8 C9 1_555 1_555
C10 C15 1_555 1_555
C11 C12 1_555 1_555
C14 C15 1_555 1_555
C16 C25 1_555 1_555
C21 C22 1_555 1_555
C29 C34 1_555 1_555
C31 C32 1_555 1_555
C40 C41 1_555 1_555
C42 C45 1_555 1_555
C43 C44 1_555 1_555
C45 C49 1_555 1_555
C47 C48 1_555 1_555

#END
