
#######################################################################
#
#                 Cambridge Crystallographic Data Centre
#                                CCDC 
#
#######################################################################
#
# If this CIF has been generated from an entry in the Cambridge 
# Structural Database, then it will include bibliographic, chemical, 
# crystal, experimental, refinement or atomic coordinate data resulting 
# from the CCDC's data processing and validation procedures.
#
#######################################################################

data_LOWPIY
_chemical_formula_moiety         'C50 H34 F10 N8,4(C4 H8 O1)'
_chemical_name_systematic        
'11,12,30,31-tetramethyl-2,21-bis(pentafluorophenyl)-8,15,27,34,39,40,41,42-octaazaheptacyclo[34.2.1.1^3,6^.1^17,20^.1^22,25^.0^9,14^.0^28,33^]dotetraconta-1(38),3,5,7,9,11,13,15,17,19,22,24,26,28,30,32,34,36-octadecaene tetrahydrofuran solvate'
_symmetry_cell_setting           orthorhombic
_symmetry_space_group_name_H-M   'P n n 2'
_symmetry_Int_Tables_number      34
_space_group_name_Hall           'P 2 -2n'
loop_
_symmetry_equiv_pos_site_id
_symmetry_equiv_pos_as_xyz
1 x,y,z
2 -x,-y,z
3 1/2-x,1/2+y,1/2+z
4 1/2+x,1/2-y,1/2+z
_cell_length_a                   29.8511(18)
_cell_length_b                   27.674(2)
_cell_length_c                   7.7730(8)
_cell_angle_alpha                90
_cell_angle_beta                 90
_cell_angle_gamma                90
_cell_volume                     6421.27
_exptl_crystal_colour            'pale yellow'
_exptl_crystal_description       plate
_cell_formula_units_Z            4
loop_
_atom_site_label
_atom_site_type_symbol
_atom_site_fract_x
_atom_site_fract_y
_atom_site_fract_z
C1 C 0.5184(2) 0.4107(2) 0.0709(13)
H1 H 0.5369 0.4322 0.1343
C2 C 0.4706(2) 0.4164(2) 0.0771(12)
C3 C 0.4447(2) 0.4490(2) 0.1686(14)
H2 H 0.4554 0.4739 0.2421
C4 C 0.3993(2) 0.4383(2) 0.1320(13)
H3 H 0.3740 0.4544 0.1786
C5 C 0.3985(2) 0.4006(2) 0.0173(11)
C6 C 0.3612(2) 0.3707(2) -0.0550(12)
H4 H 0.3690 0.3640 -0.1777
C7 C 0.3167(2) 0.3977(2) -0.0565(13)
C8 C 0.2913(3) 0.4040(3) 0.0913(15)
C9 C 0.2496(3) 0.4273(3) 0.0840(17)
C10 C 0.2343(3) 0.4454(3) -0.0675(19)
C11 C 0.2584(3) 0.4399(3) -0.2132(16)
C12 C 0.2995(3) 0.4166(2) -0.2020(14)
C13 C 0.3581(2) 0.3223(2) 0.0349(10)
C14 C 0.3845(3) 0.3036(2) 0.1606(13)
H5 H 0.4094 0.3192 0.2128
C15 C 0.3687(3) 0.2569(2) 0.2002(13)
H6 H 0.3802 0.2357 0.2856
C16 C 0.3334(2) 0.2479(2) 0.0911(11)
C17 C 0.3058(2) 0.2055(2) 0.0806(11)
H7 H 0.3121 0.1793 0.1557
C18 C 0.2493(2) 0.1578(2) -0.0332(11)
C19 C 0.2033(2) 0.1605(2) -0.0467(12)
H8 H 0.1898 0.1916 -0.0504
C20 C 0.1754(2) 0.1201(3) -0.0550(13)
C21 C 0.1959(2) 0.0743(2) -0.0596(13)
C22 C 0.2421(2) 0.0712(2) -0.0472(12)
H9 H 0.2556 0.0401 -0.0472
C23 C 0.2699(2) 0.1123(2) -0.0345(11)
C24 C 0.1256(2) 0.1263(3) -0.0603(16)
H10 H 0.1131 0.1068 -0.1541
H11 H 0.1184 0.1604 -0.0796
H12 H 0.1126 0.1158 0.0493
C25 C 0.3347(2) 0.0756(2) 0.0695(11)
H13 H 0.3159 0.0543 0.1327
C26 C 0.3829(2) 0.0699(2) 0.0810(11)
C27 C 0.4092(2) 0.0420(2) 0.1814(12)
H14 H 0.3989 0.0188 0.2623
C28 C 0.4542(2) 0.0527(2) 0.1467(12)
H15 H 0.4796 0.0390 0.2014
C29 C 0.4544(2) 0.0866(2) 0.0200(10)
C30 C 0.4914(2) 0.1159(2) -0.0634(12)
H16 H 0.4805 0.1251 -0.1805
C31 C 0.5333(2) 0.0856(2) -0.0892(12)
C32 C 0.5380(3) 0.0594(2) -0.2412(14)
C33 C 0.5756(4) 0.0339(3) -0.2782(17)
C34 C 0.6104(3) 0.0338(3) -0.1669(19)
C35 C 0.6082(3) 0.0587(3) -0.0154(19)
C36 C 0.5692(3) 0.0840(2) 0.0207(14)
C37 C 0.4977(2) 0.1620(2) 0.0341(11)
C38 C 0.4754(3) 0.1790(3) 0.1775(14)
H17 H 0.4531 0.1624 0.2417
C39 C 0.4920(3) 0.2252(3) 0.2098(15)
H18 H 0.4818 0.2461 0.2983
C40 C 0.5246(3) 0.2354(2) 0.0954(13)
C41 C 0.5519(3) 0.2786(2) 0.0800(14)
H19 H 0.5471 0.3039 0.1603
C42 C 0.6051(2) 0.3293(2) -0.0376(12)
C43 C 0.6513(2) 0.3281(2) -0.0590(13)
H20 H 0.6655 0.2975 -0.0718
C44 C 0.6779(2) 0.3695(3) -0.0625(13)
C45 C 0.6564(2) 0.4138(2) -0.0557(12)
C46 C 0.6105(2) 0.4155(2) -0.0389(12)
H21 H 0.5965 0.4463 -0.0346
C47 C 0.5839(2) 0.3748(2) -0.0278(11)
C48 C 0.7277(2) 0.3650(3) -0.0753(15)
H22 H 0.7357 0.3314 -0.0998
H23 H 0.7414 0.3750 0.0338
H24 H 0.7387 0.3859 -0.1681
C49 C 0.6841(3) 0.4602(3) -0.0644(17)
H25 H 0.6986 0.4625 -0.1770
H26 H 0.7069 0.4598 0.0261
H27 H 0.6643 0.4881 -0.0477
N1 N 0.53690(16) 0.37682(18) -0.0194(9)
N2 N 0.44181(16) 0.38759(16) -0.0156(9)
H28 H 0.4501 0.3643 -0.0857
N3 N 0.32744(17) 0.28848(16) -0.0096(9)
H29 H 0.3070 0.2918 -0.0902
N4 N 0.27331(18) 0.20137(17) -0.0252(10)
N5 N 0.31681(17) 0.10823(17) -0.0223(9)
N6 N 0.41103(17) 0.09735(17) -0.0189(8)
H30 H 0.4024 0.1186 -0.0962
N7 N 0.52791(17) 0.19671(17) -0.0161(10)
H31 H 0.5462 0.1947 -0.1045
N8 N 0.58223(19) 0.28459(18) -0.0355(11)
F1 F 0.30534(17) 0.3874(2) 0.2435(8)
F2 F 0.2264(2) 0.4321(3) 0.2327(11)
F3 F 0.19441(17) 0.4681(2) -0.0704(12)
F4 F 0.24349(18) 0.4578(2) -0.3584(10)
F5 F 0.32258(15) 0.41352(16) -0.3510(8)
F6 F 0.5047(2) 0.05962(19) -0.3549(8)
F7 F 0.5785(3) 0.0090(2) -0.4264(11)
F8 F 0.64840(18) 0.0085(2) -0.2039(12)
F9 F 0.64213(18) 0.0590(2) 0.0926(13)
F10 F 0.5670(2) 0.1066(2) 0.1716(10)
C50 C 0.1679(3) 0.0291(3) -0.0726(15)
H32 H 0.1524 0.0286 -0.1837
H33 H 0.1458 0.0287 0.0207
H34 H 0.1874 0.0007 -0.0633
C51 C 0.3752(3) 0.1922(3) 0.6692(16)
H35 H 0.3866 0.2196 0.5996
H36 H 0.3681 0.2043 0.7860
C52 C 0.3348(3) 0.1716(3) 0.5888(14)
H37 H 0.3246 0.1919 0.4914
H38 H 0.3101 0.1688 0.6734
C53 C 0.3493(4) 0.1234(5) 0.528(2)
H39 H 0.3339 0.0978 0.5946
H40 H 0.3417 0.1193 0.4050
C54 C 0.3967(3) 0.1200(4) 0.5518(15)
H41 H 0.4051 0.0871 0.5899
H42 H 0.4125 0.1270 0.4426
O1 O 0.40857(17) 0.1543(2) 0.6786(9)
C55 C 0.6273(5) 0.1831(7) 0.727(2)
H43 H 0.6467 0.1541 0.7292
H44 H 0.6308 0.2010 0.8369
C56 C 0.6370(7) 0.2137(7) 0.580(4)
H45 H 0.6695 0.2129 0.5536
H46 H 0.6283 0.2475 0.6046
C57 C 0.6114(6) 0.1952(10) 0.434(3)
H47 H 0.6294 0.1728 0.3624
H48 H 0.5997 0.2217 0.3608
C58 C 0.5748(5) 0.1696(5) 0.525(2)
H49 H 0.5458 0.1852 0.4989
H50 H 0.5734 0.1356 0.4857
O2 O 0.5824(2) 0.1709(3) 0.6967(10)
C59 C 0.4767(4) 0.2868(4) -0.310(2)
H51 H 0.4655 0.2580 -0.3727
H52 H 0.4867 0.2770 -0.1942
C60 C 0.5135(4) 0.3109(6) -0.4074(19)
H53 H 0.5306 0.2871 -0.4764
H54 H 0.5344 0.3275 -0.3280
C61 C 0.4898(4) 0.3472(4) -0.524(2)
H55 H 0.5059 0.3784 -0.5267
H56 H 0.4869 0.3346 -0.6425
C62 C 0.4462(5) 0.3522(8) -0.442(2)
H57 H 0.4416 0.3864 -0.4094
H58 H 0.4226 0.3432 -0.5256
O3 O 0.4426(2) 0.3240(3) -0.3010(11)
C63 C 0.2836(5) 0.2991(4) -0.4630(18)
H59 H 0.2990 0.2674 -0.4587
H60 H 0.3036 0.3225 -0.5215
C64 C 0.2403(6) 0.2946(7) -0.559(2)
H61 H 0.2353 0.3223 -0.6372
H62 H 0.2386 0.2641 -0.6249
C65 C 0.2104(7) 0.2949(13) -0.421(3)
H63 H 0.1854 0.3171 -0.4495
H64 H 0.1976 0.2621 -0.4088
C66 C 0.2278(3) 0.3084(4) -0.268(2)
H65 H 0.2227 0.2830 -0.1806
H66 H 0.2138 0.3388 -0.2278
O4 O 0.2739(2) 0.3150(2) -0.2965(10)
loop_
_geom_bond_atom_site_label_1
_geom_bond_atom_site_label_2
_geom_bond_site_symmetry_1
_geom_bond_site_symmetry_2
C1 H1 1_555 1_555
C2 C1 1_555 1_555
C3 C2 1_555 1_555
H2 C3 1_555 1_555
C4 C3 1_555 1_555
H3 C4 1_555 1_555
C5 C4 1_555 1_555
C6 C5 1_555 1_555
H4 C6 1_555 1_555
C7 C6 1_555 1_555
C8 C7 1_555 1_555
C9 C8 1_555 1_555
C10 C9 1_555 1_555
C11 C10 1_555 1_555
C12 C7 1_555 1_555
C13 C6 1_555 1_555
C14 C13 1_555 1_555
H5 C14 1_555 1_555
C15 C14 1_555 1_555
H6 C15 1_555 1_555
C16 C15 1_555 1_555
C17 C16 1_555 1_555
H7 C17 1_555 1_555
C18 C19 1_555 1_555
C19 H8 1_555 1_555
C20 C19 1_555 1_555
C21 C20 1_555 1_555
C22 C21 1_555 1_555
H9 C22 1_555 1_555
C23 C18 1_555 1_555
C24 C20 1_555 1_555
H10 C24 1_555 1_555
H11 C24 1_555 1_555
H12 C24 1_555 1_555
C25 H13 1_555 1_555
C26 C25 1_555 1_555
C27 C26 1_555 1_555
H14 C27 1_555 1_555
C28 C27 1_555 1_555
H15 C28 1_555 1_555
C29 C28 1_555 1_555
C30 C29 1_555 1_555
H16 C30 1_555 1_555
C31 C30 1_555 1_555
C32 C31 1_555 1_555
C33 C32 1_555 1_555
C34 C33 1_555 1_555
C35 C34 1_555 1_555
C36 C31 1_555 1_555
C37 C30 1_555 1_555
C38 C37 1_555 1_555
H17 C38 1_555 1_555
C39 C38 1_555 1_555
H18 C39 1_555 1_555
C40 C39 1_555 1_555
C41 C40 1_555 1_555
H19 C41 1_555 1_555
C42 C43 1_555 1_555
C43 H20 1_555 1_555
C44 C43 1_555 1_555
C45 C44 1_555 1_555
C46 C45 1_555 1_555
H21 C46 1_555 1_555
C47 C42 1_555 1_555
C48 C44 1_555 1_555
H22 C48 1_555 1_555
H23 C48 1_555 1_555
H24 C48 1_555 1_555
C49 C45 1_555 1_555
H25 C49 1_555 1_555
H26 C49 1_555 1_555
H27 C49 1_555 1_555
N1 C1 1_555 1_555
N2 C2 1_555 1_555
H28 N2 1_555 1_555
N3 C13 1_555 1_555
H29 N3 1_555 1_555
N4 C17 1_555 1_555
N5 C23 1_555 1_555
N6 C26 1_555 1_555
H30 N6 1_555 1_555
N7 C37 1_555 1_555
H31 N7 1_555 1_555
N8 C41 1_555 1_555
F1 C8 1_555 1_555
F2 C9 1_555 1_555
F3 C10 1_555 1_555
F4 C11 1_555 1_555
F5 C12 1_555 1_555
F6 C32 1_555 1_555
F7 C33 1_555 1_555
F8 C34 1_555 1_555
F9 C35 1_555 1_555
F10 C36 1_555 1_555
C50 C21 1_555 1_555
H32 C50 1_555 1_555
H33 C50 1_555 1_555
H34 C50 1_555 1_555
C51 H35 1_555 1_555
H36 C51 1_555 1_555
C52 C51 1_555 1_555
H37 C52 1_555 1_555
H38 C52 1_555 1_555
C53 C52 1_555 1_555
H39 C53 1_555 1_555
H40 C53 1_555 1_555
C54 C53 1_555 1_555
H41 C54 1_555 1_555
H42 C54 1_555 1_555
O1 C51 1_555 1_555
C55 H43 1_555 1_555
H44 C55 1_555 1_555
C56 C55 1_555 1_555
H45 C56 1_555 1_555
H46 C56 1_555 1_555
C57 C56 1_555 1_555
H47 C57 1_555 1_555
H48 C57 1_555 1_555
C58 C57 1_555 1_555
H49 C58 1_555 1_555
H50 C58 1_555 1_555
O2 C55 1_555 1_555
C59 H51 1_555 1_555
H52 C59 1_555 1_555
C60 C59 1_555 1_555
H53 C60 1_555 1_555
H54 C60 1_555 1_555
C61 C60 1_555 1_555
H55 C61 1_555 1_555
H56 C61 1_555 1_555
C62 C61 1_555 1_555
H57 C62 1_555 1_555
H58 C62 1_555 1_555
O3 C59 1_555 1_555
C63 H59 1_555 1_555
H60 C63 1_555 1_555
C64 C63 1_555 1_555
H61 C64 1_555 1_555
H62 C64 1_555 1_555
C65 C64 1_555 1_555
H63 C65 1_555 1_555
H64 C65 1_555 1_555
C66 C65 1_555 1_555
H65 C66 1_555 1_555
H66 C66 1_555 1_555
O4 C63 1_555 1_555
C5 N2 1_555 1_555
C11 C12 1_555 1_555
C16 N3 1_555 1_555
C18 N4 1_555 1_555
C22 C23 1_555 1_555
C25 N5 1_555 1_555
C29 N6 1_555 1_555
C35 C36 1_555 1_555
C40 N7 1_555 1_555
C42 N8 1_555 1_555
C46 C47 1_555 1_555
C47 N1 1_555 1_555
C54 O1 1_555 1_555
C58 O2 1_555 1_555
C62 O3 1_555 1_555
C66 O4 1_555 1_555

#END
