
#######################################################################
#
#                 Cambridge Crystallographic Data Centre
#                                CCDC 
#
#######################################################################
#
# If this CIF has been generated from an entry in the Cambridge 
# Structural Database, then it will include bibliographic, chemical, 
# crystal, experimental, refinement or atomic coordinate data resulting 
# from the CCDC's data processing and validation procedures.
#
#######################################################################

data_LOWPOE
_chemical_formula_moiety         'C62 H34 F10 N8,4(C1 H4 O1),H2 O1'
_chemical_name_systematic        
'12,38-bis(pentafluorophenyl)-6,18,32,44,54,55,57,58-octaazaundecacyclo[47.3.1.1^8,11^.1^13,16^.1^23,27^.1^34,37^.1^39,42^.0^5,52^.0^19,24^.0^26,31^.0^45,50^]octapentaconta-1(53),2,4,6,8,10,13,15,17,19,21,23,25,27(56),28,30,32,34,36,39,41,43,45,47,49,51-hexacosaene methanol solvate monohydrate'
_symmetry_cell_setting           triclinic
_symmetry_space_group_name_H-M   'P -1'
_symmetry_Int_Tables_number      2
_space_group_name_Hall           '-P 1'
loop_
_symmetry_equiv_pos_site_id
_symmetry_equiv_pos_as_xyz
1 x,y,z
2 -x,-y,-z
_cell_length_a                   13.5433(7)
_cell_length_b                   14.8529(9)
_cell_length_c                   17.1922(7)
_cell_angle_alpha                107.163(5)
_cell_angle_beta                 98.360(4)
_cell_angle_gamma                108.596(5)
_cell_volume                     3020.31
_exptl_crystal_colour            'pale brown'
_exptl_crystal_description       needle
_cell_formula_units_Z            2
loop_
_atom_site_label
_atom_site_type_symbol
_atom_site_fract_x
_atom_site_fract_y
_atom_site_fract_z
O1 O 0.4196(5) 0.2259(5) 0.2522(4)
H1 H 0.486(2) 0.239(5) 0.251(5)
H2 H 0.392(5) 0.268(4) 0.275(4)
F1 F 1.0561(3) 0.6580(3) 0.4953(2)
F2 F 0.9775(3) 0.4639(3) 0.3916(2)
F3 F 0.7605(4) 0.3560(3) 0.3337(3)
F4 F 0.6226(4) 0.4501(3) 0.3773(3)
F5 F 0.7010(3) 0.6490(3) 0.4754(2)
F6 F 0.6931(4) 0.8465(3) 0.5915(3)
F7 F 0.5120(5) 0.6805(4) 0.5100(3)
F8 F 0.3172(4) 0.6890(5) 0.5229(3)
F9 F 0.3083(4) 0.8697(5) 0.6146(4)
F10 F 0.4907(3) 1.0353(4) 0.7004(4)
N1 N 0.8276(5) 0.6539(4) 0.8152(3)
N2 N 0.9070(4) 0.7317(4) 0.6855(4)
H3 H 0.8361 0.7105 0.6720
N3 N 1.0661(4) 0.9404(4) 0.5821(3)
H4 H 1.0678 0.9652 0.6357
N4 N 1.2365(4) 1.1510(4) 0.6572(4)
N5 N 1.0337(5) 1.3662(4) 0.7588(4)
N6 N 0.8367(4) 1.2000(5) 0.7167(3)
H5 H 0.8885 1.1955 0.7508
N7 N 0.6763(5) 0.9874(5) 0.8290(4)
H6 H 0.6556 0.9219 0.8000
N8 N 0.6305(5) 0.8705(6) 0.9343(4)
C1 C 0.9238(5) 0.7693(5) 0.5541(4)
H7 H 0.8607 0.7898 0.5587
C2 C 1.0017(5) 0.8447(5) 0.5277(5)
C3 C 1.0204(5) 0.8358(5) 0.4497(5)
H8 H 0.9855 0.7777 0.3990
C4 C 1.1008(6) 0.9285(6) 0.4588(5)
H9 H 1.1307 0.9438 0.4154
C5 C 1.1288(5) 0.9930(5) 0.5411(5)
C6 C 1.2116(5) 1.0916(6) 0.5800(5)
H10 H 1.2530 1.1163 0.5453
C7 C 1.3319(6) 1.2397(6) 0.6870(4)
C8 C 1.4300(6) 1.2337(6) 0.6791(5)
H11 H 1.4328 1.1695 0.6506
C9 C 1.5258(6) 1.3219(7) 0.7127(5)
H12 H 1.5925 1.3159 0.7075
C10 C 1.5248(6) 1.4146(7) 0.7522(5)
H13 H 1.5902 1.4732 0.7734
C11 C 1.4255(6) 1.4246(6) 0.7620(4)
C12 C 1.4222(6) 1.5198(6) 0.8016(4)
H14 H 1.4876 1.5785 0.8225
C13 C 1.3263(6) 1.5318(5) 0.8115(4)
C14 C 1.3236(7) 1.6283(6) 0.8505(5)
H15 H 1.3885 1.6874 0.8720
C15 C 1.2287(8) 1.6371(6) 0.8575(5)
H16 H 1.2281 1.7028 0.8840
C16 C 1.1298(6) 1.5506(6) 0.8263(5)
H17 H 1.0641 1.5587 0.8321
C17 C 1.1294(6) 1.4552(5) 0.7878(4)
C18 C 1.2289(5) 1.4437(5) 0.7795(4)
C19 C 1.2312(6) 1.3477(5) 0.7406(4)
H18 H 1.1661 1.2890 0.7210
C20 C 1.3263(5) 1.3368(5) 0.7302(4)
C21 C 0.9469(6) 1.3658(5) 0.7165(4)
H19 H 0.9492 1.4235 0.7023
C22 C 0.8470(6) 1.2802(6) 0.6905(5)
C23 C 0.7483(6) 1.2576(6) 0.6390(5)
H20 H 0.7310 1.2999 0.6118
C24 C 0.6771(6) 1.1623(6) 0.6331(5)
H21 H 0.6036 1.1281 0.6014
C25 C 0.7340(6) 1.1280(5) 0.6819(4)
C26 C 0.7034(5) 1.0355(5) 0.7052(4)
H22 H 0.7621 1.0089 0.6984
C27 C 0.7032(6) 1.0602(6) 0.7964(5)
C28 C 0.7281(6) 1.1526(6) 0.8608(6)
H23 H 0.7495 1.2178 0.8561
C29 C 0.7158(7) 1.1319(7) 0.9342(5)
H24 H 0.7265 1.1806 0.9882
C30 C 0.6853(7) 1.0281(7) 0.9140(5)
C31 C 0.6609(7) 0.9680(8) 0.9639(5)
H25 H 0.6672 1.0011 1.0220
C32 C 0.6024(6) 0.8163(6) 0.9884(5)
C33 C 0.5379(6) 0.8374(6) 1.0402(5)
H26 H 0.5145 0.8918 1.0426
C34 C 0.5064(6) 0.7779(7) 1.0900(5)
H27 H 0.4637 0.7939 1.1272
C35 C 0.5372(6) 0.6977(7) 1.0847(5)
H28 H 0.5138 0.6573 1.1172
C36 C 0.6033(5) 0.6736(6) 1.0319(4)
C37 C 0.6367(6) 0.5935(6) 1.0270(5)
H29 H 0.6134 0.5534 1.0598
C38 C 0.7022(6) 0.5691(6) 0.9766(4)
C39 C 0.7391(6) 0.4892(6) 0.9740(5)
H30 H 0.7193 0.4508 1.0087
C40 C 0.8008(7) 0.4671(6) 0.9238(5)
H31 H 0.8243 0.4130 0.9227
C41 C 0.8318(6) 0.5242(6) 0.8719(5)
H32 H 0.8747 0.5063 0.8356
C42 C 0.8026(5) 0.6023(5) 0.8723(4)
C43 C 0.7360(6) 0.6290(6) 0.9250(4)
C44 C 0.7038(5) 0.7092(6) 0.9302(4)
H33 H 0.7285 0.7507 0.8988
C45 C 0.6357(5) 0.7313(6) 0.9806(4)
C46 C 0.9274(6) 0.6914(5) 0.8158(4)
H34 H 0.9789 0.6930 0.8606
C47 C 0.9683(6) 0.7309(5) 0.7557(5)
C48 C 1.0747(6) 0.7692(5) 0.7539(5)
H35 H 1.1357 0.7778 0.7948
C49 C 1.0769(6) 0.7930(5) 0.6815(5)
H36 H 1.1397 0.8201 0.6640
C50 C 0.9716(6) 0.7704(5) 0.6393(4)
C51 C 0.8806(6) 0.6613(5) 0.4897(4)
C52 C 0.7713(7) 0.6045(6) 0.4566(5)
C53 C 0.7305(7) 0.5019(7) 0.4051(5)
C54 C 0.8005(8) 0.4555(6) 0.3832(5)
C55 C 0.9092(7) 0.5097(6) 0.4131(5)
C56 C 0.9480(6) 0.6106(6) 0.4656(4)
C57 C 0.5989(6) 0.9479(6) 0.6487(5)
C58 C 0.4981(8) 0.9473(8) 0.6509(6)
C59 C 0.4008(6) 0.8600(10) 0.6050(7)
C60 C 0.4148(10) 0.7737(8) 0.5609(6)
C61 C 0.5095(11) 0.7699(8) 0.5540(7)
C62 C 0.5996(7) 0.8573(7) 0.5973(5)
O2 O 0.6803(4) 0.6441(4) 0.6790(3)
H37 H 0.7149 0.6410 0.7222
C63 C 0.6253(7) 0.5418(6) 0.6149(5)
H38 H 0.6780 0.5105 0.6038
H39 H 0.5904 0.5460 0.5627
H40 H 0.5706 0.5002 0.6350
O3 O 0.1172(4) 0.0748(4) 0.7551(3)
H41 H 0.1530 0.1173 0.7365
C64 C 0.1887(6) 0.0640(6) 0.8185(5)
H42 H 0.2383 0.0367 0.7932
H43 H 0.1466 0.0172 0.8423
H44 H 0.2301 0.1308 0.8633
O4 O -0.0236(4) 0.1523(4) 0.8191(3)
H45 H 0.0159 0.1231 0.7992
C65 C 0.0383(8) 0.2346(8) 0.8981(6)
H46 H 0.0978 0.2847 0.8884
H47 H 0.0677 0.2076 0.9374
H48 H -0.0084 0.2673 0.9220
O6 O 0.8974(8) 0.9197(6) 0.8419(8)
H53 H 0.9494 0.9004 0.8435
C67 C 0.9246(15) 1.0109(16) 0.9132(17)
H54 H 0.9691 1.0081 0.9621
H55 H 0.8583 1.0172 0.9259
H56 H 0.9651 1.0700 0.9004
O6A O 1.1026(8) 1.0803(6) 1.1581(8)
H53A H 1.0506 1.0996 1.1565
C67A C 1.0754(15) 0.9891(16) 1.0868(17)
H54A H 1.0309 0.9919 1.0379
H55A H 1.1417 0.9828 1.0741
H56A H 1.0349 0.9300 1.0996
O5? O 1.0440(18) 0.9389(14) 0.9488(13)
H49? H 1.1070 0.9458 0.9453
C66? C 0.9550(15) 0.9591(19) 0.9931(15)
H50? H 0.9000 0.9821 1.0135
H51? H 0.9721 0.9172 1.0233
H52? H 0.9273 0.9187 0.9325
loop_
_geom_bond_atom_site_label_1
_geom_bond_atom_site_label_2
_geom_bond_site_symmetry_1
_geom_bond_site_symmetry_2
O1 H1 1_555 1_555
H2 O1 1_555 1_555
F1 C56 1_555 1_555
F2 C55 1_555 1_555
F3 C54 1_555 1_555
F4 C53 1_555 1_555
F5 C52 1_555 1_555
F6 C62 1_555 1_555
F7 C61 1_555 1_555
F8 C60 1_555 1_555
F9 C59 1_555 1_555
F10 C58 1_555 1_555
N1 C42 1_555 1_555
N2 H3 1_555 1_555
N3 H4 1_555 1_555
N4 C6 1_555 1_555
N5 C17 1_555 1_555
N6 H5 1_555 1_555
N7 H6 1_555 1_555
N8 C31 1_555 1_555
C1 H7 1_555 1_555
C2 N3 1_555 1_555
C3 C2 1_555 1_555
H8 C3 1_555 1_555
C4 C3 1_555 1_555
H9 C4 1_555 1_555
C5 N3 1_555 1_555
C6 C5 1_555 1_555
H10 C6 1_555 1_555
C7 N4 1_555 1_555
C8 C7 1_555 1_555
H11 C8 1_555 1_555
C9 C8 1_555 1_555
H12 C9 1_555 1_555
C10 C9 1_555 1_555
H13 C10 1_555 1_555
C11 C10 1_555 1_555
C12 C11 1_555 1_555
H14 C12 1_555 1_555
C13 C12 1_555 1_555
C14 C13 1_555 1_555
H15 C14 1_555 1_555
C15 C14 1_555 1_555
H16 C15 1_555 1_555
C16 C15 1_555 1_555
H17 C16 1_555 1_555
C17 C16 1_555 1_555
C18 C13 1_555 1_555
C19 C18 1_555 1_555
H18 C19 1_555 1_555
C20 C7 1_555 1_555
C21 N5 1_555 1_555
H19 C21 1_555 1_555
C22 N6 1_555 1_555
C23 C22 1_555 1_555
H20 C23 1_555 1_555
C24 C23 1_555 1_555
H21 C24 1_555 1_555
C25 N6 1_555 1_555
C26 C25 1_555 1_555
H22 C26 1_555 1_555
C27 N7 1_555 1_555
C28 C27 1_555 1_555
H23 C28 1_555 1_555
C29 C28 1_555 1_555
H24 C29 1_555 1_555
C30 N7 1_555 1_555
C31 C30 1_555 1_555
H25 C31 1_555 1_555
C32 N8 1_555 1_555
C33 C32 1_555 1_555
H26 C33 1_555 1_555
C34 C33 1_555 1_555
H27 C34 1_555 1_555
C35 C34 1_555 1_555
H28 C35 1_555 1_555
C36 C35 1_555 1_555
C37 C36 1_555 1_555
H29 C37 1_555 1_555
C38 C37 1_555 1_555
C39 C38 1_555 1_555
H30 C39 1_555 1_555
C40 C39 1_555 1_555
H31 C40 1_555 1_555
C41 C40 1_555 1_555
H32 C41 1_555 1_555
C42 C41 1_555 1_555
C43 C38 1_555 1_555
C44 C43 1_555 1_555
H33 C44 1_555 1_555
C45 C32 1_555 1_555
C46 N1 1_555 1_555
H34 C46 1_555 1_555
C47 N2 1_555 1_555
C48 C47 1_555 1_555
H35 C48 1_555 1_555
C49 C48 1_555 1_555
H36 C49 1_555 1_555
C50 N2 1_555 1_555
C51 C1 1_555 1_555
C52 C51 1_555 1_555
C53 C52 1_555 1_555
C54 C53 1_555 1_555
C55 C54 1_555 1_555
C56 C51 1_555 1_555
C57 C26 1_555 1_555
C58 C57 1_555 1_555
C59 C58 1_555 1_555
C60 C59 1_555 1_555
C61 C60 1_555 1_555
C62 C57 1_555 1_555
O2 H37 1_555 1_555
C63 O2 1_555 1_555
H38 C63 1_555 1_555
H39 C63 1_555 1_555
H40 C63 1_555 1_555
O3 H41 1_555 1_555
C64 O3 1_555 1_555
H42 C64 1_555 1_555
H43 C64 1_555 1_555
H44 C64 1_555 1_555
O4 H45 1_555 1_555
C65 O4 1_555 1_555
H46 C65 1_555 1_555
H47 C65 1_555 1_555
H48 C65 1_555 1_555
O6 H53 1_555 1_555
C67 O6 1_555 1_555
H54 C67 1_555 1_555
H55 C67 1_555 1_555
H56 C67 1_555 1_555
O6A H53A 1_555 1_555
C67A O6A 1_555 1_555
H54A C67A 1_555 1_555
H55A C67A 1_555 1_555
H56A C67A 1_555 1_555
C1 C2 1_555 1_555
C1 C50 1_555 1_555
C4 C5 1_555 1_555
C11 C20 1_555 1_555
C17 C18 1_555 1_555
C19 C20 1_555 1_555
C21 C22 1_555 1_555
C24 C25 1_555 1_555
C26 C27 1_555 1_555
C29 C30 1_555 1_555
C36 C45 1_555 1_555
C42 C43 1_555 1_555
C44 C45 1_555 1_555
C46 C47 1_555 1_555
C49 C50 1_555 1_555
C55 C56 1_555 1_555
C61 C62 1_555 1_555

#END
