
#######################################################################
#
#                 Cambridge Crystallographic Data Centre
#                                CCDC 
#
#######################################################################
#
# If this CIF has been generated from an entry in the Cambridge 
# Structural Database, then it will include bibliographic, chemical, 
# crystal, experimental, refinement or atomic coordinate data resulting 
# from the CCDC's data processing and validation procedures.
#
#######################################################################

data_LOWSUN
_chemical_formula_moiety         'C34 H30 N2 O5'
_chemical_name_systematic        
'dibenzyl 1-(3-benzyl-1-methyl-2-oxo-1,2-dihydronaphthalen-1-yl)hydrazine-1,2-dicarboxylate'
_symmetry_cell_setting           triclinic
_symmetry_space_group_name_H-M   'P -1'
_symmetry_Int_Tables_number      2
_space_group_name_Hall           '-P 1'
loop_
_symmetry_equiv_pos_site_id
_symmetry_equiv_pos_as_xyz
1 x,y,z
2 -x,-y,-z
_cell_length_a                   9.668(6)
_cell_length_b                   12.476(8)
_cell_length_c                   13.628(8)
_cell_angle_alpha                114.541(7)
_cell_angle_beta                 99.626(10)
_cell_angle_gamma                101.476(10)
_cell_volume                     1406.67
_exptl_crystal_colour            colorless
_exptl_crystal_description       block
_cell_formula_units_Z            2
loop_
_atom_site_label
_atom_site_type_symbol
_atom_site_fract_x
_atom_site_fract_y
_atom_site_fract_z
O1 O 0.4287(5) 1.0593(5) 0.1178(4)
O2 O 0.4234(5) 0.8545(4) 0.1896(4)
O3 O 0.8955(5) 0.8970(5) 0.1855(4)
O4 O 0.5100(5) 0.7531(4) 0.0438(4)
O5 O 0.8898(5) 0.8901(4) 0.0150(4)
N1 N 0.6327(5) 0.9513(4) 0.1661(4)
N2 N 0.7141(5) 0.9452(4) 0.0918(4)
H1 H 0.6889 0.9640 0.0388
C1 C 0.6299(6) 1.0703(5) 0.2523(5)
C2 C 0.4833(7) 1.0895(5) 0.2168(5)
C3 C 0.4158(7) 1.1563(5) 0.3030(5)
C4 C 0.4736(8) 1.1761(6) 0.4087(5)
H2 H 0.4340 1.2220 0.4638
C5 C 0.5908(8) 1.1330(5) 0.4445(5)
C6 C 0.6278(10) 1.1473(7) 0.5532(6)
H3 H 0.5795 1.1886 0.6037
C7 C 0.7327(10) 1.1027(7) 0.5876(7)
H4 H 0.7584 1.1144 0.6610
C8 C 0.7999(10) 1.0392(9) 0.5100(8)
H5 H 0.8684 1.0042 0.5309
C9 C 0.7678(7) 1.0259(6) 0.4010(6)
H6 H 0.8169 0.9851 0.3511
C10 C 0.6641(7) 1.0732(5) 0.3681(5)
C11 C 0.2856(9) 1.1921(7) 0.2645(6)
H7 H 0.3114 1.2355 0.2223
H8 H 0.2056 1.1175 0.2140
C12 C 0.2326(8) 1.2717(7) 0.3576(7)
C13 C 0.2907(12) 1.4010(8) 0.4071(9)
H9 H 0.3630 1.4345 0.3819
C14 C 0.2463(15) 1.4765(9) 0.4878(11)
H10 H 0.2886 1.5615 0.5195
C15 C 0.1399(12) 1.4307(10) 0.5243(9)
H11 H 0.1037 1.4842 0.5772
C16 C 0.0853(9) 1.3080(10) 0.4849(7)
H12 H 0.0167 1.2780 0.5149
C17 C 0.1299(7) 1.2248(7) 0.3998(6)
H13 H 0.0913 1.1401 0.3724
C18 C 0.7415(7) 1.1720(6) 0.2518(6)
H14 H 0.8376 1.1635 0.2700
H15 H 0.7388 1.2503 0.3065
H16 H 0.7196 1.1676 0.1786
C19 C 0.5132(7) 0.8505(5) 0.1352(5)
C20 C 0.3909(9) 0.6469(6) 0.0106(8)
H17 H 0.2994 0.6678 0.0050
H18 H 0.4018 0.6184 0.0669
C21 C 0.3856(7) 0.5488(5) -0.0973(5)
C22 C 0.4572(9) 0.5619(8) -0.1705(6)
H19 H 0.5143 0.6399 -0.1541
C23 C 0.4466(11) 0.4602(9) -0.2703(7)
H20 H 0.4964 0.4720 -0.3195
C24 C 0.3673(10) 0.3463(9) -0.2974(7)
H21 H 0.3641 0.2795 -0.3636
C25 C 0.2931(10) 0.3293(7) -0.2292(6)
H22 H 0.2338 0.2515 -0.2471
C26 C 0.3073(9) 0.4304(6) -0.1315(6)
H23 H 0.2577 0.4167 -0.0829
C27 C 0.8379(6) 0.9080(5) 0.1053(6)
C28 C 1.0134(7) 0.8425(6) 0.0105(7)
H24 H 1.0645 0.8609 0.0859
H25 H 1.0810 0.8839 -0.0168
C29 C 0.9713(5) 0.7100(5) -0.0616(5)
C30 C 1.0686(12) 0.6641(10) -0.1164(7)
H26 H 1.1603 0.7156 -0.1047
C31 C 1.0275(13) 0.5392(9) -0.1898(8)
H27 H 1.0924 0.5081 -0.2288
C32 C 0.8948(9) 0.4590(9) -0.2076(7)
H28 H 0.8734 0.3748 -0.2538
C33 C 0.7932(14) 0.5059(11) -0.1554(10)
H29 H 0.7003 0.4546 -0.1694
C34 C 0.8340(10) 0.6313(10) -0.0817(9)
H30 H 0.7678 0.6635 -0.0448
C35? C 0.9430(10) 0.6624(11) -0.1730(8)
H31? H 0.9487 0.7171 -0.2032
C36? C 0.9069(12) 0.5418(12) -0.2448(8)
H32? H 0.8903 0.5162 -0.3214
C37? C 0.9260(12) 0.4996(11) -0.0893(10)
H33? H 0.9211 0.4420 -0.0624
C38? C 0.9651(11) 0.6296(10) -0.0111(9)
H34? H 0.9848 0.6587 0.0661
loop_
_geom_bond_atom_site_label_1
_geom_bond_atom_site_label_2
_geom_bond_site_symmetry_1
_geom_bond_site_symmetry_2
O1 C2 1_555 1_555
O2 C19 1_555 1_555
O3 C27 1_555 1_555
O4 C19 1_555 1_555
O5 C27 1_555 1_555
N1 N2 1_555 1_555
N2 H1 1_555 1_555
C1 N1 1_555 1_555
C2 C1 1_555 1_555
C3 C2 1_555 1_555
C4 C3 1_555 1_555
H2 C4 1_555 1_555
C5 C4 1_555 1_555
C6 C5 1_555 1_555
H3 C6 1_555 1_555
C7 C6 1_555 1_555
H4 C7 1_555 1_555
C8 C7 1_555 1_555
H5 C8 1_555 1_555
C9 C8 1_555 1_555
H6 C9 1_555 1_555
C10 C1 1_555 1_555
C11 C3 1_555 1_555
H7 C11 1_555 1_555
H8 C11 1_555 1_555
C12 C11 1_555 1_555
C13 C12 1_555 1_555
H9 C13 1_555 1_555
C14 C13 1_555 1_555
H10 C14 1_555 1_555
C15 C14 1_555 1_555
H11 C15 1_555 1_555
C16 C15 1_555 1_555
H12 C16 1_555 1_555
C17 C12 1_555 1_555
H13 C17 1_555 1_555
C18 C1 1_555 1_555
H14 C18 1_555 1_555
H15 C18 1_555 1_555
H16 C18 1_555 1_555
C19 N1 1_555 1_555
C20 O4 1_555 1_555
H17 C20 1_555 1_555
H18 C20 1_555 1_555
C21 C20 1_555 1_555
C22 C21 1_555 1_555
H19 C22 1_555 1_555
C23 C22 1_555 1_555
H20 C23 1_555 1_555
C24 C23 1_555 1_555
H21 C24 1_555 1_555
C25 C24 1_555 1_555
H22 C25 1_555 1_555
C26 C21 1_555 1_555
H23 C26 1_555 1_555
C27 N2 1_555 1_555
C28 O5 1_555 1_555
H24 C28 1_555 1_555
H25 C28 1_555 1_555
C29 C28 1_555 1_555
C30 C29 1_555 1_555
H26 C30 1_555 1_555
C31 C30 1_555 1_555
H27 C31 1_555 1_555
C32 C31 1_555 1_555
H28 C32 1_555 1_555
C33 C32 1_555 1_555
H29 C33 1_555 1_555
C34 C29 1_555 1_555
H30 C34 1_555 1_555
C5 C10 1_555 1_555
C9 C10 1_555 1_555
C16 C17 1_555 1_555
C25 C26 1_555 1_555
C33 C34 1_555 1_555

#END
