
#######################################################################
#
#                 Cambridge Crystallographic Data Centre
#                                CCDC 
#
#######################################################################
#
# If this CIF has been generated from an entry in the Cambridge 
# Structural Database, then it will include bibliographic, chemical, 
# crystal, experimental, refinement or atomic coordinate data resulting 
# from the CCDC's data processing and validation procedures.
#
#######################################################################

data_LOWSOH
_chemical_formula_moiety         'C28 H26 N2 O5'
_chemical_name_systematic        
'dibenzyl 1-(1,3-dimethyl-2-oxo-1,2-dihydronaphthalen-1-yl)hydrazine-1,2-dicarboxylate'
_symmetry_cell_setting           monoclinic
_symmetry_space_group_name_H-M   'P 21/c'
_symmetry_Int_Tables_number      14
_space_group_name_Hall           '-P 2ybc'
loop_
_symmetry_equiv_pos_site_id
_symmetry_equiv_pos_as_xyz
1 x,y,z
2 -x,1/2+y,1/2-z
3 -x,-y,-z
4 x,1/2-y,1/2+z
_cell_length_a                   13.886(4)
_cell_length_b                   9.745(2)
_cell_length_c                   22.651(5)
_cell_angle_alpha                90
_cell_angle_beta                 127.598(12)
_cell_angle_gamma                90
_cell_volume                     2428.52
_exptl_crystal_colour            colorless
_exptl_crystal_description       block
_cell_formula_units_Z            4
loop_
_atom_site_label
_atom_site_type_symbol
_atom_site_fract_x
_atom_site_fract_y
_atom_site_fract_z
O1 O 0.1491(3) 0.5690(3) 0.05993(18)
O2 O 0.2981(3) 0.3138(3) 0.16651(15)
O3 O 0.1192(3) 0.2000(3) 0.09272(17)
O4 O 0.0084(3) 0.2850(3) 0.19457(17)
O5 O -0.1683(3) 0.3332(3) 0.08089(17)
N1 N 0.1292(3) 0.3998(4) 0.14659(18)
N2 N 0.0027(3) 0.3913(4) 0.10293(19)
H1 H -0.0421 0.4247 0.0586
C1 C 0.1909(3) 0.5327(4) 0.1774(2)
C2 C 0.2204(4) 0.5915(5) 0.1277(3)
C3 C 0.3238(4) 0.6829(5) 0.1595(3)
C4 C 0.4054(5) 0.6880(5) 0.2335(3)
H2 H 0.4694 0.7497 0.2534
C5 C 0.4022(4) 0.6049(5) 0.2857(2)
C6 C 0.4950(4) 0.6045(6) 0.3604(3)
H3 H 0.5616 0.6617 0.3793
C7 C 0.4923(5) 0.5218(6) 0.4083(3)
H4 H 0.5568 0.5229 0.4590
C8 C 0.3962(5) 0.4389(6) 0.3821(3)
H5 H 0.3953 0.3823 0.4149
C9 C 0.2996(5) 0.4372(5) 0.3074(3)
H6 H 0.2337 0.3799 0.2902
C10 C 0.2994(4) 0.5206(5) 0.2574(2)
C11 C 0.3347(5) 0.7625(5) 0.1066(3)
H7 H 0.4067 0.8180 0.1346
H8 H 0.2648 0.8203 0.0757
H9 H 0.3395 0.6996 0.0758
C12 C 0.1041(4) 0.6371(5) 0.1739(3)
H10 H 0.0824 0.6058 0.2046
H11 H 0.0321 0.6459 0.1233
H12 H 0.1437 0.7246 0.1916
C13 C 0.1915(4) 0.3039(5) 0.1374(2)
C14 C 0.1760(4) 0.0964(4) 0.0770(3)
H13 H 0.1381 0.0083 0.0704
H14 H 0.2613 0.0890 0.1193
C15 C 0.1652(4) 0.1297(5) 0.0085(2)
C16 C 0.2108(4) 0.2489(5) 0.0017(2)
H15 H 0.2477 0.3123 0.0404
C17 C 0.2034(5) 0.2770(6) -0.0600(3)
H16 H 0.2378 0.3573 -0.0617
C18 C 0.1470(6) 0.1902(8) -0.1186(4)
H17 H 0.1397 0.2119 -0.1611
C19 C 0.1004(6) 0.0690(8) -0.1144(3)
H18 H 0.0616 0.0076 -0.1541
C20 C 0.1121(5) 0.0383(5) -0.0484(3)
H19 H 0.0832 -0.0447 -0.0446
C21 C -0.0483(4) 0.3296(5) 0.1313(3)
C22 C -0.2388(4) 0.2683(5) 0.1014(3)
H20 H -0.1879 0.2028 0.1411
H21 H -0.3064 0.2185 0.0588
C23 C -0.2868(5) 0.3730(5) 0.1267(3)
C24 C -0.4089(6) 0.3893(6) 0.0884(4)
H22 H -0.4627 0.3392 0.0451
C25 C -0.4536(7) 0.4801(7) 0.1137(6)
H23 H -0.5370 0.4914 0.0872
C26 C -0.3732(7) 0.5535(7) 0.1785(4)
H24 H -0.4024 0.6133 0.1964
C27 C -0.2556(6) 0.5386(7) 0.2148(3)
H25 H -0.2018 0.5906 0.2573
C28 C -0.2107(5) 0.4458(6) 0.1903(3)
H26 H -0.1272 0.4335 0.2180
loop_
_geom_bond_atom_site_label_1
_geom_bond_atom_site_label_2
_geom_bond_site_symmetry_1
_geom_bond_site_symmetry_2
O1 C2 1_555 1_555
O2 C13 1_555 1_555
O3 C13 1_555 1_555
O4 C21 1_555 1_555
O5 C21 1_555 1_555
N1 N2 1_555 1_555
N2 H1 1_555 1_555
C1 N1 1_555 1_555
C2 C1 1_555 1_555
C3 C2 1_555 1_555
C4 C3 1_555 1_555
H2 C4 1_555 1_555
C5 C4 1_555 1_555
C6 C5 1_555 1_555
H3 C6 1_555 1_555
C7 C6 1_555 1_555
H4 C7 1_555 1_555
C8 C7 1_555 1_555
H5 C8 1_555 1_555
C9 C8 1_555 1_555
H6 C9 1_555 1_555
C10 C1 1_555 1_555
C11 C3 1_555 1_555
H7 C11 1_555 1_555
H8 C11 1_555 1_555
H9 C11 1_555 1_555
C12 C1 1_555 1_555
H10 C12 1_555 1_555
H11 C12 1_555 1_555
H12 C12 1_555 1_555
C13 N1 1_555 1_555
C14 O3 1_555 1_555
H13 C14 1_555 1_555
H14 C14 1_555 1_555
C15 C14 1_555 1_555
C16 C15 1_555 1_555
H15 C16 1_555 1_555
C17 C16 1_555 1_555
H16 C17 1_555 1_555
C18 C17 1_555 1_555
H17 C18 1_555 1_555
C19 C18 1_555 1_555
H18 C19 1_555 1_555
C20 C15 1_555 1_555
H19 C20 1_555 1_555
C21 N2 1_555 1_555
C22 O5 1_555 1_555
H20 C22 1_555 1_555
H21 C22 1_555 1_555
C23 C22 1_555 1_555
C24 C23 1_555 1_555
H22 C24 1_555 1_555
C25 C24 1_555 1_555
H23 C25 1_555 1_555
C26 C25 1_555 1_555
H24 C26 1_555 1_555
C27 C26 1_555 1_555
H25 C27 1_555 1_555
C28 C23 1_555 1_555
H26 C28 1_555 1_555
C5 C10 1_555 1_555
C9 C10 1_555 1_555
C19 C20 1_555 1_555
C27 C28 1_555 1_555

#END
