
#######################################################################
#
#                 Cambridge Crystallographic Data Centre
#                                CCDC 
#
#######################################################################
#
# If this CIF has been generated from an entry in the Cambridge 
# Structural Database, then it will include bibliographic, chemical, 
# crystal, experimental, refinement or atomic coordinate data resulting 
# from the CCDC's data processing and validation procedures.
#
#######################################################################

data_LOWTAU
_chemical_formula_moiety         'C29 H28 N2 O5'
_chemical_name_systematic        
'dibenzyl 1-(1-ethyl-3-methyl-2-oxo-1,2-dihydronaphthalen-1-yl)hydrazine-1,2-dicarboxylate'
_symmetry_cell_setting           triclinic
_symmetry_space_group_name_H-M   'P -1'
_symmetry_Int_Tables_number      2
_space_group_name_Hall           '-P 1'
loop_
_symmetry_equiv_pos_site_id
_symmetry_equiv_pos_as_xyz
1 x,y,z
2 -x,-y,-z
_cell_length_a                   9.422(7)
_cell_length_b                   12.658(9)
_cell_length_c                   12.960(9)
_cell_angle_alpha                112.081(11)
_cell_angle_beta                 102.332(11)
_cell_angle_gamma                103.665(10)
_cell_volume                     1310.92
_exptl_crystal_colour            colorless
_exptl_crystal_description       block
_cell_formula_units_Z            2
loop_
_atom_site_label
_atom_site_type_symbol
_atom_site_fract_x
_atom_site_fract_y
_atom_site_fract_z
O1 O 1.0369(2) 0.0457(2) 0.7878(2)
O2 O 0.6349(2) 0.0407(2) 0.63048(19)
N1 N 1.0366(3) 0.1816(2) 0.7152(2)
O3 O 1.2662(2) 0.1841(2) 0.8187(2)
O4 O 0.7941(3) 0.2123(2) 0.7953(2)
N2 N 0.8816(3) 0.1105(2) 0.6493(2)
H1 H 0.8548 0.0569 0.5772
O5 O 1.1691(3) 0.1293(2) 0.5401(2)
C1 C 1.1210(4) 0.2809(2) 0.6922(3)
C2 C 0.7730(3) 0.1288(3) 0.7033(2)
C3 C 1.1251(3) 0.1397(2) 0.7782(3)
C4 C 0.5043(4) 0.0420(3) 0.6741(3)
H2 H 0.4120 0.0224 0.6101
H3 H 0.5260 0.1229 0.7354
C5 C 1.0242(4) -0.1191(3) 0.8414(3)
C6 C 1.2112(4) 0.3956(2) 0.8084(3)
C7 C 1.4391(4) 0.5758(3) 0.9290(3)
H4 H 1.5383 0.6238 0.9411
C8 C 1.3609(4) 0.4671(3) 0.8249(3)
C9 C 0.9990(5) 0.3077(3) 0.6122(3)
H5 H 0.9487 0.2359 0.5365
H6 H 0.9202 0.3197 0.6483
C10 C 1.2231(5) 0.5416(3) 0.9970(3)
H7 H 1.1772 0.5661 1.0544
C11 C 1.4345(4) 0.4257(3) 0.7371(3)
H8 H 1.5304 0.4784 0.7489
C12 C 1.2228(4) 0.2342(3) 0.6185(3)
C13 C 1.4589(5) 0.2746(4) 0.5539(4)
H9 H 1.5562 0.3377 0.5776
H10 H 1.3965 0.2563 0.4761
H11 H 1.4772 0.2029 0.5532
C14 C 1.1433(4) 0.4333(3) 0.8940(3)
H12 H 1.0440 0.3860 0.8826
C15 C 1.1230(5) 0.0029(4) 0.8608(4)
H13 H 1.1551 0.0606 0.9435
H14 H 1.2154 -0.0031 0.8410
C16 C 1.3754(4) 0.3168(3) 0.6397(3)
C17 C 1.3703(5) 0.6129(3) 1.0144(3)
H15 H 1.4231 0.6854 1.0832
C18 C 1.0620(7) -0.1559(5) 0.9272(5)
H16 H 1.1432 -0.1027 0.9975
C19 C 0.9810(7) -0.2715(6) 0.9112(7)
H17 H 1.0052 -0.2940 0.9715
C20 C 1.0578(8) 0.4147(6) 0.5895(6)
H18 H 1.1026 0.4877 0.6630
H19 H 0.9733 0.4208 0.5383
H20 H 1.1350 0.4042 0.5526
C21 C 0.9111(8) -0.1977(6) 0.7385(7)
H21 H 0.8810 -0.1734 0.6805
C22 C 0.8686(8) -0.3496(7) 0.8090(9)
H22 H 0.8113 -0.4254 0.7994
C23 C 0.8371(10) -0.3196(8) 0.7188(9)
H23 H 0.7679 -0.3778 0.6446
C24 C 0.4761(4) -0.0462(4) 0.7222(4)
C25 C 0.3914(10) -0.2385(8) 0.7585(7)
H24 H 0.3624 -0.3016 0.7787
C26 C 0.3285(9) -0.1244(7) 0.6900(6)
H25 H 0.2524 -0.1030 0.6525
C27 C 0.2718(13) -0.2251(7) 0.7014(8)
H26 H 0.1685 -0.2749 0.6741
C28 C 0.5905(9) -0.0822(8) 0.7745(7)
H27 H 0.6943 -0.0376 0.7941
C29 C 0.5533(11) -0.1831(8) 0.7981(8)
H28 H 0.6247 -0.2091 0.8343
C30? C 0.5332(8) 0.0213(9) 0.8549(7)
H29? H 0.5810 0.1053 0.8880
C31? C 0.5223(11) -0.0280(11) 0.9333(11)
H30? H 0.5592 0.0178 1.0150
C32? C 0.4502(12) -0.1536(10) 0.8758(11)
H31? H 0.4392 -0.1877 0.9271
C33? C 0.4169(9) -0.1630(8) 0.7014(12)
H32? H 0.3792 -0.2120 0.6201
loop_
_geom_bond_atom_site_label_1
_geom_bond_atom_site_label_2
_geom_bond_site_symmetry_1
_geom_bond_site_symmetry_2
O1 C3 1_555 1_555
O2 C2 1_555 1_555
N1 N2 1_555 1_555
O3 C3 1_555 1_555
O4 C2 1_555 1_555
N2 H1 1_555 1_555
O5 C12 1_555 1_555
C1 N1 1_555 1_555
C2 N2 1_555 1_555
C3 N1 1_555 1_555
C4 O2 1_555 1_555
H2 C4 1_555 1_555
H3 C4 1_555 1_555
C5 C15 1_555 1_555
C6 C1 1_555 1_555
C7 H4 1_555 1_555
C8 C6 1_555 1_555
C9 C1 1_555 1_555
H5 C9 1_555 1_555
H6 C9 1_555 1_555
C10 H7 1_555 1_555
C11 C8 1_555 1_555
H8 C11 1_555 1_555
C12 C1 1_555 1_555
C13 H9 1_555 1_555
H10 C13 1_555 1_555
H11 C13 1_555 1_555
C14 C6 1_555 1_555
H12 C14 1_555 1_555
C15 O1 1_555 1_555
H13 C15 1_555 1_555
H14 C15 1_555 1_555
C16 C11 1_555 1_555
C17 C7 1_555 1_555
H15 C17 1_555 1_555
C18 C5 1_555 1_555
H16 C18 1_555 1_555
C19 C18 1_555 1_555
H17 C19 1_555 1_555
C20 C9 1_555 1_555
H18 C20 1_555 1_555
H19 C20 1_555 1_555
H20 C20 1_555 1_555
C21 C5 1_555 1_555
H21 C21 1_555 1_555
C22 C19 1_555 1_555
H22 C22 1_555 1_555
C23 C21 1_555 1_555
H23 C23 1_555 1_555
C24 C4 1_555 1_555
C25 H24 1_555 1_555
C26 C24 1_555 1_555
H25 C26 1_555 1_555
C27 C25 1_555 1_555
H26 C27 1_555 1_555
C28 C24 1_555 1_555
H27 C28 1_555 1_555
C29 C25 1_555 1_555
H28 C29 1_555 1_555
C7 C8 1_555 1_555
C10 C14 1_555 1_555
C10 C17 1_555 1_555
C12 C16 1_555 1_555
C13 C16 1_555 1_555
C22 C23 1_555 1_555
C26 C27 1_555 1_555
C28 C29 1_555 1_555

#END
