
#######################################################################
#
#                 Cambridge Crystallographic Data Centre
#                                CCDC 
#
#######################################################################
#
# If this CIF has been generated from an entry in the Cambridge 
# Structural Database, then it will include bibliographic, chemical, 
# crystal, experimental, refinement or atomic coordinate data resulting 
# from the CCDC's data processing and validation procedures.
#
#######################################################################

data_LOWWAX
_chemical_formula_moiety         
'C13 H8 O2 S7 Se2 1+,C13 H8 O2 S7 Se2,0.25(C6 H5 Cl1),As1 F6 1-'
_chemical_name_systematic        
'bis(5-(5,6-dihydro[1,4]diselenino[2,3-d][1,3]dithiol-2-ylidene)-2-(5,6-dihydro[1,3]dithiolo[4,5-b][1,4]dioxin-2-ylidene)-1,3-dithiolane-4-thione cation radical) hexafluoroarsenate chlorobenzene solvate'
_symmetry_cell_setting           monoclinic
_symmetry_space_group_name_H-M   'C 2/c'
_symmetry_Int_Tables_number      15
_space_group_name_Hall           '-C 2yc'
loop_
_symmetry_equiv_pos_site_id
_symmetry_equiv_pos_as_xyz
1 x,y,z
2 1/2+x,1/2+y,z
3 1/2-x,1/2+y,1/2-z
4 -x,y,1/2-z
5 -x,-y,-z
6 1/2-x,1/2-y,-z
7 1/2+x,1/2-y,1/2+z
8 x,-y,1/2+z
_cell_length_a                   38.714(3)
_cell_length_b                   14.3382(10)
_cell_length_c                   16.1805(12)
_cell_angle_alpha                90
_cell_angle_beta                 95.786(2)
_cell_angle_gamma                90
_cell_volume                     8935.86
_exptl_crystal_colour            black
_exptl_crystal_description       platelet
_chemical_melting_point          '180 deg.C'
_cell_formula_units_Z            8
loop_
_atom_site_label
_atom_site_type_symbol
_atom_site_fract_x
_atom_site_fract_y
_atom_site_fract_z
Se1 Se 0.08943(2) 0.35717(6) 0.18879(6)
Se2 Se 0.07963(3) 0.59599(8) 0.14727(7)
S1 S 0.22932(5) 0.44970(12) 0.39741(11)
S2 S 0.25538(5) 0.63333(12) 0.45544(12)
S3 S 0.29400(6) 0.34924(13) 0.49844(13)
S4 S 0.32145(5) 0.53358(14) 0.55757(13)
S5 S 0.15875(5) 0.41976(13) 0.29218(12)
S6 S 0.14805(5) 0.61863(13) 0.26178(13)
S7 S 0.19997(6) 0.73816(13) 0.35917(14)
O1 O 0.37651(17) 0.4476(5) 0.6329(4)
O2 O 0.35004(18) 0.2687(4) 0.5737(4)
C1 C 0.26085(18) 0.5128(4) 0.4573(3)
C2 C 0.28895(19) 0.4710(4) 0.4995(4)
C3 C 0.3335(2) 0.3526(5) 0.5591(5)
C4 C 0.3460(2) 0.4347(6) 0.5863(5)
C5 C 0.20490(19) 0.5473(4) 0.3593(4)
C6 C 0.2176(2) 0.6363(4) 0.3854(4)
C7 C 0.1742(2) 0.5320(4) 0.3093(4)
C8 C 0.1224(2) 0.4494(5) 0.2270(4)
C9 C 0.1170(2) 0.5403(5) 0.2144(4)
C10 C 0.3850(3) 0.2828(10) 0.6087(12)
C11 C 0.3935(3) 0.3623(10) 0.6525(10)
C12 C 0.0509(2) 0.4301(7) 0.2236(8)
C13 C 0.0418(3) 0.5137(9) 0.1712(9)
H1 H 0.3911 0.2311 0.6438
H2 H 0.3989 0.2827 0.5636
H3 H 0.4175 0.3731 0.6496
H4 H 0.3895 0.3488 0.7082
H5 H 0.0311 0.3907 0.2221
H6 H 0.0571 0.4508 0.2789
H7 H 0.0258 0.5500 0.1983
H8 H 0.0309 0.4920 0.1195
Se3 Se 0.11687(3) 0.83680(7) 0.12993(8)
Se4 Se 0.09984(3) 1.08224(9) 0.08367(9)
S8 S 0.25484(5) 0.95173(12) 0.31926(11)
S9 S 0.27948(6) 1.13797(13) 0.37317(13)
S10 S 0.32116(6) 0.85816(15) 0.42339(13)
S11 S 0.34435(6) 1.04681(17) 0.48277(13)
S12 S 0.18568(6) 0.91473(13) 0.21641(13)
S13 S 0.17123(5) 1.11115(13) 0.18170(13)
S14 S 0.22350(7) 1.23777(14) 0.27268(15)
O3 O 0.39913(18) 0.9688(6) 0.5699(4)
O4 O 0.3755(2) 0.7846(6) 0.5088(4)
C14 C 0.28603(19) 1.0181(4) 0.3781(4)
C15 C 0.3143(2) 0.9787(5) 0.4219(4)
C16 C 0.3586(2) 0.8660(8) 0.4920(6)
C17 C 0.3690(2) 0.9512(9) 0.5190(5)
C18 C 0.22994(19) 1.0479(5) 0.2775(4)
C19 C 0.2423(2) 1.1383(4) 0.3021(4)
C20 C 0.19934(19) 1.0291(4) 0.2287(4)
C21 C 0.1474(2) 0.9391(5) 0.1578(4)
C22 C 0.1402(2) 1.0287(6) 0.1419(5)
C23 C 0.4061(4) 0.8011(15) 0.5704(8)
C24 C 0.4231(3) 0.8929(15) 0.5634(9)
C25 C 0.0752(3) 0.9062(10) 0.1431(9)
C26 C 0.0671(3) 0.9826(11) 0.0875(13)
H9 H 0.3985 0.7978 0.6243
H10 H 0.4226 0.7531 0.5642
H11 H 0.4316 0.8960 0.5103
H12 H 0.4419 0.8991 0.6054
H13 H 0.0563 0.8636 0.1381
H14 H 0.0777 0.9319 0.1974
H15 H 0.0457 1.0090 0.1003
H16 H 0.0641 0.9562 0.0334
As1 As -0.01057(3) 0.26064(10) 0.04871(8)
F1 F -0.0378(5) 0.2538(13) -0.0306(12)
F2 F -0.0364(12) 0.335(3) 0.094(2)
F3 F 0.0139(7) 0.3497(18) 0.0305(15)
F4 F 0.0196(9) 0.190(2) 0.011(2)
F5 F -0.0301(8) 0.163(2) 0.0669(17)
F6 F 0.0221(4) 0.2353(12) 0.1362(11)
Cl1 Cl 0.0000 0.7246(6) 0.2500
C27 C 0.0000 0.8447(13) 0.2500
C28 C -0.0164(4) 0.8932(15) 0.1807(13)
C29 C -0.0156(5) 0.9902(18) 0.1853(13)
C30 C 0.0000 1.031(2) 0.2500
C28C C 0.0164(4) 0.8932(15) 0.3193(13)
C29C C 0.0156(5) 0.9902(18) 0.3147(13)
F7? F -0.0069(5) 0.1466(12) 0.0238(11)
F8? F 0.0303(6) 0.2760(19) 0.0742(17)
F9? F -0.0102(6) 0.2918(17) -0.0546(14)
F10? F -0.0263(5) 0.2409(15) 0.1384(13)
F11? F -0.0148(7) 0.3789(17) 0.0699(15)
F12? F -0.0547(6) 0.2732(16) 0.0079(15)
loop_
_geom_bond_atom_site_label_1
_geom_bond_atom_site_label_2
_geom_bond_site_symmetry_1
_geom_bond_site_symmetry_2
Se1 C8 1_555 1_555
Se2 C9 1_555 1_555
S1 C1 1_555 1_555
S2 C1 1_555 1_555
S3 C2 1_555 1_555
S4 C2 1_555 1_555
S5 C7 1_555 1_555
S6 C7 1_555 1_555
S7 C6 1_555 1_555
O1 C4 1_555 1_555
O2 C3 1_555 1_555
C1 C2 1_555 1_555
C3 S3 1_555 1_555
C4 S4 1_555 1_555
C5 S1 1_555 1_555
C6 S2 1_555 1_555
C7 C5 1_555 1_555
C8 S5 1_555 1_555
C9 S6 1_555 1_555
C10 O2 1_555 1_555
C11 O1 1_555 1_555
C12 Se1 1_555 1_555
C13 Se2 1_555 1_555
H1 C10 1_555 1_555
H2 C10 1_555 1_555
H3 C11 1_555 1_555
H4 C11 1_555 1_555
H5 C12 1_555 1_555
H6 C12 1_555 1_555
H7 C13 1_555 1_555
H8 C13 1_555 1_555
Se3 C21 1_555 1_555
Se4 C22 1_555 1_555
S8 C14 1_555 1_555
S9 C14 1_555 1_555
S10 C15 1_555 1_555
S11 C15 1_555 1_555
S12 C20 1_555 1_555
S13 C20 1_555 1_555
S14 C19 1_555 1_555
O3 C17 1_555 1_555
O4 C16 1_555 1_555
C14 C15 1_555 1_555
C16 S10 1_555 1_555
C17 S11 1_555 1_555
C18 S8 1_555 1_555
C19 S9 1_555 1_555
C20 C18 1_555 1_555
C21 S12 1_555 1_555
C22 S13 1_555 1_555
C23 O4 1_555 1_555
C24 O3 1_555 1_555
C25 Se3 1_555 1_555
C26 Se4 1_555 1_555
H9 C23 1_555 1_555
H10 C23 1_555 1_555
H11 C24 1_555 1_555
H12 C24 1_555 1_555
H13 C25 1_555 1_555
H14 C25 1_555 1_555
H15 C26 1_555 1_555
H16 C26 1_555 1_555
As1 F1 1_555 1_555
F2 As1 1_555 1_555
F3 As1 1_555 1_555
F4 As1 1_555 1_555
F5 As1 1_555 1_555
F6 As1 1_555 1_555
Cl1 C27 1_555 1_555
C27 C28 1_555 1_555
C28 C29 1_555 1_555
C29 C30 1_555 1_555
C30 C29C 1_555 1_555
C28C C27 1_555 1_555
C29C C28C 1_555 1_555
C3 C4 1_555 1_555
C5 C6 1_555 1_555
C8 C9 1_555 1_555
C10 C11 1_555 1_555
C12 C13 1_555 1_555
C16 C17 1_555 1_555
C18 C19 1_555 1_555
C21 C22 1_555 1_555
C23 C24 1_555 1_555
C25 C26 1_555 1_555

#END
