
#######################################################################
#
#                 Cambridge Crystallographic Data Centre
#                                CCDC 
#
#######################################################################
#
# If this CIF has been generated from an entry in the Cambridge 
# Structural Database, then it will include bibliographic, chemical, 
# crystal, experimental, refinement or atomic coordinate data resulting 
# from the CCDC's data processing and validation procedures.
#
#######################################################################

data_LOYTEA
_chemical_formula_moiety         'C50 H59 O13 P1,C12 H14 N2 2+,2(F6 P1 1-)'
_chemical_name_systematic        
"1,1'-dimethyl-4,4'-bipyridinium 11-phenyl-5,17,24,27,30,33,36,39,42,45,48,51-dodecaoxa-11-phosphahexacyclo[19.17.13.2^6,9^.2^13,16^.1^3,37^.1^19,23^]heptapentaconta-1,3(52),6,8,13,15,19(53),20,22,37,54,56-dodecaene 11-oxide bis(hexafluorophosphate) unknown solvate"
_symmetry_cell_setting           monoclinic
_symmetry_space_group_name_H-M   'P 21/n'
_symmetry_Int_Tables_number      14
_space_group_name_Hall           '-P 2yn'
loop_
_symmetry_equiv_pos_site_id
_symmetry_equiv_pos_as_xyz
1 x,y,z
2 1/2-x,1/2+y,1/2-z
3 -x,-y,-z
4 1/2+x,1/2-y,1/2+z
_cell_length_a                   17.2062(4)
_cell_length_b                   23.6008(5)
_cell_length_c                   18.4826(4)
_cell_angle_alpha                90
_cell_angle_beta                 90.615(2)
_cell_angle_gamma                90
_cell_volume                     7504.98
_exptl_crystal_colour            yellow
_exptl_crystal_description       block
_cell_formula_units_Z            4
loop_
_atom_site_label
_atom_site_type_symbol
_atom_site_fract_x
_atom_site_fract_y
_atom_site_fract_z
C1 C 1.20324(16) 0.00914(11) 1.26110(14)
C2 C 1.15001(19) -0.02639(11) 1.29229(15)
H1 H 1.0971 -0.0214 1.2840
C3 C 1.1767(2) -0.06997(12) 1.33651(17)
H2 H 1.1416 -0.0935 1.3598
C4 C 1.2555(2) -0.07833(13) 1.34579(18)
H3 H 1.2731 -0.1085 1.3738
C5 C 1.3057(2) -0.04432(12) 1.31569(19)
H4 H 1.3586 -0.0504 1.3230
C6 C 1.28132(18) -0.00003(11) 1.27363(17)
H5 H 1.3177 0.0242 1.2533
C7 C 1.09334(16) 0.09913(11) 1.24379(16)
H6 H 1.0529 0.0706 1.2463
H7 H 1.1065 0.1102 1.2930
C8 C 1.06071(14) 0.15076(11) 1.20413(15)
C9 C 0.99118(17) 0.14779(12) 1.16883(18)
H8 H 0.9632 0.1141 1.1700
C10 C 0.96104(17) 0.19330(12) 1.13132(18)
H9 H 0.9140 0.1899 1.1065
C11 C 1.00049(16) 0.24351(11) 1.13068(15)
C12 C 1.06935(16) 0.24681(11) 1.16598(15)
H10 H 1.0962 0.2810 1.1660
C13 C 1.10094(16) 0.20123(11) 1.20189(15)
H11 H 1.1492 0.2044 1.2246
C14 C 0.99977(17) 0.33943(11) 1.09330(17)
H12 H 1.0517 0.3370 1.0736
H13 H 1.0037 0.3536 1.1424
C15 C 0.95026(16) 0.37837(10) 1.04785(15)
C16 C 0.87239(17) 0.38528(11) 1.06372(15)
H14 H 0.8506 0.3656 1.1021
C17 C 0.82655(15) 0.42198(11) 1.02169(16)
C18 C 0.86063(16) 0.45204(11) 0.96553(15)
H15 H 0.8308 0.4773 0.9384
C19 C 0.93647(16) 0.44500(10) 0.95007(15)
C20 C 0.98292(16) 0.40846(10) 0.99109(14)
H16 H 1.0353 0.4042 0.9806
C21 C 1.04064(18) 0.46907(13) 0.87163(16)
H17 H 1.0505 0.4297 0.8600
H18 H 1.0757 0.4802 0.9105
C22 C 1.0541(2) 0.50540(13) 0.80636(18)
H19 H 1.0416 0.5444 0.8177
H20 H 1.1086 0.5037 0.7935
C23 C 1.0162(3) 0.52465(15) 0.6887(2)
H21 H 1.0669 0.5200 0.6670
H22 H 1.0115 0.5636 0.7048
C24 C 0.9550(3) 0.51199(17) 0.6351(2)
H23 H 0.9049 0.5134 0.6586
H24 H 0.9554 0.5410 0.5979
C25 C 0.9233(3) 0.45828(14) 0.5463(2)
H25 H 0.8743 0.4779 0.5530
H26 H 0.9508 0.4775 0.5079
C26 C 0.9069(3) 0.39989(14) 0.5233(2)
H27 H 0.9329 0.3965 0.4772
H28 H 0.8518 0.4001 0.5117
C27 C 0.8675(3) 0.31213(12) 0.5479(2)
H29 H 0.8217 0.3249 0.5733
H30 H 0.8529 0.3098 0.4971
C28 C 0.8818(3) 0.25534(14) 0.5714(2)
H31 H 0.9044 0.2346 0.5314
H32 H 0.8322 0.2378 0.5818
C29 C 0.8997(2) 0.22208(13) 0.68503(16)
C30 C 0.9550(2) 0.19684(13) 0.72726(15)
H33 H 1.0069 0.1982 0.7137
C31 C 0.9349(2) 0.16993(13) 0.78857(15)
C32 C 0.8585(2) 0.16766(12) 0.81137(15)
H34 H 0.8450 0.1500 0.8544
C33 C 0.80240(19) 0.19351(12) 0.76613(16)
C34 C 0.8221(2) 0.22103(11) 0.70397(15)
H35 H 0.7845 0.2386 0.6752
C35 C 0.9956(2) 0.14198(16) 0.83641(16)
H36 H 0.9829 0.1022 0.8418
H37 H 1.0458 0.1446 0.8134
C36 C 1.03931(18) 0.13522(13) 0.95404(16)
C37 C 0.9973(2) 0.09191(16) 0.9868(2)
H38 H 0.9458 0.0849 0.9740
C38 C 1.0358(2) 0.05901(17) 1.0405(2)
H39 H 1.0095 0.0286 1.0609
C39 C 1.11050(19) 0.07025(13) 1.06337(17)
C40 C 1.14560(16) 0.11941(15) 1.03531(15)
H40 H 1.1944 0.1307 1.0520
C41 C 1.10673(16) 0.15105(13) 0.98227(15)
H41 H 1.1292 0.1846 0.9662
C42 C 1.14604(16) 0.03565(11) 1.12450(16)
H42 H 1.1904 0.0158 1.1049
H43 H 1.1082 0.0070 1.1376
C43 C 0.70236(19) 0.46508(14) 1.0031(3)
H44 H 0.7091 0.4618 0.9513
H45 H 0.7169 0.5032 1.0176
C44 C 0.6193(2) 0.45408(17) 1.0220(3)
H46 H 0.6152 0.4512 1.0741
H47 H 0.5880 0.4861 1.0063
C45 C 0.5142(2) 0.3967(2) 1.0080(3)
H48 H 0.5108 0.3749 1.0523
H49 H 0.4860 0.4319 1.0146
C46 C 0.48132(19) 0.3658(2) 0.9498(3)
H50 H 0.4865 0.3880 0.9060
H51 H 0.4262 0.3611 0.9585
C47 C 0.4834(2) 0.2889(2) 0.8776(2)
H52 H 0.4986 0.3113 0.8361
H53 H 0.4271 0.2900 0.8806
C48 C 0.5093(2) 0.2293(2) 0.8675(2)
H54 H 0.4912 0.2065 0.9076
H55 H 0.4861 0.2143 0.8234
C49 C 0.6151(2) 0.16906(16) 0.8469(2)
H56 H 0.5904 0.1569 0.8021
H57 H 0.5988 0.1437 0.8851
C50 C 0.6999(2) 0.16598(15) 0.8396(2)
H58 H 0.7244 0.1818 0.8826
H59 H 0.7154 0.1266 0.8359
O1 O 1.24111(11) 0.10982(8) 1.19685(11)
O2 O 0.75073(11) 0.42446(9) 1.04007(13)
O3 O 0.59138(13) 0.40805(11) 0.99268(19)
O4 O 0.51427(12) 0.31146(13) 0.93755(16)
O5 O 0.59100(13) 0.22518(12) 0.86336(13)
O6 O 0.72509(14) 0.19470(9) 0.78013(11)
O7 O 0.92635(16) 0.24919(10) 0.62692(12)
O8 O 0.91790(18) 0.35250(12) 0.55318(14)
O9 O 0.96312(17) 0.46224(10) 0.60438(14)
O10 O 1.00913(15) 0.48765(9) 0.74837(11)
O11 O 0.96252(11) 0.47592(8) 0.89365(10)
O12 O 0.96411(11) 0.28574(8) 1.09262(11)
O13 O 0.99989(13) 0.16623(9) 0.90228(11)
P1 P 1.17687(5) 0.06804(3) 1.20394(4)
C51 C 0.66185(18) 0.27069(15) 1.03580(17)
H60 H 0.6482 0.3049 1.0607
H61 H 0.6791 0.2428 1.0702
H62 H 0.6173 0.2566 1.0098
C52 C 0.71179(16) 0.31487(13) 0.92614(16)
H63 H 0.6622 0.3295 0.9183
C53 C 0.76834(16) 0.32659(12) 0.87863(15)
H64 H 0.7567 0.3489 0.8384
C54 C 0.84351(15) 0.30638(10) 0.88798(13)
C55 C 0.85535(16) 0.27223(11) 0.94622(14)
H65 H 0.9039 0.2558 0.9537
C56 C 0.79788(17) 0.26181(12) 0.99333(15)
H66 H 0.8085 0.2394 1.0336
C57 C 0.90595(14) 0.31980(9) 0.83746(13)
C58 C 0.89098(16) 0.34924(11) 0.77412(14)
H67 H 0.8405 0.3608 0.7633
C59 C 0.94871(16) 0.36137(11) 0.72799(16)
H68 H 0.9381 0.3826 0.6867
C60 C 1.03748(16) 0.31414(12) 0.79998(15)
H69 H 1.0880 0.3013 0.8078
C61 C 0.98229(16) 0.30263(11) 0.84953(15)
H70 H 0.9955 0.2832 0.8917
C62 C 1.08265(18) 0.35559(15) 0.68821(18)
H71 H 1.1310 0.3398 0.7050
H72 H 1.0880 0.3959 0.6830
H73 H 1.0689 0.3392 0.6423
N1 N 0.72543(14) 0.28276(10) 0.98405(12)
N2 N 1.02122(14) 0.34312(10) 0.74107(13)
F1 F 0.2119(2) 0.35642(17) 0.86607(15)
F2 F 0.14220(18) 0.30737(15) 0.93282(18)
F3 F 0.17635(16) 0.38879(14) 0.9697(2)
F4 F 0.2194(2) 0.31579(15) 1.02172(16)
F5 F 0.29058(15) 0.37222(16) 0.9575(2)
F6 F 0.2690(2) 0.28947(14) 0.92477(19)
P2 P 0.21967(6) 0.33806(6) 0.94224(7)
F7 F 0.69468(14) 0.05557(12) 0.09655(16)
F8 F 0.66836(15) 0.12049(15) 0.01942(16)
F9 F 0.79328(15) 0.12839(14) -0.00448(14)
F10 F 0.81754(15) 0.06240(12) 0.07238(17)
F11 F 0.74931(19) 0.13477(13) 0.10352(15)
F12 F 0.7351(2) 0.05159(13) -0.01787(17)
P3 P 0.74215(6) 0.09020(5) 0.04515(6)
loop_
_geom_bond_atom_site_label_1
_geom_bond_atom_site_label_2
_geom_bond_site_symmetry_1
_geom_bond_site_symmetry_2
C1 C2 1_555 1_555
C2 H1 1_555 1_555
C3 C2 1_555 1_555
H2 C3 1_555 1_555
C4 C3 1_555 1_555
H3 C4 1_555 1_555
C5 C4 1_555 1_555
H4 C5 1_555 1_555
C6 C1 1_555 1_555
H5 C6 1_555 1_555
C7 H6 1_555 1_555
H7 C7 1_555 1_555
C8 C7 1_555 1_555
C9 C8 1_555 1_555
H8 C9 1_555 1_555
C10 C9 1_555 1_555
H9 C10 1_555 1_555
C11 C10 1_555 1_555
C12 C11 1_555 1_555
H10 C12 1_555 1_555
C13 C8 1_555 1_555
H11 C13 1_555 1_555
C14 H12 1_555 1_555
H13 C14 1_555 1_555
C15 C14 1_555 1_555
C16 C15 1_555 1_555
H14 C16 1_555 1_555
C17 C16 1_555 1_555
C18 C17 1_555 1_555
H15 C18 1_555 1_555
C19 C18 1_555 1_555
C20 C15 1_555 1_555
H16 C20 1_555 1_555
C21 H17 1_555 1_555
H18 C21 1_555 1_555
C22 C21 1_555 1_555
H19 C22 1_555 1_555
H20 C22 1_555 1_555
C23 H21 1_555 1_555
H22 C23 1_555 1_555
C24 C23 1_555 1_555
H23 C24 1_555 1_555
H24 C24 1_555 1_555
C25 H25 1_555 1_555
H26 C25 1_555 1_555
C26 C25 1_555 1_555
H27 C26 1_555 1_555
H28 C26 1_555 1_555
C27 H29 1_555 1_555
H30 C27 1_555 1_555
C28 C27 1_555 1_555
H31 C28 1_555 1_555
H32 C28 1_555 1_555
C29 C30 1_555 1_555
C30 H33 1_555 1_555
C31 C30 1_555 1_555
C32 C31 1_555 1_555
H34 C32 1_555 1_555
C33 C32 1_555 1_555
C34 C29 1_555 1_555
H35 C34 1_555 1_555
C35 C31 1_555 1_555
H36 C35 1_555 1_555
H37 C35 1_555 1_555
C36 C37 1_555 1_555
C37 H38 1_555 1_555
C38 C37 1_555 1_555
H39 C38 1_555 1_555
C39 C38 1_555 1_555
C40 C39 1_555 1_555
H40 C40 1_555 1_555
C41 C36 1_555 1_555
H41 C41 1_555 1_555
C42 C39 1_555 1_555
H42 C42 1_555 1_555
H43 C42 1_555 1_555
C43 H44 1_555 1_555
H45 C43 1_555 1_555
C44 C43 1_555 1_555
H46 C44 1_555 1_555
H47 C44 1_555 1_555
C45 H48 1_555 1_555
H49 C45 1_555 1_555
C46 C45 1_555 1_555
H50 C46 1_555 1_555
H51 C46 1_555 1_555
C47 H52 1_555 1_555
H53 C47 1_555 1_555
C48 C47 1_555 1_555
H54 C48 1_555 1_555
H55 C48 1_555 1_555
C49 H56 1_555 1_555
H57 C49 1_555 1_555
C50 C49 1_555 1_555
H58 C50 1_555 1_555
H59 C50 1_555 1_555
O1 P1 1_555 1_555
O2 C17 1_555 1_555
O3 C44 1_555 1_555
O4 C46 1_555 1_555
O5 C48 1_555 1_555
O6 C33 1_555 1_555
O7 C28 1_555 1_555
O8 C26 1_555 1_555
O9 C24 1_555 1_555
O10 C22 1_555 1_555
O11 C19 1_555 1_555
O12 C11 1_555 1_555
O13 C35 1_555 1_555
P1 C1 1_555 1_555
C51 H60 1_555 1_555
H61 C51 1_555 1_555
H62 C51 1_555 1_555
C52 H63 1_555 1_555
C53 C52 1_555 1_555
H64 C53 1_555 1_555
C54 C53 1_555 1_555
C55 C54 1_555 1_555
H65 C55 1_555 1_555
C56 C55 1_555 1_555
H66 C56 1_555 1_555
C57 C54 1_555 1_555
C58 C57 1_555 1_555
H67 C58 1_555 1_555
C59 C58 1_555 1_555
H68 C59 1_555 1_555
C60 H69 1_555 1_555
C61 C57 1_555 1_555
H70 C61 1_555 1_555
C62 H71 1_555 1_555
H72 C62 1_555 1_555
H73 C62 1_555 1_555
N1 C51 1_555 1_555
N2 C59 1_555 1_555
F1 P2 1_555 1_555
F2 P2 1_555 1_555
F3 P2 1_555 1_555
F4 P2 1_555 1_555
F5 P2 1_555 1_555
F6 P2 1_555 1_555
F7 P3 1_555 1_555
F8 P3 1_555 1_555
F9 P3 1_555 1_555
F10 P3 1_555 1_555
F11 P3 1_555 1_555
F12 P3 1_555 1_555
C5 C6 1_555 1_555
C7 P1 1_555 1_555
C12 C13 1_555 1_555
C14 O12 1_555 1_555
C19 C20 1_555 1_555
C21 O11 1_555 1_555
C23 O10 1_555 1_555
C25 O9 1_555 1_555
C27 O8 1_555 1_555
C29 O7 1_555 1_555
C33 C34 1_555 1_555
C36 O13 1_555 1_555
C40 C41 1_555 1_555
C42 P1 1_555 1_555
C43 O2 1_555 1_555
C45 O3 1_555 1_555
C47 O4 1_555 1_555
C49 O5 1_555 1_555
C50 O6 1_555 1_555
C52 N1 1_555 1_555
C56 N1 1_555 1_555
C60 C61 1_555 1_555
C60 N2 1_555 1_555
C62 N2 1_555 1_555

#END
