
#######################################################################
#
#                 Cambridge Crystallographic Data Centre
#                                CCDC 
#
#######################################################################
#
# If this CIF has been generated from an entry in the Cambridge 
# Structural Database, then it will include bibliographic, chemical, 
# crystal, experimental, refinement or atomic coordinate data resulting 
# from the CCDC's data processing and validation procedures.
#
#######################################################################

data_LOZDUZ01
_chemical_formula_moiety         'C24 H26 N2 O3 S1'
_chemical_name_systematic        
'5-((3aS,6aR)-1,3-Dibenzyl-2-oxo-tetrahydro-1H,3H-thieno(3,4-d)imidazol-4-ylidene)pentanoic acid'
_symmetry_cell_setting           monoclinic
_symmetry_space_group_name_H-M   'P 21'
_symmetry_Int_Tables_number      4
_space_group_name_Hall           'P 2yb'
loop_
_symmetry_equiv_pos_site_id
_symmetry_equiv_pos_as_xyz
1 x,y,z
2 -x,1/2+y,-z
_cell_length_a                   11.030(2)
_cell_length_b                   7.783(2)
_cell_length_c                   12.797(2)
_cell_angle_alpha                90
_cell_angle_beta                 93.440(10)
_cell_angle_gamma                90
_cell_volume                     1096.6
_exptl_crystal_colour            colorless
_exptl_crystal_description       prismatic
_chemical_melting_point          '83-85 deg.C'
_cell_formula_units_Z            2
_exptl_crystal_recrystallization_method 'ethyl acetate'
loop_
_atom_site_label
_atom_site_type_symbol
_atom_site_fract_x
_atom_site_fract_y
_atom_site_fract_z
S1 S 0.12505(14) 0.8390(3) 0.57810(13)
O1 O 0.2908(3) 0.2908(6) 0.6889(3)
N1 N 0.1315(3) 0.4706(6) 0.7198(3)
N2 N 0.3163(3) 0.5759(7) 0.7332(4)
C1 C 0.2497(4) 0.4368(8) 0.7119(4)
C2 C 0.1111(4) 0.6453(8) 0.7507(4)
H1 H 0.0761 0.6503 0.8192
C3 C 0.2407(5) 0.7233(7) 0.7556(4)
H2 H 0.2623 0.7678 0.8259
C4 C 0.2489(5) 0.8671(9) 0.6734(5)
H3 H 0.3255 0.8599 0.6403
H4 H 0.2437 0.9787 0.7065
C5 C 0.0348(4) 0.7448(8) 0.6697(4)
C6 C 0.0359(5) 0.3465(10) 0.6935(4)
H5 H 0.0699 0.2533 0.6544
H6 H -0.0259 0.4017 0.6479
C7 C -0.0238(4) 0.2720(8) 0.7858(4)
C8 C -0.1436(5) 0.3078(10) 0.8042(5)
H7 H -0.1878 0.3861 0.7623
C9 C -0.1973(6) 0.2250(10) 0.8864(5)
H8 H -0.2785 0.2459 0.8975
C10 C -0.1345(6) 0.1169(11) 0.9491(6)
H9 H -0.1726 0.0645 1.0035
C11 C -0.0145(6) 0.0807(12) 0.9353(6)
H10 H 0.0298 0.0061 0.9797
C12 C 0.0377(6) 0.1617(10) 0.8515(5)
H11 H 0.1186 0.1387 0.8402
C13 C 0.4470(5) 0.5851(10) 0.7401(5)
H12 H 0.4711 0.6876 0.7034
H13 H 0.4782 0.4870 0.7034
C14 C 0.5063(5) 0.5888(8) 0.8474(4)
C15 C 0.4499(5) 0.5344(9) 0.9327(4)
H14 H 0.3707 0.4933 0.9247
C16 C 0.5084(6) 0.5390(10) 1.0319(5)
H15 H 0.4699 0.5000 1.0901
C17 C 0.6243(6) 0.6026(10) 1.0416(6)
H16 H 0.6638 0.6113 1.1077
C18 C 0.6802(6) 0.6511(11) 0.9595(5)
H17 H 0.7600 0.6895 0.9684
C19 C 0.6255(5) 0.6474(9) 0.8609(5)
H18 H 0.6672 0.6834 0.8038
C20 C -0.0843(5) 0.7601(9) 0.6679(5)
H19 H -0.1226 0.7093 0.7228
C21 C -0.1650(5) 0.8509(12) 0.5866(5)
H20 H -0.1168 0.9333 0.5501
H21 H -0.1966 0.7675 0.5356
C22 C -0.2664(6) 0.9402(11) 0.6307(5)
H22 H -0.3152 0.8559 0.6649
H23 H -0.2338 1.0186 0.6842
C23 C -0.3456(6) 1.0367(10) 0.5576(5)
H24 H -0.3914 0.9546 0.5140
H25 H -0.2945 1.1002 0.5121
C24 C -0.4360(8) 1.1632(13) 0.6003(8)
O2 O -0.4882(6) 1.0840(11) 0.6746(6)
H26 H -0.459(3) 1.012(3) 0.717(2)
O3 O -0.4222(17) 1.3131(17) 0.5723(15)
O4? O -0.5376(8) 1.1594(19) 0.5684(9)
loop_
_geom_bond_atom_site_label_1
_geom_bond_atom_site_label_2
_geom_bond_site_symmetry_1
_geom_bond_site_symmetry_2
S1 C4 1_555 1_555
O1 C1 1_555 1_555
N1 C1 1_555 1_555
N2 C1 1_555 1_555
C2 N1 1_555 1_555
H1 C2 1_555 1_555
C3 N2 1_555 1_555
H2 C3 1_555 1_555
C4 C3 1_555 1_555
H3 C4 1_555 1_555
H4 C4 1_555 1_555
C5 S1 1_555 1_555
C6 N1 1_555 1_555
H5 C6 1_555 1_555
H6 C6 1_555 1_555
C7 C6 1_555 1_555
C8 C7 1_555 1_555
H7 C8 1_555 1_555
C9 C8 1_555 1_555
H8 C9 1_555 1_555
C10 C9 1_555 1_555
H9 C10 1_555 1_555
C11 C10 1_555 1_555
H10 C11 1_555 1_555
C12 C7 1_555 1_555
H11 C12 1_555 1_555
C13 N2 1_555 1_555
H12 C13 1_555 1_555
H13 C13 1_555 1_555
C14 C13 1_555 1_555
C15 C14 1_555 1_555
H14 C15 1_555 1_555
C16 C15 1_555 1_555
H15 C16 1_555 1_555
C17 C16 1_555 1_555
H16 C17 1_555 1_555
C18 C17 1_555 1_555
H17 C18 1_555 1_555
C19 C14 1_555 1_555
H18 C19 1_555 1_555
C20 C5 1_555 1_555
H19 C20 1_555 1_555
C21 C20 1_555 1_555
H20 C21 1_555 1_555
H21 C21 1_555 1_555
C22 C21 1_555 1_555
H22 C22 1_555 1_555
H23 C22 1_555 1_555
C23 C22 1_555 1_555
H24 C23 1_555 1_555
H25 C23 1_555 1_555
C24 C23 1_555 1_555
O2 C24 1_555 1_555
H26 O2 1_555 1_555
O3 C24 1_555 1_555
C2 C5 1_555 1_555
C2 C3 1_555 1_555
C11 C12 1_555 1_555
C18 C19 1_555 1_555

#END
