
#######################################################################
#
#                 Cambridge Crystallographic Data Centre
#                                CCDC 
#
#######################################################################
#
# If this CIF has been generated from an entry in the Cambridge 
# Structural Database, then it will include bibliographic, chemical, 
# crystal, experimental, refinement or atomic coordinate data resulting 
# from the CCDC's data processing and validation procedures.
#
#######################################################################

data_LOZXUT
_chemical_formula_moiety         'C21 H28 O8'
_chemical_name_systematic        
'1,2:4,5-Di-O-isopropylidene-\b-D-fructopyranos-3-yl benzyloxyacetate'
_symmetry_cell_setting           monoclinic
_symmetry_space_group_name_H-M   'P 21'
_symmetry_Int_Tables_number      4
_space_group_name_Hall           'P 2yb'
loop_
_symmetry_equiv_pos_site_id
_symmetry_equiv_pos_as_xyz
1 x,y,z
2 -x,1/2+y,-z
_cell_length_a                   12.8625(10)
_cell_length_b                   5.5705(3)
_cell_length_c                   14.5033(7)
_cell_angle_alpha                90
_cell_angle_beta                 95.687(6)
_cell_angle_gamma                90
_cell_volume                     1034.05
_exptl_crystal_colour            colorless
_exptl_crystal_description       irregular
_chemical_melting_point          '103-104 deg.C'
_cell_formula_units_Z            2
loop_
_atom_site_label
_atom_site_type_symbol
_atom_site_fract_x
_atom_site_fract_y
_atom_site_fract_z
O1 O 0.86893(7) 0.11027 0.56808(7)
O2 O 0.62581(7) 0.0432(3) 0.47305(7)
O3 O 0.75963(7) -0.2117(3) 0.51438(6)
O4 O 1.01573(7) -0.0313(3) 0.73454(6)
O5 O 0.90495(7) -0.2973(3) 0.79543(6)
O6 O 0.69060(6) -0.2583(3) 0.68943(6)
O7 O 0.62109(8) 0.0342(3) 0.77308(7)
O8 O 0.44438(7) -0.2506(3) 0.78586(6)
C1 C 0.95885(12) -0.0417(4) 0.57230(11)
C2 C 0.97534(10) -0.1847(3) 0.66100(9)
C3 C 0.87672(10) -0.2844(3) 0.69760(8)
C4 C 0.78300(9) -0.1182(3) 0.67646(9)
C5 C 0.77518(10) -0.0196(3) 0.57750(9)
C6 C 0.68403(11) 0.1524(3) 0.55041(10)
C7 C 0.69077(10) -0.1314(3) 0.43550(9)
C8 C 0.62325(13) -0.3392(3) 0.40014(10)
C9 C 0.75376(12) -0.0203(4) 0.36292(11)
C10 C 0.99778(9) -0.1517(3) 0.81799(9)
C11 C 1.08839(11) -0.3166(4) 0.84946(10)
C12 C 0.97751(12) 0.0353(4) 0.88966(11)
C13 C 0.61651(10) -0.1617(3) 0.73817(8)
C14 C 0.52674(10) -0.3374(3) 0.73799(10)
C15 C 0.46357(10) -0.2795(3) 0.88397(9)
C16 C 0.38561(9) -0.1317(3) 0.93049(9)
C17 C 0.35389(10) -0.2045(3) 1.01554(9)
C18 C 0.28561(10) -0.0652(3) 1.06106(10)
C19 C 0.24838(10) 0.1498(4) 1.02221(10)
C20 C 0.27922(10) 0.2231(3) 0.93756(10)
C21 C 0.34739(10) 0.0834(3) 0.89179(9)
H1 H 0.9508(12) -0.154(4) 0.5191(13)
H2 H 1.0188(15) 0.056(4) 0.5674(13)
H3 H 1.0233(11) -0.320(3) 0.6526(10)
H4 H 0.8632(11) -0.437(3) 0.6749(10)
H5 H 0.7890(10) 0.011(3) 0.7195(9)
H6 H 0.6380(11) 0.164(3) 0.5986(11)
H7 H 0.7111(13) 0.309(4) 0.5350(12)
H8 H 0.6679(14) -0.463(4) 0.3795(12)
H9 H 0.5818(12) -0.396(3) 0.4473(11)
H10 H 0.5721(13) -0.283(4) 0.3453(12)
H11 H 0.7989(14) -0.132(4) 0.3388(13)
H12 H 0.7968(13) 0.115(4) 0.3906(12)
H13 H 0.7072(14) 0.033(4) 0.3102(13)
H14 H 1.0998(12) -0.432(3) 0.7989(12)
H15 H 1.1515(14) -0.213(4) 0.8629(12)
H16 H 1.0745(13) -0.393(4) 0.9066(13)
H17 H 0.9141(15) 0.138(4) 0.8659(13)
H18 H 1.0422(14) 0.140(4) 0.9029(12)
H19 H 0.9642(12) -0.045(4) 0.9495(12)
H20 H 0.5546(11) -0.486(3) 0.7629(11)
H21 H 0.4999(11) -0.352(3) 0.6760(11)
H22 H 0.5345(11) -0.232(3) 0.9039(9)
H23 H 0.4539(11) -0.441(3) 0.9016(10)
H24 H 0.3804(13) -0.351(4) 1.0430(12)
H25 H 0.2666(11) -0.110(3) 1.1196(10)
H26 H 0.2024(12) 0.240(3) 1.0547(11)
H27 H 0.2527(11) 0.369(3) 0.9076(10)
H28 H 0.3686(10) 0.125(3) 0.8328(11)
loop_
_geom_bond_atom_site_label_1
_geom_bond_atom_site_label_2
_geom_bond_site_symmetry_1
_geom_bond_site_symmetry_2
O1 C1 1_555 1_555
O2 C6 1_555 1_555
O3 C5 1_555 1_555
O4 C2 1_555 1_555
O5 C3 1_555 1_555
O6 C4 1_555 1_555
O7 C13 1_555 1_555
O8 C14 1_555 1_555
C1 C2 1_555 1_555
C2 C3 1_555 1_555
C3 C4 1_555 1_555
C4 C5 1_555 1_555
C5 O1 1_555 1_555
C6 C5 1_555 1_555
C7 O2 1_555 1_555
C8 C7 1_555 1_555
C9 C7 1_555 1_555
C10 O4 1_555 1_555
C11 C10 1_555 1_555
C12 C10 1_555 1_555
C13 O6 1_555 1_555
C14 C13 1_555 1_555
C15 O8 1_555 1_555
C16 C15 1_555 1_555
C17 C16 1_555 1_555
C18 C17 1_555 1_555
C19 C18 1_555 1_555
C20 C19 1_555 1_555
C21 C16 1_555 1_555
H1 C1 1_555 1_555
H2 C1 1_555 1_555
H3 C2 1_555 1_555
H4 C3 1_555 1_555
H5 C4 1_555 1_555
H6 C6 1_555 1_555
H7 C6 1_555 1_555
H8 C8 1_555 1_555
H9 C8 1_555 1_555
H10 C8 1_555 1_555
H11 C9 1_555 1_555
H12 C9 1_555 1_555
H13 C9 1_555 1_555
H14 C11 1_555 1_555
H15 C11 1_555 1_555
H16 C11 1_555 1_555
H17 C12 1_555 1_555
H18 C12 1_555 1_555
H19 C12 1_555 1_555
H20 C14 1_555 1_555
H21 C14 1_555 1_555
H22 C15 1_555 1_555
H23 C15 1_555 1_555
H24 C17 1_555 1_555
H25 C18 1_555 1_555
H26 C19 1_555 1_555
H27 C20 1_555 1_555
H28 C21 1_555 1_555
O3 C7 1_555 1_555
O5 C10 1_555 1_555
C20 C21 1_555 1_555

#END
