
#######################################################################
#
#                 Cambridge Crystallographic Data Centre
#                                CCDC 
#
#######################################################################
#
# If this CIF has been generated from an entry in the Cambridge 
# Structural Database, then it will include bibliographic, chemical, 
# crystal, experimental, refinement or atomic coordinate data resulting 
# from the CCDC's data processing and validation procedures.
#
#######################################################################

data_LOZZOR
_chemical_formula_moiety         'C22 H22 N2'
_chemical_name_systematic        
4,4'-(2,5-dimethylhex-3-ene-2,5-diyl)dibenzonitrile
_symmetry_cell_setting           triclinic
_symmetry_space_group_name_H-M   'P -1'
_symmetry_Int_Tables_number      2
_space_group_name_Hall           '-P 1'
loop_
_symmetry_equiv_pos_site_id
_symmetry_equiv_pos_as_xyz
1 x,y,z
2 -x,-y,-z
_cell_length_a                   10.638(14)
_cell_length_b                   11.784(14)
_cell_length_c                   13.566(15)
_cell_angle_alpha                67.11(3)
_cell_angle_beta                 84.68(3)
_cell_angle_gamma                63.93(3)
_cell_volume                     1400.99
_cell_formula_units_Z            3
loop_
_atom_site_label
_atom_site_type_symbol
_atom_site_fract_x
_atom_site_fract_y
_atom_site_fract_z
C1 C 0.1804(3) 0.9015(3) 0.4494(2)
C2 C 0.0409(3) 0.9510(3) 0.4938(2)
H1 H 0.0104 0.8827 0.5192
C3 C 0.4847(3) 0.5293(3) 0.6850(2)
C4 C 0.3604(3) 0.6077(3) 0.7160(2)
H2 H 0.3416 0.5800 0.7876
C5 C 0.2649(3) 0.7269(3) 0.6401(2)
H3 H 0.1811 0.7790 0.6615
C6 C 0.2888(3) 0.7719(3) 0.5334(2)
C7 C 0.4165(3) 0.6936(3) 0.5054(2)
H4 H 0.4368 0.7226 0.4342
C8 C 0.5140(3) 0.5744(3) 0.5802(3)
H5 H 0.5997 0.5242 0.5597
C9 C 0.5814(3) 0.4006(4) 0.7641(3)
C10 C 0.2366(3) 1.0100(3) 0.4100(3)
H6 H 0.2477 1.0320 0.4687
H7 H 0.1713 1.0913 0.3541
H8 H 0.3258 0.9747 0.3824
C11 C 0.1560(3) 0.8728(3) 0.3545(2)
H9 H 0.2420 0.8442 0.3214
H10 H 0.0850 0.9546 0.3030
H11 H 0.1258 0.8014 0.3792
N1 N 0.6557(3) 0.2999(3) 0.8266(2)
C1A C -0.1804(3) 1.0985(3) 0.5506(2)
C2A C -0.0409(3) 1.0490(3) 0.5062(2)
H1A H -0.0104 1.1173 0.4808
C3A C -0.4847(3) 1.4707(3) 0.3150(2)
C4A C -0.3604(3) 1.3923(3) 0.2840(2)
H2A H -0.3416 1.4200 0.2124
C5A C -0.2649(3) 1.2731(3) 0.3599(2)
H3A H -0.1811 1.2210 0.3385
C6A C -0.2888(3) 1.2281(3) 0.4666(2)
C7A C -0.4165(3) 1.3064(3) 0.4946(2)
H4A H -0.4368 1.2774 0.5658
C8A C -0.5140(3) 1.4256(3) 0.4198(3)
H5A H -0.5997 1.4758 0.4403
C9A C -0.5814(3) 1.5994(4) 0.2359(3)
C10A C -0.2366(3) 0.9900(3) 0.5900(3)
H6A H -0.2477 0.9680 0.5313
H7A H -0.1713 0.9087 0.6459
H8A H -0.3258 1.0253 0.6176
C11A C -0.1560(3) 1.1272(3) 0.6455(2)
H9A H -0.2420 1.1558 0.6786
H10A H -0.0850 1.0454 0.6970
H11A H -0.1258 1.1986 0.6208
N1A N -0.6557(3) 1.7001(3) 0.1734(2)
C12 C 0.6674(3) -0.0651(3) 0.2217(2)
C13 C 0.5722(3) 0.0865(3) 0.1756(2)
H12 H 0.6159 0.1432 0.1639
C14 C 0.4379(3) 0.1486(3) 0.1500(2)
H13 H 0.3938 0.0920 0.1628
C15 C 0.3436(3) 0.2999(3) 0.1023(2)
C16 C 0.9883(3) -0.1708(3) 0.0099(3)
C17 C 1.0083(3) -0.2521(3) 0.1163(3)
H14 H 1.0906 -0.3331 0.1436
C18 C 0.9073(3) -0.2155(3) 0.1844(2)
H15 H 0.9236 -0.2719 0.2571
C19 C 0.7833(3) -0.0975(3) 0.1471(2)
C20 C 0.7661(3) -0.0167(3) 0.0404(2)
H16 H 0.6838 0.0644 0.0132
C21 C 0.8666(3) -0.0507(3) -0.0290(2)
H17 H 0.8519 0.0071 -0.1012
C22 C 1.0902(3) -0.2097(3) -0.0628(3)
C23 C 0.5890(3) -0.1520(3) 0.2324(3)
H18 H 0.5155 -0.1335 0.2788
H19 H 0.6537 -0.2476 0.2622
H20 H 0.5489 -0.1291 0.1628
C24 C 0.7288(4) -0.0974(4) 0.3313(2)
H21 H 0.7789 -0.0441 0.3234
H22 H 0.7921 -0.1933 0.3636
H23 H 0.6543 -0.0754 0.3763
C25 C 0.2362(3) 0.3351(3) 0.1820(2)
C26 C 0.2791(3) 0.3299(3) 0.2775(2)
H24 H 0.3738 0.3027 0.2930
C27 C 0.1854(3) 0.3639(3) 0.3507(2)
H25 H 0.2170 0.3613 0.4135
C28 C 0.0457(3) 0.4014(3) 0.3302(3)
C29 C 0.0018(3) 0.4045(3) 0.2377(2)
H26 H -0.0924 0.4286 0.2236
C30 C 0.0962(3) 0.3722(3) 0.1642(2)
H27 H 0.0638 0.3757 0.1012
C31 C -0.0544(3) 0.4381(3) 0.4046(3)
C32 C 0.4249(3) 0.3867(3) 0.0768(2)
H28 H 0.3602 0.4823 0.0466
H29 H 0.4912 0.3651 0.0262
H30 H 0.4741 0.3669 0.1417
C33 C 0.2730(3) 0.3301(3) -0.0044(2)
H31 H 0.2222 0.2763 0.0086
H32 H 0.3434 0.3073 -0.0521
H33 H 0.2091 0.4258 -0.0365
N2 N 1.1688(3) -0.2427(3) -0.1204(2)
N3 N -0.1343(3) 0.4689(3) 0.4627(2)
loop_
_geom_bond_atom_site_label_1
_geom_bond_atom_site_label_2
_geom_bond_site_symmetry_1
_geom_bond_site_symmetry_2
C1 C2 1_555 1_555
C2 H1 1_555 1_555
C3 C4 1_555 1_555
C4 H2 1_555 1_555
C5 C4 1_555 1_555
H3 C5 1_555 1_555
C6 C1 1_555 1_555
C7 C6 1_555 1_555
H4 C7 1_555 1_555
C8 C3 1_555 1_555
H5 C8 1_555 1_555
C9 C3 1_555 1_555
C10 C1 1_555 1_555
H6 C10 1_555 1_555
H7 C10 1_555 1_555
H8 C10 1_555 1_555
C11 C1 1_555 1_555
H9 C11 1_555 1_555
H10 C11 1_555 1_555
H11 C11 1_555 1_555
N1 C9 1_555 1_555
C12 C13 1_555 1_555
C13 H12 1_555 1_555
C14 C13 1_555 1_555
H13 C14 1_555 1_555
C15 C14 1_555 1_555
C16 C17 1_555 1_555
C17 H14 1_555 1_555
C18 C17 1_555 1_555
H15 C18 1_555 1_555
C19 C12 1_555 1_555
C20 C19 1_555 1_555
H16 C20 1_555 1_555
C21 C16 1_555 1_555
H17 C21 1_555 1_555
C22 C16 1_555 1_555
C23 C12 1_555 1_555
H18 C23 1_555 1_555
H19 C23 1_555 1_555
H20 C23 1_555 1_555
C24 C12 1_555 1_555
H21 C24 1_555 1_555
H22 C24 1_555 1_555
H23 C24 1_555 1_555
C25 C15 1_555 1_555
C26 C25 1_555 1_555
H24 C26 1_555 1_555
C27 C26 1_555 1_555
H25 C27 1_555 1_555
C28 C27 1_555 1_555
C29 C28 1_555 1_555
H26 C29 1_555 1_555
C30 C25 1_555 1_555
H27 C30 1_555 1_555
C31 C28 1_555 1_555
C32 C15 1_555 1_555
H28 C32 1_555 1_555
H29 C32 1_555 1_555
H30 C32 1_555 1_555
C33 C15 1_555 1_555
H31 C33 1_555 1_555
H32 C33 1_555 1_555
H33 C33 1_555 1_555
N2 C22 1_555 1_555
N3 C31 1_555 1_555
C1A C2A 1_555 1_555
C2A C2 1_555 1_555
H1A C2A 1_555 1_555
C3A C4A 1_555 1_555
C4A H2A 1_555 1_555
C5A C4A 1_555 1_555
H3A C5A 1_555 1_555
C6A C1A 1_555 1_555
C7A C6A 1_555 1_555
H4A C7A 1_555 1_555
C8A C3A 1_555 1_555
H5A C8A 1_555 1_555
C9A C3A 1_555 1_555
C10A C1A 1_555 1_555
H6A C10A 1_555 1_555
H7A C10A 1_555 1_555
H8A C10A 1_555 1_555
C11A C1A 1_555 1_555
H9A C11A 1_555 1_555
H10A C11A 1_555 1_555
H11A C11A 1_555 1_555
N1A C9A 1_555 1_555
C5 C6 1_555 1_555
C7 C8 1_555 1_555
C18 C19 1_555 1_555
C20 C21 1_555 1_555
C29 C30 1_555 1_555
C5A C6A 1_555 1_555
C7A C8A 1_555 1_555

#END
