
#######################################################################
#
#                 Cambridge Crystallographic Data Centre
#                                CCDC 
#
#######################################################################
#
# If this CIF has been generated from an entry in the Cambridge 
# Structural Database, then it will include bibliographic, chemical, 
# crystal, experimental, refinement or atomic coordinate data resulting 
# from the CCDC's data processing and validation procedures.
#
#######################################################################

data_LPYGLU04
_chemical_name_common            5-oxoproline
_chemical_formula_moiety         'C5 H7 N1 O3'
_chemical_name_systematic        'L-pyroglutamic acid'
_symmetry_cell_setting           orthorhombic
_symmetry_space_group_name_H-M   'P 21 21 21'
_symmetry_Int_Tables_number      19
_space_group_name_Hall           'P 2ac 2ab'
loop_
_symmetry_equiv_pos_site_id
_symmetry_equiv_pos_as_xyz
1 x,y,z
2 1/2-x,-y,1/2+z
3 1/2+x,1/2-y,-z
4 -x,1/2+y,1/2-z
_cell_length_a                   8.9727(4)
_cell_length_b                   13.3086(6)
_cell_length_c                   14.6196(6)
_cell_angle_alpha                90
_cell_angle_beta                 90
_cell_angle_gamma                90
_cell_volume                     1745.79
_exptl_crystal_colour            colorless
_exptl_crystal_description       rod
_cell_formula_units_Z            12
loop_
_atom_site_label
_atom_site_type_symbol
_atom_site_fract_x
_atom_site_fract_y
_atom_site_fract_z
C1 C 0.22433(18) 0.29061(12) 0.79328(10)
C2 C 0.2221(2) 0.24826(12) 0.69744(11)
H1 H 0.2026 0.1743 0.6995
C3 C 0.3712(3) 0.2692(2) 0.64732(14)
H2 H 0.4288 0.3219 0.6794
H3 H 0.4324 0.2074 0.6439
C4 C 0.32674(19) 0.30408(15) 0.55245(11)
H4 H 0.3855 0.3637 0.5340
H5 H 0.3426 0.2500 0.5069
C5 C 0.16458(17) 0.32975(11) 0.56003(9)
N1 N 0.11252(16) 0.29705(12) 0.64010(9)
H6 H 0.0189 0.3046 0.6567
O1 O 0.3240(2) 0.24508(11) 0.84404(9)
H7 H 0.3231 0.2698 0.8969
O2 O 0.14776(19) 0.36121(13) 0.81869(9)
O3 O 0.08739(15) 0.37444(12) 0.50249(8)
C6 C 0.26034(17) 0.40757(12) 0.29592(10)
C7 C 0.25470(17) 0.43768(11) 0.19587(9)
H8 H 0.2742 0.5114 0.1904
C8 C 0.10670(18) 0.41208(16) 0.14774(11)
H9 H 0.0558 0.3555 0.1786
H10 H 0.0392 0.4709 0.1469
C9 C 0.15403(18) 0.38298(14) 0.05063(10)
H11 H 0.0922 0.3271 0.0270
H12 H 0.1457 0.4410 0.0085
C10 C 0.31418(17) 0.35097(11) 0.06156(9)
N2 N 0.36376(15) 0.38321(12) 0.14269(9)
H13 H 0.4552 0.3722 0.1621
O4 O 0.13714(15) 0.43263(11) 0.33906(8)
H14 H 0.1433 0.4151 0.3941
O5 O 0.36724(14) 0.36731(10) 0.33100(8)
O6 O 0.39041(15) 0.30406(12) 0.00540(8)
C11 C 0.30657(17) 0.05223(11) 0.26223(10)
C12 C 0.31451(16) 0.07895(11) 0.16183(9)
H15 H 0.3763 0.1408 0.1534
C13 C 0.15995(18) 0.09426(12) 0.11836(10)
H16 H 0.0827 0.0560 0.1519
H17 H 0.1322 0.1662 0.1179
C14 C 0.17863(18) 0.05410(12) 0.02081(10)
H18 H 0.0869 0.0198 -0.0002
H19 H 0.2029 0.1091 -0.0223
C15 C 0.30613(16) -0.01891(11) 0.02875(9)
N3 N 0.37639(15) -0.00297(11) 0.10833(8)
H20 H 0.4532 -0.0389 0.1265
O7 O 0.2510(2) 0.12681(10) 0.31125(8)
H21 H 0.2480 0.1099 0.3666
O8 O 0.34639(18) -0.02714(10) 0.29393(8)
O9 O 0.34388(16) -0.08383(10) -0.02771(8)
loop_
_geom_bond_atom_site_label_1
_geom_bond_atom_site_label_2
_geom_bond_site_symmetry_1
_geom_bond_site_symmetry_2
C1 C2 1_555 1_555
C2 H1 1_555 1_555
C3 C2 1_555 1_555
H2 C3 1_555 1_555
H3 C3 1_555 1_555
C4 C3 1_555 1_555
H4 C4 1_555 1_555
H5 C4 1_555 1_555
C5 C4 1_555 1_555
N1 C2 1_555 1_555
H6 N1 1_555 1_555
O1 C1 1_555 1_555
H7 O1 1_555 1_555
O2 C1 1_555 1_555
O3 C5 1_555 1_555
C6 C7 1_555 1_555
C7 H8 1_555 1_555
C8 C7 1_555 1_555
H9 C8 1_555 1_555
H10 C8 1_555 1_555
C9 C8 1_555 1_555
H11 C9 1_555 1_555
H12 C9 1_555 1_555
C10 C9 1_555 1_555
N2 C7 1_555 1_555
H13 N2 1_555 1_555
O4 C6 1_555 1_555
H14 O4 1_555 1_555
O5 C6 1_555 1_555
O6 C10 1_555 1_555
C11 C12 1_555 1_555
C12 H15 1_555 1_555
C13 C12 1_555 1_555
H16 C13 1_555 1_555
H17 C13 1_555 1_555
C14 C13 1_555 1_555
H18 C14 1_555 1_555
H19 C14 1_555 1_555
C15 C14 1_555 1_555
N3 C12 1_555 1_555
H20 N3 1_555 1_555
O7 C11 1_555 1_555
H21 O7 1_555 1_555
O8 C11 1_555 1_555
O9 C15 1_555 1_555
C5 N1 1_555 1_555
C10 N2 1_555 1_555
C15 N3 1_555 1_555

#END
