
#######################################################################
#
#                 Cambridge Crystallographic Data Centre
#                                CCDC 
#
#######################################################################
#
# If this CIF has been generated from an entry in the Cambridge 
# Structural Database, then it will include bibliographic, chemical, 
# crystal, experimental, refinement or atomic coordinate data resulting 
# from the CCDC's data processing and validation procedures.
#
#######################################################################

data_LPYGLU05
_chemical_name_common            5-oxoproline
_chemical_formula_moiety         'C5 H7 N1 O3'
_chemical_name_systematic        'L-pyroglutamic acid'
_symmetry_cell_setting           orthorhombic
_symmetry_space_group_name_H-M   'P 21 21 21'
_symmetry_Int_Tables_number      19
_space_group_name_Hall           'P 2ac 2ab'
loop_
_symmetry_equiv_pos_site_id
_symmetry_equiv_pos_as_xyz
1 x,y,z
2 1/2-x,-y,1/2+z
3 1/2+x,1/2-y,-z
4 -x,1/2+y,1/2-z
_cell_length_a                   9.0010(5)
_cell_length_b                   13.3871(8)
_cell_length_c                   14.6429(8)
_cell_angle_alpha                90
_cell_angle_beta                 90
_cell_angle_gamma                90
_cell_volume                     1764.43
_exptl_crystal_colour            colorless
_exptl_crystal_description       rod
_cell_formula_units_Z            12
loop_
_atom_site_label
_atom_site_type_symbol
_atom_site_fract_x
_atom_site_fract_y
_atom_site_fract_z
O1 O 0.41082(18) 0.12569(15) 0.50244(9)
O2 O 0.1761(3) 0.25389(14) 0.84318(11)
H1 H 0.1767 0.2291 0.8952
O3 O 0.3525(2) 0.13959(17) 0.81800(11)
C1 C 0.3344(2) 0.17041(13) 0.55985(11)
N1 N 0.38689(19) 0.20278(14) 0.63957(10)
H2 H 0.4791 0.1950 0.6558
C2 C 0.2786(3) 0.25188(14) 0.69694(12)
H3 H 0.2992 0.3245 0.6992
C3 C 0.2761(2) 0.20949(14) 0.79259(11)
C4 C 0.1730(2) 0.19646(19) 0.55266(13)
H4 H 0.1143 0.1377 0.5355
H5 H 0.1574 0.2490 0.5070
C5 C 0.1301(3) 0.2328(3) 0.64681(16)
H6 H 0.0714 0.1821 0.6789
H7 H 0.0717 0.2944 0.6428
O4 O 0.2515(2) 0.37515(12) 0.31163(10)
H8 H 0.2546 0.3919 0.3662
O5 O 0.1536(2) 0.52701(12) 0.29433(10)
O6 O 0.15466(19) 0.58227(12) -0.02712(9)
C6 C 0.1949(2) 0.44846(14) 0.26286(11)
C7 C 0.18665(19) 0.42141(13) 0.16273(11)
H9 H 0.1263 0.3602 0.1548
C8 C 0.3404(2) 0.40674(15) 0.11887(12)
H10 H 0.4166 0.4445 0.1519
H11 H 0.3683 0.3360 0.1182
C9 C 0.3214(2) 0.44668(14) 0.02164(12)
H12 H 0.4114 0.4811 0.0010
H13 H 0.2985 0.3925 -0.0211
N2 N 0.12387(18) 0.50230(13) 0.10901(9)
H14 H 0.0479 0.5374 0.1269
C10 C 0.19331(19) 0.51808(13) 0.02948(11)
O7 O 0.11103(18) 0.19559(14) 0.00478(10)
O8 O 0.36141(18) 0.06837(14) 0.33869(10)
H15 H 0.3551 0.0857 0.3930
O9 O 0.13294(16) 0.13394(13) 0.33019(9)
N3 N 0.13695(17) 0.11747(15) 0.14209(10)
H16 H 0.0468 0.1285 0.1611
C11 C 0.2392(2) 0.09372(14) 0.29533(11)
C12 C 0.1865(2) 0.14920(13) 0.06106(11)
C13 C 0.2450(2) 0.06357(13) 0.19551(11)
H17 H 0.2259 -0.0090 0.1902
C14 C 0.3463(2) 0.11778(16) 0.05072(12)
H18 H 0.4072 0.1729 0.0275
H19 H 0.3553 0.0608 0.0091
C15 C 0.3930(2) 0.08897(19) 0.14775(13)
H20 H 0.4431 0.1447 0.1783
H21 H 0.4596 0.0311 0.1471
loop_
_geom_bond_atom_site_label_1
_geom_bond_atom_site_label_2
_geom_bond_site_symmetry_1
_geom_bond_site_symmetry_2
O1 C1 1_555 1_555
O2 H1 1_555 1_555
O3 C3 1_555 1_555
C1 N1 1_555 1_555
N1 H2 1_555 1_555
C2 N1 1_555 1_555
H3 C2 1_555 1_555
C3 O2 1_555 1_555
C4 C1 1_555 1_555
H4 C4 1_555 1_555
H5 C4 1_555 1_555
C5 C2 1_555 1_555
H6 C5 1_555 1_555
H7 C5 1_555 1_555
O4 H8 1_555 1_555
O5 C6 1_555 1_555
O6 C10 1_555 1_555
C6 O4 1_555 1_555
C7 C6 1_555 1_555
H9 C7 1_555 1_555
C8 C7 1_555 1_555
H10 C8 1_555 1_555
H11 C8 1_555 1_555
C9 C8 1_555 1_555
H12 C9 1_555 1_555
H13 C9 1_555 1_555
N2 C7 1_555 1_555
H14 N2 1_555 1_555
C10 C9 1_555 1_555
O7 C12 1_555 1_555
O8 H15 1_555 1_555
O9 C11 1_555 1_555
N3 H16 1_555 1_555
C11 O8 1_555 1_555
C12 N3 1_555 1_555
C13 N3 1_555 1_555
H17 C13 1_555 1_555
C14 C12 1_555 1_555
H18 C14 1_555 1_555
H19 C14 1_555 1_555
C15 C13 1_555 1_555
H20 C15 1_555 1_555
H21 C15 1_555 1_555
C2 C3 1_555 1_555
C4 C5 1_555 1_555
N2 C10 1_555 1_555
C11 C13 1_555 1_555
C14 C15 1_555 1_555

#END
