
#######################################################################
#
#                 Cambridge Crystallographic Data Centre
#                                CCDC 
#
#######################################################################
#
# If this CIF has been generated from an entry in the Cambridge 
# Structural Database, then it will include bibliographic, chemical, 
# crystal, experimental, refinement or atomic coordinate data resulting 
# from the CCDC's data processing and validation procedures.
#
#######################################################################

data_LPYGLU02
_chemical_name_common            5-oxoproline
_chemical_formula_moiety         'C5 H7 N1 O3'
_chemical_name_systematic        'L-pyroglutamic acid'
_symmetry_cell_setting           orthorhombic
_symmetry_space_group_name_H-M   'P 21 21 21'
_symmetry_Int_Tables_number      19
_space_group_name_Hall           'P 2ac 2ab'
loop_
_symmetry_equiv_pos_site_id
_symmetry_equiv_pos_as_xyz
1 x,y,z
2 1/2-x,-y,1/2+z
3 1/2+x,1/2-y,-z
4 -x,1/2+y,1/2-z
_cell_length_a                   8.1865(3)
_cell_length_b                   14.3317(5)
_cell_length_c                   14.6585(5)
_cell_angle_alpha                90
_cell_angle_beta                 90
_cell_angle_gamma                90
_cell_volume                     1719.83
_exptl_crystal_colour            colorless
_exptl_crystal_description       rod
_cell_formula_units_Z            12
loop_
_atom_site_label
_atom_site_type_symbol
_atom_site_fract_x
_atom_site_fract_y
_atom_site_fract_z
C1 C 0.3255(2) 0.64635(13) 0.23306(12)
C2 C 0.3557(2) 0.62604(13) 0.33285(12)
H1 H 0.4485 0.5811 0.3394
C3 C 0.2029(2) 0.58749(14) 0.38168(12)
H2 H 0.1016 0.6097 0.3519
H3 H 0.2031 0.5184 0.3821
C4 C 0.2177(2) 0.62641(13) 0.47854(13)
H4 H 0.1089 0.6414 0.5040
H5 H 0.2730 0.5813 0.5193
C5 C 0.3186(2) 0.71311(12) 0.46697(12)
N1 N 0.38972(19) 0.71049(11) 0.38460(10)
H6 H 0.4516 0.7559 0.3637
O1 O 0.29935(17) 0.56921(9) 0.18664(9)
H7 H 0.2830 0.5824 0.1316
O2 O 0.3274(2) 0.72381(9) 0.20055(9)
O3 O 0.33864(19) 0.77796(9) 0.52173(9)
C6 C 0.2760(2) 0.26540(13) 0.23745(12)
C7 C 0.2788(2) 0.24826(12) 0.33909(12)
H8 H 0.3480 0.1923 0.3522
C8 C 0.1097(2) 0.23470(14) 0.38283(13)
H9 H 0.0247 0.2700 0.3493
H10 H 0.0789 0.1679 0.3844
C9 C 0.1332(2) 0.27341(13) 0.47913(13)
H11 H 0.0325 0.3044 0.5011
H12 H 0.1635 0.2232 0.5223
C10 C 0.2706(2) 0.34284(12) 0.46865(12)
N2 N 0.34354(18) 0.32796(10) 0.38824(10)
H13 H 0.4231 0.3632 0.3672
O4 O 0.19883(19) 0.19880(10) 0.19381(10)
H14 H 0.1993 0.2103 0.1376
O5 O 0.34265(16) 0.33089(9) 0.20088(9)
O6 O 0.31264(16) 0.40286(9) 0.52434(9)
C11 C 0.2444(2) 0.93840(12) 0.18716(12)
C12 C 0.2307(2) 0.91739(13) 0.28809(12)
H15 H 0.2345 0.8482 0.2969
C13 C 0.0790(2) 0.95599(15) 0.33707(13)
H16 H 0.0420 1.0152 0.3092
H17 H -0.0120 0.9105 0.3359
C14 C 0.1412(2) 0.97152(15) 0.43456(13)
H18 H 0.0858 1.0253 0.4635
H19 H 0.1241 0.9153 0.4726
C15 C 0.3210(2) 0.99081(13) 0.42117(13)
N3 N 0.36387(18) 0.95938(12) 0.33878(10)
H20 H 0.4639 0.9638 0.3172
O7 O 0.10323(16) 0.93514(10) 0.14568(9)
H21 H 0.1161 0.9472 0.0901
O8 O 0.37428(15) 0.95353(10) 0.14997(9)
O9 O 0.41552(17) 1.02869(11) 0.47557(9)
loop_
_geom_bond_atom_site_label_1
_geom_bond_atom_site_label_2
_geom_bond_site_symmetry_1
_geom_bond_site_symmetry_2
C1 C2 1_555 1_555
C2 H1 1_555 1_555
C3 C2 1_555 1_555
H2 C3 1_555 1_555
H3 C3 1_555 1_555
C4 C3 1_555 1_555
H4 C4 1_555 1_555
H5 C4 1_555 1_555
C5 C4 1_555 1_555
N1 C2 1_555 1_555
H6 N1 1_555 1_555
O1 C1 1_555 1_555
H7 O1 1_555 1_555
O2 C1 1_555 1_555
O3 C5 1_555 1_555
C6 C7 1_555 1_555
C7 H8 1_555 1_555
C8 C7 1_555 1_555
H9 C8 1_555 1_555
H10 C8 1_555 1_555
C9 C8 1_555 1_555
H11 C9 1_555 1_555
H12 C9 1_555 1_555
C10 C9 1_555 1_555
N2 C7 1_555 1_555
H13 N2 1_555 1_555
O4 C6 1_555 1_555
H14 O4 1_555 1_555
O5 C6 1_555 1_555
O6 C10 1_555 1_555
C11 C12 1_555 1_555
C12 H15 1_555 1_555
C13 C12 1_555 1_555
H16 C13 1_555 1_555
H17 C13 1_555 1_555
C14 C13 1_555 1_555
H18 C14 1_555 1_555
H19 C14 1_555 1_555
C15 C14 1_555 1_555
N3 C12 1_555 1_555
H20 N3 1_555 1_555
O7 C11 1_555 1_555
H21 O7 1_555 1_555
O8 C11 1_555 1_555
O9 C15 1_555 1_555
C5 N1 1_555 1_555
C10 N2 1_555 1_555
C15 N3 1_555 1_555

#END
