
#######################################################################
#
#                 Cambridge Crystallographic Data Centre
#                                CCDC 
#
#######################################################################
#
# If this CIF has been generated from an entry in the Cambridge 
# Structural Database, then it will include bibliographic, chemical, 
# crystal, experimental, refinement or atomic coordinate data resulting 
# from the CCDC's data processing and validation procedures.
#
#######################################################################

data_LUBBER
_chemical_formula_moiety         'C23 H18 N4'
_chemical_name_systematic        
5-(1-(1-methyl-1H-pyrrol-2-yl)-2-phenylpropan-2-yl)benzene-1,2,4-tricarbonitrile
_symmetry_cell_setting           triclinic
_symmetry_space_group_name_H-M   'P -1'
_symmetry_Int_Tables_number      2
_space_group_name_Hall           '-P 1'
loop_
_symmetry_equiv_pos_site_id
_symmetry_equiv_pos_as_xyz
1 x,y,z
2 -x,-y,-z
_cell_length_a                   7.943(2)
_cell_length_b                   10.527(3)
_cell_length_c                   11.702(4)
_cell_angle_alpha                84.179(4)
_cell_angle_beta                 86.210(4)
_cell_angle_gamma                79.569(4)
_cell_volume                     956.201
_cell_formula_units_Z            2
loop_
_atom_site_label
_atom_site_type_symbol
_atom_site_fract_x
_atom_site_fract_y
_atom_site_fract_z
C1 C 0.2626(3) 0.4425(2) 0.95085(18)
C2 C 0.2321(3) 0.3502(2) 1.04030(17)
C3 C 0.2660(3) 0.2206(2) 1.01958(18)
H1 H 0.2462 0.1577 1.0781
C4 C 0.3295(3) 0.1837(2) 0.91206(17)
C5 C 0.3647(2) 0.2754(2) 0.82085(16)
C6 C 0.3272(3) 0.4050(2) 0.84419(17)
H2 H 0.3462 0.4687 0.7861
C7 C 0.2202(3) 0.5776(3) 0.96775(19)
C8 C 0.1644(3) 0.3889(3) 1.1511(2)
C9 C 0.3609(3) 0.0466(3) 0.89950(18)
C10 C 0.4381(3) 0.23315(19) 0.70379(16)
C11 C 0.6099(3) 0.14140(19) 0.71768(16)
C12 C 0.7180(3) 0.1572(2) 0.80111(18)
H3 H 0.6818 0.2208 0.8514
C13 C 0.8781(3) 0.0813(2) 0.8117(2)
H4 H 0.9477 0.0934 0.8691
C14 C 0.9340(3) -0.0115(2) 0.7380(2)
H5 H 1.0420 -0.0626 0.7445
C15 C 0.8297(3) -0.0289(2) 0.6543(2)
H6 H 0.8674 -0.0920 0.6037
C16 C 0.6688(3) 0.0468(2) 0.6444(2)
H7 H 0.5993 0.0336 0.5874
C17 C 0.4681(3) 0.3538(2) 0.62104(16)
H8 H 0.3593 0.4123 0.6131
H9 H 0.5443 0.3987 0.6566
C18 C 0.5416(3) 0.3261(2) 0.50385(17)
C19 C 0.4631(3) 0.3025(2) 0.40952(18)
H10 H 0.3469 0.3007 0.4058
C20 C 0.5879(4) 0.2814(2) 0.3191(2)
H11 H 0.5700 0.2623 0.2455
C21 C 0.7390(4) 0.2942(2) 0.3596(2)
H12 H 0.8437 0.2860 0.3181
C22 C 0.8443(3) 0.3447(3) 0.5420(2)
H13 H 0.8032 0.4208 0.5814
H14 H 0.9437 0.3574 0.4939
H15 H 0.8740 0.2714 0.5973
C23 C 0.3030(3) 0.1697(2) 0.65225(18)
H16 H 0.2937 0.0889 0.6962
H17 H 0.3373 0.1541 0.5740
H18 H 0.1940 0.2266 0.6546
N1 N 0.1794(3) 0.6845(2) 0.98230(19)
N2 N 0.1076(3) 0.4217(2) 1.23733(18)
N3 N 0.3803(3) -0.0624(2) 0.89394(17)
N4 N 0.7119(3) 0.32139(17) 0.47191(15)
loop_
_geom_bond_atom_site_label_1
_geom_bond_atom_site_label_2
_geom_bond_site_symmetry_1
_geom_bond_site_symmetry_2
C1 C2 1_555 1_555
C2 C3 1_555 1_555
C3 H1 1_555 1_555
C4 C3 1_555 1_555
C5 C4 1_555 1_555
C6 C1 1_555 1_555
H2 C6 1_555 1_555
C7 C1 1_555 1_555
C8 C2 1_555 1_555
C9 C4 1_555 1_555
C10 C5 1_555 1_555
C11 C10 1_555 1_555
C12 C11 1_555 1_555
H3 C12 1_555 1_555
C13 C12 1_555 1_555
H4 C13 1_555 1_555
C14 C13 1_555 1_555
H5 C14 1_555 1_555
C15 C14 1_555 1_555
H6 C15 1_555 1_555
C16 C11 1_555 1_555
H7 C16 1_555 1_555
C17 C10 1_555 1_555
H8 C17 1_555 1_555
H9 C17 1_555 1_555
C18 C17 1_555 1_555
C19 C18 1_555 1_555
H10 C19 1_555 1_555
C20 C19 1_555 1_555
H11 C20 1_555 1_555
C21 C20 1_555 1_555
H12 C21 1_555 1_555
C22 H13 1_555 1_555
H14 C22 1_555 1_555
H15 C22 1_555 1_555
C23 C10 1_555 1_555
H16 C23 1_555 1_555
H17 C23 1_555 1_555
H18 C23 1_555 1_555
N1 C7 1_555 1_555
N2 C8 1_555 1_555
N3 C9 1_555 1_555
N4 C18 1_555 1_555
C5 C6 1_555 1_555
C15 C16 1_555 1_555
C21 N4 1_555 1_555
C22 N4 1_555 1_555

#END
