
#######################################################################
#
#                 Cambridge Crystallographic Data Centre
#                                CCDC 
#
#######################################################################
#
# If this CIF has been generated from an entry in the Cambridge 
# Structural Database, then it will include bibliographic, chemical, 
# crystal, experimental, refinement or atomic coordinate data resulting 
# from the CCDC's data processing and validation procedures.
#
#######################################################################

data_LUBQIK
_chemical_formula_moiety         'C28 H46 O4'
_chemical_name_systematic        
"1,1'-ethane-1,2-diylbis(6-hydroxy-5,5,8a-trimethyloctahydronaphthalen-2(1H)-one) unknown solvate"
_symmetry_cell_setting           orthorhombic
_symmetry_space_group_name_H-M   'P 21 21 2'
_symmetry_Int_Tables_number      18
_space_group_name_Hall           'P 2 2ab'
loop_
_symmetry_equiv_pos_site_id
_symmetry_equiv_pos_as_xyz
1 x,y,z
2 1/2+x,1/2-y,-z
3 1/2-x,1/2+y,-z
4 -x,-y,z
_cell_length_a                   16.567(6)
_cell_length_b                   11.653(4)
_cell_length_c                   15.467(5)
_cell_angle_alpha                90
_cell_angle_beta                 90
_cell_angle_gamma                90
_cell_volume                     2985.99
_exptl_crystal_colour            colorless
_exptl_crystal_description       block
_cell_formula_units_Z            4
loop_
_atom_site_label
_atom_site_type_symbol
_atom_site_fract_x
_atom_site_fract_y
_atom_site_fract_z
O1 O -0.8054(3) -0.2805(5) 0.2183(3)
H1 H -0.8229 -0.2172 0.2003
O2 O -0.4355(4) -0.2710(6) -0.0886(4)
C1 C -0.6748(4) -0.4157(6) 0.0476(4)
H2 H -0.6894 -0.4592 -0.0051
H3 H -0.6467 -0.4689 0.0874
C2 C -0.7521(4) -0.3728(6) 0.0911(4)
H4 H -0.7815 -0.3212 0.0511
H5 H -0.7876 -0.4387 0.1046
C3 C -0.7321(4) -0.3098(6) 0.1724(4)
H6 H -0.7002 -0.3628 0.2100
C4 C -0.6792(4) -0.1987(6) 0.1567(4)
C5 C -0.6012(4) -0.2426(6) 0.1057(4)
H7 H -0.5715 -0.2932 0.1471
C6 C -0.5432(5) -0.1440(7) 0.0843(5)
H8 H -0.5691 -0.0926 0.0415
H9 H -0.5331 -0.0987 0.1374
C7 C -0.4628(5) -0.1852(9) 0.0481(6)
H10 H -0.4330 -0.1184 0.0247
H11 H -0.4303 -0.2179 0.0958
C8 C -0.4712(4) -0.2742(5) -0.0222(5)
C9 C -0.5328(3) -0.3687(6) 0.0011(5)
H12 H -0.5125 -0.4100 0.0535
C10 C -0.6172(4) -0.3185(5) 0.0228(4)
C11 C -0.6520(5) -0.2469(9) -0.0564(5)
H13 H -0.6490 -0.2932 -0.1092
H14 H -0.6202 -0.1767 -0.0639
H15 H -0.7084 -0.2265 -0.0449
C12 C -0.5362(4) -0.4575(7) -0.0760(4)
H16 H -0.5871 -0.5017 -0.0721
H17 H -0.5368 -0.4149 -0.1314
C13 C -0.7289(5) -0.1076(8) 0.1118(5)
H18 H -0.7642 -0.1438 0.0688
H19 H -0.6929 -0.0530 0.0828
H20 H -0.7619 -0.0669 0.1545
C14 C -0.6538(5) -0.1549(8) 0.2454(5)
H21 H -0.7016 -0.1466 0.2822
H22 H -0.6271 -0.0803 0.2392
H23 H -0.6163 -0.2097 0.2719
O1C O -0.1946(3) -0.7195(5) 0.2183(3)
H1C H -0.1771 -0.7828 0.2003
O2C O -0.5645(4) -0.7290(6) -0.0886(4)
C1C C -0.3252(4) -0.5843(6) 0.0476(4)
H2C H -0.3106 -0.5408 -0.0051
H3C H -0.3533 -0.5311 0.0874
C2C C -0.2479(4) -0.6272(6) 0.0911(4)
H4C H -0.2185 -0.6788 0.0511
H5C H -0.2124 -0.5613 0.1046
C3C C -0.2679(4) -0.6902(6) 0.1724(4)
H6C H -0.2998 -0.6372 0.2100
C4C C -0.3208(4) -0.8013(6) 0.1567(4)
C5C C -0.3988(4) -0.7574(6) 0.1057(4)
H7C H -0.4285 -0.7068 0.1471
C6C C -0.4568(5) -0.8560(7) 0.0843(5)
H8C H -0.4309 -0.9074 0.0415
H9C H -0.4669 -0.9013 0.1374
C7C C -0.5372(5) -0.8148(9) 0.0481(6)
H10C H -0.5670 -0.8816 0.0247
H11C H -0.5697 -0.7821 0.0958
C8C C -0.5288(4) -0.7258(5) -0.0222(5)
C9C C -0.4672(3) -0.6313(6) 0.0011(5)
H12C H -0.4875 -0.5900 0.0535
C10C C -0.3828(4) -0.6815(5) 0.0228(4)
C11C C -0.3480(5) -0.7531(9) -0.0564(5)
H13C H -0.3510 -0.7068 -0.1092
H14C H -0.3798 -0.8233 -0.0639
H15C H -0.2916 -0.7735 -0.0449
C12C C -0.4638(4) -0.5425(7) -0.0760(4)
H16C H -0.4129 -0.4983 -0.0721
H17C H -0.4632 -0.5851 -0.1314
C13C C -0.2711(5) -0.8924(8) 0.1118(5)
H18C H -0.2358 -0.8562 0.0688
H19C H -0.3071 -0.9470 0.0828
H20C H -0.2381 -0.9331 0.1545
C14C C -0.3462(5) -0.8451(8) 0.2454(5)
H21C H -0.2984 -0.8534 0.2822
H22C H -0.3729 -0.9197 0.2392
H23C H -0.3837 -0.7903 0.2719
O3 O -1.2320(4) 0.3761(5) -0.6179(3)
H24 H -1.2144 0.3595 -0.6673
O4 O -1.0879(4) 0.1037(6) -0.1919(3)
C15 C -1.0793(5) 0.1986(9) -0.4921(5)
H25 H -1.0992 0.1239 -0.5137
H26 H -1.0195 0.1967 -0.4920
C16 C -1.1098(5) 0.2978(7) -0.5525(5)
H27 H -1.0911 0.3727 -0.5299
H28 H -1.0875 0.2876 -0.6113
C17 C -1.2010(5) 0.2961(8) -0.5560(5)
H29 H -1.2179 0.2176 -0.5749
C18 C -1.2412(5) 0.3197(7) -0.4697(5)
C19 C -1.2057(4) 0.2248(8) -0.4030(4)
H30 H -1.2248 0.1481 -0.4235
C20 C -1.2396(5) 0.2420(7) -0.3126(4)
H31 H -1.2989 0.2520 -0.3156
H32 H -1.2161 0.3119 -0.2864
C21 C -1.2190(4) 0.1359(6) -0.2561(5)
H33 H -1.2355 0.1507 -0.1955
H34 H -1.2495 0.0685 -0.2773
C22 C -1.1290(5) 0.1102(6) -0.2590(5)
C23 C -1.0950(5) 0.1042(6) -0.3486(5)
H35 H -1.1252 0.0424 -0.3797
C24 C -1.1106(4) 0.2194(7) -0.3997(4)
C25 C -1.0700(5) 0.3177(7) -0.3524(5)
H36 H -1.0119 0.3162 -0.3642
H37 H -1.0791 0.3096 -0.2901
H38 H -1.0927 0.3907 -0.3723
C26 C -1.0051(5) 0.0648(7) -0.3434(5)
H39 H -0.9753 0.0971 -0.3932
H40 H -0.9807 0.0963 -0.2900
C27 C -1.3335(5) 0.2934(8) -0.4794(6)
H41 H -1.3559 0.3397 -0.5266
H42 H -1.3613 0.3123 -0.4254
H43 H -1.3410 0.2118 -0.4925
C28 C -1.2312(5) 0.4444(7) -0.4421(5)
H44 H -1.1742 0.4664 -0.4468
H45 H -1.2490 0.4533 -0.3821
H46 H -1.2638 0.4938 -0.4797
O3C O -0.7680(4) -0.3761(5) -0.6179(3)
H24C H -0.7856 -0.3595 -0.6673
O4C O -0.9121(4) -0.1037(6) -0.1919(3)
C15C C -0.9207(5) -0.1986(9) -0.4921(5)
H25C H -0.9008 -0.1239 -0.5137
H26C H -0.9805 -0.1967 -0.4920
C16C C -0.8902(5) -0.2978(7) -0.5525(5)
H27C H -0.9089 -0.3727 -0.5299
H28C H -0.9125 -0.2876 -0.6113
C17C C -0.7990(5) -0.2961(8) -0.5560(5)
H29C H -0.7821 -0.2176 -0.5749
C18C C -0.7588(5) -0.3197(7) -0.4697(5)
C19C C -0.7943(4) -0.2248(8) -0.4030(4)
H30C H -0.7752 -0.1481 -0.4235
C20C C -0.7604(5) -0.2420(7) -0.3126(4)
H31C H -0.7011 -0.2520 -0.3156
H32C H -0.7839 -0.3119 -0.2864
C21C C -0.7810(4) -0.1359(6) -0.2561(5)
H33C H -0.7645 -0.1507 -0.1955
H34C H -0.7505 -0.0685 -0.2773
C22C C -0.8710(5) -0.1102(6) -0.2590(5)
C23C C -0.9050(5) -0.1042(6) -0.3486(5)
H35C H -0.8748 -0.0424 -0.3797
C24C C -0.8894(4) -0.2194(7) -0.3997(4)
C25C C -0.9300(5) -0.3177(7) -0.3524(5)
H36C H -0.9881 -0.3162 -0.3642
H37C H -0.9209 -0.3096 -0.2901
H38C H -0.9073 -0.3907 -0.3723
C26C C -0.9949(5) -0.0648(7) -0.3434(5)
H39C H -1.0247 -0.0971 -0.3932
H40C H -1.0193 -0.0963 -0.2900
C27C C -0.6665(5) -0.2934(8) -0.4794(6)
H41C H -0.6441 -0.3397 -0.5266
H42C H -0.6387 -0.3123 -0.4254
H43C H -0.6590 -0.2118 -0.4925
C28C C -0.7688(5) -0.4444(7) -0.4421(5)
H44C H -0.8258 -0.4664 -0.4468
H45C H -0.7510 -0.4533 -0.3821
H46C H -0.7362 -0.4938 -0.4797
loop_
_geom_bond_atom_site_label_1
_geom_bond_atom_site_label_2
_geom_bond_site_symmetry_1
_geom_bond_site_symmetry_2
O1 H1 1_555 1_555
O2 C8 1_555 1_555
C1 H2 1_555 1_555
H3 C1 1_555 1_555
C2 C1 1_555 1_555
H4 C2 1_555 1_555
H5 C2 1_555 1_555
C3 O1 1_555 1_555
H6 C3 1_555 1_555
C4 C3 1_555 1_555
C5 C4 1_555 1_555
H7 C5 1_555 1_555
C6 C5 1_555 1_555
H8 C6 1_555 1_555
H9 C6 1_555 1_555
C7 C6 1_555 1_555
H10 C7 1_555 1_555
H11 C7 1_555 1_555
C8 C7 1_555 1_555
C9 C8 1_555 1_555
H12 C9 1_555 1_555
C10 C1 1_555 1_555
C11 C10 1_555 1_555
H13 C11 1_555 1_555
H14 C11 1_555 1_555
H15 C11 1_555 1_555
C12 C9 1_555 1_555
H16 C12 1_555 1_555
H17 C12 1_555 1_555
C13 C4 1_555 1_555
H18 C13 1_555 1_555
H19 C13 1_555 1_555
H20 C13 1_555 1_555
C14 C4 1_555 1_555
H21 C14 1_555 1_555
H22 C14 1_555 1_555
H23 C14 1_555 1_555
O3 H24 1_555 1_555
O4 C22 1_555 1_555
C15 H25 1_555 1_555
H26 C15 1_555 1_555
C16 C15 1_555 1_555
H27 C16 1_555 1_555
H28 C16 1_555 1_555
C17 O3 1_555 1_555
H29 C17 1_555 1_555
C18 C17 1_555 1_555
C19 C18 1_555 1_555
H30 C19 1_555 1_555
C20 C19 1_555 1_555
H31 C20 1_555 1_555
H32 C20 1_555 1_555
C21 C20 1_555 1_555
H33 C21 1_555 1_555
H34 C21 1_555 1_555
C22 C21 1_555 1_555
C23 C22 1_555 1_555
H35 C23 1_555 1_555
C24 C15 1_555 1_555
C25 C24 1_555 1_555
H36 C25 1_555 1_555
H37 C25 1_555 1_555
H38 C25 1_555 1_555
C26 C23 1_555 1_555
H39 C26 1_555 1_555
H40 C26 1_555 1_555
C27 C18 1_555 1_555
H41 C27 1_555 1_555
H42 C27 1_555 1_555
H43 C27 1_555 1_555
C28 C18 1_555 1_555
H44 C28 1_555 1_555
H45 C28 1_555 1_555
H46 C28 1_555 1_555
O1C H1C 1_555 1_555
O2C C8C 1_555 1_555
C1C H2C 1_555 1_555
H3C C1C 1_555 1_555
C2C C1C 1_555 1_555
H4C C2C 1_555 1_555
H5C C2C 1_555 1_555
C3C O1C 1_555 1_555
H6C C3C 1_555 1_555
C4C C3C 1_555 1_555
C5C C4C 1_555 1_555
H7C C5C 1_555 1_555
C6C C5C 1_555 1_555
H8C C6C 1_555 1_555
H9C C6C 1_555 1_555
C7C C6C 1_555 1_555
H10C C7C 1_555 1_555
H11C C7C 1_555 1_555
C8C C7C 1_555 1_555
C9C C8C 1_555 1_555
H12C C9C 1_555 1_555
C10C C1C 1_555 1_555
C11C C10C 1_555 1_555
H13C C11C 1_555 1_555
H14C C11C 1_555 1_555
H15C C11C 1_555 1_555
C12C C12 1_555 1_555
H16C C12C 1_555 1_555
H17C C12C 1_555 1_555
C13C C4C 1_555 1_555
H18C C13C 1_555 1_555
H19C C13C 1_555 1_555
H20C C13C 1_555 1_555
C14C C4C 1_555 1_555
H21C C14C 1_555 1_555
H22C C14C 1_555 1_555
H23C C14C 1_555 1_555
O3C H24C 1_555 1_555
O4C C22C 1_555 1_555
C15C H25C 1_555 1_555
H26C C15C 1_555 1_555
C16C C15C 1_555 1_555
H27C C16C 1_555 1_555
H28C C16C 1_555 1_555
C17C O3C 1_555 1_555
H29C C17C 1_555 1_555
C18C C17C 1_555 1_555
C19C C18C 1_555 1_555
H30C C19C 1_555 1_555
C20C C19C 1_555 1_555
H31C C20C 1_555 1_555
H32C C20C 1_555 1_555
C21C C20C 1_555 1_555
H33C C21C 1_555 1_555
H34C C21C 1_555 1_555
C22C C21C 1_555 1_555
C23C C22C 1_555 1_555
H35C C23C 1_555 1_555
C24C C15C 1_555 1_555
C25C C24C 1_555 1_555
H36C C25C 1_555 1_555
H37C C25C 1_555 1_555
H38C C25C 1_555 1_555
C26C C26 1_555 1_555
H39C C26C 1_555 1_555
H40C C26C 1_555 1_555
C27C C18C 1_555 1_555
H41C C27C 1_555 1_555
H42C C27C 1_555 1_555
H43C C27C 1_555 1_555
C28C C18C 1_555 1_555
H44C C28C 1_555 1_555
H45C C28C 1_555 1_555
H46C C28C 1_555 1_555
C2 C3 1_555 1_555
C5 C10 1_555 1_555
C9 C10 1_555 1_555
C16 C17 1_555 1_555
C19 C24 1_555 1_555
C23 C24 1_555 1_555
C2C C3C 1_555 1_555
C5C C10C 1_555 1_555
C9C C10C 1_555 1_555
C9C C12C 1_555 1_555
C16C C17C 1_555 1_555
C19C C24C 1_555 1_555
C23C C24C 1_555 1_555
C23C C26C 1_555 1_555

#END
