
#######################################################################
#
#                 Cambridge Crystallographic Data Centre
#                                CCDC 
#
#######################################################################
#
# If this CIF has been generated from an entry in the Cambridge 
# Structural Database, then it will include bibliographic, chemical, 
# crystal, experimental, refinement or atomic coordinate data resulting 
# from the CCDC's data processing and validation procedures.
#
#######################################################################

data_LUCBES
_chemical_formula_moiety         'C20 H19 F1 N2 O6'
_chemical_name_systematic        
'ethyl 2-(5-(1,3-dioxo-1,3,4,5,6,7-hexahydro-2H-isoindol-2-yl)-6-fluoro-2-oxo-1,3-benzoxazol-3(2H)-yl)propanoate'
_symmetry_cell_setting           triclinic
_symmetry_space_group_name_H-M   'P -1'
_symmetry_Int_Tables_number      2
_space_group_name_Hall           '-P 1'
loop_
_symmetry_equiv_pos_site_id
_symmetry_equiv_pos_as_xyz
1 x,y,z
2 -x,-y,-z
_cell_length_a                   9.5410(19)
_cell_length_b                   12.480(3)
_cell_length_c                   16.716(3)
_cell_angle_alpha                77.10(3)
_cell_angle_beta                 80.33(3)
_cell_angle_gamma                77.44(3)
_cell_volume                     1878.76
_exptl_crystal_colour            colorless
_exptl_crystal_description       rod
_cell_formula_units_Z            4
_exptl_crystal_recrystallization_method dichloromethane/ethanol
loop_
_atom_site_label
_atom_site_type_symbol
_atom_site_fract_x
_atom_site_fract_y
_atom_site_fract_z
F1 F 0.3954(2) 0.6068(2) 0.33279(16)
O1 O 0.2379(3) 0.7578(2) 0.18626(17)
O2 O -0.0612(3) 0.7248(2) 0.43065(16)
O3 O 0.2471(3) 0.2496(2) 0.40002(15)
O4 O 0.0873(3) 0.1308(2) 0.42588(19)
O5 O -0.0988(3) 0.4023(3) 0.24946(16)
O6 O -0.3167(3) 0.3607(3) 0.3003(2)
N1 N 0.0157(3) 0.3237(2) 0.38631(18)
N2 N 0.1113(3) 0.7096(2) 0.31584(18)
C1 C 0.0596(4) 1.0009(3) 0.1875(2)
H1 H 0.0227 0.9940 0.1386
H2 H 0.1579 1.0140 0.1714
C2 C -0.0345(5) 1.1000(4) 0.2226(3)
H3 H -0.0596 1.1616 0.1774
H4 H 0.0205 1.1248 0.2565
C3 C -0.1739(5) 1.0694(3) 0.2750(3)
H5 H -0.2332 1.1354 0.2930
H6 H -0.2285 1.0436 0.2414
C4 C -0.1402(5) 0.9778(3) 0.3507(2)
H7 H -0.1041 1.0075 0.3904
H8 H -0.2271 0.9496 0.3771
C5 C -0.0282(4) 0.8861(3) 0.3214(2)
C6 C 0.0594(4) 0.8952(3) 0.2503(2)
C7 C 0.1486(4) 0.7847(3) 0.2428(2)
C8 C -0.0013(4) 0.7676(3) 0.3659(2)
C9 C 0.1540(4) 0.5911(3) 0.3331(2)
C10 C 0.0475(4) 0.5258(3) 0.3450(2)
H9 H -0.0480 0.5579 0.3372
C11 C 0.0903(3) 0.4121(3) 0.3688(2)
C12 C 0.2341(4) 0.3642(3) 0.3774(2)
C13 C 0.3415(4) 0.4254(3) 0.3639(2)
H10 H 0.4379 0.3924 0.3684
C14 C 0.2962(4) 0.5401(3) 0.3429(2)
C15 C 0.1106(4) 0.2247(3) 0.4065(2)
C16 C -0.1380(4) 0.3271(3) 0.3921(2)
H11 H -0.1544 0.2506 0.4141
C17 C -0.2262(4) 0.4002(4) 0.4524(3)
H12 H -0.1914 0.3751 0.5053
H13 H -0.3263 0.3947 0.4582
H14 H -0.2162 0.4767 0.4314
C18 C -0.1954(4) 0.3650(3) 0.3087(2)
C19 C -0.1494(6) 0.4519(4) 0.1692(3)
H15 H -0.2358 0.5086 0.1755
H16 H -0.1723 0.3950 0.1451
C20 C -0.0326(7) 0.5023(5) 0.1161(3)
H17 H -0.0646 0.5397 0.0637
H18 H 0.0503 0.4448 0.1075
H19 H -0.0071 0.5553 0.1421
F2 F 0.8926(2) 0.8092(2) 0.13381(15)
O7 O 0.4314(3) 0.9811(2) 0.17129(16)
O8 O 0.7396(3) 0.6656(2) 0.27775(17)
O9 O 0.7608(3) 0.7760(2) -0.12314(15)
O10 O 0.6077(3) 0.7723(3) -0.21254(16)
O11 O 0.1892(3) 0.6848(3) -0.0199(2)
O12 O 0.4042(3) 0.6289(2) 0.02810(16)
N3 N 0.5272(3) 0.7834(3) -0.07491(18)
N4 N 0.6067(3) 0.8216(2) 0.20230(17)
C21 C 0.3585(5) 0.9631(3) 0.3629(2)
H20 H 0.2693 0.9843 0.3379
H21 H 0.3915 1.0308 0.3645
C22 C 0.3325(5) 0.8957(4) 0.4503(3)
H22 H 0.2771 0.9454 0.4862
H23 H 0.2756 0.8403 0.4497
C23 C 0.4726(5) 0.8369(4) 0.4851(3)
H24 H 0.4498 0.7981 0.5414
H25 H 0.5283 0.8926 0.4869
C24 C 0.5651(4) 0.7531(4) 0.4347(2)
H26 H 0.6642 0.7374 0.4469
H27 H 0.5288 0.6835 0.4493
C25 C 0.5603(4) 0.8004(3) 0.3446(2)
C26 C 0.4702(4) 0.8929(3) 0.3132(2)
C27 C 0.4937(4) 0.9091(3) 0.2219(2)
C28 C 0.6486(4) 0.7503(3) 0.2753(2)
C29 C 0.6532(4) 0.8049(3) 0.1198(2)
C30 C 0.5501(4) 0.7983(3) 0.0719(2)
H28 H 0.4538 0.7990 0.0940
C31 C 0.5972(4) 0.7907(3) -0.0100(2)
C32 C 0.7412(4) 0.7855(3) -0.0410(2)
C33 C 0.8459(4) 0.7886(3) 0.0047(2)
H29 H 0.9429 0.7833 -0.0171
C34 C 0.7971(4) 0.8000(3) 0.0860(2)
C35 C 0.6257(4) 0.7773(3) -0.1447(2)
C36 C 0.3733(4) 0.7931(3) -0.0759(2)
H30 H 0.3591 0.7930 -0.1326
C37 C 0.2852(5) 0.9038(4) -0.0539(3)
H31 H 0.2897 0.9040 0.0030
H32 H 0.1862 0.9110 -0.0623
H33 H 0.3246 0.9653 -0.0886
C38 C 0.3111(4) 0.6963(3) -0.0200(2)
C39 C 0.3510(4) 0.5390(3) 0.0895(2)
H34 H 0.3357 0.4817 0.0629
H35 H 0.2602 0.5678 0.1202
C40 C 0.4647(5) 0.4921(4) 0.1460(3)
H36 H 0.5544 0.4655 0.1146
H37 H 0.4354 0.4312 0.1871
H38 H 0.4772 0.5494 0.1727
loop_
_geom_bond_atom_site_label_1
_geom_bond_atom_site_label_2
_geom_bond_site_symmetry_1
_geom_bond_site_symmetry_2
F1 C14 1_555 1_555
O1 C7 1_555 1_555
O2 C8 1_555 1_555
O3 C12 1_555 1_555
O4 C15 1_555 1_555
O5 C18 1_555 1_555
O6 C18 1_555 1_555
N1 C11 1_555 1_555
N2 C7 1_555 1_555
C1 H1 1_555 1_555
H2 C1 1_555 1_555
C2 C1 1_555 1_555
H3 C2 1_555 1_555
H4 C2 1_555 1_555
C3 C2 1_555 1_555
H5 C3 1_555 1_555
H6 C3 1_555 1_555
C4 C3 1_555 1_555
H7 C4 1_555 1_555
H8 C4 1_555 1_555
C5 C4 1_555 1_555
C6 C1 1_555 1_555
C7 C6 1_555 1_555
C8 N2 1_555 1_555
C9 N2 1_555 1_555
C10 C9 1_555 1_555
H9 C10 1_555 1_555
C11 C10 1_555 1_555
C12 C11 1_555 1_555
C13 C12 1_555 1_555
H10 C13 1_555 1_555
C14 C9 1_555 1_555
C15 O3 1_555 1_555
C16 N1 1_555 1_555
H11 C16 1_555 1_555
C17 C16 1_555 1_555
H12 C17 1_555 1_555
H13 C17 1_555 1_555
H14 C17 1_555 1_555
C18 C16 1_555 1_555
C19 O5 1_555 1_555
H15 C19 1_555 1_555
H16 C19 1_555 1_555
C20 C19 1_555 1_555
H17 C20 1_555 1_555
H18 C20 1_555 1_555
H19 C20 1_555 1_555
F2 C34 1_555 1_555
O7 C27 1_555 1_555
O8 C28 1_555 1_555
O9 C32 1_555 1_555
O10 C35 1_555 1_555
O11 C38 1_555 1_555
O12 C38 1_555 1_555
N3 C31 1_555 1_555
N4 C27 1_555 1_555
C21 H20 1_555 1_555
H21 C21 1_555 1_555
C22 C21 1_555 1_555
H22 C22 1_555 1_555
H23 C22 1_555 1_555
C23 C22 1_555 1_555
H24 C23 1_555 1_555
H25 C23 1_555 1_555
C24 C23 1_555 1_555
H26 C24 1_555 1_555
H27 C24 1_555 1_555
C25 C24 1_555 1_555
C26 C21 1_555 1_555
C27 C26 1_555 1_555
C28 N4 1_555 1_555
C29 N4 1_555 1_555
C30 C29 1_555 1_555
H28 C30 1_555 1_555
C31 C30 1_555 1_555
C32 C31 1_555 1_555
C33 C32 1_555 1_555
H29 C33 1_555 1_555
C34 C29 1_555 1_555
C35 O9 1_555 1_555
C36 N3 1_555 1_555
H30 C36 1_555 1_555
C37 C36 1_555 1_555
H31 C37 1_555 1_555
H32 C37 1_555 1_555
H33 C37 1_555 1_555
C38 C36 1_555 1_555
C39 O12 1_555 1_555
H34 C39 1_555 1_555
H35 C39 1_555 1_555
C40 C39 1_555 1_555
H36 C40 1_555 1_555
H37 C40 1_555 1_555
H38 C40 1_555 1_555
N1 C15 1_555 1_555
C5 C6 1_555 1_555
C5 C8 1_555 1_555
C13 C14 1_555 1_555
N3 C35 1_555 1_555
C25 C26 1_555 1_555
C25 C28 1_555 1_555
C33 C34 1_555 1_555

#END
