
#######################################################################
#
#                 Cambridge Crystallographic Data Centre
#                                CCDC 
#
#######################################################################
#
# If this CIF has been generated from an entry in the Cambridge 
# Structural Database, then it will include bibliographic, chemical, 
# crystal, experimental, refinement or atomic coordinate data resulting 
# from the CCDC's data processing and validation procedures.
#
#######################################################################

data_LUCBIW
_chemical_formula_moiety         'C34 H36 O6'
_chemical_name_systematic        
(1R,2S,3R,4R,5R,6R)-3,4,5,6-tetrakis(benzyloxy)cyclohexane-1,2-diol
_symmetry_cell_setting           monoclinic
_symmetry_space_group_name_H-M   'P 21'
_symmetry_Int_Tables_number      4
_space_group_name_Hall           'P 2yb'
loop_
_symmetry_equiv_pos_site_id
_symmetry_equiv_pos_as_xyz
1 x,y,z
2 -x,1/2+y,-z
_cell_length_a                   11.3487(9)
_cell_length_b                   7.9412(6)
_cell_length_c                   16.2792(13)
_cell_angle_alpha                90
_cell_angle_beta                 99.4718(19)
_cell_angle_gamma                90
_cell_volume                     1447.12
_exptl_crystal_colour            colorless
_exptl_crystal_description       block
_cell_formula_units_Z            2
_exptl_crystal_recrystallization_method 'ethyl acetate/hexane'
loop_
_atom_site_label
_atom_site_type_symbol
_atom_site_fract_x
_atom_site_fract_y
_atom_site_fract_z
O1 O 1.0320(2) 0.3730(3) 0.50783(13)
O2 O 0.8106(2) 0.3080(3) 0.40592(13)
O3 O 0.8021(2) 0.1196(3) 0.25705(14)
O4 O 0.9035(2) 0.3458(3) 0.16045(13)
O5 O 1.12170(19) 0.3952(3) 0.27592(12)
O6 O 0.9141(3) 0.6058(3) 0.39068(14)
C1 C 1.0242(3) 0.3408(5) 0.42148(18)
C2 C 0.9175(3) 0.2292(5) 0.3866(2)
C3 C 0.9080(3) 0.2066(5) 0.2924(2)
C4 C 0.9049(3) 0.3746(5) 0.24694(18)
C5 C 1.0136(3) 0.4809(5) 0.2838(2)
C6 C 1.0168(3) 0.5089(5) 0.3771(2)
C7 C 0.7300(4) 0.2005(5) 0.4421(2)
C8 C 0.6808(4) 0.2926(5) 0.51008(19)
C9 C 0.7493(4) 0.4055(6) 0.56311(19)
C10 C 0.7064(5) 0.4808(6) 0.6285(3)
C11 C 0.5926(5) 0.4433(6) 0.6424(3)
C12 C 0.5224(4) 0.3310(5) 0.5893(3)
C13 C 0.5655(4) 0.2570(5) 0.5238(2)
C14 C 0.8052(3) -0.0588(5) 0.2645(2)
C15 C 0.7177(3) -0.1286(5) 0.19246(19)
C16 C 0.6346(3) -0.2516(5) 0.2026(2)
C17 C 0.5578(4) -0.3175(5) 0.1348(3)
C18 C 0.5632(4) -0.2565(5) 0.0560(3)
C19 C 0.6441(4) -0.1326(5) 0.0446(2)
C20 C 0.7215(4) -0.0680(5) 0.11257(19)
C21 C 0.8365(6) 0.4686(8) 0.1090(3)
C22 C 0.8493(4) 0.4393(6) 0.0200(2)
C23 C 0.9388(4) 0.5169(6) -0.0165(3)
C24 C 0.9449(4) 0.4898(6) -0.0992(3)
C25 C 0.8626(4) 0.3910(6) -0.1461(3)
C26 C 0.7730(4) 0.3163(6) -0.1119(3)
C27 C 0.7675(4) 0.3414(6) -0.0294(3)
C28 C 1.1633(4) 0.4075(7) 0.1975(3)
C29 C 1.2953(4) 0.3611(6) 0.2121(3)
C30 C 1.3469(5) 0.2479(6) 0.1646(3)
C31 C 1.4708(5) 0.2166(6) 0.1815(3)
C32 C 1.5383(4) 0.2996(6) 0.2475(3)
C33 C 1.4840(4) 0.4074(6) 0.2953(3)
C34 C 1.3653(5) 0.4386(6) 0.2773(3)
H1 H 1.0991 0.2827 0.4122
H2 H 1.0512 0.2842 0.5347
H3 H 0.9274 0.1164 0.4141
H4 H 0.9787 0.1409 0.2809
H5 H 0.8305 0.4363 0.2542
H6 H 1.0108 0.5919 0.2546
H7 H 0.8589 0.5402 0.3984
H8 H 1.0903 0.5748 0.3990
H9 H 0.7730 0.0983 0.4653
H10 H 0.6634 0.1650 0.3983
H11 H 0.8279 0.4315 0.5540
H12 H 0.7548 0.5579 0.6638
H13 H 0.5623 0.4934 0.6876
H14 H 0.4439 0.3054 0.5985
H15 H 0.5165 0.1816 0.4879
H16 H 0.7822 -0.0935 0.3181
H17 H 0.8867 -0.1012 0.2624
H18 H 0.6300 -0.2917 0.2569
H19 H 0.5023 -0.4033 0.1426
H20 H 0.5108 -0.3002 0.0093
H21 H 0.6471 -0.0912 -0.0098
H22 H 0.7769 0.0176 0.1045
H23 H 0.8657 0.5827 0.1265
H24 H 0.7512 0.4612 0.1150
H25 H 0.9954 0.5885 0.0159
H26 H 1.0068 0.5404 -0.1235
H27 H 0.8670 0.3733 -0.2032
H28 H 0.7153 0.2477 -0.1451
H29 H 0.7054 0.2896 -0.0059
H30 H 1.1523 0.5236 0.1755
H31 H 1.1178 0.3297 0.1566
H32 H 1.2986 0.1904 0.1201
H33 H 1.5070 0.1403 0.1482
H34 H 1.6221 0.2820 0.2597
H35 H 1.5305 0.4612 0.3418
H36 H 1.3301 0.5159 0.3107
loop_
_geom_bond_atom_site_label_1
_geom_bond_atom_site_label_2
_geom_bond_site_symmetry_1
_geom_bond_site_symmetry_2
O1 C1 1_555 1_555
O2 C2 1_555 1_555
O3 C3 1_555 1_555
O4 C4 1_555 1_555
O5 C5 1_555 1_555
O6 C6 1_555 1_555
C1 C2 1_555 1_555
C2 C3 1_555 1_555
C3 C4 1_555 1_555
C4 C5 1_555 1_555
C5 C6 1_555 1_555
C6 C1 1_555 1_555
C7 O2 1_555 1_555
C8 C7 1_555 1_555
C9 C8 1_555 1_555
C10 C9 1_555 1_555
C11 C10 1_555 1_555
C12 C11 1_555 1_555
C13 C8 1_555 1_555
C14 O3 1_555 1_555
C15 C14 1_555 1_555
C16 C15 1_555 1_555
C17 C16 1_555 1_555
C18 C17 1_555 1_555
C19 C18 1_555 1_555
C20 C15 1_555 1_555
C21 O4 1_555 1_555
C22 C21 1_555 1_555
C23 C22 1_555 1_555
C24 C23 1_555 1_555
C25 C24 1_555 1_555
C26 C25 1_555 1_555
C27 C22 1_555 1_555
C28 O5 1_555 1_555
C29 C28 1_555 1_555
C30 C29 1_555 1_555
C31 C30 1_555 1_555
C32 C31 1_555 1_555
C33 C32 1_555 1_555
C34 C29 1_555 1_555
H1 C1 1_555 1_555
H2 O1 1_555 1_555
H3 C2 1_555 1_555
H4 C3 1_555 1_555
H5 C4 1_555 1_555
H6 C5 1_555 1_555
H7 O6 1_555 1_555
H8 C6 1_555 1_555
H9 C7 1_555 1_555
H10 C7 1_555 1_555
H11 C9 1_555 1_555
H12 C10 1_555 1_555
H13 C11 1_555 1_555
H14 C12 1_555 1_555
H15 C13 1_555 1_555
H16 C14 1_555 1_555
H17 C14 1_555 1_555
H18 C16 1_555 1_555
H19 C17 1_555 1_555
H20 C18 1_555 1_555
H21 C19 1_555 1_555
H22 C20 1_555 1_555
H23 C21 1_555 1_555
H24 C21 1_555 1_555
H25 C23 1_555 1_555
H26 C24 1_555 1_555
H27 C25 1_555 1_555
H28 C26 1_555 1_555
H29 C27 1_555 1_555
H30 C28 1_555 1_555
H31 C28 1_555 1_555
H32 C30 1_555 1_555
H33 C31 1_555 1_555
H34 C32 1_555 1_555
H35 C33 1_555 1_555
H36 C34 1_555 1_555
C12 C13 1_555 1_555
C19 C20 1_555 1_555
C26 C27 1_555 1_555
C33 C34 1_555 1_555

#END
