
#######################################################################
#
#                 Cambridge Crystallographic Data Centre
#                                CCDC 
#
#######################################################################
#
# If this CIF has been generated from an entry in the Cambridge 
# Structural Database, then it will include bibliographic, chemical, 
# crystal, experimental, refinement or atomic coordinate data resulting 
# from the CCDC's data processing and validation procedures.
#
#######################################################################

data_LUCJOK
_chemical_name_common            
"N,N'-bis(4-(Heptaisobutyloctasilsesquioxanyl)phenyl)-1,6,7,12-tetrakis(4-t-butylphenoxy)perylene-3,4:9,10-bis(dicarboxamide) chloroform solvate"
_chemical_formula_moiety         'C132 H190 N2 O32 Si16,3(C1 H1 Cl3)'
_chemical_name_systematic        
"N,N'-bis(4-(3,5,7,9,11,13,15-Heptaisobutylpentacyclo[9.5.1.1^3, 9^.1^5,15^.1^7, 13^]octasiloxan-1-yl)phenyl)-5,6,12,13-tetrakis(4-t-butylphenoxy)isoquinolino[4',5',6':6,5,10]anthra[2,1,9-def]isoquinoline-1,3,8,10(2H,9H)-tetrone chloroform solvate"
_symmetry_cell_setting           triclinic
_symmetry_space_group_name_H-M   'P -1'
_symmetry_Int_Tables_number      2
_space_group_name_Hall           '-P 1'
loop_
_symmetry_equiv_pos_site_id
_symmetry_equiv_pos_as_xyz
1 x,y,z
2 -x,-y,-z
_cell_length_a                   15.310(8)
_cell_length_b                   15.323(9)
_cell_length_c                   37.78(2)
_cell_angle_alpha                100.751(10)
_cell_angle_beta                 95.049(11)
_cell_angle_gamma                102.622(10)
_cell_volume                     8420
_exptl_crystal_colour            red
_exptl_crystal_description       plate
_cell_formula_units_Z            2
loop_
_atom_site_label
_atom_site_type_symbol
_atom_site_fract_x
_atom_site_fract_y
_atom_site_fract_z
Si1 Si 0.8325(3) 0.1045(4) 0.31717(12)
Si2 Si 0.6183(3) 0.5039(4) -0.24677(13)
Si3 Si 0.4466(3) 0.5067(4) -0.29385(12)
Si4 Si 0.7182(4) 0.6875(4) -0.26056(19)
Si5 Si 0.7200(4) -0.0743(4) 0.33444(13)
Si6 Si 0.9162(4) 0.2231(5) 0.43475(14)
Si7 Si 0.7597(4) 0.2231(4) 0.37868(13)
Si8 Si 0.8031(5) 0.0450(6) 0.45265(15)
Si9 Si 0.9925(4) 0.1073(5) 0.37366(18)
Si10 Si 0.6484(4) 0.0429(5) 0.39610(15)
Si11 Si 0.7848(4) 0.5951(7) -0.3266(2)
Si12 Si 0.5456(4) 0.6919(4) -0.3112(2)
Si13 Si 0.8773(5) -0.0738(5) 0.39164(19)
Si14 Si 0.6110(5) 0.5828(5) -0.3783(2)
Si15 Si 0.6893(4) 0.4058(5) -0.3144(2)
Si16 Si 0.5163(5) 0.4034(6) -0.36094(18)
O1 O 0.6817(7) 0.6037(8) -0.2434(3)
O2 O 0.7560(6) 0.0384(7) 0.0042(2)
O3 O 0.6094(6) 0.0698(7) -0.0244(2)
O4 O 0.8382(7) 0.3457(7) 0.1945(3)
O5 O 0.9005(6) 0.5142(7) 0.0470(2)
C1 C 0.7765(9) 0.2640(11) 0.0645(4)
N1 N 0.8262(7) 0.1964(9) 0.1675(3)
O6 O 0.4702(7) 0.6097(7) -0.3012(3)
O7 O 0.5935(6) 0.2412(7) -0.1264(3)
C2 C 0.7963(9) 0.2370(11) 0.0983(4)
N2 N 0.6805(8) 0.3857(8) -0.1032(3)
C3 C 0.7409(9) 0.3085(10) -0.0053(4)
O8 O 0.7640(6) 0.5278(7) -0.0798(3)
O9 O 0.6361(9) 0.7107(10) -0.2833(4)
O10 O 0.7681(7) 0.0010(7) 0.3137(2)
O11 O 0.8221(6) 0.0483(7) 0.1399(2)
C4 C 0.6550(9) 0.1546(10) -0.0298(4)
O12 O 0.5156(7) 0.5025(8) -0.2587(3)
C5 C 0.5855(10) -0.0073(11) -0.0534(4)
C6 C 0.7464(9) 0.1913(10) 0.0331(4)
C7 C 0.7877(9) 0.3546(11) 0.0628(4)
C8 C 0.7130(9) 0.2124(10) -0.0003(4)
C9 C 0.7205(9) 0.3324(10) -0.0374(4)
C10 C 0.7890(9) 0.3762(10) 0.0264(4)
O13 O 0.8427(7) 0.2476(9) 0.4105(3)
C11 C 0.7981(9) 0.1486(11) 0.1000(4)
O14 O 0.6582(8) -0.0321(8) 0.3611(3)
O15 O 0.7920(10) -0.1065(10) 0.3599(3)
C12 C 0.6254(9) -0.2362(10) -0.0004(4)
C13 C 0.7605(9) 0.1016(10) 0.0356(4)
O16 O 0.4649(8) 0.4365(9) -0.3286(3)
C14 C 0.7579(9) 0.4227(10) -0.0411(4)
O17 O 0.9322(8) 0.1110(9) 0.3376(3)
C15 C 0.6327(9) 0.1798(10) -0.0609(4)
H1 H 0.5957 0.1347 -0.0803
C16 C 0.8113(9) 0.3127(11) 0.1305(4)
C17 C 0.8320(10) 0.4593(10) 0.0205(4)
C18 C 0.8296(9) 0.2822(11) 0.1652(4)
O18 O 0.7902(8) 0.1735(8) 0.3413(3)
C19 C 0.7357(10) 0.4527(12) -0.0769(4)
C20 C 0.8139(9) 0.1255(11) 0.1363(4)
O19 O 0.8739(10) 0.1474(9) 0.4549(3)
C21 C 0.6404(10) 0.2932(11) -0.1014(4)
O20 O 0.7800(6) 0.5034(7) 0.0911(2)
C22 C 0.6395(10) -0.0192(10) -0.0804(4)
H2 H 0.6943 0.0246 -0.0801
O21 O 0.8486(9) -0.0268(10) 0.4318(4)
C23 C 0.7380(9) -0.1224(10) -0.0169(4)
H3 H 0.7874 -0.1066 -0.0299
C24 C 0.6617(9) 0.2716(10) -0.0663(4)
C25 C 0.7828(9) 0.0822(11) 0.0694(4)
H4 H 0.7872 0.0222 0.0710
O22 O 0.7595(8) 0.4924(11) -0.3265(4)
O23 O 0.5522(9) 0.4838(13) -0.3798(3)
O24 O 0.6537(7) 0.4367(8) -0.2763(3)
C26 C 0.8072(9) 0.3949(11) 0.1282(4)
H5 H 0.8139 0.4410 0.1495
O25 O 0.6003(9) 0.3674(10) -0.3434(4)
O26 O 0.9741(9) 0.1828(7) 0.4105(4)
C27 C 0.7935(9) 0.4144(11) 0.0953(4)
C28 C 0.8184(9) 0.4859(10) -0.0141(4)
H6 H 0.8493 0.5436 -0.0180
C29 C 0.5086(10) -0.0694(10) -0.0518(4)
H7 H 0.4714 -0.0575 -0.0335
C30 C 0.6463(9) -0.0760(10) 0.0243(4)
H8 H 0.6281 -0.0294 0.0401
O27 O 0.6750(8) 0.1522(10) 0.3880(3)
C31 C 0.6116(10) -0.0977(10) -0.1083(4)
H9 H 0.6458 -0.1042 -0.1280
C32 C 0.5790(5) 0.4315(7) -0.1477(2)
H10 H 0.5329 0.4251 -0.1324
C33 C 0.6622(6) 0.4152(7) -0.1371(2)
C34 C 0.7296(5) 0.4245(7) -0.1594(2)
H11 H 0.7864 0.4133 -0.1522
C35 C 0.7138(5) 0.4501(7) -0.1924(2)
H12 H 0.7598 0.4565 -0.2076
C36 C 0.6306(6) 0.4664(7) -0.2030(2)
C37 C 0.5632(5) 0.4571(7) -0.1806(2)
H13 H 0.5063 0.4683 -0.1878
O28 O 0.9577(9) 0.0025(10) 0.3799(4)
O29 O 0.7124(10) 0.0341(10) 0.4294(3)
C38 C 0.9234(10) 0.6100(11) 0.0480(4)
O30 O 0.7772(10) 0.6598(11) -0.2878(5)
C39 C 0.5787(10) -0.3349(10) -0.0029(4)
C40 C 1.0429(10) 0.7446(10) 0.0579(4)
H14 H 1.1058 0.7720 0.0606
C41 C 0.8350(6) 0.1262(7) 0.27010(19)
C42 C 0.7529(5) 0.1123(6) 0.2485(2)
H15 H 0.6981 0.0872 0.2569
C43 C 0.7508(5) 0.1351(7) 0.2145(2)
H16 H 0.6947 0.1257 0.1997
C44 C 0.8309(6) 0.1719(7) 0.20224(19)
C45 C 0.9130(5) 0.1858(6) 0.2239(2)
H17 H 0.9678 0.2109 0.2155
C46 C 0.9151(5) 0.1629(7) 0.2578(2)
H18 H 0.9712 0.1724 0.2726
C47 C 0.4855(10) -0.1512(11) -0.0778(4)
H19 H 0.4357 -0.1977 -0.0752
C48 C 0.9851(10) 0.8008(11) 0.0595(4)
C49 C 1.0165(10) 0.6510(10) 0.0526(4)
H20 H 1.0598 0.6150 0.0521
C50 C 0.8621(10) 0.7308(11) 0.1747(4)
C51 C 0.7121(10) -0.0531(10) 0.0059(4)
C52 C 0.8621(10) 0.6647(10) 0.0480(4)
H21 H 0.7993 0.6364 0.0436
O31 O 0.7158(11) 0.6001(11) -0.3610(4)
C53 C 0.8084(10) 0.5790(11) 0.1207(4)
C54 C 0.8889(9) 0.7577(10) 0.0541(4)
H22 H 0.8456 0.7938 0.0548
C55 C 0.5840(10) -0.3575(11) 0.0360(4)
H23 H 0.6472 -0.3505 0.0456
H24 H 0.5503 -0.4207 0.0345
H25 H 0.5577 -0.3155 0.0522
C56 C 0.9027(10) 0.6106(10) 0.1333(4)
H26 H 0.9445 0.5793 0.1229
C57 C 0.8943(10) 0.8153(11) 0.2054(4)
C58 C 0.6131(10) -0.4012(10) -0.0273(4)
H27 H 0.5932 -0.4004 -0.0525
H28 H 0.5900 -0.4625 -0.0228
H29 H 0.6793 -0.3853 -0.0228
C59 C 0.6946(9) -0.2130(10) -0.0212(4)
H30 H 0.7113 -0.2588 -0.0380
C60 C 0.7762(10) 0.6982(10) 0.1619(4)
H31 H 0.7338 0.7302 0.1714
C61 C 0.6011(9) -0.1678(10) 0.0215(4)
H32 H 0.5529 -0.1820 0.0353
C62 C 1.1134(10) 0.9422(11) 0.0746(4)
H33 H 1.1366 0.9258 0.0968
H34 H 1.1267 1.0090 0.0779
H35 H 1.1423 0.9170 0.0542
C63 C 0.9312(10) 0.6850(10) 0.1599(4)
H36 H 0.9934 0.7079 0.1691
C64 C 0.7450(10) 0.6195(10) 0.1354(4)
H37 H 0.6823 0.5946 0.1276
C65 C 1.0094(10) 0.9024(11) 0.0662(4)
C66 C 0.7252(16) 0.3298(10) 0.3738(5)
H38 H 0.7558 0.3536 0.3543
H39 H 0.6595 0.3136 0.3655
C67 C 0.4793(9) -0.3491(11) -0.0151(4)
H40 H 0.4548 -0.3061 0.0014
H41 H 0.4479 -0.4119 -0.0149
H42 H 0.4705 -0.3384 -0.0398
C68 C 0.6587(9) -0.1838(9) 0.3015(4)
H43 H 0.7031 -0.2110 0.2886
H44 H 0.6283 -0.2280 0.3153
C69 C 0.5334(10) -0.1680(11) -0.1082(4)
C70 C 0.8677(13) 0.0543(14) 0.5271(4)
H45 H 0.9133 0.1132 0.5290
C71 C 0.5878(10) -0.1682(10) 0.2733(4)
H46 H 0.6057 -0.1133 0.2625
C72 C 0.7817(13) 0.034(2) 0.4999(3)
H47 H 0.7444 0.0767 0.5088
H48 H 0.7465 -0.0288 0.4991
C73 C 0.3278(9) 0.4682(19) -0.2872(8)
H49 H 0.2879 0.4679 -0.3093
H50 H 0.3164 0.4051 -0.2830
C74 C 0.9023(9) 0.6305(15) -0.3380(6)
H51 H 0.9053 0.6768 -0.3533
H52 H 0.9454 0.6574 -0.3155
O32 O 0.5806(10) 0.6557(11) -0.3564(4)
C75 C 0.4583(11) -0.3376(10) -0.1263(5)
H53 H 0.5057 -0.3526 -0.1110
H54 H 0.4347 -0.3881 -0.1473
H55 H 0.4093 -0.3280 -0.1121
C76 C 0.976(2) 0.3251(16) 0.4698(8)
H56 H 1.0170 0.3675 0.4585
H57 H 0.9308 0.3573 0.4799
C77 C 0.9755(11) 0.9416(12) 0.1015(4)
H58 H 0.9896 0.9089 0.1204
H59 H 0.9100 0.9342 0.0971
H60 H 1.0052 1.0068 0.1096
C78 C 0.4979(9) -0.2497(10) -0.1394(4)
C79 C 0.307(2) 0.533(2) -0.2542(8)
H61 H 0.3631 0.5630 -0.2371
C80 C 0.5647(11) -0.2636(13) -0.1663(4)
H62 H 0.5926 -0.2048 -0.1719
H63 H 0.5329 -0.3062 -0.1886
H64 H 0.6117 -0.2889 -0.1555
C81 C 0.9976(11) 0.8523(12) 0.2124(5)
H65 H 1.0192 0.8566 0.2380
H66 H 1.0134 0.9131 0.2066
H67 H 1.0259 0.8107 0.1969
C82 C 0.9676(12) 0.9398(12) 0.0379(5)
H68 H 0.9873 0.9179 0.0145
H69 H 0.9859 1.0068 0.0442
H70 H 0.9017 0.9197 0.0359
C83 C 0.4219(14) 0.326(2) -0.3941(8)
H71 H 0.3695 0.3135 -0.3806
H72 H 0.4060 0.3616 -0.4120
C84 C 0.8431(12) 0.8903(12) 0.1957(5)
H73 H 0.8544 0.9011 0.1716
H74 H 0.8655 0.9476 0.2138
H75 H 0.7780 0.8681 0.1958
C85 C 1.0257(11) 0.5817(17) -0.3622(6)
H76 H 1.0359 0.6464 -0.3635
H77 H 1.0412 0.5471 -0.3844
H78 H 1.0638 0.5757 -0.3410
C86 C 0.5448(13) 0.8677(15) -0.2784(6)
H79 H 0.6107 0.8856 -0.2690
C87 C 0.3549(19) 0.222(2) -0.4487(7)
H80 H 0.3651 0.1781 -0.4694
H81 H 0.3582 0.2813 -0.4555
H82 H 0.2951 0.1997 -0.4419
C88 C 0.911(2) -0.1801(13) 0.3969(6)
H83 H 0.9480 -0.1680 0.4210
H84 H 0.8558 -0.2274 0.3971
C89 C 0.497(2) 0.9435(11) -0.2848(6)
H85 H 0.4325 0.9164 -0.2927
H86 H 0.5235 0.9730 -0.3035
H87 H 0.5048 0.9891 -0.2621
C90 C 1.1098(13) 0.1247(18) 0.3663(5)
H88 H 1.1266 0.1819 0.3573
H89 H 1.1469 0.1343 0.3902
C91 C 0.5301(9) 0.032(2) 0.4052(7)
H90 H 0.4946 0.0221 0.3809
H91 H 0.5136 -0.0262 0.4133
C92 C 1.1004(13) 0.0362(17) 0.3073(5)
H92 H 1.0376 0.0010 0.3040
H93 H 1.1362 0.0002 0.2932
H94 H 1.1030 0.0933 0.2988
C93 C 0.4880(16) 0.0992(16) 0.4305(7)
H95 H 0.4685 0.1495 0.4209
C94 C 0.984(2) -0.3010(17) 0.3843(7)
H96 H 1.0496 -0.2923 0.3903
H97 H 0.9597 -0.3586 0.3666
H98 H 0.9555 -0.3030 0.4064
C95 C 0.236(2) 0.461(2) -0.2347(8)
H99 H 0.2246 0.4951 -0.2116
H100 H 0.2642 0.4120 -0.2302
H101 H 0.1793 0.4353 -0.2510
C96 C 0.478(2) 0.8180(17) -0.2559(6)
H102 H 0.4574 0.8633 -0.2389
H103 H 0.5086 0.7821 -0.2423
H104 H 0.4260 0.7771 -0.2723
C97 C 0.7939(17) 0.837(2) -0.1982(9)
H105 H 0.7369 0.8549 -0.1924
C98 C 0.801(2) 0.7937(17) -0.2379(7)
H106 H 0.8617 0.7817 -0.2385
H107 H 0.7970 0.8400 -0.2527
C99 C 1.2407(10) 0.0910(19) 0.3443(6)
H108 H 1.2539 0.1268 0.3256
H109 H 1.2680 0.0384 0.3400
H110 H 1.2656 0.1294 0.3683
C100 C 1.1337(18) 0.056(2) 0.3424(7)
H111 H 1.1206 -0.0019 0.3519
C101 C 0.2685(19) 0.606(2) -0.2693(8)
H112 H 0.3035 0.6250 -0.2882
H113 H 0.2727 0.6586 -0.2496
H114 H 0.2051 0.5797 -0.2797
C102 C 0.8816(15) 0.542(2) -0.3973(5)
H115 H 0.8342 0.5757 -0.3956
H116 H 0.8550 0.4782 -0.4099
H117 H 0.9274 0.5701 -0.4110
C103 C 0.5128(19) 0.7996(11) -0.3157(5)
H118 H 0.5420 0.8251 -0.3351
H119 H 0.4465 0.7879 -0.3219
C104 C 0.7006(17) 0.4770(10) 0.3930(6)
H120 H 0.7103 0.4753 0.3676
H121 H 0.7276 0.5386 0.4076
H122 H 0.6356 0.4612 0.3945
C105 C 0.8292(15) 0.0346(18) 0.5618(3)
H123 H 0.7786 0.0636 0.5654
H124 H 0.8764 0.0594 0.5827
H125 H 0.8079 -0.0316 0.5594
C106 C 0.7450(12) 0.4077(12) 0.4077(5)
H126 H 0.8089 0.4301 0.4199
C107 C 0.6732(17) 0.3693(14) 0.4304(5)
H127 H 0.6217 0.3272 0.4142
H128 H 0.6530 0.4198 0.4446
H129 H 0.6993 0.3366 0.4469
C108 C 0.598(4) 0.634(4) -0.4184(9)
H130 H 0.5318 0.6290 -0.4222
H131 H 0.6250 0.6998 -0.4083
C109 C 0.9259(13) 0.5440(13) -0.3589(6)
H132 H 0.9100 0.4870 -0.3491
C110 C 0.9651(16) -0.2206(14) 0.3680(6)
H133 H 1.0169 -0.1782 0.3609
C111 C 0.8971(17) -0.0365(19) 0.5150(6)
H134 H 0.8748 -0.0791 0.5304
H135 H 0.9632 -0.0238 0.5174
H136 H 0.8720 -0.0638 0.4895
C112 C 0.8652(12) 0.7982(12) 0.2390(5)
H137 H 0.8162 0.7426 0.2341
H138 H 0.8435 0.8502 0.2511
H139 H 0.9159 0.7901 0.2547
C113 C 0.4125(11) -0.2352(13) -0.1613(5)
H140 H 0.3698 -0.2205 -0.1445
H141 H 0.3835 -0.2914 -0.1793
H142 H 0.4305 -0.1848 -0.1737
C114 C 0.5593(11) -0.2611(11) 0.2471(3)
H143 H 0.5911 -0.2590 0.2258
H144 H 0.4940 -0.2760 0.2394
H145 H 0.5745 -0.3080 0.2593
C115 C 0.5065(10) -0.1728(14) 0.2947(4)
H146 H 0.5079 -0.2160 0.3108
H147 H 0.4503 -0.1933 0.2776
H148 H 0.5094 -0.1120 0.3093
C116 C 1.077(2) 0.398(2) 0.5228(7)
H149 H 1.1073 0.4333 0.5064
H150 H 1.1223 0.3945 0.5424
H151 H 1.0320 0.4272 0.5333
C117 C 0.5595(18) 0.125(2) 0.4644(7)
H152 H 0.5663 0.0689 0.4723
H153 H 0.5401 0.1648 0.4840
H154 H 0.6174 0.1565 0.4585
C118 C 1.110(2) 0.279(3) 0.4809(10)
H155 H 1.1338 0.2327 0.4907
H156 H 1.1572 0.3349 0.4842
H157 H 1.0877 0.2553 0.4549
C119 C 1.030(2) 0.2993(18) 0.5012(8)
H158 H 0.9988 0.2536 0.5145
C120 C 0.4158(15) 0.027(2) 0.4429(8)
H159 H 0.4454 -0.0010 0.4603
H160 H 0.3844 -0.0204 0.4218
H161 H 0.3720 0.0568 0.4545
C121 C 0.884(3) 0.9122(17) -0.1905(8)
H162 H 0.9330 0.8850 -0.1989
H163 H 0.8982 0.9381 -0.1644
H164 H 0.8780 0.9607 -0.2035
C122 C 0.826(3) 0.766(2) -0.1790(9)
H165 H 0.7967 0.7624 -0.1572
H166 H 0.8918 0.7854 -0.1722
H167 H 0.8103 0.7061 -0.1956
C123 C 0.738(2) 0.3105(16) -0.3050(8)
H168 H 0.7901 0.3371 -0.2856
H169 H 0.6922 0.2699 -0.2946
C124 C 0.770(2) 0.249(2) -0.3360(7)
H170 H 0.7958 0.2771 -0.3560
C125 C 0.686(2) 0.169(2) -0.3456(9)
H171 H 0.6739 0.1458 -0.3720
H172 H 0.6336 0.1893 -0.3371
H173 H 0.6962 0.1193 -0.3338
C126 C 0.8309(19) 0.207(2) -0.3124(10)
H174 H 0.8507 0.2476 -0.2884
H175 H 0.8838 0.1987 -0.3243
H176 H 0.7962 0.1472 -0.3095
C127 C 0.886(2) -0.274(2) 0.3384(6)
H177 H 0.8330 -0.2962 0.3499
H178 H 0.9031 -0.3256 0.3237
H179 H 0.8716 -0.2330 0.3228
C128 C 0.428(2) 0.2335(18) -0.4160(8)
H180 H 0.4264 0.1816 -0.4033
C129 C 0.709(4) 0.699(4) -0.451(2)
H181 H 0.7037 0.7422 -0.4664
H182 H 0.7604 0.6720 -0.4563
H183 H 0.7199 0.7310 -0.4252
C130 C 0.621(3) 0.622(4) -0.4576(7)
H184 H 0.5738 0.6199 -0.4779
C131 C 0.5133(18) 0.266(3) -0.4342(10)
H185 H 0.5608 0.3077 -0.4158
H186 H 0.4977 0.2983 -0.4530
H187 H 0.5350 0.2131 -0.4451
C132 C 0.664(6) 0.539(3) -0.4585(9)
H188 H 0.6511 0.5126 -0.4372
H189 H 0.7292 0.5588 -0.4582
H190 H 0.6377 0.4926 -0.4807
Cl1 Cl 0.4166(3) 0.0079(3) -0.12636(14)
Cl2 Cl 0.4135(4) 0.0996(5) -0.18503(13)
Cl3 Cl 0.3621(4) 0.1733(4) -0.11808(16)
C133 C 0.3568(9) 0.0711(7) -0.1492(3)
H191 H 0.2928 0.0364 -0.1580
Cl4 Cl 0.8068(4) 0.2063(5) -0.14589(16)
Cl5 Cl 0.7417(5) 0.1664(7) -0.22077(16)
Cl6 Cl 0.6683(6) 0.0505(6) -0.1759(3)
C134 C 0.7106(8) 0.1635(9) -0.1779(3)
H192 H 0.6646 0.1999 -0.1728
Cl7 Cl 0.9564(12) 0.7148(11) -0.0320(3)
Cl8 Cl 0.9570(10) 0.7840(8) -0.0950(3)
Cl9 Cl 0.9776(9) 0.6060(8) -0.0957(3)
C135 C 0.9169(10) 0.6851(9) -0.0787(4)
H193 H 0.8499 0.6610 -0.0843
loop_
_geom_bond_atom_site_label_1
_geom_bond_atom_site_label_2
_geom_bond_site_symmetry_1
_geom_bond_site_symmetry_2
Si1 O10 1_555 1_555
Si2 O1 1_555 1_555
Si3 O6 1_555 1_555
Si4 O1 1_555 1_555
Si5 O10 1_555 1_555
Si6 O13 1_555 1_555
Si7 O13 1_555 1_555
Si8 O19 1_555 1_555
Si9 O17 1_555 1_555
Si10 O14 1_555 1_555
Si11 O22 1_555 1_555
Si12 O6 1_555 1_555
Si13 O15 1_555 1_555
Si14 O23 1_555 1_555
Si15 O22 1_555 1_555
Si16 O16 1_555 1_555
O2 C13 1_555 1_555
O3 C4 1_555 1_555
O4 C18 1_555 1_555
O5 C17 1_555 1_555
C1 C2 1_555 1_555
N1 C18 1_555 1_555
O7 C21 1_555 1_555
C2 C11 1_555 1_555
N2 C19 1_555 1_555
C3 C8 1_555 1_555
O8 C19 1_555 1_555
O9 Si4 1_555 1_555
O11 C20 1_555 1_555
C4 C8 1_555 1_555
O12 Si2 1_555 1_555
C5 O3 1_555 1_555
C6 C1 1_555 1_555
C7 C1 1_555 1_555
C8 C6 1_555 1_555
C9 C3 1_555 1_555
C10 C3 1_555 1_555
C11 C20 1_555 1_555
O14 Si5 1_555 1_555
O15 Si5 1_555 1_555
C12 C39 1_555 1_555
C13 C6 1_555 1_555
O16 Si3 1_555 1_555
C14 C9 1_555 1_555
O17 Si1 1_555 1_555
C15 C4 1_555 1_555
H1 C15 1_555 1_555
C16 C2 1_555 1_555
C17 C10 1_555 1_555
C18 C16 1_555 1_555
O18 Si1 1_555 1_555
C19 C14 1_555 1_555
C20 N1 1_555 1_555
O19 Si6 1_555 1_555
C21 N2 1_555 1_555
O20 C27 1_555 1_555
C22 C5 1_555 1_555
H2 C22 1_555 1_555
O21 Si8 1_555 1_555
C23 H3 1_555 1_555
C24 C9 1_555 1_555
C25 C11 1_555 1_555
H4 C25 1_555 1_555
O23 Si16 1_555 1_555
O24 Si2 1_555 1_555
C26 C16 1_555 1_555
H5 C26 1_555 1_555
O25 Si15 1_555 1_555
O26 Si6 1_555 1_555
C27 C7 1_555 1_555
C28 C14 1_555 1_555
H6 C28 1_555 1_555
C29 C5 1_555 1_555
H7 C29 1_555 1_555
C30 H8 1_555 1_555
O27 Si7 1_555 1_555
C31 C22 1_555 1_555
H9 C31 1_555 1_555
C32 H10 1_555 1_555
C33 N2 1_555 1_555
C34 C33 1_555 1_555
H11 C34 1_555 1_555
C35 C34 1_555 1_555
H12 C35 1_555 1_555
C36 Si2 1_555 1_555
C37 C32 1_555 1_555
H13 C37 1_555 1_555
O28 Si9 1_555 1_555
O29 Si8 1_555 1_555
C38 O5 1_555 1_555
O30 Si4 1_555 1_555
C39 C55 1_555 1_555
C40 H14 1_555 1_555
C41 Si1 1_555 1_555
C42 C41 1_555 1_555
H15 C42 1_555 1_555
C43 C42 1_555 1_555
H16 C43 1_555 1_555
C44 N1 1_555 1_555
C45 C44 1_555 1_555
H17 C45 1_555 1_555
C46 C41 1_555 1_555
H18 C46 1_555 1_555
C47 C29 1_555 1_555
H19 C47 1_555 1_555
C48 C40 1_555 1_555
C49 C38 1_555 1_555
H20 C49 1_555 1_555
C50 C57 1_555 1_555
C51 O2 1_555 1_555
C52 C38 1_555 1_555
H21 C52 1_555 1_555
O31 Si11 1_555 1_555
C53 O20 1_555 1_555
C54 C48 1_555 1_555
H22 C54 1_555 1_555
C55 H23 1_555 1_555
H24 C55 1_555 1_555
H25 C55 1_555 1_555
C56 C53 1_555 1_555
H26 C56 1_555 1_555
C57 C81 1_555 1_555
C58 C39 1_555 1_555
H27 C58 1_555 1_555
H28 C58 1_555 1_555
H29 C58 1_555 1_555
C59 C12 1_555 1_555
H30 C59 1_555 1_555
C60 C50 1_555 1_555
H31 C60 1_555 1_555
C61 C12 1_555 1_555
H32 C61 1_555 1_555
C62 H33 1_555 1_555
H34 C62 1_555 1_555
H35 C62 1_555 1_555
C63 C50 1_555 1_555
H36 C63 1_555 1_555
C64 C53 1_555 1_555
H37 C64 1_555 1_555
C65 C48 1_555 1_555
C66 Si7 1_555 1_555
H38 C66 1_555 1_555
H39 C66 1_555 1_555
C67 C39 1_555 1_555
H40 C67 1_555 1_555
H41 C67 1_555 1_555
H42 C67 1_555 1_555
C68 Si5 1_555 1_555
H43 C68 1_555 1_555
H44 C68 1_555 1_555
C69 C31 1_555 1_555
C70 H45 1_555 1_555
C71 C68 1_555 1_555
H46 C71 1_555 1_555
C72 Si8 1_555 1_555
H47 C72 1_555 1_555
H48 C72 1_555 1_555
C73 Si3 1_555 1_555
H49 C73 1_555 1_555
H50 C73 1_555 1_555
C74 Si11 1_555 1_555
H51 C74 1_555 1_555
H52 C74 1_555 1_555
O32 Si12 1_555 1_555
C75 H53 1_555 1_555
H54 C75 1_555 1_555
H55 C75 1_555 1_555
C76 Si6 1_555 1_555
H56 C76 1_555 1_555
H57 C76 1_555 1_555
C77 C65 1_555 1_555
H58 C77 1_555 1_555
H59 C77 1_555 1_555
H60 C77 1_555 1_555
C78 C69 1_555 1_555
C79 C73 1_555 1_555
H61 C79 1_555 1_555
C80 C78 1_555 1_555
H62 C80 1_555 1_555
H63 C80 1_555 1_555
H64 C80 1_555 1_555
C81 H65 1_555 1_555
H66 C81 1_555 1_555
H67 C81 1_555 1_555
C82 C65 1_555 1_555
H68 C82 1_555 1_555
H69 C82 1_555 1_555
H70 C82 1_555 1_555
C83 Si16 1_555 1_555
H71 C83 1_555 1_555
H72 C83 1_555 1_555
C84 C57 1_555 1_555
H73 C84 1_555 1_555
H74 C84 1_555 1_555
H75 C84 1_555 1_555
C85 H76 1_555 1_555
H77 C85 1_555 1_555
H78 C85 1_555 1_555
C86 H79 1_555 1_555
C87 H80 1_555 1_555
H81 C87 1_555 1_555
H82 C87 1_555 1_555
C88 Si13 1_555 1_555
H83 C88 1_555 1_555
H84 C88 1_555 1_555
C89 C86 1_555 1_555
H85 C89 1_555 1_555
H86 C89 1_555 1_555
H87 C89 1_555 1_555
C90 Si9 1_555 1_555
H88 C90 1_555 1_555
H89 C90 1_555 1_555
C91 Si10 1_555 1_555
H90 C91 1_555 1_555
H91 C91 1_555 1_555
C92 H92 1_555 1_555
H93 C92 1_555 1_555
H94 C92 1_555 1_555
C93 C91 1_555 1_555
H95 C93 1_555 1_555
C94 H96 1_555 1_555
H97 C94 1_555 1_555
H98 C94 1_555 1_555
C95 C79 1_555 1_555
H99 C95 1_555 1_555
H100 C95 1_555 1_555
H101 C95 1_555 1_555
C96 C86 1_555 1_555
H102 C96 1_555 1_555
H103 C96 1_555 1_555
H104 C96 1_555 1_555
C97 H105 1_555 1_555
C98 Si4 1_555 1_555
H106 C98 1_555 1_555
H107 C98 1_555 1_555
C99 H108 1_555 1_555
H109 C99 1_555 1_555
H110 C99 1_555 1_555
C100 C90 1_555 1_555
H111 C100 1_555 1_555
C101 C79 1_555 1_555
H112 C101 1_555 1_555
H113 C101 1_555 1_555
H114 C101 1_555 1_555
C102 H115 1_555 1_555
H116 C102 1_555 1_555
H117 C102 1_555 1_555
C103 Si12 1_555 1_555
H118 C103 1_555 1_555
H119 C103 1_555 1_555
C104 H120 1_555 1_555
H121 C104 1_555 1_555
H122 C104 1_555 1_555
C105 C70 1_555 1_555
H123 C105 1_555 1_555
H124 C105 1_555 1_555
H125 C105 1_555 1_555
C106 C66 1_555 1_555
H126 C106 1_555 1_555
C107 C106 1_555 1_555
H127 C107 1_555 1_555
H128 C107 1_555 1_555
H129 C107 1_555 1_555
C108 Si14 1_555 1_555
H130 C108 1_555 1_555
H131 C108 1_555 1_555
C109 C74 1_555 1_555
H132 C109 1_555 1_555
C110 C88 1_555 1_555
H133 C110 1_555 1_555
C111 C70 1_555 1_555
H134 C111 1_555 1_555
H135 C111 1_555 1_555
H136 C111 1_555 1_555
C112 C57 1_555 1_555
H137 C112 1_555 1_555
H138 C112 1_555 1_555
H139 C112 1_555 1_555
C113 C78 1_555 1_555
H140 C113 1_555 1_555
H141 C113 1_555 1_555
H142 C113 1_555 1_555
C114 C71 1_555 1_555
H143 C114 1_555 1_555
H144 C114 1_555 1_555
H145 C114 1_555 1_555
C115 C71 1_555 1_555
H146 C115 1_555 1_555
H147 C115 1_555 1_555
H148 C115 1_555 1_555
C116 H149 1_555 1_555
H150 C116 1_555 1_555
H151 C116 1_555 1_555
C117 C93 1_555 1_555
H152 C117 1_555 1_555
H153 C117 1_555 1_555
H154 C117 1_555 1_555
C118 H155 1_555 1_555
H156 C118 1_555 1_555
H157 C118 1_555 1_555
C119 C76 1_555 1_555
H158 C119 1_555 1_555
C120 C93 1_555 1_555
H159 C120 1_555 1_555
H160 C120 1_555 1_555
H161 C120 1_555 1_555
C121 C97 1_555 1_555
H162 C121 1_555 1_555
H163 C121 1_555 1_555
H164 C121 1_555 1_555
C122 C97 1_555 1_555
H165 C122 1_555 1_555
H166 C122 1_555 1_555
H167 C122 1_555 1_555
C123 Si15 1_555 1_555
H168 C123 1_555 1_555
H169 C123 1_555 1_555
C124 C123 1_555 1_555
H170 C124 1_555 1_555
C125 C124 1_555 1_555
H171 C125 1_555 1_555
H172 C125 1_555 1_555
H173 C125 1_555 1_555
C126 C124 1_555 1_555
H174 C126 1_555 1_555
H175 C126 1_555 1_555
H176 C126 1_555 1_555
C127 C110 1_555 1_555
H177 C127 1_555 1_555
H178 C127 1_555 1_555
H179 C127 1_555 1_555
C128 C83 1_555 1_555
H180 C128 1_555 1_555
C129 H181 1_555 1_555
H182 C129 1_555 1_555
H183 C129 1_555 1_555
C130 C108 1_555 1_555
H184 C130 1_555 1_555
C131 C128 1_555 1_555
H185 C131 1_555 1_555
H186 C131 1_555 1_555
H187 C131 1_555 1_555
C132 C130 1_555 1_555
H188 C132 1_555 1_555
H189 C132 1_555 1_555
H190 C132 1_555 1_555
Cl1 C133 1_555 1_555
Cl2 C133 1_555 1_555
Cl3 C133 1_555 1_555
C133 H191 1_555 1_555
Cl4 C134 1_555 1_555
Cl5 C134 1_555 1_555
Cl6 C134 1_555 1_555
C134 H192 1_555 1_555
Cl7 C135 1_555 1_555
Cl8 C135 1_555 1_555
Cl9 C135 1_555 1_555
C135 H193 1_555 1_555
Si3 O12 1_555 1_555
Si7 O18 1_555 1_555
Si9 O26 1_555 1_555
Si10 O27 1_555 1_555
Si10 O29 1_555 1_555
Si11 O30 1_555 1_555
Si12 O9 1_555 1_555
Si13 O21 1_555 1_555
Si13 O28 1_555 1_555
Si14 O31 1_555 1_555
Si14 O32 1_555 1_555
Si15 O24 1_555 1_555
Si16 O25 1_555 1_555
C7 C10 1_555 1_555
C13 C25 1_555 1_555
C15 C24 1_555 1_555
C17 C28 1_555 1_555
C21 C24 1_555 1_555
C23 C51 1_555 1_555
C23 C59 1_555 1_555
C26 C27 1_555 1_555
C30 C51 1_555 1_555
C30 C61 1_555 1_555
C32 C33 1_555 1_555
C35 C36 1_555 1_555
C36 C37 1_555 1_555
C40 C49 1_555 1_555
C43 C44 1_555 1_555
C45 C46 1_555 1_555
C47 C69 1_555 1_555
C52 C54 1_555 1_555
C56 C63 1_555 1_555
C60 C64 1_555 1_555
C62 C65 1_555 1_555
C70 C72 1_555 1_555
C75 C78 1_555 1_555
C85 C109 1_555 1_555
C86 C103 1_555 1_555
C87 C128 1_555 1_555
C92 C100 1_555 1_555
C94 C110 1_555 1_555
C97 C98 1_555 1_555
C99 C100 1_555 1_555
C102 C109 1_555 1_555
C104 C106 1_555 1_555
C116 C119 1_555 1_555
C118 C119 1_555 1_555
C129 C130 1_555 1_555

#END
