
#######################################################################
#
#                 Cambridge Crystallographic Data Centre
#                                CCDC 
#
#######################################################################
#
# If this CIF has been generated from an entry in the Cambridge 
# Structural Database, then it will include bibliographic, chemical, 
# crystal, experimental, refinement or atomic coordinate data resulting 
# from the CCDC's data processing and validation procedures.
#
#######################################################################

data_LUCMON
_chemical_formula_moiety         'C15 H13 N1 O1'
_chemical_name_systematic        
2-(1H-pyrrol-2-ylmethylene)-3,4-dihydronaphthalen-1(2H)-one
_symmetry_cell_setting           monoclinic
_symmetry_space_group_name_H-M   'P 21/c'
_symmetry_Int_Tables_number      14
_space_group_name_Hall           '-P 2ybc'
loop_
_symmetry_equiv_pos_site_id
_symmetry_equiv_pos_as_xyz
1 x,y,z
2 -x,1/2+y,1/2-z
3 -x,-y,-z
4 x,1/2-y,1/2+z
_cell_length_a                   8.3504(6)
_cell_length_b                   15.7770(11)
_cell_length_c                   8.8718(6)
_cell_angle_alpha                90
_cell_angle_beta                 104.976(2)
_cell_angle_gamma                90
_cell_volume                     1129.11
_exptl_crystal_colour            yellow
_exptl_crystal_description       cube
_cell_formula_units_Z            4
loop_
_atom_site_label
_atom_site_type_symbol
_atom_site_fract_x
_atom_site_fract_y
_atom_site_fract_z
O1 O 0.69332(15) 0.05029(8) -0.15653(14)
N1 N 0.51466(18) 0.07520(9) 0.32838(17)
H1 H 0.4654 0.0304 0.2841
C1 C 0.4866(2) 0.11200(11) 0.4564(2)
H2 H 0.4121 0.0932 0.5109
C2 C 0.6336(2) 0.11975(10) 0.2787(2)
C3 C 0.6769(2) 0.09395(10) 0.1393(2)
H3 H 0.6042 0.0560 0.0761
C4 C 0.8087(2) 0.11724(10) 0.0873(2)
C5 C 0.9493(2) 0.17221(11) 0.1765(2)
H4 H 0.9537 0.1700 0.2868
H5 H 0.9289 0.2305 0.1421
C6 C 1.1148(2) 0.14345(11) 0.1526(2)
H6 H 1.1987 0.1852 0.1977
H7 H 1.1463 0.0904 0.2076
C7 C 1.1110(2) 0.13131(10) -0.0163(2)
C8 C 1.2507(2) 0.14607(11) -0.0705(2)
H8 H 1.3467 0.1668 -0.0023
C9 C 1.2489(3) 0.13032(12) -0.2243(2)
H9 H 1.3436 0.1402 -0.2584
C10 C 0.9660(2) 0.10125(10) -0.1215(2)
C11 C 0.8133(2) 0.08620(10) -0.0691(2)
C12 C 0.9651(2) 0.08575(11) -0.2768(2)
H10 H 0.8692 0.0658 -0.3462
C13 C 1.1060(2) 0.09978(12) -0.3283(2)
H11 H 1.1051 0.0889 -0.4315
C14 C 0.6794(2) 0.18741(11) 0.3819(2)
H12 H 0.7576 0.2287 0.3778
C15 C 0.5873(2) 0.18226(11) 0.4927(2)
H13 H 0.5929 0.2193 0.5754
loop_
_geom_bond_atom_site_label_1
_geom_bond_atom_site_label_2
_geom_bond_site_symmetry_1
_geom_bond_site_symmetry_2
O1 C11 1_555 1_555
N1 H1 1_555 1_555
C1 N1 1_555 1_555
H2 C1 1_555 1_555
C2 N1 1_555 1_555
C3 C2 1_555 1_555
H3 C3 1_555 1_555
C4 C3 1_555 1_555
C5 C4 1_555 1_555
H4 C5 1_555 1_555
H5 C5 1_555 1_555
C6 C5 1_555 1_555
H6 C6 1_555 1_555
H7 C6 1_555 1_555
C7 C6 1_555 1_555
C8 C7 1_555 1_555
H8 C8 1_555 1_555
C9 C8 1_555 1_555
H9 C9 1_555 1_555
C10 C7 1_555 1_555
C11 C4 1_555 1_555
C12 C10 1_555 1_555
H10 C12 1_555 1_555
C13 C9 1_555 1_555
H11 C13 1_555 1_555
C14 C2 1_555 1_555
H12 C14 1_555 1_555
C15 C1 1_555 1_555
H13 C15 1_555 1_555
C10 C11 1_555 1_555
C12 C13 1_555 1_555
C14 C15 1_555 1_555

#END
