
#######################################################################
#
#                 Cambridge Crystallographic Data Centre
#                                CCDC 
#
#######################################################################
#
# If this CIF has been generated from an entry in the Cambridge 
# Structural Database, then it will include bibliographic, chemical, 
# crystal, experimental, refinement or atomic coordinate data resulting 
# from the CCDC's data processing and validation procedures.
#
#######################################################################

data_LUCMED
_chemical_formula_moiety         'C17 H11 N3'
_chemical_name_systematic        
2-(10-methylacridin-9(10H)-ylidene)malononitrile
_symmetry_cell_setting           orthorhombic
_symmetry_space_group_name_H-M   'P n m a'
_symmetry_Int_Tables_number      62
_space_group_name_Hall           '-P 2ac 2n'
loop_
_symmetry_equiv_pos_site_id
_symmetry_equiv_pos_as_xyz
1 x,y,z
2 1/2-x,-y,1/2+z
3 -x,1/2+y,-z
4 1/2+x,1/2-y,1/2-z
5 -x,-y,-z
6 1/2+x,y,1/2-z
7 x,1/2-y,z
8 1/2-x,1/2+y,1/2+z
_cell_length_a                   18.319(4)
_cell_length_b                   17.712(4)
_cell_length_c                   3.8324(8)
_cell_angle_alpha                90
_cell_angle_beta                 90
_cell_angle_gamma                90
_cell_volume                     1243.48
_exptl_crystal_colour            orange
_exptl_crystal_description       block
_cell_formula_units_Z            4
_exptl_crystal_recrystallization_method dichloromethane/methanol
_exptl_crystal_preparation       Luminescent
loop_
_atom_site_label
_atom_site_type_symbol
_atom_site_fract_x
_atom_site_fract_y
_atom_site_fract_z
N1 N 0.07426(9) 0.2500 0.0431(5)
N2 N 0.37692(8) 0.36552(9) 0.0181(5)
C1 C 0.00275(13) 0.2500 -0.1245(7)
H1 H -0.0024(10) 0.2963(10) -0.263(5)
H2 H -0.0350(17) 0.2500 0.038(8)
C2 C 0.10607(8) 0.31771(8) 0.1441(4)
C3 C 0.06539(9) 0.38492(9) 0.1500(5)
H3 H 0.0139(10) 0.3848(9) 0.076(4)
C4 C 0.09674(10) 0.45052(10) 0.2638(5)
H4 H 0.0691(10) 0.4952(10) 0.267(5)
C5 C 0.16875(10) 0.45200(10) 0.3817(5)
H5 H 0.1878(10) 0.4984(11) 0.472(4)
C6 C 0.20953(9) 0.38739(9) 0.3723(4)
H6 H 0.2596(11) 0.3865(9) 0.463(5)
C7 C 0.18013(8) 0.31907(8) 0.2465(4)
C8 C 0.22216(11) 0.2500 0.2182(5)
C9 C 0.29688(12) 0.2500 0.1526(6)
C10 C 0.33903(9) 0.31634(9) 0.0842(5)
N2F N 0.37692(8) 0.13448(9) 0.0181(5)
H1F H -0.0024(10) 0.2037(10) -0.263(5)
C2F C 0.10607(8) 0.18229(8) 0.1441(4)
C3F C 0.06539(9) 0.11508(9) 0.1500(5)
H3F H 0.0139(10) 0.1152(9) 0.076(4)
C4F C 0.09674(10) 0.04948(10) 0.2638(5)
H4F H 0.0691(10) 0.0048(10) 0.267(5)
C5F C 0.16875(10) 0.04800(10) 0.3817(5)
H5F H 0.1878(10) 0.0016(11) 0.472(4)
C6F C 0.20953(9) 0.11261(9) 0.3723(4)
H6F H 0.2596(11) 0.1135(9) 0.463(5)
C7F C 0.18013(8) 0.18093(8) 0.2465(4)
C10F C 0.33903(9) 0.18366(9) 0.0842(5)
loop_
_geom_bond_atom_site_label_1
_geom_bond_atom_site_label_2
_geom_bond_site_symmetry_1
_geom_bond_site_symmetry_2
N1 C1 1_555 1_555
N2 C10 1_555 1_555
C1 H1 1_555 1_555
H2 C1 1_555 1_555
C2 N1 1_555 1_555
C3 C2 1_555 1_555
H3 C3 1_555 1_555
C4 C3 1_555 1_555
H4 C4 1_555 1_555
C5 C4 1_555 1_555
H5 C5 1_555 1_555
C6 C5 1_555 1_555
H6 C6 1_555 1_555
C7 C2 1_555 1_555
C8 C7 1_555 1_555
C9 C8 1_555 1_555
C10 C9 1_555 1_555
N2F C10F 1_555 1_555
H1F C1 1_555 1_555
C2F N1 1_555 1_555
C3F C2F 1_555 1_555
H3F C3F 1_555 1_555
C4F C3F 1_555 1_555
H4F C4F 1_555 1_555
C5F C4F 1_555 1_555
H5F C5F 1_555 1_555
C6F C5F 1_555 1_555
H6F C6F 1_555 1_555
C7F C8 1_555 1_555
C10F C9 1_555 1_555
C6 C7 1_555 1_555
C2F C7F 1_555 1_555
C6F C7F 1_555 1_555

#END
