
#######################################################################
#
#                 Cambridge Crystallographic Data Centre
#                                CCDC 
#
#######################################################################
#
# If this CIF has been generated from an entry in the Cambridge 
# Structural Database, then it will include bibliographic, chemical, 
# crystal, experimental, refinement or atomic coordinate data resulting 
# from the CCDC's data processing and validation procedures.
#
#######################################################################

data_LUCMIH
_chemical_formula_moiety         'C16 H16 N2 O1'
_chemical_name_systematic        2,6-bis(1H-pyrrol-2-ylmethylene)cyclohexanone
_symmetry_cell_setting           triclinic
_symmetry_space_group_name_H-M   'P -1'
_symmetry_Int_Tables_number      2
_space_group_name_Hall           '-P 1'
loop_
_symmetry_equiv_pos_site_id
_symmetry_equiv_pos_as_xyz
1 x,y,z
2 -x,-y,-z
_cell_length_a                   10.1052(10)
_cell_length_b                   12.0211(10)
_cell_length_c                   12.7419(12)
_cell_angle_alpha                115.415(3)
_cell_angle_beta                 100.821(3)
_cell_angle_gamma                105.614(3)
_cell_volume                     1261.98
_exptl_crystal_colour            red
_exptl_crystal_description       plate
_cell_formula_units_Z            4
loop_
_atom_site_label
_atom_site_type_symbol
_atom_site_fract_x
_atom_site_fract_y
_atom_site_fract_z
O1 O 0.02637(13) 0.56092(13) 0.19122(11)
N1 N -0.02130(16) 0.69113(15) 0.59604(13)
H1 H -0.1022 0.6785 0.5473
N2 N 0.28498(16) 0.57338(15) -0.09296(14)
H2 H 0.1929 0.5393 -0.1348
C1 C 0.5257(2) 0.65573(19) -0.04330(18)
H3 H 0.6183 0.6842 -0.0484
C2 C 0.49551(19) 0.66311(18) 0.06137(17)
H4 H 0.5645 0.6972 0.1386
C3 C 0.34337(19) 0.61027(17) 0.02977(16)
C4 C 0.24609(19) 0.59245(17) 0.09503(16)
H5 H 0.1487 0.5718 0.0544
C5 C 0.27468(18) 0.60116(17) 0.20718(16)
C6 C 0.15259(18) 0.58494(17) 0.25466(16)
C7 C 0.18417(18) 0.60466(17) 0.38028(16)
C8 C 0.08435(19) 0.62964(17) 0.43565(16)
H6 H -0.0025 0.6196 0.3850
C9 C 0.09462(19) 0.66897(17) 0.56037(16)
C10 C 0.0107(2) 0.73539(19) 0.71828(17)
H7 H -0.0501 0.7574 0.7632
C11 C 0.3937(2) 0.59868(19) -0.13772(18)
H8 H 0.3813 0.5807 -0.2184
C12 C 0.1496(2) 0.7424(2) 0.76523(18)
H9 H 0.1988 0.7695 0.8470
C13 C 0.2024(2) 0.70102(19) 0.66688(17)
H10 H 0.2934 0.6958 0.6717
C14 C 0.32605(19) 0.60515(19) 0.44522(17)
H11 H 0.3052 0.5507 0.4831
H12 H 0.3895 0.6960 0.5108
C15 C 0.4056(2) 0.55176(19) 0.35732(17)
H13 H 0.3507 0.4564 0.3004
H14 H 0.5016 0.5650 0.4043
C16 C 0.42244(19) 0.62425(19) 0.28473(17)
H15 H 0.4776 0.7195 0.3419
H16 H 0.4767 0.5921 0.2314
O2 O 0.79364(14) 0.72573(13) 0.43254(12)
N3 N 0.96414(16) 0.73306(15) 0.10742(14)
H17 H 0.9833 0.6739 0.1210
N4 N 0.66814(18) 1.04771(17) 0.79343(15)
H18 H 0.6868 1.1074 0.7720
C17 C 0.9825(2) 0.75306(19) 0.01353(18)
H19 H 1.0165 0.7053 -0.0467
C18 C 0.91038(19) 0.82110(18) 0.17843(16)
C19 C 0.87378(18) 0.80728(18) 0.27665(16)
H20 H 0.8935 0.7409 0.2874
C20 C 0.81490(19) 0.87583(18) 0.35651(16)
C21 C 0.78508(18) 0.83191(18) 0.44492(16)
C22 C 0.74368(18) 0.91627(18) 0.54774(16)
C23 C 0.7193(2) 0.8725(2) 0.62660(18)
H21 H 0.7310 0.7926 0.6074
C24 C 0.6789(2) 0.92551(19) 0.73418(18)
C25 C 0.6392(2) 0.8611(2) 0.79814(19)
H22 H 0.6357 0.7764 0.7794
C26 C 0.6052(2) 0.9455(2) 0.89574(19)
H23 H 0.5755 0.9273 0.9535
C27 C 0.6238(2) 1.0597(2) 0.89040(19)
H24 H 0.6087 1.1331 0.9442
C28 C 0.9421(2) 0.85588(19) 0.02267(18)
H25 H 0.9435 0.8901 -0.0304
C29 C 0.8982(2) 0.90045(19) 0.12635(18)
H26 H 0.8667 0.9703 0.1551
C30 C 0.7797(2) 0.9901(2) 0.35767(19)
H27 H 0.7373 0.9683 0.2729
H28 H 0.8698 1.0695 0.3973
C31 C 0.6739(2) 1.02092(19) 0.42512(17)
H29 H 0.5780 0.9480 0.3777
H30 H 0.6644 1.1018 0.4322
C32 C 0.7274(2) 1.03980(19) 0.55371(17)
H31 H 0.8212 1.1154 0.6022
H32 H 0.6583 1.0598 0.5950
loop_
_geom_bond_atom_site_label_1
_geom_bond_atom_site_label_2
_geom_bond_site_symmetry_1
_geom_bond_site_symmetry_2
O1 C6 1_555 1_555
N1 H1 1_555 1_555
N2 H2 1_555 1_555
C1 H3 1_555 1_555
C2 C1 1_555 1_555
H4 C2 1_555 1_555
C3 N2 1_555 1_555
C4 C3 1_555 1_555
H5 C4 1_555 1_555
C5 C4 1_555 1_555
C6 C5 1_555 1_555
C7 C6 1_555 1_555
C8 C7 1_555 1_555
H6 C8 1_555 1_555
C9 N1 1_555 1_555
C10 N1 1_555 1_555
H7 C10 1_555 1_555
C11 N2 1_555 1_555
H8 C11 1_555 1_555
C12 C10 1_555 1_555
H9 C12 1_555 1_555
C13 C9 1_555 1_555
H10 C13 1_555 1_555
C14 C7 1_555 1_555
H11 C14 1_555 1_555
H12 C14 1_555 1_555
C15 C14 1_555 1_555
H13 C15 1_555 1_555
H14 C15 1_555 1_555
C16 C5 1_555 1_555
H15 C16 1_555 1_555
H16 C16 1_555 1_555
O2 C21 1_555 1_555
N3 H17 1_555 1_555
N4 H18 1_555 1_555
C17 N3 1_555 1_555
H19 C17 1_555 1_555
C18 N3 1_555 1_555
C19 C18 1_555 1_555
H20 C19 1_555 1_555
C20 C19 1_555 1_555
C21 C20 1_555 1_555
C22 C21 1_555 1_555
C23 C22 1_555 1_555
H21 C23 1_555 1_555
C24 N4 1_555 1_555
C25 C24 1_555 1_555
H22 C25 1_555 1_555
C26 C25 1_555 1_555
H23 C26 1_555 1_555
C27 N4 1_555 1_555
H24 C27 1_555 1_555
C28 C17 1_555 1_555
H25 C28 1_555 1_555
C29 C18 1_555 1_555
H26 C29 1_555 1_555
C30 C20 1_555 1_555
H27 C30 1_555 1_555
H28 C30 1_555 1_555
C31 C30 1_555 1_555
H29 C31 1_555 1_555
H30 C31 1_555 1_555
C32 C22 1_555 1_555
H31 C32 1_555 1_555
H32 C32 1_555 1_555
C1 C11 1_555 1_555
C2 C3 1_555 1_555
C8 C9 1_555 1_555
C12 C13 1_555 1_555
C15 C16 1_555 1_555
C23 C24 1_555 1_555
C26 C27 1_555 1_555
C28 C29 1_555 1_555
C31 C32 1_555 1_555

#END
