
#######################################################################
#
#                 Cambridge Crystallographic Data Centre
#                                CCDC 
#
#######################################################################
#
# If this CIF has been generated from an entry in the Cambridge 
# Structural Database, then it will include bibliographic, chemical, 
# crystal, experimental, refinement or atomic coordinate data resulting 
# from the CCDC's data processing and validation procedures.
#
#######################################################################

data_LUCQOR
_chemical_formula_moiety         'C8 H4 N1 O6 1-,C3 H5 N2 1+'
_chemical_name_systematic        '1H-imidazol-3-ium 2-carboxy-4-nitrobenzoate'
_symmetry_cell_setting           triclinic
_symmetry_space_group_name_H-M   'P -1'
_symmetry_Int_Tables_number      2
_space_group_name_Hall           '-P 1'
loop_
_symmetry_equiv_pos_site_id
_symmetry_equiv_pos_as_xyz
1 x,y,z
2 -x,-y,-z
_cell_length_a                   6.8164(6)
_cell_length_b                   7.2009(7)
_cell_length_c                   12.2030(11)
_cell_angle_alpha                86.723(2)
_cell_angle_beta                 81.7710(10)
_cell_angle_gamma                79.2960(10)
_cell_volume                     582.205
_exptl_crystal_colour            colorless
_exptl_crystal_description       block
_cell_formula_units_Z            2
loop_
_atom_site_label
_atom_site_type_symbol
_atom_site_fract_x
_atom_site_fract_y
_atom_site_fract_z
N1 N 0.1002(4) 0.2808(4) 0.7677(2)
H1 H 0.0184 0.3101 0.7193
N2 N 0.3672(4) 0.1808(4) 0.8400(2)
H2 H 0.4904 0.1335 0.8470
C1 C 0.2900(5) 0.2048(5) 0.7462(3)
H3 H 0.3591 0.1730 0.6766
C2 C 0.2208(5) 0.2429(5) 0.9237(3)
H4 H 0.2345 0.2419 0.9985
C3 C 0.0520(5) 0.3061(6) 0.8778(3)
H5 H -0.0737 0.3574 0.9148
N3 N 0.4489(4) 0.6703(4) 0.8620(2)
O1 O 0.1081(4) 0.6588(4) 0.4109(2)
O2 O -0.1752(4) 0.8185(4) 0.4892(2)
O3 O -0.3193(3) 0.9546(4) 0.6616(2)
H6 H -0.2666 0.9049 0.6033
O4 O -0.2383(3) 0.9871(4) 0.8251(2)
O5 O 0.3759(4) 0.7493(4) 0.9479(2)
O6 O 0.6173(4) 0.5762(4) 0.8473(2)
C4 C 0.0063(5) 0.7380(5) 0.4915(3)
C5 C -0.1931(5) 0.9250(5) 0.7320(3)
C6 C 0.1025(5) 0.7349(4) 0.5968(3)
C7 C 0.0161(4) 0.8125(4) 0.7002(3)
C8 C 0.1344(5) 0.7888(4) 0.7857(3)
H7 H 0.0809 0.8387 0.8545
C9 C 0.3288(5) 0.6925(4) 0.7693(3)
C10 C 0.4167(5) 0.6201(5) 0.6705(3)
H8 H 0.5498 0.5574 0.6605
C11 C 0.3010(5) 0.6430(5) 0.5856(3)
H9 H 0.3591 0.5943 0.5172
loop_
_geom_bond_atom_site_label_1
_geom_bond_atom_site_label_2
_geom_bond_site_symmetry_1
_geom_bond_site_symmetry_2
N1 H1 1_555 1_555
N2 H2 1_555 1_555
C1 N1 1_555 1_555
H3 C1 1_555 1_555
C2 N2 1_555 1_555
H4 C2 1_555 1_555
C3 N1 1_555 1_555
H5 C3 1_555 1_555
N3 O5 1_555 1_555
O1 C4 1_555 1_555
O2 C4 1_555 1_555
O3 H6 1_555 1_555
O4 C5 1_555 1_555
O6 N3 1_555 1_555
C4 C6 1_555 1_555
C5 O3 1_555 1_555
C6 C7 1_555 1_555
C7 C5 1_555 1_555
C8 C7 1_555 1_555
H7 C8 1_555 1_555
C9 N3 1_555 1_555
C10 C9 1_555 1_555
H8 C10 1_555 1_555
C11 C6 1_555 1_555
H9 C11 1_555 1_555
N2 C1 1_555 1_555
C2 C3 1_555 1_555
C8 C9 1_555 1_555
C10 C11 1_555 1_555

#END
