
#######################################################################
#
#                 Cambridge Crystallographic Data Centre
#                                CCDC 
#
#######################################################################
#
# If this CIF has been generated from an entry in the Cambridge 
# Structural Database, then it will include bibliographic, chemical, 
# crystal, experimental, refinement or atomic coordinate data resulting 
# from the CCDC's data processing and validation procedures.
#
#######################################################################

data_LUCQOQ
_chemical_formula_moiety         'C28 H22 N4,3(C1 H4 O1)'
_chemical_name_systematic        
"2,2'-bis(Benzimidazol-1-ylmethyl)biphenyl methanol solvate"
_symmetry_cell_setting           triclinic
_symmetry_space_group_name_H-M   'P -1'
_symmetry_Int_Tables_number      2
_space_group_name_Hall           '-P 1'
loop_
_symmetry_equiv_pos_site_id
_symmetry_equiv_pos_as_xyz
1 x,y,z
2 -x,-y,-z
_cell_length_a                   9.4290(10)
_cell_length_b                   9.6005(10)
_cell_length_c                   17.0966(18)
_cell_angle_alpha                95.701(2)
_cell_angle_beta                 96.186(2)
_cell_angle_gamma                111.975(2)
_cell_volume                     1410.37
_exptl_crystal_colour            white
_cell_formula_units_Z            2
_exptl_crystal_recrystallization_method methanol
loop_
_atom_site_label
_atom_site_type_symbol
_atom_site_fract_x
_atom_site_fract_y
_atom_site_fract_z
N1 N -0.2076(3) 0.6389(3) 0.86461(15)
N2 N -0.0635(2) 0.5071(2) 0.83918(13)
N3 N -0.0617(2) -0.0625(2) 0.65695(12)
N4 N -0.2051(3) -0.3060(2) 0.60919(14)
C1 C -0.1920(3) 0.5312(3) 0.81697(18)
H1 H -0.2635 0.4767 0.7720
C2 C -0.0780(3) 0.6885(3) 0.92326(16)
C3 C -0.0354(4) 0.7990(3) 0.98988(18)
H2 H -0.0964 0.8534 1.0007
C4 C 0.0976(4) 0.8250(4) 1.03855(19)
H3 H 0.1287 0.8994 1.0832
C5 C 0.1892(4) 0.7437(4) 1.02369(19)
H4 H 0.2794 0.7640 1.0589
C6 C 0.1485(3) 0.6320(3) 0.95706(17)
H5 H 0.2092 0.5772 0.9465
C7 C 0.0134(3) 0.6080(3) 0.90803(15)
C8 C -0.0159(3) 0.3937(3) 0.79953(17)
H6 H -0.1041 0.3193 0.7634
H7 H 0.0157 0.3411 0.8392
C9 C 0.1151(3) 0.4607(2) 0.75353(13)
C10 C 0.1240(3) 0.5823(3) 0.71319(15)
H8 H 0.0479 0.6218 0.7149
C11 C 0.2427(3) 0.6453(3) 0.67092(16)
H9 H 0.2467 0.7265 0.6445
C12 C 0.3547(3) 0.5874(3) 0.66821(15)
H10 H 0.4359 0.6302 0.6403
C13 C 0.3477(3) 0.4660(3) 0.70670(14)
H11 H 0.4242 0.4272 0.7041
C14 C 0.2285(3) 0.4006(2) 0.74921(13)
C15 C 0.2310(3) 0.2717(3) 0.79144(13)
C16 C 0.3517(3) 0.2989(3) 0.85274(15)
H12 H 0.4272 0.3967 0.8670
C17 C 0.3627(4) 0.1849(4) 0.89312(17)
H13 H 0.4444 0.2060 0.9342
C18 C 0.2517(4) 0.0396(4) 0.87211(17)
H14 H 0.2578 -0.0382 0.8988
C19 C 0.1330(3) 0.0110(3) 0.81185(16)
H15 H 0.0583 -0.0873 0.7981
C20 C 0.1198(3) 0.1233(3) 0.77039(14)
C21 C -0.0147(3) 0.0873(3) 0.70470(16)
H16 H -0.1023 0.0924 0.7280
H17 H 0.0133 0.1642 0.6700
C22 C -0.1888(3) -0.1878(3) 0.66046(17)
H18 H -0.2577 -0.1898 0.6958
C23 C -0.0801(3) -0.2541(3) 0.56839(14)
C24 C -0.0393(3) -0.3280(3) 0.50621(16)
H19 H -0.0994 -0.4290 0.4853
C25 C 0.0916(4) -0.2485(4) 0.47635(16)
H20 H 0.1205 -0.2967 0.4348
C26 C 0.1830(4) -0.0962(4) 0.50698(18)
H21 H 0.2713 -0.0453 0.4855
C27 C 0.1438(3) -0.0202(3) 0.56881(16)
H22 H 0.2034 0.0811 0.5893
C28 C 0.0119(3) -0.1020(3) 0.59855(14)
C29 C -0.4693(4) -0.6780(4) 0.5417(2)
O1 O -0.3671(2) -0.6091(2) 0.61446(12)
C30 C 0.5324(5) 1.0654(5) 0.7073(3)
O2 O 0.6657(5) 1.1651(6) 0.6811(3)
C31 C -0.4801(4) 0.8056(4) 0.8735(2)
O3 O -0.3540(2) 0.8326(2) 0.83057(12)
O4? O 0.6581(7) 1.0682(8) 0.7587(5)
loop_
_geom_bond_atom_site_label_1
_geom_bond_atom_site_label_2
_geom_bond_site_symmetry_1
_geom_bond_site_symmetry_2
N1 C1 1_555 1_555
N2 C1 1_555 1_555
N3 C21 1_555 1_555
N4 C22 1_555 1_555
C1 H1 1_555 1_555
C2 N1 1_555 1_555
C3 C2 1_555 1_555
H2 C3 1_555 1_555
C4 C3 1_555 1_555
H3 C4 1_555 1_555
C5 C4 1_555 1_555
H4 C5 1_555 1_555
C6 C5 1_555 1_555
H5 C6 1_555 1_555
C7 N2 1_555 1_555
C8 N2 1_555 1_555
H6 C8 1_555 1_555
H7 C8 1_555 1_555
C9 C8 1_555 1_555
C10 C9 1_555 1_555
H8 C10 1_555 1_555
C11 C10 1_555 1_555
H9 C11 1_555 1_555
C12 C11 1_555 1_555
H10 C12 1_555 1_555
C13 C12 1_555 1_555
H11 C13 1_555 1_555
C14 C9 1_555 1_555
C15 C14 1_555 1_555
C16 C15 1_555 1_555
H12 C16 1_555 1_555
C17 C16 1_555 1_555
H13 C17 1_555 1_555
C18 C17 1_555 1_555
H14 C18 1_555 1_555
C19 C18 1_555 1_555
H15 C19 1_555 1_555
C20 C15 1_555 1_555
C21 C20 1_555 1_555
H16 C21 1_555 1_555
H17 C21 1_555 1_555
C22 N3 1_555 1_555
H18 C22 1_555 1_555
C23 N4 1_555 1_555
C24 C23 1_555 1_555
H19 C24 1_555 1_555
C25 C24 1_555 1_555
H20 C25 1_555 1_555
C26 C25 1_555 1_555
H21 C26 1_555 1_555
C27 C26 1_555 1_555
H22 C27 1_555 1_555
C28 N3 1_555 1_555
C29 O1 1_555 1_555
C30 O2 1_555 1_555
C31 O3 1_555 1_555
C2 C7 1_555 1_555
C6 C7 1_555 1_555
C13 C14 1_555 1_555
C19 C20 1_555 1_555
C23 C28 1_555 1_555
C27 C28 1_555 1_555

#END
