
#######################################################################
#
#                 Cambridge Crystallographic Data Centre
#                                CCDC 
#
#######################################################################
#
# If this CIF has been generated from an entry in the Cambridge 
# Structural Database, then it will include bibliographic, chemical, 
# crystal, experimental, refinement or atomic coordinate data resulting 
# from the CCDC's data processing and validation procedures.
#
#######################################################################

data_LUCRUY
_chemical_formula_moiety         'C49 H34 N2 O1'
_chemical_name_systematic        
9,9'-(2,3-dihydro-1H-benzo[f]chromene-3,3-diyldi-4,1-phenylene)bis(9H-carbazole)
_symmetry_cell_setting           triclinic
_symmetry_space_group_name_H-M   'P -1'
_symmetry_Int_Tables_number      2
_space_group_name_Hall           '-P 1'
loop_
_symmetry_equiv_pos_site_id
_symmetry_equiv_pos_as_xyz
1 x,y,z
2 -x,-y,-z
_cell_length_a                   10.180(3)
_cell_length_b                   11.220(4)
_cell_length_c                   15.878(4)
_cell_angle_alpha                94.241(2)
_cell_angle_beta                 104.142(3)
_cell_angle_gamma                98.214(5)
_cell_volume                     1729.34
_exptl_crystal_description       block
_cell_formula_units_Z            2
loop_
_atom_site_label
_atom_site_type_symbol
_atom_site_fract_x
_atom_site_fract_y
_atom_site_fract_z
O1 O 0.31243(19) 0.34860(18) 0.64651(13)
N1 N 0.3199(2) 0.0324(2) 0.30866(15)
N2 N 0.8941(2) 0.6701(2) 0.69095(15)
C1 C 0.5568(3) 0.3915(2) 0.66379(17)
C2 C 0.4019(3) 0.2146(2) 0.56290(18)
C3 C 0.9707(3) 0.6961(3) 0.63083(18)
C4 C 0.3465(3) 0.0875(2) 0.39588(18)
C5 C 0.7803(3) 0.5749(2) 0.68007(18)
C6 C 1.0541(3) 0.8375(3) 0.7508(2)
C7 C 0.4321(3) 0.2908(3) 0.65147(19)
C8 C 0.2174(3) -0.0657(2) 0.2671(2)
C9 C 0.2404(3) 0.1077(3) 0.43228(19)
H1 H 0.1498 0.0798 0.4010
C10 C 0.5073(3) 0.1886(3) 0.52724(19)
H2 H 0.5979 0.2150 0.5589
C11 C 1.0710(3) 0.7997(3) 0.6661(2)
C12 C 0.3348(3) -0.0043(3) 0.16806(19)
C13 C 0.3895(3) 0.0724(3) 0.24706(19)
C14 C 0.6559(3) 0.5794(3) 0.6235(2)
H3 H 0.6461 0.6439 0.5903
C15 C 0.2258(3) -0.0911(3) 0.18104(19)
C16 C 0.9447(3) 0.7568(3) 0.76388(18)
C17 C 0.3189(3) 0.4076(3) 0.8797(2)
C18 C 0.2682(3) 0.1692(3) 0.5154(2)
H4 H 0.1959 0.1803 0.5397
C19 C 0.1192(3) -0.1345(3) 0.2986(2)
H5 H 0.1143 -0.1193 0.3561
C20 C 0.2453(3) 0.5060(3) 0.8741(2)
C21 C 0.6815(3) 0.3878(3) 0.7198(2)
H6 H 0.6914 0.3232 0.7531
C22 C 0.7932(3) 0.4782(3) 0.7280(2)
H7 H 0.8772 0.4735 0.7661
C23 C 0.2973(3) 0.4000(3) 0.7244(2)
C24 C 0.4908(3) 0.1716(3) 0.2542(2)
H8 H 0.5246 0.2236 0.3058
C25 C 0.4460(3) 0.2135(3) 0.72494(19)
H9 H 0.3948 0.1336 0.7008
H10 H 0.5420 0.2049 0.7434
C26 C 0.4076(3) 0.2451(3) 0.7970(2)
H11 H 0.4882 0.2556 0.8461
H12 H 0.3437 0.1773 0.8058
C27 C 0.4803(3) 0.1243(3) 0.44575(19)
H13 H 0.5528 0.1055 0.4241
C28 C 0.3446(3) 0.3525(3) 0.8012(2)
C29 C 0.9573(3) 0.6368(3) 0.5487(2)
H14 H 0.8916 0.5681 0.5262
C30 C 0.2247(3) 0.4956(3) 0.7184(2)
H15 H 0.1940 0.5247 0.6649
C31 C 0.5453(3) 0.4889(3) 0.6156(2)
H16 H 0.4615 0.4934 0.5771
C32 C 0.1342(3) -0.1855(3) 0.1261(2)
H17 H 0.1399 -0.2031 0.0690
C33 C 0.1986(3) 0.5467(3) 0.7926(2)
H18 H 0.1485 0.6101 0.7886
C34 C 0.8996(3) 0.7691(3) 0.8392(2)
H19 H 0.8263 0.7155 0.8473
C35 C 1.1575(3) 0.8444(4) 0.6161(2)
H20 H 1.2237 0.9131 0.6376
C36 C 1.1208(4) 0.9324(3) 0.8155(3)
H21 H 1.1938 0.9870 0.8081
C37 C 0.0288(3) -0.2266(3) 0.2414(3)
H22 H -0.0390 -0.2729 0.2607
C38 C 0.3642(4) 0.3665(4) 0.9615(2)
H23 H 0.4127 0.3020 0.9667
C39 C 1.0460(4) 0.6845(4) 0.5018(2)
H24 H 1.0394 0.6472 0.4463
C40 C 0.3862(4) 0.0173(3) 0.0967(2)
H25 H 0.3512 -0.0328 0.0443
C41 C 0.9679(4) 0.8638(4) 0.9013(2)
H26 H 0.9402 0.8747 0.9526
C42 C 0.0366(4) -0.2517(3) 0.1559(3)
H27 H -0.0254 -0.3141 0.1191
C43 C 0.4895(4) 0.1136(4) 0.1041(3)
H28 H 0.5264 0.1275 0.0569
C44 C 0.5394(4) 0.1903(4) 0.1817(3)
H29 H 0.6078 0.2563 0.1849
C45 C 0.2185(4) 0.5601(4) 0.9500(3)
H30 H 0.1698 0.6245 0.9463
C46 C 0.3367(4) 0.4220(5) 1.0344(3)
H31 H 0.3674 0.3947 1.0885
C47 C 1.1442(4) 0.7861(4) 0.5350(3)
H32 H 1.2025 0.8155 0.5016
C48 C 1.0777(4) 0.9437(4) 0.8893(3)
H33 H 1.1224 1.0064 0.9329
C49 C 0.2632(5) 0.5187(5) 1.0281(3)
H34 H 0.2450 0.5546 1.0778
loop_
_geom_bond_atom_site_label_1
_geom_bond_atom_site_label_2
_geom_bond_site_symmetry_1
_geom_bond_site_symmetry_2
O1 C7 1_555 1_555
N1 C4 1_555 1_555
N2 C3 1_555 1_555
C1 C7 1_555 1_555
C2 C7 1_555 1_555
C3 C11 1_555 1_555
C4 C9 1_555 1_555
C5 N2 1_555 1_555
C6 C11 1_555 1_555
C7 C25 1_555 1_555
C8 N1 1_555 1_555
C9 H1 1_555 1_555
C10 C2 1_555 1_555
H2 C10 1_555 1_555
C11 C35 1_555 1_555
C12 C13 1_555 1_555
C13 N1 1_555 1_555
C14 C5 1_555 1_555
H3 C14 1_555 1_555
C15 C8 1_555 1_555
C16 N2 1_555 1_555
C17 C20 1_555 1_555
C18 C2 1_555 1_555
H4 C18 1_555 1_555
C19 C8 1_555 1_555
H5 C19 1_555 1_555
C20 C33 1_555 1_555
C21 C1 1_555 1_555
H6 C21 1_555 1_555
C22 C5 1_555 1_555
H7 C22 1_555 1_555
C23 O1 1_555 1_555
C24 C13 1_555 1_555
H8 C24 1_555 1_555
C25 H9 1_555 1_555
H10 C25 1_555 1_555
C26 C25 1_555 1_555
H11 C26 1_555 1_555
H12 C26 1_555 1_555
C27 C4 1_555 1_555
H13 C27 1_555 1_555
C28 C17 1_555 1_555
C29 C3 1_555 1_555
H14 C29 1_555 1_555
C30 C23 1_555 1_555
H15 C30 1_555 1_555
C31 C1 1_555 1_555
H16 C31 1_555 1_555
C32 C15 1_555 1_555
H17 C32 1_555 1_555
C33 C30 1_555 1_555
H18 C33 1_555 1_555
C34 C16 1_555 1_555
H19 C34 1_555 1_555
C35 H20 1_555 1_555
C36 C6 1_555 1_555
H21 C36 1_555 1_555
C37 C19 1_555 1_555
H22 C37 1_555 1_555
C38 C17 1_555 1_555
H23 C38 1_555 1_555
C39 C29 1_555 1_555
H24 C39 1_555 1_555
C40 C12 1_555 1_555
H25 C40 1_555 1_555
C41 C34 1_555 1_555
H26 C41 1_555 1_555
C42 C32 1_555 1_555
H27 C42 1_555 1_555
C43 C40 1_555 1_555
H28 C43 1_555 1_555
C44 C24 1_555 1_555
H29 C44 1_555 1_555
C45 C20 1_555 1_555
H30 C45 1_555 1_555
C46 C38 1_555 1_555
H31 C46 1_555 1_555
C47 C35 1_555 1_555
H32 C47 1_555 1_555
C48 C36 1_555 1_555
H33 C48 1_555 1_555
C49 C45 1_555 1_555
H34 C49 1_555 1_555
C6 C16 1_555 1_555
C9 C18 1_555 1_555
C10 C27 1_555 1_555
C12 C15 1_555 1_555
C14 C31 1_555 1_555
C21 C22 1_555 1_555
C23 C28 1_555 1_555
C26 C28 1_555 1_555
C37 C42 1_555 1_555
C39 C47 1_555 1_555
C41 C48 1_555 1_555
C43 C44 1_555 1_555
C46 C49 1_555 1_555

#END
