
#######################################################################
#
#                 Cambridge Crystallographic Data Centre
#                                CCDC 
#
#######################################################################
#
# If this CIF has been generated from an entry in the Cambridge 
# Structural Database, then it will include bibliographic, chemical, 
# crystal, experimental, refinement or atomic coordinate data resulting 
# from the CCDC's data processing and validation procedures.
#
#######################################################################

data_LUCSUZ
_chemical_formula_moiety         'C7 H7 N2 1+,C5 H5 O5 1-'
_chemical_name_systematic        
'1H-Benzimidazol-3-ium 4-carboxy-2-oxobutanoate'
_symmetry_cell_setting           monoclinic
_symmetry_space_group_name_H-M   'P 21/c'
_symmetry_Int_Tables_number      14
_space_group_name_Hall           '-P 2ybc'
loop_
_symmetry_equiv_pos_site_id
_symmetry_equiv_pos_as_xyz
1 x,y,z
2 -x,1/2+y,1/2-z
3 -x,-y,-z
4 x,1/2-y,1/2+z
_cell_length_a                   5.9747(4)
_cell_length_b                   17.0016(8)
_cell_length_c                   12.3787(8)
_cell_angle_alpha                90
_cell_angle_beta                 102.902(6)
_cell_angle_gamma                90
_cell_volume                     1225.68
_exptl_crystal_colour            colorless
_exptl_crystal_description       block
_cell_formula_units_Z            4
loop_
_atom_site_label
_atom_site_type_symbol
_atom_site_fract_x
_atom_site_fract_y
_atom_site_fract_z
N1 N 0.4204(3) 0.03392(8) 0.23266(12)
H1 H 0.3208 0.0004 0.1993
N2 N 0.7121(3) 0.11173(9) 0.26613(12)
H2 H 0.8317 0.1371 0.2578
C1 C 0.5916(3) 0.06261(11) 0.19392(15)
H3 H 0.6226 0.0500 0.1256
C2 C 0.6157(3) 0.11596(10) 0.35749(14)
C3 C 0.4267(3) 0.06628(10) 0.33555(14)
C4 C 0.2846(4) 0.05743(12) 0.40978(18)
H4 H 0.1575 0.0244 0.3953
C5 C 0.3436(5) 0.10041(15) 0.50543(19)
H5 H 0.2524 0.0967 0.5571
C6 C 0.5342(5) 0.14934(15) 0.52827(19)
H6 H 0.5677 0.1768 0.5949
C7 C 0.6744(4) 0.15833(12) 0.45560(17)
H7 H 0.8022 0.1911 0.4711
O1 O -0.0364(3) 0.36944(8) 0.57485(11)
O2 O -0.2546(2) 0.45636(7) 0.46638(10)
O3 O 0.0219(3) 0.23443(8) 0.29005(12)
O4 O 0.2447(3) 0.23615(8) 0.16928(11)
H8 H 0.1568 0.2014 0.1398
O5 O -0.0311(3) 0.42682(9) 0.30698(11)
C8 C -0.0953(3) 0.40832(10) 0.48761(14)
C9 C 0.0416(3) 0.39665(9) 0.39630(14)
C10 C 0.2597(3) 0.35090(10) 0.42161(14)
H9 H 0.2397 0.3052 0.4654
H10 H 0.3797 0.3832 0.4660
C11 C 0.3358(3) 0.32396(10) 0.31884(15)
H11 H 0.3348 0.3685 0.2697
H12 H 0.4920 0.3043 0.3399
C12 C 0.1832(3) 0.26081(10) 0.25861(15)
loop_
_geom_bond_atom_site_label_1
_geom_bond_atom_site_label_2
_geom_bond_site_symmetry_1
_geom_bond_site_symmetry_2
N1 H1 1_555 1_555
N2 H2 1_555 1_555
C1 N1 1_555 1_555
H3 C1 1_555 1_555
C2 N2 1_555 1_555
C3 N1 1_555 1_555
C4 C3 1_555 1_555
H4 C4 1_555 1_555
C5 C4 1_555 1_555
H5 C5 1_555 1_555
C6 C5 1_555 1_555
H6 C6 1_555 1_555
C7 C2 1_555 1_555
H7 C7 1_555 1_555
O1 C8 1_555 1_555
O2 C8 1_555 1_555
O3 C12 1_555 1_555
O4 H8 1_555 1_555
O5 C9 1_555 1_555
C8 C9 1_555 1_555
C9 C10 1_555 1_555
C10 H9 1_555 1_555
H10 C10 1_555 1_555
C11 C10 1_555 1_555
H11 C11 1_555 1_555
H12 C11 1_555 1_555
C12 O4 1_555 1_555
N2 C1 1_555 1_555
C2 C3 1_555 1_555
C6 C7 1_555 1_555
C11 C12 1_555 1_555

#END
