
#######################################################################
#
#                 Cambridge Crystallographic Data Centre
#                                CCDC 
#
#######################################################################
#
# If this CIF has been generated from an entry in the Cambridge 
# Structural Database, then it will include bibliographic, chemical, 
# crystal, experimental, refinement or atomic coordinate data resulting 
# from the CCDC's data processing and validation procedures.
#
#######################################################################

data_LUDFAR
_chemical_formula_moiety         'C8 H6 N2 O5'
_chemical_name_systematic        
(2E)-3-((1E)-2-(5-Nitroisoxazol-3-yl)vinyloxy)prop-2-enal
_symmetry_cell_setting           monoclinic
_symmetry_space_group_name_H-M   'P 21/c'
_symmetry_Int_Tables_number      14
_space_group_name_Hall           '-P 2ybc'
loop_
_symmetry_equiv_pos_site_id
_symmetry_equiv_pos_as_xyz
1 x,y,z
2 x,1/2-y,1/2+z
3 -x,-y,-z
4 -x,1/2+y,1/2-z
_cell_length_a                   3.9575(2)
_cell_length_b                   12.3228(4)
_cell_length_c                   19.0970(7)
_cell_angle_alpha                90
_cell_angle_beta                 95.849(2)
_cell_angle_gamma                90
_cell_volume                     926.464
_exptl_crystal_colour            colorless
_exptl_crystal_description       lath
_chemical_melting_point          '174 deg.C'
_cell_formula_units_Z            4
loop_
_atom_site_label
_atom_site_type_symbol
_atom_site_fract_x
_atom_site_fract_y
_atom_site_fract_z
O1 O 0.1347(4) 1.43897(12) 0.29740(8)
N1 N 0.0773(5) 1.33217(16) 0.27220(9)
C1 C 0.2661(5) 1.26860(17) 0.31559(10)
C2 C 0.4493(5) 1.32960(18) 0.36973(11)
H1 H 0.5986 1.3046 0.4070
C3 C 0.3571(5) 1.43063(19) 0.35451(11)
N2 N 0.4607(6) 1.53217(17) 0.38703(12)
O2 O 0.6820(6) 1.52726(15) 0.43627(11)
O3 O 0.3261(6) 1.61513(15) 0.36349(12)
C4 C 0.2598(6) 1.15362(18) 0.30201(11)
H2 H 0.1279 1.1285 0.2622
C5 C 0.4293(5) 1.08273(17) 0.34258(11)
H3 H 0.5643 1.1052 0.3827
O4 O 0.4060(4) 0.97537(12) 0.32542(7)
C6 C 0.5520(6) 0.89912(18) 0.36922(11)
H4 H 0.5193 0.8278 0.3541
C7 C 0.7330(5) 0.91113(17) 0.42998(10)
H5 H 0.7760 0.9802 0.4484
C8 C 0.8649(6) 0.81747(18) 0.46799(11)
H6 H 0.8143 0.7499 0.4479
O5 O 1.0369(5) 0.81927(12) 0.52413(8)
loop_
_geom_bond_atom_site_label_1
_geom_bond_atom_site_label_2
_geom_bond_site_symmetry_1
_geom_bond_site_symmetry_2
O1 N1 1_555 1_555
N1 C1 1_555 1_555
C1 C2 1_555 1_555
C2 H1 1_555 1_555
C3 O1 1_555 1_555
N2 C3 1_555 1_555
O2 N2 1_555 1_555
O3 N2 1_555 1_555
C4 C1 1_555 1_555
H2 C4 1_555 1_555
C5 C4 1_555 1_555
H3 C5 1_555 1_555
O4 C5 1_555 1_555
C6 O4 1_555 1_555
H4 C6 1_555 1_555
C7 C6 1_555 1_555
H5 C7 1_555 1_555
C8 C7 1_555 1_555
H6 C8 1_555 1_555
O5 C8 1_555 1_555
C2 C3 1_555 1_555

#END
