
#######################################################################
#
#                 Cambridge Crystallographic Data Centre
#                                CCDC 
#
#######################################################################
#
# If this CIF has been generated from an entry in the Cambridge 
# Structural Database, then it will include bibliographic, chemical, 
# crystal, experimental, refinement or atomic coordinate data resulting 
# from the CCDC's data processing and validation procedures.
#
#######################################################################

data_LUDLIG
_chemical_formula_moiety         'C28 H20 O2'
_chemical_name_systematic        
cis-5,10-Diphenyl-5,10-dihydroindeno[2,1-a]indene-5,10-diol
_symmetry_cell_setting           monoclinic
_symmetry_space_group_name_H-M   'P 21'
_symmetry_Int_Tables_number      4
_space_group_name_Hall           'P 2yb'
loop_
_symmetry_equiv_pos_site_id
_symmetry_equiv_pos_as_xyz
1 x,y,z
2 -x,1/2+y,-z
_cell_length_a                   8.940(2)
_cell_length_b                   10.890(3)
_cell_length_c                   10.079(3)
_cell_angle_alpha                90
_cell_angle_beta                 95.4352(10)
_cell_angle_gamma                90
_cell_volume                     976.845
_exptl_crystal_colour            colorless
_exptl_crystal_description       block
_chemical_melting_point          '519 K'
_cell_formula_units_Z            2
_exptl_crystal_recrystallization_method chloroform/hexane
loop_
_atom_site_label
_atom_site_type_symbol
_atom_site_fract_x
_atom_site_fract_y
_atom_site_fract_z
C1 C 0.7856(2) 0.24446(19) -0.05776(19)
H1 H 0.732(2) 0.310(2) -0.107(2)
C2 C 0.9343(2) 0.21855(18) -0.0811(2)
H2 H 0.982(2) 0.261(2) -0.148(2)
C3 C 1.0134(2) 0.12536(17) -0.0130(2)
H3 H 1.120(3) 0.1080(18) -0.030(2)
C4 C 0.9464(2) 0.05367(19) 0.08027(19)
H4 H 1.006(2) -0.0157(19) 0.1278(19)
C5 C 0.7988(2) 0.07774(17) 0.10311(18)
C6 C 0.7188(2) 0.17383(17) 0.03412(18)
C7 C 0.5580(2) 0.18059(18) 0.07445(18)
C8 C 0.5599(2) 0.07406(17) 0.17111(18)
C9 C 0.6940(2) 0.01855(16) 0.18663(17)
C10 C 0.6955(2) -0.08858(17) 0.28346(18)
C11 C 0.5307(2) -0.08521(17) 0.31643(18)
C12 C 0.4530(2) 0.01384(17) 0.25202(17)
C13 C 0.3041(2) 0.03712(19) 0.27103(19)
H5 H 0.254(2) 0.108(2) 0.228(2)
C14 C 0.2320(2) -0.04229(19) 0.35354(19)
H6 H 0.125(2) -0.0284(19) 0.371(2)
C15 C 0.3082(2) -0.14085(19) 0.41584(19)
H7 H 0.256(2) -0.1962(19) 0.476(2)
C16 C 0.4594(2) -0.16226(18) 0.39966(18)
H8 H 0.515(2) -0.231(2) 0.4482(19)
O1 O 0.44734(15) 0.16417(12) -0.03772(13)
H9 H 0.470(3) 0.104(2) -0.085(2)
C17 C 0.5195(2) 0.30061(18) 0.14107(18)
C18 C 0.3731(2) 0.34505(18) 0.12877(18)
H10 H 0.295(2) 0.3039(19) 0.071(2)
C19 C 0.3365(2) 0.45019(18) 0.1964(2)
H11 H 0.229(2) 0.480(2) 0.182(2)
C20 C 0.4457(2) 0.51212(19) 0.27724(19)
H12 H 0.417(3) 0.584(2) 0.323(2)
C21 C 0.5923(2) 0.47037(18) 0.28825(19)
H13 H 0.676(2) 0.514(2) 0.345(2)
C22 C 0.6296(2) 0.36494(18) 0.22056(19)
H14 H 0.733(3) 0.334(2) 0.229(2)
O2 O 0.73669(15) -0.20250(12) 0.22664(13)
H15 H 0.664(2) -0.224(2) 0.164(2)
C23 C 0.8004(2) -0.07035(18) 0.41029(19)
C24 C 0.8337(2) 0.04687(18) 0.45961(18)
H16 H 0.790(2) 0.120(2) 0.410(2)
C25 C 0.9246(2) 0.06262(19) 0.57826(19)
H17 H 0.941(2) 0.143(2) 0.612(2)
C26 C 0.9841(2) -0.03826(19) 0.64819(19)
H18 H 1.051(2) -0.0240(19) 0.734(2)
C27 C 0.9490(2) -0.1555(2) 0.6008(2)
H19 H 0.996(2) -0.224(2) 0.653(2)
C28 C 0.8578(2) -0.17086(19) 0.48264(19)
H20 H 0.833(2) -0.258(2) 0.4499(19)
loop_
_geom_bond_atom_site_label_1
_geom_bond_atom_site_label_2
_geom_bond_site_symmetry_1
_geom_bond_site_symmetry_2
C1 H1 1_555 1_555
C2 C1 1_555 1_555
H2 C2 1_555 1_555
C3 C2 1_555 1_555
H3 C3 1_555 1_555
C4 C3 1_555 1_555
H4 C4 1_555 1_555
C5 C4 1_555 1_555
C6 C1 1_555 1_555
C7 C6 1_555 1_555
C8 C7 1_555 1_555
C9 C5 1_555 1_555
C10 C9 1_555 1_555
C11 C10 1_555 1_555
C12 C8 1_555 1_555
C13 C12 1_555 1_555
H5 C13 1_555 1_555
C14 C13 1_555 1_555
H6 C14 1_555 1_555
C15 C14 1_555 1_555
H7 C15 1_555 1_555
C16 C11 1_555 1_555
H8 C16 1_555 1_555
O1 C7 1_555 1_555
H9 O1 1_555 1_555
C17 C7 1_555 1_555
C18 C17 1_555 1_555
H10 C18 1_555 1_555
C19 C18 1_555 1_555
H11 C19 1_555 1_555
C20 C19 1_555 1_555
H12 C20 1_555 1_555
C21 C20 1_555 1_555
H13 C21 1_555 1_555
C22 C17 1_555 1_555
H14 C22 1_555 1_555
O2 C10 1_555 1_555
H15 O2 1_555 1_555
C23 C10 1_555 1_555
C24 C23 1_555 1_555
H16 C24 1_555 1_555
C25 C24 1_555 1_555
H17 C25 1_555 1_555
C26 C25 1_555 1_555
H18 C26 1_555 1_555
C27 C26 1_555 1_555
H19 C27 1_555 1_555
C28 C23 1_555 1_555
H20 C28 1_555 1_555
C5 C6 1_555 1_555
C8 C9 1_555 1_555
C11 C12 1_555 1_555
C15 C16 1_555 1_555
C21 C22 1_555 1_555
C27 C28 1_555 1_555

#END
