
#######################################################################
#
#                 Cambridge Crystallographic Data Centre
#                                CCDC 
#
#######################################################################
#
# If this CIF has been generated from an entry in the Cambridge 
# Structural Database, then it will include bibliographic, chemical, 
# crystal, experimental, refinement or atomic coordinate data resulting 
# from the CCDC's data processing and validation procedures.
#
#######################################################################

data_LUDMUU
_chemical_formula_moiety         'C10 H13 N3 O2,C6 H9 N3 O2'
_chemical_name_systematic        
'4,6-dimethoxypyrimidin-2-amine 1-(4-nitrophenyl)piperazine'
_symmetry_cell_setting           triclinic
_symmetry_space_group_name_H-M   'P -1'
_symmetry_Int_Tables_number      2
_space_group_name_Hall           '-P 1'
loop_
_symmetry_equiv_pos_site_id
_symmetry_equiv_pos_as_xyz
1 x,y,z
2 -x,-y,-z
_cell_length_a                   7.4257(7)
_cell_length_b                   11.3901(10)
_cell_length_c                   11.9981(10)
_cell_angle_alpha                65.648(3)
_cell_angle_beta                 89.905(3)
_cell_angle_gamma                74.090(3)
_cell_volume                     881.878
_exptl_crystal_colour            colorless
_exptl_crystal_description       block
_cell_formula_units_Z            2
loop_
_atom_site_label
_atom_site_type_symbol
_atom_site_fract_x
_atom_site_fract_y
_atom_site_fract_z
N1 N 0.2506(3) 0.94015(19) 0.11974(17)
N2 N 0.4896(3) 0.8068(2) 0.04913(18)
O1 O 0.3395(3) 1.00055(19) 0.26792(17)
C1 C 0.3099(3) 0.8750(2) 0.0495(2)
C2 C 0.5763(3) 0.8772(2) 0.1988(2)
O2 O 0.8001(2) 0.74596(19) 0.12804(18)
C3 C 0.3865(3) 0.9383(2) 0.1933(2)
C4 C 0.6166(3) 0.8109(2) 0.1234(2)
N3 N 0.1802(3) 0.8746(2) -0.0283(2)
H1 H 0.0628 0.9155 -0.0319
H2 H 0.2146 0.8335 -0.0744
C5 C 0.1445(4) 1.0542(3) 0.2766(3)
H3 H 0.0860 1.1310 0.2006
H4 H 0.1342 1.0812 0.3429
H5 H 0.0824 0.9863 0.2922
C6 C 0.8458(4) 0.6687(3) 0.0583(3)
H6 H 0.7910 0.5958 0.0892
H7 H 0.9804 0.6326 0.0656
H8 H 0.7966 0.7255 -0.0268
N4 N 0.4536(3) 0.37337(19) 0.33395(17)
N5 N 0.6250(3) 0.1971(2) 0.2200(2)
H9 H 0.6295 0.1450 0.1841
C7 C 0.1414(3) 0.6683(2) 0.3652(2)
H10 H 0.0747 0.7580 0.3157
C8 C 0.3479(3) 0.4536(2) 0.3851(2)
N6 N 0.0250(3) 0.6972(2) 0.5461(2)
C9 C 0.2397(3) 0.4831(2) 0.5648(2)
H11 H 0.2386 0.4480 0.6497
C10 C 0.1379(3) 0.6157(2) 0.4906(2)
C11 C 0.2423(3) 0.5892(2) 0.3134(2)
H12 H 0.2416 0.6257 0.2282
O3 O 0.0204(3) 0.6469(2) 0.6582(2)
C12 C 0.3418(3) 0.4040(2) 0.5129(2)
H13 H 0.4092 0.3148 0.5636
O4 O -0.0643(3) 0.8150(2) 0.4784(2)
C13 C 0.5007(4) 0.2262(2) 0.4010(3)
H14 H 0.3890 0.1993 0.3959
H15 H 0.5393 0.1996 0.4873
C14 C 0.4277(5) 0.4201(3) 0.2010(2)
H16 H 0.4208 0.5149 0.1614
H17 H 0.3091 0.4117 0.1766
C15 C 0.6567(4) 0.1532(3) 0.3508(3)
H18 H 0.7742 0.1662 0.3708
H19 H 0.6711 0.0572 0.3916
C16 C 0.5844(5) 0.3419(3) 0.1578(3)
H20 H 0.5531 0.3704 0.0703
H21 H 0.6979 0.3647 0.1684
loop_
_geom_bond_atom_site_label_1
_geom_bond_atom_site_label_2
_geom_bond_site_symmetry_1
_geom_bond_site_symmetry_2
N1 C1 1_555 1_555
N2 C1 1_555 1_555
O1 C3 1_555 1_555
C1 N3 1_555 1_555
C2 C3 1_555 1_555
O2 C4 1_555 1_555
C3 N1 1_555 1_555
C4 N2 1_555 1_555
N3 H1 1_555 1_555
H2 N3 1_555 1_555
C5 O1 1_555 1_555
H3 C5 1_555 1_555
H4 C5 1_555 1_555
H5 C5 1_555 1_555
C6 O2 1_555 1_555
H6 C6 1_555 1_555
H7 C6 1_555 1_555
H8 C6 1_555 1_555
N4 C8 1_555 1_555
N5 H9 1_555 1_555
C7 H10 1_555 1_555
C8 C11 1_555 1_555
N6 C10 1_555 1_555
C9 H11 1_555 1_555
C10 C7 1_555 1_555
C11 C7 1_555 1_555
H12 C11 1_555 1_555
O3 N6 1_555 1_555
C12 C8 1_555 1_555
H13 C12 1_555 1_555
O4 N6 1_555 1_555
C13 N4 1_555 1_555
H14 C13 1_555 1_555
H15 C13 1_555 1_555
C14 N4 1_555 1_555
H16 C14 1_555 1_555
H17 C14 1_555 1_555
C15 N5 1_555 1_555
H18 C15 1_555 1_555
H19 C15 1_555 1_555
C16 N5 1_555 1_555
H20 C16 1_555 1_555
H21 C16 1_555 1_555
C2 C4 1_555 1_555
C9 C10 1_555 1_555
C9 C12 1_555 1_555
C13 C15 1_555 1_555
C14 C16 1_555 1_555

#END
