
#######################################################################
#
#                 Cambridge Crystallographic Data Centre
#                                CCDC 
#
#######################################################################
#
# If this CIF has been generated from an entry in the Cambridge 
# Structural Database, then it will include bibliographic, chemical, 
# crystal, experimental, refinement or atomic coordinate data resulting 
# from the CCDC's data processing and validation procedures.
#
#######################################################################

data_LUDNIJ
_chemical_formula_moiety         'C17 H18 N4 2+,2(C9 H4 N1 O8 1-)'
_chemical_name_systematic        
"3,3'-propane-1,3-diylbis-1H-3,1-benzimidazol-3-ium bis(2,3-dicarboxy-5-nitrobenzoate)"
_symmetry_cell_setting           monoclinic
_symmetry_space_group_name_H-M   'P 2/n'
_symmetry_Int_Tables_number      13
_space_group_name_Hall           '-P 2yac'
loop_
_symmetry_equiv_pos_site_id
_symmetry_equiv_pos_as_xyz
1 x,y,z
2 1/2-x,y,1/2-z
3 -x,-y,-z
4 1/2+x,-y,1/2+z
_cell_length_a                   12.0121(6)
_cell_length_b                   9.5473(5)
_cell_length_c                   14.1503(6)
_cell_angle_alpha                90
_cell_angle_beta                 96.390(4)
_cell_angle_gamma                90
_cell_volume                     1612.72
_exptl_crystal_colour            colorless
_exptl_crystal_description       block
_cell_formula_units_Z            2
loop_
_atom_site_label
_atom_site_type_symbol
_atom_site_fract_x
_atom_site_fract_y
_atom_site_fract_z
N1 N 0.00961(18) 0.1393(2) 0.57877(13)
O1 O -0.10959(19) 0.2270(2) 0.22138(12)
O2 O -0.11713(15) 0.45807(18) 0.22758(11)
H1 H -0.1583 0.4481 0.1778
O3 O 0.12743(15) 0.45153(18) 0.22015(10)
H2 H 0.1492 0.5008 0.1785
O4 O 0.11264(15) 0.6558(2) 0.29616(11)
O5 O 0.30519(14) 0.55953(18) 0.42731(11)
O6 O 0.24778(13) 0.58797(18) 0.56938(10)
O7 O -0.07811(15) 0.0725(2) 0.56582(12)
O8 O 0.08077(16) 0.1214(2) 0.64596(12)
C1 C -0.01007(18) 0.3405(2) 0.35284(15)
C2 C 0.07797(18) 0.4364(2) 0.37192(14)
C3 C 0.14046(18) 0.4386(2) 0.46197(14)
C4 C 0.11503(19) 0.3430(3) 0.53029(15)
H3 H 0.1543 0.3443 0.5908
C5 C 0.03151(19) 0.2463(3) 0.50797(15)
C6 C -0.03169(19) 0.2426(3) 0.42065(15)
H4 H -0.0877 0.1759 0.4075
C7 C -0.0832(2) 0.3347(3) 0.26035(16)
C8 C 0.10787(19) 0.5305(3) 0.29293(15)
C9 C 0.23838(19) 0.5362(2) 0.48746(15)
N2 N 0.17677(17) -0.1299(2) -0.01173(14)
H5 H 0.1906 -0.1995 -0.0472
N3 N 0.15092(16) -0.0103(2) 0.11442(12)
C10 C 0.15098(19) 0.0050(3) -0.04305(16)
C11 C 0.1397(2) 0.0664(3) -0.13213(17)
H6 H 0.1533 0.0167 -0.1862
C12 C 0.1073(2) 0.2047(3) -0.13667(17)
H7 H 0.0992 0.2494 -0.1954
C13 C 0.0862(2) 0.2801(3) -0.05628(18)
H8 H 0.0624 0.3727 -0.0629
C14 C 0.0998(2) 0.2203(3) 0.03277(16)
H9 H 0.0873 0.2706 0.0869
C15 C 0.13288(18) 0.0816(3) 0.03765(15)
C16 C 0.1765(2) -0.1341(3) 0.08163(18)
H10 H 0.1923 -0.2133 0.1190
C17 C 0.1475(2) 0.0297(3) 0.21408(15)
H11 H 0.1450 -0.0539 0.2527
H12 H 0.0801 0.0837 0.2199
C18 C 0.2500 0.1165(4) 0.2500
H13 H 0.2310 0.1765 0.3011
H13A H 0.2690 0.1765 0.1989
N2A N 0.32323(17) -0.1299(2) 0.51173(14)
H5A H 0.3094 -0.1995 0.5472
N3A N 0.34908(16) -0.0103(2) 0.38558(12)
C10A C 0.34902(19) 0.0050(3) 0.54305(16)
C11A C 0.3603(2) 0.0664(3) 0.63213(17)
H6A H 0.3467 0.0167 0.6862
C12A C 0.3927(2) 0.2047(3) 0.63667(17)
H7A H 0.4008 0.2494 0.6954
C13A C 0.4138(2) 0.2801(3) 0.55628(18)
H8A H 0.4376 0.3727 0.5629
C14A C 0.4002(2) 0.2203(3) 0.46723(16)
H9A H 0.4127 0.2706 0.4131
C15A C 0.36712(18) 0.0816(3) 0.46235(15)
C16A C 0.3235(2) -0.1341(3) 0.41837(18)
H10A H 0.3077 -0.2133 0.3810
C17A C 0.3525(2) 0.0297(3) 0.28592(15)
H11A H 0.3550 -0.0539 0.2473
H12A H 0.4199 0.0837 0.2801
H14? H 0.2310 0.1765 0.3011
loop_
_geom_bond_atom_site_label_1
_geom_bond_atom_site_label_2
_geom_bond_site_symmetry_1
_geom_bond_site_symmetry_2
N1 O7 1_555 1_555
O1 C7 1_555 1_555
O2 H1 1_555 1_555
O3 H2 1_555 1_555
O4 C8 1_555 1_555
O5 C9 1_555 1_555
O6 C9 1_555 1_555
O8 N1 1_555 1_555
C1 C2 1_555 1_555
C2 C3 1_555 1_555
C3 C4 1_555 1_555
C4 H3 1_555 1_555
C5 N1 1_555 1_555
C6 C1 1_555 1_555
H4 C6 1_555 1_555
C7 O2 1_555 1_555
C8 O3 1_555 1_555
C9 C3 1_555 1_555
N2 H5 1_555 1_555
N3 C15 1_555 1_555
C10 N2 1_555 1_555
C11 C10 1_555 1_555
H6 C11 1_555 1_555
C12 C11 1_555 1_555
H7 C12 1_555 1_555
C13 C12 1_555 1_555
H8 C13 1_555 1_555
C14 C13 1_555 1_555
H9 C14 1_555 1_555
C15 C10 1_555 1_555
C16 N2 1_555 1_555
H10 C16 1_555 1_555
C17 N3 1_555 1_555
H11 C17 1_555 1_555
H12 C17 1_555 1_555
C18 C17 1_555 1_555
H13 C18 1_555 1_555
H13A C18 1_555 1_555
N2A H5A 1_555 1_555
N3A C15A 1_555 1_555
C10A N2A 1_555 1_555
C11A C10A 1_555 1_555
H6A C11A 1_555 1_555
C12A C11A 1_555 1_555
H7A C12A 1_555 1_555
C13A C12A 1_555 1_555
H8A C13A 1_555 1_555
C14A C13A 1_555 1_555
H9A C14A 1_555 1_555
C15A C10A 1_555 1_555
C16A N2A 1_555 1_555
H10A C16A 1_555 1_555
C17A C18 1_555 1_555
H11A C17A 1_555 1_555
H12A C17A 1_555 1_555
C1 C7 1_555 1_555
C2 C8 1_555 1_555
C4 C5 1_555 1_555
C5 C6 1_555 1_555
N3 C16 1_555 1_555
C14 C15 1_555 1_555
N3A C16A 1_555 1_555
N3A C17A 1_555 1_555
C14A C15A 1_555 1_555

#END
