
#######################################################################
#
#                 Cambridge Crystallographic Data Centre
#                                CCDC 
#
#######################################################################
#
# If this CIF has been generated from an entry in the Cambridge 
# Structural Database, then it will include bibliographic, chemical, 
# crystal, experimental, refinement or atomic coordinate data resulting 
# from the CCDC's data processing and validation procedures.
#
#######################################################################

data_LUDQEI
_chemical_formula_moiety         'C11 H10 N4 S1'
_chemical_name_systematic        
2-(3,5-dimethyl-1H-pyrazol-1-yl)[1,3]thiazolo[5,4-b]pyridine
_symmetry_cell_setting           orthorhombic
_symmetry_space_group_name_H-M   'P b c a'
_symmetry_Int_Tables_number      61
_space_group_name_Hall           '-P 2ac 2ab'
loop_
_symmetry_equiv_pos_site_id
_symmetry_equiv_pos_as_xyz
1 x,y,z
2 1/2-x,-y,1/2+z
3 -x,1/2+y,1/2-z
4 1/2+x,1/2-y,-z
5 -x,-y,-z
6 1/2+x,y,1/2-z
7 x,1/2-y,1/2+z
8 1/2-x,1/2+y,z
_cell_length_a                   12.1321(11)
_cell_length_b                   8.5791(8)
_cell_length_c                   21.292(2)
_cell_angle_alpha                90
_cell_angle_beta                 90
_cell_angle_gamma                90
_cell_volume                     2216.12
_exptl_crystal_colour            colorless
_exptl_crystal_description       block
_cell_formula_units_Z            8
loop_
_atom_site_label
_atom_site_type_symbol
_atom_site_fract_x
_atom_site_fract_y
_atom_site_fract_z
C1 C 0.56756(12) -0.1351(2) 0.43274(8)
C2 C 0.67771(13) -0.17703(19) 0.44340(7)
C3 C 0.69936(14) -0.2798(2) 0.49195(8)
H1 H 0.7709 -0.3118 0.5010
C4 C 0.61077(16) -0.3329(2) 0.52640(9)
H2 H 0.6220 -0.4018 0.5595
C5 C 0.50495(15) -0.2836(2) 0.51174(9)
H3 H 0.4471 -0.3217 0.5360
C6 C 0.70231(13) -0.02405(19) 0.36253(7)
C7 C 0.86378(13) 0.07687(19) 0.30130(8)
C8 C 0.86646(15) 0.1712(2) 0.24994(8)
H4 H 0.9292 0.2068 0.2294
C9 C 0.75628(15) 0.2048(2) 0.23369(8)
C10 C 0.71405(19) 0.2974(2) 0.17931(9)
H5 H 0.7269 0.2409 0.1411
H6 H 0.7517 0.3957 0.1776
H7 H 0.6364 0.3150 0.1844
C11 C 0.95460(15) 0.0030(2) 0.33742(11)
H8 H 1.0241 0.0304 0.3188
H9 H 0.9458 -0.1082 0.3367
H10 H 0.9526 0.0391 0.3801
N1 N 0.48058(12) -0.18534(18) 0.46527(7)
N2 N 0.75389(11) -0.11141(17) 0.40236(6)
N3 N 0.75331(11) 0.05840(16) 0.31479(6)
N4 N 0.68671(12) 0.13766(16) 0.27308(6)
S1 S 0.55941(3) -0.00755(5) 0.36903(2)
loop_
_geom_bond_atom_site_label_1
_geom_bond_atom_site_label_2
_geom_bond_site_symmetry_1
_geom_bond_site_symmetry_2
C1 C2 1_555 1_555
C2 C3 1_555 1_555
C3 H1 1_555 1_555
C4 C3 1_555 1_555
H2 C4 1_555 1_555
C5 C4 1_555 1_555
H3 C5 1_555 1_555
C6 N2 1_555 1_555
C7 C8 1_555 1_555
C8 H4 1_555 1_555
C9 C8 1_555 1_555
C10 C9 1_555 1_555
H5 C10 1_555 1_555
H6 C10 1_555 1_555
H7 C10 1_555 1_555
C11 C7 1_555 1_555
H8 C11 1_555 1_555
H9 C11 1_555 1_555
H10 C11 1_555 1_555
N1 C1 1_555 1_555
N2 C2 1_555 1_555
N3 C6 1_555 1_555
N4 C9 1_555 1_555
S1 C1 1_555 1_555
C5 N1 1_555 1_555
C6 S1 1_555 1_555
C7 N3 1_555 1_555
N3 N4 1_555 1_555

#END
