
#######################################################################
#
#                 Cambridge Crystallographic Data Centre
#                                CCDC 
#
#######################################################################
#
# If this CIF has been generated from an entry in the Cambridge 
# Structural Database, then it will include bibliographic, chemical, 
# crystal, experimental, refinement or atomic coordinate data resulting 
# from the CCDC's data processing and validation procedures.
#
#######################################################################

data_LUDRUY
_chemical_formula_moiety         'C17 H13 Br1 O3'
_chemical_name_systematic        3-Benzoyl-8-bromo-4-methylchroman-2-one
_symmetry_cell_setting           orthorhombic
_symmetry_space_group_name_H-M   'P 21 21 21'
_symmetry_Int_Tables_number      19
_space_group_name_Hall           'P 2ac 2ab'
loop_
_symmetry_equiv_pos_site_id
_symmetry_equiv_pos_as_xyz
1 x,y,z
2 1/2-x,-y,1/2+z
3 -x,1/2+y,1/2-z
4 1/2+x,1/2-y,-z
_cell_length_a                   5.4447(8)
_cell_length_b                   7.7521(11)
_cell_length_c                   33.834(5)
_cell_angle_alpha                90
_cell_angle_beta                 90
_cell_angle_gamma                90
_cell_volume                     1428.06
_exptl_crystal_colour            colorless
_exptl_crystal_description       block
_cell_formula_units_Z            4
loop_
_atom_site_label
_atom_site_type_symbol
_atom_site_fract_x
_atom_site_fract_y
_atom_site_fract_z
O1 O 0.6276(5) 0.2412(3) 0.14748(7)
C1 C 0.7717(8) 0.1914(4) 0.11668(10)
C2 C 0.7800(7) -0.0005(4) 0.10737(10)
H1 H 0.6219 -0.0334 0.0944
C3 C 0.8067(7) -0.1065(5) 0.14571(10)
H2 H 0.9698 -0.0798 0.1578
C4 C 0.6075(6) -0.0497(4) 0.17388(10)
C5 C 0.5217(6) 0.1194(5) 0.17244(9)
C6 C 0.7968(9) -0.3003(4) 0.13626(11)
H3 H 0.8191 -0.3666 0.1607
H4 H 0.9279 -0.3293 0.1176
H5 H 0.6372 -0.3285 0.1245
C7 C 0.9888(7) -0.0322(5) 0.07819(11)
C8 C 0.9392(6) -0.0174(4) 0.03496(10)
C9 C 1.1164(6) -0.0810(5) 0.00860(10)
H6 H 1.2596 -0.1364 0.0184
C10 C 1.0823(7) -0.0628(5) -0.03151(11)
H7 H 1.2028 -0.1058 -0.0493
C11 C 0.8748(7) 0.0174(5) -0.04625(11)
H8 H 0.8531 0.0294 -0.0740
C12 C 0.6984(7) 0.0803(5) -0.02043(10)
H9 H 0.5562 0.1361 -0.0305
C13 C 0.7293(7) 0.0619(4) 0.02002(10)
H10 H 0.6070 0.1036 0.0376
C14 C 0.4997(7) -0.1587(5) 0.20171(10)
H11 H 0.5559 -0.2743 0.2038
C15 C 0.3135(7) -0.1030(5) 0.22629(11)
H12 H 0.2424 -0.1804 0.2448
C16 C 0.2306(7) 0.0648(5) 0.22396(10)
H13 H 0.1035 0.1039 0.2410
C17 C 0.3336(6) 0.1750(4) 0.19674(11)
Br1 Br 0.21614(7) 0.40387(5) 0.191732(12)
O2 O 0.8775(5) 0.3004(3) 0.09858(8)
O3 O 1.1924(5) -0.0650(4) 0.09055(7)
loop_
_geom_bond_atom_site_label_1
_geom_bond_atom_site_label_2
_geom_bond_site_symmetry_1
_geom_bond_site_symmetry_2
O1 C1 1_555 1_555
C1 C2 1_555 1_555
C2 H1 1_555 1_555
C3 C2 1_555 1_555
H2 C3 1_555 1_555
C4 C3 1_555 1_555
C5 O1 1_555 1_555
C6 C3 1_555 1_555
H3 C6 1_555 1_555
H4 C6 1_555 1_555
H5 C6 1_555 1_555
C7 C2 1_555 1_555
C8 C7 1_555 1_555
C9 C8 1_555 1_555
H6 C9 1_555 1_555
C10 C9 1_555 1_555
H7 C10 1_555 1_555
C11 C10 1_555 1_555
H8 C11 1_555 1_555
C12 C11 1_555 1_555
H9 C12 1_555 1_555
C13 C8 1_555 1_555
H10 C13 1_555 1_555
C14 C4 1_555 1_555
H11 C14 1_555 1_555
C15 C14 1_555 1_555
H12 C15 1_555 1_555
C16 C15 1_555 1_555
H13 C16 1_555 1_555
C17 C5 1_555 1_555
Br1 C17 1_555 1_555
O2 C1 1_555 1_555
O3 C7 1_555 1_555
C4 C5 1_555 1_555
C12 C13 1_555 1_555
C16 C17 1_555 1_555

#END
