
#######################################################################
#
#                 Cambridge Crystallographic Data Centre
#                                CCDC 
#
#######################################################################
#
# If this CIF has been generated from an entry in the Cambridge 
# Structural Database, then it will include bibliographic, chemical, 
# crystal, experimental, refinement or atomic coordinate data resulting 
# from the CCDC's data processing and validation procedures.
#
#######################################################################

data_LUDSAF
_chemical_formula_moiety         'C19 H18 O4'
_chemical_name_systematic        3-Benzoyl-4-ethyl-8-methoxychroman-2-one
_symmetry_cell_setting           monoclinic
_symmetry_space_group_name_H-M   'P 21'
_symmetry_Int_Tables_number      4
_space_group_name_Hall           'P 2yb'
loop_
_symmetry_equiv_pos_site_id
_symmetry_equiv_pos_as_xyz
1 x,y,z
2 -x,1/2+y,-z
_cell_length_a                   9.304(2)
_cell_length_b                   8.551(2)
_cell_length_c                   10.450(2)
_cell_angle_alpha                90
_cell_angle_beta                 94.983(4)
_cell_angle_gamma                90
_cell_volume                     828.244
_exptl_crystal_colour            colorless
_exptl_crystal_description       plate
_cell_formula_units_Z            2
loop_
_atom_site_label
_atom_site_type_symbol
_atom_site_fract_x
_atom_site_fract_y
_atom_site_fract_z
O1 O 0.22130(17) 0.00429(19) 0.77679(14)
C1 C 0.1082(2) -0.0465(3) 0.6975(2)
C2 C 0.1380(3) -0.1156(3) 0.56861(19)
H1 H 0.0558 -0.1852 0.5379
C3 C 0.2777(3) -0.2137(3) 0.5836(2)
H2 H 0.3039 -0.2440 0.4962
C4 C 0.3955(3) -0.1123(3) 0.6459(2)
C5 C 0.3610(3) -0.0060(3) 0.7384(2)
C6 C 0.4624(3) 0.0924(4) 0.8026(3)
C7 C 0.6034(3) 0.0840(5) 0.7706(3)
H3 H 0.6749 0.1502 0.8122
C8 C 0.6405(3) -0.0212(5) 0.6777(4)
H4 H 0.7377 -0.0263 0.6567
C9 C 0.5386(3) -0.1189(4) 0.6151(3)
H5 H 0.5658 -0.1900 0.5517
C10 C 0.1487(2) 0.0174(3) 0.4721(2)
C11 C 0.1296(3) -0.0208(3) 0.3325(2)
C12 C 0.1784(3) 0.0884(3) 0.2459(2)
H6 H 0.2258 0.1811 0.2770
C13 C 0.1574(3) 0.0608(4) 0.1148(3)
H7 H 0.1922 0.1335 0.0562
C14 C 0.0863(4) -0.0715(4) 0.0696(2)
H8 H 0.0697 -0.0881 -0.0203
C15 C 0.0388(4) -0.1806(4) 0.1539(3)
H9 H -0.0093 -0.2725 0.1222
C16 C 0.0619(3) -0.1547(3) 0.2857(2)
H10 H 0.0307 -0.2302 0.3439
C17 C 0.2525(3) -0.3645(3) 0.6604(3)
H11 H 0.2081 -0.3351 0.7397
H12 H 0.1824 -0.4308 0.6086
C18 C 0.3857(4) -0.4606(4) 0.6976(3)
H13 H 0.3591 -0.5530 0.7458
H14 H 0.4552 -0.3975 0.7511
H15 H 0.4291 -0.4939 0.6199
O2 O -0.01073(19) -0.0355(2) 0.73348(17)
O3 O 0.1719(2) 0.15024(19) 0.50999(16)
O4 O 0.4126(3) 0.1882(3) 0.8940(2)
C19 C 0.5162(7) 0.2829(5) 0.9695(4)
H16 H 0.4666 0.3448 1.0312
H17 H 0.5644 0.3532 0.9128
H18 H 0.5880 0.2151 1.0159
loop_
_geom_bond_atom_site_label_1
_geom_bond_atom_site_label_2
_geom_bond_site_symmetry_1
_geom_bond_site_symmetry_2
O1 C1 1_555 1_555
C1 C2 1_555 1_555
C2 H1 1_555 1_555
C3 C2 1_555 1_555
H2 C3 1_555 1_555
C4 C3 1_555 1_555
C5 O1 1_555 1_555
C6 C5 1_555 1_555
C7 C6 1_555 1_555
H3 C7 1_555 1_555
C8 C7 1_555 1_555
H4 C8 1_555 1_555
C9 C4 1_555 1_555
H5 C9 1_555 1_555
C10 C2 1_555 1_555
C11 C10 1_555 1_555
C12 C11 1_555 1_555
H6 C12 1_555 1_555
C13 C12 1_555 1_555
H7 C13 1_555 1_555
C14 C13 1_555 1_555
H8 C14 1_555 1_555
C15 C14 1_555 1_555
H9 C15 1_555 1_555
C16 C11 1_555 1_555
H10 C16 1_555 1_555
C17 C3 1_555 1_555
H11 C17 1_555 1_555
H12 C17 1_555 1_555
C18 C17 1_555 1_555
H13 C18 1_555 1_555
H14 C18 1_555 1_555
H15 C18 1_555 1_555
O2 C1 1_555 1_555
O3 C10 1_555 1_555
O4 C6 1_555 1_555
C19 O4 1_555 1_555
H16 C19 1_555 1_555
H17 C19 1_555 1_555
H18 C19 1_555 1_555
C4 C5 1_555 1_555
C8 C9 1_555 1_555
C15 C16 1_555 1_555

#END
