
#######################################################################
#
#                 Cambridge Crystallographic Data Centre
#                                CCDC 
#
#######################################################################
#
# If this CIF has been generated from an entry in the Cambridge 
# Structural Database, then it will include bibliographic, chemical, 
# crystal, experimental, refinement or atomic coordinate data resulting 
# from the CCDC's data processing and validation procedures.
#
#######################################################################

data_LUDSEK
_chemical_formula_moiety         'C13 H8 N4 O1'
_chemical_name_systematic        3-cyano-9H-\b-carboline-1-carboxamide
_symmetry_cell_setting           monoclinic
_symmetry_space_group_name_H-M   'P 21/c'
_symmetry_Int_Tables_number      14
_space_group_name_Hall           '-P 2ybc'
loop_
_symmetry_equiv_pos_site_id
_symmetry_equiv_pos_as_xyz
1 x,y,z
2 -x,1/2+y,1/2-z
3 -x,-y,-z
4 x,1/2-y,1/2+z
_cell_length_a                   9.7480(19)
_cell_length_b                   14.661(3)
_cell_length_c                   7.3640(15)
_cell_angle_alpha                90
_cell_angle_beta                 93.22(3)
_cell_angle_gamma                90
_cell_volume                     1050.77
_cell_formula_units_Z            4
loop_
_atom_site_label
_atom_site_type_symbol
_atom_site_fract_x
_atom_site_fract_y
_atom_site_fract_z
N1 N 0.07644(16) 0.34837(11) 0.0669(2)
H1 H 0.0762 0.4070 0.0630
C1 C 0.18655(19) 0.29318(13) 0.0303(3)
N2 N -0.3385(2) 0.42544(13) 0.2189(3)
H2 H -0.3724 0.4793 0.2282
H3 H -0.3874 0.3784 0.2417
N3 N -0.25412(16) 0.25342(11) 0.1968(2)
O1 O -0.13235(16) 0.47707(10) 0.1337(3)
C2 C 0.3173(2) 0.31701(16) -0.0176(3)
H4 H 0.3431 0.3778 -0.0284
C3 C 0.4071(2) 0.24740(17) -0.0483(3)
H5 H 0.4955 0.2616 -0.0807
N4 N -0.4025(2) 0.04960(14) 0.2667(3)
C4 C 0.3700(2) 0.15635(16) -0.0324(3)
H6 H 0.4333 0.1109 -0.0550
C5 C 0.2413(2) 0.13284(15) 0.0162(3)
H7 H 0.2168 0.0719 0.0274
C6 C 0.14782(19) 0.20188(13) 0.0486(3)
C7 C 0.00764(19) 0.20255(12) 0.1019(3)
C8 C -0.0868(2) 0.13627(14) 0.1431(3)
H8 H -0.0648 0.0746 0.1405
C9 C -0.2156(2) 0.16566(14) 0.1884(3)
C10 C -0.16439(19) 0.31792(13) 0.1587(3)
C11 C -0.03160(19) 0.29518(12) 0.1103(3)
C12 C -0.3195(2) 0.10013(14) 0.2322(3)
C13 C -0.2103(2) 0.41488(14) 0.1691(3)
loop_
_geom_bond_atom_site_label_1
_geom_bond_atom_site_label_2
_geom_bond_site_symmetry_1
_geom_bond_site_symmetry_2
N1 H1 1_555 1_555
C1 N1 1_555 1_555
N2 H2 1_555 1_555
H3 N2 1_555 1_555
N3 C9 1_555 1_555
O1 C13 1_555 1_555
C2 C1 1_555 1_555
H4 C2 1_555 1_555
C3 C2 1_555 1_555
H5 C3 1_555 1_555
N4 C12 1_555 1_555
C4 C3 1_555 1_555
H6 C4 1_555 1_555
C5 C4 1_555 1_555
H7 C5 1_555 1_555
C6 C1 1_555 1_555
C7 C6 1_555 1_555
C8 C7 1_555 1_555
H8 C8 1_555 1_555
C9 C8 1_555 1_555
C10 N3 1_555 1_555
C11 N1 1_555 1_555
C12 C9 1_555 1_555
C13 N2 1_555 1_555
C5 C6 1_555 1_555
C7 C11 1_555 1_555
C10 C11 1_555 1_555
C10 C13 1_555 1_555

#END
