
#######################################################################
#
#                 Cambridge Crystallographic Data Centre
#                                CCDC 
#
#######################################################################
#
# If this CIF has been generated from an entry in the Cambridge 
# Structural Database, then it will include bibliographic, chemical, 
# crystal, experimental, refinement or atomic coordinate data resulting 
# from the CCDC's data processing and validation procedures.
#
#######################################################################

data_LUDTAG
_chemical_formula_moiety         'C14 H15 N1 O3 S1'
_chemical_name_systematic        
(R)-2-((4-Methylphenyl)sulfonyl)-2,3,3a,4-tetrahydrocyclopenta[c]pyrrol-5(1H)-one
_symmetry_cell_setting           monoclinic
_symmetry_space_group_name_H-M   'P 21'
_symmetry_Int_Tables_number      4
_space_group_name_Hall           'P 2yb'
loop_
_symmetry_equiv_pos_site_id
_symmetry_equiv_pos_as_xyz
1 x,y,z
2 -x,1/2+y,-z
_cell_length_a                   6.0658(2)
_cell_length_b                   10.7670(3)
_cell_length_c                   20.6587(6)
_cell_angle_alpha                90
_cell_angle_beta                 91.531(2)
_cell_angle_gamma                90
_cell_volume                     1348.75
_exptl_crystal_colour            colorless
_exptl_crystal_description       rectangular
_cell_formula_units_Z            4
loop_
_atom_site_label
_atom_site_type_symbol
_atom_site_fract_x
_atom_site_fract_y
_atom_site_fract_z
S1 S 0.6447(3) 0.52785(17) -0.01798(9)
O1 O 0.9947(8) 0.1622(6) 0.2498(3)
O2 O 0.4113(6) 0.5322(5) -0.01948(19)
O3 O 0.7697(7) 0.6417(5) -0.0252(2)
N1 N 0.7119(8) 0.4716(5) 0.0524(2)
C1 C 0.9395(10) 0.2189(8) 0.2026(4)
C2 C 1.0582(12) 0.3210(8) 0.1713(4)
H1 H 1.1914 0.3553 0.1857
C3 C 0.9409(10) 0.3564(7) 0.1181(3)
C4 C 0.9471(9) 0.4551(8) 0.0710(3)
H2 H 1.0330 0.4315 0.0341
H3 H 1.0085 0.5305 0.0899
C5 C 0.5748(8) 0.3731(6) 0.0820(3)
H4 H 0.4696 0.3381 0.0509
H5 H 0.4971 0.4039 0.1192
C6 C 0.7526(10) 0.2800(7) 0.1017(3)
H6 H 0.7859 0.2261 0.0650
C7 C 0.7225(10) 0.2006(6) 0.1636(3)
H7 H 0.5977 0.2297 0.1878
H8 H 0.7002 0.1138 0.1527
C8 C 0.7322(10) 0.4240(7) -0.0776(3)
C9 C 0.5988(10) 0.3214(7) -0.0933(3)
H9 H 0.4676 0.3066 -0.0723
C10 C 0.6737(10) 0.2410(8) -0.1428(4)
H10 H 0.5841 0.1759 -0.1570
C11 C 0.8717(14) 0.2575(7) -0.1693(3)
C12 C 1.0044(10) 0.3551(8) -0.1521(4)
H11 H 1.1407 0.3651 -0.1710
C13 C 0.9349(11) 0.4386(7) -0.1065(3)
H12 H 1.0245 0.5055 -0.0949
C14 C 0.9607(11) 0.1715(8) -0.2223(3)
H13 H 0.8602 0.1037 -0.2294
H14 H 1.1023 0.1397 -0.2086
H15 H 0.9750 0.2176 -0.2617
S2 S 0.8649(3) 0.13275(18) 0.52197(10)
O4 O 0.5247(8) 0.4808(5) 0.2467(3)
O5 O 0.7436(7) 0.0215(5) 0.5274(2)
O6 O 1.1035(6) 0.1318(5) 0.5297(2)
N2 N 0.8021(7) 0.1883(5) 0.4520(3)
C15 C 0.5839(14) 0.4277(8) 0.2980(3)
C16 C 0.7965(10) 0.4306(8) 0.3304(4)
H16 H 0.908(7) 0.449(5) 0.305(2)
C17 C 0.790(2) 0.3605(16) 0.3811(7)
C18 C 0.9249(14) 0.2961(10) 0.4289(5)
H17 H 1.044(10) 0.280(6) 0.415(3)
H18 H 0.881(10) 0.361(5) 0.461(3)
C19 C 0.5719(14) 0.1930(8) 0.4271(4)
H19 H 0.497(10) 0.168(6) 0.451(3)
H20 H 0.555(8) 0.117(5) 0.402(2)
C20 C 0.559(3) 0.3282(12) 0.3967(6)
H21 H 0.5137 0.3885 0.4302
C21 C 0.4436(12) 0.3443(10) 0.3340(4)
H22 H 0.359(9) 0.277(5) 0.315(3)
H23 H 0.355(8) 0.407(5) 0.351(3)
C22 C 0.7704(12) 0.2375(8) 0.5792(3)
C23 C 0.5711(13) 0.2150(8) 0.6060(4)
H24 H 0.4875 0.1468 0.5926
C24 C 0.4940(13) 0.2942(10) 0.6531(5)
H25 H 0.3567 0.2782 0.6703
C25 C 0.6144(13) 0.3981(9) 0.6762(4)
C26 C 0.8100(14) 0.4168(8) 0.6446(4)
H26 H 0.8911 0.4880 0.6541
C27 C 0.8871(11) 0.3384(8) 0.6014(4)
H27 H 1.0268 0.3524 0.5855
C28 C 0.5438(13) 0.4827(8) 0.7264(3)
H28 H 0.4077 0.4537 0.7437
H29 H 0.5224 0.5641 0.7083
H30 H 0.6546 0.4863 0.7604
C29? C 0.585(4) 0.2654(17) 0.3752(12)
C30? C 0.828(5) 0.310(3) 0.3613(14)
H31? H 0.9039 0.2557 0.3310
loop_
_geom_bond_atom_site_label_1
_geom_bond_atom_site_label_2
_geom_bond_site_symmetry_1
_geom_bond_site_symmetry_2
S1 O2 1_555 1_555
O1 C1 1_555 1_555
O3 S1 1_555 1_555
N1 S1 1_555 1_555
C1 C2 1_555 1_555
C2 H1 1_555 1_555
C3 C2 1_555 1_555
C4 N1 1_555 1_555
H2 C4 1_555 1_555
H3 C4 1_555 1_555
C5 N1 1_555 1_555
H4 C5 1_555 1_555
H5 C5 1_555 1_555
C6 C3 1_555 1_555
H6 C6 1_555 1_555
C7 C1 1_555 1_555
H7 C7 1_555 1_555
H8 C7 1_555 1_555
C8 S1 1_555 1_555
C9 C8 1_555 1_555
H9 C9 1_555 1_555
C10 C9 1_555 1_555
H10 C10 1_555 1_555
C11 C10 1_555 1_555
C12 C11 1_555 1_555
H11 C12 1_555 1_555
C13 C8 1_555 1_555
H12 C13 1_555 1_555
C14 C11 1_555 1_555
H13 C14 1_555 1_555
H14 C14 1_555 1_555
H15 C14 1_555 1_555
S2 O5 1_555 1_555
O4 C15 1_555 1_555
O6 S2 1_555 1_555
N2 S2 1_555 1_555
C15 C16 1_555 1_555
C16 H16 1_555 1_555
C17 C16 1_555 1_555
C18 N2 1_555 1_555
H17 C18 1_555 1_555
H18 C18 1_555 1_555
C19 N2 1_555 1_555
H19 C19 1_555 1_555
H20 C19 1_555 1_555
C20 C17 1_555 1_555
H21 C20 1_555 1_555
C21 C15 1_555 1_555
H22 C21 1_555 1_555
H23 C21 1_555 1_555
C22 S2 1_555 1_555
C23 C22 1_555 1_555
H24 C23 1_555 1_555
C24 C23 1_555 1_555
H25 C24 1_555 1_555
C25 C24 1_555 1_555
C26 C25 1_555 1_555
H26 C26 1_555 1_555
C27 C22 1_555 1_555
H27 C27 1_555 1_555
C28 C25 1_555 1_555
H28 C28 1_555 1_555
H29 C28 1_555 1_555
H30 C28 1_555 1_555
C3 C4 1_555 1_555
C5 C6 1_555 1_555
C6 C7 1_555 1_555
C12 C13 1_555 1_555
C17 C18 1_555 1_555
C19 C20 1_555 1_555
C20 C21 1_555 1_555
C26 C27 1_555 1_555

#END
