
#######################################################################
#
#                 Cambridge Crystallographic Data Centre
#                                CCDC 
#
#######################################################################
#
# If this CIF has been generated from an entry in the Cambridge 
# Structural Database, then it will include bibliographic, chemical, 
# crystal, experimental, refinement or atomic coordinate data resulting 
# from the CCDC's data processing and validation procedures.
#
#######################################################################

data_LUDWUD
_chemical_name_common            
12-Hydroxy-4b,7,7,10a,12a-pentamethyl-1,4,4a,4b,5,6,6a,7,8,9,10,10a,10b,11,12,12a-hexadecahydrochrysene-1,2-dicarbaldehyde
_chemical_formula_moiety         'C25 H38 O3'
_chemical_name_systematic        12-O-Deacetyl-12,18-diepiscalaradial
_chemical_properties_biological  
'tested for cytotoxic and antimicrobial activity'
_symmetry_cell_setting           orthorhombic
_symmetry_space_group_name_H-M   'P 21 21 21'
_symmetry_Int_Tables_number      19
_space_group_name_Hall           'P 2ac 2ab'
loop_
_symmetry_equiv_pos_site_id
_symmetry_equiv_pos_as_xyz
1 x,y,z
2 1/2-x,-y,1/2+z
3 1/2+x,1/2-y,-z
4 -x,1/2+y,1/2-z
_cell_length_a                   8.4330(8)
_cell_length_b                   11.9818(14)
_cell_length_c                   20.782(3)
_cell_angle_alpha                90
_cell_angle_beta                 90
_cell_angle_gamma                90
_cell_volume                     2099.87
_exptl_crystal_colour            colorless
_cell_formula_units_Z            4
loop_
_atom_site_label
_atom_site_type_symbol
_atom_site_fract_x
_atom_site_fract_y
_atom_site_fract_z
O1 O 0.50508(11) 0.69942(8) 0.49723(4)
O2 O 0.63937(13) 0.92917(9) 0.57390(6)
O3 O 0.08676(10) 0.73345(7) 0.62640(5)
H1 H 0.055(2) 0.7555(16) 0.5904(10)
C1 C -0.04755(14) 0.31787(10) 0.59101(7)
H2 H -0.1243 0.3728 0.6082
H3 H -0.0143 0.3437 0.5478
C2 C -0.13027(15) 0.20464(11) 0.58433(7)
H4 H -0.1721 0.1812 0.6267
H5 H -0.2209 0.2117 0.5543
C3 C -0.01555(15) 0.11632(10) 0.55924(6)
H6 H 0.0148 0.1358 0.5146
H7 H -0.0712 0.0436 0.5578
C4 C 0.13683(15) 0.10313(9) 0.59978(6)
C5 C 0.21169(14) 0.22092(9) 0.61016(5)
H8 H 0.2419 0.2461 0.5660
C6 C 0.36847(14) 0.21996(9) 0.64766(6)
H9 H 0.4367 0.1591 0.6312
H10 H 0.3466 0.2050 0.6937
C7 C 0.45644(13) 0.33157(9) 0.64133(6)
H11 H 0.4885 0.3419 0.5959
H12 H 0.5542 0.3284 0.6676
C8 C 0.35740(13) 0.43345(9) 0.66262(5)
C9 C 0.19284(13) 0.42680(9) 0.62815(5)
H13 H 0.2184 0.4314 0.5812
C10 C 0.09962(13) 0.31459(9) 0.63566(5)
C11 C 0.09578(13) 0.53242(9) 0.64200(6)
H14 H -0.0103 0.5256 0.6220
H15 H 0.0812 0.5407 0.6890
C12 C 0.17967(13) 0.63491(9) 0.61544(5)
H16 H 0.1914 0.6250 0.5679
C13 C 0.34649(13) 0.65202(9) 0.64425(5)
C14 C 0.44160(13) 0.54165(9) 0.63697(5)
H17 H 0.4533 0.5301 0.5896
C15 C 0.61214(14) 0.55475(10) 0.66282(6)
H18 H 0.6104 0.5461 0.7102
H19 H 0.6785 0.4940 0.6450
C16 C 0.68736(14) 0.66425(10) 0.64669(6)
H20 H 0.7974 0.6732 0.6551
C17 C 0.60851(14) 0.75028(10) 0.62112(6)
C18 C 0.43375(13) 0.74686(9) 0.60607(6)
H21 H 0.3877 0.8194 0.6208
C19 C 0.40977(14) 0.74092(10) 0.53393(6)
H22 H 0.3151 0.7713 0.5164
C20 C 0.69589(15) 0.85271(10) 0.60437(7)
H23 H 0.8028 0.8592 0.6183
C21 C 0.25134(17) 0.03152(11) 0.55951(8)
H24 H 0.1988 -0.0383 0.5472
H25 H 0.3461 0.0146 0.5850
H26 H 0.2820 0.0726 0.5207
C22 C 0.10124(17) 0.03919(11) 0.66241(7)
H27 H 0.0126 0.0750 0.6849
H28 H 0.1953 0.0400 0.6901
H29 H 0.0732 -0.0381 0.6521
C23 C 0.04009(16) 0.29702(11) 0.70534(6)
H30 H 0.0037 0.3684 0.7230
H31 H 0.1268 0.2679 0.7319
H32 H -0.0479 0.2436 0.7053
C24 C 0.34571(15) 0.43117(11) 0.73706(6)
H33 H 0.3423 0.3536 0.7519
H34 H 0.2490 0.4699 0.7507
H35 H 0.4384 0.4686 0.7556
C25 C 0.33336(14) 0.69403(10) 0.71410(5)
H36 H 0.2820 0.7674 0.7145
H37 H 0.4396 0.7002 0.7328
H38 H 0.2701 0.6412 0.7394
loop_
_geom_bond_atom_site_label_1
_geom_bond_atom_site_label_2
_geom_bond_site_symmetry_1
_geom_bond_site_symmetry_2
O1 C19 1_555 1_555
O2 C20 1_555 1_555
O3 H1 1_555 1_555
C1 H2 1_555 1_555
H3 C1 1_555 1_555
C2 C1 1_555 1_555
H4 C2 1_555 1_555
H5 C2 1_555 1_555
C3 C2 1_555 1_555
H6 C3 1_555 1_555
H7 C3 1_555 1_555
C4 C3 1_555 1_555
C5 C4 1_555 1_555
H8 C5 1_555 1_555
C6 C5 1_555 1_555
H9 C6 1_555 1_555
H10 C6 1_555 1_555
C7 C6 1_555 1_555
H11 C7 1_555 1_555
H12 C7 1_555 1_555
C8 C7 1_555 1_555
C9 C8 1_555 1_555
H13 C9 1_555 1_555
C10 C1 1_555 1_555
C11 C9 1_555 1_555
H14 C11 1_555 1_555
H15 C11 1_555 1_555
C12 O3 1_555 1_555
H16 C12 1_555 1_555
C13 C12 1_555 1_555
C14 C8 1_555 1_555
H17 C14 1_555 1_555
C15 C14 1_555 1_555
H18 C15 1_555 1_555
H19 C15 1_555 1_555
C16 C15 1_555 1_555
H20 C16 1_555 1_555
C17 C16 1_555 1_555
C18 C13 1_555 1_555
H21 C18 1_555 1_555
C19 C18 1_555 1_555
H22 C19 1_555 1_555
C20 C17 1_555 1_555
H23 C20 1_555 1_555
C21 C4 1_555 1_555
H24 C21 1_555 1_555
H25 C21 1_555 1_555
H26 C21 1_555 1_555
C22 C4 1_555 1_555
H27 C22 1_555 1_555
H28 C22 1_555 1_555
H29 C22 1_555 1_555
C23 C10 1_555 1_555
H30 C23 1_555 1_555
H31 C23 1_555 1_555
H32 C23 1_555 1_555
C24 C8 1_555 1_555
H33 C24 1_555 1_555
H34 C24 1_555 1_555
H35 C24 1_555 1_555
C25 C13 1_555 1_555
H36 C25 1_555 1_555
H37 C25 1_555 1_555
H38 C25 1_555 1_555
C5 C10 1_555 1_555
C9 C10 1_555 1_555
C11 C12 1_555 1_555
C13 C14 1_555 1_555
C17 C18 1_555 1_555

#END
