
#######################################################################
#
#                 Cambridge Crystallographic Data Centre
#                                CCDC 
#
#######################################################################
#
# If this CIF has been generated from an entry in the Cambridge 
# Structural Database, then it will include bibliographic, chemical, 
# crystal, experimental, refinement or atomic coordinate data resulting 
# from the CCDC's data processing and validation procedures.
#
#######################################################################

data_LUDWIR
_chemical_compound_source        'aerial parts of Abies chensiensis'
_chemical_name_common            17-Hydroxy-3-oxolanost-8-en-26,23-olide
_chemical_formula_moiety         'C30 H46 O4'
_chemical_name_systematic        'Neoabieslactone A'
_symmetry_cell_setting           orthorhombic
_symmetry_space_group_name_H-M   'P 21 21 21'
_symmetry_Int_Tables_number      19
_space_group_name_Hall           'P 2ac 2ab'
loop_
_symmetry_equiv_pos_site_id
_symmetry_equiv_pos_as_xyz
1 x,y,z
2 1/2-x,-y,1/2+z
3 -x,1/2+y,1/2-z
4 1/2+x,1/2-y,-z
_cell_length_a                   7.222(3)
_cell_length_b                   15.037(7)
_cell_length_c                   24.038(11)
_cell_angle_alpha                90
_cell_angle_beta                 90
_cell_angle_gamma                90
_cell_volume                     2610.46
_exptl_crystal_colour            colorless
_exptl_crystal_description       block
_chemical_melting_point          '188-190 deg.C'
_cell_formula_units_Z            4
loop_
_atom_site_label
_atom_site_type_symbol
_atom_site_fract_x
_atom_site_fract_y
_atom_site_fract_z
O1 O 1.1533(5) 1.05125(18) 0.79320(13)
O2 O 0.7736(3) 0.41485(12) 0.90854(8)
H1 H 0.8771 0.4033 0.8965
O3 O 0.6139(5) 0.15618(17) 1.15123(11)
O4 O 0.6571(3) 0.27340(14) 1.09768(9)
C1 C 1.1021(5) 0.81436(18) 0.78963(12)
H2 H 1.0365 0.7767 0.7634
H3 H 1.2192 0.7858 0.7981
C2 C 1.1416(5) 0.9047(2) 0.76163(14)
H4 H 1.2747 0.9123 0.7591
H5 H 1.0934 0.9028 0.7240
C3 C 1.0625(5) 0.9837(2) 0.79011(13)
C4 C 0.8681(5) 0.97796(19) 0.81374(13)
C5 C 0.8189(4) 0.87990(17) 0.82973(11)
H6 H 0.7621 0.8538 0.7965
C6 C 0.6729(5) 0.87397(19) 0.87515(13)
H7 H 0.5701 0.9129 0.8661
H8 H 0.7255 0.8935 0.9102
C7 C 0.6032(4) 0.77883(19) 0.88089(14)
H9 H 0.5354 0.7735 0.9156
H10 H 0.5178 0.7664 0.8508
C8 C 0.7550(4) 0.71053(18) 0.88007(11)
C9 C 0.9258(4) 0.72766(18) 0.86160(10)
C10 C 0.9883(4) 0.82081(17) 0.84315(11)
C11 C 1.0739(5) 0.65675(19) 0.85994(13)
H11 H 1.1811 0.6792 0.8798
H12 H 1.1106 0.6487 0.8214
C12 C 1.0266(4) 0.56511(18) 0.88383(12)
H13 H 0.9877 0.5260 0.8539
H14 H 1.1362 0.5396 0.9008
C13 C 0.8736(4) 0.57130(17) 0.92681(10)
C14 C 0.7034(4) 0.61689(17) 0.89791(11)
C15 C 0.5546(4) 0.60546(19) 0.94265(12)
H15 H 0.4316 0.6111 0.9269
H16 H 0.5693 0.6492 0.9720
C16 C 0.5879(4) 0.51045(19) 0.96484(13)
H17 H 0.5696 0.5091 1.0048
H18 H 0.5008 0.4695 0.9479
C17 C 0.7880(4) 0.48230(17) 0.95067(11)
C18 C 0.9406(4) 0.62868(19) 0.97583(12)
H19 H 0.9941 0.6827 0.9619
H20 H 1.0320 0.5965 0.9967
H21 H 0.8377 0.6427 0.9995
C19 C 1.1072(5) 0.8608(2) 0.88989(12)
H22 H 1.2102 0.8222 0.8974
H23 H 1.0335 0.8670 0.9229
H24 H 1.1520 0.9181 0.8786
C20 C 0.8858(4) 0.44051(19) 1.00194(12)
H25 H 0.8800 0.4840 1.0322
C21 C 1.0901(4) 0.4185(2) 0.99226(14)
H26 H 1.1422 0.3941 1.0257
H27 H 1.1557 0.4717 0.9823
H28 H 1.1006 0.3758 0.9627
C22 C 0.7804(5) 0.35703(19) 1.02122(13)
H29 H 0.6490 0.3667 1.0154
H30 H 0.8172 0.3074 0.9979
C23 C 0.8108(5) 0.3317(2) 1.08130(13)
H31 H 0.8113 0.3852 1.1046
C24 C 0.9844(6) 0.2745(2) 1.09413(16)
H32 H 1.0176 0.2375 1.0626
H33 H 1.0893 0.3114 1.1041
C25 C 0.9212(6) 0.2191(2) 1.14262(14)
H34 H 0.9778 0.1600 1.1401
C26 C 0.7180(6) 0.2110(2) 1.13297(13)
C27 C 0.9613(7) 0.2575(3) 1.19862(16)
H35 H 0.9177 0.2176 1.2269
H36 H 0.8994 0.3137 1.2023
H37 H 1.0923 0.2659 1.2027
C28 C 0.7378(6) 1.0083(3) 0.76654(17)
H38 H 0.7651 1.0688 0.7569
H39 H 0.6116 1.0039 0.7788
H40 H 0.7557 0.9709 0.7346
C29 C 0.8508(7) 1.0441(2) 0.86190(15)
H41 H 0.9306 1.0261 0.8918
H42 H 0.7250 1.0454 0.8747
H43 H 0.8861 1.1023 0.8494
C30 C 0.6329(5) 0.5703(2) 0.84466(12)
H44 H 0.5287 0.6023 0.8301
H45 H 0.5962 0.5105 0.8534
H46 H 0.7300 0.5690 0.8174
loop_
_geom_bond_atom_site_label_1
_geom_bond_atom_site_label_2
_geom_bond_site_symmetry_1
_geom_bond_site_symmetry_2
O1 C3 1_555 1_555
O2 H1 1_555 1_555
O3 C26 1_555 1_555
O4 C23 1_555 1_555
C1 H2 1_555 1_555
H3 C1 1_555 1_555
C2 C1 1_555 1_555
H4 C2 1_555 1_555
H5 C2 1_555 1_555
C3 C2 1_555 1_555
C4 C3 1_555 1_555
C5 C4 1_555 1_555
H6 C5 1_555 1_555
C6 C5 1_555 1_555
H7 C6 1_555 1_555
H8 C6 1_555 1_555
C7 C6 1_555 1_555
H9 C7 1_555 1_555
H10 C7 1_555 1_555
C8 C7 1_555 1_555
C9 C8 1_555 1_555
C10 C1 1_555 1_555
C11 C9 1_555 1_555
H11 C11 1_555 1_555
H12 C11 1_555 1_555
C12 C11 1_555 1_555
H13 C12 1_555 1_555
H14 C12 1_555 1_555
C13 C12 1_555 1_555
C14 C8 1_555 1_555
C15 C14 1_555 1_555
H15 C15 1_555 1_555
H16 C15 1_555 1_555
C16 C15 1_555 1_555
H17 C16 1_555 1_555
H18 C16 1_555 1_555
C17 O2 1_555 1_555
C18 C13 1_555 1_555
H19 C18 1_555 1_555
H20 C18 1_555 1_555
H21 C18 1_555 1_555
C19 C10 1_555 1_555
H22 C19 1_555 1_555
H23 C19 1_555 1_555
H24 C19 1_555 1_555
C20 C17 1_555 1_555
H25 C20 1_555 1_555
C21 C20 1_555 1_555
H26 C21 1_555 1_555
H27 C21 1_555 1_555
H28 C21 1_555 1_555
C22 C20 1_555 1_555
H29 C22 1_555 1_555
H30 C22 1_555 1_555
C23 C22 1_555 1_555
H31 C23 1_555 1_555
C24 C23 1_555 1_555
H32 C24 1_555 1_555
H33 C24 1_555 1_555
C25 C24 1_555 1_555
H34 C25 1_555 1_555
C26 O4 1_555 1_555
C27 C25 1_555 1_555
H35 C27 1_555 1_555
H36 C27 1_555 1_555
H37 C27 1_555 1_555
C28 C4 1_555 1_555
H38 C28 1_555 1_555
H39 C28 1_555 1_555
H40 C28 1_555 1_555
C29 C4 1_555 1_555
H41 C29 1_555 1_555
H42 C29 1_555 1_555
H43 C29 1_555 1_555
C30 C14 1_555 1_555
H44 C30 1_555 1_555
H45 C30 1_555 1_555
H46 C30 1_555 1_555
C5 C10 1_555 1_555
C9 C10 1_555 1_555
C13 C14 1_555 1_555
C13 C17 1_555 1_555
C16 C17 1_555 1_555
C25 C26 1_555 1_555

#END
