
#######################################################################
#
#                 Cambridge Crystallographic Data Centre
#                                CCDC 
#
#######################################################################
#
# If this CIF has been generated from an entry in the Cambridge 
# Structural Database, then it will include bibliographic, chemical, 
# crystal, experimental, refinement or atomic coordinate data resulting 
# from the CCDC's data processing and validation procedures.
#
#######################################################################

data_LUDXIS
_chemical_compound_source        'twigs of Swietenia macrophylla'
_chemical_name_common            
'11,12-Diacetoxy-8-(acetoxy(3-furyl)methyl)-9-(2-methoxy-2-oxoethyl)-3,8,14-trimethyl-17-oxo-2,4,18,22-tetraoxaheptacyclo[12.6.1.1$3,10!.0$1,12!.0$5,10!.0$5,20!.0$15,20!]docos-13-yl 2,3-dimethyloxirane-2-carboxylate'
_chemical_formula_moiety         'C40 H48 O17'
_chemical_name_systematic        'Swietenitin A'
_symmetry_cell_setting           orthorhombic
_symmetry_space_group_name_H-M   'P 21 21 21'
_symmetry_Int_Tables_number      19
_space_group_name_Hall           'P 2ac 2ab'
loop_
_symmetry_equiv_pos_site_id
_symmetry_equiv_pos_as_xyz
1 x,y,z
2 1/2-x,-y,1/2+z
3 -x,1/2+y,1/2-z
4 1/2+x,1/2-y,-z
_cell_length_a                   11.3136(6)
_cell_length_b                   15.2891(9)
_cell_length_c                   22.5337(13)
_cell_angle_alpha                90
_cell_angle_beta                 90
_cell_angle_gamma                90
_cell_volume                     3897.76
_exptl_crystal_colour            colorless
_exptl_crystal_description       prismatic
_chemical_melting_point          '240-242 deg.C'
_cell_formula_units_Z            4
_exptl_crystal_recrystallization_method methanol/water
loop_
_atom_site_label
_atom_site_type_symbol
_atom_site_fract_x
_atom_site_fract_y
_atom_site_fract_z
O1 O -0.3863(2) 0.6687(2) 0.27587(12)
O2 O -0.38438(17) 0.60547(14) 0.18920(10)
O3 O -0.26281(15) 0.42809(11) 0.08079(8)
O4 O -0.09566(14) 0.45254(10) 0.02459(7)
O5 O -0.22299(15) 0.56154(11) 0.03400(8)
O6 O 0.04709(15) 0.44840(12) 0.23127(7)
O7 O 0.0571(2) 0.33998(14) 0.29874(9)
O8 O 0.2805(2) 0.3882(3) 0.33158(11)
O9 O -0.08356(16) 0.33053(11) 0.11764(8)
O10 O 0.0713(2) 0.27458(14) 0.16805(10)
O11 O 0.11056(15) 0.41178(11) 0.08669(8)
O12 O 0.24783(17) 0.46418(16) 0.14950(10)
O13 O -0.0245(2) 0.46852(16) -0.10156(9)
O14 O 0.1036(2) 0.36970(14) -0.06712(11)
O15 O 0.4027(3) 0.75567(19) 0.16590(12)
O16 O 0.30827(15) 0.63151(11) 0.00022(7)
O17 O 0.4169(2) 0.52148(17) 0.03576(11)
C1 C -0.2043(2) 0.45494(15) 0.13319(11)
C2 C -0.0751(2) 0.41724(14) 0.14188(11)
C3 C -0.0650(2) 0.41775(16) 0.21044(11)
H1 H -0.0786 0.3585 0.2255
C4 C -0.1675(2) 0.47682(17) 0.22974(12)
C5 C -0.1445(2) 0.56853(15) 0.19935(11)
H2 H -0.0590 0.5772 0.1956
C6 C -0.1973(3) 0.64812(18) 0.23023(13)
H3 H -0.1639 0.6529 0.2697
H4 H -0.1757 0.7004 0.2084
C7 C -0.3293(3) 0.6435(2) 0.23493(14)
C8 C -0.0327(2) 0.51896(14) 0.05698(10)
C9 C -0.1342(2) 0.58228(15) 0.07848(11)
C10 C -0.1970(2) 0.55466(15) 0.13670(11)
C11 C -0.0983(2) 0.67841(15) 0.07589(12)
H5 H -0.1409 0.7110 0.1060
H6 H -0.1189 0.7024 0.0374
C12 C 0.0350(2) 0.68811(15) 0.08612(11)
H7 H 0.0572 0.6566 0.1218
H8 H 0.0539 0.7494 0.0920
C13 C 0.1059(2) 0.65261(14) 0.03330(11)
C14 C 0.0423(2) 0.56846(15) 0.01032(10)
H9 H -0.0169 0.5914 -0.0173
C15 C 0.1203(2) 0.51065(17) -0.02906(11)
H10 H 0.1698 0.5482 -0.0533
H11 H 0.1722 0.4766 -0.0037
C16 C 0.0549(3) 0.44905(18) -0.06921(12)
C17 C 0.2351(2) 0.63550(15) 0.05386(10)
H12 H 0.2381 0.5784 0.0736
C18 C 0.1044(2) 0.72026(17) -0.01721(11)
H13 H 0.1498 0.7705 -0.0058
H14 H 0.0243 0.7376 -0.0251
H15 H 0.1379 0.6948 -0.0523
C19 C -0.3223(2) 0.59679(17) 0.13375(13)
H16 H -0.3146 0.6545 0.1163
H17 H -0.3706 0.5620 0.1071
C20 C 0.2901(2) 0.70195(17) 0.09388(12)
C21 C 0.3543(3) 0.6819(2) 0.14170(16)
H18 H 0.3647 0.6256 0.1565
C22 C 0.3014(2) 0.79417(19) 0.08725(14)
H19 H 0.2675 0.8284 0.0577
C23 C 0.3696(3) 0.8219(2) 0.13135(16)
H20 H 0.3914 0.8799 0.1373
C24 C -0.1841(3) 0.4786(2) 0.29614(14)
H21 H -0.1910 0.4199 0.3108
H22 H -0.2547 0.5106 0.3056
H23 H -0.1173 0.5065 0.3143
C25 C -0.2633(2) 0.43236(17) 0.19173(13)
H24 H -0.2684 0.3698 0.1986
H25 H -0.3404 0.4593 0.1962
C26 C 0.0227(2) 0.47094(15) 0.10901(10)
H26 H 0.0591 0.5129 0.1364
C27 C 0.0991(3) 0.4017(2) 0.27480(11)
C28 C 0.2183(3) 0.4391(2) 0.28813(13)
C29 C 0.3189(3) 0.3841(3) 0.27169(17)
H27 H 0.2977 0.3300 0.2509
C30 C 0.4383(3) 0.4197(4) 0.2562(2)
H28 H 0.4580 0.4664 0.2829
H29 H 0.4372 0.4415 0.2162
H30 H 0.4962 0.3741 0.2594
C31 C 0.2278(4) 0.5367(3) 0.2921(2)
H31 H 0.1734 0.5580 0.3214
H32 H 0.2091 0.5620 0.2543
H33 H 0.3069 0.5525 0.3032
C32 C -0.2171(2) 0.46989(17) 0.02927(12)
C33 C -0.2833(3) 0.4365(2) -0.02275(14)
H34 H -0.2533 0.4633 -0.0582
H35 H -0.3656 0.4504 -0.0184
H36 H -0.2738 0.3742 -0.0253
C34 C -0.0058(3) 0.26755(17) 0.13173(14)
C35 C -0.0305(5) 0.1888(2) 0.0939(2)
H37 H -0.0106 0.2016 0.0534
H38 H -0.1128 0.1741 0.0965
H39 H 0.0163 0.1404 0.1075
C36 C 0.2189(2) 0.4123(2) 0.11297(14)
C37 C 0.2931(3) 0.3405(3) 0.0885(2)
H40 H 0.3706 0.3626 0.0797
H41 H 0.2576 0.3185 0.0528
H42 H 0.2990 0.2942 0.1171
C38 C 0.0521(5) 0.3055(3) -0.1060(2)
H43 H -0.0262 0.2916 -0.0926
H44 H 0.0998 0.2536 -0.1058
H45 H 0.0484 0.3286 -0.1456
C39 C 0.3936(2) 0.57139(18) -0.00275(13)
C40 C 0.4533(3) 0.5749(2) -0.06166(14)
H46 H 0.5346 0.5911 -0.0564
H47 H 0.4147 0.6174 -0.0863
H48 H 0.4491 0.5184 -0.0802
loop_
_geom_bond_atom_site_label_1
_geom_bond_atom_site_label_2
_geom_bond_site_symmetry_1
_geom_bond_site_symmetry_2
O1 C7 1_555 1_555
O2 C7 1_555 1_555
O3 C1 1_555 1_555
O4 C8 1_555 1_555
O5 C9 1_555 1_555
O6 C3 1_555 1_555
O7 C27 1_555 1_555
O8 C28 1_555 1_555
O9 C2 1_555 1_555
O10 C34 1_555 1_555
O11 C26 1_555 1_555
O12 C36 1_555 1_555
O13 C16 1_555 1_555
O14 C16 1_555 1_555
O15 C21 1_555 1_555
O16 C17 1_555 1_555
O17 C39 1_555 1_555
C1 C2 1_555 1_555
C2 C3 1_555 1_555
C3 H1 1_555 1_555
C4 C3 1_555 1_555
C5 C4 1_555 1_555
H2 C5 1_555 1_555
C6 C5 1_555 1_555
H3 C6 1_555 1_555
H4 C6 1_555 1_555
C7 C6 1_555 1_555
C8 C9 1_555 1_555
C9 C10 1_555 1_555
C10 C1 1_555 1_555
C11 C9 1_555 1_555
H5 C11 1_555 1_555
H6 C11 1_555 1_555
C12 C11 1_555 1_555
H7 C12 1_555 1_555
H8 C12 1_555 1_555
C13 C12 1_555 1_555
C14 C8 1_555 1_555
H9 C14 1_555 1_555
C15 C14 1_555 1_555
H10 C15 1_555 1_555
H11 C15 1_555 1_555
C16 C15 1_555 1_555
C17 C13 1_555 1_555
H12 C17 1_555 1_555
C18 C13 1_555 1_555
H13 C18 1_555 1_555
H14 C18 1_555 1_555
H15 C18 1_555 1_555
C19 O2 1_555 1_555
H16 C19 1_555 1_555
H17 C19 1_555 1_555
C20 C17 1_555 1_555
C21 C20 1_555 1_555
H18 C21 1_555 1_555
C22 C20 1_555 1_555
H19 C22 1_555 1_555
C23 O15 1_555 1_555
H20 C23 1_555 1_555
C24 C4 1_555 1_555
H21 C24 1_555 1_555
H22 C24 1_555 1_555
H23 C24 1_555 1_555
C25 C1 1_555 1_555
H24 C25 1_555 1_555
H25 C25 1_555 1_555
C26 C2 1_555 1_555
H26 C26 1_555 1_555
C27 O6 1_555 1_555
C28 C27 1_555 1_555
C29 O8 1_555 1_555
H27 C29 1_555 1_555
C30 C29 1_555 1_555
H28 C30 1_555 1_555
H29 C30 1_555 1_555
H30 C30 1_555 1_555
C31 C28 1_555 1_555
H31 C31 1_555 1_555
H32 C31 1_555 1_555
H33 C31 1_555 1_555
C32 O3 1_555 1_555
C33 C32 1_555 1_555
H34 C33 1_555 1_555
H35 C33 1_555 1_555
H36 C33 1_555 1_555
C34 O9 1_555 1_555
C35 C34 1_555 1_555
H37 C35 1_555 1_555
H38 C35 1_555 1_555
H39 C35 1_555 1_555
C36 O11 1_555 1_555
C37 C36 1_555 1_555
H40 C37 1_555 1_555
H41 C37 1_555 1_555
H42 C37 1_555 1_555
C38 O14 1_555 1_555
H43 C38 1_555 1_555
H44 C38 1_555 1_555
H45 C38 1_555 1_555
C39 O16 1_555 1_555
C40 C39 1_555 1_555
H46 C40 1_555 1_555
H47 C40 1_555 1_555
H48 C40 1_555 1_555
O4 C32 1_555 1_555
O5 C32 1_555 1_555
C4 C25 1_555 1_555
C5 C10 1_555 1_555
C8 C26 1_555 1_555
C10 C19 1_555 1_555
C13 C14 1_555 1_555
C22 C23 1_555 1_555
C28 C29 1_555 1_555

#END
