
#######################################################################
#
#                 Cambridge Crystallographic Data Centre
#                                CCDC 
#
#######################################################################
#
# If this CIF has been generated from an entry in the Cambridge 
# Structural Database, then it will include bibliographic, chemical, 
# crystal, experimental, refinement or atomic coordinate data resulting 
# from the CCDC's data processing and validation procedures.
#
#######################################################################

data_LUDXOZ
_chemical_formula_moiety         'C30 H48 Na1 P6 1+,C32 H12 B1 F24 1-'
_chemical_name_systematic        
'tris(1,2-Phenylenebis(dimethylphosphine))-sodium tetrakis(3,5-bis(trifluoromethyl)phenyl)borate'
_symmetry_cell_setting           triclinic
_symmetry_space_group_name_H-M   'P -1'
_symmetry_Int_Tables_number      2
_space_group_name_Hall           '-P 1'
loop_
_symmetry_equiv_pos_site_id
_symmetry_equiv_pos_as_xyz
1 x,y,z
2 -x,-y,-z
_cell_length_a                   12.5084(10)
_cell_length_b                   16.4798(10)
_cell_length_c                   17.5637(10)
_cell_angle_alpha                79.047(4)
_cell_angle_beta                 78.403(4)
_cell_angle_gamma                81.625(4)
_cell_volume                     3460.19
_exptl_crystal_colour            colorless
_cell_formula_units_Z            2
loop_
_atom_site_label
_atom_site_type_symbol
_atom_site_fract_x
_atom_site_fract_y
_atom_site_fract_z
Na1 Na -0.08817(8) 0.30246(6) 0.28282(6)
P1 P 0.05813(6) 0.37339(5) 0.35644(4)
P2 P 0.10709(6) 0.37502(4) 0.16812(4)
P3 P -0.18313(6) 0.15210(5) 0.38423(4)
P4 P 0.00464(5) 0.14113(4) 0.22812(4)
P5 P -0.26456(6) 0.32352(4) 0.18526(5)
P6 P -0.20428(5) 0.47804(4) 0.25538(4)
C1 C 0.0115(5) 0.4109(3) 0.4502(2)
H1 H -0.0194 0.3663 0.4901
H2 H -0.0449 0.4584 0.4439
H3 H 0.0738 0.4281 0.4668
C2 C 0.1882(4) 0.3165(4) 0.3755(3)
H4 H 0.2271 0.2940 0.3283
H5 H 0.1747 0.2706 0.4196
H6 H 0.2330 0.3540 0.3888
C3 C 0.1018(2) 0.46686(17) 0.28879(17)
C4 C 0.1094(2) 0.5399(2) 0.3160(2)
H7 H 0.0939 0.5406 0.3711
C5 C 0.1389(3) 0.6109(2) 0.2650(3)
H8 H 0.1425 0.6599 0.2850
C6 C 0.1630(3) 0.6108(2) 0.1851(3)
H9 H 0.1838 0.6596 0.1499
C7 C 0.1569(2) 0.53940(19) 0.1562(2)
H10 H 0.1747 0.5395 0.1010
C8 C 0.12520(19) 0.46711(16) 0.20663(17)
C9 C 0.1026(3) 0.4151(2) 0.0646(2)
H11 H 0.0395 0.4576 0.0605
H12 H 0.0953 0.3695 0.0380
H13 H 0.1704 0.4397 0.0396
C10 C 0.2460(3) 0.3199(2) 0.1573(2)
H14 H 0.2505 0.2757 0.1263
H15 H 0.2630 0.2956 0.2096
H16 H 0.2990 0.3591 0.1304
C11 C -0.3178(3) 0.1554(3) 0.4482(3)
H17 H -0.3353 0.0986 0.4697
H18 H -0.3736 0.1846 0.4176
H19 H -0.3168 0.1849 0.4915
C12 C -0.1033(5) 0.0829(3) 0.4507(3)
H20 H -0.1398 0.0326 0.4724
H21 H -0.0972 0.1111 0.4937
H22 H -0.0298 0.0676 0.4218
C13 C -0.1950(2) 0.08579(15) 0.31379(15)
C14 C -0.2858(2) 0.04153(17) 0.32357(18)
H23 H -0.3385 0.0405 0.3708
C15 C -0.3006(2) -0.00055(17) 0.2664(2)
H24 H -0.3637 -0.0291 0.2743
C16 C -0.2242(2) -0.00148(17) 0.19779(19)
H25 H -0.2349 -0.0299 0.1581
C17 C -0.1314(2) 0.03956(16) 0.18734(16)
H26 H -0.0779 0.0379 0.1407
C18 C -0.11527(19) 0.08335(14) 0.24436(15)
C19 C 0.1111(3) 0.0599(2) 0.2567(3)
H27 H 0.1127 0.0129 0.2295
H28 H 0.0953 0.0413 0.3138
H29 H 0.1825 0.0818 0.2421
C20 C 0.0459(4) 0.1585(3) 0.1220(2)
H30 H 0.1052 0.1945 0.1069
H31 H -0.0169 0.1853 0.0975
H32 H 0.0719 0.1051 0.1040
C21 C -0.2373(3) 0.3611(2) 0.0785(2)
H33 H -0.1888 0.3187 0.0520
H34 H -0.2018 0.4124 0.0680
H35 H -0.3067 0.3724 0.0586
C22 C -0.3402(3) 0.23589(18) 0.1862(2)
H36 H -0.3779 0.2175 0.2400
H37 H -0.2888 0.1899 0.1678
H38 H -0.3944 0.2534 0.1514
C23 C -0.3737(2) 0.40242(16) 0.22095(16)
C24 C -0.4840(2) 0.39669(18) 0.2194(2)
H39 H -0.5019 0.3522 0.1986
C25 C -0.5675(2) 0.45463(19) 0.2475(2)
H40 H -0.6418 0.4495 0.2463
C26 C -0.5419(2) 0.51984(19) 0.27712(19)
H41 H -0.5987 0.5597 0.2963
C27 C -0.4340(2) 0.52727(18) 0.27892(17)
H42 H -0.4175 0.5726 0.2992
C28 C -0.3481(2) 0.46920(15) 0.25130(15)
C29 C -0.2140(3) 0.56264(19) 0.31151(18)
H43 H -0.1401 0.5725 0.3155
H44 H -0.2562 0.5473 0.3645
H45 H -0.2510 0.6134 0.2846
C30 C -0.1583(2) 0.5366(2) 0.15769(17)
H46 H -0.1506 0.5007 0.1179
H47 H -0.0873 0.5560 0.1562
H48 H -0.2125 0.5846 0.1466
B1 B 0.3916(2) -0.17496(16) 0.24627(15)
C31 C 0.41056(18) -0.07765(14) 0.24020(14)
C32 C 0.4381(2) -0.02719(15) 0.16658(15)
H49 H 0.4516 -0.0516 0.1202
C33 C 0.4462(2) 0.05740(15) 0.15941(16)
C34 C 0.4281(2) 0.09561(15) 0.22586(16)
H50 H 0.4346 0.1531 0.2212
C35 C 0.4003(2) 0.04720(16) 0.29884(16)
C36 C 0.39093(19) -0.03737(15) 0.30594(15)
H51 H 0.3706 -0.0686 0.3569
C37 C 0.4768(3) 0.10652(18) 0.07899(18)
C38 C 0.3793(2) 0.08585(18) 0.37233(19)
C39 C 0.41568(18) -0.23094(14) 0.33009(13)
C40 C 0.5066(2) -0.21990(16) 0.36120(15)
H52 H 0.5495 -0.1761 0.3356
C41 C 0.5360(2) -0.27093(17) 0.42825(16)
C42 C 0.4762(2) -0.33525(17) 0.46771(16)
H53 H 0.4961 -0.3699 0.5136
C43 C 0.3866(2) -0.34765(16) 0.43830(15)
C44 C 0.3569(2) -0.29680(15) 0.37094(14)
H54 H 0.2948 -0.3072 0.3523
C45 C 0.6329(3) -0.2563(2) 0.4596(2)
C46 C 0.3177(3) -0.4139(2) 0.48325(19)
C47 C 0.48032(18) -0.21903(14) 0.17966(13)
C48 C 0.58868(19) -0.19992(15) 0.16042(14)
H55 H 0.6085 -0.1579 0.1835
C49 C 0.66860(19) -0.24012(16) 0.10864(14)
C50 C 0.64340(19) -0.30076(15) 0.07264(14)
H56 H 0.6975 -0.3272 0.0362
C51 C 0.53636(19) -0.32206(14) 0.09131(14)
C52 C 0.45708(18) -0.28245(14) 0.14417(14)
H57 H 0.3850 -0.2989 0.1566
C53 C 0.7826(2) -0.21466(18) 0.09216(16)
C54 C 0.5096(2) -0.38748(16) 0.05161(15)
C55 C 0.26472(19) -0.17017(14) 0.23285(14)
C56 C 0.17466(19) -0.17101(14) 0.29467(15)
H58 H 0.1874 -0.1779 0.3472
C57 C 0.0668(2) -0.16206(15) 0.28179(16)
C58 C 0.0440(2) -0.14965(16) 0.20635(16)
H59 H -0.0294 -0.1444 0.1976
C59 C 0.1322(2) -0.14514(15) 0.14347(16)
C60 C 0.23994(19) -0.15563(15) 0.15670(15)
H60 H 0.2984 -0.1528 0.1127
C61 C -0.0250(2) -0.16667(19) 0.35126(18)
C62 C 0.1116(2) -0.12996(19) 0.06070(18)
F1 F 0.4190(3) 0.09454(17) 0.02843(14)
F2 F 0.4685(2) 0.18745(12) 0.07846(13)
F3 F 0.5796(2) 0.08507(19) 0.04596(16)
F4 F 0.4124(2) 0.16107(13) 0.35895(14)
F5 F 0.27413(17) 0.09295(17) 0.40502(14)
F6 F 0.43202(19) 0.04116(13) 0.42813(12)
F7 F 0.72183(18) -0.2998(2) 0.4343(2)
F8 F 0.65028(19) -0.17816(15) 0.44850(16)
F9 F 0.6150(2) -0.2758(2) 0.53993(14)
F10 F 0.25098(17) -0.43531(13) 0.44174(12)
F11 F 0.25270(19) -0.38990(15) 0.54772(12)
F12 F 0.37671(19) -0.48363(14) 0.50915(17)
F13 F 0.85449(13) -0.26155(11) 0.04665(11)
F14 F 0.82251(14) -0.22000(14) 0.15859(11)
F15 F 0.78616(13) -0.13584(11) 0.05586(11)
F16 F 0.41183(14) -0.41403(11) 0.08274(10)
F17 F 0.50754(16) -0.36003(11) -0.02512(10)
F18 F 0.58400(14) -0.45469(10) 0.05403(12)
F19 F -0.12216(16) -0.1599(2) 0.33242(14)
F20 F -0.0150(2) -0.23504(16) 0.40093(16)
F21 F -0.0318(2) -0.10505(19) 0.39085(17)
F22 F 0.0088(2) -0.1048(3) 0.0544(2)
F23 F 0.1618(3) -0.0625(3) 0.01772(18)
F24 F 0.1530(4) -0.1880(3) 0.0218(2)
F25? F 0.0379(10) -0.0722(7) 0.0432(7)
F26? F 0.1937(6) -0.1250(7) 0.0064(4)
F27? F 0.0723(7) -0.2054(5) 0.0502(5)
loop_
_geom_bond_atom_site_label_1
_geom_bond_atom_site_label_2
_geom_bond_site_symmetry_1
_geom_bond_site_symmetry_2
Na1 P1 1_555 1_555
P1 C1 1_555 1_555
P2 Na1 1_555 1_555
P3 Na1 1_555 1_555
P4 Na1 1_555 1_555
P5 Na1 1_555 1_555
P6 Na1 1_555 1_555
C1 H1 1_555 1_555
H2 C1 1_555 1_555
H3 C1 1_555 1_555
C2 P1 1_555 1_555
H4 C2 1_555 1_555
H5 C2 1_555 1_555
H6 C2 1_555 1_555
C3 P1 1_555 1_555
C4 C3 1_555 1_555
H7 C4 1_555 1_555
C5 C4 1_555 1_555
H8 C5 1_555 1_555
C6 C5 1_555 1_555
H9 C6 1_555 1_555
C7 C6 1_555 1_555
H10 C7 1_555 1_555
C8 P2 1_555 1_555
C9 P2 1_555 1_555
H11 C9 1_555 1_555
H12 C9 1_555 1_555
H13 C9 1_555 1_555
C10 P2 1_555 1_555
H14 C10 1_555 1_555
H15 C10 1_555 1_555
H16 C10 1_555 1_555
C11 P3 1_555 1_555
H17 C11 1_555 1_555
H18 C11 1_555 1_555
H19 C11 1_555 1_555
C12 P3 1_555 1_555
H20 C12 1_555 1_555
H21 C12 1_555 1_555
H22 C12 1_555 1_555
C13 P3 1_555 1_555
C14 C13 1_555 1_555
H23 C14 1_555 1_555
C15 C14 1_555 1_555
H24 C15 1_555 1_555
C16 C15 1_555 1_555
H25 C16 1_555 1_555
C17 C16 1_555 1_555
H26 C17 1_555 1_555
C18 P4 1_555 1_555
C19 P4 1_555 1_555
H27 C19 1_555 1_555
H28 C19 1_555 1_555
H29 C19 1_555 1_555
C20 P4 1_555 1_555
H30 C20 1_555 1_555
H31 C20 1_555 1_555
H32 C20 1_555 1_555
C21 P5 1_555 1_555
H33 C21 1_555 1_555
H34 C21 1_555 1_555
H35 C21 1_555 1_555
C22 P5 1_555 1_555
H36 C22 1_555 1_555
H37 C22 1_555 1_555
H38 C22 1_555 1_555
C23 P5 1_555 1_555
C24 C23 1_555 1_555
H39 C24 1_555 1_555
C25 C24 1_555 1_555
H40 C25 1_555 1_555
C26 C25 1_555 1_555
H41 C26 1_555 1_555
C27 C26 1_555 1_555
H42 C27 1_555 1_555
C28 P6 1_555 1_555
C29 P6 1_555 1_555
H43 C29 1_555 1_555
H44 C29 1_555 1_555
H45 C29 1_555 1_555
C30 P6 1_555 1_555
H46 C30 1_555 1_555
H47 C30 1_555 1_555
H48 C30 1_555 1_555
B1 C31 1_555 1_555
C31 C32 1_555 1_555
C32 H49 1_555 1_555
C33 C32 1_555 1_555
C34 C33 1_555 1_555
H50 C34 1_555 1_555
C35 C34 1_555 1_555
C36 C31 1_555 1_555
H51 C36 1_555 1_555
C37 C33 1_555 1_555
C38 C35 1_555 1_555
C39 B1 1_555 1_555
C40 C39 1_555 1_555
H52 C40 1_555 1_555
C41 C40 1_555 1_555
C42 C41 1_555 1_555
H53 C42 1_555 1_555
C43 C42 1_555 1_555
C44 C39 1_555 1_555
H54 C44 1_555 1_555
C45 C41 1_555 1_555
C46 C43 1_555 1_555
C47 B1 1_555 1_555
C48 C47 1_555 1_555
H55 C48 1_555 1_555
C49 C48 1_555 1_555
C50 C49 1_555 1_555
H56 C50 1_555 1_555
C51 C50 1_555 1_555
C52 C47 1_555 1_555
H57 C52 1_555 1_555
C53 C49 1_555 1_555
C54 C51 1_555 1_555
C55 B1 1_555 1_555
C56 C55 1_555 1_555
H58 C56 1_555 1_555
C57 C56 1_555 1_555
C58 C57 1_555 1_555
H59 C58 1_555 1_555
C59 C58 1_555 1_555
C60 C55 1_555 1_555
H60 C60 1_555 1_555
C61 C57 1_555 1_555
C62 C59 1_555 1_555
F1 C37 1_555 1_555
F2 C37 1_555 1_555
F3 C37 1_555 1_555
F4 C38 1_555 1_555
F5 C38 1_555 1_555
F6 C38 1_555 1_555
F7 C45 1_555 1_555
F8 C45 1_555 1_555
F9 C45 1_555 1_555
F10 C46 1_555 1_555
F11 C46 1_555 1_555
F12 C46 1_555 1_555
F13 C53 1_555 1_555
F14 C53 1_555 1_555
F15 C53 1_555 1_555
F16 C54 1_555 1_555
F17 C54 1_555 1_555
F18 C54 1_555 1_555
F19 C61 1_555 1_555
F20 C61 1_555 1_555
F21 C61 1_555 1_555
F22 C62 1_555 1_555
F23 C62 1_555 1_555
F24 C62 1_555 1_555
C3 C8 1_555 1_555
C7 C8 1_555 1_555
C13 C18 1_555 1_555
C17 C18 1_555 1_555
C23 C28 1_555 1_555
C27 C28 1_555 1_555
C35 C36 1_555 1_555
C43 C44 1_555 1_555
C51 C52 1_555 1_555
C59 C60 1_555 1_555

#END
