
#######################################################################
#
#                 Cambridge Crystallographic Data Centre
#                                CCDC 
#
#######################################################################
#
# If this CIF has been generated from an entry in the Cambridge 
# Structural Database, then it will include bibliographic, chemical, 
# crystal, experimental, refinement or atomic coordinate data resulting 
# from the CCDC's data processing and validation procedures.
#
#######################################################################

data_LUDYIU
_chemical_formula_moiety         'C23 H18 N2 O4'
_chemical_name_systematic        
3-(4-Nitrophenyl)-2-phenyl-5-(pyridin-2-yl)-6-oxabicyclo[3.2.0]heptan-7-one
_symmetry_cell_setting           monoclinic
_symmetry_space_group_name_H-M   'P 21/c'
_symmetry_Int_Tables_number      14
_space_group_name_Hall           '-P 2ybc'
loop_
_symmetry_equiv_pos_site_id
_symmetry_equiv_pos_as_xyz
1 x,y,z
2 -x,1/2+y,1/2-z
3 -x,-y,-z
4 x,1/2-y,1/2+z
_cell_length_a                   10.8247(5)
_cell_length_b                   12.1491(5)
_cell_length_c                   14.0090(6)
_cell_angle_alpha                90
_cell_angle_beta                 96.356(2)
_cell_angle_gamma                90
_cell_volume                     1831
_exptl_crystal_colour            colorless
_exptl_crystal_description       plate
_cell_formula_units_Z            4
_exptl_crystal_recrystallization_method 'ethyl acetate/petroleum ether'
loop_
_atom_site_label
_atom_site_type_symbol
_atom_site_fract_x
_atom_site_fract_y
_atom_site_fract_z
O1 O 0.17732(8) 0.26298(7) 0.03315(6)
O2 O 0.31681(10) 0.13670(8) 0.09916(7)
O3 O 0.09345(10) 0.67329(9) 0.58778(7)
O4 O 0.11090(9) 0.81117(8) 0.49278(7)
N1 N 0.30638(10) 0.50757(9) -0.06504(8)
N2 N 0.11097(10) 0.71211(9) 0.50950(8)
C1 C 0.34184(11) 0.34499(10) 0.09592(8)
H1 H 0.4174 0.3583 0.0624
C2 C 0.28752(13) 0.22973(11) 0.08211(9)
C3 C 0.21829(11) 0.38037(10) 0.03797(9)
C4 C 0.14585(12) 0.44546(10) 0.10552(8)
H2 H 0.0567 0.4255 0.0962
H3 H 0.1540 0.5255 0.0945
C5 C 0.20384(11) 0.41414(10) 0.20714(8)
H4 H 0.1713 0.3402 0.2235
C6 C 0.34435(11) 0.40223(10) 0.19431(8)
H5 H 0.3755 0.4786 0.1851
C7 C 0.22163(11) 0.42798(10) -0.06050(9)
C8 C 0.14045(12) 0.39414(11) -0.13878(9)
H6 H 0.0808 0.3380 -0.1322
C9 C 0.14860(13) 0.44419(12) -0.22653(9)
H7 H 0.0946 0.4229 -0.2815
C10 C 0.23627(13) 0.52548(12) -0.23305(10)
H8 H 0.2445 0.5607 -0.2926
C11 C 0.31190(13) 0.55439(12) -0.15085(9)
H9 H 0.3714 0.6110 -0.1556
C12 C 0.17934(11) 0.49403(10) 0.28558(8)
C13 C 0.17673(12) 0.60779(11) 0.27057(9)
H10 H 0.1913 0.6363 0.2097
C14 C 0.15332(12) 0.67934(11) 0.34306(9)
H11 H 0.1504 0.7565 0.3322
C15 C 0.13424(11) 0.63633(10) 0.43181(9)
C16 C 0.13895(12) 0.52486(11) 0.44988(9)
H12 H 0.1274 0.4970 0.5116
C17 C 0.16086(12) 0.45433(10) 0.37590(9)
H13 H 0.1633 0.3772 0.3872
C18 C 0.42487(11) 0.35559(10) 0.28014(8)
C19 C 0.48746(12) 0.42873(11) 0.34514(9)
H14 H 0.4808 0.5056 0.3333
C20 C 0.55930(13) 0.39139(12) 0.42681(9)
H15 H 0.6005 0.4426 0.4707
C21 C 0.57111(12) 0.27984(12) 0.44447(9)
H16 H 0.6210 0.2540 0.5000
C22 C 0.50986(12) 0.20595(11) 0.38071(9)
H17 H 0.5180 0.1292 0.3925
C23 C 0.43645(12) 0.24325(11) 0.29939(9)
H18 H 0.3938 0.1917 0.2566
loop_
_geom_bond_atom_site_label_1
_geom_bond_atom_site_label_2
_geom_bond_site_symmetry_1
_geom_bond_site_symmetry_2
O1 C2 1_555 1_555
O2 C2 1_555 1_555
O3 N2 1_555 1_555
O4 N2 1_555 1_555
N1 C7 1_555 1_555
N2 C15 1_555 1_555
C1 H1 1_555 1_555
C2 C1 1_555 1_555
C3 O1 1_555 1_555
C4 C3 1_555 1_555
H2 C4 1_555 1_555
H3 C4 1_555 1_555
C5 C4 1_555 1_555
H4 C5 1_555 1_555
C6 C1 1_555 1_555
H5 C6 1_555 1_555
C7 C3 1_555 1_555
C8 C7 1_555 1_555
H6 C8 1_555 1_555
C9 C8 1_555 1_555
H7 C9 1_555 1_555
C10 C9 1_555 1_555
H8 C10 1_555 1_555
C11 N1 1_555 1_555
H9 C11 1_555 1_555
C12 C5 1_555 1_555
C13 C12 1_555 1_555
H10 C13 1_555 1_555
C14 C13 1_555 1_555
H11 C14 1_555 1_555
C15 C14 1_555 1_555
C16 C15 1_555 1_555
H12 C16 1_555 1_555
C17 C12 1_555 1_555
H13 C17 1_555 1_555
C18 C6 1_555 1_555
C19 C18 1_555 1_555
H14 C19 1_555 1_555
C20 C19 1_555 1_555
H15 C20 1_555 1_555
C21 C20 1_555 1_555
H16 C21 1_555 1_555
C22 C21 1_555 1_555
H17 C22 1_555 1_555
C23 C18 1_555 1_555
H18 C23 1_555 1_555
C1 C3 1_555 1_555
C5 C6 1_555 1_555
C10 C11 1_555 1_555
C16 C17 1_555 1_555
C22 C23 1_555 1_555

#END
