
#######################################################################
#
#                 Cambridge Crystallographic Data Centre
#                                CCDC 
#
#######################################################################
#
# If this CIF has been generated from an entry in the Cambridge 
# Structural Database, then it will include bibliographic, chemical, 
# crystal, experimental, refinement or atomic coordinate data resulting 
# from the CCDC's data processing and validation procedures.
#
#######################################################################

data_LUDYOA
_chemical_formula_moiety         'C23 H19 N1 O3,C1 H1 Cl3'
_chemical_name_systematic        
'5-(1-Oxypyridin-2-yl)-2,3-diphenyl-6-oxabicyclo[3.2.0]heptan-7-one chloroform solvate'
_symmetry_cell_setting           monoclinic
_symmetry_space_group_name_H-M   'P 21/c'
_symmetry_Int_Tables_number      14
_space_group_name_Hall           '-P 2ybc'
loop_
_symmetry_equiv_pos_site_id
_symmetry_equiv_pos_as_xyz
1 x,y,z
2 -x,1/2+y,1/2-z
3 -x,-y,-z
4 x,1/2-y,1/2+z
_cell_length_a                   15.3285(8)
_cell_length_b                   11.4221(6)
_cell_length_c                   12.7961(6)
_cell_angle_alpha                90
_cell_angle_beta                 95.471(2)
_cell_angle_gamma                90
_cell_volume                     2230.18
_exptl_crystal_colour            colorless
_exptl_crystal_description       block
_cell_formula_units_Z            4
_exptl_crystal_recrystallization_method chloroform
loop_
_atom_site_label
_atom_site_type_symbol
_atom_site_fract_x
_atom_site_fract_y
_atom_site_fract_z
O1 O 0.95833(16) 0.1120(2) 0.3081(2)
O2 O 0.98251(18) 0.2119(2) 0.4634(2)
O3 O 0.69646(16) 0.0419(2) 0.23233(19)
N1 N 0.75156(19) -0.0457(3) 0.2431(2)
C1 C 0.8372(2) 0.1787(3) 0.3546(3)
H1 H 0.7987 0.1386 0.4023
C2 C 0.9341(2) 0.1774(3) 0.3919(3)
C3 C 0.8650(2) 0.1020(3) 0.2636(3)
C4 C 0.8490(2) 0.1720(3) 0.1621(3)
H2 H 0.7945 0.1460 0.1209
H3 H 0.8986 0.1630 0.1185
C5 C 0.8408(2) 0.3002(3) 0.1983(3)
H4 H 0.9011 0.3333 0.2130
C6 C 0.7987(2) 0.2916(3) 0.3033(3)
H5 H 0.7347 0.2770 0.2850
C7 C 0.8391(2) -0.0242(3) 0.2604(3)
C8 C 0.8971(2) -0.1172(3) 0.2751(3)
H6 H 0.9581 -0.1021 0.2884
C9 C 0.8672(3) -0.2317(3) 0.2705(3)
H7 H 0.9071 -0.2954 0.2792
C10 C 0.7780(3) -0.2512(3) 0.2531(3)
H8 H 0.7558 -0.3289 0.2505
C11 C 0.7215(2) -0.1579(3) 0.2395(3)
H9 H 0.6602 -0.1719 0.2274
C12 C 0.7891(2) 0.3799(3) 0.1205(3)
C13 C 0.7045(3) 0.3491(4) 0.0806(3)
H10 H 0.6806 0.2762 0.0995
C14 C 0.6548(3) 0.4246(4) 0.0131(3)
H11 H 0.5968 0.4037 -0.0131
C15 C 0.6894(3) 0.5290(4) -0.0154(3)
H12 H 0.6551 0.5802 -0.0611
C16 C 0.7729(3) 0.5604(4) 0.0209(3)
H13 H 0.7966 0.6324 -0.0006
C17 C 0.8237(3) 0.4861(3) 0.0902(3)
H14 H 0.8815 0.5082 0.1162
C18 C 0.8060(2) 0.4002(3) 0.3714(3)
C19 C 0.7322(3) 0.4423(3) 0.4143(3)
H15 H 0.6775 0.4037 0.4000
C20 C 0.7384(3) 0.5422(4) 0.4791(3)
H16 H 0.6879 0.5713 0.5080
C21 C 0.8175(3) 0.5973(3) 0.5005(3)
H17 H 0.8215 0.6644 0.5445
C22 C 0.8911(3) 0.5568(3) 0.4589(3)
H18 H 0.9458 0.5952 0.4745
C23 C 0.8851(3) 0.4586(3) 0.3936(3)
H19 H 0.9358 0.4314 0.3638
Cl1 Cl 0.43671(7) 0.07997(10) 0.30089(10)
Cl2 Cl 0.52876(8) 0.29201(11) 0.25821(17)
Cl3 Cl 0.49480(19) 0.1055(3) 0.0976(2)
C24 C 0.5179(3) 0.1427(4) 0.2314(3)
H20 H 0.5750 0.1000 0.2427
Cl4? Cl 0.4871(5) 0.1736(8) 0.0955(7)
loop_
_geom_bond_atom_site_label_1
_geom_bond_atom_site_label_2
_geom_bond_site_symmetry_1
_geom_bond_site_symmetry_2
O1 C2 1_555 1_555
O2 C2 1_555 1_555
O3 N1 1_555 1_555
N1 C7 1_555 1_555
C1 H1 1_555 1_555
C2 C1 1_555 1_555
C3 O1 1_555 1_555
C4 C3 1_555 1_555
H2 C4 1_555 1_555
H3 C4 1_555 1_555
C5 C4 1_555 1_555
H4 C5 1_555 1_555
C6 C1 1_555 1_555
H5 C6 1_555 1_555
C7 C3 1_555 1_555
C8 C7 1_555 1_555
H6 C8 1_555 1_555
C9 C8 1_555 1_555
H7 C9 1_555 1_555
C10 C9 1_555 1_555
H8 C10 1_555 1_555
C11 N1 1_555 1_555
H9 C11 1_555 1_555
C12 C5 1_555 1_555
C13 C12 1_555 1_555
H10 C13 1_555 1_555
C14 C13 1_555 1_555
H11 C14 1_555 1_555
C15 C14 1_555 1_555
H12 C15 1_555 1_555
C16 C15 1_555 1_555
H13 C16 1_555 1_555
C17 C12 1_555 1_555
H14 C17 1_555 1_555
C18 C6 1_555 1_555
C19 C18 1_555 1_555
H15 C19 1_555 1_555
C20 C19 1_555 1_555
H16 C20 1_555 1_555
C21 C20 1_555 1_555
H17 C21 1_555 1_555
C22 C21 1_555 1_555
H18 C22 1_555 1_555
C23 C18 1_555 1_555
H19 C23 1_555 1_555
Cl1 C24 1_555 1_555
Cl2 C24 1_555 1_555
Cl3 C24 1_555 1_555
C24 H20 1_555 1_555
C1 C3 1_555 1_555
C5 C6 1_555 1_555
C10 C11 1_555 1_555
C16 C17 1_555 1_555
C22 C23 1_555 1_555

#END
