
#######################################################################
#
#                 Cambridge Crystallographic Data Centre
#                                CCDC 
#
#######################################################################
#
# If this CIF has been generated from an entry in the Cambridge 
# Structural Database, then it will include bibliographic, chemical, 
# crystal, experimental, refinement or atomic coordinate data resulting 
# from the CCDC's data processing and validation procedures.
#
#######################################################################

data_LUFLII
_chemical_formula_moiety         'C9 H7 F3 O4'
_chemical_name_systematic        
'Methyl (4-oxo-6-(trifluoromethyl)-4H-pyran-2-yl)acetate'
_symmetry_cell_setting           monoclinic
_symmetry_space_group_name_H-M   'P 21/c'
_symmetry_Int_Tables_number      14
_space_group_name_Hall           '-P 2ybc'
loop_
_symmetry_equiv_pos_site_id
_symmetry_equiv_pos_as_xyz
1 x,y,z
2 -x,1/2+y,1/2-z
3 -x,-y,-z
4 x,1/2-y,1/2+z
_cell_length_a                   12.5362(7)
_cell_length_b                   4.65657(16)
_cell_length_c                   16.8665(9)
_cell_angle_alpha                90
_cell_angle_beta                 94.503(4)
_cell_angle_gamma                90
_cell_volume                     981.554
_exptl_crystal_colour            colorless
_exptl_crystal_description       prism
_chemical_melting_point          83-85deg.C
_cell_formula_units_Z            4
loop_
_atom_site_label
_atom_site_type_symbol
_atom_site_fract_x
_atom_site_fract_y
_atom_site_fract_z
F1 F 0.21422(7) 0.94371(19) 0.42474(4)
F2 F 0.35428(6) 0.9461(2) 0.50571(5)
F3 F 0.26101(7) 1.32712(18) 0.48898(5)
O1 O 0.23065(7) 1.06420(19) 0.63024(5)
O2 O 0.36994(8) 0.7356(2) 0.75589(6)
O3 O 0.40084(7) 1.0590(2) 0.85197(5)
O4 O -0.02706(8) 0.5340(3) 0.61898(5)
C1 C 0.18308(9) 0.9908(3) 0.69779(6)
C2 C 0.09700(9) 0.8230(3) 0.69618(7)
H1 H 0.0656 0.7830 0.7444
C3 C 0.04975(9) 0.6993(3) 0.62247(7)
C4 C 0.10362(9) 0.7828(3) 0.55252(7)
H2 H 0.0778 0.7157 0.5014
C5 C 0.18847(9) 0.9523(3) 0.56042(6)
C6 C 0.25459(10) 1.0438(3) 0.49422(7)
C7 C 0.24305(10) 1.1121(3) 0.76999(7)
H3 H 0.1976 1.1047 0.8153
H4 H 0.2608 1.3157 0.7603
C8 C 0.34468(10) 0.9455(3) 0.79038(7)
C9 C 0.49877(12) 0.9094(4) 0.87763(9)
H5 H 0.5347 1.0093 0.9234
H6 H 0.5460 0.9053 0.8340
H7 H 0.4819 0.7124 0.8928
loop_
_geom_bond_atom_site_label_1
_geom_bond_atom_site_label_2
_geom_bond_site_symmetry_1
_geom_bond_site_symmetry_2
F1 C6 1_555 1_555
F2 C6 1_555 1_555
F3 C6 1_555 1_555
O1 C1 1_555 1_555
O2 C8 1_555 1_555
O3 C8 1_555 1_555
O4 C3 1_555 1_555
C1 C2 1_555 1_555
C2 H1 1_555 1_555
C3 C2 1_555 1_555
C4 C3 1_555 1_555
H2 C4 1_555 1_555
C5 O1 1_555 1_555
C6 C5 1_555 1_555
C7 C1 1_555 1_555
H3 C7 1_555 1_555
H4 C7 1_555 1_555
C8 C7 1_555 1_555
C9 O3 1_555 1_555
H5 C9 1_555 1_555
H6 C9 1_555 1_555
H7 C9 1_555 1_555
C4 C5 1_555 1_555

#END
