
#######################################################################
#
#                 Cambridge Crystallographic Data Centre
#                                CCDC 
#
#######################################################################
#
# If this CIF has been generated from an entry in the Cambridge 
# Structural Database, then it will include bibliographic, chemical, 
# crystal, experimental, refinement or atomic coordinate data resulting 
# from the CCDC's data processing and validation procedures.
#
#######################################################################

data_LUFNAB
_chemical_formula_moiety         'C21 H24 N3 P3'
_chemical_name_systematic        
cis-1,3,5-Trimethyl-1,3,5-triphenyltriphosphazene
_symmetry_cell_setting           monoclinic
_symmetry_space_group_name_H-M   'P 21/n'
_symmetry_Int_Tables_number      14
_space_group_name_Hall           '-P 2yn'
loop_
_symmetry_equiv_pos_site_id
_symmetry_equiv_pos_as_xyz
1 x,y,z
2 1/2+x,1/2-y,1/2+z
3 -x,-y,-z
4 1/2-x,1/2+y,1/2-z
_cell_length_a                   10.713(1)
_cell_length_b                   21.127(2)
_cell_length_c                   10.869(2)
_cell_angle_alpha                90
_cell_angle_beta                 118.300(9)
_cell_angle_gamma                90
_cell_volume                     2165.99
_exptl_crystal_colour            colorless
_exptl_crystal_description       prismatic
_chemical_melting_point          '156 deg.C'
_cell_formula_units_Z            4
loop_
_atom_site_label
_atom_site_type_symbol
_atom_site_fract_x
_atom_site_fract_y
_atom_site_fract_z
P1 P 0.27751(5) 0.09476(2) 0.84700(4)
P2 P 0.52366(5) 0.10814(2) 0.82142(5)
P3 P 0.33900(5) 0.00766(2) 0.69085(4)
N1 N 0.4902(1) 0.04122(7) 0.7433(1)
N2 N 0.2486(2) 0.02863(6) 0.7661(1)
N3 N 0.4254(2) 0.12895(7) 0.8886(1)
C1 C 0.2879(2) 0.00035(9) 0.4150(2)
C2 C 0.2348(2) 0.01947(8) 0.5042(2)
C3 C 0.3664(2) -0.07609(8) 0.7107(2)
C4 C 0.1331(2) 0.14864(8) 0.7472(2)
C5 C 0.1068(2) 0.05031(9) 0.4483(2)
C6 C 0.0859(2) 0.0440(1) 0.2201(2)
C7 C 0.0326(2) 0.0628(1) 0.3067(2)
C8 C 0.2623(2) 0.0806(1) 1.0014(2)
C9 C 0.2138(2) 0.0129(1) 0.2742(2)
C10 C 0.5205(2) 0.16954(9) 0.7037(2)
C11 C -0.0053(2) 0.13013(9) 0.7062(2)
C12 C 0.4693(2) 0.1572(1) 0.5632(2)
C13 C 0.7032(2) 0.1072(1) 0.9582(2)
C14 C 0.1578(2) 0.2081(1) 0.7097(2)
C15 C -0.1171(2) 0.1701(1) 0.6290(2)
C16 C -0.0919(3) 0.2288(1) 0.5912(3)
C17 C 0.4649(3) 0.2044(1) 0.4725(3)
C18 C 0.5681(3) 0.2302(1) 0.7520(3)
C19 C 0.0445(3) 0.2478(1) 0.6306(3)
C20 C 0.5126(3) 0.2639(1) 0.5222(4)
C21 C 0.5646(4) 0.2768(1) 0.6604(4)
H1 H 0.3777 -0.0221 0.4524
H2 H 0.3700 -0.0901 0.7971
H3 H 0.2921 -0.0984 0.6360
H4 H 0.4547 -0.0875 0.7145
H5 H 0.0683 0.0640 0.5091
H6 H 0.0319 0.0528 0.1210
H7 H -0.0579 0.0845 0.2676
H8 H 0.2988 0.1162 1.0641
H9 H 0.1656 0.0747 0.9791
H10 H 0.3150 0.0440 1.0494
H11 H 0.2522 0.0006 0.2125
H12 H -0.0227 0.0880 0.7336
H13 H 0.4351 0.1147 0.5286
H14 H 0.7057 0.1059 1.0481
H15 H 0.7512 0.0699 0.9514
H16 H 0.7531 0.1434 0.9546
H17 H 0.2541 0.2218 0.7383
H18 H -0.2144 0.1574 0.6005
H19 H -0.1703 0.2577 0.5389
H20 H 0.4261 0.1952 0.3717
H21 H 0.6032 0.2400 0.8510
H22 H 0.0616 0.2887 0.6027
H23 H 0.5109 0.2970 0.4594
H24 H 0.6008 0.3189 0.6949
loop_
_geom_bond_atom_site_label_1
_geom_bond_atom_site_label_2
_geom_bond_site_symmetry_1
_geom_bond_site_symmetry_2
P1 N2 1_555 1_555
P2 N1 1_555 1_555
P3 N1 1_555 1_555
N2 P3 1_555 1_555
N3 P1 1_555 1_555
C1 C2 1_555 1_555
C2 P3 1_555 1_555
C3 P3 1_555 1_555
C4 P1 1_555 1_555
C5 C2 1_555 1_555
C6 C7 1_555 1_555
C7 C5 1_555 1_555
C8 P1 1_555 1_555
C9 C1 1_555 1_555
C10 P2 1_555 1_555
C11 C4 1_555 1_555
C12 C10 1_555 1_555
C13 P2 1_555 1_555
C14 C4 1_555 1_555
C15 C11 1_555 1_555
C16 C15 1_555 1_555
C17 C12 1_555 1_555
C18 C10 1_555 1_555
C19 C14 1_555 1_555
C20 C17 1_555 1_555
C21 C18 1_555 1_555
H1 C1 1_555 1_555
H2 C3 1_555 1_555
H3 C3 1_555 1_555
H4 C3 1_555 1_555
H5 C5 1_555 1_555
H6 C6 1_555 1_555
H7 C7 1_555 1_555
H8 C8 1_555 1_555
H9 C8 1_555 1_555
H10 C8 1_555 1_555
H11 C9 1_555 1_555
H12 C11 1_555 1_555
H13 C12 1_555 1_555
H14 C13 1_555 1_555
H15 C13 1_555 1_555
H16 C13 1_555 1_555
H17 C14 1_555 1_555
H18 C15 1_555 1_555
H19 C16 1_555 1_555
H20 C17 1_555 1_555
H21 C18 1_555 1_555
H22 C19 1_555 1_555
H23 C20 1_555 1_555
H24 C21 1_555 1_555
P2 N3 1_555 1_555
C6 C9 1_555 1_555
C16 C19 1_555 1_555
C20 C21 1_555 1_555

#END
