
#######################################################################
#
#                 Cambridge Crystallographic Data Centre
#                                CCDC 
#
#######################################################################
#
# If this CIF has been generated from an entry in the Cambridge 
# Structural Database, then it will include bibliographic, chemical, 
# crystal, experimental, refinement or atomic coordinate data resulting 
# from the CCDC's data processing and validation procedures.
#
#######################################################################

data_LUFSOW
_chemical_formula_moiety         'C21 H23 F3 N2 O3 S2'
_chemical_name_systematic        
2-Methyl-N-(2,2,2-trifluoro-1-(3-methyl-1-(phenylsulfonyl)-1H-indol-2-yl)ethyl)propane-2-sulfinamide
_symmetry_cell_setting           orthorhombic
_symmetry_space_group_name_H-M   'P 21 21 21'
_symmetry_Int_Tables_number      19
_space_group_name_Hall           'P 2ac 2ab'
loop_
_symmetry_equiv_pos_site_id
_symmetry_equiv_pos_as_xyz
1 x,y,z
2 1/2-x,-y,1/2+z
3 -x,1/2+y,1/2-z
4 1/2+x,1/2-y,-z
_cell_length_a                   9.2233(11)
_cell_length_b                   13.7372(15)
_cell_length_c                   17.801(2)
_cell_angle_alpha                90
_cell_angle_beta                 90
_cell_angle_gamma                90
_cell_volume                     2255.43
_cell_formula_units_Z            4
loop_
_atom_site_label
_atom_site_type_symbol
_atom_site_fract_x
_atom_site_fract_y
_atom_site_fract_z
C1 C 0.4891(2) 0.73479(15) 0.26968(11)
C2 C 0.6098(2) 0.76974(18) 0.23634(13)
C3 C 0.6591(3) 0.8278(2) 0.09998(16)
H1 H 0.7565 0.8427 0.1071
C4 C 0.5941(4) 0.8411(2) 0.03074(16)
H2 H 0.6483 0.8650 -0.0093
C5 C 0.4505(4) 0.8194(2) 0.02057(15)
H3 H 0.4093 0.8294 -0.0265
C6 C 0.3653(3) 0.7835(2) 0.07714(12)
H4 H 0.2678 0.7695 0.0694
C7 C 0.4308(3) 0.76887(15) 0.14679(11)
C8 C 0.5748(3) 0.79110(16) 0.15926(13)
C9 C 0.1463(2) 0.82690(19) 0.27560(13)
C10 C 0.1575(4) 0.9120(2) 0.2359(2)
H5 H 0.1982 0.9122 0.1881
C11 C 0.1087(6) 0.9966(3) 0.2671(3)
H6 H 0.1144 1.0546 0.2404
C12 C 0.0502(4) 0.9956(3) 0.3391(3)
H7 H 0.0190 1.0534 0.3610
C13 C 0.0385(3) 0.9119(3) 0.37698(16)
H8 H -0.0017 0.9119 0.4249
C14 C 0.0857(3) 0.8255(2) 0.34558(13)
H9 H 0.0762 0.7673 0.3717
C15 C 0.4666(2) 0.70099(15) 0.34956(11)
H10 H 0.3619 0.6976 0.3583
C16 C 0.5127(3) 0.94462(18) 0.46725(15)
C17 C 0.6503(4) 0.9211(2) 0.5108(2)
H11 H 0.7069 0.8747 0.4831
H12 H 0.6251 0.8943 0.5588
H13 H 0.7057 0.9796 0.5178
C18 C 0.5427(7) 0.9872(3) 0.3912(2)
H14 H 0.5767 1.0529 0.3968
H15 H 0.4552 0.9870 0.3620
H16 H 0.6153 0.9490 0.3662
C19 C 0.4124(5) 1.0104(3) 0.5124(2)
H17 H 0.4589 1.0720 0.5207
H18 H 0.3914 0.9805 0.5599
H19 H 0.3238 1.0202 0.4852
C20 C 0.5277(3) 0.59955(19) 0.36150(14)
C21 C 0.7569(3) 0.7857(3) 0.26857(18)
H20 H 0.7587 0.7634 0.3197
H21 H 0.7798 0.8538 0.2671
H22 H 0.8271 0.7501 0.2397
F1 F 0.4780(2) 0.53753(11) 0.31136(10)
F2 F 0.6710(2) 0.59719(14) 0.35731(11)
F3 F 0.4928(3) 0.56540(14) 0.42895(10)
N1 N 0.37534(19) 0.73018(12) 0.21519(9)
N2 N 0.5270(2) 0.76882(15) 0.40458(10)
H23 H 0.6189 0.7753 0.4112
O1 O 0.1855(2) 0.64097(12) 0.28645(9)
O2 O 0.1304(2) 0.70855(16) 0.16215(10)
O3 O 0.3829(3) 0.78936(15) 0.52812(11)
S1 S 0.19947(6) 0.71723(4) 0.23327(3)
S2 S 0.40694(7) 0.83253(5) 0.45349(3)
loop_
_geom_bond_atom_site_label_1
_geom_bond_atom_site_label_2
_geom_bond_site_symmetry_1
_geom_bond_site_symmetry_2
C1 C2 1_555 1_555
C2 C8 1_555 1_555
C3 H1 1_555 1_555
C4 C3 1_555 1_555
H2 C4 1_555 1_555
C5 C4 1_555 1_555
H3 C5 1_555 1_555
C6 C5 1_555 1_555
H4 C6 1_555 1_555
C7 C6 1_555 1_555
C8 C3 1_555 1_555
C9 C10 1_555 1_555
C10 H5 1_555 1_555
C11 C10 1_555 1_555
H6 C11 1_555 1_555
C12 C11 1_555 1_555
H7 C12 1_555 1_555
C13 C12 1_555 1_555
H8 C13 1_555 1_555
C14 C9 1_555 1_555
H9 C14 1_555 1_555
C15 C1 1_555 1_555
H10 C15 1_555 1_555
C16 C17 1_555 1_555
C17 H11 1_555 1_555
H12 C17 1_555 1_555
H13 C17 1_555 1_555
C18 C16 1_555 1_555
H14 C18 1_555 1_555
H15 C18 1_555 1_555
H16 C18 1_555 1_555
C19 C16 1_555 1_555
H17 C19 1_555 1_555
H18 C19 1_555 1_555
H19 C19 1_555 1_555
C20 C15 1_555 1_555
C21 C2 1_555 1_555
H20 C21 1_555 1_555
H21 C21 1_555 1_555
H22 C21 1_555 1_555
F1 C20 1_555 1_555
F2 C20 1_555 1_555
F3 C20 1_555 1_555
N1 C1 1_555 1_555
N2 C15 1_555 1_555
H23 N2 1_555 1_555
O1 S1 1_555 1_555
O2 S1 1_555 1_555
O3 S2 1_555 1_555
S1 C9 1_555 1_555
S2 C16 1_555 1_555
C7 C8 1_555 1_555
C7 N1 1_555 1_555
C13 C14 1_555 1_555
N1 S1 1_555 1_555
N2 S2 1_555 1_555

#END
