
#######################################################################
#
#                 Cambridge Crystallographic Data Centre
#                                CCDC 
#
#######################################################################
#
# If this CIF has been generated from an entry in the Cambridge 
# Structural Database, then it will include bibliographic, chemical, 
# crystal, experimental, refinement or atomic coordinate data resulting 
# from the CCDC's data processing and validation procedures.
#
#######################################################################

data_LUFTEN
_chemical_formula_moiety         'C19 H27 N1 O4 Se1'
_chemical_name_systematic        
't-Butyl (3a-(hydroxymethyl)-6-(phenylselanyl)hexahydro-2H-cyclopenta[b]furan-5-yl)carbamate'
_symmetry_cell_setting           triclinic
_symmetry_space_group_name_H-M   'P 1'
_symmetry_Int_Tables_number      1
_space_group_name_Hall           'P 1'
loop_
_symmetry_equiv_pos_site_id
_symmetry_equiv_pos_as_xyz
1 x,y,z
_cell_length_a                   7.01090(10)
_cell_length_b                   8.72170(10)
_cell_length_c                   8.73440(10)
_cell_angle_alpha                65.1970(10)
_cell_angle_beta                 89.9430(10)
_cell_angle_gamma                84.8980(10)
_cell_volume                     482.506
_exptl_crystal_colour            colorless
_exptl_crystal_description       block
_cell_formula_units_Z            1
loop_
_atom_site_label
_atom_site_type_symbol
_atom_site_fract_x
_atom_site_fract_y
_atom_site_fract_z
Se1 Se 0.97988(3) 0.74321(3) -0.37264(3)
N1 N 0.7431(8) 1.0222(9) -0.6541(7)
H1 H 0.6383 1.0278 -0.6045
O1 O 0.9176(10) 1.2334(10) -0.1994(9)
H2 H 0.8783 1.1849 -0.1041
O2 O 1.3515(6) 1.1139(5) -0.5470(6)
O3 O 0.8856(6) 0.9601(7) -0.8557(6)
O4 O 0.5820(6) 0.8954(6) -0.7767(5)
C1 C 1.0629(10) 1.1278(13) -0.2266(10)
H3 H 1.0403 1.0100 -0.1625
H4 H 1.1858 1.1451 -0.1884
C2 C 1.0666(8) 1.1683(7) -0.4155(7)
C3 C 1.1554(9) 1.3329(8) -0.5229(10)
H5 H 1.0926 1.3894 -0.6341
H6 H 1.1471 1.4101 -0.4687
C4 C 1.3623(9) 1.2712(8) -0.5333(10)
H7 H 1.4203 1.3523 -0.6313
H8 H 1.4368 1.2536 -0.4328
C5 C 1.2030(7) 1.0288(7) -0.4400(6)
H9 H 1.2565 0.9420 -0.3315
C6 C 1.0846(8) 0.9521(7) -0.5319(7)
H10 H 1.1589 0.9315 -0.6177
C7 C 0.9126(7) 1.0833(7) -0.6121(7)
H11 H 0.9537 1.1729 -0.7158
C8 C 0.8705(8) 1.1587(8) -0.4859(8)
H12 H 0.7938 1.0870 -0.3963
H13 H 0.8020 1.2709 -0.5410
C9 C 1.2077(10) 0.6054(8) -0.2534(8)
C10 C 1.1805(14) 0.4826(12) -0.0966(11)
H14 H 1.0603 0.4769 -0.0505
C11 C 1.3323(15) 0.3665(11) -0.0062(11)
H15 H 1.3127 0.2817 0.0997
C12 C 1.5097(15) 0.3752(10) -0.0706(12)
H16 H 1.6121 0.2991 -0.0083
C13 C 1.5360(11) 0.5001(10) -0.2319(11)
H17 H 1.6562 0.5058 -0.2779
C14 C 1.3851(10) 0.6149(8) -0.3234(9)
H18 H 1.4028 0.6977 -0.4309
C15 C 0.7471(8) 0.9575(7) -0.7686(7)
C16 C 0.5628(10) 0.7932(9) -0.8732(9)
C17 C 0.3570(13) 0.7466(12) -0.8406(11)
H19 H 0.3441 0.6808 -0.7220
H20 H 0.3268 0.6815 -0.9012
H21 H 0.2708 0.8484 -0.8782
C18 C 0.7050(15) 0.6359(11) -0.8015(14)
H22 H 0.8329 0.6682 -0.8255
H23 H 0.6791 0.5608 -0.8522
H24 H 0.6931 0.5791 -0.6816
C19 C 0.5821(12) 0.8983(11) -1.0595(9)
H25 H 0.7118 0.9264 -1.0804
H26 H 0.4972 1.0008 -1.0955
H27 H 0.5497 0.8348 -1.1212
loop_
_geom_bond_atom_site_label_1
_geom_bond_atom_site_label_2
_geom_bond_site_symmetry_1
_geom_bond_site_symmetry_2
Se1 C6 1_555 1_555
N1 H1 1_555 1_555
O1 H2 1_555 1_555
O2 C4 1_555 1_555
O3 C15 1_555 1_555
O4 C15 1_555 1_555
C1 O1 1_555 1_555
H3 C1 1_555 1_555
H4 C1 1_555 1_555
C2 C1 1_555 1_555
C3 C2 1_555 1_555
H5 C3 1_555 1_555
H6 C3 1_555 1_555
C4 C3 1_555 1_555
H7 C4 1_555 1_555
H8 C4 1_555 1_555
C5 O2 1_555 1_555
H9 C5 1_555 1_555
C6 C5 1_555 1_555
H10 C6 1_555 1_555
C7 N1 1_555 1_555
H11 C7 1_555 1_555
C8 C2 1_555 1_555
H12 C8 1_555 1_555
H13 C8 1_555 1_555
C9 Se1 1_555 1_555
C10 C9 1_555 1_555
H14 C10 1_555 1_555
C11 C10 1_555 1_555
H15 C11 1_555 1_555
C12 C11 1_555 1_555
H16 C12 1_555 1_555
C13 C12 1_555 1_555
H17 C13 1_555 1_555
C14 C9 1_555 1_555
H18 C14 1_555 1_555
C15 N1 1_555 1_555
C16 O4 1_555 1_555
C17 C16 1_555 1_555
H19 C17 1_555 1_555
H20 C17 1_555 1_555
H21 C17 1_555 1_555
C18 C16 1_555 1_555
H22 C18 1_555 1_555
H23 C18 1_555 1_555
H24 C18 1_555 1_555
C19 C16 1_555 1_555
H25 C19 1_555 1_555
H26 C19 1_555 1_555
H27 C19 1_555 1_555
C2 C5 1_555 1_555
C6 C7 1_555 1_555
C7 C8 1_555 1_555
C13 C14 1_555 1_555

#END
