
#######################################################################
#
#                 Cambridge Crystallographic Data Centre
#                                CCDC 
#
#######################################################################
#
# If this CIF has been generated from an entry in the Cambridge 
# Structural Database, then it will include bibliographic, chemical, 
# crystal, experimental, refinement or atomic coordinate data resulting 
# from the CCDC's data processing and validation procedures.
#
#######################################################################

data_LUFVOZ
_chemical_formula_moiety         'C13 H14 F1 N3 O2'
_chemical_name_systematic        
1-(2-Fluoro-4-nitrophenyl)-4-(prop-2-yn-1-yl)piperazine
_symmetry_cell_setting           monoclinic
_symmetry_space_group_name_H-M   'P 21/c'
_symmetry_Int_Tables_number      14
_space_group_name_Hall           '-P 2ybc'
loop_
_symmetry_equiv_pos_site_id
_symmetry_equiv_pos_as_xyz
1 x,y,z
2 -x,1/2+y,1/2-z
3 -x,-y,-z
4 x,1/2-y,1/2+z
_cell_length_a                   9.7366(8)
_cell_length_b                   17.9148(13)
_cell_length_c                   7.5270(6)
_cell_angle_alpha                90
_cell_angle_beta                 102.397(8)
_cell_angle_gamma                90
_cell_volume                     1282.32
_exptl_crystal_colour            colorless
_exptl_crystal_description       needle
_cell_formula_units_Z            4
loop_
_atom_site_label
_atom_site_type_symbol
_atom_site_fract_x
_atom_site_fract_y
_atom_site_fract_z
C1 C 0.82220(17) 0.03686(9) 0.7805(2)
N1 N 0.71084(15) 0.07940(8) 0.8112(2)
C2 C 1.04744(19) -0.05100(10) 0.7237(2)
N2 N 0.48398(15) 0.18321(8) 0.7963(2)
N3 N 1.16246(18) -0.09574(11) 0.6875(2)
C3 C 0.9204(2) -0.08494(10) 0.7289(3)
H1 H 0.9085 -0.1362 0.7121
C4 C 0.73745(18) 0.15874(10) 0.8486(3)
H2 H 0.7459 0.1841 0.7376
H3 H 0.8254 0.1648 0.9367
F1 F 0.69282(14) -0.07591(7) 0.7743(3)
C5 C 1.06542(19) 0.02448(11) 0.7500(3)
H4 H 1.1518 0.0465 0.7493
C6 C 0.95445(18) 0.06718(10) 0.7774(2)
H5 H 0.9677 0.1183 0.7946
O1 O 1.14425(17) -0.16316(10) 0.6663(3)
C7 C 0.2375(2) 0.21947(10) 0.7415(3)
C8 C 0.81303(19) -0.04093(10) 0.7595(3)
C9 C 0.57182(19) 0.06838(11) 0.6901(3)
H6 H 0.5533 0.0154 0.6733
H7 H 0.5718 0.0901 0.5721
C10 C 0.45726(19) 0.10401(11) 0.7682(3)
H8 H 0.3671 0.0967 0.6856
H9 H 0.4535 0.0805 0.8832
C11 C 0.3730(2) 0.21892(12) 0.8710(3)
H10 H 0.3630 0.1926 0.9801
H11 H 0.4004 0.2699 0.9050
O2 O 1.27335(17) -0.06539(11) 0.6811(3)
C12 C 0.6191(2) 0.19319(11) 0.9219(3)
H12 H 0.6157 0.1703 1.0377
H13 H 0.6371 0.2461 0.9425
C13 C 0.1284(2) 0.22136(11) 0.6392(3)
H14 H 0.0418 0.2229 0.5580
loop_
_geom_bond_atom_site_label_1
_geom_bond_atom_site_label_2
_geom_bond_site_symmetry_1
_geom_bond_site_symmetry_2
C1 N1 1_555 1_555
N1 C4 1_555 1_555
C2 N3 1_555 1_555
N2 C10 1_555 1_555
N3 O1 1_555 1_555
C3 C2 1_555 1_555
H1 C3 1_555 1_555
C4 H2 1_555 1_555
H3 C4 1_555 1_555
F1 C8 1_555 1_555
C5 C2 1_555 1_555
H4 C5 1_555 1_555
C6 C1 1_555 1_555
H5 C6 1_555 1_555
C7 C11 1_555 1_555
C8 C1 1_555 1_555
C9 N1 1_555 1_555
H6 C9 1_555 1_555
H7 C9 1_555 1_555
C10 C9 1_555 1_555
H8 C10 1_555 1_555
H9 C10 1_555 1_555
C11 N2 1_555 1_555
H10 C11 1_555 1_555
H11 C11 1_555 1_555
O2 N3 1_555 1_555
C12 N2 1_555 1_555
H12 C12 1_555 1_555
H13 C12 1_555 1_555
C13 C7 1_555 1_555
H14 C13 1_555 1_555
C3 C8 1_555 1_555
C4 C12 1_555 1_555
C5 C6 1_555 1_555

#END
