
#######################################################################
#
#                 Cambridge Crystallographic Data Centre
#                                CCDC 
#
#######################################################################
#
# If this CIF has been generated from an entry in the Cambridge 
# Structural Database, then it will include bibliographic, chemical, 
# crystal, experimental, refinement or atomic coordinate data resulting 
# from the CCDC's data processing and validation procedures.
#
#######################################################################

data_LUFVEP
_chemical_formula_moiety         'C11 H31 B10 N1'
_chemical_name_systematic        
1-(1-(Di-n-propylamino)-n-propyl)-1,2-dicarba-closo-dodecaborane
_symmetry_cell_setting           monoclinic
_symmetry_space_group_name_H-M   'P 21/m'
_symmetry_Int_Tables_number      11
_space_group_name_Hall           '-P 2yb'
loop_
_symmetry_equiv_pos_site_id
_symmetry_equiv_pos_as_xyz
1 x,y,z
2 -x,1/2+y,-z
3 -x,-y,-z
4 x,1/2-y,z
_cell_length_a                   7.871(4)
_cell_length_b                   11.398(6)
_cell_length_c                   10.368(5)
_cell_angle_alpha                90
_cell_angle_beta                 90.321(10)
_cell_angle_gamma                90
_cell_volume                     930.137
_exptl_crystal_colour            colorless
_exptl_crystal_description       block
_cell_formula_units_Z            2
loop_
_atom_site_label
_atom_site_type_symbol
_atom_site_fract_x
_atom_site_fract_y
_atom_site_fract_z
N1 N 0.8493(10) 0.2500 0.2535(7)
C1 C 0.8641(11) 0.2500 0.4922(8)
C2 C 0.6580(13) 0.2500 0.4914(11)
H1 H 0.5901 0.2500 0.3983
C3 C 0.9599(14) 0.2500 0.3632(11)
C4 C 1.1325(15) 0.2500 0.3663(12)
H2 H 1.1651 0.1819 0.4168
C5 C 1.2484(14) 0.2500 0.2484(13)
H3 H 1.3649 0.2500 0.2763
H4 H 1.2265 0.3188 0.1975
C6 C 0.8556(10) 0.1436(8) 0.1767(11)
H5 H 0.8966 0.1659 0.0921
H6 H 0.9423 0.0939 0.2150
C7 C 0.7116(13) 0.0725(10) 0.1566(11)
H7 H 0.6242 0.1216 0.1183
H8 H 0.6708 0.0489 0.2408
C8 C 0.7241(12) -0.0338(8) 0.0775(9)
H9 H 0.6145 -0.0703 0.0712
H10 H 0.8031 -0.0873 0.1168
H11 H 0.7630 -0.0133 -0.0072
B1 B 0.7560(14) 0.1261(10) 0.5327(10)
H12 H 0.7582 0.0452 0.4749
B2 B 0.9339(14) 0.1745(9) 0.6232(8)
H13 H 1.0533 0.1244 0.6257
B3 B 0.5714(13) 0.1725(10) 0.6107(11)
H14 H 0.4528 0.1217 0.6045
B4 B 0.7468(16) 0.1261(9) 0.7014(11)
H15 H 0.7425 0.0440 0.7571
B5 B 0.8637(19) 0.2500 0.7615(14)
H16 H 0.9345 0.2500 0.8532
B6 B 0.6318(18) 0.2500 0.7504(12)
H17 H 0.5527 0.2500 0.8375
H2C H 1.1651 0.3181 0.4168
H4C H 1.2265 0.1812 0.1975
C6C C 0.8556(10) 0.3564(8) 0.1767(11)
H5C H 0.8966 0.3341 0.0921
H6C H 0.9423 0.4061 0.2150
C7C C 0.7116(13) 0.4275(10) 0.1566(11)
H7C H 0.6242 0.3784 0.1183
H8C H 0.6708 0.4511 0.2408
C8C C 0.7241(12) 0.5338(8) 0.0775(9)
H9C H 0.6145 0.5703 0.0712
H10C H 0.8031 0.5873 0.1168
H11C H 0.7630 0.5133 -0.0072
B1C B 0.7560(14) 0.3739(10) 0.5327(10)
H12C H 0.7582 0.4548 0.4749
B2C B 0.9339(14) 0.3255(9) 0.6232(8)
H13C H 1.0533 0.3756 0.6257
B3C B 0.5714(13) 0.3275(10) 0.6107(11)
H14C H 0.4528 0.3783 0.6045
B4C B 0.7468(16) 0.3739(9) 0.7014(11)
H15C H 0.7425 0.4560 0.7571
H18? H 1.1651 0.1819 0.4168
H19? H 1.2265 0.3188 0.1975
H20? H 0.9599 0.1640 0.3632
loop_
_geom_bond_atom_site_label_1
_geom_bond_atom_site_label_2
_geom_bond_site_symmetry_1
_geom_bond_site_symmetry_2
N1 C3 1_555 1_555
C1 C2 1_555 1_555
C2 H1 1_555 1_555
C3 C1 1_555 1_555
C4 C3 1_555 1_555
H2 C4 1_555 1_555
C5 C4 1_555 1_555
H3 C5 1_555 1_555
H4 C5 1_555 1_555
C6 N1 1_555 1_555
H5 C6 1_555 1_555
H6 C6 1_555 1_555
C7 C6 1_555 1_555
H7 C7 1_555 1_555
H8 C7 1_555 1_555
C8 C7 1_555 1_555
H9 C8 1_555 1_555
H10 C8 1_555 1_555
H11 C8 1_555 1_555
B1 C1 1_555 1_555
H12 B1 1_555 1_555
B2 C1 1_555 1_555
H13 B2 1_555 1_555
B3 C2 1_555 1_555
H14 B3 1_555 1_555
B4 B1 1_555 1_555
H15 B4 1_555 1_555
B5 B2 1_555 1_555
H16 B5 1_555 1_555
B6 B3 1_555 1_555
H17 B6 1_555 1_555
H2C C4 1_555 1_555
H4C C5 1_555 1_555
C6C N1 1_555 1_555
H5C C6C 1_555 1_555
H6C C6C 1_555 1_555
C7C C6C 1_555 1_555
H7C C7C 1_555 1_555
H8C C7C 1_555 1_555
C8C C7C 1_555 1_555
H9C C8C 1_555 1_555
H10C C8C 1_555 1_555
H11C C8C 1_555 1_555
B1C C1 1_555 1_555
H12C B1C 1_555 1_555
B2C C1 1_555 1_555
H13C B2C 1_555 1_555
B3C C2 1_555 1_555
H14C B3C 1_555 1_555
B4C B5 1_555 1_555
H15C B4C 1_555 1_555
C2 B1 1_555 1_555
C2 B1C 1_555 1_555
B1 B2 1_555 1_555
B1 B3 1_555 1_555
B2 B4 1_555 1_555
B2 B2C 1_555 1_555
B3 B4 1_555 1_555
B3 B3C 1_555 1_555
B4 B5 1_555 1_555
B4 B6 1_555 1_555
B5 B6 1_555 1_555
B5 B2C 1_555 1_555
B6 B3C 1_555 1_555
B6 B4C 1_555 1_555
B1C B2C 1_555 1_555
B1C B3C 1_555 1_555
B1C B4C 1_555 1_555
B2C B4C 1_555 1_555
B3C B4C 1_555 1_555

#END
