
#######################################################################
#
#                 Cambridge Crystallographic Data Centre
#                                CCDC 
#
#######################################################################
#
# If this CIF has been generated from an entry in the Cambridge 
# Structural Database, then it will include bibliographic, chemical, 
# crystal, experimental, refinement or atomic coordinate data resulting 
# from the CCDC's data processing and validation procedures.
#
#######################################################################

data_LUFWUF
_chemical_formula_moiety         'C20 H18 N6'
_chemical_name_systematic        
2,2'-Diazene-1,2-diylbis(5,7-dimethyl-1,8-naphthyridine)
_symmetry_cell_setting           monoclinic
_symmetry_space_group_name_H-M   'P 21/n'
_symmetry_Int_Tables_number      14
_space_group_name_Hall           '-P 2yn'
loop_
_symmetry_equiv_pos_site_id
_symmetry_equiv_pos_as_xyz
1 x,y,z
2 1/2-x,1/2+y,1/2-z
3 -x,-y,-z
4 1/2+x,1/2-y,1/2+z
_cell_length_a                   8.017(4)
_cell_length_b                   10.788(6)
_cell_length_c                   10.389(6)
_cell_angle_alpha                90
_cell_angle_beta                 96.298(7)
_cell_angle_gamma                90
_cell_volume                     893.095
_chemical_melting_point          'decomposed above 200deg.C'
_cell_formula_units_Z            2
loop_
_atom_site_label
_atom_site_type_symbol
_atom_site_fract_x
_atom_site_fract_y
_atom_site_fract_z
N1 N 0.7711(3) 0.0732(2) 0.5700(3)
N2 N 0.6600(3) 0.2687(2) 0.5374(2)
N3 N 0.5559(3) 0.4664(2) 0.5261(3)
C1 C 0.6754(4) 0.1527(3) 0.4885(3)
C2 C 0.5642(4) 0.3470(3) 0.4647(3)
C3 C 0.4824(4) 0.3205(3) 0.3426(3)
H1 H 0.4168 0.3799 0.2962
C4 C 0.5012(4) 0.2059(3) 0.2936(3)
H2 H 0.4491 0.1859 0.2118
C5 C 0.5988(4) 0.1170(3) 0.3657(3)
C6 C 0.6249(4) -0.0070(3) 0.3233(4)
C7 C 0.7191(5) -0.0820(3) 0.4069(4)
H3 H 0.7363 -0.1637 0.3831
C8 C 0.7914(4) -0.0403(3) 0.5283(4)
C9 C 0.5464(5) -0.0499(4) 0.1923(4)
H4 H 0.5788 -0.1341 0.1784
H5 H 0.5839 0.0020 0.1262
H6 H 0.4264 -0.0450 0.1889
C10 C 0.8967(4) -0.1257(3) 0.6173(4)
H7 H 0.9891 -0.0804 0.6612
H8 H 0.9387 -0.1917 0.5680
H9 H 0.8297 -0.1597 0.6799
N1B N 0.2289(3) 0.9268(2) 0.4300(3)
N2B N 0.3400(3) 0.7313(2) 0.4626(2)
N3B N 0.4441(3) 0.5336(2) 0.4739(3)
C1B C 0.3246(4) 0.8473(3) 0.5115(3)
C2B C 0.4358(4) 0.6530(3) 0.5353(3)
C3B C 0.5176(4) 0.6795(3) 0.6574(3)
H1B H 0.5832 0.6201 0.7038
C4B C 0.4988(4) 0.7941(3) 0.7064(3)
H2B H 0.5509 0.8141 0.7882
C5B C 0.4012(4) 0.8830(3) 0.6343(3)
C6B C 0.3751(4) 1.0070(3) 0.6767(4)
C7B C 0.2809(5) 1.0820(3) 0.5931(4)
H3B H 0.2637 1.1637 0.6169
C8B C 0.2086(4) 1.0403(3) 0.4717(4)
C9B C 0.4536(5) 1.0499(4) 0.8077(4)
H4B H 0.4212 1.1341 0.8216
H5B H 0.4161 0.9980 0.8738
H6B H 0.5736 1.0450 0.8111
C10B C 0.1033(4) 1.1257(3) 0.3827(4)
H7B H 0.0109 1.0804 0.3388
H8B H 0.0613 1.1917 0.4320
H9B H 0.1703 1.1597 0.3201
loop_
_geom_bond_atom_site_label_1
_geom_bond_atom_site_label_2
_geom_bond_site_symmetry_1
_geom_bond_site_symmetry_2
N1 C1 1_555 1_555
N2 C1 1_555 1_555
N3 C2 1_555 1_555
C1 C5 1_555 1_555
C2 N2 1_555 1_555
C3 C2 1_555 1_555
H1 C3 1_555 1_555
C4 C3 1_555 1_555
H2 C4 1_555 1_555
C5 C4 1_555 1_555
C6 C5 1_555 1_555
C7 C6 1_555 1_555
H3 C7 1_555 1_555
C8 N1 1_555 1_555
C9 C6 1_555 1_555
H4 C9 1_555 1_555
H5 C9 1_555 1_555
H6 C9 1_555 1_555
C10 C8 1_555 1_555
H7 C10 1_555 1_555
H8 C10 1_555 1_555
H9 C10 1_555 1_555
N1B C1B 1_555 1_555
N2B C1B 1_555 1_555
N3B N3 1_555 1_555
C1B C5B 1_555 1_555
C2B N2B 1_555 1_555
C3B C2B 1_555 1_555
H1B C3B 1_555 1_555
C4B C3B 1_555 1_555
H2B C4B 1_555 1_555
C5B C4B 1_555 1_555
C6B C5B 1_555 1_555
C7B C6B 1_555 1_555
H3B C7B 1_555 1_555
C8B N1B 1_555 1_555
C9B C6B 1_555 1_555
H4B C9B 1_555 1_555
H5B C9B 1_555 1_555
H6B C9B 1_555 1_555
C10B C8B 1_555 1_555
H7B C10B 1_555 1_555
H8B C10B 1_555 1_555
H9B C10B 1_555 1_555
C7 C8 1_555 1_555
N3B C2B 1_555 1_555
C7B C8B 1_555 1_555

#END
