
#######################################################################
#
#                 Cambridge Crystallographic Data Centre
#                                CCDC 
#
#######################################################################
#
# If this CIF has been generated from an entry in the Cambridge 
# Structural Database, then it will include bibliographic, chemical, 
# crystal, experimental, refinement or atomic coordinate data resulting 
# from the CCDC's data processing and validation procedures.
#
#######################################################################

data_LUFXUH
_chemical_formula_moiety         'C16 H6 N10 O10'
_chemical_name_systematic        
4,8-bis(2,4-Dinitrophenyl)-4H,8H-bis[1,2,5]oxadiazolo[3,4-b:3',4'-e]pyrazine
_symmetry_cell_setting           monoclinic
_symmetry_space_group_name_H-M   'P 21/n'
_symmetry_Int_Tables_number      14
_space_group_name_Hall           '-P 2yn'
loop_
_symmetry_equiv_pos_site_id
_symmetry_equiv_pos_as_xyz
1 x,y,z
2 1/2-x,1/2+y,1/2-z
3 -x,-y,-z
4 1/2+x,1/2-y,1/2+z
_cell_length_a                   5.8796(12)
_cell_length_b                   8.9227(18)
_cell_length_c                   18.378(4)
_cell_angle_alpha                90
_cell_angle_beta                 98.193(3)
_cell_angle_gamma                90
_cell_volume                     954.305
_cell_formula_units_Z            2
loop_
_atom_site_label
_atom_site_type_symbol
_atom_site_fract_x
_atom_site_fract_y
_atom_site_fract_z
N1 N 0.3074(3) 0.62729(17) 0.22080(8)
N2 N -0.0260(2) 0.27309(14) 0.03534(7)
N3 N 0.4244(2) 0.11892(13) 0.04678(6)
N4 N 0.4445(2) 0.05644(14) -0.14285(7)
N5 N 0.3222(2) 0.24142(14) -0.06940(7)
O1 O 0.4460(3) 0.64872(17) 0.27544(8)
O2 O 0.1483(3) 0.71019(19) 0.20031(10)
O3 O -0.1684(2) 0.36627(14) 0.01105(7)
O4 O -0.0504(2) 0.13823(14) 0.02617(9)
O5 O 0.3452(2) 0.19930(12) -0.14132(6)
C1 C 0.5637(3) 0.28988(17) 0.14575(8)
H1 H 0.7007 0.2363 0.1528
C2 C 0.5395(3) 0.41441(18) 0.18868(8)
H2 H 0.6572 0.4437 0.2252
C3 C 0.3369(3) 0.49415(16) 0.17605(8)
C4 C 0.1564(2) 0.45253(16) 0.12391(8)
H3 H 0.0219 0.5087 0.1162
C5 C 0.1813(2) 0.32468(15) 0.08341(7)
C6 C 0.3867(2) 0.24354(15) 0.09236(7)
C7 C 0.5217(2) -0.01469(15) 0.07465(7)
C8 C 0.4038(2) 0.12964(15) -0.02939(7)
N1B N 0.6926(3) -0.62729(17) -0.22080(8)
N2B N 1.0260(2) -0.27309(14) -0.03534(7)
N3B N 0.5756(2) -0.11892(13) -0.04678(6)
N4B N 0.5555(2) -0.05644(14) 0.14285(7)
N5B N 0.6778(2) -0.24142(14) 0.06940(7)
O1B O 0.5540(3) -0.64872(17) -0.27544(8)
O2B O 0.8517(3) -0.71019(19) -0.20031(10)
O3B O 1.1684(2) -0.36627(14) -0.01105(7)
O4B O 1.0504(2) -0.13823(14) -0.02617(9)
O5B O 0.6548(2) -0.19930(12) 0.14132(6)
C1B C 0.4363(3) -0.28988(17) -0.14575(8)
H1B H 0.2993 -0.2363 -0.1528
C2B C 0.4605(3) -0.41441(18) -0.18868(8)
H2B H 0.3428 -0.4437 -0.2252
C3B C 0.6631(3) -0.49415(16) -0.17605(8)
C4B C 0.8436(2) -0.45253(16) -0.12391(8)
H3B H 0.9781 -0.5087 -0.1162
C5B C 0.8187(2) -0.32468(15) -0.08341(7)
C6B C 0.6133(2) -0.24354(15) -0.09236(7)
C7B C 0.4783(2) 0.01469(15) -0.07465(7)
C8B C 0.5962(2) -0.12964(15) 0.02939(7)
loop_
_geom_bond_atom_site_label_1
_geom_bond_atom_site_label_2
_geom_bond_site_symmetry_1
_geom_bond_site_symmetry_2
N1 O1 1_555 1_555
N2 O3 1_555 1_555
N3 C6 1_555 1_555
N4 O5 1_555 1_555
N5 O5 1_555 1_555
O2 N1 1_555 1_555
O4 N2 1_555 1_555
C1 H1 1_555 1_555
C2 C1 1_555 1_555
H2 C2 1_555 1_555
C3 N1 1_555 1_555
C4 C3 1_555 1_555
H3 C4 1_555 1_555
C5 N2 1_555 1_555
C6 C1 1_555 1_555
C7 N3 1_555 1_555
C8 N3 1_555 1_555
N1B O1B 1_555 1_555
N2B O3B 1_555 1_555
N3B C6B 1_555 1_555
N4B C7 1_555 1_555
N5B O5B 1_555 1_555
O2B N1B 1_555 1_555
O4B N2B 1_555 1_555
O5B N4B 1_555 1_555
C1B H1B 1_555 1_555
C2B C1B 1_555 1_555
H2B C2B 1_555 1_555
C3B N1B 1_555 1_555
C4B C3B 1_555 1_555
H3B C4B 1_555 1_555
C5B N2B 1_555 1_555
C6B C1B 1_555 1_555
C7B N4 1_555 1_555
C8B C7 1_555 1_555
N5 C8 1_555 1_555
C2 C3 1_555 1_555
C4 C5 1_555 1_555
C5 C6 1_555 1_555
C8 C7B 1_555 1_555
N3B C7B 1_555 1_555
N3B C8B 1_555 1_555
N5B C8B 1_555 1_555
C2B C3B 1_555 1_555
C4B C5B 1_555 1_555
C5B C6B 1_555 1_555

#END
