
#######################################################################
#
#                 Cambridge Crystallographic Data Centre
#                                CCDC 
#
#######################################################################
#
# If this CIF has been generated from an entry in the Cambridge 
# Structural Database, then it will include bibliographic, chemical, 
# crystal, experimental, refinement or atomic coordinate data resulting 
# from the CCDC's data processing and validation procedures.
#
#######################################################################

data_LUGGIF
_chemical_formula_moiety         'C16 H20 B10'
_chemical_name_systematic        
1,2-(1,2-diphenylethene-1,2-diyl)-1,2-dicarba-closo-dodecaborane
_symmetry_cell_setting           triclinic
_symmetry_space_group_name_H-M   'P -1'
_symmetry_Int_Tables_number      2
_space_group_name_Hall           '-P 1'
loop_
_symmetry_equiv_pos_site_id
_symmetry_equiv_pos_as_xyz
1 x,y,z
2 -x,-y,-z
_cell_length_a                   9.8690(19)
_cell_length_b                   10.739(2)
_cell_length_c                   10.739(2)
_cell_angle_alpha                75.10
_cell_angle_beta                 63.661(2)
_cell_angle_gamma                63.661(2)
_cell_volume                     911.526
_exptl_crystal_colour            colorless
_exptl_crystal_description       block
_cell_formula_units_Z            2
loop_
_atom_site_label
_atom_site_type_symbol
_atom_site_fract_x
_atom_site_fract_y
_atom_site_fract_z
C1 C 0.6328(2) 0.65753(18) 0.22342(18)
C2 C 0.5235(2) 0.77078(18) 0.33857(18)
C3 C 0.4777(2) 0.62619(19) 0.27318(18)
C4 C 0.4658(2) 0.51651(19) 0.22762(18)
C5 C 0.6059(2) 0.4265(2) 0.1334(2)
H1 H 0.7038 0.4393 0.0990
C6 C 0.6005(3) 0.3186(2) 0.0906(2)
H2 H 0.6948 0.2588 0.0282
C7 C 0.4565(3) 0.2992(2) 0.1398(2)
H3 H 0.4531 0.2266 0.1108
C8 C 0.3170(3) 0.3877(2) 0.2324(2)
H4 H 0.2193 0.3749 0.2651
C9 C 0.3211(2) 0.4949(2) 0.2767(2)
H5 H 0.2264 0.5533 0.3401
C10 C 0.3852(2) 0.72283(19) 0.36998(18)
C11 C 0.2222(2) 0.77183(18) 0.47855(19)
C12 C 0.0817(2) 0.7967(2) 0.4585(2)
H6 H 0.0904 0.7816 0.3733
C13 C -0.0699(2) 0.8435(2) 0.5642(2)
H7 H -0.1630 0.8602 0.5499
C14 C -0.0840(2) 0.8655(2) 0.6907(2)
H8 H -0.1865 0.8957 0.7622
C15 C 0.0534(3) 0.8429(2) 0.7118(2)
H9 H 0.0436 0.8579 0.7974
C16 C 0.2055(2) 0.7979(2) 0.6059(2)
H10 H 0.2975 0.7850 0.6199
B1 B 0.6766(2) 0.6194(2) 0.3730(2)
H11 H 0.6579 0.5358 0.4549
B2 B 0.8323(2) 0.5810(2) 0.2066(3)
H12 H 0.9134 0.4730 0.1800
B3 B 0.7676(3) 0.7107(2) 0.0800(2)
H13 H 0.8082 0.6842 -0.0265
B4 B 0.5701(2) 0.8340(2) 0.1640(2)
H14 H 0.4834 0.8884 0.1113
B5 B 0.6338(3) 0.7861(2) 0.4144(2)
H15 H 0.5862 0.8109 0.5228
B6 B 0.8393(3) 0.6670(3) 0.3261(3)
H16 H 0.9285 0.6154 0.3766
B7 B 0.8982(3) 0.7232(3) 0.1458(3)
H17 H 1.0267 0.7069 0.0798
B8 B 0.7353(3) 0.8777(3) 0.1202(3)
H18 H 0.7585 0.9604 0.0387
B9 B 0.5696(3) 0.9153(2) 0.2876(2)
H19 H 0.4815 1.0213 0.3160
B10 B 0.7765(3) 0.8493(3) 0.2733(3)
H20 H 0.8255 0.9149 0.2902
loop_
_geom_bond_atom_site_label_1
_geom_bond_atom_site_label_2
_geom_bond_site_symmetry_1
_geom_bond_site_symmetry_2
C1 C2 1_555 1_555
C2 C10 1_555 1_555
C3 C1 1_555 1_555
C4 C3 1_555 1_555
C5 C4 1_555 1_555
H1 C5 1_555 1_555
C6 C5 1_555 1_555
H2 C6 1_555 1_555
C7 C6 1_555 1_555
H3 C7 1_555 1_555
C8 C7 1_555 1_555
H4 C8 1_555 1_555
C9 C4 1_555 1_555
H5 C9 1_555 1_555
C10 C3 1_555 1_555
C11 C10 1_555 1_555
C12 C11 1_555 1_555
H6 C12 1_555 1_555
C13 C12 1_555 1_555
H7 C13 1_555 1_555
C14 C13 1_555 1_555
H8 C14 1_555 1_555
C15 C14 1_555 1_555
H9 C15 1_555 1_555
C16 C11 1_555 1_555
H10 C16 1_555 1_555
B1 C1 1_555 1_555
H11 B1 1_555 1_555
B2 C1 1_555 1_555
H12 B2 1_555 1_555
B3 C1 1_555 1_555
H13 B3 1_555 1_555
B4 C1 1_555 1_555
H14 B4 1_555 1_555
B5 C2 1_555 1_555
H15 B5 1_555 1_555
B6 B1 1_555 1_555
H16 B6 1_555 1_555
B7 B2 1_555 1_555
H17 B7 1_555 1_555
B8 B3 1_555 1_555
H18 B8 1_555 1_555
B9 C2 1_555 1_555
H19 B9 1_555 1_555
B10 B5 1_555 1_555
H20 B10 1_555 1_555
C2 B1 1_555 1_555
C2 B4 1_555 1_555
C8 C9 1_555 1_555
C15 C16 1_555 1_555
B1 B2 1_555 1_555
B1 B5 1_555 1_555
B2 B3 1_555 1_555
B2 B6 1_555 1_555
B3 B4 1_555 1_555
B3 B7 1_555 1_555
B4 B8 1_555 1_555
B4 B9 1_555 1_555
B5 B6 1_555 1_555
B5 B9 1_555 1_555
B6 B7 1_555 1_555
B6 B10 1_555 1_555
B7 B8 1_555 1_555
B7 B10 1_555 1_555
B8 B9 1_555 1_555
B8 B10 1_555 1_555
B9 B10 1_555 1_555

#END
