
#######################################################################
#
#                 Cambridge Crystallographic Data Centre
#                                CCDC 
#
#######################################################################
#
# If this CIF has been generated from an entry in the Cambridge 
# Structural Database, then it will include bibliographic, chemical, 
# crystal, experimental, refinement or atomic coordinate data resulting 
# from the CCDC's data processing and validation procedures.
#
#######################################################################

data_LUGGOL
_chemical_formula_moiety         'C10 H18 B10'
_chemical_name_systematic        
'1,2-(1-phenylethane-1,2-diyl)-1,2-dicarba-closo-dodecaborane unknown solvate'
_symmetry_cell_setting           monoclinic
_symmetry_space_group_name_H-M   'P 21/n'
_symmetry_Int_Tables_number      14
_space_group_name_Hall           '-P 2yn'
loop_
_symmetry_equiv_pos_site_id
_symmetry_equiv_pos_as_xyz
1 x,y,z
2 1/2-x,1/2+y,1/2-z
3 -x,-y,-z
4 1/2+x,1/2-y,1/2+z
_cell_length_a                   9.0417(17)
_cell_length_b                   14.042(3)
_cell_length_c                   11.669(2)
_cell_angle_alpha                90
_cell_angle_beta                 98.040(4)
_cell_angle_gamma                90
_cell_volume                     1466.98
_exptl_crystal_colour            colorless
_exptl_crystal_description       block
_cell_formula_units_Z            4
loop_
_atom_site_label
_atom_site_type_symbol
_atom_site_fract_x
_atom_site_fract_y
_atom_site_fract_z
C1 C 0.14573(18) 0.26464(11) 0.26605(14)
C2 C 0.13958(17) 0.37889(11) 0.28247(13)
C3 C 0.0967(2) 0.25066(13) 0.38539(15)
H1 H 0.1726 0.2211 0.4411
H2 H 0.0021 0.2176 0.3827
C4 C 0.08385(18) 0.36201(12) 0.40222(14)
H3 H -0.0218 0.3796 0.3961
C5 C 0.16728(17) 0.40491(12) 0.51066(14)
C6 C 0.2452(2) 0.48989(13) 0.51222(15)
H4 H 0.2517 0.5217 0.4432
C7 C 0.3135(2) 0.52791(14) 0.61540(17)
H5 H 0.3665 0.5846 0.6149
C8 C 0.3040(2) 0.48326(15) 0.71806(16)
H6 H 0.3495 0.5097 0.7872
C9 C 0.2268(2) 0.39896(16) 0.71845(16)
H7 H 0.2194 0.3684 0.7881
C10 C 0.1605(2) 0.35973(15) 0.61600(16)
H8 H 0.1103 0.3020 0.6171
B1 B 0.3127(2) 0.32585(13) 0.29217(18)
H9 H 0.3945 0.3208 0.3711
B2 B 0.2853(2) 0.23028(13) 0.19233(18)
H10 H 0.3487 0.1634 0.2067
B3 B 0.0954(2) 0.23028(15) 0.12566(17)
H11 H 0.0380 0.1634 0.0975
B4 B 0.0020(2) 0.32566(14) 0.18383(18)
H12 H -0.1172 0.3205 0.1930
B5 B 0.2741(2) 0.43584(13) 0.21978(16)
H13 H 0.3305 0.5020 0.2517
B6 B 0.3673(2) 0.34143(14) 0.15633(19)
H14 H 0.4857 0.3468 0.1448
B7 B 0.2347(3) 0.28234(15) 0.05333(19)
H15 H 0.2680 0.2493 -0.0247
B8 B 0.0590(3) 0.34103(16) 0.05013(19)
H16 H -0.0215 0.3461 -0.0295
B9 B 0.0834(2) 0.43625(14) 0.15483(18)
H17 H 0.0182 0.5026 0.1460
B10 B 0.2263(3) 0.40959(15) 0.07029(18)
H18 H 0.2533 0.4591 0.0032
loop_
_geom_bond_atom_site_label_1
_geom_bond_atom_site_label_2
_geom_bond_site_symmetry_1
_geom_bond_site_symmetry_2
C1 C2 1_555 1_555
C2 C4 1_555 1_555
C3 C1 1_555 1_555
H1 C3 1_555 1_555
H2 C3 1_555 1_555
C4 C3 1_555 1_555
H3 C4 1_555 1_555
C5 C4 1_555 1_555
C6 C5 1_555 1_555
H4 C6 1_555 1_555
C7 C6 1_555 1_555
H5 C7 1_555 1_555
C8 C7 1_555 1_555
H6 C8 1_555 1_555
C9 C8 1_555 1_555
H7 C9 1_555 1_555
C10 C5 1_555 1_555
H8 C10 1_555 1_555
B1 C1 1_555 1_555
H9 B1 1_555 1_555
B2 C1 1_555 1_555
H10 B2 1_555 1_555
B3 C1 1_555 1_555
H11 B3 1_555 1_555
B4 C1 1_555 1_555
H12 B4 1_555 1_555
B5 C2 1_555 1_555
H13 B5 1_555 1_555
B6 B1 1_555 1_555
H14 B6 1_555 1_555
B7 B2 1_555 1_555
H15 B7 1_555 1_555
B8 B3 1_555 1_555
H16 B8 1_555 1_555
B9 C2 1_555 1_555
H17 B9 1_555 1_555
B10 B5 1_555 1_555
H18 B10 1_555 1_555
C2 B1 1_555 1_555
C2 B4 1_555 1_555
C9 C10 1_555 1_555
B1 B2 1_555 1_555
B1 B5 1_555 1_555
B2 B3 1_555 1_555
B2 B6 1_555 1_555
B3 B4 1_555 1_555
B3 B7 1_555 1_555
B4 B8 1_555 1_555
B4 B9 1_555 1_555
B5 B6 1_555 1_555
B5 B9 1_555 1_555
B6 B7 1_555 1_555
B6 B10 1_555 1_555
B7 B8 1_555 1_555
B7 B10 1_555 1_555
B8 B9 1_555 1_555
B8 B10 1_555 1_555
B9 B10 1_555 1_555

#END
