
#######################################################################
#
#                 Cambridge Crystallographic Data Centre
#                                CCDC 
#
#######################################################################
#
# If this CIF has been generated from an entry in the Cambridge 
# Structural Database, then it will include bibliographic, chemical, 
# crystal, experimental, refinement or atomic coordinate data resulting 
# from the CCDC's data processing and validation procedures.
#
#######################################################################

data_LUGKUT01
_chemical_formula_moiety         'C60,C2 H4'
_chemical_name_systematic        'C60Fullerene ethene'
_symmetry_cell_setting           cubic
_symmetry_space_group_name_H-M   'P a -3'
_symmetry_Int_Tables_number      205
_space_group_name_Hall           '-P 2ac 2ab 3'
loop_
_symmetry_equiv_pos_site_id
_symmetry_equiv_pos_as_xyz
1 x,y,z
2 z,x,y
3 y,z,x
4 1/2+x,y,1/2-z
5 x,1/2-y,1/2+z
6 1/2-x,1/2+y,z
7 1/2-z,1/2+x,y
8 1/2+z,x,1/2-y
9 z,1/2-x,1/2+y
10 y,1/2-z,1/2+x
11 1/2-y,1/2+z,x
12 1/2+y,z,1/2-x
13 -x,-y,-z
14 -z,-x,-y
15 -y,-z,-x
16 1/2-x,-y,1/2+z
17 -x,1/2+y,1/2-z
18 1/2+x,1/2-y,-z
19 1/2+z,1/2-x,-y
20 1/2-z,-x,1/2+y
21 -z,1/2+x,1/2-y
22 -y,1/2+z,1/2-x
23 1/2+y,1/2-z,-x
24 1/2-y,-z,1/2+x
_cell_length_a                   14.1902(12)
_cell_length_b                   14.1902(12)
_cell_length_c                   14.1902(12)
_cell_angle_alpha                90
_cell_angle_beta                 90
_cell_angle_gamma                90
_cell_volume                     2857.36
_exptl_crystal_colour            'metallic black'
_exptl_crystal_description       tablet
_cell_formula_units_Z            4
loop_
_atom_site_label
_atom_site_type_symbol
_atom_site_fract_x
_atom_site_fract_y
_atom_site_fract_z
C11 C 0.0161(12) -0.0288(6) 0.0321(10)
C11A C 0.0321(10) 0.0161(12) -0.0288(6)
C11B C -0.0288(6) 0.0321(10) 0.0161(12)
C11L C -0.0161(12) 0.0288(6) -0.0321(10)
C11M C -0.0321(10) -0.0161(12) 0.0288(6)
C11N C 0.0288(6) -0.0321(10) -0.0161(12)
C1 C 0.10820(14) 0.03660(15) 0.27837(13)
C2 C 0.13185(14) -0.06110(15) 0.29760(14)
C3 C 0.20418(13) -0.06216(14) 0.37050(14)
C4 C 0.22414(13) 0.03413(16) 0.39614(14)
C5 C 0.16524(14) 0.09551(13) 0.33900(14)
C6 C 0.12705(13) 0.17665(12) 0.37800(14)
C7 C 0.03029(14) 0.20249(14) 0.35768(15)
C8 C 0.14595(14) 0.20027(14) 0.47549(13)
C9 C 0.01511(15) 0.06072(17) 0.25926(14)
C10 C 0.24250(16) 0.05747(14) 0.48957(14)
C2S C 0.20240(14) -0.13185(14) 0.43890(15)
C1S C 0.22163(13) -0.10820(14) 0.53660(15)
C5S C 0.16100(14) -0.16524(14) 0.59551(13)
C4S C 0.10386(14) -0.22414(13) 0.53413(16)
C3S C 0.12950(14) -0.20418(13) 0.43784(14)
C2U C 0.06110(15) -0.20240(14) 0.36815(14)
C1U C -0.03660(15) -0.22163(13) 0.39180(14)
C5U C -0.09551(13) -0.16100(14) 0.33476(14)
C4U C -0.03413(16) -0.10386(14) 0.27586(13)
C3U C 0.06216(14) -0.12950(14) 0.29582(13)
C10U C -0.05747(14) -0.01043(14) 0.25750(16)
C7G C -0.14232(15) 0.03029(14) 0.29751(14)
C6G C -0.12200(14) 0.12705(13) 0.32335(12)
C5G C -0.16100(14) 0.16524(14) 0.40449(13)
C1G C -0.22163(13) 0.10820(14) 0.46340(15)
C2G C -0.20240(14) 0.13185(14) 0.56110(15)
C3G C -0.12950(14) 0.20418(13) 0.56216(14)
C2I C -0.06110(15) 0.20240(14) 0.63185(14)
C1I C 0.03660(15) 0.22163(13) 0.60820(14)
C5I C 0.09551(13) 0.16100(14) 0.66524(14)
C4I C 0.03413(16) 0.10386(14) 0.72414(13)
C3I C -0.06216(14) 0.12950(14) 0.70418(13)
C2L C -0.13185(14) 0.06110(15) 0.70240(14)
C1L C -0.10820(14) -0.03660(15) 0.72163(13)
C5L C -0.16524(14) -0.09551(13) 0.66100(14)
C4L C -0.22414(13) -0.03413(16) 0.60386(14)
C3L C -0.20418(13) 0.06216(14) 0.62950(14)
C10L C -0.24250(16) -0.05747(14) 0.51043(14)
C7U C -0.20249(14) -0.14232(15) 0.46971(14)
C6U C -0.17665(12) -0.12200(14) 0.37295(13)
C8U C -0.20027(14) -0.02451(13) 0.35405(14)
C9G C -0.24074(14) 0.01511(15) 0.43928(17)
C8L C -0.14595(14) -0.20027(14) 0.52451(13)
C6L C -0.12705(13) -0.17665(12) 0.62200(14)
C7L C -0.03029(14) -0.20249(14) 0.64232(15)
C8S C 0.02451(13) -0.14595(14) 0.70027(14)
C6S C 0.12200(14) -0.12705(13) 0.67665(12)
C7S C 0.14232(15) -0.03029(14) 0.70249(14)
C8I C 0.20027(14) 0.02451(13) 0.64595(14)
C6I C 0.17665(12) 0.12200(14) 0.62705(13)
C7I C 0.20249(14) 0.14232(15) 0.53029(14)
C8G C -0.02451(13) 0.14595(14) 0.29973(14)
C10G C -0.01043(14) 0.24250(16) 0.44253(14)
C4G C -0.10386(14) 0.22414(13) 0.46587(16)
C9I C 0.06072(17) 0.24074(14) 0.51511(15)
C9S C 0.24074(14) -0.01511(15) 0.56072(17)
C10I C 0.05747(14) 0.01043(14) 0.74250(16)
C9L C -0.01511(15) -0.06072(17) 0.74074(14)
C10S C 0.01043(14) -0.24250(16) 0.55747(14)
C9U C -0.06072(17) -0.24074(14) 0.48489(15)
loop_
_geom_bond_atom_site_label_1
_geom_bond_atom_site_label_2
_geom_bond_site_symmetry_1
_geom_bond_site_symmetry_2
C1 C2 1_555 1_555
C2 C3 1_555 1_555
C3 C4 1_555 1_555
C4 C5 1_555 1_555
C5 C1 1_555 1_555
C6 C5 1_555 1_555
C7 C6 1_555 1_555
C8 C6 1_555 1_555
C9 C1 1_555 1_555
C10 C4 1_555 1_555
C11 C11A 1_555 1_555
C2S C3 1_555 1_555
C1S C2S 1_555 1_555
C5S C1S 1_555 1_555
C4S C5S 1_555 1_555
C3S C2S 1_555 1_555
C2U C3S 1_555 1_555
C1U C2U 1_555 1_555
C5U C1U 1_555 1_555
C4U C5U 1_555 1_555
C3U C2 1_555 1_555
C10U C9 1_555 1_555
C7G C10U 1_555 1_555
C6G C7G 1_555 1_555
C5G C6G 1_555 1_555
C1G C5G 1_555 1_555
C2G C1G 1_555 1_555
C3G C2G 1_555 1_555
C2I C3G 1_555 1_555
C1I C2I 1_555 1_555
C5I C1I 1_555 1_555
C4I C5I 1_555 1_555
C3I C2I 1_555 1_555
C2L C3I 1_555 1_555
C1L C2L 1_555 1_555
C5L C1L 1_555 1_555
C4L C5L 1_555 1_555
C3L C2G 1_555 1_555
C10L C4L 1_555 1_555
C7U C10L 1_555 1_555
C6U C5U 1_555 1_555
C8U C7G 1_555 1_555
C9G C1G 1_555 1_555
C8L C7U 1_555 1_555
C6L C5L 1_555 1_555
C7L C6L 1_555 1_555
C8S C7L 1_555 1_555
C6S C5S 1_555 1_555
C7S C6S 1_555 1_555
C8I C7S 1_555 1_555
C6I C5I 1_555 1_555
C7I C8 1_555 1_555
C8G C7 1_555 1_555
C10G C7 1_555 1_555
C4G C5G 1_555 1_555
C9I C8 1_555 1_555
C9S C10 1_555 1_555
C10I C4I 1_555 1_555
C9L C1L 1_555 1_555
C10S C4S 1_555 1_555
C9U C1U 1_555 1_555
C11A C11B 1_555 1_555
C11B C11 1_555 1_555
C11L C11 1_555 1_555
C11M C11 1_555 1_555
C11N C11 1_555 1_555
C9 C8G 1_555 1_555
C10 C7I 1_555 1_555
C1S C9S 1_555 1_555
C4S C3S 1_555 1_555
C2U C3U 1_555 1_555
C4U C3U 1_555 1_555
C4U C10U 1_555 1_555
C6G C8G 1_555 1_555
C3G C4G 1_555 1_555
C1I C9I 1_555 1_555
C4I C3I 1_555 1_555
C2L C3L 1_555 1_555
C4L C3L 1_555 1_555
C10L C9G 1_555 1_555
C7U C6U 1_555 1_555
C6U C8U 1_555 1_555
C8U C9G 1_555 1_555
C8L C6L 1_555 1_555
C8L C9U 1_555 1_555
C7L C10S 1_555 1_555
C8S C6S 1_555 1_555
C8S C9L 1_555 1_555
C7S C10I 1_555 1_555
C8I C6I 1_555 1_555
C8I C9S 1_555 1_555
C6I C7I 1_555 1_555
C10G C4G 1_555 1_555
C10G C9I 1_555 1_555
C10I C9L 1_555 1_555
C10S C9U 1_555 1_555
C11A C11L 1_555 1_555
C11A C11M 1_555 1_555
C11A C11N 1_555 1_555
C11B C11M 1_555 1_555
C11B C11N 1_555 1_555
C11B C11L 1_555 1_555
C11L C11M 1_555 1_555
C11L C11N 1_555 1_555
C11M C11N 1_555 1_555

#END
