
#######################################################################
#
#                 Cambridge Crystallographic Data Centre
#                                CCDC 
#
#######################################################################
#
# If this CIF has been generated from an entry in the Cambridge 
# Structural Database, then it will include bibliographic, chemical, 
# crystal, experimental, refinement or atomic coordinate data resulting 
# from the CCDC's data processing and validation procedures.
#
#######################################################################

data_LUGLEE
_chemical_formula_moiety         'C60,C2 H6'
_chemical_name_systematic        'C60Fullerene ethane'
_symmetry_cell_setting           monoclinic
_symmetry_space_group_name_H-M   'P 21/n'
_symmetry_Int_Tables_number      14
_space_group_name_Hall           '-P 2yn'
loop_
_symmetry_equiv_pos_site_id
_symmetry_equiv_pos_as_xyz
1 x,y,z
2 1/2+x,1/2-y,1/2+z
3 -x,-y,-z
4 1/2-x,1/2+y,1/2-z
_cell_length_a                   9.796(2)
_cell_length_b                   9.803(2)
_cell_length_c                   14.808(3)
_cell_angle_alpha                90
_cell_angle_beta                 90.095(3)
_cell_angle_gamma                90
_cell_volume                     1422.01
_exptl_crystal_colour            black
_exptl_crystal_description       polyhedron
_cell_formula_units_Z            2
loop_
_atom_site_label
_atom_site_type_symbol
_atom_site_fract_x
_atom_site_fract_y
_atom_site_fract_z
C1 C 0.0043(8) -0.3270(10) 0.1011(6)
C2 C -0.1364(9) -0.3039(10) 0.0927(6)
C3 C -0.1985(8) -0.3045(9) 0.0030(5)
C4 C -0.1187(9) -0.3235(10) -0.0737(6)
C5 C 0.0269(9) -0.3459(11) -0.0640(6)
C6 C 0.0873(9) -0.3468(11) 0.0216(6)
C7 C 0.2179(10) -0.2825(10) 0.0371(6)
C8 C 0.2820(11) -0.2178(10) -0.0351(6)
C9 C 0.2203(9) -0.2181(9) -0.1230(6)
C10 C 0.0945(9) -0.2797(10) -0.1389(7)
C11 C 0.3487(9) -0.0875(9) -0.0204(6)
C12 C 0.3248(10) -0.0066(8) -0.1003(6)
C13 C 0.2469(10) -0.0858(8) -0.1644(6)
C14 C 0.1462(10) -0.0236(9) -0.2186(7)
C15 C 0.1242(11) 0.1212(9) -0.2078(7)
C16 C -0.2010(9) -0.1977(9) 0.1466(6)
C17 C 0.3036(9) 0.1325(8) -0.0895(6)
C18 C -0.3002(9) -0.1973(8) 0.0018(5)
C19 C -0.3210(10) -0.1202(9) -0.0764(6)
C20 C 0.3462(10) -0.0248(9) 0.0644(6)
C21 C 0.2803(10) -0.0929(8) 0.1398(6)
C22 C 0.2153(10) 0.0091(9) 0.1945(7)
C23 C -0.2407(10) -0.1405(9) -0.1535(7)
C24 C -0.1438(9) -0.2425(10) -0.1506(7)
C25 C -0.0128(10) -0.2161(10) -0.1914(7)
C26 C 0.0168(11) -0.0921(9) -0.2309(7)
C27 C 0.0865(9) -0.0135(9) 0.2312(7)
C28 C -0.0205(11) 0.1442(9) -0.2192(7)
C29 C 0.0816(9) -0.2454(9) 0.1648(6)
C30 C 0.2155(9) -0.2183(9) 0.1285(7)
C28B C 0.0205(11) -0.1442(9) 0.2192(7)
C15B C -0.1242(11) -0.1212(9) 0.2078(7)
C14B C -0.1462(10) 0.0236(9) 0.2186(7)
C13B C -0.2469(10) 0.0858(8) 0.1644(6)
C9B C -0.2203(9) 0.2181(9) 0.1230(6)
C8B C -0.2820(11) 0.2178(10) 0.0351(6)
C7B C -0.2179(10) 0.2825(10) -0.0371(6)
C6B C -0.0873(9) 0.3468(11) -0.0216(6)
C1B C -0.0043(8) 0.3270(10) -0.1011(6)
C2B C 0.1364(9) 0.3039(10) -0.0927(6)
C3B C 0.1985(8) 0.3045(9) -0.0030(5)
C4B C 0.1187(9) 0.3235(10) 0.0737(6)
C5B C -0.0269(9) 0.3459(11) 0.0640(6)
C10B C -0.0945(9) 0.2797(10) 0.1389(7)
C25B C 0.0128(10) 0.2161(10) 0.1914(7)
C24B C 0.1438(9) 0.2425(10) 0.1506(7)
C23B C 0.2407(10) 0.1405(9) 0.1535(7)
C19B C 0.3210(10) 0.1202(9) 0.0764(6)
C18B C 0.3002(9) 0.1973(8) -0.0018(5)
C26B C -0.0168(11) 0.0921(9) 0.2309(7)
C17B C -0.3036(9) -0.1325(8) 0.0895(6)
C12B C -0.3248(10) 0.0066(8) 0.1003(6)
C11B C -0.3487(9) 0.0875(9) 0.0204(6)
C20B C -0.3462(10) 0.0248(9) -0.0644(6)
C21B C -0.2803(10) 0.0929(8) -0.1398(6)
C22B C -0.2153(10) -0.0091(9) -0.1945(7)
C27B C -0.0865(9) 0.0135(9) -0.2312(7)
C16B C 0.2010(9) 0.1977(9) -0.1466(6)
C29B C -0.0816(9) 0.2454(9) -0.1648(6)
C30B C -0.2155(9) 0.2183(9) -0.1285(7)
C31 C -0.0014(12) 0.0029(11) 0.4480(7)
C31B C 0.0014(12) -0.0029(11) 0.5520(7)
loop_
_geom_bond_atom_site_label_1
_geom_bond_atom_site_label_2
_geom_bond_site_symmetry_1
_geom_bond_site_symmetry_2
C1 C2 1_555 1_555
C2 C3 1_555 1_555
C3 C4 1_555 1_555
C4 C5 1_555 1_555
C5 C6 1_555 1_555
C6 C1 1_555 1_555
C7 C6 1_555 1_555
C8 C7 1_555 1_555
C9 C8 1_555 1_555
C10 C5 1_555 1_555
C11 C8 1_555 1_555
C12 C11 1_555 1_555
C13 C9 1_555 1_555
C14 C13 1_555 1_555
C15 C14 1_555 1_555
C16 C2 1_555 1_555
C17 C12 1_555 1_555
C18 C3 1_555 1_555
C19 C18 1_555 1_555
C20 C11 1_555 1_555
C21 C20 1_555 1_555
C22 C21 1_555 1_555
C23 C19 1_555 1_555
C24 C4 1_555 1_555
C25 C10 1_555 1_555
C26 C14 1_555 1_555
C27 C22 1_555 1_555
C28 C15 1_555 1_555
C29 C1 1_555 1_555
C30 C7 1_555 1_555
C31 C31B 1_555 1_555
C28B C27 1_555 1_555
C15B C16 1_555 1_555
C14B C15B 1_555 1_555
C13B C14B 1_555 1_555
C9B C13B 1_555 1_555
C8B C9B 1_555 1_555
C7B C8B 1_555 1_555
C6B C7B 1_555 1_555
C1B C6B 1_555 1_555
C2B C1B 1_555 1_555
C3B C2B 1_555 1_555
C4B C3B 1_555 1_555
C5B C6B 1_555 1_555
C10B C9B 1_555 1_555
C25B C10B 1_555 1_555
C24B C4B 1_555 1_555
C23B C22 1_555 1_555
C19B C20 1_555 1_555
C18B C17 1_555 1_555
C26B C27 1_555 1_555
C17B C16 1_555 1_555
C12B C13B 1_555 1_555
C11B C8B 1_555 1_555
C20B C19 1_555 1_555
C21B C20B 1_555 1_555
C22B C23 1_555 1_555
C27B C26 1_555 1_555
C16B C15 1_555 1_555
C29B C28 1_555 1_555
C30B C7B 1_555 1_555
C9 C10 1_555 1_555
C12 C13 1_555 1_555
C17 C16B 1_555 1_555
C18 C17B 1_555 1_555
C21 C30 1_555 1_555
C23 C24 1_555 1_555
C24 C25 1_555 1_555
C25 C26 1_555 1_555
C28 C27B 1_555 1_555
C29 C28B 1_555 1_555
C29 C30 1_555 1_555
C28B C15B 1_555 1_555
C14B C26B 1_555 1_555
C1B C29B 1_555 1_555
C2B C16B 1_555 1_555
C3B C18B 1_555 1_555
C4B C5B 1_555 1_555
C5B C10B 1_555 1_555
C25B C24B 1_555 1_555
C25B C26B 1_555 1_555
C24B C23B 1_555 1_555
C23B C19B 1_555 1_555
C19B C18B 1_555 1_555
C17B C12B 1_555 1_555
C12B C11B 1_555 1_555
C11B C20B 1_555 1_555
C21B C22B 1_555 1_555
C21B C30B 1_555 1_555
C22B C27B 1_555 1_555
C29B C30B 1_555 1_555

#END
