
#######################################################################
#
#                 Cambridge Crystallographic Data Centre
#                                CCDC 
#
#######################################################################
#
# If this CIF has been generated from an entry in the Cambridge 
# Structural Database, then it will include bibliographic, chemical, 
# crystal, experimental, refinement or atomic coordinate data resulting 
# from the CCDC's data processing and validation procedures.
#
#######################################################################

data_LUGMAC
_chemical_formula_moiety         'C41 H57 B1 N2 O2 S2'
_chemical_name_systematic        
'[1,3-bis(2,6-diisopropylphenyl)imidazol-2-ylidene]-([6-(benzyloxy) hexyloxycarbonothioylthio])borane'
_symmetry_cell_setting           monoclinic
_symmetry_space_group_name_H-M   'P 21/n'
_symmetry_Int_Tables_number      14
_space_group_name_Hall           '-P 2yn'
loop_
_symmetry_equiv_pos_site_id
_symmetry_equiv_pos_as_xyz
1 x,y,z
2 1/2-x,1/2+y,1/2-z
3 -x,-y,-z
4 1/2+x,1/2-y,1/2+z
_cell_length_a                   14.1188(19)
_cell_length_b                   14.337(2)
_cell_length_c                   20.757(2)
_cell_angle_alpha                90
_cell_angle_beta                 90.754(9)
_cell_angle_gamma                90
_cell_volume                     4201.29
_exptl_crystal_colour            colorless
_exptl_crystal_description       block
_cell_formula_units_Z            4
loop_
_atom_site_label
_atom_site_type_symbol
_atom_site_fract_x
_atom_site_fract_y
_atom_site_fract_z
S1 S 0.28675(7) 0.53611(7) 0.63231(4)
S2 S 0.36729(13) 0.71792(9) 0.59345(8)
B1 B 0.2756(3) 0.4142(3) 0.59038(17)
H1 H 0.2358 0.4182 0.5520
H2 H 0.3374 0.3909 0.5784
N1 N 0.13463(15) 0.32713(16) 0.64976(10)
N2 N 0.27224(15) 0.30048(16) 0.69264(10)
O1 O 0.35661(17) 0.56408(17) 0.52132(11)
O2 O 0.39445(19) 0.3013(3) 0.22811(15)
C1 C 0.22803(19) 0.34777(19) 0.64352(13)
C2 C 0.1207(2) 0.2689(2) 0.70251(13)
H3 H 0.0631 0.2460 0.7168
C3 C 0.2064(2) 0.2520(2) 0.72883(14)
H4 H 0.2193 0.2148 0.7646
C4 C 0.05866(18) 0.3562(2) 0.60543(13)
C5 C 0.0415(2) 0.3018(2) 0.55008(14)
C6 C -0.0351(2) 0.3289(3) 0.51029(15)
H5 H -0.0494 0.2940 0.4737
C7 C -0.0897(2) 0.4060(3) 0.52427(16)
H6 H -0.1396 0.4227 0.4969
C8 C -0.0705(2) 0.4586(2) 0.57894(16)
H7 H -0.1079 0.5103 0.5878
C9 C 0.00457(19) 0.4353(2) 0.62139(14)
C10 C 0.1010(2) 0.2161(3) 0.53246(17)
H8 H 0.1504 0.2086 0.5657
C11 C 0.1502(3) 0.2308(4) 0.4673(2)
H9 H 0.1032 0.2360 0.4337
H10 H 0.1907 0.1786 0.4587
H11 H 0.1873 0.2869 0.4691
C12 C 0.0414(4) 0.1262(3) 0.5308(2)
H12 H 0.0183 0.1134 0.5732
H13 H 0.0800 0.0752 0.5168
H14 H -0.0111 0.1341 0.5015
C13 C 0.0222(2) 0.4929(2) 0.68207(15)
H15 H 0.0827 0.4724 0.7009
C14 C 0.0307(3) 0.5977(3) 0.66777(19)
H16 H 0.0790 0.6076 0.6364
H17 H 0.0471 0.6304 0.7067
H18 H -0.0287 0.6207 0.6513
C15 C -0.0550(3) 0.4736(3) 0.73202(19)
H19 H -0.1158 0.4899 0.7141
H20 H -0.0428 0.5102 0.7699
H21 H -0.0545 0.4086 0.7431
C16 C 0.37537(19) 0.2924(2) 0.70138(14)
C17 C 0.4231(2) 0.2285(2) 0.66199(15)
C18 C 0.5218(2) 0.2205(3) 0.67191(17)
H22 H 0.5565 0.1798 0.6465
C19 C 0.5675(2) 0.2725(3) 0.71885(18)
H23 H 0.6325 0.2657 0.7249
C20 C 0.5184(2) 0.3343(2) 0.75698(17)
H24 H 0.5511 0.3686 0.7881
C21 C 0.4200(2) 0.3465(2) 0.74957(14)
C22 C 0.3728(2) 0.1682(3) 0.61133(18)
H25 H 0.3076 0.1911 0.6075
C23 C 0.4170(4) 0.1771(4) 0.5449(2)
H26 H 0.4201 0.2418 0.5331
H27 H 0.3789 0.1440 0.5139
H28 H 0.4797 0.1513 0.5460
C24 C 0.3673(4) 0.0660(3) 0.6332(3)
H29 H 0.4301 0.0405 0.6364
H30 H 0.3308 0.0308 0.6023
H31 H 0.3376 0.0628 0.6745
C25 C 0.3667(2) 0.4128(2) 0.79380(15)
H32 H 0.3022 0.4197 0.7763
C26 C 0.3591(3) 0.3698(3) 0.86167(18)
H33 H 0.3271 0.3109 0.8588
H34 H 0.3241 0.4111 0.8889
H35 H 0.4215 0.3607 0.8796
C27 C 0.4115(3) 0.5102(3) 0.7965(2)
H36 H 0.4732 0.5063 0.8162
H37 H 0.3723 0.5510 0.8214
H38 H 0.4169 0.5344 0.7536
C28 C 0.3396(3) 0.6084(3) 0.57696(18)
C29 C 0.4060(4) 0.6118(3) 0.4691(2)
H39 H 0.3874 0.6769 0.4673
H40 H 0.4740 0.6086 0.4761
C30 C 0.3805(9) 0.5659(5) 0.4103(4)
H41 H 0.4210 0.5910 0.3771
H42 H 0.3164 0.5850 0.3995
C31 C 0.3838(6) 0.4631(5) 0.4046(3)
H43 H 0.4474 0.4426 0.4157
H44 H 0.3415 0.4368 0.4362
C32 C 0.3583(8) 0.4235(7) 0.3410(3)
H45 H 0.4000 0.4491 0.3087
H46 H 0.2940 0.4417 0.3298
C33 C 0.3657(5) 0.3155(5) 0.3402(3)
H47 H 0.4311 0.2966 0.3467
H48 H 0.3284 0.2893 0.3747
C34 C 0.3307(4) 0.2815(4) 0.2781(3)
H49 H 0.3209 0.2146 0.2806
H50 H 0.2701 0.3104 0.2683
C35 C 0.3548(3) 0.2797(4) 0.1671(2)
H51 H 0.3154 0.2246 0.1715
H52 H 0.4059 0.2639 0.1383
C36 C 0.2964(3) 0.3551(4) 0.1363(2)
C37 C 0.2847(5) 0.4416(5) 0.1638(3)
H53 H 0.3145 0.4561 0.2027
C38 C 0.1847(7) 0.4861(9) 0.0753(6)
H54 H 0.1446 0.5292 0.0556
C39 C 0.2271(8) 0.5075(6) 0.1323(5)
H55 H 0.2180 0.5660 0.1506
C40 C 0.2003(5) 0.4015(8) 0.0461(4)
H56 H 0.1743 0.3895 0.0056
C41 C 0.2534(3) 0.3357(4) 0.0762(3)
H57 H 0.2615 0.2776 0.0572
C42? C 0.427(3) 0.537(3) 0.4174(19)
C43? C 0.331(2) 0.505(2) 0.3866(13)
C44? C 0.392(3) 0.4173(18) 0.363(2)
H58? H 0.4645 0.6393 0.4850
H59? H 0.3665 0.6608 0.4509
H60? H 0.4593 0.4842 0.4371
H61? H 0.4676 0.5628 0.3846
H62? H 0.3076 0.5445 0.3521
H63? H 0.2823 0.4900 0.4173
H64? H 0.4285 0.4421 0.3281
H65? H 0.4365 0.4072 0.3982
H66? H 0.4225 0.2793 0.3487
H67? H 0.3195 0.2938 0.3710
loop_
_geom_bond_atom_site_label_1
_geom_bond_atom_site_label_2
_geom_bond_site_symmetry_1
_geom_bond_site_symmetry_2
S1 B1 1_555 1_555
S2 C28 1_555 1_555
B1 H1 1_555 1_555
H2 B1 1_555 1_555
N1 C1 1_555 1_555
N2 C1 1_555 1_555
O1 C28 1_555 1_555
O2 C34 1_555 1_555
C1 B1 1_555 1_555
C2 N1 1_555 1_555
H3 C2 1_555 1_555
C3 N2 1_555 1_555
H4 C3 1_555 1_555
C4 N1 1_555 1_555
C5 C4 1_555 1_555
C6 C5 1_555 1_555
H5 C6 1_555 1_555
C7 C6 1_555 1_555
H6 C7 1_555 1_555
C8 C7 1_555 1_555
H7 C8 1_555 1_555
C9 C4 1_555 1_555
C10 C5 1_555 1_555
H8 C10 1_555 1_555
C11 C10 1_555 1_555
H9 C11 1_555 1_555
H10 C11 1_555 1_555
H11 C11 1_555 1_555
C12 C10 1_555 1_555
H12 C12 1_555 1_555
H13 C12 1_555 1_555
H14 C12 1_555 1_555
C13 C9 1_555 1_555
H15 C13 1_555 1_555
C14 C13 1_555 1_555
H16 C14 1_555 1_555
H17 C14 1_555 1_555
H18 C14 1_555 1_555
C15 C13 1_555 1_555
H19 C15 1_555 1_555
H20 C15 1_555 1_555
H21 C15 1_555 1_555
C16 N2 1_555 1_555
C17 C16 1_555 1_555
C18 C17 1_555 1_555
H22 C18 1_555 1_555
C19 C18 1_555 1_555
H23 C19 1_555 1_555
C20 C19 1_555 1_555
H24 C20 1_555 1_555
C21 C16 1_555 1_555
C22 C17 1_555 1_555
H25 C22 1_555 1_555
C23 C22 1_555 1_555
H26 C23 1_555 1_555
H27 C23 1_555 1_555
H28 C23 1_555 1_555
C24 C22 1_555 1_555
H29 C24 1_555 1_555
H30 C24 1_555 1_555
H31 C24 1_555 1_555
C25 C21 1_555 1_555
H32 C25 1_555 1_555
C26 C25 1_555 1_555
H33 C26 1_555 1_555
H34 C26 1_555 1_555
H35 C26 1_555 1_555
C27 C25 1_555 1_555
H36 C27 1_555 1_555
H37 C27 1_555 1_555
H38 C27 1_555 1_555
C28 S1 1_555 1_555
C29 O1 1_555 1_555
H39 C29 1_555 1_555
H40 C29 1_555 1_555
C30 C29 1_555 1_555
H41 C30 1_555 1_555
H42 C30 1_555 1_555
C31 C30 1_555 1_555
H43 C31 1_555 1_555
H44 C31 1_555 1_555
C32 C31 1_555 1_555
H45 C32 1_555 1_555
H46 C32 1_555 1_555
C33 C32 1_555 1_555
H47 C33 1_555 1_555
H48 C33 1_555 1_555
C34 C33 1_555 1_555
H49 C34 1_555 1_555
H50 C34 1_555 1_555
C35 O2 1_555 1_555
H51 C35 1_555 1_555
H52 C35 1_555 1_555
C36 C35 1_555 1_555
C37 C36 1_555 1_555
H53 C37 1_555 1_555
C38 H54 1_555 1_555
C39 C37 1_555 1_555
H55 C39 1_555 1_555
C40 C38 1_555 1_555
H56 C40 1_555 1_555
C41 C36 1_555 1_555
H57 C41 1_555 1_555
C2 C3 1_555 1_555
C8 C9 1_555 1_555
C20 C21 1_555 1_555
C38 C39 1_555 1_555
C40 C41 1_555 1_555

#END
