
#######################################################################
#
#                 Cambridge Crystallographic Data Centre
#                                CCDC 
#
#######################################################################
#
# If this CIF has been generated from an entry in the Cambridge 
# Structural Database, then it will include bibliographic, chemical, 
# crystal, experimental, refinement or atomic coordinate data resulting 
# from the CCDC's data processing and validation procedures.
#
#######################################################################

data_LUGNAD
_chemical_formula_moiety         'C21 H22 O2'
_chemical_name_systematic        
2-((4-Hydroxy-3,5-dimethylphenyl)(phenyl)methyl)cyclohex-2-en-1-one
_symmetry_cell_setting           triclinic
_symmetry_space_group_name_H-M   'P -1'
_symmetry_Int_Tables_number      2
_space_group_name_Hall           '-P 1'
loop_
_symmetry_equiv_pos_site_id
_symmetry_equiv_pos_as_xyz
1 x,y,z
2 -x,-y,-z
_cell_length_a                   8.5087(4)
_cell_length_b                   10.7041(5)
_cell_length_c                   10.9088(5)
_cell_angle_alpha                112.218(3)
_cell_angle_beta                 93.624(3)
_cell_angle_gamma                107.362(3)
_cell_volume                     860.274
_exptl_crystal_colour            colorless
_exptl_crystal_description       block
_chemical_melting_point          '174-176 deg.C'
_cell_formula_units_Z            2
loop_
_atom_site_label
_atom_site_type_symbol
_atom_site_fract_x
_atom_site_fract_y
_atom_site_fract_z
C1 C 0.8286(3) 1.0716(3) 0.9476(2)
H1 H 0.7782 0.9876 0.9587
C2 C 0.9581(4) 1.1842(3) 1.0472(3)
H2 H 0.9937 1.1753 1.1249
C3 C 1.0343(3) 1.3080(3) 1.0328(3)
H3 H 1.1219 1.3830 1.0999
C4 C 0.9808(3) 1.3210(3) 0.9188(3)
H4 H 1.0321 1.4051 0.9081
C5 C 0.8512(3) 1.2100(2) 0.8200(2)
H5 H 0.8150 1.2206 0.7434
C6 C 0.7737(3) 1.0832(2) 0.8319(2)
C7 C 0.6331(3) 0.9623(2) 0.7176(2)
H6 H 0.6696 0.9600 0.6336
C8 C 0.6074(3) 0.8141(2) 0.7138(2)
C9 C 0.7002(3) 0.7342(2) 0.6428(2)
H7 H 0.7751 0.7729 0.5972
C10 C 0.6864(3) 0.5998(2) 0.6369(2)
C11 C 0.7929(3) 0.5194(3) 0.5613(3)
H8 H 0.8684 0.5778 0.5262
H9 H 0.7218 0.4314 0.4879
H10 H 0.8563 0.4977 0.6214
C12 C 0.5721(3) 0.5427(2) 0.7046(2)
C13 C 0.4760(3) 0.6190(2) 0.7774(2)
C14 C 0.3517(4) 0.5533(3) 0.8464(3)
H11 H 0.2747 0.4619 0.7817
H12 H 0.2907 0.6160 0.8856
H13 H 0.4099 0.5400 0.9162
C15 C 0.4961(3) 0.7537(2) 0.7807(2)
H14 H 0.4331 0.8052 0.8293
C16 C 0.4712(3) 0.9944(2) 0.7143(2)
C17 C 0.3458(3) 0.9083(2) 0.5869(2)
C18 C 0.1779(3) 0.9269(4) 0.5859(3)
H15 H 0.1257 0.8997 0.4936
H16 H 0.1063 0.8624 0.6189
C19 C 0.1887(4) 1.0742(4) 0.6687(3)
H17 H 0.0760 1.0768 0.6712
H18 H 0.2437 1.1361 0.6266
C20 C 0.2833(4) 1.1321(3) 0.8106(3)
H19 H 0.3146 1.2361 0.8519
H20 H 0.2108 1.0937 0.8626
C21 C 0.4372(3) 1.0939(3) 0.8152(2)
H21 H 0.5166 1.1440 0.8955
O1 O 0.5473(3) 0.41007(17) 0.70500(19)
H22 H 0.5950 0.3672 0.6497
O2 O 0.3753(2) 0.82462(17) 0.48686(16)
loop_
_geom_bond_atom_site_label_1
_geom_bond_atom_site_label_2
_geom_bond_site_symmetry_1
_geom_bond_site_symmetry_2
C1 H1 1_555 1_555
C2 C1 1_555 1_555
H2 C2 1_555 1_555
C3 C2 1_555 1_555
H3 C3 1_555 1_555
C4 C3 1_555 1_555
H4 C4 1_555 1_555
C5 C4 1_555 1_555
H5 C5 1_555 1_555
C6 C1 1_555 1_555
C7 C6 1_555 1_555
H6 C7 1_555 1_555
C8 C7 1_555 1_555
C9 C8 1_555 1_555
H7 C9 1_555 1_555
C10 C9 1_555 1_555
C11 C10 1_555 1_555
H8 C11 1_555 1_555
H9 C11 1_555 1_555
H10 C11 1_555 1_555
C12 C10 1_555 1_555
C13 C12 1_555 1_555
C14 C13 1_555 1_555
H11 C14 1_555 1_555
H12 C14 1_555 1_555
H13 C14 1_555 1_555
C15 C8 1_555 1_555
H14 C15 1_555 1_555
C16 C7 1_555 1_555
C17 C16 1_555 1_555
C18 C17 1_555 1_555
H15 C18 1_555 1_555
H16 C18 1_555 1_555
C19 C18 1_555 1_555
H17 C19 1_555 1_555
H18 C19 1_555 1_555
C20 C19 1_555 1_555
H19 C20 1_555 1_555
H20 C20 1_555 1_555
C21 C16 1_555 1_555
H21 C21 1_555 1_555
O1 C12 1_555 1_555
H22 O1 1_555 1_555
O2 C17 1_555 1_555
C5 C6 1_555 1_555
C13 C15 1_555 1_555
C20 C21 1_555 1_555

#END
