
#######################################################################
#
#                 Cambridge Crystallographic Data Centre
#                                CCDC 
#
#######################################################################
#
# If this CIF has been generated from an entry in the Cambridge 
# Structural Database, then it will include bibliographic, chemical, 
# crystal, experimental, refinement or atomic coordinate data resulting 
# from the CCDC's data processing and validation procedures.
#
#######################################################################

data_LUGNUX
_chemical_formula_moiety         'C8 H11 N3 O1'
_chemical_name_systematic        N-Ethyl-N'-(pyridin-2-yl)formohydrazide
_symmetry_cell_setting           triclinic
_symmetry_space_group_name_H-M   'P -1'
_symmetry_Int_Tables_number      2
_space_group_name_Hall           '-P 1'
loop_
_symmetry_equiv_pos_site_id
_symmetry_equiv_pos_as_xyz
1 x,y,z
2 -x,-y,-z
_cell_length_a                   9.825(4)
_cell_length_b                   10.199(4)
_cell_length_c                   10.461(4)
_cell_angle_alpha                62.00(3)
_cell_angle_beta                 73.41(4)
_cell_angle_gamma                83.80(4)
_cell_volume                     886.598
_exptl_crystal_colour            orange
_exptl_crystal_description       block
_chemical_melting_point          '49-51 deg.C'
_cell_formula_units_Z            4
_exptl_crystal_recrystallization_method 'diethyl ether'
loop_
_atom_site_label
_atom_site_type_symbol
_atom_site_fract_x
_atom_site_fract_y
_atom_site_fract_z
N1 N 0.1114(2) 0.5597(2) 1.0795(2)
N2 N 0.1892(2) 0.5062(2) 0.8836(2)
H1 H 0.087(3) 0.490(3) 0.895(3)
N3 N 0.2841(2) 0.5327(2) 0.7465(2)
C1 C 0.2199(3) 0.5642(3) 0.9675(3)
C2 C 0.3548(3) 0.6177(3) 0.9418(3)
H2 H 0.4288 0.6207 0.8617
C3 C 0.3756(3) 0.6652(3) 1.0362(3)
H3 H 0.4647 0.7013 1.0214
C4 C 0.2653(4) 0.6600(3) 1.1532(3)
H4 H 0.2779 0.6918 1.2192
C5 C 0.1361(3) 0.6069(3) 1.1704(3)
H5 H 0.0610 0.6034 1.2500
H6 H 0.320(6) 0.329(6) 0.870(6)
O1 O 0.4520(5) 0.4076(8) 0.6460(7)
C7 C 0.3590(3) 0.4180(5) 0.7373(4)
C8 C 0.2905(3) 0.6794(3) 0.6184(3)
H8 H 0.3590 0.6791 0.5308
H9 H 0.3239 0.7518 0.6389
C9 C 0.1508(3) 0.7256(3) 0.5835(3)
H10 H 0.1180 0.6556 0.5609
H11 H 0.1614 0.8224 0.4985
H12 H 0.0830 0.7286 0.6688
N4 N 0.4394(2) 0.0122(2) 0.3401(2)
N5 N 0.3584(2) 0.1447(3) 0.4699(3)
H13 H 0.419(3) 0.091(3) 0.530(3)
N6 N 0.2417(2) 0.2019(3) 0.5372(2)
C10 C 0.3447(3) 0.1064(3) 0.3642(3)
C11 C 0.2433(3) 0.1687(3) 0.2844(3)
H14 H 0.1796 0.2365 0.3022
C12 C 0.2404(3) 0.1267(3) 0.1791(3)
H15 H 0.1738 0.1663 0.1239
C13 C 0.3346(3) 0.0271(3) 0.1539(3)
H16 H 0.3324 -0.0031 0.0834
C14 C 0.4323(3) -0.0267(3) 0.2358(3)
H17 H 0.4973 -0.0939 0.2185
C15 C 0.1254(3) 0.1014(3) 0.6530(3)
H18 H 0.1028 0.0343 0.6197
H19 H 0.0421 0.1590 0.6658
C16 C 0.1577(4) 0.0124(4) 0.8008(4)
H20 H 0.2415 -0.0433 0.7888
H21 H 0.0791 -0.0547 0.8707
H22 H 0.1735 0.0777 0.8381
C17 C 0.2463(3) 0.3449(3) 0.4999(3)
H23 H 0.3262 0.4005 0.4274
O3 O 0.1554(2) 0.4093(2) 0.5523(3)
C6? C 0.3590(3) 0.4180(5) 0.7373(4)
H7? H 0.429(7) 0.476(6) 0.615(8)
O2? O 0.3530(6) 0.3007(6) 0.8192(7)
loop_
_geom_bond_atom_site_label_1
_geom_bond_atom_site_label_2
_geom_bond_site_symmetry_1
_geom_bond_site_symmetry_2
N1 C1 1_555 1_555
N2 H1 1_555 1_555
N3 N2 1_555 1_555
C1 N2 1_555 1_555
C2 C1 1_555 1_555
H2 C2 1_555 1_555
C3 C2 1_555 1_555
H3 C3 1_555 1_555
C4 C3 1_555 1_555
H4 C4 1_555 1_555
C5 N1 1_555 1_555
H5 C5 1_555 1_555
H6 C7 1_555 1_555
O1 C7 1_555 1_555
C7 N3 1_555 1_555
C8 N3 1_555 1_555
H8 C8 1_555 1_555
H9 C8 1_555 1_555
C9 C8 1_555 1_555
H10 C9 1_555 1_555
H11 C9 1_555 1_555
H12 C9 1_555 1_555
N4 C10 1_555 1_555
N5 H13 1_555 1_555
N6 N5 1_555 1_555
C10 N5 1_555 1_555
C11 C10 1_555 1_555
H14 C11 1_555 1_555
C12 C11 1_555 1_555
H15 C12 1_555 1_555
C13 C12 1_555 1_555
H16 C13 1_555 1_555
C14 N4 1_555 1_555
H17 C14 1_555 1_555
C15 N6 1_555 1_555
H18 C15 1_555 1_555
H19 C15 1_555 1_555
C16 C15 1_555 1_555
H20 C16 1_555 1_555
H21 C16 1_555 1_555
H22 C16 1_555 1_555
C17 N6 1_555 1_555
H23 C17 1_555 1_555
O3 C17 1_555 1_555
C4 C5 1_555 1_555
C13 C14 1_555 1_555

#END
