
#######################################################################
#
#                 Cambridge Crystallographic Data Centre
#                                CCDC 
#
#######################################################################
#
# If this CIF has been generated from an entry in the Cambridge 
# Structural Database, then it will include bibliographic, chemical, 
# crystal, experimental, refinement or atomic coordinate data resulting 
# from the CCDC's data processing and validation procedures.
#
#######################################################################

data_LUHGUS
_chemical_formula_moiety         'C18 H8 Br1 F3 O4'
_chemical_name_systematic        
3-(5-bromo-2-hydroxyphenyl)-2-(trifluoromethyl)-4H-furo[3,2-c]chromen-4-one
_symmetry_cell_setting           orthorhombic
_symmetry_space_group_name_H-M   'P b c a'
_symmetry_Int_Tables_number      61
_space_group_name_Hall           '-P 2ac 2ab'
loop_
_symmetry_equiv_pos_site_id
_symmetry_equiv_pos_as_xyz
1 x,y,z
2 1/2-x,-y,1/2+z
3 -x,1/2+y,1/2-z
4 1/2+x,1/2-y,-z
5 -x,-y,-z
6 1/2+x,y,1/2-z
7 x,1/2-y,1/2+z
8 1/2-x,1/2+y,z
_cell_length_a                   19.453(2)
_cell_length_b                   8.1730(10)
_cell_length_c                   19.834(3)
_cell_angle_alpha                90
_cell_angle_beta                 90
_cell_angle_gamma                90
_cell_volume                     3153.4
_exptl_crystal_colour            colorless
_exptl_crystal_description       prism
_cell_formula_units_Z            8
loop_
_atom_site_label
_atom_site_type_symbol
_atom_site_fract_x
_atom_site_fract_y
_atom_site_fract_z
C1 C 0.9997(4) 0.2579(10) 1.0068(4)
C2 C 1.0527(4) 0.1873(11) 0.9715(4)
H1 H 1.0968 0.1761 0.9915
C3 C 1.0412(4) 0.1322(10) 0.9061(4)
H2 H 1.0775 0.0827 0.8816
C4 C 0.9777(4) 0.1489(9) 0.8768(3)
C5 C 0.9243(4) 0.2219(9) 0.9115(3)
C6 C 0.9363(4) 0.2768(10) 0.9778(3)
H3 H 0.9003 0.3273 1.0025
C7 C 0.8567(4) 0.2471(10) 0.8804(3)
C8 C 0.7944(4) 0.1997(9) 0.9043(3)
C9 C 0.7720(5) 0.1143(11) 0.9664(4)
C10 C 0.7707(4) 0.3281(10) 0.8105(3)
C11 C 0.8398(4) 0.3308(10) 0.8176(3)
C12 C 0.8814(5) 0.4197(10) 0.7693(3)
C13 C 0.7738(4) 0.4764(10) 0.7096(3)
C14 C 0.7451(5) 0.5516(11) 0.6542(3)
H4 H 0.7730 0.6053 0.6218
C15 C 0.6751(5) 0.5470(12) 0.6474(4)
H5 H 0.6547 0.5994 0.6096
C16 C 0.6329(4) 0.4681(11) 0.6937(4)
H6 H 0.5845 0.4665 0.6872
C17 C 0.6610(4) 0.3936(10) 0.7483(4)
H7 H 0.6326 0.3396 0.7803
C18 C 0.7319(4) 0.3973(10) 0.7568(3)
O1 O 0.9627(3) 0.0934(7) 0.8139(2)
H8 H 0.9977 0.0491 0.7972
O2 O 0.7405(3) 0.2484(7) 0.8627(2)
O3 O 0.9423(3) 0.4445(7) 0.7700(2)
O4 O 0.8444(3) 0.4843(6) 0.7158(2)
Br1 Br 1.01408(5) 0.33018(12) 1.09702(4)
F1 F 0.8114(3) -0.0152(7) 0.9796(3)
F2 F 0.7742(3) 0.2079(6) 1.0208(2)
F3 F 0.7083(3) 0.0618(7) 0.9615(2)
loop_
_geom_bond_atom_site_label_1
_geom_bond_atom_site_label_2
_geom_bond_site_symmetry_1
_geom_bond_site_symmetry_2
C1 C2 1_555 1_555
C2 H1 1_555 1_555
C3 C2 1_555 1_555
H2 C3 1_555 1_555
C4 C3 1_555 1_555
C5 C4 1_555 1_555
C6 C1 1_555 1_555
H3 C6 1_555 1_555
C7 C5 1_555 1_555
C8 C7 1_555 1_555
C9 C8 1_555 1_555
C10 C11 1_555 1_555
C11 C7 1_555 1_555
C12 C11 1_555 1_555
C13 C14 1_555 1_555
C14 H4 1_555 1_555
C15 C14 1_555 1_555
H5 C15 1_555 1_555
C16 C15 1_555 1_555
H6 C16 1_555 1_555
C17 C16 1_555 1_555
H7 C17 1_555 1_555
C18 C10 1_555 1_555
O1 C4 1_555 1_555
H8 O1 1_555 1_555
O2 C8 1_555 1_555
O3 C12 1_555 1_555
O4 C12 1_555 1_555
Br1 C1 1_555 1_555
F1 C9 1_555 1_555
F2 C9 1_555 1_555
F3 C9 1_555 1_555
C5 C6 1_555 1_555
C10 O2 1_555 1_555
C13 C18 1_555 1_555
C13 O4 1_555 1_555
C17 C18 1_555 1_555

#END
