
#######################################################################
#
#                 Cambridge Crystallographic Data Centre
#                                CCDC 
#
#######################################################################
#
# If this CIF has been generated from an entry in the Cambridge 
# Structural Database, then it will include bibliographic, chemical, 
# crystal, experimental, refinement or atomic coordinate data resulting 
# from the CCDC's data processing and validation procedures.
#
#######################################################################

data_LUHGEC
_chemical_formula_moiety         'C28 H36 Br1 O4 P1'
_chemical_name_systematic        
3-((5-bromo-2-hydroxyphenyl)(tributylphosphonio)methyl)-2-oxo-2H-chromen-4-olate
_symmetry_cell_setting           monoclinic
_symmetry_space_group_name_H-M   'P 21/n'
_symmetry_Int_Tables_number      14
_space_group_name_Hall           '-P 2yn'
loop_
_symmetry_equiv_pos_site_id
_symmetry_equiv_pos_as_xyz
1 x,y,z
2 1/2-x,1/2+y,1/2-z
3 -x,-y,-z
4 1/2+x,1/2-y,1/2+z
_cell_length_a                   12.543(3)
_cell_length_b                   11.218(3)
_cell_length_c                   19.167(3)
_cell_angle_alpha                90
_cell_angle_beta                 92.628(15)
_cell_angle_gamma                90
_cell_volume                     2694.1
_exptl_crystal_colour            colorless
_exptl_crystal_description       prism
_cell_formula_units_Z            4
loop_
_atom_site_label
_atom_site_type_symbol
_atom_site_fract_x
_atom_site_fract_y
_atom_site_fract_z
C1 C 0.7721(6) 0.3387(7) 1.0299(4)
C2 C 0.7694(7) 0.2604(9) 1.0852(4)
H1 H 0.7434 0.2854 1.1286
C3 C 0.8044(7) 0.1473(9) 1.0768(4)
H2 H 0.8025 0.0931 1.1148
C4 C 0.8432(6) 0.1085(8) 1.0134(4)
C5 C 0.8456(6) 0.1885(8) 0.9573(4)
C6 C 0.8104(6) 0.3054(8) 0.9660(4)
H3 H 0.8127 0.3612 0.9288
C7 C 0.8916(6) 0.1478(7) 0.8892(3)
H4 H 0.9413 0.0813 0.9031
C8 C 0.9587(7) 0.2339(7) 0.8515(3)
C9 C 1.0696(7) 0.2137(8) 0.8519(4)
C10 C 1.1320(7) 0.3016(9) 0.8159(4)
C11 C 1.2384(8) 0.2966(8) 0.8120(4)
H5 H 1.2757 0.2319 0.8337
C12 C 1.2959(8) 0.3815(9) 0.7776(4)
H6 H 1.3710 0.3733 0.7750
C13 C 1.2430(9) 0.4808(10) 0.7461(4)
H7 H 1.2836 0.5397 0.7235
C14 C 1.1371(9) 0.4933(9) 0.7476(4)
H8 H 1.1008 0.5592 0.7263
C15 C 1.0820(8) 0.4020(9) 0.7828(4)
C16 C 0.9105(8) 0.3297(8) 0.8124(4)
C17 C 0.6571(6) 0.1522(7) 0.8402(4)
H9 H 0.6717 0.2386 0.8454
H10 H 0.6154 0.1412 0.7956
C18 C 0.5874(6) 0.1134(7) 0.8998(4)
H11 H 0.5572 0.0335 0.8893
H12 H 0.6320 0.1075 0.9436
C19 C 0.4974(6) 0.2006(8) 0.9098(4)
H13 H 0.4603 0.2167 0.8641
H14 H 0.5275 0.2768 0.9278
C20 C 0.4164(7) 0.1536(8) 0.9608(4)
H15 H 0.3603 0.2132 0.9663
H16 H 0.4527 0.1379 1.0062
H17 H 0.3845 0.0796 0.9424
C21 C 0.7652(6) -0.0757(7) 0.8640(4)
H18 H 0.7401 -0.0710 0.9122
H19 H 0.7067 -0.1116 0.8346
C22 C 0.8591(7) -0.1612(7) 0.8649(4)
H20 H 0.9246 -0.1182 0.8810
H21 H 0.8693 -0.1897 0.8168
C23 C 0.8429(7) -0.2686(7) 0.9126(4)
H22 H 0.8357 -0.2399 0.9610
H23 H 0.7754 -0.3090 0.8978
C24 C 0.9330(7) -0.3581(8) 0.9119(5)
H24 H 0.9175 -0.4249 0.9429
H25 H 0.9997 -0.3197 0.9282
H26 H 0.9401 -0.3878 0.8643
C25 C 0.8170(6) 0.0792(7) 0.7426(3)
H27 H 0.7575 0.0420 0.7147
H28 H 0.8213 0.1636 0.7279
C26 C 0.9208(6) 0.0170(7) 0.7245(4)
H29 H 0.9791 0.0434 0.7575
H30 H 0.9124 -0.0702 0.7300
C27 C 0.9509(7) 0.0444(7) 0.6501(4)
H31 H 1.0079 -0.0110 0.6366
H32 H 0.8881 0.0311 0.6178
C28 C 0.9891(7) 0.1707(8) 0.6426(4)
H33 H 1.0081 0.1847 0.5942
H34 H 1.0519 0.1839 0.6740
H35 H 0.9322 0.2258 0.6546
O1 O 0.8764(4) -0.0045(5) 1.0028(2)
H36 H 0.8889 -0.0406 1.0497
O2 O 1.1155(4) 0.1237(5) 0.8804(3)
O3 O 0.9744(5) 0.4138(5) 0.7800(3)
O4 O 0.8149(5) 0.3489(5) 0.8037(3)
P1 P 0.78454(18) 0.0755(2) 0.83357(10)
Br1 Br 0.72257(9) 0.49837(10) 1.04051(5)
loop_
_geom_bond_atom_site_label_1
_geom_bond_atom_site_label_2
_geom_bond_site_symmetry_1
_geom_bond_site_symmetry_2
C1 C2 1_555 1_555
C2 H1 1_555 1_555
C3 C2 1_555 1_555
H2 C3 1_555 1_555
C4 C3 1_555 1_555
C5 C4 1_555 1_555
C6 C1 1_555 1_555
H3 C6 1_555 1_555
C7 C5 1_555 1_555
H4 C7 1_555 1_555
C8 C7 1_555 1_555
C9 C8 1_555 1_555
C10 C9 1_555 1_555
C11 C10 1_555 1_555
H5 C11 1_555 1_555
C12 C11 1_555 1_555
H6 C12 1_555 1_555
C13 C12 1_555 1_555
H7 C13 1_555 1_555
C14 C13 1_555 1_555
H8 C14 1_555 1_555
C15 C10 1_555 1_555
C16 C8 1_555 1_555
C17 H9 1_555 1_555
H10 C17 1_555 1_555
C18 C17 1_555 1_555
H11 C18 1_555 1_555
H12 C18 1_555 1_555
C19 C18 1_555 1_555
H13 C19 1_555 1_555
H14 C19 1_555 1_555
C20 C19 1_555 1_555
H15 C20 1_555 1_555
H16 C20 1_555 1_555
H17 C20 1_555 1_555
C21 H18 1_555 1_555
H19 C21 1_555 1_555
C22 C21 1_555 1_555
H20 C22 1_555 1_555
H21 C22 1_555 1_555
C23 C22 1_555 1_555
H22 C23 1_555 1_555
H23 C23 1_555 1_555
C24 C23 1_555 1_555
H24 C24 1_555 1_555
H25 C24 1_555 1_555
H26 C24 1_555 1_555
C25 H27 1_555 1_555
H28 C25 1_555 1_555
C26 C25 1_555 1_555
H29 C26 1_555 1_555
H30 C26 1_555 1_555
C27 C26 1_555 1_555
H31 C27 1_555 1_555
H32 C27 1_555 1_555
C28 C27 1_555 1_555
H33 C28 1_555 1_555
H34 C28 1_555 1_555
H35 C28 1_555 1_555
O1 C4 1_555 1_555
H36 O1 1_555 1_555
O2 C9 1_555 1_555
O3 C15 1_555 1_555
O4 C16 1_555 1_555
P1 C7 1_555 1_555
Br1 C1 1_555 1_555
C5 C6 1_555 1_555
C14 C15 1_555 1_555
C16 O3 1_555 1_555
C17 P1 1_555 1_555
C21 P1 1_555 1_555
C25 P1 1_555 1_555

#END
