
#######################################################################
#
#                 Cambridge Crystallographic Data Centre
#                                CCDC 
#
#######################################################################
#
# If this CIF has been generated from an entry in the Cambridge 
# Structural Database, then it will include bibliographic, chemical, 
# crystal, experimental, refinement or atomic coordinate data resulting 
# from the CCDC's data processing and validation procedures.
#
#######################################################################

data_LUHHIH
_chemical_formula_moiety         'C29 H23 Br2 N1 O9'
_chemical_name_systematic        
'dimethyl 8-bromo-3-(5-bromo-2-((4-methoxybenzoyl)oxy)phenyl)-4-oxo-2,3,3a,9b-tetrahydrochromeno[3,4-c]pyrrole-1,1(4H)-dicarboxylate'
_symmetry_cell_setting           monoclinic
_symmetry_space_group_name_H-M   'P 21'
_symmetry_Int_Tables_number      4
_space_group_name_Hall           'P 2yb'
loop_
_symmetry_equiv_pos_site_id
_symmetry_equiv_pos_as_xyz
1 x,y,z
2 -x,1/2+y,-z
_cell_length_a                   8.6468(4)
_cell_length_b                   28.2242(13)
_cell_length_c                   11.8307(5)
_cell_angle_alpha                90
_cell_angle_beta                 91.701(3)
_cell_angle_gamma                90
_cell_volume                     2886
_exptl_crystal_colour            colorless
_exptl_crystal_description       prism
_cell_formula_units_Z            4
loop_
_atom_site_label
_atom_site_type_symbol
_atom_site_fract_x
_atom_site_fract_y
_atom_site_fract_z
C1 C 0.4538(7) 0.8428(2) 1.2389(5)
C2 C 0.5063(7) 0.8747(2) 1.3186(5)
H1 H 0.5596 0.8639 1.3850
C3 C 0.4821(6) 0.9225(2) 1.3023(5)
H2 H 0.5175 0.9450 1.3570
C4 C 0.4048(6) 0.93707(19) 1.2043(5)
C5 C 0.3512(6) 0.90608(19) 1.1236(4)
C6 C 0.3762(6) 0.8576(2) 1.1421(5)
H3 H 0.3396 0.8351 1.0880
C7 C 0.3082(7) 1.0131(2) 1.2529(5)
C8 C 0.3135(6) 1.0641(2) 1.2199(5)
C9 C 0.2755(6) 1.0976(2) 1.3003(5)
H4 H 0.2479 1.0878 1.3738
C10 C 0.2774(6) 1.1454(2) 1.2740(5)
H5 H 0.2517 1.1682 1.3294
C11 C 0.3163(6) 1.1597(2) 1.1689(5)
C12 C 0.3649(9) 1.2257(2) 1.0456(6)
H6 H 0.3588 1.2604 1.0457
H7 H 0.2973 1.2131 0.9848
H8 H 0.4718 1.2159 1.0334
C13 C 0.3517(6) 1.1273(2) 1.0859(5)
H9 H 0.3757 1.1377 1.0121
C14 C 0.3516(6) 1.0792(2) 1.1123(5)
H10 H 0.3777 1.0565 1.0566
C15 C 0.2811(5) 0.92363(19) 1.0103(4)
H11 H 0.2172 0.9526 1.0225
C16 C 0.4115(6) 0.93472(18) 0.9296(4)
H12 H 0.5096 0.9396 0.9749
C17 C 0.3816(7) 0.9777(2) 0.8573(5)
C18 C 0.5337(6) 0.9414(2) 0.7135(4)
C19 C 0.6226(6) 0.9509(2) 0.6208(4)
H13 H 0.6246 0.9818 0.5887
C20 C 0.7082(6) 0.9146(2) 0.5761(4)
H14 H 0.7712 0.9204 0.5131
C21 C 0.7023(6) 0.8700(2) 0.6225(4)
C22 C 0.6119(6) 0.86074(19) 0.7140(4)
H15 H 0.6106 0.8298 0.7456
C23 C 0.5227(6) 0.89630(19) 0.7604(4)
C24 C 0.4253(5) 0.88924(18) 0.8619(4)
H16 H 0.4771 0.8650 0.9116
C25 C 0.2552(5) 0.87460(19) 0.8437(4)
C26 C 0.1771(7) 0.9011(2) 0.7444(5)
C27 C 0.1722(7) 0.9097(2) 0.5454(4)
H17 H 0.2125 0.8940 0.4785
H18 H 0.2108 0.9423 0.5494
H19 H 0.0588 0.9100 0.5403
C28 C 0.2357(7) 0.8216(2) 0.8277(4)
C29 C 0.0438(7) 0.7610(2) 0.8010(5)
H20 H -0.0685 0.7582 0.7895
H21 H 0.0761 0.7442 0.8701
H22 H 0.0955 0.7471 0.7362
N1 N 0.1882(5) 0.88729(15) 0.9520(3)
H23 H 0.1034 0.8747 0.9784
O1 O 0.3921(4) 0.98589(12) 1.1811(3)
O2 O 0.2399(4) 0.99795(15) 1.3311(3)
O3 O 0.3163(4) 1.20786(15) 1.1520(4)
O4 O 0.3092(5) 1.01203(14) 0.8867(3)
O5 O 0.4456(4) 0.97894(13) 0.7533(3)
O6 O 0.0898(4) 0.93392(16) 0.7552(3)
O7 O 0.2231(4) 0.88405(14) 0.6464(3)
O8 O 0.3375(5) 0.79245(14) 0.8334(3)
O9 O 0.0861(4) 0.81119(14) 0.8115(3)
Br1 Br 0.49318(9) 0.77739(2) 1.25888(6)
Br2 Br 0.82147(7) 0.82085(2) 0.56012(5)
C30 C 0.8503(7) 0.1442(2) -0.0204(5)
C31 C 0.9358(7) 0.1120(3) -0.0835(5)
H24 H 0.9775 0.1206 -0.1539
C32 C 0.9568(7) 0.0673(2) -0.0390(5)
H25 H 1.0127 0.0443 -0.0799
C33 C 0.8983(6) 0.0555(2) 0.0632(4)
C34 C 0.8171(6) 0.0877(2) 0.1273(4)
C35 C 0.7942(6) 0.1325(2) 0.0841(4)
H26 H 0.7399 0.1555 0.1262
C36 C 0.8332(8) -0.0254(3) 0.0561(7)
C37 C 0.8711(7) -0.0729(2) 0.1033(6)
C38 C 0.8064(7) -0.1116(3) 0.0435(8)
H27 H 0.7440 -0.1070 -0.0230
C39 C 0.8366(9) -0.1567(3) 0.0847(10)
H28 H 0.7925 -0.1833 0.0462
C40 C 0.9286(9) -0.1642(3) 0.1798(8)
C41 C 1.0446(11) -0.2208(3) 0.3076(7)
H29 H 1.0482 -0.2551 0.3195
H30 H 1.0013 -0.2054 0.3739
H31 H 1.1494 -0.2088 0.2963
C42 C 0.9929(7) -0.1255(3) 0.2361(6)
H32 H 1.0559 -0.1299 0.3024
C43 C 0.9648(7) -0.0807(2) 0.1952(6)
H33 H 1.0124 -0.0544 0.2324
C44 C 0.7578(6) 0.07343(19) 0.2419(4)
H34 H 0.6909 0.0447 0.2335
C45 C 0.8912(6) 0.06338(18) 0.3281(4)
H35 H 0.9890 0.0591 0.2862
C46 C 0.8630(6) 0.0194(2) 0.3975(5)
C47 C 1.0099(6) 0.05628(19) 0.5498(4)
C48 C 1.0991(6) 0.0464(2) 0.6448(5)
H36 H 1.1051 0.0151 0.6743
C49 C 1.1799(6) 0.0832(2) 0.6966(4)
H37 H 1.2425 0.0774 0.7625
C50 C 1.1693(6) 0.1283(2) 0.6521(5)
C51 C 1.0800(6) 0.13761(19) 0.5574(4)
H38 H 1.0742 0.1689 0.5281
C52 C 0.9974(5) 0.10115(18) 0.5039(4)
C53 C 0.9037(5) 0.10894(18) 0.3979(4)
H39 H 0.9579 0.1332 0.3518
C54 C 0.7345(6) 0.12417(19) 0.4061(4)
C55 C 0.6507(6) 0.0971(2) 0.5001(5)
C56 C 0.6271(7) 0.0926(2) 0.6987(4)
H40 H 0.6577 0.1101 0.7673
H41 H 0.6713 0.0607 0.7021
H42 H 0.5141 0.0905 0.6928
C57 C 0.7189(7) 0.1779(2) 0.4228(4)
C58 C 0.5369(7) 0.2400(2) 0.4263(6)
H43 H 0.4247 0.2449 0.4262
H44 H 0.5796 0.2555 0.3600
H45 H 0.5841 0.2537 0.4952
N2 N 0.6704(4) 0.11172(16) 0.2951(3)
H46 H 0.5888 0.1255 0.2634
O10 O 0.9230(4) 0.00962(14) 0.1051(3)
O11 O 0.7380(6) -0.01629(17) -0.0163(5)
O12 O 0.9483(6) -0.21035(18) 0.2088(6)
O13 O 0.7904(4) -0.01496(13) 0.3660(3)
O14 O 0.9287(4) 0.01742(12) 0.5041(3)
O15 O 0.5773(4) 0.06222(15) 0.4859(3)
O16 O 0.6842(4) 0.11739(14) 0.6000(3)
O17 O 0.8253(5) 0.20463(15) 0.4306(4)
O18 O 0.5701(4) 0.18961(14) 0.4225(3)
Br3 Br 0.80463(11) 0.20424(3) -0.08513(6)
Br4 Br 1.27770(8) 0.17884(3) 0.72504(6)
loop_
_geom_bond_atom_site_label_1
_geom_bond_atom_site_label_2
_geom_bond_site_symmetry_1
_geom_bond_site_symmetry_2
C1 C2 1_555 1_555
C2 H1 1_555 1_555
C3 C2 1_555 1_555
H2 C3 1_555 1_555
C4 C3 1_555 1_555
C5 C4 1_555 1_555
C6 C1 1_555 1_555
H3 C6 1_555 1_555
C7 C8 1_555 1_555
C8 C9 1_555 1_555
C9 H4 1_555 1_555
C10 C9 1_555 1_555
H5 C10 1_555 1_555
C11 C10 1_555 1_555
C12 H6 1_555 1_555
H7 C12 1_555 1_555
H8 C12 1_555 1_555
C13 C11 1_555 1_555
H9 C13 1_555 1_555
C14 C8 1_555 1_555
H10 C14 1_555 1_555
C15 C5 1_555 1_555
H11 C15 1_555 1_555
C16 C15 1_555 1_555
H12 C16 1_555 1_555
C17 C16 1_555 1_555
C18 C19 1_555 1_555
C19 H13 1_555 1_555
C20 C19 1_555 1_555
H14 C20 1_555 1_555
C21 C20 1_555 1_555
C22 C21 1_555 1_555
H15 C22 1_555 1_555
C23 C18 1_555 1_555
C24 C16 1_555 1_555
H16 C24 1_555 1_555
C25 C24 1_555 1_555
C26 C25 1_555 1_555
C27 H17 1_555 1_555
H18 C27 1_555 1_555
H19 C27 1_555 1_555
C28 C25 1_555 1_555
C29 H20 1_555 1_555
H21 C29 1_555 1_555
H22 C29 1_555 1_555
N1 C15 1_555 1_555
H23 N1 1_555 1_555
O1 C4 1_555 1_555
O2 C7 1_555 1_555
O3 C11 1_555 1_555
O4 C17 1_555 1_555
O5 C17 1_555 1_555
O6 C26 1_555 1_555
O7 C26 1_555 1_555
O8 C28 1_555 1_555
O9 C28 1_555 1_555
Br1 C1 1_555 1_555
Br2 C21 1_555 1_555
C30 C31 1_555 1_555
C31 H24 1_555 1_555
C32 C31 1_555 1_555
H25 C32 1_555 1_555
C33 C32 1_555 1_555
C34 C33 1_555 1_555
C35 C30 1_555 1_555
H26 C35 1_555 1_555
C36 C37 1_555 1_555
C37 C38 1_555 1_555
C38 H27 1_555 1_555
C39 C38 1_555 1_555
H28 C39 1_555 1_555
C40 C39 1_555 1_555
C41 H29 1_555 1_555
H30 C41 1_555 1_555
H31 C41 1_555 1_555
C42 C40 1_555 1_555
H32 C42 1_555 1_555
C43 C37 1_555 1_555
H33 C43 1_555 1_555
C44 C34 1_555 1_555
H34 C44 1_555 1_555
C45 C44 1_555 1_555
H35 C45 1_555 1_555
C46 C45 1_555 1_555
C47 C48 1_555 1_555
C48 H36 1_555 1_555
C49 C48 1_555 1_555
H37 C49 1_555 1_555
C50 C49 1_555 1_555
C51 C50 1_555 1_555
H38 C51 1_555 1_555
C52 C47 1_555 1_555
C53 C45 1_555 1_555
H39 C53 1_555 1_555
C54 C53 1_555 1_555
C55 C54 1_555 1_555
C56 H40 1_555 1_555
H41 C56 1_555 1_555
H42 C56 1_555 1_555
C57 C54 1_555 1_555
C58 H43 1_555 1_555
H44 C58 1_555 1_555
H45 C58 1_555 1_555
N2 C44 1_555 1_555
H46 N2 1_555 1_555
O10 C33 1_555 1_555
O11 C36 1_555 1_555
O12 C40 1_555 1_555
O13 C46 1_555 1_555
O14 C46 1_555 1_555
O15 C55 1_555 1_555
O16 C55 1_555 1_555
O17 C57 1_555 1_555
O18 C57 1_555 1_555
Br3 C30 1_555 1_555
Br4 C50 1_555 1_555
C5 C6 1_555 1_555
C7 O1 1_555 1_555
C12 O3 1_555 1_555
C13 C14 1_555 1_555
C18 O5 1_555 1_555
C22 C23 1_555 1_555
C23 C24 1_555 1_555
C25 N1 1_555 1_555
C27 O7 1_555 1_555
C29 O9 1_555 1_555
C34 C35 1_555 1_555
C36 O10 1_555 1_555
C41 O12 1_555 1_555
C42 C43 1_555 1_555
C47 O14 1_555 1_555
C51 C52 1_555 1_555
C52 C53 1_555 1_555
C54 N2 1_555 1_555
C56 O16 1_555 1_555
C58 O18 1_555 1_555

#END
