
#######################################################################
#
#                 Cambridge Crystallographic Data Centre
#                                CCDC 
#
#######################################################################
#
# If this CIF has been generated from an entry in the Cambridge 
# Structural Database, then it will include bibliographic, chemical, 
# crystal, experimental, refinement or atomic coordinate data resulting 
# from the CCDC's data processing and validation procedures.
#
#######################################################################

data_LUHHED
_chemical_formula_moiety         'C25 H12 Br1 F3 O5'
_chemical_name_systematic        
'3-(5-bromo-2-(trifluoromethyl)-1-benzofuran-3-yl)-2-oxo-2H-chromen-4-yl benzoate'
_symmetry_cell_setting           monoclinic
_symmetry_space_group_name_H-M   'P 21/c'
_symmetry_Int_Tables_number      14
_space_group_name_Hall           '-P 2ybc'
loop_
_symmetry_equiv_pos_site_id
_symmetry_equiv_pos_as_xyz
1 x,y,z
2 -x,1/2+y,1/2-z
3 -x,-y,-z
4 x,1/2-y,1/2+z
_cell_length_a                   12.5975(4)
_cell_length_b                   9.9614(3)
_cell_length_c                   17.1925(4)
_cell_angle_alpha                90
_cell_angle_beta                 102.316(2)
_cell_angle_gamma                90
_cell_volume                     2107.81
_exptl_crystal_colour            colorless
_exptl_crystal_description       prism
_cell_formula_units_Z            4
loop_
_atom_site_label
_atom_site_type_symbol
_atom_site_fract_x
_atom_site_fract_y
_atom_site_fract_z
C1 C 0.2915(2) 0.5019(3) 0.47171(14)
C2 C 0.22228(19) 0.5180(2) 0.39840(14)
H1 H 0.1675 0.4539 0.3783
C3 C 0.23645(19) 0.6331(2) 0.35507(14)
C4 C 0.31549(19) 0.7259(2) 0.38904(14)
C5 C 0.3847(2) 0.7102(3) 0.46253(15)
H2 H 0.4383 0.7755 0.4834
C6 C 0.3721(2) 0.5949(3) 0.50396(15)
H3 H 0.4181 0.5786 0.5545
C7 C 0.18448(18) 0.6877(2) 0.27782(13)
C8 C 0.23398(19) 0.8073(2) 0.27338(14)
C9 C 0.2247(2) 0.9133(3) 0.21136(15)
C10 C 0.09988(18) 0.6230(2) 0.21673(13)
C11 C 0.00485(19) 0.7032(3) 0.17952(14)
C12 C -0.06142(19) 0.5145(3) 0.09575(14)
C13 C -0.1410(2) 0.4697(3) 0.03286(14)
H4 H -0.1997 0.5264 0.0092
C14 C -0.1332(2) 0.3413(3) 0.00530(16)
H5 H -0.1867 0.3093 -0.0383
C15 C -0.0482(2) 0.2577(3) 0.04037(16)
H6 H -0.0440 0.1692 0.0207
C16 C 0.0300(2) 0.3029(3) 0.10357(15)
H7 H 0.0873 0.2448 0.1281
C17 C 0.02528(18) 0.4337(2) 0.13168(13)
C18 C 0.10540(18) 0.4939(2) 0.19392(13)
C19 C 0.27686(18) 0.3872(2) 0.20220(14)
C20 C 0.35320(18) 0.2954(2) 0.25424(14)
C21 C 0.3289(2) 0.2385(2) 0.32252(14)
H8 H 0.2621 0.2587 0.3372
C22 C 0.4027(2) 0.1525(3) 0.36866(16)
H9 H 0.3864 0.1137 0.4152
C23 C 0.4997(2) 0.1226(3) 0.34770(16)
H10 H 0.5501 0.0636 0.3797
C24 C 0.5234(2) 0.1787(3) 0.28014(19)
H11 H 0.5902 0.1578 0.2657
C25 C 0.4510(2) 0.2649(3) 0.23328(16)
H12 H 0.4680 0.3032 0.1868
O1 O 0.31411(14) 0.83434(16) 0.33935(10)
O2 O -0.01190(14) 0.81741(18) 0.19708(11)
O3 O -0.07150(13) 0.64418(17) 0.12104(10)
O4 O 0.18848(13) 0.41285(16) 0.23432(9)
O5 O 0.28670(14) 0.43457(19) 0.14011(10)
F1 F 0.16669(13) 1.01923(15) 0.22602(10)
F2 F 0.32236(13) 0.96003(16) 0.20642(9)
F3 F 0.17735(14) 0.86627(15) 0.13948(9)
Br1 Br 0.27920(3) 0.34376(3) 0.531241(15)
loop_
_geom_bond_atom_site_label_1
_geom_bond_atom_site_label_2
_geom_bond_site_symmetry_1
_geom_bond_site_symmetry_2
C1 C2 1_555 1_555
C2 H1 1_555 1_555
C3 C2 1_555 1_555
C4 C3 1_555 1_555
C5 C4 1_555 1_555
H2 C5 1_555 1_555
C6 C1 1_555 1_555
H3 C6 1_555 1_555
C7 C3 1_555 1_555
C8 C7 1_555 1_555
C9 C8 1_555 1_555
C10 C7 1_555 1_555
C11 C10 1_555 1_555
C12 C13 1_555 1_555
C13 H4 1_555 1_555
C14 C13 1_555 1_555
H5 C14 1_555 1_555
C15 C14 1_555 1_555
H6 C15 1_555 1_555
C16 C15 1_555 1_555
H7 C16 1_555 1_555
C17 C12 1_555 1_555
C18 C10 1_555 1_555
C19 C20 1_555 1_555
C20 C21 1_555 1_555
C21 H8 1_555 1_555
C22 C21 1_555 1_555
H9 C22 1_555 1_555
C23 C22 1_555 1_555
H10 C23 1_555 1_555
C24 C23 1_555 1_555
H11 C24 1_555 1_555
C25 C20 1_555 1_555
H12 C25 1_555 1_555
O1 C4 1_555 1_555
O2 C11 1_555 1_555
O3 C11 1_555 1_555
O4 C18 1_555 1_555
O5 C19 1_555 1_555
F1 C9 1_555 1_555
F2 C9 1_555 1_555
F3 C9 1_555 1_555
Br1 C1 1_555 1_555
C5 C6 1_555 1_555
C8 O1 1_555 1_555
C12 O3 1_555 1_555
C16 C17 1_555 1_555
C17 C18 1_555 1_555
C19 O4 1_555 1_555
C24 C25 1_555 1_555

#END
