
#######################################################################
#
#                 Cambridge Crystallographic Data Centre
#                                CCDC 
#
#######################################################################
#
# If this CIF has been generated from an entry in the Cambridge 
# Structural Database, then it will include bibliographic, chemical, 
# crystal, experimental, refinement or atomic coordinate data resulting 
# from the CCDC's data processing and validation procedures.
#
#######################################################################

data_LUHJIJ
_chemical_formula_moiety         'C19 H17 N1 O3'
_chemical_name_systematic        
'ethyl 2-acetyl-6-phenylindolizine-7-carboxylate'
_symmetry_cell_setting           triclinic
_symmetry_space_group_name_H-M   'P -1'
_symmetry_Int_Tables_number      2
_space_group_name_Hall           '-P 1'
loop_
_symmetry_equiv_pos_site_id
_symmetry_equiv_pos_as_xyz
1 x,y,z
2 -x,-y,-z
_cell_length_a                   7.685(8)
_cell_length_b                   8.207(8)
_cell_length_c                   15.319(15)
_cell_angle_alpha                74.847(16)
_cell_angle_beta                 80.330(19)
_cell_angle_gamma                65.234(15)
_cell_volume                     844.928
_exptl_crystal_colour            colorless
_exptl_crystal_description       block
_cell_formula_units_Z            2
loop_
_atom_site_label
_atom_site_type_symbol
_atom_site_fract_x
_atom_site_fract_y
_atom_site_fract_z
N1 N 0.7453(3) 0.6825(3) 0.05259(19)
O1 O 0.7039(4) 1.2401(3) 0.14840(18)
O2 O 0.8649(4) 0.9968(3) 0.25248(18)
C1 C 0.7562(4) 0.9744(4) 0.0454(2)
H1 H 0.7625 1.0846 0.0124
C2 C 0.7557(4) 0.8477(4) -0.0010(2)
C3 C 0.7302(4) 0.7707(4) 0.1914(2)
C4 C 0.7295(4) 0.6496(4) 0.1458(2)
H2 H 0.7179 0.5414 0.1784
C5 C 0.7477(4) 0.9399(4) 0.1375(2)
C6 C 0.7668(5) 1.0759(4) 0.1786(2)
C7 C 0.7439(5) 0.5787(4) -0.0034(2)
H3 H 0.7372 0.4640 0.0149
O3 O 0.7587(4) 0.7076(4) -0.24942(19)
C8 C 0.6981(4) 0.7334(4) 0.2922(2)
C9 C 0.7611(5) 0.8423(4) -0.0903(3)
H4 H 0.7683 0.9328 -0.1403
C10 C 0.7538(4) 0.6722(4) -0.0921(2)
C11 C 0.7509(5) 0.6121(5) -0.1738(3)
C12 C 0.8164(6) 0.5720(5) 0.3462(3)
H5 H 0.9174 0.4852 0.3192
C13 C 0.5475(5) 0.8591(5) 0.3345(3)
H6 H 0.4667 0.9680 0.2997
C14 C 0.7377(6) 0.4290(5) -0.1616(3)
H7 H 0.7282 0.4099 -0.2195
H8 H 0.6261 0.4277 -0.1228
H9 H 0.8506 0.3328 -0.1346
C15 C 0.7857(8) 0.5390(6) 0.4394(3)
H10 H 0.8675 0.4317 0.4748
C16 C 0.5164(7) 0.8246(7) 0.4269(3)
H11 H 0.4142 0.9103 0.4541
C17 C 0.6336(8) 0.6655(7) 0.4802(3)
H12 H 0.6109 0.6432 0.5429
C18 C 0.8778(6) 1.1186(5) 0.3031(3)
H13 H 0.9497 1.1885 0.2667
H14 H 0.7502 1.2040 0.3185
C19 C 0.9734(11) 1.0079(10) 0.3845(4)
H15 H 0.9072 0.9317 0.4177
H16 H 0.9731 1.0864 0.4213
H17 H 1.1034 0.9319 0.3688
loop_
_geom_bond_atom_site_label_1
_geom_bond_atom_site_label_2
_geom_bond_site_symmetry_1
_geom_bond_site_symmetry_2
N1 C2 1_555 1_555
O1 C6 1_555 1_555
O2 C6 1_555 1_555
C1 H1 1_555 1_555
C2 C1 1_555 1_555
C3 C4 1_555 1_555
C4 N1 1_555 1_555
H2 C4 1_555 1_555
C5 C1 1_555 1_555
C6 C5 1_555 1_555
C7 N1 1_555 1_555
H3 C7 1_555 1_555
O3 C11 1_555 1_555
C8 C3 1_555 1_555
C9 C2 1_555 1_555
H4 C9 1_555 1_555
C10 C7 1_555 1_555
C11 C10 1_555 1_555
C12 C8 1_555 1_555
H5 C12 1_555 1_555
C13 C8 1_555 1_555
H6 C13 1_555 1_555
C14 C11 1_555 1_555
H7 C14 1_555 1_555
H8 C14 1_555 1_555
H9 C14 1_555 1_555
C15 C12 1_555 1_555
H10 C15 1_555 1_555
C16 C13 1_555 1_555
H11 C16 1_555 1_555
C17 C15 1_555 1_555
H12 C17 1_555 1_555
C18 O2 1_555 1_555
H13 C18 1_555 1_555
H14 C18 1_555 1_555
C19 C18 1_555 1_555
H15 C19 1_555 1_555
H16 C19 1_555 1_555
H17 C19 1_555 1_555
C3 C5 1_555 1_555
C9 C10 1_555 1_555
C16 C17 1_555 1_555

#END
