
#######################################################################
#
#                 Cambridge Crystallographic Data Centre
#                                CCDC 
#
#######################################################################
#
# If this CIF has been generated from an entry in the Cambridge 
# Structural Database, then it will include bibliographic, chemical, 
# crystal, experimental, refinement or atomic coordinate data resulting 
# from the CCDC's data processing and validation procedures.
#
#######################################################################

data_LUHKAB
_chemical_compound_source        'fermentation extract of Pestalotiopsis fici'
_chemical_name_common            
"Methyl 4'-chloro-8'-(2-(2,5-dihydroxy-1-(3-methylbut-2-en-1-yl)-7-oxabicyclo[4.1.0]hept-3-ylidene)vinyl)-5-hydroxy-5'-methoxy-7,8'-dimethyl-3',4-dioxo-1'H,4H-spiro[1,3-benzodioxine-2,2'-bicyclo[2.2.2]oct[5]ene]-1'-carboxylate"
_chemical_formula_moiety         'C33 H35 Cl1 O11'
_chemical_name_systematic        'Chloropestolide A'
_chemical_properties_biological  
'tested for inhibitory activity against human cancer cell lines HeLa and HT29 and anti-HIV activity'
_symmetry_cell_setting           orthorhombic
_symmetry_space_group_name_H-M   'P 21 21 21'
_symmetry_Int_Tables_number      19
_space_group_name_Hall           'P 2ac 2ab'
loop_
_symmetry_equiv_pos_site_id
_symmetry_equiv_pos_as_xyz
1 x,y,z
2 1/2-x,-y,1/2+z
3 -x,1/2+y,1/2-z
4 1/2+x,1/2-y,-z
_cell_length_a                   11.528(2)
_cell_length_b                   16.331(3)
_cell_length_c                   16.484(3)
_cell_angle_alpha                90
_cell_angle_beta                 90
_cell_angle_gamma                90
_cell_volume                     3103.34
_exptl_crystal_colour            colorless
_exptl_crystal_description       needle
_cell_formula_units_Z            4
loop_
_atom_site_label
_atom_site_type_symbol
_atom_site_fract_x
_atom_site_fract_y
_atom_site_fract_z
Cl1 Cl 0.92733(6) 0.39140(4) 0.11815(4)
O1 O 0.96186(19) 0.28556(12) -0.02256(12)
O2 O 0.96526(16) 0.53114(10) 0.01860(11)
O3 O 0.91334(16) 0.35519(10) -0.18158(11)
O4 O 0.75741(16) 0.27624(10) -0.12791(12)
O5 O 0.6736(2) 0.51355(11) -0.21600(12)
O6 O 0.66348(19) 0.37851(11) -0.23647(11)
O7 O 0.67770(19) 0.77286(12) -0.10625(15)
H1 H 0.7488 0.7812 -0.0989
O8 O 0.43342(18) 0.72771(10) -0.06939(12)
O9 O 0.40456(17) 0.66811(11) 0.08056(12)
H2 H 0.4196 0.6614 0.1300
O10 O 1.05458(18) 0.29996(11) -0.25285(12)
O11 O 1.0617(2) 0.13639(12) -0.27124(13)
H3 H 1.0844 0.1850 -0.2662
C1 C 0.7562(2) 0.42438(14) -0.11687(16)
C2 C 0.6630(2) 0.41314(15) -0.04930(15)
H4 H 0.6105 0.4611 -0.0492
H5 H 0.6159 0.3640 -0.0614
C3 C 0.7186(2) 0.40374(14) 0.03601(15)
C4 C 0.6845(2) 0.47342(14) 0.09220(15)
H6 H 0.6961 0.4658 0.1487
C5 C 0.6402(2) 0.54310(16) 0.06856(16)
C6 C 0.8916(2) 0.33801(14) -0.03546(16)
C7 C 0.8540(2) 0.40528(14) 0.02470(15)
C8 C 0.8877(2) 0.48227(14) -0.01956(16)
C9 C 0.8385(2) 0.49240(14) -0.09249(16)
H7 H 0.8540 0.5384 -0.1261
C10 C 0.8293(2) 0.34555(14) -0.11833(16)
C11 C 0.6952(2) 0.44456(15) -0.19565(15)
C12 C 0.6793(2) 0.32272(15) 0.07457(17)
H8 H 0.7124 0.3179 0.1291
H9 H 0.7059 0.2768 0.0411
H10 H 0.5944 0.3217 0.0781
C13 C 0.5905(2) 0.61026(15) 0.04097(16)
C14 C 0.6533(3) 0.68622(15) 0.01418(17)
H11 H 0.7357 0.6833 0.0308
H12 H 0.6181 0.7350 0.0399
C15 C 0.6446(3) 0.69312(16) -0.07869(19)
H13 H 0.6969 0.6515 -0.1040
C16 C 0.5236(2) 0.67971(15) -0.10855(18)
H14 H 0.5154 0.6730 -0.1686
C17 C 0.4336(2) 0.63981(14) -0.05943(16)
C18 C 0.4610(2) 0.61219(15) 0.02709(16)
H15 H 0.4286 0.5561 0.0358
C19 C 0.3342(2) 0.59553(15) -0.10129(17)
H16 H 0.2670 0.5922 -0.0640
H17 H 0.3100 0.6267 -0.1499
C20 C 0.3708(3) 0.51028(16) -0.12601(17)
H18 H 0.4430 0.5063 -0.1535
C21 C 0.3150(3) 0.44028(16) -0.11421(18)
C22 C 0.3639(3) 0.36028(16) -0.1443(2)
H19 H 0.4390 0.3701 -0.1705
H20 H 0.3103 0.3359 -0.1836
H21 H 0.3744 0.3228 -0.0985
C23 C 0.2004(3) 0.4321(2) -0.0721(2)
H22 H 0.1814 0.4837 -0.0447
H23 H 0.2046 0.3879 -0.0321
H24 H 0.1400 0.4195 -0.1121
C24 C 0.5975(3) 0.39087(17) -0.31077(16)
H25 H 0.5653 0.3384 -0.3289
H26 H 0.6486 0.4130 -0.3529
H27 H 0.5341 0.4295 -0.3005
C25 C 0.9972(3) 0.60508(15) -0.02382(18)
H28 H 1.0521 0.6365 0.0092
H29 H 0.9277 0.6381 -0.0338
H30 H 1.0335 0.5909 -0.0757
C26 C 0.9670(3) 0.28763(16) -0.21247(16)
C27 C 0.9128(3) 0.20966(15) -0.19863(16)
C28 C 0.9594(3) 0.13676(17) -0.23016(17)
C29 C 0.9010(3) 0.06327(16) -0.21868(19)
H31 H 0.9336 0.0138 -0.2388
C30 C 0.7956(3) 0.06132(16) -0.1782(2)
C31 C 0.7476(3) 0.13379(16) -0.14716(17)
H32 H 0.6750 0.1331 -0.1200
C32 C 0.8078(2) 0.20569(15) -0.15693(16)
C33 C 0.7304(3) -0.01849(17) -0.1664(2)
H33 H 0.7644 -0.0608 -0.2012
H34 H 0.6487 -0.0107 -0.1810
H35 H 0.7359 -0.0355 -0.1096
loop_
_geom_bond_atom_site_label_1
_geom_bond_atom_site_label_2
_geom_bond_site_symmetry_1
_geom_bond_site_symmetry_2
Cl1 C7 1_555 1_555
O1 C6 1_555 1_555
O2 C8 1_555 1_555
O3 C10 1_555 1_555
O4 C10 1_555 1_555
O5 C11 1_555 1_555
O6 C11 1_555 1_555
O7 H1 1_555 1_555
O8 C16 1_555 1_555
O9 H2 1_555 1_555
O10 C26 1_555 1_555
O11 H3 1_555 1_555
C1 C2 1_555 1_555
C2 H4 1_555 1_555
H5 C2 1_555 1_555
C3 C2 1_555 1_555
C4 C3 1_555 1_555
H6 C4 1_555 1_555
C5 C4 1_555 1_555
C6 C7 1_555 1_555
C7 C3 1_555 1_555
C8 C7 1_555 1_555
C9 C1 1_555 1_555
H7 C9 1_555 1_555
C10 C1 1_555 1_555
C11 C1 1_555 1_555
C12 C3 1_555 1_555
H8 C12 1_555 1_555
H9 C12 1_555 1_555
H10 C12 1_555 1_555
C13 C5 1_555 1_555
C14 C13 1_555 1_555
H11 C14 1_555 1_555
H12 C14 1_555 1_555
C15 O7 1_555 1_555
H13 C15 1_555 1_555
C16 C15 1_555 1_555
H14 C16 1_555 1_555
C17 O8 1_555 1_555
C18 O9 1_555 1_555
H15 C18 1_555 1_555
C19 C17 1_555 1_555
H16 C19 1_555 1_555
H17 C19 1_555 1_555
C20 C19 1_555 1_555
H18 C20 1_555 1_555
C21 C20 1_555 1_555
C22 C21 1_555 1_555
H19 C22 1_555 1_555
H20 C22 1_555 1_555
H21 C22 1_555 1_555
C23 C21 1_555 1_555
H22 C23 1_555 1_555
H23 C23 1_555 1_555
H24 C23 1_555 1_555
C24 O6 1_555 1_555
H25 C24 1_555 1_555
H26 C24 1_555 1_555
H27 C24 1_555 1_555
C25 O2 1_555 1_555
H28 C25 1_555 1_555
H29 C25 1_555 1_555
H30 C25 1_555 1_555
C26 O3 1_555 1_555
C27 C26 1_555 1_555
C28 O11 1_555 1_555
C29 C28 1_555 1_555
H31 C29 1_555 1_555
C30 C29 1_555 1_555
C31 C30 1_555 1_555
H32 C31 1_555 1_555
C32 O4 1_555 1_555
C33 C30 1_555 1_555
H33 C33 1_555 1_555
H34 C33 1_555 1_555
H35 C33 1_555 1_555
C6 C10 1_555 1_555
C8 C9 1_555 1_555
C13 C18 1_555 1_555
C14 C15 1_555 1_555
C16 C17 1_555 1_555
C17 C18 1_555 1_555
C27 C28 1_555 1_555
C27 C32 1_555 1_555
C31 C32 1_555 1_555

#END
