
#######################################################################
#
#                 Cambridge Crystallographic Data Centre
#                                CCDC 
#
#######################################################################
#
# If this CIF has been generated from an entry in the Cambridge 
# Structural Database, then it will include bibliographic, chemical, 
# crystal, experimental, refinement or atomic coordinate data resulting 
# from the CCDC's data processing and validation procedures.
#
#######################################################################

data_LUHKII
_chemical_formula_moiety         'C25 H19 N1 O1'
_chemical_name_systematic        
2-(2-Benzoyl-1-phenylethen-1-yl)-5-phenylpyrrole
_symmetry_cell_setting           orthorhombic
_symmetry_space_group_name_H-M   'P b c a'
_symmetry_Int_Tables_number      61
_space_group_name_Hall           '-P 2ac 2ab'
loop_
_symmetry_equiv_pos_site_id
_symmetry_equiv_pos_as_xyz
1 x,y,z
2 1/2+x,y,1/2-z
3 x,1/2-y,1/2+z
4 1/2-x,1/2+y,z
5 -x,-y,-z
6 1/2-x,-y,1/2+z
7 -x,1/2+y,1/2-z
8 1/2+x,1/2-y,-z
_cell_length_a                   7.7933(7)
_cell_length_b                   19.4139(18)
_cell_length_c                   23.755(2)
_cell_angle_alpha                90
_cell_angle_beta                 90
_cell_angle_gamma                90
_cell_volume                     3594.09
_exptl_crystal_colour            orange
_exptl_crystal_description       plate
_chemical_melting_point          '149 deg.C'
_cell_formula_units_Z            8
_exptl_crystal_recrystallization_method ethanol
loop_
_atom_site_label
_atom_site_type_symbol
_atom_site_fract_x
_atom_site_fract_y
_atom_site_fract_z
O1 O 0.53972(17) 0.15388(6) 0.24516(5)
N1 N 0.42926(17) 0.24463(7) 0.17205(5)
H1 H 0.475(3) 0.2020(10) 0.1896(8)
C1 C 0.3904(2) 0.25814(8) 0.11728(6)
C2 C 0.3178(2) 0.32375(9) 0.11557(7)
H2 H 0.277(2) 0.3466(8) 0.0812(7)
C3 C 0.3134(2) 0.34936(9) 0.17023(7)
H3 H 0.271(2) 0.3938(9) 0.1822(7)
C4 C 0.3839(2) 0.29950(8) 0.20581(6)
C5 C 0.4068(2) 0.30150(8) 0.26597(6)
C6 C 0.4605(2) 0.25061(8) 0.30200(7)
H4 H 0.470(2) 0.2645(8) 0.3412(7)
C7 C 0.5173(2) 0.18065(8) 0.29232(7)
C8 C 0.5563(2) 0.13733(8) 0.34309(7)
C9 C 0.4866(2) 0.14989(9) 0.39612(7)
H5 H 0.411(2) 0.1908(9) 0.4017(7)
C10 C 0.5226(2) 0.10669(9) 0.44114(7)
H6 H 0.470(2) 0.1165(9) 0.4795(8)
C11 C 0.6298(2) 0.05058(9) 0.43395(8)
H7 H 0.656(2) 0.0208(9) 0.4667(7)
C12 C 0.7021(2) 0.03800(9) 0.38157(7)
H8 H 0.780(3) -0.0011(10) 0.3766(8)
C13 C 0.6652(2) 0.08058(9) 0.33645(7)
H9 H 0.716(2) 0.0706(9) 0.2996(7)
C14 C 0.4249(2) 0.20975(9) 0.07174(6)
C15 C 0.5248(2) 0.15095(9) 0.07933(7)
H10 H 0.574(2) 0.1420(8) 0.1176(7)
C16 C 0.5528(3) 0.10522(10) 0.03540(7)
H11 H 0.619(2) 0.0614(9) 0.0416(7)
C17 C 0.4807(3) 0.11742(10) -0.01710(8)
H12 H 0.501(2) 0.0833(9) -0.0481(8)
C18 C 0.3822(3) 0.17559(10) -0.02522(8)
H13 H 0.333(3) 0.1859(10) -0.0626(8)
C19 C 0.3539(3) 0.22145(10) 0.01823(7)
H14 H 0.285(2) 0.2634(9) 0.0119(7)
C20 C 0.3632(2) 0.36900(8) 0.29274(6)
C21 C 0.4371(2) 0.43078(8) 0.27456(7)
H15 H 0.513(2) 0.4300(8) 0.2423(7)
C22 C 0.3952(2) 0.49248(9) 0.30010(7)
H16 H 0.443(2) 0.5365(8) 0.2868(6)
C23 C 0.2776(2) 0.49388(9) 0.34422(7)
H17 H 0.245(2) 0.5381(9) 0.3621(7)
C24 C 0.2051(2) 0.43312(9) 0.36316(7)
H18 H 0.124(2) 0.4345(9) 0.3952(7)
C25 C 0.2482(2) 0.37113(9) 0.33771(6)
H19 H 0.194(2) 0.3276(8) 0.3498(6)
loop_
_geom_bond_atom_site_label_1
_geom_bond_atom_site_label_2
_geom_bond_site_symmetry_1
_geom_bond_site_symmetry_2
O1 C7 1_555 1_555
N1 H1 1_555 1_555
C1 N1 1_555 1_555
C2 C1 1_555 1_555
H2 C2 1_555 1_555
C3 C2 1_555 1_555
H3 C3 1_555 1_555
C4 N1 1_555 1_555
C5 C4 1_555 1_555
C6 C5 1_555 1_555
H4 C6 1_555 1_555
C7 C6 1_555 1_555
C8 C7 1_555 1_555
C9 C8 1_555 1_555
H5 C9 1_555 1_555
C10 C9 1_555 1_555
H6 C10 1_555 1_555
C11 C10 1_555 1_555
H7 C11 1_555 1_555
C12 C11 1_555 1_555
H8 C12 1_555 1_555
C13 C8 1_555 1_555
H9 C13 1_555 1_555
C14 C1 1_555 1_555
C15 C14 1_555 1_555
H10 C15 1_555 1_555
C16 C15 1_555 1_555
H11 C16 1_555 1_555
C17 C16 1_555 1_555
H12 C17 1_555 1_555
C18 C17 1_555 1_555
H13 C18 1_555 1_555
C19 C14 1_555 1_555
H14 C19 1_555 1_555
C20 C5 1_555 1_555
C21 C20 1_555 1_555
H15 C21 1_555 1_555
C22 C21 1_555 1_555
H16 C22 1_555 1_555
C23 C22 1_555 1_555
H17 C23 1_555 1_555
C24 C23 1_555 1_555
H18 C24 1_555 1_555
C25 C20 1_555 1_555
H19 C25 1_555 1_555
C3 C4 1_555 1_555
C12 C13 1_555 1_555
C18 C19 1_555 1_555
C24 C25 1_555 1_555

#END
