
#######################################################################
#
#                 Cambridge Crystallographic Data Centre
#                                CCDC 
#
#######################################################################
#
# If this CIF has been generated from an entry in the Cambridge 
# Structural Database, then it will include bibliographic, chemical, 
# crystal, experimental, refinement or atomic coordinate data resulting 
# from the CCDC's data processing and validation procedures.
#
#######################################################################

data_LUHMOR
_chemical_formula_moiety         'C24 H30 B2 N2 O2'
_chemical_name_systematic        
6,6,14,14-Tetraethyl-6,14-dihydro-5\l^5^,13\l^5^,6\l^5^,14\l^5^-pyrido[1,2-c]pyrido[1',2':3,4][1,3,2]oxazaborinino[6,5-g][1,3,2]benzoxazaborinine
_symmetry_cell_setting           triclinic
_symmetry_space_group_name_H-M   'P -1'
_symmetry_Int_Tables_number      2
_space_group_name_Hall           '-P 1'
loop_
_symmetry_equiv_pos_site_id
_symmetry_equiv_pos_as_xyz
1 x,y,z
2 -x,-y,-z
_cell_length_a                   7.2455(14)
_cell_length_b                   7.3683(15)
_cell_length_c                   11.081(2)
_cell_angle_alpha                82.68(3)
_cell_angle_beta                 77.30(3)
_cell_angle_gamma                68.24(3)
_cell_volume                     535.298
_exptl_crystal_colour            yellow
_exptl_crystal_description       block
_cell_formula_units_Z            1
loop_
_atom_site_label
_atom_site_type_symbol
_atom_site_fract_x
_atom_site_fract_y
_atom_site_fract_z
B1 B 0.2242(6) 0.8048(6) 0.2752(4)
C1 C 0.4402(5) 0.8661(5) 0.0854(3)
C2 C 0.6393(5) 0.8192(5) 0.0244(3)
H1 H 0.7330 0.6964 0.0399
C3 C 0.7026(5) 0.9516(5) -0.0595(3)
C4 C 0.9164(5) 0.9065(5) -0.1177(3)
C5 C 1.0725(5) 0.7570(5) -0.0737(3)
H2 H 1.0438 0.6824 -0.0028
C6 C 1.2694(5) 0.7174(6) -0.1335(4)
H3 H 1.3743 0.6163 -0.1042
C7 C 1.3084(6) 0.8308(6) -0.2381(4)
H4 H 1.4399 0.8053 -0.2818
C8 C 1.1507(5) 0.9809(6) -0.2763(4)
H5 H 1.1782 1.0592 -0.3455
C9 C 0.1571(6) 0.6273(6) 0.3389(3)
H6 H 0.2705 0.5313 0.3715
H7 H 0.0489 0.6760 0.4090
C10 C 0.0853(6) 0.5218(6) 0.2593(4)
H8 H -0.0344 0.6114 0.2318
H9 H 0.0557 0.4145 0.3072
H10 H 0.1896 0.4731 0.1887
C11 C 0.2952(5) 0.9106(6) 0.3645(3)
H11 H 0.3268 1.0199 0.3186
H12 H 0.1842 0.9626 0.4326
C12 C 0.4800(6) 0.7741(7) 0.4172(4)
H13 H 0.4458 0.6724 0.4695
H14 H 0.5215 0.8473 0.4648
H15 H 0.5886 0.7169 0.3504
N1 N 0.9582(4) 1.0204(4) -0.2185(3)
O1 O 0.3829(3) 0.7318(3) 0.1632(2)
B1A B 0.7758(6) 1.1952(6) -0.2752(4)
C1A C 0.5598(5) 1.1339(5) -0.0854(3)
C2A C 0.3607(5) 1.1808(5) -0.0244(3)
H1A H 0.2670 1.3036 -0.0399
C3A C 0.2974(5) 1.0484(5) 0.0595(3)
C4A C 0.0836(5) 1.0935(5) 0.1177(3)
C5A C -0.0725(5) 1.2430(5) 0.0737(3)
H2A H -0.0438 1.3176 0.0028
C6A C -0.2694(5) 1.2826(6) 0.1335(4)
H3A H -0.3743 1.3837 0.1042
C7A C -0.3084(6) 1.1692(6) 0.2381(4)
H4A H -0.4399 1.1947 0.2818
C8A C -0.1507(5) 1.0191(6) 0.2763(4)
H5A H -0.1782 0.9408 0.3455
C9A C 0.8429(6) 1.3727(6) -0.3389(3)
H6A H 0.7295 1.4687 -0.3715
H7A H 0.9511 1.3240 -0.4090
C10A C 0.9147(6) 1.4782(6) -0.2593(4)
H8A H 1.0344 1.3886 -0.2318
H9A H 0.9443 1.5855 -0.3072
H10A H 0.8104 1.5269 -0.1887
C11A C 0.7048(5) 1.0894(6) -0.3645(3)
H11A H 0.6732 0.9801 -0.3186
H12A H 0.8158 1.0374 -0.4326
C12A C 0.5200(6) 1.2259(7) -0.4172(4)
H13A H 0.5542 1.3276 -0.4695
H14A H 0.4785 1.1527 -0.4648
H15A H 0.4114 1.2831 -0.3504
N1A N 0.0418(4) 0.9796(4) 0.2185(3)
O1A O 0.6171(3) 1.2682(3) -0.1632(2)
loop_
_geom_bond_atom_site_label_1
_geom_bond_atom_site_label_2
_geom_bond_site_symmetry_1
_geom_bond_site_symmetry_2
B1 C9 1_555 1_555
C1 C2 1_555 1_555
C2 H1 1_555 1_555
C3 C2 1_555 1_555
C4 C3 1_555 1_555
C5 C4 1_555 1_555
H2 C5 1_555 1_555
C6 C5 1_555 1_555
H3 C6 1_555 1_555
C7 C6 1_555 1_555
H4 C7 1_555 1_555
C8 C7 1_555 1_555
H5 C8 1_555 1_555
C9 H6 1_555 1_555
H7 C9 1_555 1_555
C10 C9 1_555 1_555
H8 C10 1_555 1_555
H9 C10 1_555 1_555
H10 C10 1_555 1_555
C11 B1 1_555 1_555
H11 C11 1_555 1_555
H12 C11 1_555 1_555
C12 C11 1_555 1_555
H13 C12 1_555 1_555
H14 C12 1_555 1_555
H15 C12 1_555 1_555
N1 C4 1_555 1_555
O1 B1 1_555 1_555
B1A N1 1_555 1_555
C1A C3 1_555 1_555
C2A C1A 1_555 1_555
H1A C2A 1_555 1_555
C3A C1 1_555 1_555
C4A C3A 1_555 1_555
C5A C4A 1_555 1_555
H2A C5A 1_555 1_555
C6A C5A 1_555 1_555
H3A C6A 1_555 1_555
C7A C6A 1_555 1_555
H4A C7A 1_555 1_555
C8A C7A 1_555 1_555
H5A C8A 1_555 1_555
C9A B1A 1_555 1_555
H6A C9A 1_555 1_555
H7A C9A 1_555 1_555
C10A C9A 1_555 1_555
H8A C10A 1_555 1_555
H9A C10A 1_555 1_555
H10A C10A 1_555 1_555
C11A B1A 1_555 1_555
H11A C11A 1_555 1_555
H12A C11A 1_555 1_555
C12A C11A 1_555 1_555
H13A C12A 1_555 1_555
H14A C12A 1_555 1_555
H15A C12A 1_555 1_555
N1A B1 1_555 1_555
O1A B1A 1_555 1_555
C1 O1 1_555 1_555
C8 N1 1_555 1_555
C1A O1A 1_555 1_555
C2A C3A 1_555 1_555
C4A N1A 1_555 1_555
C8A N1A 1_555 1_555

#END
