
#######################################################################
#
#                 Cambridge Crystallographic Data Centre
#                                CCDC 
#
#######################################################################
#
# If this CIF has been generated from an entry in the Cambridge 
# Structural Database, then it will include bibliographic, chemical, 
# crystal, experimental, refinement or atomic coordinate data resulting 
# from the CCDC's data processing and validation procedures.
#
#######################################################################

data_LUHVIU
_chemical_formula_moiety         'C58 H52 N2 P4'
_chemical_name_systematic        
N,N,N',N'-tetrakis((diphenylphosphino)methyl)benzene-1,4-diamine
_symmetry_cell_setting           orthorhombic
_symmetry_space_group_name_H-M   'P b c a'
_symmetry_Int_Tables_number      61
_space_group_name_Hall           '-P 2ac 2ab'
loop_
_symmetry_equiv_pos_site_id
_symmetry_equiv_pos_as_xyz
1 x,y,z
2 1/2-x,-y,1/2+z
3 -x,1/2+y,1/2-z
4 1/2+x,1/2-y,-z
5 -x,-y,-z
6 1/2+x,y,1/2-z
7 x,1/2-y,1/2+z
8 1/2-x,1/2+y,z
_cell_length_a                   12.2150(13)
_cell_length_b                   14.4598(15)
_cell_length_c                   27.821(3)
_cell_angle_alpha                90
_cell_angle_beta                 90
_cell_angle_gamma                90
_cell_volume                     4913.92
_exptl_crystal_colour            colorless
_exptl_crystal_description       block
_cell_formula_units_Z            4
loop_
_atom_site_label
_atom_site_type_symbol
_atom_site_fract_x
_atom_site_fract_y
_atom_site_fract_z
P1 P 0.82505(5) 0.23459(4) 0.53039(2)
P2 P 1.06060(5) 0.41835(4) 0.65539(2)
N1 N 0.97270(16) 0.35992(12) 0.56963(6)
C1 C 0.94014(18) 0.38269(16) 0.61818(8)
H1 H 0.9053 0.3294 0.6328
H2 H 0.8872 0.4326 0.6174
C2 C 0.96409(18) 0.26440(15) 0.55549(8)
H3 H 0.9787 0.2255 0.5832
H4 H 1.0194 0.2512 0.5314
C3 C 1.13870(19) 0.31062(15) 0.65369(8)
C4 C 0.85463(18) 0.12585(15) 0.49942(8)
C5 C 0.99571(18) 0.40875(15) 0.48624(8)
H5 H 0.9927 0.3473 0.4764
C6 C 0.9418(2) 0.12283(17) 0.46720(9)
H6 H 0.9891 0.1731 0.4651
C7 C 0.98544(18) 0.42930(15) 0.53503(8)
C8 C 1.00015(19) 0.41843(16) 0.71541(8)
C9 C 1.01024(18) 0.47708(15) 0.45210(8)
H7 H 1.0173 0.4606 0.4199
C10 C 0.75577(19) 0.19784(17) 0.58570(9)
C11 C 0.78539(19) 0.04964(17) 0.50127(9)
H8 H 0.7266 0.0496 0.5225
C12 C 0.8031(2) -0.02661(17) 0.47173(10)
H9 H 0.7557 -0.0769 0.4732
C13 C 1.2136(2) 0.30169(18) 0.61620(9)
H10 H 1.2200 0.3486 0.5935
C14 C 0.8899(2) -0.02801(17) 0.44046(9)
H11 H 0.9017 -0.0791 0.4208
C15 C 0.9594(2) 0.04651(18) 0.43835(9)
H12 H 1.0186 0.0456 0.4174
C16 C 0.7865(2) 0.12272(19) 0.61395(10)
H13 H 0.8456 0.0864 0.6047
C17 C 1.2786(2) 0.22372(19) 0.61246(10)
H14 H 1.3270 0.2180 0.5869
C18 C 1.1317(2) 0.23970(18) 0.68726(10)
H15 H 1.0817 0.2438 0.7124
C19 C 0.9144(3) 0.4305(2) 0.80811(10)
H16 H 0.8866 0.4338 0.8392
C20 C 1.2721(3) 0.1552(2) 0.64601(11)
H17 H 1.3170 0.1035 0.6436
C21 C 0.6673(2) 0.2504(2) 0.60091(11)
H18 H 0.6450 0.3010 0.5828
C22 C 0.7303(3) 0.1014(2) 0.65556(11)
H19 H 0.7521 0.0511 0.6741
C23 C 0.9107(3) 0.3682(3) 0.72972(11)
H20 H 0.8773 0.3286 0.7079
C24 C 1.0019(3) 0.4822(3) 0.79501(12)
H21 H 1.0339 0.5218 0.8173
C25 C 1.0445(3) 0.4769(3) 0.74876(11)
H22 H 1.1041 0.5136 0.7404
C26 C 1.1989(3) 0.1629(2) 0.68343(11)
H23 H 1.1946 0.1161 0.7063
C27 C 0.6119(3) 0.2285(3) 0.64282(13)
H24 H 0.5531 0.2648 0.6527
C28 C 0.6428(3) 0.1540(3) 0.66973(12)
H25 H 0.6045 0.1389 0.6976
C29 C 0.8688(3) 0.3748(3) 0.77573(11)
H26 H 0.8078 0.3399 0.7842
P1D P 1.17495(5) 0.76541(4) 0.46961(2)
P2D P 0.93940(5) 0.58165(4) 0.34461(2)
N1D N 1.02730(16) 0.64008(12) 0.43037(6)
C1D C 1.05986(18) 0.61731(16) 0.38182(8)
H1D H 1.0947 0.6706 0.3672
H2D H 1.1128 0.5674 0.3826
C2D C 1.03591(18) 0.73560(15) 0.44451(8)
H3D H 1.0213 0.7745 0.4168
H4D H 0.9806 0.7488 0.4686
C3D C 0.86130(19) 0.68938(15) 0.34631(8)
C4D C 1.14537(18) 0.87415(15) 0.50058(8)
C5D C 1.00429(18) 0.59125(15) 0.51376(8)
H5D H 1.0073 0.6527 0.5236
C6D C 1.0582(2) 0.87717(17) 0.53280(9)
H6D H 1.0109 0.8269 0.5349
C7D C 1.01456(18) 0.57070(15) 0.46497(8)
C8D C 0.99985(19) 0.58157(16) 0.28459(8)
C9D C 0.98976(18) 0.52292(15) 0.54790(8)
H7D H 0.9827 0.5394 0.5801
C10D C 1.24423(19) 0.80216(17) 0.41430(9)
C11D C 1.21461(19) 0.95036(17) 0.49873(9)
H8D H 1.2734 0.9504 0.4775
C12D C 1.1969(2) 1.02661(17) 0.52827(10)
H9D H 1.2443 1.0769 0.5268
C13D C 0.7864(2) 0.69831(18) 0.38380(9)
H10D H 0.7800 0.6514 0.4065
C14D C 1.1101(2) 1.02801(17) 0.55954(9)
H11D H 1.0983 1.0791 0.5792
C15D C 1.0406(2) 0.95349(18) 0.56165(9)
H12D H 0.9814 0.9544 0.5826
C16D C 1.2135(2) 0.87728(19) 0.38605(10)
H13D H 1.1544 0.9136 0.3953
C17D C 0.7214(2) 0.77628(19) 0.38754(10)
H14D H 0.6730 0.7820 0.4131
C18D C 0.8683(2) 0.76030(18) 0.31274(10)
H15D H 0.9183 0.7562 0.2876
C19D C 1.0856(3) 0.5695(2) 0.19189(10)
H16D H 1.1134 0.5662 0.1608
C20D C 0.7279(3) 0.8448(2) 0.35399(11)
H17D H 0.6830 0.8965 0.3564
C21D C 1.3327(2) 0.7496(2) 0.39909(11)
H18D H 1.3550 0.6990 0.4172
C22D C 1.2697(3) 0.8986(2) 0.34444(11)
H19D H 1.2479 0.9489 0.3259
C23D C 1.0893(3) 0.6318(3) 0.27028(11)
H20D H 1.1227 0.6714 0.2921
C24D C 0.9981(3) 0.5178(3) 0.20499(12)
H21D H 0.9661 0.4782 0.1827
C25D C 0.9555(3) 0.5231(3) 0.25124(11)
H22D H 0.8959 0.4864 0.2596
C26D C 0.8011(3) 0.8371(2) 0.31657(11)
H23D H 0.8054 0.8839 0.2937
C27D C 1.3881(3) 0.7715(3) 0.35718(13)
H24D H 1.4469 0.7352 0.3473
C28D C 1.3572(3) 0.8460(3) 0.33027(12)
H25D H 1.3955 0.8611 0.3024
C29D C 1.1312(3) 0.6252(3) 0.22427(11)
H26D H 1.1922 0.6601 0.2158
loop_
_geom_bond_atom_site_label_1
_geom_bond_atom_site_label_2
_geom_bond_site_symmetry_1
_geom_bond_site_symmetry_2
P1 C2 1_555 1_555
P2 C1 1_555 1_555
N1 C1 1_555 1_555
C1 H1 1_555 1_555
H2 C1 1_555 1_555
C2 N1 1_555 1_555
H3 C2 1_555 1_555
H4 C2 1_555 1_555
C3 P2 1_555 1_555
C4 P1 1_555 1_555
C5 H5 1_555 1_555
C6 C4 1_555 1_555
H6 C6 1_555 1_555
C7 N1 1_555 1_555
C8 P2 1_555 1_555
C9 C5 1_555 1_555
H7 C9 1_555 1_555
C10 P1 1_555 1_555
C11 C4 1_555 1_555
H8 C11 1_555 1_555
C12 C11 1_555 1_555
H9 C12 1_555 1_555
C13 C3 1_555 1_555
H10 C13 1_555 1_555
C14 C12 1_555 1_555
H11 C14 1_555 1_555
C15 C6 1_555 1_555
H12 C15 1_555 1_555
C16 C10 1_555 1_555
H13 C16 1_555 1_555
C17 C13 1_555 1_555
H14 C17 1_555 1_555
C18 C3 1_555 1_555
H15 C18 1_555 1_555
C19 H16 1_555 1_555
C20 C17 1_555 1_555
H17 C20 1_555 1_555
C21 C10 1_555 1_555
H18 C21 1_555 1_555
C22 C16 1_555 1_555
H19 C22 1_555 1_555
C23 C8 1_555 1_555
H20 C23 1_555 1_555
C24 C19 1_555 1_555
H21 C24 1_555 1_555
C25 C8 1_555 1_555
H22 C25 1_555 1_555
C26 C18 1_555 1_555
H23 C26 1_555 1_555
C27 C21 1_555 1_555
H24 C27 1_555 1_555
C28 C22 1_555 1_555
H25 C28 1_555 1_555
C29 C19 1_555 1_555
H26 C29 1_555 1_555
P1D C2D 1_555 1_555
P2D C1D 1_555 1_555
N1D C1D 1_555 1_555
C1D H1D 1_555 1_555
H2D C1D 1_555 1_555
C2D N1D 1_555 1_555
H3D C2D 1_555 1_555
H4D C2D 1_555 1_555
C3D P2D 1_555 1_555
C4D P1D 1_555 1_555
C5D H5D 1_555 1_555
C6D C4D 1_555 1_555
H6D C6D 1_555 1_555
C7D C9 1_555 1_555
C8D P2D 1_555 1_555
C9D C7 1_555 1_555
H7D C9D 1_555 1_555
C10D P1D 1_555 1_555
C11D C4D 1_555 1_555
H8D C11D 1_555 1_555
C12D C11D 1_555 1_555
H9D C12D 1_555 1_555
C13D C3D 1_555 1_555
H10D C13D 1_555 1_555
C14D C12D 1_555 1_555
H11D C14D 1_555 1_555
C15D C6D 1_555 1_555
H12D C15D 1_555 1_555
C16D C10D 1_555 1_555
H13D C16D 1_555 1_555
C17D C13D 1_555 1_555
H14D C17D 1_555 1_555
C18D C3D 1_555 1_555
H15D C18D 1_555 1_555
C19D H16D 1_555 1_555
C20D C17D 1_555 1_555
H17D C20D 1_555 1_555
C21D C10D 1_555 1_555
H18D C21D 1_555 1_555
C22D C16D 1_555 1_555
H19D C22D 1_555 1_555
C23D C8D 1_555 1_555
H20D C23D 1_555 1_555
C24D C19D 1_555 1_555
H21D C24D 1_555 1_555
C25D C8D 1_555 1_555
H22D C25D 1_555 1_555
C26D C18D 1_555 1_555
H23D C26D 1_555 1_555
C27D C21D 1_555 1_555
H24D C27D 1_555 1_555
C28D C22D 1_555 1_555
H25D C28D 1_555 1_555
C29D C19D 1_555 1_555
H26D C29D 1_555 1_555
C5 C7 1_555 1_555
C14 C15 1_555 1_555
C20 C26 1_555 1_555
C23 C29 1_555 1_555
C24 C25 1_555 1_555
C27 C28 1_555 1_555
N1D C7D 1_555 1_555
C5D C7D 1_555 1_555
C5D C9D 1_555 1_555
C14D C15D 1_555 1_555
C20D C26D 1_555 1_555
C23D C29D 1_555 1_555
C24D C25D 1_555 1_555
C27D C28D 1_555 1_555

#END
