
#######################################################################
#
#                 Cambridge Crystallographic Data Centre
#                                CCDC 
#
#######################################################################
#
# If this CIF has been generated from an entry in the Cambridge 
# Structural Database, then it will include bibliographic, chemical, 
# crystal, experimental, refinement or atomic coordinate data resulting 
# from the CCDC's data processing and validation procedures.
#
#######################################################################

data_LUHVIV
_chemical_formula_moiety         'C27 H18 Br1 N3 O1'
_chemical_name_systematic        
2-(4-bromobenzoyl)-1-(2-cyano-1-phenylprop-2-en-1-yl)-1,2-dihydroisoquinoline-1-carbonitrile
_symmetry_cell_setting           monoclinic
_symmetry_space_group_name_H-M   'P 21'
_symmetry_Int_Tables_number      4
_space_group_name_Hall           'P 2yb'
loop_
_symmetry_equiv_pos_site_id
_symmetry_equiv_pos_as_xyz
1 x,y,z
2 -x,1/2+y,-z
_cell_length_a                   8.1413(16)
_cell_length_b                   13.747(3)
_cell_length_c                   10.606(2)
_cell_angle_alpha                90
_cell_angle_beta                 108.05(3)
_cell_angle_gamma                90
_cell_volume                     1128.59
_exptl_crystal_colour            colorless
_exptl_crystal_description       block
_cell_formula_units_Z            2
loop_
_atom_site_label
_atom_site_type_symbol
_atom_site_fract_x
_atom_site_fract_y
_atom_site_fract_z
Br1 Br -0.11230(14) -0.32153(8) 0.86289(10)
C1 C 0.1280(10) -0.0583(5) 0.8997(6)
H1 H 0.1497 -0.0067 0.9594
C2 C 0.0429(11) -0.1366(5) 0.9241(7)
H2 H 0.0080 -0.1393 0.9997
C3 C 0.0083(10) -0.2127(4) 0.8347(7)
C4 C 0.0599(10) -0.2079(5) 0.7232(6)
H3 H 0.0353 -0.2591 0.6628
C5 C 0.1480(9) -0.1273(5) 0.7003(6)
H4 H 0.1827 -0.1246 0.6247
C6 C 0.1848(9) -0.0513(4) 0.7887(5)
C7 C 0.2661(9) 0.0420(4) 0.7650(5)
C8 C 0.5104(10) -0.0476(4) 0.7314(6)
H5 H 0.4978 -0.0978 0.7865
C9 C 0.6268(10) -0.0547(4) 0.6684(6)
H6 H 0.7020 -0.1075 0.6860
C10 C 0.6402(9) 0.0172(4) 0.5733(5)
C11 C 0.7338(10) 0.0013(5) 0.4832(7)
H7 H 0.7969 -0.0558 0.4885
C12 C 0.7330(10) 0.0687(5) 0.3885(6)
H8 H 0.7962 0.0576 0.3303
C13 C 0.6399(10) 0.1519(5) 0.3792(6)
H9 H 0.6373 0.1961 0.3123
C14 C 0.5485(8) 0.1726(6) 0.4666(5)
H10 H 0.4867 0.2303 0.4604
C15 C 0.5524(8) 0.1035(4) 0.5649(5)
C16 C 0.4708(8) 0.1266(4) 0.6749(5)
C17 C 0.3287(10) 0.1969(4) 0.6199(5)
C18 C 0.6191(8) 0.1722(6) 0.7964(5)
H11 H 0.7115 0.1235 0.8161
C19 C 0.7001(10) 0.2610(4) 0.7623(6)
C20 C 0.8612(11) 0.2535(5) 0.7476(6)
H12 H 0.9180 0.1939 0.7608
C21 C 0.9396(12) 0.3340(8) 0.7134(8)
H13 H 1.0494 0.3288 0.7046
C22 C 0.8561(13) 0.4206(7) 0.6926(7)
H14 H 0.9091 0.4742 0.6682
C23 C 0.6986(13) 0.4307(6) 0.7064(7)
H15 H 0.6441 0.4910 0.6923
C24 C 0.6179(10) 0.3522(4) 0.7413(6)
H16 H 0.5089 0.3593 0.7510
C25 C 0.5698(10) 0.1781(7) 0.9234(6)
C26 C 0.6129(14) 0.1042(7) 1.0126(7)
H17 H 0.5826 0.1073 1.0902
H18 H 0.6728 0.0505 0.9962
C27 C 0.4802(14) 0.2579(7) 0.9495(7)
N1 N 0.4038(7) 0.0369(3) 0.7151(4)
N2 N 0.2313(9) 0.2539(4) 0.5651(5)
N3 N 0.4089(13) 0.3258(6) 0.9735(8)
O1 O 0.2113(7) 0.1180(3) 0.7894(4)
loop_
_geom_bond_atom_site_label_1
_geom_bond_atom_site_label_2
_geom_bond_site_symmetry_1
_geom_bond_site_symmetry_2
Br1 C3 1_555 1_555
C1 H1 1_555 1_555
C2 C1 1_555 1_555
H2 C2 1_555 1_555
C3 C2 1_555 1_555
C4 C3 1_555 1_555
H3 C4 1_555 1_555
C5 C4 1_555 1_555
H4 C5 1_555 1_555
C6 C1 1_555 1_555
C7 C6 1_555 1_555
C8 H5 1_555 1_555
C9 C8 1_555 1_555
H6 C9 1_555 1_555
C10 C9 1_555 1_555
C11 C10 1_555 1_555
H7 C11 1_555 1_555
C12 C11 1_555 1_555
H8 C12 1_555 1_555
C13 C12 1_555 1_555
H9 C13 1_555 1_555
C14 C13 1_555 1_555
H10 C14 1_555 1_555
C15 C10 1_555 1_555
C16 C15 1_555 1_555
C17 C16 1_555 1_555
C18 C16 1_555 1_555
H11 C18 1_555 1_555
C19 C18 1_555 1_555
C20 C19 1_555 1_555
H12 C20 1_555 1_555
C21 C20 1_555 1_555
H13 C21 1_555 1_555
C22 C21 1_555 1_555
H14 C22 1_555 1_555
C23 C22 1_555 1_555
H15 C23 1_555 1_555
C24 C19 1_555 1_555
H16 C24 1_555 1_555
C25 C18 1_555 1_555
C26 C25 1_555 1_555
H17 C26 1_555 1_555
H18 C26 1_555 1_555
C27 C25 1_555 1_555
N1 C7 1_555 1_555
N2 C17 1_555 1_555
N3 C27 1_555 1_555
O1 C7 1_555 1_555
C5 C6 1_555 1_555
C8 N1 1_555 1_555
C14 C15 1_555 1_555
C16 N1 1_555 1_555
C23 C24 1_555 1_555

#END
