
#######################################################################
#
#                 Cambridge Crystallographic Data Centre
#                                CCDC 
#
#######################################################################
#
# If this CIF has been generated from an entry in the Cambridge 
# Structural Database, then it will include bibliographic, chemical, 
# crystal, experimental, refinement or atomic coordinate data resulting 
# from the CCDC's data processing and validation procedures.
#
#######################################################################

data_LUHZUL
_chemical_formula_moiety         'C33 H43 Cl1 N2 O2,H2 O1'
_chemical_name_systematic        
'4-(7-(3-chlorophenyl)-6,6,10a,12a-tetramethyl-1,2,3,3a,3b,4,6,7,10,10a,10b,11,12,12a-tetradecahydrocyclopenta[5,6]naphtho[1,2-f]indazol-1-yl)pentanoic acid monohydrate'
_symmetry_cell_setting           monoclinic
_symmetry_space_group_name_H-M   'P 21'
_symmetry_Int_Tables_number      4
_space_group_name_Hall           'P 2yb'
loop_
_symmetry_equiv_pos_site_id
_symmetry_equiv_pos_as_xyz
1 x,y,z
2 -x,1/2+y,-z
_cell_length_a                   12.474(3)
_cell_length_b                   6.1241(17)
_cell_length_c                   19.930(6)
_cell_angle_alpha                90
_cell_angle_beta                 100.744(6)
_cell_angle_gamma                90
_cell_volume                     1495.8
_exptl_crystal_colour            colorless
_exptl_crystal_description       prismatic
_cell_formula_units_Z            2
_exptl_crystal_recrystallization_method 
'chloroform/methanol 3:1 / petroleum ether'
loop_
_atom_site_label
_atom_site_type_symbol
_atom_site_fract_x
_atom_site_fract_y
_atom_site_fract_z
Cl1 Cl 0.96243(14) 0.9248(4) 0.56815(9)
N1 N 0.7028(3) 0.8884(9) 0.3380(2)
N2 N 0.6138(4) 0.7577(9) 0.3374(3)
C1 C 0.6853(4) 0.6778(9) 0.1668(3)
H1 H 0.6165 0.6263 0.1408
H2 H 0.7389 0.5624 0.1677
C2 C 0.6724(4) 0.7297(9) 0.2375(3)
C3 C 0.7388(4) 0.8735(9) 0.2777(3)
C4 C 0.8362(4) 0.9858(9) 0.2573(3)
C5 C 0.8237(3) 0.9803(8) 0.1787(3)
C6 C 0.9018(4) 1.0657(10) 0.1506(3)
H3 H 0.9611 1.1229 0.1807
C7 C 0.9071(4) 1.0820(10) 0.0770(3)
H4 H 0.9682 0.9956 0.0682
H5 H 0.9207 1.2328 0.0663
C8 C 0.8033(3) 1.0045(8) 0.0295(3)
H6 H 0.7511 1.1257 0.0222
C9 C 0.7525(4) 0.8158(8) 0.0634(3)
H7 H 0.8097 0.7048 0.0742
C10 C 0.7227(3) 0.8824(9) 0.1320(3)
C11 C 0.6592(4) 0.7076(9) 0.0139(3)
H8 H 0.5970 0.8054 0.0067
H9 H 0.6379 0.5756 0.0349
C12 C 0.6871(4) 0.6488(9) -0.0556(3)
H10 H 0.7426 0.5360 -0.0493
H11 H 0.6226 0.5906 -0.0849
C13 C 0.7283(3) 0.8462(8) -0.0903(3)
C14 C 0.8273(3) 0.9338(9) -0.0387(3)
H12 H 0.8784 0.8112 -0.0291
C15 C 0.8804(4) 1.0964(10) -0.0804(3)
H13 H 0.9578 1.1105 -0.0621
H14 H 0.8465 1.2390 -0.0807
C16 C 0.8609(4) 0.9966(10) -0.1526(3)
H15 H 0.9295 0.9499 -0.1642
H16 H 0.8278 1.1037 -0.1860
C17 C 0.7838(4) 0.7988(9) -0.1524(3)
H17 H 0.8295 0.6689 -0.1414
C18 C 0.6313(4) 1.0531(10) 0.1234(3)
H18 H 0.6530 1.1795 0.1008
H19 H 0.6175 1.0942 0.1675
H20 H 0.5661 0.9926 0.0966
C19 C 0.6379(4) 1.0151(9) -0.1081(3)
H21 H 0.6152 1.0633 -0.0671
H22 H 0.5770 0.9510 -0.1382
H23 H 0.6646 1.1376 -0.1302
C20 C 0.7118(4) 0.7614(10) -0.2230(3)
H24 H 0.6692 0.8943 -0.2359
C21 C 0.6320(5) 0.5695(12) -0.2241(3)
H25 H 0.6721 0.4385 -0.2099
H26 H 0.5913 0.5506 -0.2696
H27 H 0.5827 0.5995 -0.1936
C22 C 0.7850(5) 0.7218(12) -0.2761(3)
H28 H 0.8367 0.8392 -0.2729
H29 H 0.8239 0.5876 -0.2647
C23 C 0.5959(4) 0.6640(10) 0.2768(3)
H30 H 0.5395 0.5662 0.2619
C24 C 0.9393(4) 0.8592(13) 0.2904(3)
H31 H 0.9308 0.7078 0.2782
H32 H 0.9498 0.8735 0.3392
H33 H 1.0015 0.9176 0.2746
C25 C 0.8458(5) 1.2227(10) 0.2822(3)
H34 H 0.8622 1.2251 0.3312
H35 H 0.7781 1.2972 0.2664
H36 H 0.9032 1.2943 0.2646
C26 C 0.7430(4) 1.0070(11) 0.3989(3)
C27 C 0.8239(4) 0.9207(11) 0.4475(3)
H37 H 0.8548 0.7868 0.4401
C28 C 0.8593(4) 1.0317(12) 0.5070(3)
C29 C 0.8132(6) 1.2265(14) 0.5194(4)
H38 H 0.8381 1.3012 0.5600
C30 C 0.7306(6) 1.3104(12) 0.4719(4)
H39 H 0.6987 1.4423 0.4804
C31 C 0.6939(5) 1.2016(11) 0.4113(4)
H40 H 0.6369 1.2583 0.3793
O1 O 0.7121(15) 1.110(3) -0.3393(7)
H41 H 0.6739 1.2109 -0.3575
O2 O 0.5954(11) 0.947(3) -0.4246(7)
C32 C 0.726(2) 0.692(5) -0.3490(9)
H42 H 0.6710 0.5784 -0.3532
H43 H 0.7764 0.6555 -0.3787
C33 C 0.668(3) 0.895(5) -0.3710(16)
O3 O 0.5103(6) 0.2905(16) 0.5597(4)
H44 H 0.4900 0.2884 0.5969
H45 H 0.5257 0.3695 0.5294
H46? H 0.8248 0.8542 -0.2796
H47? H 0.8328 0.6115 -0.2575
H48? H 0.6982 0.5514 -0.3471
H49? H 0.7893 0.6840 -0.3730
O4? O 0.590(2) 0.740(5) -0.4386(14)
C34? C 0.644(3) 0.810(7) -0.3883(19)
C35? C 0.7299(15) 0.696(5) -0.3480(10)
O5? O 0.6738(11) 1.014(2) -0.3697(8)
H50? H 0.6295 1.0999 -0.3909
loop_
_geom_bond_atom_site_label_1
_geom_bond_atom_site_label_2
_geom_bond_site_symmetry_1
_geom_bond_site_symmetry_2
Cl1 C28 1_555 1_555
N1 N2 1_555 1_555
N2 C23 1_555 1_555
C1 H1 1_555 1_555
H2 C1 1_555 1_555
C2 C1 1_555 1_555
C3 N1 1_555 1_555
C4 C3 1_555 1_555
C5 C4 1_555 1_555
C6 C5 1_555 1_555
H3 C6 1_555 1_555
C7 C6 1_555 1_555
H4 C7 1_555 1_555
H5 C7 1_555 1_555
C8 C7 1_555 1_555
H6 C8 1_555 1_555
C9 C8 1_555 1_555
H7 C9 1_555 1_555
C10 C1 1_555 1_555
C11 C9 1_555 1_555
H8 C11 1_555 1_555
H9 C11 1_555 1_555
C12 C11 1_555 1_555
H10 C12 1_555 1_555
H11 C12 1_555 1_555
C13 C12 1_555 1_555
C14 C8 1_555 1_555
H12 C14 1_555 1_555
C15 C14 1_555 1_555
H13 C15 1_555 1_555
H14 C15 1_555 1_555
C16 C15 1_555 1_555
H15 C16 1_555 1_555
H16 C16 1_555 1_555
C17 C13 1_555 1_555
H17 C17 1_555 1_555
C18 C10 1_555 1_555
H18 C18 1_555 1_555
H19 C18 1_555 1_555
H20 C18 1_555 1_555
C19 C13 1_555 1_555
H21 C19 1_555 1_555
H22 C19 1_555 1_555
H23 C19 1_555 1_555
C20 C17 1_555 1_555
H24 C20 1_555 1_555
C21 C20 1_555 1_555
H25 C21 1_555 1_555
H26 C21 1_555 1_555
H27 C21 1_555 1_555
C22 C20 1_555 1_555
H28 C22 1_555 1_555
H29 C22 1_555 1_555
C23 C2 1_555 1_555
H30 C23 1_555 1_555
C24 C4 1_555 1_555
H31 C24 1_555 1_555
H32 C24 1_555 1_555
H33 C24 1_555 1_555
C25 C4 1_555 1_555
H34 C25 1_555 1_555
H35 C25 1_555 1_555
H36 C25 1_555 1_555
C26 N1 1_555 1_555
C27 C26 1_555 1_555
H37 C27 1_555 1_555
C28 C27 1_555 1_555
C29 C28 1_555 1_555
H38 C29 1_555 1_555
C30 C29 1_555 1_555
H39 C30 1_555 1_555
C31 C26 1_555 1_555
H40 C31 1_555 1_555
O1 H41 1_555 1_555
O2 C33 1_555 1_555
C32 C22 1_555 1_555
H42 C32 1_555 1_555
H43 C32 1_555 1_555
C33 O1 1_555 1_555
O3 H44 1_555 1_555
H45 O3 1_555 1_555
C2 C3 1_555 1_555
C5 C10 1_555 1_555
C9 C10 1_555 1_555
C13 C14 1_555 1_555
C16 C17 1_555 1_555
C30 C31 1_555 1_555
C32 C33 1_555 1_555

#END
