
#######################################################################
#
#                 Cambridge Crystallographic Data Centre
#                                CCDC 
#
#######################################################################
#
# If this CIF has been generated from an entry in the Cambridge 
# Structural Database, then it will include bibliographic, chemical, 
# crystal, experimental, refinement or atomic coordinate data resulting 
# from the CCDC's data processing and validation procedures.
#
#######################################################################

data_LUJCUP
_chemical_formula_moiety         'C20 H14 O2,C12 H12 N2'
_chemical_name_systematic        
"1,1'-Binaphthalene-2,2'-diol 4,4'-dimethyl-2,2'-bipyridine"
_symmetry_cell_setting           monoclinic
_symmetry_space_group_name_H-M   'P 21/c'
_symmetry_Int_Tables_number      14
_space_group_name_Hall           '-P 2ybc'
loop_
_symmetry_equiv_pos_site_id
_symmetry_equiv_pos_as_xyz
1 x,y,z
2 -x,1/2+y,1/2-z
3 -x,-y,-z
4 x,1/2-y,1/2+z
_cell_length_a                   10.0017(6)
_cell_length_b                   11.0189(7)
_cell_length_c                   23.0770(14)
_cell_angle_alpha                90
_cell_angle_beta                 100.6250(10)
_cell_angle_gamma                90
_cell_volume                     2499.66
_exptl_crystal_colour            colorless
_exptl_crystal_description       block
_cell_formula_units_Z            4
loop_
_atom_site_label
_atom_site_type_symbol
_atom_site_fract_x
_atom_site_fract_y
_atom_site_fract_z
N1 N 0.44101(11) 0.85589(10) 0.02303(5)
C26 C 0.44331(12) 0.97603(11) 0.01377(5)
C27 C 0.34437(13) 1.05253(13) 0.02873(6)
H16 H 0.3505 1.1358 0.0233
C28 C 0.23660(14) 1.00552(14) 0.05177(6)
C29 C 0.23356(16) 0.88171(15) 0.05960(7)
H17 H 0.1625 0.8459 0.0743
C30 C 0.33673(15) 0.81163(14) 0.04541(7)
H18 H 0.3338 0.7284 0.0518
C31 C 0.12653(19) 1.08572(18) 0.06714(9)
H19 H 0.0493 1.0370 0.0714
H20 H 0.1000 1.1441 0.0363
H21 H 0.1600 1.1272 0.1035
N1B N 0.55899(11) 1.14411(10) -0.02303(5)
C26B C 0.55669(12) 1.02397(11) -0.01377(5)
C27B C 0.65563(13) 0.94747(13) -0.02873(6)
H16B H 0.6495 0.8642 -0.0233
C28B C 0.76340(14) 0.99448(14) -0.05177(6)
C29B C 0.76644(16) 1.11829(15) -0.05960(7)
H17B H 0.8375 1.1541 -0.0743
C30B C 0.66327(15) 1.18837(14) -0.04541(7)
H18B H 0.6662 1.2716 -0.0518
C31B C 0.87347(19) 0.91428(18) -0.06714(9)
H19B H 0.9507 0.9630 -0.0714
H20B H 0.9000 0.8559 -0.0363
H21B H 0.8400 0.8728 -0.1035
N2 N 0.98683(11) 1.09389(11) 0.43452(5)
C21 C 0.95577(13) 1.00574(12) 0.47033(6)
C22 C 0.84466(15) 0.92961(14) 0.45305(7)
H13 H 0.8248 0.8705 0.4790
C23 C 0.76304(16) 0.94038(15) 0.39786(7)
C24 C 0.79800(16) 1.02894(15) 0.36111(7)
H14 H 0.7478 1.0389 0.3233
C25 C 0.90822(15) 1.10252(14) 0.38120(7)
H15 H 0.9293 1.1623 0.3559
C32 C 0.6398(2) 0.8606(2) 0.37854(9)
H22 H 0.6599 0.8011 0.3510
H23 H 0.5645 0.9096 0.3601
H24 H 0.6167 0.8205 0.4123
N2B N 1.01317(11) 0.90611(11) 0.56548(5)
C21B C 1.04423(13) 0.99426(12) 0.52967(6)
C22B C 1.15534(15) 1.07039(14) 0.54695(7)
H13B H 1.1752 1.1295 0.5210
C23B C 1.23696(16) 1.05962(15) 0.60214(7)
C24B C 1.20200(16) 0.97106(15) 0.63889(7)
H14B H 1.2522 0.9611 0.6767
C25B C 1.09178(15) 0.89748(14) 0.61880(7)
H15B H 1.0707 0.8377 0.6441
C32B C 1.3602(2) 1.1394(2) 0.62146(9)
H22B H 1.3401 1.1989 0.6490
H23B H 1.4355 1.0904 0.6399
H24B H 1.3833 1.1795 0.5877
O1 O 0.40852(11) 0.14559(10) 0.47357(4)
O2 O 0.12019(10) 0.32189(10) 0.42234(5)
C1 C 0.27901(12) 0.14245(11) 0.37436(5)
C2 C 0.33477(13) 0.08657(11) 0.42661(6)
C3 C 0.31475(15) -0.03867(12) 0.43551(7)
H1 H 0.3542 -0.0748 0.4710
C4 C 0.23844(15) -0.10617(12) 0.39269(7)
H2 H 0.2255 -0.1882 0.3993
C5 C 0.17815(14) -0.05419(12) 0.33819(6)
C6 C 0.09700(17) -0.12235(14) 0.29306(8)
H3 H 0.0832 -0.2045 0.2990
C7 C 0.03880(19) -0.07043(16) 0.24127(8)
H4 H -0.0152 -0.1166 0.2123
C8 C 0.06015(17) 0.05284(15) 0.23158(7)
H5 H 0.0202 0.0881 0.1960
C9 C 0.13899(14) 0.12206(13) 0.27373(6)
H6 H 0.1529 0.2036 0.2663
C10 C 0.19982(12) 0.07135(11) 0.32861(5)
C11 C 0.29682(12) 0.27581(10) 0.36693(5)
C12 C 0.21773(12) 0.35625(11) 0.39158(5)
C13 C 0.23399(13) 0.48329(12) 0.38620(6)
H7 H 0.1794 0.5361 0.4029
C14 C 0.32855(14) 0.52827(12) 0.35684(6)
H8 H 0.3380 0.6119 0.3537
C15 C 0.41312(14) 0.45039(12) 0.33085(5)
C16 C 0.51516(16) 0.49503(14) 0.30153(6)
H9 H 0.5270 0.5784 0.2987
C17 C 0.59670(17) 0.41851(15) 0.27726(7)
H10 H 0.6630 0.4495 0.2579
C18 C 0.57994(16) 0.29286(15) 0.28161(7)
H11 H 0.6355 0.2407 0.2650
C19 C 0.48318(14) 0.24579(13) 0.30995(6)
H12 H 0.4740 0.1621 0.3124
C20 C 0.39678(13) 0.32253(11) 0.33564(5)
H25 H 0.4368(18) 0.2189(18) 0.4653(8)
H26 H 0.1114(19) 0.2417(19) 0.4263(8)
loop_
_geom_bond_atom_site_label_1
_geom_bond_atom_site_label_2
_geom_bond_site_symmetry_1
_geom_bond_site_symmetry_2
N1 C26 1_555 1_555
N2 C21 1_555 1_555
O1 C2 1_555 1_555
O2 C12 1_555 1_555
C1 C2 1_555 1_555
C2 C3 1_555 1_555
C3 H1 1_555 1_555
C4 C3 1_555 1_555
H2 C4 1_555 1_555
C5 C4 1_555 1_555
C6 C5 1_555 1_555
H3 C6 1_555 1_555
C7 C6 1_555 1_555
H4 C7 1_555 1_555
C8 C7 1_555 1_555
H5 C8 1_555 1_555
C9 C8 1_555 1_555
H6 C9 1_555 1_555
C10 C1 1_555 1_555
C11 C1 1_555 1_555
C12 C11 1_555 1_555
C13 C12 1_555 1_555
H7 C13 1_555 1_555
C14 C13 1_555 1_555
H8 C14 1_555 1_555
C15 C14 1_555 1_555
C16 C15 1_555 1_555
H9 C16 1_555 1_555
C17 C16 1_555 1_555
H10 C17 1_555 1_555
C18 C17 1_555 1_555
H11 C18 1_555 1_555
C19 C18 1_555 1_555
H12 C19 1_555 1_555
C20 C11 1_555 1_555
C21 C22 1_555 1_555
C22 H13 1_555 1_555
C23 C22 1_555 1_555
C24 C23 1_555 1_555
H14 C24 1_555 1_555
C25 N2 1_555 1_555
H15 C25 1_555 1_555
C26 C27 1_555 1_555
C27 H16 1_555 1_555
C28 C27 1_555 1_555
C29 C28 1_555 1_555
H17 C29 1_555 1_555
C30 N1 1_555 1_555
H18 C30 1_555 1_555
C31 C28 1_555 1_555
H19 C31 1_555 1_555
H20 C31 1_555 1_555
H21 C31 1_555 1_555
C32 C23 1_555 1_555
H22 C32 1_555 1_555
H23 C32 1_555 1_555
H24 C32 1_555 1_555
H25 O1 1_555 1_555
H26 O2 1_555 1_555
N1B C26B 1_555 1_555
N2B C21B 1_555 1_555
C21B C21 1_555 1_555
C22B C21B 1_555 1_555
H13B C22B 1_555 1_555
C23B C22B 1_555 1_555
C24B C23B 1_555 1_555
H14B C24B 1_555 1_555
C25B N2B 1_555 1_555
H15B C25B 1_555 1_555
C26B C26 1_555 1_555
C27B C26B 1_555 1_555
H16B C27B 1_555 1_555
C28B C27B 1_555 1_555
C29B C28B 1_555 1_555
H17B C29B 1_555 1_555
C30B N1B 1_555 1_555
H18B C30B 1_555 1_555
C31B C28B 1_555 1_555
H19B C31B 1_555 1_555
H20B C31B 1_555 1_555
H21B C31B 1_555 1_555
C32B C23B 1_555 1_555
H22B C32B 1_555 1_555
H23B C32B 1_555 1_555
H24B C32B 1_555 1_555
C5 C10 1_555 1_555
C9 C10 1_555 1_555
C15 C20 1_555 1_555
C19 C20 1_555 1_555
C24 C25 1_555 1_555
C29 C30 1_555 1_555
C24B C25B 1_555 1_555
C29B C30B 1_555 1_555

#END
