
#######################################################################
#
#                 Cambridge Crystallographic Data Centre
#                                CCDC 
#
#######################################################################
#
# If this CIF has been generated from an entry in the Cambridge 
# Structural Database, then it will include bibliographic, chemical, 
# crystal, experimental, refinement or atomic coordinate data resulting 
# from the CCDC's data processing and validation procedures.
#
#######################################################################

data_LUJDAW
_chemical_name_common            
"1,1'-Binaphthalene-2,2'-diol bis(4,5-diazafluoren-9-one)"
_chemical_formula_moiety         'C20 H14 O2,2(C11 H6 N2 O1)'
_chemical_name_systematic        
"bis(5H-Pyrido[3',2':4,5]cyclopenta[1,2-b]pyridin-5-one) 1,1'-binaphthalene-2,2'-diol"
_symmetry_cell_setting           monoclinic
_symmetry_space_group_name_H-M   'C 2/c'
_symmetry_Int_Tables_number      15
_space_group_name_Hall           '-C 2yn'
loop_
_symmetry_equiv_pos_site_id
_symmetry_equiv_pos_as_xyz
1 x,y,z
2 -x,y,1/2-z
3 1/2+x,1/2+y,z
4 1/2-x,1/2+y,1/2-z
5 -x,-y,-z
6 x,-y,1/2+z
7 1/2-x,1/2-y,-z
8 1/2+x,1/2-y,1/2+z
_cell_length_a                   14.8585(12)
_cell_length_b                   11.2714(9)
_cell_length_c                   19.2884(16)
_cell_angle_alpha                90
_cell_angle_beta                 97.602(2)
_cell_angle_gamma                90
_cell_volume                     3201.95
_exptl_crystal_colour            colorless
_exptl_crystal_description       block
_cell_formula_units_Z            4
loop_
_atom_site_label
_atom_site_type_symbol
_atom_site_fract_x
_atom_site_fract_y
_atom_site_fract_z
O1 O -0.05534(6) 0.35678(9) 0.16406(6)
H1 H -0.0457 0.2969 0.1420
C1 C 0.03170(8) 0.50913(10) 0.22291(6)
C2 C 0.01864(8) 0.42998(11) 0.16824(7)
C3 C 0.07862(10) 0.42617(13) 0.11744(7)
H2 H 0.0689 0.3722 0.0808
C4 C 0.15082(10) 0.50142(13) 0.12198(8)
H3 H 0.1901 0.4975 0.0883
C5 C 0.16742(8) 0.58526(12) 0.17660(7)
C6 C 0.24045(9) 0.66722(14) 0.18223(8)
H4 H 0.2807 0.6649 0.1492
C7 C 0.25341(9) 0.74897(14) 0.23426(9)
H5 H 0.3011 0.8028 0.2362
C8 C 0.19436(10) 0.75158(13) 0.28494(8)
H6 H 0.2038 0.8067 0.3211
C9 C 0.12273(9) 0.67418(12) 0.28224(7)
H7 H 0.0843 0.6775 0.3166
C10 C 0.10642(8) 0.58909(11) 0.22780(6)
O1A O 0.05534(6) 0.35678(9) 0.33594(6)
H1A H 0.0457 0.2969 0.3580
C1A C -0.03170(8) 0.50913(10) 0.27709(6)
C2A C -0.01864(8) 0.42998(11) 0.33176(7)
C3A C -0.07862(10) 0.42617(13) 0.38256(7)
H2A H -0.0689 0.3722 0.4192
C4A C -0.15082(10) 0.50142(13) 0.37802(8)
H3A H -0.1901 0.4975 0.4117
C5A C -0.16742(8) 0.58526(12) 0.32340(7)
C6A C -0.24045(9) 0.66722(14) 0.31777(8)
H4A H -0.2807 0.6649 0.3508
C7A C -0.25341(9) 0.74897(14) 0.26574(9)
H5A H -0.3011 0.8028 0.2638
C8A C -0.19436(10) 0.75158(13) 0.21506(8)
H6A H -0.2038 0.8067 0.1789
C9A C -0.12273(9) 0.67418(12) 0.21776(7)
H7A H -0.0843 0.6775 0.1834
C10A C -0.10642(8) 0.58909(11) 0.27220(6)
O2 O 0.06517(9) 0.73208(9) 0.45894(6)
N1 N 0.18016(8) 1.12557(10) 0.48998(6)
N2 N 0.01645(8) 1.12715(10) 0.37547(7)
C11 C 0.24980(11) 1.10035(15) 0.54008(8)
H8 H 0.2879 1.1622 0.5570
C12 C 0.26815(13) 0.98921(16) 0.56775(9)
H9 H 0.3170 0.9781 0.6025
C13 C 0.21391(12) 0.89376(15) 0.54391(8)
H10 H 0.2251 0.8178 0.5618
C14 C 0.14267(10) 0.91699(12) 0.49247(7)
C15 C 0.07284(11) 0.83856(13) 0.45318(7)
C16 C 0.01599(9) 0.91857(12) 0.40380(7)
C17 C -0.05808(11) 0.89690(14) 0.35503(9)
H11 H -0.0828 0.8213 0.3483
C18 C -0.09407(11) 0.99303(15) 0.31632(10)
H12 H -0.1444 0.9830 0.2827
C19 C -0.05556(11) 1.10326(15) 0.32756(10)
H13 H -0.0810 1.1657 0.3002
C20 C 0.04990(9) 1.03379(12) 0.41228(7)
C21 C 0.12923(9) 1.03307(11) 0.46794(7)
loop_
_geom_bond_atom_site_label_1
_geom_bond_atom_site_label_2
_geom_bond_site_symmetry_1
_geom_bond_site_symmetry_2
O1 H1 1_555 1_555
O2 C15 1_555 1_555
N1 C11 1_555 1_555
N2 C19 1_555 1_555
C1 C2 1_555 1_555
C2 O1 1_555 1_555
C3 C2 1_555 1_555
H2 C3 1_555 1_555
C4 C3 1_555 1_555
H3 C4 1_555 1_555
C5 C4 1_555 1_555
C6 C5 1_555 1_555
H4 C6 1_555 1_555
C7 C6 1_555 1_555
H5 C7 1_555 1_555
C8 C7 1_555 1_555
H6 C8 1_555 1_555
C9 C8 1_555 1_555
H7 C9 1_555 1_555
C10 C1 1_555 1_555
C11 H8 1_555 1_555
C12 C11 1_555 1_555
H9 C12 1_555 1_555
C13 C12 1_555 1_555
H10 C13 1_555 1_555
C14 C13 1_555 1_555
C15 C14 1_555 1_555
C16 C15 1_555 1_555
C17 C16 1_555 1_555
H11 C17 1_555 1_555
C18 C17 1_555 1_555
H12 C18 1_555 1_555
C19 C18 1_555 1_555
H13 C19 1_555 1_555
C20 N2 1_555 1_555
C21 N1 1_555 1_555
O1A H1A 1_555 1_555
C1A C1 1_555 1_555
C2A O1A 1_555 1_555
C3A C2A 1_555 1_555
H2A C3A 1_555 1_555
C4A C3A 1_555 1_555
H3A C4A 1_555 1_555
C5A C4A 1_555 1_555
C6A C5A 1_555 1_555
H4A C6A 1_555 1_555
C7A C6A 1_555 1_555
H5A C7A 1_555 1_555
C8A C7A 1_555 1_555
H6A C8A 1_555 1_555
C9A C8A 1_555 1_555
H7A C9A 1_555 1_555
C10A C1A 1_555 1_555
C5 C10 1_555 1_555
C9 C10 1_555 1_555
C14 C21 1_555 1_555
C16 C20 1_555 1_555
C20 C21 1_555 1_555
C1A C2A 1_555 1_555
C5A C10A 1_555 1_555
C9A C10A 1_555 1_555

#END
