
#######################################################################
#
#                 Cambridge Crystallographic Data Centre
#                                CCDC 
#
#######################################################################
#
# If this CIF has been generated from an entry in the Cambridge 
# Structural Database, then it will include bibliographic, chemical, 
# crystal, experimental, refinement or atomic coordinate data resulting 
# from the CCDC's data processing and validation procedures.
#
#######################################################################

data_LUJHAB
_chemical_compound_source        'Glycyrrhiza uralensis'
_chemical_name_common            '(rac)-Glycyfuranocoumarin A'
_chemical_formula_moiety         'C21 H20 O6'
_chemical_name_systematic        
3-(2,4-dihydroxyphenyl)-5-methoxy-8,9,9-trimethyl-8,9-dihydro-2H-furo[2,3-h]chromen-2-one
_symmetry_cell_setting           orthorhombic
_symmetry_space_group_name_H-M   'P 21 21 21'
_symmetry_Int_Tables_number      19
_space_group_name_Hall           'P 2ac 2ab'
loop_
_symmetry_equiv_pos_site_id
_symmetry_equiv_pos_as_xyz
1 x,y,z
2 1/2-x,-y,1/2+z
3 1/2+x,1/2-y,-z
4 -x,1/2+y,1/2-z
_cell_length_a                   9.33933(18)
_cell_length_b                   19.7504(4)
_cell_length_c                   9.61969(17)
_cell_angle_alpha                90
_cell_angle_beta                 90
_cell_angle_gamma                90
_cell_volume                     1774.4
_exptl_crystal_colour            'pale yellow'
_exptl_crystal_description       lamellar
_cell_formula_units_Z            4
_exptl_crystal_recrystallization_method methanol/water
loop_
_atom_site_label
_atom_site_type_symbol
_atom_site_fract_x
_atom_site_fract_y
_atom_site_fract_z
C1 C 0.8816(2) 0.62879(9) 0.36509(18)
C2 C 0.9134(2) 0.69544(9) 0.37732(19)
H1 H 1.0042 0.7082 0.4133
C3 C 0.8146(2) 0.74701(9) 0.33788(18)
C4 C 0.8465(2) 0.81724(9) 0.34707(19)
C5 C 0.7479(2) 0.86530(9) 0.3061(2)
H2 H 0.7672 0.9124 0.3143
C6 C 0.6194(2) 0.84179(9) 0.2525(2)
C7 C 0.3879(3) 0.84520(15) 0.1910(4)
H3 H 0.3372 0.8490 0.2822
C8 C 0.4352(2) 0.76940(9) 0.1711(2)
C9 C 0.5809(2) 0.77441(10) 0.2411(2)
C10 C 0.6811(2) 0.72768(9) 0.28583(19)
C11 C 0.7433(2) 0.60919(9) 0.30926(18)
C12 C 0.9865(2) 0.57489(9) 0.40091(19)
C13 C 0.95901(19) 0.52755(9) 0.50570(19)
C14 C 1.0594(2) 0.47835(10) 0.5397(2)
H4 H 1.0385 0.4457 0.6093
C15 C 1.1898(2) 0.47714(10) 0.47178(19)
C16 C 1.2207(2) 0.52371(10) 0.3682(2)
H5 H 1.3102 0.5226 0.3213
C17 C 1.1183(2) 0.57209(10) 0.3340(2)
H6 H 1.1390 0.6041 0.2630
C18 C 1.0201(2) 0.90203(10) 0.3955(3)
H7 H 1.0107 0.9203 0.3013
H8 H 1.1197 0.9062 0.4263
H9 H 0.9578 0.9274 0.4588
C19 C 0.4552(5) 0.7467(3) 0.0269(4)
H10 H 0.3625 0.7459 -0.0207
H11 H 0.4966 0.7011 0.0266
H12 H 0.5199 0.7779 -0.0214
C20 C 0.3299(6) 0.7239(3) 0.2518(6)
H13 H 0.3287 0.7375 0.3498
H14 H 0.3604 0.6766 0.2443
H15 H 0.2336 0.7289 0.2125
C21 C 0.2938(3) 0.87566(12) 0.0806(3)
H16 H 0.2048 0.8496 0.0737
H17 H 0.2716 0.9227 0.1050
H18 H 0.3438 0.8745 -0.0090
O1 O 0.51901(14) 0.88471(7) 0.19903(16)
O2 O 0.64845(14) 0.65980(6) 0.27372(14)
O3 O 0.70180(17) 0.55172(6) 0.28959(15)
O4 O 0.97897(15) 0.83191(7) 0.39578(16)
O5 O 0.83178(14) 0.53255(7) 0.57244(14)
H19 H 0.8283 0.5038 0.6367
O6 O 1.28555(16) 0.42834(8) 0.51183(16)
H20 H 1.3574 0.4294 0.4593
H21? H 0.2317 0.8495 0.0185
H22? H 0.2464 0.8815 0.1706
H23? H 0.3127 0.9201 0.0394
C22? C 0.4221(7) 0.8415(3) 0.0992(8)
H24? H 0.4712 0.8389 0.0070
C23? C 0.4219(11) 0.7164(4) 0.0407(9)
H25? H 0.3338 0.7257 -0.0112
H26? H 0.4193 0.6699 0.0763
H27? H 0.5046 0.7219 -0.0209
C24? C 0.3196(11) 0.7543(6) 0.2697(11)
H28? H 0.3113 0.7913 0.3370
H29? H 0.3412 0.7120 0.3188
H30? H 0.2291 0.7494 0.2191
loop_
_geom_bond_atom_site_label_1
_geom_bond_atom_site_label_2
_geom_bond_site_symmetry_1
_geom_bond_site_symmetry_2
C1 C2 1_555 1_555
C2 H1 1_555 1_555
C3 C2 1_555 1_555
C4 C3 1_555 1_555
C5 C4 1_555 1_555
H2 C5 1_555 1_555
C6 C5 1_555 1_555
C7 H3 1_555 1_555
C8 C7 1_555 1_555
C9 C6 1_555 1_555
C10 C3 1_555 1_555
C11 C1 1_555 1_555
C12 C1 1_555 1_555
C13 C12 1_555 1_555
C14 C13 1_555 1_555
H4 C14 1_555 1_555
C15 C14 1_555 1_555
C16 C15 1_555 1_555
H5 C16 1_555 1_555
C17 C12 1_555 1_555
H6 C17 1_555 1_555
C18 H7 1_555 1_555
H8 C18 1_555 1_555
H9 C18 1_555 1_555
C19 C8 1_555 1_555
H10 C19 1_555 1_555
H11 C19 1_555 1_555
H12 C19 1_555 1_555
C20 C8 1_555 1_555
H13 C20 1_555 1_555
H14 C20 1_555 1_555
H15 C20 1_555 1_555
C21 C7 1_555 1_555
H16 C21 1_555 1_555
H17 C21 1_555 1_555
H18 C21 1_555 1_555
O1 C6 1_555 1_555
O2 C10 1_555 1_555
O3 C11 1_555 1_555
O4 C4 1_555 1_555
O5 C13 1_555 1_555
H19 O5 1_555 1_555
O6 C15 1_555 1_555
H20 O6 1_555 1_555
C7 O1 1_555 1_555
C8 C9 1_555 1_555
C9 C10 1_555 1_555
C11 O2 1_555 1_555
C16 C17 1_555 1_555
C18 O4 1_555 1_555

#END
