
#######################################################################
#
#                 Cambridge Crystallographic Data Centre
#                                CCDC 
#
#######################################################################
#
# If this CIF has been generated from an entry in the Cambridge 
# Structural Database, then it will include bibliographic, chemical, 
# crystal, experimental, refinement or atomic coordinate data resulting 
# from the CCDC's data processing and validation procedures.
#
#######################################################################

data_LUJKAD
_chemical_formula_moiety         'C28 H22 O3'
_chemical_name_systematic        
'Methyl 5-benzoyl-4-benzylidene-6-phenylbicyclo[3.1.0]hex-2-ene-1-carboxylate'
_symmetry_cell_setting           orthorhombic
_symmetry_space_group_name_H-M   'P b c a'
_symmetry_Int_Tables_number      61
_space_group_name_Hall           '-P 2ac 2ab'
loop_
_symmetry_equiv_pos_site_id
_symmetry_equiv_pos_as_xyz
1 x,y,z
2 1/2-x,-y,1/2+z
3 -x,1/2+y,1/2-z
4 1/2+x,1/2-y,-z
5 -x,-y,-z
6 1/2+x,y,1/2-z
7 x,1/2-y,1/2+z
8 1/2-x,1/2+y,z
_cell_length_a                   12.3346(4)
_cell_length_b                   15.6072(5)
_cell_length_c                   22.0628(7)
_cell_angle_alpha                90
_cell_angle_beta                 90
_cell_angle_gamma                90
_cell_volume                     4247.28
_exptl_crystal_colour            colorless
_exptl_crystal_description       block
_chemical_melting_point          '134-136 deg.C'
_cell_formula_units_Z            8
loop_
_atom_site_label
_atom_site_type_symbol
_atom_site_fract_x
_atom_site_fract_y
_atom_site_fract_z
C1 C 0.18089(12) 0.14231(9) 0.71758(7)
C2 C 0.28678(15) 0.11479(12) 0.71333(10)
H1 H 0.3259 0.1260 0.6782
C3 C 0.33585(16) 0.07097(13) 0.76024(12)
H2 H 0.4073 0.0529 0.7561
C4 C 0.28157(18) 0.05399(13) 0.81208(10)
H3 H 0.3154 0.0250 0.8437
C5 C 0.17721(19) 0.07980(15) 0.81727(9)
H4 H 0.1388 0.0677 0.8525
C6 C 0.12691(15) 0.12405(12) 0.77071(8)
H5 H 0.0554 0.1418 0.7754
C7 C 0.15332(12) 0.38598(10) 0.55933(6)
C8 C 0.08875(13) 0.44463(11) 0.58983(7)
H6 H 0.0494 0.4274 0.6237
C9 C 0.08258(16) 0.52842(12) 0.57018(9)
H7 H 0.0379 0.5671 0.5902
C10 C 0.14228(17) 0.55483(13) 0.52108(9)
H8 H 0.1390 0.6116 0.5084
C11 C 0.20678(17) 0.49731(14) 0.49078(9)
H9 H 0.2473 0.5154 0.4576
C12 C 0.21206(14) 0.41288(12) 0.50904(7)
H10 H 0.2548 0.3741 0.4878
C13 C 0.37403(12) 0.37583(9) 0.64378(6)
C14 C 0.42829(13) 0.45139(10) 0.62943(7)
H11 H 0.4154 0.5003 0.6523
C15 C 0.50085(14) 0.45510(11) 0.58192(8)
H12 H 0.5342 0.5068 0.5722
C16 C 0.52404(14) 0.38272(12) 0.54895(8)
H13 H 0.5724 0.3853 0.5167
C17 C 0.47521(14) 0.30641(11) 0.56408(8)
H14 H 0.4923 0.2569 0.5426
C18 C 0.40099(13) 0.30269(10) 0.61092(7)
H15 H 0.3686 0.2507 0.6206
C19 C 0.02717(13) 0.29727(10) 0.72884(7)
H16 H -0.0337 0.2959 0.7537
C20 C 0.03666(12) 0.24941(10) 0.67090(6)
C21 C 0.15070(12) 0.27590(9) 0.64569(6)
C22 C 0.11580(14) 0.34206(10) 0.74085(7)
H17 H 0.1255 0.3741 0.7760
C23 C 0.19652(12) 0.33542(9) 0.69281(6)
C24 C 0.29141(12) 0.37714(9) 0.69140(7)
H18 H 0.3067 0.4112 0.7249
C25 C 0.16227(12) 0.29502(10) 0.57885(6)
C26 C -0.05854(13) 0.23979(11) 0.62983(7)
C27 C -0.23551(16) 0.29017(15) 0.61037(9)
H19 H -0.2859 0.3320 0.6254
H20 H -0.2667 0.2340 0.6139
H21 H -0.2198 0.3019 0.5686
C28 C 0.12759(12) 0.18488(9) 0.66487(7)
H22 H 0.1177 0.1462 0.6303
O1 O -0.06501(11) 0.19001(10) 0.58864(6)
O2 O -0.13666(10) 0.29411(8) 0.64525(5)
O3 O 0.17784(10) 0.23800(7) 0.54259(5)
loop_
_geom_bond_atom_site_label_1
_geom_bond_atom_site_label_2
_geom_bond_site_symmetry_1
_geom_bond_site_symmetry_2
C1 C2 1_555 1_555
C2 H1 1_555 1_555
C3 C2 1_555 1_555
H2 C3 1_555 1_555
C4 C3 1_555 1_555
H3 C4 1_555 1_555
C5 C4 1_555 1_555
H4 C5 1_555 1_555
C6 C1 1_555 1_555
H5 C6 1_555 1_555
C7 C8 1_555 1_555
C8 H6 1_555 1_555
C9 C8 1_555 1_555
H7 C9 1_555 1_555
C10 C9 1_555 1_555
H8 C10 1_555 1_555
C11 C10 1_555 1_555
H9 C11 1_555 1_555
C12 C7 1_555 1_555
H10 C12 1_555 1_555
C13 C14 1_555 1_555
C14 H11 1_555 1_555
C15 C14 1_555 1_555
H12 C15 1_555 1_555
C16 C15 1_555 1_555
H13 C16 1_555 1_555
C17 C16 1_555 1_555
H14 C17 1_555 1_555
C18 C13 1_555 1_555
H15 C18 1_555 1_555
C19 H16 1_555 1_555
C20 C19 1_555 1_555
C21 C20 1_555 1_555
C22 C19 1_555 1_555
H17 C22 1_555 1_555
C23 C21 1_555 1_555
C24 C13 1_555 1_555
H18 C24 1_555 1_555
C25 C7 1_555 1_555
C26 C20 1_555 1_555
C27 H19 1_555 1_555
H20 C27 1_555 1_555
H21 C27 1_555 1_555
C28 C1 1_555 1_555
H22 C28 1_555 1_555
O1 C26 1_555 1_555
O2 C26 1_555 1_555
O3 C25 1_555 1_555
C5 C6 1_555 1_555
C11 C12 1_555 1_555
C17 C18 1_555 1_555
C20 C28 1_555 1_555
C21 C25 1_555 1_555
C21 C28 1_555 1_555
C22 C23 1_555 1_555
C23 C24 1_555 1_555
C27 O2 1_555 1_555

#END
