
#######################################################################
#
#                 Cambridge Crystallographic Data Centre
#                                CCDC 
#
#######################################################################
#
# If this CIF has been generated from an entry in the Cambridge 
# Structural Database, then it will include bibliographic, chemical, 
# crystal, experimental, refinement or atomic coordinate data resulting 
# from the CCDC's data processing and validation procedures.
#
#######################################################################

data_LUJPAJ
_chemical_compound_source        'Glycyrrhiza uralensis'
_chemical_name_common            '(R)-glycyfuranocoumarin A'
_chemical_formula_moiety         'C21 H20 O6'
_chemical_name_systematic        
3-(2,4-dihydroxyphenyl)-5-methoxy-8,9,9-trimethyl-8,9-dihydro-2H-furo[2,3-h]chromen-2-one
_symmetry_cell_setting           orthorhombic
_symmetry_space_group_name_H-M   'P 21 21 21'
_symmetry_Int_Tables_number      19
_space_group_name_Hall           'P 2ac 2ab'
loop_
_symmetry_equiv_pos_site_id
_symmetry_equiv_pos_as_xyz
1 x,y,z
2 1/2-x,-y,1/2+z
3 1/2+x,1/2-y,-z
4 -x,1/2+y,1/2-z
_cell_length_a                   9.3372(5)
_cell_length_b                   9.6286(3)
_cell_length_c                   19.5494(6)
_cell_angle_alpha                90
_cell_angle_beta                 90
_cell_angle_gamma                90
_cell_volume                     1757.57
_exptl_crystal_colour            'pale yellow'
_exptl_crystal_description       plate
_cell_formula_units_Z            4
_exptl_crystal_recrystallization_method 'methanol/ water'
loop_
_atom_site_label
_atom_site_type_symbol
_atom_site_fract_x
_atom_site_fract_y
_atom_site_fract_z
O1 O -0.59243(12) -0.46730(13) -0.09304(6)
O2 O -0.72376(12) -0.54547(13) 0.13374(6)
C1 C -0.4970(2) -0.43197(17) -0.14412(8)
O3 O -0.25695(13) -0.36047(15) 0.08162(6)
O4 O -0.53797(14) -0.44984(13) -0.20207(6)
C2 C -0.35722(19) -0.37758(17) -0.12403(9)
C3 C -0.32447(18) -0.36966(18) -0.05655(9)
H1 H -0.2345 -0.3374 -0.0437
C4 C -0.39141(18) -0.40504(18) 0.06650(9)
C5 C -0.55957(18) -0.45756(18) -0.02443(8)
C6 C -0.66133(18) -0.49953(18) 0.02265(8)
C7 C -0.62183(18) -0.49226(18) 0.09073(9)
O5 O -0.41154(13) -0.17178(13) -0.22086(6)
H2 H -0.4165 -0.1093 -0.2493
O6 O 0.03944(14) -0.23096(14) -0.32992(7)
H3 H 0.1066 -0.2857 -0.3314
C8 C -0.80728(19) -0.56914(18) 0.01682(9)
C9 C -0.85532(18) -0.5575(2) 0.09317(9)
H4 H -0.9095 -0.4710 0.0984
C10 C -0.01975(19) -0.37129(19) -0.23135(9)
H5 H 0.0689 -0.4153 -0.2325
C11 C -0.28364(18) -0.23711(18) -0.22674(8)
C12 C -0.49114(19) -0.44411(18) 0.11486(8)
H6 H -0.4717 -0.4385 0.1614
C13 C -0.42424(19) -0.40953(17) -0.00447(9)
C14 C -0.25334(18) -0.34104(18) -0.17846(8)
C15 C -0.18482(19) -0.20302(18) -0.27716(9)
H7 H -0.2067 -0.1355 -0.3095
C16 C -0.05357(18) -0.26991(18) -0.27907(9)
C17 C -0.9434(2) -0.6738(2) 0.12313(10)
H8 H -0.9608 -0.6557 0.1707
H9 H -0.8925 -0.7599 0.1184
H10 H -1.0332 -0.6799 0.0993
C18 C -0.12007(19) -0.40606(18) -0.18200(8)
H11 H -0.0979 -0.4748 -0.1503
C19 C -0.91317(18) -0.4923(2) -0.02910(9)
H12 H -0.8801 -0.4954 -0.0756
H13 H -0.9205 -0.3973 -0.0145
H14 H -1.0055 -0.5358 -0.0261
C20 C -0.2175(2) -0.3631(2) 0.15281(9)
H15 H -0.2770 -0.2995 0.1778
H16 H -0.1190 -0.3363 0.1575
H17 H -0.2304 -0.4552 0.1705
C21 C -0.7894(2) -0.71915(19) -0.00740(10)
H18 H -0.7290 -0.7685 0.0240
H19 H -0.7466 -0.7198 -0.0520
H20 H -0.8815 -0.7633 -0.0094
loop_
_geom_bond_atom_site_label_1
_geom_bond_atom_site_label_2
_geom_bond_site_symmetry_1
_geom_bond_site_symmetry_2
O1 C1 1_555 1_555
O2 C7 1_555 1_555
C1 O4 1_555 1_555
O3 C4 1_555 1_555
C2 C1 1_555 1_555
C3 C2 1_555 1_555
H1 C3 1_555 1_555
C4 C12 1_555 1_555
C5 O1 1_555 1_555
C6 C5 1_555 1_555
C7 C6 1_555 1_555
O5 H2 1_555 1_555
O6 H3 1_555 1_555
C8 C6 1_555 1_555
C9 O2 1_555 1_555
H4 C9 1_555 1_555
C10 H5 1_555 1_555
C11 O5 1_555 1_555
C12 C7 1_555 1_555
H6 C12 1_555 1_555
C13 C3 1_555 1_555
C14 C2 1_555 1_555
C15 C11 1_555 1_555
H7 C15 1_555 1_555
C16 O6 1_555 1_555
C17 C9 1_555 1_555
H8 C17 1_555 1_555
H9 C17 1_555 1_555
H10 C17 1_555 1_555
C18 C10 1_555 1_555
H11 C18 1_555 1_555
C19 C8 1_555 1_555
H12 C19 1_555 1_555
H13 C19 1_555 1_555
H14 C19 1_555 1_555
C20 O3 1_555 1_555
H15 C20 1_555 1_555
H16 C20 1_555 1_555
H17 C20 1_555 1_555
C21 C8 1_555 1_555
H18 C21 1_555 1_555
H19 C21 1_555 1_555
H20 C21 1_555 1_555
C4 C13 1_555 1_555
C5 C13 1_555 1_555
C8 C9 1_555 1_555
C10 C16 1_555 1_555
C11 C14 1_555 1_555
C14 C18 1_555 1_555
C15 C16 1_555 1_555

#END
