
#######################################################################
#
#                 Cambridge Crystallographic Data Centre
#                                CCDC 
#
#######################################################################
#
# If this CIF has been generated from an entry in the Cambridge 
# Structural Database, then it will include bibliographic, chemical, 
# crystal, experimental, refinement or atomic coordinate data resulting 
# from the CCDC's data processing and validation procedures.
#
#######################################################################

data_LUJPEN
_chemical_compound_source        'Glycyrrhiza uralensis'
_chemical_name_common            '(S)-glycyfuranocoumarin A'
_chemical_formula_moiety         'C21 H20 O6'
_chemical_name_systematic        
3-(2,4-dihydroxyphenyl)-5-methoxy-8,9,9-trimethyl-8,9-dihydro-2H-furo[2,3-h]chromen-2-one
_symmetry_cell_setting           orthorhombic
_symmetry_space_group_name_H-M   'P 21 21 21'
_symmetry_Int_Tables_number      19
_space_group_name_Hall           'P 2ac 2ab'
loop_
_symmetry_equiv_pos_site_id
_symmetry_equiv_pos_as_xyz
1 x,y,z
2 1/2-x,-y,1/2+z
3 1/2+x,1/2-y,-z
4 -x,1/2+y,1/2-z
_cell_length_a                   9.3355(3)
_cell_length_b                   9.6307(3)
_cell_length_c                   19.5386(3)
_cell_angle_alpha                90
_cell_angle_beta                 90
_cell_angle_gamma                90
_cell_volume                     1756.66
_exptl_crystal_colour            'pale yellow'
_exptl_crystal_description       plate
_cell_formula_units_Z            4
_exptl_crystal_recrystallization_method methanol/water
loop_
_atom_site_label
_atom_site_type_symbol
_atom_site_fract_x
_atom_site_fract_y
_atom_site_fract_z
O1 O -0.40753(12) -0.96719(13) -0.09310(6)
O2 O -1.03984(14) -0.73089(14) -0.32993(7)
H1 H -1.1112 -0.7840 -0.3297
O3 O -0.74300(13) -0.86040(14) 0.08173(6)
O4 O -0.46191(14) -0.94967(13) -0.20219(6)
C1 C -0.60892(19) -0.90458(18) 0.06660(9)
O5 O -0.27630(13) -1.04530(13) 0.13383(6)
C2 C -0.5088(2) -0.94413(18) 0.11488(8)
H2 H -0.5286 -0.9386 0.1625
C3 C -0.81510(19) -0.70299(18) -0.27726(9)
H3 H -0.7926 -0.6342 -0.3104
O6 O -0.58831(13) -0.67164(13) -0.22076(7)
H4 H -0.5848 -0.6049 -0.2484
C4 C -0.71615(18) -0.73681(18) -0.22681(9)
C5 C -0.98042(19) -0.87141(19) -0.23135(9)
H5 H -1.0709 -0.9165 -0.2325
C6 C -0.5758(2) -0.90951(17) -0.00456(9)
C7 C -0.44028(19) -0.95745(17) -0.02432(9)
C8 C -0.14447(18) -1.0573(2) 0.09316(9)
H6 H -0.0890 -0.9692 0.0985
C9 C -0.64280(19) -0.87750(17) -0.12407(9)
C10 C -0.67567(19) -0.86935(17) -0.05643(9)
H7 H -0.7674 -0.8361 -0.0433
C11 C -0.19283(19) -1.06895(18) 0.01692(9)
C12 C -0.5032(2) -0.93157(17) -0.14401(9)
C13 C -0.87966(19) -0.90590(18) -0.18183(9)
H8 H -0.9023 -0.9759 -0.1493
C14 C -0.37826(19) -0.99214(18) 0.09083(9)
C15 C -0.7827(2) -0.8632(2) 0.15283(9)
H9 H -0.7205 -0.8001 0.1787
H10 H -0.7720 -0.9578 0.1706
H11 H -0.8826 -0.8336 0.1577
C16 C -0.33832(18) -0.99942(17) 0.02267(9)
C17 C -0.0568(2) -1.1740(2) 0.12316(10)
H12 H -0.1105 -1.2611 0.1197
H13 H -0.0363 -1.1541 0.1714
H14 H 0.0334 -1.1826 0.0979
C18 C -0.08658(18) -0.9922(2) -0.02913(9)
H15 H 0.0078 -1.0361 -0.0256
H16 H -0.0797 -0.8950 -0.0146
H17 H -0.1198 -0.9962 -0.0767
C19 C -0.74644(18) -0.84092(18) -0.17840(9)
C20 C -0.2104(2) -1.21971(19) -0.00744(10)
H18 H -0.2745 -1.2694 0.0238
H19 H -0.1166 -1.2655 -0.0080
H20 H -0.2511 -1.2204 -0.0537
C21 C -0.94650(18) -0.76968(18) -0.27922(9)
loop_
_geom_bond_atom_site_label_1
_geom_bond_atom_site_label_2
_geom_bond_site_symmetry_1
_geom_bond_site_symmetry_2
O1 C7 1_555 1_555
O2 H1 1_555 1_555
O3 C1 1_555 1_555
O4 C12 1_555 1_555
C1 C2 1_555 1_555
O5 C8 1_555 1_555
C2 H2 1_555 1_555
C3 H3 1_555 1_555
O6 H4 1_555 1_555
C4 C3 1_555 1_555
C5 H5 1_555 1_555
C6 C1 1_555 1_555
C7 C6 1_555 1_555
C8 H6 1_555 1_555
C9 C10 1_555 1_555
C10 C6 1_555 1_555
H7 C10 1_555 1_555
C11 C8 1_555 1_555
C12 O1 1_555 1_555
C13 C5 1_555 1_555
H8 C13 1_555 1_555
C14 O5 1_555 1_555
C15 O3 1_555 1_555
H9 C15 1_555 1_555
H10 C15 1_555 1_555
H11 C15 1_555 1_555
C16 C7 1_555 1_555
C17 C8 1_555 1_555
H12 C17 1_555 1_555
H13 C17 1_555 1_555
H14 C17 1_555 1_555
C18 C11 1_555 1_555
H15 C18 1_555 1_555
H16 C18 1_555 1_555
H17 C18 1_555 1_555
C19 C4 1_555 1_555
C20 C11 1_555 1_555
H18 C20 1_555 1_555
H19 C20 1_555 1_555
H20 C20 1_555 1_555
C21 O2 1_555 1_555
C2 C14 1_555 1_555
C3 C21 1_555 1_555
O6 C4 1_555 1_555
C5 C21 1_555 1_555
C9 C12 1_555 1_555
C9 C19 1_555 1_555
C11 C16 1_555 1_555
C13 C19 1_555 1_555
C14 C16 1_555 1_555

#END
