
#######################################################################
#
#                 Cambridge Crystallographic Data Centre
#                                CCDC 
#
#######################################################################
#
# If this CIF has been generated from an entry in the Cambridge 
# Structural Database, then it will include bibliographic, chemical, 
# crystal, experimental, refinement or atomic coordinate data resulting 
# from the CCDC's data processing and validation procedures.
#
#######################################################################

data_LUJTEQ
_chemical_formula_moiety         'C19 H13 F3 O2'
_chemical_name_systematic        
3-(2-(1,1,1-Trifluoro-4-oxo-4-phenylbut-2-en-2-yl)phenyl)acrylaldehyde
_symmetry_cell_setting           monoclinic
_symmetry_space_group_name_H-M   'P 21/c'
_symmetry_Int_Tables_number      14
_space_group_name_Hall           '-P 2ybc'
loop_
_symmetry_equiv_pos_site_id
_symmetry_equiv_pos_as_xyz
1 x,y,z
2 -x,1/2+y,1/2-z
3 -x,-y,-z
4 x,1/2-y,1/2+z
_cell_length_a                   8.9074(11)
_cell_length_b                   15.5638(19)
_cell_length_c                   24.123(3)
_cell_angle_alpha                90
_cell_angle_beta                 95.334(2)
_cell_angle_gamma                90
_cell_volume                     3329.76
_exptl_crystal_colour            yellow
_exptl_crystal_description       prismatic
_cell_formula_units_Z            8
loop_
_atom_site_label
_atom_site_type_symbol
_atom_site_fract_x
_atom_site_fract_y
_atom_site_fract_z
F1 F 0.3495(3) 0.5331(2) 0.47499(12)
F2 F 0.4415(3) 0.6454(2) 0.44113(15)
F3 F 0.4826(3) 0.5228(2) 0.40736(13)
O1 O 0.0672(4) 0.63182(19) 0.28195(12)
O2 O -0.2440(4) 0.3034(2) 0.40797(17)
C1 C 0.3784(5) 0.5705(3) 0.4276(2)
C2 C 0.2386(4) 0.5803(2) 0.38896(17)
C3 C 0.2321(4) 0.5467(2) 0.33859(17)
H1 H 0.3129 0.5136 0.3293
C4 C 0.1013(5) 0.5591(3) 0.29549(16)
C5 C 0.0213(5) 0.4841(3) 0.27117(16)
C6 C -0.1003(6) 0.4956(4) 0.23116(19)
H2 H -0.1299 0.5506 0.2198
C7 C -0.1756(7) 0.4254(5) 0.2086(2)
H3 H -0.2579 0.4330 0.1824
C8 C -0.1311(8) 0.3437(4) 0.2243(3)
H4 H -0.1807 0.2967 0.2073
C9 C -0.0156(7) 0.3307(3) 0.2643(2)
H5 H 0.0114 0.2754 0.2759
C10 C 0.0604(5) 0.4005(3) 0.28720(19)
H6 H 0.1404 0.3918 0.3142
C11 C 0.1135(4) 0.6283(2) 0.41071(14)
C12 C 0.1164(6) 0.7166(3) 0.41439(17)
H7 H 0.1992 0.7465 0.4034
C13 C -0.0007(7) 0.7613(3) 0.4339(2)
H8 H 0.0034 0.8209 0.4358
C14 C -0.1220(6) 0.7193(3) 0.45042(19)
H9 H -0.2004 0.7500 0.4639
C15 C -0.1292(5) 0.6313(3) 0.44724(16)
H10 H -0.2131 0.6028 0.4585
C16 C -0.0130(4) 0.5840(2) 0.42748(14)
C17 C -0.0220(4) 0.4902(2) 0.42405(14)
H11 H 0.0694 0.4609 0.4263
C18 C -0.1448(5) 0.4425(3) 0.41817(17)
H12 H -0.2387 0.4690 0.4158
C19 C -0.1367(5) 0.3499(3) 0.41532(19)
H13 H -0.0418 0.3246 0.4195
F4 F 0.1359(3) 0.6066(2) 0.03343(12)
F5 F 0.0419(3) 0.5009(2) 0.07186(14)
F6 F 0.0089(3) 0.6259(2) 0.10166(13)
O3 O 0.4209(4) 0.51340(19) 0.22748(12)
O4 O 0.7390(4) 0.8376(2) 0.08652(18)
C20 C 0.1099(5) 0.5749(3) 0.0818(2)
C21 C 0.2498(4) 0.5639(2) 0.11966(16)
C22 C 0.2596(4) 0.5997(2) 0.17008(16)
H14 H 0.1815 0.6351 0.1793
C23 C 0.3907(5) 0.5856(3) 0.21242(15)
C24 C 0.4762(5) 0.6616(3) 0.23553(15)
C25 C 0.5969(6) 0.6492(3) 0.27531(19)
H15 H 0.6222 0.5942 0.2879
C26 C 0.6792(7) 0.7192(5) 0.2961(2)
H16 H 0.7604 0.7115 0.3228
C27 C 0.6409(8) 0.7993(5) 0.2774(3)
H17 H 0.6966 0.8464 0.2914
C28 C 0.5222(7) 0.8116(3) 0.2385(2)
H18 H 0.4971 0.8669 0.2262
C29 C 0.4400(5) 0.7436(3) 0.21731(18)
H19 H 0.3593 0.7524 0.1906
C30 C 0.3739(4) 0.5160(2) 0.09782(14)
C31 C 0.3656(5) 0.4269(3) 0.09467(16)
H20 H 0.2797 0.3994 0.1048
C32 C 0.4807(7) 0.3787(3) 0.07699(19)
H21 H 0.4730 0.3191 0.0756
C33 C 0.6070(6) 0.4187(3) 0.06134(17)
H22 H 0.6856 0.3863 0.0493
C34 C 0.6177(5) 0.5068(3) 0.06342(15)
H23 H 0.7033 0.5336 0.0524
C35 C 0.5022(4) 0.5565(2) 0.08184(14)
C36 C 0.5129(4) 0.6510(2) 0.08243(14)
H24 H 0.4223 0.6807 0.0822
C37 C 0.6354(5) 0.6983(3) 0.08320(18)
H25 H 0.7282 0.6710 0.0831
C38 C 0.6315(5) 0.7901(3) 0.08416(19)
H26 H 0.5369 0.8157 0.0828
loop_
_geom_bond_atom_site_label_1
_geom_bond_atom_site_label_2
_geom_bond_site_symmetry_1
_geom_bond_site_symmetry_2
F1 C1 1_555 1_555
F2 C1 1_555 1_555
F3 C1 1_555 1_555
F4 C20 1_555 1_555
F5 C20 1_555 1_555
F6 C20 1_555 1_555
O1 C4 1_555 1_555
O2 C19 1_555 1_555
O3 C23 1_555 1_555
O4 C38 1_555 1_555
C1 C2 1_555 1_555
C2 C3 1_555 1_555
C3 H1 1_555 1_555
C4 C3 1_555 1_555
C5 C4 1_555 1_555
C6 C5 1_555 1_555
H2 C6 1_555 1_555
C7 C6 1_555 1_555
H3 C7 1_555 1_555
C8 C7 1_555 1_555
H4 C8 1_555 1_555
C9 C8 1_555 1_555
H5 C9 1_555 1_555
C10 C5 1_555 1_555
H6 C10 1_555 1_555
C11 C2 1_555 1_555
C12 C11 1_555 1_555
H7 C12 1_555 1_555
C13 C12 1_555 1_555
H8 C13 1_555 1_555
C14 C13 1_555 1_555
H9 C14 1_555 1_555
C15 C14 1_555 1_555
H10 C15 1_555 1_555
C16 C11 1_555 1_555
C17 C16 1_555 1_555
H11 C17 1_555 1_555
C18 C17 1_555 1_555
H12 C18 1_555 1_555
C19 C18 1_555 1_555
H13 C19 1_555 1_555
C20 C21 1_555 1_555
C21 C22 1_555 1_555
C22 H14 1_555 1_555
C23 C22 1_555 1_555
C24 C23 1_555 1_555
C25 C24 1_555 1_555
H15 C25 1_555 1_555
C26 C25 1_555 1_555
H16 C26 1_555 1_555
C27 C26 1_555 1_555
H17 C27 1_555 1_555
C28 C27 1_555 1_555
H18 C28 1_555 1_555
C29 C24 1_555 1_555
H19 C29 1_555 1_555
C30 C21 1_555 1_555
C31 C30 1_555 1_555
H20 C31 1_555 1_555
C32 C31 1_555 1_555
H21 C32 1_555 1_555
C33 C32 1_555 1_555
H22 C33 1_555 1_555
C34 C33 1_555 1_555
H23 C34 1_555 1_555
C35 C30 1_555 1_555
C36 C35 1_555 1_555
H24 C36 1_555 1_555
C37 C36 1_555 1_555
H25 C37 1_555 1_555
C38 C37 1_555 1_555
H26 C38 1_555 1_555
C9 C10 1_555 1_555
C15 C16 1_555 1_555
C28 C29 1_555 1_555
C34 C35 1_555 1_555

#END
