
#######################################################################
#
#                 Cambridge Crystallographic Data Centre
#                                CCDC 
#
#######################################################################
#
# If this CIF has been generated from an entry in the Cambridge 
# Structural Database, then it will include bibliographic, chemical, 
# crystal, experimental, refinement or atomic coordinate data resulting 
# from the CCDC's data processing and validation procedures.
#
#######################################################################

data_LUJTUF
_chemical_formula_moiety         'C27 H18 Br1 N1 O2'
_chemical_name_systematic        
N-(2-Hydroxy-5-bromobenzylidene)-2-amino-2'-hydroxy-1,1'-binaphthyl
_symmetry_cell_setting           orthorhombic
_symmetry_space_group_name_H-M   'P 21 21 21'
_symmetry_Int_Tables_number      19
_space_group_name_Hall           'P 2ac 2ab'
loop_
_symmetry_equiv_pos_site_id
_symmetry_equiv_pos_as_xyz
1 x,y,z
2 1/2-x,-y,1/2+z
3 1/2+x,1/2-y,-z
4 -x,1/2+y,1/2-z
_cell_length_a                   12.978(3)
_cell_length_b                   18.512(4)
_cell_length_c                   9.039(2)
_cell_angle_alpha                90
_cell_angle_beta                 90
_cell_angle_gamma                90
_cell_volume                     2171.61
_exptl_crystal_colour            red
_exptl_crystal_description       prismatic
_cell_formula_units_Z            4
loop_
_atom_site_label
_atom_site_type_symbol
_atom_site_fract_x
_atom_site_fract_y
_atom_site_fract_z
Br1 Br -0.37650(4) 0.95555(4) 0.06849(10)
O1 O 0.3145(3) 0.9309(2) -0.2976(4)
O2 O 0.0868(2) 0.9564(2) 0.0706(4)
N1 N 0.0823(3) 0.8480(2) -0.1051(4)
C1 C 0.1424(4) 0.7967(2) -0.1837(5)
C2 C 0.0978(4) 0.7405(3) -0.2684(7)
C3 C 0.1589(5) 0.6932(3) -0.3397(6)
C4 C 0.2664(5) 0.6977(3) -0.3317(6)
C5 C 0.3319(5) 0.6482(3) -0.4043(7)
C6 C 0.4358(6) 0.6549(4) -0.3976(8)
C7 C 0.4804(5) 0.7088(3) -0.3145(8)
C8 C 0.4208(4) 0.7587(3) -0.2395(6)
C9 C 0.3128(4) 0.7537(2) -0.2465(5)
C10 C 0.2473(4) 0.8040(2) -0.1721(5)
C11 C 0.2931(3) 0.8637(2) -0.0815(5)
C12 C 0.3031(3) 0.8560(2) 0.0741(5)
C13 C 0.2729(4) 0.7925(3) 0.1499(6)
C14 C 0.2836(5) 0.7868(4) 0.2982(7)
C15 C 0.3256(6) 0.8432(5) 0.3808(7)
C16 C 0.3552(5) 0.9048(4) 0.3128(7)
C17 C 0.3460(4) 0.9142(3) 0.1581(6)
C18 C 0.3728(4) 0.9780(3) 0.0835(6)
C19 C 0.3630(3) 0.9849(2) -0.0646(6)
C20 C 0.3237(3) 0.9269(2) -0.1493(5)
C21 C -0.0169(3) 0.8514(3) -0.1030(6)
C22 C -0.0705(3) 0.9050(3) -0.0185(6)
C23 C -0.0166(3) 0.9562(3) 0.0666(6)
C24 C -0.0703(4) 1.0075(3) 0.1472(7)
C25 C -0.1768(4) 1.0079(4) 0.1455(7)
C26 C -0.2298(3) 0.9566(3) 0.0647(7)
C27 C -0.1794(4) 0.9059(3) -0.0175(7)
H1 H 0.0282 0.7367 -0.2711
H2 H 0.1347 0.6504 -0.4103
H3 H 0.3088 0.6090 -0.4557
H4 H 0.4680 0.6208 -0.4555
H5 H 0.5467 0.7230 -0.3134
H6 H 0.4577 0.7936 -0.1881
H7 H 0.2428 0.7599 0.0903
H8 H 0.2619 0.7438 0.3467
H9 H 0.3355 0.8383 0.4850
H10 H 0.3837 0.9419 0.3637
H11 H 0.3965 1.0120 0.1460
H12 H 0.3748 1.0299 -0.1192
H13 H -0.0550 0.8269 -0.1658
H14 H -0.2130 0.8737 -0.0770
H15 H -0.2177 1.0423 0.2121
H16 H -0.0332 1.0427 0.2040
H17 H 0.3466 0.9779 -0.3298
H18 H 0.1108 0.9165 0.0086
loop_
_geom_bond_atom_site_label_1
_geom_bond_atom_site_label_2
_geom_bond_site_symmetry_1
_geom_bond_site_symmetry_2
Br1 C26 1_555 1_555
O1 C20 1_555 1_555
O2 C23 1_555 1_555
N1 C1 1_555 1_555
C1 C2 1_555 1_555
C2 C3 1_555 1_555
C3 C4 1_555 1_555
C4 C5 1_555 1_555
C5 C6 1_555 1_555
C6 C7 1_555 1_555
C7 C8 1_555 1_555
C8 C9 1_555 1_555
C9 C4 1_555 1_555
C10 C1 1_555 1_555
C11 C10 1_555 1_555
C12 C11 1_555 1_555
C13 C12 1_555 1_555
C14 C13 1_555 1_555
C15 C14 1_555 1_555
C16 C15 1_555 1_555
C17 C12 1_555 1_555
C18 C17 1_555 1_555
C19 C18 1_555 1_555
C20 C11 1_555 1_555
C21 N1 1_555 1_555
C22 C21 1_555 1_555
C23 C22 1_555 1_555
C24 C23 1_555 1_555
C25 C24 1_555 1_555
C26 C25 1_555 1_555
C27 C22 1_555 1_555
H1 C2 1_555 1_555
H2 C3 1_555 1_555
H3 C5 1_555 1_555
H4 C6 1_555 1_555
H5 C7 1_555 1_555
H6 C8 1_555 1_555
H7 C13 1_555 1_555
H8 C14 1_555 1_555
H9 C15 1_555 1_555
H10 C16 1_555 1_555
H11 C18 1_555 1_555
H12 C19 1_555 1_555
H13 C21 1_555 1_555
H14 C27 1_555 1_555
H15 C25 1_555 1_555
H16 C24 1_555 1_555
H17 O1 1_555 1_555
H18 O2 1_555 1_555
C9 C10 1_555 1_555
C16 C17 1_555 1_555
C19 C20 1_555 1_555
C26 C27 1_555 1_555

#END
