
#######################################################################
#
#                 Cambridge Crystallographic Data Centre
#                                CCDC 
#
#######################################################################
#
# If this CIF has been generated from an entry in the Cambridge 
# Structural Database, then it will include bibliographic, chemical, 
# crystal, experimental, refinement or atomic coordinate data resulting 
# from the CCDC's data processing and validation procedures.
#
#######################################################################

data_LUJTOZ
_chemical_formula_moiety         'C28 H21 N1 O2'
_chemical_name_systematic        
N-(2-Hydroxy-3-methylbenzylidene)-2-amino-2'-hydroxy-1,1'-binaphthyl
_symmetry_cell_setting           monoclinic
_symmetry_space_group_name_H-M   'P 21'
_symmetry_Int_Tables_number      4
_space_group_name_Hall           'P 2yb'
loop_
_symmetry_equiv_pos_site_id
_symmetry_equiv_pos_as_xyz
1 x,y,z
2 -x,1/2+y,-z
_cell_length_a                   11.104(3)
_cell_length_b                   9.086(2)
_cell_length_c                   11.139(2)
_cell_angle_alpha                90
_cell_angle_beta                 110.51(2)
_cell_angle_gamma                90
_cell_volume                     1052.59
_exptl_crystal_colour            red
_exptl_crystal_description       prismatic
_cell_formula_units_Z            2
loop_
_atom_site_label
_atom_site_type_symbol
_atom_site_fract_x
_atom_site_fract_y
_atom_site_fract_z
O1 O 0.5042(2) 0.4619 0.8584(2)
O2 O 0.2588(1) 0.1206(3) 1.0236(1)
N1 N 0.1679(2) 0.2965(3) 0.8273(2)
C1 C 0.1725(2) 0.3606(3) 0.7124(2)
C2 C 0.0692(2) 0.4448(4) 0.6297(2)
C3 C 0.0796(2) 0.5131(4) 0.5252(2)
C4 C 0.1936(2) 0.5019(3) 0.4957(2)
C5 C 0.2072(3) 0.5758(4) 0.3899(2)
C6 C 0.3173(3) 0.5608(4) 0.3616(3)
C7 C 0.4148(3) 0.4684(5) 0.4356(3)
C8 C 0.4046(2) 0.3939(4) 0.5383(2)
C9 C 0.2940(2) 0.4106(3) 0.5732(2)
C10 C 0.2830(2) 0.3410(3) 0.6838(2)
C11 C 0.3908(2) 0.2481(3) 0.7677(2)
C12 C 0.3832(2) 0.0925(3) 0.7571(2)
C13 C 0.2763(2) 0.0197(3) 0.6677(2)
C14 C 0.2710(3) -0.1301(4) 0.6592(3)
C15 C 0.3719(3) -0.2157(4) 0.7385(3)
C16 C 0.4772(3) -0.1496(4) 0.8243(3)
C17 C 0.4864(2) 0.0043(3) 0.8360(2)
C18 C 0.5959(2) 0.0771(4) 0.9224(2)
C19 C 0.6032(2) 0.2252(4) 0.9298(2)
C20 C 0.4995(2) 0.3129(3) 0.8519(2)
C21 C 0.0929(2) 0.3488(3) 0.8826(2)
C22 C 0.0917(2) 0.2953(3) 1.0040(2)
C23 C 0.1785(2) 0.1879(3) 1.0743(2)
C24 C 0.1836(2) 0.1501(4) 1.1980(2)
C25 C 0.0980(3) 0.2183(4) 1.2452(3)
C26 C 0.0094(3) 0.3197(4) 1.1766(3)
C27 C 0.0062(3) 0.3591(4) 1.0561(3)
C28 C 0.2794(3) 0.0409(5) 1.2762(3)
H1 H -0.0129 0.4602 0.6484
H2 H 0.0184 0.5752 0.4752
H3 H 0.1422 0.6386 0.3490
H4 H 0.3266 0.6204 0.2838
H5 H 0.4865 0.4482 0.4095
H6 H 0.4754 0.3250 0.5934
H7 H 0.2109 0.0832 0.6100
H8 H 0.2012 -0.1754 0.5996
H9 H 0.3705 -0.3204 0.7286
H10 H 0.5416 -0.2138 0.8763
H11 H 0.6676 0.0210 0.9769
H12 H 0.6699 0.2718 0.9901
H13 H 0.0421 0.4331 0.8479
H14 H 0.1071 0.1936 1.3336
H15 H -0.0430 0.3677 1.2206
H16 H -0.0513 0.4374 1.0119
H17 H 0.5798 0.5152 0.9137
H18 H 0.2430 0.1716 0.9511
H19 H 0.2685 -0.0645 1.2299
H20 H 0.3598 0.0694 1.2824
H21 H 0.2611 0.0147 1.3499
loop_
_geom_bond_atom_site_label_1
_geom_bond_atom_site_label_2
_geom_bond_site_symmetry_1
_geom_bond_site_symmetry_2
O1 C20 1_555 1_555
O2 C23 1_555 1_555
N1 C1 1_555 1_555
C1 C2 1_555 1_555
C2 C3 1_555 1_555
C3 C4 1_555 1_555
C4 C5 1_555 1_555
C5 C6 1_555 1_555
C6 C7 1_555 1_555
C7 C8 1_555 1_555
C8 C9 1_555 1_555
C9 C4 1_555 1_555
C10 C1 1_555 1_555
C11 C10 1_555 1_555
C12 C11 1_555 1_555
C13 C12 1_555 1_555
C14 C13 1_555 1_555
C15 C14 1_555 1_555
C16 C15 1_555 1_555
C17 C12 1_555 1_555
C18 C17 1_555 1_555
C19 C18 1_555 1_555
C20 C11 1_555 1_555
C21 N1 1_555 1_555
C22 C21 1_555 1_555
C23 C22 1_555 1_555
C24 C23 1_555 1_555
C25 C24 1_555 1_555
C26 C25 1_555 1_555
C27 C22 1_555 1_555
C28 C24 1_555 1_555
H1 C2 1_555 1_555
H2 C3 1_555 1_555
H3 C5 1_555 1_555
H4 C6 1_555 1_555
H5 C7 1_555 1_555
H6 C8 1_555 1_555
H7 C13 1_555 1_555
H8 C14 1_555 1_555
H9 C15 1_555 1_555
H10 C16 1_555 1_555
H11 C18 1_555 1_555
H12 C19 1_555 1_555
H13 C21 1_555 1_555
H14 C25 1_555 1_555
H15 C26 1_555 1_555
H16 C27 1_555 1_555
H17 O1 1_555 1_555
H18 O2 1_555 1_555
H19 C28 1_555 1_555
H20 C28 1_555 1_555
H21 C28 1_555 1_555
C9 C10 1_555 1_555
C16 C17 1_555 1_555
C19 C20 1_555 1_555
C26 C27 1_555 1_555

#END
