
#######################################################################
#
#                 Cambridge Crystallographic Data Centre
#                                CCDC 
#
#######################################################################
#
# If this CIF has been generated from an entry in the Cambridge 
# Structural Database, then it will include bibliographic, chemical, 
# crystal, experimental, refinement or atomic coordinate data resulting 
# from the CCDC's data processing and validation procedures.
#
#######################################################################

data_LUJWUJ
_chemical_formula_moiety         'C28 H25 B1 Cl1 F2 N7 O1'
_chemical_name_systematic        
4-Chloro-6-(4-(5,5-difluoro-1,3,7,9-tetramethyl-5H-dipyrrolo[1,2-c:2',1'-f][1,3,2]diazaborinin-10-yl)phenoxy)-N-(pyridin-2-ylmethyl)-1,3,5-triazin-2-amine
_symmetry_cell_setting           monoclinic
_symmetry_space_group_name_H-M   'P 21/c'
_symmetry_Int_Tables_number      14
_space_group_name_Hall           '-P 2ybc'
loop_
_symmetry_equiv_pos_site_id
_symmetry_equiv_pos_as_xyz
1 x,y,z
2 -x,1/2+y,1/2-z
3 -x,-y,-z
4 x,1/2-y,1/2+z
_cell_length_a                   9.971(5)
_cell_length_b                   9.309(5)
_cell_length_c                   30.014(15)
_cell_angle_alpha                90
_cell_angle_beta                 92.636(10)
_cell_angle_gamma                90
_cell_volume                     2782.95
_exptl_crystal_colour            'orange red'
_exptl_crystal_description       block
_cell_formula_units_Z            4
loop_
_atom_site_label
_atom_site_type_symbol
_atom_site_fract_x
_atom_site_fract_y
_atom_site_fract_z
B1 B 0.2204(3) 0.2557(4) 0.79876(11)
C1 C 1.3306(5) 0.7421(5) 0.84121(17)
H1 H 1.4203 0.7622 0.8485
C2 C 1.2738(7) 0.8051(6) 0.80376(19)
H2 H 1.3227 0.8671 0.7865
C3 C 1.1417(7) 0.7734(6) 0.79256(15)
H3 H 1.0999 0.8118 0.7669
C4 C 1.0724(4) 0.6841(5) 0.81980(14)
H4 H 0.9826 0.6627 0.8132
C5 C 1.1381(4) 0.6272(4) 0.85694(12)
C6 C 1.0672(3) 0.5256(4) 0.88832(11)
H5 H 0.9918 0.5747 0.9008
H6 H 1.0327 0.4432 0.8716
C7 C 1.1281(3) 0.3959(4) 0.95708(11)
C8 C 1.1921(3) 0.2914(4) 1.02152(12)
C9 C 0.9852(3) 0.2633(4) 0.99489(10)
C10 C 0.7649(3) 0.2161(4) 0.96607(10)
C11 C 0.6676(3) 0.3178(4) 0.96992(11)
H7 H 0.6704 0.3808 0.9940
C12 C 0.5656(3) 0.3255(4) 0.93767(11)
H8 H 0.4994 0.3952 0.9398
C13 C 0.5597(3) 0.2306(3) 0.90183(9)
C14 C 0.6585(3) 0.1280(4) 0.89940(10)
H9 H 0.6560 0.0639 0.8756
C15 C 0.7616(3) 0.1189(4) 0.93178(10)
H10 H 0.8273 0.0483 0.9303
C16 C 0.4462(2) 0.2394(3) 0.86760(8)
C17 C 0.3287(2) 0.1626(3) 0.87452(9)
C18 C 0.2897(3) 0.0716(3) 0.91022(9)
C19 C 0.1591(3) 0.0319(4) 0.89977(11)
H11 H 0.1069 -0.0273 0.9170
C20 C 0.1175(3) 0.0949(4) 0.85920(11)
C21 C -0.0152(3) 0.0824(4) 0.83500(12)
H12 H -0.0672 0.1671 0.8401
H13 H -0.0617 -0.0003 0.8456
H14 H -0.0026 0.0723 0.8036
C22 C 0.3705(3) 0.0213(4) 0.95080(10)
H15 H 0.3141 -0.0335 0.9695
H16 H 0.4056 0.1029 0.9670
H17 H 0.4434 -0.0377 0.9418
C23 C 0.4603(3) 0.3279(3) 0.83036(9)
C24 C 0.5651(3) 0.4199(4) 0.81693(10)
C25 C 0.5182(3) 0.4848(4) 0.77770(11)
H18 H 0.5647 0.5518 0.7614
C26 C 0.3909(3) 0.4336(4) 0.76685(10)
C27 C 0.3034(4) 0.4734(5) 0.72656(11)
H19 H 0.2903 0.3907 0.7077
H20 H 0.3460 0.5481 0.7103
H21 H 0.2180 0.5067 0.7359
C28 C 0.7015(3) 0.4472(4) 0.83892(12)
H22 H 0.7511 0.5110 0.8207
H23 H 0.7490 0.3579 0.8424
H24 H 0.6913 0.4900 0.8677
Cl1 Cl 1.31481(9) 0.26260(12) 1.06332(3)
F1 F 0.11199(15) 0.3477(2) 0.79444(6)
F2 F 0.21212(16) 0.1575(2) 0.76323(5)
N1 N 1.2291(2) 0.3691(3) 0.98798(10)
N2 N 1.0739(3) 0.2320(3) 1.02849(8)
N3 N 1.0022(2) 0.3435(3) 0.95942(8)
N4 N 1.1561(2) 0.4790(3) 0.92288(9)
H25 H 1.2379 0.5075 0.9218
N5 N 1.2654(3) 0.6526(3) 0.86847(10)
N6 N 0.3538(2) 0.3400(3) 0.79829(7)
N7 N 0.2195(2) 0.1743(3) 0.84363(7)
O1 O 0.8647(2) 0.2024(3) 1.00065(7)
loop_
_geom_bond_atom_site_label_1
_geom_bond_atom_site_label_2
_geom_bond_site_symmetry_1
_geom_bond_site_symmetry_2
B1 F1 1_555 1_555
C1 H1 1_555 1_555
C2 C1 1_555 1_555
H2 C2 1_555 1_555
C3 C2 1_555 1_555
H3 C3 1_555 1_555
C4 C3 1_555 1_555
H4 C4 1_555 1_555
C5 C4 1_555 1_555
C6 C5 1_555 1_555
H5 C6 1_555 1_555
H6 C6 1_555 1_555
C7 N1 1_555 1_555
C8 Cl1 1_555 1_555
C9 N2 1_555 1_555
C10 C11 1_555 1_555
C11 H7 1_555 1_555
C12 C11 1_555 1_555
H8 C12 1_555 1_555
C13 C12 1_555 1_555
C14 C13 1_555 1_555
H9 C14 1_555 1_555
C15 C10 1_555 1_555
H10 C15 1_555 1_555
C16 C13 1_555 1_555
C17 C16 1_555 1_555
C18 C17 1_555 1_555
C19 C18 1_555 1_555
H11 C19 1_555 1_555
C20 C19 1_555 1_555
C21 C20 1_555 1_555
H12 C21 1_555 1_555
H13 C21 1_555 1_555
H14 C21 1_555 1_555
C22 C18 1_555 1_555
H15 C22 1_555 1_555
H16 C22 1_555 1_555
H17 C22 1_555 1_555
C23 C16 1_555 1_555
C24 C23 1_555 1_555
C25 C24 1_555 1_555
H18 C25 1_555 1_555
C26 C25 1_555 1_555
C27 C26 1_555 1_555
H19 C27 1_555 1_555
H20 C27 1_555 1_555
H21 C27 1_555 1_555
C28 C24 1_555 1_555
H22 C28 1_555 1_555
H23 C28 1_555 1_555
H24 C28 1_555 1_555
F2 B1 1_555 1_555
N1 C8 1_555 1_555
N2 C8 1_555 1_555
N3 C7 1_555 1_555
N4 C6 1_555 1_555
H25 N4 1_555 1_555
N5 C1 1_555 1_555
N6 B1 1_555 1_555
N7 B1 1_555 1_555
O1 C9 1_555 1_555
C5 N5 1_555 1_555
C7 N4 1_555 1_555
C9 N3 1_555 1_555
C10 O1 1_555 1_555
C14 C15 1_555 1_555
C17 N7 1_555 1_555
C20 N7 1_555 1_555
C23 N6 1_555 1_555
C26 N6 1_555 1_555

#END
