
#######################################################################
#
#                 Cambridge Crystallographic Data Centre
#                                CCDC 
#
#######################################################################
#
# If this CIF has been generated from an entry in the Cambridge 
# Structural Database, then it will include bibliographic, chemical, 
# crystal, experimental, refinement or atomic coordinate data resulting 
# from the CCDC's data processing and validation procedures.
#
#######################################################################

data_LUJXAQ
_chemical_formula_moiety         'C40 H36 B1 F2 N9 O1,C1 H4 O1'
_chemical_name_systematic        
"6-(4-(5,5-Difluoro-1,3,7,9-tetramethyl-5H-dipyrrolo[1,2-c:2',1'-f][1,3,2]diazaborinin-10-yl)phenoxy)-N'-phenyl-N,N-bis(pyridin-2-ylmethyl)-1,3,5-triazine-2,4-diamine methanol solvate"
_symmetry_cell_setting           triclinic
_symmetry_space_group_name_H-M   'P -1'
_symmetry_Int_Tables_number      2
_space_group_name_Hall           '-P 1'
loop_
_symmetry_equiv_pos_site_id
_symmetry_equiv_pos_as_xyz
1 x,y,z
2 -x,-y,-z
_cell_length_a                   7.622(3)
_cell_length_b                   14.398(6)
_cell_length_c                   18.468(7)
_cell_angle_alpha                112.269(7)
_cell_angle_beta                 92.423(7)
_cell_angle_gamma                97.807(8)
_cell_volume                     1848.42
_cell_formula_units_Z            2
loop_
_atom_site_label
_atom_site_type_symbol
_atom_site_fract_x
_atom_site_fract_y
_atom_site_fract_z
B1 B 0.2656(12) 0.2459(7) 1.0813(5)
C1 C 0.5172(10) 0.2174(6) 1.2054(4)
H1 H 0.5130 0.2891 1.2272
H2 H 0.6137 0.2037 1.2329
H3 H 0.4071 0.1807 1.2110
C2 C 0.5444(9) 0.1848(6) 1.1212(4)
C3 C 0.6767(9) 0.1341(5) 1.0825(4)
H4 H 0.7671 0.1146 1.1062
C4 C 0.6545(9) 0.1173(5) 1.0050(4)
C5 C 0.5013(8) 0.1597(5) 0.9954(3)
C6 C 0.7717(10) 0.0635(6) 0.9445(4)
H5 H 0.8311 0.1101 0.9241
H6 H 0.7002 0.0075 0.9024
H7 H 0.8585 0.0385 0.9684
C7 C -0.0306(11) 0.3641(6) 1.0632(4)
H8 H -0.1273 0.3150 1.0649
H9 H -0.0770 0.4174 1.0533
H10 H 0.0422 0.3924 1.1127
C8 C 0.0782(10) 0.3137(6) 0.9994(4)
C9 C 0.0649(9) 0.3108(6) 0.9236(4)
H11 H -0.0137 0.3412 0.9033
C10 C 0.1887(9) 0.2551(6) 0.8834(4)
C11 C 0.2772(9) 0.2242(5) 0.9370(3)
C12 C 0.2185(10) 0.2353(6) 0.7983(4)
H12 H 0.1309 0.2618 0.7762
H13 H 0.2081 0.1634 0.7688
H14 H 0.3353 0.2683 0.7962
C13 C 0.4229(8) 0.1706(5) 0.9304(3)
C14 C 0.4944(8) 0.1305(5) 0.8534(3)
C15 C 0.4275(9) 0.0350(5) 0.7974(4)
H15 H 0.3352 -0.0060 0.8078
C16 C 0.4971(9) 0.0002(5) 0.7261(4)
H16 H 0.4521 -0.0645 0.6889
C17 C 0.6308(8) 0.0592(5) 0.7094(3)
C18 C 0.6988(9) 0.1554(6) 0.7641(4)
H17 H 0.7904 0.1960 0.7529
C19 C 0.6293(10) 0.1905(6) 0.8355(4)
H18 H 0.6738 0.2555 0.8723
C20 C 0.6890(7) 0.0641(4) 0.5869(3)
C21 C 0.7843(7) 0.0875(4) 0.4828(3)
C22 C 0.5451(7) 0.1513(5) 0.5338(3)
C23 C 0.2703(8) 0.2086(5) 0.5844(4)
H19 H 0.1583 0.1781 0.5517
H20 H 0.2907 0.1663 0.6131
C24 C 0.3910(8) 0.2411(5) 0.4712(4)
H21 H 0.2741 0.2606 0.4714
H22 H 0.3942 0.1860 0.4209
C25 C 0.5261(9) 0.3296(5) 0.4765(4)
C26 C 0.6442(7) 0.3745(4) 0.5392(3)
H23 H 0.6469 0.3508 0.5795
C27 C 0.7594(10) 0.4552(6) 0.5423(5)
H24 H 0.8411 0.4880 0.5867
C28 C 0.7643(12) 0.4925(6) 0.4840(6)
H25 H 0.8483 0.5477 0.4875
C29 C 0.6375(12) 0.4437(7) 0.4194(5)
H26 H 0.6337 0.4681 0.3795
C30 C 0.9365(7) 0.1207(5) 0.3764(3)
C31 C 0.9164(8) 0.2214(5) 0.3963(4)
H27 H 0.8761 0.2579 0.4441
C32 C 0.9576(8) 0.2670(5) 0.3432(4)
H28 H 0.9433 0.3343 0.3562
C33 C 1.0174(9) 0.2166(6) 0.2737(4)
H29 H 1.0446 0.2488 0.2394
C34 C 1.0377(8) 0.1152(5) 0.2541(4)
H30 H 1.0796 0.0794 0.2066
C35 C 0.9955(8) 0.0678(5) 0.3054(3)
H31 H 1.0073 0.0000 0.2917
F1 F 0.1358(5) 0.1822(3) 1.0982(2)
F2 F 0.2942(6) 0.3397(4) 1.1458(2)
N1 N 0.2061(7) 0.2613(4) 1.0077(3)
N2 N 0.4371(7) 0.2012(4) 1.0677(3)
N3 N 0.8085(6) 0.0462(4) 0.5364(3)
N4 N 0.5564(7) 0.1143(4) 0.5919(3)
N5 N 0.6574(6) 0.1391(4) 0.4783(3)
N6 N 0.9086(6) 0.0717(4) 0.4302(3)
H32 H 0.989(8) 0.022(5) 0.422(3)
N7 N 0.4111(6) 0.2028(4) 0.5321(3)
N8 N 0.5187(10) 0.3607(6) 0.4135(4)
O1 O 0.7091(5) 0.0214(3) 0.6402(2)
N9 N 0.0787(10) 0.3260(7) 0.6425(5)
C36 C 0.2491(11) 0.3012(4) 0.6379(3)
C37 C 0.3912(11) 0.3696(5) 0.6879(3)
C38 C 0.3629(16) 0.4628(4) 0.7424(3)
C39 C 0.1926(18) 0.4875(6) 0.7470(5)
C40 C 0.0505(14) 0.4191(8) 0.6970(6)
O2 O 0.6134(10) 0.4595(5) 0.9382(5)
H33 H 0.6303 0.4400 0.8916
C41 C 0.4753(15) 0.5183(9) 0.9522(7)
H35 H 0.3795 0.4854 0.9110
H36 H 0.5196 0.5845 0.9531
H34? H 0.4329 0.5252 1.0019
C42? C 0.3125(10) 0.3375(4) 0.6573(3)
C43? C 0.1506(16) 0.4569(6) 0.7220(5)
C44? C 0.4806(10) 0.3628(6) 0.6847(5)
C45? C 0.4882(15) 0.4565(6) 0.7490(5)
C46? C 0.3083(18) 0.4919(4) 0.7560(4)
N10? N 0.1631(11) 0.3604(6) 0.6636(4)
loop_
_geom_bond_atom_site_label_1
_geom_bond_atom_site_label_2
_geom_bond_site_symmetry_1
_geom_bond_site_symmetry_2
B1 F1 1_555 1_555
C1 H1 1_555 1_555
H2 C1 1_555 1_555
H3 C1 1_555 1_555
C2 C1 1_555 1_555
C3 C2 1_555 1_555
H4 C3 1_555 1_555
C4 C3 1_555 1_555
C5 C4 1_555 1_555
C6 C4 1_555 1_555
H5 C6 1_555 1_555
H6 C6 1_555 1_555
H7 C6 1_555 1_555
C7 H8 1_555 1_555
H9 C7 1_555 1_555
H10 C7 1_555 1_555
C8 C7 1_555 1_555
C9 C8 1_555 1_555
H11 C9 1_555 1_555
C10 C9 1_555 1_555
C11 C10 1_555 1_555
C12 C10 1_555 1_555
H12 C12 1_555 1_555
H13 C12 1_555 1_555
H14 C12 1_555 1_555
C13 C5 1_555 1_555
C14 C13 1_555 1_555
C15 C14 1_555 1_555
H15 C15 1_555 1_555
C16 C15 1_555 1_555
H16 C16 1_555 1_555
C17 C16 1_555 1_555
C18 C17 1_555 1_555
H17 C18 1_555 1_555
C19 C14 1_555 1_555
H18 C19 1_555 1_555
C20 N3 1_555 1_555
C21 N3 1_555 1_555
C22 N4 1_555 1_555
C23 H19 1_555 1_555
H20 C23 1_555 1_555
C24 H21 1_555 1_555
H22 C24 1_555 1_555
C25 C24 1_555 1_555
C26 C25 1_555 1_555
H23 C26 1_555 1_555
C27 C26 1_555 1_555
H24 C27 1_555 1_555
C28 C27 1_555 1_555
H25 C28 1_555 1_555
C29 C28 1_555 1_555
H26 C29 1_555 1_555
C30 C31 1_555 1_555
C31 H27 1_555 1_555
C32 C31 1_555 1_555
H28 C32 1_555 1_555
C33 C32 1_555 1_555
H29 C33 1_555 1_555
C34 C33 1_555 1_555
H30 C34 1_555 1_555
C35 C30 1_555 1_555
H31 C35 1_555 1_555
F2 B1 1_555 1_555
N1 B1 1_555 1_555
N2 B1 1_555 1_555
N4 C20 1_555 1_555
N5 C21 1_555 1_555
N6 C21 1_555 1_555
H32 N6 1_555 1_555
N7 C22 1_555 1_555
N8 C25 1_555 1_555
O1 C17 1_555 1_555
N9 C36 1_555 1_555
C36 C23 1_555 1_555
C37 C36 1_555 1_555
C38 C37 1_555 1_555
C39 C38 1_555 1_555
C40 N9 1_555 1_555
O2 H33 1_555 1_555
C41 O2 1_555 1_555
H35 C41 1_555 1_555
H36 C41 1_555 1_555
C2 N2 1_555 1_555
C5 N2 1_555 1_555
C8 N1 1_555 1_555
C11 C13 1_555 1_555
C11 N1 1_555 1_555
C18 C19 1_555 1_555
C20 O1 1_555 1_555
C22 N5 1_555 1_555
C23 N7 1_555 1_555
C24 N7 1_555 1_555
C29 N8 1_555 1_555
C30 N6 1_555 1_555
C34 C35 1_555 1_555
C39 C40 1_555 1_555

#END
