
#######################################################################
#
#                 Cambridge Crystallographic Data Centre
#                                CCDC 
#
#######################################################################
#
# If this CIF has been generated from an entry in the Cambridge 
# Structural Database, then it will include bibliographic, chemical, 
# crystal, experimental, refinement or atomic coordinate data resulting 
# from the CCDC's data processing and validation procedures.
#
#######################################################################

data_LUJZAR
_chemical_formula_moiety         
'2(C8 H20 N1 1+),C4 H4 O6 2-,2(C1 H4 N2 S1),2(H2 O1)'
_chemical_name_systematic        
'bis(Tetraethylammonium) tartrate bis(thiourea) dihydrate'
_symmetry_cell_setting           monoclinic
_symmetry_space_group_name_H-M   'P 21'
_symmetry_Int_Tables_number      4
_space_group_name_Hall           'P 2yb'
loop_
_symmetry_equiv_pos_site_id
_symmetry_equiv_pos_as_xyz
1 x,y,z
2 -x,1/2+y,-z
_cell_length_a                   7.727(2)
_cell_length_b                   14.707(4)
_cell_length_c                   14.645(4)
_cell_angle_alpha                90
_cell_angle_beta                 95.161(5)
_cell_angle_gamma                90
_cell_volume                     1657.53
_cell_formula_units_Z            2
loop_
_atom_site_label
_atom_site_type_symbol
_atom_site_fract_x
_atom_site_fract_y
_atom_site_fract_z
S1 S 1.0077(2) -0.0484(1) 0.0606(1)
C1 C 1.0058(5) 0.0635(3) 0.0916(3)
N1 N 1.0161(4) 0.1292(2) 0.0317(2)
N2 N 0.9979(5) 0.0865(2) 0.1780(3)
S2 S 0.9482(2) 0.9463(1) 0.3590(1)
C2 C 0.9666(6) 0.8356(3) 0.3267(3)
N3 N 0.9934(4) 0.8141(2) 0.2419(2)
N4 N 0.9504(4) 0.7676(2) 0.3855(2)
C3 C 1.0293(5) 0.5732(3) 0.2393(3)
C4 C 1.0706(5) 0.4737(2) 0.2206(3)
C5 C 0.9027(5) 0.4200(2) 0.2032(3)
C6 C 0.9415(6) 0.3199(3) 0.1813(3)
O1 O 1.0483(4) 0.6313(2) 0.1788(2)
O2 O 0.9724(4) 0.5900(2) 0.3157(2)
O3 O 1.1820(4) 0.4623(2) 0.1500(2)
O4 O 0.7924(4) 0.4607(2) 0.1341(3)
O5 O 1.0090(4) 0.2714(2) 0.2453(2)
O6 O 0.9023(4) 0.2959(2) 0.1004(2)
O7 O 0.9538(5) 0.8166(3) 0.5780(2)
O8 O 1.1784(6) 0.9854(3) 0.5583(3)
N5 N 0.5095(4) 0.7157(2) 0.0909(2)
C7 C 0.6138(6) 0.6674(3) 0.1695(3)
C8 C 0.5078(6) 0.6203(4) 0.2359(3)
C9 C 0.3879(6) 0.7859(3) 0.1254(4)
C10 C 0.4744(7) 0.8612(3) 0.1814(4)
C11 C 0.6380(5) 0.7589(3) 0.0330(3)
C12 C 0.5641(7) 0.8063(3) -0.0525(4)
C13 C 0.3960(6) 0.6488(3) 0.0362(3)
C14 C 0.4867(7) 0.5720(3) -0.0073(4)
N6 N 0.5325(5) 0.1975(3) 0.4157(3)
C15 C 0.4475(7) 0.2436(4) 0.4941(4)
C16 C 0.5656(9) 0.3059(4) 0.5531(4)
C17 C 0.5992(7) 0.2693(4) 0.3521(4)
C18 C 0.4677(7) 0.3353(4) 0.3111(4)
C19 C 0.6854(7) 0.1404(4) 0.4520(4)
C20 C 0.6447(8) 0.0641(4) 0.5168(4)
C21 C 0.3914(8) 0.1390(4) 0.3673(4)
C22 C 0.4561(11) 0.0856(5) 0.2851(5)
loop_
_geom_bond_atom_site_label_1
_geom_bond_atom_site_label_2
_geom_bond_site_symmetry_1
_geom_bond_site_symmetry_2
S1 C1 1_555 1_555
C1 N1 1_555 1_555
N2 C1 1_555 1_555
S2 C2 1_555 1_555
C2 N3 1_555 1_555
N4 C2 1_555 1_555
C3 C4 1_555 1_555
C4 C5 1_555 1_555
C5 C6 1_555 1_555
C6 O5 1_555 1_555
O1 C3 1_555 1_555
O2 C3 1_555 1_555
O3 C4 1_555 1_555
O4 C5 1_555 1_555
O6 C6 1_555 1_555
N5 C7 1_555 1_555
C7 C8 1_555 1_555
C9 N5 1_555 1_555
C10 C9 1_555 1_555
C11 N5 1_555 1_555
C12 C11 1_555 1_555
C13 N5 1_555 1_555
C14 C13 1_555 1_555
N6 C15 1_555 1_555
C15 C16 1_555 1_555
C17 N6 1_555 1_555
C18 C17 1_555 1_555
C19 N6 1_555 1_555
C20 C19 1_555 1_555
C21 N6 1_555 1_555
C22 C21 1_555 1_555

#END
