
#######################################################################
#
#                 Cambridge Crystallographic Data Centre
#                                CCDC 
#
#######################################################################
#
# If this CIF has been generated from an entry in the Cambridge 
# Structural Database, then it will include bibliographic, chemical, 
# crystal, experimental, refinement or atomic coordinate data resulting 
# from the CCDC's data processing and validation procedures.
#
#######################################################################

data_LUKDOM
_chemical_compound_source        'Caryopteris incana'
_chemical_formula_moiety         'C20 H26 O5'
_chemical_name_systematic        
'2-methyl-1-(6,6,9a-trimethyl-1,4-dioxo-1,3,4,5,5a,6,7,8,9,9a-decahydronaphtho[1,2-c]furan-3-yl)cyclopropanecarboxylic acid'
_chemical_properties_biological  'anticancer activity'
_symmetry_cell_setting           triclinic
_symmetry_space_group_name_H-M   'P 1'
_symmetry_Int_Tables_number      1
_space_group_name_Hall           'P 1'
loop_
_symmetry_equiv_pos_site_id
_symmetry_equiv_pos_as_xyz
1 x,y,z
_cell_length_a                   11.9342(11)
_cell_length_b                   12.3874(11)
_cell_length_c                   13.3401(13)
_cell_angle_alpha                106.111(5)
_cell_angle_beta                 92.693(5)
_cell_angle_gamma                95.261(6)
_cell_volume                     1881.27
_exptl_crystal_colour            colorless
_exptl_crystal_description       needle
_cell_formula_units_Z            4
loop_
_atom_site_label
_atom_site_type_symbol
_atom_site_fract_x
_atom_site_fract_y
_atom_site_fract_z
O1 O 0.3982(4) 0.0221(3) 0.2447(4)
O2 O 0.7234(3) 0.1940(4) 0.0030(3)
O3 O 0.6391(3) 0.0270(3) 0.0088(3)
O4 O 0.7091(4) 0.0302(3) 0.2362(3)
O5 O 0.7336(4) -0.1524(3) 0.2093(3)
H1 H 0.7826 -0.1252 0.2595
C1 C 0.5782(5) 0.3789(5) 0.0986(5)
H2 H 0.6584 0.3847 0.0829
H3 H 0.5323 0.3420 0.0321
C2 C 0.5444(6) 0.4964(5) 0.1442(5)
H4 H 0.5551 0.5404 0.0931
H5 H 0.5936 0.5354 0.2082
C3 C 0.4223(5) 0.4914(5) 0.1705(5)
H6 H 0.3735 0.4593 0.1049
H7 H 0.4039 0.5694 0.2021
C4 C 0.3947(5) 0.4204(4) 0.2464(4)
C5 C 0.4371(4) 0.3037(4) 0.2045(4)
H8 H 0.3902 0.2672 0.1374
C6 C 0.4149(5) 0.2232(5) 0.2725(4)
H9 H 0.4627 0.2524 0.3390
H10 H 0.3350 0.2222 0.2898
C7 C 0.4388(4) 0.1033(4) 0.2196(4)
C8 C 0.5197(4) 0.0929(4) 0.1394(4)
C9 C 0.5744(4) 0.1827(4) 0.1196(4)
C10 C 0.5621(4) 0.3054(4) 0.1733(4)
C11 C 0.5505(4) -0.0129(4) 0.0648(4)
H11 H 0.4839 -0.0465 0.0137
C12 C 0.5925(5) -0.1059(4) 0.1040(4)
C13 C 0.5994(5) -0.2184(5) 0.0224(5)
H12 H 0.5724 -0.2254 -0.0507
H13 H 0.6653 -0.2596 0.0295
C14 C 0.5147(5) -0.2135(5) 0.0990(5)
H14 H 0.5344 -0.2498 0.1548
C15 C 0.3895(6) -0.2250(5) 0.0689(6)
H15 H 0.3576 -0.3034 0.0585
H16 H 0.3773 -0.2041 0.0038
H17 H 0.3525 -0.1749 0.1247
C16 C 0.6838(5) -0.0720(4) 0.1892(4)
C17 C 0.6542(4) 0.1423(5) 0.0397(4)
C18 C 0.4410(7) 0.4855(5) 0.3575(5)
H18 H 0.5227 0.5047 0.3586
H19 H 0.4255 0.4386 0.4046
H20 H 0.4045 0.5550 0.3806
C19 C 0.2640(5) 0.4023(5) 0.2442(6)
H21 H 0.2339 0.4756 0.2583
H22 H 0.2423 0.3656 0.2977
H23 H 0.2334 0.3543 0.1751
C20 C 0.6536(5) 0.3425(5) 0.2646(5)
H24 H 0.7262 0.3203 0.2392
H25 H 0.6335 0.3060 0.3187
H26 H 0.6596 0.4248 0.2942
O6 O 1.1470(5) 0.2534(4) 0.4104(5)
O7 O 0.7885(6) 0.2772(5) 0.6883(4)
O8 O 0.9224(5) 0.1642(4) 0.6302(3)
O9 O 0.9052(4) -0.0794(3) 0.3467(3)
O10 O 0.8623(4) 0.0981(3) 0.3923(3)
H27 H 0.8789 0.1167 0.3384
C21 C 0.8822(6) 0.5236(6) 0.6858(5)
H28 H 0.8105 0.4934 0.7074
H29 H 0.9431 0.5230 0.7386
C22 C 0.8739(8) 0.6424(7) 0.6843(6)
H30 H 0.8623 0.6889 0.7557
H31 H 0.8076 0.6445 0.6378
C23 C 0.9799(7) 0.6931(6) 0.6464(6)
H32 H 1.0439 0.7008 0.6988
H33 H 0.9681 0.7698 0.6424
C24 C 1.0120(6) 0.6233(5) 0.5393(5)
C25 C 1.0151(5) 0.4999(4) 0.5436(4)
H34 H 1.0753 0.5046 0.5999
C26 C 1.0548(6) 0.4212(5) 0.4450(5)
H35 H 0.9956 0.4076 0.3870
H36 H 1.1236 0.4587 0.4249
C27 C 1.0801(5) 0.3099(5) 0.4595(5)
C28 C 1.0133(5) 0.2729(4) 0.5361(4)
C29 C 0.9353(5) 0.3318(5) 0.5863(4)
C30 C 0.9066(5) 0.4457(5) 0.5792(4)
C31 C 1.0191(6) 0.1665(5) 0.5676(5)
H37 H 1.0893 0.1760 0.6146
C32 C 1.0128(6) 0.0529(5) 0.4875(5)
C33 C 1.0436(11) -0.0434(6) 0.5301(9)
H38 H 1.0683 -0.0248 0.6054
H39 H 0.9992 -0.1181 0.5009
C34 C 1.1184(9) -0.0037(6) 0.4630(9)
H40 H 1.1146 -0.0560 0.3905
C35 C 1.2366(10) 0.0579(9) 0.5015(12)
H41 H 1.2934 0.0063 0.4768
H42 H 1.2433 0.0833 0.5782
H43 H 1.2486 0.1234 0.4742
C36 C 0.9222(5) 0.0195(4) 0.4030(4)
C37 C 0.8726(7) 0.2602(5) 0.6414(5)
C38 C 0.9319(7) 0.6346(6) 0.4494(6)
H44 H 0.9595 0.7011 0.4279
H45 H 0.8560 0.6430 0.4733
H46 H 0.9295 0.5668 0.3899
C39 C 1.1328(7) 0.6705(6) 0.5244(8)
H47 H 1.1857 0.6599 0.5784
H48 H 1.1347 0.7512 0.5301
H49 H 1.1546 0.6301 0.4551
C40 C 0.8004(6) 0.4223(7) 0.5032(6)
H50 H 0.7510 0.3590 0.5131
H51 H 0.8225 0.4031 0.4310
H52 H 0.7602 0.4898 0.5169
O11 O 0.5196(4) 0.2523(3) 0.5425(3)
O12 O 0.4387(3) 0.1032(3) 0.9106(3)
O13 O 0.4011(3) 0.2445(3) 0.8456(3)
O14 O 0.6372(3) 0.3448(3) 0.8454(3)
O15 O 0.6356(4) 0.5246(4) 0.8429(4)
H53 H 0.6668 0.5322 0.7898
C41 C 0.4893(6) -0.0978(5) 0.7329(5)
H54 H 0.5025 -0.0817 0.8097
H55 H 0.4069 -0.1040 0.7156
C42 C 0.5338(7) -0.2093(5) 0.6793(6)
H56 H 0.4948 -0.2709 0.7028
H57 H 0.6155 -0.2044 0.6990
C43 C 0.5143(8) -0.2358(5) 0.5598(6)
H58 H 0.4320 -0.2457 0.5408
H59 H 0.5439 -0.3084 0.5269
C44 C 0.5701(6) -0.1443(5) 0.5146(5)
C45 C 0.5334(5) -0.0291(4) 0.5762(4)
H60 H 0.4499 -0.0367 0.5598
C46 C 0.5794(5) 0.0718(5) 0.5375(4)
H61 H 0.6618 0.0874 0.5555
H62 H 0.5667 0.0509 0.4604
C47 C 0.5253(4) 0.1776(4) 0.5838(4)
C48 C 0.4811(4) 0.1851(4) 0.6879(4)
C49 C 0.4918(4) 0.1072(4) 0.7362(4)
C50 C 0.5487(4) 0.0006(4) 0.6973(4)
C51 C 0.4182(4) 0.2781(4) 0.7507(4)
H63 H 0.3428 0.2736 0.7129
C52 C 0.4713(4) 0.3981(4) 0.7783(4)
C53 C 0.3969(5) 0.4908(5) 0.8262(5)
H64 H 0.3174 0.4670 0.8352
H65 H 0.4324 0.5576 0.8817
C54 C 0.4300(5) 0.4774(5) 0.7179(5)
H66 H 0.4890 0.5370 0.7107
C55 C 0.3407(6) 0.4372(6) 0.6275(6)
H67 H 0.3172 0.5023 0.6071
H68 H 0.2755 0.3972 0.6487
H69 H 0.3717 0.3859 0.5680
C56 C 0.5892(5) 0.4239(4) 0.8244(4)
C57 C 0.4440(4) 0.1465(4) 0.8401(4)
C58 C 0.6984(7) -0.1483(6) 0.5152(7)
H70 H 0.7148 -0.2188 0.4657
H71 H 0.7289 -0.1449 0.5857
H72 H 0.7334 -0.0838 0.4945
C59 C 0.5219(9) -0.1729(6) 0.4002(5)
H73 H 0.4425 -0.1586 0.3983
H74 H 0.5276 -0.2528 0.3651
H75 H 0.5648 -0.1256 0.3642
C60 C 0.6720(5) 0.0286(5) 0.7446(4)
H76 H 0.6732 0.0640 0.8201
H77 H 0.7125 0.0809 0.7119
H78 H 0.7087 -0.0411 0.7316
O16 O -0.0311(4) 0.4074(3) 0.1858(3)
O17 O 0.1489(3) 0.2772(4) -0.2209(3)
O18 O 0.1247(3) 0.4331(3) -0.0970(3)
O19 O -0.1451(3) 0.4048(3) -0.0745(3)
O20 O -0.1785(4) 0.5849(4) -0.0419(4)
H79 H -0.1594 0.6137 -0.0894
C61 C 0.1561(5) 0.0819(5) -0.1165(5)
H80 H 0.1527 0.0813 -0.1909
H81 H 0.2288 0.1242 -0.0824
C62 C 0.1516(6) -0.0388(5) -0.1098(6)
H82 H 0.2170 -0.0739 -0.1427
H83 H 0.0820 -0.0829 -0.1490
C63 C 0.1532(5) -0.0430(5) 0.0033(6)
H84 H 0.2269 -0.0062 0.0398
H85 H 0.1469 -0.1231 0.0039
C64 C 0.0582(5) 0.0149(5) 0.0647(5)
C65 C 0.0607(4) 0.1355(4) 0.0509(4)
H86 H 0.1364 0.1739 0.0831
C66 C -0.0236(5) 0.2074(4) 0.1149(4)
H87 H -0.1012 0.1762 0.0849
H88 H -0.0168 0.2023 0.1876
C67 C -0.0052(4) 0.3299(4) 0.1164(4)
C68 C 0.0487(4) 0.3502(4) 0.0243(4)
C69 C 0.0758(4) 0.2671(4) -0.0550(4)
C70 C 0.0585(4) 0.1423(4) -0.0636(4)
C71 C 0.0838(5) 0.4633(4) 0.0078(4)
H89 H 0.1494 0.5007 0.0589
C72 C 0.0004(5) 0.5477(4) 0.0122(4)
C73 C 0.0501(6) 0.6624(5) 0.0039(5)
H90 H 0.1325 0.6740 -0.0015
H91 H 0.0045 0.7006 -0.0370
C74 C 0.0114(5) 0.6560(4) 0.1042(5)
H92 H -0.0618 0.6880 0.1202
C75 C 0.0914(7) 0.6735(5) 0.1993(5)
H93 H 0.0939 0.7518 0.2431
H94 H 0.1670 0.6584 0.1773
H95 H 0.0654 0.6219 0.2393
C76 C -0.1138(5) 0.5083(4) -0.0369(4)
C77 C 0.1198(4) 0.3192(4) -0.1353(4)
C78 C -0.0565(6) -0.0568(5) 0.0303(7)
H96 H -0.0582 -0.1238 0.0558
H97 H -0.0676 -0.0803 -0.0462
H98 H -0.1170 -0.0119 0.0595
C79 C 0.0868(7) 0.0243(6) 0.1806(6)
H99 H 0.0957 -0.0509 0.1883
H100 H 0.0256 0.0559 0.2219
H101 H 0.1572 0.0738 0.2054
C80 C -0.0540(5) 0.0969(5) -0.1312(4)
H102 H -0.0505 0.1164 -0.1975
H103 H -0.1163 0.1310 -0.0935
H104 H -0.0663 0.0145 -0.1455
loop_
_geom_bond_atom_site_label_1
_geom_bond_atom_site_label_2
_geom_bond_site_symmetry_1
_geom_bond_site_symmetry_2
O1 C7 1_555 1_555
O2 C17 1_555 1_555
O3 C11 1_555 1_555
O4 C16 1_555 1_555
O5 H1 1_555 1_555
C1 H2 1_555 1_555
H3 C1 1_555 1_555
C2 C1 1_555 1_555
H4 C2 1_555 1_555
H5 C2 1_555 1_555
C3 C2 1_555 1_555
H6 C3 1_555 1_555
H7 C3 1_555 1_555
C4 C3 1_555 1_555
C5 C4 1_555 1_555
H8 C5 1_555 1_555
C6 C5 1_555 1_555
H9 C6 1_555 1_555
H10 C6 1_555 1_555
C7 C6 1_555 1_555
C8 C7 1_555 1_555
C9 C8 1_555 1_555
C10 C1 1_555 1_555
C11 C8 1_555 1_555
H11 C11 1_555 1_555
C12 C11 1_555 1_555
C13 C12 1_555 1_555
H12 C13 1_555 1_555
H13 C13 1_555 1_555
C14 C12 1_555 1_555
H14 C14 1_555 1_555
C15 C14 1_555 1_555
H15 C15 1_555 1_555
H16 C15 1_555 1_555
H17 C15 1_555 1_555
C16 O5 1_555 1_555
C17 O3 1_555 1_555
C18 C4 1_555 1_555
H18 C18 1_555 1_555
H19 C18 1_555 1_555
H20 C18 1_555 1_555
C19 C4 1_555 1_555
H21 C19 1_555 1_555
H22 C19 1_555 1_555
H23 C19 1_555 1_555
C20 C10 1_555 1_555
H24 C20 1_555 1_555
H25 C20 1_555 1_555
H26 C20 1_555 1_555
O6 C27 1_555 1_555
O7 C37 1_555 1_555
O8 C31 1_555 1_555
O9 C36 1_555 1_555
O10 H27 1_555 1_555
C21 H28 1_555 1_555
H29 C21 1_555 1_555
C22 C21 1_555 1_555
H30 C22 1_555 1_555
H31 C22 1_555 1_555
C23 C22 1_555 1_555
H32 C23 1_555 1_555
H33 C23 1_555 1_555
C24 C23 1_555 1_555
C25 C24 1_555 1_555
H34 C25 1_555 1_555
C26 C25 1_555 1_555
H35 C26 1_555 1_555
H36 C26 1_555 1_555
C27 C26 1_555 1_555
C28 C27 1_555 1_555
C29 C28 1_555 1_555
C30 C21 1_555 1_555
C31 C28 1_555 1_555
H37 C31 1_555 1_555
C32 C31 1_555 1_555
C33 C32 1_555 1_555
H38 C33 1_555 1_555
H39 C33 1_555 1_555
C34 C32 1_555 1_555
H40 C34 1_555 1_555
C35 C34 1_555 1_555
H41 C35 1_555 1_555
H42 C35 1_555 1_555
H43 C35 1_555 1_555
C36 O10 1_555 1_555
C37 O8 1_555 1_555
C38 C24 1_555 1_555
H44 C38 1_555 1_555
H45 C38 1_555 1_555
H46 C38 1_555 1_555
C39 C24 1_555 1_555
H47 C39 1_555 1_555
H48 C39 1_555 1_555
H49 C39 1_555 1_555
C40 C30 1_555 1_555
H50 C40 1_555 1_555
H51 C40 1_555 1_555
H52 C40 1_555 1_555
O11 C47 1_555 1_555
O12 C57 1_555 1_555
O13 C51 1_555 1_555
O14 C56 1_555 1_555
O15 H53 1_555 1_555
C41 H54 1_555 1_555
H55 C41 1_555 1_555
C42 C41 1_555 1_555
H56 C42 1_555 1_555
H57 C42 1_555 1_555
C43 C42 1_555 1_555
H58 C43 1_555 1_555
H59 C43 1_555 1_555
C44 C43 1_555 1_555
C45 C44 1_555 1_555
H60 C45 1_555 1_555
C46 C45 1_555 1_555
H61 C46 1_555 1_555
H62 C46 1_555 1_555
C47 C46 1_555 1_555
C48 C47 1_555 1_555
C49 C48 1_555 1_555
C50 C41 1_555 1_555
C51 C48 1_555 1_555
H63 C51 1_555 1_555
C52 C51 1_555 1_555
C53 C52 1_555 1_555
H64 C53 1_555 1_555
H65 C53 1_555 1_555
C54 C52 1_555 1_555
H66 C54 1_555 1_555
C55 C54 1_555 1_555
H67 C55 1_555 1_555
H68 C55 1_555 1_555
H69 C55 1_555 1_555
C56 O15 1_555 1_555
C57 O13 1_555 1_555
C58 C44 1_555 1_555
H70 C58 1_555 1_555
H71 C58 1_555 1_555
H72 C58 1_555 1_555
C59 C44 1_555 1_555
H73 C59 1_555 1_555
H74 C59 1_555 1_555
H75 C59 1_555 1_555
C60 C50 1_555 1_555
H76 C60 1_555 1_555
H77 C60 1_555 1_555
H78 C60 1_555 1_555
O16 C67 1_555 1_555
O17 C77 1_555 1_555
O18 C71 1_555 1_555
O19 C76 1_555 1_555
O20 H79 1_555 1_555
C61 H80 1_555 1_555
H81 C61 1_555 1_555
C62 C61 1_555 1_555
H82 C62 1_555 1_555
H83 C62 1_555 1_555
C63 C62 1_555 1_555
H84 C63 1_555 1_555
H85 C63 1_555 1_555
C64 C63 1_555 1_555
C65 C64 1_555 1_555
H86 C65 1_555 1_555
C66 C65 1_555 1_555
H87 C66 1_555 1_555
H88 C66 1_555 1_555
C67 C66 1_555 1_555
C68 C67 1_555 1_555
C69 C68 1_555 1_555
C70 C61 1_555 1_555
C71 C68 1_555 1_555
H89 C71 1_555 1_555
C72 C71 1_555 1_555
C73 C72 1_555 1_555
H90 C73 1_555 1_555
H91 C73 1_555 1_555
C74 C72 1_555 1_555
H92 C74 1_555 1_555
C75 C74 1_555 1_555
H93 C75 1_555 1_555
H94 C75 1_555 1_555
H95 C75 1_555 1_555
C76 O20 1_555 1_555
C77 O18 1_555 1_555
C78 C64 1_555 1_555
H96 C78 1_555 1_555
H97 C78 1_555 1_555
H98 C78 1_555 1_555
C79 C64 1_555 1_555
H99 C79 1_555 1_555
H100 C79 1_555 1_555
H101 C79 1_555 1_555
C80 C70 1_555 1_555
H102 C80 1_555 1_555
H103 C80 1_555 1_555
H104 C80 1_555 1_555
C5 C10 1_555 1_555
C9 C10 1_555 1_555
C9 C17 1_555 1_555
C12 C16 1_555 1_555
C13 C14 1_555 1_555
C25 C30 1_555 1_555
C29 C30 1_555 1_555
C29 C37 1_555 1_555
C32 C36 1_555 1_555
C33 C34 1_555 1_555
C45 C50 1_555 1_555
C49 C50 1_555 1_555
C49 C57 1_555 1_555
C52 C56 1_555 1_555
C53 C54 1_555 1_555
C65 C70 1_555 1_555
C69 C70 1_555 1_555
C69 C77 1_555 1_555
C72 C76 1_555 1_555
C73 C74 1_555 1_555

#END
