
#######################################################################
#
#                 Cambridge Crystallographic Data Centre
#                                CCDC 
#
#######################################################################
#
# If this CIF has been generated from an entry in the Cambridge 
# Structural Database, then it will include bibliographic, chemical, 
# crystal, experimental, refinement or atomic coordinate data resulting 
# from the CCDC's data processing and validation procedures.
#
#######################################################################

data_LUKFAZ
_chemical_formula_moiety         'C23 H21 N1 O3'
_chemical_name_systematic        
1-(1-(Benzyloxy)-3-(4-methylphenyl)prop-2-en-1-yl)-4-nitrobenzene
_symmetry_cell_setting           triclinic
_symmetry_space_group_name_H-M   'P -1'
_symmetry_Int_Tables_number      2
_space_group_name_Hall           '-P 1'
loop_
_symmetry_equiv_pos_site_id
_symmetry_equiv_pos_as_xyz
1 x,y,z
2 -x,-y,-z
_cell_length_a                   6.059(12)
_cell_length_b                   8.79(2)
_cell_length_c                   19.21(4)
_cell_angle_alpha                84.05(5)
_cell_angle_beta                 89.73(7)
_cell_angle_gamma                78.43(4)
_cell_volume                     996.774
_exptl_crystal_colour            colorless
_exptl_crystal_description       block
_cell_formula_units_Z            2
loop_
_atom_site_label
_atom_site_type_symbol
_atom_site_fract_x
_atom_site_fract_y
_atom_site_fract_z
N1 N -0.2661(11) 0.8080(7) 0.5250(3)
O1 O -0.0611(6) 0.3381(5) 0.28675(17)
O2 O -0.4506(8) 0.7944(6) 0.5471(3)
O3 O -0.1459(8) 0.8893(6) 0.5487(2)
C1 C 0.0974(9) 0.4354(7) 0.3019(3)
H1 H 0.2353 0.3663 0.3215
C2 C 0.1590(10) 0.5262(6) 0.2357(3)
H2 H 0.0489 0.6063 0.2142
C3 C 0.3604(9) 0.4989(6) 0.2064(3)
H3 H 0.4681 0.4221 0.2310
C4 C 0.4381(12) 0.5707(7) 0.1417(3)
C5 C 0.3030(10) 0.6862(9) 0.0997(4)
H4 H 0.1553 0.7196 0.1135
C6 C 0.3750(13) 0.7610(7) 0.0345(3)
H5 H 0.2757 0.8387 0.0074
C7 C 0.5970(14) 0.7125(9) 0.0141(4)
C8 C 0.7268(11) 0.5900(9) 0.0584(4)
H6 H 0.8728 0.5508 0.0447
C9 C 0.6550(12) 0.5227(6) 0.1206(3)
H7 H 0.7538 0.4451 0.1481
C10 C 0.6801(10) 0.7805(6) -0.0535(2)
H8 H 0.8341 0.7309 -0.0598
H9 H 0.6702 0.8906 -0.0523
H10 H 0.5893 0.7635 -0.0916
C11 C -0.0075(10) 0.5353(7) 0.3590(3)
C12 C 0.1072(9) 0.6494(7) 0.3816(3)
H11 H 0.2375 0.6662 0.3590
C13 C 0.0281(10) 0.7359(7) 0.4366(3)
H12 H 0.1093 0.8054 0.4523
C14 C -0.1717(11) 0.7173(7) 0.4676(3)
C15 C -0.2921(10) 0.6113(8) 0.4451(3)
H13 H -0.4287 0.6019 0.4655
C16 C -0.2083(10) 0.5187(7) 0.3916(3)
H14 H -0.2873 0.4459 0.3780
C17 C 0.0401(9) 0.1956(7) 0.2587(3)
H15 H 0.1691 0.1432 0.2877
H16 H 0.0937 0.2203 0.2120
C18 C -0.1251(10) 0.0848(7) 0.2551(4)
C19 C -0.1503(11) 0.0218(8) 0.1926(3)
H17 H -0.0717 0.0470 0.1527
C20 C -0.3023(13) -0.0832(8) 0.1925(4)
H18 H -0.3127 -0.1332 0.1527
C21 C -0.4321(11) -0.1133(7) 0.2479(4)
H19 H -0.5347 -0.1785 0.2459
C22 C -0.4055(11) -0.0438(8) 0.3064(3)
H20 H -0.4939 -0.0625 0.3448
C23 C -0.2537(12) 0.0535(7) 0.3121(3)
H21 H -0.2391 0.0967 0.3536
loop_
_geom_bond_atom_site_label_1
_geom_bond_atom_site_label_2
_geom_bond_site_symmetry_1
_geom_bond_site_symmetry_2
N1 O2 1_555 1_555
O1 C1 1_555 1_555
O3 N1 1_555 1_555
C1 H1 1_555 1_555
C2 C1 1_555 1_555
H2 C2 1_555 1_555
C3 C2 1_555 1_555
H3 C3 1_555 1_555
C4 C3 1_555 1_555
C5 C4 1_555 1_555
H4 C5 1_555 1_555
C6 C5 1_555 1_555
H5 C6 1_555 1_555
C7 C6 1_555 1_555
C8 C7 1_555 1_555
H6 C8 1_555 1_555
C9 C4 1_555 1_555
H7 C9 1_555 1_555
C10 C7 1_555 1_555
H8 C10 1_555 1_555
H9 C10 1_555 1_555
H10 C10 1_555 1_555
C11 C1 1_555 1_555
C12 C11 1_555 1_555
H11 C12 1_555 1_555
C13 C12 1_555 1_555
H12 C13 1_555 1_555
C14 N1 1_555 1_555
C15 C14 1_555 1_555
H13 C15 1_555 1_555
C16 C11 1_555 1_555
H14 C16 1_555 1_555
C17 O1 1_555 1_555
H15 C17 1_555 1_555
H16 C17 1_555 1_555
C18 C17 1_555 1_555
C19 C18 1_555 1_555
H17 C19 1_555 1_555
C20 C19 1_555 1_555
H18 C20 1_555 1_555
C21 C20 1_555 1_555
H19 C21 1_555 1_555
C22 C21 1_555 1_555
H20 C22 1_555 1_555
C23 C18 1_555 1_555
H21 C23 1_555 1_555
C8 C9 1_555 1_555
C13 C14 1_555 1_555
C15 C16 1_555 1_555
C22 C23 1_555 1_555

#END
