
#######################################################################
#
#                 Cambridge Crystallographic Data Centre
#                                CCDC 
#
#######################################################################
#
# If this CIF has been generated from an entry in the Cambridge 
# Structural Database, then it will include bibliographic, chemical, 
# crystal, experimental, refinement or atomic coordinate data resulting 
# from the CCDC's data processing and validation procedures.
#
#######################################################################

data_LUKGUU
_chemical_formula_moiety         'C16 H18 N4 O2 S1'
_chemical_name_systematic        
5-Amino-4-cyano-N-(dimethylcarbamoyl)-3-(4-methylphenyl)-2,3-dihydrothiophene-2-carboxamide
_symmetry_cell_setting           monoclinic
_symmetry_space_group_name_H-M   'P 21/n'
_symmetry_Int_Tables_number      14
_space_group_name_Hall           '-P 2yn'
loop_
_symmetry_equiv_pos_site_id
_symmetry_equiv_pos_as_xyz
1 x,y,z
2 1/2-x,1/2+y,1/2-z
3 -x,-y,-z
4 1/2+x,1/2-y,1/2+z
_cell_length_a                   6.7152(11)
_cell_length_b                   14.552(2)
_cell_length_c                   17.336(3)
_cell_angle_alpha                90
_cell_angle_beta                 96.071(2)
_cell_angle_gamma                90
_cell_volume                     1684.57
_exptl_crystal_colour            colorless
_exptl_crystal_description       block
_cell_formula_units_Z            4
loop_
_atom_site_label
_atom_site_type_symbol
_atom_site_fract_x
_atom_site_fract_y
_atom_site_fract_z
S1 S 1.25387(6) 1.05255(3) 0.27455(2)
N1 N 1.1972(2) 0.93699(10) 0.43372(8)
H1 H 1.1819 0.9391 0.4823
C1 C 0.8549(2) 1.01338(12) 0.25522(9)
H2 H 0.7473 1.0033 0.2883
O1 O 1.4150(2) 0.89066(9) 0.34824(7)
O2 O 0.9142(2) 1.01776(12) 0.41315(7)
C2 C 1.0518(2) 0.97576(11) 0.29744(9)
H3 H 1.0764 0.9130 0.2802
C3 C 1.0837(2) 1.14312(11) 0.25414(9)
C4 C 0.8890(2) 1.11616(12) 0.24878(9)
C5 C 1.0486(3) 0.97839(12) 0.38479(9)
C6 C 0.7302(2) 1.17979(13) 0.23613(10)
N2 N 1.1590(2) 1.22813(10) 0.24685(11)
C7 C 1.3696(3) 0.89202(11) 0.41477(10)
C8 C 0.7962(3) 0.96761(13) 0.17703(9)
N3 N 0.6009(2) 1.23149(14) 0.22644(12)
N4 N 1.4798(3) 0.85157(12) 0.47484(10)
C9 C 0.6220(3) 0.92153(16) 0.16327(13)
H4 H 0.5398 0.9158 0.2030
C10 C 0.9408(8) 0.9547(4) 0.1217(2)
H5 H 1.0731 0.9729 0.1341
C11 C 0.8817(9) 0.9151(4) 0.0501(2)
H6 H 0.9739 0.9057 0.0144
C12 C 0.6741(4) 0.88847(17) 0.03162(12)
C13 C 0.6081(5) 0.8487(2) -0.04837(14)
H7 H 0.5826 0.7841 -0.0438
H8 H 0.7120 0.8579 -0.0816
H9 H 0.4881 0.8790 -0.0701
C14 C 1.4219(4) 0.8447(2) 0.55336(12)
H10 H 1.4296 0.9043 0.5773
H11 H 1.5108 0.8032 0.5831
H12 H 1.2872 0.8220 0.5514
C15 C 0.5617(4) 0.88243(19) 0.09167(15)
H13 H 0.4404 0.8511 0.0848
C16 C 1.6668(4) 0.80717(19) 0.45961(16)
H14 H 1.6501 0.7417 0.4603
H15 H 1.7715 0.8247 0.4989
H16 H 1.7016 0.8259 0.4097
H17 H 1.2863 1.2339 0.2429
H18 H 1.0766 1.2725 0.2262
C17? C 0.8488(15) 1.0068(9) 0.1095(4)
C18? C 0.7805(17) 0.9672(9) 0.0391(4)
H19? H 0.9289 1.0591 0.1114
H20? H 0.8098 0.9967 -0.0059
loop_
_geom_bond_atom_site_label_1
_geom_bond_atom_site_label_2
_geom_bond_site_symmetry_1
_geom_bond_site_symmetry_2
S1 C2 1_555 1_555
N1 H1 1_555 1_555
C1 H2 1_555 1_555
O1 C7 1_555 1_555
O2 C5 1_555 1_555
C2 C1 1_555 1_555
H3 C2 1_555 1_555
C3 S1 1_555 1_555
C4 C1 1_555 1_555
C5 N1 1_555 1_555
C6 C4 1_555 1_555
N2 C3 1_555 1_555
C7 N1 1_555 1_555
C8 C1 1_555 1_555
N3 C6 1_555 1_555
N4 C7 1_555 1_555
C9 C8 1_555 1_555
H4 C9 1_555 1_555
C10 C8 1_555 1_555
H5 C10 1_555 1_555
C11 C10 1_555 1_555
H6 C11 1_555 1_555
C12 C11 1_555 1_555
C13 C12 1_555 1_555
H7 C13 1_555 1_555
H8 C13 1_555 1_555
H9 C13 1_555 1_555
C14 N4 1_555 1_555
H10 C14 1_555 1_555
H11 C14 1_555 1_555
H12 C14 1_555 1_555
C15 C9 1_555 1_555
H13 C15 1_555 1_555
C16 N4 1_555 1_555
H14 C16 1_555 1_555
H15 C16 1_555 1_555
H16 C16 1_555 1_555
H17 N2 1_555 1_555
H18 N2 1_555 1_555
C2 C5 1_555 1_555
C3 C4 1_555 1_555
C12 C15 1_555 1_555

#END
