
#######################################################################
#
#                 Cambridge Crystallographic Data Centre
#                                CCDC 
#
#######################################################################
#
# If this CIF has been generated from an entry in the Cambridge 
# Structural Database, then it will include bibliographic, chemical, 
# crystal, experimental, refinement or atomic coordinate data resulting 
# from the CCDC's data processing and validation procedures.
#
#######################################################################

data_LUKHUV
_chemical_formula_moiety         'C18 H22 N4 O2 S1'
_chemical_name_systematic        
5-Amino-4-cyano-N-(diethylcarbamoyl)-3-(4-methylphenyl)-2,3-dihydrothiophene-2-carboxamide
_symmetry_cell_setting           monoclinic
_symmetry_space_group_name_H-M   'P 21/n'
_symmetry_Int_Tables_number      14
_space_group_name_Hall           '-P 2yn'
loop_
_symmetry_equiv_pos_site_id
_symmetry_equiv_pos_as_xyz
1 x,y,z
2 1/2-x,1/2+y,1/2-z
3 -x,-y,-z
4 1/2+x,1/2-y,1/2+z
_cell_length_a                   6.0718(7)
_cell_length_b                   27.435(3)
_cell_length_c                   11.4981(14)
_cell_angle_alpha                90
_cell_angle_beta                 94.341(2)
_cell_angle_gamma                90
_cell_volume                     1909.86
_exptl_crystal_colour            colorless
_exptl_crystal_description       block
_cell_formula_units_Z            4
loop_
_atom_site_label
_atom_site_type_symbol
_atom_site_fract_x
_atom_site_fract_y
_atom_site_fract_z
C1 C 0.8428(3) 0.07784(8) 0.7468(2)
H1 H 0.8397 0.0738 0.6637
H2 H 0.9471 0.0554 0.7841
H3 H 0.8858 0.1106 0.7670
C2 C 0.6149(3) 0.06781(6) 0.78713(14)
H4 H 0.5674 0.0358 0.7599
H5 H 0.6247 0.0672 0.8717
C3 C 0.5550(5) 0.17984(9) 0.8534(2)
H6 H 0.6910 0.1652 0.8837
H7 H 0.5056 0.2026 0.9093
H8 H 0.5781 0.1967 0.7821
C4 C 0.3832(3) 0.14094(7) 0.83005(14)
H9 H 0.3564 0.1251 0.9030
H10 H 0.2461 0.1561 0.8001
C5 C 0.3601(3) 0.10772(6) 0.63501(13)
C6 C 0.4009(2) 0.06930(5) 0.44012(13)
C7 C 0.2753(2) 0.10942(5) 0.37221(12)
H11 H 0.3089 0.1414 0.4071
C8 C 0.3211(2) 0.10901(5) 0.24161(12)
H12 H 0.4727 0.0977 0.2350
C9 C 0.1642(2) 0.07127(5) 0.18690(12)
C10 C 0.2012(2) 0.04876(6) 0.07959(13)
C11 C -0.0185(2) 0.06237(5) 0.24517(12)
C12 C 0.2968(2) 0.15950(5) 0.18647(12)
C13 C 0.1044(3) 0.17447(6) 0.12382(15)
H13 H -0.0155 0.1534 0.1148
C14 C 0.0893(3) 0.22064(6) 0.07438(16)
H14 H -0.0414 0.2300 0.0330
C15 C 0.2646(3) 0.25303(6) 0.08531(14)
C16 C 0.4568(3) 0.23816(6) 0.14881(14)
H15 H 0.5762 0.2594 0.1584
C17 C 0.4729(3) 0.19202(6) 0.19811(14)
H16 H 0.6035 0.1827 0.2396
C18 C 0.2506(3) 0.30243(6) 0.02731(18)
H17 H 0.3175 0.3009 -0.0456
H18 H 0.3270 0.3260 0.0771
H19 H 0.0985 0.3118 0.0136
N1 N 0.4467(2) 0.10370(5) 0.74611(11)
N2 N 0.4266(2) 0.07072(5) 0.55930(11)
H20 H 0.4857 0.0463 0.5881
N3 N -0.1950(2) 0.03462(5) 0.21349(12)
H21 H -0.2917 0.0298 0.2621
H22 H -0.2015 0.0188 0.1467
N4 N 0.2350(3) 0.03048(6) -0.00721(12)
O1 O 0.23387(19) 0.14003(4) 0.59933(10)
O2 O 0.47928(18) 0.03468(4) 0.38924(9)
S1 S -0.01847(6) 0.094456(14) 0.37852(3)
loop_
_geom_bond_atom_site_label_1
_geom_bond_atom_site_label_2
_geom_bond_site_symmetry_1
_geom_bond_site_symmetry_2
C1 H1 1_555 1_555
H2 C1 1_555 1_555
H3 C1 1_555 1_555
C2 C1 1_555 1_555
H4 C2 1_555 1_555
H5 C2 1_555 1_555
C3 H6 1_555 1_555
H7 C3 1_555 1_555
H8 C3 1_555 1_555
C4 C3 1_555 1_555
H9 C4 1_555 1_555
H10 C4 1_555 1_555
C5 N1 1_555 1_555
C6 C7 1_555 1_555
C7 H11 1_555 1_555
C8 C7 1_555 1_555
H12 C8 1_555 1_555
C9 C8 1_555 1_555
C10 C9 1_555 1_555
C11 C9 1_555 1_555
C12 C8 1_555 1_555
C13 C12 1_555 1_555
H13 C13 1_555 1_555
C14 C13 1_555 1_555
H14 C14 1_555 1_555
C15 C14 1_555 1_555
C16 C15 1_555 1_555
H15 C16 1_555 1_555
C17 C12 1_555 1_555
H16 C17 1_555 1_555
C18 C15 1_555 1_555
H17 C18 1_555 1_555
H18 C18 1_555 1_555
H19 C18 1_555 1_555
N1 C2 1_555 1_555
N2 C5 1_555 1_555
H20 N2 1_555 1_555
N3 C11 1_555 1_555
H21 N3 1_555 1_555
H22 N3 1_555 1_555
N4 C10 1_555 1_555
O1 C5 1_555 1_555
O2 C6 1_555 1_555
S1 C7 1_555 1_555
C4 N1 1_555 1_555
C6 N2 1_555 1_555
C11 S1 1_555 1_555
C16 C17 1_555 1_555

#END
