
#######################################################################
#
#                 Cambridge Crystallographic Data Centre
#                                CCDC 
#
#######################################################################
#
# If this CIF has been generated from an entry in the Cambridge 
# Structural Database, then it will include bibliographic, chemical, 
# crystal, experimental, refinement or atomic coordinate data resulting 
# from the CCDC's data processing and validation procedures.
#
#######################################################################

data_LUKHEF
_chemical_formula_moiety         'C18 H20 N4 O2 S1'
_chemical_name_systematic        
N-((5-Amino-4-cyano-3-(4-methylphenyl)-2,3-dihydrothiophen-2-yl)carbonyl)pyrrolidine-1-carboxamide
_symmetry_cell_setting           monoclinic
_symmetry_space_group_name_H-M   'P 21/n'
_symmetry_Int_Tables_number      14
_space_group_name_Hall           '-P 2yn'
loop_
_symmetry_equiv_pos_site_id
_symmetry_equiv_pos_as_xyz
1 x,y,z
2 1/2-x,1/2+y,1/2-z
3 -x,-y,-z
4 1/2+x,1/2-y,1/2+z
_cell_length_a                   13.6175(15)
_cell_length_b                   15.2656(17)
_cell_length_c                   18.229(2)
_cell_angle_alpha                90
_cell_angle_beta                 109.099(2)
_cell_angle_gamma                90
_cell_volume                     3580.84
_exptl_crystal_colour            colorless
_exptl_crystal_description       block
_cell_formula_units_Z            8
loop_
_atom_site_label
_atom_site_type_symbol
_atom_site_fract_x
_atom_site_fract_y
_atom_site_fract_z
S1 S 0.98100(6) -0.05172(5) 0.24205(5)
O1 O 1.01880(16) 0.10683(14) 0.17689(12)
O2 O 0.73575(17) -0.01642(16) 0.09302(12)
N1 N 0.87019(19) 0.05967(16) 0.08257(13)
C1 C 0.8636(2) 0.01592(19) 0.21481(15)
H1 H 0.8808 0.0754 0.2352
C2 C 0.8184(2) 0.01836(19) 0.12684(16)
C3 C 0.7873(2) -0.02748(19) 0.25133(16)
H2 H 0.7161 -0.0191 0.2161
C5 C 0.9675(2) 0.10109(18) 0.10793(17)
N3 N 0.9584(2) -0.22248(17) 0.26275(17)
N5 N 0.9987(2) 0.13374(18) 0.05117(14)
C11 C 0.7954(2) 0.0110(2) 0.32990(17)
C12 C 0.8131(2) -0.12446(19) 0.25457(17)
C13 C 0.7441(2) -0.1888(2) 0.26502(18)
C14 C 0.9105(2) -0.14383(19) 0.25431(16)
N7 N 0.6867(2) -0.2391(2) 0.27386(18)
C17 C 0.9437(3) 0.1331(3) -0.03272(18)
H5 H 0.8746 0.1578 -0.0448
H6 H 0.9381 0.0741 -0.0535
C18 C 1.1015(3) 0.1754(2) 0.0705(2)
H7 H 1.1546 0.1407 0.1076
H8 H 1.1011 0.2339 0.0911
C19 C 0.8601(3) -0.0222(2) 0.39918(18)
H9 H 0.9017 -0.0704 0.3987
C20 C 0.7340(3) 0.0815(2) 0.3334(2)
H10 H 0.6889 0.1051 0.2878
C21 C 0.8644(3) 0.0149(3) 0.4696(2)
H11 H 0.9091 -0.0088 0.5154
C23 C 0.7387(4) 0.1176(3) 0.4039(2)
H13 H 0.6962 0.1649 0.4048
C28 C 1.1182(3) 0.1779(3) -0.0078(2)
H19 H 1.1626 0.2266 -0.0106
H20 H 1.1492 0.1238 -0.0175
C29 C 0.8051(3) 0.0850(3) 0.4732(2)
C31 C 1.0113(3) 0.1893(3) -0.0642(2)
H24 H 1.0080 0.1700 -0.1156
H25 H 0.9899 0.2502 -0.0669
C35 C 0.8121(4) 0.1253(3) 0.5512(2)
H31 H 0.8529 0.0881 0.5923
H32 H 0.7435 0.1313 0.5545
H33 H 0.8443 0.1819 0.5558
H35 H 1.0232 -0.2215 0.2605
H36 H 0.9267 -0.2700 0.2725
H40 H 0.8322 0.0516 0.0272
S2 S 0.00671(6) 0.44161(6) 0.27274(5)
O3 O 0.24307(18) 0.47619(17) 0.41941(13)
N2 N 0.1139(2) 0.55788(18) 0.43220(15)
O4 O -0.03707(17) 0.60512(15) 0.34000(13)
C4 C 0.1169(2) 0.5177(2) 0.29908(17)
H3 H 0.0934 0.5770 0.2811
C6 C 0.1946(2) 0.4844(2) 0.26019(17)
H4 H 0.2654 0.4961 0.2948
C7 C 0.1627(2) 0.5156(2) 0.38739(18)
C8 C 0.0843(2) 0.3577(2) 0.25506(17)
C9 C 0.0201(2) 0.6056(2) 0.40744(19)
N4 N 0.0453(2) 0.27619(18) 0.24535(18)
C10 C 0.1782(2) 0.3863(2) 0.25316(17)
N6 N -0.0006(2) 0.65044(19) 0.46369(16)
C15 C 0.2521(3) 0.3294(2) 0.23996(19)
C16 C 0.1796(3) 0.5292(2) 0.18283(18)
N8 N 0.3138(2) 0.2842(2) 0.2292(2)
C22 C 0.2477(3) 0.5843(3) 0.1727(2)
H12 H 0.3064 0.5978 0.2146
C24 C -0.0977(3) 0.6999(3) 0.4460(2)
H14 H -0.1576 0.6627 0.4227
H15 H -0.0991 0.7486 0.4114
C25 C 0.1568(3) 0.6089(3) 0.0390(2)
C26 C 0.0679(3) 0.6648(3) 0.5436(2)
H16 H 0.1377 0.6801 0.5452
H17 H 0.0709 0.6134 0.5756
C27 C 0.2350(4) 0.6228(4) 0.1017(3)
H18 H 0.2861 0.6615 0.0984
C30 C 0.1436(4) 0.6493(3) -0.0406(2)
H21 H 0.1719 0.7075 -0.0339
H22 H 0.0710 0.6517 -0.0705
H23 H 0.1795 0.6141 -0.0674
C32 C 0.0754(5) 0.5428(5) 0.1281(4)
H26 H 0.0173 0.5248 0.1402
C33 C 0.0161(4) 0.7403(4) 0.5696(2)
H27 H 0.0265 0.7366 0.6247
H28 H 0.0433 0.7958 0.5588
C34 C -0.0947(4) 0.7313(3) 0.5240(3)
H29 H -0.1299 0.7872 0.5199
H30 H -0.1281 0.6895 0.5481
C36 C 0.0641(5) 0.5832(5) 0.0573(4)
H34 H -0.0017 0.5937 0.0220
H37 H -0.0182 0.2662 0.2450
H38 H 0.0808 0.2307 0.2371
H39 H 0.1549 0.5546 0.4859
C37? C 0.1245(6) 0.5214(6) 0.0402(4)
C38? C 0.1350(7) 0.4794(7) 0.1107(5)
H41? H 0.0959 0.4913 -0.0062
H42? H 0.1143 0.4215 0.1118
loop_
_geom_bond_atom_site_label_1
_geom_bond_atom_site_label_2
_geom_bond_site_symmetry_1
_geom_bond_site_symmetry_2
S1 C1 1_555 1_555
S2 C4 1_555 1_555
O1 C5 1_555 1_555
O2 C2 1_555 1_555
N1 C2 1_555 1_555
O3 C7 1_555 1_555
C1 H1 1_555 1_555
N2 C7 1_555 1_555
C2 C1 1_555 1_555
O4 C9 1_555 1_555
C3 C1 1_555 1_555
H2 C3 1_555 1_555
C4 H3 1_555 1_555
C5 N1 1_555 1_555
C6 C4 1_555 1_555
H4 C6 1_555 1_555
C7 C4 1_555 1_555
C8 S2 1_555 1_555
N3 C14 1_555 1_555
C9 N2 1_555 1_555
N4 C8 1_555 1_555
N5 C5 1_555 1_555
C10 C6 1_555 1_555
C11 C3 1_555 1_555
C12 C3 1_555 1_555
C13 C12 1_555 1_555
C14 S1 1_555 1_555
N6 C9 1_555 1_555
N7 C13 1_555 1_555
C15 C10 1_555 1_555
C16 C6 1_555 1_555
C17 N5 1_555 1_555
H5 C17 1_555 1_555
H6 C17 1_555 1_555
C18 N5 1_555 1_555
H7 C18 1_555 1_555
H8 C18 1_555 1_555
C19 C11 1_555 1_555
H9 C19 1_555 1_555
N8 C15 1_555 1_555
C20 C11 1_555 1_555
H10 C20 1_555 1_555
C21 C19 1_555 1_555
H11 C21 1_555 1_555
C22 C16 1_555 1_555
H12 C22 1_555 1_555
C23 C20 1_555 1_555
H13 C23 1_555 1_555
C24 N6 1_555 1_555
H14 C24 1_555 1_555
H15 C24 1_555 1_555
C25 C27 1_555 1_555
C26 N6 1_555 1_555
H16 C26 1_555 1_555
H17 C26 1_555 1_555
C27 C22 1_555 1_555
H18 C27 1_555 1_555
C28 C18 1_555 1_555
H19 C28 1_555 1_555
H20 C28 1_555 1_555
C29 C21 1_555 1_555
C30 C25 1_555 1_555
H21 C30 1_555 1_555
H22 C30 1_555 1_555
H23 C30 1_555 1_555
C31 C17 1_555 1_555
H24 C31 1_555 1_555
H25 C31 1_555 1_555
C32 C16 1_555 1_555
H26 C32 1_555 1_555
C33 C26 1_555 1_555
H27 C33 1_555 1_555
H28 C33 1_555 1_555
C34 C24 1_555 1_555
H29 C34 1_555 1_555
H30 C34 1_555 1_555
C35 C29 1_555 1_555
H31 C35 1_555 1_555
H32 C35 1_555 1_555
H33 C35 1_555 1_555
C36 C25 1_555 1_555
H34 C36 1_555 1_555
H35 N3 1_555 1_555
H36 N3 1_555 1_555
H37 N4 1_555 1_555
H38 N4 1_555 1_555
H39 N2 1_555 1_555
H40 N1 1_555 1_555
C8 C10 1_555 1_555
C12 C14 1_555 1_555
C23 C29 1_555 1_555
C28 C31 1_555 1_555
C32 C36 1_555 1_555
C33 C34 1_555 1_555

#END
