
#######################################################################
#
#                 Cambridge Crystallographic Data Centre
#                                CCDC 
#
#######################################################################
#
# If this CIF has been generated from an entry in the Cambridge 
# Structural Database, then it will include bibliographic, chemical, 
# crystal, experimental, refinement or atomic coordinate data resulting 
# from the CCDC's data processing and validation procedures.
#
#######################################################################

data_LUKJOS
_chemical_compound_source        
'culture extract of a marine mangrove-derived endophytic fungus Penicillium brocae MA-192'
_chemical_name_common            
'(10R,14R)-10-Hydroxydihydroresorcylide methanol solvate'
_chemical_formula_moiety         'C16 H20 O6,C1 H4 O1'
_chemical_name_systematic        
'(3R,7R)-7,12,14-Trihydroxy-3-methyl-3,4,5,6,7,8-hexahydro-1H-2-benzoxacyclododecine-1,9(10H)-dione methanol solvate'
_symmetry_cell_setting           orthorhombic
_symmetry_space_group_name_H-M   'P 21 21 21'
_symmetry_Int_Tables_number      19
_space_group_name_Hall           'P 2ac 2ab'
loop_
_symmetry_equiv_pos_site_id
_symmetry_equiv_pos_as_xyz
1 x,y,z
2 1/2-x,-y,1/2+z
3 -x,1/2+y,1/2-z
4 1/2+x,1/2-y,-z
_cell_length_a                   8.0269(8)
_cell_length_b                   12.6458(10)
_cell_length_c                   16.8180(18)
_cell_angle_alpha                90
_cell_angle_beta                 90
_cell_angle_gamma                90
_cell_volume                     1707.14
_cell_formula_units_Z            4
loop_
_atom_site_label
_atom_site_type_symbol
_atom_site_fract_x
_atom_site_fract_y
_atom_site_fract_z
O1 O 0.1987(7) 0.6643(4) 0.6444(3)
O2 O 0.0416(8) 0.8024(5) 0.6105(4)
O3 O 0.1786(7) 0.9832(4) 0.5972(3)
H1 H 0.1022 0.9410 0.6036
O4 O 0.7685(7) 0.9935(4) 0.5677(3)
H2 H 0.7488 1.0571 0.5667
O5 O 0.5334(7) 0.6244(4) 0.7203(3)
O6 O 0.6115(7) 0.3020(4) 0.7016(3)
H3 H 0.5653 0.2529 0.7246
C1 C 0.1842(11) 0.7615(6) 0.6157(4)
C2 C 0.3351(10) 0.8181(5) 0.5970(4)
C3 C 0.3279(10) 0.9291(6) 0.5927(4)
C4 C 0.4697(10) 0.9905(6) 0.5826(4)
H4 H 0.4631 1.0639 0.5810
C5 C 0.6226(10) 0.9388(5) 0.5747(5)
C6 C 0.6299(10) 0.8304(6) 0.5780(4)
H5 H 0.7333 0.7977 0.5738
C7 C 0.4927(9) 0.7688(5) 0.5871(4)
C8 C 0.5187(11) 0.6504(5) 0.5799(4)
H6 H 0.4254 0.6217 0.5502
H7 H 0.6179 0.6390 0.5481
C9 C 0.5366(10) 0.5868(5) 0.6549(5)
C10 C 0.5804(12) 0.4713(6) 0.6424(5)
H8 H 0.7005 0.4642 0.6459
H9 H 0.5481 0.4518 0.5889
C11 C 0.5019(10) 0.3924(6) 0.6999(5)
H10 H 0.5230 0.4256 0.7516
C12 C 0.317(3) 0.3653(18) 0.7022(18)
H11 H 0.3001 0.3093 0.7407
H12 H 0.2846 0.3384 0.6506
C13 C 0.204(3) 0.4585(18) 0.7237(16)
H13 H 0.1327 0.4389 0.7680
H14 H 0.2713 0.5183 0.7401
C14 C 0.096(3) 0.4902(16) 0.6526(13)
H15 H -0.0034 0.4465 0.6518
H16 H 0.1573 0.4768 0.6039
C15 C 0.045(9) 0.607(7) 0.655(3)
H17 H -0.0315 0.6224 0.6110
C16 C -0.037(6) 0.638(4) 0.734(3)
H18 H 0.0264 0.6087 0.7769
H19 H -0.1483 0.6108 0.7353
H20 H -0.0391 0.7135 0.7382
O7 O 0.7322(9) 0.2029(4) 0.5704(4)
H32 H 0.6964 0.2320 0.6104
C22 C 0.877(2) 0.2551(11) 0.5445(9)
H33 H 0.8529 0.2941 0.4969
H34 H 0.9624 0.2039 0.5338
H35 H 0.9144 0.3028 0.5852
H21? H 0.4796 0.4221 0.7527
C17? C 0.345(3) 0.3509(19) 0.6577(16)
H22? H 0.3788 0.3154 0.6092
H23? H 0.2928 0.2983 0.6916
C18? C 0.213(3) 0.4339(15) 0.6362(11)
H24? H 0.2640 0.4843 0.6001
H25? H 0.1246 0.3987 0.6073
C19? C 0.135(4) 0.496(2) 0.7047(17)
H26? H 0.2175 0.5048 0.7462
H27? H 0.0443 0.4540 0.7268
C20? C 0.067(11) 0.604(8) 0.681(3)
H28? H -0.0236 0.5950 0.6429
C21? C 0.000(6) 0.662(4) 0.755(3)
H29? H 0.0910 0.6857 0.7870
H30? H -0.0693 0.6149 0.7849
H31? H -0.0651 0.7221 0.7381
loop_
_geom_bond_atom_site_label_1
_geom_bond_atom_site_label_2
_geom_bond_site_symmetry_1
_geom_bond_site_symmetry_2
O1 C1 1_555 1_555
O2 C1 1_555 1_555
O3 H1 1_555 1_555
O4 H2 1_555 1_555
O5 C9 1_555 1_555
O6 H3 1_555 1_555
C1 C2 1_555 1_555
C2 C3 1_555 1_555
C3 O3 1_555 1_555
C4 C3 1_555 1_555
H4 C4 1_555 1_555
C5 O4 1_555 1_555
C6 C5 1_555 1_555
H5 C6 1_555 1_555
C7 C2 1_555 1_555
C8 C7 1_555 1_555
H6 C8 1_555 1_555
H7 C8 1_555 1_555
C9 C8 1_555 1_555
C10 C9 1_555 1_555
H8 C10 1_555 1_555
H9 C10 1_555 1_555
C11 O6 1_555 1_555
H10 C11 1_555 1_555
C12 C11 1_555 1_555
H11 C12 1_555 1_555
H12 C12 1_555 1_555
C13 C12 1_555 1_555
H13 C13 1_555 1_555
H14 C13 1_555 1_555
C14 C13 1_555 1_555
H15 C14 1_555 1_555
H16 C14 1_555 1_555
C15 O1 1_555 1_555
H17 C15 1_555 1_555
C16 C15 1_555 1_555
H18 C16 1_555 1_555
H19 C16 1_555 1_555
H20 C16 1_555 1_555
O7 H32 1_555 1_555
C22 O7 1_555 1_555
H33 C22 1_555 1_555
H34 C22 1_555 1_555
H35 C22 1_555 1_555
C4 C5 1_555 1_555
C6 C7 1_555 1_555
C10 C11 1_555 1_555
C14 C15 1_555 1_555

#END
