
#######################################################################
#
#                 Cambridge Crystallographic Data Centre
#                                CCDC 
#
#######################################################################
#
# If this CIF has been generated from an entry in the Cambridge 
# Structural Database, then it will include bibliographic, chemical, 
# crystal, experimental, refinement or atomic coordinate data resulting 
# from the CCDC's data processing and validation procedures.
#
#######################################################################

data_LUKNIQ
_chemical_formula_moiety         'C9 H16 B10'
_chemical_name_systematic        
1,5-(2-Methylenephenyl)-1,2-dicarba-closo-dodecaborane(10)
_symmetry_cell_setting           orthorhombic
_symmetry_space_group_name_H-M   'P 21 21 21'
_symmetry_Int_Tables_number      19
_space_group_name_Hall           'P 2ac 2ab'
loop_
_symmetry_equiv_pos_site_id
_symmetry_equiv_pos_as_xyz
1 x,y,z
2 1/2-x,-y,1/2+z
3 -x,1/2+y,1/2-z
4 1/2+x,1/2-y,-z
_cell_length_a                   7.6742(11)
_cell_length_b                   11.2836(15)
_cell_length_c                   16.041(2)
_cell_angle_alpha                90
_cell_angle_beta                 90
_cell_angle_gamma                90
_cell_volume                     1389.03
_exptl_crystal_colour            colorless
_exptl_crystal_description       block
_cell_formula_units_Z            4
loop_
_atom_site_label
_atom_site_type_symbol
_atom_site_fract_x
_atom_site_fract_y
_atom_site_fract_z
C1 C 0.1218(4) 0.8053(3) 0.21382(18)
C2 C 0.1298(5) 0.8022(3) 0.1098(2)
H1 H 0.0210 0.8315 0.0701
C3 C 0.1114(4) 0.6724(2) 0.34104(17)
C4 C 0.1283(4) 0.5946(3) 0.40797(18)
H2 H 0.2208 0.5414 0.4094
C5 C 0.0075(5) 0.5959(3) 0.4727(2)
H3 H 0.0193 0.5433 0.5170
C6 C -0.1287(5) 0.6743(3) 0.4715(2)
H4 H -0.2083 0.6748 0.5152
C7 C -0.1497(5) 0.7534(3) 0.4057(2)
H5 H -0.2427 0.8062 0.4050
C8 C -0.0291(4) 0.7522(3) 0.3407(2)
C9 C -0.0390(5) 0.8362(3) 0.2660(2)
H6 H -0.1451 0.8232 0.2344
H7 H -0.0354 0.9183 0.2839
B1 B 0.2509(5) 0.9023(3) 0.1640(2)
H8 H 0.2227 0.9977 0.1602
B2 B 0.3182(5) 0.8389(3) 0.2583(2)
H9 H 0.3366 0.8914 0.3155
B3 B 0.2295(4) 0.6919(3) 0.2613(2)
B4 B 0.1131(5) 0.6700(3) 0.1657(2)
H10 H -0.0024 0.6123 0.1625
B5 B 0.3441(6) 0.8293(4) 0.0800(2)
H11 H 0.3801 0.8743 0.0216
B6 B 0.4630(6) 0.8512(4) 0.1740(3)
H12 H 0.5765 0.9106 0.1762
B7 B 0.4516(5) 0.7158(3) 0.2345(2)
H13 H 0.5579 0.6871 0.2759
B8 B 0.3252(5) 0.6121(3) 0.1768(2)
H14 H 0.3496 0.5162 0.1808
B9 B 0.2593(5) 0.6824(3) 0.0812(2)
H15 H 0.2405 0.6325 0.0230
B10 B 0.4689(5) 0.7090(4) 0.1235(2)
H16 H 0.5874 0.6754 0.0931
loop_
_geom_bond_atom_site_label_1
_geom_bond_atom_site_label_2
_geom_bond_site_symmetry_1
_geom_bond_site_symmetry_2
C1 C2 1_555 1_555
C2 H1 1_555 1_555
C3 C4 1_555 1_555
C4 H2 1_555 1_555
C5 C4 1_555 1_555
H3 C5 1_555 1_555
C6 C5 1_555 1_555
H4 C6 1_555 1_555
C7 C6 1_555 1_555
H5 C7 1_555 1_555
C8 C3 1_555 1_555
C9 C1 1_555 1_555
H6 C9 1_555 1_555
H7 C9 1_555 1_555
B1 C1 1_555 1_555
H8 B1 1_555 1_555
B2 C1 1_555 1_555
H9 B2 1_555 1_555
B3 C1 1_555 1_555
B4 C1 1_555 1_555
H10 B4 1_555 1_555
B5 C2 1_555 1_555
H11 B5 1_555 1_555
B6 B1 1_555 1_555
H12 B6 1_555 1_555
B7 B2 1_555 1_555
H13 B7 1_555 1_555
B8 B3 1_555 1_555
H14 B8 1_555 1_555
B9 C2 1_555 1_555
H15 B9 1_555 1_555
B10 B5 1_555 1_555
H16 B10 1_555 1_555
C2 B1 1_555 1_555
C2 B4 1_555 1_555
C3 B3 1_555 1_555
C7 C8 1_555 1_555
C8 C9 1_555 1_555
B1 B2 1_555 1_555
B1 B5 1_555 1_555
B2 B3 1_555 1_555
B2 B6 1_555 1_555
B3 B4 1_555 1_555
B3 B7 1_555 1_555
B4 B8 1_555 1_555
B4 B9 1_555 1_555
B5 B6 1_555 1_555
B5 B9 1_555 1_555
B6 B7 1_555 1_555
B6 B10 1_555 1_555
B7 B8 1_555 1_555
B7 B10 1_555 1_555
B8 B9 1_555 1_555
B8 B10 1_555 1_555
B9 B10 1_555 1_555

#END
