
#######################################################################
#
#                 Cambridge Crystallographic Data Centre
#                                CCDC 
#
#######################################################################
#
# If this CIF has been generated from an entry in the Cambridge 
# Structural Database, then it will include bibliographic, chemical, 
# crystal, experimental, refinement or atomic coordinate data resulting 
# from the CCDC's data processing and validation procedures.
#
#######################################################################

data_LUKNOU
_chemical_formula_moiety         'C102 H36 O14,C1 H2 Cl2,H2 O1'
_chemical_name_systematic        
'out,out-71,72-Diethyl 71,72-((6,7,9,10,17,18,20,21-octahydrodibenzo(b,k)(1,4,7,10,13,16)hexaoxacyclo-octadecin-2,14-diyl)dimethylene)-1,2:41,58-dimethano(C70fullerene)-71,71,72,72-tetracarboxylate dichloromethane solvate monohydrate'
_symmetry_cell_setting           triclinic
_symmetry_space_group_name_H-M   'P -1'
_symmetry_Int_Tables_number      2
_space_group_name_Hall           '-P 1'
loop_
_symmetry_equiv_pos_site_id
_symmetry_equiv_pos_as_xyz
1 x,y,z
2 -x,-y,-z
_cell_length_a                   14.734(3)
_cell_length_b                   15.818(5)
_cell_length_c                   18.361(7)
_cell_angle_alpha                80.92(2)
_cell_angle_beta                 66.51(2)
_cell_angle_gamma                68.65(2)
_cell_volume                     3654.9
_exptl_crystal_colour            black
_cell_formula_units_Z            2
_exptl_crystal_recrystallization_method hexane/dichloromethane
loop_
_atom_site_label
_atom_site_type_symbol
_atom_site_fract_x
_atom_site_fract_y
_atom_site_fract_z
C1 C -0.0605(5) 0.7591(4) 0.8464(4)
C2 C -0.0819(5) 0.8112(4) 0.7682(4)
C3 C -0.0168(5) 0.7617(4) 0.6930(4)
C4 C 0.0640(5) 0.6824(4) 0.6860(3)
C5 C 0.0844(4) 0.6342(4) 0.7566(4)
C6 C 0.0219(5) 0.6696(4) 0.8310(3)
C7 C -0.0121(4) 0.6088(4) 0.8951(3)
C8 C -0.1182(5) 0.6539(4) 0.9438(3)
C9 C -0.1520(5) 0.7430(4) 0.9123(3)
C10 C -0.2525(5) 0.7777(4) 0.9120(4)
C11 C -0.2727(5) 0.8267(4) 0.8413(4)
C12 C -0.1912(5) 0.8378(4) 0.7737(4)
C13 C -0.1888(5) 0.8205(4) 0.6970(4)
C14 C -0.0820(5) 0.7757(4) 0.6483(4)
C15 C -0.0582(5) 0.7097(5) 0.5950(3)
C16 C 0.0271(5) 0.6273(4) 0.5879(3)
C17 C 0.0870(5) 0.6129(4) 0.6333(3)
C18 C 0.1210(5) 0.5251(4) 0.6684(3)
C19 C 0.1191(4) 0.5382(4) 0.7438(3)
C20 C 0.0958(4) 0.4764(4) 0.8074(3)
C21 C 0.0271(4) 0.5130(4) 0.8858(3)
C22 C -0.0374(4) 0.4645(4) 0.9398(3)
C23 C -0.1420(5) 0.5093(4) 0.9881(3)
C24 C -0.1876(5) 0.6046(4) 0.9845(3)
C25 C -0.2944(5) 0.6421(4) 0.9877(3)
C26 C -0.3233(5) 0.7268(4) 0.9476(4)
C27 C -0.3860(5) 0.7412(4) 0.9019(4)
C28 C -0.3544(5) 0.8016(4) 0.8357(4)
C29 C -0.3531(5) 0.7888(4) 0.7623(4)
C30 C -0.2677(5) 0.7995(4) 0.6903(4)
C31 C -0.2448(6) 0.7307(5) 0.6369(4)
C32 C -0.1433(6) 0.6874(5) 0.5905(4)
C33 C -0.1077(6) 0.5908(5) 0.5786(3)
C34 C -0.0033(5) 0.5539(5) 0.5768(3)
C35 C 0.0348(5) 0.4650(5) 0.6070(3)
C36 C 0.1001(5) 0.4497(4) 0.6539(3)
C37 C 0.0978(4) 0.3806(4) 0.7129(3)
C38 C 0.0959(4) 0.3927(4) 0.7879(3)
C39 C 0.0352(4) 0.3417(4) 0.8474(3)
C40 C -0.0282(5) 0.3753(4) 0.9225(3)
C41 C -0.1279(5) 0.3599(4) 0.9703(3)
C42 C -0.2018(5) 0.4490(4) 1.0028(3)
C43 C -0.3019(5) 0.4839(4) 1.0033(3)
C44 C -0.3480(5) 0.5819(4) 0.9923(3)
C45 C -0.4113(5) 0.5964(4) 0.9462(4)
C46 C -0.4229(4) 0.6725(4) 0.8938(4)
C47 C -0.4209(5) 0.6590(5) 0.8164(4)
C48 C -0.3837(5) 0.7166(5) 0.7513(4)
C49 C -0.3164(5) 0.6802(5) 0.6745(4)
C50 C -0.2860(5) 0.5872(5) 0.6593(4)
C51 C -0.1769(6) 0.5397(5) 0.6097(3)
C52 C -0.1327(6) 0.4470(5) 0.6233(4)
C53 C -0.0266(5) 0.4091(4) 0.6215(4)
C54 C -0.0214(5) 0.3341(4) 0.6783(3)
C55 C 0.0374(5) 0.3211(4) 0.7232(3)
C56 C -0.0003(5) 0.2953(4) 0.8063(3)
C57 C -0.0974(5) 0.2852(4) 0.8411(4)
C58 C -0.1669(5) 0.3084(4) 0.9250(3)
C59 C -0.2732(5) 0.3580(4) 0.9227(4)
C60 C -0.3376(5) 0.4385(4) 0.9622(4)
C61 C -0.4035(4) 0.5096(4) 0.9259(4)
C62 C -0.4031(5) 0.4971(4) 0.8534(4)
C63 C -0.4081(5) 0.5719(5) 0.7968(4)
C64 C -0.3415(5) 0.5362(5) 0.7195(4)
C65 C -0.2967(5) 0.4404(5) 0.7279(4)
C66 C -0.1923(5) 0.3950(4) 0.6807(4)
C67 C -0.1245(5) 0.3251(4) 0.7143(4)
C68 C -0.1614(5) 0.3027(4) 0.7951(4)
C69 C -0.2692(5) 0.3476(4) 0.8444(4)
C70 C -0.3343(5) 0.4150(5) 0.8114(4)
C71 C -0.0418(5) 0.8492(4) 0.8174(4)
C72 C -0.1189(8) 0.9346(5) 0.8630(5)
O1 O -0.1960(5) 0.9377(3) 0.9207(4)
O2 O -0.0949(5) 1.0036(4) 0.8274(4)
C73 C -0.1753(9) 1.0926(6) 0.8590(8)
H1 H -0.1416 1.1392 0.8447
H2 H -0.2054 1.0885 0.9171
C74 C -0.2631(12) 1.1209(8) 0.8268(12)
H3 H -0.3136 1.1791 0.8486
H4 H -0.2978 1.0756 0.8420
H5 H -0.2338 1.1259 0.7694
C75 C 0.0703(6) 0.8466(4) 0.7837(5)
O3 O 0.1163(5) 0.8395(5) 0.8258(4)
O4 O 0.1080(4) 0.8579(3) 0.7057(3)
C76 C 0.2215(6) 0.8412(5) 0.6652(5)
H6 H 0.2513 0.8448 0.7033
H7 H 0.2339 0.8874 0.6235
C77 C 0.2729(5) 0.7489(5) 0.6293(5)
C78 C 0.2799(5) 0.7360(5) 0.5539(4)
H8 H 0.2587 0.7867 0.5227
C79 C 0.3174(5) 0.6503(5) 0.5241(4)
H9 H 0.3226 0.6430 0.4725
C80 C 0.3474(5) 0.5749(4) 0.5692(4)
C81 C 0.3443(5) 0.5861(5) 0.6455(4)
C82 C 0.3058(5) 0.6733(5) 0.6748(4)
H10 H 0.3019 0.6814 0.7258
O5 O 0.3836(3) 0.4860(3) 0.5470(2)
C83 C 0.3819(5) 0.4697(4) 0.4730(4)
H11 H 0.4245 0.5000 0.4295
H12 H 0.3099 0.4938 0.4744
C84 C 0.4249(5) 0.3705(4) 0.4604(4)
H13 H 0.4442 0.3583 0.4046
H14 H 0.4881 0.3442 0.4734
O6 O 0.3478(3) 0.3298(3) 0.5099(2)
C85 C 0.3876(5) 0.2340(4) 0.5010(4)
H15 H 0.4553 0.2094 0.5077
H16 H 0.3989 0.2195 0.4474
C86 C 0.3130(6) 0.1918(5) 0.5606(4)
H17 H 0.2415 0.2253 0.5628
H18 H 0.3314 0.1288 0.5465
O7 O 0.3196(3) 0.1944(3) 0.6361(2)
C87 C 0.2623(5) 0.1539(4) 0.6997(4)
C88 C 0.2649(5) 0.1650(4) 0.7730(4)
O8 O 0.3267(3) 0.2131(3) 0.7697(2)
C89 C 0.3336(6) 0.2269(5) 0.8419(4)
H19 H 0.3590 0.1683 0.8669
H20 H 0.2641 0.2613 0.8788
C90 C 0.4082(5) 0.2787(5) 0.8233(4)
H21 H 0.4294 0.2743 0.8684
H22 H 0.4714 0.2525 0.7769
O9 O 0.3595(3) 0.3693(3) 0.8077(3)
C91 C 0.4290(5) 0.4196(5) 0.7868(4)
H23 H 0.4943 0.3895 0.7435
H24 H 0.4461 0.4227 0.8325
C92 C 0.3781(6) 0.5133(5) 0.7611(4)
H25 H 0.3057 0.5382 0.7985
H26 H 0.4164 0.5531 0.7596
O10 O 0.3792(3) 0.5079(3) 0.6834(2)
C93 C 0.2079(5) 0.1289(4) 0.8416(4)
H27 H 0.2108 0.1361 0.8904
C94 C 0.1456(5) 0.0816(4) 0.8388(4)
C95 C 0.1434(5) 0.0702(4) 0.7660(4)
H28 H 0.1019 0.0381 0.7641
C96 C 0.2007(5) 0.1049(4) 0.6968(4)
H29 H 0.1989 0.0960 0.6480
C97 C 0.0736(5) 0.0515(4) 0.9153(4)
H30 H 0.0652 -0.0043 0.9065
H31 H 0.1044 0.0387 0.9560
O11 O -0.0281(3) 0.1225(3) 0.9423(2)
C98 C -0.0376(6) 0.1902(4) 0.9838(4)
O12 O 0.0279(4) 0.1916(3) 1.0064(3)
C99 C -0.1386(5) 0.2675(4) 0.9965(3)
C100 C -0.2291(6) 0.2587(5) 1.0707(4)
O13 O -0.2843(5) 0.3159(4) 1.1194(3)
O14 O -0.2378(4) 0.1780(3) 1.0722(3)
C101 C -0.3191(5) 0.1538(5) 1.1403(5)
H32 H -0.3752 0.2088 1.1663
H33 H -0.2894 0.1179 1.1791
C102 C -0.3611(6) 0.1006(6) 1.1110(6)
H34 H -0.4156 0.0838 1.1551
H35 H -0.3051 0.0461 1.0857
H36 H -0.3903 0.1367 1.0727
O15 O 0.4685(4) 0.2980(4) 0.6290(3)
C103 C 0.4360(15) 0.9413(13) 0.3603(12)
Cl1 Cl 0.4181(6) 0.9589(3) 0.2742(3)
Cl2 Cl 0.4941(5) 1.0205(4) 0.3620(5)
C104? C 0.4637(16) 0.008(3) 0.995(3)
Cl3? Cl 0.5059(11) 0.0685(8) 0.9448(8)
Cl4? Cl 0.5074(8) 0.0290(6) 0.9136(7)
loop_
_geom_bond_atom_site_label_1
_geom_bond_atom_site_label_2
_geom_bond_site_symmetry_1
_geom_bond_site_symmetry_2
C1 C2 1_555 1_555
C2 C3 1_555 1_555
C3 C4 1_555 1_555
C4 C5 1_555 1_555
C5 C6 1_555 1_555
C6 C1 1_555 1_555
C7 C6 1_555 1_555
C8 C7 1_555 1_555
C9 C1 1_555 1_555
C10 C9 1_555 1_555
C11 C10 1_555 1_555
C12 C2 1_555 1_555
C13 C12 1_555 1_555
C14 C3 1_555 1_555
C15 C14 1_555 1_555
C16 C15 1_555 1_555
C17 C4 1_555 1_555
C18 C17 1_555 1_555
C19 C5 1_555 1_555
C20 C19 1_555 1_555
C21 C7 1_555 1_555
C22 C21 1_555 1_555
C23 C22 1_555 1_555
C24 C8 1_555 1_555
C25 C24 1_555 1_555
C26 C10 1_555 1_555
C27 C26 1_555 1_555
C28 C11 1_555 1_555
C29 C28 1_555 1_555
C30 C13 1_555 1_555
C31 C30 1_555 1_555
C32 C15 1_555 1_555
C33 C32 1_555 1_555
C34 C16 1_555 1_555
C35 C34 1_555 1_555
C36 C18 1_555 1_555
C37 C36 1_555 1_555
C38 C20 1_555 1_555
C39 C38 1_555 1_555
C40 C22 1_555 1_555
C41 C40 1_555 1_555
C42 C23 1_555 1_555
C43 C42 1_555 1_555
C44 C25 1_555 1_555
C45 C44 1_555 1_555
C46 C27 1_555 1_555
C47 C46 1_555 1_555
C48 C29 1_555 1_555
C49 C31 1_555 1_555
C50 C49 1_555 1_555
C51 C33 1_555 1_555
C52 C51 1_555 1_555
C53 C35 1_555 1_555
C54 C53 1_555 1_555
C55 C37 1_555 1_555
C56 C39 1_555 1_555
C57 C56 1_555 1_555
C58 C41 1_555 1_555
C59 C58 1_555 1_555
C60 C43 1_555 1_555
C61 C45 1_555 1_555
C62 C61 1_555 1_555
C63 C47 1_555 1_555
C64 C50 1_555 1_555
C65 C64 1_555 1_555
C66 C52 1_555 1_555
C67 C54 1_555 1_555
C68 C57 1_555 1_555
C69 C59 1_555 1_555
C70 C62 1_555 1_555
C71 C1 1_555 1_555
C72 C71 1_555 1_555
O1 C72 1_555 1_555
O2 C72 1_555 1_555
C73 O2 1_555 1_555
H1 C73 1_555 1_555
H2 C73 1_555 1_555
C74 C73 1_555 1_555
H3 C74 1_555 1_555
H4 C74 1_555 1_555
H5 C74 1_555 1_555
C75 C71 1_555 1_555
O3 C75 1_555 1_555
O4 C75 1_555 1_555
C76 O4 1_555 1_555
H6 C76 1_555 1_555
H7 C76 1_555 1_555
C77 C76 1_555 1_555
C78 C77 1_555 1_555
H8 C78 1_555 1_555
C79 C78 1_555 1_555
H9 C79 1_555 1_555
C80 C79 1_555 1_555
C81 C80 1_555 1_555
C82 C77 1_555 1_555
H10 C82 1_555 1_555
O5 C80 1_555 1_555
C83 O5 1_555 1_555
H11 C83 1_555 1_555
H12 C83 1_555 1_555
C84 C83 1_555 1_555
H13 C84 1_555 1_555
H14 C84 1_555 1_555
O6 C84 1_555 1_555
C85 O6 1_555 1_555
H15 C85 1_555 1_555
H16 C85 1_555 1_555
C86 C85 1_555 1_555
H17 C86 1_555 1_555
H18 C86 1_555 1_555
O7 C86 1_555 1_555
C87 O7 1_555 1_555
C88 C87 1_555 1_555
O8 C88 1_555 1_555
C89 O8 1_555 1_555
H19 C89 1_555 1_555
H20 C89 1_555 1_555
C90 C89 1_555 1_555
H21 C90 1_555 1_555
H22 C90 1_555 1_555
O9 C90 1_555 1_555
C91 O9 1_555 1_555
H23 C91 1_555 1_555
H24 C91 1_555 1_555
C92 C91 1_555 1_555
H25 C92 1_555 1_555
H26 C92 1_555 1_555
O10 C81 1_555 1_555
C93 C88 1_555 1_555
H27 C93 1_555 1_555
C94 C93 1_555 1_555
C95 C94 1_555 1_555
H28 C95 1_555 1_555
C96 C87 1_555 1_555
H29 C96 1_555 1_555
C97 C94 1_555 1_555
H30 C97 1_555 1_555
H31 C97 1_555 1_555
O11 C97 1_555 1_555
C98 O11 1_555 1_555
O12 C98 1_555 1_555
C99 C41 1_555 1_555
C100 C99 1_555 1_555
O13 C100 1_555 1_555
O14 C100 1_555 1_555
C101 O14 1_555 1_555
H32 C101 1_555 1_555
H33 C101 1_555 1_555
C102 C101 1_555 1_555
H34 C102 1_555 1_555
H35 C102 1_555 1_555
H36 C102 1_555 1_555
C103 Cl1 1_555 1_555
Cl2 C103 1_555 1_555
C2 C71 1_555 1_555
C8 C9 1_555 1_555
C11 C12 1_555 1_555
C13 C14 1_555 1_555
C16 C17 1_555 1_555
C18 C19 1_555 1_555
C20 C21 1_555 1_555
C23 C24 1_555 1_555
C25 C26 1_555 1_555
C27 C28 1_555 1_555
C29 C30 1_555 1_555
C31 C32 1_555 1_555
C33 C34 1_555 1_555
C35 C36 1_555 1_555
C37 C38 1_555 1_555
C39 C40 1_555 1_555
C41 C42 1_555 1_555
C43 C44 1_555 1_555
C45 C46 1_555 1_555
C47 C48 1_555 1_555
C48 C49 1_555 1_555
C50 C51 1_555 1_555
C52 C53 1_555 1_555
C54 C55 1_555 1_555
C55 C56 1_555 1_555
C57 C58 1_555 1_555
C58 C99 1_555 1_555
C59 C60 1_555 1_555
C60 C61 1_555 1_555
C62 C63 1_555 1_555
C63 C64 1_555 1_555
C65 C66 1_555 1_555
C65 C70 1_555 1_555
C66 C67 1_555 1_555
C67 C68 1_555 1_555
C68 C69 1_555 1_555
C69 C70 1_555 1_555
C81 C82 1_555 1_555
C92 O10 1_555 1_555
C95 C96 1_555 1_555
C98 C99 1_555 1_555

#END
