
#######################################################################
#
#                 Cambridge Crystallographic Data Centre
#                                CCDC 
#
#######################################################################
#
# If this CIF has been generated from an entry in the Cambridge 
# Structural Database, then it will include bibliographic, chemical, 
# crystal, experimental, refinement or atomic coordinate data resulting 
# from the CCDC's data processing and validation procedures.
#
#######################################################################

data_LUKNOW
_chemical_formula_moiety         'C10 H18 B10'
_chemical_name_systematic        
1,5-(2-Methylenephenyl)-2-methyl-1,2-dicarba-closo-dodecaborane(9)
_symmetry_cell_setting           monoclinic
_symmetry_space_group_name_H-M   'P 21/n'
_symmetry_Int_Tables_number      14
_space_group_name_Hall           '-P 2yn'
loop_
_symmetry_equiv_pos_site_id
_symmetry_equiv_pos_as_xyz
1 x,y,z
2 1/2-x,1/2+y,1/2-z
3 -x,-y,-z
4 1/2+x,1/2-y,1/2+z
_cell_length_a                   10.246(3)
_cell_length_b                   13.688(4)
_cell_length_c                   10.528(3)
_cell_angle_alpha                90
_cell_angle_beta                 91.892(7)
_cell_angle_gamma                90
_cell_volume                     1475.72
_exptl_crystal_colour            colorless
_exptl_crystal_description       block
_cell_formula_units_Z            4
loop_
_atom_site_label
_atom_site_type_symbol
_atom_site_fract_x
_atom_site_fract_y
_atom_site_fract_z
C1 C 0.9690(3) 0.8074(2) 0.1392(3)
C2 C 0.8288(3) 0.8088(2) 0.0554(3)
C3 C 0.8329(3) 0.8083(3) -0.0885(3)
H1 H 0.8024 0.7464 -0.1203
H2 H 0.9210 0.8187 -0.1137
H3 H 0.7780 0.8594 -0.1224
C4 C 1.1054(3) 0.8185(2) 0.0857(3)
H4 H 1.1003 0.8478 0.0018
H5 H 1.1482 0.7555 0.0801
C5 C 1.1796(3) 0.8853(2) 0.1799(3)
C6 C 1.3087(3) 0.9135(3) 0.1679(3)
H6 H 1.3556 0.8923 0.0989
C7 C 1.3678(3) 0.9738(3) 0.2599(4)
H7 H 1.4546 0.9924 0.2527
C8 C 1.2978(3) 1.0059(3) 0.3614(4)
H8 H 1.3378 1.0463 0.4220
C9 C 1.1679(3) 0.9785(2) 0.3744(3)
H9 H 1.1216 1.0010 0.4430
C10 C 1.1072(3) 0.9174(2) 0.2844(3)
B1 B 0.8764(3) 0.7028(3) 0.1348(4)
H10 H 0.9032 0.6346 0.0868
B2 B 0.9575(3) 0.7434(3) 0.2776(3)
H11 H 1.0365 0.7002 0.3231
B3 B 0.9639(3) 0.8744(3) 0.2751(3)
B4 B 0.8793(3) 0.9139(3) 0.1337(3)
H12 H 0.9073 0.9812 0.0842
B5 B 0.7128(3) 0.7461(3) 0.1367(4)
H13 H 0.6321 0.7049 0.0905
B6 B 0.7928(4) 0.7051(3) 0.2797(4)
H14 H 0.7635 0.6372 0.3271
B7 B 0.8470(3) 0.8114(3) 0.3684(3)
H15 H 0.8530 0.8123 0.4729
B8 B 0.7990(3) 0.9180(3) 0.2784(4)
H16 H 0.7745 0.9873 0.3247
B9 B 0.7146(3) 0.8757(3) 0.1353(4)
H17 H 0.6352 0.9176 0.0882
B10 B 0.6945(3) 0.8130(3) 0.2810(4)
H18 H 0.6014 0.8150 0.3300
loop_
_geom_bond_atom_site_label_1
_geom_bond_atom_site_label_2
_geom_bond_site_symmetry_1
_geom_bond_site_symmetry_2
C1 C2 1_555 1_555
C2 C3 1_555 1_555
C3 H1 1_555 1_555
H2 C3 1_555 1_555
H3 C3 1_555 1_555
C4 C1 1_555 1_555
H4 C4 1_555 1_555
H5 C4 1_555 1_555
C5 C4 1_555 1_555
C6 C5 1_555 1_555
H6 C6 1_555 1_555
C7 C6 1_555 1_555
H7 C7 1_555 1_555
C8 C7 1_555 1_555
H8 C8 1_555 1_555
C9 C8 1_555 1_555
H9 C9 1_555 1_555
C10 C5 1_555 1_555
B1 C1 1_555 1_555
H10 B1 1_555 1_555
B2 C1 1_555 1_555
H11 B2 1_555 1_555
B3 C1 1_555 1_555
B4 C1 1_555 1_555
H12 B4 1_555 1_555
B5 C2 1_555 1_555
H13 B5 1_555 1_555
B6 B1 1_555 1_555
H14 B6 1_555 1_555
B7 B2 1_555 1_555
H15 B7 1_555 1_555
B8 B3 1_555 1_555
H16 B8 1_555 1_555
B9 C2 1_555 1_555
H17 B9 1_555 1_555
B10 B5 1_555 1_555
H18 B10 1_555 1_555
C2 B1 1_555 1_555
C2 B4 1_555 1_555
C9 C10 1_555 1_555
C10 B3 1_555 1_555
B1 B2 1_555 1_555
B1 B5 1_555 1_555
B2 B3 1_555 1_555
B2 B6 1_555 1_555
B3 B4 1_555 1_555
B3 B7 1_555 1_555
B4 B8 1_555 1_555
B4 B9 1_555 1_555
B5 B6 1_555 1_555
B5 B9 1_555 1_555
B6 B7 1_555 1_555
B6 B10 1_555 1_555
B7 B8 1_555 1_555
B7 B10 1_555 1_555
B8 B9 1_555 1_555
B8 B10 1_555 1_555
B9 B10 1_555 1_555

#END
