
#######################################################################
#
#                 Cambridge Crystallographic Data Centre
#                                CCDC 
#
#######################################################################
#
# If this CIF has been generated from an entry in the Cambridge 
# Structural Database, then it will include bibliographic, chemical, 
# crystal, experimental, refinement or atomic coordinate data resulting 
# from the CCDC's data processing and validation procedures.
#
#######################################################################

data_LUKXIZ
_chemical_formula_moiety         'C25 H40 N4 O4'
_chemical_name_systematic        
4-((3-((4-Oxopent-2-en-2-yl)amino)-2,2-bis(((4-oxopent-2-en-2-yl)amino)methyl)propyl)amino)pent-3-en-2-one
_symmetry_cell_setting           monoclinic
_symmetry_space_group_name_H-M   'C 2/c'
_symmetry_Int_Tables_number      15
_space_group_name_Hall           '-C 2yn'
loop_
_symmetry_equiv_pos_site_id
_symmetry_equiv_pos_as_xyz
1 x,y,z
2 -x,y,1/2-z
3 1/2+x,1/2+y,z
4 1/2-x,1/2+y,1/2-z
5 -x,-y,-z
6 x,-y,1/2+z
7 1/2-x,1/2-y,-z
8 1/2+x,1/2-y,1/2+z
_cell_length_a                   12.389(2)
_cell_length_b                   13.483(2)
_cell_length_c                   15.669(3)
_cell_angle_alpha                90
_cell_angle_beta                 91.243(7)
_cell_angle_gamma                90
_cell_volume                     2616.75
_exptl_crystal_colour            colorless
_exptl_crystal_description       prism
_cell_formula_units_Z            4
loop_
_atom_site_label
_atom_site_type_symbol
_atom_site_fract_x
_atom_site_fract_y
_atom_site_fract_z
C1 C 1.0000 1.0774(2) 0.2500
C2 C 0.90467(17) 1.14614(18) 0.26789(15)
H1 H 0.9260 1.1934 0.3118
H2 H 0.8862 1.1831 0.2165
C3 C 0.73151(18) 1.12782(18) 0.34368(14)
C4 C 0.7432(2) 1.2322(2) 0.3750(2)
H3 H 0.8088 1.2601 0.3541
H4 H 0.7454 1.2326 0.4363
H5 H 0.6828 1.2709 0.3547
C5 C 0.64508(19) 1.0700(2) 0.36426(17)
H6 H 0.5928 1.0979 0.3985
C6 C 0.62967(19) 0.9707(2) 0.33706(16)
C7 C 0.5330(3) 0.9143(3) 0.3701(2)
H7 H 0.5330 0.8481 0.3474
H8 H 0.4677 0.9475 0.3524
H9 H 0.5372 0.9115 0.4313
C8 C 0.7711(3) 0.9942(3) 0.0743(2)
H10 H 0.7939 0.9578 0.1242
H11 H 0.7562 0.9489 0.0283
H12 H 0.7069 1.0311 0.0865
C9 C 0.85844(18) 1.06402(18) 0.04942(14)
C10 C 0.84563(19) 1.12473(19) -0.02033(15)
H13 H 0.7806 1.1206 -0.0509
C11 C 0.9223(2) 1.1925(2) -0.04940(16)
C12 C 0.8943(3) 1.2537(3) -0.1273(2)
H14 H 0.9537 1.2966 -0.1399
H15 H 0.8314 1.2929 -0.1165
H16 H 0.8800 1.2106 -0.1749
C13 C 0.97527(18) 1.00938(17) 0.17306(14)
H17 H 1.0373 0.9673 0.1634
H18 H 0.9147 0.9668 0.1863
N1 N 0.80991(15) 1.09193(16) 0.29560(13)
H19 H 0.8040 1.0312 0.2794
N2 N 0.94988(16) 1.06441(16) 0.09572(12)
H20 H 1.0003 1.1021 0.0774
O1 O 1.01376(16) 1.20249(19) -0.01492(13)
O2 O 0.69290(15) 0.92703(15) 0.28911(13)
C2A C 1.09533(17) 1.14614(18) 0.23211(15)
H1A H 1.0740 1.1934 0.1882
H2A H 1.1138 1.1831 0.2835
C3A C 1.26849(18) 1.12782(18) 0.15632(14)
C4A C 1.2568(2) 1.2322(2) 0.1250(2)
H3A H 1.1912 1.2601 0.1459
H4A H 1.2546 1.2326 0.0637
H5A H 1.3172 1.2709 0.1453
C5A C 1.35492(19) 1.0700(2) 0.13574(17)
H6A H 1.4072 1.0979 0.1015
C6A C 1.37033(19) 0.9707(2) 0.16294(16)
C7A C 1.4670(3) 0.9143(3) 0.1299(2)
H7A H 1.4670 0.8481 0.1526
H8A H 1.5323 0.9475 0.1476
H9A H 1.4628 0.9115 0.0687
C8A C 1.2289(3) 0.9942(3) 0.4257(2)
H10A H 1.2061 0.9578 0.3758
H11A H 1.2438 0.9489 0.4717
H12A H 1.2931 1.0311 0.4135
C9A C 1.14156(18) 1.06402(18) 0.45058(14)
C10A C 1.15437(19) 1.12473(19) 0.52033(15)
H13A H 1.2194 1.1206 0.5509
C11A C 1.0777(2) 1.1925(2) 0.54940(16)
C12A C 1.1057(3) 1.2537(3) 0.6273(2)
H14A H 1.0463 1.2966 0.6399
H15A H 1.1686 1.2929 0.6165
H16A H 1.1200 1.2106 0.6749
C13A C 1.02473(18) 1.00938(17) 0.32694(14)
H17A H 0.9627 0.9673 0.3366
H18A H 1.0853 0.9668 0.3137
N1A N 1.19009(15) 1.09193(16) 0.20440(13)
H19A H 1.1960 1.0312 0.2206
N2A N 1.05012(16) 1.06441(16) 0.40428(12)
H20A H 0.9997 1.1021 0.4226
O1A O 0.98624(16) 1.20249(19) 0.51492(13)
O2A O 1.30710(15) 0.92703(15) 0.21089(13)
loop_
_geom_bond_atom_site_label_1
_geom_bond_atom_site_label_2
_geom_bond_site_symmetry_1
_geom_bond_site_symmetry_2
C1 C2 1_555 1_555
C2 H1 1_555 1_555
H2 C2 1_555 1_555
C3 C4 1_555 1_555
C4 H3 1_555 1_555
H4 C4 1_555 1_555
H5 C4 1_555 1_555
C5 C3 1_555 1_555
H6 C5 1_555 1_555
C6 C5 1_555 1_555
C7 C6 1_555 1_555
H7 C7 1_555 1_555
H8 C7 1_555 1_555
H9 C7 1_555 1_555
C8 H10 1_555 1_555
H11 C8 1_555 1_555
H12 C8 1_555 1_555
C9 C8 1_555 1_555
C10 C9 1_555 1_555
H13 C10 1_555 1_555
C11 C10 1_555 1_555
C12 C11 1_555 1_555
H14 C12 1_555 1_555
H15 C12 1_555 1_555
H16 C12 1_555 1_555
C13 C1 1_555 1_555
H17 C13 1_555 1_555
H18 C13 1_555 1_555
N1 C2 1_555 1_555
H19 N1 1_555 1_555
N2 C9 1_555 1_555
H20 N2 1_555 1_555
O1 C11 1_555 1_555
O2 C6 1_555 1_555
C2A C1 1_555 1_555
H1A C2A 1_555 1_555
H2A C2A 1_555 1_555
C3A C4A 1_555 1_555
C4A H3A 1_555 1_555
H4A C4A 1_555 1_555
H5A C4A 1_555 1_555
C5A C3A 1_555 1_555
H6A C5A 1_555 1_555
C6A C5A 1_555 1_555
C7A C6A 1_555 1_555
H7A C7A 1_555 1_555
H8A C7A 1_555 1_555
H9A C7A 1_555 1_555
C8A H10A 1_555 1_555
H11A C8A 1_555 1_555
H12A C8A 1_555 1_555
C9A C8A 1_555 1_555
C10A C9A 1_555 1_555
H13A C10A 1_555 1_555
C11A C10A 1_555 1_555
C12A C11A 1_555 1_555
H14A C12A 1_555 1_555
H15A C12A 1_555 1_555
H16A C12A 1_555 1_555
C13A C1 1_555 1_555
H17A C13A 1_555 1_555
H18A C13A 1_555 1_555
N1A C2A 1_555 1_555
H19A N1A 1_555 1_555
N2A C9A 1_555 1_555
H20A N2A 1_555 1_555
O1A C11A 1_555 1_555
O2A C6A 1_555 1_555
C3 N1 1_555 1_555
C13 N2 1_555 1_555
C3A N1A 1_555 1_555
C13A N2A 1_555 1_555

#END
