
#######################################################################
#
#                 Cambridge Crystallographic Data Centre
#                                CCDC 
#
#######################################################################
#
# If this CIF has been generated from an entry in the Cambridge 
# Structural Database, then it will include bibliographic, chemical, 
# crystal, experimental, refinement or atomic coordinate data resulting 
# from the CCDC's data processing and validation procedures.
#
#######################################################################

data_LUKYUL
_chemical_formula_moiety         'C20 H22 N6 O3 S4'
_chemical_name_systematic        
1,7-[5,5'-(1,3-phenylenedimethylene)bis(2,3-dihydro-2-acetylimino-1,3,4-thiadiazol-2-yl)]-4-oxa-1,7-dithiaheptane
_symmetry_cell_setting           orthorhombic
_symmetry_space_group_name_H-M   'P c c n'
_symmetry_Int_Tables_number      56
_space_group_name_Hall           '-P 2ab 2ac'
loop_
_symmetry_equiv_pos_site_id
_symmetry_equiv_pos_as_xyz
1 x,y,z
2 1/2-x,1/2-y,z
3 1/2+x,-y,1/2-z
4 -x,1/2+y,1/2-z
5 -x,-y,-z
6 1/2+x,1/2+y,-z
7 1/2-x,y,1/2+z
8 x,1/2-y,1/2+z
_cell_length_a                   15.709(5)
_cell_length_b                   20.901(3)
_cell_length_c                   14.340(3)
_cell_angle_alpha                90
_cell_angle_beta                 90
_cell_angle_gamma                90
_cell_volume                     4708.31
_exptl_crystal_colour            colorless
_exptl_crystal_description       block
_chemical_melting_point          290-292deg.C
_cell_formula_units_Z            8
_exptl_crystal_recrystallization_method dichloromethane/toluene
loop_
_atom_site_label
_atom_site_type_symbol
_atom_site_fract_x
_atom_site_fract_y
_atom_site_fract_z
S1 S 0.63669(12) 0.25750(10) 0.29334(13)
S2 S 0.55398(16) 0.13316(11) 0.34501(18)
S3 S 0.44493(18) 0.11769(13) 0.84503(18)
S4 S 0.37166(12) 0.24211(11) 0.91200(13)
O1 O 0.7107(4) 0.3546(3) 0.2177(4)
O2 O 0.5193(5) 0.0524(3) 0.5959(5)
O3 O 0.3102(4) 0.3381(3) 0.9992(4)
N1 N 0.6980(4) 0.3684(3) 0.3758(4)
N2 N 0.6426(4) 0.2844(3) 0.4644(4)
N3 N 0.6058(4) 0.2250(3) 0.4630(4)
N4 N 0.3914(4) 0.2140(3) 0.7376(5)
N5 N 0.3556(4) 0.2746(3) 0.7437(4)
N6 N 0.3100(4) 0.3559(3) 0.8411(4)
C1 C 0.7528(6) 0.4545(4) 0.2816(7)
H1 H 0.7551 0.4733 0.3426
H2 H 0.7163 0.4795 0.2423
H3 H 0.8090 0.4533 0.2553
C2 C 0.7188(5) 0.3881(4) 0.2887(6)
C3 C 0.6631(5) 0.3115(4) 0.3825(5)
C4 C 0.6503(5) 0.3156(4) 0.5544(5)
H4 H 0.6973 0.3457 0.5526
H5 H 0.6629 0.2838 0.6017
C5 C 0.5987(5) 0.2061(4) 0.3785(6)
C6 C 0.5078(7) 0.1063(5) 0.4520(10)
H6 H 0.4825 0.1423 0.4844
H7 H 0.4632 0.0756 0.4388
C7 C 0.5689(7) 0.0781(6) 0.5085(8)
H8 H 0.6114 0.1093 0.5271
H9 H 0.5970 0.0433 0.4760
C8 C 0.5136(8) 0.0960(7) 0.6761(13)
H10 H 0.5632 0.0918 0.7159
H11 H 0.5091 0.1401 0.6556
C9 C 0.4423(7) 0.0778(5) 0.7218(8)
H12 H 0.4406 0.0316 0.7278
H13 H 0.3921 0.0916 0.6878
C10 C 0.4021(5) 0.1926(4) 0.8206(6)
C11 C 0.3419(5) 0.2988(4) 0.8282(5)
C12 C 0.2971(5) 0.3743(5) 0.9328(6)
C13 C 0.2642(6) 0.4403(5) 0.9471(6)
H14 H 0.2579 0.4610 0.8878
H15 H 0.3035 0.4640 0.9849
H16 H 0.2099 0.4384 0.9777
C14 C 0.3437(5) 0.3090(4) 0.6561(5)
H17 H 0.2956 0.3379 0.6622
H18 H 0.3305 0.2786 0.6070
C15 C 0.4217(5) 0.3469(4) 0.6288(5)
C16 C 0.4193(7) 0.4130(4) 0.6266(6)
H19 H 0.3694 0.4345 0.6418
C17 C 0.4904(9) 0.4469(4) 0.6019(7)
H20 H 0.4882 0.4914 0.6021
C18 C 0.5646(8) 0.4172(4) 0.5768(6)
H21 H 0.6112 0.4412 0.5576
C19 C 0.5700(5) 0.3505(4) 0.5803(5)
C20 C 0.4975(5) 0.3169(3) 0.6058(4)
H22 H 0.4998 0.2724 0.6075
loop_
_geom_bond_atom_site_label_1
_geom_bond_atom_site_label_2
_geom_bond_site_symmetry_1
_geom_bond_site_symmetry_2
S1 C3 1_555 1_555
S2 C5 1_555 1_555
S3 C9 1_555 1_555
S4 C10 1_555 1_555
O1 C2 1_555 1_555
O2 C7 1_555 1_555
O3 C12 1_555 1_555
N1 C2 1_555 1_555
N2 N3 1_555 1_555
N3 C5 1_555 1_555
N4 N5 1_555 1_555
N5 C11 1_555 1_555
N6 C11 1_555 1_555
C1 H1 1_555 1_555
H2 C1 1_555 1_555
H3 C1 1_555 1_555
C2 C1 1_555 1_555
C3 N1 1_555 1_555
C4 N2 1_555 1_555
H4 C4 1_555 1_555
H5 C4 1_555 1_555
C5 S1 1_555 1_555
C6 S2 1_555 1_555
H6 C6 1_555 1_555
H7 C6 1_555 1_555
C7 C6 1_555 1_555
H8 C7 1_555 1_555
H9 C7 1_555 1_555
C8 O2 1_555 1_555
H10 C8 1_555 1_555
H11 C8 1_555 1_555
C9 C8 1_555 1_555
H12 C9 1_555 1_555
H13 C9 1_555 1_555
C10 S3 1_555 1_555
C11 S4 1_555 1_555
C12 N6 1_555 1_555
C13 C12 1_555 1_555
H14 C13 1_555 1_555
H15 C13 1_555 1_555
H16 C13 1_555 1_555
C14 N5 1_555 1_555
H17 C14 1_555 1_555
H18 C14 1_555 1_555
C15 C14 1_555 1_555
C16 C15 1_555 1_555
H19 C16 1_555 1_555
C17 C16 1_555 1_555
H20 C17 1_555 1_555
C18 C17 1_555 1_555
H21 C18 1_555 1_555
C19 C4 1_555 1_555
C20 C15 1_555 1_555
H22 C20 1_555 1_555
N2 C3 1_555 1_555
N4 C10 1_555 1_555
C18 C19 1_555 1_555
C19 C20 1_555 1_555

#END
