
#######################################################################
#
#                 Cambridge Crystallographic Data Centre
#                                CCDC 
#
#######################################################################
#
# If this CIF has been generated from an entry in the Cambridge 
# Structural Database, then it will include bibliographic, chemical, 
# crystal, experimental, refinement or atomic coordinate data resulting 
# from the CCDC's data processing and validation procedures.
#
#######################################################################

data_LUKYOH
_chemical_name_common            PF-04958242
_chemical_formula_moiety         'C18 H20 N2 O4 S2'
_chemical_name_systematic        
N-((3S,4S)-4-(4-(5-cyano-2-thienyl)phenoxy)tetrahydrofuran-3-yl)propane-2-sulfonamide
_symmetry_cell_setting           orthorhombic
_symmetry_space_group_name_H-M   'P 21 21 21'
_symmetry_Int_Tables_number      19
_space_group_name_Hall           'P 2ac 2ab'
loop_
_symmetry_equiv_pos_site_id
_symmetry_equiv_pos_as_xyz
1 x,y,z
2 1/2-x,-y,1/2+z
3 1/2+x,1/2-y,-z
4 -x,1/2+y,1/2-z
_cell_length_a                   5.86340(10)
_cell_length_b                   11.0830(2)
_cell_length_c                   29.0148(5)
_cell_angle_alpha                90
_cell_angle_beta                 90
_cell_angle_gamma                90
_cell_volume                     1885.5
_cell_formula_units_Z            4
loop_
_atom_site_label
_atom_site_type_symbol
_atom_site_fract_x
_atom_site_fract_y
_atom_site_fract_z
C1 C 0.9522(11) 0.7197(4) 0.4394(1)
C2 C 0.8300(8) 0.6288(3) 0.4634(1)
C3 C 0.6273(8) 0.5809(3) 0.4531(1)
C4 C 0.5670(6) 0.4853(3) 0.4824(1)
C5 C 0.7248(5) 0.4605(2) 0.5156(1)
C6 C 0.7261(5) 0.3671(2) 0.5513(1)
C7 C 0.5724(5) 0.2706(3) 0.5494(1)
C8 C 0.5783(5) 0.1791(3) 0.5818(1)
C9 C 0.7347(4) 0.1823(2) 0.6175(1)
C10 C 0.8850(5) 0.2791(3) 0.6209(1)
C11 C 0.8780(6) 0.3695(3) 0.5877(1)
C12 C 0.9062(4) 0.0813(2) 0.6821(1)
C13 C 1.1379(5) 0.0565(3) 0.6606(1)
C14 C 0.9813(5) -0.1283(3) 0.6802(1)
C15 C 0.8666(5) -0.0334(2) 0.7097(1)
C16 C 0.5376(9) -0.0002(4) 0.8128(1)
C17 C 0.3244(14) 0.0736(6) 0.8025(2)
C18 C 0.7321(13) 0.0701(7) 0.8212(3)
N1 N 1.0547(13) 0.7909(5) 0.4196(2)
N2 N 0.6282(4) -0.0547(2) 0.7224(1)
O1 O 0.7294(3) 0.0869(2) 0.6473(1)
O2 O 1.1837(4) -0.0700(2) 0.6640(1)
O3 O 0.3471(4) -0.1723(2) 0.7654(1)
O4 O 0.7528(4) -0.1899(2) 0.7859(1)
S1 S 0.9549(2) 0.5573(1) 0.5103(1)
S2 S 0.5656(1) -0.1173(1) 0.7711(1)
H1 H 0.4313 0.4425 0.4794
H2 H 0.4645 0.2679 0.5259
H3 H 0.4765 0.1151 0.5796
H4 H 0.9890 0.2833 0.6450
H5 H 0.9792 0.4339 0.5901
H6 H 0.9078 0.1533 0.7017
H7 H 1.1380 0.0813 0.6286
H8 H 1.2550 0.1018 0.6767
H9 H 1.0183 -0.1993 0.6982
H10 H 0.8841 -0.1518 0.6546
H11 H 0.9544 -0.0265 0.7383
H12 H 0.5057 -0.0415 0.8420
H13 H 0.3042 0.1337 0.8259
H14 H 0.1939 0.0213 0.8018
H15 H 0.3409 0.1123 0.7731
H16 H 0.6866 0.1494 0.8309
H17 H 0.8209 0.0760 0.7935
H18 H 0.8220 0.0332 0.8450
H19 H 0.4950(50) -0.0760(30) 0.7038(11)
H20? H 1.0357 0.43919 0.5709
loop_
_geom_bond_atom_site_label_1
_geom_bond_atom_site_label_2
_geom_bond_site_symmetry_1
_geom_bond_site_symmetry_2
C1 C2 1_555 1_555
C2 C3 1_555 1_555
C3 C4 1_555 1_555
C4 C5 1_555 1_555
C5 C6 1_555 1_555
C6 C7 1_555 1_555
C7 C8 1_555 1_555
C8 C9 1_555 1_555
C9 C10 1_555 1_555
C10 C11 1_555 1_555
C11 C6 1_555 1_555
C12 C13 1_555 1_555
C13 O2 1_555 1_555
C14 C15 1_555 1_555
C15 C12 1_555 1_555
C16 C17 1_555 1_555
C17 H13 1_555 1_555
C18 C16 1_555 1_555
N1 C1 1_555 1_555
N2 C15 1_555 1_555
O1 C9 1_555 1_555
O2 C14 1_555 1_555
O3 S2 1_555 1_555
O4 S2 1_555 1_555
S1 C2 1_555 1_555
S2 C16 1_555 1_555
H1 C4 1_555 1_555
H2 C7 1_555 1_555
H3 C8 1_555 1_555
H4 C10 1_555 1_555
H5 C11 1_555 1_555
H6 C12 1_555 1_555
H7 C13 1_555 1_555
H8 C13 1_555 1_555
H9 C14 1_555 1_555
H10 C14 1_555 1_555
H11 C15 1_555 1_555
H12 C16 1_555 1_555
H14 C17 1_555 1_555
H15 C17 1_555 1_555
H16 C18 1_555 1_555
H17 C18 1_555 1_555
H18 C18 1_555 1_555
H19 N2 1_555 1_555
C5 S1 1_555 1_555
C12 O1 1_555 1_555
N2 S2 1_555 1_555

#END
