
#######################################################################
#
#                 Cambridge Crystallographic Data Centre
#                                CCDC 
#
#######################################################################
#
# If this CIF has been generated from an entry in the Cambridge 
# Structural Database, then it will include bibliographic, chemical, 
# crystal, experimental, refinement or atomic coordinate data resulting 
# from the CCDC's data processing and validation procedures.
#
#######################################################################

data_LUKZUN
_chemical_formula_moiety         'C16 H16 N2 O4,H2 O1'
_chemical_name_systematic        
"N'-(3-Ethoxy-2-hydroxybenzylidene)-3-hydroxybenzohydrazide monohydrate"
_symmetry_cell_setting           monoclinic
_symmetry_space_group_name_H-M   'P 21/c'
_symmetry_Int_Tables_number      14
_space_group_name_Hall           '-P 2ybc'
loop_
_symmetry_equiv_pos_site_id
_symmetry_equiv_pos_as_xyz
1 x,y,z
2 -x,1/2+y,1/2-z
3 -x,-y,-z
4 x,1/2-y,1/2+z
_cell_length_a                   9.4828(7)
_cell_length_b                   12.7370(10)
_cell_length_c                   12.5957(10)
_cell_angle_alpha                90
_cell_angle_beta                 95.3730(10)
_cell_angle_gamma                90
_cell_volume                     1514.65
_exptl_crystal_colour            colorless
_exptl_crystal_description       block
_cell_formula_units_Z            4
loop_
_atom_site_label
_atom_site_type_symbol
_atom_site_fract_x
_atom_site_fract_y
_atom_site_fract_z
O1 O 0.21395(13) 0.09434(9) 0.56523(9)
H1 H 0.1638 0.1045 0.6138
O2 O -0.02185(14) 0.06614(8) 0.82924(9)
O3 O -0.21576(15) 0.07247(9) 1.18998(9)
H2 H -0.1663 0.0208 1.1817
O4 O 0.37507(13) 0.08618(9) 0.41011(9)
N1 N 0.10221(14) 0.21357(10) 0.71602(9)
N2 N 0.02573(14) 0.23734(10) 0.80109(10)
C1 C 0.24384(16) 0.28251(12) 0.58441(11)
C2 C 0.26933(16) 0.18684(12) 0.53588(11)
C3 C 0.35692(17) 0.18349(12) 0.45175(12)
C4 C 0.41572(19) 0.27487(13) 0.41762(13)
H3 H 0.4737 0.2727 0.3621
C5 C 0.3894(2) 0.36988(14) 0.46509(13)
H4 H 0.4293 0.4312 0.4411
C6 C 0.3048(2) 0.37382(14) 0.54732(13)
H5 H 0.2876 0.4380 0.5789
C7 C 0.15774(17) 0.29225(13) 0.67352(12)
H6 H 0.1426 0.3588 0.7006
C8 C -0.03368(16) 0.15964(12) 0.85315(11)
C9 C -0.11528(16) 0.19246(11) 0.94323(11)
C10 C -0.13057(16) 0.11772(12) 1.02215(11)
H7 H -0.0922 0.0511 1.0160
C11 C -0.20242(16) 0.14208(12) 1.10944(12)
C12 C -0.26269(17) 0.24051(13) 1.11679(13)
H8 H -0.3127 0.2570 1.1747
C13 C -0.24852(18) 0.31391(13) 1.03838(13)
H9 H -0.2892 0.3799 1.0439
C14 C -0.17479(17) 0.29124(12) 0.95151(13)
H10 H -0.1652 0.3417 0.8993
C15 C 0.47025(18) 0.07659(13) 0.32874(13)
H11 H 0.5657 0.0949 0.3571
H12 H 0.4417 0.1234 0.2699
C16 C 0.4653(2) -0.03473(15) 0.29150(15)
H13 H 0.4877 -0.0806 0.3512
H14 H 0.5330 -0.0447 0.2403
H15 H 0.3721 -0.0505 0.2590
H16 H 0.023(3) 0.3050(9) 0.8198(17)
O5 O 0.95790(15) 0.95810(10) 0.63428(10)
H17 H 0.8984(19) 0.9668(17) 0.5808(12)
H18 H 0.945(2) 1.0058(14) 0.6808(13)
loop_
_geom_bond_atom_site_label_1
_geom_bond_atom_site_label_2
_geom_bond_site_symmetry_1
_geom_bond_site_symmetry_2
O1 H1 1_555 1_555
O2 C8 1_555 1_555
O3 H2 1_555 1_555
O4 C3 1_555 1_555
O5 H17 1_555 1_555
N1 N2 1_555 1_555
N2 C8 1_555 1_555
C1 C2 1_555 1_555
C2 O1 1_555 1_555
C3 C2 1_555 1_555
C4 C3 1_555 1_555
H3 C4 1_555 1_555
C5 C4 1_555 1_555
H4 C5 1_555 1_555
C6 C1 1_555 1_555
H5 C6 1_555 1_555
C7 N1 1_555 1_555
H6 C7 1_555 1_555
C8 C9 1_555 1_555
C9 C10 1_555 1_555
C10 H7 1_555 1_555
C11 O3 1_555 1_555
C12 C11 1_555 1_555
H8 C12 1_555 1_555
C13 C12 1_555 1_555
H9 C13 1_555 1_555
C14 C9 1_555 1_555
H10 C14 1_555 1_555
C15 O4 1_555 1_555
H11 C15 1_555 1_555
H12 C15 1_555 1_555
C16 C15 1_555 1_555
H13 C16 1_555 1_555
H14 C16 1_555 1_555
H15 C16 1_555 1_555
H16 N2 1_555 1_555
H18 O5 1_555 1_555
C1 C7 1_555 1_555
C5 C6 1_555 1_555
C10 C11 1_555 1_555
C13 C14 1_555 1_555

#END
