
#######################################################################
#
#                 Cambridge Crystallographic Data Centre
#                                CCDC 
#
#######################################################################
#
# If this CIF has been generated from an entry in the Cambridge 
# Structural Database, then it will include bibliographic, chemical, 
# crystal, experimental, refinement or atomic coordinate data resulting 
# from the CCDC's data processing and validation procedures.
#
#######################################################################

data_LULJOT
_chemical_formula_moiety         'C26 H18 O7'
_chemical_name_systematic        
3,3'-((4-Methoxyphenyl)methylene)bis(4-hydroxy-2H-chromen-2-one)
_chemical_properties_biological  'antibacterial activity'
_symmetry_cell_setting           monoclinic
_symmetry_space_group_name_H-M   'P 21/c'
_symmetry_Int_Tables_number      14
_space_group_name_Hall           '-P 2ybc'
loop_
_symmetry_equiv_pos_site_id
_symmetry_equiv_pos_as_xyz
1 x,y,z
2 -x,1/2+y,1/2-z
3 -x,-y,-z
4 x,1/2-y,1/2+z
_cell_length_a                   9.9800(12)
_cell_length_b                   10.4058(14)
_cell_length_c                   20.042(2)
_cell_angle_alpha                90
_cell_angle_beta                 94.693(10)
_cell_angle_gamma                90
_cell_volume                     2074.38
_exptl_crystal_colour            colorless
_exptl_crystal_description       Prism
_chemical_melting_point          '269-270 deg.C'
_cell_formula_units_Z            4
loop_
_atom_site_label
_atom_site_type_symbol
_atom_site_fract_x
_atom_site_fract_y
_atom_site_fract_z
O1 O 0.9575(2) 0.13505(19) 0.07291(9)
O2 O 0.7948(2) 0.08088(19) 0.13405(10)
O3 O 1.18325(19) 0.28571(19) 0.23713(10)
H1 H 1.1384 0.2929 0.2706
O4 O 0.6500(2) 0.1288(2) 0.23851(10)
H2 H 0.6966 0.1107 0.2067
O5 O 0.84574(19) 0.38633(18) 0.36975(9)
O6 O 1.0428(2) 0.33055(18) 0.33906(9)
O7 O 1.3417(2) -0.1239(2) 0.44592(10)
C1 C 0.9471(3) 0.1109(2) 0.25937(13)
H3 H 0.8854 0.0378 0.2463
C2 C 0.9972(3) 0.1562(3) 0.19385(13)
C3 C 1.1069(3) 0.2286(3) 0.18657(13)
C4 C 1.1577(3) 0.2454(3) 0.12070(14)
C5 C 1.2779(3) 0.3065(3) 0.11036(15)
H4 H 1.3301 0.3429 0.1474
C6 C 1.3230(3) 0.3153(3) 0.04702(17)
H5 H 1.4053 0.3575 0.0404
C7 C 1.2436(4) 0.2597(3) -0.00830(15)
H6 H 1.2732 0.2650 -0.0521
C8 C 1.1234(3) 0.1981(3) 0.00166(14)
H7 H 1.0707 0.1600 -0.0347
C9 C 1.0825(3) 0.1937(3) 0.06596(14)
C10 C 0.9110(3) 0.1213(3) 0.13394(14)
C11 C 0.8578(3) 0.2086(3) 0.29150(14)
C12 C 0.7198(3) 0.2066(3) 0.28158(14)
C13 C 0.6387(3) 0.2919(3) 0.31943(13)
C14 C 0.4982(3) 0.2911(3) 0.31528(14)
H8 H 0.4500 0.2337 0.2853
C15 C 0.4292(3) 0.3725(3) 0.35412(15)
H9 H 0.3337 0.3706 0.3511
C16 C 0.4987(3) 0.4580(3) 0.39797(15)
H10 H 0.4498 0.5141 0.4244
C17 C 0.6379(3) 0.4624(3) 0.40355(13)
H11 H 0.6851 0.5207 0.4335
C18 C 0.7072(3) 0.3786(3) 0.36380(14)
C19 C 0.9220(3) 0.3078(2) 0.33291(13)
C20 C 1.0561(3) 0.0510(2) 0.30965(14)
C21 C 1.1842(3) 0.0165(3) 0.29281(14)
H12 H 1.2090 0.0335 0.2489
C22 C 1.2763(3) -0.0423(3) 0.33887(14)
H13 H 1.3632 -0.0642 0.3263
C23 C 1.2419(3) -0.0694(3) 0.40334(14)
C24 C 1.1137(3) -0.0392(3) 0.42078(14)
H14 H 1.0881 -0.0592 0.4642
C25 C 1.0227(3) 0.0207(2) 0.37405(14)
H15 H 0.9355 0.0415 0.3865
C26 C 1.3065(3) -0.1675(3) 0.50951(15)
H16 H 1.2715 -0.0953 0.5343
H17 H 1.3862 -0.2028 0.5348
H18 H 1.2374 -0.2343 0.5032
loop_
_geom_bond_atom_site_label_1
_geom_bond_atom_site_label_2
_geom_bond_site_symmetry_1
_geom_bond_site_symmetry_2
O1 C9 1_555 1_555
O2 C10 1_555 1_555
O3 H1 1_555 1_555
O4 H2 1_555 1_555
O5 C18 1_555 1_555
O6 C19 1_555 1_555
O7 C23 1_555 1_555
C1 H3 1_555 1_555
C2 C1 1_555 1_555
C3 O3 1_555 1_555
C4 C3 1_555 1_555
C5 C4 1_555 1_555
H4 C5 1_555 1_555
C6 C5 1_555 1_555
H5 C6 1_555 1_555
C7 C6 1_555 1_555
H6 C7 1_555 1_555
C8 C7 1_555 1_555
H7 C8 1_555 1_555
C9 C4 1_555 1_555
C10 O1 1_555 1_555
C11 C1 1_555 1_555
C12 O4 1_555 1_555
C13 C12 1_555 1_555
C14 C13 1_555 1_555
H8 C14 1_555 1_555
C15 C14 1_555 1_555
H9 C15 1_555 1_555
C16 C15 1_555 1_555
H10 C16 1_555 1_555
C17 C16 1_555 1_555
H11 C17 1_555 1_555
C18 C13 1_555 1_555
C19 O5 1_555 1_555
C20 C1 1_555 1_555
C21 C20 1_555 1_555
H12 C21 1_555 1_555
C22 C21 1_555 1_555
H13 C22 1_555 1_555
C23 C22 1_555 1_555
C24 C23 1_555 1_555
H14 C24 1_555 1_555
C25 C20 1_555 1_555
H15 C25 1_555 1_555
C26 O7 1_555 1_555
H16 C26 1_555 1_555
H17 C26 1_555 1_555
H18 C26 1_555 1_555
C2 C3 1_555 1_555
C2 C10 1_555 1_555
C8 C9 1_555 1_555
C11 C12 1_555 1_555
C11 C19 1_555 1_555
C17 C18 1_555 1_555
C24 C25 1_555 1_555

#END
