
#######################################################################
#
#                 Cambridge Crystallographic Data Centre
#                                CCDC 
#
#######################################################################
#
# If this CIF has been generated from an entry in the Cambridge 
# Structural Database, then it will include bibliographic, chemical, 
# crystal, experimental, refinement or atomic coordinate data resulting 
# from the CCDC's data processing and validation procedures.
#
#######################################################################

data_LULQOA
_chemical_formula_moiety         'C9 H18 N1 O1,0.5(C4 F8 I2)'
_chemical_name_systematic        
'(2,2,6,6-tetramethylpiperidin-1-yl)oxidanyl radical hemikis(1,1,2,2,3,3,4,4-octafluoro-1,4-diiodobutane)'
_symmetry_cell_setting           triclinic
_symmetry_space_group_name_H-M   'P -1'
_symmetry_Int_Tables_number      2
_space_group_name_Hall           '-P 1'
loop_
_symmetry_equiv_pos_site_id
_symmetry_equiv_pos_as_xyz
1 x,y,z
2 -x,-y,-z
_cell_length_a                   5.7245(8)
_cell_length_b                   11.1337(17)
_cell_length_c                   12.3817(19)
_cell_angle_alpha                66.474(2)
_cell_angle_beta                 87.523(2)
_cell_angle_gamma                89.655(2)
_cell_volume                     722.821
_cell_formula_units_Z            2
loop_
_atom_site_label
_atom_site_type_symbol
_atom_site_fract_x
_atom_site_fract_y
_atom_site_fract_z
C1 C 0.8998(5) 0.1339(3) 0.8454(2)
C2 C 0.9468(4) 0.0695(2) 0.9776(2)
F1 F 0.7431(4) 0.06047(17) 0.82031(18)
F2 F 1.0963(4) 0.13607(19) 0.78281(16)
F3 F 0.7406(3) 0.06211(15) 1.03633(14)
F4 F 1.0901(3) 0.14754(14) 1.00346(15)
I1 I 0.77290(3) 0.329934(14) 0.794365(13)
C1A C 1.1002(5) -0.1339(3) 1.1546(2)
C2A C 1.0532(4) -0.0695(2) 1.0224(2)
F1A F 1.2569(4) -0.06047(17) 1.17969(18)
F2A F 0.9037(4) -0.13607(19) 1.21719(16)
F3A F 1.2594(3) -0.06211(15) 0.96367(14)
F4A F 0.9099(3) -0.14754(14) 0.99654(15)
I1A I 1.22710(3) -0.329934(14) 1.205635(13)
C3 C 0.3951(4) 0.7115(2) 0.7813(2)
C4 C 0.2416(4) 0.5935(3) 0.8568(2)
H1 H 0.1097 0.5870 0.8114
H2 H 0.1826 0.6043 0.9278
H3 H 0.3341 0.5135 0.8795
C5 C 0.5872(4) 0.7306(3) 0.8553(2)
H4 H 0.6769 0.6499 0.8892
H5 H 0.5161 0.7518 0.9189
H6 H 0.6917 0.8025 0.8052
C6 C 0.2530(4) 0.8370(2) 0.7297(2)
H7 H 0.1496 0.8442 0.7930
H8 H 0.3613 0.9134 0.7006
C7 C 0.1046(4) 0.8415(2) 0.6293(2)
H9 H 0.0120 0.9228 0.6009
H10 H -0.0051 0.7657 0.6572
C8 C 0.2645(4) 0.8375(2) 0.5295(2)
H11 H 0.3702 0.9150 0.5011
H12 H 0.1682 0.8431 0.4632
C9 C 0.4115(4) 0.7137(2) 0.5658(2)
C10 C 0.2642(4) 0.5949(2) 0.5756(2)
H13 H 0.3571 0.5152 0.6091
H14 H 0.2165 0.6061 0.4971
H15 H 0.1250 0.5873 0.6269
C11 C 0.6156(4) 0.7350(3) 0.4757(2)
H16 H 0.7191 0.8044 0.4765
H17 H 0.5551 0.7606 0.3969
H18 H 0.7034 0.6536 0.4962
N1 N 0.5128(3) 0.68483(18) 0.68301(17)
O1 O 0.6764(3) 0.59922(16) 0.71231(15)
loop_
_geom_bond_atom_site_label_1
_geom_bond_atom_site_label_2
_geom_bond_site_symmetry_1
_geom_bond_site_symmetry_2
C1 C2 1_555 1_555
C2 F3 1_555 1_555
F1 C1 1_555 1_555
F2 C1 1_555 1_555
F4 C2 1_555 1_555
I1 C1 1_555 1_555
C3 C4 1_555 1_555
C4 H1 1_555 1_555
H2 C4 1_555 1_555
H3 C4 1_555 1_555
C5 C3 1_555 1_555
H4 C5 1_555 1_555
H5 C5 1_555 1_555
H6 C5 1_555 1_555
C6 C3 1_555 1_555
H7 C6 1_555 1_555
H8 C6 1_555 1_555
C7 C6 1_555 1_555
H9 C7 1_555 1_555
H10 C7 1_555 1_555
C8 C7 1_555 1_555
H11 C8 1_555 1_555
H12 C8 1_555 1_555
C9 C8 1_555 1_555
C10 C9 1_555 1_555
H13 C10 1_555 1_555
H14 C10 1_555 1_555
H15 C10 1_555 1_555
C11 C9 1_555 1_555
H16 C11 1_555 1_555
H17 C11 1_555 1_555
H18 C11 1_555 1_555
N1 C3 1_555 1_555
O1 N1 1_555 1_555
C1A C2A 1_555 1_555
C2A C2 1_555 1_555
F1A C1A 1_555 1_555
F2A C1A 1_555 1_555
F3A C2A 1_555 1_555
F4A C2A 1_555 1_555
I1A C1A 1_555 1_555
C9 N1 1_555 1_555

#END
