
#######################################################################
#
#                 Cambridge Crystallographic Data Centre
#                                CCDC 
#
#######################################################################
#
# If this CIF has been generated from an entry in the Cambridge 
# Structural Database, then it will include bibliographic, chemical, 
# crystal, experimental, refinement or atomic coordinate data resulting 
# from the CCDC's data processing and validation procedures.
#
#######################################################################

data_LULSER
_chemical_formula_moiety         'C21 H15 N5 O1'
_chemical_name_systematic        
6-Amino-4-(4-cyanophenyl)-3-methyl-1-phenyl-1,4-dihydropyrano[2,3-c]pyrazole-5-carbonitrile
_symmetry_cell_setting           triclinic
_symmetry_space_group_name_H-M   'P -1'
_symmetry_Int_Tables_number      2
_space_group_name_Hall           '-P 1'
loop_
_symmetry_equiv_pos_site_id
_symmetry_equiv_pos_as_xyz
1 x,y,z
2 -x,-y,-z
_cell_length_a                   12.911(2)
_cell_length_b                   13.687(3)
_cell_length_c                   14.180(2)
_cell_angle_alpha                71.564(2)
_cell_angle_beta                 72.694(3)
_cell_angle_gamma                69.926(2)
_cell_volume                     2182
_cell_formula_units_Z            4
_exptl_crystal_recrystallization_method ethanol
loop_
_atom_site_label
_atom_site_type_symbol
_atom_site_fract_x
_atom_site_fract_y
_atom_site_fract_z
N1 N 0.5063(3) 0.9887(3) 0.1660(2)
N2 N 0.5850(4) 0.8918(3) 0.1596(3)
N3 N 0.1484(3) 1.1088(3) 0.3377(3)
H1 H 0.0853 1.1020 0.3780
H2 H 0.1567 1.1716 0.3066
N4 N 0.0559(3) 0.8798(3) 0.4860(3)
N5 N 0.4976(5) 0.5297(4) 0.7984(4)
O1 O 0.3217(3) 1.0532(2) 0.2552(2)
C1 C 0.2328(4) 1.0226(4) 0.3237(3)
C2 C 0.2349(4) 0.9188(3) 0.3658(3)
C3 C 0.3357(4) 0.8217(3) 0.3529(3)
H5 H 0.3147 0.7757 0.3254
C4 C 0.4275(4) 0.8647(4) 0.2735(3)
C5 C 0.4132(4) 0.9705(3) 0.2354(3)
C6 C 0.5342(4) 0.8198(4) 0.2265(4)
C7 C 0.5970(5) 0.7009(4) 0.2363(4)
H6 H 0.6706 0.6938 0.1925
H7 H 0.5554 0.6667 0.2172
H8 H 0.6044 0.6678 0.3055
C8 C 0.1341(5) 0.8978(3) 0.4313(3)
C9 C 0.3703(4) 0.7565(3) 0.4522(3)
C10 C 0.4089(4) 0.8001(4) 0.5050(3)
H9 H 0.4143 0.8700 0.4786
C11 C 0.4394(4) 0.7437(4) 0.5952(3)
H10 H 0.4641 0.7749 0.6308
C12 C 0.4331(4) 0.6397(4) 0.6327(4)
C13 C 0.3929(5) 0.5960(4) 0.5818(4)
H11 H 0.3870 0.5262 0.6084
C14 C 0.3609(4) 0.6547(4) 0.4908(3)
H12 H 0.3331 0.6249 0.4564
C15 C 0.4670(5) 0.5788(4) 0.7251(4)
C16 C 0.5294(4) 1.0840(4) 0.1008(3)
C17 C 0.4873(5) 1.1780(4) 0.1320(4)
H13 H 0.4419 1.1803 0.1964
C18 C 0.5132(5) 1.2684(5) 0.0665(5)
H14 H 0.4867 1.3317 0.0882
C19 C 0.5761(6) 1.2685(6) -0.0286(5)
H15 H 0.5883 1.3319 -0.0732
C20 C 0.6217(6) 1.1739(6) -0.0583(4)
H16 H 0.6708 1.1714 -0.1211
C21 C 0.5945(5) 1.0822(5) 0.0054(3)
H17 H 0.6205 1.0191 -0.0167
N6 N 1.0487(3) 0.7133(3) 0.3656(3)
N7 N 1.1061(4) 0.7438(4) 0.2654(3)
N8 N 0.6921(3) 0.8229(3) 0.5511(2)
H3 H 0.6226 0.8602 0.5584
H4 H 0.7163 0.7756 0.6021
N9 N 0.5324(4) 1.0262(3) 0.3774(3)
N10 N 0.8243(5) 1.4568(4) 0.1654(4)
O2 O 0.8673(3) 0.7696(2) 0.4647(2)
C22 C 0.7624(4) 0.8385(3) 0.4604(3)
C23 C 0.7375(4) 0.9098(3) 0.3725(3)
C24 C 0.8206(4) 0.9334(3) 0.2725(3)
H18 H 0.7957 0.9231 0.2183
C25 C 0.9294(4) 0.8506(4) 0.2879(4)
C26 C 0.9456(4) 0.7800(3) 0.3743(3)
C27 C 1.0366(5) 0.8262(4) 0.2224(4)
C28 C 1.0681(5) 0.8802(5) 0.1117(4)
H19 H 1.1368 0.8357 0.0802
H20 H 1.0788 0.9481 0.1059
H21 H 1.0089 0.8911 0.0785
C29 C 0.6244(5) 0.9715(3) 0.3781(3)
C30 C 0.8248(4) 1.0488(3) 0.2472(3)
C31 C 0.7814(4) 1.1217(4) 0.1682(3)
H22 H 0.7519 1.1001 0.1282
C32 C 0.7809(5) 1.2273(4) 0.1470(4)
H23 H 0.7498 1.2773 0.0937
C33 C 0.8263(4) 1.2581(4) 0.2044(4)
C34 C 0.8696(4) 1.1860(4) 0.2842(4)
H24 H 0.8992 1.2076 0.3240
C35 C 0.8689(4) 1.0810(4) 0.3051(4)
H25 H 0.8988 1.0314 0.3591
C36 C 0.8266(5) 1.3685(5) 0.1841(4)
C37 C 1.1002(5) 0.6215(4) 0.4313(5)
C38 C 1.0597(5) 0.6019(4) 0.5343(5)
H26 H 0.9968 0.6509 0.5619
C39 C 1.1106(7) 0.5118(5) 0.5960(6)
H27 H 1.0833 0.5000 0.6659
C40 C 1.2018(6) 0.4375(5) 0.5572(7)
H28 H 1.2350 0.3744 0.5998
C41 C 1.2419(6) 0.4576(5) 0.4571(7)
H29 H 1.3054 0.4087 0.4302
C42 C 1.1922(5) 0.5480(4) 0.3930(5)
H30 H 1.2211 0.5595 0.3232
loop_
_geom_bond_atom_site_label_1
_geom_bond_atom_site_label_2
_geom_bond_site_symmetry_1
_geom_bond_site_symmetry_2
N1 N2 1_555 1_555
N2 C6 1_555 1_555
N3 H1 1_555 1_555
H2 N3 1_555 1_555
N4 C8 1_555 1_555
N5 C15 1_555 1_555
N6 N7 1_555 1_555
N7 C27 1_555 1_555
N8 H3 1_555 1_555
H4 N8 1_555 1_555
N9 C29 1_555 1_555
N10 C36 1_555 1_555
O1 C1 1_555 1_555
O2 C22 1_555 1_555
C1 N3 1_555 1_555
C2 C1 1_555 1_555
C3 C2 1_555 1_555
H5 C3 1_555 1_555
C4 C3 1_555 1_555
C5 N1 1_555 1_555
C6 C4 1_555 1_555
C7 C6 1_555 1_555
H6 C7 1_555 1_555
H7 C7 1_555 1_555
H8 C7 1_555 1_555
C8 C2 1_555 1_555
C9 C3 1_555 1_555
C10 C9 1_555 1_555
H9 C10 1_555 1_555
C11 C10 1_555 1_555
H10 C11 1_555 1_555
C12 C11 1_555 1_555
C13 C12 1_555 1_555
H11 C13 1_555 1_555
C14 C9 1_555 1_555
H12 C14 1_555 1_555
C15 C12 1_555 1_555
C16 N1 1_555 1_555
C17 C16 1_555 1_555
H13 C17 1_555 1_555
C18 C17 1_555 1_555
H14 C18 1_555 1_555
C19 C18 1_555 1_555
H15 C19 1_555 1_555
C20 C19 1_555 1_555
H16 C20 1_555 1_555
C21 C16 1_555 1_555
H17 C21 1_555 1_555
C22 N8 1_555 1_555
C23 C22 1_555 1_555
C24 C23 1_555 1_555
H18 C24 1_555 1_555
C25 C24 1_555 1_555
C26 N6 1_555 1_555
C27 C25 1_555 1_555
C28 C27 1_555 1_555
H19 C28 1_555 1_555
H20 C28 1_555 1_555
H21 C28 1_555 1_555
C29 C23 1_555 1_555
C30 C24 1_555 1_555
C31 C30 1_555 1_555
H22 C31 1_555 1_555
C32 C31 1_555 1_555
H23 C32 1_555 1_555
C33 C32 1_555 1_555
C34 C33 1_555 1_555
H24 C34 1_555 1_555
C35 C30 1_555 1_555
H25 C35 1_555 1_555
C36 C33 1_555 1_555
C37 N6 1_555 1_555
C38 C37 1_555 1_555
H26 C38 1_555 1_555
C39 C38 1_555 1_555
H27 C39 1_555 1_555
C40 C39 1_555 1_555
H28 C40 1_555 1_555
C41 C40 1_555 1_555
H29 C41 1_555 1_555
C42 C37 1_555 1_555
H30 C42 1_555 1_555
O1 C5 1_555 1_555
O2 C26 1_555 1_555
C4 C5 1_555 1_555
C13 C14 1_555 1_555
C20 C21 1_555 1_555
C25 C26 1_555 1_555
C34 C35 1_555 1_555
C41 C42 1_555 1_555

#END
