
#######################################################################
#
#                 Cambridge Crystallographic Data Centre
#                                CCDC 
#
#######################################################################
#
# If this CIF has been generated from an entry in the Cambridge 
# Structural Database, then it will include bibliographic, chemical, 
# crystal, experimental, refinement or atomic coordinate data resulting 
# from the CCDC's data processing and validation procedures.
#
#######################################################################

data_LULSIV
_chemical_formula_moiety         'C16 H17 N1 O2'
_chemical_name_systematic        
5-(2-Furyl)-3,4,4a,5,6,10b-hexahydro-2H-pyrano[3,2-c]quinoline
_symmetry_cell_setting           monoclinic
_symmetry_space_group_name_H-M   'P 21/c'
_symmetry_Int_Tables_number      14
_space_group_name_Hall           '-P 2ybc'
loop_
_symmetry_equiv_pos_site_id
_symmetry_equiv_pos_as_xyz
1 x,y,z
2 -x,1/2+y,1/2-z
3 -x,-y,-z
4 x,1/2-y,1/2+z
_cell_length_a                   9.595(2)
_cell_length_b                   9.5579(19)
_cell_length_c                   14.164(3)
_cell_angle_alpha                90
_cell_angle_beta                 95.692(4)
_cell_angle_gamma                90
_cell_volume                     1292.55
_exptl_crystal_colour            colorless
_exptl_crystal_description       block
_cell_formula_units_Z            4
loop_
_atom_site_label
_atom_site_type_symbol
_atom_site_fract_x
_atom_site_fract_y
_atom_site_fract_z
O1 O 0.59128(12) 0.79861(13) 0.61268(8)
O2 O 0.94189(13) 0.64653(13) 0.93140(9)
N1 N 0.59536(15) 0.79846(16) 0.90836(10)
C1 C 0.47025(17) 0.81798(16) 0.85217(11)
C2 C 0.46206(16) 0.79766(16) 0.75366(11)
C3 C 0.33515(18) 0.82321(18) 0.69973(12)
H1 H 0.3290 0.8096 0.6337
C4 C 0.21807(18) 0.86800(19) 0.74057(13)
H2 H 0.1337 0.8857 0.7028
C5 C 0.22683(18) 0.88636(19) 0.83779(13)
H3 H 0.1474 0.9153 0.8665
C6 C 0.35124(18) 0.86254(18) 0.89314(12)
H4 H 0.3560 0.8764 0.9591
C7 C 0.58813(17) 0.74485(17) 0.70735(10)
H5 H 0.5786 0.6420 0.7019
C8 C 0.72533(17) 0.77395(17) 0.76914(10)
H6 H 0.8003 0.7183 0.7438
C9 C 0.70879(17) 0.72214(17) 0.87036(11)
H7 H 0.6851 0.6213 0.8678
C10 C 0.76588(18) 0.92798(17) 0.76578(12)
H8 H 0.6998 0.9841 0.7983
H9 H 0.8596 0.9413 0.7988
C11 C 0.76451(19) 0.9768(2) 0.66333(12)
H10 H 0.7825 1.0777 0.6618
H11 H 0.8386 0.9290 0.6329
C12 C 0.62418(19) 0.94515(19) 0.61013(12)
H12 H 0.5514 0.9985 0.6382
H13 H 0.6248 0.9750 0.5440
C13 C 0.83770(17) 0.74243(17) 0.93647(11)
C14 C 0.8772(2) 0.8360(2) 1.00339(13)
H14 H 0.8243 0.9128 1.0211
C15 C 1.0140(2) 0.7988(2) 1.04327(13)
H15 H 1.0690 0.8456 1.0920
C16 C 1.04810(19) 0.6851(2) 0.99791(13)
H16 H 1.1336 0.6373 1.0097
H17 H 0.587(2) 0.7853(19) 0.9687(14)
loop_
_geom_bond_atom_site_label_1
_geom_bond_atom_site_label_2
_geom_bond_site_symmetry_1
_geom_bond_site_symmetry_2
O1 C7 1_555 1_555
O2 C13 1_555 1_555
N1 C1 1_555 1_555
C1 C2 1_555 1_555
C2 C3 1_555 1_555
C3 H1 1_555 1_555
C4 C3 1_555 1_555
H2 C4 1_555 1_555
C5 C4 1_555 1_555
H3 C5 1_555 1_555
C6 C1 1_555 1_555
H4 C6 1_555 1_555
C7 C2 1_555 1_555
H5 C7 1_555 1_555
C8 C7 1_555 1_555
H6 C8 1_555 1_555
C9 N1 1_555 1_555
H7 C9 1_555 1_555
C10 C8 1_555 1_555
H8 C10 1_555 1_555
H9 C10 1_555 1_555
C11 C10 1_555 1_555
H10 C11 1_555 1_555
H11 C11 1_555 1_555
C12 O1 1_555 1_555
H12 C12 1_555 1_555
H13 C12 1_555 1_555
C13 C9 1_555 1_555
C14 C13 1_555 1_555
H14 C14 1_555 1_555
C15 C14 1_555 1_555
H15 C15 1_555 1_555
C16 O2 1_555 1_555
H16 C16 1_555 1_555
H17 N1 1_555 1_555
C5 C6 1_555 1_555
C8 C9 1_555 1_555
C11 C12 1_555 1_555
C15 C16 1_555 1_555

#END
