
#######################################################################
#
#                 Cambridge Crystallographic Data Centre
#                                CCDC 
#
#######################################################################
#
# If this CIF has been generated from an entry in the Cambridge 
# Structural Database, then it will include bibliographic, chemical, 
# crystal, experimental, refinement or atomic coordinate data resulting 
# from the CCDC's data processing and validation procedures.
#
#######################################################################

data_LULYIB
_chemical_formula_moiety         'C30 H66 Ca2 N6 Si4'
_chemical_name_systematic        
bis(\m~2~-\h^5^-2-(Diethylaminomethyl)pyrrole)-bis(bis(trimethylsilyl)amido)-di-calcium
_symmetry_cell_setting           monoclinic
_symmetry_space_group_name_H-M   'P 21/n'
_symmetry_Int_Tables_number      14
_space_group_name_Hall           '-P 2yn'
loop_
_symmetry_equiv_pos_site_id
_symmetry_equiv_pos_as_xyz
1 x,y,z
2 1/2-x,1/2+y,1/2-z
3 -x,-y,-z
4 1/2+x,1/2-y,1/2+z
_cell_length_a                   9.8626(6)
_cell_length_b                   17.5189(10)
_cell_length_c                   12.1437(7)
_cell_angle_alpha                90
_cell_angle_beta                 92.749(2)
_cell_angle_gamma                90
_cell_volume                     2095.8
_exptl_crystal_colour            colorless
_exptl_crystal_description       block
_cell_formula_units_Z            2
loop_
_atom_site_label
_atom_site_type_symbol
_atom_site_fract_x
_atom_site_fract_y
_atom_site_fract_z
C1 C 0.86441(16) -0.11703(9) 1.01007(13)
H1 H 0.8661 -0.1529 0.9461
C2 C 0.84462(17) -0.13997(10) 1.11756(13)
H2 H 0.8276 -0.1933 1.1429
C3 C 0.82333(16) -0.07237(10) 1.17775(13)
H3 H 0.7882 -0.0693 1.2535
C4 C 0.83083(16) -0.01229(10) 1.10358(12)
C5 C 0.81644(19) 0.07150(10) 1.12489(13)
C6 C 0.77474(19) 0.19755(10) 1.04637(14)
H4 H 0.7293 0.2243 0.9830
H5 H 0.8729 0.2091 1.0451
C7 C 0.7218(3) 0.23091(12) 1.15156(18)
H6 H 0.6250 0.2190 1.1555
H7 H 0.7342 0.2864 1.1515
H8 H 0.7719 0.2088 1.2155
C8 C 0.61159(17) 0.09220(11) 1.01281(15)
H9 H 0.5619 0.1109 1.0764
H10 H 0.6047 0.0358 1.0119
C9 C 0.54323(18) 0.12315(11) 0.90788(16)
H11 H 0.5412 0.1790 0.9111
H12 H 0.4502 0.1035 0.9000
H13 H 0.5940 0.1069 0.8445
C10 C 1.1652(2) -0.22538(11) 1.26107(16)
H14 H 1.2226 -0.2247 1.1974
H15 H 1.1733 -0.2751 1.2979
H16 H 1.0704 -0.2168 1.2361
C11 C 1.1215(2) -0.16368(12) 1.48624(16)
H17 H 1.0258 -0.1513 1.4693
H18 H 1.1293 -0.2172 1.5089
H19 H 1.1571 -0.1308 1.5462
C12 C 1.4029(2) -0.16838(12) 1.40453(18)
H20 H 1.4397 -0.1259 1.4492
H21 H 1.4075 -0.2154 1.4482
H22 H 1.4563 -0.1746 1.3391
C13 C 1.12372(19) 0.09886(10) 1.30440(15)
H23 H 1.0314 0.0837 1.3214
H24 H 1.1468 0.1470 1.3418
H25 H 1.1289 0.1055 1.2246
C14 C 1.2497(2) 0.02829(12) 1.50805(14)
H26 H 1.3141 -0.0094 1.5394
H27 H 1.2779 0.0796 1.5319
H28 H 1.1589 0.0175 1.5335
C15 C 1.4168(2) 0.05290(12) 1.30692(18)
H29 H 1.4132 0.0576 1.2264
H30 H 1.4415 0.1022 1.3402
H31 H 1.4848 0.0146 1.3299
Ca1 Ca 1.09491(3) -0.064450(18) 1.12514(2)
N1 N 0.85810(13) -0.03905(8) 0.99992(10)
N2 N 0.75661(13) 0.11380(8) 1.02914(10)
N3 N 1.19707(14) -0.06217(7) 1.29815(10)
Si1 Si 1.22130(5) -0.14777(3) 1.36063(4)
Si2 Si 1.24640(5) 0.02278(3) 1.35321(3)
H32 H 0.7612(18) 0.0780(10) 1.1902(15)
H33 H 0.8992(19) 0.0933(10) 1.1418(14)
C1B C 1.13559(16) 0.11703(9) 0.98993(13)
H1B H 1.1339 0.1529 1.0539
C2B C 1.15538(17) 0.13997(10) 0.88244(13)
H2B H 1.1724 0.1933 0.8571
C3B C 1.17667(16) 0.07237(10) 0.82225(13)
H3B H 1.2118 0.0693 0.7465
C4B C 1.16917(16) 0.01229(10) 0.89642(12)
C5B C 1.18356(19) -0.07150(10) 0.87511(13)
C6B C 1.22526(19) -0.19755(10) 0.95363(14)
H4B H 1.2707 -0.2243 1.0170
H5B H 1.1271 -0.2091 0.9549
C7B C 1.2782(3) -0.23091(12) 0.84844(18)
H6B H 1.3750 -0.2190 0.8445
H7B H 1.2658 -0.2864 0.8485
H8B H 1.2281 -0.2088 0.7845
C8B C 1.38841(17) -0.09220(11) 0.98719(15)
H9B H 1.4381 -0.1109 0.9236
H10B H 1.3953 -0.0358 0.9881
C9B C 1.45677(18) -0.12315(11) 1.09212(16)
H11B H 1.4588 -0.1790 1.0889
H12B H 1.5498 -0.1035 1.1000
H13B H 1.4060 -0.1069 1.1555
C10B C 0.8348(2) 0.22538(11) 0.73893(16)
H14B H 0.7774 0.2247 0.8026
H15B H 0.8267 0.2751 0.7021
H16B H 0.9296 0.2168 0.7639
C11B C 0.8785(2) 0.16368(12) 0.51376(16)
H17B H 0.9742 0.1513 0.5307
H18B H 0.8707 0.2172 0.4911
H19B H 0.8429 0.1308 0.4538
C12B C 0.5971(2) 0.16838(12) 0.59547(18)
H20B H 0.5603 0.1259 0.5508
H21B H 0.5925 0.2154 0.5518
H22B H 0.5437 0.1746 0.6609
C13B C 0.87628(19) -0.09886(10) 0.69560(15)
H23B H 0.9686 -0.0837 0.6786
H24B H 0.8532 -0.1470 0.6582
H25B H 0.8711 -0.1055 0.7754
C14B C 0.7503(2) -0.02829(12) 0.49195(14)
H26B H 0.6859 0.0094 0.4606
H27B H 0.7221 -0.0796 0.4681
H28B H 0.8411 -0.0175 0.4665
C15B C 0.5832(2) -0.05290(12) 0.69308(18)
H29B H 0.5868 -0.0576 0.7736
H30B H 0.5585 -0.1022 0.6598
H31B H 0.5152 -0.0146 0.6701
Ca1B Ca 0.90509(3) 0.064450(18) 0.87486(2)
N1B N 1.14190(13) 0.03905(8) 1.00008(10)
N2B N 1.24339(13) -0.11380(8) 0.97086(10)
N3B N 0.80293(14) 0.06217(7) 0.70185(10)
Si1B Si 0.77870(5) 0.14777(3) 0.63937(4)
Si2B Si 0.75360(5) -0.02278(3) 0.64679(3)
H32B H 1.2388(18) -0.0780(10) 0.8098(15)
H33B H 1.1008(19) -0.0933(10) 0.8582(14)
loop_
_geom_bond_atom_site_label_1
_geom_bond_atom_site_label_2
_geom_bond_site_symmetry_1
_geom_bond_site_symmetry_2
C1 H1 1_555 1_555
C2 C1 1_555 1_555
H2 C2 1_555 1_555
C3 C2 1_555 1_555
H3 C3 1_555 1_555
C4 C3 1_555 1_555
C5 C4 1_555 1_555
C6 H4 1_555 1_555
H5 C6 1_555 1_555
C7 C6 1_555 1_555
H6 C7 1_555 1_555
H7 C7 1_555 1_555
H8 C7 1_555 1_555
C8 H9 1_555 1_555
H10 C8 1_555 1_555
C9 C8 1_555 1_555
H11 C9 1_555 1_555
H12 C9 1_555 1_555
H13 C9 1_555 1_555
C10 H14 1_555 1_555
H15 C10 1_555 1_555
H16 C10 1_555 1_555
C11 H17 1_555 1_555
H18 C11 1_555 1_555
H19 C11 1_555 1_555
C12 H20 1_555 1_555
H21 C12 1_555 1_555
H22 C12 1_555 1_555
C13 H23 1_555 1_555
H24 C13 1_555 1_555
H25 C13 1_555 1_555
C14 H26 1_555 1_555
H27 C14 1_555 1_555
H28 C14 1_555 1_555
C15 H29 1_555 1_555
H30 C15 1_555 1_555
H31 C15 1_555 1_555
Ca1 C1 1_555 1_555
N1 C1 1_555 1_555
N2 C5 1_555 1_555
N3 Ca1 1_555 1_555
Si1 C10 1_555 1_555
Si2 C13 1_555 1_555
H32 C5 1_555 1_555
H33 C5 1_555 1_555
C1B H1B 1_555 1_555
C2B C1B 1_555 1_555
H2B C2B 1_555 1_555
C3B C2B 1_555 1_555
H3B C3B 1_555 1_555
C4B C3B 1_555 1_555
C5B C4B 1_555 1_555
C6B H4B 1_555 1_555
H5B C6B 1_555 1_555
C7B C6B 1_555 1_555
H6B C7B 1_555 1_555
H7B C7B 1_555 1_555
H8B C7B 1_555 1_555
C8B H9B 1_555 1_555
H10B C8B 1_555 1_555
C9B C8B 1_555 1_555
H11B C9B 1_555 1_555
H12B C9B 1_555 1_555
H13B C9B 1_555 1_555
C10B H14B 1_555 1_555
H15B C10B 1_555 1_555
H16B C10B 1_555 1_555
C11B H17B 1_555 1_555
H18B C11B 1_555 1_555
H19B C11B 1_555 1_555
C12B H20B 1_555 1_555
H21B C12B 1_555 1_555
H22B C12B 1_555 1_555
C13B H23B 1_555 1_555
H24B C13B 1_555 1_555
H25B C13B 1_555 1_555
C14B H26B 1_555 1_555
H27B C14B 1_555 1_555
H28B C14B 1_555 1_555
C15B H29B 1_555 1_555
H30B C15B 1_555 1_555
H31B C15B 1_555 1_555
Ca1B N1 1_555 1_555
N1B Ca1 1_555 1_555
N2B Ca1 1_555 1_555
N3B Ca1B 1_555 1_555
Si1B C10B 1_555 1_555
Si2B C13B 1_555 1_555
H32B C5B 1_555 1_555
H33B C5B 1_555 1_555
C2 Ca1 1_555 1_555
C3 Ca1 1_555 1_555
C4 Ca1 1_555 1_555
C4 N1 1_555 1_555
C6 N2 1_555 1_555
C8 N2 1_555 1_555
C11 Si1 1_555 1_555
C12 Si1 1_555 1_555
C14 Si2 1_555 1_555
C15 Si2 1_555 1_555
Ca1 N1 1_555 1_555
N2 Ca1B 1_555 1_555
N3 Si1 1_555 1_555
N3 Si2 1_555 1_555
C1B Ca1B 1_555 1_555
C1B N1B 1_555 1_555
C2B Ca1B 1_555 1_555
C3B Ca1B 1_555 1_555
C4B Ca1B 1_555 1_555
C4B N1B 1_555 1_555
C5B N2B 1_555 1_555
C6B N2B 1_555 1_555
C8B N2B 1_555 1_555
C11B Si1B 1_555 1_555
C12B Si1B 1_555 1_555
C14B Si2B 1_555 1_555
C15B Si2B 1_555 1_555
Ca1B N1B 1_555 1_555
N3B Si1B 1_555 1_555
N3B Si2B 1_555 1_555

#END
