
#######################################################################
#
#                 Cambridge Crystallographic Data Centre
#                                CCDC 
#
#######################################################################
#
# If this CIF has been generated from an entry in the Cambridge 
# Structural Database, then it will include bibliographic, chemical, 
# crystal, experimental, refinement or atomic coordinate data resulting 
# from the CCDC's data processing and validation procedures.
#
#######################################################################

data_LULZAU
_chemical_formula_moiety         'C68 H96 Ca2 N4 O4,2(C7 H8)'
_chemical_name_systematic        
'bis(\m~2~-4-((2,6-Diisopropylphenyl)imino)pent-2-en-2-olato)-bis(4-((2,6-diisopropylphenyl)imino)pent-2-en-2-olato)-di-calcium toluene solvate'
_symmetry_cell_setting           triclinic
_symmetry_space_group_name_H-M   'P -1'
_symmetry_Int_Tables_number      2
_space_group_name_Hall           '-P 1'
loop_
_symmetry_equiv_pos_site_id
_symmetry_equiv_pos_as_xyz
1 x,y,z
2 -x,-y,-z
_cell_length_a                   11.5199(8)
_cell_length_b                   12.8966(9)
_cell_length_c                   14.4381(10)
_cell_angle_alpha                100.6850(10)
_cell_angle_beta                 107.6900(10)
_cell_angle_gamma                103.7830(10)
_cell_volume                     1906.16
_cell_formula_units_Z            1
loop_
_atom_site_label
_atom_site_type_symbol
_atom_site_fract_x
_atom_site_fract_y
_atom_site_fract_z
Ca1 Ca 0.13187(3) 0.02381(2) 0.12083(2)
N1 N 0.21342(11) 0.17921(10) 0.27219(10)
N2 N 0.11504(12) -0.15653(10) 0.16331(9)
O1 O 0.34080(10) 0.05906(9) 0.16305(8)
O2 O -0.08336(9) -0.07231(9) 0.03190(8)
C1 C 0.55800(15) 0.08066(15) 0.25206(14)
H1 H 0.5439 0.0004 0.2342
H2 H 0.6222 0.1154 0.3206
H3 H 0.5887 0.1124 0.2040
C2 C 0.43374(14) 0.10188(12) 0.24796(12)
C3 C 0.42911(14) 0.16717(13) 0.33341(12)
H4 H 0.5022 0.1859 0.3936
C4 C 0.32885(15) 0.20998(12) 0.34295(12)
C5 C 0.36640(17) 0.29690(16) 0.44202(13)
H5 H 0.4308 0.3638 0.4448
H6 H 0.4023 0.2677 0.4985
H7 H 0.2904 0.3155 0.4469
C6 C 0.12867(14) 0.24148(12) 0.28467(11)
C7 C 0.02024(16) 0.19200(14) 0.30542(13)
C8 C -0.06299(18) 0.25267(16) 0.31463(14)
H8 H -0.1367 0.2201 0.3285
C9 C -0.04060(19) 0.35871(16) 0.30405(15)
H9 H -0.0975 0.3993 0.3118
C10 C 0.06471(19) 0.40551(14) 0.28214(13)
H10 H 0.0792 0.4785 0.2744
C11 C 0.15060(16) 0.34887(13) 0.27094(12)
C12 C -0.00102(18) 0.07846(15) 0.32482(16)
H11 H 0.0346 0.0341 0.2827
C13 C -0.1411(2) 0.01337(18) 0.2969(2)
H12 H -0.1753 0.0496 0.3436
H13 H -0.1483 -0.0626 0.3016
H14 H -0.1900 0.0111 0.2275
C14 C 0.0740(2) 0.0913(2) 0.43524(19)
H15 H 0.1648 0.1308 0.4518
H16 H 0.0652 0.0177 0.4466
H17 H 0.0403 0.1337 0.4785
C15 C 0.26165(17) 0.40332(13) 0.24201(14)
H18 H 0.3175 0.3545 0.2439
C16 C 0.2114(2) 0.4132(2) 0.13448(17)
H19 H 0.1622 0.3391 0.0876
H20 H 0.2838 0.4463 0.1159
H21 H 0.1558 0.4604 0.1308
C17 C 0.3434(2) 0.51749(17) 0.3151(2)
H22 H 0.2926 0.5687 0.3099
H23 H 0.4187 0.5460 0.2979
H24 H 0.3716 0.5111 0.3845
C18 C -0.29601(16) -0.15367(19) 0.02615(17)
H25 H -0.3037 -0.0793 0.0451
H26 H -0.3390 -0.2018 0.0590
H27 H -0.3363 -0.1850 -0.0475
C19 C -0.15604(14) -0.14595(13) 0.05977(12)
C20 C -0.11611(15) -0.21676(13) 0.11135(13)
H28 H -0.1805 -0.2637 0.1268
C21 C 0.00815(15) -0.23221(12) 0.14648(12)
C22 C 0.00196(17) -0.34671(13) 0.16083(15)
H29 H 0.0891 -0.3517 0.1858
H30 H -0.0484 -0.4033 0.0960
H31 H -0.0388 -0.3592 0.2100
C23 C 0.23442(14) -0.17960(11) 0.20244(12)
C24 C 0.29573(15) -0.20988(12) 0.13623(12)
C25 C 0.41342(16) -0.22737(14) 0.17615(14)
H32 H 0.4553 -0.2490 0.1320
C26 C 0.47033(16) -0.21391(14) 0.27833(14)
H33 H 0.5511 -0.2255 0.3042
C27 C 0.40973(16) -0.18366(13) 0.34268(13)
H34 H 0.4495 -0.1746 0.4130
C28 C 0.29092(15) -0.16596(12) 0.30697(12)
C29 C 0.23426(17) -0.23037(15) 0.02300(13)
H35 H 0.1596 -0.2012 0.0102
C30 C 0.3245(2) -0.17097(17) -0.02290(15)
H36 H 0.3617 -0.0920 0.0146
H37 H 0.2764 -0.1786 -0.0939
H38 H 0.3934 -0.2042 -0.0188
C31 C 0.1823(2) -0.35532(18) -0.02906(16)
H39 H 0.2533 -0.3867 -0.0163
H40 H 0.1405 -0.3682 -0.1021
H41 H 0.1199 -0.3912 -0.0022
C32 C 0.22825(16) -0.13500(14) 0.38228(12)
H42 H 0.1496 -0.1174 0.3461
C33 C 0.31736(18) -0.03337(14) 0.46948(13)
H43 H 0.3938 -0.0500 0.5073
H44 H 0.2725 -0.0139 0.5146
H45 H 0.3431 0.0292 0.4427
C34 C 0.1877(2) -0.23211(16) 0.42639(15)
H46 H 0.1270 -0.2972 0.3713
H47 H 0.1467 -0.2101 0.4738
H48 H 0.2637 -0.2507 0.4621
Ca1A Ca -0.13187(3) -0.02381(2) -0.12083(2)
N1A N -0.21342(11) -0.17921(10) -0.27219(10)
N2A N -0.11504(12) 0.15653(10) -0.16331(9)
O1A O -0.34080(10) -0.05906(9) -0.16305(8)
O2A O 0.08336(9) 0.07231(9) -0.03190(8)
C1A C -0.55800(15) -0.08066(15) -0.25206(14)
H1A H -0.5439 -0.0004 -0.2342
H2A H -0.6222 -0.1154 -0.3206
H3A H -0.5887 -0.1124 -0.2040
C2A C -0.43374(14) -0.10188(12) -0.24796(12)
C3A C -0.42911(14) -0.16717(13) -0.33341(12)
H4A H -0.5022 -0.1859 -0.3936
C4A C -0.32885(15) -0.20998(12) -0.34295(12)
C5A C -0.36640(17) -0.29690(16) -0.44202(13)
H5A H -0.4308 -0.3638 -0.4448
H6A H -0.4023 -0.2677 -0.4985
H7A H -0.2904 -0.3155 -0.4469
C6A C -0.12867(14) -0.24148(12) -0.28467(11)
C7A C -0.02024(16) -0.19200(14) -0.30542(13)
C8A C 0.06299(18) -0.25267(16) -0.31463(14)
H8A H 0.1367 -0.2201 -0.3285
C9A C 0.04060(19) -0.35871(16) -0.30405(15)
H9A H 0.0975 -0.3993 -0.3118
C10A C -0.06471(19) -0.40551(14) -0.28214(13)
H10A H -0.0792 -0.4785 -0.2744
C11A C -0.15060(16) -0.34887(13) -0.27094(12)
C12A C 0.00102(18) -0.07846(15) -0.32482(16)
H11A H -0.0346 -0.0341 -0.2827
C13A C 0.1411(2) -0.01337(18) -0.2969(2)
H12A H 0.1753 -0.0496 -0.3436
H13A H 0.1483 0.0626 -0.3016
H14A H 0.1900 -0.0111 -0.2275
C14A C -0.0740(2) -0.0913(2) -0.43524(19)
H15A H -0.1648 -0.1308 -0.4518
H16A H -0.0652 -0.0177 -0.4466
H17A H -0.0403 -0.1337 -0.4785
C15A C -0.26165(17) -0.40332(13) -0.24201(14)
H18A H -0.3175 -0.3545 -0.2439
C16A C -0.2114(2) -0.4132(2) -0.13448(17)
H19A H -0.1622 -0.3391 -0.0876
H20A H -0.2838 -0.4463 -0.1159
H21A H -0.1558 -0.4604 -0.1308
C17A C -0.3434(2) -0.51749(17) -0.3151(2)
H22A H -0.2926 -0.5687 -0.3099
H23A H -0.4187 -0.5460 -0.2979
H24A H -0.3716 -0.5111 -0.3845
C18A C 0.29601(16) 0.15367(19) -0.02615(17)
H25A H 0.3037 0.0793 -0.0451
H26A H 0.3390 0.2018 -0.0590
H27A H 0.3363 0.1850 0.0475
C19A C 0.15604(14) 0.14595(13) -0.05977(12)
C20A C 0.11611(15) 0.21676(13) -0.11135(13)
H28A H 0.1805 0.2637 -0.1268
C21A C -0.00815(15) 0.23221(12) -0.14648(12)
C22A C -0.00196(17) 0.34671(13) -0.16083(15)
H29A H -0.0891 0.3517 -0.1858
H30A H 0.0484 0.4033 -0.0960
H31A H 0.0388 0.3592 -0.2100
C23A C -0.23442(14) 0.17960(11) -0.20244(12)
C24A C -0.29573(15) 0.20988(12) -0.13623(12)
C25A C -0.41342(16) 0.22737(14) -0.17615(14)
H32A H -0.4553 0.2490 -0.1320
C26A C -0.47033(16) 0.21391(14) -0.27833(14)
H33A H -0.5511 0.2255 -0.3042
C27A C -0.40973(16) 0.18366(13) -0.34268(13)
H34A H -0.4495 0.1746 -0.4130
C28A C -0.29092(15) 0.16596(12) -0.30697(12)
C29A C -0.23426(17) 0.23037(15) -0.02300(13)
H35A H -0.1596 0.2012 -0.0102
C30A C -0.3245(2) 0.17097(17) 0.02290(15)
H36A H -0.3617 0.0920 -0.0146
H37A H -0.2764 0.1786 0.0939
H38A H -0.3934 0.2042 0.0188
C31A C -0.1823(2) 0.35532(18) 0.02906(16)
H39A H -0.2533 0.3867 0.0163
H40A H -0.1405 0.3682 0.1021
H41A H -0.1199 0.3912 0.0022
C32A C -0.22825(16) 0.13500(14) -0.38228(12)
H42A H -0.1496 0.1174 -0.3461
C33A C -0.31736(18) 0.03337(14) -0.46948(13)
H43A H -0.3938 0.0500 -0.5073
H44A H -0.2725 0.0139 -0.5146
H45A H -0.3431 -0.0292 -0.4427
C34A C -0.1877(2) 0.23211(16) -0.42639(15)
H46A H -0.1270 0.2972 -0.3713
H47A H -0.1467 0.2101 -0.4738
H48A H -0.2637 0.2507 -0.4621
C35 C 0.6558(4) 0.5168(4) 0.2338(3)
C36 C 0.6173(3) 0.4218(3) 0.2635(3)
H49 H 0.5480 0.3594 0.2171
C37 C 0.6802(4) 0.4181(3) 0.3610(3)
H50 H 0.6540 0.3532 0.3813
C38 C 0.7816(4) 0.5094(4) 0.4289(3)
H51 H 0.8246 0.5069 0.4956
C39 C 0.8201(4) 0.6044(3) 0.3992(4)
H52 H 0.8894 0.6668 0.4456
C40 C 0.7572(5) 0.6081(3) 0.3017(5)
H53 H 0.7835 0.6730 0.2814
C41 C 0.5794(10) 0.5108(10) 0.1240(4)
H54 H 0.6128 0.5812 0.1101
H55 H 0.4886 0.4974 0.1144
H56 H 0.5883 0.4500 0.0775
C42? C 0.6130(5) 0.4136(3) 0.2513(4)
C43? C 0.7043(5) 0.4822(4) 0.3436(4)
C44? C 0.7597(5) 0.5940(4) 0.3541(4)
C45? C 0.7239(7) 0.6373(3) 0.2723(5)
C46? C 0.6326(6) 0.5687(5) 0.1801(4)
C47? C 0.5772(5) 0.4568(5) 0.1695(4)
C48? C 0.7450(9) 0.4399(7) 0.4376(5)
H57? H 0.5752 0.3371 0.2441
H58? H 0.8221 0.6409 0.4172
H59? H 0.7618 0.7137 0.2795
H60? H 0.6081 0.5982 0.1242
H61? H 0.5148 0.4099 0.1064
H62? H 0.8104 0.5009 0.4943
H63? H 0.7804 0.3796 0.4228
H64? H 0.6702 0.4124 0.4555
loop_
_geom_bond_atom_site_label_1
_geom_bond_atom_site_label_2
_geom_bond_site_symmetry_1
_geom_bond_site_symmetry_2
Ca1 N1 1_555 1_555
N1 C4 1_555 1_555
N2 Ca1 1_555 1_555
O1 Ca1 1_555 1_555
O2 Ca1 1_555 1_555
C1 H1 1_555 1_555
H2 C1 1_555 1_555
H3 C1 1_555 1_555
C2 O1 1_555 1_555
C3 C2 1_555 1_555
H4 C3 1_555 1_555
C4 C3 1_555 1_555
C5 C4 1_555 1_555
H5 C5 1_555 1_555
H6 C5 1_555 1_555
H7 C5 1_555 1_555
C6 N1 1_555 1_555
C7 C6 1_555 1_555
C8 C7 1_555 1_555
H8 C8 1_555 1_555
C9 C8 1_555 1_555
H9 C9 1_555 1_555
C10 C9 1_555 1_555
H10 C10 1_555 1_555
C11 C6 1_555 1_555
C12 C7 1_555 1_555
H11 C12 1_555 1_555
C13 C12 1_555 1_555
H12 C13 1_555 1_555
H13 C13 1_555 1_555
H14 C13 1_555 1_555
C14 C12 1_555 1_555
H15 C14 1_555 1_555
H16 C14 1_555 1_555
H17 C14 1_555 1_555
C15 C11 1_555 1_555
H18 C15 1_555 1_555
C16 C15 1_555 1_555
H19 C16 1_555 1_555
H20 C16 1_555 1_555
H21 C16 1_555 1_555
C17 C15 1_555 1_555
H22 C17 1_555 1_555
H23 C17 1_555 1_555
H24 C17 1_555 1_555
C18 H25 1_555 1_555
H26 C18 1_555 1_555
H27 C18 1_555 1_555
C19 O2 1_555 1_555
C20 C19 1_555 1_555
H28 C20 1_555 1_555
C21 N2 1_555 1_555
C22 C21 1_555 1_555
H29 C22 1_555 1_555
H30 C22 1_555 1_555
H31 C22 1_555 1_555
C23 N2 1_555 1_555
C24 C23 1_555 1_555
C25 C24 1_555 1_555
H32 C25 1_555 1_555
C26 C25 1_555 1_555
H33 C26 1_555 1_555
C27 C26 1_555 1_555
H34 C27 1_555 1_555
C28 C23 1_555 1_555
C29 C24 1_555 1_555
H35 C29 1_555 1_555
C30 C29 1_555 1_555
H36 C30 1_555 1_555
H37 C30 1_555 1_555
H38 C30 1_555 1_555
C31 C29 1_555 1_555
H39 C31 1_555 1_555
H40 C31 1_555 1_555
H41 C31 1_555 1_555
C32 C28 1_555 1_555
H42 C32 1_555 1_555
C33 C32 1_555 1_555
H43 C33 1_555 1_555
H44 C33 1_555 1_555
H45 C33 1_555 1_555
C34 C32 1_555 1_555
H46 C34 1_555 1_555
H47 C34 1_555 1_555
H48 C34 1_555 1_555
C35 C36 1_555 1_555
C36 H49 1_555 1_555
C37 C36 1_555 1_555
H50 C37 1_555 1_555
C38 C37 1_555 1_555
H51 C38 1_555 1_555
C39 C38 1_555 1_555
H52 C39 1_555 1_555
C40 C35 1_555 1_555
H53 C40 1_555 1_555
C41 C35 1_555 1_555
H54 C41 1_555 1_555
H55 C41 1_555 1_555
H56 C41 1_555 1_555
Ca1A O2 1_555 1_555
N1A Ca1A 1_555 1_555
N2A Ca1A 1_555 1_555
O1A Ca1A 1_555 1_555
O2A Ca1 1_555 1_555
C1A H1A 1_555 1_555
H2A C1A 1_555 1_555
H3A C1A 1_555 1_555
C2A O1A 1_555 1_555
C3A C2A 1_555 1_555
H4A C3A 1_555 1_555
C4A N1A 1_555 1_555
C5A C4A 1_555 1_555
H5A C5A 1_555 1_555
H6A C5A 1_555 1_555
H7A C5A 1_555 1_555
C6A N1A 1_555 1_555
C7A C6A 1_555 1_555
C8A C7A 1_555 1_555
H8A C8A 1_555 1_555
C9A C8A 1_555 1_555
H9A C9A 1_555 1_555
C10A C9A 1_555 1_555
H10A C10A 1_555 1_555
C11A C6A 1_555 1_555
C12A C7A 1_555 1_555
H11A C12A 1_555 1_555
C13A C12A 1_555 1_555
H12A C13A 1_555 1_555
H13A C13A 1_555 1_555
H14A C13A 1_555 1_555
C14A C12A 1_555 1_555
H15A C14A 1_555 1_555
H16A C14A 1_555 1_555
H17A C14A 1_555 1_555
C15A C11A 1_555 1_555
H18A C15A 1_555 1_555
C16A C15A 1_555 1_555
H19A C16A 1_555 1_555
H20A C16A 1_555 1_555
H21A C16A 1_555 1_555
C17A C15A 1_555 1_555
H22A C17A 1_555 1_555
H23A C17A 1_555 1_555
H24A C17A 1_555 1_555
C18A H25A 1_555 1_555
H26A C18A 1_555 1_555
H27A C18A 1_555 1_555
C19A O2A 1_555 1_555
C20A C19A 1_555 1_555
H28A C20A 1_555 1_555
C21A N2A 1_555 1_555
C22A C21A 1_555 1_555
H29A C22A 1_555 1_555
H30A C22A 1_555 1_555
H31A C22A 1_555 1_555
C23A N2A 1_555 1_555
C24A C23A 1_555 1_555
C25A C24A 1_555 1_555
H32A C25A 1_555 1_555
C26A C25A 1_555 1_555
H33A C26A 1_555 1_555
C27A C26A 1_555 1_555
H34A C27A 1_555 1_555
C28A C23A 1_555 1_555
C29A C24A 1_555 1_555
H35A C29A 1_555 1_555
C30A C29A 1_555 1_555
H36A C30A 1_555 1_555
H37A C30A 1_555 1_555
H38A C30A 1_555 1_555
C31A C29A 1_555 1_555
H39A C31A 1_555 1_555
H40A C31A 1_555 1_555
H41A C31A 1_555 1_555
C32A C28A 1_555 1_555
H42A C32A 1_555 1_555
C33A C32A 1_555 1_555
H43A C33A 1_555 1_555
H44A C33A 1_555 1_555
H45A C33A 1_555 1_555
C34A C32A 1_555 1_555
H46A C34A 1_555 1_555
H47A C34A 1_555 1_555
H48A C34A 1_555 1_555
C1 C2 1_555 1_555
C10 C11 1_555 1_555
C18 C19 1_555 1_555
C20 C21 1_555 1_555
C27 C28 1_555 1_555
C39 C40 1_555 1_555
Ca1A O2A 1_555 1_555
C1A C2A 1_555 1_555
C3A C4A 1_555 1_555
C10A C11A 1_555 1_555
C18A C19A 1_555 1_555
C20A C21A 1_555 1_555
C27A C28A 1_555 1_555

#END
