
#######################################################################
#
#                 Cambridge Crystallographic Data Centre
#                                CCDC 
#
#######################################################################
#
# If this CIF has been generated from an entry in the Cambridge 
# Structural Database, then it will include bibliographic, chemical, 
# crystal, experimental, refinement or atomic coordinate data resulting 
# from the CCDC's data processing and validation procedures.
#
#######################################################################

data_LUMFOQ
_chemical_formula_moiety         'C20 H16 N2 O4 S1,C4 H8 O2'
_chemical_name_systematic        
'4-(4-methylphenyl)-1-(methylsulfonyl)-3-nitro-9H-carbazole ethyl acetate solvate'
_symmetry_cell_setting           triclinic
_symmetry_space_group_name_H-M   'P -1'
_symmetry_Int_Tables_number      2
_space_group_name_Hall           '-P 1'
loop_
_symmetry_equiv_pos_site_id
_symmetry_equiv_pos_as_xyz
1 x,y,z
2 -x,-y,-z
_cell_length_a                   9.4700(10)
_cell_length_b                   10.4670(10)
_cell_length_c                   11.6790(10)
_cell_angle_alpha                101.510(10)
_cell_angle_beta                 103.780(10)
_cell_angle_gamma                107.650(10)
_cell_volume                     1024.17
_exptl_crystal_colour            'pale yellow'
_exptl_crystal_description       'irregular prism'
_cell_formula_units_Z            2
_exptl_crystal_recrystallization_method 'ethyl acetate'
loop_
_atom_site_label
_atom_site_type_symbol
_atom_site_fract_x
_atom_site_fract_y
_atom_site_fract_z
S1 S 0.04831(5) 0.03414(5) 0.23899(4)
C1 C 0.17245(18) -0.05969(17) 0.26252(15)
C2 C 0.20773(18) -0.09046(17) 0.37301(15)
H1 H 0.1612 -0.0664 0.4314
C3 C 0.31321(19) -0.15765(17) 0.39681(14)
C4 C 0.38787(18) -0.19786(16) 0.31333(14)
C5 C 0.34894(18) -0.16883(17) 0.20053(14)
C6 C 0.3946(2) -0.19758(18) 0.09074(14)
C7 C 0.4928(2) -0.2624(2) 0.05515(17)
H2 H 0.5470 -0.2995 0.1083
C8 C 0.5077(3) -0.2701(3) -0.06035(18)
H3 H 0.5729 -0.3131 -0.0848
C9 C 0.4278(3) -0.2152(2) -0.14131(17)
H4 H 0.4408 -0.2222 -0.2185
C10 C 0.3299(2) -0.1507(2) -0.10929(17)
H5 H 0.2766 -0.1137 -0.1632
C11 C 0.3141(2) -0.14310(19) 0.00676(15)
C12 C 0.24150(18) -0.09998(17) 0.17512(14)
O1 O -0.02799(16) 0.03431(16) 0.33060(14)
C13 C 0.50203(18) -0.26847(16) 0.33854(14)
C14 C 0.4546(2) -0.40578(18) 0.34446(17)
H6 H 0.3494 -0.4560 0.3303
C15 C 0.5632(2) -0.4680(2) 0.37134(19)
H7 H 0.5299 -0.5601 0.3744
C16 C 0.7204(2) -0.3953(2) 0.39375(18)
C17 C 0.7660(2) -0.2597(2) 0.38506(18)
H8 H 0.8711 -0.2099 0.3985
C18 C 0.65837(19) -0.19679(18) 0.35677(16)
H9 H 0.6912 -0.1062 0.3500
C19 C 0.8409(3) -0.4606(3) 0.4289(3)
H10 H 0.9420 -0.3879 0.4708
H11 H 0.8438 -0.5195 0.3558
H12 H 0.8132 -0.5158 0.4823
N1 N 0.22335(17) -0.08511(16) 0.06000(13)
H13 H 0.1646 -0.0457 0.0256
N2 N 0.34876(17) -0.17780(15) 0.51964(13)
C20 C 0.1764(3) 0.2062(2) 0.2649(3)
H14 H 0.1170 0.2631 0.2453
H15 H 0.2419 0.2053 0.2137
H16 H 0.2403 0.2442 0.3500
O2 O -0.04552(18) -0.01998(18) 0.11092(13)
O3 O 0.47552(16) -0.18330(16) 0.56736(12)
O4 O 0.24866(19) -0.1865(2) 0.57010(14)
loop_
_geom_bond_atom_site_label_1
_geom_bond_atom_site_label_2
_geom_bond_site_symmetry_1
_geom_bond_site_symmetry_2
S1 C1 1_555 1_555
C1 C2 1_555 1_555
C2 H1 1_555 1_555
C3 C2 1_555 1_555
C4 C3 1_555 1_555
C5 C4 1_555 1_555
C6 C5 1_555 1_555
C7 C6 1_555 1_555
H2 C7 1_555 1_555
C8 C7 1_555 1_555
H3 C8 1_555 1_555
C9 C8 1_555 1_555
H4 C9 1_555 1_555
C10 C9 1_555 1_555
H5 C10 1_555 1_555
C11 C6 1_555 1_555
C12 C1 1_555 1_555
O1 S1 1_555 1_555
C13 C4 1_555 1_555
C14 C13 1_555 1_555
H6 C14 1_555 1_555
C15 C14 1_555 1_555
H7 C15 1_555 1_555
C16 C15 1_555 1_555
C17 C16 1_555 1_555
H8 C17 1_555 1_555
C18 C13 1_555 1_555
H9 C18 1_555 1_555
C19 C16 1_555 1_555
H10 C19 1_555 1_555
H11 C19 1_555 1_555
H12 C19 1_555 1_555
N1 C11 1_555 1_555
H13 N1 1_555 1_555
N2 C3 1_555 1_555
C20 S1 1_555 1_555
H14 C20 1_555 1_555
H15 C20 1_555 1_555
H16 C20 1_555 1_555
O2 S1 1_555 1_555
O3 N2 1_555 1_555
O4 N2 1_555 1_555
C5 C12 1_555 1_555
C10 C11 1_555 1_555
C12 N1 1_555 1_555
C17 C18 1_555 1_555

#END
