
#######################################################################
#
#                 Cambridge Crystallographic Data Centre
#                                CCDC 
#
#######################################################################
#
# If this CIF has been generated from an entry in the Cambridge 
# Structural Database, then it will include bibliographic, chemical, 
# crystal, experimental, refinement or atomic coordinate data resulting 
# from the CCDC's data processing and validation procedures.
#
#######################################################################

data_LUMFEG
_chemical_formula_moiety         'C21 H24 N2 O2'
_chemical_name_systematic        'methyl eburnamenine-14-carboxylate'
_symmetry_cell_setting           monoclinic
_symmetry_space_group_name_H-M   'P 21'
_symmetry_Int_Tables_number      4
_space_group_name_Hall           'P 2yb'
loop_
_symmetry_equiv_pos_site_id
_symmetry_equiv_pos_as_xyz
1 x,y,z
2 -x,1/2+y,-z
_cell_length_a                   9.2278(18)
_cell_length_b                   9.1475(18)
_cell_length_c                   10.619(2)
_cell_angle_alpha                90
_cell_angle_beta                 98.04(3)
_cell_angle_gamma                90
_cell_volume                     887.553
_exptl_crystal_colour            white
_exptl_crystal_description       block
_cell_formula_units_Z            2
loop_
_atom_site_label
_atom_site_type_symbol
_atom_site_fract_x
_atom_site_fract_y
_atom_site_fract_z
C1 C 0.1679(5) 0.4015(5) 0.7177(4)
O1 O 0.0390(4) 0.6233(3) 0.6950(3)
N1 N 0.3027(4) 0.3352(4) 0.6982(3)
C2 C 0.2183(5) 0.1011(5) 0.7937(4)
H1 H 0.1531 0.0590 0.7222
C3 C 0.4319(5) 0.3906(5) 0.6587(4)
O2 O 0.1331(3) 0.5408(4) 0.5236(3)
N2 N 0.2918(5) -0.0229(4) 0.8674(4)
C4 C 0.1146(5) 0.5276(5) 0.6340(5)
C5 C 0.4678(6) 0.1497(5) 0.7217(4)
C6 C -0.0257(6) 0.7474(6) 0.6222(6)
H2 H 0.0500 0.8035 0.5916
H3 H -0.0768 0.8076 0.6756
H4 H -0.0932 0.7129 0.5514
C7 C -0.0191(5) 0.1097(6) 0.8861(5)
H5 H -0.0728 0.0919 0.8022
H6 H 0.0105 0.0154 0.9229
C8 C 0.1221(5) 0.1988(5) 0.8703(4)
C9 C 0.2766(6) 0.1049(6) 1.0707(5)
H7 H 0.1977 0.0419 1.0892
H8 H 0.3331 0.1338 1.1508
C10 C 0.2132(5) 0.2404(5) 0.9993(4)
H9 H 0.2923 0.3051 0.9844
H10 H 0.1514 0.2924 1.0511
C11 C 0.3306(6) 0.1898(5) 0.7389(4)
C12 C 0.0832(5) 0.3373(5) 0.7948(4)
H11 H -0.0061 0.3813 0.8025
C13 C 0.6061(5) 0.5506(6) 0.5831(4)
H12 H 0.6321 0.6421 0.5553
C14 C 0.4664(5) 0.5304(6) 0.6179(4)
H13 H 0.3994 0.6067 0.6141
C15 C 0.5370(5) 0.2733(5) 0.6721(5)
C16 C 0.7076(6) 0.4356(7) 0.5894(5)
H14 H 0.7988 0.4520 0.5642
C17 C 0.5186(6) -0.0058(5) 0.7525(5)
H15 H 0.5978 -0.0052 0.8230
H16 H 0.5550 -0.0486 0.6794
C18 C 0.3745(5) 0.0216(6) 0.9910(5)
H17 H 0.4562 0.0831 0.9764
H18 H 0.4136 -0.0645 1.0371
C19 C -0.1231(6) 0.1813(6) 0.9681(5)
H19 H -0.0721 0.1985 1.0520
H20 H -0.2048 0.1177 0.9733
H21 H -0.1576 0.2725 0.9306
C20 C 0.3890(6) -0.0991(6) 0.7881(5)
H22 H 0.3302 -0.1316 0.7102
H23 H 0.4286 -0.1855 0.8334
C21 C 0.6746(6) 0.2982(6) 0.6324(5)
H24 H 0.7427 0.2229 0.6352
loop_
_geom_bond_atom_site_label_1
_geom_bond_atom_site_label_2
_geom_bond_site_symmetry_1
_geom_bond_site_symmetry_2
C1 N1 1_555 1_555
O1 C4 1_555 1_555
N1 C3 1_555 1_555
C2 H1 1_555 1_555
C3 C14 1_555 1_555
O2 C4 1_555 1_555
N2 C2 1_555 1_555
C4 C1 1_555 1_555
C5 C11 1_555 1_555
C6 O1 1_555 1_555
H2 C6 1_555 1_555
H3 C6 1_555 1_555
H4 C6 1_555 1_555
C7 H5 1_555 1_555
H6 C7 1_555 1_555
C8 C2 1_555 1_555
C9 H7 1_555 1_555
H8 C9 1_555 1_555
C10 C8 1_555 1_555
H9 C10 1_555 1_555
H10 C10 1_555 1_555
C11 N1 1_555 1_555
C12 C1 1_555 1_555
H11 C12 1_555 1_555
C13 H12 1_555 1_555
C14 C13 1_555 1_555
H13 C14 1_555 1_555
C15 C3 1_555 1_555
C16 C13 1_555 1_555
H14 C16 1_555 1_555
C17 C5 1_555 1_555
H15 C17 1_555 1_555
H16 C17 1_555 1_555
C18 N2 1_555 1_555
H17 C18 1_555 1_555
H18 C18 1_555 1_555
C19 C7 1_555 1_555
H19 C19 1_555 1_555
H20 C19 1_555 1_555
H21 C19 1_555 1_555
C20 N2 1_555 1_555
H22 C20 1_555 1_555
H23 C20 1_555 1_555
C21 C15 1_555 1_555
H24 C21 1_555 1_555
C2 C11 1_555 1_555
C5 C15 1_555 1_555
C7 C8 1_555 1_555
C8 C12 1_555 1_555
C9 C10 1_555 1_555
C9 C18 1_555 1_555
C16 C21 1_555 1_555
C17 C20 1_555 1_555

#END
