
#######################################################################
#
#                 Cambridge Crystallographic Data Centre
#                                CCDC 
#
#######################################################################
#
# If this CIF has been generated from an entry in the Cambridge 
# Structural Database, then it will include bibliographic, chemical, 
# crystal, experimental, refinement or atomic coordinate data resulting 
# from the CCDC's data processing and validation procedures.
#
#######################################################################

data_LUMLOU
_chemical_name_common            
'12,17-Diaza-1,9-diazoniatetracyclo(15.2.1.1$3,7!.1$9,12!)docosane-1(20),3(21),4,6,9(22),10,18-heptaene dibromide'
_chemical_formula_moiety         'C18 H22 N4 2+,2(Br1 1-)'
_chemical_name_systematic        
'3(1,3)-Benzena-1,5(1,3)-di-imidazolacyclononaphane dibromide'
_symmetry_cell_setting           monoclinic
_symmetry_space_group_name_H-M   'P 21/c'
_symmetry_Int_Tables_number      14
_space_group_name_Hall           '-P 2ybc'
loop_
_symmetry_equiv_pos_site_id
_symmetry_equiv_pos_as_xyz
1 x,y,z
2 x,1/2-y,1/2+z
3 -x,-y,-z
4 -x,1/2+y,1/2-z
_cell_length_a                   9.7364(9)
_cell_length_b                   12.3721(12)
_cell_length_c                   15.6576(15)
_cell_angle_alpha                90
_cell_angle_beta                 96.865(2)
_cell_angle_gamma                90
_cell_volume                     1872.59
_exptl_crystal_colour            colorless
_exptl_crystal_description       needle
_chemical_melting_point          '288-290 deg.C'
_cell_formula_units_Z            4
_exptl_crystal_recrystallization_method methanol
loop_
_atom_site_label
_atom_site_type_symbol
_atom_site_fract_x
_atom_site_fract_y
_atom_site_fract_z
Br1 Br -0.43282(2) -0.184791(16) 0.544100(13)
Br2 Br 0.04250(3) 0.184435(16) 0.199249(14)
N1 N -0.17367(15) 0.02407(11) 0.41481(9)
N2 N -0.04887(15) 0.16310(12) 0.45585(10)
N3 N -0.31766(15) 0.41972(11) 0.30790(9)
N4 N -0.43657(16) 0.31206(10) 0.22014(10)
C1 C -0.52188(19) 0.21862(16) 0.18747(13)
H1 H -0.5695(17) 0.2313(15) 0.1325(12)
H2 H -0.596(2) 0.2143(15) 0.2275(12)
C2 C -0.43398(17) 0.11680(14) 0.19034(11)
C3 C -0.40144(19) 0.06879(15) 0.11586(11)
H3 H -0.4333(19) 0.0973(15) 0.0623(12)
C4 C -0.3230(2) -0.02469(16) 0.12006(11)
H4 H -0.3002(18) -0.0597(14) 0.0688(12)
C5 C -0.27125(19) -0.06700(15) 0.19849(12)
H5 H -0.2257(18) -0.1250(16) 0.1999(11)
C6 C -0.30026(18) -0.01813(14) 0.27403(11)
C7 C -0.38482(19) 0.07242(14) 0.26894(11)
H6 H -0.4040(16) 0.1034(13) 0.3197(11)
C8 C -0.2431(2) -0.06258(15) 0.36070(12)
H7 H -0.3176 -0.0930 0.3889
H8 H -0.1774 -0.1198 0.3532
C9 C -0.1859(2) 0.04039(16) 0.49990(11)
H9 H -0.2404(19) -0.0057(15) 0.5245(12)
C10 C -0.1082(2) 0.12657(16) 0.52580(12)
H10 H -0.0926(18) 0.1611(14) 0.5767(12)
C11 C -0.09026(19) 0.10009(15) 0.38950(11)
H11 H -0.0649(19) 0.1090(16) 0.3387(12)
C12 C 0.03766(19) 0.26067(16) 0.45254(13)
H12 H 0.1148(19) 0.2422(15) 0.4276(11)
H13 H 0.0643(19) 0.2813(15) 0.5088(13)
C13 C -0.0417(2) 0.34963(15) 0.40294(13)
H14 H -0.072(2) 0.3267(14) 0.3495(13)
H15 H 0.0223(18) 0.4099(15) 0.4018(11)
C14 C -0.1670(2) 0.38805(16) 0.44413(11)
H16 H -0.223(2) 0.3276(14) 0.4566(12)
H17 H -0.140(2) 0.4185(16) 0.5024(13)
C15 C -0.2550(2) 0.46856(15) 0.38916(12)
H18 H -0.2031(19) 0.5300(16) 0.3716(12)
H19 H -0.325(2) 0.4932(16) 0.4177(13)
C16 C -0.2943(2) 0.44911(16) 0.22643(12)
H20 H -0.2407(19) 0.5057(15) 0.2162(12)
C17 C -0.3685(2) 0.38139(17) 0.17196(12)
H21 H -0.385(2) 0.3798(17) 0.1195(13)
C18 C -0.40475(19) 0.33712(14) 0.30184(12)
H22 H -0.441(2) 0.3034(14) 0.3465(13)
loop_
_geom_bond_atom_site_label_1
_geom_bond_atom_site_label_2
_geom_bond_site_symmetry_1
_geom_bond_site_symmetry_2
N1 C8 1_555 1_555
N2 C10 1_555 1_555
N3 C15 1_555 1_555
N4 C1 1_555 1_555
C1 H1 1_555 1_555
H2 C1 1_555 1_555
C2 C1 1_555 1_555
C3 C2 1_555 1_555
H3 C3 1_555 1_555
C4 C3 1_555 1_555
H4 C4 1_555 1_555
C5 C4 1_555 1_555
H5 C5 1_555 1_555
C6 C5 1_555 1_555
C7 C2 1_555 1_555
H6 C7 1_555 1_555
C8 C6 1_555 1_555
H7 C8 1_555 1_555
H8 C8 1_555 1_555
C9 N1 1_555 1_555
H9 C9 1_555 1_555
C10 C9 1_555 1_555
H10 C10 1_555 1_555
C11 N1 1_555 1_555
H11 C11 1_555 1_555
C12 N2 1_555 1_555
H12 C12 1_555 1_555
H13 C12 1_555 1_555
C13 C12 1_555 1_555
H14 C13 1_555 1_555
H15 C13 1_555 1_555
C14 C13 1_555 1_555
H16 C14 1_555 1_555
H17 C14 1_555 1_555
C15 C14 1_555 1_555
H18 C15 1_555 1_555
H19 C15 1_555 1_555
C16 N3 1_555 1_555
H20 C16 1_555 1_555
C17 N4 1_555 1_555
H21 C17 1_555 1_555
C18 N3 1_555 1_555
H22 C18 1_555 1_555
N2 C11 1_555 1_555
N4 C18 1_555 1_555
C6 C7 1_555 1_555
C16 C17 1_555 1_555

#END
