
#######################################################################
#
#                 Cambridge Crystallographic Data Centre
#                                CCDC 
#
#######################################################################
#
# If this CIF has been generated from an entry in the Cambridge 
# Structural Database, then it will include bibliographic, chemical, 
# crystal, experimental, refinement or atomic coordinate data resulting 
# from the CCDC's data processing and validation procedures.
#
#######################################################################

data_LUMSET
_chemical_formula_moiety         'C18 H17 Br1 O2 S1'
_chemical_name_systematic        'S-phenyl 3-(4-bromophenyl)-5-oxohexanethioate'
_symmetry_cell_setting           orthorhombic
_symmetry_space_group_name_H-M   'P 21 21 21'
_symmetry_Int_Tables_number      19
_space_group_name_Hall           'P 2ac 2ab'
loop_
_symmetry_equiv_pos_site_id
_symmetry_equiv_pos_as_xyz
1 x,y,z
2 1/2+x,1/2-y,-z
3 -x,1/2+y,1/2-z
4 1/2-x,-y,1/2+z
_cell_length_a                   5.6074(6)
_cell_length_b                   14.7841(16)
_cell_length_c                   20.027(2)
_cell_angle_alpha                90
_cell_angle_beta                 90
_cell_angle_gamma                90
_cell_volume                     1660.25
_exptl_crystal_colour            colorless
_exptl_crystal_description       block
_cell_formula_units_Z            4
loop_
_atom_site_label
_atom_site_type_symbol
_atom_site_fract_x
_atom_site_fract_y
_atom_site_fract_z
S1 S 1.27233(10) 0.89710(4) 0.31785(2)
Br1 Br 0.78209(5) 0.877843(15) -0.124029(10)
O1 O 0.8862(3) 0.79351(11) 0.32159(7)
O2 O 0.4033(3) 1.00928(10) 0.17421(7)
C1 C 0.7969(4) 0.88901(13) 0.18514(9)
H1 H 0.6490 0.8597 0.2027
C2 C 0.8042(4) 0.98709(14) 0.20988(10)
H2 H 0.8195 0.9866 0.2591
H3 H 0.9487 1.0165 0.1916
C3 C 0.5902(4) 1.04333(15) 0.19136(10)
C4 C 0.6206(4) 1.14420(15) 0.19526(11)
H4 H 0.6969 1.1661 0.1543
H5 H 0.7207 1.1594 0.2338
H6 H 0.4641 1.1729 0.2003
C5 C 1.0138(4) 0.83670(16) 0.21146(10)
H7 H 1.0083 0.7740 0.1941
H8 H 1.1611 0.8654 0.1943
C6 C 1.0244(4) 0.83380(15) 0.28699(10)
C7 C 1.2567(4) 0.88132(13) 0.40544(9)
C8 C 1.0654(4) 0.91539(15) 0.44229(11)
H9 H 0.9351 0.9437 0.4204
C9 C 1.0680(4) 0.90737(15) 0.51114(11)
H10 H 0.9390 0.9308 0.5366
C10 C 1.2570(4) 0.86553(13) 0.54339(9)
H11 H 1.2578 0.8606 0.5907
C11 C 1.4453(4) 0.83086(15) 0.50614(11)
H12 H 1.5740 0.8015 0.5281
C12 C 1.4461(4) 0.83890(15) 0.43714(10)
H13 H 1.5754 0.8155 0.4118
C13 C 0.7918(4) 0.88483(13) 0.10944(9)
C14 C 0.6072(4) 0.84188(15) 0.07537(11)
H14 H 0.4820 0.8144 0.1000
C15 C 0.6024(4) 0.83841(15) 0.00601(11)
H15 H 0.4761 0.8087 -0.0168
C16 C 0.7846(4) 0.87899(14) -0.02890(9)
C17 C 0.9716(4) 0.92149(16) 0.00296(11)
H16 H 1.0960 0.9488 -0.0221
C18 C 0.9749(4) 0.92367(15) 0.07192(10)
H17 H 1.1042 0.9521 0.0942
loop_
_geom_bond_atom_site_label_1
_geom_bond_atom_site_label_2
_geom_bond_site_symmetry_1
_geom_bond_site_symmetry_2
S1 C6 1_555 1_555
Br1 C16 1_555 1_555
O1 C6 1_555 1_555
O2 C3 1_555 1_555
C1 H1 1_555 1_555
C2 C1 1_555 1_555
H2 C2 1_555 1_555
H3 C2 1_555 1_555
C3 C2 1_555 1_555
C4 C3 1_555 1_555
H4 C4 1_555 1_555
H5 C4 1_555 1_555
H6 C4 1_555 1_555
C5 C1 1_555 1_555
H7 C5 1_555 1_555
H8 C5 1_555 1_555
C6 C5 1_555 1_555
C7 S1 1_555 1_555
C8 C7 1_555 1_555
H9 C8 1_555 1_555
C9 C8 1_555 1_555
H10 C9 1_555 1_555
C10 C9 1_555 1_555
H11 C10 1_555 1_555
C11 C10 1_555 1_555
H12 C11 1_555 1_555
C12 C7 1_555 1_555
H13 C12 1_555 1_555
C13 C1 1_555 1_555
C14 C13 1_555 1_555
H14 C14 1_555 1_555
C15 C14 1_555 1_555
H15 C15 1_555 1_555
C16 C15 1_555 1_555
C17 C16 1_555 1_555
H16 C17 1_555 1_555
C18 C13 1_555 1_555
H17 C18 1_555 1_555
C11 C12 1_555 1_555
C17 C18 1_555 1_555

#END
