
#######################################################################
#
#                 Cambridge Crystallographic Data Centre
#                                CCDC 
#
#######################################################################
#
# If this CIF has been generated from an entry in the Cambridge 
# Structural Database, then it will include bibliographic, chemical, 
# crystal, experimental, refinement or atomic coordinate data resulting 
# from the CCDC's data processing and validation procedures.
#
#######################################################################

data_LUMWOF01
_chemical_formula_moiety         'C20 H22 O6'
_chemical_name_systematic        
"Methyl (E)-3,4-dimethoxy-\a-(3',4'-dimethoxyphenyl)cinnamate"
_symmetry_cell_setting           monoclinic
_symmetry_space_group_name_H-M   'P 21/n'
_symmetry_Int_Tables_number      14
_space_group_name_Hall           '-P 2yn'
loop_
_symmetry_equiv_pos_site_id
_symmetry_equiv_pos_as_xyz
1 x,y,z
2 1/2-x,1/2+y,1/2-z
3 -x,-y,-z
4 1/2+x,1/2-y,1/2+z
_cell_length_a                   8.196(9)
_cell_length_b                   11.425(12)
_cell_length_c                   19.79(2)
_cell_angle_alpha                90
_cell_angle_beta                 89.825(19)
_cell_angle_gamma                90
_cell_volume                     1853.11
_exptl_crystal_colour            colorless
_exptl_crystal_description       prism
_chemical_melting_point          '127-128 deg.C'
_cell_formula_units_Z            4
loop_
_atom_site_label
_atom_site_type_symbol
_atom_site_fract_x
_atom_site_fract_y
_atom_site_fract_z
C1 C 0.7577(5) 0.4443(3) -0.02363(15)
H1 H 0.8634 0.4081 -0.0241
H2 H 0.7651 0.5209 -0.0435
H3 H 0.6827 0.3975 -0.0491
C2 C 0.6732(3) 0.35334(19) 0.07908(10)
C3 C 0.7019(3) 0.2411(2) 0.05583(10)
H4 H 0.7459 0.2299 0.0129
C4 C 0.6657(3) 0.1456(2) 0.09576(10)
H5 H 0.6859 0.0708 0.0792
C5 C 0.6001(3) 0.15830(17) 0.15990(9)
C6 C 0.5743(2) 0.27301(17) 0.18359(9)
H6 H 0.5322 0.2844 0.2268
C7 C 0.6100(2) 0.36814(18) 0.14422(10)
C8 C 0.5339(3) 0.5025(2) 0.23163(11)
H7 H 0.4251 0.4726 0.2370
H8 H 0.5345 0.5850 0.2408
H9 H 0.6055 0.4634 0.2626
C9 C 0.5617(2) 0.05190(18) 0.19814(9)
H10 H 0.5783 -0.0171 0.1742
C10 C 0.5069(2) 0.03583(16) 0.26157(9)
C11 C 0.4826(2) -0.08782(17) 0.28307(10)
C12 C 0.3913(4) -0.2132(2) 0.36989(13)
H11 H 0.3014 -0.2462 0.3455
H12 H 0.3651 -0.2106 0.4172
H13 H 0.4866 -0.2607 0.3631
C13 C 0.4767(2) 0.13310(16) 0.31069(9)
C14 C 0.3314(2) 0.19406(18) 0.31206(10)
H14 H 0.2448 0.1690 0.2855
C15 C 0.3129(2) 0.29251(18) 0.35268(9)
H15 H 0.2145 0.3330 0.3528
C16 C 0.4390(2) 0.33042(16) 0.39268(9)
C17 C 0.5860(2) 0.26738(17) 0.39280(9)
C18 C 0.6036(2) 0.16944(16) 0.35259(9)
H16 H 0.7008 0.1274 0.3534
C19 C 0.2979(3) 0.5018(2) 0.42967(12)
H17 H 0.2873 0.5299 0.3842
H18 H 0.3122 0.5668 0.4598
H19 H 0.2013 0.4593 0.4422
C20 C 0.8617(3) 0.2560(2) 0.43143(13)
H20 H 0.8515 0.1751 0.4438
H21 H 0.9347 0.2944 0.4621
H22 H 0.9042 0.2617 0.3863
O1 O 0.7016(2) 0.45419(14) 0.04406(8)
O2 O 0.5882(2) 0.48249(12) 0.16417(7)
O3 O 0.5109(2) -0.17315(12) 0.24904(7)
O4 O 0.4228(2) -0.09553(12) 0.34560(7)
O5 O 0.43507(18) 0.42681(13) 0.43393(8)
O6 O 0.70598(19) 0.31055(15) 0.43453(8)
loop_
_geom_bond_atom_site_label_1
_geom_bond_atom_site_label_2
_geom_bond_site_symmetry_1
_geom_bond_site_symmetry_2
C1 H1 1_555 1_555
H2 C1 1_555 1_555
H3 C1 1_555 1_555
C2 C3 1_555 1_555
C3 H4 1_555 1_555
C4 C3 1_555 1_555
H5 C4 1_555 1_555
C5 C4 1_555 1_555
C6 C5 1_555 1_555
H6 C6 1_555 1_555
C7 C2 1_555 1_555
C8 H7 1_555 1_555
H8 C8 1_555 1_555
H9 C8 1_555 1_555
C9 C5 1_555 1_555
H10 C9 1_555 1_555
C10 C9 1_555 1_555
C11 C10 1_555 1_555
C12 H11 1_555 1_555
H12 C12 1_555 1_555
H13 C12 1_555 1_555
C13 C10 1_555 1_555
C14 C13 1_555 1_555
H14 C14 1_555 1_555
C15 C14 1_555 1_555
H15 C15 1_555 1_555
C16 C15 1_555 1_555
C17 C16 1_555 1_555
C18 C13 1_555 1_555
H16 C18 1_555 1_555
C19 H17 1_555 1_555
H18 C19 1_555 1_555
H19 C19 1_555 1_555
C20 H20 1_555 1_555
H21 C20 1_555 1_555
H22 C20 1_555 1_555
O1 C1 1_555 1_555
O2 C7 1_555 1_555
O3 C11 1_555 1_555
O4 C11 1_555 1_555
O5 C16 1_555 1_555
O6 C17 1_555 1_555
C2 O1 1_555 1_555
C6 C7 1_555 1_555
C8 O2 1_555 1_555
C12 O4 1_555 1_555
C17 C18 1_555 1_555
C19 O5 1_555 1_555
C20 O6 1_555 1_555

#END
