
#######################################################################
#
#                 Cambridge Crystallographic Data Centre
#                                CCDC 
#
#######################################################################
#
# If this CIF has been generated from an entry in the Cambridge 
# Structural Database, then it will include bibliographic, chemical, 
# crystal, experimental, refinement or atomic coordinate data resulting 
# from the CCDC's data processing and validation procedures.
#
#######################################################################

data_LUNDUT
_chemical_formula_moiety         'C58 H38 S2,0.5(C6 H14)'
_chemical_name_systematic        
"5,5'-bis(9,9-Diphenylfluorene-7-yl)-2,2'-bithiophene hexane solvate"
_symmetry_cell_setting           triclinic
_symmetry_space_group_name_H-M   'P -1'
_symmetry_Int_Tables_number      2
_space_group_name_Hall           '-P 1'
loop_
_symmetry_equiv_pos_site_id
_symmetry_equiv_pos_as_xyz
1 x,y,z
2 -x,-y,-z
_cell_length_a                   11.2629(14)
_cell_length_b                   14.5340(18)
_cell_length_c                   15.0164(19)
_cell_angle_alpha                108.378(2)
_cell_angle_beta                 92.145(3)
_cell_angle_gamma                101.385(3)
_cell_volume                     2273.68
_exptl_crystal_colour            yellow
_exptl_crystal_description       needle
_cell_formula_units_Z            2
_exptl_crystal_recrystallization_method chloroform/hexanes
loop_
_atom_site_label
_atom_site_type_symbol
_atom_site_fract_x
_atom_site_fract_y
_atom_site_fract_z
S1 S 0.13812(13) 0.57801(11) 0.14813(10)
S2 S 0.20401(14) 0.71293(11) 0.01151(11)
C1 C 0.0331(5) 0.5143(4) 0.2019(3)
C2 C -0.0804(5) 0.5233(4) 0.1787(4)
H1 H -0.1495 0.4950 0.2009
C3 C -0.0842(5) 0.5794(4) 0.1181(4)
H2 H -0.1560 0.5908 0.0955
C4 C 0.0270(5) 0.6153(4) 0.0957(4)
C5 C 0.0562(5) 0.6746(4) 0.0340(4)
C6 C -0.0203(6) 0.7078(4) -0.0132(4)
H3 H -0.1040 0.6947 -0.0103
C7 C 0.0358(6) 0.7636(4) -0.0670(4)
H4 H -0.0068 0.7909 -0.1027
C8 C 0.1603(5) 0.7741(4) -0.0621(4)
C9 C 0.3125(5) 0.3088(4) 0.2810(3)
C10 C 0.2077(5) 0.3623(4) 0.2925(3)
C11 C 0.1744(4) 0.4182(4) 0.2414(3)
H5 H 0.2212 0.4296 0.1946
C12 C 0.0717(5) 0.4582(4) 0.2585(4)
C13 C 0.0057(5) 0.4420(4) 0.3305(4)
H6 H -0.0618 0.4699 0.3441
C14 C 0.0377(5) 0.3852(4) 0.3825(4)
H7 H -0.0088 0.3739 0.4294
C15 C 0.1393(5) 0.3458(4) 0.3637(4)
C16 C 0.1943(5) 0.2828(4) 0.4046(4)
C17 C 0.1636(6) 0.2478(4) 0.4788(4)
H8 H 0.0975 0.2629 0.5113
C18 C 0.2348(8) 0.1895(5) 0.5028(5)
H9 H 0.2159 0.1651 0.5520
C19 C 0.3333(7) 0.1669(5) 0.4549(5)
H10 H 0.3794 0.1274 0.4718
C20 C 0.3631(6) 0.2023(4) 0.3829(4)
H11 H 0.4298 0.1875 0.3512
C21 C 0.2942(5) 0.2600(4) 0.3574(4)
C22 C 0.4378(5) 0.3791(4) 0.3037(4)
C23 C 0.4543(5) 0.4750(5) 0.3627(4)
H12 H 0.3865 0.4994 0.3840
C24 C 0.5682(6) 0.5363(5) 0.3914(5)
H13 H 0.5767 0.6006 0.4329
C25 C 0.6678(6) 0.5031(5) 0.3595(5)
H14 H 0.7448 0.5448 0.3780
C26 C 0.6544(5) 0.4080(5) 0.2997(5)
H15 H 0.7227 0.3849 0.2775
C27 C 0.5388(5) 0.3451(4) 0.2719(4)
H16 H 0.5304 0.2802 0.2317
C28 C 0.2903(5) 0.2324(4) 0.1812(4)
C29 C 0.3323(5) 0.2581(5) 0.1049(4)
H17 H 0.3802 0.3212 0.1152
C30 C 0.3050(6) 0.1930(6) 0.0147(5)
H18 H 0.3349 0.2125 -0.0350
C31 C 0.2333(7) 0.0982(6) -0.0038(5)
H19 H 0.2143 0.0543 -0.0652
C32 C 0.1915(6) 0.0711(5) 0.0703(5)
H20 H 0.1441 0.0076 0.0593
C33 C 0.2190(5) 0.1375(5) 0.1628(4)
H21 H 0.1892 0.1179 0.2125
C34 C 0.2755(5) 0.9396(4) -0.3100(4)
C35 C 0.2957(5) 0.9046(4) -0.2248(3)
C36 C 0.2128(5) 0.8493(4) -0.1867(3)
H22 H 0.1323 0.8265 -0.2135
C37 C 0.2497(5) 0.8271(4) -0.1072(3)
C38 C 0.3711(5) 0.8593(4) -0.0713(4)
H23 H 0.3964 0.8429 -0.0197
C39 C 0.4557(5) 0.9143(4) -0.1083(4)
H24 H 0.5368 0.9348 -0.0828
C40 C 0.4162(5) 0.9385(4) -0.1855(3)
C41 C 0.4829(5) 0.9971(4) -0.2384(4)
C42 C 0.6046(5) 1.0485(4) -0.2257(4)
H25 H 0.6584 1.0489 -0.1770
C43 C 0.6428(6) 1.0992(5) -0.2885(5)
H26 H 0.7229 1.1350 -0.2806
C44 C 0.5643(6) 1.0971(5) -0.3615(5)
H27 H 0.5917 1.1307 -0.4028
C45 C 0.4452(6) 1.0454(4) -0.3741(4)
H28 H 0.3926 1.0428 -0.4245
C46 C 0.4044(5) 0.9977(4) -0.3116(4)
C47 C 0.2401(5) 0.8531(5) -0.4035(4)
C48 C 0.2767(6) 0.7655(5) -0.4152(5)
H29 H 0.3179 0.7576 -0.3641
C49 C 0.2546(8) 0.6902(6) -0.4988(6)
H30 H 0.2796 0.6315 -0.5043
C50 C 0.1958(9) 0.7006(7) -0.5744(7)
H31 H 0.1824 0.6496 -0.6322
C51 C 0.1573(7) 0.7838(7) -0.5663(5)
H32 H 0.1153 0.7892 -0.6182
C52 C 0.1791(5) 0.8635(5) -0.4806(4)
H33 H 0.1532 0.9217 -0.4758
C53 C 0.1834(5) 1.0065(4) -0.2886(4)
C54 C 0.0582(6) 0.9663(5) -0.3019(4)
H34 H 0.0302 0.8977 -0.3252
C55 C -0.0246(6) 1.0264(6) -0.2812(5)
H35 H -0.1077 0.9983 -0.2923
C56 C 0.0157(8) 1.1282(6) -0.2441(5)
H36 H -0.0398 1.1689 -0.2284
C57 C 0.1395(7) 1.1694(5) -0.2304(5)
H37 H 0.1672 1.2381 -0.2062
C58 C 0.2221(6) 1.1092(5) -0.2526(4)
H38 H 0.3050 1.1378 -0.2434
C59 C -0.4725(18) 0.4543(9) 0.0003(14)
H39 H -0.4003 0.4496 -0.0010
H40 H -0.6169 0.4442 0.0124
C60 C -0.5129(17) 0.4182(10) -0.1130(12)
H41 H -0.6348 0.4252 -0.1530
H42 H -0.5135 0.4994 -0.1391
C61 C -0.497(2) 0.3508(15) -0.2101(12)
H43 H -0.5206 0.3779 -0.2570
H44 H -0.5479 0.2859 -0.2218
H45 H -0.4136 0.3461 -0.2129
C59A C -0.5275(18) 0.5457(9) -0.0003(14)
H39A H -0.5997 0.5504 0.0010
H40A H -0.3831 0.5558 -0.0124
C60A C -0.4871(17) 0.5818(10) 0.1130(12)
H41A H -0.3652 0.5748 0.1530
H42A H -0.4865 0.5006 0.1391
C61A C -0.503(2) 0.6492(15) 0.2101(12)
H43A H -0.4794 0.6221 0.2570
H44A H -0.4521 0.7141 0.2218
H45A H -0.5864 0.6539 0.2129
loop_
_geom_bond_atom_site_label_1
_geom_bond_atom_site_label_2
_geom_bond_site_symmetry_1
_geom_bond_site_symmetry_2
S1 C1 1_555 1_555
S2 C5 1_555 1_555
C1 C2 1_555 1_555
C2 H1 1_555 1_555
C3 C2 1_555 1_555
H2 C3 1_555 1_555
C4 S1 1_555 1_555
C5 C4 1_555 1_555
C6 C5 1_555 1_555
H3 C6 1_555 1_555
C7 C6 1_555 1_555
H4 C7 1_555 1_555
C8 S2 1_555 1_555
C9 C10 1_555 1_555
C10 C11 1_555 1_555
C11 H5 1_555 1_555
C12 C1 1_555 1_555
C13 C12 1_555 1_555
H6 C13 1_555 1_555
C14 C13 1_555 1_555
H7 C14 1_555 1_555
C15 C10 1_555 1_555
C16 C15 1_555 1_555
C17 C16 1_555 1_555
H8 C17 1_555 1_555
C18 C17 1_555 1_555
H9 C18 1_555 1_555
C19 C18 1_555 1_555
H10 C19 1_555 1_555
C20 C19 1_555 1_555
H11 C20 1_555 1_555
C21 C9 1_555 1_555
C22 C9 1_555 1_555
C23 C22 1_555 1_555
H12 C23 1_555 1_555
C24 C23 1_555 1_555
H13 C24 1_555 1_555
C25 C24 1_555 1_555
H14 C25 1_555 1_555
C26 C25 1_555 1_555
H15 C26 1_555 1_555
C27 C22 1_555 1_555
H16 C27 1_555 1_555
C28 C9 1_555 1_555
C29 C28 1_555 1_555
H17 C29 1_555 1_555
C30 C29 1_555 1_555
H18 C30 1_555 1_555
C31 C30 1_555 1_555
H19 C31 1_555 1_555
C32 C31 1_555 1_555
H20 C32 1_555 1_555
C33 C28 1_555 1_555
H21 C33 1_555 1_555
C34 C35 1_555 1_555
C35 C36 1_555 1_555
C36 H22 1_555 1_555
C37 C8 1_555 1_555
C38 C37 1_555 1_555
H23 C38 1_555 1_555
C39 C38 1_555 1_555
H24 C39 1_555 1_555
C40 C35 1_555 1_555
C41 C40 1_555 1_555
C42 C41 1_555 1_555
H25 C42 1_555 1_555
C43 C42 1_555 1_555
H26 C43 1_555 1_555
C44 C43 1_555 1_555
H27 C44 1_555 1_555
C45 C44 1_555 1_555
H28 C45 1_555 1_555
C46 C34 1_555 1_555
C47 C34 1_555 1_555
C48 C47 1_555 1_555
H29 C48 1_555 1_555
C49 C48 1_555 1_555
H30 C49 1_555 1_555
C50 C49 1_555 1_555
H31 C50 1_555 1_555
C51 C50 1_555 1_555
H32 C51 1_555 1_555
C52 C47 1_555 1_555
H33 C52 1_555 1_555
C53 C34 1_555 1_555
C54 C53 1_555 1_555
H34 C54 1_555 1_555
C55 C54 1_555 1_555
H35 C55 1_555 1_555
C56 C55 1_555 1_555
H36 C56 1_555 1_555
C57 C56 1_555 1_555
H37 C57 1_555 1_555
C58 C53 1_555 1_555
H38 C58 1_555 1_555
C59 H39 1_555 1_555
H40 C59 1_555 1_555
C60 C59 1_555 1_555
H41 C60 1_555 1_555
H42 C60 1_555 1_555
C61 C60 1_555 1_555
H43 C61 1_555 1_555
H44 C61 1_555 1_555
H45 C61 1_555 1_555
C59A C59 1_555 1_555
H39A C59A 1_555 1_555
H40A C59A 1_555 1_555
C60A C59A 1_555 1_555
H41A C60A 1_555 1_555
H42A C60A 1_555 1_555
C61A C60A 1_555 1_555
H43A C61A 1_555 1_555
H44A C61A 1_555 1_555
H45A C61A 1_555 1_555
C3 C4 1_555 1_555
C7 C8 1_555 1_555
C11 C12 1_555 1_555
C14 C15 1_555 1_555
C16 C21 1_555 1_555
C20 C21 1_555 1_555
C26 C27 1_555 1_555
C32 C33 1_555 1_555
C36 C37 1_555 1_555
C39 C40 1_555 1_555
C41 C46 1_555 1_555
C45 C46 1_555 1_555
C51 C52 1_555 1_555
C57 C58 1_555 1_555

#END
