
#######################################################################
#
#                 Cambridge Crystallographic Data Centre
#                                CCDC 
#
#######################################################################
#
# If this CIF has been generated from an entry in the Cambridge 
# Structural Database, then it will include bibliographic, chemical, 
# crystal, experimental, refinement or atomic coordinate data resulting 
# from the CCDC's data processing and validation procedures.
#
#######################################################################

data_LUNHOS
_chemical_formula_moiety         'C27 H29 N1 O1'
_chemical_name_systematic        
3,6-Di-t-butyl-1-(isoquinolin-1-yl)-2-naphthol
_symmetry_cell_setting           monoclinic
_symmetry_space_group_name_H-M   'P 21/n'
_symmetry_Int_Tables_number      14
_space_group_name_Hall           '-P 2yn'
loop_
_symmetry_equiv_pos_site_id
_symmetry_equiv_pos_as_xyz
1 x,y,z
2 1/2-x,1/2+y,1/2-z
3 -x,-y,-z
4 1/2+x,1/2-y,1/2+z
_cell_length_a                   16.228(3)
_cell_length_b                   11.794(2)
_cell_length_c                   25.429(5)
_cell_angle_alpha                90
_cell_angle_beta                 105.175(15)
_cell_angle_gamma                90
_cell_volume                     4697.23
_exptl_crystal_colour            'pale yellow'
_exptl_crystal_description       needle
_cell_formula_units_Z            8
loop_
_atom_site_label
_atom_site_type_symbol
_atom_site_fract_x
_atom_site_fract_y
_atom_site_fract_z
C1 C 0.4238(3) 0.3594(5) 0.2099(2)
C2 C 0.4176(3) 0.2580(5) 0.1824(2)
O1 O 0.3514(3) 0.1845(3) 0.18245(16)
C3 C 0.4792(3) 0.2218(5) 0.1548(2)
C4 C 0.4728(4) 0.1062(5) 0.1252(3)
C5 C 0.3889(4) 0.0990(4) 0.0796(3)
H1 H 0.3413 0.1092 0.0950
H2 H 0.3849 0.0261 0.0623
H3 H 0.3882 0.1573 0.0531
C6 C 0.5474(3) 0.0882(4) 0.0994(3)
H4 H 0.6003 0.0905 0.1272
H5 H 0.5470 0.1469 0.0732
H6 H 0.5416 0.0157 0.0816
C7 C 0.4769(3) 0.0108(5) 0.1678(3)
H7 H 0.5299 0.0157 0.1954
H8 H 0.4729 -0.0617 0.1501
H9 H 0.4303 0.0194 0.1842
C8 C 0.5447(3) 0.2965(5) 0.1561(2)
H10 H 0.5858 0.2761 0.1383
C9 C 0.6216(3) 0.4782(5) 0.1824(2)
H11 H 0.6618 0.4556 0.1644
C10 C 0.6305(3) 0.5820(5) 0.2071(2)
C11 C 0.7022(4) 0.6659(5) 0.2068(3)
C12 C 0.7676(6) 0.6190(7) 0.1804(5)
H12 H 0.7399 0.5946 0.1440
H13 H 0.7960 0.5558 0.2012
H14 H 0.8087 0.6768 0.1790
C13 C 0.7432(8) 0.7097(14) 0.2624(5)
H15 H 0.7002 0.7384 0.2785
H16 H 0.7822 0.7695 0.2600
H17 H 0.7738 0.6494 0.2845
C14 C 0.6598(6) 0.7664(9) 0.1678(7)
H18 H 0.6160 0.8010 0.1814
H19 H 0.6352 0.7374 0.1318
H20 H 0.7025 0.8219 0.1664
C15 C 0.5679(3) 0.6122(4) 0.2339(2)
H21 H 0.5720 0.6826 0.2509
C16 C 0.5018(3) 0.5432(5) 0.2361(2)
H22 H 0.4628 0.5668 0.2549
C17 C 0.4915(3) 0.4352(5) 0.2100(2)
C18 C 0.5535(3) 0.4036(4) 0.1832(2)
C19 C 0.3654(3) 0.3884(5) 0.2448(3)
N1 N 0.3043(3) 0.4631(4) 0.2257(2)
C20 C 0.2552(3) 0.4987(4) 0.2589(3)
H23 H 0.2127 0.5519 0.2454
C21 C 0.2654(4) 0.4605(5) 0.3103(3)
H24 H 0.2305 0.4875 0.3313
C22 C 0.3433(5) 0.3355(6) 0.3849(3)
H25 H 0.3102 0.3605 0.4075
C23 C 0.4041(6) 0.2573(7) 0.4035(4)
H26 H 0.4121 0.2281 0.4384
C24 C 0.4563(5) 0.2187(6) 0.3702(4)
H27 H 0.4990 0.1655 0.3836
C25 C 0.4439(4) 0.2598(5) 0.3185(3)
H28 H 0.4779 0.2340 0.2967
C26 C 0.3803(4) 0.3405(5) 0.2980(3)
C27 C 0.3285(4) 0.3805(5) 0.3319(3)
H29 H 0.296(4) 0.218(4) 0.179(2)
C28 C 0.6939(3) 0.1619(5) 0.5828(2)
C29 C 0.7434(3) 0.0687(5) 0.5787(3)
O2 O 0.7558(2) -0.0156(3) 0.6169(2)
C30 C 0.7805(3) 0.0526(5) 0.5335(2)
C31 C 0.8358(4) -0.0512(5) 0.5295(3)
C32 C 0.9160(4) -0.0502(4) 0.5771(2)
H30 H 0.9507 -0.1148 0.5746
H31 H 0.8999 -0.0530 0.6108
H32 H 0.9478 0.0180 0.5758
C33 C 0.7866(3) -0.1622(4) 0.5302(2)
H33 H 0.8226 -0.2255 0.5276
H34 H 0.7368 -0.1633 0.4999
H35 H 0.7697 -0.1672 0.5636
C34 C 0.8652(3) -0.0498(4) 0.4766(2)
H36 H 0.8996 -0.1155 0.4754
H37 H 0.8981 0.0174 0.4756
H38 H 0.8161 -0.0504 0.4457
C35 C 0.7642(3) 0.1357(5) 0.4946(2)
H39 H 0.7869 0.1273 0.4648
C36 C 0.7019(3) 0.3204(5) 0.4567(2)
H40 H 0.7256 0.3109 0.4274
C37 C 0.6558(3) 0.4181(5) 0.4588(3)
C38 C 0.6442(4) 0.5131(5) 0.4163(3)
C39 C 0.6755(4) 0.4784(5) 0.3670(3)
H41 H 0.6663 0.5396 0.3413
H42 H 0.6445 0.4128 0.3502
H43 H 0.7353 0.4609 0.3786
C40 C 0.6950(5) 0.6133(6) 0.4427(3)
H44 H 0.6879 0.6744 0.4169
H45 H 0.7543 0.5930 0.4546
H46 H 0.6754 0.6368 0.4735
C41 C 0.5508(4) 0.5441(5) 0.3954(3)
H47 H 0.5447 0.6038 0.3690
H48 H 0.5294 0.5692 0.4252
H49 H 0.5191 0.4789 0.3787
C42 C 0.6217(3) 0.4286(5) 0.5047(3)
H50 H 0.5908 0.4934 0.5080
C43 C 0.6327(3) 0.3470(5) 0.5443(2)
H51 H 0.6088 0.3575 0.5734
C44 C 0.6795(3) 0.2474(5) 0.5418(3)
C45 C 0.7150(3) 0.2334(5) 0.4970(2)
C46 C 0.6496(4) 0.1706(4) 0.6275(3)
N2 N 0.6928(3) 0.2247(4) 0.6721(2)
C47 C 0.6545(4) 0.2336(4) 0.7142(3)
H52 H 0.6841 0.2710 0.7457
C48 C 0.5759(4) 0.1910(4) 0.7125(3)
H53 H 0.5537 0.1968 0.7426
C49 C 0.4449(4) 0.0959(5) 0.6583(3)
H54 H 0.4200 0.0994 0.6873
C50 C 0.4014(4) 0.0507(5) 0.6104(4)
H55 H 0.3463 0.0239 0.6069
C51 C 0.4365(4) 0.0429(5) 0.5656(3)
H56 H 0.4049 0.0123 0.5328
C52 C 0.5180(4) 0.0810(5) 0.5709(3)
H57 H 0.5422 0.0752 0.5416
C53 C 0.5653(4) 0.1289(4) 0.6202(3)
C54 C 0.5290(4) 0.1383(4) 0.6646(3)
H58 H 0.771(4) 0.001(4) 0.655(3)
C55? C 0.701(2) 0.775(3) 0.2342(18)
C56? C 0.710(2) 0.677(3) 0.1522(14)
C57? C 0.7936(14) 0.595(2) 0.2431(13)
H59? H 0.7475 0.8208 0.2301
H60? H 0.7060 0.7619 0.2722
H61? H 0.6478 0.8128 0.2182
H62? H 0.7013 0.6041 0.1345
H63? H 0.7667 0.7033 0.1531
H64? H 0.6688 0.7296 0.1324
H65? H 0.7954 0.5211 0.2277
H66? H 0.7924 0.5878 0.2805
H67? H 0.8432 0.6373 0.2411
loop_
_geom_bond_atom_site_label_1
_geom_bond_atom_site_label_2
_geom_bond_site_symmetry_1
_geom_bond_site_symmetry_2
C1 C2 1_555 1_555
C2 O1 1_555 1_555
O1 H29 1_555 1_555
C3 C2 1_555 1_555
C4 C3 1_555 1_555
C5 C4 1_555 1_555
H1 C5 1_555 1_555
H2 C5 1_555 1_555
H3 C5 1_555 1_555
C6 C4 1_555 1_555
H4 C6 1_555 1_555
H5 C6 1_555 1_555
H6 C6 1_555 1_555
C7 C4 1_555 1_555
H7 C7 1_555 1_555
H8 C7 1_555 1_555
H9 C7 1_555 1_555
C8 C3 1_555 1_555
H10 C8 1_555 1_555
C9 H11 1_555 1_555
C10 C9 1_555 1_555
C11 C10 1_555 1_555
C12 C11 1_555 1_555
H12 C12 1_555 1_555
H13 C12 1_555 1_555
H14 C12 1_555 1_555
C13 C11 1_555 1_555
H15 C13 1_555 1_555
H16 C13 1_555 1_555
H17 C13 1_555 1_555
C14 C11 1_555 1_555
H18 C14 1_555 1_555
H19 C14 1_555 1_555
H20 C14 1_555 1_555
C15 C10 1_555 1_555
H21 C15 1_555 1_555
C16 C15 1_555 1_555
H22 C16 1_555 1_555
C17 C1 1_555 1_555
C18 C8 1_555 1_555
C19 C1 1_555 1_555
N1 C19 1_555 1_555
C20 N1 1_555 1_555
H23 C20 1_555 1_555
C21 C20 1_555 1_555
H24 C21 1_555 1_555
C22 H25 1_555 1_555
C23 C22 1_555 1_555
H26 C23 1_555 1_555
C24 C23 1_555 1_555
H27 C24 1_555 1_555
C25 C24 1_555 1_555
H28 C25 1_555 1_555
C26 C19 1_555 1_555
C27 C21 1_555 1_555
C28 C29 1_555 1_555
C29 O2 1_555 1_555
O2 H58 1_555 1_555
C30 C29 1_555 1_555
C31 C30 1_555 1_555
C32 C31 1_555 1_555
H30 C32 1_555 1_555
H31 C32 1_555 1_555
H32 C32 1_555 1_555
C33 C31 1_555 1_555
H33 C33 1_555 1_555
H34 C33 1_555 1_555
H35 C33 1_555 1_555
C34 C31 1_555 1_555
H36 C34 1_555 1_555
H37 C34 1_555 1_555
H38 C34 1_555 1_555
C35 C30 1_555 1_555
H39 C35 1_555 1_555
C36 H40 1_555 1_555
C37 C36 1_555 1_555
C38 C37 1_555 1_555
C39 C38 1_555 1_555
H41 C39 1_555 1_555
H42 C39 1_555 1_555
H43 C39 1_555 1_555
C40 C38 1_555 1_555
H44 C40 1_555 1_555
H45 C40 1_555 1_555
H46 C40 1_555 1_555
C41 C38 1_555 1_555
H47 C41 1_555 1_555
H48 C41 1_555 1_555
H49 C41 1_555 1_555
C42 C37 1_555 1_555
H50 C42 1_555 1_555
C43 C42 1_555 1_555
H51 C43 1_555 1_555
C44 C28 1_555 1_555
C45 C35 1_555 1_555
C46 C28 1_555 1_555
N2 C46 1_555 1_555
C47 N2 1_555 1_555
H52 C47 1_555 1_555
C48 C47 1_555 1_555
H53 C48 1_555 1_555
C49 H54 1_555 1_555
C50 C49 1_555 1_555
H55 C50 1_555 1_555
C51 C50 1_555 1_555
H56 C51 1_555 1_555
C52 C51 1_555 1_555
H57 C52 1_555 1_555
C53 C46 1_555 1_555
C54 C48 1_555 1_555
C9 C18 1_555 1_555
C16 C17 1_555 1_555
C17 C18 1_555 1_555
C22 C27 1_555 1_555
C25 C26 1_555 1_555
C26 C27 1_555 1_555
C36 C45 1_555 1_555
C43 C44 1_555 1_555
C44 C45 1_555 1_555
C49 C54 1_555 1_555
C52 C53 1_555 1_555
C53 C54 1_555 1_555

#END
