
#######################################################################
#
#                 Cambridge Crystallographic Data Centre
#                                CCDC 
#
#######################################################################
#
# If this CIF has been generated from an entry in the Cambridge 
# Structural Database, then it will include bibliographic, chemical, 
# crystal, experimental, refinement or atomic coordinate data resulting 
# from the CCDC's data processing and validation procedures.
#
#######################################################################

data_LUNKEL
_chemical_formula_moiety         'C108 H112 Mg2 N4 O4,2(C6 H14)'
_chemical_name_systematic        
'bis(\m~2~-3,6-Di-t-butyl-1-(isoquinolin-1-yl)-2-naphtholato-N,O,O)-bis(3,6-di-t-butyl-1-(isoquinolin-1-yl)-2-naphtholato-N,O)-di-magnesium isohexane solvate'
_symmetry_cell_setting           monoclinic
_symmetry_space_group_name_H-M   'C 2/c'
_symmetry_Int_Tables_number      15
_space_group_name_Hall           '-C 2yn'
loop_
_symmetry_equiv_pos_site_id
_symmetry_equiv_pos_as_xyz
1 x,y,z
2 -x,y,1/2-z
3 1/2+x,1/2+y,z
4 1/2-x,1/2+y,1/2-z
5 -x,-y,-z
6 x,-y,1/2+z
7 1/2-x,1/2-y,-z
8 1/2+x,1/2-y,1/2+z
_cell_length_a                   29.690(2)
_cell_length_b                   17.4249(15)
_cell_length_c                   22.9030(18)
_cell_angle_alpha                90
_cell_angle_beta                 109.804(7)
_cell_angle_gamma                90
_cell_volume                     11148
_exptl_crystal_colour            yellow
_exptl_crystal_description       block
_cell_formula_units_Z            4
loop_
_atom_site_label
_atom_site_type_symbol
_atom_site_fract_x
_atom_site_fract_y
_atom_site_fract_z
Mg1 Mg 0.44417(3) 0.18526(4) 0.23744(3)
N1 N 0.43663(7) 0.07548(11) 0.19149(8)
O1 O 0.49326(5) 0.20366(9) 0.19231(7)
C1 C 0.44769(8) 0.13611(13) 0.10263(10)
C2 C 0.47262(8) 0.20201(14) 0.13036(10)
C3 C 0.47579(8) 0.26633(14) 0.09297(11)
C4 C 0.45346(8) 0.25967(14) 0.03027(11)
H1 H 0.4573 0.3003 0.0047
C5 C 0.42514(8) 0.19647(14) 0.00112(10)
C6 C 0.39950(8) 0.19613(14) -0.06403(10)
H2 H 0.4023 0.2391 -0.0881
C7 C 0.37116(8) 0.13649(14) -0.09292(11)
C8 C 0.36652(9) 0.07537(14) -0.05564(11)
H3 H 0.3461 0.0337 -0.0744
C9 C 0.39035(8) 0.07374(14) 0.00684(11)
H4 H 0.3861 0.0311 0.0303
C10 C 0.42133(8) 0.13412(13) 0.03754(10)
C11 C 0.44837(8) 0.06671(14) 0.14066(10)
C12 C 0.43229(9) 0.01139(15) 0.22346(11)
H5 H 0.4225 0.0180 0.2585
C13 C 0.44092(9) -0.06012(15) 0.20873(11)
H6 H 0.4353 -0.1028 0.2312
C14 C 0.45845(9) -0.07099(14) 0.15952(11)
C15 C 0.47358(10) -0.14362(15) 0.14548(12)
H7 H 0.4693 -0.1878 0.1673
C16 C 0.49406(10) -0.15075(16) 0.10149(12)
H8 H 0.5043 -0.1997 0.0927
C17 C 0.50022(9) -0.08600(15) 0.06877(11)
H9 H 0.5159 -0.0911 0.0390
C18 C 0.48417(8) -0.01630(15) 0.07896(10)
H10 H 0.4872 0.0264 0.0547
C19 C 0.46298(8) -0.00607(14) 0.12520(10)
C20 C 0.50123(9) 0.34151(14) 0.12082(11)
C21 C 0.55460(9) 0.32865(16) 0.15717(14)
H11 H 0.5696 0.3028 0.1305
H12 H 0.5580 0.2967 0.1936
H13 H 0.5702 0.3783 0.1706
C22 C 0.47675(11) 0.37708(17) 0.16354(15)
H14 H 0.4940 0.4235 0.1829
H15 H 0.4769 0.3401 0.1958
H16 H 0.4436 0.3904 0.1392
C23 C 0.49869(12) 0.40054(16) 0.07113(13)
H17 H 0.4651 0.4121 0.0477
H18 H 0.5142 0.3801 0.0429
H19 H 0.5151 0.4475 0.0907
C24 C 0.34606(9) 0.13210(15) -0.16385(11)
C25 C 0.29195(9) 0.11841(18) -0.18024(12)
H20 H 0.2775 0.1624 -0.1665
H21 H 0.2867 0.0718 -0.1594
H22 H 0.2771 0.1123 -0.2252
C26 C 0.35310(12) 0.20516(18) -0.19614(12)
H23 H 0.3873 0.2125 -0.1890
H24 H 0.3408 0.2491 -0.1794
H25 H 0.3357 0.2009 -0.2408
C27 C 0.36803(10) 0.06489(17) -0.18717(12)
H26 H 0.3536 0.0613 -0.2324
H27 H 0.3620 0.0172 -0.1683
H28 H 0.4026 0.0728 -0.1758
N2 N 0.40546(7) 0.14545(11) 0.30023(9)
O2 O 0.38999(5) 0.25148(9) 0.19808(7)
C28 C 0.33009(8) 0.18726(14) 0.22547(11)
C29 C 0.34473(8) 0.23268(14) 0.18565(11)
C30 C 0.30779(8) 0.26315(14) 0.13061(11)
C31 C 0.26314(8) 0.23116(14) 0.11387(11)
H29 H 0.2394 0.2496 0.0773
C32 C 0.25025(8) 0.17256(14) 0.14756(11)
C33 C 0.20537(9) 0.13503(15) 0.12539(12)
H30 H 0.1832 0.1498 0.0862
C34 C 0.19257(9) 0.07855(15) 0.15784(13)
C35 C 0.22619(9) 0.05988(16) 0.21657(13)
H31 H 0.2182 0.0213 0.2408
C36 C 0.26978(9) 0.09539(15) 0.23976(12)
H32 H 0.2911 0.0812 0.2796
C37 C 0.28367(9) 0.15253(15) 0.20580(11)
C38 C 0.36179(8) 0.17457(14) 0.28978(11)
C39 C 0.43165(9) 0.12491(15) 0.35931(11)
H33 H 0.4618 0.1014 0.3660
C40 C 0.41797(10) 0.13548(17) 0.40890(12)
H34 H 0.4366 0.1157 0.4484
C41 C 0.37522(10) 0.17671(18) 0.40123(12)
C42 C 0.36171(13) 0.2005(2) 0.45195(15)
H35 H 0.3804 0.1861 0.4930
C43 C 0.32152(15) 0.2442(2) 0.44154(18)
H36 H 0.3128 0.2613 0.4756
C44 C 0.29335(13) 0.2636(2) 0.38134(17)
H37 H 0.2654 0.2938 0.3749
C45 C 0.30477(10) 0.24068(17) 0.33185(14)
H38 H 0.2848 0.2543 0.2911
C46 C 0.34648(9) 0.19622(16) 0.34047(12)
C47 C 0.31894(9) 0.32930(14) 0.09479(11)
C48 C 0.34126(10) 0.39508(16) 0.13943(13)
H39 H 0.3191 0.4113 0.1605
H40 H 0.3477 0.4384 0.1161
H41 H 0.3713 0.3777 0.1703
C49 C 0.35316(9) 0.30193(17) 0.06209(12)
H42 H 0.3821 0.2807 0.0928
H43 H 0.3619 0.3453 0.0408
H44 H 0.3375 0.2622 0.0317
C50 C 0.27387(9) 0.36123(16) 0.04552(12)
H45 H 0.2586 0.3207 0.0158
H46 H 0.2827 0.4039 0.0237
H47 H 0.2515 0.3795 0.0656
C51 C 0.14519(10) 0.03499(17) 0.13427(14)
C52 C 0.15601(12) -0.05078(18) 0.13185(17)
H48 H 0.1259 -0.0792 0.1146
H49 H 0.1734 -0.0694 0.1739
H50 H 0.1757 -0.0586 0.1055
C53 C 0.11810(12) 0.0473(2) 0.17990(18)
H51 H 0.1123 0.1022 0.1831
H52 H 0.1373 0.0273 0.2208
H53 H 0.0874 0.0201 0.1649
C54 C 0.11407(12) 0.0609(2) 0.07106(17)
H54 H 0.1071 0.1158 0.0723
H55 H 0.0840 0.0319 0.0583
H56 H 0.1307 0.0521 0.0413
Mg1A Mg 0.55583(3) 0.18526(4) 0.26256(3)
N1A N 0.56337(7) 0.07548(11) 0.30851(8)
O1A O 0.50674(5) 0.20366(9) 0.30769(7)
C1A C 0.55231(8) 0.13611(13) 0.39737(10)
C2A C 0.52738(8) 0.20201(14) 0.36964(10)
C3A C 0.52421(8) 0.26633(14) 0.40703(11)
C4A C 0.54654(8) 0.25967(14) 0.46973(11)
H1A H 0.5427 0.3003 0.4953
C5A C 0.57486(8) 0.19647(14) 0.49888(10)
C6A C 0.60050(8) 0.19613(14) 0.56403(10)
H2A H 0.5977 0.2391 0.5881
C7A C 0.62884(8) 0.13649(14) 0.59292(11)
C8A C 0.63348(9) 0.07537(14) 0.55564(11)
H3A H 0.6539 0.0337 0.5744
C9A C 0.60965(8) 0.07374(14) 0.49316(11)
H4A H 0.6139 0.0311 0.4697
C10A C 0.57867(8) 0.13412(13) 0.46246(10)
C11A C 0.55163(8) 0.06671(14) 0.35934(10)
C12A C 0.56771(9) 0.01139(15) 0.27654(11)
H5A H 0.5775 0.0180 0.2415
C13A C 0.55908(9) -0.06012(15) 0.29127(11)
H6A H 0.5647 -0.1028 0.2688
C14A C 0.54155(9) -0.07099(14) 0.34048(11)
C15A C 0.52642(10) -0.14362(15) 0.35452(12)
H7A H 0.5307 -0.1878 0.3327
C16A C 0.50594(10) -0.15075(16) 0.39851(12)
H8A H 0.4957 -0.1997 0.4073
C17A C 0.49978(9) -0.08600(15) 0.43123(11)
H9A H 0.4841 -0.0911 0.4610
C18A C 0.51583(8) -0.01630(15) 0.42104(10)
H10A H 0.5128 0.0264 0.4453
C19A C 0.53702(8) -0.00607(14) 0.37480(10)
C20A C 0.49877(9) 0.34151(14) 0.37918(11)
C21A C 0.44540(9) 0.32865(16) 0.34283(14)
H11A H 0.4304 0.3028 0.3695
H12A H 0.4420 0.2967 0.3064
H13A H 0.4298 0.3783 0.3294
C22A C 0.52325(11) 0.37708(17) 0.33646(15)
H14A H 0.5060 0.4235 0.3171
H15A H 0.5231 0.3401 0.3042
H16A H 0.5564 0.3904 0.3608
C23A C 0.50131(12) 0.40054(16) 0.42887(13)
H17A H 0.5349 0.4121 0.4523
H18A H 0.4858 0.3801 0.4571
H19A H 0.4849 0.4475 0.4093
C24A C 0.65394(9) 0.13210(15) 0.66385(11)
C25A C 0.70805(9) 0.11841(18) 0.68024(12)
H20A H 0.7225 0.1624 0.6665
H21A H 0.7133 0.0718 0.6594
H22A H 0.7229 0.1123 0.7252
C26A C 0.64690(12) 0.20516(18) 0.69614(12)
H23A H 0.6127 0.2125 0.6890
H24A H 0.6592 0.2491 0.6794
H25A H 0.6643 0.2009 0.7408
C27A C 0.63197(10) 0.06489(17) 0.68717(12)
H26A H 0.6464 0.0613 0.7324
H27A H 0.6380 0.0172 0.6683
H28A H 0.5974 0.0728 0.6758
N2A N 0.59454(7) 0.14545(11) 0.19977(9)
O2A O 0.61001(5) 0.25148(9) 0.30192(7)
C28A C 0.66991(8) 0.18726(14) 0.27453(11)
C29A C 0.65527(8) 0.23268(14) 0.31435(11)
C30A C 0.69221(8) 0.26315(14) 0.36939(11)
C31A C 0.73686(8) 0.23116(14) 0.38613(11)
H29A H 0.7606 0.2496 0.4227
C32A C 0.74975(8) 0.17256(14) 0.35244(11)
C33A C 0.79463(9) 0.13503(15) 0.37461(12)
H30A H 0.8168 0.1498 0.4138
C34A C 0.80743(9) 0.07855(15) 0.34216(13)
C35A C 0.77381(9) 0.05988(16) 0.28343(13)
H31A H 0.7818 0.0213 0.2592
C36A C 0.73022(9) 0.09539(15) 0.26024(12)
H32A H 0.7089 0.0812 0.2204
C37A C 0.71633(9) 0.15253(15) 0.29420(11)
C38A C 0.63821(8) 0.17457(14) 0.21022(11)
C39A C 0.56835(9) 0.12491(15) 0.14069(11)
H33A H 0.5382 0.1014 0.1340
C40A C 0.58203(10) 0.13548(17) 0.09110(12)
H34A H 0.5634 0.1157 0.0516
C41A C 0.62478(10) 0.17671(18) 0.09877(12)
C42A C 0.63829(13) 0.2005(2) 0.04805(15)
H35A H 0.6196 0.1861 0.0070
C43A C 0.67848(15) 0.2442(2) 0.05846(18)
H36A H 0.6872 0.2613 0.0244
C44A C 0.70665(13) 0.2636(2) 0.11866(17)
H37A H 0.7346 0.2938 0.1251
C45A C 0.69523(10) 0.24068(17) 0.16815(14)
H38A H 0.7152 0.2543 0.2089
C46A C 0.65352(9) 0.19622(16) 0.15953(12)
C47A C 0.68106(9) 0.32930(14) 0.40521(11)
C48A C 0.65874(10) 0.39508(16) 0.36057(13)
H39A H 0.6809 0.4113 0.3395
H40A H 0.6523 0.4384 0.3839
H41A H 0.6287 0.3777 0.3297
C49A C 0.64684(9) 0.30193(17) 0.43791(12)
H42A H 0.6179 0.2807 0.4072
H43A H 0.6381 0.3453 0.4592
H44A H 0.6625 0.2622 0.4683
C50A C 0.72613(9) 0.36123(16) 0.45448(12)
H45A H 0.7414 0.3207 0.4842
H46A H 0.7173 0.4039 0.4763
H47A H 0.7485 0.3795 0.4344
C51A C 0.85481(10) 0.03499(17) 0.36573(14)
C52A C 0.84399(12) -0.05078(18) 0.36815(17)
H48A H 0.8741 -0.0792 0.3854
H49A H 0.8266 -0.0694 0.3261
H50A H 0.8243 -0.0586 0.3945
C53A C 0.88190(12) 0.0473(2) 0.32010(18)
H51A H 0.8877 0.1022 0.3169
H52A H 0.8627 0.0273 0.2792
H53A H 0.9126 0.0201 0.3351
C54A C 0.88593(12) 0.0609(2) 0.42894(17)
H54A H 0.8929 0.1158 0.4277
H55A H 0.9160 0.0319 0.4417
H56A H 0.8693 0.0521 0.4587
C55 C 0.2437(2) 0.0794(3) 0.3917(3)
H57 H 0.2724 0.1048 0.3889
H58 H 0.2151 0.1025 0.3617
H59 H 0.2449 0.0246 0.3825
C56 C 0.2421(2) 0.0886(3) 0.4541(3)
H60 H 0.2117 0.0660 0.4548
H61 H 0.2409 0.1442 0.4623
C57 C 0.28138(17) 0.0549(3) 0.5058(2)
H62 H 0.2841 0.0004 0.4953
H63 H 0.3113 0.0805 0.5065
C58 C 0.2803(3) 0.0568(5) 0.5686(3)
H64 H 0.2471 0.0578 0.5705
C59 C 0.3146(5) 0.1267(7) 0.6082(5)
H65 H 0.3137 0.1275 0.6505
H66 H 0.3030 0.1759 0.5879
H67 H 0.3476 0.1183 0.6096
C60 C 0.31223(19) -0.0013(4) 0.6114(3)
H68 H 0.3046 -0.0526 0.5931
H69 H 0.3072 -0.0001 0.6515
H70 H 0.3457 0.0108 0.6174
loop_
_geom_bond_atom_site_label_1
_geom_bond_atom_site_label_2
_geom_bond_site_symmetry_1
_geom_bond_site_symmetry_2
Mg1 N1 1_555 1_555
N1 C11 1_555 1_555
O1 Mg1 1_555 1_555
C1 C2 1_555 1_555
C2 O1 1_555 1_555
C3 C2 1_555 1_555
C4 C3 1_555 1_555
H1 C4 1_555 1_555
C5 C4 1_555 1_555
C6 C5 1_555 1_555
H2 C6 1_555 1_555
C7 C6 1_555 1_555
C8 C7 1_555 1_555
H3 C8 1_555 1_555
C9 C8 1_555 1_555
H4 C9 1_555 1_555
C10 C1 1_555 1_555
C11 C1 1_555 1_555
C12 N1 1_555 1_555
H5 C12 1_555 1_555
C13 C12 1_555 1_555
H6 C13 1_555 1_555
C14 C13 1_555 1_555
C15 C14 1_555 1_555
H7 C15 1_555 1_555
C16 C15 1_555 1_555
H8 C16 1_555 1_555
C17 C16 1_555 1_555
H9 C17 1_555 1_555
C18 C17 1_555 1_555
H10 C18 1_555 1_555
C19 C11 1_555 1_555
C20 C3 1_555 1_555
C21 C20 1_555 1_555
H11 C21 1_555 1_555
H12 C21 1_555 1_555
H13 C21 1_555 1_555
C22 C20 1_555 1_555
H14 C22 1_555 1_555
H15 C22 1_555 1_555
H16 C22 1_555 1_555
C23 C20 1_555 1_555
H17 C23 1_555 1_555
H18 C23 1_555 1_555
H19 C23 1_555 1_555
C24 C7 1_555 1_555
C25 C24 1_555 1_555
H20 C25 1_555 1_555
H21 C25 1_555 1_555
H22 C25 1_555 1_555
C26 C24 1_555 1_555
H23 C26 1_555 1_555
H24 C26 1_555 1_555
H25 C26 1_555 1_555
C27 C24 1_555 1_555
H26 C27 1_555 1_555
H27 C27 1_555 1_555
H28 C27 1_555 1_555
N2 Mg1 1_555 1_555
O2 Mg1 1_555 1_555
C28 C29 1_555 1_555
C29 O2 1_555 1_555
C30 C29 1_555 1_555
C31 C30 1_555 1_555
H29 C31 1_555 1_555
C32 C31 1_555 1_555
C33 C32 1_555 1_555
H30 C33 1_555 1_555
C34 C33 1_555 1_555
C35 C34 1_555 1_555
H31 C35 1_555 1_555
C36 C35 1_555 1_555
H32 C36 1_555 1_555
C37 C28 1_555 1_555
C38 N2 1_555 1_555
C39 N2 1_555 1_555
H33 C39 1_555 1_555
C40 C39 1_555 1_555
H34 C40 1_555 1_555
C41 C40 1_555 1_555
C42 C41 1_555 1_555
H35 C42 1_555 1_555
C43 C42 1_555 1_555
H36 C43 1_555 1_555
C44 C43 1_555 1_555
H37 C44 1_555 1_555
C45 C44 1_555 1_555
H38 C45 1_555 1_555
C46 C38 1_555 1_555
C47 C30 1_555 1_555
C48 C47 1_555 1_555
H39 C48 1_555 1_555
H40 C48 1_555 1_555
H41 C48 1_555 1_555
C49 C47 1_555 1_555
H42 C49 1_555 1_555
H43 C49 1_555 1_555
H44 C49 1_555 1_555
C50 C47 1_555 1_555
H45 C50 1_555 1_555
H46 C50 1_555 1_555
H47 C50 1_555 1_555
C51 C34 1_555 1_555
C52 C51 1_555 1_555
H48 C52 1_555 1_555
H49 C52 1_555 1_555
H50 C52 1_555 1_555
C53 C51 1_555 1_555
H51 C53 1_555 1_555
H52 C53 1_555 1_555
H53 C53 1_555 1_555
C54 C51 1_555 1_555
H54 C54 1_555 1_555
H55 C54 1_555 1_555
H56 C54 1_555 1_555
C55 H57 1_555 1_555
H58 C55 1_555 1_555
H59 C55 1_555 1_555
C56 C55 1_555 1_555
H60 C56 1_555 1_555
H61 C56 1_555 1_555
C57 C56 1_555 1_555
H62 C57 1_555 1_555
H63 C57 1_555 1_555
C58 C57 1_555 1_555
H64 C58 1_555 1_555
C59 C58 1_555 1_555
H65 C59 1_555 1_555
H66 C59 1_555 1_555
H67 C59 1_555 1_555
C60 C58 1_555 1_555
H68 C60 1_555 1_555
H69 C60 1_555 1_555
H70 C60 1_555 1_555
Mg1A O1 1_555 1_555
N1A Mg1A 1_555 1_555
O1A Mg1 1_555 1_555
C1A C2A 1_555 1_555
C2A O1A 1_555 1_555
C3A C2A 1_555 1_555
C4A C3A 1_555 1_555
H1A C4A 1_555 1_555
C5A C4A 1_555 1_555
C6A C5A 1_555 1_555
H2A C6A 1_555 1_555
C7A C6A 1_555 1_555
C8A C7A 1_555 1_555
H3A C8A 1_555 1_555
C9A C8A 1_555 1_555
H4A C9A 1_555 1_555
C10A C1A 1_555 1_555
C11A N1A 1_555 1_555
C12A N1A 1_555 1_555
H5A C12A 1_555 1_555
C13A C12A 1_555 1_555
H6A C13A 1_555 1_555
C14A C13A 1_555 1_555
C15A C14A 1_555 1_555
H7A C15A 1_555 1_555
C16A C15A 1_555 1_555
H8A C16A 1_555 1_555
C17A C16A 1_555 1_555
H9A C17A 1_555 1_555
C18A C17A 1_555 1_555
H10A C18A 1_555 1_555
C19A C11A 1_555 1_555
C20A C3A 1_555 1_555
C21A C20A 1_555 1_555
H11A C21A 1_555 1_555
H12A C21A 1_555 1_555
H13A C21A 1_555 1_555
C22A C20A 1_555 1_555
H14A C22A 1_555 1_555
H15A C22A 1_555 1_555
H16A C22A 1_555 1_555
C23A C20A 1_555 1_555
H17A C23A 1_555 1_555
H18A C23A 1_555 1_555
H19A C23A 1_555 1_555
C24A C7A 1_555 1_555
C25A C24A 1_555 1_555
H20A C25A 1_555 1_555
H21A C25A 1_555 1_555
H22A C25A 1_555 1_555
C26A C24A 1_555 1_555
H23A C26A 1_555 1_555
H24A C26A 1_555 1_555
H25A C26A 1_555 1_555
C27A C24A 1_555 1_555
H26A C27A 1_555 1_555
H27A C27A 1_555 1_555
H28A C27A 1_555 1_555
N2A Mg1A 1_555 1_555
O2A Mg1A 1_555 1_555
C28A C29A 1_555 1_555
C29A O2A 1_555 1_555
C30A C29A 1_555 1_555
C31A C30A 1_555 1_555
H29A C31A 1_555 1_555
C32A C31A 1_555 1_555
C33A C32A 1_555 1_555
H30A C33A 1_555 1_555
C34A C33A 1_555 1_555
C35A C34A 1_555 1_555
H31A C35A 1_555 1_555
C36A C35A 1_555 1_555
H32A C36A 1_555 1_555
C37A C28A 1_555 1_555
C38A N2A 1_555 1_555
C39A N2A 1_555 1_555
H33A C39A 1_555 1_555
C40A C39A 1_555 1_555
H34A C40A 1_555 1_555
C41A C40A 1_555 1_555
C42A C41A 1_555 1_555
H35A C42A 1_555 1_555
C43A C42A 1_555 1_555
H36A C43A 1_555 1_555
C44A C43A 1_555 1_555
H37A C44A 1_555 1_555
C45A C44A 1_555 1_555
H38A C45A 1_555 1_555
C46A C38A 1_555 1_555
C47A C30A 1_555 1_555
C48A C47A 1_555 1_555
H39A C48A 1_555 1_555
H40A C48A 1_555 1_555
H41A C48A 1_555 1_555
C49A C47A 1_555 1_555
H42A C49A 1_555 1_555
H43A C49A 1_555 1_555
H44A C49A 1_555 1_555
C50A C47A 1_555 1_555
H45A C50A 1_555 1_555
H46A C50A 1_555 1_555
H47A C50A 1_555 1_555
C51A C34A 1_555 1_555
C52A C51A 1_555 1_555
H48A C52A 1_555 1_555
H49A C52A 1_555 1_555
H50A C52A 1_555 1_555
C53A C51A 1_555 1_555
H51A C53A 1_555 1_555
H52A C53A 1_555 1_555
H53A C53A 1_555 1_555
C54A C51A 1_555 1_555
H54A C54A 1_555 1_555
H55A C54A 1_555 1_555
H56A C54A 1_555 1_555
C5 C10 1_555 1_555
C9 C10 1_555 1_555
C14 C19 1_555 1_555
C18 C19 1_555 1_555
C28 C38 1_555 1_555
C32 C37 1_555 1_555
C36 C37 1_555 1_555
C41 C46 1_555 1_555
C45 C46 1_555 1_555
Mg1A O1A 1_555 1_555
C1A C11A 1_555 1_555
C5A C10A 1_555 1_555
C9A C10A 1_555 1_555
C14A C19A 1_555 1_555
C18A C19A 1_555 1_555
C28A C38A 1_555 1_555
C32A C37A 1_555 1_555
C36A C37A 1_555 1_555
C41A C46A 1_555 1_555
C45A C46A 1_555 1_555

#END
