
#######################################################################
#
#                 Cambridge Crystallographic Data Centre
#                                CCDC 
#
#######################################################################
#
# If this CIF has been generated from an entry in the Cambridge 
# Structural Database, then it will include bibliographic, chemical, 
# crystal, experimental, refinement or atomic coordinate data resulting 
# from the CCDC's data processing and validation procedures.
#
#######################################################################

data_LUNKEM
_chemical_formula_moiety         'C53 H61 Mg1 N3 O1 Si2'
_chemical_name_systematic        
(2-(((2'-(dimethylamino)-1,1'-binaphthalen-2-yl)imino)methyl)-4,6-bis(2-phenylpropan-2-yl)phenolato)-(N,N-bis(trimethylsilyl)amino)-magnesium
_symmetry_cell_setting           monoclinic
_symmetry_space_group_name_H-M   'P 21/n'
_symmetry_Int_Tables_number      14
_space_group_name_Hall           '-P 2yn'
loop_
_symmetry_equiv_pos_site_id
_symmetry_equiv_pos_as_xyz
1 x,y,z
2 1/2-x,1/2+y,1/2-z
3 -x,-y,-z
4 1/2+x,1/2-y,1/2+z
_cell_length_a                   13.584(9)
_cell_length_b                   14.016(9)
_cell_length_c                   26.244(19)
_cell_angle_alpha                90
_cell_angle_beta                 99.684(12)
_cell_angle_gamma                90
_cell_volume                     4925.48
_exptl_crystal_colour            yellow
_exptl_crystal_description       prismatic
_cell_formula_units_Z            4
loop_
_atom_site_label
_atom_site_type_symbol
_atom_site_fract_x
_atom_site_fract_y
_atom_site_fract_z
Mg1 Mg 0.98906(18) 0.28634(18) 0.27798(8)
Si1 Si 1.03332(19) 0.14138(18) 0.18949(8)
Si2 Si 0.9146(2) 0.3147(2) 0.15857(9)
N1 N 0.8931(4) 0.3799(4) 0.30841(18)
N2 N 1.1250(4) 0.3731(5) 0.3085(2)
N3 N 0.9894(4) 0.2485(4) 0.20423(17)
O1 O 0.9696(3) 0.1965(3) 0.32977(15)
C1 C 0.9054(5) 0.1923(5) 0.3624(2)
C2 C 0.9027(5) 0.1067(5) 0.3930(2)
C3 C 0.8325(5) 0.1045(5) 0.4261(2)
H1 H 0.8300 0.0498 0.4459
C4 C 0.7661(5) 0.1774(6) 0.4319(2)
C5 C 0.7716(5) 0.2573(5) 0.4039(2)
H2 H 0.7292 0.3080 0.4076
C6 C 0.8400(5) 0.2666(5) 0.3690(2)
C7 C 0.8420(5) 0.3567(5) 0.3434(2)
H3 H 0.8013 0.4041 0.3534
C8 C 0.8927(6) 0.4771(6) 0.2918(2)
C9 C 0.8143(6) 0.5137(6) 0.2573(3)
H4 H 0.7564 0.4780 0.2479
C10 C 0.8215(7) 0.6022(6) 0.2367(3)
H5 H 0.7680 0.6254 0.2131
C11 C 0.9076(7) 0.6603(6) 0.2501(3)
C12 C 0.9211(8) 0.7489(7) 0.2263(3)
H6 H 0.8712 0.7710 0.2004
C13 C 1.0044(9) 0.8027(7) 0.2401(4)
H7 H 1.0098 0.8623 0.2253
C14 C 1.0805(8) 0.7678(7) 0.2763(3)
H8 H 1.1384 0.8039 0.2848
C15 C 1.0746(6) 0.6794(6) 0.3009(3)
H9 H 1.1275 0.6581 0.3254
C16 C 0.9865(6) 0.6224(6) 0.2880(3)
C17 C 0.9781(6) 0.5325(6) 0.3106(2)
C18 C 1.0504(6) 0.4994(6) 0.3556(3)
C19 C 1.0455(6) 0.5476(6) 0.4033(3)
C20 C 0.9736(6) 0.6199(6) 0.4071(3)
H10 H 0.9281 0.6371 0.3780
C21 C 0.9708(7) 0.6656(6) 0.4547(3)
H11 H 0.9235 0.7129 0.4567
C22 C 1.0375(8) 0.6409(7) 0.4982(3)
H12 H 1.0355 0.6721 0.5293
C23 C 1.1050(7) 0.5725(7) 0.4960(3)
H13 H 1.1487 0.5561 0.5259
C24 C 1.1118(7) 0.5237(7) 0.4485(3)
C25 C 1.1786(7) 0.4494(7) 0.4466(3)
H14 H 1.2222 0.4324 0.4764
C26 C 1.1817(6) 0.4007(6) 0.4016(3)
H15 H 1.2255 0.3497 0.4016
C27 C 1.1200(6) 0.4267(6) 0.3559(3)
C28 C 0.6967(6) 0.1681(6) 0.4729(3)
C29 C 0.6127(6) 0.2395(7) 0.4611(3)
C30 C 0.5428(7) 0.2355(8) 0.4161(4)
H16 H 0.5447 0.1845 0.3936
C31 C 0.4709(9) 0.3045(11) 0.4035(5)
H17 H 0.4278 0.3015 0.3720
C32 C 0.4622(12) 0.3778(13) 0.4373(7)
H18 H 0.4127 0.4239 0.4296
C33 C 0.5291(15) 0.3806(12) 0.4826(6)
H19 H 0.5227 0.4279 0.5067
C34 C 0.6044(9) 0.3163(9) 0.4932(4)
H20 H 0.6519 0.3242 0.5229
C35 C 0.7602(6) 0.1792(7) 0.5268(2)
H21 H 0.7855 0.2432 0.5309
H22 H 0.8150 0.1351 0.5304
H23 H 0.7198 0.1662 0.5527
C36 C 0.6462(6) 0.0681(6) 0.4701(3)
H24 H 0.6022 0.0646 0.4951
H25 H 0.6966 0.0197 0.4773
H26 H 0.6086 0.0584 0.4361
C37 C 0.9724(6) 0.0248(5) 0.3881(2)
C38 C 1.0826(6) 0.0588(6) 0.4011(3)
C39 C 1.1579(7) 0.0202(7) 0.3775(3)
H27 H 1.1429 -0.0251 0.3515
C40 C 1.2576(9) 0.0508(9) 0.3935(4)
H28 H 1.3086 0.0241 0.3785
C41 C 1.2797(10) 0.1201(9) 0.4311(5)
H29 H 1.3448 0.1423 0.4401
C42 C 1.2071(9) 0.1554(7) 0.4548(4)
H30 H 1.2233 0.1996 0.4813
C43 C 1.1087(7) 0.1272(6) 0.4405(3)
H31 H 1.0595 0.1536 0.4569
C44 C 0.9642(6) -0.0596(5) 0.4260(3)
H32 H 0.9726 -0.0358 0.4607
H33 H 1.0153 -0.1057 0.4232
H34 H 0.8998 -0.0890 0.4172
C45 C 0.9471(5) -0.0174(5) 0.3335(2)
H35 H 0.8794 -0.0397 0.3276
H36 H 0.9913 -0.0697 0.3302
H37 H 0.9550 0.0308 0.3085
C46 C 1.1931(6) 0.2900(6) 0.3166(3)
H38 H 1.2605 0.3118 0.3271
H39 H 1.1885 0.2546 0.2850
H40 H 1.1746 0.2498 0.3430
C47 C 1.1587(6) 0.4383(6) 0.2678(3)
H41 H 1.1137 0.4914 0.2611
H42 H 1.1585 0.4031 0.2364
H43 H 1.2249 0.4613 0.2803
C48 C 1.1118(6) 0.0823(6) 0.2460(3)
H44 H 1.1788 0.1064 0.2499
H45 H 1.1122 0.0146 0.2404
H46 H 1.0847 0.0956 0.2768
C49 C 0.9305(7) 0.0534(7) 0.1662(3)
H47 H 0.8896 0.0452 0.1924
H48 H 0.9592 -0.0068 0.1593
H49 H 0.8903 0.0770 0.1352
C50 C 1.1190(6) 0.1436(7) 0.1409(3)
H50 H 1.0864 0.1745 0.1099
H51 H 1.1360 0.0794 0.1329
H52 H 1.1787 0.1779 0.1547
C51 C 0.9145(9) 0.2796(9) 0.0894(3)
H53 H 0.9797 0.2900 0.0809
H54 H 0.8665 0.3176 0.0671
H55 H 0.8973 0.2134 0.0849
C52 C 0.9475(9) 0.4443(7) 0.1625(4)
H56 H 0.9676 0.4622 0.1980
H57 H 0.8904 0.4813 0.1475
H58 H 1.0014 0.4560 0.1439
C53 C 0.7795(7) 0.2982(8) 0.1683(4)
H59 H 0.7606 0.2325 0.1627
H60 H 0.7365 0.3376 0.1442
H61 H 0.7733 0.3161 0.2029
loop_
_geom_bond_atom_site_label_1
_geom_bond_atom_site_label_2
_geom_bond_site_symmetry_1
_geom_bond_site_symmetry_2
Mg1 N1 1_555 1_555
Si1 N3 1_555 1_555
Si2 N3 1_555 1_555
N1 C7 1_555 1_555
N2 Mg1 1_555 1_555
N3 Mg1 1_555 1_555
O1 Mg1 1_555 1_555
C1 O1 1_555 1_555
C2 C1 1_555 1_555
C3 C2 1_555 1_555
H1 C3 1_555 1_555
C4 C3 1_555 1_555
C5 C4 1_555 1_555
H2 C5 1_555 1_555
C6 C1 1_555 1_555
C7 C6 1_555 1_555
H3 C7 1_555 1_555
C8 N1 1_555 1_555
C9 C8 1_555 1_555
H4 C9 1_555 1_555
C10 C9 1_555 1_555
H5 C10 1_555 1_555
C11 C10 1_555 1_555
C12 C11 1_555 1_555
H6 C12 1_555 1_555
C13 C12 1_555 1_555
H7 C13 1_555 1_555
C14 C13 1_555 1_555
H8 C14 1_555 1_555
C15 C14 1_555 1_555
H9 C15 1_555 1_555
C16 C11 1_555 1_555
C17 C8 1_555 1_555
C18 C17 1_555 1_555
C19 C18 1_555 1_555
C20 C19 1_555 1_555
H10 C20 1_555 1_555
C21 C20 1_555 1_555
H11 C21 1_555 1_555
C22 C21 1_555 1_555
H12 C22 1_555 1_555
C23 C22 1_555 1_555
H13 C23 1_555 1_555
C24 C19 1_555 1_555
C25 C24 1_555 1_555
H14 C25 1_555 1_555
C26 C25 1_555 1_555
H15 C26 1_555 1_555
C27 N2 1_555 1_555
C28 C4 1_555 1_555
C29 C28 1_555 1_555
C30 C29 1_555 1_555
H16 C30 1_555 1_555
C31 C30 1_555 1_555
H17 C31 1_555 1_555
C32 C31 1_555 1_555
H18 C32 1_555 1_555
C33 C32 1_555 1_555
H19 C33 1_555 1_555
C34 C29 1_555 1_555
H20 C34 1_555 1_555
C35 C28 1_555 1_555
H21 C35 1_555 1_555
H22 C35 1_555 1_555
H23 C35 1_555 1_555
C36 C28 1_555 1_555
H24 C36 1_555 1_555
H25 C36 1_555 1_555
H26 C36 1_555 1_555
C37 C2 1_555 1_555
C38 C37 1_555 1_555
C39 C38 1_555 1_555
H27 C39 1_555 1_555
C40 C39 1_555 1_555
H28 C40 1_555 1_555
C41 C40 1_555 1_555
H29 C41 1_555 1_555
C42 C41 1_555 1_555
H30 C42 1_555 1_555
C43 C38 1_555 1_555
H31 C43 1_555 1_555
C44 C37 1_555 1_555
H32 C44 1_555 1_555
H33 C44 1_555 1_555
H34 C44 1_555 1_555
C45 C37 1_555 1_555
H35 C45 1_555 1_555
H36 C45 1_555 1_555
H37 C45 1_555 1_555
C46 N2 1_555 1_555
H38 C46 1_555 1_555
H39 C46 1_555 1_555
H40 C46 1_555 1_555
C47 N2 1_555 1_555
H41 C47 1_555 1_555
H42 C47 1_555 1_555
H43 C47 1_555 1_555
C48 Si1 1_555 1_555
H44 C48 1_555 1_555
H45 C48 1_555 1_555
H46 C48 1_555 1_555
C49 Si1 1_555 1_555
H47 C49 1_555 1_555
H48 C49 1_555 1_555
H49 C49 1_555 1_555
C50 Si1 1_555 1_555
H50 C50 1_555 1_555
H51 C50 1_555 1_555
H52 C50 1_555 1_555
C51 Si2 1_555 1_555
H53 C51 1_555 1_555
H54 C51 1_555 1_555
H55 C51 1_555 1_555
C52 Si2 1_555 1_555
H56 C52 1_555 1_555
H57 C52 1_555 1_555
H58 C52 1_555 1_555
C53 Si2 1_555 1_555
H59 C53 1_555 1_555
H60 C53 1_555 1_555
H61 C53 1_555 1_555
C5 C6 1_555 1_555
C15 C16 1_555 1_555
C16 C17 1_555 1_555
C18 C27 1_555 1_555
C23 C24 1_555 1_555
C26 C27 1_555 1_555
C33 C34 1_555 1_555
C42 C43 1_555 1_555

#END
