
#######################################################################
#
#                 Cambridge Crystallographic Data Centre
#                                CCDC 
#
#######################################################################
#
# If this CIF has been generated from an entry in the Cambridge 
# Structural Database, then it will include bibliographic, chemical, 
# crystal, experimental, refinement or atomic coordinate data resulting 
# from the CCDC's data processing and validation procedures.
#
#######################################################################

data_LUNKIQ
_chemical_formula_moiety         'C46 H58 N2'
_chemical_name_systematic        
2,5,9,16-tetra-t-butyl-7,7,18,18-tetramethyl-7H,18H-quinolino[1',2',3':1,8]cinnolino[4,3,2-de]acridine
_symmetry_cell_setting           monoclinic
_symmetry_space_group_name_H-M   'P 21/n'
_symmetry_Int_Tables_number      14
_space_group_name_Hall           '-P 2yn'
loop_
_symmetry_equiv_pos_site_id
_symmetry_equiv_pos_as_xyz
1 x,y,z
2 1/2-x,1/2+y,1/2-z
3 -x,-y,-z
4 1/2+x,1/2-y,1/2+z
_cell_length_a                   13.312(3)
_cell_length_b                   18.813(4)
_cell_length_c                   15.401(4)
_cell_angle_alpha                90
_cell_angle_beta                 97.762(5)
_cell_angle_gamma                90
_cell_volume                     3821.67
_exptl_crystal_colour            yellow
_exptl_crystal_description       Platelet
_cell_formula_units_Z            4
_exptl_crystal_recrystallization_method 
'Re-crystallisation from solvent: Dichloromethane/Ethanol'
loop_
_atom_site_label
_atom_site_type_symbol
_atom_site_fract_x
_atom_site_fract_y
_atom_site_fract_z
N1 N 0.73011(16) 0.20293(12) 0.30770(15)
C1 C 0.8862(2) 0.26136(14) 0.37567(17)
C2 C 0.6576(2) 0.35431(14) 0.44068(17)
C3 C 0.54297(19) 0.34623(14) 0.41643(17)
C4 C 0.52427(19) 0.33207(14) 0.31738(18)
C5 C 0.7039(2) 0.40234(15) 0.50225(18)
C6 C 0.8934(2) 0.15584(15) 0.28618(18)
C7 C 1.0499(2) 0.21238(15) 0.35404(19)
C8 C 0.7193(2) 0.30673(14) 0.40180(17)
N2 N 0.67191(16) 0.25791(12) 0.34023(14)
C9 C 0.8247(2) 0.31051(14) 0.42132(17)
C10 C 0.8087(2) 0.40402(14) 0.52701(18)
C11 C 0.8351(2) 0.09740(16) 0.2328(2)
C12 C 0.9915(2) 0.26293(15) 0.38849(19)
C13 C 0.5884(2) 0.28426(14) 0.28209(18)
C14 C 0.8372(2) 0.20852(14) 0.32181(17)
C15 C 0.5739(2) 0.04805(15) 0.35815(19)
C16 C 0.4277(2) 0.34739(15) 0.17118(19)
C17 C 0.4462(2) 0.36363(15) 0.26076(18)
C18 C 0.7464(2) 0.07806(15) 0.28080(18)
C19 C 0.8670(2) 0.35825(15) 0.48535(18)
C20 C 0.8555(2) 0.45301(16) 0.60172(19)
C21 C 0.5693(2) 0.26430(16) 0.1950(2)
C22 C 0.5094(2) 0.28158(15) 0.46583(19)
H1 H 0.5531 0.2410 0.4572
H2 H 0.4389 0.2698 0.4434
H3 H 0.5148 0.2926 0.5285
C23 C 0.6909(2) 0.13309(14) 0.31334(18)
C24 C 0.6312(2) -0.00880(15) 0.33367(19)
C25 C 0.9984(2) 0.15856(17) 0.3031(2)
C26 C 0.3442(2) 0.38351(17) 0.1089(2)
C27 C 0.4840(2) 0.41084(15) 0.4424(2)
H4 H 0.4970 0.4173 0.5060
H5 H 0.4113 0.4033 0.4244
H6 H 0.5060 0.4533 0.4132
C28 C 0.6029(2) 0.11820(15) 0.34812(19)
C29 C 0.4899(2) 0.29604(17) 0.1407(2)
C30 C 0.6004(2) -0.08568(16) 0.3501(2)
C31 C 0.7155(2) 0.00822(15) 0.29398(19)
C32 C 0.9712(2) 0.44739(18) 0.6190(2)
H7 H 1.0000 0.4623 0.5666
H8 H 0.9906 0.3981 0.6331
H9 H 0.9970 0.4782 0.6683
C33 C 0.7935(2) 0.1271(2) 0.1417(2)
H10 H 0.7514 0.0910 0.1085
H11 H 0.8501 0.1398 0.1102
H12 H 0.7525 0.1695 0.1486
C34 C 1.1667(2) 0.21511(17) 0.3713(2)
C35 C 0.8270(3) 0.53016(17) 0.5805(2)
H13 H 0.8545 0.5446 0.5273
H14 H 0.8552 0.5606 0.6295
H15 H 0.7530 0.5349 0.5712
C36 C 0.9016(2) 0.03272(18) 0.2195(3)
H16 H 0.9288 0.0128 0.2766
H17 H 0.9578 0.0474 0.1884
H18 H 0.8608 -0.0033 0.1849
C37 C 1.2115(2) 0.14064(18) 0.3807(3)
H19 H 1.1915 0.1139 0.3265
H20 H 1.1862 0.1162 0.4296
H21 H 1.2856 0.1438 0.3920
C38 C 1.2034(3) 0.2556(2) 0.4565(3)
H22 H 1.2766 0.2488 0.4720
H23 H 1.1682 0.2375 0.5039
H24 H 1.1889 0.3064 0.4479
C39 C 0.2884(3) 0.44059(19) 0.1534(2)
H25 H 0.2556 0.4191 0.2003
H26 H 0.2368 0.4626 0.1103
H27 H 0.3367 0.4769 0.1783
C40 C 0.8143(3) 0.4305(2) 0.6855(2)
H28 H 0.8418 0.4619 0.7337
H29 H 0.8344 0.3814 0.6999
H30 H 0.7401 0.4339 0.6766
C41 C 0.5696(3) -0.0922(2) 0.4420(3)
H31 H 0.6249 -0.0750 0.4854
H32 H 0.5554 -0.1421 0.4540
H33 H 0.5086 -0.0636 0.4455
C42 C 1.2047(3) 0.2514(3) 0.2945(3)
H34 H 1.2790 0.2496 0.3018
H35 H 1.1825 0.3011 0.2918
H36 H 1.1774 0.2272 0.2401
C43 C 0.6867(3) -0.13798(17) 0.3414(3)
H37 H 0.7033 -0.1366 0.2813
H38 H 0.6654 -0.1861 0.3549
H39 H 0.7466 -0.1246 0.3823
C44 C 0.5100(3) -0.10670(19) 0.2830(3)
H40 H 0.4524 -0.0756 0.2894
H41 H 0.4914 -0.1562 0.2929
H42 H 0.5282 -0.1018 0.2238
C45 C 0.2656(3) 0.3276(2) 0.0716(2)
H43 H 0.2332 0.3073 0.1194
H44 H 0.2994 0.2899 0.0428
H45 H 0.2141 0.3502 0.0290
C46 C 0.3907(3) 0.4179(2) 0.0328(3)
H46 H 0.3371 0.4410 -0.0073
H47 H 0.4233 0.3812 0.0012
H48 H 0.4412 0.4533 0.0561
H49 H 0.659(2) 0.4351(14) 0.5320(17)
H50 H 0.4021(19) 0.3989(14) 0.2852(16)
H51 H 1.028(2) 0.2973(15) 0.4248(18)
H52 H 0.563(2) 0.1597(17) 0.3644(19)
H53 H 0.940(2) 0.3564(14) 0.4962(16)
H54 H 0.618(2) 0.2270(16) 0.1722(19)
H55 H 0.752(2) -0.0333(18) 0.271(2)
H56 H 1.035(2) 0.1214(18) 0.278(2)
H57 H 0.482(2) 0.2863(17) 0.078(2)
H58 H 0.507(2) 0.0389(16) 0.383(2)
loop_
_geom_bond_atom_site_label_1
_geom_bond_atom_site_label_2
_geom_bond_site_symmetry_1
_geom_bond_site_symmetry_2
N1 N2 1_555 1_555
C1 C9 1_555 1_555
C2 C3 1_555 1_555
C3 C4 1_555 1_555
C4 C13 1_555 1_555
C5 C2 1_555 1_555
C6 C11 1_555 1_555
C7 C12 1_555 1_555
C8 C2 1_555 1_555
N2 C8 1_555 1_555
C9 C8 1_555 1_555
C10 C5 1_555 1_555
C11 C18 1_555 1_555
C12 C1 1_555 1_555
C13 N2 1_555 1_555
C14 N1 1_555 1_555
C15 C24 1_555 1_555
C16 C17 1_555 1_555
C17 C4 1_555 1_555
C18 C23 1_555 1_555
C19 C9 1_555 1_555
C20 C10 1_555 1_555
C21 C13 1_555 1_555
C22 C3 1_555 1_555
H1 C22 1_555 1_555
H2 C22 1_555 1_555
H3 C22 1_555 1_555
C23 N1 1_555 1_555
C24 C30 1_555 1_555
C25 C6 1_555 1_555
C26 C16 1_555 1_555
C27 C3 1_555 1_555
H4 C27 1_555 1_555
H5 C27 1_555 1_555
H6 C27 1_555 1_555
C28 C15 1_555 1_555
C29 C16 1_555 1_555
C30 C41 1_555 1_555
C31 C18 1_555 1_555
C32 C20 1_555 1_555
H7 C32 1_555 1_555
H8 C32 1_555 1_555
H9 C32 1_555 1_555
C33 C11 1_555 1_555
H10 C33 1_555 1_555
H11 C33 1_555 1_555
H12 C33 1_555 1_555
C34 C7 1_555 1_555
C35 C20 1_555 1_555
H13 C35 1_555 1_555
H14 C35 1_555 1_555
H15 C35 1_555 1_555
C36 C11 1_555 1_555
H16 C36 1_555 1_555
H17 C36 1_555 1_555
H18 C36 1_555 1_555
C37 C34 1_555 1_555
H19 C37 1_555 1_555
H20 C37 1_555 1_555
H21 C37 1_555 1_555
C38 C34 1_555 1_555
H22 C38 1_555 1_555
H23 C38 1_555 1_555
H24 C38 1_555 1_555
C39 C26 1_555 1_555
H25 C39 1_555 1_555
H26 C39 1_555 1_555
H27 C39 1_555 1_555
C40 C20 1_555 1_555
H28 C40 1_555 1_555
H29 C40 1_555 1_555
H30 C40 1_555 1_555
C41 H31 1_555 1_555
H32 C41 1_555 1_555
H33 C41 1_555 1_555
C42 C34 1_555 1_555
H34 C42 1_555 1_555
H35 C42 1_555 1_555
H36 C42 1_555 1_555
C43 C30 1_555 1_555
H37 C43 1_555 1_555
H38 C43 1_555 1_555
H39 C43 1_555 1_555
C44 C30 1_555 1_555
H40 C44 1_555 1_555
H41 C44 1_555 1_555
H42 C44 1_555 1_555
C45 C26 1_555 1_555
H43 C45 1_555 1_555
H44 C45 1_555 1_555
H45 C45 1_555 1_555
C46 C26 1_555 1_555
H46 C46 1_555 1_555
H47 C46 1_555 1_555
H48 C46 1_555 1_555
H49 C5 1_555 1_555
H50 C17 1_555 1_555
H51 C12 1_555 1_555
H52 C28 1_555 1_555
H53 C19 1_555 1_555
H54 C21 1_555 1_555
H55 C31 1_555 1_555
H56 C25 1_555 1_555
H57 C29 1_555 1_555
H58 C15 1_555 1_555
C1 C14 1_555 1_555
C6 C14 1_555 1_555
C7 C25 1_555 1_555
C10 C19 1_555 1_555
C21 C29 1_555 1_555
C23 C28 1_555 1_555
C24 C31 1_555 1_555

#END
