
#######################################################################
#
#                 Cambridge Crystallographic Data Centre
#                                CCDC 
#
#######################################################################
#
# If this CIF has been generated from an entry in the Cambridge 
# Structural Database, then it will include bibliographic, chemical, 
# crystal, experimental, refinement or atomic coordinate data resulting 
# from the CCDC's data processing and validation procedures.
#
#######################################################################

data_LUNMUE
_chemical_formula_moiety         'C40 H46 N2 1+,C6 H5 I1,I5 1-'
_chemical_name_systematic        
"3,6,9,12-tetra-t-butylindolo[1',2',3':1,8]cinnolino[4,3,2-jk]carbazole radical cation pentaiodide iodobenzene solvate"
_symmetry_cell_setting           monoclinic
_symmetry_space_group_name_H-M   'P 21/c'
_symmetry_Int_Tables_number      14
_space_group_name_Hall           '-P 2ybc'
loop_
_symmetry_equiv_pos_site_id
_symmetry_equiv_pos_as_xyz
1 x,y,z
2 -x,1/2+y,1/2-z
3 -x,-y,-z
4 x,1/2-y,1/2+z
_cell_length_a                   15.047(3)
_cell_length_b                   24.399(5)
_cell_length_c                   13.754(3)
_cell_angle_alpha                90
_cell_angle_beta                 108.90(3)
_cell_angle_gamma                90
_cell_volume                     4777.29
_exptl_crystal_colour            'dark red'
_exptl_crystal_description       plate
_cell_formula_units_Z            4
loop_
_atom_site_label
_atom_site_type_symbol
_atom_site_fract_x
_atom_site_fract_y
_atom_site_fract_z
I2 I 0.9458(2) 0.07669(11) 0.7508(2)
C7 C 0.9055(3) 0.16647(15) 0.7376(4)
C8 C 0.9744(3) 0.2055(2) 0.7433(4)
H6 H 1.0369 0.1942 0.7520
C9 C 0.9517(4) 0.26087(17) 0.7364(4)
H7 H 0.9988 0.2875 0.7403
C10 C 0.8602(4) 0.27729(15) 0.7237(5)
H8 H 0.8447 0.3152 0.7189
C11 C 0.7913(3) 0.2383(2) 0.7180(5)
H9 H 0.7288 0.2495 0.7093
C12 C 0.8140(3) 0.18290(19) 0.7250(4)
H10 H 0.7669 0.1563 0.7211
I3 I 0.22557(3) 0.23904(2) 0.27126(3)
I4 I 0.35498(2) 0.252950(14) 0.47454(3)
I5 I 0.49273(3) 0.268787(19) 0.68289(3)
I6 I 0.77113(17) 0.44456(13) 0.7147(3)
I7 I 0.63301(4) 0.36386(2) 0.68907(4)
N1 N 0.8961(3) 0.28362(15) 0.4854(3)
N2 N 0.8021(2) 0.28250(15) 0.4664(3)
C13 C 0.7321(3) 0.32368(19) 0.4385(3)
C14 C 0.7357(3) 0.37703(19) 0.4071(3)
H11 H 0.7930 0.3932 0.4068
C15 C 0.6524(3) 0.4059(2) 0.3763(3)
H12 H 0.6534 0.4427 0.3541
C16 C 0.5663(3) 0.38375(19) 0.3759(3)
C17 C 0.5651(3) 0.32900(19) 0.4045(3)
H13 H 0.5076 0.3125 0.4034
C18 C 0.6470(3) 0.29846(19) 0.4343(3)
C19 C 0.6647(3) 0.23971(19) 0.4548(3)
C20 C 0.6125(3) 0.1940(2) 0.4581(4)
H14 H 0.5480 0.1980 0.4516
C21 C 0.6528(3) 0.14168(19) 0.4710(4)
C22 C 0.7469(3) 0.13546(19) 0.4773(3)
H15 H 0.7732 0.0997 0.4832
C23 C 0.8033(3) 0.18113(19) 0.4750(3)
C24 C 0.7598(3) 0.23169(18) 0.4680(3)
C25 C 0.9414(3) 0.23396(18) 0.4845(3)
C26 C 0.9014(3) 0.18222(19) 0.4781(3)
C27 C 0.9605(3) 0.13830(19) 0.4770(3)
H16 H 0.9361 0.1021 0.4709
C28 C 1.0549(3) 0.14620(19) 0.4848(4)
C29 C 1.0919(3) 0.19923(19) 0.4964(3)
H17 H 1.1561 0.2047 0.5031
C30 C 1.0358(3) 0.24405(19) 0.4983(3)
C31 C 1.0500(3) 0.30305(19) 0.5160(3)
C32 C 1.1297(3) 0.3354(2) 0.5425(4)
H18 H 1.1879 0.3203 0.5424
C33 C 1.1252(3) 0.3900(2) 0.5694(4)
C34 C 1.0384(3) 0.4103(2) 0.5719(4)
H19 H 1.0359 0.4470 0.5940
C35 C 0.9569(3) 0.37971(19) 0.5438(4)
H20 H 0.8991 0.3947 0.5456
C36 C 0.9632(3) 0.32607(18) 0.5129(3)
C37 C 0.4754(3) 0.4177(2) 0.3451(4)
C38 C 0.3999(4) 0.3884(3) 0.2564(5)
H21 H 0.4243 0.3823 0.1993
H22 H 0.3434 0.4113 0.2331
H23 H 0.3843 0.3531 0.2807
C39 C 0.4894(4) 0.4744(2) 0.3081(5)
H24 H 0.5347 0.4947 0.3641
H25 H 0.4293 0.4940 0.2863
H26 H 0.5133 0.4714 0.2500
C40 C 0.4425(4) 0.4226(3) 0.4385(5)
H27 H 0.4304 0.3859 0.4605
H28 H 0.3847 0.4443 0.4205
H29 H 0.4913 0.4406 0.4946
C41 C 0.5922(4) 0.0921(2) 0.4787(4)
C42 C 0.5005(4) 0.0917(2) 0.3867(5)
H30 H 0.4643 0.1249 0.3882
H31 H 0.4633 0.0594 0.3909
H32 H 0.5155 0.0906 0.3225
C43 C 0.5681(5) 0.0975(3) 0.5785(5)
H33 H 0.6259 0.0957 0.6375
H34 H 0.5261 0.0675 0.5827
H35 H 0.5368 0.1327 0.5789
C44 C 0.6423(4) 0.0375(2) 0.4790(5)
H36 H 0.6569 0.0338 0.4149
H37 H 0.6013 0.0073 0.4848
H38 H 0.7006 0.0365 0.5375
C45 C 1.1158(4) 0.0960(2) 0.4798(4)
C46 C 1.0720(4) 0.0677(3) 0.3747(5)
H39 H 1.0064 0.0584 0.3652
H40 H 1.1071 0.0342 0.3723
H41 H 1.0747 0.0926 0.3198
C47 C 1.1159(5) 0.0557(3) 0.5640(6)
H42 H 1.1393 0.0740 0.6309
H43 H 1.1567 0.0246 0.5627
H44 H 1.0518 0.0426 0.5528
C48 C 1.2164(4) 0.1111(2) 0.4892(5)
H45 H 1.2162 0.1363 0.4336
H46 H 1.2513 0.0779 0.4845
H47 H 1.2465 0.1289 0.5556
C49 C 1.2111(4) 0.4277(2) 0.5967(4)
C50 C 1.1904(4) 0.4729(2) 0.5128(4)
H48 H 1.1797 0.4558 0.4454
H49 H 1.2442 0.4979 0.5276
H50 H 1.1343 0.4934 0.5123
C51 C 1.2997(4) 0.3968(2) 0.5990(5)
H51 H 1.3121 0.3678 0.6509
H52 H 1.3529 0.4223 0.6164
H53 H 1.2910 0.3806 0.5314
C52 C 1.2288(4) 0.4534(2) 0.7026(4)
H54 H 1.1763 0.4776 0.7008
H55 H 1.2872 0.4746 0.7214
H56 H 1.2342 0.4244 0.7535
I1? I 0.7767(5) 0.4314(3) 0.7089(6)
C1? C 0.9175(8) 0.2740(5) 0.7357(11)
H1? H 0.9795 0.2620 0.7437
C2? C 0.8969(8) 0.3297(5) 0.7297(9)
H2? H 0.9448 0.3558 0.7336
C3? C 0.8061(9) 0.3472(4) 0.7179(9)
C4? C 0.7359(7) 0.3091(5) 0.7122(10)
H3? H 0.6739 0.3211 0.7042
C5? C 0.7566(9) 0.2534(4) 0.7182(10)
H4? H 0.7086 0.2274 0.7143
C6? C 0.8473(10) 0.2359(4) 0.7300(11)
H5? H 0.8614 0.1978 0.7341
I8? I 0.9444(3) 0.0877(2) 0.7492(4)
I9? I 1.09220(9) 0.15543(5) 0.76868(8)
loop_
_geom_bond_atom_site_label_1
_geom_bond_atom_site_label_2
_geom_bond_site_symmetry_1
_geom_bond_site_symmetry_2
I2 C7 1_555 1_555
C7 C8 1_555 1_555
C8 H6 1_555 1_555
C9 C8 1_555 1_555
H7 C9 1_555 1_555
C10 C9 1_555 1_555
H8 C10 1_555 1_555
C11 C10 1_555 1_555
H9 C11 1_555 1_555
C12 C7 1_555 1_555
H10 C12 1_555 1_555
I3 I4 1_555 1_555
I4 I5 1_555 1_555
I5 I7 1_555 1_555
I6 I7 1_555 1_555
N1 N2 1_555 1_555
N2 C13 1_555 1_555
C13 C14 1_555 1_555
C14 H11 1_555 1_555
C15 C14 1_555 1_555
H12 C15 1_555 1_555
C16 C15 1_555 1_555
C17 C16 1_555 1_555
H13 C17 1_555 1_555
C18 C13 1_555 1_555
C19 C18 1_555 1_555
C20 C19 1_555 1_555
H14 C20 1_555 1_555
C21 C20 1_555 1_555
C22 C21 1_555 1_555
H15 C22 1_555 1_555
C23 C22 1_555 1_555
C24 N2 1_555 1_555
C25 N1 1_555 1_555
C26 C23 1_555 1_555
C27 C26 1_555 1_555
H16 C27 1_555 1_555
C28 C27 1_555 1_555
C29 C28 1_555 1_555
H17 C29 1_555 1_555
C30 C25 1_555 1_555
C31 C30 1_555 1_555
C32 C31 1_555 1_555
H18 C32 1_555 1_555
C33 C32 1_555 1_555
C34 C33 1_555 1_555
H19 C34 1_555 1_555
C35 C34 1_555 1_555
H20 C35 1_555 1_555
C36 N1 1_555 1_555
C37 C16 1_555 1_555
C38 C37 1_555 1_555
H21 C38 1_555 1_555
H22 C38 1_555 1_555
H23 C38 1_555 1_555
C39 C37 1_555 1_555
H24 C39 1_555 1_555
H25 C39 1_555 1_555
H26 C39 1_555 1_555
C40 C37 1_555 1_555
H27 C40 1_555 1_555
H28 C40 1_555 1_555
H29 C40 1_555 1_555
C41 C21 1_555 1_555
C42 C41 1_555 1_555
H30 C42 1_555 1_555
H31 C42 1_555 1_555
H32 C42 1_555 1_555
C43 C41 1_555 1_555
H33 C43 1_555 1_555
H34 C43 1_555 1_555
H35 C43 1_555 1_555
C44 C41 1_555 1_555
H36 C44 1_555 1_555
H37 C44 1_555 1_555
H38 C44 1_555 1_555
C45 C28 1_555 1_555
C46 C45 1_555 1_555
H39 C46 1_555 1_555
H40 C46 1_555 1_555
H41 C46 1_555 1_555
C47 C45 1_555 1_555
H42 C47 1_555 1_555
H43 C47 1_555 1_555
H44 C47 1_555 1_555
C48 C45 1_555 1_555
H45 C48 1_555 1_555
H46 C48 1_555 1_555
H47 C48 1_555 1_555
C49 C33 1_555 1_555
C50 C49 1_555 1_555
H48 C50 1_555 1_555
H49 C50 1_555 1_555
H50 C50 1_555 1_555
C51 C49 1_555 1_555
H51 C51 1_555 1_555
H52 C51 1_555 1_555
H53 C51 1_555 1_555
C52 C49 1_555 1_555
H54 C52 1_555 1_555
H55 C52 1_555 1_555
H56 C52 1_555 1_555
C11 C12 1_555 1_555
C17 C18 1_555 1_555
C19 C24 1_555 1_555
C23 C24 1_555 1_555
C25 C26 1_555 1_555
C29 C30 1_555 1_555
C31 C36 1_555 1_555
C35 C36 1_555 1_555

#END
