
#######################################################################
#
#                 Cambridge Crystallographic Data Centre
#                                CCDC 
#
#######################################################################
#
# If this CIF has been generated from an entry in the Cambridge 
# Structural Database, then it will include bibliographic, chemical, 
# crystal, experimental, refinement or atomic coordinate data resulting 
# from the CCDC's data processing and validation procedures.
#
#######################################################################

data_LUNPOZ
_chemical_formula_moiety         'C15 H14 Cl1 N1 O1'
_chemical_name_systematic        (R)-N-(2-Chlorobenzoyl)-\a-methylbenzylamine
_symmetry_cell_setting           orthorhombic
_symmetry_space_group_name_H-M   'P 21 21 21'
_symmetry_Int_Tables_number      19
_space_group_name_Hall           'P 2ac 2ab'
loop_
_symmetry_equiv_pos_site_id
_symmetry_equiv_pos_as_xyz
1 x,y,z
2 1/2-x,-y,1/2+z
3 1/2+x,1/2-y,-z
4 -x,1/2+y,1/2-z
_cell_length_a                   5.1082(8)
_cell_length_b                   16.161(3)
_cell_length_c                   32.365(3)
_cell_angle_alpha                90
_cell_angle_beta                 90
_cell_angle_gamma                90
_cell_volume                     2671.85
_exptl_crystal_colour            colorless
_exptl_crystal_description       needles
_chemical_melting_point          108-110deg.C
_cell_formula_units_Z            8
_exptl_crystal_recrystallization_method dichloromethane/hexane
loop_
_atom_site_label
_atom_site_type_symbol
_atom_site_fract_x
_atom_site_fract_y
_atom_site_fract_z
Cl1 Cl 1.0624(5) 0.40659(11) 0.06003(5)
O1 O 0.4662(8) 0.4348(3) -0.02651(14)
N1 N 0.8871(10) 0.3964(3) -0.03199(13)
H1 H 1.0452 0.4070 -0.0246
C1 C 0.9126(17) 0.6453(5) 0.0611(2)
H2 H 0.9573 0.6904 0.0776
C2 C 0.7473(17) 0.6558(4) 0.0284(2)
H3 H 0.6817 0.7080 0.0223
C3 C 0.6776(15) 0.5887(4) 0.00440(19)
H4 H 0.5606 0.5959 -0.0173
C4 C 0.7796(12) 0.5108(4) 0.01224(16)
C5 C 0.9441(13) 0.5032(4) 0.04492(16)
C6 C 1.0127(15) 0.5690(5) 0.06983(19)
H5 H 1.1251 0.5615 0.0921
C7 C 0.6950(14) 0.4428(4) -0.01742(18)
C8 C 0.8394(11) 0.3276(3) -0.06026(17)
H6 H 0.6679 0.3039 -0.0536
C9 C 1.0468(13) 0.2613(3) -0.05260(18)
H7 H 1.0333 0.2418 -0.0247
H8 H 1.2176 0.2844 -0.0570
H9 H 1.0198 0.2160 -0.0713
C10 C 0.8352(13) 0.3551(4) -0.10524(18)
C11 C 1.0043(18) 0.4111(5) -0.1196(2)
H10 H 1.1279 0.4338 -0.1018
C12 C 0.999(2) 0.4360(5) -0.1606(2)
H11 H 1.1141 0.4765 -0.1699
C13 C 0.8261(18) 0.4012(5) -0.1871(2)
H12 H 0.8210 0.4174 -0.2147
C14 C 0.6626(17) 0.3431(6) -0.1730(2)
H13 H 0.5446 0.3181 -0.1909
C15 C 0.6673(16) 0.3199(5) -0.1320(2)
H14 H 0.5526 0.2793 -0.1227
Cl2 Cl 1.1753(4) 0.48898(11) 0.23978(5)
O2 O 1.1069(8) 0.6374(2) 0.18011(14)
N2 N 0.6803(9) 0.6607(3) 0.19248(14)
H15 H 0.5278 0.6389 0.1953
C16 C 0.7061(15) 0.3550(4) 0.1693(2)
H16 H 0.6700 0.2990 0.1656
C17 C 0.5732(15) 0.4124(4) 0.1471(2)
H17 H 0.4459 0.3962 0.1282
C18 C 0.6290(14) 0.4956(4) 0.15287(18)
H18 H 0.5357 0.5348 0.1378
C19 C 0.8186(12) 0.5220(3) 0.18021(16)
C20 C 0.9497(12) 0.4621(4) 0.20273(17)
C21 C 0.8936(15) 0.3791(4) 0.19707(19)
H19 H 0.9837 0.3394 0.2122
C22 C 0.8837(13) 0.6125(3) 0.18409(17)
C23 C 0.7106(12) 0.7504(3) 0.19700(17)
H20 H 0.8821 0.7612 0.2095
C24 C 0.5003(12) 0.7812(3) 0.22687(17)
H21 H 0.5211 0.7542 0.2531
H22 H 0.3302 0.7687 0.2159
H23 H 0.5173 0.8399 0.2304
C25 C 0.6991(13) 0.7954(4) 0.1560(2)
C26 C 0.5083(15) 0.7778(4) 0.1275(2)
H24 H 0.3874 0.7360 0.1328
C27 C 0.4957(16) 0.8223(4) 0.0909(2)
H25 H 0.3658 0.8104 0.0717
C28 C 0.6718(17) 0.8830(5) 0.0831(3)
H26 H 0.6595 0.9129 0.0586
C29 C 0.8652(16) 0.9008(5) 0.1102(3)
H27 H 0.9877 0.9417 0.1043
C30 C 0.8781(14) 0.8567(4) 0.1474(2)
H28 H 1.0087 0.8689 0.1665
loop_
_geom_bond_atom_site_label_1
_geom_bond_atom_site_label_2
_geom_bond_site_symmetry_1
_geom_bond_site_symmetry_2
Cl1 C5 1_555 1_555
O1 C7 1_555 1_555
N1 H1 1_555 1_555
C1 H2 1_555 1_555
C2 C1 1_555 1_555
H3 C2 1_555 1_555
C3 C2 1_555 1_555
H4 C3 1_555 1_555
C4 C3 1_555 1_555
C5 C4 1_555 1_555
C6 C1 1_555 1_555
H5 C6 1_555 1_555
C7 N1 1_555 1_555
C8 N1 1_555 1_555
H6 C8 1_555 1_555
C9 C8 1_555 1_555
H7 C9 1_555 1_555
H8 C9 1_555 1_555
H9 C9 1_555 1_555
C10 C8 1_555 1_555
C11 C10 1_555 1_555
H10 C11 1_555 1_555
C12 C11 1_555 1_555
H11 C12 1_555 1_555
C13 C12 1_555 1_555
H12 C13 1_555 1_555
C14 C13 1_555 1_555
H13 C14 1_555 1_555
C15 C10 1_555 1_555
H14 C15 1_555 1_555
Cl2 C20 1_555 1_555
O2 C22 1_555 1_555
N2 H15 1_555 1_555
C16 H16 1_555 1_555
C17 C16 1_555 1_555
H17 C17 1_555 1_555
C18 C17 1_555 1_555
H18 C18 1_555 1_555
C19 C18 1_555 1_555
C20 C19 1_555 1_555
C21 C16 1_555 1_555
H19 C21 1_555 1_555
C22 N2 1_555 1_555
C23 N2 1_555 1_555
H20 C23 1_555 1_555
C24 C23 1_555 1_555
H21 C24 1_555 1_555
H22 C24 1_555 1_555
H23 C24 1_555 1_555
C25 C23 1_555 1_555
C26 C25 1_555 1_555
H24 C26 1_555 1_555
C27 C26 1_555 1_555
H25 C27 1_555 1_555
C28 C27 1_555 1_555
H26 C28 1_555 1_555
C29 C28 1_555 1_555
H27 C29 1_555 1_555
C30 C25 1_555 1_555
H28 C30 1_555 1_555
C4 C7 1_555 1_555
C5 C6 1_555 1_555
C14 C15 1_555 1_555
C19 C22 1_555 1_555
C20 C21 1_555 1_555
C29 C30 1_555 1_555

#END
