
#######################################################################
#
#                 Cambridge Crystallographic Data Centre
#                                CCDC 
#
#######################################################################
#
# If this CIF has been generated from an entry in the Cambridge 
# Structural Database, then it will include bibliographic, chemical, 
# crystal, experimental, refinement or atomic coordinate data resulting 
# from the CCDC's data processing and validation procedures.
#
#######################################################################

data_LUNQEQ
_chemical_formula_moiety         'C15 H14 Br1 N1 O1'
_chemical_name_systematic        (+-)-N-(2-Bromobenzoyl)-\a-methylbenzylamine
_symmetry_cell_setting           orthorhombic
_symmetry_space_group_name_H-M   'P b c a'
_symmetry_Int_Tables_number      61
_space_group_name_Hall           '-P 2ac 2ab'
loop_
_symmetry_equiv_pos_site_id
_symmetry_equiv_pos_as_xyz
1 x,y,z
2 1/2+x,y,1/2-z
3 1/2-x,1/2+y,z
4 x,1/2-y,1/2+z
5 -x,-y,-z
6 1/2-x,-y,1/2+z
7 1/2+x,1/2-y,-z
8 -x,1/2+y,1/2-z
_cell_length_a                   9.4207(7)
_cell_length_b                   16.3613(13)
_cell_length_c                   18.3476(18)
_cell_angle_alpha                90
_cell_angle_beta                 90
_cell_angle_gamma                90
_cell_volume                     2828.01
_exptl_crystal_colour            colorless
_exptl_crystal_description       plates
_chemical_melting_point          111-113deg.C
_cell_formula_units_Z            8
_exptl_crystal_recrystallization_method methanol/dichloromethane/hexane
loop_
_atom_site_label
_atom_site_type_symbol
_atom_site_fract_x
_atom_site_fract_y
_atom_site_fract_z
Br1 Br 0.36336(7) 0.03292(5) 0.43070(4)
N1 N 0.2759(4) 0.1310(2) 0.2290(2)
H1 H 0.1859 0.1398 0.2278
O1 O 0.4759(4) 0.1406(3) 0.29525(18)
C1 C 0.3614(6) 0.0082(3) 0.1659(3)
C2 C 0.3455(6) 0.1456(3) 0.2904(3)
C3 C 0.3458(6) 0.1005(3) 0.1632(3)
H2 H 0.4412 0.1243 0.1614
C4 C 0.2575(5) 0.1724(3) 0.3533(3)
C5 C 0.3968(9) -0.1600(4) 0.1679(3)
H3 H 0.4087 -0.2164 0.1689
C6 C 0.1749(6) 0.2419(4) 0.3490(3)
H4 H 0.1721 0.2711 0.3055
C7 C 0.2490(6) -0.0427(4) 0.1798(3)
H5 H 0.1597 -0.0205 0.1887
C8 C 0.2665(6) 0.1276(3) 0.0956(2)
H6 H 0.1699 0.1093 0.0983
H7 H 0.3110 0.1045 0.0532
H8 H 0.2686 0.1862 0.0923
C9 C 0.2582(6) 0.1306(3) 0.4188(3)
C10 C 0.4905(7) -0.0269(4) 0.1534(3)
H9 H 0.5685 0.0065 0.1445
C11 C 0.1782(7) 0.1551(5) 0.4775(3)
H10 H 0.1782 0.1247 0.5204
C12 C 0.5086(7) -0.1109(4) 0.1536(3)
H11 H 0.5972 -0.1334 0.1438
C13 C 0.2669(9) -0.1270(4) 0.1810(3)
H12 H 0.1899 -0.1609 0.1906
C14 C 0.0957(6) 0.2692(4) 0.4082(4)
H13 H 0.0420 0.3167 0.4047
C15 C 0.0982(7) 0.2251(5) 0.4719(4)
H14 H 0.0451 0.2428 0.5117
loop_
_geom_bond_atom_site_label_1
_geom_bond_atom_site_label_2
_geom_bond_site_symmetry_1
_geom_bond_site_symmetry_2
Br1 C9 1_555 1_555
N1 H1 1_555 1_555
O1 C2 1_555 1_555
C1 C3 1_555 1_555
C2 N1 1_555 1_555
C3 N1 1_555 1_555
H2 C3 1_555 1_555
C4 C2 1_555 1_555
C5 H3 1_555 1_555
C6 C4 1_555 1_555
H4 C6 1_555 1_555
C7 C1 1_555 1_555
H5 C7 1_555 1_555
C8 C3 1_555 1_555
H6 C8 1_555 1_555
H7 C8 1_555 1_555
H8 C8 1_555 1_555
C9 C4 1_555 1_555
C10 C1 1_555 1_555
H9 C10 1_555 1_555
C11 C9 1_555 1_555
H10 C11 1_555 1_555
C12 C5 1_555 1_555
H11 C12 1_555 1_555
C13 C5 1_555 1_555
H12 C13 1_555 1_555
C14 C6 1_555 1_555
H13 C14 1_555 1_555
C15 C11 1_555 1_555
H14 C15 1_555 1_555
C7 C13 1_555 1_555
C10 C12 1_555 1_555
C14 C15 1_555 1_555

#END
