
#######################################################################
#
#                 Cambridge Crystallographic Data Centre
#                                CCDC 
#
#######################################################################
#
# If this CIF has been generated from an entry in the Cambridge 
# Structural Database, then it will include bibliographic, chemical, 
# crystal, experimental, refinement or atomic coordinate data resulting 
# from the CCDC's data processing and validation procedures.
#
#######################################################################

data_LUNQAM
_chemical_formula_moiety         'C15 H14 Br1 N1 O1'
_chemical_name_systematic        (S)-N-(2-Bromobenzoyl)-\a-methylbenzylamine
_symmetry_cell_setting           orthorhombic
_symmetry_space_group_name_H-M   'P 21 21 21'
_symmetry_Int_Tables_number      19
_space_group_name_Hall           'P 2ac 2ab'
loop_
_symmetry_equiv_pos_site_id
_symmetry_equiv_pos_as_xyz
1 x,y,z
2 1/2-x,-y,1/2+z
3 1/2+x,1/2-y,-z
4 -x,1/2+y,1/2-z
_cell_length_a                   8.4390(8)
_cell_length_b                   9.5812(12)
_cell_length_c                   17.171(2)
_cell_angle_alpha                90
_cell_angle_beta                 90
_cell_angle_gamma                90
_cell_volume                     1388.37
_exptl_crystal_colour            colorless
_exptl_crystal_description       plates
_chemical_melting_point          108-110deg.C
_cell_formula_units_Z            4
_exptl_crystal_recrystallization_method methanol/chloroform/hexane
loop_
_atom_site_label
_atom_site_type_symbol
_atom_site_fract_x
_atom_site_fract_y
_atom_site_fract_z
Br1 Br 0.24767(13) 0.39835(11) 0.39636(6)
N1 N 0.0547(8) 0.3283(7) 0.2220(4)
H1 H 0.0248 0.4140 0.2239
O1 O 0.0350(8) 0.1210(5) 0.2798(3)
C1 C -0.2039(18) 0.4290(11) 0.4807(6)
H2 H -0.2526 0.4680 0.5241
C2 C -0.2924(11) 0.3636(11) 0.4245(7)
H3 H -0.4016 0.3560 0.4305
C3 C -0.2216(13) 0.3099(8) 0.3600(5)
H4 H -0.2836 0.2681 0.3218
C4 C -0.0602(12) 0.3162(7) 0.3502(5)
C5 C 0.0300(10) 0.3837(8) 0.4062(6)
C6 C -0.0441(17) 0.4361(11) 0.4721(6)
H5 H 0.0168 0.4768 0.5111
C7 C 0.0144(9) 0.2472(10) 0.2799(5)
C8 C 0.1460(12) 0.2846(8) 0.1551(5)
H6 H 0.1427 0.1824 0.1534
C9 C 0.0673(10) 0.3378(11) 0.0815(5)
H7 H -0.0409 0.3071 0.0802
H8 H 0.1225 0.3021 0.0368
H9 H 0.0706 0.4380 0.0809
C10 C 0.3153(11) 0.3264(10) 0.1611(5)
C11 C 0.3598(13) 0.4560(9) 0.1862(6)
H10 H 0.2814 0.5187 0.2012
C12 C 0.5166(15) 0.4978(10) 0.1902(6)
H11 H 0.5428 0.5873 0.2068
C13 C 0.6313(13) 0.4059(14) 0.1695(5)
H12 H 0.7374 0.4314 0.1728
C14 C 0.5919(14) 0.2786(12) 0.1443(6)
H13 H 0.6711 0.2167 0.1293
C15 C 0.4347(14) 0.2376(9) 0.1403(5)
H14 H 0.4100 0.1482 0.1231
loop_
_geom_bond_atom_site_label_1
_geom_bond_atom_site_label_2
_geom_bond_site_symmetry_1
_geom_bond_site_symmetry_2
Br1 C5 1_555 1_555
N1 H1 1_555 1_555
O1 C7 1_555 1_555
C1 H2 1_555 1_555
C2 C1 1_555 1_555
H3 C2 1_555 1_555
C3 C2 1_555 1_555
H4 C3 1_555 1_555
C4 C3 1_555 1_555
C5 C4 1_555 1_555
C6 C1 1_555 1_555
H5 C6 1_555 1_555
C7 N1 1_555 1_555
C8 N1 1_555 1_555
H6 C8 1_555 1_555
C9 C8 1_555 1_555
H7 C9 1_555 1_555
H8 C9 1_555 1_555
H9 C9 1_555 1_555
C10 C8 1_555 1_555
C11 C10 1_555 1_555
H10 C11 1_555 1_555
C12 C11 1_555 1_555
H11 C12 1_555 1_555
C13 C12 1_555 1_555
H12 C13 1_555 1_555
C14 C13 1_555 1_555
H13 C14 1_555 1_555
C15 C10 1_555 1_555
H14 C15 1_555 1_555
C4 C7 1_555 1_555
C5 C6 1_555 1_555
C14 C15 1_555 1_555

#END
