
#######################################################################
#
#                 Cambridge Crystallographic Data Centre
#                                CCDC 
#
#######################################################################
#
# If this CIF has been generated from an entry in the Cambridge 
# Structural Database, then it will include bibliographic, chemical, 
# crystal, experimental, refinement or atomic coordinate data resulting 
# from the CCDC's data processing and validation procedures.
#
#######################################################################

data_LUNQUG
_chemical_formula_moiety         'C9 H8 Cl3 N1 O2'
_chemical_name_systematic        '(+-)-2-(2,4,5-Trichloroanilino)propionic acid'
_symmetry_cell_setting           triclinic
_symmetry_space_group_name_H-M   'P -1'
_symmetry_Int_Tables_number      2
_space_group_name_Hall           '-P 1'
loop_
_symmetry_equiv_pos_site_id
_symmetry_equiv_pos_as_xyz
1 x,y,z
2 -x,-y,-z
_cell_length_a                   7.3401(7)
_cell_length_b                   7.3444(5)
_cell_length_c                   10.9613(11)
_cell_angle_alpha                98.251(6)
_cell_angle_beta                 104.866(8)
_cell_angle_gamma                101.768(7)
_cell_volume                     547.02
_exptl_crystal_colour            'light yellow'
_exptl_crystal_description       block
_chemical_melting_point          202-204deg.C
_cell_formula_units_Z            2
_exptl_crystal_recrystallization_method dichloromethane/methanol/hexane
loop_
_atom_site_label
_atom_site_type_symbol
_atom_site_fract_x
_atom_site_fract_y
_atom_site_fract_z
Cl1 Cl 0.88102(6) -0.09364(8) 0.25221(5)
Cl2 Cl 0.59337(9) -0.21478(8) 0.64326(4)
Cl3 Cl 0.17067(8) -0.37841(9) 0.44496(6)
N1 N 0.4744(2) -0.2538(2) 0.08415(13)
H1 H 0.562(3) -0.194(3) 0.068(2)
O1 O -0.02386(18) -0.25305(19) -0.05025(14)
H2 H -0.083(4) -0.179(3) -0.046(2)
O2 O 0.23070(17) -0.00451(16) 0.04555(12)
C1 C 0.1624(2) -0.1740(2) -0.00066(14)
C2 C 0.2875(2) -0.3129(2) -0.01199(15)
H3 H 0.2186 -0.4373 -0.0033
C3 C 0.3150(3) -0.3312(3) -0.14636(17)
H4 H 0.3907 -0.4212 -0.1570
H5 H 0.3814 -0.2097 -0.1561
H6 H 0.1900 -0.3740 -0.2104
C4 C 0.4962(2) -0.2436(2) 0.21409(14)
C5 C 0.6806(2) -0.1736(2) 0.30469(15)
C6 C 0.7094(3) -0.1671(2) 0.43444(16)
H7 H 0.8341 -0.1209 0.4918
C7 C 0.5532(3) -0.2291(2) 0.47961(15)
C8 C 0.3696(3) -0.2991(2) 0.39256(17)
C9 C 0.3410(2) -0.3070(2) 0.26147(16)
H8 H 0.2163 -0.3554 0.2044
loop_
_geom_bond_atom_site_label_1
_geom_bond_atom_site_label_2
_geom_bond_site_symmetry_1
_geom_bond_site_symmetry_2
Cl1 C5 1_555 1_555
Cl2 C7 1_555 1_555
Cl3 C8 1_555 1_555
N1 H1 1_555 1_555
O1 H2 1_555 1_555
O2 C1 1_555 1_555
C1 O1 1_555 1_555
C2 N1 1_555 1_555
H3 C2 1_555 1_555
C3 C2 1_555 1_555
H4 C3 1_555 1_555
H5 C3 1_555 1_555
H6 C3 1_555 1_555
C4 N1 1_555 1_555
C5 C4 1_555 1_555
C6 C5 1_555 1_555
H7 C6 1_555 1_555
C7 C6 1_555 1_555
C8 C7 1_555 1_555
C9 C4 1_555 1_555
H8 C9 1_555 1_555
C1 C2 1_555 1_555
C8 C9 1_555 1_555

#END
