
#######################################################################
#
#                 Cambridge Crystallographic Data Centre
#                                CCDC 
#
#######################################################################
#
# If this CIF has been generated from an entry in the Cambridge 
# Structural Database, then it will include bibliographic, chemical, 
# crystal, experimental, refinement or atomic coordinate data resulting 
# from the CCDC's data processing and validation procedures.
#
#######################################################################

data_LUNQIW
_chemical_name_common            3,3',6,6'-tetra-t-butyl-1,1',9,9'-bicarbazole
_chemical_formula_moiety         'C40 H46 N2'
_chemical_name_systematic        
3,6,9,12-tetra-t-butylindolo[1',2',3':1,8]cinnolino[4,3,2-jk]carbazole
_symmetry_cell_setting           monoclinic
_symmetry_space_group_name_H-M   'P 21/c'
_symmetry_Int_Tables_number      14
_space_group_name_Hall           '-P 2ybc'
loop_
_symmetry_equiv_pos_site_id
_symmetry_equiv_pos_as_xyz
1 x,y,z
2 -x,1/2+y,1/2-z
3 -x,-y,-z
4 x,1/2-y,1/2+z
_cell_length_a                   10.7010(2)
_cell_length_b                   27.6694(5)
_cell_length_c                   11.1215(3)
_cell_angle_alpha                90
_cell_angle_beta                 98.7640(10)
_cell_angle_gamma                90
_cell_volume                     3254.52
_exptl_crystal_colour            yellow
_exptl_crystal_description       plate
_cell_formula_units_Z            4
_exptl_crystal_recrystallization_method hexane
_exptl_crystal_preparation       Luminescent
loop_
_atom_site_label
_atom_site_type_symbol
_atom_site_fract_x
_atom_site_fract_y
_atom_site_fract_z
N1 N 0.80956(10) 0.03247(4) 0.45505(10)
N2 N 0.70531(10) 0.02881(4) 0.51764(10)
C1 C 0.79062(11) 0.12244(4) 0.45078(11)
C2 C 0.84660(11) 0.07861(4) 0.42518(11)
C3 C 0.94070(12) 0.16253(4) 0.33637(11)
C4 C 0.86125(11) -0.00102(5) 0.38247(11)
C5 C 0.84092(12) 0.16387(5) 0.40663(11)
C6 C 1.06367(14) -0.07831(5) 0.13152(12)
C7 C 0.67883(12) 0.11846(4) 0.51290(12)
C8 C 0.93748(12) 0.07511(4) 0.34803(11)
C9 C 0.99707(12) -0.04982(5) 0.22194(11)
C10 C 0.48995(12) 0.10048(5) 0.66040(13)
C11 C 0.60854(12) 0.15567(5) 0.55306(12)
C12 C 0.98659(12) 0.11788(5) 0.30598(11)
C13 C 0.44023(13) 0.19089(5) 0.66608(13)
C14 C 0.94729(12) 0.02415(4) 0.32076(11)
C15 C 0.98755(13) 0.21024(5) 0.28825(12)
C16 C 0.83985(13) -0.05022(5) 0.36201(13)
C17 C 0.64561(12) 0.07148(5) 0.54288(12)
C18 C 0.71868(13) -0.05384(5) 0.62069(14)
C19 C 0.66539(13) -0.08086(5) 0.70477(15)
C20 C 0.55872(12) 0.06185(5) 0.62123(13)
C21 C 0.90817(13) -0.07333(5) 0.28280(13)
C22 C 0.51189(12) 0.14736(5) 0.62422(12)
C23 C 1.01544(12) -0.00068(5) 0.24221(11)
C24 C 0.67199(12) -0.00744(5) 0.59435(13)
C25 C 0.56638(13) -0.06399(5) 0.76379(15)
C26 C 1.10307(14) 0.20324(5) 0.22489(13)
H1 H 1.1722 0.1893 0.2823
H2 H 1.1296 0.2345 0.1962
H3 H 1.0816 0.1814 0.1555
C27 C 0.57464(12) 0.01125(5) 0.65415(14)
C28 C 1.13795(16) -0.12088(5) 0.19549(14)
H4 H 1.2064 -0.1086 0.2564
H5 H 1.1738 -0.1403 0.1354
H6 H 1.0811 -0.1410 0.2356
C29 C 1.15532(15) -0.04675(6) 0.07343(14)
H7 H 1.1085 -0.0205 0.0276
H8 H 1.1974 -0.0664 0.0182
H9 H 1.2188 -0.0331 0.1372
C30 C 0.52165(13) -0.01755(5) 0.73636(15)
C31 C 1.02427(16) 0.24583(5) 0.39372(14)
H10 H 1.0889 0.2311 0.4547
H11 H 0.9495 0.2536 0.4311
H12 H 1.0579 0.2755 0.3627
C32 C 0.88096(15) 0.23227(6) 0.19646(15)
H13 H 0.9107 0.2623 0.1636
H14 H 0.8080 0.2392 0.2373
H15 H 0.8561 0.2093 0.1299
C33 C 0.96350(17) -0.09834(6) 0.02993(13)
H16 H 0.9091 -0.1213 0.0647
H17 H 1.0055 -0.1148 -0.0309
H18 H 0.9121 -0.0717 -0.0087
C34 C 0.39320(17) 0.22335(6) 0.55773(16)
H19 H 0.3411 0.2044 0.4946
H20 H 0.4657 0.2368 0.5249
H21 H 0.3425 0.2497 0.5841
C35 C 0.52950(18) 0.21968(8) 0.75967(19)
H22 H 0.4840 0.2471 0.7879
H23 H 0.6009 0.2316 0.7223
H24 H 0.5610 0.1988 0.8289
C36 C 0.51648(14) -0.09433(5) 0.86243(17)
C37 C 0.32542(17) 0.17540(6) 0.7225(2)
H25 H 0.2661 0.1579 0.6618
H26 H 0.2837 0.2040 0.7497
H27 H 0.3526 0.1542 0.7922
C38 C 0.5834(3) -0.14252(10) 0.8948(3)
H28 H 0.6732 -0.1366 0.9238
H29 H 0.5746 -0.1632 0.8225
H30 H 0.5451 -0.1586 0.9588
C39 C 0.5463(4) -0.06540(12) 0.9998(3)
H31 H 0.5155 -0.0852 1.0622
H32 H 0.5030 -0.0341 0.9941
H33 H 0.6376 -0.0603 1.0218
C40 C 0.3794(6) -0.0995(2) 0.8428(5)
H34 H 0.3531 -0.1166 0.9121
H35 H 0.3528 -0.1180 0.7682
H36 H 0.3400 -0.0675 0.8351
H37 H 1.0748(13) 0.0178(5) 0.1993(12)
H38 H 0.7892(14) -0.0661(5) 0.5865(13)
H39 H 1.0518(13) 0.1168(5) 0.2521(12)
H40 H 0.7764(13) -0.0676(5) 0.3987(13)
H41 H 0.4309(14) 0.0944(5) 0.7161(13)
H42 H 0.6313(13) 0.1900(5) 0.5349(13)
H43 H 0.8013(13) 0.1960(5) 0.4190(13)
H44 H 0.7012(14) -0.1134(6) 0.7238(14)
H45 H 0.8922(14) -0.1081(6) 0.2672(14)
H46 H 0.4561(14) -0.0041(5) 0.7777(14)
C41? C 0.3810(7) -0.07995(19) 0.8701(6)
H47? H 0.3456 -0.1021 0.9249
H48? H 0.3305 -0.0816 0.7890
H49? H 0.3794 -0.0469 0.9015
C42? C 0.6053(4) -0.0932(2) 0.9616(4)
H50? H 0.6211 -0.0597 0.9877
H51? H 0.6836 -0.1076 0.9423
H52? H 0.5760 -0.1117 1.0272
C43? C 0.4960(4) -0.14944(11) 0.8023(4)
H53? H 0.5776 -0.1622 0.7871
H54? H 0.4376 -0.1478 0.7255
H55? H 0.4609 -0.1708 0.8591
loop_
_geom_bond_atom_site_label_1
_geom_bond_atom_site_label_2
_geom_bond_site_symmetry_1
_geom_bond_site_symmetry_2
N1 N2 1_555 1_555
N2 C17 1_555 1_555
C1 C2 1_555 1_555
C2 N1 1_555 1_555
C3 C5 1_555 1_555
C4 N1 1_555 1_555
C5 C1 1_555 1_555
C6 C9 1_555 1_555
C7 C1 1_555 1_555
C8 C2 1_555 1_555
C9 C21 1_555 1_555
C10 C20 1_555 1_555
C11 C7 1_555 1_555
C12 C3 1_555 1_555
C13 C22 1_555 1_555
C14 C4 1_555 1_555
C15 C3 1_555 1_555
C16 C4 1_555 1_555
C17 C7 1_555 1_555
C18 C19 1_555 1_555
C19 C25 1_555 1_555
C20 C17 1_555 1_555
C21 C16 1_555 1_555
C22 C10 1_555 1_555
C23 C9 1_555 1_555
C24 N2 1_555 1_555
C25 C30 1_555 1_555
C26 C15 1_555 1_555
H1 C26 1_555 1_555
H2 C26 1_555 1_555
H3 C26 1_555 1_555
C27 C20 1_555 1_555
C28 C6 1_555 1_555
H4 C28 1_555 1_555
H5 C28 1_555 1_555
H6 C28 1_555 1_555
C29 C6 1_555 1_555
H7 C29 1_555 1_555
H8 C29 1_555 1_555
H9 C29 1_555 1_555
C30 C27 1_555 1_555
C31 C15 1_555 1_555
H10 C31 1_555 1_555
H11 C31 1_555 1_555
H12 C31 1_555 1_555
C32 C15 1_555 1_555
H13 C32 1_555 1_555
H14 C32 1_555 1_555
H15 C32 1_555 1_555
C33 C6 1_555 1_555
H16 C33 1_555 1_555
H17 C33 1_555 1_555
H18 C33 1_555 1_555
C34 C13 1_555 1_555
H19 C34 1_555 1_555
H20 C34 1_555 1_555
H21 C34 1_555 1_555
C35 C13 1_555 1_555
H22 C35 1_555 1_555
H23 C35 1_555 1_555
H24 C35 1_555 1_555
C36 C25 1_555 1_555
C37 C13 1_555 1_555
H25 C37 1_555 1_555
H26 C37 1_555 1_555
H27 C37 1_555 1_555
C38 C36 1_555 1_555
H28 C38 1_555 1_555
H29 C38 1_555 1_555
H30 C38 1_555 1_555
C39 C36 1_555 1_555
H31 C39 1_555 1_555
H32 C39 1_555 1_555
H33 C39 1_555 1_555
C40 C36 1_555 1_555
H34 C40 1_555 1_555
H35 C40 1_555 1_555
H36 C40 1_555 1_555
H37 C23 1_555 1_555
H38 C18 1_555 1_555
H39 C12 1_555 1_555
H40 C16 1_555 1_555
H41 C10 1_555 1_555
H42 C11 1_555 1_555
H43 C5 1_555 1_555
H44 C19 1_555 1_555
H45 C21 1_555 1_555
H46 C30 1_555 1_555
C8 C12 1_555 1_555
C8 C14 1_555 1_555
C11 C22 1_555 1_555
C14 C23 1_555 1_555
C18 C24 1_555 1_555
C24 C27 1_555 1_555

#END
