
#######################################################################
#
#                 Cambridge Crystallographic Data Centre
#                                CCDC 
#
#######################################################################
#
# If this CIF has been generated from an entry in the Cambridge 
# Structural Database, then it will include bibliographic, chemical, 
# crystal, experimental, refinement or atomic coordinate data resulting 
# from the CCDC's data processing and validation procedures.
#
#######################################################################

data_LUNQIU
_chemical_formula_moiety         'C15 H14 Br1 N1 O1,C15 H14 Cl1 N1 O1'
_chemical_name_systematic        
'(S)-N-(2-Bromobenzoyl)-\a-methylbenzylamine (R)-N-(2-chlorobenzoyl)-\a-methylbenzylamine'
_symmetry_cell_setting           monoclinic
_symmetry_space_group_name_H-M   'P 21'
_symmetry_Int_Tables_number      4
_space_group_name_Hall           'P 2yb'
loop_
_symmetry_equiv_pos_site_id
_symmetry_equiv_pos_as_xyz
1 x,y,z
2 -x,1/2+y,-z
_cell_length_a                   8.7790(8)
_cell_length_b                   17.6991(18)
_cell_length_c                   9.4652(9)
_cell_angle_alpha                90
_cell_angle_beta                 108.391(8)
_cell_angle_gamma                90
_cell_volume                     1395.59
_exptl_crystal_colour            colorless
_exptl_crystal_description       needles
_chemical_melting_point          105-108deg.C
_cell_formula_units_Z            2
_exptl_crystal_recrystallization_method methanol/acetone
loop_
_atom_site_label
_atom_site_type_symbol
_atom_site_fract_x
_atom_site_fract_y
_atom_site_fract_z
Cl1 Cl -0.0985(4) 0.41348(18) 0.3314(3)
N1 N -0.2789(12) 0.2069(5) 0.3388(10)
H1 H -0.2961 0.2050 0.4232
O1 O -0.2957(13) 0.2779(6) 0.1374(10)
C1 C -0.4699(19) 0.4601(8) 0.4611(14)
H2 H -0.5063 0.5002 0.5052
C2 C -0.5607(17) 0.3930(8) 0.4252(12)
H3 H -0.6580 0.3901 0.4447
C3 C -0.5103(15) 0.3315(7) 0.3623(11)
H4 H -0.5717 0.2877 0.3402
C4 C -0.3664(15) 0.3367(6) 0.3331(11)
C5 C -0.2765(13) 0.4040(7) 0.3665(11)
C6 C -0.3305(17) 0.4659(7) 0.4312(13)
H5 H -0.2706 0.5102 0.4530
C7 C -0.3138(14) 0.2702(6) 0.2602(11)
C8 C -0.2111(16) 0.1387(6) 0.2875(12)
H6 H -0.2575 0.1349 0.1790
C9 C -0.2553(15) 0.0676(6) 0.3578(13)
H7 H -0.2109 0.0708 0.4642
H8 H -0.2127 0.0240 0.3231
H9 H -0.3700 0.0635 0.3303
C10 C -0.0277(15) 0.1455(6) 0.3275(11)
C11 C 0.0739(17) 0.1867(7) 0.4482(12)
H10 H 0.0282 0.2140 0.5085
C12 C 0.2380(19) 0.1880(8) 0.4801(14)
H11 H 0.3037 0.2139 0.5624
C13 C 0.2993(17) 0.1503(8) 0.3872(16)
H12 H 0.4093 0.1526 0.4030
C14 C 0.2055(18) 0.1085(7) 0.2701(14)
H13 H 0.2537 0.0814 0.2116
C15 C 0.0373(19) 0.1058(6) 0.2365(12)
H14 H -0.0267 0.0783 0.1560
Br1 Br 0.08276(15) 0.53979(12) 0.17439(12)
N2 N 0.2753(11) 0.7519(5) 0.1596(9)
H15 H 0.2927 0.7538 0.0752
O2 O 0.3065(12) 0.6813(5) 0.3699(9)
C16 C 0.475(2) 0.4985(8) 0.0466(14)
H16 H 0.5140 0.4571 0.0080
C17 C 0.5653(19) 0.5647(7) 0.0746(15)
H17 H 0.6611 0.5686 0.0527
C18 C 0.5064(17) 0.6250(7) 0.1368(12)
H18 H 0.5644 0.6699 0.1557
C19 C 0.3674(17) 0.6205(7) 0.1708(12)
C20 C 0.2785(13) 0.5518(8) 0.1384(10)
C21 C 0.3300(16) 0.4917(7) 0.0738(12)
H19 H 0.2692 0.4478 0.0491
C22 C 0.3096(14) 0.6856(6) 0.2406(10)
C23 C 0.2123(16) 0.8177(6) 0.2094(12)
H20 H 0.2608 0.8214 0.3176
C24 C 0.2535(17) 0.8908(6) 0.1385(14)
H21 H 0.3665 0.9007 0.1788
H22 H 0.1945 0.9325 0.1601
H23 H 0.2250 0.8843 0.0326
C25 C 0.0279(14) 0.8111(6) 0.1737(11)
C26 C -0.0767(17) 0.7701(7) 0.0518(11)
H24 H -0.0332 0.7440 -0.0116
C27 C -0.2361(18) 0.7679(8) 0.0257(13)
H25 H -0.2970 0.7372 -0.0510
C28 C -0.314(2) 0.8082(8) 0.1050(16)
H26 H -0.4253 0.8096 0.0809
C29 C -0.2057(19) 0.8491(7) 0.2317(13)
H27 H -0.2504 0.8754 0.2941
C30 C -0.0437(19) 0.8508(7) 0.2633(12)
H28 H 0.0193 0.8784 0.3443
loop_
_geom_bond_atom_site_label_1
_geom_bond_atom_site_label_2
_geom_bond_site_symmetry_1
_geom_bond_site_symmetry_2
Cl1 C5 1_555 1_555
N1 H1 1_555 1_555
O1 C7 1_555 1_555
C1 H2 1_555 1_555
C2 C1 1_555 1_555
H3 C2 1_555 1_555
C3 C2 1_555 1_555
H4 C3 1_555 1_555
C4 C3 1_555 1_555
C5 C4 1_555 1_555
C6 C1 1_555 1_555
H5 C6 1_555 1_555
C7 N1 1_555 1_555
C8 N1 1_555 1_555
H6 C8 1_555 1_555
C9 C8 1_555 1_555
H7 C9 1_555 1_555
H8 C9 1_555 1_555
H9 C9 1_555 1_555
C10 C8 1_555 1_555
C11 C10 1_555 1_555
H10 C11 1_555 1_555
C12 C11 1_555 1_555
H11 C12 1_555 1_555
C13 C12 1_555 1_555
H12 C13 1_555 1_555
C14 C13 1_555 1_555
H13 C14 1_555 1_555
C15 C10 1_555 1_555
H14 C15 1_555 1_555
Br1 C20 1_555 1_555
N2 H15 1_555 1_555
O2 C22 1_555 1_555
C16 H16 1_555 1_555
C17 C16 1_555 1_555
H17 C17 1_555 1_555
C18 C17 1_555 1_555
H18 C18 1_555 1_555
C19 C18 1_555 1_555
C20 C19 1_555 1_555
C21 C16 1_555 1_555
H19 C21 1_555 1_555
C22 N2 1_555 1_555
C23 N2 1_555 1_555
H20 C23 1_555 1_555
C24 C23 1_555 1_555
H21 C24 1_555 1_555
H22 C24 1_555 1_555
H23 C24 1_555 1_555
C25 C23 1_555 1_555
C26 C25 1_555 1_555
H24 C26 1_555 1_555
C27 C26 1_555 1_555
H25 C27 1_555 1_555
C28 C27 1_555 1_555
H26 C28 1_555 1_555
C29 C28 1_555 1_555
H27 C29 1_555 1_555
C30 C25 1_555 1_555
H28 C30 1_555 1_555
C4 C7 1_555 1_555
C5 C6 1_555 1_555
C14 C15 1_555 1_555
C19 C22 1_555 1_555
C20 C21 1_555 1_555
C29 C30 1_555 1_555

#END
