
#######################################################################
#
#                 Cambridge Crystallographic Data Centre
#                                CCDC 
#
#######################################################################
#
# If this CIF has been generated from an entry in the Cambridge 
# Structural Database, then it will include bibliographic, chemical, 
# crystal, experimental, refinement or atomic coordinate data resulting 
# from the CCDC's data processing and validation procedures.
#
#######################################################################

data_LUNRAN
_chemical_formula_moiety         'C9 H7 Cl3 O3'
_chemical_name_systematic        '(R)-2-(2,4,5-Trichlorophenoxy)propionic acid'
_symmetry_cell_setting           orthorhombic
_symmetry_space_group_name_H-M   'P 21 21 2'
_symmetry_Int_Tables_number      18
_space_group_name_Hall           'P 2 2ab'
loop_
_symmetry_equiv_pos_site_id
_symmetry_equiv_pos_as_xyz
1 x,y,z
2 -x,-y,z
3 1/2+x,1/2-y,-z
4 1/2-x,1/2+y,-z
_cell_length_a                   14.309(4)
_cell_length_b                   21.796(6)
_cell_length_c                   7.076(2)
_cell_angle_alpha                90
_cell_angle_beta                 90
_cell_angle_gamma                90
_cell_volume                     2206.86
_exptl_crystal_colour            colorless
_exptl_crystal_description       needle
_chemical_melting_point          144-145deg.C
_cell_formula_units_Z            8
_exptl_crystal_recrystallization_method dichloromethane/hexane
loop_
_atom_site_label
_atom_site_type_symbol
_atom_site_fract_x
_atom_site_fract_y
_atom_site_fract_z
Cl1 Cl 0.43685(11) 0.39671(8) 1.0248(4)
Cl2 Cl 0.29277(16) 0.61899(8) 0.9271(3)
Cl3 Cl 0.09234(13) 0.56353(8) 0.9611(4)
O1 O 0.1389(3) 0.3279(2) 0.7812(8)
H1 H 0.0995 0.3220 0.6990
O2 O 0.0195(3) 0.3079(2) 0.9661(8)
O3 O 0.2498(3) 0.35728(17) 1.0628(7)
C1 C 0.1023(5) 0.3217(3) 0.9397(11)
C2 C 0.1632(5) 0.3306(3) 1.1115(11)
H2 H 0.1309 0.3564 1.2044
C3 C 0.1850(5) 0.2695(3) 1.1958(11)
H3 H 0.2214 0.2750 1.3084
H4 H 0.2197 0.2454 1.1065
H5 H 0.1278 0.2487 1.2266
C4 C 0.2530(4) 0.4189(3) 1.0284(11)
C5 C 0.3410(4) 0.4436(3) 1.0084(12)
C6 C 0.3521(5) 0.5043(3) 0.9776(11)
H6 H 0.4119 0.5206 0.9664
C7 C 0.2759(5) 0.5420(3) 0.9629(11)
C8 C 0.1885(5) 0.5173(3) 0.9821(12)
C9 C 0.1771(4) 0.4563(3) 1.0116(12)
H7 H 0.1172 0.4399 1.0203
Cl4 Cl -0.41559(14) 0.33158(10) 0.4058(4)
Cl5 Cl -0.3431(2) 0.56811(10) 0.5114(4)
Cl6 Cl -0.12756(18) 0.53902(8) 0.4979(4)
O4 O -0.0965(4) 0.2942(2) 0.6807(8)
H8 H -0.0571 0.2984 0.7637
O5 O 0.0199(3) 0.3231(2) 0.4959(8)
O6 O -0.2197(3) 0.31708(19) 0.3966(8)
C10 C -0.0616(5) 0.3076(3) 0.5242(12)
C11 C -0.1247(5) 0.3024(3) 0.3543(12)
H9 H -0.1020 0.3297 0.2543
C12 C -0.1245(5) 0.2369(3) 0.2829(11)
H10 H -0.1613 0.2343 0.1698
H11 H -0.1505 0.2104 0.3776
H12 H -0.0615 0.2246 0.2560
C13 C -0.2418(5) 0.3764(3) 0.4237(11)
C14 C -0.3356(5) 0.3895(3) 0.4310(12)
C15 C -0.3650(5) 0.4484(4) 0.4576(14)
H13 H -0.4287 0.4568 0.4603
C16 C -0.3033(7) 0.4945(3) 0.4801(14)
C17 C -0.2100(6) 0.4824(3) 0.4699(12)
C18 C -0.1796(5) 0.4235(3) 0.4425(11)
H14 H -0.1158 0.4155 0.4367
loop_
_geom_bond_atom_site_label_1
_geom_bond_atom_site_label_2
_geom_bond_site_symmetry_1
_geom_bond_site_symmetry_2
Cl1 C5 1_555 1_555
Cl2 C7 1_555 1_555
Cl3 C8 1_555 1_555
O1 H1 1_555 1_555
O2 C1 1_555 1_555
O3 C2 1_555 1_555
C1 O1 1_555 1_555
C2 C1 1_555 1_555
H2 C2 1_555 1_555
C3 C2 1_555 1_555
H3 C3 1_555 1_555
H4 C3 1_555 1_555
H5 C3 1_555 1_555
C4 O3 1_555 1_555
C5 C4 1_555 1_555
C6 C5 1_555 1_555
H6 C6 1_555 1_555
C7 C6 1_555 1_555
C8 C7 1_555 1_555
C9 C4 1_555 1_555
H7 C9 1_555 1_555
Cl4 C14 1_555 1_555
Cl5 C16 1_555 1_555
Cl6 C17 1_555 1_555
O4 H8 1_555 1_555
O5 C10 1_555 1_555
O6 C11 1_555 1_555
C10 O4 1_555 1_555
C11 C10 1_555 1_555
H9 C11 1_555 1_555
C12 C11 1_555 1_555
H10 C12 1_555 1_555
H11 C12 1_555 1_555
H12 C12 1_555 1_555
C13 O6 1_555 1_555
C14 C13 1_555 1_555
C15 C14 1_555 1_555
H13 C15 1_555 1_555
C16 C15 1_555 1_555
C17 C16 1_555 1_555
C18 C13 1_555 1_555
H14 C18 1_555 1_555
C8 C9 1_555 1_555
C17 C18 1_555 1_555

#END
