
#######################################################################
#
#                 Cambridge Crystallographic Data Centre
#                                CCDC 
#
#######################################################################
#
# If this CIF has been generated from an entry in the Cambridge 
# Structural Database, then it will include bibliographic, chemical, 
# crystal, experimental, refinement or atomic coordinate data resulting 
# from the CCDC's data processing and validation procedures.
#
#######################################################################

data_LUNXEZ
_chemical_formula_moiety         'C21 H16 N2 O1'
_chemical_name_systematic        
3-((1-methylpyridin-2(1H)-ylidene)amino)-2-phenyl-1H-inden-1-one
_symmetry_cell_setting           triclinic
_symmetry_space_group_name_H-M   'P -1'
_symmetry_Int_Tables_number      2
_space_group_name_Hall           '-P 1'
loop_
_symmetry_equiv_pos_site_id
_symmetry_equiv_pos_as_xyz
1 x,y,z
2 -x,-y,-z
_cell_length_a                   9.9860(7)
_cell_length_b                   10.9198(6)
_cell_length_c                   15.7672(7)
_cell_angle_alpha                90.433(4)
_cell_angle_beta                 99.854(5)
_cell_angle_gamma                107.768(6)
_cell_volume                     1609.89
_cell_formula_units_Z            4
loop_
_atom_site_label
_atom_site_type_symbol
_atom_site_fract_x
_atom_site_fract_y
_atom_site_fract_z
O1 O 0.7575(2) 1.01706(18) 0.39062(11)
N1 N 0.7042(2) 0.81029(19) 0.65655(12)
N2 N 0.7515(2) 0.63414(19) 0.71935(12)
C1 C 0.6441(3) 1.0660(3) 0.66828(18)
H1 H 0.6317 1.0230 0.7185
C2 C 0.6295(3) 1.1895(3) 0.6602(2)
H2 H 0.6093 1.2300 0.7063
C3 C 0.6446(4) 1.2512(3) 0.5855(2)
H3 H 0.6332 1.3325 0.5815
C4 C 0.6766(3) 1.1941(3) 0.5154(2)
H4 H 0.6865 1.2360 0.4646
C5 C 0.6931(3) 1.0746(2) 0.52356(16)
C6 C 0.6772(2) 1.0112(2) 0.59947(15)
C7 C 0.7118(2) 0.8887(2) 0.59077(14)
C8 C 0.7446(2) 0.8781(2) 0.50958(14)
C9 C 0.7354(2) 0.9909(2) 0.46365(15)
C10 C 0.7778(2) 0.7685(2) 0.47336(14)
C11 C 0.8994(3) 0.7868(3) 0.43670(15)
H5 H 0.9587 0.8697 0.4322
C12 C 0.9322(4) 0.6816(3) 0.40701(19)
H6 H 1.0139 0.6945 0.3831
C13 C 0.8451(4) 0.5583(3) 0.4126(2)
H7 H 0.8680 0.4881 0.3929
C14 C 0.7235(4) 0.5396(3) 0.4476(2)
H8 H 0.6636 0.4564 0.4509
C15 C 0.6904(3) 0.6432(2) 0.47754(16)
H9 H 0.6081 0.6293 0.5010
C16 C 0.7936(2) 0.7419(2) 0.67390(13)
C17 C 0.9347(2) 0.7751(2) 0.65648(14)
H10 H 0.9691 0.8491 0.6277
C18 C 1.0203(3) 0.7017(3) 0.68074(16)
H11 H 1.1124 0.7255 0.6686
C19 C 0.9708(3) 0.5900(3) 0.72412(18)
H12 H 1.0278 0.5375 0.7393
C20 C 0.8388(3) 0.5604(2) 0.74338(16)
H13 H 0.8061 0.4879 0.7738
C21 C 0.6109(3) 0.6005(3) 0.7448(2)
H14 H 0.6003 0.6750 0.7721
H15 H 0.6029 0.5334 0.7845
H16 H 0.5375 0.5710 0.6946
O2 O 0.7342(2) 0.34052(17) -0.10264(11)
N3 N 0.7259(2) 0.54217(17) 0.16708(12)
N4 N 0.7828(2) 0.75528(17) 0.21574(11)
C22 C 0.6583(3) 0.2510(2) 0.18462(16)
H17 H 0.6526 0.2913 0.2355
C23 C 0.6382(3) 0.1185(2) 0.17791(19)
H18 H 0.6196 0.0698 0.2251
C24 C 0.6458(3) 0.0595(2) 0.1025(2)
H19 H 0.6319 -0.0287 0.0994
C25 C 0.6741(3) 0.1296(2) 0.03038(18)
H20 H 0.6798 0.0895 -0.0205
C26 C 0.6931(2) 0.2594(2) 0.03699(15)
C27 C 0.6864(2) 0.3195(2) 0.11384(14)
C28 C 0.7226(2) 0.4605(2) 0.10230(14)
C29 C 0.7445(2) 0.4825(2) 0.01828(14)
C30 C 0.7271(2) 0.3612(2) -0.02701(14)
C31 C 0.7714(2) 0.6091(2) -0.01944(13)
C32 C 0.8926(3) 0.6640(2) -0.05519(15)
H21 H 0.9554 0.6176 -0.0601
C33 C 0.9202(3) 0.7878(3) -0.08359(18)
H22 H 1.0015 0.8240 -0.1072
C34 C 0.8277(4) 0.8573(3) -0.0769(2)
H23 H 0.8480 0.9410 -0.0947
C35 C 0.7052(3) 0.8027(2) -0.04395(18)
H24 H 0.6411 0.8483 -0.0410
C36 C 0.6780(3) 0.6799(2) -0.01533(15)
H25 H 0.5955 0.6437 0.0072
C37 C 0.8192(2) 0.6606(2) 0.17723(13)
C38 C 0.9595(2) 0.6952(2) 0.15883(14)
H26 H 0.9888 0.6339 0.1322
C39 C 1.0523(3) 0.8160(2) 0.17927(15)
H27 H 1.1439 0.8366 0.1666
C40 C 1.0101(3) 0.9093(2) 0.21928(16)
H28 H 1.0728 0.9922 0.2335
C41 C 0.8766(3) 0.8763(2) 0.23671(15)
H29 H 0.8476 0.9374 0.2637
C42 C 0.6400(3) 0.7263(3) 0.23753(19)
H30 H 0.5691 0.6981 0.1861
H31 H 0.6305 0.8023 0.2635
H32 H 0.6268 0.6594 0.2774
loop_
_geom_bond_atom_site_label_1
_geom_bond_atom_site_label_2
_geom_bond_site_symmetry_1
_geom_bond_site_symmetry_2
O1 C9 1_555 1_555
N1 C7 1_555 1_555
N2 C16 1_555 1_555
C1 H1 1_555 1_555
C2 C1 1_555 1_555
H2 C2 1_555 1_555
C3 C2 1_555 1_555
H3 C3 1_555 1_555
C4 C3 1_555 1_555
H4 C4 1_555 1_555
C5 C4 1_555 1_555
C6 C1 1_555 1_555
C7 C6 1_555 1_555
C8 C7 1_555 1_555
C9 C5 1_555 1_555
C10 C8 1_555 1_555
C11 C10 1_555 1_555
H5 C11 1_555 1_555
C12 C11 1_555 1_555
H6 C12 1_555 1_555
C13 C12 1_555 1_555
H7 C13 1_555 1_555
C14 C13 1_555 1_555
H8 C14 1_555 1_555
C15 C10 1_555 1_555
H9 C15 1_555 1_555
C16 N1 1_555 1_555
C17 C16 1_555 1_555
H10 C17 1_555 1_555
C18 C17 1_555 1_555
H11 C18 1_555 1_555
C19 C18 1_555 1_555
H12 C19 1_555 1_555
C20 N2 1_555 1_555
H13 C20 1_555 1_555
C21 N2 1_555 1_555
H14 C21 1_555 1_555
H15 C21 1_555 1_555
H16 C21 1_555 1_555
O2 C30 1_555 1_555
N3 C28 1_555 1_555
N4 C37 1_555 1_555
C22 H17 1_555 1_555
C23 C22 1_555 1_555
H18 C23 1_555 1_555
C24 C23 1_555 1_555
H19 C24 1_555 1_555
C25 C24 1_555 1_555
H20 C25 1_555 1_555
C26 C25 1_555 1_555
C27 C22 1_555 1_555
C28 C27 1_555 1_555
C29 C28 1_555 1_555
C30 C26 1_555 1_555
C31 C29 1_555 1_555
C32 C31 1_555 1_555
H21 C32 1_555 1_555
C33 C32 1_555 1_555
H22 C33 1_555 1_555
C34 C33 1_555 1_555
H23 C34 1_555 1_555
C35 C34 1_555 1_555
H24 C35 1_555 1_555
C36 C31 1_555 1_555
H25 C36 1_555 1_555
C37 N3 1_555 1_555
C38 C37 1_555 1_555
H26 C38 1_555 1_555
C39 C38 1_555 1_555
H27 C39 1_555 1_555
C40 C39 1_555 1_555
H28 C40 1_555 1_555
C41 N4 1_555 1_555
H29 C41 1_555 1_555
C42 N4 1_555 1_555
H30 C42 1_555 1_555
H31 C42 1_555 1_555
H32 C42 1_555 1_555
C5 C6 1_555 1_555
C8 C9 1_555 1_555
C14 C15 1_555 1_555
C19 C20 1_555 1_555
C26 C27 1_555 1_555
C29 C30 1_555 1_555
C35 C36 1_555 1_555
C40 C41 1_555 1_555

#END
