
#######################################################################
#
#                 Cambridge Crystallographic Data Centre
#                                CCDC 
#
#######################################################################
#
# If this CIF has been generated from an entry in the Cambridge 
# Structural Database, then it will include bibliographic, chemical, 
# crystal, experimental, refinement or atomic coordinate data resulting 
# from the CCDC's data processing and validation procedures.
#
#######################################################################

data_LUNZIF
_chemical_formula_moiety         'C19 H22 N2 O2'
_chemical_name_systematic        
'3-(5-methyl-2-((4-methylphenyl)diazenyl)phenyl)propyl acetate'
_symmetry_cell_setting           triclinic
_symmetry_space_group_name_H-M   'P -1'
_symmetry_Int_Tables_number      2
_space_group_name_Hall           '-P 1'
loop_
_symmetry_equiv_pos_site_id
_symmetry_equiv_pos_as_xyz
1 x,y,z
2 -x,-y,-z
_cell_length_a                   7.2642(7)
_cell_length_b                   10.5407(10)
_cell_length_c                   11.3248(11)
_cell_angle_alpha                92.365(3)
_cell_angle_beta                 99.195(3)
_cell_angle_gamma                90.508(3)
_cell_volume                     855.16
_exptl_crystal_colour            red
_exptl_crystal_description       block
_cell_formula_units_Z            2
loop_
_atom_site_label
_atom_site_type_symbol
_atom_site_fract_x
_atom_site_fract_y
_atom_site_fract_z
C1 C 0.1001(2) 0.33648(14) 0.28001(13)
C2 C 0.1460(2) 0.40920(14) 0.18787(13)
C3 C 0.0739(2) 0.53089(14) 0.17708(14)
H1 H 0.1051 0.5817 0.1155
C4 C -0.0418(2) 0.58052(15) 0.25315(15)
C5 C -0.0864(2) 0.50500(16) 0.34264(15)
H2 H -0.1664 0.5370 0.3952
C6 C -0.0166(2) 0.38480(16) 0.35636(15)
H3 H -0.0481 0.3346 0.4182
C7 C -0.1189(3) 0.71225(17) 0.23898(19)
H4 H -0.0553 0.7572 0.1826
H5 H -0.0988 0.7587 0.3168
H6 H -0.2529 0.7065 0.2082
C8 C 0.2328(2) 0.03529(15) 0.39246(15)
C9 C 0.2479(2) -0.01583(16) 0.50425(16)
H7 H 0.2126 0.0329 0.5692
C10 C 0.3139(2) -0.13680(16) 0.52186(16)
H8 H 0.3250 -0.1702 0.5993
C11 C 0.3642(2) -0.21038(15) 0.42854(16)
C12 C 0.3463(3) -0.15840(17) 0.31668(17)
H9 H 0.3788 -0.2079 0.2513
C13 C 0.2827(3) -0.03710(16) 0.29785(16)
H10 H 0.2732 -0.0033 0.2207
C14 C 0.4355(3) -0.34298(18) 0.4477(2)
H11 H 0.5322 -0.3423 0.5188
H12 H 0.4881 -0.3736 0.3775
H13 H 0.3324 -0.3993 0.4593
C15 C 0.2768(2) 0.36064(15) 0.10644(14)
H14 H 0.2435 0.3979 0.0271
H15 H 0.2618 0.2673 0.0951
C16 C 0.4797(2) 0.39347(16) 0.15636(15)
H16 H 0.4962 0.4870 0.1601
H17 H 0.5079 0.3643 0.2392
C17 C 0.6174(2) 0.33594(15) 0.08458(16)
H18 H 0.5743 0.3457 -0.0020
H19 H 0.7405 0.3789 0.1069
C18 C 0.7566(3) 0.13792(18) 0.05859(17)
C19 C 0.7703(4) 0.0056(2) 0.0988(3)
H20 H 0.8805 -0.0341 0.0743
H21 H 0.6582 -0.0428 0.0626
H22 H 0.7814 0.0064 0.1863
N1 N 0.17299(19) 0.21108(12) 0.28768(12)
N2 N 0.16645(19) 0.16199(13) 0.38508(13)
O1 O 0.8458(2) 0.18324(15) -0.00930(14)
O2 O 0.63191(17) 0.20357(11) 0.11008(12)
loop_
_geom_bond_atom_site_label_1
_geom_bond_atom_site_label_2
_geom_bond_site_symmetry_1
_geom_bond_site_symmetry_2
C1 C2 1_555 1_555
C2 C3 1_555 1_555
C3 H1 1_555 1_555
C4 C3 1_555 1_555
C5 C4 1_555 1_555
H2 C5 1_555 1_555
C6 C1 1_555 1_555
H3 C6 1_555 1_555
C7 C4 1_555 1_555
H4 C7 1_555 1_555
H5 C7 1_555 1_555
H6 C7 1_555 1_555
C8 C9 1_555 1_555
C9 H7 1_555 1_555
C10 C9 1_555 1_555
H8 C10 1_555 1_555
C11 C10 1_555 1_555
C12 C11 1_555 1_555
H9 C12 1_555 1_555
C13 C8 1_555 1_555
H10 C13 1_555 1_555
C14 C11 1_555 1_555
H11 C14 1_555 1_555
H12 C14 1_555 1_555
H13 C14 1_555 1_555
C15 C2 1_555 1_555
H14 C15 1_555 1_555
H15 C15 1_555 1_555
C16 C15 1_555 1_555
H16 C16 1_555 1_555
H17 C16 1_555 1_555
C17 C16 1_555 1_555
H18 C17 1_555 1_555
H19 C17 1_555 1_555
C18 C19 1_555 1_555
C19 H20 1_555 1_555
H21 C19 1_555 1_555
H22 C19 1_555 1_555
N1 C1 1_555 1_555
N2 C8 1_555 1_555
O1 C18 1_555 1_555
O2 C17 1_555 1_555
C5 C6 1_555 1_555
C12 C13 1_555 1_555
C18 O2 1_555 1_555
N1 N2 1_555 1_555

#END
