
#######################################################################
#
#                 Cambridge Crystallographic Data Centre
#                                CCDC 
#
#######################################################################
#
# If this CIF has been generated from an entry in the Cambridge 
# Structural Database, then it will include bibliographic, chemical, 
# crystal, experimental, refinement or atomic coordinate data resulting 
# from the CCDC's data processing and validation procedures.
#
#######################################################################

data_LUNZUQ
_chemical_formula_moiety         'C22 H18 F7 N1 O6 S1'
_chemical_name_systematic        
'Methyl 2-(heptafluoropropyl)-8-methoxy-4-(((4-methylphenyl)sulfonyl)amino)-4H-chromene-3-carboxylate'
_symmetry_cell_setting           triclinic
_symmetry_space_group_name_H-M   'P -1'
_symmetry_Int_Tables_number      2
_space_group_name_Hall           '-P 1'
loop_
_symmetry_equiv_pos_site_id
_symmetry_equiv_pos_as_xyz
1 x,y,z
2 -x,-y,-z
_cell_length_a                   9.5269(13)
_cell_length_b                   11.2132(16)
_cell_length_c                   12.9275(18)
_cell_angle_alpha                72.580(2)
_cell_angle_beta                 76.271(2)
_cell_angle_gamma                67.682(2)
_cell_volume                     1206.94
_cell_formula_units_Z            2
loop_
_atom_site_label
_atom_site_type_symbol
_atom_site_fract_x
_atom_site_fract_y
_atom_site_fract_z
S1 S 0.69377(11) 0.59608(9) 0.43316(9)
C1 C 0.1334(5) 1.0587(4) 0.5640(4)
C2 C 0.1209(6) 1.1122(4) 0.4544(5)
H1 H 0.0345 1.1830 0.4329
C3 C 0.2355(7) 1.0609(4) 0.3774(4)
H2 H 0.2269 1.0988 0.3036
C4 C 0.3636(6) 0.9543(4) 0.4064(4)
H3 H 0.4398 0.9205 0.3525
C5 C 0.3788(4) 0.8974(3) 0.5159(3)
C6 C 0.5164(4) 0.7793(3) 0.5498(3)
H4 H 0.6073 0.8065 0.5222
C7 C 0.5066(4) 0.7326(3) 0.6727(3)
C8 C 0.3896(4) 0.7950(4) 0.7382(3)
C9 C 0.2634(4) 0.9509(3) 0.5932(3)
C10 C -0.1043(5) 1.2169(4) 0.6224(5)
H5 H -0.0717 1.2906 0.5802
H6 H -0.1667 1.2374 0.6891
H7 H -0.1628 1.1996 0.5809
C11 C 0.3708(5) 0.7620(4) 0.8607(4)
C12 C 0.2210(7) 0.7400(7) 0.9245(5)
C13 C 0.1724(12) 0.6464(12) 0.9015(9)
C14 C 0.6370(4) 0.6108(4) 0.7122(3)
C15 C 0.8978(5) 0.5330(5) 0.7339(4)
H8 H 0.8833 0.4724 0.8027
H9 H 0.9756 0.5672 0.7350
H10 H 0.9288 0.4875 0.6758
C16 C 0.6919(4) 0.6854(3) 0.2955(3)
C17 C 0.7858(4) 0.7608(4) 0.2503(4)
H11 H 0.8487 0.7670 0.2922
C18 C 0.7850(5) 0.8272(4) 0.1413(4)
H12 H 0.8482 0.8785 0.1104
C19 C 0.6945(5) 0.8199(4) 0.0778(4)
C20 C 0.5996(6) 0.7459(5) 0.1258(4)
H13 H 0.5350 0.7417 0.0842
C21 C 0.5976(5) 0.6779(4) 0.2339(4)
H14 H 0.5333 0.6276 0.2648
C22 C 0.6986(7) 0.8903(6) -0.0428(4)
H15 H 0.7636 0.9434 -0.0608
H16 H 0.5968 0.9462 -0.0572
H17 H 0.7378 0.8258 -0.0865
F1 F 0.3668(4) 0.8657(3) 0.8950(2)
F2 F 0.4876(3) 0.6610(3) 0.8993(2)
F3 F 0.0937(4) 0.8570(3) 0.9057(3)
F4 F 0.2297(5) 0.7039(4) 1.0357(3)
F5 F 0.0460(5) 0.6304(4) 0.9663(4)
F6 F 0.2968(7) 0.5265(4) 0.9302(6)
F7 F 0.1629(7) 0.6676(6) 0.8009(4)
N1 N 0.5359(3) 0.6705(3) 0.5012(3)
H18 H 0.4586 0.6450 0.5095
O1 O 0.2692(3) 0.9047(2) 0.7044(2)
O2 O 0.0286(3) 1.1009(3) 0.6479(3)
O3 O 0.7536(3) 0.6428(2) 0.7161(2)
O4 O 0.6365(3) 0.5009(3) 0.7299(3)
O5 O 0.6872(3) 0.4682(2) 0.4382(2)
O6 O 0.8181(3) 0.6044(3) 0.4707(2)
loop_
_geom_bond_atom_site_label_1
_geom_bond_atom_site_label_2
_geom_bond_site_symmetry_1
_geom_bond_site_symmetry_2
S1 C16 1_555 1_555
C1 C2 1_555 1_555
C2 H1 1_555 1_555
C3 C2 1_555 1_555
H2 C3 1_555 1_555
C4 C3 1_555 1_555
H3 C4 1_555 1_555
C5 C4 1_555 1_555
C6 C5 1_555 1_555
H4 C6 1_555 1_555
C7 C6 1_555 1_555
C8 C7 1_555 1_555
C9 C1 1_555 1_555
C10 H5 1_555 1_555
H6 C10 1_555 1_555
H7 C10 1_555 1_555
C11 C8 1_555 1_555
C12 C11 1_555 1_555
C13 C12 1_555 1_555
C14 C7 1_555 1_555
C15 H8 1_555 1_555
H9 C15 1_555 1_555
H10 C15 1_555 1_555
C16 C17 1_555 1_555
C17 H11 1_555 1_555
C18 C17 1_555 1_555
H12 C18 1_555 1_555
C19 C18 1_555 1_555
C20 C19 1_555 1_555
H13 C20 1_555 1_555
C21 C16 1_555 1_555
H14 C21 1_555 1_555
C22 C19 1_555 1_555
H15 C22 1_555 1_555
H16 C22 1_555 1_555
H17 C22 1_555 1_555
F1 C11 1_555 1_555
F2 C11 1_555 1_555
F3 C12 1_555 1_555
F4 C12 1_555 1_555
F5 C13 1_555 1_555
F6 C13 1_555 1_555
F7 C13 1_555 1_555
N1 S1 1_555 1_555
H18 N1 1_555 1_555
O1 C8 1_555 1_555
O2 C1 1_555 1_555
O3 C14 1_555 1_555
O4 C14 1_555 1_555
O5 S1 1_555 1_555
O6 S1 1_555 1_555
C5 C9 1_555 1_555
C6 N1 1_555 1_555
C9 O1 1_555 1_555
C10 O2 1_555 1_555
C15 O3 1_555 1_555
C20 C21 1_555 1_555

#END
