
#######################################################################
#
#                 Cambridge Crystallographic Data Centre
#                                CCDC 
#
#######################################################################
#
# If this CIF has been generated from an entry in the Cambridge 
# Structural Database, then it will include bibliographic, chemical, 
# crystal, experimental, refinement or atomic coordinate data resulting 
# from the CCDC's data processing and validation procedures.
#
#######################################################################

data_LUPCAC
_chemical_compound_source        'Stachybotrys bisbyi (PYH05-7)'
_chemical_name_common            dehydrobotrydienol
_chemical_formula_moiety         'C15 H22 O2'
_chemical_name_systematic        
(1,3,3,6-tetramethyl-2,3-dihydro-1H-indene-1,7-diyl)dimethanol
_symmetry_cell_setting           orthorhombic
_symmetry_space_group_name_H-M   'P 21 21 21'
_symmetry_Int_Tables_number      19
_space_group_name_Hall           'P 2ac 2ab'
loop_
_symmetry_equiv_pos_site_id
_symmetry_equiv_pos_as_xyz
1 x,y,z
2 1/2-x,-y,1/2+z
3 1/2+x,1/2-y,-z
4 -x,1/2+y,1/2-z
_cell_length_a                   8.8587(3)
_cell_length_b                   10.9481(4)
_cell_length_c                   13.7817(5)
_cell_angle_alpha                90
_cell_angle_beta                 90
_cell_angle_gamma                90
_cell_volume                     1336.63
_exptl_crystal_colour            colorless
_cell_formula_units_Z            4
loop_
_atom_site_label
_atom_site_type_symbol
_atom_site_fract_x
_atom_site_fract_y
_atom_site_fract_z
O1 O 0.2029(3) 0.3010(2) -0.0043(2)
H1 H 0.1146 0.3037 0.0134
C1 C 0.2566(4) 0.4219(3) -0.0212(3)
H2 H 0.2009 0.4572 -0.0750
H3 H 0.3621 0.4180 -0.0399
C2 C 0.3448(5) 0.5847(4) 0.2140(3)
H4 H 0.4239 0.5895 0.2582
C3 C 0.1122(4) 0.5747(3) 0.0811(3)
C4 C 0.2413(4) 0.5036(3) 0.0655(2)
O2 O -0.0922(4) 0.3719(3) 0.0506(3)
H5 H -0.1514 0.3176 0.0354
C5 C 0.1003(5) 0.6481(3) 0.1630(3)
C6 C -0.0308(4) 0.5862(3) 0.0183(3)
C7 C 0.3576(4) 0.5071(3) 0.1355(3)
C8 C 0.2179(5) 0.6556(4) 0.2287(3)
H6 H 0.2116 0.7074 0.2820
C9 C -0.1009(5) 0.4653(4) -0.0158(4)
H7 H -0.2063 0.4794 -0.0313
H8 H -0.0507 0.4398 -0.0750
C10 C 0.4963(5) 0.4267(5) 0.1259(4)
H9 H 0.5525 0.4505 0.0694
H10 H 0.4658 0.3430 0.1198
H11 H 0.5585 0.4360 0.1825
C11 C -0.0039(6) 0.6582(5) -0.0744(3)
H12 H 0.0265 0.7399 -0.0583
H13 H -0.0954 0.6608 -0.1117
H14 H 0.0740 0.6194 -0.1117
C12 C -0.0498(5) 0.7145(4) 0.1693(3)
C13 C -0.1286(7) 0.6927(5) 0.2649(4)
H15 H -0.1424 0.6066 0.2745
H16 H -0.2252 0.7325 0.2644
H17 H -0.0683 0.7252 0.3167
C14 C -0.0270(7) 0.8514(4) 0.1566(5)
H18 H 0.0405 0.8810 0.2058
H19 H -0.1224 0.8924 0.1623
H20 H 0.0153 0.8673 0.0937
C15 C -0.1410(6) 0.6508(6) 0.0865(4)
H21 H -0.2108 0.5919 0.1141
H22 H -0.1989 0.7111 0.0508
loop_
_geom_bond_atom_site_label_1
_geom_bond_atom_site_label_2
_geom_bond_site_symmetry_1
_geom_bond_site_symmetry_2
O1 H1 1_555 1_555
C1 O1 1_555 1_555
H2 C1 1_555 1_555
H3 C1 1_555 1_555
C2 H4 1_555 1_555
C3 C4 1_555 1_555
C4 C1 1_555 1_555
O2 H5 1_555 1_555
C5 C3 1_555 1_555
C6 C3 1_555 1_555
C7 C2 1_555 1_555
C8 C2 1_555 1_555
H6 C8 1_555 1_555
C9 O2 1_555 1_555
H7 C9 1_555 1_555
H8 C9 1_555 1_555
C10 C7 1_555 1_555
H9 C10 1_555 1_555
H10 C10 1_555 1_555
H11 C10 1_555 1_555
C11 C6 1_555 1_555
H12 C11 1_555 1_555
H13 C11 1_555 1_555
H14 C11 1_555 1_555
C12 C5 1_555 1_555
C13 C12 1_555 1_555
H15 C13 1_555 1_555
H16 C13 1_555 1_555
H17 C13 1_555 1_555
C14 C12 1_555 1_555
H18 C14 1_555 1_555
H19 C14 1_555 1_555
H20 C14 1_555 1_555
C15 C6 1_555 1_555
H21 C15 1_555 1_555
H22 C15 1_555 1_555
C4 C7 1_555 1_555
C5 C8 1_555 1_555
C6 C9 1_555 1_555
C12 C15 1_555 1_555

#END
