
#######################################################################
#
#                 Cambridge Crystallographic Data Centre
#                                CCDC 
#
#######################################################################
#
# If this CIF has been generated from an entry in the Cambridge 
# Structural Database, then it will include bibliographic, chemical, 
# crystal, experimental, refinement or atomic coordinate data resulting 
# from the CCDC's data processing and validation procedures.
#
#######################################################################

data_LUPENO01
_chemical_compound_source        'Daedaleopsis tricolor'
_chemical_formula_moiety         'C30 H48 O1'
_chemical_name_systematic        20(29)-Lupen-3-one
_chemical_properties_biological  
'antifungal activity against Saccharomyces cerevisiae and Microsporum gypseum; antibacterial activity against Escherichia coli, Proteus vulgaris, Pseudomonas pyocyanea, Bacillus subtilis and Staphylococcus aureus; antioxidative activity on lipid peroxidation'
_symmetry_cell_setting           orthorhombic
_symmetry_space_group_name_H-M   'P 21 21 21'
_symmetry_Int_Tables_number      19
_space_group_name_Hall           'P 2ac 2ab'
loop_
_symmetry_equiv_pos_site_id
_symmetry_equiv_pos_as_xyz
1 x,y,z
2 1/2-x,-y,1/2+z
3 1/2+x,1/2-y,-z
4 -x,1/2+y,1/2-z
_cell_length_a                   13.997(4)
_cell_length_b                   17.336(6)
_cell_length_c                   10.615(3)
_cell_angle_alpha                90
_cell_angle_beta                 90
_cell_angle_gamma                90
_cell_volume                     2575.75
_exptl_crystal_colour            colorless
_exptl_crystal_description       needle
_chemical_melting_point          '168-170 deg.C'
_cell_formula_units_Z            4
_exptl_crystal_recrystallization_method 'petroleum ether'
loop_
_atom_site_label
_atom_site_type_symbol
_atom_site_fract_x
_atom_site_fract_y
_atom_site_fract_z
C1 C 0.40132(27) 0.17831(23) 0.19085(44)
H1 H 0.38970 0.17591 0.10085
H2 H 0.42270 0.23014 0.21059
C2 C 0.22158(27) 0.21112(22) 0.19763(37)
C3 C 0.30628(25) 0.16263(22) 0.26120(37)
C4 C 0.36296(27) 0.01682(22) 0.28504(37)
C5 C 0.28115(26) 0.07528(22) 0.25410(37)
H3 H 0.26691 0.06625 0.16492
C6 C 0.24423(28) 0.29846(22) 0.20026(43)
H4 H 0.26541 0.31232 0.28428
H5 H 0.29655 0.30865 0.14271
C7 C 0.48090(28) 0.12128(23) 0.22441(46)
H6 H 0.53722 0.13279 0.17459
H7 H 0.49757 0.12717 0.31258
C8 C 0.12719(26) 0.19343(23) 0.27178(39)
H8 H 0.13966 0.20720 0.35979
C9 C 0.45034(28) 0.03905(22) 0.20019(40)
H9 H 0.42466 0.03970 0.11431
C10 C 0.04676(27) 0.24687(24) 0.22672(38)
H10 H 0.04083 0.23852 0.13575
C11 C 0.32087(31) 0.18937(25) 0.39940(39)
H11 H 0.26318 0.18083 0.44630
H12 H 0.33637 0.24331 0.40061
H13 H 0.37209 0.16051 0.43679
C12 C 0.07175(31) 0.33219(26) 0.24396(42)
C13 C 0.10449(28) 0.10753(23) 0.27097(44)
H14 H 0.04798 0.09833 0.32170
H15 H 0.09039 0.09150 0.18541
C14 C 0.33011(33) -0.06387(23) 0.24472(45)
H16 H 0.27938 -0.08058 0.30068
H17 H 0.30370 -0.06075 0.16038
C15 C 0.18652(28) 0.05918(24) 0.32181(45)
H18 H 0.17073 0.00498 0.31268
H19 H 0.19427 0.06975 0.41096
C16 C 0.40948(37) -0.12473(25) 0.24570(54)
H20 H 0.42852 -0.13468 0.33204
H21 H 0.38493 -0.17247 0.21074
C17 C 0.15922(31) 0.35006(25) 0.16418(50)
H22 H 0.17681 0.40374 0.17546
H23 H 0.14388 0.34229 0.07597
C18 C 0.53510(31) -0.01979(26) 0.19477(47)
C19 C 0.08868(39) 0.35404(29) 0.38365(49)
H24 H 0.03241 0.34249 0.43181
H25 H 0.10246 0.40816 0.38965
H26 H 0.14166 0.32501 0.41608
C20 C 0.49497(37) -0.09989(28) 0.17166(54)
C21 C -0.11781(31) 0.17523(33) 0.23279(53)
C22 C -0.10034(33) 0.31834(31) 0.25528(48)
H27 H -0.12533 0.34038 0.33254
H28 H -0.15238 0.31334 0.19549
C23 C 0.20890(31) 0.18863(26) 0.05685(37)
H29 H 0.26691 0.19930 0.01185
H30 H 0.15756 0.21807 0.02099
H31 H 0.19439 0.13464 0.05076
C24 C 0.59627(35) -0.02310(31) 0.31490(53)
H32 H 0.62219 0.02709 0.33199
H33 H 0.64750 -0.05922 0.30322
H34 H 0.55733 -0.03925 0.38452
C25 C -0.05518(28) 0.23867(26) 0.28170(43)
H35 H -0.04959 0.23252 0.37318
C26 C 0.38604(32) 0.01342(25) 0.42780(39)
H36 H 0.40830 0.06297 0.45554
H37 H 0.43469 -0.02455 0.44256
H38 H 0.32942 -0.00026 0.47369
C27 C 0.60155(38) 0.00098(31) 0.08447(54)
H39 H 0.62705 0.05180 0.09709
H40 H 0.56610 -0.00034 0.00707
H41 H 0.65299 -0.03557 0.08039
C28 C -0.02087(34) 0.37054(30) 0.20053(54)
H42 H -0.02434 0.37233 0.10931
H43 H -0.02586 0.42260 0.23333
C29 C -0.19299(51) 0.15058(56) 0.31735(71)
H44 H -0.22875 0.10963 0.27885
H45 H -0.23474 0.19323 0.33458
H46 H -0.16533 0.13255 0.39469
C30 C -0.11260(41) 0.14590(36) 0.11376(56)
H47 H -0.15743 0.10994 0.08670
H48 H -0.06421 0.16186 0.05967
O1 O 0.53058(34) -0.14386(24) 0.09487(47)
loop_
_geom_bond_atom_site_label_1
_geom_bond_atom_site_label_2
_geom_bond_site_symmetry_1
_geom_bond_site_symmetry_2
C1 H1 1_555 1_555
H2 C1 1_555 1_555
C2 C3 1_555 1_555
C3 C1 1_555 1_555
C4 C5 1_555 1_555
C5 C3 1_555 1_555
H3 C5 1_555 1_555
C6 C2 1_555 1_555
H4 C6 1_555 1_555
H5 C6 1_555 1_555
C7 C1 1_555 1_555
H6 C7 1_555 1_555
H7 C7 1_555 1_555
C8 C2 1_555 1_555
H8 C8 1_555 1_555
C9 C4 1_555 1_555
H9 C9 1_555 1_555
C10 C8 1_555 1_555
H10 C10 1_555 1_555
C11 C3 1_555 1_555
H11 C11 1_555 1_555
H12 C11 1_555 1_555
H13 C11 1_555 1_555
C12 C10 1_555 1_555
C13 C8 1_555 1_555
H14 C13 1_555 1_555
H15 C13 1_555 1_555
C14 C4 1_555 1_555
H16 C14 1_555 1_555
H17 C14 1_555 1_555
C15 C5 1_555 1_555
H18 C15 1_555 1_555
H19 C15 1_555 1_555
C16 C14 1_555 1_555
H20 C16 1_555 1_555
H21 C16 1_555 1_555
C17 C6 1_555 1_555
H22 C17 1_555 1_555
H23 C17 1_555 1_555
C18 C9 1_555 1_555
C19 C12 1_555 1_555
H24 C19 1_555 1_555
H25 C19 1_555 1_555
H26 C19 1_555 1_555
C20 C16 1_555 1_555
C21 C25 1_555 1_555
C22 H27 1_555 1_555
H28 C22 1_555 1_555
C23 C2 1_555 1_555
H29 C23 1_555 1_555
H30 C23 1_555 1_555
H31 C23 1_555 1_555
C24 C18 1_555 1_555
H32 C24 1_555 1_555
H33 C24 1_555 1_555
H34 C24 1_555 1_555
C25 C10 1_555 1_555
H35 C25 1_555 1_555
C26 C4 1_555 1_555
H36 C26 1_555 1_555
H37 C26 1_555 1_555
H38 C26 1_555 1_555
C27 C18 1_555 1_555
H39 C27 1_555 1_555
H40 C27 1_555 1_555
H41 C27 1_555 1_555
C28 C12 1_555 1_555
H42 C28 1_555 1_555
H43 C28 1_555 1_555
C29 C21 1_555 1_555
H44 C29 1_555 1_555
H45 C29 1_555 1_555
H46 C29 1_555 1_555
C30 C21 1_555 1_555
H47 C30 1_555 1_555
H48 C30 1_555 1_555
O1 C20 1_555 1_555
C7 C9 1_555 1_555
C12 C17 1_555 1_555
C13 C15 1_555 1_555
C18 C20 1_555 1_555
C22 C25 1_555 1_555
C22 C28 1_555 1_555

#END
