
#######################################################################
#
#                 Cambridge Crystallographic Data Centre
#                                CCDC 
#
#######################################################################
#
# If this CIF has been generated from an entry in the Cambridge 
# Structural Database, then it will include bibliographic, chemical, 
# crystal, experimental, refinement or atomic coordinate data resulting 
# from the CCDC's data processing and validation procedures.
#
#######################################################################

data_LUPJAI
_chemical_compound_source        'Aglaia odorata'
_chemical_formula_moiety         'C20 H34 O2'
_chemical_name_systematic        
(1R,3E,7E,10S,11S,12R)-Dolabella-3,7-diene-10,18-diol
_chemical_properties_biological  
'tested for activity against various human cancer cells'
_symmetry_cell_setting           orthorhombic
_symmetry_space_group_name_H-M   'P 21 21 21'
_symmetry_Int_Tables_number      19
_space_group_name_Hall           'P 2ac 2ab'
loop_
_symmetry_equiv_pos_site_id
_symmetry_equiv_pos_as_xyz
1 x,y,z
2 1/2-x,-y,1/2+z
3 -x,1/2+y,1/2-z
4 1/2+x,1/2-y,-z
_cell_length_a                   9.4396(11)
_cell_length_b                   10.3295(12)
_cell_length_c                   19.135(2)
_cell_angle_alpha                90
_cell_angle_beta                 90
_cell_angle_gamma                90
_cell_volume                     1865.78
_exptl_crystal_colour            colorless
_exptl_crystal_description       block
_cell_formula_units_Z            4
loop_
_atom_site_label
_atom_site_type_symbol
_atom_site_fract_x
_atom_site_fract_y
_atom_site_fract_z
C1 C 0.6708(2) 0.63187(19) 0.09311(11)
O1 O 0.52004(16) 0.52436(13) 0.24428(7)
H1 H 0.4834 0.4535 0.2375
C2 C 0.8211(2) 0.6575(2) 0.06284(12)
H2 H 0.8422 0.5901 0.0291
H3 H 0.8190 0.7391 0.0378
O2 O 0.51336(18) 0.26785(13) 0.19609(7)
H4 H 0.5109 0.1919 0.2085
C3 C 0.9391(3) 0.6624(2) 0.11467(12)
H5 H 0.9254 0.7171 0.1527
C4 C 1.0611(3) 0.5984(2) 0.11340(12)
C5 C 1.1579(3) 0.5999(2) 0.17608(12)
H6 H 1.1301 0.6698 0.2070
H7 H 1.2541 0.6163 0.1607
C6 C 1.1535(3) 0.4714(2) 0.21656(13)
H8 H 1.2094 0.4072 0.1919
H9 H 1.1952 0.4838 0.2624
C7 C 1.0048(3) 0.4231(2) 0.22459(11)
H10 H 0.9783 0.3552 0.1955
C8 C 0.9068(2) 0.4659(2) 0.26850(10)
C9 C 0.7539(2) 0.4260(2) 0.26169(10)
H11 H 0.7132 0.4177 0.3080
H12 H 0.7495 0.3417 0.2394
C10 C 0.6642(2) 0.52268(19) 0.21887(10)
H13 H 0.7034 0.6088 0.2281
C11 C 0.6701(2) 0.50293(17) 0.13880(9)
H14 H 0.7594 0.4581 0.1289
C12 C 0.5505(2) 0.41966(18) 0.10617(9)
H15 H 0.4614 0.4566 0.1233
C13 C 0.5587(3) 0.4553(2) 0.02883(11)
H16 H 0.6413 0.4172 0.0068
H17 H 0.4743 0.4283 0.0039
C14 C 0.5701(3) 0.6010(2) 0.03185(12)
H18 H 0.4778 0.6395 0.0398
H19 H 0.6081 0.6346 -0.0116
C15 C 0.6179(3) 0.7529(2) 0.13206(13)
H20 H 0.6863 0.7776 0.1668
H21 H 0.5292 0.7341 0.1543
H22 H 0.6055 0.8226 0.0994
C16 C 1.1068(3) 0.5114(3) 0.05407(14)
H23 H 1.0457 0.5248 0.0146
H24 H 1.1010 0.4226 0.0687
H25 H 1.2026 0.5314 0.0412
C17 C 0.9367(3) 0.5634(3) 0.32504(12)
H26 H 1.0347 0.5881 0.3233
H27 H 0.9162 0.5259 0.3698
H28 H 0.8784 0.6385 0.3181
C18 C 0.5431(2) 0.27415(18) 0.12256(10)
C19 C 0.6806(3) 0.2018(2) 0.10612(13)
H29 H 0.7571 0.2393 0.1322
H30 H 0.7006 0.2083 0.0571
H31 H 0.6704 0.1123 0.1188
C20 C 0.4201(3) 0.2105(2) 0.08363(13)
H32 H 0.4115 0.1219 0.0982
H33 H 0.4376 0.2138 0.0342
H34 H 0.3339 0.2559 0.0940
loop_
_geom_bond_atom_site_label_1
_geom_bond_atom_site_label_2
_geom_bond_site_symmetry_1
_geom_bond_site_symmetry_2
C1 C2 1_555 1_555
O1 H1 1_555 1_555
C2 H2 1_555 1_555
H3 C2 1_555 1_555
O2 H4 1_555 1_555
C3 C2 1_555 1_555
H5 C3 1_555 1_555
C4 C3 1_555 1_555
C5 C4 1_555 1_555
H6 C5 1_555 1_555
H7 C5 1_555 1_555
C6 C5 1_555 1_555
H8 C6 1_555 1_555
H9 C6 1_555 1_555
C7 C6 1_555 1_555
H10 C7 1_555 1_555
C8 C7 1_555 1_555
C9 C8 1_555 1_555
H11 C9 1_555 1_555
H12 C9 1_555 1_555
C10 O1 1_555 1_555
H13 C10 1_555 1_555
C11 C1 1_555 1_555
H14 C11 1_555 1_555
C12 C11 1_555 1_555
H15 C12 1_555 1_555
C13 C12 1_555 1_555
H16 C13 1_555 1_555
H17 C13 1_555 1_555
C14 C1 1_555 1_555
H18 C14 1_555 1_555
H19 C14 1_555 1_555
C15 C1 1_555 1_555
H20 C15 1_555 1_555
H21 C15 1_555 1_555
H22 C15 1_555 1_555
C16 C4 1_555 1_555
H23 C16 1_555 1_555
H24 C16 1_555 1_555
H25 C16 1_555 1_555
C17 C8 1_555 1_555
H26 C17 1_555 1_555
H27 C17 1_555 1_555
H28 C17 1_555 1_555
C18 O2 1_555 1_555
C19 C18 1_555 1_555
H29 C19 1_555 1_555
H30 C19 1_555 1_555
H31 C19 1_555 1_555
C20 C18 1_555 1_555
H32 C20 1_555 1_555
H33 C20 1_555 1_555
H34 C20 1_555 1_555
C9 C10 1_555 1_555
C10 C11 1_555 1_555
C12 C18 1_555 1_555
C13 C14 1_555 1_555

#END
