
#######################################################################
#
#                 Cambridge Crystallographic Data Centre
#                                CCDC 
#
#######################################################################
#
# If this CIF has been generated from an entry in the Cambridge 
# Structural Database, then it will include bibliographic, chemical, 
# crystal, experimental, refinement or atomic coordinate data resulting 
# from the CCDC's data processing and validation procedures.
#
#######################################################################

data_LUPKUD
_chemical_formula_moiety         'C12 H12 O1'
_chemical_name_systematic        3-(3-Methylphenyl)penta-3,4-dien-2-one
_symmetry_cell_setting           monoclinic
_symmetry_space_group_name_H-M   'P 21/n'
_symmetry_Int_Tables_number      14
_space_group_name_Hall           '-P 2yn'
loop_
_symmetry_equiv_pos_site_id
_symmetry_equiv_pos_as_xyz
1 x,y,z
2 1/2-x,1/2+y,1/2-z
3 -x,-y,-z
4 1/2+x,1/2-y,1/2+z
_cell_length_a                   7.5594(3)
_cell_length_b                   13.6697(5)
_cell_length_c                   9.4364(3)
_cell_angle_alpha                90
_cell_angle_beta                 93.7300(10)
_cell_angle_gamma                90
_cell_volume                     973.042
_exptl_crystal_colour            colorless
_exptl_crystal_description       block
_cell_formula_units_Z            4
loop_
_atom_site_label
_atom_site_type_symbol
_atom_site_fract_x
_atom_site_fract_y
_atom_site_fract_z
O1 O 0.21744(14) 0.55399(7) 0.34281(12)
C1 C 0.1640(2) 0.60442(11) 0.10349(16)
H1 H 0.2126 0.5399 0.0827
H2 H 0.2377 0.6554 0.0642
H3 H 0.0427 0.6095 0.0605
C2 C 0.16212(17) 0.61743(10) 0.26156(15)
C3 C 0.09224(17) 0.71150(9) 0.31521(14)
C4 C 0.08031(16) 0.72686(9) 0.47067(14)
C5 C 0.01622(18) 0.65454(10) 0.55813(15)
H4 H -0.0215 0.5934 0.5190
C6 C 0.0077(2) 0.67205(11) 0.70175(16)
H5 H -0.0355 0.6226 0.7612
C7 C 0.06169(19) 0.76091(11) 0.75975(15)
H6 H 0.0562 0.7716 0.8589
C8 C 0.12387(18) 0.83482(10) 0.67505(15)
C9 C 0.13256(17) 0.81611(10) 0.53083(14)
H7 H 0.1755 0.8658 0.4715
C10 C 0.1776(2) 0.93263(11) 0.73659(17)
H8 H 0.1628 0.9324 0.8390
H9 H 0.1029 0.9838 0.6912
H10 H 0.3020 0.9454 0.7197
C11 C 0.05053(16) 0.78232(9) 0.22403(14)
C12 C 0.0127(2) 0.85319(10) 0.13699(15)
H11 H -0.104(2) 0.8610(11) 0.0926(17)
H12 H 0.106(2) 0.9009(13) 0.1156(18)
loop_
_geom_bond_atom_site_label_1
_geom_bond_atom_site_label_2
_geom_bond_site_symmetry_1
_geom_bond_site_symmetry_2
O1 C2 1_555 1_555
C1 H1 1_555 1_555
H2 C1 1_555 1_555
H3 C1 1_555 1_555
C2 C1 1_555 1_555
C3 C2 1_555 1_555
C4 C3 1_555 1_555
C5 C4 1_555 1_555
H4 C5 1_555 1_555
C6 C5 1_555 1_555
H5 C6 1_555 1_555
C7 C6 1_555 1_555
H6 C7 1_555 1_555
C8 C7 1_555 1_555
C9 C4 1_555 1_555
H7 C9 1_555 1_555
C10 C8 1_555 1_555
H8 C10 1_555 1_555
H9 C10 1_555 1_555
H10 C10 1_555 1_555
C11 C3 1_555 1_555
C12 C11 1_555 1_555
H11 C12 1_555 1_555
H12 C12 1_555 1_555
C8 C9 1_555 1_555

#END
