
#######################################################################
#
#                 Cambridge Crystallographic Data Centre
#                                CCDC 
#
#######################################################################
#
# If this CIF has been generated from an entry in the Cambridge 
# Structural Database, then it will include bibliographic, chemical, 
# crystal, experimental, refinement or atomic coordinate data resulting 
# from the CCDC's data processing and validation procedures.
#
#######################################################################

data_LUPLIT
_chemical_formula_moiety         'C25 H20 Br1 N3 O2 S1'
_chemical_name_systematic        
4-(3-(3-Bromophenyl)-5-(2-naphthyl)-4,5-dihydro-1H-pyrazol-1-yl)benzenesulfonamide
_symmetry_cell_setting           monoclinic
_symmetry_space_group_name_H-M   'P 21/c'
_symmetry_Int_Tables_number      14
_space_group_name_Hall           '-P 2ybc'
loop_
_symmetry_equiv_pos_site_id
_symmetry_equiv_pos_as_xyz
1 x,y,z
2 -x,1/2+y,1/2-z
3 -x,-y,-z
4 x,1/2-y,1/2+z
_cell_length_a                   9.2897(6)
_cell_length_b                   22.7295(14)
_cell_length_c                   10.5959(6)
_cell_angle_alpha                90
_cell_angle_beta                 92.995(2)
_cell_angle_gamma                90
_cell_volume                     2234.27
_cell_formula_units_Z            4
loop_
_atom_site_label
_atom_site_type_symbol
_atom_site_fract_x
_atom_site_fract_y
_atom_site_fract_z
C1 C 0.9717(10) 0.9454(4) 0.7444(9)
Br1 Br 1.44407(15) 0.53629(5) 0.30863(13)
S1 S 0.9396(3) 1.01814(11) 0.7961(2)
C2 C 0.9145(11) 0.8985(4) 0.8066(8)
H1 H 0.8573 0.9050 0.8747
C3 C 1.2973(10) 0.6961(4) 0.4387(8)
C4 C 1.4152(11) 0.6175(4) 0.3347(9)
H2 H 1.3409 0.6181 0.2655
C5 C 0.9420(10) 0.8412(4) 0.7680(9)
H3 H 0.9050 0.8091 0.8101
O1 O 0.8426(8) 1.0159(3) 0.8963(7)
C6 C 1.1963(9) 0.7163(4) 0.5295(8)
N1 N 1.1528(8) 0.7701(3) 0.5288(6)
N2 N 1.0518(9) 0.7755(3) 0.6227(7)
C7 C 1.0402(10) 0.7217(5) 0.7008(8)
H4 H 1.0847 0.7283 0.7855
C8 C 0.8925(10) 0.6990(4) 0.7100(8)
H5 H 0.8581 0.7379 0.7344
C9 C 1.0270(9) 0.8333(4) 0.6642(8)
C10 C 1.0513(10) 0.9368(4) 0.6425(8)
H6 H 1.0858 0.9691 0.5994
C11 C 1.3805(12) 0.7362(5) 0.3744(10)
H7 H 1.3711 0.7763 0.3890
C12 C 0.7211(10) 0.6452(4) 0.8349(9)
C13 C 0.6270(10) 0.6408(4) 0.7288(9)
C14 C 1.0817(11) 0.8808(4) 0.6021(9)
H8 H 1.1387 0.8752 0.5336
C15 C 1.3166(9) 0.6360(4) 0.4173(8)
H9 H 1.2622 0.6086 0.4594
C16 C 0.8545(10) 0.6751(4) 0.8246(8)
H10 H 0.9173 0.6787 0.8955
C17 C 0.7907(10) 0.6966(4) 0.6092(8)
H11 H 0.8111 0.7154 0.5343
C18 C 1.4977(13) 0.6576(5) 0.2698(12)
H12 H 1.5655 0.6447 0.2146
C19 C 0.6617(11) 0.6678(5) 0.6149(10)
H13 H 0.5979 0.6661 0.5444
C20 C 0.4609(12) 0.5831(5) 0.8526(13)
H14 H 0.3742 0.5632 0.8591
C21 C 1.1311(11) 0.6789(4) 0.6279(10)
H15 H 1.2053 0.6610 0.6831
H16 H 1.0716 0.6481 0.5891
C22 C 0.6900(14) 0.6157(6) 0.9488(10)
H17 H 0.7571 0.6156 1.0171
C23 C 0.5600(13) 0.5872(6) 0.9572(11)
H18 H 0.5372 0.5703 1.0336
C24 C 1.4770(14) 0.7162(6) 0.2890(11)
H19 H 1.5288 0.7434 0.2437
C25 C 0.4941(11) 0.6090(5) 0.7411(11)
H20 H 0.4292 0.6060 0.6716
N3 N 0.9031(9) 1.0535(4) 0.6869(7)
loop_
_geom_bond_atom_site_label_1
_geom_bond_atom_site_label_2
_geom_bond_site_symmetry_1
_geom_bond_site_symmetry_2
C1 S1 1_555 1_555
Br1 C4 1_555 1_555
S1 O1 1_555 1_555
C2 C1 1_555 1_555
H1 C2 1_555 1_555
C3 C6 1_555 1_555
C4 H2 1_555 1_555
C5 C2 1_555 1_555
H3 C5 1_555 1_555
C6 N1 1_555 1_555
N1 N2 1_555 1_555
N2 C7 1_555 1_555
C7 H4 1_555 1_555
C8 C7 1_555 1_555
H5 C8 1_555 1_555
C9 C5 1_555 1_555
C10 C1 1_555 1_555
H6 C10 1_555 1_555
C11 C3 1_555 1_555
H7 C11 1_555 1_555
C12 C13 1_555 1_555
C13 C19 1_555 1_555
C14 C9 1_555 1_555
H8 C14 1_555 1_555
C15 C3 1_555 1_555
H9 C15 1_555 1_555
C16 C8 1_555 1_555
H10 C16 1_555 1_555
C17 C8 1_555 1_555
H11 C17 1_555 1_555
C18 C4 1_555 1_555
H12 C18 1_555 1_555
C19 C17 1_555 1_555
H13 C19 1_555 1_555
C20 H14 1_555 1_555
C21 C6 1_555 1_555
H15 C21 1_555 1_555
H16 C21 1_555 1_555
C22 C12 1_555 1_555
H17 C22 1_555 1_555
C23 C20 1_555 1_555
H18 C23 1_555 1_555
C24 C11 1_555 1_555
H19 C24 1_555 1_555
C25 C13 1_555 1_555
H20 C25 1_555 1_555
N3 S1 1_555 1_555
C4 C15 1_555 1_555
N2 C9 1_555 1_555
C7 C21 1_555 1_555
C10 C14 1_555 1_555
C12 C16 1_555 1_555
C18 C24 1_555 1_555
C20 C25 1_555 1_555
C22 C23 1_555 1_555

#END
