
#######################################################################
#
#                 Cambridge Crystallographic Data Centre
#                                CCDC 
#
#######################################################################
#
# If this CIF has been generated from an entry in the Cambridge 
# Structural Database, then it will include bibliographic, chemical, 
# crystal, experimental, refinement or atomic coordinate data resulting 
# from the CCDC's data processing and validation procedures.
#
#######################################################################

data_LUPLOZ
_chemical_formula_moiety         'C26 H23 N3 O3 S1'
_chemical_name_systematic        
4-(3-(4-Methoxyphenyl)-5-(1-naphthyl)-4,5-dihydro-1H-pyrazol-1-yl)benzenesulfonamide
_chemical_properties_biological  'MMP-2 inhibitor activity'
_symmetry_cell_setting           monoclinic
_symmetry_space_group_name_H-M   'P 21/c'
_symmetry_Int_Tables_number      14
_space_group_name_Hall           '-P 2ybc'
loop_
_symmetry_equiv_pos_site_id
_symmetry_equiv_pos_as_xyz
1 x,y,z
2 -x,1/2+y,1/2-z
3 -x,-y,-z
4 x,1/2-y,1/2+z
_cell_length_a                   5.3526(4)
_cell_length_b                   24.1464(16)
_cell_length_c                   17.5540(16)
_cell_angle_alpha                90
_cell_angle_beta                 93.964(2)
_cell_angle_gamma                90
_cell_volume                     2263.36
_exptl_crystal_description       Block
_cell_formula_units_Z            4
loop_
_atom_site_label
_atom_site_type_symbol
_atom_site_fract_x
_atom_site_fract_y
_atom_site_fract_z
S1 S 0.33615(13) 0.51847(3) 0.75442(5)
O1 O 1.5522(3) 0.92808(7) 1.05016(11)
N1 N 0.8327(4) 0.76704(8) 0.84677(12)
C1 C 1.3860(5) 0.89960(11) 1.00231(15)
C2 C 1.0327(4) 0.84765(10) 0.90163(14)
O2 O 0.0894(4) 0.51679(8) 0.71924(14)
C3 C 0.6411(5) 0.84923(10) 0.80230(15)
H1 H 0.7107 0.8753 0.7674
H2 H 0.5270 0.8687 0.8336
C4 C 0.5649(5) 0.69805(10) 0.78713(14)
C5 C 0.7118(5) 0.65581(10) 0.82080(14)
H3 H 0.8590 0.6644 0.8496
C6 C 0.5095(5) 0.80088(10) 0.75895(14)
H4 H 0.3309 0.8009 0.7680
C7 C 0.3890(5) 0.83772(11) 0.62596(16)
C8 C 0.8441(4) 0.82038(10) 0.85071(14)
N2 N 0.6322(4) 0.75283(8) 0.79691(13)
C9 C 1.2145(5) 0.93067(10) 0.95813(15)
H5 H 1.2167 0.9691 0.9619
C10 C 1.2072(5) 0.81723(11) 0.94635(15)
H6 H 1.2060 0.7788 0.9425
C11 C 0.2786(5) 0.62983(11) 0.73384(16)
H7 H 0.1325 0.6211 0.7046
C12 C 0.3489(5) 0.68441(11) 0.74247(16)
H8 H 0.2521 0.7122 0.7185
C13 C 0.5418(5) 0.80200(10) 0.67393(15)
O3 O 0.3952(5) 0.48932(9) 0.82331(14)
C14 C 0.4209(5) 0.58808(10) 0.76784(15)
C15 C 1.3825(5) 0.84228(11) 0.99633(15)
H9 H 1.4972 0.8210 1.0258
C16 C 0.6393(5) 0.60145(10) 0.81145(15)
H10 H 0.7370 0.5734 0.8345
C17 C 1.7478(5) 0.89744(12) 1.09012(16)
H11 H 1.6769 0.8723 1.1251
H12 H 1.8595 0.9225 1.1179
H13 H 1.8386 0.8769 1.0542
C18 C 1.0407(5) 0.90521(10) 0.90863(15)
H14 H 0.9264 0.9267 0.8793
N3 N 0.5139(6) 0.49214(11) 0.6918(2)
C19 C 0.7235(5) 0.77093(12) 0.64326(18)
H15 H 0.8246 0.7482 0.6751
C20 C 0.4262(6) 0.83844(13) 0.54647(18)
C21 C 0.2037(5) 0.87266(12) 0.65323(18)
H16 H 0.1770 0.8728 0.7050
C22 C 0.6139(8) 0.80452(16) 0.5184(2)
H17 H 0.6364 0.8043 0.4664
C23 C 0.0633(7) 0.90620(14) 0.6048(2)
H18 H -0.0575 0.9291 0.6237
C24 C 0.7613(7) 0.77238(15) 0.5654(2)
H19 H 0.8877 0.7513 0.5461
C25 C 0.2757(9) 0.8737(2) 0.4989(2)
H20 H 0.2982 0.8746 0.4469
C26 C 0.0998(9) 0.90638(19) 0.5269(3)
H21 H 0.0021 0.9291 0.4942
H22 H 0.679(9) 0.4905(17) 0.714(2)
H23 H 0.454(10) 0.513(2) 0.646(3)
loop_
_geom_bond_atom_site_label_1
_geom_bond_atom_site_label_2
_geom_bond_site_symmetry_1
_geom_bond_site_symmetry_2
S1 O2 1_555 1_555
O1 C1 1_555 1_555
N1 C8 1_555 1_555
C1 C9 1_555 1_555
C2 C8 1_555 1_555
C3 H1 1_555 1_555
H2 C3 1_555 1_555
C4 C5 1_555 1_555
C5 H3 1_555 1_555
C6 C3 1_555 1_555
H4 C6 1_555 1_555
C7 C13 1_555 1_555
C8 C3 1_555 1_555
N2 N1 1_555 1_555
C9 H5 1_555 1_555
C10 C2 1_555 1_555
H6 C10 1_555 1_555
C11 H7 1_555 1_555
C12 C4 1_555 1_555
H8 C12 1_555 1_555
C13 C6 1_555 1_555
O3 S1 1_555 1_555
C14 S1 1_555 1_555
C15 C1 1_555 1_555
H9 C15 1_555 1_555
C16 C5 1_555 1_555
H10 C16 1_555 1_555
C17 O1 1_555 1_555
H11 C17 1_555 1_555
H12 C17 1_555 1_555
H13 C17 1_555 1_555
C18 C2 1_555 1_555
H14 C18 1_555 1_555
N3 S1 1_555 1_555
C19 C13 1_555 1_555
H15 C19 1_555 1_555
C20 C7 1_555 1_555
C21 C7 1_555 1_555
H16 C21 1_555 1_555
C22 C20 1_555 1_555
H17 C22 1_555 1_555
C23 C21 1_555 1_555
H18 C23 1_555 1_555
C24 C19 1_555 1_555
H19 C24 1_555 1_555
C25 C20 1_555 1_555
H20 C25 1_555 1_555
C26 C23 1_555 1_555
H21 C26 1_555 1_555
H22 N3 1_555 1_555
H23 N3 1_555 1_555
C4 N2 1_555 1_555
C6 N2 1_555 1_555
C9 C18 1_555 1_555
C10 C15 1_555 1_555
C11 C12 1_555 1_555
C11 C14 1_555 1_555
C14 C16 1_555 1_555
C22 C24 1_555 1_555
C25 C26 1_555 1_555

#END
