
#######################################################################
#
#                 Cambridge Crystallographic Data Centre
#                                CCDC 
#
#######################################################################
#
# If this CIF has been generated from an entry in the Cambridge 
# Structural Database, then it will include bibliographic, chemical, 
# crystal, experimental, refinement or atomic coordinate data resulting 
# from the CCDC's data processing and validation procedures.
#
#######################################################################

data_LUPMEP
_chemical_formula_moiety         'C18 H17 N3'
_chemical_name_systematic        
5-Methyl-5'-(2-(1-methyl-1H-pyrrol-2-yl)vinyl)-2,2'-bipyridine
_symmetry_cell_setting           monoclinic
_symmetry_space_group_name_H-M   'P 21/n'
_symmetry_Int_Tables_number      14
_space_group_name_Hall           '-P 2yn'
loop_
_symmetry_equiv_pos_site_id
_symmetry_equiv_pos_as_xyz
1 x,y,z
2 1/2-x,1/2+y,1/2-z
3 -x,-y,-z
4 1/2+x,1/2-y,1/2+z
_cell_length_a                   7.3834(8)
_cell_length_b                   22.903(3)
_cell_length_c                   8.4719(9)
_cell_angle_alpha                90
_cell_angle_beta                 90.116(2)
_cell_angle_gamma                90
_cell_volume                     1432.61
_exptl_crystal_description       'flat plate'
_cell_formula_units_Z            4
_exptl_crystal_recrystallization_method hexanes/dichloromethane
loop_
_atom_site_label
_atom_site_type_symbol
_atom_site_fract_x
_atom_site_fract_y
_atom_site_fract_z
C1 C 0.99372(19) 1.13827(6) 0.57931(17)
H1 H 1.0433 1.1681 0.5086
H2 H 1.0914 1.1125 0.6150
H3 H 0.9379 1.1572 0.6708
C2 C 0.85332(18) 1.10302(6) 0.49252(14)
C3 C 0.67037(18) 1.11619(6) 0.49530(15)
H4 H 0.6284 1.1489 0.5536
C4 C 0.54876(18) 1.08168(6) 0.41305(15)
H5 H 0.4229 1.0904 0.4145
C5 C 0.61365(16) 1.03401(5) 0.32801(14)
C6 C 0.90438(17) 1.05485(6) 0.40346(15)
H6 H 1.0297 1.0456 0.3993
C7 C 0.48895(16) 0.99578(5) 0.23720(14)
C8 C 0.55287(17) 0.94792(5) 0.15109(14)
H7 H 0.6784 0.9388 0.1508
C9 C 0.43228(17) 0.91414(5) 0.06658(14)
H8 H 0.4746 0.8820 0.0060
C10 C 0.24732(17) 0.92733(5) 0.07035(14)
C11 C 0.19809(17) 0.97592(6) 0.15978(15)
H9 H 0.0731 0.9857 0.1637
C12 C 0.10598(17) 0.89399(6) -0.00914(15)
H10 H -0.0145 0.9076 0.0045
C13 C 0.12602(17) 0.84653(5) -0.09884(14)
H11 H 0.2450 0.8319 -0.1149
C14 C -0.02346(18) 0.81603(5) -0.17300(15)
C15 C -0.20201(18) 0.83223(6) -0.19194(16)
H12 H -0.2549 0.8679 -0.1579
C16 C -0.29186(19) 0.78663(6) -0.27051(18)
H13 H -0.4163 0.7857 -0.2990
C17 C -0.1674(2) 0.74382(6) -0.29829(17)
H14 H -0.1907 0.7077 -0.3496
C18 C 0.1632(2) 0.72874(7) -0.2539(2)
H15 H 0.1355 0.6882 -0.2821
H16 H 0.2279 0.7296 -0.1529
H17 H 0.2390 0.7462 -0.3361
N1 N 0.79048(14) 1.02061(5) 0.32329(13)
N2 N 0.31244(14) 1.00975(5) 0.24012(13)
N3 N -0.00412(16) 0.76155(5) -0.24016(14)
loop_
_geom_bond_atom_site_label_1
_geom_bond_atom_site_label_2
_geom_bond_site_symmetry_1
_geom_bond_site_symmetry_2
C1 H1 1_555 1_555
H2 C1 1_555 1_555
H3 C1 1_555 1_555
C2 C1 1_555 1_555
C3 C2 1_555 1_555
H4 C3 1_555 1_555
C4 C3 1_555 1_555
H5 C4 1_555 1_555
C5 C4 1_555 1_555
C6 C2 1_555 1_555
H6 C6 1_555 1_555
C7 C5 1_555 1_555
C8 C7 1_555 1_555
H7 C8 1_555 1_555
C9 C8 1_555 1_555
H8 C9 1_555 1_555
C10 C9 1_555 1_555
C11 C10 1_555 1_555
H9 C11 1_555 1_555
C12 C10 1_555 1_555
H10 C12 1_555 1_555
C13 C12 1_555 1_555
H11 C13 1_555 1_555
C14 C13 1_555 1_555
C15 C14 1_555 1_555
H12 C15 1_555 1_555
C16 C15 1_555 1_555
H13 C16 1_555 1_555
C17 C16 1_555 1_555
H14 C17 1_555 1_555
C18 H15 1_555 1_555
H16 C18 1_555 1_555
H17 C18 1_555 1_555
N1 C5 1_555 1_555
N2 C7 1_555 1_555
N3 C14 1_555 1_555
C6 N1 1_555 1_555
C11 N2 1_555 1_555
C17 N3 1_555 1_555
C18 N3 1_555 1_555

#END
