
#######################################################################
#
#                 Cambridge Crystallographic Data Centre
#                                CCDC 
#
#######################################################################
#
# If this CIF has been generated from an entry in the Cambridge 
# Structural Database, then it will include bibliographic, chemical, 
# crystal, experimental, refinement or atomic coordinate data resulting 
# from the CCDC's data processing and validation procedures.
#
#######################################################################

data_LUPPAO
_chemical_formula_moiety         'C33 H30 O3'
_chemical_name_systematic        
(7,8-Dimethoxy-1,4-diphenyl-1,2,2a,3,4,5-hexahydroacenaphthylen-5-yl)(phenyl)methanone
_symmetry_cell_setting           monoclinic
_symmetry_space_group_name_H-M   'P 21/n'
_symmetry_Int_Tables_number      14
_space_group_name_Hall           '-P 2yn'
loop_
_symmetry_equiv_pos_site_id
_symmetry_equiv_pos_as_xyz
1 x,y,z
2 1/2-x,1/2+y,1/2-z
3 -x,-y,-z
4 1/2+x,1/2-y,1/2+z
_cell_length_a                   9.7649(10)
_cell_length_b                   21.734(2)
_cell_length_c                   12.0813(12)
_cell_angle_alpha                90
_cell_angle_beta                 95.058(2)
_cell_angle_gamma                90
_cell_volume                     2554.03
_exptl_crystal_colour            colorless
_exptl_crystal_description       prismatic
_cell_formula_units_Z            4
loop_
_atom_site_label
_atom_site_type_symbol
_atom_site_fract_x
_atom_site_fract_y
_atom_site_fract_z
O1 O 0.80083(12) 0.19713(6) -0.07198(10)
O2 O 0.89868(12) 0.24057(5) 0.12801(10)
O3 O 0.29504(12) 0.17029(6) 0.01466(13)
C1 C 0.42424(15) 0.08689(8) 0.09707(13)
C2 C 0.36830(17) 0.07545(8) 0.21221(14)
C3 C 0.39719(16) 0.13007(8) 0.29215(15)
H1 H 0.3547 0.1671 0.2600
H2 H 0.3583 0.1219 0.3618
C4 C 0.55153(17) 0.13936(8) 0.31298(14)
C5 C 0.60890(15) 0.14795(7) 0.20349(13)
C6 C 0.55345(15) 0.12575(7) 0.10332(13)
C7 C 0.61729(16) 0.14194(7) 0.00818(13)
H3 H 0.5818 0.1277 -0.0611
C8 C 0.73293(16) 0.17907(7) 0.01661(14)
C9 C 0.78755(16) 0.20129(7) 0.12040(14)
C10 C 0.72319(16) 0.18629(7) 0.21303(13)
C11 C 0.75281(17) 0.20674(8) 0.33215(14)
C12 C 0.61061(18) 0.19546(8) 0.37788(15)
H4 H 0.6215 0.1870 0.4570
H5 H 0.5512 0.2310 0.3648
C13 C 0.30902(16) 0.11493(8) 0.02091(14)
C14 C 0.20975(15) 0.07346(8) -0.04333(13)
C15 C 0.11397(18) 0.09996(10) -0.12152(15)
H6 H 0.1116 0.1424 -0.1311
C16 C 0.0224(2) 0.06279(12) -0.18492(17)
H7 H -0.0408 0.0801 -0.2380
C17 C 0.0254(2) 0.00021(12) -0.16913(18)
H8 H -0.0367 -0.0246 -0.2115
C18 C 0.11702(19) -0.02594(9) -0.09302(17)
H9 H 0.1178 -0.0684 -0.0833
C19 C 0.20886(17) 0.01020(8) -0.03019(14)
H10 H 0.2716 -0.0081 0.0222
C20 C 0.41585(16) 0.01517(7) 0.26628(13)
C21 C 0.33884(18) -0.01231(9) 0.34358(14)
H11 H 0.2578 0.0064 0.3608
C22 C 0.3787(2) -0.06634(10) 0.39535(16)
H12 H 0.3246 -0.0836 0.4469
C23 C 0.4976(2) -0.09509(9) 0.37170(16)
H13 H 0.5246 -0.1318 0.4066
C24 C 0.5755(2) -0.06888(9) 0.29610(16)
H14 H 0.6564 -0.0880 0.2794
C25 C 0.53589(17) -0.01435(8) 0.24402(14)
H15 H 0.5909 0.0028 0.1931
C26 C 0.86765(17) 0.17073(7) 0.39556(13)
C27 C 0.9523(2) 0.19793(9) 0.47863(17)
H16 H 0.9400 0.2393 0.4949
C28 C 1.0546(3) 0.16551(11) 0.5381(2)
H17 H 1.1098 0.1850 0.5941
C29 C 1.0759(2) 0.10509(10) 0.51587(17)
H18 H 1.1464 0.0834 0.5553
C30 C 0.99210(19) 0.07684(9) 0.43461(15)
H19 H 1.0039 0.0353 0.4200
C31 C 0.89071(18) 0.10946(8) 0.37454(14)
H20 H 0.8362 0.0897 0.3183
C32 C 0.7405(2) 0.18336(12) -0.17822(16)
H21 H 0.7342 0.1395 -0.1871
H22 H 0.7958 0.2001 -0.2328
H23 H 0.6501 0.2010 -0.1878
C33 C 1.02598(18) 0.21017(10) 0.12649(18)
H24 H 1.0411 0.1846 0.1912
H25 H 1.0984 0.2401 0.1263
H26 H 1.0252 0.1852 0.0610
H27 H 0.4436(15) 0.0467(6) 0.0626(12)
H28 H 0.2680(16) 0.0733(6) 0.2002(11)
H29 H 0.5920(14) 0.1028(7) 0.3494(11)
H30 H 0.7762(14) 0.2493(7) 0.3362(11)
loop_
_geom_bond_atom_site_label_1
_geom_bond_atom_site_label_2
_geom_bond_site_symmetry_1
_geom_bond_site_symmetry_2
O1 C8 1_555 1_555
O2 C9 1_555 1_555
O3 C13 1_555 1_555
C1 C2 1_555 1_555
C2 C3 1_555 1_555
C3 H1 1_555 1_555
H2 C3 1_555 1_555
C4 C3 1_555 1_555
C5 C4 1_555 1_555
C6 C1 1_555 1_555
C7 C6 1_555 1_555
H3 C7 1_555 1_555
C8 C7 1_555 1_555
C9 C8 1_555 1_555
C10 C5 1_555 1_555
C11 C10 1_555 1_555
C12 C4 1_555 1_555
H4 C12 1_555 1_555
H5 C12 1_555 1_555
C13 C1 1_555 1_555
C14 C13 1_555 1_555
C15 C14 1_555 1_555
H6 C15 1_555 1_555
C16 C15 1_555 1_555
H7 C16 1_555 1_555
C17 C16 1_555 1_555
H8 C17 1_555 1_555
C18 C17 1_555 1_555
H9 C18 1_555 1_555
C19 C14 1_555 1_555
H10 C19 1_555 1_555
C20 C2 1_555 1_555
C21 C20 1_555 1_555
H11 C21 1_555 1_555
C22 C21 1_555 1_555
H12 C22 1_555 1_555
C23 C22 1_555 1_555
H13 C23 1_555 1_555
C24 C23 1_555 1_555
H14 C24 1_555 1_555
C25 C20 1_555 1_555
H15 C25 1_555 1_555
C26 C11 1_555 1_555
C27 C26 1_555 1_555
H16 C27 1_555 1_555
C28 C27 1_555 1_555
H17 C28 1_555 1_555
C29 C28 1_555 1_555
H18 C29 1_555 1_555
C30 C29 1_555 1_555
H19 C30 1_555 1_555
C31 C26 1_555 1_555
H20 C31 1_555 1_555
C32 O1 1_555 1_555
H21 C32 1_555 1_555
H22 C32 1_555 1_555
H23 C32 1_555 1_555
C33 O2 1_555 1_555
H24 C33 1_555 1_555
H25 C33 1_555 1_555
H26 C33 1_555 1_555
H27 C1 1_555 1_555
H28 C2 1_555 1_555
H29 C4 1_555 1_555
H30 C11 1_555 1_555
C5 C6 1_555 1_555
C9 C10 1_555 1_555
C11 C12 1_555 1_555
C18 C19 1_555 1_555
C24 C25 1_555 1_555
C30 C31 1_555 1_555

#END
