
#######################################################################
#
#                 Cambridge Crystallographic Data Centre
#                                CCDC 
#
#######################################################################
#
# If this CIF has been generated from an entry in the Cambridge 
# Structural Database, then it will include bibliographic, chemical, 
# crystal, experimental, refinement or atomic coordinate data resulting 
# from the CCDC's data processing and validation procedures.
#
#######################################################################

data_LUPPES
_chemical_formula_moiety         'C27 H26 O4'
_chemical_name_systematic        
(12-Hydroxy-4,5-dimethoxy-15-methyltetracyclo[7.7.1.0^2,7^.0^11,16^]heptadeca-2,4,6,11,13,15-hexaen-8-yl)(phenyl)methanone
_symmetry_cell_setting           monoclinic
_symmetry_space_group_name_H-M   'P 21/c'
_symmetry_Int_Tables_number      14
_space_group_name_Hall           '-P 2ybc'
loop_
_symmetry_equiv_pos_site_id
_symmetry_equiv_pos_as_xyz
1 x,y,z
2 -x,1/2+y,1/2-z
3 -x,-y,-z
4 x,1/2-y,1/2+z
_cell_length_a                   14.2746(13)
_cell_length_b                   15.1428(15)
_cell_length_c                   10.7242(10)
_cell_angle_alpha                90
_cell_angle_beta                 111.083(2)
_cell_angle_gamma                90
_cell_volume                     2162.94
_exptl_crystal_colour            colorless
_exptl_crystal_description       prismatic
_cell_formula_units_Z            4
loop_
_atom_site_label
_atom_site_type_symbol
_atom_site_fract_x
_atom_site_fract_y
_atom_site_fract_z
O1 O 0.33990(14) 0.46028(13) 0.73607(17)
H1 H 0.3116 0.4857 0.7801
O2 O 0.31908(13) 0.53945(11) -0.03845(14)
O3 O 0.14761(15) 0.44509(14) -0.09384(16)
O4 O 0.55185(13) 0.30111(12) 0.25357(17)
C1 C 0.2692(2) 0.42219(17) 0.6254(2)
C2 C 0.1682(2) 0.4292(2) 0.5963(3)
H2 H 0.1439 0.4622 0.6512
C3 C 0.1025(2) 0.3874(2) 0.4854(3)
H3 H 0.0339 0.3918 0.4673
C4 C 0.1363(2) 0.33861(18) 0.3996(3)
C5 C 0.23983(18) 0.33408(15) 0.4276(2)
C6 C 0.30624(18) 0.37430(15) 0.5415(2)
C7 C 0.41747(18) 0.36518(16) 0.5850(2)
H4 H 0.4413 0.3342 0.6699
H5 H 0.4467 0.4238 0.6004
C8 C 0.45695(17) 0.31662(15) 0.4881(2)
H6 H 0.5207 0.2885 0.5409
C9 C 0.38382(17) 0.24462(15) 0.4160(2)
H7 H 0.3752 0.2035 0.4804
H8 H 0.4098 0.2123 0.3574
C10 C 0.28375(17) 0.28608(15) 0.3351(2)
H9 H 0.2372 0.2395 0.2868
C11 C 0.29705(17) 0.35106(15) 0.2343(2)
C12 C 0.38666(17) 0.39648(14) 0.2618(2)
C13 C 0.47666(16) 0.37960(14) 0.3865(2)
H10 H 0.4981 0.4365 0.4312
C14 C 0.39474(17) 0.46012(15) 0.1716(2)
H11 H 0.4548 0.4907 0.1907
C15 C 0.31571(18) 0.47848(15) 0.0550(2)
C16 C 0.22693(18) 0.43183(17) 0.0260(2)
C17 C 0.21834(18) 0.36911(16) 0.1138(2)
H12 H 0.1586 0.3377 0.0926
C18 C 0.56467(18) 0.34176(15) 0.3554(2)
C19 C 0.66898(18) 0.35244(16) 0.4558(2)
C20 C 0.6915(2) 0.40373(19) 0.5706(3)
H13 H 0.6399 0.4322 0.5883
C21 C 0.7889(2) 0.4130(2) 0.6583(3)
H14 H 0.8028 0.4480 0.7341
C22 C 0.8649(3) 0.3706(3) 0.6341(4)
H15 H 0.9307 0.3769 0.6932
C23 C 0.8445(3) 0.3188(3) 0.5225(4)
H16 H 0.8964 0.2896 0.5067
C24 C 0.7467(2) 0.3099(2) 0.4333(3)
H17 H 0.7335 0.2749 0.3576
C25 C 0.0608(2) 0.2899(2) 0.2843(3)
H18 H 0.0542 0.3190 0.2021
H19 H -0.0031 0.2894 0.2954
H20 H 0.0831 0.2303 0.2822
C26 C 0.3966(2) 0.60335(19) 0.0014(3)
H21 H 0.3943 0.6347 0.0781
H22 H 0.3876 0.6441 -0.0705
H23 H 0.4605 0.5745 0.0238
C27 C 0.0946(3) 0.5233(3) -0.1038(3)
H24 H 0.0767 0.5302 -0.0262
H25 H 0.0348 0.5216 -0.1824
H26 H 0.1357 0.5721 -0.1098
loop_
_geom_bond_atom_site_label_1
_geom_bond_atom_site_label_2
_geom_bond_site_symmetry_1
_geom_bond_site_symmetry_2
O1 H1 1_555 1_555
O2 C15 1_555 1_555
O3 C16 1_555 1_555
O4 C18 1_555 1_555
C1 O1 1_555 1_555
C2 C1 1_555 1_555
H2 C2 1_555 1_555
C3 C2 1_555 1_555
H3 C3 1_555 1_555
C4 C3 1_555 1_555
C5 C4 1_555 1_555
C6 C1 1_555 1_555
C7 C6 1_555 1_555
H4 C7 1_555 1_555
H5 C7 1_555 1_555
C8 C7 1_555 1_555
H6 C8 1_555 1_555
C9 C8 1_555 1_555
H7 C9 1_555 1_555
H8 C9 1_555 1_555
C10 C5 1_555 1_555
H9 C10 1_555 1_555
C11 C10 1_555 1_555
C12 C11 1_555 1_555
C13 C8 1_555 1_555
H10 C13 1_555 1_555
C14 C12 1_555 1_555
H11 C14 1_555 1_555
C15 C14 1_555 1_555
C16 C15 1_555 1_555
C17 C11 1_555 1_555
H12 C17 1_555 1_555
C18 C13 1_555 1_555
C19 C18 1_555 1_555
C20 C19 1_555 1_555
H13 C20 1_555 1_555
C21 C20 1_555 1_555
H14 C21 1_555 1_555
C22 C21 1_555 1_555
H15 C22 1_555 1_555
C23 C22 1_555 1_555
H16 C23 1_555 1_555
C24 C19 1_555 1_555
H17 C24 1_555 1_555
C25 C4 1_555 1_555
H18 C25 1_555 1_555
H19 C25 1_555 1_555
H20 C25 1_555 1_555
C26 O2 1_555 1_555
H21 C26 1_555 1_555
H22 C26 1_555 1_555
H23 C26 1_555 1_555
C27 O3 1_555 1_555
H24 C27 1_555 1_555
H25 C27 1_555 1_555
H26 C27 1_555 1_555
C5 C6 1_555 1_555
C9 C10 1_555 1_555
C12 C13 1_555 1_555
C16 C17 1_555 1_555
C23 C24 1_555 1_555

#END
