
#######################################################################
#
#                 Cambridge Crystallographic Data Centre
#                                CCDC 
#
#######################################################################
#
# If this CIF has been generated from an entry in the Cambridge 
# Structural Database, then it will include bibliographic, chemical, 
# crystal, experimental, refinement or atomic coordinate data resulting 
# from the CCDC's data processing and validation procedures.
#
#######################################################################

data_LUPXUQ
_chemical_formula_moiety         'C41 H30'
_chemical_name_systematic        
9-(4-(1,1-Dimethyl-1H-inden-3-yl)phenyl)-10-(1-naphthyl)anthracene
_symmetry_cell_setting           monoclinic
_symmetry_space_group_name_H-M   'C 2/c'
_symmetry_Int_Tables_number      15
_space_group_name_Hall           '-C 2yn'
loop_
_symmetry_equiv_pos_site_id
_symmetry_equiv_pos_as_xyz
1 x,y,z
2 -x,y,1/2-z
3 1/2+x,1/2+y,z
4 1/2-x,1/2+y,1/2-z
5 -x,-y,-z
6 x,-y,1/2+z
7 1/2-x,1/2-y,-z
8 1/2+x,1/2-y,1/2+z
_cell_length_a                   40.541(6)
_cell_length_b                   7.3556(11)
_cell_length_c                   23.412(3)
_cell_angle_alpha                90
_cell_angle_beta                 123.363(2)
_cell_angle_gamma                90
_cell_volume                     5831
_exptl_crystal_colour            yellow
_exptl_crystal_description       block
_cell_formula_units_Z            8
loop_
_atom_site_label
_atom_site_type_symbol
_atom_site_fract_x
_atom_site_fract_y
_atom_site_fract_z
C1 C -0.01508(7) -0.3815(3) 0.33583(12)
C2 C -0.04180(8) -0.3672(4) 0.26829(13)
H1 H -0.0416 -0.2740 0.2416
C3 C -0.07198(8) -0.5159(4) 0.24006(13)
C4 C -0.05920(7) -0.6211(4) 0.30388(13)
C5 C -0.02566(7) -0.5417(3) 0.36033(12)
C6 C -0.00958(8) -0.6132(4) 0.42511(14)
H2 H 0.0126 -0.5608 0.4628
C7 C -0.02722(10) -0.7646(4) 0.43271(16)
H3 H -0.0168 -0.8139 0.4760
C8 C -0.06015(10) -0.8430(4) 0.37674(19)
H4 H -0.0714 -0.9452 0.3828
C9 C -0.07651(9) -0.7722(4) 0.31232(16)
H5 H -0.0989 -0.8249 0.2749
C10 C -0.11416(9) -0.4425(5) 0.20548(17)
H6 H -0.1162 -0.3699 0.2375
H7 H -0.1324 -0.5423 0.1905
H8 H -0.1204 -0.3693 0.1668
C11 C -0.06745(12) -0.6319(6) 0.19058(16)
H9 H -0.0408 -0.6763 0.2135
H10 H -0.0733 -0.5595 0.1520
H11 H -0.0854 -0.7329 0.1753
C12 C 0.01845(7) -0.2578(3) 0.37653(12)
C13 C 0.05558(7) -0.3163(4) 0.42942(12)
H12 H 0.0592 -0.4380 0.4422
C14 C 0.08722(7) -0.1980(4) 0.46350(13)
H13 H 0.1118 -0.2414 0.4982
C15 C 0.08255(7) -0.0153(3) 0.44623(12)
C16 C 0.04522(7) 0.0447(4) 0.39507(13)
H14 H 0.0412 0.1675 0.3838
C17 C 0.01424(7) -0.0736(4) 0.36099(13)
H15 H -0.0103 -0.0295 0.3265
C18 C 0.11579(6) 0.1175(3) 0.48046(11)
C19 C 0.14234(6) 0.1332(3) 0.45996(11)
C20 C 0.13959(7) 0.0193(4) 0.40834(12)
H16 H 0.1202 -0.0702 0.3887
C21 C 0.16443(8) 0.0382(4) 0.38724(13)
H17 H 0.1620 -0.0384 0.3535
C22 C 0.19382(8) 0.1724(4) 0.41575(14)
H18 H 0.2107 0.1848 0.4007
C23 C 0.19779(7) 0.2840(4) 0.46525(13)
H19 H 0.2175 0.3722 0.4838
C24 C 0.17248(6) 0.2691(3) 0.48958(11)
C25 C 0.17608(6) 0.3860(3) 0.53997(11)
C26 C 0.14949(6) 0.3703(3) 0.56082(11)
C27 C 0.15119(7) 0.4880(4) 0.61052(12)
H20 H 0.1706 0.5773 0.6304
C28 C 0.12547(8) 0.4740(4) 0.62979(14)
H21 H 0.1273 0.5532 0.6624
C29 C 0.09594(8) 0.3401(4) 0.60077(13)
H22 H 0.0784 0.3303 0.6145
C30 C 0.09289(7) 0.2255(4) 0.55306(12)
H23 H 0.0731 0.1377 0.5343
C31 C 0.11919(6) 0.2357(3) 0.53071(11)
C32 C 0.20783(7) 0.5273(3) 0.57273(12)
C33 C 0.20488(9) 0.6845(4) 0.54011(16)
H24 H 0.1830 0.7027 0.4960
C34 C 0.23360(11) 0.8199(4) 0.5705(2)
H25 H 0.2306 0.9264 0.5467
C35 C 0.26598(11) 0.7967(5) 0.6348(2)
H26 H 0.2848 0.8885 0.6550
C36 C 0.27139(8) 0.6343(5) 0.67160(15)
C37 C 0.24189(7) 0.4978(4) 0.63975(13)
C38 C 0.24777(8) 0.3331(5) 0.67656(14)
H27 H 0.2290 0.2409 0.6565
C39 C 0.28017(10) 0.3101(6) 0.73998(17)
H28 H 0.2836 0.2019 0.7632
C40 C 0.30850(12) 0.4454(8) 0.7711(2)
H29 H 0.3305 0.4271 0.8152
C41 C 0.30472(9) 0.6012(7) 0.73910(19)
H30 H 0.3241 0.6899 0.7611
loop_
_geom_bond_atom_site_label_1
_geom_bond_atom_site_label_2
_geom_bond_site_symmetry_1
_geom_bond_site_symmetry_2
C1 C2 1_555 1_555
C2 H1 1_555 1_555
C3 C2 1_555 1_555
C4 C3 1_555 1_555
C5 C1 1_555 1_555
C6 C5 1_555 1_555
H2 C6 1_555 1_555
C7 C6 1_555 1_555
H3 C7 1_555 1_555
C8 C7 1_555 1_555
H4 C8 1_555 1_555
C9 C4 1_555 1_555
H5 C9 1_555 1_555
C10 C3 1_555 1_555
H6 C10 1_555 1_555
H7 C10 1_555 1_555
H8 C10 1_555 1_555
C11 C3 1_555 1_555
H9 C11 1_555 1_555
H10 C11 1_555 1_555
H11 C11 1_555 1_555
C12 C1 1_555 1_555
C13 C12 1_555 1_555
H12 C13 1_555 1_555
C14 C13 1_555 1_555
H13 C14 1_555 1_555
C15 C14 1_555 1_555
C16 C15 1_555 1_555
H14 C16 1_555 1_555
C17 C12 1_555 1_555
H15 C17 1_555 1_555
C18 C15 1_555 1_555
C19 C18 1_555 1_555
C20 C19 1_555 1_555
H16 C20 1_555 1_555
C21 C20 1_555 1_555
H17 C21 1_555 1_555
C22 C21 1_555 1_555
H18 C22 1_555 1_555
C23 C22 1_555 1_555
H19 C23 1_555 1_555
C24 C19 1_555 1_555
C25 C24 1_555 1_555
C26 C25 1_555 1_555
C27 C26 1_555 1_555
H20 C27 1_555 1_555
C28 C27 1_555 1_555
H21 C28 1_555 1_555
C29 C28 1_555 1_555
H22 C29 1_555 1_555
C30 C29 1_555 1_555
H23 C30 1_555 1_555
C31 C18 1_555 1_555
C32 C25 1_555 1_555
C33 C32 1_555 1_555
H24 C33 1_555 1_555
C34 C33 1_555 1_555
H25 C34 1_555 1_555
C35 C34 1_555 1_555
H26 C35 1_555 1_555
C36 C35 1_555 1_555
C37 C32 1_555 1_555
C38 C37 1_555 1_555
H27 C38 1_555 1_555
C39 C38 1_555 1_555
H28 C39 1_555 1_555
C40 C39 1_555 1_555
H29 C40 1_555 1_555
C41 C36 1_555 1_555
H30 C41 1_555 1_555
C4 C5 1_555 1_555
C8 C9 1_555 1_555
C16 C17 1_555 1_555
C23 C24 1_555 1_555
C26 C31 1_555 1_555
C30 C31 1_555 1_555
C36 C37 1_555 1_555
C40 C41 1_555 1_555

#END
