
#######################################################################
#
#                 Cambridge Crystallographic Data Centre
#                                CCDC 
#
#######################################################################
#
# If this CIF has been generated from an entry in the Cambridge 
# Structural Database, then it will include bibliographic, chemical, 
# crystal, experimental, refinement or atomic coordinate data resulting 
# from the CCDC's data processing and validation procedures.
#
#######################################################################

data_LUPXOL
_chemical_formula_moiety         'C30 H56 B11 N3'
_chemical_name_systematic        
'1,2-(1-(((4,5-dimethyl-1,3-di-isopropyl-1,3-dihydro-2H-imidazol-2-ylidene)boranyl)(2,6-diisopropylphenyl)iminio)-2,2-dimethylpropyl)-1,2-dicarba-closo-dodecaborane(10) unknown solvate'
_symmetry_cell_setting           monoclinic
_symmetry_space_group_name_H-M   'P 21/c'
_symmetry_Int_Tables_number      14
_space_group_name_Hall           '-P 2ybc'
loop_
_symmetry_equiv_pos_site_id
_symmetry_equiv_pos_as_xyz
1 x,y,z
2 -x,1/2+y,1/2-z
3 -x,-y,-z
4 x,1/2-y,1/2+z
_cell_length_a                   9.9902(13)
_cell_length_b                   23.386(3)
_cell_length_c                   18.285(2)
_cell_angle_alpha                90
_cell_angle_beta                 96.636(2)
_cell_angle_gamma                90
_cell_volume                     4243.32
_exptl_crystal_colour            purple
_exptl_crystal_description       block
_cell_formula_units_Z            4
loop_
_atom_site_label
_atom_site_type_symbol
_atom_site_fract_x
_atom_site_fract_y
_atom_site_fract_z
N1 N -0.1791(2) 0.65036(11) 0.74260(13)
N2 N -0.2084(2) 0.69970(11) 0.64218(13)
N3 N 0.1223(2) 0.72898(10) 0.75559(12)
B1 B 0.0067(4) 0.81985(18) 0.84634(19)
H1 H 0.0196 0.7875 0.8903
B2 B 0.1136(4) 0.87819(16) 0.8464(2)
H2 H 0.1978 0.8844 0.8900
B3 B 0.1250(5) 0.89770(17) 0.7525(2)
H3 H 0.2175 0.9162 0.7351
B4 B 0.0224(4) 0.85205(16) 0.6934(2)
H4 H 0.0456 0.8410 0.6378
B5 B -0.1526(4) 0.83834(17) 0.8052(2)
H5 H -0.2431 0.8174 0.8217
B6 B -0.0557(4) 0.88682(17) 0.8623(2)
H6 H -0.0835 0.8994 0.9165
B7 B 0.0190(5) 0.93564(19) 0.8059(2)
H7 H 0.0420 0.9799 0.8234
B8 B -0.0382(4) 0.91871(18) 0.7129(2)
H8 H -0.0533 0.9520 0.6703
B9 B -0.1423(4) 0.85954(16) 0.7128(2)
H9 H -0.2271 0.8528 0.6696
B10 B -0.1496(5) 0.91099(18) 0.7804(2)
H10 H -0.2384 0.9387 0.7814
B11 B -0.0180(3) 0.74025(15) 0.73858(17)
C1 C 0.1159(3) 0.82650(13) 0.77878(15)
C2 C -0.0409(3) 0.80428(13) 0.75346(15)
C3 C 0.2058(3) 0.77720(14) 0.77497(16)
C4 C 0.3471(3) 0.78498(15) 0.75072(19)
C5 C 0.4240(3) 0.82988(18) 0.8025(2)
H11 H 0.4290 0.8169 0.8525
H12 H 0.3771 0.8657 0.7977
H13 H 0.5135 0.8347 0.7891
C6 C 0.3395(4) 0.80621(19) 0.6701(2)
H14 H 0.2926 0.7785 0.6379
H15 H 0.4291 0.8113 0.6570
H16 H 0.2922 0.8420 0.6654
C7 C 0.4349(3) 0.73141(17) 0.7547(2)
H17 H 0.3914 0.7024 0.7233
H18 H 0.4477 0.7177 0.8045
H19 H 0.5208 0.7405 0.7389
C8 C 0.1797(3) 0.67147(13) 0.76835(16)
C9 C 0.2305(3) 0.65533(14) 0.84087(17)
C10 C 0.2881(3) 0.60266(17) 0.8509(2)
H20 H 0.3244 0.5919 0.8980
C11 C 0.2947(4) 0.56476(16) 0.7938(2)
H21 H 0.3333 0.5288 0.8022
C12 C 0.2437(3) 0.58099(16) 0.7253(2)
H22 H 0.2493 0.5556 0.6867
C13 C 0.1840(3) 0.63302(14) 0.70999(17)
C14 C 0.1299(3) 0.64601(14) 0.63048(16)
H23 H 0.0839 0.6831 0.6294
C15 C 0.2419(4) 0.64975(18) 0.58008(19)
H24 H 0.3053 0.6788 0.5980
H25 H 0.2035 0.6592 0.5310
H26 H 0.2873 0.6136 0.5796
C16 C 0.0273(4) 0.60098(16) 0.60079(18)
H27 H -0.0442 0.5994 0.6315
H28 H 0.0706 0.5643 0.6006
H29 H -0.0089 0.6109 0.5515
C17 C 0.2266(4) 0.69293(17) 0.90920(17)
H30 H 0.1862 0.7296 0.8930
C18 C 0.3656(4) 0.7050(2) 0.9490(2)
H31 H 0.3575 0.7294 0.9904
H32 H 0.4198 0.7236 0.9159
H33 H 0.4075 0.6697 0.9657
C19 C 0.1406(4) 0.6669(2) 0.9637(2)
H34 H 0.0514 0.6600 0.9397
H35 H 0.1359 0.6928 1.0041
H36 H 0.1799 0.6315 0.9819
C20 C -0.1325(3) 0.69644(13) 0.70869(15)
C21 C -0.2823(3) 0.62446(15) 0.69735(19)
C22 C -0.3000(3) 0.65463(16) 0.63486(18)
C23 C -0.1324(3) 0.63559(14) 0.82084(17)
H37 H -0.0563 0.6609 0.8363
C24 C -0.0787(4) 0.57513(15) 0.8290(2)
H38 H -0.0097 0.5698 0.7971
H39 H -0.1507 0.5486 0.8158
H40 H -0.0416 0.5687 0.8791
C25 C -0.2410(4) 0.64980(17) 0.86967(18)
H41 H -0.2692 0.6888 0.8616
H42 H -0.2057 0.6448 0.9204
H43 H -0.3167 0.6248 0.8579
C26 C -0.3560(4) 0.57112(18) 0.7168(2)
H44 H -0.4237 0.5616 0.6770
H45 H -0.3981 0.5778 0.7606
H46 H -0.2932 0.5401 0.7250
C27 C -0.3948(4) 0.64214(18) 0.5667(2)
H47 H -0.4473 0.6088 0.5747
H48 H -0.3439 0.6355 0.5261
H49 H -0.4538 0.6742 0.5557
C28 C -0.1933(3) 0.74450(14) 0.58650(17)
H50 H -0.1291 0.7724 0.6103
C29 C -0.1344(4) 0.72379(17) 0.51897(17)
H51 H -0.0506 0.7046 0.5335
H52 H -0.1188 0.7558 0.4883
H53 H -0.1962 0.6978 0.4921
C30 C -0.3249(3) 0.77687(17) 0.5662(2)
H54 H -0.3583 0.7905 0.6102
H55 H -0.3902 0.7518 0.5404
H56 H -0.3092 0.8087 0.5352
loop_
_geom_bond_atom_site_label_1
_geom_bond_atom_site_label_2
_geom_bond_site_symmetry_1
_geom_bond_site_symmetry_2
N1 C20 1_555 1_555
N2 C20 1_555 1_555
N3 B11 1_555 1_555
B1 H1 1_555 1_555
B2 B1 1_555 1_555
H2 B2 1_555 1_555
B3 B2 1_555 1_555
H3 B3 1_555 1_555
B4 B3 1_555 1_555
H4 B4 1_555 1_555
B5 B1 1_555 1_555
H5 B5 1_555 1_555
B6 B1 1_555 1_555
H6 B6 1_555 1_555
B7 B2 1_555 1_555
H7 B7 1_555 1_555
B8 B3 1_555 1_555
H8 B8 1_555 1_555
B9 B4 1_555 1_555
H9 B9 1_555 1_555
B10 B5 1_555 1_555
H10 B10 1_555 1_555
B11 C2 1_555 1_555
C1 B1 1_555 1_555
C2 B1 1_555 1_555
C3 N3 1_555 1_555
C4 C3 1_555 1_555
C5 C4 1_555 1_555
H11 C5 1_555 1_555
H12 C5 1_555 1_555
H13 C5 1_555 1_555
C6 C4 1_555 1_555
H14 C6 1_555 1_555
H15 C6 1_555 1_555
H16 C6 1_555 1_555
C7 C4 1_555 1_555
H17 C7 1_555 1_555
H18 C7 1_555 1_555
H19 C7 1_555 1_555
C8 N3 1_555 1_555
C9 C8 1_555 1_555
C10 C9 1_555 1_555
H20 C10 1_555 1_555
C11 C10 1_555 1_555
H21 C11 1_555 1_555
C12 C11 1_555 1_555
H22 C12 1_555 1_555
C13 C8 1_555 1_555
C14 C13 1_555 1_555
H23 C14 1_555 1_555
C15 C14 1_555 1_555
H24 C15 1_555 1_555
H25 C15 1_555 1_555
H26 C15 1_555 1_555
C16 C14 1_555 1_555
H27 C16 1_555 1_555
H28 C16 1_555 1_555
H29 C16 1_555 1_555
C17 C9 1_555 1_555
H30 C17 1_555 1_555
C18 C17 1_555 1_555
H31 C18 1_555 1_555
H32 C18 1_555 1_555
H33 C18 1_555 1_555
C19 C17 1_555 1_555
H34 C19 1_555 1_555
H35 C19 1_555 1_555
H36 C19 1_555 1_555
C20 B11 1_555 1_555
C21 N1 1_555 1_555
C22 N2 1_555 1_555
C23 N1 1_555 1_555
H37 C23 1_555 1_555
C24 C23 1_555 1_555
H38 C24 1_555 1_555
H39 C24 1_555 1_555
H40 C24 1_555 1_555
C25 C23 1_555 1_555
H41 C25 1_555 1_555
H42 C25 1_555 1_555
H43 C25 1_555 1_555
C26 C21 1_555 1_555
H44 C26 1_555 1_555
H45 C26 1_555 1_555
H46 C26 1_555 1_555
C27 C22 1_555 1_555
H47 C27 1_555 1_555
H48 C27 1_555 1_555
H49 C27 1_555 1_555
C28 N2 1_555 1_555
H50 C28 1_555 1_555
C29 C28 1_555 1_555
H51 C29 1_555 1_555
H52 C29 1_555 1_555
H53 C29 1_555 1_555
C30 C28 1_555 1_555
H54 C30 1_555 1_555
H55 C30 1_555 1_555
H56 C30 1_555 1_555
B2 B6 1_555 1_555
B2 C1 1_555 1_555
B3 B7 1_555 1_555
B3 C1 1_555 1_555
B4 B8 1_555 1_555
B4 C1 1_555 1_555
B4 C2 1_555 1_555
B5 B6 1_555 1_555
B5 B9 1_555 1_555
B5 C2 1_555 1_555
B6 B7 1_555 1_555
B6 B10 1_555 1_555
B7 B8 1_555 1_555
B7 B10 1_555 1_555
B8 B9 1_555 1_555
B8 B10 1_555 1_555
B9 B10 1_555 1_555
B9 C2 1_555 1_555
C1 C2 1_555 1_555
C1 C3 1_555 1_555
C12 C13 1_555 1_555
C21 C22 1_555 1_555

#END
