
#######################################################################
#
#                 Cambridge Crystallographic Data Centre
#                                CCDC 
#
#######################################################################
#
# If this CIF has been generated from an entry in the Cambridge 
# Structural Database, then it will include bibliographic, chemical, 
# crystal, experimental, refinement or atomic coordinate data resulting 
# from the CCDC's data processing and validation procedures.
#
#######################################################################

data_LUPYAW
_chemical_formula_moiety         'C36 H28 O4 P2,C1 H4 O1'
_chemical_name_systematic        
"(R)-(6,6'-Dihydroxybiphenyl-2,2'-diyl)-bis(diphenylphosphine oxide) methanol solvate"
_symmetry_cell_setting           orthorhombic
_symmetry_space_group_name_H-M   'P 21 21 21'
_symmetry_Int_Tables_number      19
_space_group_name_Hall           'P 2ac 2ab'
loop_
_symmetry_equiv_pos_site_id
_symmetry_equiv_pos_as_xyz
1 x,y,z
2 1/2-x,-y,1/2+z
3 -x,1/2+y,1/2-z
4 1/2+x,1/2-y,-z
_cell_length_a                   9.9351(16)
_cell_length_b                   11.1490(17)
_cell_length_c                   27.977(4)
_cell_angle_alpha                90
_cell_angle_beta                 90
_cell_angle_gamma                90
_cell_volume                     3098.91
_exptl_crystal_colour            colorless
_exptl_crystal_description       plate
_cell_formula_units_Z            4
loop_
_atom_site_label
_atom_site_type_symbol
_atom_site_fract_x
_atom_site_fract_y
_atom_site_fract_z
P1 P 0.28454(7) 0.93328(7) 0.80954(2)
P2 P 0.52558(8) 1.07782(8) 0.95518(2)
O1 O 0.24160(19) 1.27489(17) 0.93534(6)
H1 H 0.1957 1.2943 0.9584
O2 O 0.30313(19) 1.25192(18) 0.79898(6)
H2 H 0.3157 1.3067 0.7799
O3 O 0.41916(19) 0.97721(16) 0.79465(6)
O4 O 0.5903(2) 1.15499(18) 0.99192(6)
C1 C 0.1984(3) 1.0284(2) 0.85186(8)
C2 C 0.0626(3) 1.0025(2) 0.85959(9)
H3 H 0.0209 0.9433 0.8415
C3 C -0.0106(3) 1.0634(3) 0.89371(8)
H4 H -0.1004 1.0439 0.8988
C4 C 0.0488(3) 1.1532(3) 0.92028(9)
H5 H -0.0001 1.1931 0.9437
C5 C 0.1807(3) 1.1831(2) 0.91184(9)
C6 C 0.2595(2) 1.1215(2) 0.87798(8)
C7 C 0.3981(3) 1.1681(2) 0.86871(9)
C8 C 0.4137(3) 1.2389(2) 0.82709(9)
C9 C 0.5337(3) 1.2933(2) 0.81631(9)
H6 H 0.5414 1.3395 0.7888
C10 C 0.6433(3) 1.2796(3) 0.84625(10)
H7 H 0.7249 1.3160 0.8389
C11 C 0.6305(3) 1.2118(2) 0.88690(9)
H8 H 0.7046 1.2021 0.9068
C12 C 0.5089(3) 1.1568(2) 0.89915(8)
C13 C 0.1708(3) 0.9193(3) 0.75935(8)
C14 C 0.1599(3) 1.0161(3) 0.72887(10)
H9 H 0.2087 1.0857 0.7350
C15 C 0.0765(4) 1.0103(3) 0.68903(11)
H10 H 0.0688 1.0761 0.6688
C16 C 0.0056(3) 0.9076(3) 0.67959(10)
H11 H -0.0494 0.9034 0.6527
C17 C 0.0155(3) 0.8117(3) 0.70946(10)
H12 H -0.0333 0.7423 0.7030
C18 C 0.0985(3) 0.8169(3) 0.74974(10)
H13 H 0.1049 0.7511 0.7700
C19 C 0.2971(3) 0.7846(2) 0.83587(9)
C20 C 0.2041(3) 0.7330(3) 0.86620(10)
H14 H 0.1272 0.7759 0.8744
C21 C 0.2220(4) 0.6202(3) 0.88450(11)
H15 H 0.1583 0.5880 0.9052
C22 C 0.3334(4) 0.5547(3) 0.87240(13)
H16 H 0.3446 0.4775 0.8843
C23 C 0.4277(4) 0.6030(3) 0.84282(14)
H17 H 0.5044 0.5593 0.8350
C24 C 0.4098(3) 0.7183(3) 0.82406(11)
H18 H 0.4741 0.7505 0.8035
C25 C 0.3697(3) 1.0198(3) 0.97765(9)
C26 C 0.3126(3) 1.0775(3) 1.01647(10)
H19 H 0.3554 1.1433 1.0301
C27 C 0.1912(4) 1.0371(3) 1.03490(11)
H20 H 0.1527 1.0763 1.0609
C28 C 0.1276(3) 0.9405(3) 1.01538(11)
H21 H 0.0461 0.9141 1.0279
C29 C 0.1843(3) 0.8829(3) 0.97741(10)
H22 H 0.1410 0.8170 0.9640
C30 C 0.3048(3) 0.9212(3) 0.95875(9)
H23 H 0.3429 0.8804 0.9331
C31 C 0.6339(3) 0.9540(2) 0.94028(9)
C32 C 0.6311(3) 0.8975(3) 0.89636(11)
H24 H 0.5686 0.9216 0.8735
C33 C 0.7196(4) 0.8060(3) 0.88585(12)
H25 H 0.7164 0.7686 0.8562
C34 C 0.8122(4) 0.7701(3) 0.91921(14)
H26 H 0.8711 0.7077 0.9124
C35 C 0.8176(3) 0.8258(3) 0.96211(13)
H27 H 0.8817 0.8022 0.9844
C36 C 0.7292(3) 0.9175(3) 0.97322(10)
H28 H 0.7338 0.9546 1.0029
O5 O 0.6678(2) 0.9158(2) 0.76975(8)
H29 H 0.5917 0.9376 0.7771
C37 C 0.7566(4) 1.0118(3) 0.77421(12)
H30 H 0.7396 1.0661 0.7483
H31 H 0.8488 0.9803 0.7711
H32 H 0.7652 1.0581 0.8038
loop_
_geom_bond_atom_site_label_1
_geom_bond_atom_site_label_2
_geom_bond_site_symmetry_1
_geom_bond_site_symmetry_2
P1 O3 1_555 1_555
P2 O4 1_555 1_555
O1 H1 1_555 1_555
O2 H2 1_555 1_555
C1 P1 1_555 1_555
C2 C1 1_555 1_555
H3 C2 1_555 1_555
C3 C2 1_555 1_555
H4 C3 1_555 1_555
C4 C3 1_555 1_555
H5 C4 1_555 1_555
C5 O1 1_555 1_555
C6 C1 1_555 1_555
C7 C6 1_555 1_555
C8 O2 1_555 1_555
C9 C8 1_555 1_555
H6 C9 1_555 1_555
C10 C9 1_555 1_555
H7 C10 1_555 1_555
C11 C10 1_555 1_555
H8 C11 1_555 1_555
C12 P2 1_555 1_555
C13 P1 1_555 1_555
C14 C13 1_555 1_555
H9 C14 1_555 1_555
C15 C14 1_555 1_555
H10 C15 1_555 1_555
C16 C15 1_555 1_555
H11 C16 1_555 1_555
C17 C16 1_555 1_555
H12 C17 1_555 1_555
C18 C13 1_555 1_555
H13 C18 1_555 1_555
C19 P1 1_555 1_555
C20 C19 1_555 1_555
H14 C20 1_555 1_555
C21 C20 1_555 1_555
H15 C21 1_555 1_555
C22 C21 1_555 1_555
H16 C22 1_555 1_555
C23 C22 1_555 1_555
H17 C23 1_555 1_555
C24 C19 1_555 1_555
H18 C24 1_555 1_555
C25 P2 1_555 1_555
C26 C25 1_555 1_555
H19 C26 1_555 1_555
C27 C26 1_555 1_555
H20 C27 1_555 1_555
C28 C27 1_555 1_555
H21 C28 1_555 1_555
C29 C28 1_555 1_555
H22 C29 1_555 1_555
C30 C25 1_555 1_555
H23 C30 1_555 1_555
C31 P2 1_555 1_555
C32 C31 1_555 1_555
H24 C32 1_555 1_555
C33 C32 1_555 1_555
H25 C33 1_555 1_555
C34 C33 1_555 1_555
H26 C34 1_555 1_555
C35 C34 1_555 1_555
H27 C35 1_555 1_555
C36 C31 1_555 1_555
H28 C36 1_555 1_555
O5 H29 1_555 1_555
C37 O5 1_555 1_555
H30 C37 1_555 1_555
H31 C37 1_555 1_555
H32 C37 1_555 1_555
C4 C5 1_555 1_555
C5 C6 1_555 1_555
C7 C8 1_555 1_555
C7 C12 1_555 1_555
C11 C12 1_555 1_555
C17 C18 1_555 1_555
C23 C24 1_555 1_555
C29 C30 1_555 1_555
C35 C36 1_555 1_555

#END
