
#######################################################################
#
#                 Cambridge Crystallographic Data Centre
#                                CCDC 
#
#######################################################################
#
# If this CIF has been generated from an entry in the Cambridge 
# Structural Database, then it will include bibliographic, chemical, 
# crystal, experimental, refinement or atomic coordinate data resulting 
# from the CCDC's data processing and validation procedures.
#
#######################################################################

data_LUQDAE
_chemical_formula_moiety         'C16 H14 F2 N2 O2'
_chemical_name_systematic        
2,2'-(Ethane-1,2-diylbis(nitrilomethylylidene))bis(6-fluorophenol)
_symmetry_cell_setting           monoclinic
_symmetry_space_group_name_H-M   'C 2/c'
_symmetry_Int_Tables_number      15
_space_group_name_Hall           '-C 2yn'
loop_
_symmetry_equiv_pos_site_id
_symmetry_equiv_pos_as_xyz
1 x,y,z
2 -x,y,1/2-z
3 1/2+x,1/2+y,z
4 1/2-x,1/2+y,1/2-z
5 -x,-y,-z
6 x,-y,1/2+z
7 1/2-x,1/2-y,-z
8 1/2+x,1/2-y,1/2+z
_cell_length_a                   27.088(3)
_cell_length_b                   7.0125(7)
_cell_length_c                   7.4674(8)
_cell_angle_alpha                90
_cell_angle_beta                 98.531(7)
_cell_angle_gamma                90
_cell_volume                     1402.77
_cell_formula_units_Z            24
loop_
_atom_site_label
_atom_site_type_symbol
_atom_site_fract_x
_atom_site_fract_y
_atom_site_fract_z
F1 F 0.37301(4) -0.59377(14) 0.63442(16)
O1 O 0.30482(4) -0.31663(15) 0.54090(15)
H1 H 0.2905 -0.2138 0.4855
N1 N 0.28746(5) 0.04348(17) 0.44065(17)
C1 C 0.35017(5) -0.2839(2) 0.52828(19)
C2 C 0.38842(6) -0.4225(2) 0.5760(2)
C3 C 0.43690(7) -0.3952(3) 0.5661(3)
H2 H 0.4591(7) -0.489(3) 0.598(3)
C4 C 0.45304(7) -0.2206(3) 0.5017(4)
H3 H 0.4879(10) -0.207(4) 0.480(3)
C5 C 0.41911(7) -0.0801(3) 0.4544(3)
H4 H 0.4315(7) 0.043(3) 0.413(3)
C6 C 0.36819(6) -0.1064(2) 0.4688(2)
C7 C 0.33475(6) 0.0487(2) 0.4287(2)
H5 H 0.3484(6) 0.166(3) 0.391(2)
C8 C 0.25550(6) 0.2106(2) 0.4105(2)
H6 H 0.2253(6) 0.172(2) 0.330(2)
H7 H 0.2742(7) 0.306(3) 0.352(2)
F1F F 0.12699(4) 1.09377(14) 0.36558(16)
O1F O 0.19518(4) 0.81663(15) 0.45910(15)
H1F H 0.2095 0.7138 0.5145
N1F N 0.21254(5) 0.45652(17) 0.55935(17)
C1F C 0.14983(5) 0.7839(2) 0.47172(19)
C2F C 0.11158(6) 0.9225(2) 0.4240(2)
C3F C 0.06310(7) 0.8952(3) 0.4339(3)
H2F H 0.0409(7) 0.989(3) 0.402(3)
C4F C 0.04696(7) 0.7206(3) 0.4983(4)
H3F H 0.0121(10) 0.707(4) 0.520(3)
C5F C 0.08089(7) 0.5801(3) 0.5456(3)
H4F H 0.0685(7) 0.457(3) 0.587(3)
C6F C 0.13181(6) 0.6064(2) 0.5312(2)
C7F C 0.16525(6) 0.4513(2) 0.5713(2)
H5F H 0.1516(6) 0.334(3) 0.609(2)
C8F C 0.24450(6) 0.2894(2) 0.5895(2)
H6F H 0.2747(6) 0.328(2) 0.670(2)
H7F H 0.2258(7) 0.194(3) 0.648(2)
F1A F 0.62699(4) -0.59377(14) -0.13442(16)
O1A O 0.69518(4) -0.31663(15) -0.04090(15)
H1A H 0.7095 -0.2138 0.0145
N1A N 0.71254(5) 0.04348(17) 0.05935(17)
C1A C 0.64983(5) -0.2839(2) -0.02828(19)
C2A C 0.61158(6) -0.4225(2) -0.0760(2)
C3A C 0.56310(7) -0.3952(3) -0.0661(3)
H2A H 0.5409(7) -0.489(3) -0.098(3)
C4A C 0.54696(7) -0.2206(3) -0.0017(4)
H3A H 0.5121(10) -0.207(4) 0.020(3)
C5A C 0.58089(7) -0.0801(3) 0.0456(3)
H4A H 0.5685(7) 0.043(3) 0.087(3)
C6A C 0.63181(6) -0.1064(2) 0.0312(2)
C7A C 0.66525(6) 0.0487(2) 0.0713(2)
H5A H 0.6516(6) 0.166(3) 0.109(2)
C8A C 0.74450(6) 0.2106(2) 0.0895(2)
H6A H 0.7747(6) 0.172(2) 0.170(2)
H7A H 0.7258(7) 0.306(3) 0.148(2)
F1G F 0.87301(4) 1.09377(14) 0.13442(16)
O1G O 0.80482(4) 0.81663(15) 0.04090(15)
H1G H 0.7905 0.7138 -0.0145
N1G N 0.78746(5) 0.45652(17) -0.05935(17)
C1G C 0.85017(5) 0.7839(2) 0.02828(19)
C2G C 0.88842(6) 0.9225(2) 0.0760(2)
C3G C 0.93690(7) 0.8952(3) 0.0661(3)
H2G H 0.9591(7) 0.989(3) 0.098(3)
C4G C 0.95304(7) 0.7206(3) 0.0017(4)
H3G H 0.9879(10) 0.707(4) -0.020(3)
C5G C 0.91911(7) 0.5801(3) -0.0456(3)
H4G H 0.9315(7) 0.457(3) -0.087(3)
C6G C 0.86819(6) 0.6064(2) -0.0312(2)
C7G C 0.83475(6) 0.4513(2) -0.0713(2)
H5G H 0.8484(6) 0.334(3) -0.109(2)
C8G C 0.75550(6) 0.2894(2) -0.0895(2)
H6G H 0.7253(6) 0.328(2) -0.170(2)
H7G H 0.7742(7) 0.194(3) -0.148(2)
F1A_2 F 0.62699(4) -0.59377(14) 0.86558(16)
O1A_2 O 0.69518(4) -0.31663(15) 0.95910(15)
H1A_2 H 0.7095 -0.2138 1.0145
N1A_2 N 0.71254(5) 0.04348(17) 1.05935(17)
C1A_2 C 0.64983(5) -0.2839(2) 0.97172(19)
C2A_2 C 0.61158(6) -0.4225(2) 0.9240(2)
C3A_2 C 0.56310(7) -0.3952(3) 0.9339(3)
H2A_2 H 0.5409(7) -0.489(3) 0.902(3)
C4A_2 C 0.54696(7) -0.2206(3) 0.9983(4)
H3A_2 H 0.5121(10) -0.207(4) 1.020(3)
C5A_2 C 0.58089(7) -0.0801(3) 1.0456(3)
H4A_2 H 0.5685(7) 0.043(3) 1.087(3)
C6A_2 C 0.63181(6) -0.1064(2) 1.0312(2)
C7A_2 C 0.66525(6) 0.0487(2) 1.0713(2)
H5A_2 H 0.6516(6) 0.166(3) 1.109(2)
C8A_2 C 0.74450(6) 0.2106(2) 1.0895(2)
H6A_2 H 0.7747(6) 0.172(2) 1.170(2)
H7A_2 H 0.7258(7) 0.306(3) 1.148(2)
F1G_2 F 0.87301(4) 1.09377(14) 1.13442(16)
O1G_2 O 0.80482(4) 0.81663(15) 1.04090(15)
H1G_2 H 0.7905 0.7138 0.9855
N1G_2 N 0.78746(5) 0.45652(17) 0.94065(17)
C1G_2 C 0.85017(5) 0.7839(2) 1.02828(19)
C2G_2 C 0.88842(6) 0.9225(2) 1.0760(2)
C3G_2 C 0.93690(7) 0.8952(3) 1.0661(3)
H2G_2 H 0.9591(7) 0.989(3) 1.098(3)
C4G_2 C 0.95304(7) 0.7206(3) 1.0017(4)
H3G_2 H 0.9879(10) 0.707(4) 0.980(3)
C5G_2 C 0.91911(7) 0.5801(3) 0.9544(3)
H4G_2 H 0.9315(7) 0.457(3) 0.913(3)
C6G_2 C 0.86819(6) 0.6064(2) 0.9688(2)
C7G_2 C 0.83475(6) 0.4513(2) 0.9287(2)
H5G_2 H 0.8484(6) 0.334(3) 0.891(2)
C8G_2 C 0.75550(6) 0.2894(2) 0.9105(2)
H6G_2 H 0.7253(6) 0.328(2) 0.830(2)
H7G_2 H 0.7742(7) 0.194(3) 0.852(2)
F1B F 0.87301(4) -0.09377(14) 0.63442(16)
O1B O 0.80482(4) 0.18337(15) 0.54090(15)
H1B H 0.7905 0.2862 0.4855
N1B N 0.78746(5) 0.54348(17) 0.44065(17)
C1B C 0.85017(5) 0.2161(2) 0.52828(19)
C2B C 0.88842(6) 0.0775(2) 0.5760(2)
C3B C 0.93690(7) 0.1048(3) 0.5661(3)
H2B H 0.9591(7) 0.011(3) 0.598(3)
C4B C 0.95304(7) 0.2794(3) 0.5017(4)
H3B H 0.9879(10) 0.293(4) 0.480(3)
C5B C 0.91911(7) 0.4199(3) 0.4544(3)
H4B H 0.9315(7) 0.543(3) 0.413(3)
C6B C 0.86819(6) 0.3936(2) 0.4688(2)
C7B C 0.83475(6) 0.5487(2) 0.4287(2)
H5B H 0.8484(6) 0.666(3) 0.391(2)
C8B C 0.75550(6) 0.7106(2) 0.4105(2)
H6B H 0.7253(6) 0.672(2) 0.330(2)
H7B H 0.7742(7) 0.806(3) 0.352(2)
F1D F 0.62699(4) 1.59377(14) 0.36558(16)
O1D O 0.69518(4) 1.31663(15) 0.45910(15)
H1D H 0.7095 1.2138 0.5145
N1D N 0.71254(5) 0.95652(17) 0.55935(17)
C1D C 0.64983(5) 1.2839(2) 0.47172(19)
C2D C 0.61158(6) 1.4225(2) 0.4240(2)
C3D C 0.56310(7) 1.3952(3) 0.4339(3)
H2D H 0.5409(7) 1.489(3) 0.402(3)
C4D C 0.54696(7) 1.2206(3) 0.4983(4)
H3D H 0.5121(10) 1.207(4) 0.520(3)
C5D C 0.58089(7) 1.0801(3) 0.5456(3)
H4D H 0.5685(7) 0.957(3) 0.587(3)
C6D C 0.63181(6) 1.1064(2) 0.5312(2)
C7D C 0.66525(6) 0.9513(2) 0.5713(2)
H5D H 0.6516(6) 0.834(3) 0.609(2)
C8D C 0.74450(6) 0.7894(2) 0.5895(2)
H6D H 0.7747(6) 0.828(2) 0.670(2)
H7D H 0.7258(7) 0.694(3) 0.648(2)
F1C F 0.12699(4) -0.09377(14) -0.13442(16)
O1C O 0.19518(4) 0.18337(15) -0.04090(15)
H1C H 0.2095 0.2862 0.0145
N1C N 0.21254(5) 0.54348(17) 0.05935(17)
C1C C 0.14983(5) 0.2161(2) -0.02828(19)
C2C C 0.11158(6) 0.0775(2) -0.0760(2)
C3C C 0.06310(7) 0.1048(3) -0.0661(3)
H2C H 0.0409(7) 0.011(3) -0.098(3)
C4C C 0.04696(7) 0.2794(3) -0.0017(4)
H3C H 0.0121(10) 0.293(4) 0.020(3)
C5C C 0.08089(7) 0.4199(3) 0.0456(3)
H4C H 0.0685(7) 0.543(3) 0.087(3)
C6C C 0.13181(6) 0.3936(2) 0.0312(2)
C7C C 0.16525(6) 0.5487(2) 0.0713(2)
H5C H 0.1516(6) 0.666(3) 0.109(2)
C8C C 0.24450(6) 0.7106(2) 0.0895(2)
H6C H 0.2747(6) 0.672(2) 0.170(2)
H7C H 0.2258(7) 0.806(3) 0.148(2)
F1E F 0.37301(4) 1.59377(14) 0.13442(16)
O1E O 0.30482(4) 1.31663(15) 0.04090(15)
H1E H 0.2905 1.2138 -0.0145
N1E N 0.28746(5) 0.95652(17) -0.05935(17)
C1E C 0.35017(5) 1.2839(2) 0.02828(19)
C2E C 0.38842(6) 1.4225(2) 0.0760(2)
C3E C 0.43690(7) 1.3952(3) 0.0661(3)
H2E H 0.4591(7) 1.489(3) 0.098(3)
C4E C 0.45304(7) 1.2206(3) 0.0017(4)
H3E H 0.4879(10) 1.207(4) -0.020(3)
C5E C 0.41911(7) 1.0801(3) -0.0456(3)
H4E H 0.4315(7) 0.957(3) -0.087(3)
C6E C 0.36819(6) 1.1064(2) -0.0312(2)
C7E C 0.33475(6) 0.9513(2) -0.0713(2)
H5E H 0.3484(6) 0.834(3) -0.109(2)
C8E C 0.25550(6) 0.7894(2) -0.0895(2)
H6E H 0.2253(6) 0.828(2) -0.170(2)
H7E H 0.2742(7) 0.694(3) -0.148(2)
F1C_2 F 0.12699(4) -0.09377(14) 0.86558(16)
O1C_2 O 0.19518(4) 0.18337(15) 0.95910(15)
H1C_2 H 0.2095 0.2862 1.0145
N1C_2 N 0.21254(5) 0.54348(17) 1.05935(17)
C1C_2 C 0.14983(5) 0.2161(2) 0.97172(19)
C2C_2 C 0.11158(6) 0.0775(2) 0.9240(2)
C3C_2 C 0.06310(7) 0.1048(3) 0.9339(3)
H2C_2 H 0.0409(7) 0.011(3) 0.902(3)
C4C_2 C 0.04696(7) 0.2794(3) 0.9983(4)
H3C_2 H 0.0121(10) 0.293(4) 1.020(3)
C5C_2 C 0.08089(7) 0.4199(3) 1.0456(3)
H4C_2 H 0.0685(7) 0.543(3) 1.087(3)
C6C_2 C 0.13181(6) 0.3936(2) 1.0312(2)
C7C_2 C 0.16525(6) 0.5487(2) 1.0713(2)
H5C_2 H 0.1516(6) 0.666(3) 1.109(2)
C8C_2 C 0.24450(6) 0.7106(2) 1.0895(2)
H6C_2 H 0.2747(6) 0.672(2) 1.170(2)
H7C_2 H 0.2258(7) 0.806(3) 1.148(2)
F1E_2 F 0.37301(4) 1.59377(14) 1.13442(16)
O1E_2 O 0.30482(4) 1.31663(15) 1.04090(15)
H1E_2 H 0.2905 1.2138 0.9855
N1E_2 N 0.28746(5) 0.95652(17) 0.94065(17)
C1E_2 C 0.35017(5) 1.2839(2) 1.02828(19)
C2E_2 C 0.38842(6) 1.4225(2) 1.0760(2)
C3E_2 C 0.43690(7) 1.3952(3) 1.0661(3)
H2E_2 H 0.4591(7) 1.489(3) 1.098(3)
C4E_2 C 0.45304(7) 1.2206(3) 1.0017(4)
H3E_2 H 0.4879(10) 1.207(4) 0.980(3)
C5E_2 C 0.41911(7) 1.0801(3) 0.9544(3)
H4E_2 H 0.4315(7) 0.957(3) 0.913(3)
C6E_2 C 0.36819(6) 1.1064(2) 0.9688(2)
C7E_2 C 0.33475(6) 0.9513(2) 0.9287(2)
H5E_2 H 0.3484(6) 0.834(3) 0.891(2)
C8E_2 C 0.25550(6) 0.7894(2) 0.9105(2)
H6E_2 H 0.2253(6) 0.828(2) 0.830(2)
H7E_2 H 0.2742(7) 0.694(3) 0.852(2)
loop_
_geom_bond_atom_site_label_1
_geom_bond_atom_site_label_2
_geom_bond_site_symmetry_1
_geom_bond_site_symmetry_2
F1 C2 1_555 1_555
O1 H1 1_555 1_555
N1 C7 1_555 1_555
C1 O1 1_555 1_555
C2 C1 1_555 1_555
C3 C2 1_555 1_555
H2 C3 1_555 1_555
C4 C3 1_555 1_555
H3 C4 1_555 1_555
C5 C4 1_555 1_555
H4 C5 1_555 1_555
C6 C1 1_555 1_555
C7 C6 1_555 1_555
H5 C7 1_555 1_555
C8 N1 1_555 1_555
H6 C8 1_555 1_555
H7 C8 1_555 1_555
F1F C2F 1_555 1_555
O1F H1F 1_555 1_555
N1F C7F 1_555 1_555
C1F O1F 1_555 1_555
C2F C1F 1_555 1_555
C3F C2F 1_555 1_555
H2F C3F 1_555 1_555
C4F C3F 1_555 1_555
H3F C4F 1_555 1_555
C5F C4F 1_555 1_555
H4F C5F 1_555 1_555
C6F C1F 1_555 1_555
C7F C6F 1_555 1_555
H5F C7F 1_555 1_555
C8F C8 1_555 1_555
H6F C8F 1_555 1_555
H7F C8F 1_555 1_555
F1A C2A 1_555 1_555
O1A H1A 1_555 1_555
N1A C7A 1_555 1_555
C1A O1A 1_555 1_555
C2A C1A 1_555 1_555
C3A C2A 1_555 1_555
H2A C3A 1_555 1_555
C4A C3A 1_555 1_555
H3A C4A 1_555 1_555
C5A C4A 1_555 1_555
H4A C5A 1_555 1_555
C6A C1A 1_555 1_555
C7A C6A 1_555 1_555
H5A C7A 1_555 1_555
C8A N1A 1_555 1_555
H6A C8A 1_555 1_555
H7A C8A 1_555 1_555
F1G C2G 1_555 1_555
O1G H1G 1_555 1_555
N1G C7G 1_555 1_555
C1G O1G 1_555 1_555
C2G C1G 1_555 1_555
C3G C2G 1_555 1_555
H2G C3G 1_555 1_555
C4G C3G 1_555 1_555
H3G C4G 1_555 1_555
C5G C4G 1_555 1_555
H4G C5G 1_555 1_555
C6G C1G 1_555 1_555
C7G C6G 1_555 1_555
H5G C7G 1_555 1_555
C8G C8A 1_555 1_555
H6G C8G 1_555 1_555
H7G C8G 1_555 1_555
F1A_2 C2A_2 1_555 1_555
O1A_2 H1A_2 1_555 1_555
N1A_2 C7A_2 1_555 1_555
C1A_2 O1A_2 1_555 1_555
C2A_2 C1A_2 1_555 1_555
C3A_2 C2A_2 1_555 1_555
H2A_2 C3A_2 1_555 1_555
C4A_2 C3A_2 1_555 1_555
H3A_2 C4A_2 1_555 1_555
C5A_2 C4A_2 1_555 1_555
H4A_2 C5A_2 1_555 1_555
C6A_2 C1A_2 1_555 1_555
C7A_2 C6A_2 1_555 1_555
H5A_2 C7A_2 1_555 1_555
C8A_2 N1A_2 1_555 1_555
H6A_2 C8A_2 1_555 1_555
H7A_2 C8A_2 1_555 1_555
F1G_2 C2G_2 1_555 1_555
O1G_2 H1G_2 1_555 1_555
N1G_2 C7G_2 1_555 1_555
C1G_2 O1G_2 1_555 1_555
C2G_2 C1G_2 1_555 1_555
C3G_2 C2G_2 1_555 1_555
H2G_2 C3G_2 1_555 1_555
C4G_2 C3G_2 1_555 1_555
H3G_2 C4G_2 1_555 1_555
C5G_2 C4G_2 1_555 1_555
H4G_2 C5G_2 1_555 1_555
C6G_2 C1G_2 1_555 1_555
C7G_2 C6G_2 1_555 1_555
H5G_2 C7G_2 1_555 1_555
C8G_2 C8A_2 1_555 1_555
H6G_2 C8G_2 1_555 1_555
H7G_2 C8G_2 1_555 1_555
F1B C2B 1_555 1_555
O1B H1B 1_555 1_555
N1B C7B 1_555 1_555
C1B O1B 1_555 1_555
C2B C1B 1_555 1_555
C3B C2B 1_555 1_555
H2B C3B 1_555 1_555
C4B C3B 1_555 1_555
H3B C4B 1_555 1_555
C5B C4B 1_555 1_555
H4B C5B 1_555 1_555
C6B C1B 1_555 1_555
C7B C6B 1_555 1_555
H5B C7B 1_555 1_555
C8B N1B 1_555 1_555
H6B C8B 1_555 1_555
H7B C8B 1_555 1_555
F1D C2D 1_555 1_555
O1D H1D 1_555 1_555
N1D C7D 1_555 1_555
C1D O1D 1_555 1_555
C2D C1D 1_555 1_555
C3D C2D 1_555 1_555
H2D C3D 1_555 1_555
C4D C3D 1_555 1_555
H3D C4D 1_555 1_555
C5D C4D 1_555 1_555
H4D C5D 1_555 1_555
C6D C1D 1_555 1_555
C7D C6D 1_555 1_555
H5D C7D 1_555 1_555
C8D C8B 1_555 1_555
H6D C8D 1_555 1_555
H7D C8D 1_555 1_555
F1C C2C 1_555 1_555
O1C H1C 1_555 1_555
N1C C7C 1_555 1_555
C1C O1C 1_555 1_555
C2C C1C 1_555 1_555
C3C C2C 1_555 1_555
H2C C3C 1_555 1_555
C4C C3C 1_555 1_555
H3C C4C 1_555 1_555
C5C C4C 1_555 1_555
H4C C5C 1_555 1_555
C6C C1C 1_555 1_555
C7C C6C 1_555 1_555
H5C C7C 1_555 1_555
C8C N1C 1_555 1_555
H6C C8C 1_555 1_555
H7C C8C 1_555 1_555
F1E C2E 1_555 1_555
O1E H1E 1_555 1_555
N1E C7E 1_555 1_555
C1E O1E 1_555 1_555
C2E C1E 1_555 1_555
C3E C2E 1_555 1_555
H2E C3E 1_555 1_555
C4E C3E 1_555 1_555
H3E C4E 1_555 1_555
C5E C4E 1_555 1_555
H4E C5E 1_555 1_555
C6E C1E 1_555 1_555
C7E C6E 1_555 1_555
H5E C7E 1_555 1_555
C8E C8C 1_555 1_555
H6E C8E 1_555 1_555
H7E C8E 1_555 1_555
F1C_2 C2C_2 1_555 1_555
O1C_2 H1C_2 1_555 1_555
N1C_2 C7C_2 1_555 1_555
C1C_2 O1C_2 1_555 1_555
C2C_2 C1C_2 1_555 1_555
C3C_2 C2C_2 1_555 1_555
H2C_2 C3C_2 1_555 1_555
C4C_2 C3C_2 1_555 1_555
H3C_2 C4C_2 1_555 1_555
C5C_2 C4C_2 1_555 1_555
H4C_2 C5C_2 1_555 1_555
C6C_2 C1C_2 1_555 1_555
C7C_2 C6C_2 1_555 1_555
H5C_2 C7C_2 1_555 1_555
C8C_2 N1C_2 1_555 1_555
H6C_2 C8C_2 1_555 1_555
H7C_2 C8C_2 1_555 1_555
F1E_2 C2E_2 1_555 1_555
O1E_2 H1E_2 1_555 1_555
N1E_2 C7E_2 1_555 1_555
C1E_2 O1E_2 1_555 1_555
C2E_2 C1E_2 1_555 1_555
C3E_2 C2E_2 1_555 1_555
H2E_2 C3E_2 1_555 1_555
C4E_2 C3E_2 1_555 1_555
H3E_2 C4E_2 1_555 1_555
C5E_2 C4E_2 1_555 1_555
H4E_2 C5E_2 1_555 1_555
C6E_2 C1E_2 1_555 1_555
C7E_2 C6E_2 1_555 1_555
H5E_2 C7E_2 1_555 1_555
C8E_2 C8C_2 1_555 1_555
H6E_2 C8E_2 1_555 1_555
H7E_2 C8E_2 1_555 1_555
C5 C6 1_555 1_555
N1F C8F 1_555 1_555
C5F C6F 1_555 1_555
C5A C6A 1_555 1_555
N1G C8G 1_555 1_555
C5G C6G 1_555 1_555
C5A_2 C6A_2 1_555 1_555
N1G_2 C8G_2 1_555 1_555
C5G_2 C6G_2 1_555 1_555
C5B C6B 1_555 1_555
N1D C8D 1_555 1_555
C5D C6D 1_555 1_555
C5C C6C 1_555 1_555
N1E C8E 1_555 1_555
C5E C6E 1_555 1_555
C5C_2 C6C_2 1_555 1_555
N1E_2 C8E_2 1_555 1_555
C5E_2 C6E_2 1_555 1_555

#END
