
#######################################################################
#
#                 Cambridge Crystallographic Data Centre
#                                CCDC 
#
#######################################################################
#
# If this CIF has been generated from an entry in the Cambridge 
# Structural Database, then it will include bibliographic, chemical, 
# crystal, experimental, refinement or atomic coordinate data resulting 
# from the CCDC's data processing and validation procedures.
#
#######################################################################

data_LUQFAF
_chemical_formula_moiety         'C27 H22 N2 O3'
_chemical_name_systematic        5-(Benzyloxy)-N,N'-diphenylisophthalamide
_symmetry_cell_setting           monoclinic
_symmetry_space_group_name_H-M   'C 2/c'
_symmetry_Int_Tables_number      15
_space_group_name_Hall           '-C 2yn'
loop_
_symmetry_equiv_pos_site_id
_symmetry_equiv_pos_as_xyz
1 x,y,z
2 -x,y,1/2-z
3 1/2+x,1/2+y,z
4 1/2-x,1/2+y,1/2-z
5 -x,-y,-z
6 x,-y,1/2+z
7 1/2-x,1/2-y,-z
8 1/2+x,1/2-y,1/2+z
_cell_length_a                   18.473(2)
_cell_length_b                   14.611(2)
_cell_length_c                   8.4322(12)
_cell_angle_alpha                90
_cell_angle_beta                 103.972(4)
_cell_angle_gamma                90
_cell_volume                     2208.59
_exptl_crystal_colour            colorless
_exptl_crystal_description       prismatic
_cell_formula_units_Z            4
loop_
_atom_site_label
_atom_site_type_symbol
_atom_site_fract_x
_atom_site_fract_y
_atom_site_fract_z
O1 O -0.10787(17) 0.40241(19) 0.3401(3)
O2 O 0.0000 0.1548(3) 0.7500
N1 N -0.12185(18) 0.5180(2) 0.5106(4)
C1 C -0.0945(2) 0.4364(3) 0.4769(4)
C2 C -0.0448(2) 0.3892(2) 0.6214(4)
C3 C -0.0439(2) 0.2940(3) 0.6191(5)
H1 H -0.0725 0.2622 0.5303
C4 C 0.0000 0.2471(4) 0.7500
C5 C 0.0000 0.4364(3) 0.7500
H2 H 0.0000 0.5000 0.7500
C6 C -0.1684(2) 0.5775(3) 0.3996(5)
C7 C -0.2199(3) 0.5492(5) 0.2632(7)
H3 H -0.2272 0.4874 0.2380
C8 C -0.2621(4) 0.6181(7) 0.1607(9)
H4 H -0.2957 0.6006 0.0646
C9 C -0.2545(4) 0.7070(7) 0.1989(9)
H5 H -0.2840 0.7503 0.1322
C10 C -0.2051(4) 0.7330(5) 0.3311(10)
H6 H -0.1999 0.7949 0.3569
C11 C -0.1609(3) 0.6701(4) 0.4325(8)
H7 H -0.1256 0.6903 0.5241
C12 C 0.0388(6) 0.0963(6) 0.8489(14)
H8 H 0.0326 0.1081 0.9581
H9 H 0.0911 0.1049 0.8510
C13 C 0.0183(8) 0.0009(6) 0.8051(14)
C14 C 0.0823(11) -0.0531(12) 0.835(2)
H10 H 0.1329 -0.0279 0.8613
C15 C 0.0664(6) -0.1423(6) 0.7934(12)
C16 C 0.0000 -0.1848(5) 0.7500
H11 H 0.0000 -0.2484 0.7500
C17 C -0.0499(9) -0.0345(13) 0.736(2)
H12 H -0.111(2) 0.539(3) 0.610(3)
H13 H 0.110(4) -0.177(3) 0.849(16)
H14 H 0.079(4) 0.016(4) 0.759(10)
O1A O 0.10787(17) 0.40241(19) 1.1599(3)
N1A N 0.12185(18) 0.5180(2) 0.9894(4)
C1A C 0.0945(2) 0.4364(3) 1.0231(4)
C2A C 0.0448(2) 0.3892(2) 0.8786(4)
C3A C 0.0439(2) 0.2940(3) 0.8809(5)
H1A H 0.0725 0.2622 0.9697
C6A C 0.1684(2) 0.5775(3) 1.1004(5)
C7A C 0.2199(3) 0.5492(5) 1.2368(7)
H3A H 0.2272 0.4874 1.2620
C8A C 0.2621(4) 0.6181(7) 1.3393(9)
H4A H 0.2957 0.6006 1.4354
C9A C 0.2545(4) 0.7070(7) 1.3011(9)
H5A H 0.2840 0.7503 1.3678
C10A C 0.2051(4) 0.7330(5) 1.1689(10)
H6A H 0.1999 0.7949 1.1431
C11A C 0.1609(3) 0.6701(4) 1.0675(8)
H7A H 0.1256 0.6903 0.9759
C12A C -0.0388(6) 0.0963(6) 0.6511(14)
H8A H -0.0326 0.1081 0.5419
H9A H -0.0911 0.1049 0.6490
C13A C -0.0183(8) 0.0009(6) 0.6949(14)
C14A C -0.0823(11) -0.0531(12) 0.665(2)
H10A H -0.1329 -0.0279 0.6387
C15A C -0.0664(6) -0.1423(6) 0.7066(12)
C17A C 0.0499(9) -0.0345(13) 0.764(2)
H12A H 0.111(2) 0.539(3) 0.890(3)
H13A H -0.110(4) -0.177(3) 0.651(16)
H14A H -0.079(4) 0.016(4) 0.741(10)
loop_
_geom_bond_atom_site_label_1
_geom_bond_atom_site_label_2
_geom_bond_site_symmetry_1
_geom_bond_site_symmetry_2
O1 C1 1_555 1_555
O2 C4 1_555 1_555
N1 C1 1_555 1_555
C1 C2 1_555 1_555
C2 C3 1_555 1_555
C3 H1 1_555 1_555
C4 C3 1_555 1_555
C5 C2 1_555 1_555
H2 C5 1_555 1_555
C6 N1 1_555 1_555
C7 C6 1_555 1_555
H3 C7 1_555 1_555
C8 C7 1_555 1_555
H4 C8 1_555 1_555
C9 C8 1_555 1_555
H5 C9 1_555 1_555
C10 C9 1_555 1_555
H6 C10 1_555 1_555
C11 C6 1_555 1_555
H7 C11 1_555 1_555
C12 O2 1_555 1_555
H8 C12 1_555 1_555
H9 C12 1_555 1_555
C13 C12 1_555 1_555
C14 C13 1_555 1_555
H10 C14 1_555 1_555
C15 C14 1_555 1_555
C16 C15 1_555 1_555
H11 C16 1_555 1_555
C17 C13 1_555 1_555
H12 N1 1_555 1_555
H13 C15 1_555 1_555
H14 C13 1_555 1_555
O1A C1A 1_555 1_555
N1A C1A 1_555 1_555
C1A C2A 1_555 1_555
C2A C5 1_555 1_555
C3A C4 1_555 1_555
H1A C3A 1_555 1_555
C6A N1A 1_555 1_555
C7A C6A 1_555 1_555
H3A C7A 1_555 1_555
C8A C7A 1_555 1_555
H4A C8A 1_555 1_555
C9A C8A 1_555 1_555
H5A C9A 1_555 1_555
C10A C9A 1_555 1_555
H6A C10A 1_555 1_555
C11A C6A 1_555 1_555
H7A C11A 1_555 1_555
C12A O2 1_555 1_555
H8A C12A 1_555 1_555
H9A C12A 1_555 1_555
C13A C13 1_555 1_555
C14A C17 1_555 1_555
H10A C14A 1_555 1_555
C15A C16 1_555 1_555
C17A C13 1_555 1_555
H12A N1A 1_555 1_555
H13A C15A 1_555 1_555
H14A C17 1_555 1_555
C10 C11 1_555 1_555
C14 H14 1_555 1_555
C14 C17A 1_555 1_555
C15 C17A 1_555 1_555
C17 C13A 1_555 1_555
C17 C15A 1_555 1_555
H14 C17A 1_555 1_555
C2A C3A 1_555 1_555
C10A C11A 1_555 1_555
C12A C13A 1_555 1_555
C13A C14A 1_555 1_555
C13A C17A 1_555 1_555
C13A H14A 1_555 1_555
C14A C15A 1_555 1_555
C14A H14A 1_555 1_555

#END
