
#######################################################################
#
#                 Cambridge Crystallographic Data Centre
#                                CCDC 
#
#######################################################################
#
# If this CIF has been generated from an entry in the Cambridge 
# Structural Database, then it will include bibliographic, chemical, 
# crystal, experimental, refinement or atomic coordinate data resulting 
# from the CCDC's data processing and validation procedures.
#
#######################################################################

data_LUQLIT
_chemical_formula_moiety         'C22 H22 N2 O4'
_chemical_name_systematic        
3-((10-Methoxy-7,11b,12,13-tetrahydro-6H-isoquinolino[2,1-a]quinolin-12-yl)carbonyl)-1,3-oxazolidin-2-one
_symmetry_cell_setting           orthorhombic
_symmetry_space_group_name_H-M   'P 21 21 21'
_symmetry_Int_Tables_number      19
_space_group_name_Hall           'P 2ac 2ab'
loop_
_symmetry_equiv_pos_site_id
_symmetry_equiv_pos_as_xyz
1 x,y,z
2 1/2-x,-y,1/2+z
3 -x,1/2+y,1/2-z
4 1/2+x,1/2-y,-z
_cell_length_a                   8.1447(1)
_cell_length_b                   10.1427(2)
_cell_length_c                   21.4366(3)
_cell_angle_alpha                90
_cell_angle_beta                 90
_cell_angle_gamma                90
_cell_volume                     1770.86
_exptl_crystal_colour            colorless
_exptl_crystal_description       rod
_cell_formula_units_Z            4
loop_
_atom_site_label
_atom_site_type_symbol
_atom_site_fract_x
_atom_site_fract_y
_atom_site_fract_z
O1 O 0.13364(19) 0.37001(14) 0.99496(6)
O2 O 0.08649(18) 0.56438(14) 0.94981(7)
O3 O 0.30344(19) 0.28258(14) 0.81370(6)
O4 O 0.23207(18) -0.03424(15) 1.13078(6)
N1 N 0.1898(2) 0.40650(16) 0.88914(7)
N2 N 0.01688(19) 0.06900(16) 0.86367(7)
C1 C 0.1374(2) 0.4392(2) 0.94914(9)
C2 C 0.1041(3) 0.6246(2) 0.88862(10)
H1 H 0.178(3) 0.699(3) 0.8931(11)
H2 H -0.002(3) 0.648(2) 0.8744(11)
C3 C 0.1823(3) 0.5203(2) 0.84751(10)
H3 H 0.112(3) 0.498(2) 0.8110(12)
H4 H 0.293(3) 0.543(2) 0.8339(11)
C4 C 0.2554(2) 0.28735(19) 0.86725(9)
C5 C 0.2599(2) 0.17113(19) 0.91208(9)
H5 H 0.302(3) 0.202(2) 0.9518(11)
C6 C 0.0835(2) 0.1213(2) 0.92263(9)
H6 H 0.016(3) 0.197(2) 0.9324(10)
C7 C 0.3694(2) 0.0605(2) 0.88765(9)
H7 H 0.471(3) 0.102(2) 0.8686(11)
H8 H 0.400(3) 0.007(2) 0.9241(11)
C8 C 0.2867(3) -0.02529(19) 0.83962(9)
C9 C 0.1149(3) -0.02387(19) 0.83156(9)
C10 C 0.0448(3) -0.1105(2) 0.78802(9)
H9 H -0.070(3) -0.113(2) 0.7820(10)
C11 C 0.1417(3) -0.1943(2) 0.75196(9)
H10 H 0.086(3) -0.247(2) 0.7207(11)
C12 C 0.3111(3) -0.1935(2) 0.75860(9)
H11 H 0.383(3) -0.242(2) 0.7311(11)
C13 C 0.3806(3) -0.1093(2) 0.80253(9)
H12 H 0.494(3) -0.107(2) 0.8084(11)
C14 C -0.1566(2) 0.0356(2) 0.87353(10)
H13 H -0.210(3) 0.020(2) 0.8326(11)
H14 H -0.204(3) 0.111(2) 0.8929(10)
C15 C -0.1716(3) -0.0848(2) 0.91591(9)
H15 H -0.281(3) -0.091(2) 0.9315(10)
H16 H -0.149(3) -0.167(2) 0.8900(10)
C16 C -0.0548(2) -0.07752(19) 0.97077(9)
C17 C 0.0656(2) 0.02176(19) 0.97591(9)
C18 C 0.1580(2) 0.0322(2) 1.02999(9)
H17 H 0.230(3) 0.101(2) 1.0355(10)
C19 C 0.1362(2) -0.0554(2) 1.07920(9)
C20 C 0.0238(2) -0.1583(2) 1.07348(9)
H18 H 0.010(3) -0.226(2) 1.1051(11)
C21 C -0.0687(2) -0.1677(2) 1.01926(9)
H19 H -0.152(3) -0.237(2) 1.0161(10)
C22 C 0.1965(3) -0.1099(2) 1.18545(9)
H20 H 0.083(3) -0.092(3) 1.1986(11)
H21 H 0.270(3) -0.080(3) 1.2174(11)
H22 H 0.212(3) -0.207(3) 1.1776(11)
loop_
_geom_bond_atom_site_label_1
_geom_bond_atom_site_label_2
_geom_bond_site_symmetry_1
_geom_bond_site_symmetry_2
O1 C1 1_555 1_555
O2 C1 1_555 1_555
O3 C4 1_555 1_555
O4 C19 1_555 1_555
N1 C1 1_555 1_555
N2 C6 1_555 1_555
C2 O2 1_555 1_555
H1 C2 1_555 1_555
H2 C2 1_555 1_555
C3 N1 1_555 1_555
H3 C3 1_555 1_555
H4 C3 1_555 1_555
C4 N1 1_555 1_555
C5 C4 1_555 1_555
H5 C5 1_555 1_555
C6 C5 1_555 1_555
H6 C6 1_555 1_555
C7 C5 1_555 1_555
H7 C7 1_555 1_555
H8 C7 1_555 1_555
C8 C7 1_555 1_555
C9 N2 1_555 1_555
C10 C9 1_555 1_555
H9 C10 1_555 1_555
C11 C10 1_555 1_555
H10 C11 1_555 1_555
C12 C11 1_555 1_555
H11 C12 1_555 1_555
C13 C8 1_555 1_555
H12 C13 1_555 1_555
C14 N2 1_555 1_555
H13 C14 1_555 1_555
H14 C14 1_555 1_555
C15 C14 1_555 1_555
H15 C15 1_555 1_555
H16 C15 1_555 1_555
C16 C15 1_555 1_555
C17 C6 1_555 1_555
C18 C17 1_555 1_555
H17 C18 1_555 1_555
C19 C18 1_555 1_555
C20 C19 1_555 1_555
H18 C20 1_555 1_555
C21 C16 1_555 1_555
H19 C21 1_555 1_555
C22 O4 1_555 1_555
H20 C22 1_555 1_555
H21 C22 1_555 1_555
H22 C22 1_555 1_555
C2 C3 1_555 1_555
C8 C9 1_555 1_555
C12 C13 1_555 1_555
C16 C17 1_555 1_555
C20 C21 1_555 1_555

#END
