
#######################################################################
#
#                 Cambridge Crystallographic Data Centre
#                                CCDC 
#
#######################################################################
#
# If this CIF has been generated from an entry in the Cambridge 
# Structural Database, then it will include bibliographic, chemical, 
# crystal, experimental, refinement or atomic coordinate data resulting 
# from the CCDC's data processing and validation procedures.
#
#######################################################################

data_LUQNOC
_chemical_formula_moiety         'C24 H19 N3 O3'
_chemical_name_systematic        
3-methyl-1-phenyl-7,8-dihydro-1H-spiro[chromeno[2,3-c]pyrazole-4,3'-indole]-2',5(1'H,6H)-dione
_symmetry_cell_setting           triclinic
_symmetry_space_group_name_H-M   'P -1'
_symmetry_Int_Tables_number      2
_space_group_name_Hall           '-P 1'
loop_
_symmetry_equiv_pos_site_id
_symmetry_equiv_pos_as_xyz
1 x,y,z
2 -x,-y,-z
_cell_length_a                   8.6306(9)
_cell_length_b                   10.7523(12)
_cell_length_c                   11.2579(13)
_cell_angle_alpha                98.521(5)
_cell_angle_beta                 97.359(5)
_cell_angle_gamma                107.517(4)
_cell_volume                     968.619
_exptl_crystal_description       Needle
_cell_formula_units_Z            2
loop_
_atom_site_label
_atom_site_type_symbol
_atom_site_fract_x
_atom_site_fract_y
_atom_site_fract_z
O1 O 0.4003(5) 0.3259(4) 0.4199(4)
O2 O 0.7238(5) 0.2027(4) 0.4508(3)
O3 O 0.3409(4) 0.0377(3) 0.0771(3)
N1 N 0.2389(5) 0.1904(4) -0.0135(4)
N2 N 0.2638(5) 0.3253(4) 0.0083(4)
N3 N 0.6613(5) 0.4648(4) 0.4221(4)
H1 H 0.6692 0.5240 0.4851
C1 C -0.0879(7) -0.0470(6) -0.3320(5)
H2 H -0.1610 -0.0987 -0.4023
C2 C -0.0342(7) 0.0897(6) -0.3155(5)
H3 H -0.0696 0.1301 -0.3763
C3 C 0.0717(7) 0.1681(5) -0.2098(5)
H4 H 0.1047 0.2603 -0.1990
C4 C 0.1278(6) 0.1081(5) -0.1207(4)
C5 C 0.3401(5) 0.1628(4) 0.0736(4)
C6 C 0.4321(5) 0.2768(4) 0.1538(4)
C7 C 0.5567(5) 0.2788(4) 0.2598(4)
C8 C 0.7309(5) 0.3627(4) 0.2545(4)
C9 C 0.7856(6) 0.4702(4) 0.3524(4)
C10 C 0.9418(6) 0.5631(5) 0.3721(6)
H5 H 0.9783 0.6333 0.4391
C11 C 1.0407(7) 0.5474(6) 0.2887(7)
H6 H 1.1467 0.6081 0.3003
C12 C 0.3788(6) 0.3759(5) 0.1079(5)
C13 C 0.4363(8) 0.5222(5) 0.1608(6)
H7 H 0.3795 0.5656 0.1107
H8 H 0.5531 0.5587 0.1636
H9 H 0.4131 0.5358 0.2420
C14 C 0.5267(6) 0.3548(4) 0.3782(4)
C15 C 0.8303(7) 0.3500(5) 0.1707(5)
H10 H 0.7935 0.2799 0.1036
C16 C 0.9876(7) 0.4441(6) 0.1879(7)
H11 H 1.0565 0.4374 0.1318
C17 C 0.5377(5) 0.1338(4) 0.2653(4)
C18 C 0.6370(6) 0.1088(5) 0.3708(4)
C19 C 0.6328(7) -0.0311(5) 0.3749(5)
H12 H 0.6530 -0.0401 0.4594
H13 H 0.7207 -0.0486 0.3368
C20 C 0.4676(7) -0.1342(5) 0.3099(5)
H14 H 0.4753 -0.2228 0.3061
H15 H 0.3820 -0.1270 0.3560
C21 C 0.4216(7) -0.1134(4) 0.1820(4)
H16 H 0.4921 -0.1413 0.1307
H17 H 0.3082 -0.1684 0.1484
C22 C 0.4389(6) 0.0279(4) 0.1799(4)
C23 C 0.0757(6) -0.0297(5) -0.1356(5)
H18 H 0.1117 -0.0704 -0.0753
C24 C -0.0316(7) -0.1058(5) -0.2426(5)
H19 H -0.0658 -0.1981 -0.2539
loop_
_geom_bond_atom_site_label_1
_geom_bond_atom_site_label_2
_geom_bond_site_symmetry_1
_geom_bond_site_symmetry_2
O1 C14 1_555 1_555
O2 C18 1_555 1_555
O3 C5 1_555 1_555
N1 N2 1_555 1_555
N2 C12 1_555 1_555
N3 H1 1_555 1_555
C1 H2 1_555 1_555
C2 C1 1_555 1_555
H3 C2 1_555 1_555
C3 C2 1_555 1_555
H4 C3 1_555 1_555
C4 N1 1_555 1_555
C5 N1 1_555 1_555
C6 C5 1_555 1_555
C7 C6 1_555 1_555
C8 C7 1_555 1_555
C9 N3 1_555 1_555
C10 C9 1_555 1_555
H5 C10 1_555 1_555
C11 C10 1_555 1_555
H6 C11 1_555 1_555
C12 C6 1_555 1_555
C13 C12 1_555 1_555
H7 C13 1_555 1_555
H8 C13 1_555 1_555
H9 C13 1_555 1_555
C14 N3 1_555 1_555
C15 C8 1_555 1_555
H10 C15 1_555 1_555
C16 C11 1_555 1_555
H11 C16 1_555 1_555
C17 C7 1_555 1_555
C18 C17 1_555 1_555
C19 C18 1_555 1_555
H12 C19 1_555 1_555
H13 C19 1_555 1_555
C20 C19 1_555 1_555
H14 C20 1_555 1_555
H15 C20 1_555 1_555
C21 C20 1_555 1_555
H16 C21 1_555 1_555
H17 C21 1_555 1_555
C22 O3 1_555 1_555
C23 C4 1_555 1_555
H18 C23 1_555 1_555
C24 C1 1_555 1_555
H19 C24 1_555 1_555
C3 C4 1_555 1_555
C7 C14 1_555 1_555
C8 C9 1_555 1_555
C15 C16 1_555 1_555
C17 C22 1_555 1_555
C21 C22 1_555 1_555
C23 C24 1_555 1_555

#END
