
#######################################################################
#
#                 Cambridge Crystallographic Data Centre
#                                CCDC 
#
#######################################################################
#
# If this CIF has been generated from an entry in the Cambridge 
# Structural Database, then it will include bibliographic, chemical, 
# crystal, experimental, refinement or atomic coordinate data resulting 
# from the CCDC's data processing and validation procedures.
#
#######################################################################

data_LUQPEU
_chemical_formula_moiety         'C13 H15 N1 O4'
_chemical_name_systematic        't-butyl 3-(4-nitrophenyl)acrylate'
_symmetry_cell_setting           triclinic
_symmetry_space_group_name_H-M   'P -1'
_symmetry_Int_Tables_number      2
_space_group_name_Hall           '-P 1'
loop_
_symmetry_equiv_pos_site_id
_symmetry_equiv_pos_as_xyz
1 x,y,z
2 -x,-y,-z
_cell_length_a                   6.7081(14)
_cell_length_b                   8.217(2)
_cell_length_c                   11.371(2)
_cell_angle_alpha                98.476(4)
_cell_angle_beta                 90.999(4)
_cell_angle_gamma                97.196(4)
_cell_volume                     614.634
_exptl_crystal_colour            colorless
_exptl_crystal_description       plate
_cell_formula_units_Z            2
_exptl_crystal_recrystallization_method 
'Re-crystallisation from solvent: ethyl acetate, hexane'
loop_
_atom_site_label
_atom_site_type_symbol
_atom_site_fract_x
_atom_site_fract_y
_atom_site_fract_z
N1 N 0.2962(4) 1.0377(3) -0.1536(2)
C1 C -0.0070(4) 0.2132(4) 0.4887(2)
H1 H -0.0356 0.1418 0.4118
H2 H -0.0966 0.2994 0.4971
H3 H -0.0291 0.1462 0.5530
O1 O 0.2314(3) 0.4182(2) 0.41305(15)
C2 C 0.2568(5) 0.4004(4) 0.6158(2)
H4 H 0.3911 0.4630 0.6155
H5 H 0.2536 0.3295 0.6780
H6 H 0.1572 0.4778 0.6314
O2 O 0.1607(3) 0.2324(3) 0.24527(16)
O3 O 0.3397(3) 1.0068(3) -0.25865(17)
C3 C 0.3578(5) 0.1725(4) 0.4693(2)
H7 H 0.3248 0.1052 0.3912
H8 H 0.3535 0.1000 0.5306
H9 H 0.4931 0.2335 0.4691
O4 O 0.2686(3) 1.1765(3) -0.10671(17)
C4 C 0.2082(4) 0.2932(3) 0.4953(2)
C5 C 0.2019(4) 0.3716(4) 0.2945(2)
C6 C 0.2299(4) 0.5220(4) 0.2358(2)
H10 H 0.2531 0.6288 0.2827
C7 C 0.2224(4) 0.5079(4) 0.1180(2)
H11 H 0.2029 0.3992 0.0739
C8 C 0.2424(4) 0.6492(4) 0.0511(2)
C9 C 0.2129(4) 0.8079(4) 0.1016(2)
H12 H 0.1807 0.8288 0.1830
C10 C 0.2299(4) 0.9355(4) 0.0353(2)
H13 H 0.2083 1.0443 0.0695
C11 C 0.2792(4) 0.9015(4) -0.0830(2)
C12 C 0.3087(4) 0.7460(4) -0.1360(2)
H14 H 0.3423 0.7264 -0.2173
C13 C 0.2886(4) 0.6188(4) -0.0691(2)
H15 H 0.3061 0.5097 -0.1046
loop_
_geom_bond_atom_site_label_1
_geom_bond_atom_site_label_2
_geom_bond_site_symmetry_1
_geom_bond_site_symmetry_2
N1 O3 1_555 1_555
C1 H1 1_555 1_555
H2 C1 1_555 1_555
H3 C1 1_555 1_555
O1 C4 1_555 1_555
C2 H4 1_555 1_555
H5 C2 1_555 1_555
H6 C2 1_555 1_555
O2 C5 1_555 1_555
C3 H7 1_555 1_555
H8 C3 1_555 1_555
H9 C3 1_555 1_555
O4 N1 1_555 1_555
C4 C1 1_555 1_555
C5 O1 1_555 1_555
C6 C5 1_555 1_555
H10 C6 1_555 1_555
C7 C6 1_555 1_555
H11 C7 1_555 1_555
C8 C7 1_555 1_555
C9 C8 1_555 1_555
H12 C9 1_555 1_555
C10 C9 1_555 1_555
H13 C10 1_555 1_555
C11 N1 1_555 1_555
C12 C11 1_555 1_555
H14 C12 1_555 1_555
C13 C8 1_555 1_555
H15 C13 1_555 1_555
C2 C4 1_555 1_555
C3 C4 1_555 1_555
C10 C11 1_555 1_555
C12 C13 1_555 1_555

#END
