
#######################################################################
#
#                 Cambridge Crystallographic Data Centre
#                                CCDC 
#
#######################################################################
#
# If this CIF has been generated from an entry in the Cambridge 
# Structural Database, then it will include bibliographic, chemical, 
# crystal, experimental, refinement or atomic coordinate data resulting 
# from the CCDC's data processing and validation procedures.
#
#######################################################################

data_LUQPOE
_chemical_formula_moiety         'C8 H20 N1 1+,C2 H1 O4 1-'
_chemical_name_systematic        'dibutylammonium hydrogen oxalate'
_symmetry_cell_setting           triclinic
_symmetry_space_group_name_H-M   'P -1'
_symmetry_Int_Tables_number      2
_space_group_name_Hall           '-P 1'
loop_
_symmetry_equiv_pos_site_id
_symmetry_equiv_pos_as_xyz
1 x,y,z
2 -x,-y,-z
_cell_length_a                   5.5144(3)
_cell_length_b                   9.4520(5)
_cell_length_c                   13.4040(5)
_cell_angle_alpha                74.239(4)
_cell_angle_beta                 84.747(4)
_cell_angle_gamma                81.205(4)
_cell_volume                     663.552
_exptl_crystal_colour            colorless
_exptl_crystal_description       prism
_chemical_melting_point          '370 K'
_cell_formula_units_Z            2
_exptl_crystal_recrystallization_method water
loop_
_atom_site_label
_atom_site_type_symbol
_atom_site_fract_x
_atom_site_fract_y
_atom_site_fract_z
O1 O 0.30304(16) 0.95800(11) 0.03632(7)
O2 O 0.14429(18) 1.11487(13) -0.10559(8)
C1 C 0.1268(2) 1.02324(15) -0.02205(10)
O1A O -0.30304(16) 1.04200(11) -0.03632(7)
O2A O -0.14429(18) 0.88513(13) 0.10559(8)
C1A C -0.1268(2) 0.97676(15) 0.02205(10)
N1 N -0.2251(2) 1.25918(12) -0.24689(8)
H1 H -0.1222 1.3070 -0.2988
H2 H -0.1301 1.2045 -0.1930
C2 C -0.3455(3) 1.15675(16) -0.28656(11)
H3 H -0.4403 1.2141 -0.3472
H4 H -0.4617 1.1078 -0.2320
C3 C -0.4018(3) 1.37221(16) -0.20994(11)
H5 H -0.5188 1.3219 -0.1565
H6 H -0.4968 1.4364 -0.2686
C4 C -0.1590(4) 1.04068(19) -0.31780(13)
H7 H -0.0723 0.9791 -0.2559
H8 H -0.0358 1.0900 -0.3684
C5 C -0.2678(3) 1.46633(19) -0.16476(13)
H9 H -0.1944 1.4040 -0.0999
H10 H -0.1320 1.5021 -0.2143
C6 C -0.2763(6) 0.9422(2) -0.36537(16)
H11 H -0.3526 1.0035 -0.4299
H12 H -0.4089 0.9000 -0.3167
C7 C -0.4311(5) 1.5980(2) -0.14146(16)
H13 H -0.5699 1.5623 -0.0938
H14 H -0.5002 1.6619 -0.2068
C8 C -0.2991(6) 1.6905(3) -0.09278(19)
H15 H -0.1606 1.7258 -0.1392
H16 H -0.2380 1.6296 -0.0261
H17 H -0.4135 1.7756 -0.0817
C9 C -0.0990(8) 0.8163(3) -0.3907(2)
H18 H -0.1862 0.7593 -0.4235
H19 H -0.0299 0.7513 -0.3267
H20 H 0.0340 0.8568 -0.4385
O3 O -0.29891(17) 1.46478(13) -0.46284(7)
O4 O -0.14842(17) 1.60286(12) -0.61142(7)
C10 C -0.1266(2) 1.52141(15) -0.52382(10)
O3A O 0.29891(17) 1.53522(13) -0.53716(7)
O4A O 0.14842(17) 1.39714(12) -0.38858(7)
C10A C 0.1266(2) 1.47859(15) -0.47618(10)
H21? H -0.5000 1.5000 -0.5000
H22? H 0.5000 1.0000 0.0000
loop_
_geom_bond_atom_site_label_1
_geom_bond_atom_site_label_2
_geom_bond_site_symmetry_1
_geom_bond_site_symmetry_2
O1 C1 1_555 1_555
O2 C1 1_555 1_555
C1 C1A 1_555 1_555
N1 H1 1_555 1_555
H2 N1 1_555 1_555
C2 N1 1_555 1_555
H3 C2 1_555 1_555
H4 C2 1_555 1_555
C3 N1 1_555 1_555
H5 C3 1_555 1_555
H6 C3 1_555 1_555
C4 C2 1_555 1_555
H7 C4 1_555 1_555
H8 C4 1_555 1_555
C5 C3 1_555 1_555
H9 C5 1_555 1_555
H10 C5 1_555 1_555
C6 C4 1_555 1_555
H11 C6 1_555 1_555
H12 C6 1_555 1_555
C7 C5 1_555 1_555
H13 C7 1_555 1_555
H14 C7 1_555 1_555
C8 C7 1_555 1_555
H15 C8 1_555 1_555
H16 C8 1_555 1_555
H17 C8 1_555 1_555
C9 C6 1_555 1_555
H18 C9 1_555 1_555
H19 C9 1_555 1_555
H20 C9 1_555 1_555
O3 C10 1_555 1_555
O4 C10 1_555 1_555
C10 C10A 1_555 1_555
O1A C1A 1_555 1_555
O2A C1A 1_555 1_555
O3A C10A 1_555 1_555
O4A C10A 1_555 1_555

#END
