
#######################################################################
#
#                 Cambridge Crystallographic Data Centre
#                                CCDC 
#
#######################################################################
#
# If this CIF has been generated from an entry in the Cambridge 
# Structural Database, then it will include bibliographic, chemical, 
# crystal, experimental, refinement or atomic coordinate data resulting 
# from the CCDC's data processing and validation procedures.
#
#######################################################################

data_LUQWID
_chemical_formula_moiety         'C16 H10 N2 O2'
_chemical_name_systematic        2,3-bis(Fur-2-yl)quinoxaline
_chemical_properties_biological  'antispasmodic activity'
_symmetry_cell_setting           orthorhombic
_symmetry_space_group_name_H-M   'P n a 21'
_symmetry_Int_Tables_number      33
_space_group_name_Hall           'P 2c -2n'
loop_
_symmetry_equiv_pos_site_id
_symmetry_equiv_pos_as_xyz
1 x,y,z
2 -x,-y,1/2+z
3 1/2+x,1/2-y,z
4 1/2-x,1/2+y,1/2+z
_cell_length_a                   15.721(5)
_cell_length_b                   16.945(5)
_cell_length_c                   4.6961(15)
_cell_angle_alpha                90
_cell_angle_beta                 90
_cell_angle_gamma                90
_cell_volume                     1251.01
_exptl_crystal_colour            colorless
_exptl_crystal_description       block
_cell_formula_units_Z            4
loop_
_atom_site_label
_atom_site_type_symbol
_atom_site_fract_x
_atom_site_fract_y
_atom_site_fract_z
O1 O 0.77618(8) 0.82168(8) 0.5039(4)
O2 O 0.55426(7) 0.67324(7) 0.2253(3)
N1 N 0.72809(8) 0.57317(8) 0.0437(4)
N2 N 0.82567(9) 0.70932(8) 0.1494(3)
C1 C 0.80564(11) 0.58415(10) -0.0826(4)
C2 C 0.83653(12) 0.52666(11) -0.2729(5)
H1 H 0.8031 0.4800 -0.3043
C3 C 0.91073(14) 0.53879(13) -0.4132(5)
H2 H 0.9308 0.4991 -0.5417
C4 C 0.95774(12) 0.60832(13) -0.3699(5)
H3 H 1.0073 0.6187 -0.4821
C5 C 0.93017(11) 0.66456(11) -0.1844(5)
H4 H 0.9599 0.7128 -0.1492
C6 C 0.85300(10) 0.65310(10) -0.0363(4)
C7 C 0.75143(10) 0.69830(9) 0.2738(4)
C8 C 0.72443(10) 0.75705(9) 0.4809(4)
C9 C 0.66042(11) 0.76334(10) 0.6703(4)
H5 H 0.6155 0.7267 0.7087
C10 C 0.67250(12) 0.83526(11) 0.8204(5)
H6 H 0.6370 0.8536 0.9717
C11 C 0.74189(13) 0.86782(11) 0.7139(6)
H7 H 0.7717 0.9155 0.7566
C12 C 0.70006(10) 0.62957(9) 0.2108(4)
C13 C 0.61335(10) 0.62001(9) 0.3224(4)
C14 C 0.57651(12) 0.56912(11) 0.5027(5)
H8 H 0.6067 0.5289 0.6016
C15 C 0.48928(12) 0.59155(12) 0.5225(6)
H9 H 0.4467 0.5656 0.6337
C16 C 0.47907(11) 0.65347(13) 0.3539(6)
H10 H 0.4314 0.6849 0.2940
loop_
_geom_bond_atom_site_label_1
_geom_bond_atom_site_label_2
_geom_bond_site_symmetry_1
_geom_bond_site_symmetry_2
O1 C8 1_555 1_555
O2 C13 1_555 1_555
N1 C1 1_555 1_555
N2 C6 1_555 1_555
C1 C2 1_555 1_555
C2 H1 1_555 1_555
C3 C2 1_555 1_555
H2 C3 1_555 1_555
C4 C3 1_555 1_555
H3 C4 1_555 1_555
C5 C4 1_555 1_555
H4 C5 1_555 1_555
C6 C1 1_555 1_555
C7 N2 1_555 1_555
C8 C7 1_555 1_555
C9 C8 1_555 1_555
H5 C9 1_555 1_555
C10 C9 1_555 1_555
H6 C10 1_555 1_555
C11 O1 1_555 1_555
H7 C11 1_555 1_555
C12 N1 1_555 1_555
C13 C12 1_555 1_555
C14 C13 1_555 1_555
H8 C14 1_555 1_555
C15 C14 1_555 1_555
H9 C15 1_555 1_555
C16 O2 1_555 1_555
H10 C16 1_555 1_555
C5 C6 1_555 1_555
C7 C12 1_555 1_555
C10 C11 1_555 1_555
C15 C16 1_555 1_555

#END
