
#######################################################################
#
#                 Cambridge Crystallographic Data Centre
#                                CCDC 
#
#######################################################################
#
# If this CIF has been generated from an entry in the Cambridge 
# Structural Database, then it will include bibliographic, chemical, 
# crystal, experimental, refinement or atomic coordinate data resulting 
# from the CCDC's data processing and validation procedures.
#
#######################################################################

data_LUQYEC
_chemical_formula_moiety         'C15 H11 F1 O2'
_chemical_name_systematic        2-(3-Fluorophenyl)-5-methoxy-1-benzofuran
_symmetry_cell_setting           monoclinic
_symmetry_space_group_name_H-M   'P 21/c'
_symmetry_Int_Tables_number      14
_space_group_name_Hall           '-P 2ybc'
loop_
_symmetry_equiv_pos_site_id
_symmetry_equiv_pos_as_xyz
1 x,y,z
2 -x,1/2+y,1/2-z
3 -x,-y,-z
4 x,1/2-y,1/2+z
_cell_length_a                   13.6138(2)
_cell_length_b                   15.0083(3)
_cell_length_c                   5.77770(10)
_cell_angle_alpha                90
_cell_angle_beta                 101.3810(10)
_cell_angle_gamma                90
_cell_volume                     1157.29
_exptl_crystal_colour            silver
_exptl_crystal_description       block
_cell_formula_units_Z            4
loop_
_atom_site_label
_atom_site_type_symbol
_atom_site_fract_x
_atom_site_fract_y
_atom_site_fract_z
O1 O 0.96649(7) 0.40843(6) 0.18552(17)
C1 C 0.93444(12) 0.36965(9) -0.0336(2)
C2 C 1.01282(11) 0.33692(9) -0.1178(3)
H1 H 1.0096 0.3073 -0.2605
C3 C 1.20453(11) 0.34171(10) 0.0681(3)
H2 H 1.2284 0.3119 -0.0507
C4 C 1.26907(11) 0.37326(10) 0.2650(3)
C5 C 1.23334(12) 0.41657(10) 0.4465(3)
H3 H 1.2788 0.4365 0.5781
C6 C 1.13303(12) 0.43034(10) 0.4348(3)
H4 H 1.1091 0.4589 0.5554
C7 C 1.06932(11) 0.39971(9) 0.2352(3)
C8 C 1.10172(11) 0.35604(9) 0.0524(2)
O2 O 1.37153(8) 0.36594(8) 0.3020(2)
C9 C 1.41294(13) 0.32490(14) 0.1209(3)
H5 H 1.4846 0.3235 0.1673
H6 H 1.3943 0.3584 -0.0226
H7 H 1.3878 0.2652 0.0960
C10 C 0.82722(11) 0.37316(9) -0.1273(3)
C11 C 0.76277(12) 0.41371(10) -0.0011(3)
H8 H 0.7872 0.4382 0.1470
C12 C 0.66268(13) 0.41704(11) -0.0983(3)
C13 C 0.62185(13) 0.38234(12) -0.3144(3)
H9 H 0.5535 0.3863 -0.3762
C14 C 0.68671(14) 0.34093(12) -0.4377(3)
H10 H 0.6613 0.3155 -0.5840
C15 C 0.78721(13) 0.33685(10) -0.3482(3)
H11 H 0.8294 0.3096 -0.4352
F1 F 0.60128(8) 0.45790(8) 0.0268(2)
loop_
_geom_bond_atom_site_label_1
_geom_bond_atom_site_label_2
_geom_bond_site_symmetry_1
_geom_bond_site_symmetry_2
O1 C1 1_555 1_555
C1 C2 1_555 1_555
C2 H1 1_555 1_555
C3 H2 1_555 1_555
C4 C3 1_555 1_555
C5 C4 1_555 1_555
H3 C5 1_555 1_555
C6 C5 1_555 1_555
H4 C6 1_555 1_555
C7 O1 1_555 1_555
C8 C2 1_555 1_555
O2 C4 1_555 1_555
C9 O2 1_555 1_555
H5 C9 1_555 1_555
H6 C9 1_555 1_555
H7 C9 1_555 1_555
C10 C1 1_555 1_555
C11 C10 1_555 1_555
H8 C11 1_555 1_555
C12 C11 1_555 1_555
C13 C12 1_555 1_555
H9 C13 1_555 1_555
C14 C13 1_555 1_555
H10 C14 1_555 1_555
C15 C10 1_555 1_555
H11 C15 1_555 1_555
F1 C12 1_555 1_555
C3 C8 1_555 1_555
C6 C7 1_555 1_555
C7 C8 1_555 1_555
C14 C15 1_555 1_555

#END
