
#######################################################################
#
#                 Cambridge Crystallographic Data Centre
#                                CCDC 
#
#######################################################################
#
# If this CIF has been generated from an entry in the Cambridge 
# Structural Database, then it will include bibliographic, chemical, 
# crystal, experimental, refinement or atomic coordinate data resulting 
# from the CCDC's data processing and validation procedures.
#
#######################################################################

data_LUQYIG
_chemical_formula_moiety         'C15 H12 O2'
_chemical_name_systematic        5-Methoxy-2-phenyl-1-benzofuran
_symmetry_cell_setting           orthorhombic
_symmetry_space_group_name_H-M   'P b c a'
_symmetry_Int_Tables_number      61
_space_group_name_Hall           '-P 2ac 2ab'
loop_
_symmetry_equiv_pos_site_id
_symmetry_equiv_pos_as_xyz
1 x,y,z
2 1/2-x,-y,1/2+z
3 -x,1/2+y,1/2-z
4 1/2+x,1/2-y,-z
5 -x,-y,-z
6 1/2+x,y,1/2-z
7 x,1/2-y,1/2+z
8 1/2-x,1/2+y,z
_cell_length_a                   14.9852(8)
_cell_length_b                   5.7581(3)
_cell_length_c                   26.3143(12)
_cell_angle_alpha                90
_cell_angle_beta                 90
_cell_angle_gamma                90
_cell_volume                     2270.56
_exptl_crystal_colour            silver
_exptl_crystal_description       block
_cell_formula_units_Z            8
loop_
_atom_site_label
_atom_site_type_symbol
_atom_site_fract_x
_atom_site_fract_y
_atom_site_fract_z
O1 O 0.59154(6) 0.17550(16) 0.39805(4)
C1 C 0.62991(9) 0.3792(2) 0.41578(6)
C2 C 0.66221(9) 0.5058(2) 0.37682(5)
H1 H 0.6914 0.6479 0.3793
C3 C 0.65775(9) 0.4224(2) 0.27889(6)
H2 H 0.6873 0.5549 0.2677
C4 C 0.62636(9) 0.2583(2) 0.24502(6)
C5 C 0.58250(9) 0.0581(3) 0.26165(6)
H3 H 0.5620 -0.0487 0.2378
C6 C 0.56900(10) 0.0159(3) 0.31252(6)
H4 H 0.5405 -0.1179 0.3238
C7 C 0.64343(9) 0.3818(2) 0.33077(5)
C8 C 0.59987(9) 0.1819(2) 0.34584(6)
O2 O 0.63388(7) 0.27451(19) 0.19296(4)
C9 C 0.67518(13) 0.4765(3) 0.17316(6)
H5 H 0.6767 0.4676 0.1367
H6 H 0.7350 0.4877 0.1860
H7 H 0.6418 0.6111 0.1833
C10 C 0.62585(9) 0.4160(2) 0.47033(6)
C11 C 0.66247(10) 0.6149(3) 0.49185(6)
H8 H 0.6907 0.7233 0.4712
C12 C 0.65744(12) 0.6534(3) 0.54338(7)
H9 H 0.6831 0.7862 0.5573
C13 C 0.61464(12) 0.4966(3) 0.57457(7)
H10 H 0.6107 0.5239 0.6093
C14 C 0.57789(11) 0.2999(3) 0.55395(7)
H11 H 0.5488 0.1936 0.5748
C15 C 0.58394(10) 0.2590(3) 0.50232(6)
H12 H 0.5595 0.1240 0.4888
loop_
_geom_bond_atom_site_label_1
_geom_bond_atom_site_label_2
_geom_bond_site_symmetry_1
_geom_bond_site_symmetry_2
O1 C1 1_555 1_555
C1 C2 1_555 1_555
C2 H1 1_555 1_555
C3 H2 1_555 1_555
C4 C3 1_555 1_555
C5 C4 1_555 1_555
H3 C5 1_555 1_555
C6 C5 1_555 1_555
H4 C6 1_555 1_555
C7 C2 1_555 1_555
C8 O1 1_555 1_555
O2 C4 1_555 1_555
C9 O2 1_555 1_555
H5 C9 1_555 1_555
H6 C9 1_555 1_555
H7 C9 1_555 1_555
C10 C1 1_555 1_555
C11 C10 1_555 1_555
H8 C11 1_555 1_555
C12 C11 1_555 1_555
H9 C12 1_555 1_555
C13 C12 1_555 1_555
H10 C13 1_555 1_555
C14 C13 1_555 1_555
H11 C14 1_555 1_555
C15 C10 1_555 1_555
H12 C15 1_555 1_555
C3 C7 1_555 1_555
C6 C8 1_555 1_555
C7 C8 1_555 1_555
C14 C15 1_555 1_555

#END
