
#######################################################################
#
#                 Cambridge Crystallographic Data Centre
#                                CCDC 
#
#######################################################################
#
# If this CIF has been generated from an entry in the Cambridge 
# Structural Database, then it will include bibliographic, chemical, 
# crystal, experimental, refinement or atomic coordinate data resulting 
# from the CCDC's data processing and validation procedures.
#
#######################################################################

data_LURCAE
_chemical_formula_moiety         'C19 H15 Cl1 N1 O1 P1'
_chemical_name_systematic        
'(R)-2-Chloro-5-methyl-6-phenyl-5,6-dihydrodibenzo[c,e][1,2]azaphosphinine 6-oxide'
_symmetry_cell_setting           monoclinic
_symmetry_space_group_name_H-M   'P 21'
_symmetry_Int_Tables_number      4
_space_group_name_Hall           'P 2yb'
loop_
_symmetry_equiv_pos_site_id
_symmetry_equiv_pos_as_xyz
1 x,y,z
2 -x,1/2+y,-z
_cell_length_a                   9.7479(12)
_cell_length_b                   7.3124(9)
_cell_length_c                   23.224(3)
_cell_angle_alpha                90
_cell_angle_beta                 98.009(3)
_cell_angle_gamma                90
_cell_volume                     1639.27
_exptl_crystal_colour            colorless
_exptl_crystal_description       prismatic
_cell_formula_units_Z            4
loop_
_atom_site_label
_atom_site_type_symbol
_atom_site_fract_x
_atom_site_fract_y
_atom_site_fract_z
P1 P 0.69828(12) 0.48531(18) 0.92729(5)
Cl1 Cl 1.0882(2) 0.5895(3) 1.20349(6)
N1 N 0.6676(4) 0.5630(6) 0.99233(17)
O1 O 0.6638(4) 0.2919(5) 0.91527(15)
C1 C 0.8760(5) 0.5436(7) 0.92735(19)
C2 C 0.9256(5) 0.5473(8) 0.8739(2)
H1 H 0.8652 0.5275 0.8398
C3 C 1.0629(5) 0.5799(9) 0.8713(2)
H2 H 1.0953 0.5827 0.8354
C4 C 1.1522(5) 0.6083(9) 0.9210(2)
H3 H 1.2456 0.6283 0.9189
C5 C 1.1065(5) 0.6078(7) 0.9743(2)
H4 H 1.1691 0.6296 1.0076
C6 C 0.9658(4) 0.5749(7) 0.97942(18)
C7 C 0.9141(5) 0.5777(7) 1.03607(19)
C8 C 1.0082(5) 0.5821(8) 1.08729(19)
H5 H 1.1027 0.5828 1.0850
C9 C 0.9644(6) 0.5856(9) 1.1409(2)
C10 C 0.8273(7) 0.5884(10) 1.1463(2)
H6 H 0.7993 0.5951 1.1829
C11 C 0.7294(6) 0.5812(9) 1.0968(2)
H7 H 0.6357 0.5807 1.1005
C12 C 0.7705(5) 0.5747(7) 1.04116(19)
C13 C 0.5977(5) 0.6297(7) 0.8741(2)
C14 C 0.4971(6) 0.5552(9) 0.8339(2)
H8 H 0.4782 0.4306 0.8347
C15 C 0.4228(6) 0.6672(10) 0.7918(2)
H9 H 0.3537 0.6167 0.7648
C16 C 0.4505(6) 0.8494(10) 0.7898(2)
H10 H 0.4013 0.9222 0.7612
C17 C 0.5506(6) 0.9258(9) 0.8298(3)
H11 H 0.5697 1.0501 0.8282
C18 C 0.6233(5) 0.8184(8) 0.8725(2)
H12 H 0.6894 0.8712 0.9003
C19 C 0.5225(6) 0.5499(10) 1.0027(3)
H13 H 0.4998 0.6543 1.0246
H14 H 0.5101 0.4404 1.0242
H15 H 0.4629 0.5466 0.9662
P2 P 0.24440(13) 0.85083(19) 0.57579(5)
Cl2 Cl 0.4576(3) 0.7532(4) 0.30141(7)
N2 N 0.1723(4) 0.7707(6) 0.51140(18)
O2 O 0.2167(4) 1.0458(5) 0.58663(16)
C20 C 0.4211(5) 0.7918(7) 0.5770(2)
C21 C 0.5041(5) 0.7873(9) 0.6308(2)
H16 H 0.4643 0.8061 0.6645
C22 C 0.6446(6) 0.7552(10) 0.6350(2)
H17 H 0.6996 0.7554 0.6711
C23 C 0.7019(5) 0.7233(9) 0.5854(2)
H18 H 0.7965 0.7007 0.5882
C24 C 0.6228(6) 0.7239(8) 0.5316(2)
H19 H 0.6644 0.7005 0.4987
C25 C 0.4790(5) 0.7597(7) 0.52563(19)
C26 C 0.3916(6) 0.7555(7) 0.4684(2)
C27 C 0.4556(7) 0.7532(9) 0.4173(2)
H20 H 0.5517 0.7531 0.4202
C28 C 0.3765(7) 0.7513(10) 0.3636(2)
C29 C 0.2352(8) 0.7449(11) 0.3580(2)
H21 H 0.1835 0.7375 0.3213
C30 C 0.1687(7) 0.7493(10) 0.4071(3)
H22 H 0.0725 0.7453 0.4030
C31 C 0.2445(5) 0.7595(7) 0.4622(2)
C32 C 0.1758(5) 0.7076(8) 0.6281(2)
C33 C 0.0956(5) 0.7837(9) 0.6673(2)
H23 H 0.0781 0.9087 0.6666
C34 C 0.0424(6) 0.6739(11) 0.7070(3)
H24 H -0.0129 0.7249 0.7324
C35 C 0.0701(7) 0.4912(12) 0.7093(3)
H25 H 0.0352 0.4184 0.7368
C36 C 0.1498(7) 0.4139(9) 0.6710(3)
H26 H 0.1685 0.2891 0.6726
C37 C 0.2012(6) 0.5213(8) 0.6308(2)
H27 H 0.2541 0.4683 0.6048
C38 C 0.0206(6) 0.7837(10) 0.5008(3)
H28 H -0.0166 0.6782 0.4794
H29 H -0.0060 0.8921 0.4787
H30 H -0.0150 0.7894 0.5373
loop_
_geom_bond_atom_site_label_1
_geom_bond_atom_site_label_2
_geom_bond_site_symmetry_1
_geom_bond_site_symmetry_2
P1 N1 1_555 1_555
Cl1 C9 1_555 1_555
N1 C12 1_555 1_555
O1 P1 1_555 1_555
C1 P1 1_555 1_555
C2 C1 1_555 1_555
H1 C2 1_555 1_555
C3 C2 1_555 1_555
H2 C3 1_555 1_555
C4 C3 1_555 1_555
H3 C4 1_555 1_555
C5 C4 1_555 1_555
H4 C5 1_555 1_555
C6 C1 1_555 1_555
C7 C6 1_555 1_555
C8 C7 1_555 1_555
H5 C8 1_555 1_555
C9 C8 1_555 1_555
C10 C9 1_555 1_555
H6 C10 1_555 1_555
C11 C10 1_555 1_555
H7 C11 1_555 1_555
C12 C7 1_555 1_555
C13 P1 1_555 1_555
C14 C13 1_555 1_555
H8 C14 1_555 1_555
C15 C14 1_555 1_555
H9 C15 1_555 1_555
C16 C15 1_555 1_555
H10 C16 1_555 1_555
C17 C16 1_555 1_555
H11 C17 1_555 1_555
C18 C13 1_555 1_555
H12 C18 1_555 1_555
C19 N1 1_555 1_555
H13 C19 1_555 1_555
H14 C19 1_555 1_555
H15 C19 1_555 1_555
P2 N2 1_555 1_555
Cl2 C28 1_555 1_555
N2 C31 1_555 1_555
O2 P2 1_555 1_555
C20 P2 1_555 1_555
C21 C20 1_555 1_555
H16 C21 1_555 1_555
C22 C21 1_555 1_555
H17 C22 1_555 1_555
C23 C22 1_555 1_555
H18 C23 1_555 1_555
C24 C23 1_555 1_555
H19 C24 1_555 1_555
C25 C20 1_555 1_555
C26 C25 1_555 1_555
C27 C26 1_555 1_555
H20 C27 1_555 1_555
C28 C27 1_555 1_555
C29 C28 1_555 1_555
H21 C29 1_555 1_555
C30 C29 1_555 1_555
H22 C30 1_555 1_555
C31 C26 1_555 1_555
C32 P2 1_555 1_555
C33 C32 1_555 1_555
H23 C33 1_555 1_555
C34 C33 1_555 1_555
H24 C34 1_555 1_555
C35 C34 1_555 1_555
H25 C35 1_555 1_555
C36 C35 1_555 1_555
H26 C36 1_555 1_555
C37 C32 1_555 1_555
H27 C37 1_555 1_555
C38 N2 1_555 1_555
H28 C38 1_555 1_555
H29 C38 1_555 1_555
H30 C38 1_555 1_555
C5 C6 1_555 1_555
C11 C12 1_555 1_555
C17 C18 1_555 1_555
C24 C25 1_555 1_555
C30 C31 1_555 1_555
C36 C37 1_555 1_555

#END
