
#######################################################################
#
#                 Cambridge Crystallographic Data Centre
#                                CCDC 
#
#######################################################################
#
# If this CIF has been generated from an entry in the Cambridge 
# Structural Database, then it will include bibliographic, chemical, 
# crystal, experimental, refinement or atomic coordinate data resulting 
# from the CCDC's data processing and validation procedures.
#
#######################################################################

data_LURKUG
_chemical_name_common            'Vaticanol B'
_chemical_formula_moiety         'C66 H62 O12'
_chemical_name_systematic        
3-(3-(3,5-dimethoxyphenyl)-6-methoxy-2-(4-methoxyphenyl)-2,3-dihydro-1-benzofuran-4-yl)-2,6,8-trimethoxy-4,5,10-tris(4-methoxyphenyl)-3,4,4a,5,9b,10-hexahydro-11-oxabenzo[5,6]cyclohepta[1,2,3,4-jkl]-as-indacene
_symmetry_cell_setting           monoclinic
_symmetry_space_group_name_H-M   'P 21'
_symmetry_Int_Tables_number      4
_space_group_name_Hall           'P 2yb'
loop_
_symmetry_equiv_pos_site_id
_symmetry_equiv_pos_as_xyz
1 x,y,z
2 -x,1/2+y,-z
_cell_length_a                   15.5983(6)
_cell_length_b                   12.4215(3)
_cell_length_c                   16.8136(7)
_cell_angle_alpha                90
_cell_angle_beta                 117.230(5)
_cell_angle_gamma                90
_cell_volume                     2896.68
_exptl_crystal_colour            colorless
_exptl_crystal_description       plate
_cell_formula_units_Z            2
loop_
_atom_site_label
_atom_site_type_symbol
_atom_site_fract_x
_atom_site_fract_y
_atom_site_fract_z
O1 O 1.1446(3) -0.3152(4) 0.7350(3)
O2 O 0.9163(3) 0.0892(5) 0.7086(2)
O3 O 0.1506(3) 0.1104(6) 0.2506(4)
O4 O 0.7140(4) 0.1957(4) -0.1855(3)
O5 O 0.4454(2) -0.2071(3) 0.4239(2)
O6 O 0.8472(2) -0.2222(3) 0.3261(2)
O7 O 0.5278(4) 0.4147(3) 0.0431(3)
O8 O 0.1658(5) 0.0349(9) -0.0997(6)
O9 O 0.5767(3) -0.5496(3) 0.3953(3)
O10 O 0.6751(2) 0.0657(3) 0.1154(2)
O11 O 0.7538(3) 0.4084(3) 0.3526(2)
O12 O 0.1874(6) 0.3494(6) 0.0725(5)
C1 C 0.9162(3) -0.2888(4) 0.4797(3)
C2 C 0.6800(3) -0.0408(4) 0.4882(3)
C3 C 0.4282(3) 0.0836(4) 0.2757(3)
C4 C 0.5494(5) 0.2984(5) -0.0624(3)
C5 C 0.9512(4) -0.1981(4) 0.5326(4)
C6 C 0.7395(3) 0.0328(4) 0.4769(3)
C7 C 0.4127(4) 0.1194(4) 0.3467(3)
C8 C 0.5155(5) 0.2237(6) -0.1331(4)
C9 C 1.0280(4) -0.2033(5) 0.6184(4)
C10 C 0.8191(4) 0.0758(4) 0.5481(3)
C11 C 0.3217(5) 0.1269(5) 0.3411(4)
C12 C 0.5704(5) 0.1937(6) -0.1723(4)
C13 C 1.0718(4) -0.3005(5) 0.6503(4)
C14 C 0.8420(4) 0.0479(5) 0.6342(3)
C15 C 0.2439(4) 0.1047(6) 0.2639(4)
C16 C 0.6632(5) 0.2334(5) -0.1419(4)
C17 C 1.0419(4) -0.3918(5) 0.5958(4)
C18 C 0.7834(5) -0.0265(6) 0.6464(3)
C19 C 0.2545(4) 0.0683(7) 0.1916(4)
C20 C 0.6964(5) 0.3057(6) -0.0730(4)
C21 C 0.9643(4) -0.3849(4) 0.5118(4)
C22 C 0.7055(4) -0.0711(5) 0.5761(3)
C23 C 0.3458(4) 0.0592(5) 0.1974(3)
C24 C 0.6395(5) 0.3373(5) -0.0336(4)
C25 C 0.8270(4) -0.2808(4) 0.3918(3)
C26 C 0.5890(3) -0.0916(4) 0.4125(3)
C27 C 0.5290(3) 0.0644(4) 0.2890(3)
C28 C 0.4844(5) 0.3273(5) -0.0207(4)
C29 C 0.7428(3) -0.2179(4) 0.3990(3)
C30 C 0.5600(3) -0.0548(4) 0.3159(3)
C31 C 0.5519(3) 0.0872(4) 0.2083(3)
C32 C 0.4680(4) 0.2305(4) 0.0326(3)
C33 C 0.6620(3) -0.2771(4) 0.4060(3)
C34 C 0.6376(3) -0.0687(4) 0.2879(3)
C35 C 0.5819(3) 0.2024(4) 0.2060(3)
C36 C 0.3653(5) 0.2208(6) 0.0185(4)
C37 C 0.5904(3) -0.2149(4) 0.4139(3)
C38 C 0.7115(3) -0.1442(4) 0.3195(3)
C39 C 0.5420(4) 0.2616(4) 0.1269(3)
C40 C 0.3066(5) 0.1403(8) -0.0360(4)
C41 C 0.5132(3) -0.2693(4) 0.4158(3)
C42 C 0.7749(3) -0.1483(4) 0.2837(3)
C43 C 0.5717(5) 0.3681(4) 0.1272(4)
C44 C 0.2148(7) 0.1283(9) -0.0497(6)
C45 C 0.5064(4) -0.3824(4) 0.4110(3)
C46 C 0.7664(3) -0.0801(4) 0.2148(3)
C47 C 0.6385(5) 0.4192(4) 0.2020(4)
C48 C 0.1775(6) 0.2012(10) -0.0127(6)
C49 C 0.5785(4) -0.4399(4) 0.4030(3)
C50 C 0.6933(3) -0.0033(4) 0.1848(3)
C51 C 0.6799(4) 0.3574(4) 0.2802(3)
C52 C 0.2362(7) 0.2840(7) 0.0405(5)
C53 C 0.6547(3) -0.3888(4) 0.4010(3)
C54 C 0.6303(3) 0.0058(4) 0.2235(3)
C55 C 0.6523(4) 0.2529(4) 0.2821(3)
C56 C 0.3292(5) 0.2935(6) 0.0576(4)
C57 C 1.1660(5) -0.2293(6) 0.7977(4)
C58 C 0.9779(7) 0.1626(9) 0.6976(5)
C59 C 0.1390(8) 0.1360(13) 0.3300(9)
C60 C 0.8055(8) 0.2372(9) -0.1599(6)
C61 C 0.3582(4) -0.2541(5) 0.4134(4)
C62 C 0.0717(15) -0.0004(11) -0.0908(9)
C63 C 0.4904(6) -0.6030(6) 0.3575(7)
C64 C 0.7271(5) 0.0510(5) 0.0656(4)
C65 C 0.7875(4) 0.3563(5) 0.4370(4)
C66 C 0.2398(8) 0.4191(11) 0.1275(7)
H1 H 1.11070 -0.21340 0.80480
H2 H 1.21760 -0.24990 0.85270
H3 H 0.92240 -0.13030 0.50950
H4 H 0.72550 0.05440 0.41820
H5 H 0.46720 0.13950 0.40110
H6 H 0.45250 0.19470 -0.15440
H7 H 1.18390 -0.16740 0.77490
H8 H 1.04920 -0.14030 0.65470
H9 H 0.85850 0.12580 0.53670
H10 H 0.31440 0.14800 0.39210
H11 H 0.54580 0.14390 -0.22060
H12 H 1.01830 0.19630 0.75270
H13 H 1.01470 0.12980 0.67320
H14 H 1.07430 -0.45840 0.61710
H15 H 0.79810 -0.04840 0.70550
H16 H 0.19940 0.05080 0.13720
H17 H 0.75840 0.33660 -0.05320
H18 H 0.93810 0.21820 0.65640
H19 H 0.94380 -0.44810 0.47530
H20 H 0.66820 -0.12380 0.58720
H21 H 0.35260 0.03450 0.14710
H22 H 0.66500 0.38700 0.01480
H23 H 0.07790 0.10760 0.32080
H24 H 0.80540 -0.35100 0.36990
H25 H 0.53690 -0.07130 0.42420
H26 H 0.57130 0.10780 0.33760
H27 H 0.42350 0.35040 -0.06660
H28 H 0.18870 0.10280 0.37990
H29 H 0.77230 -0.17360 0.45030
H30 H 0.50720 -0.09860 0.27730
H31 H 0.49580 0.07070 0.15370
H32 H 0.48710 0.16500 0.01590
H33 H 0.13960 0.21080 0.33640
H34 H 0.84090 0.19270 -0.18050
H35 H 0.33180 0.09220 -0.06420
H36 H 0.84090 0.23880 -0.09480
H37 H 0.80220 0.30790 -0.18110
H38 H 0.45370 -0.41860 0.41270
H39 H 0.80930 -0.08620 0.18900
H40 H 0.65580 0.49240 0.20070
H41 H 0.11190 0.19250 -0.02330
H42 H 0.32000 -0.27350 0.35220
H43 H 0.32400 -0.20420 0.43060
H44 H 0.70330 -0.42980 0.39610
H45 H 0.68180 0.21330 0.33620
H46 H 0.36910 0.34870 0.09540
H47 H 0.37180 -0.31700 0.44940
H48 H 0.09270 -0.03240 -0.03510
H49 H 0.03580 0.06250 -0.09670
H50 H 0.03800 -0.04860 -0.13790
H51 H 0.44360 -0.56090 0.36490
H52 H 0.49770 -0.67020 0.38630
H53 H 0.47110 -0.61310 0.29590
H54 H 0.79420 0.05880 0.10380
H55 H 0.70700 0.10360 0.01940
H56 H 0.71460 -0.01880 0.03980
H57 H 0.73470 0.33900 0.44800
H58 H 0.83100 0.40190 0.48250
H59 H 0.82010 0.29120 0.43610
H60 H 0.28600 0.38220 0.17910
H61 H 0.19980 0.46170 0.14390
H62 H 0.26990 0.46080 0.10170
loop_
_geom_bond_atom_site_label_1
_geom_bond_atom_site_label_2
_geom_bond_site_symmetry_1
_geom_bond_site_symmetry_2
O1 C13 1_555 1_555
O2 C14 1_555 1_555
O3 C15 1_555 1_555
O4 C16 1_555 1_555
O5 C41 1_555 1_555
O6 C25 1_555 1_555
O7 C28 1_555 1_555
O8 C44 1_555 1_555
O9 C49 1_555 1_555
O10 C50 1_555 1_555
O11 C51 1_555 1_555
O12 C52 1_555 1_555
C1 C5 1_555 1_555
C2 C6 1_555 1_555
C3 C7 1_555 1_555
C4 C8 1_555 1_555
C5 C9 1_555 1_555
C6 C10 1_555 1_555
C7 C11 1_555 1_555
C8 C12 1_555 1_555
C9 C13 1_555 1_555
C10 C14 1_555 1_555
C11 C15 1_555 1_555
C12 C16 1_555 1_555
C13 C17 1_555 1_555
C14 C18 1_555 1_555
C15 C19 1_555 1_555
C16 C20 1_555 1_555
C17 C21 1_555 1_555
C18 C22 1_555 1_555
C19 C23 1_555 1_555
C20 C24 1_555 1_555
C21 C1 1_555 1_555
C22 C2 1_555 1_555
C23 C3 1_555 1_555
C24 C4 1_555 1_555
C25 C1 1_555 1_555
C26 C2 1_555 1_555
C27 C3 1_555 1_555
C28 C4 1_555 1_555
C29 C25 1_555 1_555
C30 C26 1_555 1_555
C31 C27 1_555 1_555
C32 C28 1_555 1_555
C33 C29 1_555 1_555
C34 C30 1_555 1_555
C35 C31 1_555 1_555
C36 C32 1_555 1_555
C37 C26 1_555 1_555
C38 C29 1_555 1_555
C39 C32 1_555 1_555
C40 C36 1_555 1_555
C41 C37 1_555 1_555
C42 O6 1_555 1_555
C43 O7 1_555 1_555
C44 C40 1_555 1_555
C45 C41 1_555 1_555
C46 C42 1_555 1_555
C47 C43 1_555 1_555
C48 C44 1_555 1_555
C49 C45 1_555 1_555
C50 C46 1_555 1_555
C51 C47 1_555 1_555
C52 C48 1_555 1_555
C53 C33 1_555 1_555
C54 C31 1_555 1_555
C55 C35 1_555 1_555
C56 C36 1_555 1_555
C57 O1 1_555 1_555
C58 O2 1_555 1_555
C59 O3 1_555 1_555
C60 O4 1_555 1_555
C61 O5 1_555 1_555
C62 O8 1_555 1_555
C63 O9 1_555 1_555
C64 O10 1_555 1_555
C65 O11 1_555 1_555
C66 O12 1_555 1_555
H1 C57 1_555 1_555
H2 C57 1_555 1_555
H3 C5 1_555 1_555
H4 C6 1_555 1_555
H5 C7 1_555 1_555
H6 C8 1_555 1_555
H7 C57 1_555 1_555
H8 C9 1_555 1_555
H9 C10 1_555 1_555
H10 C11 1_555 1_555
H11 C12 1_555 1_555
H12 C58 1_555 1_555
H13 C58 1_555 1_555
H14 C17 1_555 1_555
H15 C18 1_555 1_555
H16 C19 1_555 1_555
H17 C20 1_555 1_555
H18 C58 1_555 1_555
H19 C21 1_555 1_555
H20 C22 1_555 1_555
H21 C23 1_555 1_555
H22 C24 1_555 1_555
H23 C59 1_555 1_555
H24 C25 1_555 1_555
H25 C26 1_555 1_555
H26 C27 1_555 1_555
H27 C28 1_555 1_555
H28 C59 1_555 1_555
H29 C29 1_555 1_555
H30 C30 1_555 1_555
H31 C31 1_555 1_555
H32 C32 1_555 1_555
H33 C59 1_555 1_555
H34 C60 1_555 1_555
H35 C40 1_555 1_555
H36 C60 1_555 1_555
H37 C60 1_555 1_555
H38 C45 1_555 1_555
H39 C46 1_555 1_555
H40 C47 1_555 1_555
H41 C48 1_555 1_555
H42 C61 1_555 1_555
H43 C61 1_555 1_555
H44 C53 1_555 1_555
H45 C55 1_555 1_555
H46 C56 1_555 1_555
H47 C61 1_555 1_555
H48 C62 1_555 1_555
H49 C62 1_555 1_555
H50 C62 1_555 1_555
H51 C63 1_555 1_555
H52 C63 1_555 1_555
H53 C63 1_555 1_555
H54 C64 1_555 1_555
H55 C64 1_555 1_555
H56 C64 1_555 1_555
H57 C65 1_555 1_555
H58 C65 1_555 1_555
H59 C65 1_555 1_555
H60 C66 1_555 1_555
H61 C66 1_555 1_555
H62 C66 1_555 1_555
C27 C30 1_555 1_555
C33 C37 1_555 1_555
C34 C38 1_555 1_555
C34 C54 1_555 1_555
C35 C39 1_555 1_555
C38 C42 1_555 1_555
C39 C43 1_555 1_555
C49 C53 1_555 1_555
C50 C54 1_555 1_555
C51 C55 1_555 1_555
C52 C56 1_555 1_555

#END
