
#######################################################################
#
#                 Cambridge Crystallographic Data Centre
#                                CCDC 
#
#######################################################################
#
# If this CIF has been generated from an entry in the Cambridge 
# Structural Database, then it will include bibliographic, chemical, 
# crystal, experimental, refinement or atomic coordinate data resulting 
# from the CCDC's data processing and validation procedures.
#
#######################################################################

data_LURSAU
_chemical_formula_moiety         'C16 H20 O2'
_chemical_name_systematic        
tetraspiro[2.1.2^5^.1.2^9^.1.2^13^.1^3^]hexadecane-4,12-dione
_symmetry_cell_setting           tetragonal
_symmetry_space_group_name_H-M   'I 41/a'
_symmetry_Int_Tables_number      88
_space_group_name_Hall           '-I 4ad'
loop_
_symmetry_equiv_pos_site_id
_symmetry_equiv_pos_as_xyz
1 x,y,z
2 -x,1/2-y,z
3 3/4-y,1/4+x,1/4+z
4 1/4+y,1/4-x,1/4+z
5 1/2+x,1/2+y,1/2+z
6 1/2-x,-y,1/2+z
7 1/4-y,3/4+x,3/4+z
8 3/4+y,3/4-x,3/4+z
9 -x,-y,-z
10 x,1/2+y,-z
11 1/4+y,3/4-x,3/4-z
12 3/4-y,3/4+x,3/4-z
13 1/2-x,1/2-y,1/2-z
14 1/2+x,y,1/2-z
15 3/4+y,1/4-x,1/4-z
16 1/4-y,1/4+x,1/4-z
_cell_length_a                   15.0481(6)
_cell_length_b                   15.0481(6)
_cell_length_c                   11.6992(5)
_cell_angle_alpha                90
_cell_angle_beta                 90
_cell_angle_gamma                90
_cell_volume                     2649.23
_exptl_crystal_colour            colorless
_exptl_crystal_description       prism
_cell_formula_units_Z            8
_exptl_crystal_preparation       CH~3~CN
loop_
_atom_site_label
_atom_site_type_symbol
_atom_site_fract_x
_atom_site_fract_y
_atom_site_fract_z
C1 C 0.8741(2) 0.91380(16) 0.0779(2)
H1 H 0.8126 0.9037 0.0568
H2 H 0.8850 0.9695 0.1173
C2 C 0.94318(18) 0.88116(17) -0.0002(2)
H3 H 0.9965 0.9168 -0.0087
H4 H 0.9240 0.8510 -0.0692
C3 C 0.92910(13) 0.83352(13) 0.11345(18)
C4 C 0.88111(13) 0.74746(14) 0.10256(18)
C5 C 0.90710(13) 0.66785(13) 0.17182(18)
C6 C 0.85205(16) 0.58548(14) 0.1514(2)
H5 H 0.8070 0.5880 0.0922
H6 H 0.8813 0.5284 0.1590
C7 C 0.83636(18) 0.63751(16) 0.2571(2)
H7 H 0.8564 0.6123 0.3289
H8 H 0.7820 0.6720 0.2619
C8 C 0.99656(14) 0.84784(14) 0.20655(17)
H9 H 0.9825 0.8085 0.2697
H10 H 0.9910 0.9084 0.2341
O1 O 0.81799(12) 0.74176(12) 0.03660(19)
C1A C 1.1259(2) 0.58620(16) 0.0779(2)
H1A H 1.1874 0.5963 0.0568
H2A H 1.1150 0.5305 0.1173
C2A C 1.05682(18) 0.61884(17) -0.0002(2)
H3A H 1.0035 0.5832 -0.0087
H4A H 1.0760 0.6490 -0.0692
C3A C 1.07090(13) 0.66648(13) 0.11345(18)
C4A C 1.11889(13) 0.75254(14) 0.10256(18)
C5A C 1.09290(13) 0.83215(13) 0.17182(18)
C6A C 1.14795(16) 0.91452(14) 0.1514(2)
H5A H 1.1930 0.9120 0.0922
H6A H 1.1187 0.9716 0.1590
C7A C 1.16364(18) 0.86249(16) 0.2571(2)
H7A H 1.1436 0.8877 0.3289
H8A H 1.2180 0.8280 0.2619
C8A C 1.00344(14) 0.65216(14) 0.20655(17)
H9A H 1.0175 0.6915 0.2697
H10A H 1.0090 0.5916 0.2341
O1A O 1.18201(12) 0.75824(12) 0.03660(19)
loop_
_geom_bond_atom_site_label_1
_geom_bond_atom_site_label_2
_geom_bond_site_symmetry_1
_geom_bond_site_symmetry_2
C1 H1 1_555 1_555
H2 C1 1_555 1_555
C2 C1 1_555 1_555
H3 C2 1_555 1_555
H4 C2 1_555 1_555
C3 C1 1_555 1_555
C4 C3 1_555 1_555
C5 C4 1_555 1_555
C6 C5 1_555 1_555
H5 C6 1_555 1_555
H6 C6 1_555 1_555
C7 C5 1_555 1_555
H7 C7 1_555 1_555
H8 C7 1_555 1_555
C8 C3 1_555 1_555
H9 C8 1_555 1_555
H10 C8 1_555 1_555
O1 C4 1_555 1_555
C1A H1A 1_555 1_555
H2A C1A 1_555 1_555
C2A C1A 1_555 1_555
H3A C2A 1_555 1_555
H4A C2A 1_555 1_555
C3A C1A 1_555 1_555
C4A C3A 1_555 1_555
C5A C8 1_555 1_555
C6A C5A 1_555 1_555
H5A C6A 1_555 1_555
H6A C6A 1_555 1_555
C7A C5A 1_555 1_555
H7A C7A 1_555 1_555
H8A C7A 1_555 1_555
C8A C5 1_555 1_555
H9A C8A 1_555 1_555
H10A C8A 1_555 1_555
O1A C4A 1_555 1_555
C2 C3 1_555 1_555
C6 C7 1_555 1_555
C2A C3A 1_555 1_555
C3A C8A 1_555 1_555
C4A C5A 1_555 1_555
C6A C7A 1_555 1_555

#END
