
#######################################################################
#
#                 Cambridge Crystallographic Data Centre
#                                CCDC 
#
#######################################################################
#
# If this CIF has been generated from an entry in the Cambridge 
# Structural Database, then it will include bibliographic, chemical, 
# crystal, experimental, refinement or atomic coordinate data resulting 
# from the CCDC's data processing and validation procedures.
#
#######################################################################

data_LURVUR
_chemical_formula_moiety         'C14 H14 N2 O2'
_chemical_name_systematic        N-(1-oxidopyridin-2-yl)-3-phenylpropanamide
_symmetry_cell_setting           monoclinic
_symmetry_space_group_name_H-M   'P 21/n'
_symmetry_Int_Tables_number      14
_space_group_name_Hall           '-P 2yn'
loop_
_symmetry_equiv_pos_site_id
_symmetry_equiv_pos_as_xyz
1 x,y,z
2 1/2-x,1/2+y,1/2-z
3 -x,-y,-z
4 1/2+x,1/2-y,1/2+z
_cell_length_a                   13.7515(8)
_cell_length_b                   4.7970(3)
_cell_length_c                   18.4272(12)
_cell_angle_alpha                90
_cell_angle_beta                 95.504(6)
_cell_angle_gamma                90
_cell_volume                     1209.96
_cell_formula_units_Z            4
loop_
_atom_site_label
_atom_site_type_symbol
_atom_site_fract_x
_atom_site_fract_y
_atom_site_fract_z
O1 O 0.78627(8) -0.2308(2) 0.71209(6)
O2 O 0.46708(9) -0.0107(3) 0.60151(7)
N1 N 0.74470(9) -0.3477(3) 0.65258(7)
N2 N 0.61809(9) -0.0425(3) 0.66305(7)
C1 C 0.78945(12) -0.5594(3) 0.62065(10)
H1 H 0.8481 -0.6288 0.6428
C2 C 0.75060(13) -0.6731(4) 0.55690(10)
H2 H 0.7823 -0.8188 0.5357
C3 C 0.66391(13) -0.5708(4) 0.52396(9)
H3 H 0.6374 -0.6435 0.4796
C4 C 0.61672(12) -0.3605(4) 0.55701(8)
H4 H 0.5578 -0.2919 0.5352
C5 C 0.65644(10) -0.2501(3) 0.62261(8)
C6 C 0.52559(11) 0.0674(3) 0.65078(8)
C7 C 0.50016(12) 0.2806(3) 0.70520(8)
H5 H 0.4588 0.4229 0.6809
H6 H 0.5593 0.3697 0.7268
C8 C 0.44693(13) 0.1426(3) 0.76483(9)
H7 H 0.3885 0.0520 0.7425
H8 H 0.4887 -0.0003 0.7884
C9 C 0.41860(12) 0.3431(3) 0.82165(9)
C10 C 0.32217(14) 0.4040(4) 0.82925(10)
H9 H 0.2734 0.3181 0.7987
C11 C 0.29670(16) 0.5897(5) 0.88130(12)
H10 H 0.2312 0.6273 0.8859
C12 C 0.36793(16) 0.7185(4) 0.92610(11)
H11 H 0.3510 0.8462 0.9607
C13 C 0.46406(15) 0.6594(4) 0.91993(10)
H12 H 0.5125 0.7458 0.9507
C14 C 0.48918(13) 0.4726(3) 0.86834(9)
H13 H 0.5547 0.4327 0.8648
H14 H 0.6581(13) 0.014(3) 0.7012(10)
loop_
_geom_bond_atom_site_label_1
_geom_bond_atom_site_label_2
_geom_bond_site_symmetry_1
_geom_bond_site_symmetry_2
O1 N1 1_555 1_555
O2 C6 1_555 1_555
N1 C1 1_555 1_555
N2 C5 1_555 1_555
C1 H1 1_555 1_555
C2 C1 1_555 1_555
H2 C2 1_555 1_555
C3 C2 1_555 1_555
H3 C3 1_555 1_555
C4 C3 1_555 1_555
H4 C4 1_555 1_555
C5 N1 1_555 1_555
C6 N2 1_555 1_555
C7 C6 1_555 1_555
H5 C7 1_555 1_555
H6 C7 1_555 1_555
C8 C7 1_555 1_555
H7 C8 1_555 1_555
H8 C8 1_555 1_555
C9 C8 1_555 1_555
C10 C9 1_555 1_555
H9 C10 1_555 1_555
C11 C10 1_555 1_555
H10 C11 1_555 1_555
C12 C11 1_555 1_555
H11 C12 1_555 1_555
C13 C12 1_555 1_555
H12 C13 1_555 1_555
C14 C9 1_555 1_555
H13 C14 1_555 1_555
H14 N2 1_555 1_555
C4 C5 1_555 1_555
C13 C14 1_555 1_555

#END
