
#######################################################################
#
#                 Cambridge Crystallographic Data Centre
#                                CCDC 
#
#######################################################################
#
# If this CIF has been generated from an entry in the Cambridge 
# Structural Database, then it will include bibliographic, chemical, 
# crystal, experimental, refinement or atomic coordinate data resulting 
# from the CCDC's data processing and validation procedures.
#
#######################################################################

data_LUSKUF
_chemical_formula_moiety         'C15 H12 N4'
_chemical_name_systematic        bis(7-Azaindolyl)methane
_symmetry_cell_setting           monoclinic
_symmetry_space_group_name_H-M   'P 21/c'
_symmetry_Int_Tables_number      14
_space_group_name_Hall           '-P 2ybc'
loop_
_symmetry_equiv_pos_site_id
_symmetry_equiv_pos_as_xyz
1 x,y,z
2 -x,1/2+y,1/2-z
3 -x,-y,-z
4 x,1/2-y,1/2+z
_cell_length_a                   10.944(16)
_cell_length_b                   13.071(19)
_cell_length_c                   8.483(12)
_cell_angle_alpha                90
_cell_angle_beta                 99.05(2)
_cell_angle_gamma                90
_cell_volume                     1198.38
_exptl_crystal_colour            colorless
_chemical_melting_point          140-141deg.C
_cell_formula_units_Z            4
_exptl_crystal_recrystallization_method 'ethyl acetate/hexanes'
loop_
_atom_site_label
_atom_site_type_symbol
_atom_site_fract_x
_atom_site_fract_y
_atom_site_fract_z
N1 N 0.2078(1) 0.7707(1) 0.2741(1)
N2 N 0.2953(1) 0.6082(1) 0.2435(2)
N3 N 0.0043(1) 0.7028(1) 0.2227(1)
N4 N -0.0831(1) 0.8635(1) 0.1440(1)
C1 C 0.2361(1) 0.8682(1) 0.2362(2)
C2 C 0.3379(2) 0.8692(1) 0.1679(2)
C3 C 0.3777(1) 0.7678(1) 0.1603(2)
C4 C 0.4730(1) 0.7170(2) 0.1055(2)
C5 C 0.4773(2) 0.6145(2) 0.1223(2)
C6 C 0.3891(2) 0.5641(2) 0.1901(2)
C7 C 0.2942(1) 0.7079(1) 0.2274(1)
C8 C -0.0189(2) 0.6043(1) 0.1738(2)
C9 C -0.1141(1) 0.6007(1) 0.0545(2)
C10 C -0.1558(1) 0.7018(1) 0.0249(1)
C11 C -0.2464(1) 0.7506(1) -0.0791(2)
C12 C -0.2539(2) 0.8535(1) -0.0677(2)
C13 C -0.1727(2) 0.9059(1) 0.0429(2)
C14 C -0.0792(1) 0.7635(1) 0.1315(1)
C15 C 0.1025(1) 0.7384(1) 0.3410(2)
H1 H 0.1844(16) 0.9242(13) 0.2570(19)
H2 H 0.3756(17) 0.9290(15) 0.1310(20)
H3 H 0.5350(20) 0.7543(14) 0.0570(20)
H4 H 0.5402(19) 0.5761(14) 0.0890(20)
H5 H 0.3899(18) 0.4930(18) 0.2030(20)
H6 H 0.0292(15) 0.5488(12) 0.2204(18)
H7 H -0.1472(15) 0.5409(12) 0.0029(19)
H8 H -0.3015(16) 0.7127(12) -0.1560(20)
H9 H -0.3167(17) 0.8896(13) -0.1370(20)
H10 H -0.1822(17) 0.9802(15) 0.0520(20)
H11 H 0.0724(14) 0.7956(12) 0.3961(17)
H12 H 0.1245(16) 0.6848(13) 0.4150(20)
loop_
_geom_bond_atom_site_label_1
_geom_bond_atom_site_label_2
_geom_bond_site_symmetry_1
_geom_bond_site_symmetry_2
N1 C1 1_555 1_555
N2 C6 1_555 1_555
N3 C8 1_555 1_555
N4 C13 1_555 1_555
C1 C2 1_555 1_555
C2 C3 1_555 1_555
C3 C4 1_555 1_555
C4 C5 1_555 1_555
C5 C6 1_555 1_555
C6 H5 1_555 1_555
C7 N1 1_555 1_555
C8 C9 1_555 1_555
C9 C10 1_555 1_555
C10 C11 1_555 1_555
C11 C12 1_555 1_555
C12 C13 1_555 1_555
C13 H10 1_555 1_555
C14 N3 1_555 1_555
C15 N1 1_555 1_555
H1 C1 1_555 1_555
H2 C2 1_555 1_555
H3 C4 1_555 1_555
H4 C5 1_555 1_555
H6 C8 1_555 1_555
H7 C9 1_555 1_555
H8 C11 1_555 1_555
H9 C12 1_555 1_555
H11 C15 1_555 1_555
H12 C15 1_555 1_555
N2 C7 1_555 1_555
N3 C15 1_555 1_555
N4 C14 1_555 1_555
C3 C7 1_555 1_555
C10 C14 1_555 1_555

#END
