
#######################################################################
#
#                 Cambridge Crystallographic Data Centre
#                                CCDC 
#
#######################################################################
#
# If this CIF has been generated from an entry in the Cambridge 
# Structural Database, then it will include bibliographic, chemical, 
# crystal, experimental, refinement or atomic coordinate data resulting 
# from the CCDC's data processing and validation procedures.
#
#######################################################################

data_LUSLOA01
_chemical_formula_moiety         'C13 H14 D2 O2'
_chemical_name_systematic        2-Hydroxy-6-dideutero-1-benzoylcyclohexane
_symmetry_cell_setting           monoclinic
_symmetry_space_group_name_H-M   'P 21/c'
_symmetry_Int_Tables_number      14
_space_group_name_Hall           '-P 2ybc'
loop_
_symmetry_equiv_pos_site_id
_symmetry_equiv_pos_as_xyz
1 x,y,z
2 x,1/2-y,1/2+z
3 -x,-y,-z
4 -x,1/2+y,1/2-z
_cell_length_a                   9.842(1)
_cell_length_b                   9.236(1)
_cell_length_c                   12.168(2)
_cell_angle_alpha                90.00
_cell_angle_beta                 92.31(1)
_cell_angle_gamma                90.00
_cell_volume                     1105.18
_exptl_crystal_colour            colorless
_exptl_crystal_description       plates
_cell_formula_units_Z            4
loop_
_atom_site_label
_atom_site_type_symbol
_atom_site_fract_x
_atom_site_fract_y
_atom_site_fract_z
O1 O -0.07230(21) -0.00072(21) 0.67256(18)
O2 O 0.20448(21) 0.05503(23) 0.53789(17)
C1 C -0.03947(17) 0.14246(18) 0.71111(15)
C2 C 0.06328(17) 0.21970(18) 0.63584(14)
C3 C -0.00514(18) 0.25945(18) 0.52366(15)
C4 C -0.12954(18) 0.35561(18) 0.53895(15)
C5 C -0.23291(17) 0.27968(19) 0.61065(15)
C6 C -0.16600(19) 0.23686(19) 0.72254(15)
C7 C 0.18859(17) 0.12662(17) 0.62269(14)
C8 C 0.29685(17) 0.12150(18) 0.71374(14)
C9 C 0.28932(18) 0.20299(18) 0.81114(15)
C10 C 0.39384(18) 0.19549(19) 0.89239(15)
C11 C 0.50726(18) 0.10652(19) 0.87691(15)
C12 C 0.51569(18) 0.02405(20) 0.77999(16)
C13 C 0.41104(18) 0.03163(19) 0.69919(15)
H1 H -0.1149(5) 0.0027(5) 0.5976(4)
H2 H 0.0092(4) 0.1271(4) 0.79335(33)
H3 H 0.0935(4) 0.3210(4) 0.67889(35)
H6 H -0.0982(5) 0.4581(4) 0.5793(4)
H7 H -0.1753(4) 0.3867(5) 0.45714(34)
H8 H -0.2732(4) 0.1831(4) 0.5676(4)
H9 H -0.3207(4) 0.3502(5) 0.6241(4)
H10 H -0.1337(4) 0.3372(4) 0.7689(4)
H11 H -0.2393(4) 0.1780(5) 0.7730(4)
H12 H 0.2038(4) 0.2763(4) 0.8233(4)
H13 H 0.3883(5) 0.2605(5) 0.9672(4)
H14 H 0.5887(4) 0.1009(5) 0.9404(4)
H15 H 0.6025(5) -0.0451(5) 0.7673(4)
H16 H 0.4163(4) -0.0320(5) 0.6243(4)
D1 D -0.0392(8) 0.1593(7) 0.4776(6)
D2 D 0.0703(10) 0.3124(10) 0.4746(9)
H4? H -0.0392(8) 0.1593(7) 0.4776(6)
H5? H 0.0703(10) 0.3124(10) 0.4746(9)
loop_
_geom_bond_atom_site_label_1
_geom_bond_atom_site_label_2
_geom_bond_site_symmetry_1
_geom_bond_site_symmetry_2
O1 C1 1_555 1_555
O2 C7 1_555 1_555
C1 C2 1_555 1_555
C2 C3 1_555 1_555
C3 C4 1_555 1_555
C4 C5 1_555 1_555
C5 C6 1_555 1_555
C6 C1 1_555 1_555
C7 C2 1_555 1_555
C8 C7 1_555 1_555
C9 C8 1_555 1_555
C10 C9 1_555 1_555
C11 C10 1_555 1_555
C12 C11 1_555 1_555
C13 C8 1_555 1_555
H1 O1 1_555 1_555
H2 C1 1_555 1_555
H3 C2 1_555 1_555
H6 C4 1_555 1_555
H7 C4 1_555 1_555
H8 C5 1_555 1_555
H9 C5 1_555 1_555
H10 C6 1_555 1_555
H11 C6 1_555 1_555
H12 C9 1_555 1_555
H13 C10 1_555 1_555
H14 C11 1_555 1_555
H15 C12 1_555 1_555
H16 C13 1_555 1_555
D1 C3 1_555 1_555
D2 C3 1_555 1_555
C12 C13 1_555 1_555

#END
