
#######################################################################
#
#                 Cambridge Crystallographic Data Centre
#                                CCDC 
#
#######################################################################
#
# If this CIF has been generated from an entry in the Cambridge 
# Structural Database, then it will include bibliographic, chemical, 
# crystal, experimental, refinement or atomic coordinate data resulting 
# from the CCDC's data processing and validation procedures.
#
#######################################################################

data_LUSSEZ
_chemical_formula_moiety         'C21 H12 F3 N3 O3'
_chemical_name_systematic        
'1,3,5-tris(4-fluorophenyl)-1,3,5-triazinane-2,4,6-trione unknown solvate'
_symmetry_cell_setting           monoclinic
_symmetry_space_group_name_H-M   'C 2/c'
_symmetry_Int_Tables_number      15
_space_group_name_Hall           '-C 2yn'
loop_
_symmetry_equiv_pos_site_id
_symmetry_equiv_pos_as_xyz
1 x,y,z
2 -x,y,1/2-z
3 1/2+x,1/2+y,z
4 1/2-x,1/2+y,1/2-z
5 -x,-y,-z
6 x,-y,1/2+z
7 1/2-x,1/2-y,-z
8 1/2+x,1/2-y,1/2+z
_cell_length_a                   17.763(2)
_cell_length_b                   16.761(2)
_cell_length_c                   8.1510(10)
_cell_angle_alpha                90
_cell_angle_beta                 93.210(2)
_cell_angle_gamma                90
_cell_volume                     2422.95
_exptl_crystal_colour            colorless
_exptl_crystal_description       block
_cell_formula_units_Z            4
loop_
_atom_site_label
_atom_site_type_symbol
_atom_site_fract_x
_atom_site_fract_y
_atom_site_fract_z
C1 C 0.60370(9) 0.64581(9) 0.9581(2)
C2 C 0.58029(10) 0.59050(11) 1.0692(2)
H1 H 0.5291 0.5818 1.0799
C3 C 0.63267(12) 0.54821(11) 1.1644(3)
H2 H 0.6176 0.5098 1.2382
C4 C 0.70680(12) 0.56379(12) 1.1481(3)
C5 C 0.73165(10) 0.61775(12) 1.0403(3)
H3 H 0.7830 0.6265 1.0324
C6 C 0.67925(10) 0.65996(11) 0.9418(2)
H4 H 0.6949 0.6971 0.8661
C7 C 0.5000 0.64502(15) 0.7500
C8 C 0.54988(9) 0.77218(10) 0.8611(2)
C9 C 0.5000 0.89654(13) 0.7500
C10 C 0.55944(10) 0.93722(11) 0.6874(2)
H5 H 0.5994 0.9094 0.6456
C11 C 0.55912(11) 1.01936(11) 0.6873(3)
H6 H 0.5986 1.0480 0.6452
C12 C 0.5000 1.05747(14) 0.7500
F1 F 0.75852(7) 0.52249(8) 1.2426(2)
F2 F 0.5000 1.13839(9) 0.7500
N1 N 0.54869(7) 0.68894(8) 0.85341(18)
N2 N 0.5000 0.81009(11) 0.7500
O1 O 0.5000 0.57311(10) 0.7500
O2 O 0.59133(7) 0.80773(7) 0.95551(16)
C1A C 0.39630(9) 0.64581(9) 0.5419(2)
C2A C 0.41971(10) 0.59050(11) 0.4308(2)
H1A H 0.4709 0.5818 0.4201
C3A C 0.36733(12) 0.54821(11) 0.3356(3)
H2A H 0.3824 0.5098 0.2618
C4A C 0.29320(12) 0.56379(12) 0.3519(3)
C5A C 0.26835(10) 0.61775(12) 0.4597(3)
H3A H 0.2170 0.6265 0.4676
C6A C 0.32075(10) 0.65996(11) 0.5582(2)
H4A H 0.3051 0.6971 0.6339
C8A C 0.45012(9) 0.77218(10) 0.6389(2)
C10A C 0.44056(10) 0.93722(11) 0.8126(2)
H5A H 0.4006 0.9094 0.8544
C11A C 0.44088(11) 1.01936(11) 0.8127(3)
H6A H 0.4014 1.0480 0.8548
F1A F 0.24148(7) 0.52249(8) 0.2574(2)
N1A N 0.45131(7) 0.68894(8) 0.64659(18)
O2A O 0.40867(7) 0.80773(7) 0.54449(16)
loop_
_geom_bond_atom_site_label_1
_geom_bond_atom_site_label_2
_geom_bond_site_symmetry_1
_geom_bond_site_symmetry_2
C1 C2 1_555 1_555
C2 H1 1_555 1_555
C3 C2 1_555 1_555
H2 C3 1_555 1_555
C4 C3 1_555 1_555
C5 C4 1_555 1_555
H3 C5 1_555 1_555
C6 C1 1_555 1_555
H4 C6 1_555 1_555
C7 N1 1_555 1_555
C8 N1 1_555 1_555
C9 C10 1_555 1_555
C10 H5 1_555 1_555
C11 C10 1_555 1_555
H6 C11 1_555 1_555
C12 C11 1_555 1_555
F1 C4 1_555 1_555
F2 C12 1_555 1_555
N1 C1 1_555 1_555
N2 C8 1_555 1_555
O1 C7 1_555 1_555
O2 C8 1_555 1_555
C1A C2A 1_555 1_555
C2A H1A 1_555 1_555
C3A C2A 1_555 1_555
H2A C3A 1_555 1_555
C4A C3A 1_555 1_555
C5A C4A 1_555 1_555
H3A C5A 1_555 1_555
C6A C1A 1_555 1_555
H4A C6A 1_555 1_555
C8A N2 1_555 1_555
C10A C9 1_555 1_555
H5A C10A 1_555 1_555
C11A C12 1_555 1_555
H6A C11A 1_555 1_555
F1A C4A 1_555 1_555
N1A C7 1_555 1_555
O2A C8A 1_555 1_555
C5 C6 1_555 1_555
C9 N2 1_555 1_555
C1A N1A 1_555 1_555
C5A C6A 1_555 1_555
C8A N1A 1_555 1_555
C10A C11A 1_555 1_555

#END
