
#######################################################################
#
#                 Cambridge Crystallographic Data Centre
#                                CCDC 
#
#######################################################################
#
# If this CIF has been generated from an entry in the Cambridge 
# Structural Database, then it will include bibliographic, chemical, 
# crystal, experimental, refinement or atomic coordinate data resulting 
# from the CCDC's data processing and validation procedures.
#
#######################################################################

data_LUTGAI
_chemical_name_common            1-(3-pyridyl)-orthocarborane
_chemical_formula_moiety         'C7 H15 B10 N1'
_chemical_name_systematic        
1-(3-Pyridyl)-1,2-dicarba-closo-dodecaborane(11)
_symmetry_cell_setting           triclinic
_symmetry_space_group_name_H-M   'P -1'
_symmetry_Int_Tables_number      2
_space_group_name_Hall           '-P 1'
loop_
_symmetry_equiv_pos_site_id
_symmetry_equiv_pos_as_xyz
1 x,y,z
2 -x,-y,-z
_cell_length_a                   7.239(1)
_cell_length_b                   7.700(1)
_cell_length_c                   11.198(2)
_cell_angle_alpha                100.05(1)
_cell_angle_beta                 92.30(1)
_cell_angle_gamma                90.57(1)
_cell_volume                     614.016
_exptl_crystal_colour            'light yellow'
_exptl_crystal_description       block
_chemical_melting_point          '402 K'
_cell_formula_units_Z            2
_exptl_crystal_recrystallization_method ethanol
loop_
_atom_site_label
_atom_site_type_symbol
_atom_site_fract_x
_atom_site_fract_y
_atom_site_fract_z
N1 N 0.22613(17) 0.46944(17) 0.04425(12)
C1 C 0.61471(17) 0.31669(16) 0.23562(11)
C2 C 0.83399(17) 0.32853(18) 0.19853(12)
H1 H 0.858(2) 0.411(2) 0.1466(16)
B1 B 0.7796(2) 0.4184(2) 0.34369(14)
H2 H 0.7841 0.5629 0.3820
B2 B 0.6053(2) 0.2731(2) 0.38055(13)
H3 H 0.4948 0.3216 0.4447
B3 B 0.5587(2) 0.10539(19) 0.25041(14)
H4 H 0.4176 0.0440 0.2293
B4 B 0.7036(2) 0.1464(2) 0.13348(14)
H5 H 0.6589 0.1141 0.0351
B5 B 0.9843(2) 0.2964(2) 0.31338(14)
H6 H 1.1245 0.3602 0.3326
B6 B 0.8396(2) 0.2555(2) 0.43089(14)
H7 H 0.8843 0.2916 0.5291
B7 B 0.7039(2) 0.0606(2) 0.37395(15)
H8 H 0.6596 -0.0322 0.4345
B8 B 0.7643(2) -0.0172(2) 0.22016(15)
H9 H 0.7597 -0.1609 0.1794
B9 B 0.9379(2) 0.1289(2) 0.18379(14)
H10 H 1.0479 0.0834 0.1185
C3 C 0.36564(19) 0.37716(19) 0.08358(13)
H11 H 0.3943 0.2671 0.0357
B10 B 0.9380(2) 0.0759(2) 0.33264(14)
H12 H 1.0480 -0.0071 0.3663
C4 C 0.47082(17) 0.43400(17) 0.19080(11)
C5 C 0.42736(19) 0.59472(18) 0.26045(12)
H13 H 0.4955 0.6383 0.3340
C6 C 0.28254(19) 0.69101(18) 0.22093(13)
H14 H 0.2504 0.8014 0.2670
C7 C 0.18633(19) 0.62334(19) 0.11362(13)
H15 H 0.0869 0.6893 0.0877
loop_
_geom_bond_atom_site_label_1
_geom_bond_atom_site_label_2
_geom_bond_site_symmetry_1
_geom_bond_site_symmetry_2
N1 C3 1_555 1_555
C1 C2 1_555 1_555
C2 H1 1_555 1_555
B1 C1 1_555 1_555
H2 B1 1_555 1_555
B2 C1 1_555 1_555
H3 B2 1_555 1_555
B3 C1 1_555 1_555
H4 B3 1_555 1_555
B4 C1 1_555 1_555
H5 B4 1_555 1_555
B5 C2 1_555 1_555
H6 B5 1_555 1_555
B6 B1 1_555 1_555
H7 B6 1_555 1_555
B7 B2 1_555 1_555
H8 B7 1_555 1_555
B8 B3 1_555 1_555
H9 B8 1_555 1_555
B9 C2 1_555 1_555
H10 B9 1_555 1_555
C3 H11 1_555 1_555
B10 B5 1_555 1_555
H12 B10 1_555 1_555
C4 C1 1_555 1_555
C5 C4 1_555 1_555
H13 C5 1_555 1_555
C6 C5 1_555 1_555
H14 C6 1_555 1_555
C7 N1 1_555 1_555
H15 C7 1_555 1_555
C2 B1 1_555 1_555
C2 B4 1_555 1_555
B1 B5 1_555 1_555
B1 B2 1_555 1_555
B2 B6 1_555 1_555
B2 B3 1_555 1_555
B3 B7 1_555 1_555
B3 B4 1_555 1_555
B4 B9 1_555 1_555
B4 B8 1_555 1_555
B5 B9 1_555 1_555
B5 B6 1_555 1_555
B6 B10 1_555 1_555
B6 B7 1_555 1_555
B7 B8 1_555 1_555
B7 B10 1_555 1_555
B8 B9 1_555 1_555
B8 B10 1_555 1_555
B9 B10 1_555 1_555
C3 C4 1_555 1_555
C6 C7 1_555 1_555

#END
