
#######################################################################
#
#                 Cambridge Crystallographic Data Centre
#                                CCDC 
#
#######################################################################
#
# If this CIF has been generated from an entry in the Cambridge 
# Structural Database, then it will include bibliographic, chemical, 
# crystal, experimental, refinement or atomic coordinate data resulting 
# from the CCDC's data processing and validation procedures.
#
#######################################################################

data_LUTJER
_chemical_formula_moiety         'C27 H28 N2 O7 S1'
_chemical_name_systematic        
'diethyl 6-(((4-methylphenyl)sulfonyl)amino)-2-phenyl-2,3-dihydro-4H-1,3-benzoxazine-4,4-dicarboxylate'
_symmetry_cell_setting           monoclinic
_symmetry_space_group_name_H-M   'C 2/c'
_symmetry_Int_Tables_number      15
_space_group_name_Hall           '-C 2yn'
loop_
_symmetry_equiv_pos_site_id
_symmetry_equiv_pos_as_xyz
1 x,y,z
2 -x,y,1/2-z
3 1/2+x,1/2+y,z
4 1/2-x,1/2+y,1/2-z
5 -x,-y,-z
6 x,-y,1/2+z
7 1/2-x,1/2-y,-z
8 1/2+x,1/2-y,1/2+z
_cell_length_a                   18.485(4)
_cell_length_b                   14.715(3)
_cell_length_c                   20.774(4)
_cell_angle_alpha                90
_cell_angle_beta                 105.79(3)
_cell_angle_gamma                90
_cell_volume                     5437.44
_exptl_crystal_colour            colorless
_exptl_crystal_description       block
_cell_formula_units_Z            8
loop_
_atom_site_label
_atom_site_type_symbol
_atom_site_fract_x
_atom_site_fract_y
_atom_site_fract_z
S1 S 0.20187(3) 0.17749(4) 0.25182(3)
O1 O 0.22439(11) 0.09198(13) 0.28360(10)
O2 O 0.20840(11) 0.19437(16) 0.18576(9)
O3 O 0.12280(11) 0.38379(13) 0.50289(9)
O4 O 0.08903(10) 0.44891(12) 0.40158(8)
O5 O -0.07697(10) 0.36768(12) 0.31458(8)
O6 O -0.06823(11) 0.46042(13) 0.40116(9)
O7 O -0.00488(10) 0.14732(11) 0.46466(8)
N1 N 0.11288(11) 0.19146(13) 0.24679(9)
H1 H 0.0854 0.1603 0.2142
N2 N -0.01532(12) 0.30726(14) 0.48000(10)
H2 H -0.0409 0.3499 0.4917
C1 C 0.3615(2) 0.4788(2) 0.4338(2)
H3 H 0.3433 0.4815 0.4728
H4 H 0.3512 0.5353 0.4099
H5 H 0.4148 0.4682 0.4470
C2 C 0.32302(15) 0.40296(19) 0.38935(16)
C3 C 0.30919(15) 0.31990(18) 0.41526(14)
H6 H 0.3241 0.3110 0.4613
C4 C 0.27356(14) 0.24969(17) 0.37399(13)
H7 H 0.2649 0.1943 0.3921
C5 C 0.25101(13) 0.26328(17) 0.30537(12)
C6 C 0.26395(15) 0.3461(2) 0.27832(14)
H8 H 0.2481 0.3554 0.2323
C7 C 0.30053(16) 0.4142(2) 0.32027(16)
H9 H 0.3104 0.4689 0.3019
C8 C 0.08706(12) 0.18094(15) 0.30539(10)
C9 C 0.08020(14) 0.09487(16) 0.33127(12)
H10 H 0.0954 0.0437 0.3121
C10 C 0.05092(14) 0.08555(16) 0.38517(12)
H11 H 0.0474 0.0283 0.4031
C11 C 0.02650(13) 0.16226(15) 0.41279(11)
C12 C 0.03386(12) 0.24851(14) 0.38830(10)
C13 C 0.06452(12) 0.25704(14) 0.33417(10)
H12 H 0.0699 0.3144 0.3172
C14 C 0.01062(12) 0.33169(14) 0.42194(10)
C15 C -0.05253(14) 0.22092(17) 0.47389(12)
H13 H -0.0975 0.2227 0.4358
C16 C -0.07523(15) 0.19900(18) 0.53651(13)
C17 C -0.02074(18) 0.1825(2) 0.59562(14)
H14 H 0.0298 0.1832 0.5962
C18 C -0.0406(3) 0.1649(3) 0.65367(17)
H15 H -0.0035 0.1540 0.6932
C19 C -0.1147(3) 0.1635(3) 0.6536(2)
H16 H -0.1279 0.1528 0.6931
C20 C -0.1694(3) 0.1779(3) 0.5951(3)
H17 H -0.2197 0.1757 0.5949
C21 C -0.1501(2) 0.1960(3) 0.53558(19)
H18 H -0.1873 0.2058 0.4959
C22 C -0.04988(12) 0.38794(15) 0.37219(11)
C23 C -0.11989(17) 0.5244(2) 0.35731(14)
H19 H -0.1488 0.5566 0.3827
H20 H -0.1546 0.4914 0.3215
C24 C -0.0765(2) 0.5898(2) 0.3289(2)
H21 H -0.0516 0.5582 0.3005
H22 H -0.0398 0.6192 0.3644
H23 H -0.1099 0.6345 0.3031
C25 C 0.08079(13) 0.39151(15) 0.44779(11)
C26 C 0.15405(18) 0.5101(2) 0.42104(17)
H24 H 0.2001 0.4753 0.4360
H25 H 0.1498 0.5495 0.4573
C27 C 0.1548(2) 0.5647(3) 0.3615(2)
H26 H 0.1596 0.5250 0.3262
H27 H 0.1966 0.6060 0.3726
H28 H 0.1088 0.5984 0.3470
loop_
_geom_bond_atom_site_label_1
_geom_bond_atom_site_label_2
_geom_bond_site_symmetry_1
_geom_bond_site_symmetry_2
S1 O1 1_555 1_555
O2 S1 1_555 1_555
O3 C25 1_555 1_555
O4 C25 1_555 1_555
O5 C22 1_555 1_555
O6 C22 1_555 1_555
O7 C11 1_555 1_555
N1 S1 1_555 1_555
H1 N1 1_555 1_555
N2 H2 1_555 1_555
C1 H3 1_555 1_555
H4 C1 1_555 1_555
H5 C1 1_555 1_555
C2 C1 1_555 1_555
C3 C2 1_555 1_555
H6 C3 1_555 1_555
C4 C3 1_555 1_555
H7 C4 1_555 1_555
C5 S1 1_555 1_555
C6 C5 1_555 1_555
H8 C6 1_555 1_555
C7 C2 1_555 1_555
H9 C7 1_555 1_555
C8 N1 1_555 1_555
C9 C8 1_555 1_555
H10 C9 1_555 1_555
C10 C9 1_555 1_555
H11 C10 1_555 1_555
C11 C10 1_555 1_555
C12 C11 1_555 1_555
C13 C8 1_555 1_555
H12 C13 1_555 1_555
C14 N2 1_555 1_555
C15 O7 1_555 1_555
H13 C15 1_555 1_555
C16 C15 1_555 1_555
C17 C16 1_555 1_555
H14 C17 1_555 1_555
C18 C17 1_555 1_555
H15 C18 1_555 1_555
C19 C18 1_555 1_555
H16 C19 1_555 1_555
C20 C19 1_555 1_555
H17 C20 1_555 1_555
C21 C16 1_555 1_555
H18 C21 1_555 1_555
C22 C14 1_555 1_555
C23 O6 1_555 1_555
H19 C23 1_555 1_555
H20 C23 1_555 1_555
C24 C23 1_555 1_555
H21 C24 1_555 1_555
H22 C24 1_555 1_555
H23 C24 1_555 1_555
C25 C14 1_555 1_555
C26 O4 1_555 1_555
H24 C26 1_555 1_555
H25 C26 1_555 1_555
C27 C26 1_555 1_555
H26 C27 1_555 1_555
H27 C27 1_555 1_555
H28 C27 1_555 1_555
N2 C15 1_555 1_555
C4 C5 1_555 1_555
C6 C7 1_555 1_555
C12 C13 1_555 1_555
C12 C14 1_555 1_555
C20 C21 1_555 1_555

#END
