
#######################################################################
#
#                 Cambridge Crystallographic Data Centre
#                                CCDC 
#
#######################################################################
#
# If this CIF has been generated from an entry in the Cambridge 
# Structural Database, then it will include bibliographic, chemical, 
# crystal, experimental, refinement or atomic coordinate data resulting 
# from the CCDC's data processing and validation procedures.
#
#######################################################################

data_LUTLOD02
_chemical_formula_moiety         'C23 H18 N2 O3 S1'
_chemical_name_systematic        
N-(5-((4-methylphenyl)sulfonyl)quinolin-8-yl)benzamide
_symmetry_cell_setting           triclinic
_symmetry_space_group_name_H-M   'P -1'
_symmetry_Int_Tables_number      2
_space_group_name_Hall           '-P 1'
loop_
_symmetry_equiv_pos_site_id
_symmetry_equiv_pos_as_xyz
1 x,y,z
2 -x,-y,-z
_cell_length_a                   9.5468(7)
_cell_length_b                   10.4025(10)
_cell_length_c                   11.3177(10)
_cell_angle_alpha                103.606(8)
_cell_angle_beta                 93.641(7)
_cell_angle_gamma                114.473(8)
_cell_volume                     977.68
_cell_formula_units_Z            2
loop_
_atom_site_label
_atom_site_type_symbol
_atom_site_fract_x
_atom_site_fract_y
_atom_site_fract_z
S1 S 0.69326(8) -0.08466(7) 0.22616(6)
C1 C 0.6307(3) 0.0284(2) 0.3299(2)
C2 C 0.4999(3) 0.0367(3) 0.2844(2)
H1 H 0.4472 -0.0207 0.2046
N1 N 0.4755(2) 0.3103(2) 0.54744(18)
H2 H 0.5370 0.3589 0.6178
C3 C 0.7128(3) 0.1133(2) 0.4523(2)
C4 C 0.8260(3) 0.0352(3) 0.1550(2)
C5 C 0.6545(3) 0.2070(3) 0.5215(2)
N2 N 0.7226(2) 0.2949(2) 0.63874(18)
C6 C 0.5175(2) 0.2130(2) 0.4696(2)
O1 O 0.5602(2) -0.1896(2) 0.13342(18)
C7 C 0.3521(3) 0.3398(3) 0.5291(2)
C8 C 0.8468(3) 0.1137(3) 0.5146(2)
H3 H 0.8893 0.0532 0.4749
O2 O 0.2582(3) 0.2815(3) 0.4334(2)
C9 C 0.4418(3) 0.1276(3) 0.3527(2)
H4 H 0.3519 0.1299 0.3187
C10 C 1.0330(3) 0.2313(3) 0.0470(2)
O3 O 0.7783(2) -0.1373(2) 0.29561(18)
C11 C 0.9722(3) 0.1356(3) 0.2208(2)
H5 H 1.0025 0.1376 0.3012
C12 C 0.7826(3) 0.0296(3) 0.0343(2)
H6 H 0.6842 -0.0391 -0.0107
C13 C 0.3381(3) 0.4488(3) 0.6344(3)
C14 C 0.8482(3) 0.2912(3) 0.6899(2)
H7 H 0.8963 0.3520 0.7697
C15 C 0.8872(4) 0.1269(3) -0.0186(3)
H8 H 0.8588 0.1222 -0.1002
C16 C 1.0733(3) 0.2331(3) 0.1666(2)
H9 H 1.1715 0.3020 0.2119
C17 C 0.9127(3) 0.2013(3) 0.6310(2)
H10 H 1.0007 0.2017 0.6716
C18 C 0.4244(4) 0.4980(3) 0.7520(3)
H11 H 0.4981 0.4648 0.7686
C19 C 1.1441(4) 0.3416(4) -0.0100(3)
H12 H 1.1391 0.2935 -0.0948
H13 H 1.2488 0.3811 0.0346
H14 H 1.1148 0.4201 -0.0060
C20 C 0.2270(3) 0.4981(3) 0.6104(3)
H15 H 0.1672 0.4655 0.5318
C21 C 0.2931(6) 0.6447(4) 0.8223(5)
H16 H 0.2775 0.7100 0.8856
C22 C 0.2075(5) 0.5972(4) 0.7067(5)
H17 H 0.1344 0.6316 0.6916
C23 C 0.4020(5) 0.5961(4) 0.8449(3)
H18 H 0.4615 0.6295 0.9237
loop_
_geom_bond_atom_site_label_1
_geom_bond_atom_site_label_2
_geom_bond_site_symmetry_1
_geom_bond_site_symmetry_2
S1 C1 1_555 1_555
C1 C2 1_555 1_555
C2 H1 1_555 1_555
N1 H2 1_555 1_555
C3 C1 1_555 1_555
C4 S1 1_555 1_555
C5 C3 1_555 1_555
N2 C5 1_555 1_555
C6 N1 1_555 1_555
O1 S1 1_555 1_555
C7 N1 1_555 1_555
C8 C3 1_555 1_555
H3 C8 1_555 1_555
O2 C7 1_555 1_555
C9 C2 1_555 1_555
H4 C9 1_555 1_555
C10 C15 1_555 1_555
O3 S1 1_555 1_555
C11 C4 1_555 1_555
H5 C11 1_555 1_555
C12 C4 1_555 1_555
H6 C12 1_555 1_555
C13 C7 1_555 1_555
C14 N2 1_555 1_555
H7 C14 1_555 1_555
C15 C12 1_555 1_555
H8 C15 1_555 1_555
C16 C10 1_555 1_555
H9 C16 1_555 1_555
C17 C8 1_555 1_555
H10 C17 1_555 1_555
C18 C13 1_555 1_555
H11 C18 1_555 1_555
C19 C10 1_555 1_555
H12 C19 1_555 1_555
H13 C19 1_555 1_555
H14 C19 1_555 1_555
C20 C13 1_555 1_555
H15 C20 1_555 1_555
C21 H16 1_555 1_555
C22 C20 1_555 1_555
H17 C22 1_555 1_555
C23 C18 1_555 1_555
H18 C23 1_555 1_555
C5 C6 1_555 1_555
C6 C9 1_555 1_555
C11 C16 1_555 1_555
C14 C17 1_555 1_555
C21 C22 1_555 1_555
C21 C23 1_555 1_555

#END
