
#######################################################################
#
#                 Cambridge Crystallographic Data Centre
#                                CCDC 
#
#######################################################################
#
# If this CIF has been generated from an entry in the Cambridge 
# Structural Database, then it will include bibliographic, chemical, 
# crystal, experimental, refinement or atomic coordinate data resulting 
# from the CCDC's data processing and validation procedures.
#
#######################################################################

data_LUTNIY
_chemical_formula_moiety         'C17 H19 N1 O2 S1'
_chemical_name_systematic        
N-((1,2-Diphenylcyclopropyl)methyl)methanesulfonamide
_symmetry_cell_setting           orthorhombic
_symmetry_space_group_name_H-M   'P 21 21 21'
_symmetry_Int_Tables_number      19
_space_group_name_Hall           'P 2ac 2ab'
loop_
_symmetry_equiv_pos_site_id
_symmetry_equiv_pos_as_xyz
1 x,y,z
2 1/2-x,-y,1/2+z
3 -x,1/2+y,1/2-z
4 1/2+x,1/2-y,-z
_cell_length_a                   5.4264(5)
_cell_length_b                   8.6712(7)
_cell_length_c                   32.044(3)
_cell_angle_alpha                90
_cell_angle_beta                 90
_cell_angle_gamma                90
_cell_volume                     1507.78
_exptl_crystal_colour            colorless
_exptl_crystal_description       plate
_cell_formula_units_Z            4
loop_
_atom_site_label
_atom_site_type_symbol
_atom_site_fract_x
_atom_site_fract_y
_atom_site_fract_z
S1 S 0.42314(8) 0.29280(5) 0.269387(12)
O1 O 0.3178(2) 0.18038(14) 0.29696(4)
N1 N 0.3421(3) 0.24362(17) 0.22256(4)
C1 C 0.7459(3) 0.2810(2) 0.27242(6)
H1 H 0.7995 0.3070 0.3008
H2 H 0.8196 0.3534 0.2525
H3 H 0.7987 0.1758 0.2656
O2 O 0.3568(2) 0.45208(13) 0.27495(4)
C2 C 0.4488(4) 0.33204(19) 0.18770(5)
H4 H 0.6142 0.2904 0.1811
H5 H 0.4691 0.4409 0.1963
C3 C 0.2894(3) 0.32540(19) 0.14892(5)
C4 C 0.0870(4) 0.44256(19) 0.14510(5)
H6 H 0.0555 0.5104 0.1694
H7 H -0.0617 0.4132 0.1291
C5 C 0.3246(3) 0.46638(19) 0.12106(5)
H8 H 0.4338 0.5464 0.1338
C6 C 0.3387(3) 0.46293(19) 0.07453(5)
C7 C 0.1666(3) 0.3900(2) 0.04907(5)
H9 H 0.0325 0.3361 0.0614
C8 C 0.1885(4) 0.3951(2) 0.00613(5)
H10 H 0.0701 0.3444 -0.0109
C9 C 0.3824(3) 0.4736(2) -0.01220(6)
H11 H 0.3966 0.4773 -0.0417
C10 C 0.5553(4) 0.5468(2) 0.01251(6)
H12 H 0.6888 0.6006 0.0000
C11 C 0.5333(3) 0.5413(2) 0.05562(6)
H13 H 0.6526 0.5917 0.0725
C12 C 0.2526(3) 0.16611(19) 0.13164(5)
C13 C 0.4232(4) 0.0995(2) 0.10476(5)
H14 H 0.5633 0.1569 0.0961
C14 C 0.3904(3) -0.0501(2) 0.09051(5)
H15 H 0.5083 -0.0947 0.0722
C15 C 0.1871(3) -0.1349(2) 0.10280(5)
H16 H 0.1646 -0.2370 0.0927
C16 C 0.0167(3) -0.0706(2) 0.12978(5)
H17 H -0.1226 -0.1285 0.1385
C17 C 0.0506(3) 0.0787(2) 0.14395(5)
H18 H -0.0667 0.1224 0.1625
H19 H 0.367(3) 0.152(2) 0.2195(5)
loop_
_geom_bond_atom_site_label_1
_geom_bond_atom_site_label_2
_geom_bond_site_symmetry_1
_geom_bond_site_symmetry_2
S1 O1 1_555 1_555
N1 S1 1_555 1_555
C1 S1 1_555 1_555
H1 C1 1_555 1_555
H2 C1 1_555 1_555
H3 C1 1_555 1_555
O2 S1 1_555 1_555
C2 N1 1_555 1_555
H4 C2 1_555 1_555
H5 C2 1_555 1_555
C3 C2 1_555 1_555
C4 C3 1_555 1_555
H6 C4 1_555 1_555
H7 C4 1_555 1_555
C5 C3 1_555 1_555
H8 C5 1_555 1_555
C6 C5 1_555 1_555
C7 C6 1_555 1_555
H9 C7 1_555 1_555
C8 C7 1_555 1_555
H10 C8 1_555 1_555
C9 C8 1_555 1_555
H11 C9 1_555 1_555
C10 C9 1_555 1_555
H12 C10 1_555 1_555
C11 C6 1_555 1_555
H13 C11 1_555 1_555
C12 C3 1_555 1_555
C13 C12 1_555 1_555
H14 C13 1_555 1_555
C14 C13 1_555 1_555
H15 C14 1_555 1_555
C15 C14 1_555 1_555
H16 C15 1_555 1_555
C16 C15 1_555 1_555
H17 C16 1_555 1_555
C17 C12 1_555 1_555
H18 C17 1_555 1_555
H19 N1 1_555 1_555
C4 C5 1_555 1_555
C10 C11 1_555 1_555
C16 C17 1_555 1_555

#END
