
#######################################################################
#
#                 Cambridge Crystallographic Data Centre
#                                CCDC 
#
#######################################################################
#
# If this CIF has been generated from an entry in the Cambridge 
# Structural Database, then it will include bibliographic, chemical, 
# crystal, experimental, refinement or atomic coordinate data resulting 
# from the CCDC's data processing and validation procedures.
#
#######################################################################

data_LUTREZ
_chemical_formula_moiety         'C24 H20 N2 O4 S1'
_chemical_name_systematic        
N-(5-Methoxy-7-((4-methylphenyl)sulfonyl)quinolin-8-yl)benzamide
_symmetry_cell_setting           triclinic
_symmetry_space_group_name_H-M   'P -1'
_symmetry_Int_Tables_number      2
_space_group_name_Hall           '-P 1'
loop_
_symmetry_equiv_pos_site_id
_symmetry_equiv_pos_as_xyz
1 x,y,z
2 -x,-y,-z
_cell_length_a                   7.261(5)
_cell_length_b                   9.440(5)
_cell_length_c                   15.434(5)
_cell_angle_alpha                92.805(5)
_cell_angle_beta                 95.279(5)
_cell_angle_gamma                96.848(5)
_cell_volume                     1043.98
_exptl_crystal_colour            'red color'
_cell_formula_units_Z            2
loop_
_atom_site_label
_atom_site_type_symbol
_atom_site_fract_x
_atom_site_fract_y
_atom_site_fract_z
S1 S 0.72266(6) 0.59313(4) 0.76798(2)
O1 O 0.81185(19) 0.73800(12) 0.77464(8)
O2 O 0.86274(17) 0.66178(12) 0.45031(7)
N1 N 0.5547(2) 0.30079(13) 0.68970(8)
O3 O 0.75208(17) 0.13184(14) 0.69496(9)
N2 N 0.56465(19) 0.20629(14) 0.51815(9)
O4 O 0.53672(16) 0.56496(13) 0.79318(8)
C1 C 0.7228(2) 0.43690(16) 0.48408(9)
C2 C 0.8663(2) 0.49005(17) 0.83002(9)
C3 C 0.4689(2) 0.08726(15) 0.76258(9)
C4 C 0.7234(2) 0.52777(15) 0.65755(9)
C5 C 0.7979(2) 0.62438(15) 0.59941(10)
H1 H 0.8472 0.7171 0.6190
C6 C 0.6460(2) 0.34231(15) 0.54292(9)
C7 C 0.2791(2) 0.09437(17) 0.74859(11)
H2 H 0.2352 0.1586 0.7103
C8 C 0.6063(2) 0.17277(16) 0.71268(10)
C9 C 0.7967(2) 0.57984(16) 0.51360(9)
C10 C 0.5331(3) -0.00752(18) 0.82084(11)
H3 H 0.6601 -0.0140 0.8306
C11 C 0.6464(2) 0.39039(15) 0.63213(9)
C12 C 0.7186(2) 0.38505(19) 0.39618(10)
H4 H 0.7683 0.4435 0.3551
C13 C 0.4073(3) -0.09243(19) 0.86440(12)
H5 H 0.4505 -0.1545 0.9043
C14 C 0.5641(3) 0.16341(18) 0.43557(11)
H6 H 0.5096 0.0711 0.4179
C15 C 0.1545(3) 0.0072(2) 0.79077(12)
H7 H 0.0272 0.0111 0.7799
C16 C 1.1702(3) 0.4375(3) 0.87896(13)
H8 H 1.2987 0.4546 0.8777
C17 C 1.0969(3) 0.3344(2) 0.93144(11)
C18 C 0.9341(3) 0.8078(2) 0.47409(14)
C19 C 0.7894(3) 0.38770(19) 0.88198(11)
H9 H 0.6609 0.3707 0.8833
C20 C 0.6411(3) 0.2488(2) 0.37261(11)
H10 H 0.6391 0.2124 0.3154
C21 C 0.2196(3) -0.08567(19) 0.84909(12)
H11 H 0.1361 -0.1439 0.8781
C22 C 1.0574(3) 0.5154(2) 0.82851(11)
H12 H 1.1093 0.5843 0.7938
C23 C 0.9058(3) 0.3109(2) 0.93198(11)
H13 H 0.8541 0.2420 0.9667
C24 C 1.2237(4) 0.2517(3) 0.98665(14)
H14 H 1.3510 0.2824 0.9777
H15 H 1.1947 0.1515 0.9704
H16 H 1.2061 0.2685 1.0470
H17 H 0.472(3) 0.334(2) 0.7131(14)
H18 H 1.035(3) 0.816(2) 0.5242(14)
H19 H 0.998(3) 0.837(2) 0.4254(15)
H20 H 0.833(3) 0.861(2) 0.4874(13)
loop_
_geom_bond_atom_site_label_1
_geom_bond_atom_site_label_2
_geom_bond_site_symmetry_1
_geom_bond_site_symmetry_2
S1 O1 1_555 1_555
O2 C9 1_555 1_555
N1 C8 1_555 1_555
O3 C8 1_555 1_555
N2 C6 1_555 1_555
O4 S1 1_555 1_555
C1 C6 1_555 1_555
C2 S1 1_555 1_555
C3 C7 1_555 1_555
C4 S1 1_555 1_555
C5 C4 1_555 1_555
H1 C5 1_555 1_555
C6 C11 1_555 1_555
C7 H2 1_555 1_555
C8 C3 1_555 1_555
C9 C1 1_555 1_555
C10 C3 1_555 1_555
H3 C10 1_555 1_555
C11 N1 1_555 1_555
C12 C1 1_555 1_555
H4 C12 1_555 1_555
C13 C10 1_555 1_555
H5 C13 1_555 1_555
C14 N2 1_555 1_555
H6 C14 1_555 1_555
C15 C7 1_555 1_555
H7 C15 1_555 1_555
C16 H8 1_555 1_555
C17 C16 1_555 1_555
C18 O2 1_555 1_555
C19 C2 1_555 1_555
H9 C19 1_555 1_555
C20 C12 1_555 1_555
H10 C20 1_555 1_555
C21 C13 1_555 1_555
H11 C21 1_555 1_555
C22 C2 1_555 1_555
H12 C22 1_555 1_555
C23 C17 1_555 1_555
H13 C23 1_555 1_555
C24 C17 1_555 1_555
H14 C24 1_555 1_555
H15 C24 1_555 1_555
H16 C24 1_555 1_555
H17 N1 1_555 1_555
H18 C18 1_555 1_555
H19 C18 1_555 1_555
H20 C18 1_555 1_555
C4 C11 1_555 1_555
C5 C9 1_555 1_555
C14 C20 1_555 1_555
C15 C21 1_555 1_555
C16 C22 1_555 1_555
C19 C23 1_555 1_555

#END
