
#######################################################################
#
#                 Cambridge Crystallographic Data Centre
#                                CCDC 
#
#######################################################################
#
# If this CIF has been generated from an entry in the Cambridge 
# Structural Database, then it will include bibliographic, chemical, 
# crystal, experimental, refinement or atomic coordinate data resulting 
# from the CCDC's data processing and validation procedures.
#
#######################################################################

data_LUTVUR
_chemical_formula_moiety         'C46 H66 Li2 N2 O2 P2 Si2'
_chemical_name_systematic        
bis(\m~2~-1-(t-Butyl(dimethyl)silyl)-2,3-diphenyl-1-aza-3-phosphaallyl)-bis(tetrahydrofuran)-di-lithium
_symmetry_cell_setting           triclinic
_symmetry_space_group_name_H-M   'P -1'
_symmetry_Int_Tables_number      2
_space_group_name_Hall           '-P 1'
loop_
_symmetry_equiv_pos_site_id
_symmetry_equiv_pos_as_xyz
1 x,y,z
2 -x,-y,-z
_cell_length_a                   11.861(3)
_cell_length_b                   14.870(4)
_cell_length_c                   15.096(4)
_cell_angle_alpha                78.361(5)
_cell_angle_beta                 74.194(4)
_cell_angle_gamma                81.446(5)
_cell_volume                     2496.72
_exptl_crystal_colour            red-orange
_chemical_melting_point          '166-168 deg.C'
_cell_formula_units_Z            2
_exptl_crystal_recrystallization_method 'diethyl ether'
loop_
_atom_site_label
_atom_site_type_symbol
_atom_site_fract_x
_atom_site_fract_y
_atom_site_fract_z
Li1 Li 0.9101(9) 0.5095(5) 0.5950(6)
N1 N 0.9886(3) 0.5824(3) 0.6538(3)
O1 O 0.7449(4) 0.5250(5) 0.6285(4)
P1 P 1.01943(14) 0.64207(9) 0.47235(10)
Si1 Si 1.01616(18) 0.55919(12) 0.76248(12)
C1 C 0.9906(4) 0.6572(4) 0.5893(4)
C2 C 0.9726(5) 0.7525(3) 0.6127(4)
C3 C 0.8714(5) 0.7809(4) 0.6739(4)
H1 H 0.8160 0.7396 0.7053
C4 C 0.8520(7) 0.8724(6) 0.6889(5)
H2 H 0.7824 0.8920 0.7294
C5 C 0.9331(9) 0.9333(5) 0.6453(7)
H3 H 0.9190 0.9940 0.6557
C6 C 1.0338(7) 0.9048(5) 0.5871(5)
H4 H 1.0908 0.9454 0.5590
C7 C 1.0532(5) 0.8173(4) 0.5689(4)
H5 H 1.1219 0.8000 0.5262
C8 C 0.9684(6) 0.7469(3) 0.4049(4)
C9 C 0.8651(5) 0.8013(5) 0.4331(4)
H6 H 0.8167 0.7843 0.4923
C10 C 0.8312(5) 0.8790(4) 0.3775(6)
H7 H 0.7620 0.9150 0.3999
C11 C 0.8977(8) 0.9040(4) 0.2902(6)
H8 H 0.8750 0.9567 0.2515
C12 C 0.9998(7) 0.8496(5) 0.2600(5)
H9 H 1.0460 0.8652 0.1997
C13 C 1.0344(5) 0.7743(4) 0.3159(5)
H10 H 1.1049 0.7397 0.2937
C14 C 1.0103(8) 0.6524(4) 0.8249(5)
H11 H 0.9374 0.6908 0.8263
H12 H 1.0750 0.6886 0.7938
H13 H 1.0155 0.6273 0.8876
C15 C 0.9072(9) 0.4715(6) 0.8364(5)
H14 H 0.8282 0.5011 0.8456
H15 H 0.9249 0.4494 0.8958
H16 H 0.9144 0.4206 0.8043
C16 C 1.1485(10) 0.4853(7) 0.7567(8)
C17 C 1.2412(8) 0.5679(11) 0.6848(9)
H17 H 1.2324 0.6203 0.7152
H18 H 1.2201 0.5872 0.6263
H19 H 1.3215 0.5412 0.6739
C18 C 1.1862(10) 0.4625(6) 0.8487(7)
H20 H 1.1754 0.5174 0.8755
H21 H 1.2677 0.4387 0.8369
H22 H 1.1392 0.4171 0.8913
C19 C 1.1614(9) 0.4055(6) 0.7109(7)
H23 H 1.1331 0.4235 0.6554
H24 H 1.1165 0.3583 0.7526
H25 H 1.2429 0.3822 0.6945
C20 C 0.6772(10) 0.6028(9) 0.6437(12)
H26 H 0.6709 0.6125 0.7066
H27 H 0.7129 0.6544 0.6003
C21 C 0.5715(13) 0.5991(11) 0.6332(12)
H28 H 0.5526 0.6501 0.5866
H29 H 0.5127 0.6023 0.6917
C22 C 0.5741(15) 0.5171(17) 0.6052(16)
H30 H 0.5808 0.5253 0.5386
H31 H 0.5047 0.4860 0.6389
C23 C 0.6755(11) 0.4693(8) 0.6281(13)
H32 H 0.6544 0.4312 0.6893
H33 H 0.7137 0.4291 0.5830
P1A P 0.98057(14) 0.35793(9) 0.52765(10)
Li1A Li 1.0899(9) 0.4905(5) 0.4050(6)
N1A N 1.0114(3) 0.4176(3) 0.3462(3)
Si1A Si 0.98384(18) 0.44081(12) 0.23752(12)
C14A C 0.9897(8) 0.3476(4) 0.1751(5)
H11A H 1.0626 0.3092 0.1737
H12A H 0.9250 0.3114 0.2062
H13A H 0.9845 0.3727 0.1124
C15A C 1.0928(9) 0.5285(6) 0.1636(5)
H14A H 1.1718 0.4989 0.1544
H15A H 1.0751 0.5506 0.1042
H16A H 1.0856 0.5794 0.1957
C16A C 0.8515(10) 0.5147(7) 0.2433(8)
C17A C 0.7588(8) 0.4321(11) 0.3152(9)
H17A H 0.7676 0.3797 0.2848
H18A H 0.7799 0.4128 0.3737
H19A H 0.6785 0.4588 0.3261
C18A C 0.8138(10) 0.5375(6) 0.1513(7)
H20A H 0.8246 0.4826 0.1245
H21A H 0.7323 0.5613 0.1631
H22A H 0.8608 0.5829 0.1087
C19A C 0.8386(9) 0.5945(6) 0.2891(7)
H23A H 0.8669 0.5765 0.3446
H24A H 0.8835 0.6417 0.2474
H25A H 0.7571 0.6178 0.3055
C1A C 1.0094(4) 0.3428(4) 0.4107(4)
C8A C 1.0316(6) 0.2531(3) 0.5951(4)
C9A C 1.1349(5) 0.1987(5) 0.5669(4)
H6A H 1.1833 0.2157 0.5077
C10A C 1.1688(5) 0.1210(4) 0.6225(6)
H7A H 1.2380 0.0850 0.6001
C11A C 1.1023(8) 0.0960(4) 0.7098(6)
H8A H 1.1250 0.0433 0.7485
C12A C 1.0002(7) 0.1504(5) 0.7400(5)
H9A H 0.9540 0.1348 0.8003
C13A C 0.9656(5) 0.2257(4) 0.6841(5)
H10A H 0.8951 0.2603 0.7063
C2A C 1.0274(5) 0.2475(3) 0.3873(4)
C3A C 1.1286(5) 0.2191(4) 0.3261(4)
H1A H 1.1840 0.2604 0.2947
C4A C 1.1480(7) 0.1276(6) 0.3111(5)
H2A H 1.2176 0.1080 0.2706
C5A C 1.0669(9) 0.0667(5) 0.3547(7)
H3A H 1.0810 0.0060 0.3443
C6A C 0.9662(7) 0.0952(5) 0.4129(5)
H4A H 0.9092 0.0546 0.4410
C7A C 0.9468(5) 0.1827(4) 0.4311(4)
H5A H 0.8781 0.2000 0.4738
O1A O 1.2551(4) 0.4750(5) 0.3715(4)
C20A C 1.3228(10) 0.3972(9) 0.3563(12)
H26A H 1.3291 0.3875 0.2934
H27A H 1.2871 0.3456 0.3997
C21A C 1.4285(13) 0.4009(11) 0.3668(12)
H28A H 1.4474 0.3499 0.4134
H29A H 1.4873 0.3977 0.3083
C22A C 1.4259(15) 0.4829(17) 0.3948(16)
H30A H 1.4192 0.4747 0.4614
H31A H 1.4953 0.5140 0.3611
C23A C 1.3245(11) 0.5307(8) 0.3719(13)
H32A H 1.3456 0.5688 0.3107
H33A H 1.2863 0.5709 0.4170
Li2 Li 0.6192(8) 0.0258(6) -0.0042(6)
N2 N 0.5802(3) 0.1293(3) 0.0673(3)
O2 O 0.7704(4) -0.0426(3) -0.0106(4)
P2 P 0.45040(12) -0.00742(9) 0.15008(10)
Si2 Si 0.60981(17) 0.24169(11) 0.02941(13)
C24 C 0.5405(4) 0.0770(3) 0.1486(4)
C25 C 0.5648(5) 0.0944(3) 0.2352(4)
C26 C 0.4793(6) 0.0939(4) 0.3186(5)
H34 H 0.4027 0.0836 0.3217
C27 C 0.5078(8) 0.1089(4) 0.3980(5)
H35 H 0.4499 0.1087 0.4538
C28 C 0.6192(9) 0.1237(5) 0.3947(6)
H36 H 0.6377 0.1341 0.4475
C29 C 0.7016(7) 0.1230(4) 0.3147(6)
H37 H 0.7783 0.1326 0.3119
C30 C 0.6745(5) 0.1082(3) 0.2362(4)
H38 H 0.7342 0.1078 0.1815
C31 C 0.4503(6) -0.0965(3) 0.2509(4)
C32 C 0.3508(6) -0.1400(4) 0.2932(5)
H39 H 0.2831 -0.1183 0.2724
C33 C 0.3455(7) -0.2140(5) 0.3646(5)
H40 H 0.2763 -0.2423 0.3901
C34 C 0.4418(10) -0.2454(5) 0.3976(5)
H41 H 0.4388 -0.2956 0.4460
C35 C 0.5427(7) -0.2043(5) 0.3607(5)
H42 H 0.6082 -0.2255 0.3845
C36 C 0.5481(5) -0.1308(4) 0.2878(4)
H43 H 0.6181 -0.1034 0.2625
C37 C 0.7397(7) 0.2349(5) -0.0762(7)
H44 H 0.7216 0.2008 -0.1174
H45 H 0.8078 0.2043 -0.0561
H46 H 0.7552 0.2960 -0.1085
C38 C 0.6468(9) 0.3052(4) 0.1049(6)
H47 H 0.7123 0.2722 0.1273
H48 H 0.5804 0.3126 0.1569
H49 H 0.6676 0.3648 0.0710
C39 C 0.4843(8) 0.3036(4) -0.0143(6)
C40 C 0.3773(8) 0.3071(8) 0.0703(9)
H50 H 0.3952 0.3371 0.1148
H51 H 0.3592 0.2455 0.0990
H52 H 0.3107 0.3409 0.0500
C41 C 0.5120(9) 0.4034(5) -0.0655(6)
H53 H 0.5325 0.4356 -0.0240
H54 H 0.4438 0.4359 -0.0843
H55 H 0.5765 0.3999 -0.1197
C42 C 0.4519(8) 0.2567(5) -0.0801(7)
H56 H 0.5165 0.2539 -0.1344
H57 H 0.3841 0.2905 -0.0984
H58 H 0.4342 0.1952 -0.0502
C43 C 0.8463(8) -0.0677(8) -0.0857(6)
H59 H 0.8701 -0.0124 -0.1294
H60 H 0.8061 -0.1008 -0.1151
C44 C 0.9466(10) -0.1223(10) -0.0707(9)
H61 H 1.0128 -0.0864 -0.0829
H62 H 0.9682 -0.1712 -0.1079
C45 C 0.9057(11) -0.1571(8) 0.0258(9)
H63 H 0.9689 -0.1629 0.0566
H64 H 0.8794 -0.2177 0.0340
C46 C 0.8093(7) -0.0945(8) 0.0665(6)
H65 H 0.7470 -0.1280 0.1101
H66 H 0.8357 -0.0548 0.0990
P2A P 0.54960(12) 0.00742(9) -0.15008(10)
Li2A Li 0.3808(8) -0.0258(6) 0.0042(6)
N2A N 0.4198(3) -0.1293(3) -0.0673(3)
Si2A Si 0.39019(17) -0.24169(11) -0.02941(13)
C37A C 0.2603(7) -0.2349(5) 0.0762(7)
H44A H 0.2784 -0.2008 0.1174
H45A H 0.1922 -0.2043 0.0561
H46A H 0.2448 -0.2960 0.1085
C38A C 0.3532(9) -0.3052(4) -0.1049(6)
H47A H 0.2877 -0.2722 -0.1273
H48A H 0.4196 -0.3126 -0.1569
H49A H 0.3324 -0.3648 -0.0710
C39A C 0.5157(8) -0.3036(4) 0.0143(6)
C40A C 0.6227(8) -0.3071(8) -0.0703(9)
H50A H 0.6048 -0.3371 -0.1148
H51A H 0.6408 -0.2455 -0.0990
H52A H 0.6893 -0.3409 -0.0500
C41A C 0.4880(9) -0.4034(5) 0.0655(6)
H53A H 0.4675 -0.4356 0.0240
H54A H 0.5562 -0.4359 0.0843
H55A H 0.4235 -0.3999 0.1197
C42A C 0.5481(8) -0.2567(5) 0.0801(7)
H56A H 0.4835 -0.2539 0.1344
H57A H 0.6159 -0.2905 0.0984
H58A H 0.5658 -0.1952 0.0502
C24A C 0.4595(4) -0.0770(3) -0.1486(4)
C31A C 0.5497(6) 0.0965(3) -0.2509(4)
C32A C 0.6492(6) 0.1400(4) -0.2932(5)
H39A H 0.7169 0.1183 -0.2724
C33A C 0.6545(7) 0.2140(5) -0.3646(5)
H40A H 0.7237 0.2423 -0.3901
C34A C 0.5582(10) 0.2454(5) -0.3976(5)
H41A H 0.5612 0.2956 -0.4460
C35A C 0.4573(7) 0.2043(5) -0.3607(5)
H42A H 0.3918 0.2255 -0.3845
C36A C 0.4519(5) 0.1308(4) -0.2878(4)
H43A H 0.3819 0.1034 -0.2625
C25A C 0.4352(5) -0.0944(3) -0.2352(4)
C26A C 0.5207(6) -0.0939(4) -0.3186(5)
H34A H 0.5973 -0.0836 -0.3217
C27A C 0.4922(8) -0.1089(4) -0.3980(5)
H35A H 0.5501 -0.1087 -0.4538
C28A C 0.3808(9) -0.1237(5) -0.3947(6)
H36A H 0.3623 -0.1341 -0.4475
C29A C 0.2984(7) -0.1230(4) -0.3147(6)
H37A H 0.2217 -0.1326 -0.3119
C30A C 0.3255(5) -0.1082(3) -0.2362(4)
H38A H 0.2658 -0.1078 -0.1815
O2A O 0.2296(4) 0.0426(3) 0.0106(4)
C43A C 0.1537(8) 0.0677(8) 0.0857(6)
H59A H 0.1299 0.0124 0.1294
H60A H 0.1939 0.1008 0.1151
C44A C 0.0534(10) 0.1223(10) 0.0707(9)
H61A H -0.0128 0.0864 0.0829
H62A H 0.0318 0.1712 0.1079
C45A C 0.0943(11) 0.1571(8) -0.0258(9)
H63A H 0.0311 0.1629 -0.0566
H64A H 0.1206 0.2177 -0.0340
C46A C 0.1907(7) 0.0945(8) -0.0665(6)
H65A H 0.2530 0.1280 -0.1101
H66A H 0.1643 0.0548 -0.0990
loop_
_geom_bond_atom_site_label_1
_geom_bond_atom_site_label_2
_geom_bond_site_symmetry_1
_geom_bond_site_symmetry_2
Li1 N1 1_555 1_555
Li2 N2 1_555 1_555
N1 Si1 1_555 1_555
N2 Si2 1_555 1_555
O1 Li1 1_555 1_555
O2 Li2 1_555 1_555
P1 Li1 1_555 1_555
P2 Li2 1_555 1_555
Si1 C14 1_555 1_555
Si2 C37 1_555 1_555
C1 N1 1_555 1_555
C2 C1 1_555 1_555
C3 C2 1_555 1_555
H1 C3 1_555 1_555
C4 C3 1_555 1_555
H2 C4 1_555 1_555
C5 C4 1_555 1_555
H3 C5 1_555 1_555
C6 C5 1_555 1_555
H4 C6 1_555 1_555
C7 C2 1_555 1_555
H5 C7 1_555 1_555
C8 P1 1_555 1_555
C9 C8 1_555 1_555
H6 C9 1_555 1_555
C10 C9 1_555 1_555
H7 C10 1_555 1_555
C11 C10 1_555 1_555
H8 C11 1_555 1_555
C12 C11 1_555 1_555
H9 C12 1_555 1_555
C13 C8 1_555 1_555
H10 C13 1_555 1_555
C14 H11 1_555 1_555
H12 C14 1_555 1_555
H13 C14 1_555 1_555
C15 Si1 1_555 1_555
H14 C15 1_555 1_555
H15 C15 1_555 1_555
H16 C15 1_555 1_555
C16 Si1 1_555 1_555
C17 C16 1_555 1_555
H17 C17 1_555 1_555
H18 C17 1_555 1_555
H19 C17 1_555 1_555
C18 C16 1_555 1_555
H20 C18 1_555 1_555
H21 C18 1_555 1_555
H22 C18 1_555 1_555
C19 C16 1_555 1_555
H23 C19 1_555 1_555
H24 C19 1_555 1_555
H25 C19 1_555 1_555
C20 O1 1_555 1_555
H26 C20 1_555 1_555
H27 C20 1_555 1_555
C21 C20 1_555 1_555
H28 C21 1_555 1_555
H29 C21 1_555 1_555
C22 C21 1_555 1_555
H30 C22 1_555 1_555
H31 C22 1_555 1_555
C23 O1 1_555 1_555
H32 C23 1_555 1_555
H33 C23 1_555 1_555
C24 N2 1_555 1_555
C25 C24 1_555 1_555
C26 C25 1_555 1_555
H34 C26 1_555 1_555
C27 C26 1_555 1_555
H35 C27 1_555 1_555
C28 C27 1_555 1_555
H36 C28 1_555 1_555
C29 C28 1_555 1_555
H37 C29 1_555 1_555
C30 C25 1_555 1_555
H38 C30 1_555 1_555
C31 P2 1_555 1_555
C32 C31 1_555 1_555
H39 C32 1_555 1_555
C33 C32 1_555 1_555
H40 C33 1_555 1_555
C34 C33 1_555 1_555
H41 C34 1_555 1_555
C35 C34 1_555 1_555
H42 C35 1_555 1_555
C36 C31 1_555 1_555
H43 C36 1_555 1_555
C37 H44 1_555 1_555
H45 C37 1_555 1_555
H46 C37 1_555 1_555
C38 Si2 1_555 1_555
H47 C38 1_555 1_555
H48 C38 1_555 1_555
H49 C38 1_555 1_555
C39 Si2 1_555 1_555
C40 C39 1_555 1_555
H50 C40 1_555 1_555
H51 C40 1_555 1_555
H52 C40 1_555 1_555
C41 C39 1_555 1_555
H53 C41 1_555 1_555
H54 C41 1_555 1_555
H55 C41 1_555 1_555
C42 C39 1_555 1_555
H56 C42 1_555 1_555
H57 C42 1_555 1_555
H58 C42 1_555 1_555
C43 O2 1_555 1_555
H59 C43 1_555 1_555
H60 C43 1_555 1_555
C44 C43 1_555 1_555
H61 C44 1_555 1_555
H62 C44 1_555 1_555
C45 C44 1_555 1_555
H63 C45 1_555 1_555
H64 C45 1_555 1_555
C46 O2 1_555 1_555
H65 C46 1_555 1_555
H66 C46 1_555 1_555
P1A Li1 1_555 1_555
Li1A P1 1_555 1_555
N1A Li1A 1_555 1_555
Si1A N1A 1_555 1_555
C14A Si1A 1_555 1_555
H11A C14A 1_555 1_555
H12A C14A 1_555 1_555
H13A C14A 1_555 1_555
C15A Si1A 1_555 1_555
H14A C15A 1_555 1_555
H15A C15A 1_555 1_555
H16A C15A 1_555 1_555
C16A Si1A 1_555 1_555
C17A C16A 1_555 1_555
H17A C17A 1_555 1_555
H18A C17A 1_555 1_555
H19A C17A 1_555 1_555
C18A C16A 1_555 1_555
H20A C18A 1_555 1_555
H21A C18A 1_555 1_555
H22A C18A 1_555 1_555
C19A C16A 1_555 1_555
H23A C19A 1_555 1_555
H24A C19A 1_555 1_555
H25A C19A 1_555 1_555
C1A P1A 1_555 1_555
C8A P1A 1_555 1_555
C9A C8A 1_555 1_555
H6A C9A 1_555 1_555
C10A C9A 1_555 1_555
H7A C10A 1_555 1_555
C11A C10A 1_555 1_555
H8A C11A 1_555 1_555
C12A C11A 1_555 1_555
H9A C12A 1_555 1_555
C13A C8A 1_555 1_555
H10A C13A 1_555 1_555
C2A C1A 1_555 1_555
C3A C2A 1_555 1_555
H1A C3A 1_555 1_555
C4A C3A 1_555 1_555
H2A C4A 1_555 1_555
C5A C4A 1_555 1_555
H3A C5A 1_555 1_555
C6A C5A 1_555 1_555
H4A C6A 1_555 1_555
C7A C2A 1_555 1_555
H5A C7A 1_555 1_555
O1A Li1A 1_555 1_555
C20A O1A 1_555 1_555
H26A C20A 1_555 1_555
H27A C20A 1_555 1_555
C21A C20A 1_555 1_555
H28A C21A 1_555 1_555
H29A C21A 1_555 1_555
C22A C21A 1_555 1_555
H30A C22A 1_555 1_555
H31A C22A 1_555 1_555
C23A O1A 1_555 1_555
H32A C23A 1_555 1_555
H33A C23A 1_555 1_555
P2A Li2 1_555 1_555
Li2A P2 1_555 1_555
N2A Li2A 1_555 1_555
Si2A N2A 1_555 1_555
C37A Si2A 1_555 1_555
H44A C37A 1_555 1_555
H45A C37A 1_555 1_555
H46A C37A 1_555 1_555
C38A Si2A 1_555 1_555
H47A C38A 1_555 1_555
H48A C38A 1_555 1_555
H49A C38A 1_555 1_555
C39A Si2A 1_555 1_555
C40A C39A 1_555 1_555
H50A C40A 1_555 1_555
H51A C40A 1_555 1_555
H52A C40A 1_555 1_555
C41A C39A 1_555 1_555
H53A C41A 1_555 1_555
H54A C41A 1_555 1_555
H55A C41A 1_555 1_555
C42A C39A 1_555 1_555
H56A C42A 1_555 1_555
H57A C42A 1_555 1_555
H58A C42A 1_555 1_555
C24A P2A 1_555 1_555
C31A P2A 1_555 1_555
C32A C31A 1_555 1_555
H39A C32A 1_555 1_555
C33A C32A 1_555 1_555
H40A C33A 1_555 1_555
C34A C33A 1_555 1_555
H41A C34A 1_555 1_555
C35A C34A 1_555 1_555
H42A C35A 1_555 1_555
C36A C31A 1_555 1_555
H43A C36A 1_555 1_555
C25A C24A 1_555 1_555
C26A C25A 1_555 1_555
H34A C26A 1_555 1_555
C27A C26A 1_555 1_555
H35A C27A 1_555 1_555
C28A C27A 1_555 1_555
H36A C28A 1_555 1_555
C29A C28A 1_555 1_555
H37A C29A 1_555 1_555
C30A C25A 1_555 1_555
H38A C30A 1_555 1_555
O2A Li2A 1_555 1_555
C43A O2A 1_555 1_555
H59A C43A 1_555 1_555
H60A C43A 1_555 1_555
C44A C43A 1_555 1_555
H61A C44A 1_555 1_555
H62A C44A 1_555 1_555
C45A C44A 1_555 1_555
H63A C45A 1_555 1_555
H64A C45A 1_555 1_555
C46A O2A 1_555 1_555
H65A C46A 1_555 1_555
H66A C46A 1_555 1_555
P1 C1 1_555 1_555
P2 C24 1_555 1_555
C6 C7 1_555 1_555
C12 C13 1_555 1_555
C22 C23 1_555 1_555
C29 C30 1_555 1_555
C35 C36 1_555 1_555
C45 C46 1_555 1_555
P1A Li1A 1_555 1_555
N1A C1A 1_555 1_555
C12A C13A 1_555 1_555
C6A C7A 1_555 1_555
C22A C23A 1_555 1_555
P2A Li2A 1_555 1_555
N2A C24A 1_555 1_555
C35A C36A 1_555 1_555
C29A C30A 1_555 1_555
C45A C46A 1_555 1_555

#END
