
#######################################################################
#
#                 Cambridge Crystallographic Data Centre
#                                CCDC 
#
#######################################################################
#
# If this CIF has been generated from an entry in the Cambridge 
# Structural Database, then it will include bibliographic, chemical, 
# crystal, experimental, refinement or atomic coordinate data resulting 
# from the CCDC's data processing and validation procedures.
#
#######################################################################

data_LUTWAY
_chemical_formula_moiety         'C46 H70 K2 N2 O2 P2 Si2'
_chemical_name_systematic        
'bis(\m~2~-1-(t-Butyl(dimethyl)silyl)-2,3-diphenyl-1-aza-3-phosphaallyl)-bis(diethyl ether)-di-potassium'
_symmetry_cell_setting           monoclinic
_symmetry_space_group_name_H-M   'P 21/n'
_symmetry_Int_Tables_number      14
_space_group_name_Hall           '-P 2yn'
loop_
_symmetry_equiv_pos_site_id
_symmetry_equiv_pos_as_xyz
1 x,y,z
2 1/2+x,1/2-y,1/2+z
3 -x,-y,-z
4 1/2-x,1/2+y,1/2-z
_cell_length_a                   14.1(4)
_cell_length_b                   15.1(4)
_cell_length_c                   14.1(4)
_cell_angle_alpha                90
_cell_angle_beta                 109.3(6)
_cell_angle_gamma                90
_cell_volume                     2833.32
_cell_formula_units_Z            2
loop_
_atom_site_label
_atom_site_type_symbol
_atom_site_fract_x
_atom_site_fract_y
_atom_site_fract_z
K1 K 0.52486(8) 0.93174(8) 0.16294(9)
P1 P 0.38512(10) 0.87727(8) -0.08432(10)
Si1 Si 0.24275(11) 0.99065(9) 0.14655(12)
N1 N 0.3138(3) 0.9391(2) 0.0771(3)
O1 O 0.6110(4) 0.9234(4) 0.3707(4)
C1 C 0.3202(3) 0.9453(3) -0.0148(4)
C2 C 0.4276(3) 0.7760(3) -0.0083(4)
C3 C 0.3970(4) 0.7455(3) 0.0728(4)
C4 C 0.4293(5) 0.6632(3) 0.1191(6)
C5 C 0.4952(5) 0.6110(4) 0.0883(5)
C6 C 0.5264(5) 0.6369(4) 0.0054(6)
C7 C 0.4939(4) 0.7190(3) -0.0428(5)
C8 C 0.2768(4) 1.0274(3) -0.0801(4)
C9 C 0.3055(4) 1.1141(3) -0.0513(5)
C10 C 0.2710(5) 1.1877(4) -0.1089(6)
C11 C 0.2051(5) 1.1766(4) -0.2007(6)
C12 C 0.1729(5) 1.0907(4) -0.2366(6)
C13 C 0.2075(4) 1.0174(4) -0.1735(5)
C14 C 0.3303(4) 1.0633(4) 0.2446(5)
H1 H 0.3880 1.0296 0.2830
H2 H 0.2962 1.0856 0.2885
H3 H 0.3515 1.1119 0.2125
C15 C 0.1324(4) 1.0617(4) 0.0749(5)
H4 H 0.0852 1.0269 0.0236
H5 H 0.1556 1.1101 0.0442
H6 H 0.1003 1.0843 0.1203
C16 C 0.1907(5) 0.8980(3) 0.2107(5)
C17 C 0.1264(5) 0.8317(4) 0.1342(5)
H7 H 0.0708 0.8620 0.0868
H8 H 0.1013 0.7873 0.1686
H9 H 0.1666 0.8042 0.0992
C18 C 0.1230(6) 0.9372(5) 0.2734(6)
H10 H 0.1621 0.9786 0.3226
H11 H 0.1013 0.8897 0.3066
H12 H 0.0652 0.9667 0.2282
C19 C 0.2764(5) 0.8436(4) 0.2830(4)
H13 H 0.3197 0.8820 0.3332
H14 H 0.3144 0.8157 0.2459
H15 H 0.2487 0.7992 0.3150
C20 C 0.6370(9) 0.8378(9) 0.4140(8)
H16 H 0.6212 0.8363 0.4761
H17 H 0.7094 0.8313 0.4322
C21 C 0.5912(9) 0.7616(7) 0.3557(9)
H18 H 0.6155 0.7089 0.3943
H19 H 0.6081 0.7598 0.2950
H20 H 0.5194 0.7650 0.3390
C22 C 0.6542(12) 1.0013(10) 0.4296(9)
H21 H 0.6337 0.9994 0.4890
H22 H 0.7266 0.9929 0.4529
C23 C 0.6390(12) 1.0791(8) 0.3970(10)
H23 H 0.6783 1.1193 0.4477
H24 H 0.5688 1.0932 0.3805
H25 H 0.6582 1.0845 0.3378
H26 H 0.342(3) 0.782(2) 0.094(3)
H27 H 0.410(4) 0.654(3) 0.183(4)
H28 H 0.514(2) 0.547(2) 0.123(3)
H29 H 0.559(3) 0.602(3) -0.018(3)
H30 H 0.524(3) 0.742(3) -0.089(4)
H31 H 0.349(2) 1.1198(16) 0.012(2)
H32 H 0.293(4) 1.240(3) -0.099(4)
H33 H 0.170(3) 1.226(3) -0.251(3)
H34 H 0.125(4) 1.084(5) -0.297(3)
H35 H 0.187(3) 0.958(3) -0.195(3)
K1B K 0.47514(8) 1.06826(8) -0.16294(9)
P1B P 0.61488(10) 1.12273(8) 0.08432(10)
C1B C 0.6798(3) 1.0547(3) 0.0148(4)
N1B N 0.6862(3) 1.0609(2) -0.0771(3)
O1B O 0.3890(4) 1.0766(4) -0.3707(4)
C20B C 0.3630(9) 1.1622(9) -0.4140(8)
H16B H 0.3788 1.1637 -0.4761
H17B H 0.2906 1.1687 -0.4322
C21B C 0.4088(9) 1.2384(7) -0.3557(9)
H18B H 0.3845 1.2911 -0.3943
H19B H 0.3919 1.2402 -0.2950
H20B H 0.4806 1.2350 -0.3390
C22B C 0.3458(12) 0.9987(10) -0.4296(9)
H21B H 0.3663 1.0006 -0.4890
H22B H 0.2734 1.0071 -0.4529
C23B C 0.3610(12) 0.9209(8) -0.3970(10)
H23B H 0.3217 0.8807 -0.4477
H24B H 0.4312 0.9068 -0.3805
H25B H 0.3418 0.9155 -0.3378
Si1B Si 0.75725(11) 1.00935(9) -0.14655(12)
C14B C 0.6697(4) 0.9367(4) -0.2446(5)
H1B H 0.6120 0.9704 -0.2830
H2B H 0.7038 0.9144 -0.2885
H3B H 0.6485 0.8881 -0.2125
C15B C 0.8676(4) 0.9383(4) -0.0749(5)
H4B H 0.9148 0.9731 -0.0236
H5B H 0.8444 0.8899 -0.0442
H6B H 0.8997 0.9157 -0.1203
C16B C 0.8093(5) 1.1020(3) -0.2107(5)
C17B C 0.8736(5) 1.1683(4) -0.1342(5)
H7B H 0.9292 1.1380 -0.0868
H8B H 0.8987 1.2127 -0.1686
H9B H 0.8334 1.1958 -0.0992
C18B C 0.8770(6) 1.0628(5) -0.2734(6)
H10B H 0.8379 1.0214 -0.3226
H11B H 0.8987 1.1103 -0.3066
H12B H 0.9348 1.0333 -0.2282
C19B C 0.7236(5) 1.1564(4) -0.2830(4)
H13B H 0.6803 1.1180 -0.3332
H14B H 0.6856 1.1843 -0.2459
H15B H 0.7513 1.2008 -0.3150
C8B C 0.7232(4) 0.9726(3) 0.0801(4)
C9B C 0.6945(4) 0.8859(3) 0.0513(5)
C10B C 0.7290(5) 0.8123(4) 0.1089(6)
C11B C 0.7949(5) 0.8234(4) 0.2007(6)
C12B C 0.8271(5) 0.9093(4) 0.2366(6)
C13B C 0.7925(4) 0.9826(4) 0.1735(5)
H35B H 0.813(3) 1.042(3) 0.195(3)
H34B H 0.875(4) 0.916(5) 0.297(3)
H33B H 0.830(3) 0.774(3) 0.251(3)
H32B H 0.707(4) 0.760(3) 0.099(4)
H31B H 0.651(2) 0.8802(16) -0.012(2)
C2B C 0.5724(3) 1.2240(3) 0.0083(4)
C3B C 0.6030(4) 1.2545(3) -0.0728(4)
C4B C 0.5707(5) 1.3368(3) -0.1191(6)
C5B C 0.5048(5) 1.3890(4) -0.0883(5)
C6B C 0.4736(5) 1.3631(4) -0.0054(6)
C7B C 0.5061(4) 1.2810(3) 0.0428(5)
H30B H 0.476(3) 1.258(3) 0.089(4)
H29B H 0.441(3) 1.398(3) 0.018(3)
H28B H 0.486(2) 1.453(2) -0.123(3)
H27B H 0.590(4) 1.346(3) -0.183(4)
H26B H 0.658(3) 1.218(2) -0.094(3)
loop_
_geom_bond_atom_site_label_1
_geom_bond_atom_site_label_2
_geom_bond_site_symmetry_1
_geom_bond_site_symmetry_2
K1 P1 1_555 1_555
P1 C1 1_555 1_555
Si1 N1 1_555 1_555
N1 K1 1_555 1_555
O1 K1 1_555 1_555
C1 N1 1_555 1_555
C2 P1 1_555 1_555
C3 C2 1_555 1_555
C4 C3 1_555 1_555
C5 C4 1_555 1_555
C6 C5 1_555 1_555
C7 C2 1_555 1_555
C8 C1 1_555 1_555
C9 C8 1_555 1_555
C10 C9 1_555 1_555
C11 C10 1_555 1_555
C12 C11 1_555 1_555
C13 C8 1_555 1_555
C14 Si1 1_555 1_555
H1 C14 1_555 1_555
H2 C14 1_555 1_555
H3 C14 1_555 1_555
C15 Si1 1_555 1_555
H4 C15 1_555 1_555
H5 C15 1_555 1_555
H6 C15 1_555 1_555
C16 Si1 1_555 1_555
C17 C16 1_555 1_555
H7 C17 1_555 1_555
H8 C17 1_555 1_555
H9 C17 1_555 1_555
C18 C16 1_555 1_555
H10 C18 1_555 1_555
H11 C18 1_555 1_555
H12 C18 1_555 1_555
C19 C16 1_555 1_555
H13 C19 1_555 1_555
H14 C19 1_555 1_555
H15 C19 1_555 1_555
C20 O1 1_555 1_555
H16 C20 1_555 1_555
H17 C20 1_555 1_555
C21 C20 1_555 1_555
H18 C21 1_555 1_555
H19 C21 1_555 1_555
H20 C21 1_555 1_555
C22 O1 1_555 1_555
H21 C22 1_555 1_555
H22 C22 1_555 1_555
C23 C22 1_555 1_555
H23 C23 1_555 1_555
H24 C23 1_555 1_555
H25 C23 1_555 1_555
H26 C3 1_555 1_555
H27 C4 1_555 1_555
H28 C5 1_555 1_555
H29 C6 1_555 1_555
H30 C7 1_555 1_555
H31 C9 1_555 1_555
H32 C10 1_555 1_555
H33 C11 1_555 1_555
H34 C12 1_555 1_555
H35 C13 1_555 1_555
K1B P1 1_555 1_555
P1B K1 1_555 1_555
C1B P1B 1_555 1_555
N1B K1B 1_555 1_555
O1B K1B 1_555 1_555
C20B O1B 1_555 1_555
H16B C20B 1_555 1_555
H17B C20B 1_555 1_555
C21B C20B 1_555 1_555
H18B C21B 1_555 1_555
H19B C21B 1_555 1_555
H20B C21B 1_555 1_555
C22B O1B 1_555 1_555
H21B C22B 1_555 1_555
H22B C22B 1_555 1_555
C23B C22B 1_555 1_555
H23B C23B 1_555 1_555
H24B C23B 1_555 1_555
H25B C23B 1_555 1_555
Si1B N1B 1_555 1_555
C14B Si1B 1_555 1_555
H1B C14B 1_555 1_555
H2B C14B 1_555 1_555
H3B C14B 1_555 1_555
C15B Si1B 1_555 1_555
H4B C15B 1_555 1_555
H5B C15B 1_555 1_555
H6B C15B 1_555 1_555
C16B Si1B 1_555 1_555
C17B C16B 1_555 1_555
H7B C17B 1_555 1_555
H8B C17B 1_555 1_555
H9B C17B 1_555 1_555
C18B C16B 1_555 1_555
H10B C18B 1_555 1_555
H11B C18B 1_555 1_555
H12B C18B 1_555 1_555
C19B C16B 1_555 1_555
H13B C19B 1_555 1_555
H14B C19B 1_555 1_555
H15B C19B 1_555 1_555
C8B C1B 1_555 1_555
C9B C8B 1_555 1_555
C10B C9B 1_555 1_555
C11B C10B 1_555 1_555
C12B C11B 1_555 1_555
C13B C8B 1_555 1_555
H35B C13B 1_555 1_555
H34B C12B 1_555 1_555
H33B C11B 1_555 1_555
H32B C10B 1_555 1_555
H31B C9B 1_555 1_555
C2B P1B 1_555 1_555
C3B C2B 1_555 1_555
C4B C3B 1_555 1_555
C5B C4B 1_555 1_555
C6B C5B 1_555 1_555
C7B C2B 1_555 1_555
H30B C7B 1_555 1_555
H29B C6B 1_555 1_555
H28B C5B 1_555 1_555
H27B C4B 1_555 1_555
H26B C3B 1_555 1_555
C6 C7 1_555 1_555
C12 C13 1_555 1_555
K1B P1B 1_555 1_555
C1B N1B 1_555 1_555
C12B C13B 1_555 1_555
C6B C7B 1_555 1_555

#END
