
#######################################################################
#
#                 Cambridge Crystallographic Data Centre
#                                CCDC 
#
#######################################################################
#
# If this CIF has been generated from an entry in the Cambridge 
# Structural Database, then it will include bibliographic, chemical, 
# crystal, experimental, refinement or atomic coordinate data resulting 
# from the CCDC's data processing and validation procedures.
#
#######################################################################

data_LUTWOO
_chemical_formula_moiety         'C16 H22 N2 O2 S1'
_chemical_name_systematic        
N-((4-Ethoxyphenyl)carbamothioyl)cyclohexanecarboxamide
_symmetry_cell_setting           triclinic
_symmetry_space_group_name_H-M   'P -1'
_symmetry_Int_Tables_number      2
_space_group_name_Hall           '-P 1'
loop_
_symmetry_equiv_pos_site_id
_symmetry_equiv_pos_as_xyz
1 x,y,z
2 -x,-y,-z
_cell_length_a                   10.2273(7)
_cell_length_b                   12.0946(7)
_cell_length_c                   15.2099(10)
_cell_angle_alpha                70.792(3)
_cell_angle_beta                 89.100(3)
_cell_angle_gamma                69.737(3)
_cell_volume                     1656.42
_exptl_crystal_colour            colorless
_exptl_crystal_description       block
_cell_formula_units_Z            4
loop_
_atom_site_label
_atom_site_type_symbol
_atom_site_fract_x
_atom_site_fract_y
_atom_site_fract_z
C1 C 0.6065(5) 0.4664(5) 0.6568(3)
C2 C 0.6435(5) 0.3687(4) 0.7381(3)
H1 H 0.7200 0.2965 0.7433
C3 C 0.5696(4) 0.3749(4) 0.8131(3)
H2 H 0.5961 0.3065 0.8687
C4 C 0.4571(4) 0.4806(4) 0.8074(3)
C5 C 0.4174(5) 0.5790(4) 0.7246(3)
H3 H 0.3398 0.6505 0.7191
C6 C 0.4926(5) 0.5725(5) 0.6489(3)
H4 H 0.4661 0.6400 0.5927
C7 C 0.3402(4) 0.5683(3) 0.9253(2)
C8 C 0.2564(4) 0.4308(4) 1.0544(3)
C9 C 0.1943(6) 0.4272(7) 1.1454(4)
H5 H 0.1917 0.5013 1.1595
C10 C 0.2760(7) 0.3116(8) 1.2256(4)
H6 H 0.3716 0.3079 1.2331
H7 H 0.2788 0.2379 1.2120
C11 C 0.2113(7) 0.3106(9) 1.3156(4)
H8 H 0.2632 0.2328 1.3655
H9 H 0.2169 0.3796 1.3327
C12 C 0.0626(13) 0.3229(14) 1.3048(7)
H10 H 0.0224 0.3236 1.3629
H11 H 0.0575 0.2513 1.2916
C13 C -0.0204(7) 0.4420(9) 1.2265(4)
H12 H -0.0160 0.5146 1.2386
H13 H -0.1179 0.4502 1.2204
C14 C 0.0492(7) 0.4315(11) 1.1333(5)
H14 H 0.0498 0.3560 1.1235
H15 H -0.0037 0.5035 1.0794
N1 N 0.3837(3) 0.4788(3) 0.8879(2)
N2 N 0.2747(3) 0.5405(3) 1.0059(2)
O1 O 0.2912(3) 0.3411(3) 1.0280(2)
S1 S 0.36072(12) 0.70593(10) 0.88640(8)
C15 C 0.7842(10) 0.5119(10) 0.4461(6)
H16 H 0.8710 0.5065 0.4736
H17 H 0.7622 0.5724 0.3838
H18 H 0.7928 0.4313 0.4439
C16 C 0.6698(8) 0.5516(6) 0.5040(4)
H19 H 0.6723 0.6239 0.5174
H20 H 0.5790 0.5741 0.4707
O2 O 0.6919(7) 0.4496(5) 0.5875(3)
H21 H 0.373(4) 0.409(2) 0.920(3)
H22 H 0.259(7) 0.612(3) 1.011(4)
C25 C -0.4223(6) 0.9039(7) 0.1897(4)
C26 C -0.3314(6) 0.7967(5) 0.1788(3)
H39 H -0.3251 0.7187 0.2209
C27 C -0.2503(5) 0.8033(4) 0.1071(3)
H40 H -0.1893 0.7299 0.1000
C28 C -0.2580(4) 0.9180(4) 0.0450(3)
C29 C -0.3527(4) 1.0252(4) 0.0530(3)
H41 H -0.3611 1.1029 0.0096
C30 C -0.4358(5) 1.0185(5) 0.1255(4)
H42 H -0.5007 1.0915 0.1307
C31 C -0.0343(4) 0.8755(3) -0.0218(2)
C32 C -0.0317(5) 0.9956(4) -0.1891(3)
C33 C 0.0708(4) 1.0160(4) -0.2589(3)
H43 H 0.1621 0.9908 -0.2238
C34 C 0.0870(6) 0.9341(4) -0.3166(3)
H44 H -0.0036 0.9536 -0.3488
H45 H 0.1195 0.8470 -0.2757
C35 C 0.1893(7) 0.9515(6) -0.3879(4)
H46 H 0.2826 0.9221 -0.3559
H47 H 0.1914 0.9017 -0.4270
C36 C 0.1479(7) 1.0875(6) -0.4484(4)
H48 H 0.2193 1.0971 -0.4899
H49 H 0.0605 1.1132 -0.4868
C37 C 0.1305(7) 1.1697(5) -0.3922(4)
H50 H 0.0968 1.2566 -0.4337
H51 H 0.2210 1.1518 -0.3607
C38 C 0.0288(6) 1.1527(4) -0.3196(3)
H52 H 0.0279 1.2023 -0.2806
H53 H -0.0651 1.1823 -0.3508
N3 N -0.1730(3) 0.9287(3) -0.0299(2)
N4 N 0.0275(4) 0.9065(3) -0.1033(2)
O4 O -0.1578(3) 1.0514(3) -0.20668(19)
S2 S 0.06988(12) 0.78100(10) 0.07648(7)
C39 C -0.608(2) 0.913(3) 0.3917(12)
H54 H -0.6418 0.8479 0.3911
H55 H -0.6811 0.9766 0.4070
H56 H -0.5282 0.8774 0.4377
C40 C -0.5672(9) 0.9695(9) 0.2959(8)
H57 H -0.6494 1.0189 0.2505
H58 H -0.5159 1.0228 0.2981
O5 O -0.4816(6) 0.8658(7) 0.2729(5)
H59 H -0.208(4) 0.983(3) -0.0843(17)
H60 H 0.115(2) 0.868(3) -0.094(2)
C17? C 0.157(3) 0.446(5) 1.1254(18)
H23? H 0.1460 0.5334 1.1146
C18? C 0.249(3) 0.394(4) 1.2150(19)
H24? H 0.3113 0.4397 1.2124
H25? H 0.3051 0.3061 1.2282
C19? C 0.148(4) 0.410(4) 1.291(3)
H26? H 0.2041 0.3842 1.3503
H27? H 0.0920 0.4985 1.2748
C20? C 0.049(6) 0.337(5) 1.306(3)
H28? H 0.1025 0.2479 1.3339
H29? H -0.0174 0.3617 1.3485
C21? C -0.029(3) 0.363(2) 1.213(2)
H30? H -0.0033 0.2885 1.1965
H31? H -0.1297 0.3958 1.2151
C22? C 0.020(3) 0.461(2) 1.147(2)
H32? H -0.0363 0.4892 1.0878
H33? H -0.0100 0.5314 1.1695
C23? C 0.800(13) 0.453(7) 0.457(6)
H34? H 0.8898 0.3905 0.4595
H35? H 0.7327 0.4499 0.4161
H36? H 0.8071 0.5348 0.4351
C24? C 0.754(4) 0.429(5) 0.554(4)
H37? H 0.7514 0.3448 0.5758
H38? H 0.8256 0.4294 0.5947
O3? O 0.625(3) 0.512(4) 0.5633(14)
O6? O -0.5264(13) 0.9542(12) 0.2458(8)
C41? C -0.622(3) 0.897(6) 0.391(2)
H61? H -0.7127 0.8934 0.3821
H62? H -0.6312 0.9823 0.3809
H63? H -0.5803 0.8455 0.4542
C42? C -0.530(2) 0.8499(16) 0.3233(12)
H64? H -0.4355 0.7989 0.3542
H65? H -0.5661 0.7982 0.3015
loop_
_geom_bond_atom_site_label_1
_geom_bond_atom_site_label_2
_geom_bond_site_symmetry_1
_geom_bond_site_symmetry_2
C1 C2 1_555 1_555
C2 H1 1_555 1_555
C3 C2 1_555 1_555
H2 C3 1_555 1_555
C4 C3 1_555 1_555
C5 C4 1_555 1_555
H3 C5 1_555 1_555
C6 C1 1_555 1_555
H4 C6 1_555 1_555
C7 N1 1_555 1_555
C8 C9 1_555 1_555
C9 H5 1_555 1_555
C10 C9 1_555 1_555
H6 C10 1_555 1_555
H7 C10 1_555 1_555
C11 C10 1_555 1_555
H8 C11 1_555 1_555
H9 C11 1_555 1_555
C12 C11 1_555 1_555
H10 C12 1_555 1_555
H11 C12 1_555 1_555
C13 C12 1_555 1_555
H12 C13 1_555 1_555
H13 C13 1_555 1_555
C14 C9 1_555 1_555
H14 C14 1_555 1_555
H15 C14 1_555 1_555
N1 C4 1_555 1_555
N2 C7 1_555 1_555
O1 C8 1_555 1_555
S1 C7 1_555 1_555
C15 H16 1_555 1_555
H17 C15 1_555 1_555
H18 C15 1_555 1_555
C16 C15 1_555 1_555
H19 C16 1_555 1_555
H20 C16 1_555 1_555
O2 C1 1_555 1_555
H21 N1 1_555 1_555
H22 N2 1_555 1_555
C25 C26 1_555 1_555
C26 H39 1_555 1_555
C27 C26 1_555 1_555
H40 C27 1_555 1_555
C28 C27 1_555 1_555
C29 C28 1_555 1_555
H41 C29 1_555 1_555
C30 C25 1_555 1_555
H42 C30 1_555 1_555
C31 N3 1_555 1_555
C32 C33 1_555 1_555
C33 H43 1_555 1_555
C34 C33 1_555 1_555
H44 C34 1_555 1_555
H45 C34 1_555 1_555
C35 C34 1_555 1_555
H46 C35 1_555 1_555
H47 C35 1_555 1_555
C36 C35 1_555 1_555
H48 C36 1_555 1_555
H49 C36 1_555 1_555
C37 C36 1_555 1_555
H50 C37 1_555 1_555
H51 C37 1_555 1_555
C38 C33 1_555 1_555
H52 C38 1_555 1_555
H53 C38 1_555 1_555
N3 C28 1_555 1_555
N4 C31 1_555 1_555
O4 C32 1_555 1_555
S2 C31 1_555 1_555
C39 H54 1_555 1_555
H55 C39 1_555 1_555
H56 C39 1_555 1_555
C40 C39 1_555 1_555
H57 C40 1_555 1_555
H58 C40 1_555 1_555
O5 C25 1_555 1_555
H59 N3 1_555 1_555
H60 N4 1_555 1_555
C5 C6 1_555 1_555
C8 N2 1_555 1_555
C13 C14 1_555 1_555
C16 O2 1_555 1_555
C29 C30 1_555 1_555
C32 N4 1_555 1_555
C37 C38 1_555 1_555
C40 O5 1_555 1_555

#END
