
#######################################################################
#
#                 Cambridge Crystallographic Data Centre
#                                CCDC 
#
#######################################################################
#
# If this CIF has been generated from an entry in the Cambridge 
# Structural Database, then it will include bibliographic, chemical, 
# crystal, experimental, refinement or atomic coordinate data resulting 
# from the CCDC's data processing and validation procedures.
#
#######################################################################

data_LUTXII
_chemical_formula_moiety         'C13 H12 N4 O3 S1'
_chemical_name_systematic        
5-(1,3,7-Trimethyl-2,6-dioxo-2,3,6,7-tetrahydro-1H-purin-8-yl)thiophene-2-carbaldehyde
_symmetry_cell_setting           monoclinic
_symmetry_space_group_name_H-M   'P 21/m'
_symmetry_Int_Tables_number      11
_space_group_name_Hall           '-P 2yb'
loop_
_symmetry_equiv_pos_site_id
_symmetry_equiv_pos_as_xyz
1 x,y,z
2 -x,1/2+y,-z
3 -x,-y,-z
4 x,1/2-y,z
_cell_length_a                   8.2106(14)
_cell_length_b                   6.7252(12)
_cell_length_c                   12.488(2)
_cell_angle_alpha                90
_cell_angle_beta                 96.472(3)
_cell_angle_gamma                90
_cell_volume                     685.167
_exptl_crystal_colour            orange
_exptl_crystal_description       parallelepiped
_cell_formula_units_Z            2
loop_
_atom_site_label
_atom_site_type_symbol
_atom_site_fract_x
_atom_site_fract_y
_atom_site_fract_z
S1 S 0.76349(8) 0.2500 0.39166(5)
O1 O 1.0051(3) 0.2500 0.2213(2)
O2 O 0.5775(3) 0.2500 0.96471(15)
O3 O 0.1216(2) 0.2500 0.71949(19)
N1 N 0.3611(2) 0.2500 0.54501(16)
N2 N 0.6320(3) 0.2500 0.59658(17)
N3 N 0.6188(3) 0.2500 0.78851(17)
N4 N 0.3521(3) 0.2500 0.84080(17)
C1 C 0.8618(4) 0.2500 0.1870(2)
H1 H 0.8354 0.2500 0.1126
C2 C 0.7261(4) 0.2500 0.2536(2)
C3 C 0.5633(4) 0.2500 0.2194(2)
H2 H 0.5212 0.2500 0.1471
C4 C 0.4638(4) 0.2500 0.3054(2)
H3 H 0.3498 0.2500 0.2961
C5 C 0.5569(3) 0.2500 0.40377(19)
C6 C 0.5132(3) 0.2500 0.5139(2)
C7 C 0.3838(3) 0.2500 0.6567(2)
C8 C 0.5492(3) 0.2500 0.68353(19)
C9 C 0.5203(3) 0.2500 0.8702(2)
C10 C 0.2706(3) 0.2500 0.7357(2)
C11 C 0.2027(4) 0.2500 0.4785(3)
H4 H 0.196(3) 0.139(3) 0.431(2)
H5 H 0.118(5) 0.2500 0.516(3)
C12 C 0.7973(4) 0.2500 0.8139(3)
H6 H 0.8245 0.1355 0.8583
H7 H 0.867(9) 0.2500 0.764(6)
C13 C 0.2517(5) 0.2500 0.9309(3)
H8 H 0.156(7) 0.2500 0.905(4)
H9 H 0.279(4) 0.118(5) 0.974(2)
H4C H 0.196(3) 0.361(3) 0.431(2)
H6C H 0.8245 0.3645 0.8583
H9C H 0.279(4) 0.382(5) 0.974(2)
loop_
_geom_bond_atom_site_label_1
_geom_bond_atom_site_label_2
_geom_bond_site_symmetry_1
_geom_bond_site_symmetry_2
S1 C2 1_555 1_555
O1 C1 1_555 1_555
O2 C9 1_555 1_555
O3 C10 1_555 1_555
N1 C6 1_555 1_555
N2 C6 1_555 1_555
N3 C8 1_555 1_555
N4 C9 1_555 1_555
C1 H1 1_555 1_555
C2 C1 1_555 1_555
C3 C2 1_555 1_555
H2 C3 1_555 1_555
C4 C3 1_555 1_555
H3 C4 1_555 1_555
C5 S1 1_555 1_555
C6 C5 1_555 1_555
C7 N1 1_555 1_555
C8 N2 1_555 1_555
C9 N3 1_555 1_555
C10 N4 1_555 1_555
C11 N1 1_555 1_555
H4 C11 1_555 1_555
H5 C11 1_555 1_555
C12 N3 1_555 1_555
H6 C12 1_555 1_555
H7 C12 1_555 1_555
C13 N4 1_555 1_555
H8 C13 1_555 1_555
H9 C13 1_555 1_555
H4C C11 1_555 1_555
H6C C12 1_555 1_555
H9C C13 1_555 1_555
C4 C5 1_555 1_555
C7 C8 1_555 1_555
C7 C10 1_555 1_555

#END
