
#######################################################################
#
#                 Cambridge Crystallographic Data Centre
#                                CCDC 
#
#######################################################################
#
# If this CIF has been generated from an entry in the Cambridge 
# Structural Database, then it will include bibliographic, chemical, 
# crystal, experimental, refinement or atomic coordinate data resulting 
# from the CCDC's data processing and validation procedures.
#
#######################################################################

data_LUTXEE
_chemical_formula_moiety         'C20 H17 N1 O4'
_chemical_name_systematic        
'Dimethyl ((2-phenyl-1H-indol-3-yl)methylene)malonate'
_symmetry_cell_setting           orthorhombic
_symmetry_space_group_name_H-M   'P b c a'
_symmetry_Int_Tables_number      61
_space_group_name_Hall           '-P 2ac 2ab'
loop_
_symmetry_equiv_pos_site_id
_symmetry_equiv_pos_as_xyz
1 x,y,z
2 1/2-x,-y,1/2+z
3 -x,1/2+y,1/2-z
4 1/2+x,1/2-y,-z
5 -x,-y,-z
6 1/2+x,y,1/2-z
7 x,1/2-y,1/2+z
8 1/2-x,1/2+y,z
_cell_length_a                   9.1227(11)
_cell_length_b                   18.873(2)
_cell_length_c                   20.343(2)
_cell_angle_alpha                90
_cell_angle_beta                 90
_cell_angle_gamma                90
_cell_volume                     3502.51
_exptl_crystal_colour            white
_exptl_crystal_description       needle
_cell_formula_units_Z            8
loop_
_atom_site_label
_atom_site_type_symbol
_atom_site_fract_x
_atom_site_fract_y
_atom_site_fract_z
O1 O 0.67764(19) 1.19701(7) 0.75894(8)
O2 O 0.84496(18) 1.14261(7) 0.69650(7)
O3 O 0.68209(19) 1.13665(7) 0.89036(7)
O4 O 0.57696(16) 1.03444(7) 0.85859(7)
N1 N 0.86027(19) 0.83443(8) 0.80738(8)
H1 H 0.8704 0.7898 0.7956
C1 C 0.7552(2) 1.14618(10) 0.74821(10)
C2 C 0.8454(3) 1.20514(11) 0.65498(12)
H2 H 0.9142 1.1982 0.6185
H3 H 0.8758 1.2464 0.6809
H4 H 0.7467 1.2131 0.6375
C3 C 0.6700(2) 1.08852(10) 0.85128(10)
C4 C 0.4934(3) 1.03370(12) 0.91886(11)
H5 H 0.4290 0.9921 0.9194
H6 H 0.4341 1.0769 0.9217
H7 H 0.5605 1.0316 0.9564
C5 C 0.7559(2) 1.08140(10) 0.78940(9)
C6 C 0.8201(2) 1.02071(10) 0.76852(10)
H8 H 0.8633 1.0231 0.7261
C7 C 0.8329(2) 0.95290(10) 0.80096(9)
C8 C 0.8390(2) 0.93297(10) 0.86993(10)
C9 C 0.8424(2) 0.96951(10) 0.92997(10)
H9 H 0.8381 1.0198 0.9308
C10 C 0.8523(2) 0.93140(11) 0.98800(10)
H10 H 0.8539 0.9561 1.0287
C11 C 0.8600(2) 0.85708(11) 0.98807(11)
H11 H 0.8641 0.8323 1.0287
C12 C 0.8617(2) 0.81941(11) 0.92947(10)
H12 H 0.8680 0.7692 0.9289
C13 C 0.8539(2) 0.85848(10) 0.87158(10)
C14 C 0.8485(2) 0.89038(10) 0.76507(9)
C15 C 0.8471(2) 0.87831(9) 0.69355(10)
C16 C 0.7307(2) 0.90213(10) 0.65512(10)
H13 H 0.6540 0.9288 0.6747
C17 C 0.7264(3) 0.88697(11) 0.58817(10)
H14 H 0.6460 0.9027 0.5623
C18 C 0.8392(3) 0.84890(11) 0.55912(10)
H15 H 0.8358 0.8384 0.5135
C19 C 0.9567(3) 0.82624(11) 0.59673(11)
H16 H 1.0350 0.8011 0.5766
C20 C 0.9606(2) 0.84009(10) 0.66365(10)
H17 H 1.0406 0.8236 0.6893
loop_
_geom_bond_atom_site_label_1
_geom_bond_atom_site_label_2
_geom_bond_site_symmetry_1
_geom_bond_site_symmetry_2
O1 C1 1_555 1_555
O2 C1 1_555 1_555
O3 C3 1_555 1_555
O4 C3 1_555 1_555
N1 H1 1_555 1_555
C1 C5 1_555 1_555
C2 O2 1_555 1_555
H2 C2 1_555 1_555
H3 C2 1_555 1_555
H4 C2 1_555 1_555
C3 C5 1_555 1_555
C4 O4 1_555 1_555
H5 C4 1_555 1_555
H6 C4 1_555 1_555
H7 C4 1_555 1_555
C5 C6 1_555 1_555
C6 H8 1_555 1_555
C7 C6 1_555 1_555
C8 C7 1_555 1_555
C9 C8 1_555 1_555
H9 C9 1_555 1_555
C10 C9 1_555 1_555
H10 C10 1_555 1_555
C11 C10 1_555 1_555
H11 C11 1_555 1_555
C12 C11 1_555 1_555
H12 C12 1_555 1_555
C13 N1 1_555 1_555
C14 N1 1_555 1_555
C15 C14 1_555 1_555
C16 C15 1_555 1_555
H13 C16 1_555 1_555
C17 C16 1_555 1_555
H14 C17 1_555 1_555
C18 C17 1_555 1_555
H15 C18 1_555 1_555
C19 C18 1_555 1_555
H16 C19 1_555 1_555
C20 C15 1_555 1_555
H17 C20 1_555 1_555
C7 C14 1_555 1_555
C8 C13 1_555 1_555
C12 C13 1_555 1_555
C19 C20 1_555 1_555

#END
