
#######################################################################
#
#                 Cambridge Crystallographic Data Centre
#                                CCDC 
#
#######################################################################
#
# If this CIF has been generated from an entry in the Cambridge 
# Structural Database, then it will include bibliographic, chemical, 
# crystal, experimental, refinement or atomic coordinate data resulting 
# from the CCDC's data processing and validation procedures.
#
#######################################################################

data_LUVRID
_chemical_formula_moiety         'C15 H15 N1 O1'
_chemical_name_systematic        N-phenyl-N-p-tolylacetamide
_symmetry_cell_setting           monoclinic
_symmetry_space_group_name_H-M   'P 21/c'
_symmetry_Int_Tables_number      14
_space_group_name_Hall           '-P 2ybc'
loop_
_symmetry_equiv_pos_site_id
_symmetry_equiv_pos_as_xyz
1 x,y,z
2 -x,1/2+y,1/2-z
3 -x,-y,-z
4 x,1/2-y,1/2+z
_cell_length_a                   7.1195(16)
_cell_length_b                   19.006(4)
_cell_length_c                   9.390(2)
_cell_angle_alpha                90
_cell_angle_beta                 105.780(4)
_cell_angle_gamma                90
_cell_volume                     1222.71
_exptl_crystal_colour            colorless
_exptl_crystal_description       prism
_cell_formula_units_Z            4
loop_
_atom_site_label
_atom_site_type_symbol
_atom_site_fract_x
_atom_site_fract_y
_atom_site_fract_z
O1 O -0.17683(13) 0.54503(5) 0.34422(11)
N1 N 0.10426(15) 0.60773(6) 0.40252(11)
C1 C -0.06132(18) 0.58235(7) 0.43246(14)
C2 C -0.0958(2) 0.60216(9) 0.57829(17)
H1 H -0.237(3) 0.5989(9) 0.5669(19)
H2 H -0.045(2) 0.6498(10) 0.6142(19)
H3 H -0.025(3) 0.5694(10) 0.655(2)
C3 C 0.14456(18) 0.59293(7) 0.26343(14)
C4 C 0.0051(2) 0.60565(8) 0.13120(16)
H4 H -0.125(2) 0.6254(9) 0.1324(17)
C5 C 0.0462(2) 0.59113(9) -0.00144(16)
H5 H -0.052(2) 0.5984(8) -0.0920(18)
C6 C 0.2257(2) 0.56425(9) -0.00297(16)
H6 H 0.251(2) 0.5547(8) -0.1005(18)
C7 C 0.3654(2) 0.55271(8) 0.12869(17)
H7 H 0.494(3) 0.5342(9) 0.1311(18)
C8 C 0.3252(2) 0.56671(8) 0.26231(15)
H8 H 0.414(2) 0.5607(8) 0.3506(17)
C9 C 0.25113(18) 0.64557(7) 0.51124(14)
C10 C 0.2799(2) 0.71610(8) 0.49064(17)
H9 H 0.202(2) 0.7400(9) 0.4059(19)
C11 C 0.4217(2) 0.75247(9) 0.59523(18)
H10 H 0.441(3) 0.7998(10) 0.5786(18)
C12 C 0.5369(2) 0.71948(8) 0.71979(16)
C13 C 0.5055(2) 0.64874(8) 0.73904(16)
H11 H 0.589(2) 0.6255(9) 0.8271(17)
C14 C 0.36483(19) 0.61135(8) 0.63536(15)
H12 H 0.3453(19) 0.5615(8) 0.6489(15)
C15 C 0.6938(3) 0.75954(11) 0.8290(2)
H13 H 0.817(4) 0.7611(13) 0.800(3)
H14 H 0.743(4) 0.7375(12) 0.925(3)
H15 H 0.655(3) 0.8052(14) 0.848(2)
loop_
_geom_bond_atom_site_label_1
_geom_bond_atom_site_label_2
_geom_bond_site_symmetry_1
_geom_bond_site_symmetry_2
O1 C1 1_555 1_555
N1 C1 1_555 1_555
C1 C2 1_555 1_555
C2 H1 1_555 1_555
H2 C2 1_555 1_555
H3 C2 1_555 1_555
C3 N1 1_555 1_555
C4 C3 1_555 1_555
H4 C4 1_555 1_555
C5 C4 1_555 1_555
H5 C5 1_555 1_555
C6 C5 1_555 1_555
H6 C6 1_555 1_555
C7 C6 1_555 1_555
H7 C7 1_555 1_555
C8 C3 1_555 1_555
H8 C8 1_555 1_555
C9 N1 1_555 1_555
C10 C9 1_555 1_555
H9 C10 1_555 1_555
C11 C10 1_555 1_555
H10 C11 1_555 1_555
C12 C11 1_555 1_555
C13 C12 1_555 1_555
H11 C13 1_555 1_555
C14 C9 1_555 1_555
H12 C14 1_555 1_555
C15 C12 1_555 1_555
H13 C15 1_555 1_555
H14 C15 1_555 1_555
H15 C15 1_555 1_555
C7 C8 1_555 1_555
C13 C14 1_555 1_555

#END
