
#######################################################################
#
#                 Cambridge Crystallographic Data Centre
#                                CCDC 
#
#######################################################################
#
# If this CIF has been generated from an entry in the Cambridge 
# Structural Database, then it will include bibliographic, chemical, 
# crystal, experimental, refinement or atomic coordinate data resulting 
# from the CCDC's data processing and validation procedures.
#
#######################################################################

data_LUVREZ
_chemical_formula_moiety         'C14 H12 N2 O3'
_chemical_name_systematic        N-(4-nitrophenyl)-N-phenylacetamide
_symmetry_cell_setting           monoclinic
_symmetry_space_group_name_H-M   'P 21/c'
_symmetry_Int_Tables_number      14
_space_group_name_Hall           '-P 2ybc'
loop_
_symmetry_equiv_pos_site_id
_symmetry_equiv_pos_as_xyz
1 x,y,z
2 -x,1/2+y,1/2-z
3 -x,-y,-z
4 x,1/2-y,1/2+z
_cell_length_a                   11.990(1)
_cell_length_b                   15.038(2)
_cell_length_c                   6.9656(7)
_cell_angle_alpha                90
_cell_angle_beta                 92.203(2)
_cell_angle_gamma                90
_cell_volume                     1255.01
_exptl_crystal_colour            colorless
_exptl_crystal_description       prism
_cell_formula_units_Z            4
loop_
_atom_site_label
_atom_site_type_symbol
_atom_site_fract_x
_atom_site_fract_y
_atom_site_fract_z
O1 O 0.16919(8) 0.47549(6) -0.12305(14)
O2 O -0.23128(10) 0.22403(8) 0.2275(2)
O3 O -0.13069(10) 0.10787(7) 0.18729(19)
N1 N 0.23787(9) 0.40652(7) 0.14609(16)
N2 N -0.14152(11) 0.18837(8) 0.20114(19)
C1 C 0.24069(12) 0.47101(8) 0.0052(2)
C2 C 0.33435(14) 0.53755(10) 0.0209(3)
H1 H 0.3407(17) 0.5683(15) -0.098(3)
H2 H 0.402(2) 0.5131(14) 0.049(3)
H3 H 0.322(2) 0.5768(18) 0.116(4)
C3 C 0.33106(11) 0.39030(8) 0.2775(2)
C4 C 0.32734(14) 0.41869(10) 0.4657(2)
H4 H 0.2650(14) 0.4488(10) 0.509(2)
C5 C 0.41842(15) 0.40323(11) 0.5898(3)
H5 H 0.4181(16) 0.4239(13) 0.721(3)
C6 C 0.51220(15) 0.36092(10) 0.5267(3)
H6 H 0.5748(15) 0.3532(11) 0.613(3)
C7 C 0.51498(14) 0.33160(10) 0.3396(3)
H7 H 0.5792(16) 0.3031(12) 0.293(3)
C8 C 0.42409(13) 0.34585(10) 0.2142(2)
H8 H 0.4233(14) 0.3245(10) 0.084(3)
C9 C 0.14125(11) 0.35111(8) 0.16015(19)
C10 C 0.03645(12) 0.38949(9) 0.1706(2)
H9 H 0.0267(13) 0.4530(11) 0.167(2)
C11 C -0.05634(13) 0.33620(9) 0.1851(2)
H10 H -0.1282(14) 0.3594(10) 0.195(2)
C12 C -0.04242(12) 0.24482(9) 0.18854(19)
C13 C 0.06095(12) 0.20499(9) 0.18146(19)
H11 H 0.0693(12) 0.1410(10) 0.188(2)
C14 C 0.15348(12) 0.25912(9) 0.1680(2)
H12 H 0.2259(13) 0.2339(9) 0.163(2)
loop_
_geom_bond_atom_site_label_1
_geom_bond_atom_site_label_2
_geom_bond_site_symmetry_1
_geom_bond_site_symmetry_2
O1 C1 1_555 1_555
O2 N2 1_555 1_555
O3 N2 1_555 1_555
N1 C1 1_555 1_555
N2 C12 1_555 1_555
C1 C2 1_555 1_555
C2 H1 1_555 1_555
H2 C2 1_555 1_555
H3 C2 1_555 1_555
C3 N1 1_555 1_555
C4 C3 1_555 1_555
H4 C4 1_555 1_555
C5 C4 1_555 1_555
H5 C5 1_555 1_555
C6 C5 1_555 1_555
H6 C6 1_555 1_555
C7 C6 1_555 1_555
H7 C7 1_555 1_555
C8 C3 1_555 1_555
H8 C8 1_555 1_555
C9 N1 1_555 1_555
C10 C9 1_555 1_555
H9 C10 1_555 1_555
C11 C10 1_555 1_555
H10 C11 1_555 1_555
C12 C11 1_555 1_555
C13 C12 1_555 1_555
H11 C13 1_555 1_555
C14 C9 1_555 1_555
H12 C14 1_555 1_555
C7 C8 1_555 1_555
C13 C14 1_555 1_555

#END
