
#######################################################################
#
#                 Cambridge Crystallographic Data Centre
#                                CCDC 
#
#######################################################################
#
# If this CIF has been generated from an entry in the Cambridge 
# Structural Database, then it will include bibliographic, chemical, 
# crystal, experimental, refinement or atomic coordinate data resulting 
# from the CCDC's data processing and validation procedures.
#
#######################################################################

data_LUVVIJ
_chemical_formula_moiety         'C28 H23 N1 O3 S1'
_chemical_name_systematic        
2-(4-methoxyphenyl)-1-((4-methylphenyl)sulfonyl)-3-phenyl-1H-indole
_symmetry_cell_setting           triclinic
_symmetry_space_group_name_H-M   'P -1'
_symmetry_Int_Tables_number      2
_space_group_name_Hall           '-P 1'
loop_
_symmetry_equiv_pos_site_id
_symmetry_equiv_pos_as_xyz
1 x,y,z
2 -x,-y,-z
_cell_length_a                   10.0100(10)
_cell_length_b                   10.8178(10)
_cell_length_c                   11.6056(11)
_cell_angle_alpha                83.927(2)
_cell_angle_beta                 74.566(2)
_cell_angle_gamma                76.280(2)
_cell_volume                     1175.62
_exptl_crystal_colour            colorless
_exptl_crystal_description       prismatic
_cell_formula_units_Z            2
loop_
_atom_site_label
_atom_site_type_symbol
_atom_site_fract_x
_atom_site_fract_y
_atom_site_fract_z
S1 S 0.13869(5) 0.67448(4) 0.59210(4)
N1 N -0.01079(15) 0.78548(12) 0.63431(12)
O1 O 0.11579(16) 0.60847(12) 0.50174(11)
O2 O 0.25287(14) 0.73714(12) 0.56657(13)
O3 O 0.38182(14) 1.15055(13) 0.74734(13)
C1 C -0.14800(18) 0.76138(15) 0.65123(14)
C2 C -0.1909(2) 0.66111(17) 0.61607(17)
H1 H -0.1252 0.5931 0.5765
C3 C -0.3342(2) 0.66670(19) 0.64215(19)
H2 H -0.3657 0.6002 0.6209
C4 C -0.4330(2) 0.7681(2) 0.69901(19)
H3 H -0.5293 0.7695 0.7137
C5 C -0.39039(19) 0.86729(17) 0.73435(16)
H4 H -0.4570 0.9358 0.7720
C6 C -0.24558(18) 0.86274(14) 0.71247(14)
C7 C -0.16723(17) 0.94910(14) 0.73636(13)
C8 C -0.02656(17) 0.90052(14) 0.69152(13)
C9 C 0.09136(17) 0.95636(14) 0.69923(14)
C10 C 0.17249(19) 1.01242(16) 0.60092(15)
H5 H 0.1603 1.0060 0.5252
C11 C 0.27071(19) 1.07733(17) 0.61265(16)
H6 H 0.3237 1.1144 0.5455
C12 C 0.29020(18) 1.08712(16) 0.72425(17)
C13 C 0.2119(2) 1.02974(18) 0.82310(17)
H7 H 0.2260 1.0345 0.8984
C14 C 0.11362(19) 0.96592(16) 0.81064(15)
H8 H 0.0611 0.9285 0.8779
C15 C 0.4639(3) 1.2134(3) 0.6492(2)
H9 H 0.5228 1.1519 0.5926
H10 H 0.5226 1.2551 0.6779
H11 H 0.4015 1.2754 0.6111
C16 C -0.23104(17) 1.07331(15) 0.79293(14)
C17 C -0.33922(19) 1.08218(18) 0.89746(15)
H12 H -0.3687 1.0090 0.9339
C18 C -0.4035(2) 1.1982(2) 0.94790(19)
H13 H -0.4754 1.2028 1.0182
C19 C -0.3615(2) 1.3071(2) 0.8944(2)
H14 H -0.4056 1.3854 0.9280
C20 C -0.2535(2) 1.30002(18) 0.7909(2)
H15 H -0.2244 1.3734 0.7549
C21 C -0.18897(19) 1.18383(16) 0.74081(17)
H16 H -0.1162 1.1796 0.6711
C22 C 0.14695(18) 0.57068(15) 0.71783(16)
C23 C 0.2097(2) 0.5979(2) 0.8015(2)
H17 H 0.2470 0.6704 0.7915
C24 C 0.2166(3) 0.5163(2) 0.9002(2)
H18 H 0.2587 0.5347 0.9569
C25 C 0.1623(2) 0.4072(2) 0.91698(19)
C26 C 0.0992(2) 0.38350(18) 0.83261(19)
H19 H 0.0609 0.3115 0.8431
C27 C 0.0908(2) 0.46333(16) 0.73277(18)
H20 H 0.0481 0.4452 0.6764
C28 C 0.1740(3) 0.3174(2) 1.0239(2)
H21 H 0.0881 0.2868 1.0534
H22 H 0.1888 0.3614 1.0855
H23 H 0.2527 0.2467 1.0010
loop_
_geom_bond_atom_site_label_1
_geom_bond_atom_site_label_2
_geom_bond_site_symmetry_1
_geom_bond_site_symmetry_2
S1 N1 1_555 1_555
N1 C1 1_555 1_555
O1 S1 1_555 1_555
O2 S1 1_555 1_555
O3 C12 1_555 1_555
C1 C2 1_555 1_555
C2 H1 1_555 1_555
C3 C2 1_555 1_555
H2 C3 1_555 1_555
C4 C3 1_555 1_555
H3 C4 1_555 1_555
C5 C4 1_555 1_555
H4 C5 1_555 1_555
C6 C1 1_555 1_555
C7 C6 1_555 1_555
C8 N1 1_555 1_555
C9 C8 1_555 1_555
C10 C9 1_555 1_555
H5 C10 1_555 1_555
C11 C10 1_555 1_555
H6 C11 1_555 1_555
C12 C11 1_555 1_555
C13 C12 1_555 1_555
H7 C13 1_555 1_555
C14 C9 1_555 1_555
H8 C14 1_555 1_555
C15 O3 1_555 1_555
H9 C15 1_555 1_555
H10 C15 1_555 1_555
H11 C15 1_555 1_555
C16 C7 1_555 1_555
C17 C16 1_555 1_555
H12 C17 1_555 1_555
C18 C17 1_555 1_555
H13 C18 1_555 1_555
C19 C18 1_555 1_555
H14 C19 1_555 1_555
C20 C19 1_555 1_555
H15 C20 1_555 1_555
C21 C16 1_555 1_555
H16 C21 1_555 1_555
C22 S1 1_555 1_555
C23 C22 1_555 1_555
H17 C23 1_555 1_555
C24 C23 1_555 1_555
H18 C24 1_555 1_555
C25 C24 1_555 1_555
C26 C25 1_555 1_555
H19 C26 1_555 1_555
C27 C22 1_555 1_555
H20 C27 1_555 1_555
C28 C25 1_555 1_555
H21 C28 1_555 1_555
H22 C28 1_555 1_555
H23 C28 1_555 1_555
C5 C6 1_555 1_555
C7 C8 1_555 1_555
C13 C14 1_555 1_555
C20 C21 1_555 1_555
C26 C27 1_555 1_555

#END
