
#######################################################################
#
#                 Cambridge Crystallographic Data Centre
#                                CCDC 
#
#######################################################################
#
# If this CIF has been generated from an entry in the Cambridge 
# Structural Database, then it will include bibliographic, chemical, 
# crystal, experimental, refinement or atomic coordinate data resulting 
# from the CCDC's data processing and validation procedures.
#
#######################################################################

data_LUVYUY
_chemical_formula_moiety         'C21 H22 O1 Si1'
_chemical_name_systematic        
(6E,9Z)-8-Phenyl-7-(trimethylsilyl)benzo[8]annulen-5(8H)-one
_symmetry_cell_setting           monoclinic
_symmetry_space_group_name_H-M   'I a'
_symmetry_Int_Tables_number      9
_space_group_name_Hall           'I -2ya'
loop_
_symmetry_equiv_pos_site_id
_symmetry_equiv_pos_as_xyz
1 x,y,z
2 1/2+x,-y,z
3 1/2+x,1/2+y,1/2+z
4 x,1/2-y,1/2+z
_cell_length_a                   12.10643(12)
_cell_length_b                   52.9572(4)
_cell_length_c                   14.05687(14)
_cell_angle_alpha                90
_cell_angle_beta                 98.0153(10)
_cell_angle_gamma                90
_cell_volume                     8924.14
_exptl_crystal_colour            orange
_exptl_crystal_description       block
_chemical_melting_point          '377-380 K'
_cell_formula_units_Z            20
_exptl_crystal_recrystallization_method Pentane
loop_
_atom_site_label
_atom_site_type_symbol
_atom_site_fract_x
_atom_site_fract_y
_atom_site_fract_z
C1 C 0.5281(3) 0.50513(8) 0.9008(3)
C2 C 0.5959(3) 0.51763(8) 0.8320(3)
C3 C 0.6408(3) 0.50617(7) 0.7494(3)
H1 H 0.6523 0.5178 0.7003
C4 C 0.6683(3) 0.48227(7) 0.7316(3)
C5 C 0.6395(3) 0.46113(7) 0.7988(3)
H2 H 0.6433 0.4687 0.8644
C6 C 0.5184(3) 0.45606(7) 0.7639(3)
H3 H 0.4999 0.4437 0.7154
C7 C 0.4353(3) 0.46833(8) 0.7984(3)
H4 H 0.3616 0.4655 0.7671
C8 C 0.4492(3) 0.48570(8) 0.8806(3)
C9 C 0.5346(4) 0.51788(10) 0.9897(3)
H5 H 0.5893 0.5307 1.0048
C10 C 0.4627(5) 0.51210(11) 1.0555(4)
H6 H 0.4707 0.5203 1.1161
C11 C 0.3802(5) 0.49454(12) 1.0331(4)
H7 H 0.3279 0.4914 1.0761
C12 C 0.3737(4) 0.48132(10) 0.9466(4)
H8 H 0.3167 0.4690 0.9318
O1 O 0.6154(3) 0.54019(6) 0.8439(3)
Si1 Si 0.72308(9) 0.47610(2) 0.61386(9)
C13 C 0.6716(5) 0.50215(11) 0.5274(4)
H9 H 0.7139 0.5176 0.5452
H10 H 0.5923 0.5052 0.5300
H11 H 0.6819 0.4972 0.4621
C14 C 0.8787(3) 0.47657(9) 0.6310(3)
H12 H 0.9053 0.4927 0.6601
H13 H 0.9052 0.4746 0.5687
H14 H 0.9073 0.4627 0.6734
C15 C 0.6676(4) 0.44563(9) 0.5636(3)
H15 H 0.6889 0.4321 0.6103
H16 H 0.6984 0.4420 0.5042
H17 H 0.5861 0.4466 0.5499
C16 C 0.7157(3) 0.43822(7) 0.8084(3)
C17 C 0.8290(3) 0.44238(8) 0.8361(3)
H18 H 0.8568 0.4591 0.8449
C18 C 0.9018(3) 0.42181(9) 0.8512(3)
H19 H 0.9797 0.4246 0.8680
C19 C 0.8600(4) 0.39733(8) 0.8413(3)
H20 H 0.9089 0.3833 0.8542
C20 C 0.7461(4) 0.39333(7) 0.8125(3)
H21 H 0.7180 0.3766 0.8035
C21 C 0.6740(3) 0.41379(7) 0.7971(3)
H22 H 0.5964 0.4111 0.7788
Si2 Si 0.70205(16) 0.68119(4) 0.61914(12)
C22 C 0.5149(5) 0.70766(10) 0.9147(5)
C23 C 0.5772(5) 0.72069(10) 0.8443(5)
C24 C 0.6210(5) 0.71015(10) 0.7596(5)
H23 H 0.6312 0.7223 0.7118
C25 C 0.6490(5) 0.68639(10) 0.7382(4)
C26 C 0.6209(4) 0.66467(9) 0.8028(4)
H24 H 0.6272 0.6716 0.8696
C27 C 0.4997(5) 0.65996(9) 0.7707(4)
H25 H 0.4787 0.6481 0.7208
C28 C 0.4197(5) 0.67192(10) 0.8099(4)
H26 H 0.3452 0.6698 0.7793
C29 C 0.4363(5) 0.68800(9) 0.8955(4)
C30 C 0.5257(6) 0.71936(11) 1.0054(6)
H27 H 0.5800 0.7323 1.0194
C31 C 0.4612(7) 0.71294(14) 1.0741(6)
H28 H 0.4725 0.7209 1.1352
C32 C 0.3788(6) 0.69466(14) 1.0537(6)
H29 H 0.3313 0.6905 1.0997
C33 C 0.3671(5) 0.68248(11) 0.9641(5)
H30 H 0.3103 0.6701 0.9498
O2 O 0.5971(4) 0.74346(7) 0.8571(4)
C34 C 0.6791(13) 0.7094(3) 0.5387(13)
H31 H 0.7165 0.7241 0.5710
H32 H 0.5989 0.7128 0.5239
H33 H 0.7098 0.7061 0.4789
C35 C 0.8590(9) 0.6747(3) 0.6348(8)
H34 H 0.8753 0.6593 0.6728
H35 H 0.8990 0.6890 0.6679
H36 H 0.8831 0.6725 0.5715
C36 C 0.6271(17) 0.6534(4) 0.5565(13)
H37 H 0.5517 0.6524 0.5740
H38 H 0.6680 0.6379 0.5759
H39 H 0.6224 0.6556 0.4868
C37 C 0.6959(5) 0.64190(9) 0.8074(3)
C38 C 0.8075(5) 0.64444(9) 0.8465(4)
H40 H 0.8353 0.6607 0.8652
C39 C 0.8791(5) 0.62406(10) 0.8590(4)
H41 H 0.9548 0.6264 0.8862
C40 C 0.8396(5) 0.60020(10) 0.8315(4)
H42 H 0.8878 0.5860 0.8397
C41 C 0.7292(5) 0.59736(10) 0.7920(5)
H43 H 0.7017 0.5811 0.7727
C42 C 0.6584(5) 0.61793(10) 0.7803(4)
H44 H 0.5827 0.6156 0.7532
C46 C 0.4978(4) 0.39604(8) 0.4265(3)
C47 C 0.5646(3) 0.38111(8) 0.3619(4)
C48 C 0.6060(3) 0.38925(8) 0.2716(3)
H54 H 0.6155 0.3758 0.2289
C49 C 0.6325(3) 0.41201(7) 0.2393(3)
C50 C 0.6035(3) 0.43545(7) 0.2945(3)
H55 H 0.6106 0.4305 0.3637
C51 C 0.4818(3) 0.43966(8) 0.2616(3)
H56 H 0.4599 0.4499 0.2068
C52 C 0.4036(3) 0.42937(8) 0.3071(3)
H57 H 0.3287 0.4312 0.2772
C53 C 0.4205(3) 0.41541(8) 0.3993(4)
C54 C 0.5053(4) 0.38610(9) 0.5204(4)
H58 H 0.5577 0.3731 0.5395
C55 C 0.4387(5) 0.39482(10) 0.5846(4)
H59 H 0.4470 0.3882 0.6481
C56 C 0.3604(5) 0.41295(11) 0.5576(4)
H60 H 0.3128 0.4186 0.6015
C57 C 0.3503(4) 0.42318(10) 0.4657(4)
H61 H 0.2950 0.4356 0.4474
O3 O 0.5885(3) 0.35928(6) 0.3858(3)
Si3 Si 0.68132(10) 0.41384(2) 0.11646(9)
C58 C 0.6801(5) 0.38113(9) 0.0659(4)
H62 H 0.7289 0.3702 0.1097
H63 H 0.7068 0.3816 0.0032
H64 H 0.6039 0.3744 0.0582
C59 C 0.8246(5) 0.42695(11) 0.1211(4)
H65 H 0.8485 0.4256 0.0575
H66 H 0.8760 0.4174 0.1678
H67 H 0.8247 0.4447 0.1405
C60 C 0.5800(5) 0.43415(10) 0.0389(4)
H68 H 0.5044 0.4275 0.0386
H69 H 0.5985 0.4342 -0.0268
H70 H 0.5838 0.4514 0.0641
C61 C 0.6792(3) 0.45829(7) 0.2888(3)
C62 C 0.7908(3) 0.45623(8) 0.3287(3)
H71 H 0.8183 0.4405 0.3541
C63 C 0.8628(4) 0.47680(9) 0.3322(4)
H72 H 0.9387 0.4750 0.3593
C64 C 0.8233(4) 0.49981(9) 0.2962(3)
H73 H 0.8722 0.5139 0.2977
C65 C 0.7132(4) 0.50229(8) 0.2582(4)
H74 H 0.6857 0.5182 0.2346
C66 C 0.6412(4) 0.48158(8) 0.2539(3)
H75 H 0.5654 0.4835 0.2267
C67 C 0.5027(4) 0.59304(9) 0.4259(4)
C68 C 0.5665(4) 0.57876(9) 0.3572(4)
C69 C 0.6068(3) 0.58839(8) 0.2690(4)
H76 H 0.6152 0.5756 0.2231
C70 C 0.6337(3) 0.61145(8) 0.2414(3)
C71 C 0.6065(3) 0.63398(8) 0.3017(3)
H77 H 0.6141 0.6281 0.3699
C72 C 0.4847(3) 0.63857(8) 0.2702(4)
H78 H 0.4630 0.6495 0.2172
C73 C 0.4056(4) 0.62777(9) 0.3141(4)
H79 H 0.3304 0.6299 0.2851
C74 C 0.4245(4) 0.61293(10) 0.4034(4)
C75 C 0.5133(5) 0.58236(12) 0.5174(4)
H80 H 0.5660 0.5692 0.5333
C76 C 0.4488(6) 0.59052(14) 0.5858(4)
H81 H 0.4594 0.5835 0.6486
C77 C 0.3692(6) 0.60892(14) 0.5617(5)
H82 H 0.3230 0.6141 0.6075
C78 C 0.3560(5) 0.61987(12) 0.4718(4)
H83 H 0.2997 0.6323 0.4560
O4 O 0.5881(4) 0.55674(7) 0.3770(3)
Si4 Si 0.68458(11) 0.61514(2) 0.11979(9)
C79 C 0.6775(5) 0.58339(11) 0.0598(4)
H84 H 0.6015 0.5767 0.0557
H85 H 0.7295 0.5718 0.0974
H86 H 0.6978 0.5851 -0.0050
C80 C 0.8309(4) 0.62678(11) 0.1308(4)
H87 H 0.8794 0.6156 0.1737
H88 H 0.8348 0.6439 0.1572
H89 H 0.8554 0.6269 0.0672
C81 C 0.5874(5) 0.63716(11) 0.0466(4)
H90 H 0.5968 0.6542 0.0735
H91 H 0.5103 0.6316 0.0474
H92 H 0.6038 0.6373 -0.0197
C82 C 0.6824(3) 0.65694(8) 0.3001(3)
C83 C 0.7930(4) 0.65467(9) 0.3418(4)
H93 H 0.8200 0.6387 0.3660
C84 C 0.8645(4) 0.67521(10) 0.3487(4)
H94 H 0.9400 0.6733 0.3769
C85 C 0.8261(4) 0.69858(9) 0.3144(5)
H95 H 0.8748 0.7127 0.3190
C86 C 0.7161(5) 0.70106(9) 0.2733(5)
H96 H 0.6892 0.7171 0.2498
C87 C 0.6444(4) 0.68041(9) 0.2659(4)
H97 H 0.5690 0.6824 0.2372
C88 C 0.5105(4) 0.30437(9) 0.9168(4)
C89 C 0.5787(5) 0.31818(9) 0.8513(4)
C90 C 0.6206(5) 0.30848(10) 0.7644(4)
H98 H 0.6312 0.3212 0.7187
C91 C 0.6465(4) 0.28519(10) 0.7379(4)
C92 C 0.6171(4) 0.26293(9) 0.7987(4)
H99 H 0.6224 0.2691 0.8663
C93 C 0.4954(4) 0.25834(10) 0.7642(4)
H100 H 0.4753 0.2471 0.7120
C94 C 0.4149(4) 0.26957(10) 0.8047(4)
H101 H 0.3404 0.2674 0.7741
C95 C 0.4311(4) 0.28495(9) 0.8918(4)
C96 C 0.5173(5) 0.31529(11) 1.0074(5)
H102 H 0.5720 0.3279 1.0253
C97 C 0.4460(5) 0.30826(13) 1.0730(5)
H103 H 0.4535 0.3156 1.1352
C98 C 0.3651(5) 0.29056(13) 1.0458(5)
H104 H 0.3139 0.2862 1.0885
C99 C 0.3573(4) 0.27911(11) 0.9571(5)
H105 H 0.3004 0.2669 0.9398
O5 O 0.6022(4) 0.34013(7) 0.8718(4)
Si5 Si 0.69849(16) 0.28164(4) 0.61690(12)
C100 C 0.6974(9) 0.31613(17) 0.5675(8)
H106 H 0.6206 0.3225 0.5570
H107 H 0.7281 0.3163 0.5066
H108 H 0.7429 0.3269 0.6142
C101 C 0.8310(8) 0.2693(2) 0.6268(9)
H109 H 0.8584 0.2704 0.5645
H110 H 0.8296 0.2516 0.6467
H111 H 0.8805 0.2789 0.6748
C102 C 0.5859(9) 0.2636(2) 0.5428(9)
H112 H 0.5842 0.2463 0.5672
H113 H 0.6002 0.2633 0.4759
H114 H 0.5139 0.2718 0.5463
C103 C 0.6932(5) 0.24007(10) 0.8004(4)
C104 C 0.8046(5) 0.24262(9) 0.8358(4)
H115 H 0.8334 0.2589 0.8538
C105 C 0.8758(5) 0.22194(10) 0.8458(5)
H116 H 0.9525 0.2244 0.8693
C106 C 0.8375(6) 0.19822(11) 0.8225(6)
H117 H 0.8862 0.1841 0.8301
C107 C 0.7248(6) 0.19537(12) 0.7871(7)
H118 H 0.6961 0.1790 0.7702
C108 C 0.6535(5) 0.21614(12) 0.7761(6)
H119 H 0.5770 0.2138 0.7518
C43? C 0.705(2) 0.7139(3) 0.5677(15)
H45? H 0.7578 0.7243 0.6096
H46? H 0.6300 0.7213 0.5631
H47? H 0.7275 0.7130 0.5036
C44? C 0.8347(13) 0.6677(4) 0.6354(14)
H48? H 0.8298 0.6502 0.6572
H49? H 0.8835 0.6773 0.6838
H50? H 0.8654 0.6680 0.5745
C45? C 0.5905(16) 0.6622(4) 0.5492(19)
H51? H 0.5918 0.6450 0.5753
H52? H 0.6029 0.6616 0.4818
H53? H 0.5179 0.6700 0.5535
C109? C 0.6614(13) 0.3069(3) 0.5310(12)
H120? H 0.6741 0.3232 0.5634
H121? H 0.5826 0.3054 0.5040
H122? H 0.7076 0.3057 0.4792
C110? C 0.8623(8) 0.2791(2) 0.6302(8)
H123? H 0.8879 0.2659 0.6767
H124? H 0.8954 0.2953 0.6528
H125? H 0.8849 0.2750 0.5678
C111? C 0.6442(13) 0.2501(3) 0.5605(13)
H126? H 0.6670 0.2484 0.4966
H127? H 0.5626 0.2497 0.5548
H128? H 0.6754 0.2361 0.6013
loop_
_geom_bond_atom_site_label_1
_geom_bond_atom_site_label_2
_geom_bond_site_symmetry_1
_geom_bond_site_symmetry_2
C1 C2 1_555 1_555
C2 C3 1_555 1_555
C3 H1 1_555 1_555
C4 C3 1_555 1_555
C5 C4 1_555 1_555
H2 C5 1_555 1_555
C6 C5 1_555 1_555
H3 C6 1_555 1_555
C7 C6 1_555 1_555
H4 C7 1_555 1_555
C8 C1 1_555 1_555
C9 C1 1_555 1_555
H5 C9 1_555 1_555
C10 C9 1_555 1_555
H6 C10 1_555 1_555
C11 C10 1_555 1_555
H7 C11 1_555 1_555
C12 C8 1_555 1_555
H8 C12 1_555 1_555
O1 C2 1_555 1_555
Si1 C4 1_555 1_555
C13 Si1 1_555 1_555
H9 C13 1_555 1_555
H10 C13 1_555 1_555
H11 C13 1_555 1_555
C14 Si1 1_555 1_555
H12 C14 1_555 1_555
H13 C14 1_555 1_555
H14 C14 1_555 1_555
C15 Si1 1_555 1_555
H15 C15 1_555 1_555
H16 C15 1_555 1_555
H17 C15 1_555 1_555
C16 C5 1_555 1_555
C17 C16 1_555 1_555
H18 C17 1_555 1_555
C18 C17 1_555 1_555
H19 C18 1_555 1_555
C19 C18 1_555 1_555
H20 C19 1_555 1_555
C20 C19 1_555 1_555
H21 C20 1_555 1_555
C21 C16 1_555 1_555
H22 C21 1_555 1_555
Si2 C25 1_555 1_555
C22 C23 1_555 1_555
C23 C24 1_555 1_555
C24 H23 1_555 1_555
C25 C24 1_555 1_555
C26 C25 1_555 1_555
H24 C26 1_555 1_555
C27 C26 1_555 1_555
H25 C27 1_555 1_555
C28 C27 1_555 1_555
H26 C28 1_555 1_555
C29 C22 1_555 1_555
C30 C22 1_555 1_555
H27 C30 1_555 1_555
C31 C30 1_555 1_555
H28 C31 1_555 1_555
C32 C31 1_555 1_555
H29 C32 1_555 1_555
C33 C29 1_555 1_555
H30 C33 1_555 1_555
O2 C23 1_555 1_555
C34 Si2 1_555 1_555
H31 C34 1_555 1_555
H32 C34 1_555 1_555
H33 C34 1_555 1_555
C35 Si2 1_555 1_555
H34 C35 1_555 1_555
H35 C35 1_555 1_555
H36 C35 1_555 1_555
C36 Si2 1_555 1_555
H37 C36 1_555 1_555
H38 C36 1_555 1_555
H39 C36 1_555 1_555
C37 C26 1_555 1_555
C38 C37 1_555 1_555
H40 C38 1_555 1_555
C39 C38 1_555 1_555
H41 C39 1_555 1_555
C40 C39 1_555 1_555
H42 C40 1_555 1_555
C41 C40 1_555 1_555
H43 C41 1_555 1_555
C42 C37 1_555 1_555
H44 C42 1_555 1_555
C46 C47 1_555 1_555
C47 C48 1_555 1_555
C48 H54 1_555 1_555
C49 C48 1_555 1_555
C50 C49 1_555 1_555
H55 C50 1_555 1_555
C51 C50 1_555 1_555
H56 C51 1_555 1_555
C52 C51 1_555 1_555
H57 C52 1_555 1_555
C53 C46 1_555 1_555
C54 C46 1_555 1_555
H58 C54 1_555 1_555
C55 C54 1_555 1_555
H59 C55 1_555 1_555
C56 C55 1_555 1_555
H60 C56 1_555 1_555
C57 C53 1_555 1_555
H61 C57 1_555 1_555
O3 C47 1_555 1_555
Si3 C49 1_555 1_555
C58 Si3 1_555 1_555
H62 C58 1_555 1_555
H63 C58 1_555 1_555
H64 C58 1_555 1_555
C59 Si3 1_555 1_555
H65 C59 1_555 1_555
H66 C59 1_555 1_555
H67 C59 1_555 1_555
C60 Si3 1_555 1_555
H68 C60 1_555 1_555
H69 C60 1_555 1_555
H70 C60 1_555 1_555
C61 C50 1_555 1_555
C62 C61 1_555 1_555
H71 C62 1_555 1_555
C63 C62 1_555 1_555
H72 C63 1_555 1_555
C64 C63 1_555 1_555
H73 C64 1_555 1_555
C65 C64 1_555 1_555
H74 C65 1_555 1_555
C66 C61 1_555 1_555
H75 C66 1_555 1_555
C67 C68 1_555 1_555
C68 C69 1_555 1_555
C69 H76 1_555 1_555
C70 C69 1_555 1_555
C71 C70 1_555 1_555
H77 C71 1_555 1_555
C72 C71 1_555 1_555
H78 C72 1_555 1_555
C73 C72 1_555 1_555
H79 C73 1_555 1_555
C74 C67 1_555 1_555
C75 C67 1_555 1_555
H80 C75 1_555 1_555
C76 C75 1_555 1_555
H81 C76 1_555 1_555
C77 C76 1_555 1_555
H82 C77 1_555 1_555
C78 C74 1_555 1_555
H83 C78 1_555 1_555
O4 C68 1_555 1_555
Si4 C70 1_555 1_555
C79 Si4 1_555 1_555
H84 C79 1_555 1_555
H85 C79 1_555 1_555
H86 C79 1_555 1_555
C80 Si4 1_555 1_555
H87 C80 1_555 1_555
H88 C80 1_555 1_555
H89 C80 1_555 1_555
C81 Si4 1_555 1_555
H90 C81 1_555 1_555
H91 C81 1_555 1_555
H92 C81 1_555 1_555
C82 C71 1_555 1_555
C83 C82 1_555 1_555
H93 C83 1_555 1_555
C84 C83 1_555 1_555
H94 C84 1_555 1_555
C85 C84 1_555 1_555
H95 C85 1_555 1_555
C86 C85 1_555 1_555
H96 C86 1_555 1_555
C87 C82 1_555 1_555
H97 C87 1_555 1_555
C88 C89 1_555 1_555
C89 C90 1_555 1_555
C90 H98 1_555 1_555
C91 C90 1_555 1_555
C92 C91 1_555 1_555
H99 C92 1_555 1_555
C93 C92 1_555 1_555
H100 C93 1_555 1_555
C94 C93 1_555 1_555
H101 C94 1_555 1_555
C95 C88 1_555 1_555
C96 C88 1_555 1_555
H102 C96 1_555 1_555
C97 C96 1_555 1_555
H103 C97 1_555 1_555
C98 C97 1_555 1_555
H104 C98 1_555 1_555
C99 C95 1_555 1_555
H105 C99 1_555 1_555
O5 C89 1_555 1_555
Si5 C91 1_555 1_555
C100 Si5 1_555 1_555
H106 C100 1_555 1_555
H107 C100 1_555 1_555
H108 C100 1_555 1_555
C101 Si5 1_555 1_555
H109 C101 1_555 1_555
H110 C101 1_555 1_555
H111 C101 1_555 1_555
C102 Si5 1_555 1_555
H112 C102 1_555 1_555
H113 C102 1_555 1_555
H114 C102 1_555 1_555
C103 C92 1_555 1_555
C104 C103 1_555 1_555
H115 C104 1_555 1_555
C105 C104 1_555 1_555
H116 C105 1_555 1_555
C106 C105 1_555 1_555
H117 C106 1_555 1_555
C107 C106 1_555 1_555
H118 C107 1_555 1_555
C108 C103 1_555 1_555
H119 C108 1_555 1_555
C7 C8 1_555 1_555
C11 C12 1_555 1_555
C20 C21 1_555 1_555
C28 C29 1_555 1_555
C32 C33 1_555 1_555
C41 C42 1_555 1_555
C52 C53 1_555 1_555
C56 C57 1_555 1_555
C65 C66 1_555 1_555
C73 C74 1_555 1_555
C77 C78 1_555 1_555
C86 C87 1_555 1_555
C94 C95 1_555 1_555
C98 C99 1_555 1_555
C107 C108 1_555 1_555

#END
