
#######################################################################
#
#                 Cambridge Crystallographic Data Centre
#                                CCDC 
#
#######################################################################
#
# If this CIF has been generated from an entry in the Cambridge 
# Structural Database, then it will include bibliographic, chemical, 
# crystal, experimental, refinement or atomic coordinate data resulting 
# from the CCDC's data processing and validation procedures.
#
#######################################################################

data_LUWHIW
_chemical_formula_moiety         'C22 H30 O3'
_chemical_name_systematic        
'4,4,6a,12b-Tetramethyl-1,3,4,4a,5,6,6a,12,12a,12b-decahydro-2H-benzo[a]xanthene-10-carboxylic acid'
_symmetry_cell_setting           monoclinic
_symmetry_space_group_name_H-M   'P 21'
_symmetry_Int_Tables_number      4
_space_group_name_Hall           'P 2yb'
loop_
_symmetry_equiv_pos_site_id
_symmetry_equiv_pos_as_xyz
1 x,y,z
2 -x,1/2+y,-z
_cell_length_a                   11.4673(7)
_cell_length_b                   7.1901(4)
_cell_length_c                   22.6830(13)
_cell_angle_alpha                90
_cell_angle_beta                 98.916(3)
_cell_angle_gamma                90
_cell_volume                     1847.64
_exptl_crystal_colour            colorless
_exptl_crystal_description       Needle
_cell_formula_units_Z            4
loop_
_atom_site_label
_atom_site_type_symbol
_atom_site_fract_x
_atom_site_fract_y
_atom_site_fract_z
O1 O 0.0612(4) 1.5716(5) 0.83840(19)
O2 O 0.5097(4) 1.1567(6) 0.77326(18)
O3 O 0.4263(4) 0.9263(6) 0.8191(2)
H1 H 0.4785 0.8627 0.8063
C1 C -0.2304(5) 1.1570(7) 0.8654(2)
H2 H -0.2839 1.2393 0.8396
H3 H -0.2765 1.0674 0.8848
H4 H -0.1798 1.0901 0.8415
C2 C -0.1527(5) 1.2740(7) 0.9136(2)
C3 C -0.1195(5) 1.1498(7) 0.9696(2)
H5 H -0.0872 1.0305 0.9574
H6 H -0.0568 1.2122 0.9975
C4 C -0.2238(5) 1.1096(8) 1.0018(2)
H7 H -0.1966 1.0346 1.0379
H8 H -0.2833 1.0358 0.9753
C5 C -0.2808(6) 1.2880(9) 1.0198(3)
H9 H -0.2239 1.3530 1.0502
H10 H -0.3505 1.2550 1.0385
C6 C -0.3199(6) 1.4227(8) 0.9674(3)
C7 C -0.2144(5) 1.4512(7) 0.9326(2)
H11 H -0.1527 1.5152 0.9615
C8 C -0.2417(5) 1.5881(7) 0.8797(3)
H12 H -0.2942 1.5272 0.8465
H13 H -0.2833 1.6984 0.8924
C9 C -0.1273(5) 1.6493(7) 0.8584(3)
H14 H -0.1471 1.7321 0.8234
H15 H -0.0792 1.7218 0.8905
C10 C -0.0551(6) 1.4883(8) 0.8415(3)
C11 C -0.0365(5) 1.3420(7) 0.8926(2)
H16 H 0.0077 1.4093 0.9277
C12 C 0.0480(5) 1.1879(7) 0.8781(3)
H17 H 0.0783 1.1189 0.9150
H18 H 0.0039 1.0991 0.8496
C13 C 0.1509(5) 1.2658(8) 0.8515(2)
C14 C 0.1507(5) 1.4519(7) 0.8333(2)
C15 C 0.2462(5) 1.5265(8) 0.8094(3)
H19 H 0.2472 1.6548 0.7995
C16 C 0.3395(6) 1.4121(9) 0.8001(3)
H20 H 0.4033 1.4608 0.7827
C17 C 0.3385(5) 1.2254(7) 0.8165(2)
C18 C 0.2461(5) 1.1551(7) 0.8432(2)
H21 H 0.2484 1.0292 0.8560
C19 C -0.4328(5) 1.3506(8) 0.9283(3)
H22 H -0.4214 1.2207 0.9173
H23 H -0.4495 1.4263 0.8920
H24 H -0.4992 1.3589 0.9506
C20 C -0.3517(5) 1.6087(8) 0.9941(3)
H25 H -0.4047 1.5860 1.0234
H26 H -0.3912 1.6891 0.9623
H27 H -0.2796 1.6695 1.0138
C21 C -0.1012(5) 1.4093(8) 0.7795(2)
H28 H -0.0972 1.5055 0.7493
H29 H -0.1833 1.3692 0.7781
H30 H -0.0528 1.3027 0.7716
C22 C 0.4328(5) 1.1020(8) 0.8010(2)
O4 O 0.3122(4) 0.7883(6) 0.46630(19)
O5 O 0.4445(4) 1.2130(5) 0.24071(17)
O6 O 0.3687(4) 1.4452(6) 0.2887(2)
H31 H 0.4013 1.5108 0.2653
C23 C 0.2720(5) 1.1922(8) 0.6194(3)
H32 H 0.3249 1.1013 0.6419
H33 H 0.2368 1.2710 0.6472
H34 H 0.3169 1.2698 0.5953
C24 C 0.1726(5) 1.0884(7) 0.5776(2)
C25 C 0.0675(5) 1.2235(8) 0.5609(2)
H35 H 0.0975 1.3429 0.5474
H36 H 0.0127 1.1705 0.5270
C26 C -0.0007(5) 1.2614(7) 0.6127(2)
H37 H -0.0682 1.3447 0.5989
H38 H 0.0517 1.3253 0.6453
C27 C -0.0463(6) 1.0799(8) 0.6364(3)
H39 H -0.1035 1.0217 0.6046
H40 H -0.0883 1.1088 0.6703
C28 C 0.0539(6) 0.9403(9) 0.6573(3)
C29 C 0.1261(5) 0.9088(7) 0.6057(2)
H41 H 0.0683 0.8535 0.5728
C30 C 0.2252(5) 0.7629(8) 0.6183(3)
H42 H 0.2921 0.8157 0.6461
H43 H 0.1956 0.6527 0.6376
C31 C 0.2681(5) 0.7033(8) 0.5602(2)
H44 H 0.3346 0.6151 0.5698
H45 H 0.2033 0.6377 0.5345
C32 C 0.3083(6) 0.8694(8) 0.5258(3)
C33 C 0.2141(5) 1.0243(7) 0.5182(2)
H46 H 0.1428 0.9675 0.4938
C34 C 0.2529(5) 1.1791(7) 0.4793(2)
H47 H 0.1851 1.2619 0.4658
H48 H 0.3154 1.2542 0.5033
C35 C 0.2991(5) 1.1005(7) 0.4258(2)
C36 C 0.3268(5) 0.9111(7) 0.4219(2)
C37 C 0.3686(5) 0.8381(8) 0.3727(3)
H49 H 0.3835 0.7085 0.3706
C38 C 0.3885(6) 0.9530(8) 0.3269(3)
H50 H 0.4187 0.9029 0.2936
C39 C 0.3643(5) 1.1442(7) 0.3291(2)
C40 C 0.3192(5) 1.2151(8) 0.3778(2)
H51 H 0.3014 1.3440 0.3789
C41 C 0.1265(6) 1.0050(8) 0.7162(2)
H52 H 0.1963 0.9256 0.7259
H53 H 0.0782 0.9964 0.7482
H54 H 0.1514 1.1341 0.7122
C42 C -0.0050(5) 0.7561(8) 0.6702(3)
H55 H 0.0547 0.6708 0.6905
H56 H -0.0423 0.7002 0.6325
H57 H -0.0651 0.7796 0.6956
C43 C 0.4334(5) 0.9277(8) 0.5508(3)
H58 H 0.4888 0.8317 0.5418
H59 H 0.4405 0.9434 0.5941
H60 H 0.4517 1.0456 0.5326
C44 C 0.3956(5) 1.2679(8) 0.2820(3)
loop_
_geom_bond_atom_site_label_1
_geom_bond_atom_site_label_2
_geom_bond_site_symmetry_1
_geom_bond_site_symmetry_2
O1 C10 1_555 1_555
O2 C22 1_555 1_555
O3 H1 1_555 1_555
C1 H2 1_555 1_555
H3 C1 1_555 1_555
H4 C1 1_555 1_555
C2 C1 1_555 1_555
C3 C2 1_555 1_555
H5 C3 1_555 1_555
H6 C3 1_555 1_555
C4 C3 1_555 1_555
H7 C4 1_555 1_555
H8 C4 1_555 1_555
C5 C4 1_555 1_555
H9 C5 1_555 1_555
H10 C5 1_555 1_555
C6 C5 1_555 1_555
C7 C2 1_555 1_555
H11 C7 1_555 1_555
C8 C7 1_555 1_555
H12 C8 1_555 1_555
H13 C8 1_555 1_555
C9 C8 1_555 1_555
H14 C9 1_555 1_555
H15 C9 1_555 1_555
C10 C9 1_555 1_555
C11 C2 1_555 1_555
H16 C11 1_555 1_555
C12 C11 1_555 1_555
H17 C12 1_555 1_555
H18 C12 1_555 1_555
C13 C12 1_555 1_555
C14 O1 1_555 1_555
C15 C14 1_555 1_555
H19 C15 1_555 1_555
C16 C15 1_555 1_555
H20 C16 1_555 1_555
C17 C16 1_555 1_555
C18 C13 1_555 1_555
H21 C18 1_555 1_555
C19 C6 1_555 1_555
H22 C19 1_555 1_555
H23 C19 1_555 1_555
H24 C19 1_555 1_555
C20 C6 1_555 1_555
H25 C20 1_555 1_555
H26 C20 1_555 1_555
H27 C20 1_555 1_555
C21 C10 1_555 1_555
H28 C21 1_555 1_555
H29 C21 1_555 1_555
H30 C21 1_555 1_555
C22 O3 1_555 1_555
O4 C32 1_555 1_555
O5 C44 1_555 1_555
O6 H31 1_555 1_555
C23 H32 1_555 1_555
H33 C23 1_555 1_555
H34 C23 1_555 1_555
C24 C23 1_555 1_555
C25 C24 1_555 1_555
H35 C25 1_555 1_555
H36 C25 1_555 1_555
C26 C25 1_555 1_555
H37 C26 1_555 1_555
H38 C26 1_555 1_555
C27 C26 1_555 1_555
H39 C27 1_555 1_555
H40 C27 1_555 1_555
C28 C27 1_555 1_555
C29 C24 1_555 1_555
H41 C29 1_555 1_555
C30 C29 1_555 1_555
H42 C30 1_555 1_555
H43 C30 1_555 1_555
C31 C30 1_555 1_555
H44 C31 1_555 1_555
H45 C31 1_555 1_555
C32 C31 1_555 1_555
C33 C24 1_555 1_555
H46 C33 1_555 1_555
C34 C33 1_555 1_555
H47 C34 1_555 1_555
H48 C34 1_555 1_555
C35 C34 1_555 1_555
C36 O4 1_555 1_555
C37 C36 1_555 1_555
H49 C37 1_555 1_555
C38 C37 1_555 1_555
H50 C38 1_555 1_555
C39 C38 1_555 1_555
C40 C35 1_555 1_555
H51 C40 1_555 1_555
C41 C28 1_555 1_555
H52 C41 1_555 1_555
H53 C41 1_555 1_555
H54 C41 1_555 1_555
C42 C28 1_555 1_555
H55 C42 1_555 1_555
H56 C42 1_555 1_555
H57 C42 1_555 1_555
C43 C32 1_555 1_555
H58 C43 1_555 1_555
H59 C43 1_555 1_555
H60 C43 1_555 1_555
C44 O6 1_555 1_555
C6 C7 1_555 1_555
C10 C11 1_555 1_555
C13 C14 1_555 1_555
C17 C18 1_555 1_555
C17 C22 1_555 1_555
C28 C29 1_555 1_555
C32 C33 1_555 1_555
C35 C36 1_555 1_555
C39 C40 1_555 1_555
C39 C44 1_555 1_555

#END
