
#######################################################################
#
#                 Cambridge Crystallographic Data Centre
#                                CCDC 
#
#######################################################################
#
# If this CIF has been generated from an entry in the Cambridge 
# Structural Database, then it will include bibliographic, chemical, 
# crystal, experimental, refinement or atomic coordinate data resulting 
# from the CCDC's data processing and validation procedures.
#
#######################################################################

data_LUWNEX
_chemical_formula_moiety         'C19 H26 O4'
_chemical_name_systematic        
1-(5-Acetyl-5-hydroxy-2-phenyltetrahydro-2H-pyran-4-yl)-3,3-dimethylbutan-2-one
_symmetry_cell_setting           triclinic
_symmetry_space_group_name_H-M   'P -1'
_symmetry_Int_Tables_number      2
_space_group_name_Hall           '-P 1'
loop_
_symmetry_equiv_pos_site_id
_symmetry_equiv_pos_as_xyz
1 x,y,z
2 -x,-y,-z
_cell_length_a                   5.867(2)
_cell_length_b                   10.838(4)
_cell_length_c                   14.128(6)
_cell_angle_alpha                79.302(7)
_cell_angle_beta                 87.320(7)
_cell_angle_gamma                88.987(8)
_cell_volume                     881.734
_exptl_crystal_colour            colorless
_exptl_crystal_description       block
_cell_formula_units_Z            2
loop_
_atom_site_label
_atom_site_type_symbol
_atom_site_fract_x
_atom_site_fract_y
_atom_site_fract_z
C1 C -0.2176(6) 0.7225(3) 0.7822(2)
H1 H -0.3247 0.6615 0.7785
C2 C -0.2707(7) 0.8487(4) 0.7516(3)
H2 H -0.4119 0.8719 0.7262
C3 C -0.1146(9) 0.9391(4) 0.7589(3)
H3 H -0.1504 1.0235 0.7389
C4 C 0.0920(9) 0.9049(4) 0.7952(4)
H4 H 0.1969 0.9665 0.8001
C5 C 0.1490(7) 0.7796(3) 0.8252(3)
H5 H 0.2912 0.7576 0.8500
C6 C -0.0055(6) 0.6871(3) 0.8182(2)
C7 C 0.0542(5) 0.5491(3) 0.8465(2)
H6 H -0.0773 0.5052 0.8819
C8 C 0.1153(5) 0.4898(3) 0.7588(2)
H7 H 0.2428 0.5340 0.7222
H8 H -0.0135 0.4974 0.7174
C9 C 0.1788(5) 0.3511(3) 0.7894(2)
H9 H 0.0440 0.3068 0.8215
C10 C 0.3681(5) 0.3391(3) 0.8627(2)
C11 C 0.2947(6) 0.4089(3) 0.9439(2)
H10 H 0.1617 0.3684 0.9788
H11 H 0.4165 0.4037 0.9886
C12 C 0.2525(6) 0.2906(3) 0.7030(2)
H12 H 0.3761 0.3395 0.6673
H13 H 0.3125 0.2073 0.7271
C13 C 0.0680(6) 0.2794(3) 0.6342(2)
C14 C 0.1412(6) 0.2511(3) 0.5348(2)
C15 C 0.2743(8) 0.3648(4) 0.4775(3)
H14 H 0.1777 0.4380 0.4700
H15 H 0.3217 0.3481 0.4151
H16 H 0.4061 0.3788 0.5117
C16 C -0.0664(7) 0.2286(5) 0.4807(3)
H17 H -0.1463 0.1564 0.5154
H18 H -0.0191 0.2144 0.4177
H19 H -0.1655 0.3008 0.4749
C17 C 0.2981(7) 0.1357(4) 0.5468(3)
H20 H 0.4323 0.1523 0.5785
H21 H 0.3411 0.1170 0.4845
H22 H 0.2194 0.0653 0.5849
C18 C 0.4197(7) 0.2020(3) 0.9040(2)
C19 C 0.2438(7) 0.1258(3) 0.9669(3)
H23 H 0.2836 0.0384 0.9737
H24 H 0.0981 0.1403 0.9383
H25 H 0.2360 0.1494 1.0291
O1 O 0.2422(4) 0.53721(18) 0.90872(15)
O2 O 0.5694(4) 0.3982(2) 0.81651(18)
H26 H 0.6556 0.3450 0.7998
O3 O 0.6011(6) 0.1578(3) 0.8842(2)
O4 O -0.1336(4) 0.2902(2) 0.65756(17)
loop_
_geom_bond_atom_site_label_1
_geom_bond_atom_site_label_2
_geom_bond_site_symmetry_1
_geom_bond_site_symmetry_2
C1 H1 1_555 1_555
C2 C1 1_555 1_555
H2 C2 1_555 1_555
C3 C2 1_555 1_555
H3 C3 1_555 1_555
C4 C3 1_555 1_555
H4 C4 1_555 1_555
C5 C4 1_555 1_555
H5 C5 1_555 1_555
C6 C1 1_555 1_555
C7 C6 1_555 1_555
H6 C7 1_555 1_555
C8 C7 1_555 1_555
H7 C8 1_555 1_555
H8 C8 1_555 1_555
C9 C8 1_555 1_555
H9 C9 1_555 1_555
C10 C9 1_555 1_555
C11 C10 1_555 1_555
H10 C11 1_555 1_555
H11 C11 1_555 1_555
C12 C9 1_555 1_555
H12 C12 1_555 1_555
H13 C12 1_555 1_555
C13 C12 1_555 1_555
C14 C13 1_555 1_555
C15 C14 1_555 1_555
H14 C15 1_555 1_555
H15 C15 1_555 1_555
H16 C15 1_555 1_555
C16 C14 1_555 1_555
H17 C16 1_555 1_555
H18 C16 1_555 1_555
H19 C16 1_555 1_555
C17 C14 1_555 1_555
H20 C17 1_555 1_555
H21 C17 1_555 1_555
H22 C17 1_555 1_555
C18 C10 1_555 1_555
C19 C18 1_555 1_555
H23 C19 1_555 1_555
H24 C19 1_555 1_555
H25 C19 1_555 1_555
O1 C7 1_555 1_555
O2 C10 1_555 1_555
H26 O2 1_555 1_555
O3 C18 1_555 1_555
O4 C13 1_555 1_555
C5 C6 1_555 1_555
C11 O1 1_555 1_555

#END
