
#######################################################################
#
#                 Cambridge Crystallographic Data Centre
#                                CCDC 
#
#######################################################################
#
# If this CIF has been generated from an entry in the Cambridge 
# Structural Database, then it will include bibliographic, chemical, 
# crystal, experimental, refinement or atomic coordinate data resulting 
# from the CCDC's data processing and validation procedures.
#
#######################################################################

data_LUWNOH
_chemical_formula_moiety         'C13 H22 O3'
_chemical_name_systematic        
1-(2-t-Butyl-2-hydroxyhexahydro-6aH-cyclopenta[b]furan-6a-yl)ethanone
_symmetry_cell_setting           triclinic
_symmetry_space_group_name_H-M   'P -1'
_symmetry_Int_Tables_number      2
_space_group_name_Hall           '-P 1'
loop_
_symmetry_equiv_pos_site_id
_symmetry_equiv_pos_as_xyz
1 x,y,z
2 -x,-y,-z
_cell_length_a                   9.4926(19)
_cell_length_b                   11.463(3)
_cell_length_c                   12.601(3)
_cell_angle_alpha                92.641(12)
_cell_angle_beta                 102.774(11)
_cell_angle_gamma                90.617(11)
_cell_volume                     1335.5
_exptl_crystal_colour            colorless
_exptl_crystal_description       block
_cell_formula_units_Z            4
loop_
_atom_site_label
_atom_site_type_symbol
_atom_site_fract_x
_atom_site_fract_y
_atom_site_fract_z
C1 C 0.2830(4) 0.6560(3) 0.3214(3)
C2 C 0.3887(5) 0.5686(4) 0.2883(4)
H1 H 0.4857 0.5823 0.3322
H2 H 0.3585 0.4888 0.2958
C3 C 0.3818(5) 0.5924(5) 0.1703(4)
H3 H 0.2949 0.5579 0.1235
H4 H 0.4654 0.5618 0.1468
C4 C 0.3803(5) 0.7242(4) 0.1691(4)
H5 H 0.3439 0.7497 0.0959
H6 H 0.4762 0.7578 0.1974
C5 C 0.2777(4) 0.7581(4) 0.2440(3)
H7 H 0.3077 0.8323 0.2848
C6 C 0.1172(4) 0.7588(4) 0.1836(3)
H8 H 0.0828 0.8380 0.1757
H9 H 0.1031 0.7197 0.1119
C7 C 0.0407(5) 0.6930(4) 0.2561(3)
C8 C 0.3293(5) 0.6913(4) 0.4407(4)
C9 C 0.2767(5) 0.6157(4) 0.5195(4)
H10 H 0.3357 0.6306 0.5913
H11 H 0.2828 0.5349 0.4976
H12 H 0.1782 0.6334 0.5197
C10 C -0.1058(4) 0.6342(4) 0.2038(3)
C11 C -0.0925(5) 0.5498(4) 0.1097(3)
H13 H -0.0709 0.5929 0.0515
H14 H -0.1819 0.5068 0.0841
H15 H -0.0162 0.4964 0.1342
C12 C -0.2114(5) 0.7302(4) 0.1593(4)
H16 H -0.1735 0.7730 0.1077
H17 H -0.2235 0.7823 0.2183
H18 H -0.3031 0.6951 0.1240
C13 C -0.1618(5) 0.5659(4) 0.2877(3)
H19 H -0.2520 0.5277 0.2535
H20 H -0.1760 0.6186 0.3457
H21 H -0.0927 0.5086 0.3167
O1 O 0.1404(3) 0.6037(2) 0.2959(2)
O2 O 0.4139(4) 0.7713(3) 0.4719(2)
O3 O 0.0325(3) 0.7732(2) 0.3425(2)
H43 H 0.0092 0.7384 0.3916
C14 C 0.8915(4) 0.8477(3) 0.6865(3)
C15 C 1.0195(5) 0.9332(4) 0.7206(4)
H22 H 1.0884 0.9212 0.6748
H23 H 0.9876 1.0133 0.7161
C16 C 1.0853(5) 0.9060(5) 0.8368(4)
H24 H 1.0303 0.9398 0.8865
H25 H 1.1847 0.9343 0.8587
C17 C 1.0764(5) 0.7735(4) 0.8328(4)
H26 H 1.0837 0.7451 0.9051
H27 H 1.1530 0.7402 0.8022
C18 C 0.9288(4) 0.7423(3) 0.7599(3)
H28 H 0.9307 0.6693 0.7167
C19 C 0.8074(4) 0.7409(4) 0.8217(3)
H29 H 0.7746 0.6616 0.8279
H30 H 0.8390 0.7776 0.8941
C20 C 0.6895(4) 0.8096(4) 0.7532(3)
C21 C 0.8635(5) 0.8178(4) 0.5652(4)
C22 C 0.7682(6) 0.8955(5) 0.4896(4)
H31 H 0.7902 0.8879 0.4188
H32 H 0.7843 0.9751 0.5173
H33 H 0.6689 0.8735 0.4842
C23 C 0.5779(4) 0.8696(4) 0.8101(3)
C24 C 0.6550(5) 0.9548(4) 0.9011(3)
H34 H 0.7197 0.9129 0.9551
H35 H 0.5851 0.9936 0.9340
H36 H 0.7089 1.0116 0.8717
C25 C 0.4997(5) 0.7738(4) 0.8576(4)
H37 H 0.5686 0.7334 0.9100
H38 H 0.4527 0.7195 0.8000
H39 H 0.4290 0.8085 0.8924
C26 C 0.4691(5) 0.9352(4) 0.7273(4)
H40 H 0.4057 0.9775 0.7640
H41 H 0.4136 0.8804 0.6740
H42 H 0.5197 0.9889 0.6919
O4 O 0.7651(3) 0.8996(2) 0.7132(2)
O5 O 0.9276(4) 0.7377(3) 0.5316(2)
O6 O 0.6217(3) 0.7320(2) 0.6661(2)
H44 H 0.5680 0.7685 0.6197
loop_
_geom_bond_atom_site_label_1
_geom_bond_atom_site_label_2
_geom_bond_site_symmetry_1
_geom_bond_site_symmetry_2
C1 C2 1_555 1_555
C2 H1 1_555 1_555
H2 C2 1_555 1_555
C3 C2 1_555 1_555
H3 C3 1_555 1_555
H4 C3 1_555 1_555
C4 C3 1_555 1_555
H5 C4 1_555 1_555
H6 C4 1_555 1_555
C5 C1 1_555 1_555
H7 C5 1_555 1_555
C6 C5 1_555 1_555
H8 C6 1_555 1_555
H9 C6 1_555 1_555
C7 C6 1_555 1_555
C8 C1 1_555 1_555
C9 C8 1_555 1_555
H10 C9 1_555 1_555
H11 C9 1_555 1_555
H12 C9 1_555 1_555
C10 C7 1_555 1_555
C11 C10 1_555 1_555
H13 C11 1_555 1_555
H14 C11 1_555 1_555
H15 C11 1_555 1_555
C12 C10 1_555 1_555
H16 C12 1_555 1_555
H17 C12 1_555 1_555
H18 C12 1_555 1_555
C13 C10 1_555 1_555
H19 C13 1_555 1_555
H20 C13 1_555 1_555
H21 C13 1_555 1_555
C14 C15 1_555 1_555
C15 H22 1_555 1_555
H23 C15 1_555 1_555
C16 C15 1_555 1_555
H24 C16 1_555 1_555
H25 C16 1_555 1_555
C17 C16 1_555 1_555
H26 C17 1_555 1_555
H27 C17 1_555 1_555
C18 C14 1_555 1_555
H28 C18 1_555 1_555
C19 C18 1_555 1_555
H29 C19 1_555 1_555
H30 C19 1_555 1_555
C20 C19 1_555 1_555
C21 C14 1_555 1_555
C22 C21 1_555 1_555
H31 C22 1_555 1_555
H32 C22 1_555 1_555
H33 C22 1_555 1_555
C23 C20 1_555 1_555
C24 C23 1_555 1_555
H34 C24 1_555 1_555
H35 C24 1_555 1_555
H36 C24 1_555 1_555
C25 C23 1_555 1_555
H37 C25 1_555 1_555
H38 C25 1_555 1_555
H39 C25 1_555 1_555
C26 C23 1_555 1_555
H40 C26 1_555 1_555
H41 C26 1_555 1_555
H42 C26 1_555 1_555
O1 C1 1_555 1_555
O2 C8 1_555 1_555
O3 C7 1_555 1_555
H43 O3 1_555 1_555
O4 C14 1_555 1_555
O5 C21 1_555 1_555
O6 C20 1_555 1_555
H44 O6 1_555 1_555
C4 C5 1_555 1_555
C7 O1 1_555 1_555
C17 C18 1_555 1_555
C20 O4 1_555 1_555

#END
