
#######################################################################
#
#                 Cambridge Crystallographic Data Centre
#                                CCDC 
#
#######################################################################
#
# If this CIF has been generated from an entry in the Cambridge 
# Structural Database, then it will include bibliographic, chemical, 
# crystal, experimental, refinement or atomic coordinate data resulting 
# from the CCDC's data processing and validation procedures.
#
#######################################################################

data_LUWVOQ
_chemical_formula_moiety         'C18 H27 N1 O5'
_chemical_name_systematic        
't-Butyl (3,4-dihydroxy-1-(1-phenylethyl)pyrrolidin-2-yl)(hydroxy)acetate'
_symmetry_cell_setting           monoclinic
_symmetry_space_group_name_H-M   'C 2'
_symmetry_Int_Tables_number      5
_space_group_name_Hall           'C 2y'
loop_
_symmetry_equiv_pos_site_id
_symmetry_equiv_pos_as_xyz
1 x,y,z
2 1/2+x,1/2+y,z
3 -x,y,-z
4 1/2-x,1/2+y,-z
_cell_length_a                   25.3786(8)
_cell_length_b                   5.97040(10)
_cell_length_c                   13.7395(4)
_cell_angle_alpha                90
_cell_angle_beta                 119.486(4)
_cell_angle_gamma                90
_cell_volume                     1812.17
_cell_formula_units_Z            4
loop_
_atom_site_label
_atom_site_type_symbol
_atom_site_fract_x
_atom_site_fract_y
_atom_site_fract_z
O1 O 0.652407(17) 0.05187(8) 0.41432(3)
C1 C 0.67052(2) 0.28065(9) 0.41629(4)
C2 C 0.62442(2) 0.39763(9) 0.30837(3)
N1 N 0.585003(17) 0.53312(8) 0.33704(3)
C3 C 0.52025(2) 0.51585(9) 0.25476(3)
C4 C 0.48181(2) 0.65875(10) 0.28728(3)
C5 C 0.49989(2) 0.87267(10) 0.33155(4)
C6 C 0.46216(2) 1.00526(10) 0.35401(4)
C7 C 0.40552(2) 0.92907(12) 0.33053(4)
C8 C 0.38746(2) 0.71559(11) 0.28730(4)
C9 C 0.42537(2) 0.58076(10) 0.26591(4)
C10 C 0.50746(2) 0.58817(11) 0.13792(4)
C11 C 0.59850(2) 0.46913(9) 0.45039(4)
C12 C 0.66506(2) 0.40667(10) 0.50869(3)
O2 O 0.678682(15) 0.26891(9) 0.60189(3)
C13 C 0.65566(2) 0.55281(9) 0.26265(4)
O3 O 0.697946(15) 0.69641(8) 0.34642(3)
C14 C 0.68924(2) 0.41687(10) 0.21636(4)
O4 O 0.648957(15) 0.30894(8) 0.12472(3)
C15 C 0.66801(2) 0.16327(10) 0.06007(4)
C16 C 0.60790(3) 0.07148(12) -0.03048(5)
C17 C 0.70799(3) -0.02432(10) 0.13320(4)
C18 C 0.69902(3) 0.30498(11) 0.01127(5)
O5 O 0.743245(15) 0.41074(9) 0.25708(3)
H1 H 0.7121 0.2870 0.4252
H2 H 0.6021 0.2820 0.2536
H3 H 0.5065 0.3559 0.2498
H4 H 0.5386 0.9273 0.3467
H5 H 0.4772 1.1502 0.3903
H6 H 0.3804 1.0259 0.3449
H7 H 0.3477 0.6545 0.2733
H8 H 0.4131 0.4296 0.2385
H9 H 0.4647 0.5835 0.0856
H10 H 0.5200 0.7438 0.1398
H11 H 0.5289 0.4911 0.1102
H12 H 0.5893 0.5872 0.4863
H13 H 0.5755 0.3367 0.4506
H14 H 0.6903 0.5406 0.5286
H15 H 0.6242 0.6370 0.2007
H16 H 0.6156 -0.0266 -0.0788
H17 H 0.5817 0.1950 -0.0723
H18 H 0.5892 -0.0175 0.0069
H19 H 0.7137 -0.1313 0.0890
H20 H 0.7480 0.0316 0.1903
H21 H 0.6870 -0.0987 0.1702
H22 H 0.7031 0.2177 -0.0457
H23 H 0.7389 0.3551 0.0707
H24 H 0.6728 0.4342 -0.0275
H25 H 0.6780 0.7937 0.3611
H26 H 0.7181 0.2337 0.6375
H27 H 0.6575 0.0159 0.4813
loop_
_geom_bond_atom_site_label_1
_geom_bond_atom_site_label_2
_geom_bond_site_symmetry_1
_geom_bond_site_symmetry_2
O1 C1 1_555 1_555
C1 C2 1_555 1_555
C2 N1 1_555 1_555
N1 C3 1_555 1_555
C3 C4 1_555 1_555
C4 C5 1_555 1_555
C5 C6 1_555 1_555
C6 C7 1_555 1_555
C7 C8 1_555 1_555
C8 C9 1_555 1_555
C9 C4 1_555 1_555
C10 C3 1_555 1_555
C11 N1 1_555 1_555
C12 C1 1_555 1_555
O2 C12 1_555 1_555
C13 C2 1_555 1_555
O3 C13 1_555 1_555
C14 C13 1_555 1_555
O4 C14 1_555 1_555
C15 O4 1_555 1_555
C16 C15 1_555 1_555
C17 C15 1_555 1_555
C18 C15 1_555 1_555
O5 C14 1_555 1_555
H1 C1 1_555 1_555
H2 C2 1_555 1_555
H3 C3 1_555 1_555
H4 C5 1_555 1_555
H5 C6 1_555 1_555
H6 C7 1_555 1_555
H7 C8 1_555 1_555
H8 C9 1_555 1_555
H9 C10 1_555 1_555
H10 C10 1_555 1_555
H11 C10 1_555 1_555
H12 C11 1_555 1_555
H13 C11 1_555 1_555
H14 C12 1_555 1_555
H15 C13 1_555 1_555
H16 C16 1_555 1_555
H17 C16 1_555 1_555
H18 C16 1_555 1_555
H19 C17 1_555 1_555
H20 C17 1_555 1_555
H21 C17 1_555 1_555
H22 C18 1_555 1_555
H23 C18 1_555 1_555
H24 C18 1_555 1_555
H25 O3 1_555 1_555
H26 O2 1_555 1_555
H27 O1 1_555 1_555
C11 C12 1_555 1_555

#END
