
#######################################################################
#
#                 Cambridge Crystallographic Data Centre
#                                CCDC 
#
#######################################################################
#
# If this CIF has been generated from an entry in the Cambridge 
# Structural Database, then it will include bibliographic, chemical, 
# crystal, experimental, refinement or atomic coordinate data resulting 
# from the CCDC's data processing and validation procedures.
#
#######################################################################

data_LUWWIL
_chemical_formula_moiety         'C14 H17 N1 O4,0.5(H2 O1)'
_chemical_name_systematic        
'3,6-Dihydroxy-4-(1-phenylethyl)hexahydro-2H-furo[3,2-b]pyrrol-2-one hemihydrate'
_symmetry_cell_setting           hexagonal
_symmetry_space_group_name_H-M   'P 62'
_symmetry_Int_Tables_number      171
_space_group_name_Hall           'P 62'
loop_
_symmetry_equiv_pos_site_id
_symmetry_equiv_pos_as_xyz
1 x,y,z
2 x-y,x,1/3+z
3 -y,x-y,2/3+z
4 -x,-y,z
5 -x+y,-x,1/3+z
6 y,-x+y,2/3+z
_cell_length_a                   20.8527(5)
_cell_length_b                   20.8527(5)
_cell_length_c                   5.57890(10)
_cell_angle_alpha                90
_cell_angle_beta                 90
_cell_angle_gamma                120
_cell_volume                     2100.89
_exptl_crystal_colour            colorless
_exptl_crystal_description       block
_cell_formula_units_Z            6
loop_
_atom_site_label
_atom_site_type_symbol
_atom_site_fract_x
_atom_site_fract_y
_atom_site_fract_z
O1 O 0.14339(9) 0.24757(9) 0.9926(4)
C1 C 0.16613(11) 0.28730(12) 0.7650(5)
C2 C 0.24675(11) 0.30754(11) 0.7273(4)
N1 N 0.29475(9) 0.38444(9) 0.8141(4)
C3 C 0.34369(11) 0.43552(12) 0.6236(4)
C4 C 0.38569(11) 0.51432(12) 0.7182(4)
C5 C 0.42736(13) 0.53163(14) 0.9285(5)
C6 C 0.46607(13) 0.60347(14) 1.0130(5)
C7 C 0.46471(14) 0.65968(15) 0.8875(6)
C8 C 0.42366(16) 0.64363(15) 0.6795(6)
C9 C 0.38432(13) 0.57110(14) 0.5960(5)
C10 C 0.39834(13) 0.41156(14) 0.5382(5)
C11 C 0.24359(11) 0.40679(11) 0.9217(5)
C12 C 0.17002(12) 0.36180(13) 0.7954(5)
O2 O 0.17535(9) 0.39353(10) 0.5658(4)
C13 C 0.25505(12) 0.25349(12) 0.8918(5)
C14 C 0.19438(14) 0.23188(12) 1.0771(5)
O3 O 0.18958(13) 0.20490(11) 1.2701(4)
O4 O 0.32541(10) 0.28532(10) 0.9992(5)
H1 H 0.1327 0.2573 0.6375
H2 H 0.2565 0.3028 0.5587
H3 H 0.3139 0.4342 0.4840
H4 H 0.4296 0.4934 1.0091
H5 H 0.4932 0.6135 1.1562
H6 H 0.4911 0.7088 0.9426
H7 H 0.4226 0.6811 0.5920
H8 H 0.3565 0.5607 0.4536
H9 H 0.4320 0.4464 0.4198
H10 H 0.4262 0.4101 0.6736
H11 H 0.3718 0.3624 0.4690
H12 H 0.2629 0.4596 0.8981
H13 H 0.2373 0.3937 1.0908
H14 H 0.1280 0.3581 0.8878
H15 H 0.2440 0.2089 0.8039
H16 H 0.3409 0.3310 0.9907
H17 H 0.1349 0.3719 0.4975
O5 O -0.0060(4) 0.0685(3) 0.0169(19)
H18 H -0.0493 0.0312 0.0914
H19 H 0.0218 0.0498 -0.0259
loop_
_geom_bond_atom_site_label_1
_geom_bond_atom_site_label_2
_geom_bond_site_symmetry_1
_geom_bond_site_symmetry_2
O1 C1 1_555 1_555
C1 C2 1_555 1_555
C2 N1 1_555 1_555
N1 C3 1_555 1_555
C3 C4 1_555 1_555
C4 C5 1_555 1_555
C5 C6 1_555 1_555
C6 C7 1_555 1_555
C7 C8 1_555 1_555
C8 C9 1_555 1_555
C9 C4 1_555 1_555
C10 C3 1_555 1_555
C11 N1 1_555 1_555
C12 C1 1_555 1_555
O2 C12 1_555 1_555
C13 C2 1_555 1_555
C14 O1 1_555 1_555
O3 C14 1_555 1_555
O4 C13 1_555 1_555
H1 C1 1_555 1_555
H2 C2 1_555 1_555
H3 C3 1_555 1_555
H4 C5 1_555 1_555
H5 C6 1_555 1_555
H6 C7 1_555 1_555
H7 C8 1_555 1_555
H8 C9 1_555 1_555
H9 C10 1_555 1_555
H10 C10 1_555 1_555
H11 C10 1_555 1_555
H12 C11 1_555 1_555
H13 C11 1_555 1_555
H14 C12 1_555 1_555
H15 C13 1_555 1_555
H16 O4 1_555 1_555
H17 O2 1_555 1_555
O5 H18 1_555 1_555
H19 O5 1_555 1_555
C11 C12 1_555 1_555
C13 C14 1_555 1_555

#END
