
#######################################################################
#
#                 Cambridge Crystallographic Data Centre
#                                CCDC 
#
#######################################################################
#
# If this CIF has been generated from an entry in the Cambridge 
# Structural Database, then it will include bibliographic, chemical, 
# crystal, experimental, refinement or atomic coordinate data resulting 
# from the CCDC's data processing and validation procedures.
#
#######################################################################

data_LUWWEH
_chemical_formula_moiety         'C18 H25 N1 O4'
_chemical_name_systematic        
't-Butyl hydroxy(3-(1-phenylethyl)-6-oxa-3-azabicyclo[3.1.0]hex-2-yl)acetate'
_symmetry_cell_setting           monoclinic
_symmetry_space_group_name_H-M   'P 21'
_symmetry_Int_Tables_number      4
_space_group_name_Hall           'P 2yb'
loop_
_symmetry_equiv_pos_site_id
_symmetry_equiv_pos_as_xyz
1 x,y,z
2 -x,1/2+y,-z
_cell_length_a                   11.2601(3)
_cell_length_b                   6.49695(14)
_cell_length_c                   12.2482(3)
_cell_angle_alpha                90
_cell_angle_beta                 100.923(2)
_cell_angle_gamma                90
_cell_volume                     879.799
_exptl_crystal_colour            colorless
_exptl_crystal_description       block
_cell_formula_units_Z            2
loop_
_atom_site_label
_atom_site_type_symbol
_atom_site_fract_x
_atom_site_fract_y
_atom_site_fract_z
O1 O 0.53162(7) 1.05373(13) 0.12132(6)
C1 C 0.56437(8) 0.85692(17) 0.16308(8)
C2 C 0.61348(9) 0.86697(18) 0.28788(8)
O2 O 0.69220(7) 0.71479(13) 0.31767(6)
C3 C 0.74997(12) 0.6785(2) 0.43569(10)
C4 C 0.65434(16) 0.6146(3) 0.49943(12)
C5 C 0.8331(2) 0.5005(4) 0.42604(18)
C6 C 0.81855(19) 0.8676(4) 0.48295(15)
O3 O 0.58247(9) 0.99360(15) 0.34913(7)
C7 C 0.45714(9) 0.70698(16) 0.13303(8)
N1 N 0.34865(7) 0.78551(14) 0.17168(7)
C8 C 0.33702(10) 0.66451(19) 0.27230(9)
C9 C 0.40879(10) 0.4708(2) 0.26748(11)
C10 C 0.48338(10) 0.49786(17) 0.18486(10)
O4 O 0.37689(8) 0.36754(15) 0.16151(8)
C11 C 0.23651(9) 0.77998(18) 0.08528(8)
C12 C 0.13150(8) 0.86991(18) 0.13175(8)
C13 C 0.13863(10) 1.0643(2) 0.17957(9)
C14 C 0.04005(11) 1.1484(2) 0.21639(9)
C15 C -0.06648(11) 1.0388(2) 0.20710(10)
C16 C -0.07402(11) 0.8453(3) 0.16042(13)
C17 C 0.02397(10) 0.7606(2) 0.12193(11)
C18 C 0.25186(10) 0.9053(2) -0.01678(9)
H1 H 0.6304 0.8135 0.1234
H2 H 0.6899 0.5795 0.5758
H3 H 0.6088 0.4941 0.4684
H4 H 0.6002 0.7304 0.5049
H5 H 0.8754 0.4617 0.4979
H6 H 0.8897 0.5413 0.3805
H7 H 0.7870 0.3872 0.3925
H8 H 0.8713 0.8301 0.5508
H9 H 0.8638 0.9201 0.4311
H10 H 0.7603 0.9695 0.4981
H11 H 0.4452 0.6949 0.0490
H12 H 0.3677 0.7408 0.3381
H13 H 0.2521 0.6323 0.2694
H14 H 0.4313 0.3890 0.3342
H15 H 0.5618 0.4317 0.1905
H16 H 0.2174 0.6381 0.0632
H17 H 0.2116 1.1433 0.1879
H18 H 0.0436 1.2816 0.2458
H19 H -0.1336 1.0905 0.2323
H20 H -0.1460 0.7713 0.1538
H21 H 0.0160 0.6253 0.0862
H22 H 0.1773 0.9165 -0.0678
H23 H 0.3134 0.8433 -0.0565
H24 H 0.2800 1.0449 0.0043
H25 H 0.4691 1.0974 0.1497
loop_
_geom_bond_atom_site_label_1
_geom_bond_atom_site_label_2
_geom_bond_site_symmetry_1
_geom_bond_site_symmetry_2
O1 C1 1_555 1_555
C1 C2 1_555 1_555
C2 O2 1_555 1_555
O2 C3 1_555 1_555
C3 C4 1_555 1_555
C4 H2 1_555 1_555
C5 C3 1_555 1_555
C6 C3 1_555 1_555
O3 C2 1_555 1_555
C7 C1 1_555 1_555
N1 C7 1_555 1_555
C8 N1 1_555 1_555
C9 C8 1_555 1_555
C10 C7 1_555 1_555
O4 C9 1_555 1_555
C11 N1 1_555 1_555
C12 C11 1_555 1_555
C13 C12 1_555 1_555
C14 C13 1_555 1_555
C15 C14 1_555 1_555
C16 C15 1_555 1_555
C17 C12 1_555 1_555
C18 C11 1_555 1_555
H1 C1 1_555 1_555
H3 C4 1_555 1_555
H4 C4 1_555 1_555
H5 C5 1_555 1_555
H6 C5 1_555 1_555
H7 C5 1_555 1_555
H8 C6 1_555 1_555
H9 C6 1_555 1_555
H10 C6 1_555 1_555
H11 C7 1_555 1_555
H12 C8 1_555 1_555
H13 C8 1_555 1_555
H14 C9 1_555 1_555
H15 C10 1_555 1_555
H16 C11 1_555 1_555
H17 C13 1_555 1_555
H18 C14 1_555 1_555
H19 C15 1_555 1_555
H20 C16 1_555 1_555
H21 C17 1_555 1_555
H22 C18 1_555 1_555
H23 C18 1_555 1_555
H24 C18 1_555 1_555
H25 O1 1_555 1_555
C9 C10 1_555 1_555
C10 O4 1_555 1_555
C16 C17 1_555 1_555

#END
