
#######################################################################
#
#                 Cambridge Crystallographic Data Centre
#                                CCDC 
#
#######################################################################
#
# If this CIF has been generated from an entry in the Cambridge 
# Structural Database, then it will include bibliographic, chemical, 
# crystal, experimental, refinement or atomic coordinate data resulting 
# from the CCDC's data processing and validation procedures.
#
#######################################################################

data_LUWWAD
_chemical_formula_moiety         'C21 H23 N1 O5 S1'
_chemical_name_systematic        
'2-Oxo-4-(1-phenylethyl)hexahydro-2H-furo[3,2-b]pyrrol-6-yl 4-methylbenzenesulfonate'
_symmetry_cell_setting           orthorhombic
_symmetry_space_group_name_H-M   'P 21 21 21'
_symmetry_Int_Tables_number      19
_space_group_name_Hall           'P 2ac 2ab'
loop_
_symmetry_equiv_pos_site_id
_symmetry_equiv_pos_as_xyz
1 x,y,z
2 1/2+x,1/2-y,-z
3 -x,1/2+y,1/2-z
4 1/2-x,-y,1/2+z
_cell_length_a                   5.89492(5)
_cell_length_b                   16.10092(15)
_cell_length_c                   20.6314(2)
_cell_angle_alpha                90
_cell_angle_beta                 90
_cell_angle_gamma                90
_cell_volume                     1958.2
_exptl_crystal_colour            colorless
_exptl_crystal_description       prism
_cell_formula_units_Z            4
loop_
_atom_site_label
_atom_site_type_symbol
_atom_site_fract_x
_atom_site_fract_y
_atom_site_fract_z
S1 S 0.44141(4) 0.570478(13) 0.762461(10)
O1 O 0.47195(14) 0.62451(4) 0.81656(3)
O2 O 0.21897(10) 0.55236(4) 0.73896(4)
O3 O 0.58195(10) 0.61460(3) 0.70661(3)
C1 C 0.57492(14) 0.57874(5) 0.64184(4)
C2 C 0.61325(14) 0.64782(5) 0.59268(4)
O4 O 0.40496(11) 0.66993(4) 0.55991(3)
C3 C 0.42891(17) 0.66370(5) 0.49449(5)
O5 O 0.27559(13) 0.68337(5) 0.45926(4)
C4 C 0.65861(17) 0.62975(6) 0.47723(5)
C5 C 0.77489(15) 0.61103(5) 0.54145(4)
N1 N 0.78673(13) 0.52169(4) 0.55805(3)
C6 C 0.77144(15) 0.51999(5) 0.62925(4)
C7 C 0.99387(14) 0.47948(5) 0.53554(4)
C8 C 0.99279(15) 0.38986(6) 0.55917(4)
C9 C 1.17746(17) 0.35774(6) 0.59227(5)
C10 C 1.1758(2) 0.27565(7) 0.61416(6)
C11 C 0.9894(2) 0.22605(6) 0.60292(6)
C12 C 0.8051(2) 0.25700(7) 0.56922(6)
C13 C 0.80681(17) 0.33866(6) 0.54722(5)
C14 C 1.01853(18) 0.48193(6) 0.46148(5)
C15 C 0.58530(15) 0.47653(5) 0.77517(4)
C16 C 0.49392(15) 0.40284(5) 0.75203(5)
C17 C 0.61760(16) 0.33009(5) 0.75889(5)
C18 C 0.82987(17) 0.33062(6) 0.78889(5)
C19 C 0.96295(19) 0.25133(6) 0.79619(6)
C20 C 0.91538(16) 0.40540(5) 0.81231(4)
C21 C 0.79592(16) 0.47862(6) 0.80546(4)
H1 H 0.4247 0.5496 0.6336
H2 H 0.6715 0.6987 0.6140
H3 H 0.7455 0.6721 0.4504
H4 H 0.6418 0.5767 0.4511
H5 H 0.9345 0.6398 0.5449
H6 H 0.9084 0.5440 0.6512
H7 H 0.7365 0.4622 0.6440
H8 H 1.1301 0.5077 0.5547
H9 H 1.3131 0.3936 0.5981
H10 H 1.3141 0.2518 0.6369
H11 H 0.9872 0.1674 0.6187
H12 H 0.6701 0.2235 0.5632
H13 H 0.6650 0.3619 0.5232
H14 H 1.1606 0.4515 0.4533
H15 H 1.0235 0.5424 0.4469
H16 H 0.8854 0.4548 0.4414
H17 H 0.3383 0.4037 0.7319
H18 H 0.5572 0.2767 0.7436
H19 H 1.1224 0.2682 0.7996
H20 H 0.9018 0.2195 0.8327
H21 H 0.9412 0.2133 0.7556
H22 H 1.0681 0.4038 0.8345
H23 H 0.8606 0.5323 0.8211
loop_
_geom_bond_atom_site_label_1
_geom_bond_atom_site_label_2
_geom_bond_site_symmetry_1
_geom_bond_site_symmetry_2
S1 O1 1_555 1_555
O2 S1 1_555 1_555
O3 S1 1_555 1_555
C1 O3 1_555 1_555
C2 C1 1_555 1_555
O4 C2 1_555 1_555
C3 O4 1_555 1_555
O5 C3 1_555 1_555
C4 C3 1_555 1_555
C5 C2 1_555 1_555
N1 C5 1_555 1_555
C6 C1 1_555 1_555
C7 N1 1_555 1_555
C8 C7 1_555 1_555
C9 C8 1_555 1_555
C10 C9 1_555 1_555
C11 C10 1_555 1_555
C12 C11 1_555 1_555
C13 C8 1_555 1_555
C14 C7 1_555 1_555
C15 S1 1_555 1_555
C16 C15 1_555 1_555
C17 C16 1_555 1_555
C18 C17 1_555 1_555
C19 C18 1_555 1_555
C20 C18 1_555 1_555
C21 C15 1_555 1_555
H1 C1 1_555 1_555
H2 C2 1_555 1_555
H3 C4 1_555 1_555
H4 C4 1_555 1_555
H5 C5 1_555 1_555
H6 C6 1_555 1_555
H7 C6 1_555 1_555
H8 C7 1_555 1_555
H9 C9 1_555 1_555
H10 C10 1_555 1_555
H11 C11 1_555 1_555
H12 C12 1_555 1_555
H13 C13 1_555 1_555
H14 C14 1_555 1_555
H15 C14 1_555 1_555
H16 C14 1_555 1_555
H17 C16 1_555 1_555
H18 C17 1_555 1_555
H19 C19 1_555 1_555
H20 C19 1_555 1_555
H21 C19 1_555 1_555
H22 C20 1_555 1_555
H23 C21 1_555 1_555
C4 C5 1_555 1_555
N1 C6 1_555 1_555
C12 C13 1_555 1_555
C20 C21 1_555 1_555

#END
