
#######################################################################
#
#                 Cambridge Crystallographic Data Centre
#                                CCDC 
#
#######################################################################
#
# If this CIF has been generated from an entry in the Cambridge 
# Structural Database, then it will include bibliographic, chemical, 
# crystal, experimental, refinement or atomic coordinate data resulting 
# from the CCDC's data processing and validation procedures.
#
#######################################################################

data_LUXCOX
_chemical_formula_moiety         'C26 H24 N8 O2'
_chemical_name_systematic        
3,7,9,13,16,20,22,26-Octa-azapentacyclo-[22.2.2.2^2,5^.2^11,14^.2^15,18^]tetratriaconta-1(26),2,4,11,13,15,17,24,27,29,31,33-dodecaene-8,21-dione
_symmetry_cell_setting           monoclinic
_symmetry_space_group_name_H-M   'P 21/c'
_symmetry_Int_Tables_number      14
_space_group_name_Hall           '-P 2ybc'
loop_
_symmetry_equiv_pos_site_id
_symmetry_equiv_pos_as_xyz
1 x,y,z
2 -x,1/2+y,1/2-z
3 -x,-y,-z
4 x,1/2-y,1/2+z
_cell_length_a                   8.4446(5)
_cell_length_b                   10.3582(6)
_cell_length_c                   13.2736(8)
_cell_angle_alpha                90
_cell_angle_beta                 105.4400(10)
_cell_angle_gamma                90
_cell_volume                     1119.15
_exptl_crystal_colour            colorless
_exptl_crystal_description       plate
_cell_formula_units_Z            2
_exptl_crystal_recrystallization_method methanol/water
loop_
_atom_site_label
_atom_site_type_symbol
_atom_site_fract_x
_atom_site_fract_y
_atom_site_fract_z
C1 C 0.26881(15) 0.60501(12) 0.08995(8)
C2 C 0.01138(16) 0.56817(13) 0.13166(10)
H1 H -0.0080 0.4866 0.0913
H2 H -0.0962 0.6113 0.1225
C3 C 0.08210(15) 0.53646(12) 0.24658(9)
C4 C 0.01973(15) 0.43502(13) 0.29230(10)
H3 H -0.0672 0.3862 0.2487
C5 C 0.19619(15) 0.46887(12) 0.45406(9)
C6 C 0.27150(16) 0.56876(13) 0.41427(10)
H4 H 0.3625 0.6131 0.4582
C7 C 0.21333(16) 0.60318(13) 0.31054(10)
H5 H 0.2629 0.6723 0.2830
C8 C 0.25322(15) 0.43179(12) 0.56627(9)
C9 C 0.38211(16) 0.49477(12) 0.73420(10)
H6 H 0.4325 0.5610 0.7814
C10 C 0.36991(15) 0.37242(12) 0.77508(9)
C11 C 0.29413(16) 0.27773(12) 0.70491(10)
H7 H 0.2839 0.1925 0.7288
C12 C 0.23326(16) 0.30747(12) 0.59986(10)
H8 H 0.1787 0.2437 0.5516
C13 C 0.44356(16) 0.34248(13) 0.88982(9)
H9 H 0.4348 0.4198 0.9319
H10 H 0.3801 0.2720 0.9111
N1 N 0.38412(13) 0.69598(11) 0.08841(8)
H11 H 0.3624(19) 0.7793(17) 0.1030(12)
N2 N 0.11656(13) 0.65074(11) 0.08923(8)
H12 H 0.1006(19) 0.7339(16) 0.0922(11)
N3 N 0.07179(13) 0.40031(10) 0.39252(8)
N4 N 0.32779(13) 0.52528(10) 0.63312(8)
O1 O 0.29764(11) 0.48866(8) 0.09110(7)
C1B C 0.73119(15) 0.39499(12) 0.91005(8)
C2B C 0.98862(16) 0.43183(13) 0.86834(10)
H1B H 1.0080 0.5134 0.9087
H2B H 1.0962 0.3887 0.8775
C3B C 0.91790(15) 0.46354(12) 0.75342(9)
C4B C 0.98027(15) 0.56498(13) 0.70770(10)
H3B H 1.0672 0.6138 0.7513
C5B C 0.80381(15) 0.53113(12) 0.54594(9)
C6B C 0.72850(16) 0.43124(13) 0.58573(10)
H4B H 0.6375 0.3869 0.5418
C7B C 0.78667(16) 0.39682(13) 0.68946(10)
H5B H 0.7371 0.3277 0.7170
C8B C 0.74678(15) 0.56821(12) 0.43373(9)
C9B C 0.61789(16) 0.50523(12) 0.26580(10)
H6B H 0.5675 0.4390 0.2186
C10B C 0.63009(15) 0.62758(12) 0.22492(9)
C11B C 0.70587(16) 0.72227(12) 0.29509(10)
H7B H 0.7161 0.8075 0.2712
C12B C 0.76674(16) 0.69253(12) 0.40014(10)
H8B H 0.8213 0.7563 0.4484
C13B C 0.55644(16) 0.65752(13) 0.11018(9)
H9B H 0.5652 0.5802 0.0681
H10B H 0.6199 0.7280 0.0889
N1B N 0.61588(13) 0.30402(11) 0.91159(8)
H11B H 0.6376(19) 0.2207(17) 0.8970(12)
N2B N 0.88344(13) 0.34926(11) 0.91077(8)
H12B H 0.8994(19) 0.2661(16) 0.9078(11)
N3B N 0.92821(13) 0.59969(10) 0.60748(8)
N4B N 0.67221(13) 0.47472(10) 0.36688(8)
O1B O 0.70236(11) 0.51134(8) 0.90890(7)
loop_
_geom_bond_atom_site_label_1
_geom_bond_atom_site_label_2
_geom_bond_site_symmetry_1
_geom_bond_site_symmetry_2
C1 N1 1_555 1_555
C2 H1 1_555 1_555
H2 C2 1_555 1_555
C3 C2 1_555 1_555
C4 C3 1_555 1_555
H3 C4 1_555 1_555
C5 C6 1_555 1_555
C6 H4 1_555 1_555
C7 C3 1_555 1_555
H5 C7 1_555 1_555
C8 C5 1_555 1_555
C9 H6 1_555 1_555
C10 C9 1_555 1_555
C11 C10 1_555 1_555
H7 C11 1_555 1_555
C12 C8 1_555 1_555
H8 C12 1_555 1_555
C13 C10 1_555 1_555
H9 C13 1_555 1_555
H10 C13 1_555 1_555
N1 H11 1_555 1_555
N2 C1 1_555 1_555
H12 N2 1_555 1_555
N3 C4 1_555 1_555
N4 C8 1_555 1_555
O1 C1 1_555 1_555
C1B N1B 1_555 1_555
C2B H1B 1_555 1_555
H2B C2B 1_555 1_555
C3B C2B 1_555 1_555
C4B C3B 1_555 1_555
H3B C4B 1_555 1_555
C5B C6B 1_555 1_555
C6B H4B 1_555 1_555
C7B C3B 1_555 1_555
H5B C7B 1_555 1_555
C8B C5B 1_555 1_555
C9B H6B 1_555 1_555
C10B C9B 1_555 1_555
C11B C10B 1_555 1_555
H7B C11B 1_555 1_555
C12B C8B 1_555 1_555
H8B C12B 1_555 1_555
C13B N1 1_555 1_555
H9B C13B 1_555 1_555
H10B C13B 1_555 1_555
N1B C13 1_555 1_555
H11B N1B 1_555 1_555
N2B C1B 1_555 1_555
H12B N2B 1_555 1_555
N3B C4B 1_555 1_555
N4B C8B 1_555 1_555
O1B C1B 1_555 1_555
C2 N2 1_555 1_555
C5 N3 1_555 1_555
C6 C7 1_555 1_555
C9 N4 1_555 1_555
C11 C12 1_555 1_555
C2B N2B 1_555 1_555
C5B N3B 1_555 1_555
C6B C7B 1_555 1_555
C9B N4B 1_555 1_555
C10B C13B 1_555 1_555
C11B C12B 1_555 1_555

#END
