
#######################################################################
#
#                 Cambridge Crystallographic Data Centre
#                                CCDC 
#
#######################################################################
#
# If this CIF has been generated from an entry in the Cambridge 
# Structural Database, then it will include bibliographic, chemical, 
# crystal, experimental, refinement or atomic coordinate data resulting 
# from the CCDC's data processing and validation procedures.
#
#######################################################################

data_LUXGOB
_chemical_formula_moiety         'C36 H74 N2 P4'
_chemical_name_systematic        
'P,P-Di-t-butyl-N-(2,2-di-t-butyl-4-(di-t-butylphosphino)-5-((di-t-butylphosphino)methyl)-3H-1,2\l^5^-azaphosphol-3-ylidene)phosphinous amide'
_symmetry_cell_setting           triclinic
_symmetry_space_group_name_H-M   'P -1'
_symmetry_Int_Tables_number      2
_space_group_name_Hall           '-P 1'
loop_
_symmetry_equiv_pos_site_id
_symmetry_equiv_pos_as_xyz
1 x,y,z
2 -x,-y,-z
_cell_length_a                   8.7518(4)
_cell_length_b                   15.1375(5)
_cell_length_c                   15.6376(7)
_cell_angle_alpha                97.622(2)
_cell_angle_beta                 91.057(2)
_cell_angle_gamma                97.509(2)
_cell_volume                     2034.41
_exptl_crystal_colour            yellow
_exptl_crystal_description       column
_cell_formula_units_Z            2
loop_
_atom_site_label
_atom_site_type_symbol
_atom_site_fract_x
_atom_site_fract_y
_atom_site_fract_z
P1 P 0.18205(6) 0.16351(3) 0.43466(3)
C1 C 0.0399(3) 0.21538(16) 0.51055(14)
C2 C 0.1047(3) 0.2928(2) 0.57980(17)
H1 H 0.0204 0.3169 0.6103
H2 H 0.1636 0.3398 0.5528
H3 H 0.1712 0.2710 0.6203
C3 C -0.0467(4) 0.1386(2) 0.5531(2)
H4 H 0.0237 0.1171 0.5917
H5 H -0.0879 0.0898 0.5088
H6 H -0.1306 0.1605 0.5856
C4 C -0.0784(3) 0.2504(2) 0.45499(16)
H7 H -0.1567 0.2735 0.4914
H8 H -0.1264 0.2017 0.4124
H9 H -0.0271 0.2981 0.4259
C5 C 0.3662(3) 0.16433(15) 0.50145(14)
C6 C 0.3315(3) 0.10496(18) 0.57279(17)
H10 H 0.4274 0.0970 0.6010
H11 H 0.2783 0.0468 0.5477
H12 H 0.2669 0.1335 0.6148
C7 C 0.4497(3) 0.25651(17) 0.54056(16)
H13 H 0.3970 0.2790 0.5913
H14 H 0.4499 0.2981 0.4984
H15 H 0.5551 0.2508 0.5568
C8 C 0.4772(3) 0.12022(19) 0.43974(17)
H16 H 0.5706 0.1142 0.4716
H17 H 0.5028 0.1574 0.3947
H18 H 0.4284 0.0612 0.4140
P2 P 0.35214(6) 0.41134(3) 0.24251(3)
C9 C 0.2468(3) 0.47447(15) 0.33003(15)
C10 C 0.0753(3) 0.44065(18) 0.31080(19)
H19 H 0.0139 0.4763 0.3491
H20 H 0.0542 0.3781 0.3198
H21 H 0.0491 0.4461 0.2514
C11 C 0.2740(3) 0.57378(16) 0.31536(19)
H22 H 0.2134 0.6085 0.3550
H23 H 0.2432 0.5787 0.2564
H24 H 0.3825 0.5967 0.3254
C12 C 0.2880(3) 0.46793(18) 0.42439(16)
H25 H 0.3937 0.4950 0.4380
H26 H 0.2767 0.4052 0.4332
H27 H 0.2195 0.4994 0.4617
C13 C 0.5605(2) 0.41199(14) 0.27659(15)
C14 C 0.5919(3) 0.35643(17) 0.34776(17)
H28 H 0.7023 0.3581 0.3565
H29 H 0.5450 0.2947 0.3312
H30 H 0.5484 0.3811 0.4009
C15 C 0.6361(3) 0.50931(16) 0.30187(18)
H31 H 0.6002 0.5329 0.3575
H32 H 0.6088 0.5456 0.2587
H33 H 0.7473 0.5111 0.3054
C16 C 0.6359(3) 0.37321(18) 0.19427(17)
H34 H 0.7457 0.3752 0.2057
H35 H 0.6195 0.4086 0.1484
H36 H 0.5901 0.3114 0.1769
P3 P 0.20506(7) 0.24878(4) -0.04448(3)
C17 C 0.0682(4) 0.3271(2) -0.0716(2)
C18 C -0.0505(5) 0.3205(3) 0.0028(5)
H37 H -0.1411 0.3469 -0.0118
H38 H -0.0030 0.3528 0.0565
H39 H -0.0803 0.2579 0.0095
C19 C -0.0151(8) 0.2881(4) -0.1559(4)
H40 H -0.1050 0.3181 -0.1631
H41 H -0.0475 0.2243 -0.1560
H42 H 0.0533 0.2967 -0.2031
C20 C 0.1317(4) 0.4263(2) -0.0711(2)
H43 H 0.2051 0.4319 -0.1164
H44 H 0.1827 0.4499 -0.0156
H45 H 0.0475 0.4600 -0.0809
C21 C 0.3894(4) 0.2697(2) -0.1033(2)
C22 C 0.3456(7) 0.2514(4) -0.2024(3)
H46 H 0.2817 0.2954 -0.2169
H47 H 0.2892 0.1915 -0.2164
H48 H 0.4388 0.2560 -0.2350
C23 C 0.4862(4) 0.3620(2) -0.0859(2)
H49 H 0.5794 0.3615 -0.1185
H50 H 0.5135 0.3760 -0.0247
H51 H 0.4273 0.4070 -0.1033
C24 C 0.4857(6) 0.2016(4) -0.0785(6)
H52 H 0.4372 0.1417 -0.1018
H53 H 0.4946 0.2065 -0.0161
H54 H 0.5876 0.2124 -0.1015
P4 P 0.13690(6) 0.12410(3) 0.21015(3)
C25 C -0.0767(2) 0.09410(15) 0.21030(14)
C26 C -0.1346(3) 0.04225(19) 0.12188(17)
H55 H -0.2460 0.0383 0.1170
H56 H -0.1054 -0.0178 0.1165
H57 H -0.0888 0.0736 0.0764
C27 C -0.1328(3) 0.03927(18) 0.28199(17)
H58 H -0.2434 0.0380 0.2866
H59 H -0.0816 0.0667 0.3364
H60 H -0.1087 -0.0217 0.2684
C28 C -0.1397(3) 0.18467(17) 0.21999(16)
H61 H -0.1091 0.2161 0.1716
H62 H -0.0986 0.2207 0.2733
H63 H -0.2514 0.1744 0.2212
C29 C 0.2508(3) 0.02764(15) 0.19820(14)
C30 C 0.4199(3) 0.07097(19) 0.20287(17)
H64 H 0.4426 0.1082 0.2582
H65 H 0.4374 0.1079 0.1569
H66 H 0.4865 0.0243 0.1965
C31 C 0.2201(3) -0.03561(16) 0.26609(17)
H67 H 0.1193 -0.0708 0.2545
H68 H 0.2231 -0.0007 0.3229
H69 H 0.2984 -0.0756 0.2640
C32 C 0.2165(4) -0.02553(19) 0.10718(17)
H70 H 0.2904 -0.0678 0.0955
H71 H 0.2245 0.0159 0.0646
H72 H 0.1131 -0.0581 0.1042
N1 N 0.2372(2) 0.24566(11) 0.37136(11)
C33 C 0.2244(2) 0.23226(13) 0.28795(13)
C34 C 0.2670(2) 0.29270(13) 0.22689(13)
C35 C 0.2318(3) 0.25284(14) 0.13933(14)
C36 C 0.2753(4) 0.3022(2) 0.06435(16)
H73 H 0.3882 0.3134 0.0641
H74 H 0.2384 0.3609 0.0748
N2 N 0.1663(2) 0.16816(12) 0.11978(11)
loop_
_geom_bond_atom_site_label_1
_geom_bond_atom_site_label_2
_geom_bond_site_symmetry_1
_geom_bond_site_symmetry_2
P1 C1 1_555 1_555
C1 C2 1_555 1_555
C2 H1 1_555 1_555
H2 C2 1_555 1_555
H3 C2 1_555 1_555
C3 C1 1_555 1_555
H4 C3 1_555 1_555
H5 C3 1_555 1_555
H6 C3 1_555 1_555
C4 C1 1_555 1_555
H7 C4 1_555 1_555
H8 C4 1_555 1_555
H9 C4 1_555 1_555
C5 P1 1_555 1_555
C6 C5 1_555 1_555
H10 C6 1_555 1_555
H11 C6 1_555 1_555
H12 C6 1_555 1_555
C7 C5 1_555 1_555
H13 C7 1_555 1_555
H14 C7 1_555 1_555
H15 C7 1_555 1_555
C8 C5 1_555 1_555
H16 C8 1_555 1_555
H17 C8 1_555 1_555
H18 C8 1_555 1_555
P2 C9 1_555 1_555
C9 C10 1_555 1_555
C10 H19 1_555 1_555
H20 C10 1_555 1_555
H21 C10 1_555 1_555
C11 C9 1_555 1_555
H22 C11 1_555 1_555
H23 C11 1_555 1_555
H24 C11 1_555 1_555
C12 C9 1_555 1_555
H25 C12 1_555 1_555
H26 C12 1_555 1_555
H27 C12 1_555 1_555
C13 P2 1_555 1_555
C14 C13 1_555 1_555
H28 C14 1_555 1_555
H29 C14 1_555 1_555
H30 C14 1_555 1_555
C15 C13 1_555 1_555
H31 C15 1_555 1_555
H32 C15 1_555 1_555
H33 C15 1_555 1_555
C16 C13 1_555 1_555
H34 C16 1_555 1_555
H35 C16 1_555 1_555
H36 C16 1_555 1_555
P3 C17 1_555 1_555
C17 C18 1_555 1_555
C18 H37 1_555 1_555
H38 C18 1_555 1_555
H39 C18 1_555 1_555
C19 C17 1_555 1_555
H40 C19 1_555 1_555
H41 C19 1_555 1_555
H42 C19 1_555 1_555
C20 C17 1_555 1_555
H43 C20 1_555 1_555
H44 C20 1_555 1_555
H45 C20 1_555 1_555
C21 P3 1_555 1_555
C22 C21 1_555 1_555
H46 C22 1_555 1_555
H47 C22 1_555 1_555
H48 C22 1_555 1_555
C23 C21 1_555 1_555
H49 C23 1_555 1_555
H50 C23 1_555 1_555
H51 C23 1_555 1_555
C24 C21 1_555 1_555
H52 C24 1_555 1_555
H53 C24 1_555 1_555
H54 C24 1_555 1_555
P4 C25 1_555 1_555
C25 C26 1_555 1_555
C26 H55 1_555 1_555
H56 C26 1_555 1_555
H57 C26 1_555 1_555
C27 C25 1_555 1_555
H58 C27 1_555 1_555
H59 C27 1_555 1_555
H60 C27 1_555 1_555
C28 C25 1_555 1_555
H61 C28 1_555 1_555
H62 C28 1_555 1_555
H63 C28 1_555 1_555
C29 P4 1_555 1_555
C30 C29 1_555 1_555
H64 C30 1_555 1_555
H65 C30 1_555 1_555
H66 C30 1_555 1_555
C31 C29 1_555 1_555
H67 C31 1_555 1_555
H68 C31 1_555 1_555
H69 C31 1_555 1_555
C32 C29 1_555 1_555
H70 C32 1_555 1_555
H71 C32 1_555 1_555
H72 C32 1_555 1_555
N1 P1 1_555 1_555
C33 P4 1_555 1_555
C34 P2 1_555 1_555
C35 C34 1_555 1_555
C36 P3 1_555 1_555
H73 C36 1_555 1_555
H74 C36 1_555 1_555
N2 P4 1_555 1_555
N1 C33 1_555 1_555
C33 C34 1_555 1_555
C35 C36 1_555 1_555
C35 N2 1_555 1_555

#END
