
#######################################################################
#
#                 Cambridge Crystallographic Data Centre
#                                CCDC 
#
#######################################################################
#
# If this CIF has been generated from an entry in the Cambridge 
# Structural Database, then it will include bibliographic, chemical, 
# crystal, experimental, refinement or atomic coordinate data resulting 
# from the CCDC's data processing and validation procedures.
#
#######################################################################

data_LUXGUH
_chemical_formula_moiety         'C38 H45 N1 P2'
_chemical_name_systematic        bis(dimesitylphosphino)acetonitrile
_symmetry_cell_setting           tetragonal
_symmetry_space_group_name_H-M   'I 41/a'
_symmetry_Int_Tables_number      88
_space_group_name_Hall           '-I 4ad'
loop_
_symmetry_equiv_pos_site_id
_symmetry_equiv_pos_as_xyz
1 x,y,z
2 1/2-x,-y,1/2+z
3 3/4-y,1/4+x,1/4+z
4 3/4+y,3/4-x,3/4+z
5 1/2+x,1/2+y,1/2+z
6 -x,1/2-y,z
7 1/4-y,3/4+x,3/4+z
8 1/4+y,1/4-x,1/4+z
9 -x,-y,-z
10 1/2+x,y,1/2-z
11 1/4+y,3/4-x,3/4-z
12 1/4-y,1/4+x,1/4-z
13 1/2-x,1/2-y,1/2-z
14 x,1/2+y,-z
15 3/4+y,1/4-x,1/4-z
16 3/4-y,3/4+x,3/4-z
_cell_length_a                   30.2865(2)
_cell_length_b                   30.2865(2)
_cell_length_c                   14.7582(2)
_cell_angle_alpha                90
_cell_angle_beta                 90
_cell_angle_gamma                90
_cell_volume                     13537.3
_exptl_crystal_colour            colorless
_exptl_crystal_description       block
_cell_formula_units_Z            16
loop_
_atom_site_label
_atom_site_type_symbol
_atom_site_fract_x
_atom_site_fract_y
_atom_site_fract_z
P1 P 0.849564(17) 0.786731(15) 0.11493(3)
P2 P 0.761780(16) 0.813854(15) 0.03245(3)
C1 C 0.82396(6) 0.81542(6) 0.01450(12)
H1 H 0.8340 0.8465 0.0131
C2 C 0.83324(6) 0.79489(6) -0.07266(13)
N1 N 0.84077(6) 0.77789(6) -0.14054(12)
C3 C 0.90657(6) 0.80610(6) 0.13272(12)
C4 C 0.93293(6) 0.83503(6) 0.08012(12)
C5 C 0.97475(7) 0.84636(7) 0.11117(14)
H2 H 0.9919 0.8660 0.0765
C6 C 0.99229(7) 0.82987(8) 0.19137(14)
C7 C 0.96623(7) 0.80188(7) 0.24187(13)
H3 H 0.9776 0.7903 0.2961
C8 C 0.92370(7) 0.79015(6) 0.21557(13)
C9 C 0.91961(7) 0.85452(7) -0.01011(13)
H4 H 0.8981 0.8778 -0.0005
H5 H 0.9068 0.8316 -0.0478
H6 H 0.9454 0.8666 -0.0400
C10 C 1.03846(7) 0.84301(10) 0.22141(17)
H7 H 1.0591 0.8380 0.1722
H8 H 1.0470 0.8254 0.2735
H9 H 1.0387 0.8740 0.2377
C11 C 0.89717(8) 0.76073(8) 0.27816(14)
H10 H 0.9146 0.7538 0.3314
H11 H 0.8895 0.7337 0.2468
H12 H 0.8704 0.7759 0.2964
C12 C 0.85488(6) 0.72826(6) 0.08176(12)
C13 C 0.88985(6) 0.70995(6) 0.03043(12)
C14 C 0.89207(8) 0.66431(7) 0.02003(14)
H13 H 0.9150 0.6523 -0.0150
C15 C 0.86198(9) 0.63600(7) 0.05904(15)
C16 C 0.82822(8) 0.65413(7) 0.10920(15)
H14 H 0.8074 0.6352 0.1360
C17 C 0.82366(7) 0.69946(6) 0.12188(13)
C18 C 0.92645(7) 0.73584(7) -0.01333(14)
H15 H 0.9476 0.7448 0.0325
H16 H 0.9143 0.7618 -0.0425
H17 H 0.9411 0.7176 -0.0582
C19 C 0.86656(11) 0.58672(8) 0.0471(2)
H18 H 0.8843 0.5748 0.0961
H19 H 0.8808 0.5806 -0.0104
H20 H 0.8375 0.5732 0.0480
C20 C 0.78560(8) 0.71522(8) 0.18006(16)
H21 H 0.7652 0.7322 0.1432
H22 H 0.7968 0.7336 0.2287
H23 H 0.7703 0.6899 0.2055
C21 C 0.74356(7) 0.86145(6) 0.10181(12)
C22 C 0.76868(7) 0.89281(6) 0.15045(13)
C23 C 0.74679(9) 0.92739(7) 0.19428(15)
H24 H 0.7637 0.9481 0.2264
C24 C 0.70172(9) 0.93254(9) 0.19278(17)
C25 C 0.67741(9) 0.90000(9) 0.15036(16)
H25 H 0.6464 0.9021 0.1511
C26 C 0.69686(7) 0.86435(7) 0.10670(14)
C27 C 0.81815(7) 0.89265(7) 0.15838(17)
H26 H 0.8311 0.9010 0.1007
H27 H 0.8281 0.8633 0.1749
H28 H 0.8272 0.9136 0.2046
C28 C 0.67987(12) 0.97267(11) 0.2354(2)
H29 H 0.6965 0.9818 0.2883
H30 H 0.6500 0.9652 0.2533
H31 H 0.6792 0.9966 0.1918
C29 C 0.66661(7) 0.83021(8) 0.06576(17)
H32 H 0.6369 0.8344 0.0888
H33 H 0.6770 0.8009 0.0817
H34 H 0.6665 0.8334 0.0003
C30 C 0.74426(6) 0.82943(6) -0.08349(12)
C31 C 0.74953(6) 0.87121(6) -0.12377(12)
C32 C 0.73634(6) 0.87723(7) -0.21331(13)
H35 H 0.7389 0.9055 -0.2392
C33 C 0.71963(6) 0.84328(7) -0.26555(13)
C34 C 0.71477(6) 0.80241(7) -0.22544(13)
H36 H 0.7034 0.7790 -0.2601
C35 C 0.72607(6) 0.79480(6) -0.13567(13)
C36 C 0.77050(7) 0.91009(6) -0.07627(15)
H37 H 0.7723 0.9349 -0.1178
H38 H 0.8000 0.9021 -0.0563
H39 H 0.7527 0.9183 -0.0242
C37 C 0.70799(7) 0.85045(8) -0.36427(14)
H40 H 0.7344 0.8476 -0.4010
H41 H 0.6957 0.8798 -0.3720
H42 H 0.6864 0.8286 -0.3830
C38 C 0.71877(7) 0.74894(6) -0.09805(15)
H43 H 0.7072 0.7300 -0.1453
H44 H 0.6978 0.7503 -0.0484
H45 H 0.7466 0.7371 -0.0763
loop_
_geom_bond_atom_site_label_1
_geom_bond_atom_site_label_2
_geom_bond_site_symmetry_1
_geom_bond_site_symmetry_2
P1 C1 1_555 1_555
P2 C1 1_555 1_555
C1 H1 1_555 1_555
C2 C1 1_555 1_555
N1 C2 1_555 1_555
C3 P1 1_555 1_555
C4 C3 1_555 1_555
C5 C4 1_555 1_555
H2 C5 1_555 1_555
C6 C5 1_555 1_555
C7 C6 1_555 1_555
H3 C7 1_555 1_555
C8 C3 1_555 1_555
C9 C4 1_555 1_555
H4 C9 1_555 1_555
H5 C9 1_555 1_555
H6 C9 1_555 1_555
C10 C6 1_555 1_555
H7 C10 1_555 1_555
H8 C10 1_555 1_555
H9 C10 1_555 1_555
C11 C8 1_555 1_555
H10 C11 1_555 1_555
H11 C11 1_555 1_555
H12 C11 1_555 1_555
C12 P1 1_555 1_555
C13 C12 1_555 1_555
C14 C13 1_555 1_555
H13 C14 1_555 1_555
C15 C14 1_555 1_555
C16 C15 1_555 1_555
H14 C16 1_555 1_555
C17 C12 1_555 1_555
C18 C13 1_555 1_555
H15 C18 1_555 1_555
H16 C18 1_555 1_555
H17 C18 1_555 1_555
C19 C15 1_555 1_555
H18 C19 1_555 1_555
H19 C19 1_555 1_555
H20 C19 1_555 1_555
C20 C17 1_555 1_555
H21 C20 1_555 1_555
H22 C20 1_555 1_555
H23 C20 1_555 1_555
C21 P2 1_555 1_555
C22 C21 1_555 1_555
C23 C22 1_555 1_555
H24 C23 1_555 1_555
C24 C23 1_555 1_555
C25 C24 1_555 1_555
H25 C25 1_555 1_555
C26 C21 1_555 1_555
C27 C22 1_555 1_555
H26 C27 1_555 1_555
H27 C27 1_555 1_555
H28 C27 1_555 1_555
C28 C24 1_555 1_555
H29 C28 1_555 1_555
H30 C28 1_555 1_555
H31 C28 1_555 1_555
C29 C26 1_555 1_555
H32 C29 1_555 1_555
H33 C29 1_555 1_555
H34 C29 1_555 1_555
C30 P2 1_555 1_555
C31 C30 1_555 1_555
C32 C31 1_555 1_555
H35 C32 1_555 1_555
C33 C32 1_555 1_555
C34 C33 1_555 1_555
H36 C34 1_555 1_555
C35 C30 1_555 1_555
C36 C31 1_555 1_555
H37 C36 1_555 1_555
H38 C36 1_555 1_555
H39 C36 1_555 1_555
C37 C33 1_555 1_555
H40 C37 1_555 1_555
H41 C37 1_555 1_555
H42 C37 1_555 1_555
C38 C35 1_555 1_555
H43 C38 1_555 1_555
H44 C38 1_555 1_555
H45 C38 1_555 1_555
C7 C8 1_555 1_555
C16 C17 1_555 1_555
C25 C26 1_555 1_555
C34 C35 1_555 1_555

#END
