
#######################################################################
#
#                 Cambridge Crystallographic Data Centre
#                                CCDC 
#
#######################################################################
#
# If this CIF has been generated from an entry in the Cambridge 
# Structural Database, then it will include bibliographic, chemical, 
# crystal, experimental, refinement or atomic coordinate data resulting 
# from the CCDC's data processing and validation procedures.
#
#######################################################################

data_LUXQIG
_chemical_formula_moiety         'C15 H11 N2 1+,N1 O3 1-,H2 O1'
_chemical_name_systematic        
'1H-phenanthro[9,10-d]imidazol-3-ium nitrate monohydrate'
_symmetry_cell_setting           triclinic
_symmetry_space_group_name_H-M   'P -1'
_symmetry_Int_Tables_number      2
_space_group_name_Hall           '-P 1'
loop_
_symmetry_equiv_pos_site_id
_symmetry_equiv_pos_as_xyz
1 x,y,z
2 -x,-y,-z
_cell_length_a                   7.0464(11)
_cell_length_b                   9.8315(15)
_cell_length_c                   10.6153(17)
_cell_angle_alpha                82.193(3)
_cell_angle_beta                 71.937(3)
_cell_angle_gamma                89.237(3)
_cell_volume                     692.346
_exptl_crystal_colour            colorless
_exptl_crystal_description       block
_cell_formula_units_Z            2
loop_
_atom_site_label
_atom_site_type_symbol
_atom_site_fract_x
_atom_site_fract_y
_atom_site_fract_z
N1 N 0.3528(2) 1.14253(14) 0.31918(15)
N2 N 0.2759(2) 0.93152(14) 0.31806(15)
C1 C 0.3419(3) 1.04979(18) 0.24322(19)
H1 H 0.3757 1.0654 0.1504
C2 C 0.2924(2) 1.08148(16) 0.45077(17)
C3 C 0.2798(2) 1.13665(16) 0.57091(18)
C4 C 0.3334(3) 1.27331(18) 0.5725(2)
H2 H 0.3770 1.3331 0.4928
C5 C 0.3220(3) 1.3189(2) 0.6901(3)
H3 H 0.3571 1.4096 0.6907
C6 C 0.2579(2) 1.22963(17) 0.80864(16)
H4 H 0.2519 1.2607 0.8887
C7 C 0.2037(2) 1.09690(17) 0.80975(16)
H5 H 0.1578 1.0376 0.8936
C8 C 0.2133(2) 1.04473(17) 0.69119(18)
C9 C 0.1576(2) 0.90124(17) 0.69041(17)
C10 C 0.0887(3) 0.8074(2) 0.8082(2)
H6 H 0.0798 0.8359 0.8898
C11 C 0.0344(3) 0.6747(2) 0.8055(2)
H7 H -0.0120 0.6151 0.8853
C12 C 0.0475(3) 0.62824(19) 0.6863(2)
H8 H 0.0091 0.5382 0.6860
C13 C 0.1173(3) 0.71503(17) 0.5678(2)
H9 H 0.1281 0.6836 0.4872
C14 C 0.1722(2) 0.85177(16) 0.56932(17)
C15 C 0.2433(2) 0.94813(16) 0.44979(17)
H10 H 0.3852 1.2319 0.2979
H11 H 0.2541 0.8463 0.2940
N3 N 0.2821(3) 0.70622(16) 0.10705(17)
O1 O 0.2311(2) 0.68617(13) 0.23115(14)
O2 O 0.3319(2) 0.82238(14) 0.04635(14)
O3 O 0.2785(3) 0.60542(15) 0.04865(15)
O4 O 0.4737(2) 0.40356(12) 0.21267(14)
H12 H 0.4022 0.4589 0.1797
H13 H 0.5443 0.4016 0.1319
loop_
_geom_bond_atom_site_label_1
_geom_bond_atom_site_label_2
_geom_bond_site_symmetry_1
_geom_bond_site_symmetry_2
N1 C1 1_555 1_555
N2 C1 1_555 1_555
C1 H1 1_555 1_555
C2 N1 1_555 1_555
C3 C2 1_555 1_555
C4 C3 1_555 1_555
H2 C4 1_555 1_555
C5 C4 1_555 1_555
H3 C5 1_555 1_555
C6 C5 1_555 1_555
H4 C6 1_555 1_555
C7 C6 1_555 1_555
H5 C7 1_555 1_555
C8 C3 1_555 1_555
C9 C8 1_555 1_555
C10 C9 1_555 1_555
H6 C10 1_555 1_555
C11 C10 1_555 1_555
H7 C11 1_555 1_555
C12 C11 1_555 1_555
H8 C12 1_555 1_555
C13 C12 1_555 1_555
H9 C13 1_555 1_555
C14 C9 1_555 1_555
C15 N2 1_555 1_555
H10 N1 1_555 1_555
H11 N2 1_555 1_555
N3 O1 1_555 1_555
O2 N3 1_555 1_555
O3 N3 1_555 1_555
O4 H12 1_555 1_555
H13 O4 1_555 1_555
C2 C15 1_555 1_555
C7 C8 1_555 1_555
C13 C14 1_555 1_555
C14 C15 1_555 1_555

#END
