
#######################################################################
#
#                 Cambridge Crystallographic Data Centre
#                                CCDC 
#
#######################################################################
#
# If this CIF has been generated from an entry in the Cambridge 
# Structural Database, then it will include bibliographic, chemical, 
# crystal, experimental, refinement or atomic coordinate data resulting 
# from the CCDC's data processing and validation procedures.
#
#######################################################################

data_LUXROM
_chemical_formula_moiety         'C36 H34 N5 O1 S2 1+,C1 F3 O3 S1 1-,C1 H1 Cl3'
_chemical_name_systematic        
'2-((2-(bis(1\l^5^-pyridin-1-ylmethyl)amino)-3-((3-ethyl-1,3-benzothiazol-2(3H)-ylidene)methyl)-4-oxocyclobut-2-en-1-ylidene)methyl)-3-ethyl-1,3-benzothiazol-3-ium trifluoromethanesulfonate chloroform solvate'
_symmetry_cell_setting           triclinic
_symmetry_space_group_name_H-M   'P -1'
_symmetry_Int_Tables_number      2
_space_group_name_Hall           '-P 1'
loop_
_symmetry_equiv_pos_site_id
_symmetry_equiv_pos_as_xyz
1 x,y,z
2 -x,-y,-z
_cell_length_a                   16.1859(12)
_cell_length_b                   16.2485(12)
_cell_length_c                   16.6705(12)
_cell_angle_alpha                67.5510(10)
_cell_angle_beta                 65.9590(10)
_cell_angle_gamma                75.5340(10)
_cell_volume                     3677.41
_exptl_crystal_colour            blue
_exptl_crystal_description       block
_cell_formula_units_Z            4
loop_
_atom_site_label
_atom_site_type_symbol
_atom_site_fract_x
_atom_site_fract_y
_atom_site_fract_z
S3 S 0.51167(7) 0.50664(7) 0.82242(7)
S4 S 0.56369(6) 0.84467(6) 0.49992(7)
O2 O 0.51392(19) 0.6992(2) 0.6851(2)
N6 N 0.3869(2) 0.4777(2) 0.9812(2)
N7 N 0.4477(2) 0.9632(2) 0.4376(2)
N8 N 0.2038(2) 0.7657(2) 0.7683(2)
N9 N 0.1450(3) 0.8496(3) 0.6377(3)
N10 N 0.1363(3) 0.7403(3) 0.9374(3)
C37 C 0.4317(3) 0.7130(3) 0.7047(3)
C38 C 0.3524(3) 0.6711(2) 0.7842(3)
C39 C 0.2934(3) 0.7427(2) 0.7418(3)
C40 C 0.3686(3) 0.7808(2) 0.6619(3)
C41 C 0.3379(3) 0.6008(2) 0.8652(3)
H35 H 0.2768 0.5970 0.9068
C42 C 0.4035(3) 0.5337(2) 0.8934(3)
C43 C 0.5340(3) 0.4198(2) 0.9139(3)
C44 C 0.6141(3) 0.3613(3) 0.9140(3)
H36 H 0.6660 0.3662 0.8590
C45 C 0.6151(3) 0.2963(3) 0.9969(3)
H37 H 0.6689 0.2565 0.9989
C46 C 0.5385(3) 0.2880(3) 1.0776(3)
H38 H 0.5410 0.2418 1.1330
C47 C 0.4592(3) 0.3451(3) 1.0791(3)
H39 H 0.4075 0.3393 1.1343
C48 C 0.4579(2) 0.4121(2) 0.9959(3)
C49 C 0.3006(2) 0.4860(3) 1.0597(3)
H40 H 0.2751 0.5498 1.0479
H41 H 0.3144 0.4660 1.1174
C50 C 0.2303(3) 0.4314(3) 1.0729(3)
H42 H 0.2129 0.4540 1.0178
H43 H 0.1765 0.4363 1.1271
H44 H 0.2559 0.3685 1.0824
C51 C 0.3737(3) 0.8541(2) 0.5820(3)
H45 H 0.3171 0.8841 0.5760
C52 C 0.4507(2) 0.8889(2) 0.5101(3)
C53 C 0.6043(3) 0.9293(2) 0.3942(3)
C54 C 0.6943(3) 0.9411(3) 0.3361(3)
H46 H 0.7434 0.9017 0.3521
C55 C 0.7097(3) 1.0118(3) 0.2546(3)
H47 H 0.7704 1.0211 0.2139
C56 C 0.6383(3) 1.0695(3) 0.2309(3)
H48 H 0.6508 1.1177 0.1744
C57 C 0.5491(3) 1.0579(3) 0.2882(3)
H49 H 0.5003 1.0975 0.2717
C58 C 0.5324(3) 0.9866(2) 0.3710(3)
C59 C 0.3618(3) 1.0131(3) 0.4255(3)
H50 H 0.3709 1.0768 0.3901
H51 H 0.3146 1.0104 0.4870
C60 C 0.3291(3) 0.9749(3) 0.3747(3)
H52 H 0.3773 0.9739 0.3155
H53 H 0.2748 1.0124 0.3632
H54 H 0.3141 0.9138 0.4126
C61 C 0.1640(3) 0.8517(2) 0.7184(3)
H55 H 0.2061 0.8973 0.6953
H56 H 0.1063 0.8708 0.7626
C62 C 0.1470(3) 0.7701(3) 0.6236(3)
H57 H 0.1629 0.7138 0.6636
C63 C 0.1251(3) 0.7754(4) 0.5493(3)
H58 H 0.1265 0.7224 0.5370
C64 C 0.1013(3) 0.8573(4) 0.4939(3)
H59 H 0.0840 0.8628 0.4440
C65 C 0.1036(3) 0.9313(4) 0.5135(3)
H60 H 0.0890 0.9882 0.4736
C66 C 0.1242(2) 0.9307(3) 0.5829(3)
H61 H 0.1242 0.9843 0.5932
C67 C 0.1425(3) 0.7145(3) 0.8569(3)
H62 H 0.1642 0.6499 0.8680
H63 H 0.0810 0.7242 0.8535
C68 C 0.1428(3) 0.8256(2) 0.9207(3)
H64 H 0.1506 0.8682 0.8610
C69 C 0.1380(4) 0.8490(4) 0.9907(4)
H65 H 0.1403 0.9104 0.9796
C70 C 0.1302(3) 0.7917(4) 1.0769(3)
H66 H 0.1301 0.8117 1.1235
C71 C 0.1225(3) 0.7039(4) 1.0945(4)
H67 H 0.1162 0.6619 1.1543
C72 C 0.1238(3) 0.6769(3) 1.0245(3)
H68 H 0.1164 0.6168 1.0356
S5 S 0.85387(8) 0.54945(7) 0.15365(8)
F1 F 0.9987(2) 0.5295(2) 0.1956(3)
F2 F 1.0035(2) 0.4398(3) 0.1265(4)
F3 F 0.9183(3) 0.4202(3) 0.2690(3)
O3 O 0.8989(3) 0.6123(2) 0.0651(2)
O4 O 0.8047(3) 0.5876(2) 0.2251(3)
O5 O 0.8086(3) 0.4872(2) 0.1498(3)
C73 C 0.9480(4) 0.4809(3) 0.1889(4)
S6 S 0.77761(9) 0.37618(8) 0.64908(9)
F4 F 0.8623(3) 0.4615(3) 0.4749(3)
F5 F 0.9466(3) 0.3613(3) 0.5418(3)
F6 F 0.8996(3) 0.4870(4) 0.5716(3)
O6 O 0.7092(3) 0.4513(3) 0.6566(3)
O7 O 0.8051(3) 0.3324(3) 0.7278(3)
O8 O 0.7565(4) 0.3167(4) 0.6158(4)
C74 C 0.8767(5) 0.4217(5) 0.5578(5)
S1 S 0.48738(7) 0.74437(7) 0.36826(7)
S2 S 0.47525(6) 1.06560(6) 0.08417(6)
O1 O 0.51643(18) 0.90905(17) 0.21839(18)
N1 N 0.6117(2) 0.6422(2) 0.4297(2)
N2 N 0.5869(2) 1.1441(2) -0.0753(2)
N3 N 0.8253(2) 0.8586(2) 0.0751(2)
N4 N 0.8822(3) 0.8971(3) -0.0978(3)
N5 N 0.9047(3) 0.8171(3) 0.1864(3)
C1 C 0.5988(3) 0.8954(2) 0.1793(3)
C2 C 0.6710(2) 0.8260(2) 0.2052(3)
C3 C 0.7351(2) 0.8738(2) 0.1163(2)
C4 C 0.6662(2) 0.9395(2) 0.0895(3)
C5 C 0.6756(3) 0.7520(3) 0.2793(3)
H1 H 0.7347 0.7239 0.2790
C6 C 0.6024(3) 0.7141(2) 0.3548(3)
C7 C 0.4559(3) 0.6597(3) 0.4752(3)
C8 C 0.3675(3) 0.6394(3) 0.5316(3)
H2 H 0.3167 0.6720 0.5140
C9 C 0.3566(3) 0.5701(3) 0.6142(3)
H3 H 0.2975 0.5540 0.6545
C10 C 0.4324(4) 0.5237(3) 0.6383(3)
H4 H 0.4237 0.4770 0.6957
C11 C 0.5194(3) 0.5437(3) 0.5814(3)
H5 H 0.5704 0.5115 0.5988
C12 C 0.5303(3) 0.6126(3) 0.4973(3)
C13 C 0.7019(3) 0.6032(3) 0.4393(3)
H6 H 0.7472 0.6009 0.3783
H7 H 0.6978 0.5411 0.4825
C14 C 0.7328(3) 0.6579(3) 0.4751(3)
H8 H 0.7369 0.7194 0.4324
H9 H 0.7927 0.6314 0.4799
H10 H 0.6890 0.6586 0.5364
C15 C 0.6628(3) 1.0143(2) 0.0120(3)
H11 H 0.7185 1.0262 -0.0385
C16 C 0.5862(3) 1.0723(2) 0.0020(2)
C17 C 0.4333(3) 1.1583(2) 0.0092(3)
C18 C 0.3426(3) 1.1956(2) 0.0251(3)
H12 H 0.2959 1.1712 0.0817
C19 C 0.3225(3) 1.2694(3) -0.0441(3)
H13 H 0.2616 1.2968 -0.0350
C20 C 0.3926(3) 1.3029(3) -0.1275(3)
H14 H 0.3780 1.3530 -0.1746
C21 C 0.4818(3) 1.2662(2) -0.1439(3)
H15 H 0.5282 1.2902 -0.2009
C22 C 0.5021(3) 1.1921(2) -0.0739(3)
C23 C 0.6706(3) 1.1675(3) -0.1572(3)
H16 H 0.7233 1.1520 -0.1364
H17 H 0.6650 1.2329 -0.1890
C24 C 0.6874(3) 1.1187(3) -0.2247(3)
H18 H 0.6974 1.0540 -0.1949
H19 H 0.7412 1.1383 -0.2793
H20 H 0.6343 1.1322 -0.2438
C25 C 0.8743(3) 0.9202(3) -0.0152(3)
H21 H 0.9363 0.9206 -0.0175
H22 H 0.8426 0.9815 -0.0200
C26 C 0.8977(3) 0.8093(3) -0.0980(3)
H23 H 0.8999 0.7606 -0.0442
C27 C 0.9098(3) 0.7945(3) -0.1784(3)
H24 H 0.9210 0.7351 -0.1810
C28 C 0.9054(3) 0.8672(3) -0.2552(3)
H25 H 0.9137 0.8591 -0.3116
C29 C 0.8889(4) 0.9511(3) -0.2473(3)
H26 H 0.8861 1.0010 -0.3000
C30 C 0.8764(3) 0.9670(3) -0.1705(3)
H27 H 0.8638 1.0264 -0.1678
C31 C 0.8808(3) 0.7883(3) 0.1240(3)
H28 H 0.9376 0.7705 0.0779
H29 H 0.8471 0.7350 0.1612
C32 C 0.9207(3) 0.7567(3) 0.2647(3)
H30 H 0.9132 0.6954 0.2820
C33 C 0.9473(4) 0.7844(4) 0.3175(4)
H31 H 0.9577 0.7433 0.3719
C34 C 0.9586(3) 0.8743(4) 0.2894(4)
H32 H 0.9773 0.8961 0.3241
C35 C 0.9424(3) 0.9306(4) 0.2115(4)
H33 H 0.9502 0.9920 0.1928
C36 C 0.9162(2) 0.9045(2) 0.1600(3)
H34 H 0.9058 0.9461 0.1058
loop_
_geom_bond_atom_site_label_1
_geom_bond_atom_site_label_2
_geom_bond_site_symmetry_1
_geom_bond_site_symmetry_2
S1 C6 1_555 1_555
S2 C16 1_555 1_555
S3 C42 1_555 1_555
S4 C52 1_555 1_555
S5 O3 1_555 1_555
S6 O6 1_555 1_555
F1 C73 1_555 1_555
F2 C73 1_555 1_555
F3 C73 1_555 1_555
F4 C74 1_555 1_555
F5 C74 1_555 1_555
F6 C74 1_555 1_555
O1 C1 1_555 1_555
O2 C37 1_555 1_555
O4 S5 1_555 1_555
O5 S5 1_555 1_555
O7 S6 1_555 1_555
O8 S6 1_555 1_555
N1 C6 1_555 1_555
N2 C16 1_555 1_555
N3 C3 1_555 1_555
N4 C25 1_555 1_555
N5 C31 1_555 1_555
N6 C42 1_555 1_555
N7 C52 1_555 1_555
N8 C39 1_555 1_555
N9 C61 1_555 1_555
N10 C67 1_555 1_555
C1 C2 1_555 1_555
C2 C3 1_555 1_555
C3 C4 1_555 1_555
C4 C1 1_555 1_555
C5 C2 1_555 1_555
H1 C5 1_555 1_555
C6 C5 1_555 1_555
C7 S1 1_555 1_555
C8 C7 1_555 1_555
H2 C8 1_555 1_555
C9 C8 1_555 1_555
H3 C9 1_555 1_555
C10 C9 1_555 1_555
H4 C10 1_555 1_555
C11 C10 1_555 1_555
H5 C11 1_555 1_555
C12 N1 1_555 1_555
C13 N1 1_555 1_555
H6 C13 1_555 1_555
H7 C13 1_555 1_555
C14 C13 1_555 1_555
H8 C14 1_555 1_555
H9 C14 1_555 1_555
H10 C14 1_555 1_555
C15 C4 1_555 1_555
H11 C15 1_555 1_555
C16 C15 1_555 1_555
C17 S2 1_555 1_555
C18 C17 1_555 1_555
H12 C18 1_555 1_555
C19 C18 1_555 1_555
H13 C19 1_555 1_555
C20 C19 1_555 1_555
H14 C20 1_555 1_555
C21 C20 1_555 1_555
H15 C21 1_555 1_555
C22 N2 1_555 1_555
C23 N2 1_555 1_555
H16 C23 1_555 1_555
H17 C23 1_555 1_555
C24 C23 1_555 1_555
H18 C24 1_555 1_555
H19 C24 1_555 1_555
H20 C24 1_555 1_555
C25 N3 1_555 1_555
H21 C25 1_555 1_555
H22 C25 1_555 1_555
C26 N4 1_555 1_555
H23 C26 1_555 1_555
C27 C26 1_555 1_555
H24 C27 1_555 1_555
C28 C27 1_555 1_555
H25 C28 1_555 1_555
C29 C28 1_555 1_555
H26 C29 1_555 1_555
C30 N4 1_555 1_555
H27 C30 1_555 1_555
C31 N3 1_555 1_555
H28 C31 1_555 1_555
H29 C31 1_555 1_555
C32 N5 1_555 1_555
H30 C32 1_555 1_555
C33 C32 1_555 1_555
H31 C33 1_555 1_555
C34 C33 1_555 1_555
H32 C34 1_555 1_555
C35 C34 1_555 1_555
H33 C35 1_555 1_555
C36 N5 1_555 1_555
H34 C36 1_555 1_555
C37 C38 1_555 1_555
C38 C39 1_555 1_555
C39 C40 1_555 1_555
C40 C37 1_555 1_555
C41 C38 1_555 1_555
H35 C41 1_555 1_555
C42 C41 1_555 1_555
C43 S3 1_555 1_555
C44 C43 1_555 1_555
H36 C44 1_555 1_555
C45 C44 1_555 1_555
H37 C45 1_555 1_555
C46 C45 1_555 1_555
H38 C46 1_555 1_555
C47 C46 1_555 1_555
H39 C47 1_555 1_555
C48 N6 1_555 1_555
C49 N6 1_555 1_555
H40 C49 1_555 1_555
H41 C49 1_555 1_555
C50 C49 1_555 1_555
H42 C50 1_555 1_555
H43 C50 1_555 1_555
H44 C50 1_555 1_555
C51 C40 1_555 1_555
H45 C51 1_555 1_555
C52 C51 1_555 1_555
C53 S4 1_555 1_555
C54 C53 1_555 1_555
H46 C54 1_555 1_555
C55 C54 1_555 1_555
H47 C55 1_555 1_555
C56 C55 1_555 1_555
H48 C56 1_555 1_555
C57 C56 1_555 1_555
H49 C57 1_555 1_555
C58 N7 1_555 1_555
C59 N7 1_555 1_555
H50 C59 1_555 1_555
H51 C59 1_555 1_555
C60 C59 1_555 1_555
H52 C60 1_555 1_555
H53 C60 1_555 1_555
H54 C60 1_555 1_555
C61 N8 1_555 1_555
H55 C61 1_555 1_555
H56 C61 1_555 1_555
C62 N9 1_555 1_555
H57 C62 1_555 1_555
C63 C62 1_555 1_555
H58 C63 1_555 1_555
C64 C63 1_555 1_555
H59 C64 1_555 1_555
C65 C64 1_555 1_555
H60 C65 1_555 1_555
C66 N9 1_555 1_555
H61 C66 1_555 1_555
C67 N8 1_555 1_555
H62 C67 1_555 1_555
H63 C67 1_555 1_555
C68 N10 1_555 1_555
H64 C68 1_555 1_555
C69 C68 1_555 1_555
H65 C69 1_555 1_555
C70 C69 1_555 1_555
H66 C70 1_555 1_555
C71 C70 1_555 1_555
H67 C71 1_555 1_555
C72 N10 1_555 1_555
H68 C72 1_555 1_555
C73 S5 1_555 1_555
C74 S6 1_555 1_555
C7 C12 1_555 1_555
C11 C12 1_555 1_555
C17 C22 1_555 1_555
C21 C22 1_555 1_555
C29 C30 1_555 1_555
C35 C36 1_555 1_555
C43 C48 1_555 1_555
C47 C48 1_555 1_555
C53 C58 1_555 1_555
C57 C58 1_555 1_555
C65 C66 1_555 1_555
C71 C72 1_555 1_555

#END
