
#######################################################################
#
#                 Cambridge Crystallographic Data Centre
#                                CCDC 
#
#######################################################################
#
# If this CIF has been generated from an entry in the Cambridge 
# Structural Database, then it will include bibliographic, chemical, 
# crystal, experimental, refinement or atomic coordinate data resulting 
# from the CCDC's data processing and validation procedures.
#
#######################################################################

data_LUXRED
_chemical_formula_moiety         'C40 H61 N1 O7 Si2'
_chemical_name_systematic        
'3a,9a-bis(((t-butyl(dimethyl)silyl)oxy)methyl)-7-isopropyl-4a-methyl-6-oxo-2,3,3a,3b,4,4a,5,6,9,9a-decahydro-1H-cyclopenta[a]-s-indacen-9-yl 4-nitrobenzoate'
_symmetry_cell_setting           triclinic
_symmetry_space_group_name_H-M   'P -1'
_symmetry_Int_Tables_number      2
_space_group_name_Hall           '-P 1'
loop_
_symmetry_equiv_pos_site_id
_symmetry_equiv_pos_as_xyz
1 x,y,z
2 -x,-y,-z
_cell_length_a                   7.87150(10)
_cell_length_b                   13.3881(2)
_cell_length_c                   21.2883(14)
_cell_angle_alpha                92.928(7)
_cell_angle_beta                 96.022(7)
_cell_angle_gamma                102.733(7)
_cell_volume                     2169.83
_exptl_crystal_colour            colorless
_exptl_crystal_description       block
_cell_formula_units_Z            2
loop_
_atom_site_label
_atom_site_type_symbol
_atom_site_fract_x
_atom_site_fract_y
_atom_site_fract_z
Si1 Si 0.4218(3) -0.05622(17) 0.69803(12)
Si2 Si 0.2941(4) 0.3688(2) 0.59650(10)
N1 N 1.3334(6) 0.0280(5) 1.0478(3)
O1 O 0.8375(4) 0.1985(2) 0.84528(13)
O2 O 0.4920(4) 0.0653(3) 0.72517(17)
O3 O 0.9471(6) 0.1004(4) 0.77920(18)
O4 O 1.3735(9) 0.0888(6) 1.0922(3)
O5 O 1.3698(6) -0.0546(4) 1.0451(3)
O6 O 0.3240(6) 0.3418(3) 0.66748(19)
O7 O 1.0874(8) 0.7806(3) 0.8660(3)
C1 C 1.0650(6) 0.1677(3) 0.9460(2)
H1 H 1.0179 0.2254 0.9488
C2 C 1.0344(5) 0.1059(3) 0.8901(2)
C3 C 0.9365(5) 0.1325(3) 0.8313(2)
C4 C 1.0981(6) 0.0177(3) 0.8862(2)
H2 H 1.0756 -0.0241 0.8487
C5 C 1.2279(6) 0.0553(4) 0.9918(3)
C6 C 0.7933(5) 0.3485(3) 0.79252(19)
C7 C 0.5091(6) 0.2411(3) 0.8702(2)
H3 H 0.4236 0.1855 0.8842
H4 H 0.6172 0.2514 0.8987
C8 C 0.2789(14) 0.5042(6) 0.5991(4)
H5 H 0.2606 0.5242 0.5567
H6 H 0.1824 0.5124 0.6214
H7 H 0.3858 0.5466 0.6206
C9 C 0.7384(5) 0.2342(3) 0.79405(19)
H8 H 0.7547 0.2009 0.7537
C10 C 0.5424(5) 0.2143(3) 0.80138(19)
C11 C 1.1647(6) 0.1439(4) 0.9974(2)
H9 H 1.1894 0.1859 1.0349
C12 C 0.9313(6) 0.4125(3) 0.8239(2)
H10 H 1.0150 0.3871 0.8483
C13 C 0.4759(5) 0.2973(3) 0.7610(2)
C14 C 1.1951(6) -0.0080(4) 0.9382(3)
H11 H 1.2372 -0.0677 0.9364
C15 C 0.3540(7) 0.3376(4) 0.8035(3)
H12 H 0.3439 0.4061 0.7935
H13 H 0.2378 0.2926 0.7979
C16 C 0.4517(6) 0.1016(3) 0.7847(2)
H14 H 0.4889 0.0605 0.8175
H15 H 0.3258 0.0936 0.7832
C17 C 0.9528(6) 0.5215(3) 0.8206(2)
C18 C 0.4411(7) 0.3387(4) 0.8707(2)
H16 H 0.3572 0.3380 0.9010
H17 H 0.5365 0.3989 0.8809
C19 C 0.6457(6) 0.3790(3) 0.7524(2)
H18 H 0.6669 0.3690 0.7083
C20 C 0.6518(7) 0.4939(4) 0.7648(3)
H19 H 0.5798 0.5156 0.7307
H20 H 0.6030 0.5047 0.8039
C21 C 0.8390(7) 0.5598(4) 0.7696(3)
C22 C 1.0609(7) 0.5989(4) 0.8591(3)
C23 C 0.3756(7) 0.2565(4) 0.6965(2)
H21 H 0.4494 0.2275 0.6704
H22 H 0.2729 0.2034 0.7013
C24 C 0.8574(10) 0.6721(4) 0.7938(4)
H23 H 0.8742 0.7170 0.7596
H24 H 0.7539 0.6805 0.8126
C25 C 1.0152(9) 0.6955(4) 0.8423(4)
C26 C 1.1996(9) 0.5904(5) 0.9106(4)
H25 H 1.1944 0.5170 0.9137
C27 C 0.9158(11) 0.5542(6) 0.7063(3)
H26 H 0.8439 0.5784 0.6739
H27 H 1.0327 0.5963 0.7106
H28 H 0.9187 0.4843 0.6948
C28 C 0.4920(16) 0.3483(12) 0.5571(6)
H29 H 0.4784 0.3641 0.5136
H30 H 0.5968 0.3925 0.5788
H31 H 0.5003 0.2781 0.5590
C29 C 0.537(2) -0.0656(17) 0.6273(9)
C30 C 1.3800(11) 0.6388(8) 0.8977(6)
H32 H 1.4628 0.6307 0.9324
H33 H 1.4049 0.6064 0.8595
H34 H 1.3889 0.7106 0.8927
C31 C 1.1600(18) 0.6331(9) 0.9749(5)
H35 H 1.2504 0.6270 1.0075
H36 H 1.1563 0.7040 0.9727
H37 H 1.0488 0.5946 0.9844
C32 C 0.1793(13) -0.0847(13) 0.6799(10)
H38 H 0.1371 -0.1552 0.6640
H39 H 0.1281 -0.0726 0.7177
H40 H 0.1474 -0.0410 0.6485
C33 C 0.118(2) 0.2884(8) 0.5598(10)
C34 C 0.7118(19) -0.0559(17) 0.6450(9)
H41 H 0.7284 -0.1098 0.6714
H42 H 0.7703 -0.0605 0.6080
H43 H 0.7598 0.0095 0.6681
C35 C 0.1164(18) 0.1764(9) 0.5445(5)
H44 H 0.0035 0.1419 0.5232
H45 H 0.2051 0.1714 0.5175
H46 H 0.1394 0.1449 0.5830
C36 C -0.0581(15) 0.2980(13) 0.5939(11)
H47 H -0.0561 0.3691 0.6035
H48 H -0.1617 0.2669 0.5657
H49 H -0.0586 0.2635 0.6324
C37 C 0.450(2) -0.1820(13) 0.5964(8)
H50 H 0.3267 -0.1885 0.5840
H51 H 0.5055 -0.1956 0.5599
H52 H 0.4655 -0.2303 0.6271
C38 C 0.508(4) -0.1405(9) 0.7571(6)
H53 H 0.4680 -0.2113 0.7416
H54 H 0.6343 -0.1226 0.7623
H55 H 0.4665 -0.1300 0.7971
C39 C 0.458(3) 0.002(2) 0.5868(10)
H56 H 0.3330 -0.0213 0.5816
H57 H 0.4900 0.0711 0.6063
H58 H 0.5006 0.0011 0.5461
C40 C 0.088(2) 0.3347(13) 0.4803(5)
H59 H 0.0869 0.4064 0.4842
H60 H 0.1823 0.3253 0.4573
H61 H -0.0215 0.2967 0.4580
loop_
_geom_bond_atom_site_label_1
_geom_bond_atom_site_label_2
_geom_bond_site_symmetry_1
_geom_bond_site_symmetry_2
Si1 O2 1_555 1_555
Si2 O6 1_555 1_555
N1 O4 1_555 1_555
O1 C3 1_555 1_555
O2 C16 1_555 1_555
O3 C3 1_555 1_555
O5 N1 1_555 1_555
O6 C23 1_555 1_555
O7 C25 1_555 1_555
C1 H1 1_555 1_555
C2 C1 1_555 1_555
C3 C2 1_555 1_555
C4 C2 1_555 1_555
H2 C4 1_555 1_555
C5 N1 1_555 1_555
C6 C9 1_555 1_555
C7 H3 1_555 1_555
H4 C7 1_555 1_555
C8 Si2 1_555 1_555
H5 C8 1_555 1_555
H6 C8 1_555 1_555
H7 C8 1_555 1_555
C9 O1 1_555 1_555
H8 C9 1_555 1_555
C10 C7 1_555 1_555
C11 C1 1_555 1_555
H9 C11 1_555 1_555
C12 C6 1_555 1_555
H10 C12 1_555 1_555
C13 C10 1_555 1_555
C14 C4 1_555 1_555
H11 C14 1_555 1_555
C15 C13 1_555 1_555
H12 C15 1_555 1_555
H13 C15 1_555 1_555
C16 C10 1_555 1_555
H14 C16 1_555 1_555
H15 C16 1_555 1_555
C17 C12 1_555 1_555
C18 C7 1_555 1_555
H16 C18 1_555 1_555
H17 C18 1_555 1_555
C19 C6 1_555 1_555
H18 C19 1_555 1_555
C20 C19 1_555 1_555
H19 C20 1_555 1_555
H20 C20 1_555 1_555
C21 C17 1_555 1_555
C22 C17 1_555 1_555
C23 C13 1_555 1_555
H21 C23 1_555 1_555
H22 C23 1_555 1_555
C24 C21 1_555 1_555
H23 C24 1_555 1_555
H24 C24 1_555 1_555
C25 C22 1_555 1_555
C26 C22 1_555 1_555
H25 C26 1_555 1_555
C27 C21 1_555 1_555
H26 C27 1_555 1_555
H27 C27 1_555 1_555
H28 C27 1_555 1_555
C28 Si2 1_555 1_555
H29 C28 1_555 1_555
H30 C28 1_555 1_555
H31 C28 1_555 1_555
C29 Si1 1_555 1_555
C30 C26 1_555 1_555
H32 C30 1_555 1_555
H33 C30 1_555 1_555
H34 C30 1_555 1_555
C31 C26 1_555 1_555
H35 C31 1_555 1_555
H36 C31 1_555 1_555
H37 C31 1_555 1_555
C32 Si1 1_555 1_555
H38 C32 1_555 1_555
H39 C32 1_555 1_555
H40 C32 1_555 1_555
C33 Si2 1_555 1_555
C34 C29 1_555 1_555
H41 C34 1_555 1_555
H42 C34 1_555 1_555
H43 C34 1_555 1_555
C35 C33 1_555 1_555
H44 C35 1_555 1_555
H45 C35 1_555 1_555
H46 C35 1_555 1_555
C36 C33 1_555 1_555
H47 C36 1_555 1_555
H48 C36 1_555 1_555
H49 C36 1_555 1_555
C37 C29 1_555 1_555
H50 C37 1_555 1_555
H51 C37 1_555 1_555
H52 C37 1_555 1_555
C38 Si1 1_555 1_555
H53 C38 1_555 1_555
H54 C38 1_555 1_555
H55 C38 1_555 1_555
C39 C29 1_555 1_555
H56 C39 1_555 1_555
H57 C39 1_555 1_555
H58 C39 1_555 1_555
C40 C33 1_555 1_555
H59 C40 1_555 1_555
H60 C40 1_555 1_555
H61 C40 1_555 1_555
C5 C11 1_555 1_555
C5 C14 1_555 1_555
C9 C10 1_555 1_555
C13 C19 1_555 1_555
C15 C18 1_555 1_555
C20 C21 1_555 1_555
C24 C25 1_555 1_555

#END
