
#######################################################################
#
#                 Cambridge Crystallographic Data Centre
#                                CCDC 
#
#######################################################################
#
# If this CIF has been generated from an entry in the Cambridge 
# Structural Database, then it will include bibliographic, chemical, 
# crystal, experimental, refinement or atomic coordinate data resulting 
# from the CCDC's data processing and validation procedures.
#
#######################################################################

data_LUXTEE
_chemical_formula_moiety         'C42 H50 N4'
_chemical_name_systematic        
N,N'-bis(2,6-dimethylphenyl)-3,4-bis(N-(2,6-dimethylphenyl)ethanimidoyl)hexa-2,4-diene-2,5-diamine
_symmetry_cell_setting           monoclinic
_symmetry_space_group_name_H-M   'P 21/n'
_symmetry_Int_Tables_number      14
_space_group_name_Hall           '-P 2yn'
loop_
_symmetry_equiv_pos_site_id
_symmetry_equiv_pos_as_xyz
1 x,y,z
2 1/2-x,1/2+y,1/2-z
3 -x,-y,-z
4 1/2+x,1/2-y,1/2+z
_cell_length_a                   15.828(2)
_cell_length_b                   22.036(3)
_cell_length_c                   22.213(3)
_cell_angle_alpha                90
_cell_angle_beta                 106.104(4)
_cell_angle_gamma                90
_cell_volume                     7443.56
_exptl_crystal_colour            'light yellow'
_exptl_crystal_description       prism
_cell_formula_units_Z            8
loop_
_atom_site_label
_atom_site_type_symbol
_atom_site_fract_x
_atom_site_fract_y
_atom_site_fract_z
N1 N 0.50181(14) 0.87570(9) 0.94969(10)
H1 H 0.5443 0.8959 0.9411
N2 N 0.61830(14) 0.87909(9) 0.88577(10)
N3 N 0.58742(14) 0.61941(9) 0.92590(10)
H2 H 0.5496 0.6073 0.8916
N4 N 0.46591(15) 0.64195(9) 0.82384(10)
C1 C 0.4376(2) 0.77925(12) 0.96662(15)
H5 H 0.4485 0.7893 1.0106
H6 H 0.4479 0.7363 0.9624
H7 H 0.3772 0.7889 0.9446
C2 C 0.49871(16) 0.81534(11) 0.93913(12)
C3 C 0.54973(16) 0.78702(11) 0.90578(11)
C4 C 0.60810(16) 0.82038(11) 0.87825(12)
C5 C 0.6557(2) 0.78506(13) 0.83935(15)
H8 H 0.6141 0.7726 0.8004
H9 H 0.6828 0.7494 0.8624
H10 H 0.7007 0.8104 0.8303
C6 C 0.44152(16) 0.90904(10) 0.97371(12)
C7 C 0.46897(18) 0.93046(11) 1.03534(13)
C8 C 0.4090(2) 0.96412(12) 1.05765(14)
H11 H 0.4264 0.9799 1.0985
C9 C 0.3251(2) 0.97440(12) 1.02075(16)
H12 H 0.2853 0.9961 1.0370
C10 C 0.2989(2) 0.95319(13) 0.96023(15)
H13 H 0.2413 0.9607 0.9354
C11 C 0.35663(18) 0.92084(12) 0.93537(13)
C12 C 0.5600(2) 0.91832(16) 1.07589(15)
H14 H 0.5684 0.8749 1.0823
H15 H 0.5682 0.9382 1.1160
H16 H 0.6025 0.9339 1.0556
C13 C 0.3280(2) 0.90020(18) 0.86782(14)
H17 H 0.3207 0.8565 0.8663
H18 H 0.3723 0.9115 0.8473
H19 H 0.2726 0.9194 0.8466
C14 C 0.66957(18) 0.91317(11) 0.85476(13)
C15 C 0.6261(2) 0.94349(12) 0.79927(14)
C16 C 0.6742(3) 0.98096(14) 0.77074(17)
H20 H 0.6456 1.0016 0.7336
C17 C 0.7627(3) 0.98817(17) 0.7960(2)
H21 H 0.7943 1.0138 0.7762
C18 C 0.8056(2) 0.95843(17) 0.8499(2)
H22 H 0.8667 0.9633 0.8662
C19 C 0.7601(2) 0.92053(13) 0.88156(16)
C20 C 0.5289(2) 0.93434(15) 0.77046(15)
H23 H 0.5173 0.8918 0.7601
H24 H 0.5096 0.9586 0.7327
H25 H 0.4972 0.9467 0.8001
C21 C 0.8062(2) 0.88970(17) 0.94165(19)
H26 H 0.7773 0.8999 0.9735
H27 H 0.8670 0.9031 0.9551
H28 H 0.8044 0.8461 0.9353
C22 C 0.6620(2) 0.70144(13) 0.99267(14)
H29 H 0.6413 0.6958 1.0295
H30 H 0.6734 0.7442 0.9879
H31 H 0.7157 0.6785 0.9974
C23 C 0.59326(17) 0.67960(11) 0.93584(12)
C24 C 0.53944(17) 0.71996(11) 0.89383(12)
C25 C 0.47611(17) 0.70017(11) 0.83713(12)
C26 C 0.4227(2) 0.74691(12) 0.79318(14)
H32 H 0.3920 0.7276 0.7540
H33 H 0.4614 0.7782 0.7853
H34 H 0.3803 0.7650 0.8120
C27 C 0.63666(17) 0.57331(11) 0.96560(12)
C28 C 0.61011(18) 0.55337(12) 1.01684(13)
C29 C 0.6548(2) 0.50440(13) 1.05158(14)
H35 H 0.6377 0.4903 1.0864
C30 C 0.7232(2) 0.47671(14) 1.03563(16)
H36 H 0.7525 0.4438 1.0594
C31 C 0.7487(2) 0.49687(14) 0.98547(16)
H37 H 0.7953 0.4773 0.9748
C32 C 0.70685(19) 0.54612(13) 0.94932(14)
C33 C 0.5348(2) 0.58239(15) 1.03474(16)
H38 H 0.5554 0.6184 1.0596
H39 H 0.5108 0.5539 1.0590
H40 H 0.4894 0.5936 0.9972
C34 C 0.7374(3) 0.56887(18) 0.89481(18)
H41 H 0.6903 0.5645 0.8564
H42 H 0.7879 0.5454 0.8918
H43 H 0.7537 0.6113 0.9013
C35 C 0.40725(18) 0.62038(11) 0.76734(13)
C36 C 0.4422(2) 0.60292(12) 0.71882(14)
C37 C 0.3854(3) 0.57877(14) 0.66441(15)
H44 H 0.4078 0.5671 0.6311
C38 C 0.2973(3) 0.57181(16) 0.65876(19)
H45 H 0.2598 0.5557 0.6218
C39 C 0.2643(2) 0.58840(16) 0.70704(19)
H46 H 0.2039 0.5835 0.7027
C40 C 0.3179(2) 0.61244(13) 0.76254(15)
C41 C 0.5390(2) 0.60993(16) 0.72561(16)
H47 H 0.5547 0.6526 0.7301
H48 H 0.5524 0.5938 0.6887
H49 H 0.5723 0.5879 0.7624
C42 C 0.2811(2) 0.62945(18) 0.81563(18)
H50 H 0.2745 0.6732 0.8166
H51 H 0.3208 0.6159 0.8549
H52 H 0.2242 0.6103 0.8097
N5 N 0.91748(14) 0.72212(10) 0.76313(11)
H3 H 0.9524 0.7522 0.7615
N6 N 0.96178(13) 0.80791(10) 0.69887(10)
N7 N 0.58466(14) 0.79845(10) 0.58921(10)
H4 H 0.5781 0.7787 0.5543
N8 N 0.64031(14) 0.71448(10) 0.52686(10)
C43 C 0.77253(19) 0.67589(13) 0.72884(14)
H53 H 0.7791 0.6703 0.7732
H54 H 0.7812 0.6374 0.7102
H55 H 0.7140 0.6910 0.7086
C44 C 0.83968(17) 0.72085(11) 0.72018(12)
C45 C 0.82038(16) 0.76050(11) 0.66819(11)
C46 C 0.88349(16) 0.80222(11) 0.65753(11)
C47 C 0.86196(19) 0.83733(14) 0.59702(13)
H56 H 0.9121 0.8620 0.5955
H57 H 0.8117 0.8633 0.5945
H58 H 0.8482 0.8093 0.5620
C48 C 0.94818(17) 0.67844(12) 0.81130(12)
C49 C 0.9888(2) 0.62575(13) 0.79744(13)
C50 C 1.0244(2) 0.58575(14) 0.84545(15)
H59 H 1.0522 0.5504 0.8368
C51 C 1.0204(3) 0.59617(15) 0.90529(16)
H60 H 1.0451 0.5681 0.9372
C52 C 0.9802(2) 0.64779(15) 0.91865(14)
H61 H 0.9767 0.6544 0.9597
C53 C 0.94442(18) 0.69068(13) 0.87200(13)
C54 C 0.9933(3) 0.61284(15) 0.73241(15)
H62 H 1.0316 0.5784 0.7330
H63 H 1.0163 0.6481 0.7161
H64 H 0.9349 0.6037 0.7059
C55 C 0.9036(2) 0.74847(16) 0.88711(17)
H65 H 0.9395 0.7828 0.8822
H66 H 0.9001 0.7469 0.9300
H67 H 0.8450 0.7529 0.8589
C56 C 1.02901(17) 0.84912(11) 0.69550(12)
C57 C 1.02089(19) 0.91121(13) 0.70431(13)
C58 C 1.0938(2) 0.94835(14) 0.70824(14)
H68 H 1.0890 0.9904 0.7135
C59 C 1.1721(2) 0.92474(17) 0.70452(15)
H69 H 1.2205 0.9504 0.7077
C60 C 1.1798(2) 0.86367(17) 0.69620(15)
H70 H 1.2338 0.8478 0.6935
C61 C 1.10939(19) 0.82457(13) 0.69163(13)
C62 C 0.9374(2) 0.93869(15) 0.71129(17)
H71 H 0.8977 0.9465 0.6702
H72 H 0.9506 0.9765 0.7344
H73 H 0.9098 0.9108 0.7339
C63 C 1.1190(2) 0.75727(16) 0.6838(2)
H74 H 1.1102 0.7362 0.7199
H75 H 1.1774 0.7486 0.6801
H76 H 1.0755 0.7437 0.6463
C64 C 0.68258(19) 0.83582(14) 0.68762(13)
H77 H 0.7150 0.8716 0.6816
H78 H 0.7170 0.8132 0.7236
H79 H 0.6273 0.8480 0.6948
C65 C 0.66478(16) 0.79661(11) 0.63028(11)
C66 C 0.73095(16) 0.75812(11) 0.62142(11)
C67 C 0.71704(16) 0.71650(11) 0.57037(11)
C68 C 0.78930(17) 0.67378(13) 0.56718(13)
H80 H 0.7918 0.6406 0.5963
H81 H 0.8450 0.6953 0.5782
H82 H 0.7779 0.6578 0.5250
C69 C 0.50956(16) 0.82930(12) 0.59671(11)
C70 C 0.50153(17) 0.89212(12) 0.59052(12)
C71 C 0.42312(19) 0.91886(13) 0.59445(13)
H83 H 0.4164 0.9611 0.5899
C72 C 0.35623(19) 0.88542(14) 0.60470(15)
H84 H 0.3046 0.9046 0.6079
C73 C 0.36452(18) 0.82321(14) 0.61033(14)
H85 H 0.3183 0.8001 0.6175
C74 C 0.44030(18) 0.79435(13) 0.60557(13)
C75 C 0.5732(2) 0.93088(14) 0.57840(15)
H86 H 0.6108 0.9456 0.6179
H87 H 0.5472 0.9651 0.5523
H88 H 0.6077 0.9070 0.5572
C76 C 0.4463(2) 0.72599(14) 0.6079(2)
H89 H 0.4400 0.7103 0.5661
H90 H 0.3998 0.7098 0.6239
H91 H 0.5029 0.7139 0.6353
C77 C 0.62126(16) 0.67201(13) 0.47648(12)
C78 C 0.58746(19) 0.61479(14) 0.48483(14)
C79 C 0.5624(2) 0.57610(16) 0.43364(18)
H92 H 0.5396 0.5377 0.4387
C80 C 0.5700(2) 0.5922(2) 0.37679(19)
H93 H 0.5523 0.5652 0.3429
C81 C 0.6038(2) 0.6484(2) 0.36825(15)
H94 H 0.6090 0.6592 0.3285
C82 C 0.63039(18) 0.68936(15) 0.41812(13)
C83 C 0.5795(3) 0.59550(16) 0.54793(18)
H95 H 0.5482 0.5572 0.5439
H96 H 0.5475 0.6262 0.5640
H97 H 0.6377 0.5907 0.5766
C84 C 0.6678(2) 0.75011(18) 0.40976(17)
H98 H 0.6336 0.7817 0.4224
H99 H 0.6658 0.7557 0.3661
H100 H 0.7283 0.7524 0.4354
loop_
_geom_bond_atom_site_label_1
_geom_bond_atom_site_label_2
_geom_bond_site_symmetry_1
_geom_bond_site_symmetry_2
N1 H1 1_555 1_555
N2 C4 1_555 1_555
N3 H2 1_555 1_555
N4 C25 1_555 1_555
N5 H3 1_555 1_555
N6 C46 1_555 1_555
N7 H4 1_555 1_555
N8 C67 1_555 1_555
C1 H5 1_555 1_555
H6 C1 1_555 1_555
H7 C1 1_555 1_555
C2 N1 1_555 1_555
C3 C2 1_555 1_555
C4 C3 1_555 1_555
C5 C4 1_555 1_555
H8 C5 1_555 1_555
H9 C5 1_555 1_555
H10 C5 1_555 1_555
C6 N1 1_555 1_555
C7 C6 1_555 1_555
C8 C7 1_555 1_555
H11 C8 1_555 1_555
C9 C8 1_555 1_555
H12 C9 1_555 1_555
C10 C9 1_555 1_555
H13 C10 1_555 1_555
C11 C6 1_555 1_555
C12 C7 1_555 1_555
H14 C12 1_555 1_555
H15 C12 1_555 1_555
H16 C12 1_555 1_555
C13 C11 1_555 1_555
H17 C13 1_555 1_555
H18 C13 1_555 1_555
H19 C13 1_555 1_555
C14 N2 1_555 1_555
C15 C14 1_555 1_555
C16 C15 1_555 1_555
H20 C16 1_555 1_555
C17 C16 1_555 1_555
H21 C17 1_555 1_555
C18 C17 1_555 1_555
H22 C18 1_555 1_555
C19 C14 1_555 1_555
C20 C15 1_555 1_555
H23 C20 1_555 1_555
H24 C20 1_555 1_555
H25 C20 1_555 1_555
C21 C19 1_555 1_555
H26 C21 1_555 1_555
H27 C21 1_555 1_555
H28 C21 1_555 1_555
C22 H29 1_555 1_555
H30 C22 1_555 1_555
H31 C22 1_555 1_555
C23 N3 1_555 1_555
C24 C3 1_555 1_555
C25 C24 1_555 1_555
C26 C25 1_555 1_555
H32 C26 1_555 1_555
H33 C26 1_555 1_555
H34 C26 1_555 1_555
C27 N3 1_555 1_555
C28 C27 1_555 1_555
C29 C28 1_555 1_555
H35 C29 1_555 1_555
C30 C29 1_555 1_555
H36 C30 1_555 1_555
C31 C30 1_555 1_555
H37 C31 1_555 1_555
C32 C27 1_555 1_555
C33 C28 1_555 1_555
H38 C33 1_555 1_555
H39 C33 1_555 1_555
H40 C33 1_555 1_555
C34 C32 1_555 1_555
H41 C34 1_555 1_555
H42 C34 1_555 1_555
H43 C34 1_555 1_555
C35 N4 1_555 1_555
C36 C35 1_555 1_555
C37 C36 1_555 1_555
H44 C37 1_555 1_555
C38 C37 1_555 1_555
H45 C38 1_555 1_555
C39 C38 1_555 1_555
H46 C39 1_555 1_555
C40 C35 1_555 1_555
C41 C36 1_555 1_555
H47 C41 1_555 1_555
H48 C41 1_555 1_555
H49 C41 1_555 1_555
C42 C40 1_555 1_555
H50 C42 1_555 1_555
H51 C42 1_555 1_555
H52 C42 1_555 1_555
C43 H53 1_555 1_555
H54 C43 1_555 1_555
H55 C43 1_555 1_555
C44 N5 1_555 1_555
C45 C44 1_555 1_555
C46 C45 1_555 1_555
C47 C46 1_555 1_555
H56 C47 1_555 1_555
H57 C47 1_555 1_555
H58 C47 1_555 1_555
C48 N5 1_555 1_555
C49 C48 1_555 1_555
C50 C49 1_555 1_555
H59 C50 1_555 1_555
C51 C50 1_555 1_555
H60 C51 1_555 1_555
C52 C51 1_555 1_555
H61 C52 1_555 1_555
C53 C48 1_555 1_555
C54 C49 1_555 1_555
H62 C54 1_555 1_555
H63 C54 1_555 1_555
H64 C54 1_555 1_555
C55 C53 1_555 1_555
H65 C55 1_555 1_555
H66 C55 1_555 1_555
H67 C55 1_555 1_555
C56 N6 1_555 1_555
C57 C56 1_555 1_555
C58 C57 1_555 1_555
H68 C58 1_555 1_555
C59 C58 1_555 1_555
H69 C59 1_555 1_555
C60 C59 1_555 1_555
H70 C60 1_555 1_555
C61 C56 1_555 1_555
C62 C57 1_555 1_555
H71 C62 1_555 1_555
H72 C62 1_555 1_555
H73 C62 1_555 1_555
C63 C61 1_555 1_555
H74 C63 1_555 1_555
H75 C63 1_555 1_555
H76 C63 1_555 1_555
C64 H77 1_555 1_555
H78 C64 1_555 1_555
H79 C64 1_555 1_555
C65 N7 1_555 1_555
C66 C45 1_555 1_555
C67 C66 1_555 1_555
C68 C67 1_555 1_555
H80 C68 1_555 1_555
H81 C68 1_555 1_555
H82 C68 1_555 1_555
C69 N7 1_555 1_555
C70 C69 1_555 1_555
C71 C70 1_555 1_555
H83 C71 1_555 1_555
C72 C71 1_555 1_555
H84 C72 1_555 1_555
C73 C72 1_555 1_555
H85 C73 1_555 1_555
C74 C69 1_555 1_555
C75 C70 1_555 1_555
H86 C75 1_555 1_555
H87 C75 1_555 1_555
H88 C75 1_555 1_555
C76 C74 1_555 1_555
H89 C76 1_555 1_555
H90 C76 1_555 1_555
H91 C76 1_555 1_555
C77 N8 1_555 1_555
C78 C77 1_555 1_555
C79 C78 1_555 1_555
H92 C79 1_555 1_555
C80 C79 1_555 1_555
H93 C80 1_555 1_555
C81 C80 1_555 1_555
H94 C81 1_555 1_555
C82 C77 1_555 1_555
C83 C78 1_555 1_555
H95 C83 1_555 1_555
H96 C83 1_555 1_555
H97 C83 1_555 1_555
C84 C82 1_555 1_555
H98 C84 1_555 1_555
H99 C84 1_555 1_555
H100 C84 1_555 1_555
C1 C2 1_555 1_555
C10 C11 1_555 1_555
C18 C19 1_555 1_555
C22 C23 1_555 1_555
C23 C24 1_555 1_555
C31 C32 1_555 1_555
C39 C40 1_555 1_555
C43 C44 1_555 1_555
C52 C53 1_555 1_555
C60 C61 1_555 1_555
C64 C65 1_555 1_555
C65 C66 1_555 1_555
C73 C74 1_555 1_555
C81 C82 1_555 1_555

#END
