
#######################################################################
#
#                 Cambridge Crystallographic Data Centre
#                                CCDC 
#
#######################################################################
#
# If this CIF has been generated from an entry in the Cambridge 
# Structural Database, then it will include bibliographic, chemical, 
# crystal, experimental, refinement or atomic coordinate data resulting 
# from the CCDC's data processing and validation procedures.
#
#######################################################################

data_LUXVIJ
_chemical_name_common            
"5,5':11,11':17,17':23,23'-tetrakis(Butane-1,4-dioxy)-bis(2,8,14,20-tetrakis(2-phenylethyl)-6,10:12,16:18,22:24,4-tetramethylenecalix(4)resorcinarene) benzocyclobutene-1,2-dione bis(nitrobenzene) clathrate"
_chemical_formula_moiety         'C144 H136 O24,C8 H4 O2,2(C6 H5 N1 O2)'
_chemical_name_systematic        
'57,58,59,60,61,62,63,64-octakis(2-Phenylethyl)-2,4,6,8,10,15,17,19,21,23,25,27,29,34,36,38,39,44,45,50,51,53,54,56-tetracosaoxa-1,5,20,24(1,3,2,6,4),9(1,2,3,6,4),16,35(1,2,6,3,5),28(1,2,3,4,6)-octabenzena-tridecacyclo(22.14.6.6^5,20^,3^9,35^.3^16,28^.1^1,5^.1^1,35^.1^5,9^.1^9,35^.1^16,20^.1^16,28^.1^20,24^.1^24,28^)tetrahexacontaphane benzocyclobutene-1,2-dione bis(nitrobenzene) clathrate'
_symmetry_cell_setting           monoclinic
_symmetry_space_group_name_H-M   'P 21/c'
_symmetry_Int_Tables_number      14
_space_group_name_Hall           '-P 2ybc'
loop_
_symmetry_equiv_pos_site_id
_symmetry_equiv_pos_as_xyz
1 x,y,z
2 x,1/2-y,1/2+z
3 -x,-y,-z
4 -x,1/2+y,1/2-z
_cell_length_a                   16.720(7)
_cell_length_b                   20.559(8)
_cell_length_c                   20.168(8)
_cell_angle_alpha                90
_cell_angle_beta                 98.524(12)
_cell_angle_gamma                90
_cell_volume                     6856.1
_exptl_crystal_colour            colorless
_exptl_crystal_description       parallelepiped
_cell_formula_units_Z            2
_exptl_crystal_recrystallization_method chloroform/nitromethane
loop_
_atom_site_label
_atom_site_type_symbol
_atom_site_fract_x
_atom_site_fract_y
_atom_site_fract_z
O3 O 0.2125(6) 0.2381(5) 0.0732(5)
C9 C 0.1301(8) 0.2366(7) 0.0824(7)
H5 H 0.1007 0.2691 0.0537
H6 H 0.1076 0.1944 0.0686
O4 O 0.1188(6) 0.2482(5) 0.1484(5)
C10 C 0.1905(4) 0.1190(4) 0.2702(4)
H7 H 0.2385 0.1031 0.2938
C11 C 0.1169(5) 0.0930(3) 0.2812(4)
C12 C 0.0451(4) 0.1167(4) 0.2459(5)
C13 C 0.0470(4) 0.1664(4) 0.1994(4)
C14 C 0.1206(6) 0.1924(4) 0.1883(4)
C15 C 0.1924(4) 0.1687(4) 0.2237(4)
O5 O -0.0219(6) 0.1826(5) 0.1554(5)
C16 C -0.0593(15) 0.2427(9) 0.1639(13)
H8 H -0.0212 0.2780 0.1621
H9 H -0.0785 0.2441 0.2070
C17 C -0.1290(12) 0.2493(11) 0.1081(11)
H10 H -0.1483 0.2939 0.1065
H11 H -0.1103 0.2400 0.0658
C18 C -0.1974(15) 0.2048(14) 0.1162(13)
H12 H -0.2287 0.2255 0.1470
H13 H -0.1741 0.1657 0.1382
C19 C -0.2558(12) 0.1834(13) 0.0566(10)
H14 H -0.2935 0.1519 0.0699
H15 H -0.2862 0.2204 0.0363
O6 O -0.2098(6) 0.1552(5) 0.0104(5)
C24 C 0.2694(8) 0.1950(7) 0.2071(6)
H24 H 0.2586 0.2403 0.1935
C25 C 0.3362(9) 0.1971(8) 0.2691(7)
H25 H 0.3135 0.2153 0.3066
H26 H 0.3532 0.1530 0.2809
C26 C 0.4032(12) 0.2331(10) 0.2596(10)
H27 H 0.3856 0.2702 0.2314
H28 H 0.4377 0.2066 0.2358
C27 C 0.4541(8) 0.2583(7) 0.3259(5)
C28 C 0.5234(9) 0.2237(5) 0.3510(7)
H29 H 0.5376 0.1868 0.3286
C29 C 0.5715(7) 0.2442(7) 0.4094(7)
H30 H 0.6179 0.2210 0.4262
C30 C 0.5502(8) 0.2992(7) 0.4428(5)
H31 H 0.5824 0.3129 0.4819
C31 C 0.4809(9) 0.3338(5) 0.4177(7)
H32 H 0.4667 0.3707 0.4400
C32 C 0.4328(7) 0.3134(7) 0.3592(7)
H33 H 0.3865 0.3365 0.3424
C33 C 0.1127(8) 0.0382(6) 0.3299(6)
H34 H 0.0608 0.0419 0.3467
C34 C 0.1807(8) 0.0399(6) 0.3922(6)
H35 H 0.1765 0.0014 0.4193
H36 H 0.2331 0.0391 0.3771
C35 C 0.1744(9) 0.1014(7) 0.4357(7)
H37 H 0.2233 0.1049 0.4680
H38 H 0.1717 0.1393 0.4069
C36 C 0.1037(7) 0.1024(6) 0.4724(6)
C37 C 0.1111(7) 0.0725(6) 0.5349(7)
H39 H 0.1602 0.0540 0.5534
C38 C 0.0453(10) 0.0702(6) 0.5695(5)
H40 H 0.0502 0.0502 0.6113
C39 C -0.0280(8) 0.0978(7) 0.5418(7)
H41 H -0.0720 0.0962 0.5650
C40 C -0.0354(6) 0.1276(6) 0.4794(7)
H42 H -0.0844 0.1461 0.4608
C41 C 0.0304(9) 0.1300(5) 0.4447(5)
H43 H 0.0255 0.1500 0.4029
O7 O -0.0299(6) 0.0951(5) 0.2559(5)
C42 C -0.0510(10) 0.0363(7) 0.2248(8)
H44 H -0.0226 0.0320 0.1864
H45 H -0.1085 0.0369 0.2081
O8 O -0.0341(6) -0.0180(5) 0.2656(5)
C43 C 0.1832(4) -0.0592(4) 0.2870(4)
H46 H 0.2323 -0.0429 0.3081
C44 C 0.1811(4) -0.1169(4) 0.2509(4)
C45 C 0.1077(6) -0.1413(3) 0.2194(4)
C46 C 0.0363(4) -0.1081(4) 0.2240(4)
C47 C 0.0384(4) -0.0504(4) 0.2602(4)
C48 C 0.1118(5) -0.0260(3) 0.2917(4)
O9 O -0.0352(6) -0.1257(4) 0.1859(5)
C49 C -0.0948(10) -0.1542(8) 0.2243(8)
H47 H -0.1032 -0.1253 0.2607
H48 H -0.0749 -0.1955 0.2435
C50 C -0.1758(8) -0.1649(7) 0.1775(7)
H49 H -0.2181 -0.1773 0.2031
H50 H -0.1922 -0.1256 0.1526
C51 C -0.1602(9) -0.2168(7) 0.1325(7)
H51 H -0.1588 -0.2585 0.1551
H52 H -0.1087 -0.2100 0.1168
C52 C -0.2332(10) -0.2146(8) 0.0708(9)
H53 H -0.2327 -0.2529 0.0428
H54 H -0.2850 -0.2118 0.0867
O10 O -0.2173(6) -0.1556(5) 0.0338(5)
O11 O 0.1012(6) -0.2004(5) 0.1856(5)
C53 C 0.1134(10) -0.1999(8) 0.1184(8)
H55 H 0.0789 -0.2325 0.0939
H56 H 0.0977 -0.1578 0.0990
O12 O 0.1927(6) -0.2122(5) 0.1112(5)
C54 C 0.2597(8) -0.1501(7) 0.2372(7)
H57 H 0.2466 -0.1964 0.2313
C55 C 0.3293(8) -0.1468(7) 0.2957(7)
H58 H 0.3102 -0.1599 0.3368
H59 H 0.3489 -0.1024 0.3012
C56 C 0.3985(9) -0.1919(8) 0.2820(8)
H60 H 0.3796 -0.2365 0.2809
H61 H 0.4125 -0.1818 0.2382
C57 C 0.4728(6) -0.1861(6) 0.3334(5)
C58 C 0.5268(8) -0.1364(5) 0.3250(5)
H62 H 0.5147 -0.1069 0.2900
C59 C 0.5989(7) -0.1309(5) 0.3688(7)
H63 H 0.6350 -0.0977 0.3632
C60 C 0.6170(6) -0.1750(7) 0.4211(6)
H64 H 0.6652 -0.1713 0.4505
C61 C 0.5630(8) -0.2246(5) 0.4296(5)
H65 H 0.5751 -0.2541 0.4646
C62 C 0.4909(7) -0.2302(5) 0.3858(6)
H66 H 0.4548 -0.2634 0.3914
C63 C -0.3312(5) 0.0744(4) -0.1667(3)
H67 H -0.3568 0.0554 -0.2060
C64 C -0.3445(5) 0.0505(3) -0.1048(4)
C65 C -0.3062(5) 0.0790(4) -0.0461(3)
C66 C -0.2545(5) 0.1315(4) -0.0493(3)
C67 C 0.2412(5) -0.1555(3) 0.1111(5)
C68 C 0.2795(5) -0.1269(4) 0.1699(3)
O13 O -0.3184(6) 0.0569(5) 0.0180(5)
C69 C -0.2786(9) -0.0005(7) 0.0414(7)
H68 H -0.2636 0.0024 0.0896
H69 H -0.2291 -0.0044 0.0218
O14 O -0.3248(6) -0.0558(5) 0.0262(5)
C70 C -0.3412(5) -0.1046(4) -0.1520(3)
H70 H -0.3660 -0.0912 -0.1941
C71 C -0.3525(4) -0.0693(3) -0.0953(4)
C72 C -0.3153(5) -0.0893(4) -0.0323(3)
C73 C -0.2669(5) -0.1446(4) -0.0261(3)
C74 C 0.2556(5) 0.1799(3) 0.0828(4)
C75 C 0.2928(5) 0.1599(4) 0.1457(3)
C76 C -0.4011(8) -0.0062(6) -0.0989(7)
H71 H -0.4210 -0.0014 -0.0558
C77 C -0.4759(8) -0.0059(6) -0.1540(6)
H72 H -0.4593 -0.0193 -0.1960
H73 H -0.4964 0.0382 -0.1597
C78 C -0.5426(9) -0.0494(7) -0.1393(7)
H74 H -0.5215 -0.0932 -0.1327
H75 H -0.5593 -0.0355 -0.0974
C79 C -0.6177(6) -0.0513(6) -0.1933(5)
C80 C -0.6593(8) 0.0058(5) -0.2120(6)
H76 H -0.6414 0.0451 -0.1923
C81 C -0.7279(7) 0.0044(5) -0.2603(6)
H77 H -0.7557 0.0426 -0.2729
C82 C -0.7547(6) -0.0543(7) -0.2899(5)
H78 H -0.8006 -0.0553 -0.3222
C83 C -0.7131(8) -0.1115(5) -0.2711(6)
H79 H -0.7311 -0.1507 -0.2909
C84 C -0.6446(7) -0.1100(5) -0.2228(6)
H80 H -0.6167 -0.1482 -0.2103
C70B C 0.3412(5) 0.1046(4) 0.1520(3)
H70B H 0.3660 0.0912 0.1941
C71B C 0.3525(4) 0.0693(3) 0.0953(4)
C72B C 0.3153(5) 0.0893(4) 0.0323(3)
O14B O 0.3248(6) 0.0558(5) -0.0262(5)
C69B C 0.2786(9) 0.0005(7) -0.0414(7)
O13B O 0.3184(6) -0.0569(5) -0.0180(5)
C65B C 0.3062(5) -0.0790(4) 0.0461(3)
C64B C 0.3445(5) -0.0505(3) 0.1048(4)
C63B C 0.3312(5) -0.0744(4) 0.1667(3)
H67B H 0.3568 -0.0554 0.2060
C66B C 0.2545(5) -0.1315(4) 0.0493(3)
O6B O 0.2098(6) -0.1552(5) -0.0104(5)
C19B C 0.2558(12) -0.1834(13) -0.0566(10)
C18B C 0.1974(15) -0.2048(14) -0.1162(13)
C17B C 0.1290(12) -0.2493(11) -0.1081(11)
C16B C 0.0593(15) -0.2427(9) -0.1639(13)
O5B O 0.0219(6) -0.1826(5) -0.1554(5)
C13B C -0.0470(4) -0.1664(4) -0.1994(4)
C12B C -0.0451(4) -0.1167(4) -0.2459(5)
C11B C -0.1169(5) -0.0930(3) -0.2812(4)
C10B C -0.1905(4) -0.1190(4) -0.2702(4)
H7B H -0.2385 -0.1031 -0.2938
C15B C -0.1924(4) -0.1687(4) -0.2237(4)
C14B C -0.1206(6) -0.1924(4) -0.1883(4)
O4B O -0.1188(6) -0.2482(5) -0.1484(5)
C9B C -0.1301(8) -0.2366(7) -0.0824(7)
O3B O -0.2125(6) -0.2381(5) -0.0732(5)
C74B C -0.2556(5) -0.1799(3) -0.0828(4)
C68B C -0.2795(5) 0.1269(4) -0.1699(3)
C54B C -0.2597(8) 0.1501(7) -0.2372(7)
C44B C -0.1811(4) 0.1169(4) -0.2509(4)
C43B C -0.1832(4) 0.0592(4) -0.2870(4)
H46B H -0.2323 0.0429 -0.3081
C48B C -0.1118(5) 0.0260(3) -0.2917(4)
C33B C -0.1127(8) -0.0382(6) -0.3299(6)
H34B H -0.0608 -0.0419 -0.3467
C34B C -0.1807(8) -0.0399(6) -0.3922(6)
H35B H -0.1765 -0.0014 -0.4193
H36B H -0.2331 -0.0391 -0.3771
C35B C -0.1744(9) -0.1014(7) -0.4357(7)
H37B H -0.2233 -0.1049 -0.4680
H38B H -0.1717 -0.1393 -0.4069
C36B C -0.1037(7) -0.1024(6) -0.4724(6)
C37B C -0.1111(7) -0.0725(6) -0.5349(7)
H39B H -0.1602 -0.0540 -0.5534
C38B C -0.0453(10) -0.0702(6) -0.5695(5)
H40B H -0.0502 -0.0502 -0.6113
C39B C 0.0280(8) -0.0978(7) -0.5418(7)
H41B H 0.0720 -0.0962 -0.5650
C40B C 0.0354(6) -0.1276(6) -0.4794(7)
H42B H 0.0844 -0.1461 -0.4608
C41B C -0.0304(9) -0.1300(5) -0.4447(5)
H43B H -0.0255 -0.1500 -0.4029
C47B C -0.0384(4) 0.0504(4) -0.2602(4)
O8B O 0.0341(6) 0.0180(5) -0.2656(5)
C42B C 0.0510(10) -0.0363(7) -0.2248(8)
O7B O 0.0299(6) -0.0951(5) -0.2559(5)
H44B H 0.0226 -0.0320 -0.1864
H45B H 0.1085 -0.0369 -0.2081
C46B C -0.0363(4) 0.1081(4) -0.2240(4)
C45B C -0.1077(6) 0.1413(3) -0.2194(4)
O11B O -0.1012(6) 0.2004(5) -0.1856(5)
C53B C -0.1134(10) 0.1999(8) -0.1184(8)
H55B H -0.0789 0.2325 -0.0939
H56B H -0.0977 0.1578 -0.0990
O12B O -0.1927(6) 0.2122(5) -0.1112(5)
C67B C -0.2412(5) 0.1555(3) -0.1111(5)
O9B O 0.0352(6) 0.1257(4) -0.1859(5)
C49B C 0.0948(10) 0.1542(8) -0.2243(8)
H47B H 0.1032 0.1253 -0.2607
H48B H 0.0749 0.1955 -0.2435
C50B C 0.1758(8) 0.1649(7) -0.1775(7)
H49B H 0.2181 0.1773 -0.2031
H50B H 0.1922 0.1256 -0.1526
C51B C 0.1602(9) 0.2168(7) -0.1325(7)
H51B H 0.1588 0.2585 -0.1551
H52B H 0.1087 0.2100 -0.1168
C52B C 0.2332(10) 0.2146(8) -0.0708(9)
H53B H 0.2327 0.2529 -0.0428
H54B H 0.2850 0.2118 -0.0867
O10B O 0.2173(6) 0.1556(5) -0.0338(5)
C73B C 0.2669(5) 0.1446(4) 0.0261(3)
H57B H -0.2466 0.1964 -0.2313
C55B C -0.3293(8) 0.1468(7) -0.2957(7)
H58B H -0.3102 0.1599 -0.3368
H59B H -0.3489 0.1024 -0.3012
C56B C -0.3985(9) 0.1919(8) -0.2820(8)
H60B H -0.3796 0.2365 -0.2809
H61B H -0.4125 0.1818 -0.2382
C57B C -0.4728(6) 0.1861(6) -0.3334(5)
C58B C -0.5268(8) 0.1364(5) -0.3250(5)
H62B H -0.5147 0.1069 -0.2900
C59B C -0.5989(7) 0.1309(5) -0.3688(7)
H63B H -0.6350 0.0977 -0.3632
C60B C -0.6170(6) 0.1750(7) -0.4211(6)
H64B H -0.6652 0.1713 -0.4505
C61B C -0.5630(8) 0.2246(5) -0.4296(5)
H65B H -0.5751 0.2541 -0.4646
C62B C -0.4909(7) 0.2302(5) -0.3858(6)
H66B H -0.4548 0.2634 -0.3914
C75B C -0.2928(5) -0.1599(4) -0.1457(3)
C24B C -0.2694(8) -0.1950(7) -0.2071(6)
H24B H -0.2586 -0.2403 -0.1935
C25B C -0.3362(9) -0.1971(8) -0.2691(7)
H25B H -0.3135 -0.2153 -0.3066
H26B H -0.3532 -0.1530 -0.2809
C26B C -0.4032(12) -0.2331(10) -0.2596(10)
H27B H -0.3856 -0.2702 -0.2314
H28B H -0.4377 -0.2066 -0.2358
C27B C -0.4541(8) -0.2583(7) -0.3259(5)
C28B C -0.5234(9) -0.2237(5) -0.3510(7)
H29B H -0.5376 -0.1868 -0.3286
C29B C -0.5715(7) -0.2442(7) -0.4094(7)
H30B H -0.6179 -0.2210 -0.4262
C30B C -0.5502(8) -0.2992(7) -0.4428(5)
H31B H -0.5824 -0.3129 -0.4819
C31B C -0.4809(9) -0.3338(5) -0.4177(7)
H32B H -0.4667 -0.3707 -0.4400
C32B C -0.4328(7) -0.3134(7) -0.3592(7)
H33B H -0.3865 -0.3365 -0.3424
H5B H -0.1007 -0.2691 -0.0537
H6B H -0.1076 -0.1944 -0.0686
H8B H 0.0212 -0.2780 -0.1621
H9B H 0.0785 -0.2441 -0.2070
H10B H 0.1483 -0.2939 -0.1065
H11B H 0.1103 -0.2400 -0.0658
H12B H 0.2287 -0.2255 -0.1470
H13B H 0.1741 -0.1657 -0.1382
H14B H 0.2935 -0.1519 -0.0699
H15B H 0.2862 -0.2204 -0.0363
C76B C 0.4011(8) 0.0062(6) 0.0989(7)
H71B H 0.4210 0.0014 0.0558
C77B C 0.4759(8) 0.0059(6) 0.1540(6)
H72B H 0.4593 0.0193 0.1960
H73B H 0.4964 -0.0382 0.1597
C78B C 0.5426(9) 0.0494(7) 0.1393(7)
H74B H 0.5215 0.0932 0.1327
H75B H 0.5593 0.0355 0.0974
C79B C 0.6177(6) 0.0513(6) 0.1933(5)
C80B C 0.6593(8) -0.0058(5) 0.2120(6)
H76B H 0.6414 -0.0451 0.1923
C81B C 0.7279(7) -0.0044(5) 0.2603(6)
H77B H 0.7557 -0.0426 0.2729
C82B C 0.7547(6) 0.0543(7) 0.2899(5)
H78B H 0.8006 0.0553 0.3222
C83B C 0.7131(8) 0.1115(5) 0.2711(6)
H79B H 0.7311 0.1507 0.2909
C84B C 0.6446(7) 0.1100(5) 0.2228(6)
H80B H 0.6167 0.1482 0.2103
H68B H 0.2636 -0.0024 -0.0896
H69B H 0.2291 0.0044 -0.0218
C85 C 0.5155(11) 0.0579(8) 0.4172(9)
C86 C 0.5884(14) 0.0408(10) 0.3989(11)
H81 H 0.5894 0.0232 0.3565
C87 C 0.6595(15) 0.0487(11) 0.4411(12)
H82 H 0.7082 0.0371 0.4273
C88 C 0.6588(16) 0.0731(12) 0.5015(13)
H83 H 0.7075 0.0801 0.5293
C89 C 0.5888(14) 0.0880(10) 0.5236(11)
H84 H 0.5903 0.1022 0.5676
C90 C 0.5131(12) 0.0828(9) 0.4819(9)
H85 H 0.4649 0.0950 0.4962
N1 N 0.4293(13) 0.0505(10) 0.3727(11)
O15 O 0.3812(12) 0.0725(9) 0.3962(9)
O16 O 0.4454(11) 0.0306(10) 0.3219(11)
O1 O -0.0029(16) -0.1664(11) 0.0135(13)
O2 O -0.1064(15) -0.0646(14) -0.0924(11)
C1 C 0.0037(13) -0.1099(11) -0.0020(10)
C2 C -0.0480(13) -0.0612(12) -0.0494(10)
C3 C 0.0130(13) -0.0116(12) -0.0237(11)
C4 C 0.0490(11) -0.0524(12) 0.0272(10)
C5 C 0.1021(13) -0.0268(15) 0.0804(13)
H1 H 0.1262 -0.0541 0.1144
C6 C -0.1192(15) -0.0394(15) -0.0827(16)
H2 H -0.1548 -0.0564 -0.1183
C7 C -0.0832(18) -0.0800(13) -0.0318(17)
H3 H -0.0947 -0.1243 -0.0334
C8 C -0.0301(18) -0.0545(12) 0.0214(15)
H4 H -0.0060 -0.0818 0.0554
C3B C -0.0130(13) 0.0116(12) 0.0237(11)
C2B C 0.0480(13) 0.0612(12) 0.0494(10)
O2B O 0.1064(15) 0.0646(14) 0.0924(11)
C6B C 0.1192(15) 0.0394(15) 0.0827(16)
C1B C -0.0037(13) 0.1099(11) 0.0020(10)
O1B O 0.0029(16) 0.1664(11) -0.0135(13)
C4B C -0.0490(11) 0.0524(12) -0.0272(10)
C5B C -0.1021(13) 0.0268(15) -0.0804(13)
H2B H 0.1548 0.0564 0.1183
C7B C 0.0832(18) 0.0800(13) 0.0318(17)
C8B C 0.0301(18) 0.0545(12) -0.0214(15)
H3B H 0.0947 0.1243 0.0334
H4B H 0.0060 0.0818 -0.0554
H1B H -0.1262 0.0541 -0.1144
C20? C -0.0853(13) 0.2042(17) 0.1888(14)
H16? H -0.0717 0.2468 0.2080
H17? H -0.0909 0.1746 0.2253
C21? C -0.1646(18) 0.2084(15) 0.1428(13)
H18? H -0.1832 0.1644 0.1320
H19? H -0.2037 0.2287 0.1672
C22? C -0.1645(18) 0.2446(14) 0.0788(12)
H20? H -0.1123 0.2395 0.0637
H21? H -0.1729 0.2905 0.0861
C23? C -0.2298(17) 0.2197(8) 0.0258(15)
H22? H -0.2816 0.2206 0.0420
H23? H -0.2336 0.2467 -0.0140
loop_
_geom_bond_atom_site_label_1
_geom_bond_atom_site_label_2
_geom_bond_site_symmetry_1
_geom_bond_site_symmetry_2
O1 C1 1_555 1_555
O2 C2 1_555 1_555
C1 C2 1_555 1_555
C2 C3 1_555 1_555
C3 C4 1_555 1_555
C4 C1 1_555 1_555
C5 C4 1_555 1_555
H1 C5 1_555 1_555
C6 O2 1_555 1_555
H2 O2 1_555 1_555
C7 O2 1_555 1_555
H3 C7 1_555 1_555
C8 C1 1_555 1_555
H4 C4 1_555 1_555
O3 C9 1_555 1_555
C9 H5 1_555 1_555
H6 C9 1_555 1_555
O4 C9 1_555 1_555
C10 H7 1_555 1_555
C11 C10 1_555 1_555
C12 C11 1_555 1_555
C13 C12 1_555 1_555
C14 O4 1_555 1_555
C15 C10 1_555 1_555
O5 C13 1_555 1_555
C16 O5 1_555 1_555
H8 C16 1_555 1_555
H9 C16 1_555 1_555
C17 C16 1_555 1_555
H10 C17 1_555 1_555
H11 C17 1_555 1_555
C18 C17 1_555 1_555
H12 C18 1_555 1_555
H13 C18 1_555 1_555
C19 C18 1_555 1_555
H14 C19 1_555 1_555
H15 C19 1_555 1_555
O6 C19 1_555 1_555
C24 C15 1_555 1_555
H24 C24 1_555 1_555
C25 C24 1_555 1_555
H25 C25 1_555 1_555
H26 C25 1_555 1_555
C26 C25 1_555 1_555
H27 C26 1_555 1_555
H28 C26 1_555 1_555
C27 C26 1_555 1_555
C28 C27 1_555 1_555
H29 C28 1_555 1_555
C29 C28 1_555 1_555
H30 C29 1_555 1_555
C30 C29 1_555 1_555
H31 C30 1_555 1_555
C31 C30 1_555 1_555
H32 C31 1_555 1_555
C32 C27 1_555 1_555
H33 C32 1_555 1_555
C33 C11 1_555 1_555
H34 C33 1_555 1_555
C34 C33 1_555 1_555
H35 C34 1_555 1_555
H36 C34 1_555 1_555
C35 C34 1_555 1_555
H37 C35 1_555 1_555
H38 C35 1_555 1_555
C36 C35 1_555 1_555
C37 C36 1_555 1_555
H39 C37 1_555 1_555
C38 C37 1_555 1_555
H40 C38 1_555 1_555
C39 C38 1_555 1_555
H41 C39 1_555 1_555
C40 C39 1_555 1_555
H42 C40 1_555 1_555
C41 C36 1_555 1_555
H43 C41 1_555 1_555
O7 C12 1_555 1_555
C42 O7 1_555 1_555
H44 C42 1_555 1_555
H45 C42 1_555 1_555
O8 C42 1_555 1_555
C43 H46 1_555 1_555
C44 C43 1_555 1_555
C45 C44 1_555 1_555
C46 C45 1_555 1_555
C47 O8 1_555 1_555
C48 C33 1_555 1_555
O9 C46 1_555 1_555
C49 O9 1_555 1_555
H47 C49 1_555 1_555
H48 C49 1_555 1_555
C50 C49 1_555 1_555
H49 C50 1_555 1_555
H50 C50 1_555 1_555
C51 C50 1_555 1_555
H51 C51 1_555 1_555
H52 C51 1_555 1_555
C52 C51 1_555 1_555
H53 C52 1_555 1_555
H54 C52 1_555 1_555
O10 C52 1_555 1_555
O11 C45 1_555 1_555
C53 O11 1_555 1_555
H55 C53 1_555 1_555
H56 C53 1_555 1_555
O12 C53 1_555 1_555
C54 C44 1_555 1_555
H57 C54 1_555 1_555
C55 C54 1_555 1_555
H58 C55 1_555 1_555
H59 C55 1_555 1_555
C56 C55 1_555 1_555
H60 C56 1_555 1_555
H61 C56 1_555 1_555
C57 C56 1_555 1_555
C58 C57 1_555 1_555
H62 C58 1_555 1_555
C59 C58 1_555 1_555
H63 C59 1_555 1_555
C60 C59 1_555 1_555
H64 C60 1_555 1_555
C61 C60 1_555 1_555
H65 C61 1_555 1_555
C62 C57 1_555 1_555
H66 C62 1_555 1_555
C63 H67 1_555 1_555
C64 C63 1_555 1_555
C65 C64 1_555 1_555
C66 O6 1_555 1_555
C67 O12 1_555 1_555
C68 C54 1_555 1_555
O13 C65 1_555 1_555
C69 O13 1_555 1_555
H68 C69 1_555 1_555
H69 C69 1_555 1_555
O14 C69 1_555 1_555
C70 H70 1_555 1_555
C71 C70 1_555 1_555
C72 O14 1_555 1_555
C73 O10 1_555 1_555
C74 O3 1_555 1_555
C75 C24 1_555 1_555
C76 C64 1_555 1_555
H71 C76 1_555 1_555
C77 C76 1_555 1_555
H72 C77 1_555 1_555
H73 C77 1_555 1_555
C78 C77 1_555 1_555
H74 C78 1_555 1_555
H75 C78 1_555 1_555
C79 C78 1_555 1_555
C80 C79 1_555 1_555
H76 C80 1_555 1_555
C81 C80 1_555 1_555
H77 C81 1_555 1_555
C82 C81 1_555 1_555
H78 C82 1_555 1_555
C83 C82 1_555 1_555
H79 C83 1_555 1_555
C84 C79 1_555 1_555
H80 C84 1_555 1_555
C85 C86 1_555 1_555
C86 H81 1_555 1_555
C87 C86 1_555 1_555
H82 C87 1_555 1_555
C88 C87 1_555 1_555
H83 C88 1_555 1_555
C89 C88 1_555 1_555
H84 C89 1_555 1_555
C90 C85 1_555 1_555
H85 C90 1_555 1_555
N1 C85 1_555 1_555
O15 N1 1_555 1_555
O16 N1 1_555 1_555
C3B C3 1_555 1_555
C2B C3B 1_555 1_555
O2B C2B 1_555 1_555
C6B C5 1_555 1_555
C1B C2B 1_555 1_555
O1B C1B 1_555 1_555
C4B C3 1_555 1_555
C5B C6 1_555 1_555
H2B O2B 1_555 1_555
C7B C2B 1_555 1_555
C8B C3 1_555 1_555
H3B C7B 1_555 1_555
H4B C4B 1_555 1_555
H1B C5B 1_555 1_555
C70B C75 1_555 1_555
H70B C70B 1_555 1_555
C71B C70B 1_555 1_555
C72B C71B 1_555 1_555
O14B C72B 1_555 1_555
C69B O14B 1_555 1_555
O13B C69B 1_555 1_555
C65B O13B 1_555 1_555
C64B C65B 1_555 1_555
C63B C68 1_555 1_555
H67B C63B 1_555 1_555
C66B C67 1_555 1_555
O6B C66B 1_555 1_555
C19B O6B 1_555 1_555
C18B C19B 1_555 1_555
C17B C18B 1_555 1_555
C16B C17B 1_555 1_555
O5B C16B 1_555 1_555
C13B O5B 1_555 1_555
C12B C13B 1_555 1_555
C11B C12B 1_555 1_555
C10B C11B 1_555 1_555
H7B C10B 1_555 1_555
C15B C10B 1_555 1_555
C14B C13B 1_555 1_555
O4B C14B 1_555 1_555
C9B O4B 1_555 1_555
O3B C9B 1_555 1_555
C74B C73 1_555 1_555
C68B C63 1_555 1_555
C54B C68B 1_555 1_555
C44B C54B 1_555 1_555
C43B C44B 1_555 1_555
H46B C43B 1_555 1_555
C48B C43B 1_555 1_555
C33B C11B 1_555 1_555
H34B C33B 1_555 1_555
C34B C33B 1_555 1_555
H35B C34B 1_555 1_555
H36B C34B 1_555 1_555
C35B C34B 1_555 1_555
H37B C35B 1_555 1_555
H38B C35B 1_555 1_555
C36B C35B 1_555 1_555
C37B C36B 1_555 1_555
H39B C37B 1_555 1_555
C38B C37B 1_555 1_555
H40B C38B 1_555 1_555
C39B C38B 1_555 1_555
H41B C39B 1_555 1_555
C40B C39B 1_555 1_555
H42B C40B 1_555 1_555
C41B C36B 1_555 1_555
H43B C41B 1_555 1_555
C47B C48B 1_555 1_555
O8B C47B 1_555 1_555
C42B O8B 1_555 1_555
O7B C12B 1_555 1_555
H44B C42B 1_555 1_555
H45B C42B 1_555 1_555
C46B C47B 1_555 1_555
C45B C44B 1_555 1_555
O11B C45B 1_555 1_555
C53B O11B 1_555 1_555
H55B C53B 1_555 1_555
H56B C53B 1_555 1_555
O12B C53B 1_555 1_555
C67B C66 1_555 1_555
O9B C46B 1_555 1_555
C49B O9B 1_555 1_555
H47B C49B 1_555 1_555
H48B C49B 1_555 1_555
C50B C49B 1_555 1_555
H49B C50B 1_555 1_555
H50B C50B 1_555 1_555
C51B C50B 1_555 1_555
H51B C51B 1_555 1_555
H52B C51B 1_555 1_555
C52B C51B 1_555 1_555
H53B C52B 1_555 1_555
H54B C52B 1_555 1_555
O10B C52B 1_555 1_555
C73B C74 1_555 1_555
H57B C54B 1_555 1_555
C55B C54B 1_555 1_555
H58B C55B 1_555 1_555
H59B C55B 1_555 1_555
C56B C55B 1_555 1_555
H60B C56B 1_555 1_555
H61B C56B 1_555 1_555
C57B C56B 1_555 1_555
C58B C57B 1_555 1_555
H62B C58B 1_555 1_555
C59B C58B 1_555 1_555
H63B C59B 1_555 1_555
C60B C59B 1_555 1_555
H64B C60B 1_555 1_555
C61B C60B 1_555 1_555
H65B C61B 1_555 1_555
C62B C57B 1_555 1_555
H66B C62B 1_555 1_555
C75B C70 1_555 1_555
C24B C15B 1_555 1_555
H24B C24B 1_555 1_555
C25B C24B 1_555 1_555
H25B C25B 1_555 1_555
H26B C25B 1_555 1_555
C26B C25B 1_555 1_555
H27B C26B 1_555 1_555
H28B C26B 1_555 1_555
C27B C26B 1_555 1_555
C28B C27B 1_555 1_555
H29B C28B 1_555 1_555
C29B C28B 1_555 1_555
H30B C29B 1_555 1_555
C30B C29B 1_555 1_555
H31B C30B 1_555 1_555
C31B C30B 1_555 1_555
H32B C31B 1_555 1_555
C32B C27B 1_555 1_555
H33B C32B 1_555 1_555
H5B C9B 1_555 1_555
H6B C9B 1_555 1_555
H8B C16B 1_555 1_555
H9B C16B 1_555 1_555
H10B C17B 1_555 1_555
H11B C17B 1_555 1_555
H12B C18B 1_555 1_555
H13B C18B 1_555 1_555
H14B C19B 1_555 1_555
H15B C19B 1_555 1_555
C76B C71B 1_555 1_555
H71B C76B 1_555 1_555
C77B C76B 1_555 1_555
H72B C77B 1_555 1_555
H73B C77B 1_555 1_555
C78B C77B 1_555 1_555
H74B C78B 1_555 1_555
H75B C78B 1_555 1_555
C79B C78B 1_555 1_555
C80B C79B 1_555 1_555
H76B C80B 1_555 1_555
C81B C80B 1_555 1_555
H77B C81B 1_555 1_555
C82B C81B 1_555 1_555
H78B C82B 1_555 1_555
C83B C82B 1_555 1_555
H79B C83B 1_555 1_555
C84B C79B 1_555 1_555
H80B C84B 1_555 1_555
H68B C69B 1_555 1_555
H69B C69B 1_555 1_555
C1 C7 1_555 1_555
C2 C6 1_555 1_555
C2 C8 1_555 1_555
C2 C7 1_555 1_555
C3 C8 1_555 1_555
C4 C3B 1_555 1_555
C4 C8 1_555 1_555
C6 H2 1_555 1_555
C6 C7 1_555 1_555
C7 C8 1_555 1_555
C8 C3B 1_555 1_555
C8 H4 1_555 1_555
C13 C14 1_555 1_555
C14 C15 1_555 1_555
C31 C32 1_555 1_555
C40 C41 1_555 1_555
C43 C48 1_555 1_555
C46 C47 1_555 1_555
C47 C48 1_555 1_555
C61 C62 1_555 1_555
C65 C66 1_555 1_555
C67 C68 1_555 1_555
C71 C76 1_555 1_555
C71 C72 1_555 1_555
C72 C73 1_555 1_555
C74 C75 1_555 1_555
C83 C84 1_555 1_555
C89 C90 1_555 1_555
C3B C4B 1_555 1_555
C3B C8B 1_555 1_555
C2B C6B 1_555 1_555
C2B C8B 1_555 1_555
O2B C6B 1_555 1_555
O2B C7B 1_555 1_555
C6B H2B 1_555 1_555
C6B C7B 1_555 1_555
C1B C4B 1_555 1_555
C1B C8B 1_555 1_555
C1B C7B 1_555 1_555
C4B C5B 1_555 1_555
C4B C8B 1_555 1_555
C7B C8B 1_555 1_555
C8B H4B 1_555 1_555
C72B C73B 1_555 1_555
C65B C66B 1_555 1_555
C64B C63B 1_555 1_555
C64B C76B 1_555 1_555
C15B C14B 1_555 1_555
O3B C74B 1_555 1_555
C74B C75B 1_555 1_555
C68B C67B 1_555 1_555
C48B C33B 1_555 1_555
C40B C41B 1_555 1_555
C42B O7B 1_555 1_555
C46B C45B 1_555 1_555
O12B C67B 1_555 1_555
O10B C73B 1_555 1_555
C61B C62B 1_555 1_555
C75B C24B 1_555 1_555
C31B C32B 1_555 1_555
C83B C84B 1_555 1_555

#END
