
#######################################################################
#
#                 Cambridge Crystallographic Data Centre
#                                CCDC 
#
#######################################################################
#
# If this CIF has been generated from an entry in the Cambridge 
# Structural Database, then it will include bibliographic, chemical, 
# crystal, experimental, refinement or atomic coordinate data resulting 
# from the CCDC's data processing and validation procedures.
#
#######################################################################

data_LUXVEF
_chemical_name_common            
"5,5':11,11':17,17':23,23'-tetrakis(Butane-1,4-dioxy)-bis(2,8,14,20-tetrakis(2-phenylethyl)-6,10:12,16:18,22:24,4-O,O'-tetramethylenecalix(4)resorcinarene) benzocyclobuten-1-one bis(nitrobenzene) clathrate"
_chemical_formula_moiety         'C144 H136 O24,C8 H6 O1,2(C6 H5 N1 O2)'
_chemical_name_systematic        
'57,58,59,60,61,62,63,64-octakis(2-Phenylethyl)-2,4,6,8,10,15,17,19,21,23,25,27,29,34,36,38,39,44,45,50,51,53,54,56-tetracosaoxa-1,5,20,24(1,3,2,6,4),9(1,2,3,6,4),16,35(1,2,6,3,5),28(1,2,3,4,6)-octabenzena-tridecacyclo(22.14.6.6^5,20^,3^9,35^.3^16,28^.1^1,5^.1^1,35^.1^5,9^.1^9,35^.1^16,20^.1^16,28^.1^20,24^.1^24,28^)tetrahexacontaphane benzocyclobuten-1-one bis(nitrobenzene) clathrate'
_symmetry_cell_setting           monoclinic
_symmetry_space_group_name_H-M   'P 21/c'
_symmetry_Int_Tables_number      14
_space_group_name_Hall           '-P 2ybc'
loop_
_symmetry_equiv_pos_site_id
_symmetry_equiv_pos_as_xyz
1 x,y,z
2 x,1/2-y,1/2+z
3 -x,-y,-z
4 -x,1/2+y,1/2-z
_cell_length_a                   16.650(11)
_cell_length_b                   20.442(14)
_cell_length_c                   20.043(13)
_cell_angle_alpha                90
_cell_angle_beta                 98.998(16)
_cell_angle_gamma                90
_cell_volume                     6737.87
_exptl_crystal_colour            colorless
_exptl_crystal_description       parallelepiped
_cell_formula_units_Z            2
_exptl_crystal_recrystallization_method chloroform/nitromethane
loop_
_atom_site_label
_atom_site_type_symbol
_atom_site_fract_x
_atom_site_fract_y
_atom_site_fract_z
O13 O 0.3761(13) 0.0745(10) 0.3985(10)
O14 O 0.4369(13) 0.0303(11) 0.3248(13)
N1 N 0.4276(15) 0.0517(12) 0.3768(14)
C77 C 0.5138(7) 0.0576(6) 0.4195(7)
C78 C 0.5130(7) 0.0841(6) 0.4832(7)
H77 H 0.4640 0.0963 0.4963
C79 C 0.5854(10) 0.0923(6) 0.5274(6)
H78 H 0.5849 0.1100 0.5700
C80 C 0.6587(7) 0.0739(7) 0.5078(8)
H79 H 0.7071 0.0794 0.5373
C81 C 0.6595(7) 0.0474(7) 0.4440(8)
H80 H 0.7085 0.0351 0.4309
C82 C 0.5870(10) 0.0392(6) 0.3999(6)
H81 H 0.5875 0.0215 0.3572
C83 C 0.0017(14) -0.0053(11) -0.0226(13)
C84 C 0.0187(16) -0.0342(12) 0.0399(13)
C85 C 0.0842(18) -0.0131(16) 0.0856(15)
H82 H 0.0976 -0.0310 0.1285
C86 C 0.1289(15) 0.0374(16) 0.0620(18)
H83 H 0.1742 0.0532 0.0905
C87 C 0.1090(16) 0.0655(15) -0.0020(18)
H84 H 0.1424 0.0982 -0.0146
C88 C 0.0407(16) 0.0462(14) -0.0482(15)
H85 H 0.0242 0.0655 -0.0901
C89 C -0.0685(14) -0.0499(11) -0.0428(13)
C90 C -0.0538(18) -0.0798(12) 0.0293(15)
H86 H 0.0956 0.0697 -0.0565
H87 H -0.0402 -0.1259 0.0310
O15 O 0.1192(16) 0.0540(14) 0.0922(14)
C83B C -0.0017(14) 0.0053(11) 0.0226(13)
C84B C -0.0187(16) 0.0342(12) -0.0399(13)
C88B C -0.0407(16) -0.0462(14) 0.0482(15)
C89B C 0.0685(14) 0.0499(11) 0.0428(13)
C85B C -0.0842(18) 0.0131(16) -0.0856(15)
C90B C 0.0538(18) 0.0798(12) -0.0293(15)
H87B H 0.0402 0.1259 -0.0310
H82B H -0.0976 0.0310 -0.1285
C86B C -0.1289(15) -0.0374(16) -0.0620(18)
H83B H -0.1742 -0.0532 -0.0905
O15B O -0.1192(16) -0.0540(14) -0.0922(14)
C87B C -0.1090(16) -0.0655(15) 0.0020(18)
H84B H -0.1424 -0.0982 0.0146
H85B H -0.0242 -0.0655 0.0901
H86B H -0.0956 -0.0697 0.0565
O1 O 0.2107(6) 0.2358(5) 0.0699(5)
C1 C 0.1278(9) 0.2303(8) 0.0777(8)
H1 H 0.0961 0.2608 0.0471
H2 H 0.1090 0.1865 0.0649
O2 O 0.1139(6) 0.2428(5) 0.1434(6)
C2 C 0.1163(9) 0.1885(7) 0.1867(7)
C3 C 0.1894(8) 0.1654(7) 0.2209(7)
C4 C 0.1859(8) 0.1179(6) 0.2668(7)
H3 H 0.2346 0.1024 0.2907
C5 C 0.1134(8) 0.0903(6) 0.2808(6)
C6 C 0.0417(9) 0.1142(7) 0.2427(7)
C7 C 0.0466(9) 0.1638(7) 0.1956(7)
O3 O -0.0259(6) 0.1804(5) 0.1523(5)
C8 C -0.0787(13) 0.2226(13) 0.1843(10)
H4 H -0.0465 0.2535 0.2141
H5 H -0.1110 0.1968 0.2109
C9 C -0.1348(12) 0.2596(9) 0.1278(16)
H6 H -0.1452 0.3035 0.1428
H7 H -0.1086 0.2630 0.0879
C10 C -0.2145(13) 0.2222(15) 0.1109(11)
H8 H -0.2571 0.2447 0.1296
H9 H -0.2085 0.1787 0.1303
C11 C -0.2373(19) 0.2175(10) 0.0332(12)
H10 H -0.2955 0.2225 0.0200
H11 H -0.2101 0.2516 0.0116
O4 O -0.2115(6) 0.1534(5) 0.0132(5)
C16 C 0.2685(6) 0.1960(5) 0.2038(5)
H20 H 0.2574 0.2414 0.1899
C17 C 0.3333(6) 0.1956(5) 0.2702(5)
H21 H 0.3109 0.2154 0.3073
H22 H 0.3497 0.1511 0.2827
C18 C 0.4046(11) 0.2345(10) 0.2543(9)
H23 H 0.3856 0.2724 0.2272
H24 H 0.4374 0.2079 0.2289
C19 C 0.4569(8) 0.2570(7) 0.3228(5)
C20 C 0.4361(7) 0.3130(6) 0.3557(7)
H25 H 0.3905 0.3370 0.3376
C21 C 0.4835(9) 0.3329(6) 0.4155(7)
H26 H 0.4696 0.3704 0.4375
C22 C 0.5517(8) 0.2969(7) 0.4425(5)
H27 H 0.5835 0.3103 0.4825
C23 C 0.5725(7) 0.2410(7) 0.4097(7)
H28 H 0.6182 0.2169 0.4278
C24 C 0.5251(9) 0.2210(5) 0.3499(7)
H29 H 0.5390 0.1836 0.3279
C25 C 0.1110(8) 0.0371(6) 0.3300(7)
H30 H 0.0585 0.0412 0.3459
C26 C 0.1757(8) 0.0407(7) 0.3934(7)
H31 H 0.1699 0.0026 0.4210
H32 H 0.2289 0.0384 0.3795
C27 C 0.1729(8) 0.1006(7) 0.4363(8)
H33 H 0.2213 0.1016 0.4702
H34 H 0.1738 0.1391 0.4081
C28 C 0.1001(6) 0.1038(6) 0.4706(6)
C29 C 0.0269(8) 0.1313(5) 0.4407(5)
H35 H 0.0227 0.1505 0.3982
C30 C -0.0401(6) 0.1300(6) 0.4743(7)
H36 H -0.0891 0.1484 0.4543
C31 C -0.0339(8) 0.1013(7) 0.5377(7)
H37 H -0.0787 0.1004 0.5602
C32 C 0.0393(10) 0.0738(6) 0.5676(5)
H38 H 0.0435 0.0546 0.6101
C33 C 0.1063(7) 0.0751(6) 0.5340(7)
H39 H 0.1553 0.0567 0.5540
O5 O -0.0331(6) 0.0943(5) 0.2539(5)
C34 C -0.0577(9) 0.0361(7) 0.2235(8)
H40 H -0.0330 0.0314 0.1831
H41 H -0.1162 0.0374 0.2098
O6 O -0.0378(6) -0.0198(5) 0.2651(5)
C35 C 0.0334(8) -0.0535(7) 0.2591(7)
C36 C 0.1084(8) -0.0271(6) 0.2934(7)
C37 C 0.1789(8) -0.0613(6) 0.2841(6)
H42 H 0.2288 -0.0441 0.3035
C38 C 0.1794(8) -0.1192(7) 0.2477(7)
C39 C 0.0991(9) -0.1409(7) 0.2165(8)
C40 C 0.0322(8) -0.1062(6) 0.2241(7)
O7 O -0.0410(6) -0.1274(5) 0.1859(5)
C41 C -0.0977(10) -0.1590(9) 0.2278(9)
H43 H -0.1040 -0.1316 0.2661
H44 H -0.0766 -0.2012 0.2445
C42 C -0.1805(9) -0.1675(8) 0.1807(8)
H45 H -0.2229 -0.1802 0.2063
H46 H -0.1965 -0.1274 0.1564
C43 C -0.1653(9) -0.2181(8) 0.1357(7)
H47 H -0.1636 -0.2602 0.1581
H48 H -0.1136 -0.2109 0.1203
C44 C -0.2377(11) -0.2164(9) 0.0732(9)
H49 H -0.2348 -0.2535 0.0435
H50 H -0.2902 -0.2164 0.0885
O8 O -0.2236(6) -0.1540(5) 0.0388(5)
O9 O 0.0951(6) -0.1996(5) 0.1794(6)
C45 C 0.1094(9) -0.1963(8) 0.1147(8)
H51 H 0.0960 -0.1526 0.0975
H52 H 0.0734 -0.2267 0.0875
O10 O 0.1892(6) -0.2103(5) 0.1071(5)
C46 C 0.2533(8) -0.1545(7) 0.2351(7)
H53 H 0.2392 -0.2009 0.2288
C47 C 0.3245(8) -0.1493(7) 0.2944(7)
H54 H 0.3447 -0.1047 0.2980
H55 H 0.3057 -0.1605 0.3364
C48 C 0.3919(9) -0.1950(8) 0.2828(8)
H56 H 0.4052 -0.1871 0.2380
H57 H 0.3727 -0.2397 0.2841
C49 C 0.4676(6) -0.1872(6) 0.3341(6)
C50 C 0.5228(8) -0.1379(5) 0.3258(5)
H58 H 0.5102 -0.1072 0.2916
C51 C 0.5968(7) -0.1346(5) 0.3688(7)
H59 H 0.6337 -0.1016 0.3633
C52 C 0.6156(6) -0.1805(7) 0.4200(6)
H60 H 0.6651 -0.1783 0.4488
C53 C 0.5604(8) -0.2298(6) 0.4282(5)
H61 H 0.5730 -0.2605 0.4625
C54 C 0.4865(7) -0.2331(5) 0.3853(6)
H62 H 0.4496 -0.2661 0.3908
C55 C 0.2417(9) -0.1565(8) 0.1064(8)
C56 C 0.2779(7) -0.1288(6) 0.1677(7)
C57 C 0.3285(7) -0.0774(6) 0.1636(7)
H63 H 0.3516 -0.0577 0.2039
C58 C 0.3490(8) -0.0516(6) 0.1034(7)
C59 C 0.3070(8) -0.0805(7) 0.0454(7)
C60 C -0.2565(8) 0.1290(7) -0.0470(7)
O11 O 0.3237(6) -0.0577(5) -0.0186(5)
C61 C 0.2866(9) 0.0012(8) -0.0426(8)
H64 H 0.2722 -0.0016 -0.0913
H65 H 0.2366 0.0064 -0.0239
O12 O 0.3333(6) 0.0547(5) -0.0271(5)
C62 C 0.3183(9) 0.0911(7) 0.0307(8)
C63 C -0.2707(8) -0.1426(7) -0.0258(7)
C64 C 0.2548(8) 0.1784(7) 0.0782(7)
C65 C 0.2914(8) 0.1580(7) 0.1440(7)
C66 C 0.3402(7) 0.1021(6) 0.1491(7)
H66 H 0.3627 0.0878 0.1920
C67 C 0.3568(7) 0.0673(6) 0.0952(6)
C68 C 0.4060(8) 0.0056(6) 0.1010(7)
H67 H 0.4290 0.0014 0.0591
C69 C 0.4775(8) 0.0036(7) 0.1595(7)
H68 H 0.4590 0.0169 0.2010
H69 H 0.4982 -0.0407 0.1654
C70 C 0.5448(9) 0.0491(8) 0.1448(8)
H70 H 0.5238 0.0933 0.1401
H71 H 0.5609 0.0366 0.1022
C71 C 0.6197(5) 0.0482(6) 0.1996(5)
C72 C 0.6614(7) -0.0094(5) 0.2186(5)
H72 H 0.6430 -0.0489 0.1987
C73 C 0.7307(6) -0.0081(5) 0.2673(6)
H73 H 0.7585 -0.0467 0.2800
C74 C 0.7582(6) 0.0508(6) 0.2971(5)
H74 H 0.8046 0.0517 0.3297
C75 C 0.7165(7) 0.1084(5) 0.2781(6)
H75 H 0.7350 0.1479 0.2980
C76 C 0.6473(7) 0.1071(5) 0.2294(6)
H76 H 0.6194 0.1457 0.2167
C55B C -0.2417(9) 0.1565(8) -0.1064(8)
O10B O -0.1892(6) 0.2103(5) -0.1071(5)
C45B C -0.1094(9) 0.1963(8) -0.1147(8)
O9B O -0.0951(6) 0.1996(5) -0.1794(6)
C39B C -0.0991(9) 0.1409(7) -0.2165(8)
C38B C -0.1794(8) 0.1192(7) -0.2477(7)
C37B C -0.1789(8) 0.0613(6) -0.2841(6)
C36B C -0.1084(8) 0.0271(6) -0.2934(7)
C25B C -0.1110(8) -0.0371(6) -0.3300(7)
C5B C -0.1134(8) -0.0903(6) -0.2808(6)
C4B C -0.1859(8) -0.1179(6) -0.2668(7)
C3B C -0.1894(8) -0.1654(7) -0.2209(7)
C2B C -0.1163(9) -0.1885(7) -0.1867(7)
O2B O -0.1139(6) -0.2428(5) -0.1434(6)
C1B C -0.1278(9) -0.2303(8) -0.0777(8)
O1B O -0.2107(6) -0.2358(5) -0.0699(5)
C64B C -0.2548(8) -0.1784(7) -0.0782(7)
C60B C 0.2565(8) -0.1290(7) 0.0470(7)
O4B O 0.2115(6) -0.1534(5) -0.0132(5)
C11B C 0.2373(19) -0.2175(10) -0.0332(12)
C10B C 0.2145(13) -0.2222(15) -0.1109(11)
C9B C 0.1348(12) -0.2596(9) -0.1278(16)
C8B C 0.0787(13) -0.2226(13) -0.1843(10)
O3B O 0.0259(6) -0.1804(5) -0.1523(5)
C7B C -0.0466(9) -0.1638(7) -0.1956(7)
C6B C -0.0417(9) -0.1142(7) -0.2427(7)
O5B O 0.0331(6) -0.0943(5) -0.2539(5)
C34B C 0.0577(9) -0.0361(7) -0.2235(8)
H40B H 0.0330 -0.0314 -0.1831
H41B H 0.1162 -0.0374 -0.2098
O6B O 0.0378(6) 0.0198(5) -0.2651(5)
C35B C -0.0334(8) 0.0535(7) -0.2591(7)
C40B C -0.0322(8) 0.1062(6) -0.2241(7)
O7B O 0.0410(6) 0.1274(5) -0.1859(5)
C41B C 0.0977(10) 0.1590(9) -0.2278(9)
H43B H 0.1040 0.1316 -0.2661
H44B H 0.0766 0.2012 -0.2445
C42B C 0.1805(9) 0.1675(8) -0.1807(8)
H45B H 0.2229 0.1802 -0.2063
H46B H 0.1965 0.1274 -0.1564
C43B C 0.1653(9) 0.2181(8) -0.1357(7)
H47B H 0.1636 0.2602 -0.1581
H48B H 0.1136 0.2109 -0.1203
C44B C 0.2377(11) 0.2164(9) -0.0732(9)
H49B H 0.2348 0.2535 -0.0435
H50B H 0.2902 0.2164 -0.0885
O8B O 0.2236(6) 0.1540(5) -0.0388(5)
C63B C 0.2707(8) 0.1426(7) 0.0258(7)
H4B H 0.0465 -0.2535 -0.2141
H5B H 0.1110 -0.1968 -0.2109
H6B H 0.1452 -0.3035 -0.1428
H7B H 0.1086 -0.2630 -0.0879
H8B H 0.2571 -0.2447 -0.1296
H9B H 0.2085 -0.1787 -0.1303
H10B H 0.2955 -0.2225 -0.0200
H11B H 0.2101 -0.2516 -0.0116
C62B C -0.3183(9) -0.0911(7) -0.0307(8)
O12B O -0.3333(6) -0.0547(5) 0.0271(5)
C61B C -0.2866(9) -0.0012(8) 0.0426(8)
O11B O -0.3237(6) 0.0577(5) 0.0186(5)
C59B C -0.3070(8) 0.0805(7) -0.0454(7)
C58B C -0.3490(8) 0.0516(6) -0.1034(7)
C57B C -0.3285(7) 0.0774(6) -0.1636(7)
C56B C -0.2779(7) 0.1288(6) -0.1677(7)
C46B C -0.2533(8) 0.1545(7) -0.2351(7)
H53B H -0.2392 0.2009 -0.2288
C47B C -0.3245(8) 0.1493(7) -0.2944(7)
H54B H -0.3447 0.1047 -0.2980
H55B H -0.3057 0.1605 -0.3364
C48B C -0.3919(9) 0.1950(8) -0.2828(8)
H56B H -0.4052 0.1871 -0.2380
H57B H -0.3727 0.2397 -0.2841
C49B C -0.4676(6) 0.1872(6) -0.3341(6)
C50B C -0.5228(8) 0.1379(5) -0.3258(5)
H58B H -0.5102 0.1072 -0.2916
C51B C -0.5968(7) 0.1346(5) -0.3688(7)
H59B H -0.6337 0.1016 -0.3633
C52B C -0.6156(6) 0.1805(7) -0.4200(6)
H60B H -0.6651 0.1783 -0.4488
C53B C -0.5604(8) 0.2298(6) -0.4282(5)
H61B H -0.5730 0.2605 -0.4625
C54B C -0.4865(7) 0.2331(5) -0.3853(6)
H62B H -0.4496 0.2661 -0.3908
H63B H -0.3516 0.0577 -0.2039
C68B C -0.4060(8) -0.0056(6) -0.1010(7)
C67B C -0.3568(7) -0.0673(6) -0.0952(6)
C66B C -0.3402(7) -0.1021(6) -0.1491(7)
C65B C -0.2914(8) -0.1580(7) -0.1440(7)
C16B C -0.2685(6) -0.1960(5) -0.2038(5)
H20B H -0.2574 -0.2414 -0.1899
C17B C -0.3333(6) -0.1956(5) -0.2702(5)
H21B H -0.3109 -0.2154 -0.3073
H22B H -0.3497 -0.1511 -0.2827
C18B C -0.4046(11) -0.2345(10) -0.2543(9)
H23B H -0.3856 -0.2724 -0.2272
H24B H -0.4374 -0.2079 -0.2289
C19B C -0.4569(8) -0.2570(7) -0.3228(5)
C20B C -0.4361(7) -0.3130(6) -0.3557(7)
H25B H -0.3905 -0.3370 -0.3376
C21B C -0.4835(9) -0.3329(6) -0.4155(7)
H26B H -0.4696 -0.3704 -0.4375
C22B C -0.5517(8) -0.2969(7) -0.4425(5)
H27B H -0.5835 -0.3103 -0.4825
C23B C -0.5725(7) -0.2410(7) -0.4097(7)
H28B H -0.6182 -0.2169 -0.4278
C24B C -0.5251(9) -0.2210(5) -0.3499(7)
H29B H -0.5390 -0.1836 -0.3279
H66B H -0.3627 -0.0878 -0.1920
H67B H -0.4290 -0.0014 -0.0591
C69B C -0.4775(8) -0.0036(7) -0.1595(7)
H68B H -0.4590 -0.0169 -0.2010
H69B H -0.4982 0.0407 -0.1654
C70B C -0.5448(9) -0.0491(8) -0.1448(8)
H70B H -0.5238 -0.0933 -0.1401
H71B H -0.5609 -0.0366 -0.1022
C71B C -0.6197(5) -0.0482(6) -0.1996(5)
C72B C -0.6614(7) 0.0094(5) -0.2186(5)
H72B H -0.6430 0.0489 -0.1987
C73B C -0.7307(6) 0.0081(5) -0.2673(6)
H73B H -0.7585 0.0467 -0.2800
C74B C -0.7582(6) -0.0508(6) -0.2971(5)
H74B H -0.8046 -0.0517 -0.3297
C75B C -0.7165(7) -0.1084(5) -0.2781(6)
H75B H -0.7350 -0.1479 -0.2980
C76B C -0.6473(7) -0.1071(5) -0.2294(6)
H76B H -0.6194 -0.1457 -0.2167
H64B H -0.2722 0.0016 0.0913
H65B H -0.2366 -0.0064 0.0239
H1B H -0.0961 -0.2608 -0.0471
H2B H -0.1090 -0.1865 -0.0649
H3B H -0.2346 -0.1024 -0.2907
H30B H -0.0585 -0.0412 -0.3459
C26B C -0.1757(8) -0.0407(7) -0.3934(7)
H31B H -0.1699 -0.0026 -0.4210
H32B H -0.2289 -0.0384 -0.3795
C27B C -0.1729(8) -0.1006(7) -0.4363(8)
H33B H -0.2213 -0.1016 -0.4702
H34B H -0.1738 -0.1391 -0.4081
C28B C -0.1001(6) -0.1038(6) -0.4706(6)
C29B C -0.0269(8) -0.1313(5) -0.4407(5)
H35B H -0.0227 -0.1505 -0.3982
C30B C 0.0401(6) -0.1300(6) -0.4743(7)
H36B H 0.0891 -0.1484 -0.4543
C31B C 0.0339(8) -0.1013(7) -0.5377(7)
H37B H 0.0787 -0.1004 -0.5602
C32B C -0.0393(10) -0.0738(6) -0.5676(5)
H38B H -0.0435 -0.0546 -0.6101
C33B C -0.1063(7) -0.0751(6) -0.5340(7)
H39B H -0.1553 -0.0567 -0.5540
H42B H -0.2288 0.0441 -0.3035
H51B H -0.0960 0.1526 -0.0975
H52B H -0.0734 0.2267 -0.0875
C12? C -0.0550(10) 0.2478(7) 0.1495(14)
H12? H -0.0160 0.2766 0.1332
H13? H -0.0632 0.2625 0.1939
C13? C -0.1378(8) 0.2476(9) 0.0993(12)
H14? H -0.1630 0.2905 0.0975
H15? H -0.1291 0.2357 0.0541
C14? C -0.1919(12) 0.1965(10) 0.1275(6)
H16? H -0.2182 0.2155 0.1628
H17? H -0.1596 0.1593 0.1461
C15? C -0.2568(9) 0.1747(13) 0.0662(9)
H18? H -0.2896 0.1391 0.0793
H19? H -0.2924 0.2109 0.0505
loop_
_geom_bond_atom_site_label_1
_geom_bond_atom_site_label_2
_geom_bond_site_symmetry_1
_geom_bond_site_symmetry_2
O1 C1 1_555 1_555
C1 H1 1_555 1_555
H2 C1 1_555 1_555
O2 C1 1_555 1_555
C2 O2 1_555 1_555
C3 C2 1_555 1_555
C4 C3 1_555 1_555
H3 C4 1_555 1_555
C5 C4 1_555 1_555
C6 C5 1_555 1_555
C7 C2 1_555 1_555
O3 C7 1_555 1_555
C8 O3 1_555 1_555
H4 C8 1_555 1_555
H5 C8 1_555 1_555
C9 C8 1_555 1_555
H6 C9 1_555 1_555
H7 C9 1_555 1_555
C10 C9 1_555 1_555
H8 C10 1_555 1_555
H9 C10 1_555 1_555
C11 C10 1_555 1_555
H10 C11 1_555 1_555
H11 C11 1_555 1_555
O4 C11 1_555 1_555
C16 C3 1_555 1_555
H20 C16 1_555 1_555
C17 C16 1_555 1_555
H21 C17 1_555 1_555
H22 C17 1_555 1_555
C18 C17 1_555 1_555
H23 C18 1_555 1_555
H24 C18 1_555 1_555
C19 C18 1_555 1_555
C20 C19 1_555 1_555
H25 C20 1_555 1_555
C21 C20 1_555 1_555
H26 C21 1_555 1_555
C22 C21 1_555 1_555
H27 C22 1_555 1_555
C23 C22 1_555 1_555
H28 C23 1_555 1_555
C24 C19 1_555 1_555
H29 C24 1_555 1_555
C25 C5 1_555 1_555
H30 C25 1_555 1_555
C26 C25 1_555 1_555
H31 C26 1_555 1_555
H32 C26 1_555 1_555
C27 C26 1_555 1_555
H33 C27 1_555 1_555
H34 C27 1_555 1_555
C28 C27 1_555 1_555
C29 C28 1_555 1_555
H35 C29 1_555 1_555
C30 C29 1_555 1_555
H36 C30 1_555 1_555
C31 C30 1_555 1_555
H37 C31 1_555 1_555
C32 C31 1_555 1_555
H38 C32 1_555 1_555
C33 C28 1_555 1_555
H39 C33 1_555 1_555
O5 C6 1_555 1_555
C34 O5 1_555 1_555
H40 C34 1_555 1_555
H41 C34 1_555 1_555
O6 C34 1_555 1_555
C35 O6 1_555 1_555
C36 C25 1_555 1_555
C37 C36 1_555 1_555
H42 C37 1_555 1_555
C38 C37 1_555 1_555
C39 C38 1_555 1_555
C40 C35 1_555 1_555
O7 C40 1_555 1_555
C41 O7 1_555 1_555
H43 C41 1_555 1_555
H44 C41 1_555 1_555
C42 C41 1_555 1_555
H45 C42 1_555 1_555
H46 C42 1_555 1_555
C43 C42 1_555 1_555
H47 C43 1_555 1_555
H48 C43 1_555 1_555
C44 C43 1_555 1_555
H49 C44 1_555 1_555
H50 C44 1_555 1_555
O8 C44 1_555 1_555
O9 C39 1_555 1_555
C45 O9 1_555 1_555
H51 C45 1_555 1_555
H52 C45 1_555 1_555
O10 C45 1_555 1_555
C46 C38 1_555 1_555
H53 C46 1_555 1_555
C47 C46 1_555 1_555
H54 C47 1_555 1_555
H55 C47 1_555 1_555
C48 C47 1_555 1_555
H56 C48 1_555 1_555
H57 C48 1_555 1_555
C49 C48 1_555 1_555
C50 C49 1_555 1_555
H58 C50 1_555 1_555
C51 C50 1_555 1_555
H59 C51 1_555 1_555
C52 C51 1_555 1_555
H60 C52 1_555 1_555
C53 C52 1_555 1_555
H61 C53 1_555 1_555
C54 C49 1_555 1_555
H62 C54 1_555 1_555
C55 O10 1_555 1_555
C56 C46 1_555 1_555
C57 C56 1_555 1_555
H63 C57 1_555 1_555
C58 C57 1_555 1_555
C59 C58 1_555 1_555
C60 O4 1_555 1_555
O11 C59 1_555 1_555
C61 O11 1_555 1_555
H64 C61 1_555 1_555
H65 C61 1_555 1_555
O12 C61 1_555 1_555
C62 O12 1_555 1_555
C63 O8 1_555 1_555
C64 O1 1_555 1_555
C65 C16 1_555 1_555
C66 C65 1_555 1_555
H66 C66 1_555 1_555
C67 C62 1_555 1_555
C68 C58 1_555 1_555
H67 C68 1_555 1_555
C69 C68 1_555 1_555
H68 C69 1_555 1_555
H69 C69 1_555 1_555
C70 C69 1_555 1_555
H70 C70 1_555 1_555
H71 C70 1_555 1_555
C71 C70 1_555 1_555
C72 C71 1_555 1_555
H72 C72 1_555 1_555
C73 C72 1_555 1_555
H73 C73 1_555 1_555
C74 C73 1_555 1_555
H74 C74 1_555 1_555
C75 C74 1_555 1_555
H75 C75 1_555 1_555
C76 C71 1_555 1_555
H76 C76 1_555 1_555
O13 N1 1_555 1_555
O14 N1 1_555 1_555
N1 C77 1_555 1_555
C77 C78 1_555 1_555
C78 H77 1_555 1_555
C79 C78 1_555 1_555
H78 C79 1_555 1_555
C80 C79 1_555 1_555
H79 C80 1_555 1_555
C81 C80 1_555 1_555
H80 C81 1_555 1_555
C82 C77 1_555 1_555
H81 C82 1_555 1_555
C83 C84 1_555 1_555
C84 C85 1_555 1_555
C85 H82 1_555 1_555
C86 C85 1_555 1_555
H83 C86 1_555 1_555
C87 C86 1_555 1_555
H84 C87 1_555 1_555
C88 C83 1_555 1_555
H85 C88 1_555 1_555
C89 C83 1_555 1_555
C90 C84 1_555 1_555
H86 C87 1_555 1_555
H87 C90 1_555 1_555
O15 C85 1_555 1_555
C55B C60 1_555 1_555
O10B C55B 1_555 1_555
C45B O10B 1_555 1_555
O9B C45B 1_555 1_555
C39B O9B 1_555 1_555
C38B C39B 1_555 1_555
C37B C38B 1_555 1_555
C36B C37B 1_555 1_555
C25B C36B 1_555 1_555
C5B C25B 1_555 1_555
C4B C5B 1_555 1_555
C3B C4B 1_555 1_555
C2B C3B 1_555 1_555
O2B C2B 1_555 1_555
C1B O2B 1_555 1_555
O1B C1B 1_555 1_555
C64B C63 1_555 1_555
C60B C55 1_555 1_555
O4B C60B 1_555 1_555
C11B O4B 1_555 1_555
C10B C11B 1_555 1_555
C9B C10B 1_555 1_555
C8B C9B 1_555 1_555
O3B C8B 1_555 1_555
C7B C2B 1_555 1_555
C6B C5B 1_555 1_555
O5B C6B 1_555 1_555
C34B O5B 1_555 1_555
H40B C34B 1_555 1_555
H41B C34B 1_555 1_555
O6B C34B 1_555 1_555
C35B C36B 1_555 1_555
C40B C39B 1_555 1_555
O7B C40B 1_555 1_555
C41B O7B 1_555 1_555
H43B C41B 1_555 1_555
H44B C41B 1_555 1_555
C42B C41B 1_555 1_555
H45B C42B 1_555 1_555
H46B C42B 1_555 1_555
C43B C42B 1_555 1_555
H47B C43B 1_555 1_555
H48B C43B 1_555 1_555
C44B C43B 1_555 1_555
H49B C44B 1_555 1_555
H50B C44B 1_555 1_555
O8B C44B 1_555 1_555
C63B C62 1_555 1_555
H4B C8B 1_555 1_555
H5B C8B 1_555 1_555
H6B C9B 1_555 1_555
H7B C9B 1_555 1_555
H8B C10B 1_555 1_555
H9B C10B 1_555 1_555
H10B C11B 1_555 1_555
H11B C11B 1_555 1_555
C62B C63 1_555 1_555
O12B C62B 1_555 1_555
C61B O12B 1_555 1_555
O11B C61B 1_555 1_555
C59B C60 1_555 1_555
C58B C59B 1_555 1_555
C57B C58B 1_555 1_555
C56B C55B 1_555 1_555
C46B C38B 1_555 1_555
H53B C46B 1_555 1_555
C47B C46B 1_555 1_555
H54B C47B 1_555 1_555
H55B C47B 1_555 1_555
C48B C47B 1_555 1_555
H56B C48B 1_555 1_555
H57B C48B 1_555 1_555
C49B C48B 1_555 1_555
C50B C49B 1_555 1_555
H58B C50B 1_555 1_555
C51B C50B 1_555 1_555
H59B C51B 1_555 1_555
C52B C51B 1_555 1_555
H60B C52B 1_555 1_555
C53B C52B 1_555 1_555
H61B C53B 1_555 1_555
C54B C49B 1_555 1_555
H62B C54B 1_555 1_555
H63B C57B 1_555 1_555
C68B C58B 1_555 1_555
C67B C62B 1_555 1_555
C66B C67B 1_555 1_555
C65B C64B 1_555 1_555
C16B C3B 1_555 1_555
H20B C16B 1_555 1_555
C17B C16B 1_555 1_555
H21B C17B 1_555 1_555
H22B C17B 1_555 1_555
C18B C17B 1_555 1_555
H23B C18B 1_555 1_555
H24B C18B 1_555 1_555
C19B C18B 1_555 1_555
C20B C19B 1_555 1_555
H25B C20B 1_555 1_555
C21B C20B 1_555 1_555
H26B C21B 1_555 1_555
C22B C21B 1_555 1_555
H27B C22B 1_555 1_555
C23B C22B 1_555 1_555
H28B C23B 1_555 1_555
C24B C19B 1_555 1_555
H29B C24B 1_555 1_555
H66B C66B 1_555 1_555
H67B C68B 1_555 1_555
C69B C68B 1_555 1_555
H68B C69B 1_555 1_555
H69B C69B 1_555 1_555
C70B C69B 1_555 1_555
H70B C70B 1_555 1_555
H71B C70B 1_555 1_555
C71B C70B 1_555 1_555
C72B C71B 1_555 1_555
H72B C72B 1_555 1_555
C73B C72B 1_555 1_555
H73B C73B 1_555 1_555
C74B C73B 1_555 1_555
H74B C74B 1_555 1_555
C75B C74B 1_555 1_555
H75B C75B 1_555 1_555
C76B C71B 1_555 1_555
H76B C76B 1_555 1_555
H64B C61B 1_555 1_555
H65B C61B 1_555 1_555
H1B C1B 1_555 1_555
H2B C1B 1_555 1_555
H3B C4B 1_555 1_555
H30B C25B 1_555 1_555
C26B C25B 1_555 1_555
H31B C26B 1_555 1_555
H32B C26B 1_555 1_555
C27B C26B 1_555 1_555
H33B C27B 1_555 1_555
H34B C27B 1_555 1_555
C28B C27B 1_555 1_555
C29B C28B 1_555 1_555
H35B C29B 1_555 1_555
C30B C29B 1_555 1_555
H36B C30B 1_555 1_555
C31B C30B 1_555 1_555
H37B C31B 1_555 1_555
C32B C31B 1_555 1_555
H38B C32B 1_555 1_555
C33B C28B 1_555 1_555
H39B C33B 1_555 1_555
H42B C37B 1_555 1_555
H51B C45B 1_555 1_555
H52B C45B 1_555 1_555
C83B C83 1_555 1_555
C84B C83 1_555 1_555
C88B C84 1_555 1_555
C89B C85 1_555 1_555
C85B C89 1_555 1_555
C90B C87 1_555 1_555
H87B C90B 1_555 1_555
H82B C85B 1_555 1_555
C86B C89 1_555 1_555
H83B C86B 1_555 1_555
O15B C89 1_555 1_555
C87B C89 1_555 1_555
H84B C87B 1_555 1_555
H85B C90 1_555 1_555
H86B C90 1_555 1_555
C6 C7 1_555 1_555
C23 C24 1_555 1_555
C32 C33 1_555 1_555
C35 C36 1_555 1_555
C39 C40 1_555 1_555
C53 C54 1_555 1_555
C55 C56 1_555 1_555
C59 C60B 1_555 1_555
C64 C65 1_555 1_555
C64 C63B 1_555 1_555
C66 C67 1_555 1_555
C67 C68 1_555 1_555
C75 C76 1_555 1_555
C81 C82 1_555 1_555
C84 C83B 1_555 1_555
C86 C89B 1_555 1_555
C86 O15 1_555 1_555
H83 O15 1_555 1_555
C87 C88 1_555 1_555
C87 C89B 1_555 1_555
C88 H86 1_555 1_555
C88 C84B 1_555 1_555
C88 C90B 1_555 1_555
H85 C90B 1_555 1_555
C89 C90 1_555 1_555
C90 C87B 1_555 1_555
C90 C88B 1_555 1_555
H86 C90B 1_555 1_555
O15 C89B 1_555 1_555
O1B C64B 1_555 1_555
O3B C7B 1_555 1_555
C7B C6B 1_555 1_555
O6B C35B 1_555 1_555
C35B C40B 1_555 1_555
O8B C63B 1_555 1_555
O11B C59B 1_555 1_555
C57B C56B 1_555 1_555
C56B C46B 1_555 1_555
C53B C54B 1_555 1_555
C68B C67B 1_555 1_555
C66B C65B 1_555 1_555
C65B C16B 1_555 1_555
C23B C24B 1_555 1_555
C75B C76B 1_555 1_555
C32B C33B 1_555 1_555
C83B C84B 1_555 1_555
C83B C88B 1_555 1_555
C83B C89B 1_555 1_555
C84B C85B 1_555 1_555
C84B C90B 1_555 1_555
C88B H85B 1_555 1_555
C88B H86B 1_555 1_555
C88B C87B 1_555 1_555
C89B C90B 1_555 1_555
C85B C86B 1_555 1_555
C85B O15B 1_555 1_555
C86B C87B 1_555 1_555
C86B O15B 1_555 1_555
H83B O15B 1_555 1_555
C87B H86B 1_555 1_555

#END
