
#######################################################################
#
#                 Cambridge Crystallographic Data Centre
#                                CCDC 
#
#######################################################################
#
# If this CIF has been generated from an entry in the Cambridge 
# Structural Database, then it will include bibliographic, chemical, 
# crystal, experimental, refinement or atomic coordinate data resulting 
# from the CCDC's data processing and validation procedures.
#
#######################################################################

data_LUXXIM
_chemical_name_common            
'meso-octakis(Pentafluorophenyl)[38]octaphyrin (1.1.1.1.1.1.1.1) bis(trifluoroacetate) trifluoroacetic acid ethyl acetate isopropanol ethanol solvate monohydrate'
_chemical_formula_moiety         
'C88 H24 F40 N8 2+,2(C2 F3 O2 1-),2(C2 H1 F3 O2),2(C4 H8 O2),3(C3 H8 O1),2(C2 H6 O1),H2 O1'
_chemical_name_systematic        
'2,7,12,17,22,27,32,37-Octakis(pentafluorophenyl)-41,42,43,44,45,46,47,48-octaazanonacyclo-[36.2.1.1^3,6^.1^8,11^.1^13,16^.1^18,21^.1^23,26^.1^28,31^.1^33,36^]-octatetraconta-1,3,5,7,9,11,13,15,17,19,21,23,25,27,29,31,33,35,37,39-icosaene bis(trifluoroacetate) trifluoroacetic acid ethyl acetate isopropanol ethanol solvate monohydrate'
_symmetry_cell_setting           monoclinic
_symmetry_space_group_name_H-M   'C 2/m'
_symmetry_Int_Tables_number      12
_space_group_name_Hall           '-C 2y'
loop_
_symmetry_equiv_pos_site_id
_symmetry_equiv_pos_as_xyz
1 x,y,z
2 -x,y,-z
3 1/2+x,1/2+y,z
4 1/2-x,1/2+y,-z
5 -x,-y,-z
6 x,-y,z
7 1/2-x,1/2-y,-z
8 1/2+x,1/2-y,z
_cell_length_a                   34.518(5)
_cell_length_b                   25.907(4)
_cell_length_c                   15.380(2)
_cell_angle_alpha                90
_cell_angle_beta                 108.491(3)
_cell_angle_gamma                90
_cell_volume                     13043.6
_exptl_crystal_colour            violet
_exptl_crystal_description       prism
_cell_formula_units_Z            4
loop_
_atom_site_label
_atom_site_type_symbol
_atom_site_fract_x
_atom_site_fract_y
_atom_site_fract_z
C1 C 0.58840(15) -0.0259(2) 0.4467(4)
H2 H 0.6103 -0.0470 0.4816
C2 C 0.55010(15) -0.0446(3) 0.3859(4)
C3 C 0.53607(15) -0.0938(3) 0.3620(4)
C4 C 0.50136(15) -0.1049(2) 0.2858(4)
C5 C 0.48438(18) -0.0755(3) 0.2058(4)
H3 H 0.4937 -0.0426 0.1939
C6 C 0.45234(18) -0.1020(3) 0.1483(4)
H4 H 0.4358 -0.0909 0.0892
C7 C 0.44784(15) -0.1490(3) 0.1917(4)
C8 C 0.41966(14) -0.1888(3) 0.1563(3)
C9 C 0.38228(15) -0.1772(2) 0.0859(3)
C10 C 0.36052(17) -0.1298(3) 0.0662(4)
H5 H 0.3685 -0.0980 0.0977
C11 C 0.32595(16) -0.1382(3) -0.0066(4)
H6 H 0.3059 -0.1130 -0.0346
C12 C 0.32501(14) -0.1905(2) -0.0331(3)
C13 C 0.29633(14) -0.2195(2) -0.1013(3)
C14 C 0.26400(14) -0.1972(2) -0.1721(3)
C15 C 0.22942(14) -0.2252(2) -0.2307(3)
H7 H 0.2246 -0.2612 -0.2291
C16 C 0.20497(14) -0.1900(2) -0.2890(3)
H8 H 0.1798 -0.1976 -0.3350
C17 C 0.22294(14) -0.1405(2) -0.2700(3)
C18 C 0.20730(14) -0.0942(2) -0.3141(3)
C19 C 0.21963(13) -0.0431(2) -0.2795(3)
C20 C 0.24216(14) -0.0263(2) -0.1907(3)
H9 H 0.2551 -0.0479 -0.1398
C21 C 0.55864(14) -0.1377(3) 0.4186(4)
C22 C 0.56737(15) -0.1410(3) 0.5120(4)
C23 C 0.58748(15) -0.1807(3) 0.5632(4)
C24 C 0.59918(16) -0.2221(3) 0.5213(5)
C25 C 0.59145(16) -0.2212(3) 0.4285(4)
C26 C 0.57167(15) -0.1799(3) 0.3788(4)
C27 C 0.42778(15) -0.2418(2) 0.1899(4)
C28 C 0.46420(15) -0.2677(3) 0.1975(4)
C29 C 0.47130(16) -0.3181(3) 0.2238(4)
C30 C 0.4421(2) -0.3456(3) 0.2452(5)
C31 C 0.40515(17) -0.3229(3) 0.2384(4)
C32 C 0.39872(15) -0.2726(3) 0.2125(4)
C33 C 0.29865(13) -0.2763(2) -0.0960(4)
C34 C 0.29573(14) -0.3038(3) -0.0212(4)
C35 C 0.29879(18) -0.3581(3) -0.0151(4)
C36 C 0.30512(19) -0.3845(3) -0.0852(5)
C37 C 0.30714(18) -0.3597(3) -0.1610(5)
C38 C 0.30442(16) -0.3074(3) -0.1672(4)
C39 C 0.17314(15) -0.0996(2) -0.4019(3)
C40 C 0.17874(19) -0.1240(3) -0.4772(4)
C41 C 0.1479(2) -0.1310(3) -0.5581(4)
C42 C 0.1103(2) -0.1120(3) -0.5666(5)
C43 C 0.10268(19) -0.0858(3) -0.4958(6)
C44 C 0.13426(16) -0.0799(3) -0.4136(4)
F1 F 0.55434(9) -0.10274(15) 0.5564(2)
F2 F 0.59488(9) -0.18134(17) 0.6556(2)
F3 F 0.61819(11) -0.26284(18) 0.5717(3)
F4 F 0.60292(11) -0.26116(17) 0.3862(3)
F5 F 0.56531(9) -0.18009(15) 0.2868(2)
F6 F 0.49389(9) -0.24194(16) 0.1744(2)
F7 F 0.50727(10) -0.34083(18) 0.2279(3)
F8 F 0.44851(13) -0.39535(18) 0.2708(3)
F9 F 0.37601(11) -0.34974(15) 0.2604(3)
F10 F 0.36220(8) -0.25092(13) 0.2082(2)
F11 F 0.28974(9) -0.27763(14) 0.0492(2)
F12 F 0.29571(12) -0.38152(16) 0.0602(3)
F13 F 0.30795(13) -0.43662(18) -0.0808(3)
F14 F 0.31329(13) -0.38671(16) -0.2309(3)
F15 F 0.30806(10) -0.28346(14) -0.2417(2)
F16 F 0.21634(11) -0.14323(16) -0.4709(2)
F17 F 0.15517(15) -0.15502(19) -0.6284(3)
F18 F 0.07966(14) -0.1177(2) -0.6465(3)
F19 F 0.06554(10) -0.06769(19) -0.5031(3)
F20 F 0.12671(8) -0.05491(14) -0.3440(3)
N1 N 0.52808(18) 0.0000 0.3517(4)
H10 H 0.5031 0.0000 0.3129
N2 N 0.47895(11) -0.1495(2) 0.2746(3)
H11 H 0.4837 -0.1748 0.3147
N3 N 0.35991(11) -0.21323(19) 0.0262(3)
H12 H 0.3666 -0.2460 0.0253
N4 N 0.25877(11) -0.1465(2) -0.1975(3)
H13 H 0.2756 -0.1213 -0.1716
N5 N 0.20634(16) 0.0000 -0.3305(4)
H14 H 0.1912 0.0000 -0.3885
C1E C 0.58840(15) 0.0259(2) 0.4467(4)
H2E H 0.6103 0.0470 0.4816
C2E C 0.55010(15) 0.0446(3) 0.3859(4)
C3E C 0.53607(15) 0.0938(3) 0.3620(4)
C4E C 0.50136(15) 0.1049(2) 0.2858(4)
C5E C 0.48438(18) 0.0755(3) 0.2058(4)
H3E H 0.4937 0.0426 0.1939
C6E C 0.45234(18) 0.1020(3) 0.1483(4)
H4E H 0.4358 0.0909 0.0892
C7E C 0.44784(15) 0.1490(3) 0.1917(4)
C8E C 0.41966(14) 0.1888(3) 0.1563(3)
C9E C 0.38228(15) 0.1772(2) 0.0859(3)
C10E C 0.36052(17) 0.1298(3) 0.0662(4)
H5E H 0.3685 0.0980 0.0977
C11E C 0.32595(16) 0.1382(3) -0.0066(4)
H6E H 0.3059 0.1130 -0.0346
C12E C 0.32501(14) 0.1905(2) -0.0331(3)
C13E C 0.29633(14) 0.2195(2) -0.1013(3)
C14E C 0.26400(14) 0.1972(2) -0.1721(3)
C15E C 0.22942(14) 0.2252(2) -0.2307(3)
H7E H 0.2246 0.2612 -0.2291
C16E C 0.20497(14) 0.1900(2) -0.2890(3)
H8E H 0.1798 0.1976 -0.3350
C17E C 0.22294(14) 0.1405(2) -0.2700(3)
C18E C 0.20730(14) 0.0942(2) -0.3141(3)
C19E C 0.21963(13) 0.0431(2) -0.2795(3)
C20E C 0.24216(14) 0.0263(2) -0.1907(3)
H9E H 0.2551 0.0479 -0.1398
C21E C 0.55864(14) 0.1377(3) 0.4186(4)
C22E C 0.56737(15) 0.1410(3) 0.5120(4)
C23E C 0.58748(15) 0.1807(3) 0.5632(4)
C24E C 0.59918(16) 0.2221(3) 0.5213(5)
C25E C 0.59145(16) 0.2212(3) 0.4285(4)
C26E C 0.57167(15) 0.1799(3) 0.3788(4)
C27E C 0.42778(15) 0.2418(2) 0.1899(4)
C28E C 0.46420(15) 0.2677(3) 0.1975(4)
C29E C 0.47130(16) 0.3181(3) 0.2238(4)
C30E C 0.4421(2) 0.3456(3) 0.2452(5)
C31E C 0.40515(17) 0.3229(3) 0.2384(4)
C32E C 0.39872(15) 0.2726(3) 0.2125(4)
C33E C 0.29865(13) 0.2763(2) -0.0960(4)
C34E C 0.29573(14) 0.3038(3) -0.0212(4)
C35E C 0.29879(18) 0.3581(3) -0.0151(4)
C36E C 0.30512(19) 0.3845(3) -0.0852(5)
C37E C 0.30714(18) 0.3597(3) -0.1610(5)
C38E C 0.30442(16) 0.3074(3) -0.1672(4)
C39E C 0.17314(15) 0.0996(2) -0.4019(3)
C40E C 0.17874(19) 0.1240(3) -0.4772(4)
C41E C 0.1479(2) 0.1310(3) -0.5581(4)
C42E C 0.1103(2) 0.1120(3) -0.5666(5)
C43E C 0.10268(19) 0.0858(3) -0.4958(6)
C44E C 0.13426(16) 0.0799(3) -0.4136(4)
F1E F 0.55434(9) 0.10274(15) 0.5564(2)
F2E F 0.59488(9) 0.18134(17) 0.6556(2)
F3E F 0.61819(11) 0.26284(18) 0.5717(3)
F4E F 0.60292(11) 0.26116(17) 0.3862(3)
F5E F 0.56531(9) 0.18009(15) 0.2868(2)
F6E F 0.49389(9) 0.24194(16) 0.1744(2)
F7E F 0.50727(10) 0.34083(18) 0.2279(3)
F8E F 0.44851(13) 0.39535(18) 0.2708(3)
F9E F 0.37601(11) 0.34974(15) 0.2604(3)
F10E F 0.36220(8) 0.25092(13) 0.2082(2)
F11E F 0.28974(9) 0.27763(14) 0.0492(2)
F12E F 0.29571(12) 0.38152(16) 0.0602(3)
F13E F 0.30795(13) 0.43662(18) -0.0808(3)
F14E F 0.31329(13) 0.38671(16) -0.2309(3)
F15E F 0.30806(10) 0.28346(14) -0.2417(2)
F16E F 0.21634(11) 0.14323(16) -0.4709(2)
F17E F 0.15517(15) 0.15502(19) -0.6284(3)
F18E F 0.07966(14) 0.1177(2) -0.6465(3)
F19E F 0.06554(10) 0.06769(19) -0.5031(3)
F20E F 0.12671(8) 0.05491(14) -0.3440(3)
N2E N 0.47895(11) 0.1495(2) 0.2746(3)
H11E H 0.4837 0.1748 0.3147
N3E N 0.35991(11) 0.21323(19) 0.0262(3)
H12E H 0.3666 0.2460 0.0253
N4E N 0.25877(11) 0.1465(2) -0.1975(3)
H13E H 0.2756 0.1213 -0.1716
C45 C 0.3282(5) 0.0000 0.0960(12)
O2 O 0.3289(4) 0.0000 0.0062(10)
H15 H 0.3049 0.0000 -0.0300
O3 O 0.3567(5) 0.0000 0.1604(9)
F21 F 0.2791(4) 0.0000 0.1763(7)
F22 F 0.2672(2) -0.0422(3) 0.0560(5)
C55 C 0.2873(7) 0.0000 0.0981(13)
F22E F 0.2672(2) 0.0422(3) 0.0560(5)
C46 C 0.5000 0.2424(4) 0.5000
C47 C 0.5000 0.3019(5) 0.5000
O7 O 0.50918(11) 0.22170(18) 0.5776(3)
F24 F 0.5189(3) 0.3182(4) 0.4340(7)
O7A O 0.49082(11) 0.22170(18) 0.4224(3)
F24A F 0.4811(3) 0.3182(4) 0.5660(7)
O4 O 0.4376(3) 0.0000 0.3096(9)
O5 O 0.33468(19) 0.1046(4) 0.4112(5)
O6 O 0.2846(3) 0.1565(3) 0.3419(7)
C49 C 0.3138(3) 0.1241(5) 0.3439(7)
C50 C 0.3176(3) 0.1239(5) 0.2484(8)
H17 H 0.3393 0.1000 0.2464
H18 H 0.3243 0.1587 0.2329
H19 H 0.2916 0.1129 0.2043
C51 C 0.2874(4) 0.2110(6) 0.4661(9)
H20 H 0.2775 0.2145 0.5189
H21 H 0.2775 0.2401 0.4242
H22 H 0.3174 0.2109 0.4872
C52 C 0.2728(5) 0.1641(6) 0.4197(9)
H23 H 0.2831 0.1350 0.4626
H24 H 0.2426 0.1638 0.4016
C56 C 0.4047(4) 0.0000 -0.0611(11)
H31 H 0.4038 0.0000 0.0033
O9 O 0.3656(3) 0.0000 -0.1286(8)
C61 C 0.4308(4) -0.0459(2) -0.0830(10)
H38 H 0.4248 -0.0489 -0.1495
H39 H 0.4600 -0.0387 -0.0542
H40 H 0.4238 -0.0783 -0.0587
C61E C 0.4308(4) 0.0459(2) -0.0830(10)
H38E H 0.4248 0.0489 -0.1495
H39E H 0.4600 0.0387 -0.0542
H40E H 0.4238 0.0783 -0.0587
O10 O 0.17401(14) 0.4106(2) 0.2028(3)
H32 H 0.1650 0.4404 0.1867
C59 C 0.1549(3) 0.3899(5) 0.2683(10)
H33 H 0.1610 0.4132 0.3219
H34 H 0.1249 0.3894 0.2389
C60 C 0.1687(4) 0.3378(5) 0.3001(8)
H35 H 0.1542 0.3257 0.3417
H36 H 0.1982 0.3384 0.3325
H37 H 0.1630 0.3145 0.2473
O1 O 0.39932(13) 0.3020(3) -0.0097(3)
H1 H 0.3982 0.3341 -0.0031
C48 C 0.4301(4) 0.2893(6) -0.0643(8)
H16 H 0.4573 0.3053 -0.0334
C53 C 0.4343(4) 0.2298(6) -0.0715(10)
H25 H 0.4077 0.2150 -0.1058
H26 H 0.4438 0.2148 -0.0099
H27 H 0.4541 0.2221 -0.1034
C54 C 0.4148(5) 0.3060(9) -0.1538(11)
H28 H 0.3872 0.2924 -0.1816
H29 H 0.4325 0.2936 -0.1883
H30 H 0.4141 0.3438 -0.1551
F23? F 0.4605(3) 0.3189(5) 0.4564(8)
F25? F 0.5168(7) 0.3254(5) 0.5740(9)
C57? C 0.2176(7) -0.0215(10) -0.5600(15)
C58? C 0.2034(8) 0.0000 -0.6569(16)
O8? O 0.1824(3) 0.0000 -0.5275(4)
loop_
_geom_bond_atom_site_label_1
_geom_bond_atom_site_label_2
_geom_bond_site_symmetry_1
_geom_bond_site_symmetry_2
O1 H1 1_555 1_555
C1 H2 1_555 1_555
C2 C1 1_555 1_555
C3 C2 1_555 1_555
C4 C3 1_555 1_555
C5 C4 1_555 1_555
H3 C5 1_555 1_555
C6 C5 1_555 1_555
H4 C6 1_555 1_555
C7 C6 1_555 1_555
C8 C7 1_555 1_555
C9 C8 1_555 1_555
C10 C9 1_555 1_555
H5 C10 1_555 1_555
C11 C10 1_555 1_555
H6 C11 1_555 1_555
C12 C11 1_555 1_555
C13 C12 1_555 1_555
C14 C13 1_555 1_555
C15 C14 1_555 1_555
H7 C15 1_555 1_555
C16 C15 1_555 1_555
H8 C16 1_555 1_555
C17 C16 1_555 1_555
C18 C17 1_555 1_555
C19 C18 1_555 1_555
C20 C19 1_555 1_555
H9 C20 1_555 1_555
C21 C3 1_555 1_555
C22 C21 1_555 1_555
C23 C22 1_555 1_555
C24 C23 1_555 1_555
C25 C24 1_555 1_555
C26 C21 1_555 1_555
C27 C8 1_555 1_555
C28 C27 1_555 1_555
C29 C28 1_555 1_555
C30 C29 1_555 1_555
C31 C30 1_555 1_555
C32 C27 1_555 1_555
C33 C13 1_555 1_555
C34 C33 1_555 1_555
C35 C34 1_555 1_555
C36 C35 1_555 1_555
C37 C36 1_555 1_555
C38 C33 1_555 1_555
C39 C18 1_555 1_555
C40 C39 1_555 1_555
C41 C40 1_555 1_555
C42 C41 1_555 1_555
C43 C42 1_555 1_555
C44 C39 1_555 1_555
C45 O2 1_555 1_555
C46 C47 1_555 1_555
C47 F24 1_555 1_555
F1 C22 1_555 1_555
F2 C23 1_555 1_555
F3 C24 1_555 1_555
F4 C25 1_555 1_555
F5 C26 1_555 1_555
F6 C28 1_555 1_555
F7 C29 1_555 1_555
F8 C30 1_555 1_555
F9 C31 1_555 1_555
F10 C32 1_555 1_555
F11 C34 1_555 1_555
F12 C35 1_555 1_555
F13 C36 1_555 1_555
F14 C37 1_555 1_555
F15 C38 1_555 1_555
F16 C40 1_555 1_555
F17 C41 1_555 1_555
F18 C42 1_555 1_555
F19 C43 1_555 1_555
F20 C44 1_555 1_555
N1 C2 1_555 1_555
H10 N1 1_555 1_555
N2 C4 1_555 1_555
H11 N2 1_555 1_555
N3 C9 1_555 1_555
H12 N3 1_555 1_555
N4 C14 1_555 1_555
H13 N4 1_555 1_555
N5 C19 1_555 1_555
H14 N5 1_555 1_555
O2 H15 1_555 1_555
O3 C45 1_555 1_555
C48 O1 1_555 1_555
H16 C48 1_555 1_555
O5 C49 1_555 1_555
O6 C49 1_555 1_555
C49 C50 1_555 1_555
C50 H17 1_555 1_555
H18 C50 1_555 1_555
H19 C50 1_555 1_555
C51 H20 1_555 1_555
H21 C51 1_555 1_555
H22 C51 1_555 1_555
C52 O6 1_555 1_555
H23 C52 1_555 1_555
H24 C52 1_555 1_555
C53 C48 1_555 1_555
H25 C53 1_555 1_555
H26 C53 1_555 1_555
H27 C53 1_555 1_555
C54 C48 1_555 1_555
H28 C54 1_555 1_555
H29 C54 1_555 1_555
H30 C54 1_555 1_555
O7 C46 1_555 1_555
F21 C55 1_555 1_555
F22 C55 1_555 1_555
C55 C45 1_555 1_555
C56 H31 1_555 1_555
O9 C56 1_555 1_555
O10 H32 1_555 1_555
C59 O10 1_555 1_555
H33 C59 1_555 1_555
H34 C59 1_555 1_555
C60 C59 1_555 1_555
H35 C60 1_555 1_555
H36 C60 1_555 1_555
H37 C60 1_555 1_555
C61 C56 1_555 1_555
H38 C61 1_555 1_555
H39 C61 1_555 1_555
H40 C61 1_555 1_555
C1E C1 1_555 1_555
H2E C1E 1_555 1_555
C2E N1 1_555 1_555
C3E C2E 1_555 1_555
C4E C3E 1_555 1_555
C5E C4E 1_555 1_555
H3E C5E 1_555 1_555
C6E C5E 1_555 1_555
H4E C6E 1_555 1_555
C7E C6E 1_555 1_555
C8E C7E 1_555 1_555
C9E C8E 1_555 1_555
C10E C9E 1_555 1_555
H5E C10E 1_555 1_555
C11E C10E 1_555 1_555
H6E C11E 1_555 1_555
C12E C11E 1_555 1_555
C13E C12E 1_555 1_555
C14E C13E 1_555 1_555
C15E C14E 1_555 1_555
H7E C15E 1_555 1_555
C16E C15E 1_555 1_555
H8E C16E 1_555 1_555
C17E C16E 1_555 1_555
C18E C17E 1_555 1_555
C19E N5 1_555 1_555
C20E C20 1_555 1_555
H9E C20E 1_555 1_555
C21E C3E 1_555 1_555
C22E C21E 1_555 1_555
C23E C22E 1_555 1_555
C24E C23E 1_555 1_555
C25E C24E 1_555 1_555
C26E C21E 1_555 1_555
C27E C8E 1_555 1_555
C28E C27E 1_555 1_555
C29E C28E 1_555 1_555
C30E C29E 1_555 1_555
C31E C30E 1_555 1_555
C32E C27E 1_555 1_555
C33E C13E 1_555 1_555
C34E C33E 1_555 1_555
C35E C34E 1_555 1_555
C36E C35E 1_555 1_555
C37E C36E 1_555 1_555
C38E C33E 1_555 1_555
C39E C18E 1_555 1_555
C40E C39E 1_555 1_555
C41E C40E 1_555 1_555
C42E C41E 1_555 1_555
C43E C42E 1_555 1_555
C44E C39E 1_555 1_555
F1E C22E 1_555 1_555
F2E C23E 1_555 1_555
F3E C24E 1_555 1_555
F4E C25E 1_555 1_555
F5E C26E 1_555 1_555
F6E C28E 1_555 1_555
F7E C29E 1_555 1_555
F8E C30E 1_555 1_555
F9E C31E 1_555 1_555
F10E C32E 1_555 1_555
F11E C34E 1_555 1_555
F12E C35E 1_555 1_555
F13E C36E 1_555 1_555
F14E C37E 1_555 1_555
F15E C38E 1_555 1_555
F16E C40E 1_555 1_555
F17E C41E 1_555 1_555
F18E C42E 1_555 1_555
F19E C43E 1_555 1_555
F20E C44E 1_555 1_555
N2E C4E 1_555 1_555
H11E N2E 1_555 1_555
N3E C9E 1_555 1_555
H12E N3E 1_555 1_555
N4E C14E 1_555 1_555
H13E N4E 1_555 1_555
O7A C46 1_555 1_555
F22E C55 1_555 1_555
F24A C47 1_555 1_555
C61E C56 1_555 1_555
H38E C61E 1_555 1_555
H39E C61E 1_555 1_555
H40E C61E 1_555 1_555
C7 N2 1_555 1_555
C12 N3 1_555 1_555
C17 N4 1_555 1_555
C25 C26 1_555 1_555
C31 C32 1_555 1_555
C37 C38 1_555 1_555
C43 C44 1_555 1_555
C51 C52 1_555 1_555
C1E C2E 1_555 1_555
C7E N2E 1_555 1_555
C12E N3E 1_555 1_555
C17E N4E 1_555 1_555
C18E C19E 1_555 1_555
C19E C20E 1_555 1_555
C25E C26E 1_555 1_555
C31E C32E 1_555 1_555
C37E C38E 1_555 1_555
C43E C44E 1_555 1_555

#END
