
#######################################################################
#
#                 Cambridge Crystallographic Data Centre
#                                CCDC 
#
#######################################################################
#
# If this CIF has been generated from an entry in the Cambridge 
# Structural Database, then it will include bibliographic, chemical, 
# crystal, experimental, refinement or atomic coordinate data resulting 
# from the CCDC's data processing and validation procedures.
#
#######################################################################

data_LUXXIN01
_chemical_formula_moiety         'C40 H52 Li2 N2 O4 S2'
_chemical_name_systematic        
bis(\m-2-(phenylsulfanyl)anilino)-tetrakis(tetrahydrofuran)-di-lithium
_symmetry_cell_setting           triclinic
_symmetry_space_group_name_H-M   'P -1'
_symmetry_Int_Tables_number      2
_space_group_name_Hall           '-P 1'
loop_
_symmetry_equiv_pos_site_id
_symmetry_equiv_pos_as_xyz
1 x,y,z
2 -x,-y,-z
_cell_length_a                   9.6540(7)
_cell_length_b                   9.9211(6)
_cell_length_c                   11.2854(8)
_cell_angle_alpha                73.537(3)
_cell_angle_beta                 88.138(3)
_cell_angle_gamma                72.420(3)
_cell_volume                     986.502
_exptl_crystal_colour            colorless
_exptl_crystal_description       BLOCK
_cell_formula_units_Z            1
loop_
_atom_site_label
_atom_site_type_symbol
_atom_site_fract_x
_atom_site_fract_y
_atom_site_fract_z
S1 S -0.30805(5) 0.81860(5) 0.70119(4)
O1 O 0.20072(17) 0.30404(15) 0.70998(12)
O2 O 0.19444(14) 0.62852(15) 0.58373(13)
N1 N -0.11758(15) 0.57436(16) 0.58744(13)
C1 C -0.2987(2) 0.3401(2) 0.80627(15)
H1 H -0.2982 0.2402 0.8287
C2 C -0.3909(2) 0.4374(2) 0.86382(16)
H2 H -0.4536 0.4053 0.9244
C3 C -0.38852(19) 0.5810(2) 0.83053(15)
H3 H -0.4499 0.6482 0.8697
C4 C -0.29859(17) 0.63076(18) 0.74082(14)
C5 C -0.15499(19) 0.81895(18) 0.78363(14)
C6 C -0.1379(2) 0.9553(2) 0.77518(17)
H4 H -0.2073 1.0430 0.7273
C7 C -0.0207(3) 0.9644(2) 0.83585(19)
H5 H -0.0101 1.0583 0.8296
C8 C 0.0814(3) 0.8377(2) 0.90577(18)
H6 H 0.1620 0.8442 0.9474
C9 C -0.20865(18) 0.38618(18) 0.71778(14)
H7 H -0.1463 0.3161 0.6818
C10 C -0.20482(16) 0.53452(17) 0.67779(13)
C11 C 0.0650(2) 0.7019(2) 0.91449(17)
H8 H 0.1351 0.6147 0.9622
C12 C -0.0523(2) 0.69133(19) 0.85455(15)
H9 H -0.0630 0.5973 0.8617
C13 C 0.3512(2) 0.5869(3) 0.5733(2)
H10 H 0.3806 0.5253 0.5159
H11 H 0.4024 0.5306 0.6552
C14 C 0.1363(3) 0.7835(2) 0.5654(2)
H12 H 0.0683 0.8051 0.6299
H13 H 0.0841 0.8331 0.4831
C15 C 0.2689(4) 0.8345(3) 0.5745(2)
H14 H 0.2522 0.9379 0.5237
H15 H 0.2940 0.8255 0.6613
C16 C 0.3859(3) 0.7291(3) 0.5241(2)
H16 H 0.3803 0.7608 0.4325
H17 H 0.4840 0.7204 0.5548
C17 C 0.2946(10) 0.1622(9) 0.9113(7)
H18 H 0.2378 0.0942 0.9484
H19 H 0.3514 0.1730 0.9776
C18 C 0.3925(10) 0.1098(14) 0.8142(6)
H20 H 0.4769 0.1483 0.8042
H21 H 0.4282 0.0007 0.8367
C19 C 0.2979(3) 0.1703(3) 0.7028(2)
H22 H 0.3555 0.1867 0.6289
H23 H 0.2443 0.1015 0.6969
C20 C 0.1985(3) 0.3084(3) 0.83512(19)
H24 H 0.0981 0.3262 0.8631
H25 H 0.2351 0.3888 0.8430
Li1 Li 0.1010(3) 0.4805(3) 0.5771(3)
H26 H -0.127(2) 0.666(2) 0.5744(18)
S1A S 0.30805(5) 0.18140(5) 0.29881(4)
O1A O -0.20072(17) 0.69596(15) 0.29002(12)
O2A O -0.19444(14) 0.37148(15) 0.41627(13)
N1A N 0.11758(15) 0.42564(16) 0.41256(13)
C1A C 0.2987(2) 0.6599(2) 0.19373(15)
H1A H 0.2982 0.7598 0.1713
C2A C 0.3909(2) 0.5626(2) 0.13618(16)
H2A H 0.4536 0.5947 0.0756
C3A C 0.38852(19) 0.4190(2) 0.16947(15)
H3A H 0.4499 0.3518 0.1303
C4A C 0.29859(17) 0.36924(18) 0.25918(14)
C5A C 0.15499(19) 0.18105(18) 0.21637(14)
C6A C 0.1379(2) 0.0447(2) 0.22482(17)
H4A H 0.2073 -0.0430 0.2727
C7A C 0.0207(3) 0.0356(2) 0.16415(19)
H5A H 0.0101 -0.0583 0.1704
C8A C -0.0814(3) 0.1623(2) 0.09423(18)
H6A H -0.1620 0.1558 0.0526
C9A C 0.20865(18) 0.61382(18) 0.28222(14)
H7A H 0.1463 0.6839 0.3182
C10A C 0.20482(16) 0.46548(17) 0.32221(13)
C11A C -0.0650(2) 0.2981(2) 0.08551(17)
H8A H -0.1351 0.3853 0.0378
C12A C 0.0523(2) 0.30867(19) 0.14545(15)
H9A H 0.0630 0.4027 0.1383
C13A C -0.3512(2) 0.4131(3) 0.4267(2)
H10A H -0.3806 0.4747 0.4841
H11A H -0.4024 0.4694 0.3448
C14A C -0.1363(3) 0.2165(2) 0.4346(2)
H12A H -0.0683 0.1949 0.3701
H13A H -0.0841 0.1669 0.5169
C15A C -0.2689(4) 0.1655(3) 0.4255(2)
H14A H -0.2522 0.0621 0.4763
H15A H -0.2940 0.1745 0.3387
C16A C -0.3859(3) 0.2709(3) 0.4759(2)
H16A H -0.3803 0.2392 0.5675
H17A H -0.4840 0.2796 0.4452
C17A C -0.2946(10) 0.8378(9) 0.0887(7)
H18A H -0.2378 0.9058 0.0516
H19A H -0.3514 0.8270 0.0224
C18A C -0.3925(10) 0.8902(14) 0.1858(6)
H20A H -0.4769 0.8517 0.1958
H21A H -0.4282 0.9993 0.1633
C19A C -0.2979(3) 0.8297(3) 0.2972(2)
H22A H -0.3555 0.8133 0.3711
H23A H -0.2443 0.8985 0.3031
C20A C -0.1985(3) 0.6916(3) 0.16488(19)
H24A H -0.0981 0.6738 0.1369
H25A H -0.2351 0.6112 0.1570
Li1A Li -0.1010(3) 0.5195(3) 0.4229(3)
H26A H 0.127(2) 0.334(2) 0.4256(18)
C21? C 0.339(2) 0.1959(19) 0.8969(15)
H27? H 0.4223 0.2352 0.8796
H28? H 0.3322 0.1589 0.9874
C22? C 0.3465(19) 0.0797(15) 0.8334(7)
H29? H 0.4470 0.0124 0.8387
H30? H 0.2806 0.0212 0.8692
H31? H 0.3821 0.1873 0.6553
H32? H 0.2493 0.1196 0.6616
H33? H 0.1136 0.2826 0.8751
H34? H 0.1941 0.4079 0.8394
loop_
_geom_bond_atom_site_label_1
_geom_bond_atom_site_label_2
_geom_bond_site_symmetry_1
_geom_bond_site_symmetry_2
S1 C4 1_555 1_555
O1 C19 1_555 1_555
O2 C13 1_555 1_555
N1 C10 1_555 1_555
C1 H1 1_555 1_555
C2 C1 1_555 1_555
H2 C2 1_555 1_555
C3 C2 1_555 1_555
H3 C3 1_555 1_555
C4 C3 1_555 1_555
C5 S1 1_555 1_555
C6 C5 1_555 1_555
H4 C6 1_555 1_555
C7 C6 1_555 1_555
H5 C7 1_555 1_555
C8 C7 1_555 1_555
H6 C8 1_555 1_555
C9 C1 1_555 1_555
H7 C9 1_555 1_555
C10 C4 1_555 1_555
C11 C8 1_555 1_555
H8 C11 1_555 1_555
C12 C5 1_555 1_555
H9 C12 1_555 1_555
C13 H10 1_555 1_555
H11 C13 1_555 1_555
C14 O2 1_555 1_555
H12 C14 1_555 1_555
H13 C14 1_555 1_555
C15 C14 1_555 1_555
H14 C15 1_555 1_555
H15 C15 1_555 1_555
C16 C13 1_555 1_555
H16 C16 1_555 1_555
H17 C16 1_555 1_555
C17 H18 1_555 1_555
H19 C17 1_555 1_555
C18 C17 1_555 1_555
H20 C18 1_555 1_555
H21 C18 1_555 1_555
C19 C18 1_555 1_555
H22 C19 1_555 1_555
H23 C19 1_555 1_555
C20 O1 1_555 1_555
H24 C20 1_555 1_555
H25 C20 1_555 1_555
Li1 O1 1_555 1_555
H26 N1 1_555 1_555
S1A C4A 1_555 1_555
O1A C19A 1_555 1_555
O2A C13A 1_555 1_555
N1A Li1 1_555 1_555
C1A H1A 1_555 1_555
C2A C1A 1_555 1_555
H2A C2A 1_555 1_555
C3A C2A 1_555 1_555
H3A C3A 1_555 1_555
C4A C3A 1_555 1_555
C5A S1A 1_555 1_555
C6A C5A 1_555 1_555
H4A C6A 1_555 1_555
C7A C6A 1_555 1_555
H5A C7A 1_555 1_555
C8A C7A 1_555 1_555
H6A C8A 1_555 1_555
C9A C1A 1_555 1_555
H7A C9A 1_555 1_555
C10A N1A 1_555 1_555
C11A C8A 1_555 1_555
H8A C11A 1_555 1_555
C12A C5A 1_555 1_555
H9A C12A 1_555 1_555
C13A H10A 1_555 1_555
H11A C13A 1_555 1_555
C14A O2A 1_555 1_555
H12A C14A 1_555 1_555
H13A C14A 1_555 1_555
C15A C14A 1_555 1_555
H14A C15A 1_555 1_555
H15A C15A 1_555 1_555
C16A C13A 1_555 1_555
H16A C16A 1_555 1_555
H17A C16A 1_555 1_555
C17A H18A 1_555 1_555
H19A C17A 1_555 1_555
C18A C17A 1_555 1_555
H20A C18A 1_555 1_555
H21A C18A 1_555 1_555
C19A C18A 1_555 1_555
H22A C19A 1_555 1_555
H23A C19A 1_555 1_555
C20A O1A 1_555 1_555
H24A C20A 1_555 1_555
H25A C20A 1_555 1_555
Li1A N1 1_555 1_555
H26A N1A 1_555 1_555
O2 Li1 1_555 1_555
N1 Li1 1_555 1_555
C9 C10 1_555 1_555
C11 C12 1_555 1_555
C15 C16 1_555 1_555
C17 C20 1_555 1_555
O1A Li1A 1_555 1_555
O2A Li1A 1_555 1_555
N1A Li1A 1_555 1_555
C4A C10A 1_555 1_555
C9A C10A 1_555 1_555
C11A C12A 1_555 1_555
C15A C16A 1_555 1_555
C17A C20A 1_555 1_555

#END
