
#######################################################################
#
#                 Cambridge Crystallographic Data Centre
#                                CCDC 
#
#######################################################################
#
# If this CIF has been generated from an entry in the Cambridge 
# Structural Database, then it will include bibliographic, chemical, 
# crystal, experimental, refinement or atomic coordinate data resulting 
# from the CCDC's data processing and validation procedures.
#
#######################################################################

data_LUXZOV
_chemical_formula_moiety         'C48 H44 F6 N2 O4 S2'
_chemical_name_systematic        
2,8-dioctyl-5,11-bis(4-(trifluoromethyl)phenyl)[1]benzothieno[4,5,6,7-lmn]thieno[3,2-f][3,8]phenanthroline-1,3,7,9(2H,8H)-tetrone
_symmetry_cell_setting           triclinic
_symmetry_space_group_name_H-M   'P -1'
_symmetry_Int_Tables_number      2
_space_group_name_Hall           '-P 1'
loop_
_symmetry_equiv_pos_site_id
_symmetry_equiv_pos_as_xyz
1 x,y,z
2 -x,-y,-z
_cell_length_a                   4.7594(16)
_cell_length_b                   13.444(3)
_cell_length_c                   16.816(6)
_cell_angle_alpha                107.754(14)
_cell_angle_beta                 95.034(16)
_cell_angle_gamma                90.919(19)
_cell_volume                     1019.74
_exptl_crystal_colour            red
_exptl_crystal_description       pillar
_cell_formula_units_Z            1
loop_
_atom_site_label
_atom_site_type_symbol
_atom_site_fract_x
_atom_site_fract_y
_atom_site_fract_z
S1 S 0.0504(6) 0.7263(2) 0.66744(17)
C1 C -0.085(3) 0.7096(10) 0.5127(8)
H1 H -0.1807 0.7203 0.4641
F1 F -0.6669(8) 1.2034(3) 0.6828(3)
F2 F -1.0586(8) 1.1174(3) 0.6342(3)
F3 F -0.9043(9) 1.1456(3) 0.7634(3)
O1 O -0.0449(9) 0.6016(3) 0.3337(3)
O2 O 0.6213(10) 0.3667(4) 0.2467(3)
N1 N 0.2922(11) 0.4863(4) 0.2895(3)
C2 C 0.1513(13) 0.5532(5) 0.3523(4)
C3 C 0.2476(12) 0.5618(5) 0.4399(4)
C4 C 0.4589(12) 0.4969(4) 0.4572(3)
C5 C 0.5827(12) 0.4268(5) 0.3915(4)
C6 C 0.5044(13) 0.4225(5) 0.3032(4)
C7 C 0.1258(12) 0.6324(5) 0.5054(4)
C8 C 0.2107(13) 0.6379(5) 0.5907(4)
C9 C -0.1420(13) 0.7652(5) 0.5888(4)
C10 C -0.3296(12) 0.8521(5) 0.6148(4)
C11 C -0.3364(13) 0.9088(5) 0.6985(4)
H2 H -0.2242 0.8889 0.7403
C12 C -0.5040(15) 0.9938(5) 0.7223(4)
H3 H -0.5071 1.0318 0.7800
C13 C -0.6673(12) 1.0233(5) 0.6617(4)
C14 C -0.6707(13) 0.9658(5) 0.5786(4)
H4 H -0.7893 0.9841 0.5373
C15 C -0.5013(12) 0.8813(5) 0.5553(4)
H5 H -0.5023 0.8425 0.4977
C16 C -0.8240(15) 1.1222(5) 0.6853(5)
C17 C 0.2102(15) 0.4842(5) 0.2025(4)
H6 H 0.0017 0.4819 0.1925
H7 H 0.2791 0.4204 0.1633
C18 C 0.3334(15) 0.5806(5) 0.1859(4)
H8 H 0.5419 0.5786 0.1899
H9 H 0.2827 0.6442 0.2294
C19 C 0.2245(14) 0.5867(5) 0.0993(4)
H10 H 0.2905 0.5264 0.0556
H11 H 0.0155 0.5820 0.0934
C20 C 0.3245(15) 0.6871(5) 0.0855(4)
H12 H 0.5325 0.6878 0.0855
H13 H 0.2776 0.7469 0.1330
C21 C 0.1957(15) 0.7020(5) 0.0040(4)
H14 H 0.2552 0.6453 -0.0438
H15 H -0.0126 0.6958 0.0019
C22 C 0.2791(15) 0.8061(5) -0.0062(4)
H16 H 0.4862 0.8103 -0.0079
H17 H 0.2314 0.8627 0.0435
C23 C 0.1370(16) 0.8245(5) -0.0843(4)
H18 H -0.0697 0.8249 -0.0810
H19 H 0.1751 0.7659 -0.1339
C24 C 0.2359(18) 0.9265(6) -0.0962(5)
H20 H 0.1371 0.9341 -0.1475
H21 H 0.1947 0.9851 -0.0480
H22 H 0.4397 0.9261 -0.1008
S1A S 0.9496(6) 0.2737(2) 0.33256(17)
C1A C 1.085(3) 0.2904(10) 0.4873(8)
H1A H 1.1807 0.2797 0.5359
F1A F 1.6669(8) -0.2034(3) 0.3172(3)
F2A F 2.0586(8) -0.1174(3) 0.3658(3)
F3A F 1.9043(9) -0.1456(3) 0.2366(3)
O1A O 1.0449(9) 0.3984(3) 0.6663(3)
O2A O 0.3787(10) 0.6333(4) 0.7533(3)
N1A N 0.7078(11) 0.5137(4) 0.7105(3)
C2A C 0.8487(13) 0.4468(5) 0.6477(4)
C3A C 0.7524(12) 0.4382(5) 0.5601(4)
C4A C 0.5411(12) 0.5031(4) 0.5428(3)
C5A C 0.4173(12) 0.5732(5) 0.6085(4)
C6A C 0.4956(13) 0.5775(5) 0.6968(4)
C7A C 0.8742(12) 0.3676(5) 0.4946(4)
C8A C 0.7893(13) 0.3621(5) 0.4093(4)
C9A C 1.1420(13) 0.2348(5) 0.4112(4)
C10A C 1.3296(12) 0.1479(5) 0.3852(4)
C11A C 1.3364(13) 0.0912(5) 0.3015(4)
H2A H 1.2242 0.1111 0.2597
C12A C 1.5040(15) 0.0062(5) 0.2777(4)
H3A H 1.5071 -0.0318 0.2200
C13A C 1.6673(12) -0.0233(5) 0.3383(4)
C14A C 1.6707(13) 0.0342(5) 0.4214(4)
H4A H 1.7893 0.0159 0.4627
C15A C 1.5013(12) 0.1187(5) 0.4447(4)
H5A H 1.5023 0.1575 0.5023
C16A C 1.8240(15) -0.1222(5) 0.3147(5)
C17A C 0.7898(15) 0.5158(5) 0.7975(4)
H6A H 0.9983 0.5181 0.8075
H7A H 0.7209 0.5796 0.8367
C18A C 0.6666(15) 0.4194(5) 0.8141(4)
H8A H 0.4581 0.4214 0.8101
H9A H 0.7173 0.3558 0.7706
C19A C 0.7755(14) 0.4133(5) 0.9007(4)
H10A H 0.7095 0.4736 0.9444
H11A H 0.9845 0.4180 0.9066
C20A C 0.6755(15) 0.3129(5) 0.9145(4)
H12A H 0.4675 0.3122 0.9145
H13A H 0.7224 0.2531 0.8670
C21A C 0.8043(15) 0.2980(5) 0.9960(4)
H14A H 0.7448 0.3547 1.0438
H15A H 1.0126 0.3042 0.9981
C22A C 0.7209(15) 0.1939(5) 1.0062(4)
H16A H 0.5138 0.1897 1.0079
H17A H 0.7686 0.1373 0.9565
C23A C 0.8630(16) 0.1755(5) 1.0843(4)
H18A H 1.0697 0.1751 1.0810
H19A H 0.8249 0.2341 1.1339
C24A C 0.7641(18) 0.0735(6) 1.0962(5)
H20A H 0.8629 0.0659 1.1475
H21A H 0.8053 0.0149 1.0480
H22A H 0.5603 0.0739 1.1008
S2? S -0.1241(14) 0.7117(5) 0.4802(4)
C25? C 0.034(5) 0.7239(18) 0.6282(14)
H23? H 0.0531 0.7513 0.6877
loop_
_geom_bond_atom_site_label_1
_geom_bond_atom_site_label_2
_geom_bond_site_symmetry_1
_geom_bond_site_symmetry_2
S1 C8 1_555 1_555
C1 H1 1_555 1_555
F1 C16 1_555 1_555
F2 C16 1_555 1_555
F3 C16 1_555 1_555
O1 C2 1_555 1_555
O2 C6 1_555 1_555
N1 C2 1_555 1_555
C2 C3 1_555 1_555
C3 C4 1_555 1_555
C4 C5 1_555 1_555
C5 C6 1_555 1_555
C6 N1 1_555 1_555
C7 C1 1_555 1_555
C8 C7 1_555 1_555
C9 S1 1_555 1_555
C10 C9 1_555 1_555
C11 C10 1_555 1_555
H2 C11 1_555 1_555
C12 C11 1_555 1_555
H3 C12 1_555 1_555
C13 C12 1_555 1_555
C14 C13 1_555 1_555
H4 C14 1_555 1_555
C15 C10 1_555 1_555
H5 C15 1_555 1_555
C16 C13 1_555 1_555
C17 N1 1_555 1_555
H6 C17 1_555 1_555
H7 C17 1_555 1_555
C18 C17 1_555 1_555
H8 C18 1_555 1_555
H9 C18 1_555 1_555
C19 C18 1_555 1_555
H10 C19 1_555 1_555
H11 C19 1_555 1_555
C20 C19 1_555 1_555
H12 C20 1_555 1_555
H13 C20 1_555 1_555
C21 C20 1_555 1_555
H14 C21 1_555 1_555
H15 C21 1_555 1_555
C22 C21 1_555 1_555
H16 C22 1_555 1_555
H17 C22 1_555 1_555
C23 C22 1_555 1_555
H18 C23 1_555 1_555
H19 C23 1_555 1_555
C24 C23 1_555 1_555
H20 C24 1_555 1_555
H21 C24 1_555 1_555
H22 C24 1_555 1_555
S1A C8A 1_555 1_555
C1A H1A 1_555 1_555
F1A C16A 1_555 1_555
F2A C16A 1_555 1_555
F3A C16A 1_555 1_555
O1A C2A 1_555 1_555
O2A C6A 1_555 1_555
N1A C2A 1_555 1_555
C2A C3A 1_555 1_555
C3A C4A 1_555 1_555
C4A C4 1_555 1_555
C5A C8 1_555 1_555
C6A N1A 1_555 1_555
C7A C1A 1_555 1_555
C8A C5 1_555 1_555
C9A S1A 1_555 1_555
C10A C9A 1_555 1_555
C11A C10A 1_555 1_555
H2A C11A 1_555 1_555
C12A C11A 1_555 1_555
H3A C12A 1_555 1_555
C13A C12A 1_555 1_555
C14A C13A 1_555 1_555
H4A C14A 1_555 1_555
C15A C10A 1_555 1_555
H5A C15A 1_555 1_555
C16A C13A 1_555 1_555
C17A N1A 1_555 1_555
H6A C17A 1_555 1_555
H7A C17A 1_555 1_555
C18A C17A 1_555 1_555
H8A C18A 1_555 1_555
H9A C18A 1_555 1_555
C19A C18A 1_555 1_555
H10A C19A 1_555 1_555
H11A C19A 1_555 1_555
C20A C19A 1_555 1_555
H12A C20A 1_555 1_555
H13A C20A 1_555 1_555
C21A C20A 1_555 1_555
H14A C21A 1_555 1_555
H15A C21A 1_555 1_555
C22A C21A 1_555 1_555
H16A C22A 1_555 1_555
H17A C22A 1_555 1_555
C23A C22A 1_555 1_555
H18A C23A 1_555 1_555
H19A C23A 1_555 1_555
C24A C23A 1_555 1_555
H20A C24A 1_555 1_555
H21A C24A 1_555 1_555
H22A C24A 1_555 1_555
C1 C9 1_555 1_555
C3 C7 1_555 1_555
C14 C15 1_555 1_555
C1A C9A 1_555 1_555
C3A C7A 1_555 1_555
C4A C5A 1_555 1_555
C5A C6A 1_555 1_555
C7A C8A 1_555 1_555
C14A C15A 1_555 1_555

#END
