
#######################################################################
#
#                 Cambridge Crystallographic Data Centre
#                                CCDC 
#
#######################################################################
#
# If this CIF has been generated from an entry in the Cambridge 
# Structural Database, then it will include bibliographic, chemical, 
# crystal, experimental, refinement or atomic coordinate data resulting 
# from the CCDC's data processing and validation procedures.
#
#######################################################################

data_LUYHIX
_chemical_formula_moiety         'C92 H116 O8'
_chemical_name_systematic        
7,12,13,18,25,30,31,36-octakis(Hexyloxy)nonacyclo[22.12.4.4^6,19^.0^9,43^.0^10,15^.0^16,42^.0^27,39^.0^28,33^.0^34,38^]tetratetraconta-1(36),6,8,10,12,14,16,18,24,26,28,30,32,34,37,39,41,43-octadecaene-2,4,20,22-tetrayne
_symmetry_cell_setting           monoclinic
_symmetry_space_group_name_H-M   'P 21/a'
_symmetry_Int_Tables_number      14
_space_group_name_Hall           '-P 2yab'
loop_
_symmetry_equiv_pos_site_id
_symmetry_equiv_pos_as_xyz
1 x,y,z
2 1/2-x,1/2+y,-z
3 -x,-y,-z
4 1/2+x,1/2-y,z
_cell_length_a                   8.8608(6)
_cell_length_b                   27.2688(16)
_cell_length_c                   16.3205(12)
_cell_angle_alpha                90
_cell_angle_beta                 95.592(2)
_cell_angle_gamma                90
_cell_volume                     3924.65
_exptl_crystal_colour            yellow
_exptl_crystal_description       plate
_cell_formula_units_Z            2
loop_
_atom_site_label
_atom_site_type_symbol
_atom_site_fract_x
_atom_site_fract_y
_atom_site_fract_z
C1 C 0.4442(3) 0.33936(11) 0.44152(19)
C2 C 0.5304(3) 0.36890(11) 0.4983(2)
H1 H 0.5193 0.4027 0.4938
C3 C 0.6307(3) 0.35062(10) 0.56069(19)
C4 C 0.7064(4) 0.38561(11) 0.6157(2)
C5 C 0.7471(3) 0.42332(11) 0.6494(2)
C6 C 0.4596(3) 0.28773(10) 0.4494(2)
C7 C 0.5653(3) 0.26894(10) 0.51247(19)
H2 H 0.5784 0.2352 0.5172
C8 C 0.6489(3) 0.29926(11) 0.56687(19)
O1 O 0.7526(2) 0.28464(7) 0.62959(14)
C9 C 0.7735(4) 0.23299(11) 0.6461(2)
H3 H 0.8136 0.2167 0.6000
H4 H 0.6780 0.2177 0.6558
C10 C 0.8847(4) 0.22980(12) 0.7221(2)
H5 H 0.9804 0.2439 0.7097
H6 H 0.8469 0.2495 0.7652
C11 C 0.9137(4) 0.17847(13) 0.7544(2)
H7 H 0.9172 0.1564 0.7080
H8 H 0.8292 0.1686 0.7842
C12 C 1.0622(15) 0.1727(3) 0.8119(7)
H9 H 1.0714 0.1390 0.8310
H10 H 1.1481 0.1798 0.7814
C13 C 1.0649(16) 0.2064(5) 0.8848(7)
H11 H 0.9716 0.2029 0.9107
H12 H 1.0722 0.2401 0.8667
C14 C 1.199(4) 0.1943(11) 0.946(2)
H13 H 1.2020 0.2169 0.9913
H14 H 1.2905 0.1969 0.9197
H15 H 1.1882 0.1615 0.9660
C15 C 0.3646(3) 0.25638(10) 0.39249(19)
C16 C 0.3744(3) 0.20449(11) 0.3974(2)
H16 H 0.4417 0.1902 0.4378
C17 C 0.2868(3) 0.17503(10) 0.34405(19)
O2 O 0.2886(2) 0.12484(7) 0.34415(13)
C18 C 0.3881(4) 0.10066(10) 0.4061(2)
H17 H 0.3565 0.1072 0.4603
H18 H 0.4911 0.1124 0.4046
C19 C 0.3798(4) 0.04636(10) 0.3881(2)
H19 H 0.4587 0.0300 0.4234
H20 H 0.4015 0.0412 0.3316
C20 C 0.2289(4) 0.02213(11) 0.4000(2)
H21 H 0.1486 0.0387 0.3660
H22 H 0.2083 0.0256 0.4570
C21 C 0.2284(4) -0.03252(11) 0.3773(2)
H23 H 0.1279 -0.0457 0.3819
H24 H 0.2491 -0.0356 0.3202
C22 C 0.3431(4) -0.06310(11) 0.4304(2)
H25 H 0.4436 -0.0497 0.4267
H26 H 0.3212 -0.0607 0.4873
C23 C 0.3424(4) -0.11660(11) 0.4054(2)
H27 H 0.4164 -0.1342 0.4409
H28 H 0.3665 -0.1193 0.3495
H29 H 0.2437 -0.1303 0.4100
C24 C 0.2620(3) 0.27745(10) 0.33145(19)
C25 C 0.1734(3) 0.24608(11) 0.2771(2)
H30 H 0.1047 0.2598 0.2367
C26 C 0.1856(4) 0.19613(11) 0.2820(2)
O3 O 0.1053(2) 0.16382(7) 0.23063(13)
C27 C 0.0000(4) 0.18364(11) 0.1668(2)
H31 H 0.0523 0.2053 0.1319
H32 H -0.0778 0.2023 0.1908
C28 C -0.0706(4) 0.14171(11) 0.1171(2)
H33 H -0.1110 0.1182 0.1538
H34 H 0.0068 0.1253 0.0890
C29 C -0.1973(4) 0.15877(11) 0.0538(2)
H35 H -0.2804 0.1711 0.0825
H36 H -0.1602 0.1857 0.0225
C30 C -0.2569(4) 0.11860(13) -0.0054(2)
H37 H -0.1736 0.1062 -0.0338
H38 H -0.2943 0.0918 0.0260
C31 C -0.3829(4) 0.13543(14) -0.0690(2)
H39 H -0.3478 0.1636 -0.0981
H40 H -0.4689 0.1458 -0.0408
C32 C -0.4348(5) 0.09581(17) -0.1314(3)
H41 H -0.5142 0.1085 -0.1698
H42 H -0.4720 0.0681 -0.1032
H43 H -0.3508 0.0859 -0.1605
C33 C 0.2473(3) 0.33074(11) 0.32326(19)
C34 C 0.1447(3) 0.35298(11) 0.2623(2)
H44 H 0.0841 0.3332 0.2262
C35 C 0.1327(3) 0.40316(11) 0.25501(19)
O4 O 0.0358(2) 0.42696(7) 0.19818(13)
C36 C -0.0727(4) 0.39800(11) 0.1476(2)
H45 H -0.1272 0.3764 0.1816
H46 H -0.0215 0.3781 0.1095
C37 C -0.1813(4) 0.43323(11) 0.10091(19)
H47 H -0.2482 0.4149 0.0614
H48 H -0.1239 0.4560 0.0704
C38 C -0.2769(4) 0.46220(12) 0.1565(2)
H49 H -0.2119 0.4852 0.1887
H50 H -0.3184 0.4398 0.1946
C39 C -0.4064(4) 0.49034(12) 0.1100(2)
H51 H -0.3647 0.5130 0.0723
H52 H -0.4708 0.4674 0.0774
C40 C -0.5026(4) 0.51880(15) 0.1651(2)
H53 H -0.4420 0.5450 0.1917
H54 H -0.5325 0.4971 0.2078
C41 C -0.6449(4) 0.54095(15) 0.1191(2)
H55 H -0.7007 0.5586 0.1571
H56 H -0.7071 0.5152 0.0939
H57 H -0.6163 0.5629 0.0773
C42 C 0.3394(3) 0.36087(10) 0.37685(19)
C43 C 0.3256(3) 0.41191(11) 0.3674(2)
H58 H 0.3872 0.4320 0.4025
C44 C 0.2248(3) 0.43364(10) 0.30841(19)
C45 C 0.2146(3) 0.48620(12) 0.3086(2)
C46 C 0.7758(4) 0.47038(11) 0.6765(2)
C1B C 0.5558(3) 0.66064(11) 0.55848(19)
C2B C 0.4696(3) 0.63110(11) 0.5017(2)
H1B H 0.4807 0.5973 0.5062
C3B C 0.3693(3) 0.64938(10) 0.43931(19)
C4B C 0.2936(4) 0.61439(11) 0.3843(2)
C5B C 0.2529(3) 0.57668(11) 0.3506(2)
C6B C 0.5404(3) 0.71227(10) 0.5506(2)
C7B C 0.4347(3) 0.73106(10) 0.48753(19)
H2B H 0.4216 0.7648 0.4828
C8B C 0.3511(3) 0.70074(11) 0.43313(19)
O1B O 0.2474(2) 0.71536(7) 0.37041(14)
C9B C 0.2265(4) 0.76701(11) 0.3539(2)
H3B H 0.1864 0.7833 0.4000
H4B H 0.3220 0.7823 0.3442
C10B C 0.1153(4) 0.77020(12) 0.2779(2)
H5B H 0.0196 0.7561 0.2903
H6B H 0.1531 0.7505 0.2348
C11B C 0.0863(4) 0.82153(13) 0.2456(2)
H7B H 0.0828 0.8436 0.2920
H8B H 0.1708 0.8314 0.2158
C12B C -0.0622(15) 0.8273(3) 0.1881(7)
H9B H -0.0714 0.8610 0.1690
H10B H -0.1481 0.8202 0.2186
C13B C -0.0649(16) 0.7936(5) 0.1152(7)
H11B H 0.0284 0.7971 0.0893
H12B H -0.0722 0.7599 0.1333
C14B C -0.199(4) 0.8057(11) 0.054(2)
H13B H -0.2020 0.7831 0.0087
H14B H -0.2905 0.8031 0.0803
H15B H -0.1882 0.8385 0.0340
C15B C 0.6354(3) 0.74362(10) 0.60751(19)
C16B C 0.6256(3) 0.79551(11) 0.6026(2)
H16B H 0.5583 0.8098 0.5622
C17B C 0.7132(3) 0.82497(10) 0.65595(19)
O2B O 0.7114(2) 0.87516(7) 0.65585(13)
C18B C 0.6119(4) 0.89934(10) 0.5939(2)
H17B H 0.6435 0.8928 0.5397
H18B H 0.5089 0.8876 0.5954
C19B C 0.6202(4) 0.95364(10) 0.6119(2)
H19B H 0.5413 0.9700 0.5766
H20B H 0.5985 0.9588 0.6684
C20B C 0.7711(4) 0.97787(11) 0.6000(2)
H21B H 0.8514 0.9613 0.6340
H22B H 0.7917 0.9744 0.5430
C21B C 0.7716(4) 1.03252(11) 0.6227(2)
H23B H 0.8721 1.0457 0.6181
H24B H 0.7509 1.0356 0.6798
C22B C 0.6569(4) 1.06310(11) 0.5696(2)
H25B H 0.5564 1.0497 0.5733
H26B H 0.6788 1.0607 0.5127
C23B C 0.6576(4) 1.11660(11) 0.5946(2)
H27B H 0.5836 1.1342 0.5591
H28B H 0.6335 1.1193 0.6505
H29B H 0.7563 1.1303 0.5900
C24B C 0.7380(3) 0.72255(10) 0.66855(19)
C25B C 0.8266(3) 0.75392(11) 0.7229(2)
H30B H 0.8953 0.7402 0.7633
C26B C 0.8144(4) 0.80387(11) 0.7180(2)
O3B O 0.8947(2) 0.83618(7) 0.76937(13)
C27B C 1.0000(4) 0.81636(11) 0.8332(2)
H31B H 0.9477 0.7947 0.8681
H32B H 1.0778 0.7977 0.8092
C28B C 1.0706(4) 0.85829(11) 0.8829(2)
H33B H 1.1110 0.8818 0.8462
H34B H 0.9932 0.8747 0.9110
C29B C 1.1973(4) 0.84123(11) 0.9462(2)
H35B H 1.2804 0.8289 0.9175
H36B H 1.1602 0.8143 0.9775
C30B C 1.2569(4) 0.88140(13) 1.0054(2)
H37B H 1.1736 0.8938 1.0338
H38B H 1.2943 0.9082 0.9740
C31B C 1.3829(4) 0.86457(14) 1.0690(2)
H39B H 1.3478 0.8364 1.0981
H40B H 1.4689 0.8542 1.0408
C32B C 1.4348(5) 0.90419(17) 1.1314(3)
H41B H 1.5142 0.8915 1.1698
H42B H 1.4720 0.9319 1.1032
H43B H 1.3508 0.9141 1.1605
C33B C 0.7527(3) 0.66926(11) 0.67674(19)
C34B C 0.8553(3) 0.64702(11) 0.7377(2)
H44B H 0.9159 0.6668 0.7738
C35B C 0.8673(3) 0.59684(11) 0.74499(19)
O4B O 0.9642(2) 0.57304(7) 0.80182(13)
C36B C 1.0727(4) 0.60200(11) 0.8524(2)
H45B H 1.1272 0.6236 0.8184
H46B H 1.0215 0.6219 0.8905
C37B C 1.1813(4) 0.56677(11) 0.89909(19)
H47B H 1.2482 0.5851 0.9386
H48B H 1.1239 0.5440 0.9296
C38B C 1.2769(4) 0.53780(12) 0.8435(2)
H49B H 1.2119 0.5148 0.8113
H50B H 1.3184 0.5602 0.8054
C39B C 1.4064(4) 0.50966(12) 0.8900(2)
H51B H 1.3647 0.4870 0.9277
H52B H 1.4708 0.5326 0.9226
C40B C 1.5026(4) 0.48120(15) 0.8349(2)
H53B H 1.4420 0.4550 0.8083
H54B H 1.5325 0.5029 0.7922
C41B C 1.6449(4) 0.45905(15) 0.8809(2)
H55B H 1.7007 0.4414 0.8429
H56B H 1.7071 0.4848 0.9061
H57B H 1.6163 0.4371 0.9227
C42B C 0.6606(3) 0.63913(10) 0.62315(19)
C43B C 0.6744(3) 0.58809(11) 0.6326(2)
H58B H 0.6128 0.5680 0.5975
C44B C 0.7752(3) 0.56636(10) 0.69159(19)
C45B C 0.7854(3) 0.51380(12) 0.6914(2)
C46B C 0.2242(4) 0.52962(11) 0.3235(2)
C47? C 0.9137(4) 0.17847(13) 0.7544(2)
C48? C 0.9787(16) 0.1788(4) 0.8488(8)
C49? C 1.1368(18) 0.1997(4) 0.8575(9)
C50? C 1.213(5) 0.2013(12) 0.949(3)
H59? H 0.9857 0.1623 0.7223
H60? H 0.8198 0.1600 0.7482
H61? H 0.9136 0.1984 0.8802
H62? H 0.9804 0.1456 0.8703
H63? H 1.1334 0.2327 0.8354
H64? H 1.1998 0.1801 0.8246
H65? H 1.3150 0.2136 0.9489
H66? H 1.2160 0.1689 0.9715
H67? H 1.1561 0.2225 0.9809
loop_
_geom_bond_atom_site_label_1
_geom_bond_atom_site_label_2
_geom_bond_site_symmetry_1
_geom_bond_site_symmetry_2
C1 C2 1_555 1_555
C2 H1 1_555 1_555
C3 C2 1_555 1_555
C4 C3 1_555 1_555
C5 C4 1_555 1_555
C6 C1 1_555 1_555
C7 C6 1_555 1_555
H2 C7 1_555 1_555
C8 C3 1_555 1_555
O1 C8 1_555 1_555
C9 O1 1_555 1_555
H3 C9 1_555 1_555
H4 C9 1_555 1_555
C10 C9 1_555 1_555
H5 C10 1_555 1_555
H6 C10 1_555 1_555
C11 C10 1_555 1_555
H7 C11 1_555 1_555
H8 C11 1_555 1_555
C12 C11 1_555 1_555
H9 C12 1_555 1_555
H10 C12 1_555 1_555
C13 C12 1_555 1_555
H11 C13 1_555 1_555
H12 C13 1_555 1_555
C14 C13 1_555 1_555
H13 C14 1_555 1_555
H14 C14 1_555 1_555
H15 C14 1_555 1_555
C15 C6 1_555 1_555
C16 C15 1_555 1_555
H16 C16 1_555 1_555
C17 C16 1_555 1_555
O2 C17 1_555 1_555
C18 O2 1_555 1_555
H17 C18 1_555 1_555
H18 C18 1_555 1_555
C19 C18 1_555 1_555
H19 C19 1_555 1_555
H20 C19 1_555 1_555
C20 C19 1_555 1_555
H21 C20 1_555 1_555
H22 C20 1_555 1_555
C21 C20 1_555 1_555
H23 C21 1_555 1_555
H24 C21 1_555 1_555
C22 C21 1_555 1_555
H25 C22 1_555 1_555
H26 C22 1_555 1_555
C23 C22 1_555 1_555
H27 C23 1_555 1_555
H28 C23 1_555 1_555
H29 C23 1_555 1_555
C24 C15 1_555 1_555
C25 C24 1_555 1_555
H30 C25 1_555 1_555
C26 C17 1_555 1_555
O3 C26 1_555 1_555
C27 O3 1_555 1_555
H31 C27 1_555 1_555
H32 C27 1_555 1_555
C28 C27 1_555 1_555
H33 C28 1_555 1_555
H34 C28 1_555 1_555
C29 C28 1_555 1_555
H35 C29 1_555 1_555
H36 C29 1_555 1_555
C30 C29 1_555 1_555
H37 C30 1_555 1_555
H38 C30 1_555 1_555
C31 C30 1_555 1_555
H39 C31 1_555 1_555
H40 C31 1_555 1_555
C32 C31 1_555 1_555
H41 C32 1_555 1_555
H42 C32 1_555 1_555
H43 C32 1_555 1_555
C33 C24 1_555 1_555
C34 C33 1_555 1_555
H44 C34 1_555 1_555
C35 C34 1_555 1_555
O4 C35 1_555 1_555
C36 O4 1_555 1_555
H45 C36 1_555 1_555
H46 C36 1_555 1_555
C37 C36 1_555 1_555
H47 C37 1_555 1_555
H48 C37 1_555 1_555
C38 C37 1_555 1_555
H49 C38 1_555 1_555
H50 C38 1_555 1_555
C39 C38 1_555 1_555
H51 C39 1_555 1_555
H52 C39 1_555 1_555
C40 C39 1_555 1_555
H53 C40 1_555 1_555
H54 C40 1_555 1_555
C41 C40 1_555 1_555
H55 C41 1_555 1_555
H56 C41 1_555 1_555
H57 C41 1_555 1_555
C42 C1 1_555 1_555
C43 C42 1_555 1_555
H58 C43 1_555 1_555
C44 C35 1_555 1_555
C45 C44 1_555 1_555
C46 C5 1_555 1_555
C1B C2B 1_555 1_555
C2B H1B 1_555 1_555
C3B C2B 1_555 1_555
C4B C3B 1_555 1_555
C5B C4B 1_555 1_555
C6B C1B 1_555 1_555
C7B C6B 1_555 1_555
H2B C7B 1_555 1_555
C8B C3B 1_555 1_555
O1B C8B 1_555 1_555
C9B O1B 1_555 1_555
H3B C9B 1_555 1_555
H4B C9B 1_555 1_555
C10B C9B 1_555 1_555
H5B C10B 1_555 1_555
H6B C10B 1_555 1_555
C11B C10B 1_555 1_555
H7B C11B 1_555 1_555
H8B C11B 1_555 1_555
C12B C11B 1_555 1_555
H9B C12B 1_555 1_555
H10B C12B 1_555 1_555
C13B C12B 1_555 1_555
H11B C13B 1_555 1_555
H12B C13B 1_555 1_555
C14B C13B 1_555 1_555
H13B C14B 1_555 1_555
H14B C14B 1_555 1_555
H15B C14B 1_555 1_555
C15B C6B 1_555 1_555
C16B C15B 1_555 1_555
H16B C16B 1_555 1_555
C17B C16B 1_555 1_555
O2B C17B 1_555 1_555
C18B O2B 1_555 1_555
H17B C18B 1_555 1_555
H18B C18B 1_555 1_555
C19B C18B 1_555 1_555
H19B C19B 1_555 1_555
H20B C19B 1_555 1_555
C20B C19B 1_555 1_555
H21B C20B 1_555 1_555
H22B C20B 1_555 1_555
C21B C20B 1_555 1_555
H23B C21B 1_555 1_555
H24B C21B 1_555 1_555
C22B C21B 1_555 1_555
H25B C22B 1_555 1_555
H26B C22B 1_555 1_555
C23B C22B 1_555 1_555
H27B C23B 1_555 1_555
H28B C23B 1_555 1_555
H29B C23B 1_555 1_555
C24B C15B 1_555 1_555
C25B C24B 1_555 1_555
H30B C25B 1_555 1_555
C26B C17B 1_555 1_555
O3B C26B 1_555 1_555
C27B O3B 1_555 1_555
H31B C27B 1_555 1_555
H32B C27B 1_555 1_555
C28B C27B 1_555 1_555
H33B C28B 1_555 1_555
H34B C28B 1_555 1_555
C29B C28B 1_555 1_555
H35B C29B 1_555 1_555
H36B C29B 1_555 1_555
C30B C29B 1_555 1_555
H37B C30B 1_555 1_555
H38B C30B 1_555 1_555
C31B C30B 1_555 1_555
H39B C31B 1_555 1_555
H40B C31B 1_555 1_555
C32B C31B 1_555 1_555
H41B C32B 1_555 1_555
H42B C32B 1_555 1_555
H43B C32B 1_555 1_555
C33B C24B 1_555 1_555
C34B C33B 1_555 1_555
H44B C34B 1_555 1_555
C35B C34B 1_555 1_555
O4B C35B 1_555 1_555
C36B O4B 1_555 1_555
H45B C36B 1_555 1_555
H46B C36B 1_555 1_555
C37B C36B 1_555 1_555
H47B C37B 1_555 1_555
H48B C37B 1_555 1_555
C38B C37B 1_555 1_555
H49B C38B 1_555 1_555
H50B C38B 1_555 1_555
C39B C38B 1_555 1_555
H51B C39B 1_555 1_555
H52B C39B 1_555 1_555
C40B C39B 1_555 1_555
H53B C40B 1_555 1_555
H54B C40B 1_555 1_555
C41B C40B 1_555 1_555
H55B C41B 1_555 1_555
H56B C41B 1_555 1_555
H57B C41B 1_555 1_555
C42B C1B 1_555 1_555
C43B C42B 1_555 1_555
H58B C43B 1_555 1_555
C44B C35B 1_555 1_555
C45B C46 1_555 1_555
C46B C45 1_555 1_555
C7 C8 1_555 1_555
C25 C26 1_555 1_555
C33 C42 1_555 1_555
C43 C44 1_555 1_555
C5B C46B 1_555 1_555
C7B C8B 1_555 1_555
C25B C26B 1_555 1_555
C33B C42B 1_555 1_555
C43B C44B 1_555 1_555
C44B C45B 1_555 1_555

#END
