
#######################################################################
#
#                 Cambridge Crystallographic Data Centre
#                                CCDC 
#
#######################################################################
#
# If this CIF has been generated from an entry in the Cambridge 
# Structural Database, then it will include bibliographic, chemical, 
# crystal, experimental, refinement or atomic coordinate data resulting 
# from the CCDC's data processing and validation procedures.
#
#######################################################################

data_LUZGOD
_chemical_formula_moiety         'C25 H27 N1 O5'
_chemical_name_systematic        
4-Benzyl-3-((2-(4-methoxyphenyl)-4-(prop-1-en-2-yl)tetrahydrofuran-3-yl)carbonyl)-1,3-oxazolidin-2-one
_symmetry_cell_setting           orthorhombic
_symmetry_space_group_name_H-M   'P 21 21 21'
_symmetry_Int_Tables_number      19
_space_group_name_Hall           'P 2ac 2ab'
loop_
_symmetry_equiv_pos_site_id
_symmetry_equiv_pos_as_xyz
1 x,y,z
2 1/2-x,-y,1/2+z
3 1/2+x,1/2-y,-z
4 -x,1/2+y,1/2-z
_cell_length_a                   29.2090(18)
_cell_length_b                   9.3413(6)
_cell_length_c                   8.1309(5)
_cell_angle_alpha                90
_cell_angle_beta                 90
_cell_angle_gamma                90
_cell_volume                     2218.52
_exptl_crystal_colour            colorless
_exptl_crystal_description       needle
_chemical_melting_point          '121-123 deg.C'
_cell_formula_units_Z            4
loop_
_atom_site_label
_atom_site_type_symbol
_atom_site_fract_x
_atom_site_fract_y
_atom_site_fract_z
O1 O 0.81339(7) 0.7089(2) 0.7389(3)
C1 C 0.82379(10) 0.7852(3) 0.5894(4)
H1 H 0.8065 0.7422 0.4987
C2 C 0.87534(9) 0.7560(3) 0.5627(3)
H2 H 0.8937 0.8179 0.6343
C3 C 0.87877(10) 0.5998(3) 0.6201(4)
H3 H 0.8641 0.5390 0.5372
C4 C 0.84775(10) 0.6055(3) 0.7711(5)
H4 H 0.8340 0.5125 0.7906
H5 H 0.8653 0.6323 0.8676
C5 C 0.92562(11) 0.5403(4) 0.6549(4)
C6 C 0.95948(12) 0.6235(4) 0.7214(6)
H6 H 0.9877 0.5834 0.7469
H7 H 0.9542 0.7202 0.7411
C7 C 0.93208(15) 0.3920(4) 0.6226(5)
H8 H 0.9632 0.3661 0.6470
H9 H 0.9258 0.3729 0.5088
H10 H 0.9117 0.3370 0.6902
C8 C 0.89053(11) 0.7722(3) 0.3871(4)
O2 O 0.87364(9) 0.7027(2) 0.2773(3)
N1 N 0.92707(8) 0.8626(3) 0.3485(3)
C9 C 0.94925(10) 0.9616(4) 0.4480(4)
O3 O 0.94051(8) 0.9961(3) 0.5858(3)
O4 O 0.98428(7) 1.0178(3) 0.3633(3)
C10 C 0.98987(12) 0.9458(5) 0.2099(5)
H11 H 1.0157 0.8807 0.2147
H12 H 0.9952 1.0143 0.1222
C11 C 0.94595(12) 0.8642(4) 0.1800(4)
H13 H 0.9532 0.7661 0.1460
C12 C 0.91405(12) 0.9333(4) 0.0523(4)
H14 H 0.9297 0.9352 -0.0529
H15 H 0.8872 0.8733 0.0401
C13 C 0.89868(10) 1.0832(3) 0.0934(4)
C14 C 0.92136(12) 1.2014(4) 0.0313(5)
H16 H 0.9465 1.1881 -0.0372
C15 C 0.90753(15) 1.3372(4) 0.0687(6)
H17 H 0.9228 1.4155 0.0241
C16 C 0.87122(18) 1.3577(5) 0.1716(5)
H18 H 0.8625 1.4498 0.2017
C17 C 0.84797(15) 1.2430(4) 0.2297(5)
H19 H 0.8225 1.2569 0.2962
C18 C 0.86157(13) 1.1067(4) 0.1914(4)
H20 H 0.8453 1.0292 0.2329
C19 C 0.80954(9) 0.9384(3) 0.6078(4)
C20 C 0.83031(10) 1.0283(3) 0.7217(4)
H21 H 0.8544 0.9934 0.7849
C21 C 0.81638(10) 1.1657(3) 0.7430(4)
H22 H 0.8308 1.2232 0.8207
C22 C 0.78091(10) 1.2210(3) 0.6502(4)
C23 C 0.75942(10) 1.1352(3) 0.5369(4)
H23 H 0.7354 1.1707 0.4738
C24 C 0.77408(9) 0.9948(3) 0.5179(4)
H24 H 0.7593 0.9369 0.4414
O5 O 0.76998(8) 1.3599(2) 0.6819(3)
C25 C 0.73620(12) 1.4259(4) 0.5831(6)
H25 H 0.7077 1.3756 0.5951
H26 H 0.7456 1.4233 0.4700
H27 H 0.7323 1.5236 0.6170
loop_
_geom_bond_atom_site_label_1
_geom_bond_atom_site_label_2
_geom_bond_site_symmetry_1
_geom_bond_site_symmetry_2
O1 C1 1_555 1_555
C1 H1 1_555 1_555
C2 C1 1_555 1_555
H2 C2 1_555 1_555
C3 C2 1_555 1_555
H3 C3 1_555 1_555
C4 O1 1_555 1_555
H4 C4 1_555 1_555
H5 C4 1_555 1_555
C5 C3 1_555 1_555
C6 C5 1_555 1_555
H6 C6 1_555 1_555
H7 C6 1_555 1_555
C7 C5 1_555 1_555
H8 C7 1_555 1_555
H9 C7 1_555 1_555
H10 C7 1_555 1_555
C8 C2 1_555 1_555
O2 C8 1_555 1_555
N1 C8 1_555 1_555
C9 N1 1_555 1_555
O3 C9 1_555 1_555
O4 C9 1_555 1_555
C10 O4 1_555 1_555
H11 C10 1_555 1_555
H12 C10 1_555 1_555
C11 N1 1_555 1_555
H13 C11 1_555 1_555
C12 C11 1_555 1_555
H14 C12 1_555 1_555
H15 C12 1_555 1_555
C13 C12 1_555 1_555
C14 C13 1_555 1_555
H16 C14 1_555 1_555
C15 C14 1_555 1_555
H17 C15 1_555 1_555
C16 C15 1_555 1_555
H18 C16 1_555 1_555
C17 C16 1_555 1_555
H19 C17 1_555 1_555
C18 C13 1_555 1_555
H20 C18 1_555 1_555
C19 C1 1_555 1_555
C20 C19 1_555 1_555
H21 C20 1_555 1_555
C21 C20 1_555 1_555
H22 C21 1_555 1_555
C22 C21 1_555 1_555
C23 C22 1_555 1_555
H23 C23 1_555 1_555
C24 C19 1_555 1_555
H24 C24 1_555 1_555
O5 C22 1_555 1_555
C25 O5 1_555 1_555
H25 C25 1_555 1_555
H26 C25 1_555 1_555
H27 C25 1_555 1_555
C3 C4 1_555 1_555
C10 C11 1_555 1_555
C17 C18 1_555 1_555
C23 C24 1_555 1_555

#END
