
#######################################################################
#
#                 Cambridge Crystallographic Data Centre
#                                CCDC 
#
#######################################################################
#
# If this CIF has been generated from an entry in the Cambridge 
# Structural Database, then it will include bibliographic, chemical, 
# crystal, experimental, refinement or atomic coordinate data resulting 
# from the CCDC's data processing and validation procedures.
#
#######################################################################

data_LUZJOG
_chemical_formula_moiety         'C27 H27 N1 O4 S1'
_chemical_name_systematic        
4-Methoxy-3-(2-methoxyphenyl)-1'-(phenylsulfonyl)spiro[indene-1,4'-piperidine]
_symmetry_cell_setting           triclinic
_symmetry_space_group_name_H-M   'P -1'
_symmetry_Int_Tables_number      2
_space_group_name_Hall           '-P 1'
loop_
_symmetry_equiv_pos_site_id
_symmetry_equiv_pos_as_xyz
1 x,y,z
2 -x,-y,-z
_cell_length_a                   8.474(4)
_cell_length_b                   12.513(6)
_cell_length_c                   12.692(6)
_cell_angle_alpha                65.955(6)
_cell_angle_beta                 89.827(7)
_cell_angle_gamma                74.351(6)
_cell_volume                     1174.69
_exptl_crystal_colour            colorless
_cell_formula_units_Z            2
loop_
_atom_site_label
_atom_site_type_symbol
_atom_site_fract_x
_atom_site_fract_y
_atom_site_fract_z
C1 C 0.2803(2) 0.60082(14) 0.74912(14)
H1 H 0.3660 0.6414 0.7305
H2 H 0.2553 0.5895 0.8269
C2 C 0.12697(19) 0.67841(14) 0.66262(13)
H3 H 0.0899 0.7580 0.6644
H4 H 0.0398 0.6398 0.6852
C3 C 0.15829(18) 0.69558(13) 0.53798(13)
C4 C 0.2314(2) 0.56865(14) 0.53921(14)
H5 H 0.1475 0.5263 0.5552
H6 H 0.2623 0.5785 0.4629
C5 C 0.3813(2) 0.49097(15) 0.62907(13)
H7 H 0.4186 0.4100 0.6303
H8 H 0.4704 0.5280 0.6091
C6 C 0.00017(18) 0.76664(14) 0.45538(13)
C7 C -0.1419(2) 0.73298(16) 0.45229(15)
H9 H -0.1491 0.6569 0.5044
C8 C -0.2727(2) 0.81587(17) 0.36935(17)
H10 H -0.3681 0.7941 0.3642
C9 C -0.2646(2) 0.93001(17) 0.29416(16)
H11 H -0.3552 0.9848 0.2402
C10 C -0.1227(2) 0.96411(15) 0.29810(14)
C11 C 0.01299(18) 0.87962(14) 0.37776(13)
C12 C 0.17968(18) 0.88626(14) 0.40106(14)
C13 C 0.26239(19) 0.78131(14) 0.48923(14)
H12 H 0.3720 0.7630 0.5175
C14 C 0.24151(19) 0.99362(14) 0.34159(14)
C15 C 0.2526(2) 1.03972(15) 0.22222(15)
C16 C 0.3008(2) 1.14379(16) 0.16718(17)
H13 H 0.3053 1.1752 0.0874
C17 C 0.3422(2) 1.20121(17) 0.2302(2)
H14 H 0.3732 1.2721 0.1924
C18 C 0.3383(2) 1.15559(19) 0.3473(2)
H15 H 0.3696 1.1938 0.3896
C19 C 0.2873(2) 1.05134(17) 0.40318(17)
H16 H 0.2841 1.0203 0.4831
C20 C -0.2330(3) 1.16244(18) 0.14588(18)
H17 H -0.2609 1.1281 0.0959
H18 H -0.1981 1.2330 0.1010
H19 H -0.3280 1.1861 0.1818
C21 C 0.2156(4) 1.0198(3) 0.04662(19)
H20 H 0.1359 1.0991 0.0095
H21 H 0.1883 0.9649 0.0197
H22 H 0.3235 1.0263 0.0280
C22 C 0.65631(18) 0.37517(13) 0.84878(13)
C23 C 0.7001(2) 0.45223(16) 0.88804(16)
H23 H 0.6235 0.4984 0.9174
C24 C 0.8594(3) 0.4596(2) 0.8830(2)
H24 H 0.8913 0.5110 0.9091
C25 C 0.9713(3) 0.3906(2) 0.8394(2)
H25 H 1.0789 0.3956 0.8367
C26 C 0.9266(2) 0.3148(2) 0.79987(18)
H26 H 1.0034 0.2691 0.7702
C27 C 0.7677(2) 0.30633(17) 0.80412(15)
H27 H 0.7360 0.2552 0.7774
N1 N 0.33774(15) 0.48139(11) 0.74393(10)
O1 O 0.39578(15) 0.38018(12) 0.95624(10)
O2 O 0.45103(16) 0.25791(11) 0.84295(12)
O3 O -0.10641(16) 1.07622(12) 0.23086(12)
O4 O 0.21418(18) 0.97453(12) 0.16799(11)
S1 S 0.45293(5) 0.36490(3) 0.85610(3)
loop_
_geom_bond_atom_site_label_1
_geom_bond_atom_site_label_2
_geom_bond_site_symmetry_1
_geom_bond_site_symmetry_2
C1 H1 1_555 1_555
H2 C1 1_555 1_555
C2 C1 1_555 1_555
H3 C2 1_555 1_555
H4 C2 1_555 1_555
C3 C2 1_555 1_555
C4 C3 1_555 1_555
H5 C4 1_555 1_555
H6 C4 1_555 1_555
C5 C4 1_555 1_555
H7 C5 1_555 1_555
H8 C5 1_555 1_555
C6 C3 1_555 1_555
C7 C6 1_555 1_555
H9 C7 1_555 1_555
C8 C7 1_555 1_555
H10 C8 1_555 1_555
C9 C8 1_555 1_555
H11 C9 1_555 1_555
C10 C9 1_555 1_555
C11 C6 1_555 1_555
C12 C11 1_555 1_555
C13 C3 1_555 1_555
H12 C13 1_555 1_555
C14 C12 1_555 1_555
C15 C14 1_555 1_555
C16 C15 1_555 1_555
H13 C16 1_555 1_555
C17 C16 1_555 1_555
H14 C17 1_555 1_555
C18 C17 1_555 1_555
H15 C18 1_555 1_555
C19 C14 1_555 1_555
H16 C19 1_555 1_555
C20 H17 1_555 1_555
H18 C20 1_555 1_555
H19 C20 1_555 1_555
C21 H20 1_555 1_555
H21 C21 1_555 1_555
H22 C21 1_555 1_555
C22 C23 1_555 1_555
C23 H23 1_555 1_555
C24 C23 1_555 1_555
H24 C24 1_555 1_555
C25 C24 1_555 1_555
H25 C25 1_555 1_555
C26 C25 1_555 1_555
H26 C26 1_555 1_555
C27 C22 1_555 1_555
H27 C27 1_555 1_555
N1 C1 1_555 1_555
O1 S1 1_555 1_555
O2 S1 1_555 1_555
O3 C10 1_555 1_555
O4 C15 1_555 1_555
S1 C22 1_555 1_555
C5 N1 1_555 1_555
C10 C11 1_555 1_555
C12 C13 1_555 1_555
C18 C19 1_555 1_555
C20 O3 1_555 1_555
C21 O4 1_555 1_555
C26 C27 1_555 1_555
N1 S1 1_555 1_555

#END
