
#######################################################################
#
#                 Cambridge Crystallographic Data Centre
#                                CCDC 
#
#######################################################################
#
# If this CIF has been generated from an entry in the Cambridge 
# Structural Database, then it will include bibliographic, chemical, 
# crystal, experimental, refinement or atomic coordinate data resulting 
# from the CCDC's data processing and validation procedures.
#
#######################################################################

data_LUZREE
_chemical_formula_moiety         'C31 H30 N4 O3'
_chemical_name_systematic        
3',6'-bis(Ethylamino)-2-((2-furylmethylene)amino)-2',7'-dimethylspiro[isoindole-1,9'-xanthen]-3(2H)-one
_symmetry_cell_setting           triclinic
_symmetry_space_group_name_H-M   'P -1'
_symmetry_Int_Tables_number      2
_space_group_name_Hall           '-P 1'
loop_
_symmetry_equiv_pos_site_id
_symmetry_equiv_pos_as_xyz
1 x,y,z
2 -x,-y,-z
_cell_length_a                   9.5265(6)
_cell_length_b                   11.3885(7)
_cell_length_c                   12.5521(7)
_cell_angle_alpha                91.311(3)
_cell_angle_beta                 109.506(3)
_cell_angle_gamma                94.149(3)
_cell_volume                     1278.68
_exptl_crystal_colour            yellow
_exptl_crystal_description       block
_cell_formula_units_Z            2
loop_
_atom_site_label
_atom_site_type_symbol
_atom_site_fract_x
_atom_site_fract_y
_atom_site_fract_z
C1 C 0.0954(2) 0.83955(16) 0.23607(15)
C2 C 0.2042(2) 0.94003(17) 0.22785(15)
C3 C 0.2173(2) 0.97170(17) 0.12591(15)
C4 C -0.0233(2) 0.75562(17) -0.07966(16)
H1 H -0.0089 0.7865 -0.1435
C5 C 0.0470(2) 0.81281(16) 0.02529(15)
C6 C 0.0294(2) 0.77107(17) 0.12289(15)
C7 C 0.2953(2) 1.00841(18) 0.32366(16)
H2 H 0.2887 0.9897 0.3937
C8 C 0.3143(2) 1.06504(17) 0.11783(16)
H3 H 0.3200 1.0834 0.0475
C9 C -0.0628(2) 0.66647(17) 0.10994(16)
H4 H -0.0769 0.6363 0.1742
C10 C 0.3941(2) 1.10166(18) 0.32023(17)
C11 C -0.1152(2) 0.65228(18) -0.09032(16)
C12 C 0.3607(2) 0.70244(18) 0.28127(17)
H5 H 0.3368 0.7522 0.2212
C13 C 0.4030(2) 1.13125(17) 0.21400(17)
C14 C -0.0256(2) 0.83462(18) 0.37587(16)
C15 C 0.4870(2) 0.63301(19) 0.30310(17)
C16 C -0.0270(2) 0.88358(17) 0.27588(15)
C17 C -0.1336(2) 0.60598(17) 0.00805(17)
C18 C 0.0956(2) 0.75677(19) 0.41201(17)
C19 C -0.1313(2) 0.96079(19) 0.22466(17)
H6 H -0.1323 0.9945 0.1577
C20 C -0.2306(2) 0.49381(19) 0.00059(19)
H7 H -0.2314 0.4758 0.0747
H8 H -0.1918 0.4305 -0.0298
H9 H -0.3306 0.5035 -0.0480
C21 C 0.4877(3) 1.1708(2) 0.42601(17)
H10 H 0.4765 1.1329 0.4906
H11 H 0.4561 1.2491 0.4244
H12 H 0.5907 1.1748 0.4309
C22 C -0.1761(3) 0.6340(2) -0.30014(17)
H13 H -0.1765 0.7191 -0.3015
H14 H -0.2622 0.6003 -0.3622
C23 C -0.2337(3) 0.9375(2) 0.3749(2)
H15 H -0.3048 0.9559 0.4070
C24 C -0.1289(3) 0.8615(2) 0.42683(19)
H16 H -0.1272 0.8289 0.4945
C25 C 0.5040(3) 1.2715(2) 0.1022(2)
H17 H 0.5438 1.3534 0.1158
H18 H 0.4028 1.2690 0.0489
C26 C 0.6394(3) 0.5036(2) 0.3957(2)
H19 H 0.6819 0.4477 0.4469
C27 C -0.0378(3) 0.5991(2) -0.3179(2)
H20 H 0.0477 0.6278 -0.2544
H21 H -0.0301 0.6322 -0.3856
H22 H -0.0417 0.5147 -0.3253
C28 C 0.5929(3) 0.6276(3) 0.2544(2)
H23 H 0.6011 0.6689 0.1934
C29 C -0.2341(3) 0.9868(2) 0.27501(19)
H24 H -0.3053 1.0386 0.2413
C30 C 0.5969(3) 1.2054(2) 0.0496(2)
H25 H 0.6982 1.2099 0.1004
H26 H 0.5943 1.2397 -0.0202
H27 H 0.5577 1.1244 0.0348
C31 C 0.6912(3) 0.5435(3) 0.3175(3)
H28 H 0.7767 0.5215 0.3049
N1 N -0.1901(2) 0.59640(17) -0.19402(15)
H29 H -0.2493 0.5350 -0.1964
N2 N 0.4991(2) 1.22564(16) 0.20706(15)
H30 H 0.5596 1.2590 0.2692
N3 N 0.16368(17) 0.76163(14) 0.33016(12)
N4 N 0.28238(18) 0.69439(14) 0.34584(13)
O1 O 0.51280(17) 0.55726(14) 0.38973(13)
O2 O 0.13528(16) 0.91371(12) 0.02420(10)
O3 O 0.13344(18) 0.69943(15) 0.49574(13)
loop_
_geom_bond_atom_site_label_1
_geom_bond_atom_site_label_2
_geom_bond_site_symmetry_1
_geom_bond_site_symmetry_2
C1 C2 1_555 1_555
C2 C3 1_555 1_555
C3 C8 1_555 1_555
C4 H1 1_555 1_555
C5 C4 1_555 1_555
C6 C1 1_555 1_555
C7 C2 1_555 1_555
H2 C7 1_555 1_555
C8 H3 1_555 1_555
C9 C6 1_555 1_555
H4 C9 1_555 1_555
C10 C7 1_555 1_555
C11 C4 1_555 1_555
C12 H5 1_555 1_555
C13 C8 1_555 1_555
C14 C16 1_555 1_555
C15 C12 1_555 1_555
C16 C1 1_555 1_555
C17 C9 1_555 1_555
C18 C14 1_555 1_555
C19 C16 1_555 1_555
H6 C19 1_555 1_555
C20 C17 1_555 1_555
H7 C20 1_555 1_555
H8 C20 1_555 1_555
H9 C20 1_555 1_555
C21 C10 1_555 1_555
H10 C21 1_555 1_555
H11 C21 1_555 1_555
H12 C21 1_555 1_555
C22 H13 1_555 1_555
H14 C22 1_555 1_555
C23 H15 1_555 1_555
C24 C14 1_555 1_555
H16 C24 1_555 1_555
C25 H17 1_555 1_555
H18 C25 1_555 1_555
C26 H19 1_555 1_555
C27 C22 1_555 1_555
H20 C27 1_555 1_555
H21 C27 1_555 1_555
H22 C27 1_555 1_555
C28 C15 1_555 1_555
H23 C28 1_555 1_555
C29 C19 1_555 1_555
H24 C29 1_555 1_555
C30 C25 1_555 1_555
H25 C30 1_555 1_555
H26 C30 1_555 1_555
H27 C30 1_555 1_555
C31 C26 1_555 1_555
H28 C31 1_555 1_555
N1 C11 1_555 1_555
H29 N1 1_555 1_555
N2 C13 1_555 1_555
H30 N2 1_555 1_555
N3 C1 1_555 1_555
N4 C12 1_555 1_555
O1 C15 1_555 1_555
O2 C3 1_555 1_555
O3 C18 1_555 1_555
C5 C6 1_555 1_555
C5 O2 1_555 1_555
C10 C13 1_555 1_555
C11 C17 1_555 1_555
C18 N3 1_555 1_555
C22 N1 1_555 1_555
C23 C24 1_555 1_555
C23 C29 1_555 1_555
C25 N2 1_555 1_555
C26 O1 1_555 1_555
C28 C31 1_555 1_555
N3 N4 1_555 1_555

#END
