
#######################################################################
#
#                 Cambridge Crystallographic Data Centre
#                                CCDC 
#
#######################################################################
#
# If this CIF has been generated from an entry in the Cambridge 
# Structural Database, then it will include bibliographic, chemical, 
# crystal, experimental, refinement or atomic coordinate data resulting 
# from the CCDC's data processing and validation procedures.
#
#######################################################################

data_LUZTEH
_chemical_name_common            '(rac)-leucomidine B'
_chemical_formula_moiety         'C20 H24 N2 O3'
_chemical_name_systematic        
'methyl 3-(11-ethyl-6-oxo-6,8,9,10,11,11a-hexahydro-5H-indolizino[2,1-b]indol-11-yl)propanoate'
_symmetry_cell_setting           triclinic
_symmetry_space_group_name_H-M   'P -1'
_symmetry_Int_Tables_number      2
_space_group_name_Hall           '-P 1'
loop_
_symmetry_equiv_pos_site_id
_symmetry_equiv_pos_as_xyz
1 x,y,z
2 -x,-y,-z
_cell_length_a                   6.2429(4)
_cell_length_b                   8.6082(8)
_cell_length_c                   16.4253(18)
_cell_angle_alpha                92.145(8)
_cell_angle_beta                 100.525(7)
_cell_angle_gamma                94.544(7)
_cell_volume                     863.905
_exptl_crystal_colour            colorless
_exptl_crystal_description       prism
_cell_formula_units_Z            2
_exptl_crystal_recrystallization_method deuterochloroform/deuteromethanol
loop_
_atom_site_label
_atom_site_type_symbol
_atom_site_fract_x
_atom_site_fract_y
_atom_site_fract_z
O1 O 0.2116(2) 0.36513(16) 0.53090(8)
O2 O -0.4409(3) 0.2096(2) 0.03158(10)
O3 O -0.7776(2) 0.15876(18) 0.06110(8)
N1 N -0.0771(2) 0.28701(19) 0.42321(9)
N2 N 0.3907(3) 0.50900(19) 0.37232(10)
H1 H 0.512(4) 0.545(3) 0.4097(15)
C1 C -0.1747(3) 0.1204(2) 0.29316(11)
C2 C -0.3440(3) 0.0329(2) 0.33728(11)
H2 H -0.4833 0.0825 0.3252
H3 H -0.3723 -0.0762 0.3143
C3 C -0.2701(3) 0.0323(2) 0.43120(12)
H4 H -0.1368 -0.0240 0.4442
H5 H -0.3861 -0.0228 0.4559
C4 C -0.2225(3) 0.1998(2) 0.46843(12)
H6 H -0.3609 0.2501 0.4648
H7 H -0.1531 0.1992 0.5276
C5 C 0.1236(3) 0.3594(2) 0.45680(12)
C6 C 0.2048(3) 0.4242(2) 0.38550(12)
C7 C 0.3610(3) 0.5313(2) 0.28814(12)
C8 C 0.5057(3) 0.6077(2) 0.24400(13)
H8 H 0.6461 0.6517 0.2711
C9 C 0.4375(4) 0.6171(2) 0.15968(13)
H9 H 0.5319 0.6696 0.1283
C10 C 0.2298(3) 0.5500(2) 0.11921(13)
H10 H 0.1869 0.5592 0.0612
C11 C 0.0874(3) 0.4713(2) 0.16189(12)
H11 H -0.0513 0.4261 0.1336
C12 C 0.1513(3) 0.4591(2) 0.24825(12)
C13 C 0.0576(3) 0.3901(2) 0.31340(12)
C14 C -0.1357(3) 0.2906(2) 0.33178(11)
H12 H -0.2715 0.3454 0.3163
C15 C -0.2625(3) 0.1185(2) 0.19912(11)
H13 H -0.1559 0.1819 0.1735
H14 H -0.2691 0.0099 0.1761
C16 C -0.4863(4) 0.1785(3) 0.17298(13)
H15 H -0.5957 0.1106 0.1949
H16 H -0.4835 0.2848 0.1986
C17 C -0.5577(3) 0.1840(3) 0.08139(12)
C18 C -0.8728(4) 0.1741(3) -0.02476(13)
H17 H -0.8226 0.2761 -0.0423
H18 H -1.0326 0.1652 -0.0314
H19 H -0.8278 0.0913 -0.0589
C19 C 0.0474(3) 0.0454(2) 0.30705(12)
H20 H 0.1413 0.0968 0.2716
H21 H 0.1204 0.0690 0.3654
C20 C 0.0365(3) -0.1313(2) 0.28913(13)
H22 H -0.0400 -0.1851 0.3285
H23 H 0.1852 -0.1640 0.2950
H24 H -0.0425 -0.1578 0.2325
loop_
_geom_bond_atom_site_label_1
_geom_bond_atom_site_label_2
_geom_bond_site_symmetry_1
_geom_bond_site_symmetry_2
O1 C5 1_555 1_555
O2 C17 1_555 1_555
O3 C17 1_555 1_555
N1 C4 1_555 1_555
N2 H1 1_555 1_555
C1 C2 1_555 1_555
C2 H2 1_555 1_555
H3 C2 1_555 1_555
C3 C2 1_555 1_555
H4 C3 1_555 1_555
H5 C3 1_555 1_555
C4 C3 1_555 1_555
H6 C4 1_555 1_555
H7 C4 1_555 1_555
C5 N1 1_555 1_555
C6 N2 1_555 1_555
C7 N2 1_555 1_555
C8 C7 1_555 1_555
H8 C8 1_555 1_555
C9 C8 1_555 1_555
H9 C9 1_555 1_555
C10 C9 1_555 1_555
H10 C10 1_555 1_555
C11 C10 1_555 1_555
H11 C11 1_555 1_555
C12 C7 1_555 1_555
C13 C6 1_555 1_555
C14 N1 1_555 1_555
H12 C14 1_555 1_555
C15 C1 1_555 1_555
H13 C15 1_555 1_555
H14 C15 1_555 1_555
C16 C15 1_555 1_555
H15 C16 1_555 1_555
H16 C16 1_555 1_555
C17 C16 1_555 1_555
C18 O3 1_555 1_555
H17 C18 1_555 1_555
H18 C18 1_555 1_555
H19 C18 1_555 1_555
C19 C1 1_555 1_555
H20 C19 1_555 1_555
H21 C19 1_555 1_555
C20 C19 1_555 1_555
H22 C20 1_555 1_555
H23 C20 1_555 1_555
H24 C20 1_555 1_555
C1 C14 1_555 1_555
C5 C6 1_555 1_555
C11 C12 1_555 1_555
C12 C13 1_555 1_555
C13 C14 1_555 1_555

#END
