
#######################################################################
#
#                 Cambridge Crystallographic Data Centre
#                                CCDC 
#
#######################################################################
#
# If this CIF has been generated from an entry in the Cambridge 
# Structural Database, then it will include bibliographic, chemical, 
# crystal, experimental, refinement or atomic coordinate data resulting 
# from the CCDC's data processing and validation procedures.
#
#######################################################################

data_LUZTUX
_chemical_formula_moiety         'C26 H35 N1 O2'
_chemical_name_systematic        
2-butyl-3-(hydroxy(phenyl)methyl)-N,N-dimethyl-2-(3-phenylpropyl)cyclopropanecarboxamide
_symmetry_cell_setting           triclinic
_symmetry_space_group_name_H-M   'P -1'
_symmetry_Int_Tables_number      2
_space_group_name_Hall           '-P 1'
loop_
_symmetry_equiv_pos_site_id
_symmetry_equiv_pos_as_xyz
1 x,y,z
2 -x,-y,-z
_cell_length_a                   9.8150(10)
_cell_length_b                   10.5340(9)
_cell_length_c                   12.9720(13)
_cell_angle_alpha                103.344(5)
_cell_angle_beta                 109.757(5)
_cell_angle_gamma                102.966(6)
_cell_volume                     1159.27
_exptl_crystal_colour            colorless
_exptl_crystal_description       plate
_cell_formula_units_Z            2
loop_
_atom_site_label
_atom_site_type_symbol
_atom_site_fract_x
_atom_site_fract_y
_atom_site_fract_z
O1 O 0.27539(15) -0.02575(12) -0.06813(11)
O2 O 0.26792(15) -0.09876(12) 0.11765(11)
H1 H 0.2774 -0.1078 0.0562
N1 N 0.41452(16) 0.14385(15) -0.10459(13)
C1 C 0.1336(2) 0.5820(2) -0.33149(19)
H2 H 0.1536 0.6366 -0.3751
C2 C 0.1192(2) 0.6383(2) -0.23145(19)
H3 H 0.1295 0.7315 -0.2071
C3 C 0.0894(2) 0.5574(2) -0.16575(17)
H4 H 0.0799 0.5971 -0.0977
C4 C 0.07347(18) 0.41846(18) -0.20040(15)
C5 C 0.0888(2) 0.3645(2) -0.30204(18)
H5 H 0.0788 0.2714 -0.3274
C6 C 0.1186(2) 0.4460(2) -0.36708(19)
H6 H 0.1284 0.4073 -0.4352
C7 C 0.0491(2) 0.3304(2) -0.12752(18)
H7 H 0.0124 0.2337 -0.1747
H8 H -0.0292 0.3479 -0.1020
C8 C 0.1945(2) 0.35900(18) -0.02224(16)
H9 H 0.2209 0.4511 0.0308
H10 H 0.2771 0.3581 -0.0471
C9 C 0.18426(18) 0.25702(17) 0.04323(15)
H11 H 0.1389 0.1637 -0.0121
H12 H 0.1171 0.2710 0.0819
C10 C 0.33972(18) 0.27175(16) 0.13316(14)
C11 C 0.43277(19) 0.41546(17) 0.22092(15)
H13 H 0.4508 0.4789 0.1797
H14 H 0.5317 0.4142 0.2701
C12 C 0.3557(2) 0.46868(18) 0.29716(17)
H15 H 0.2566 0.4694 0.2477
H16 H 0.3377 0.4049 0.3382
C13 C 0.4464(3) 0.6119(2) 0.38512(18)
H17 H 0.5463 0.6120 0.4338
H18 H 0.4624 0.6764 0.3443
C14 C 0.3691(3) 0.6611(2) 0.4614(2)
H19 H 0.2717 0.6646 0.4142
H20 H 0.4325 0.7517 0.5159
H21 H 0.3539 0.5984 0.5029
C15 C 0.36147(18) 0.15272(16) 0.17548(14)
H22 H 0.4396 0.1842 0.2553
C16 C 0.23116(19) 0.02345(16) 0.15000(15)
H23 H 0.1382 0.0189 0.0870
C17 C 0.20272(18) 0.03321(16) 0.25826(15)
C18 C 0.1052(2) 0.1013(2) 0.28013(18)
H24 H 0.0524 0.1361 0.2253
C19 C 0.0849(2) 0.1184(2) 0.38194(19)
H25 H 0.0186 0.1644 0.3950
C20 C 0.1617(2) 0.0681(2) 0.46408(18)
H26 H 0.1490 0.0809 0.5332
C21 C 0.2576(2) -0.0014(2) 0.44314(17)
H27 H 0.3089 -0.0369 0.4980
C22 C 0.2783(2) -0.01899(19) 0.34108(17)
H28 H 0.3436 -0.0662 0.3279
C23 C 0.42957(18) 0.18472(16) 0.09156(14)
H29 H 0.5410 0.2303 0.1274
C24 C 0.36735(19) 0.09360(17) -0.03173(15)
C25 C 0.5183(2) 0.2828(2) -0.07302(19)
H30 H 0.5502 0.3311 0.0080
H31 H 0.4667 0.3315 -0.1184
H32 H 0.6066 0.2773 -0.0879
C26 C 0.3559(2) 0.0575(2) -0.22523(17)
H33 H 0.3318 -0.0380 -0.2306
H34 H 0.4322 0.0800 -0.2548
H35 H 0.2651 0.0732 -0.2701
loop_
_geom_bond_atom_site_label_1
_geom_bond_atom_site_label_2
_geom_bond_site_symmetry_1
_geom_bond_site_symmetry_2
O1 C24 1_555 1_555
O2 H1 1_555 1_555
N1 C24 1_555 1_555
C1 H2 1_555 1_555
C2 C1 1_555 1_555
H3 C2 1_555 1_555
C3 C2 1_555 1_555
H4 C3 1_555 1_555
C4 C3 1_555 1_555
C5 C4 1_555 1_555
H5 C5 1_555 1_555
C6 C1 1_555 1_555
H6 C6 1_555 1_555
C7 C4 1_555 1_555
H7 C7 1_555 1_555
H8 C7 1_555 1_555
C8 C7 1_555 1_555
H9 C8 1_555 1_555
H10 C8 1_555 1_555
C9 C8 1_555 1_555
H11 C9 1_555 1_555
H12 C9 1_555 1_555
C10 C9 1_555 1_555
C11 C10 1_555 1_555
H13 C11 1_555 1_555
H14 C11 1_555 1_555
C12 C11 1_555 1_555
H15 C12 1_555 1_555
H16 C12 1_555 1_555
C13 C12 1_555 1_555
H17 C13 1_555 1_555
H18 C13 1_555 1_555
C14 C13 1_555 1_555
H19 C14 1_555 1_555
H20 C14 1_555 1_555
H21 C14 1_555 1_555
C15 C10 1_555 1_555
H22 C15 1_555 1_555
C16 O2 1_555 1_555
H23 C16 1_555 1_555
C17 C16 1_555 1_555
C18 C17 1_555 1_555
H24 C18 1_555 1_555
C19 C18 1_555 1_555
H25 C19 1_555 1_555
C20 C19 1_555 1_555
H26 C20 1_555 1_555
C21 C20 1_555 1_555
H27 C21 1_555 1_555
C22 C17 1_555 1_555
H28 C22 1_555 1_555
C23 C10 1_555 1_555
H29 C23 1_555 1_555
C24 C23 1_555 1_555
C25 N1 1_555 1_555
H30 C25 1_555 1_555
H31 C25 1_555 1_555
H32 C25 1_555 1_555
C26 N1 1_555 1_555
H33 C26 1_555 1_555
H34 C26 1_555 1_555
H35 C26 1_555 1_555
C5 C6 1_555 1_555
C15 C16 1_555 1_555
C15 C23 1_555 1_555
C21 C22 1_555 1_555

#END
