
#######################################################################
#
#                 Cambridge Crystallographic Data Centre
#                                CCDC 
#
#######################################################################
#
# If this CIF has been generated from an entry in the Cambridge 
# Structural Database, then it will include bibliographic, chemical, 
# crystal, experimental, refinement or atomic coordinate data resulting 
# from the CCDC's data processing and validation procedures.
#
#######################################################################

data_LUZTUW
_chemical_formula_moiety         'C28 H43 Li1 N1 O2 P1'
_chemical_name_systematic        
(N-(2-(Di-isopropylphosphino)phenyl)-2,6-dimethylanilinato)-bis(tetrahydrofuran)-lithium
_symmetry_cell_setting           triclinic
_symmetry_space_group_name_H-M   'P -1'
_symmetry_Int_Tables_number      2
_space_group_name_Hall           '-P 1'
loop_
_symmetry_equiv_pos_site_id
_symmetry_equiv_pos_as_xyz
1 x,y,z
2 -x,-y,-z
_cell_length_a                   9.2124(3)
_cell_length_b                   9.3766(3)
_cell_length_c                   18.2449(7)
_cell_angle_alpha                77.7120(10)
_cell_angle_beta                 78.2640(10)
_cell_angle_gamma                67.232(2)
_cell_volume                     1407.04
_exptl_crystal_colour            yellow
_exptl_crystal_description       prism
_cell_formula_units_Z            2
loop_
_atom_site_label
_atom_site_type_symbol
_atom_site_fract_x
_atom_site_fract_y
_atom_site_fract_z
P1 P 0.22681(13) 0.25524(13) 0.37432(6)
O1 O 0.2947(4) 0.5100(4) 0.17395(19)
O2 O -0.0400(4) 0.5710(4) 0.24658(19)
N1 N 0.1737(4) 0.1861(4) 0.23102(19)
C1 C 0.3870(5) 0.2314(5) 0.4281(2)
H1 H 0.3963 0.1419 0.4684
C2 C 0.5434(6) 0.1982(7) 0.3759(3)
H2 H 0.5672 0.1046 0.3550
H3 H 0.6265 0.1845 0.4040
H4 H 0.5354 0.2843 0.3356
C3 C 0.3444(6) 0.3783(6) 0.4644(3)
H5 H 0.2459 0.3947 0.4976
H6 H 0.3336 0.4673 0.4256
H7 H 0.4270 0.3648 0.4928
C4 C 0.0500(5) 0.2816(5) 0.4486(2)
H8 H 0.0208 0.3851 0.4630
C5 C 0.0733(6) 0.1640(6) 0.5214(3)
H9 H 0.1603 0.1641 0.5428
H10 H 0.0962 0.0614 0.5102
H11 H -0.0218 0.1926 0.5569
C6 C -0.0896(5) 0.2855(6) 0.4138(3)
H12 H -0.1035 0.3608 0.3686
H13 H -0.1847 0.3141 0.4495
H14 H -0.0683 0.1839 0.4017
C7 C 0.2728(5) 0.0612(5) 0.3512(2)
C8 C 0.3403(5) -0.0763(5) 0.3988(2)
H15 H 0.3686 -0.0701 0.4438
C9 C 0.3674(6) -0.2225(5) 0.3818(3)
H16 H 0.4156 -0.3128 0.4142
C10 C 0.3216(6) -0.2315(5) 0.3166(3)
H17 H 0.3360 -0.3288 0.3055
C11 C 0.2550(5) -0.0997(5) 0.2674(2)
H18 H 0.2242 -0.1099 0.2239
C12 C 0.2313(5) 0.0535(5) 0.2807(2)
C13 C 0.1385(6) 0.1688(5) 0.1623(2)
C14 C 0.2529(6) 0.1539(5) 0.0980(3)
C15 C 0.4161(7) 0.1431(8) 0.1027(3)
H19 H 0.4777 0.1360 0.0535
H20 H 0.4652 0.0517 0.1373
H21 H 0.4109 0.2345 0.1204
C16 C 0.2115(9) 0.1467(6) 0.0289(3)
H22 H 0.2857 0.1393 -0.0144
C17 C 0.0613(10) 0.1506(8) 0.0250(4)
H23 H 0.0348 0.1468 -0.0209
C18 C -0.0477(8) 0.1600(7) 0.0887(4)
H24 H -0.1469 0.1587 0.0861
C19 C -0.0127(6) 0.1713(6) 0.1570(3)
C20 C -0.1330(7) 0.1782(8) 0.2271(3)
H25 H -0.2297 0.1800 0.2143
H26 H -0.1537 0.2712 0.2479
H27 H -0.0920 0.0880 0.2639
C21 C 0.4599(7) 0.4871(7) 0.1657(3)
H28 H 0.5251 0.3884 0.1479
H29 H 0.4901 0.4877 0.2135
C22 C 0.4782(10) 0.6214(11) 0.1087(4)
H30 H 0.4812 0.7016 0.1336
H31 H 0.5757 0.5867 0.0741
C23 C 0.3437(10) 0.6806(9) 0.0687(4)
H32 H 0.3011 0.7940 0.0624
H33 H 0.3743 0.6483 0.0190
C24 C 0.2286(8) 0.6205(9) 0.1113(4)
H34 H 0.1961 0.5701 0.0797
H35 H 0.1358 0.7050 0.1295
C25 C -0.0651(8) 0.6840(7) 0.2939(4)
H36 H -0.0486 0.6328 0.3452
H37 H 0.0090 0.7382 0.2754
C26 C -0.2242(10) 0.7920(10) 0.2926(7)
H38 H -0.2298 0.8971 0.2934
H39 H -0.2938 0.7634 0.3357
C27 C -0.2690(10) 0.7824(12) 0.2218(7)
H40 H -0.2375 0.8526 0.1801
H41 H -0.3827 0.8081 0.2261
C28 C -0.1801(8) 0.6155(8) 0.2107(4)
H42 H -0.2427 0.5512 0.2346
H43 H -0.1521 0.6059 0.1573
Li1 Li 0.1624(9) 0.3941(9) 0.2408(4)
loop_
_geom_bond_atom_site_label_1
_geom_bond_atom_site_label_2
_geom_bond_site_symmetry_1
_geom_bond_site_symmetry_2
P1 C1 1_555 1_555
O1 C21 1_555 1_555
O2 C25 1_555 1_555
N1 C12 1_555 1_555
C1 H1 1_555 1_555
C2 C1 1_555 1_555
H2 C2 1_555 1_555
H3 C2 1_555 1_555
H4 C2 1_555 1_555
C3 C1 1_555 1_555
H5 C3 1_555 1_555
H6 C3 1_555 1_555
H7 C3 1_555 1_555
C4 P1 1_555 1_555
H8 C4 1_555 1_555
C5 C4 1_555 1_555
H9 C5 1_555 1_555
H10 C5 1_555 1_555
H11 C5 1_555 1_555
C6 C4 1_555 1_555
H12 C6 1_555 1_555
H13 C6 1_555 1_555
H14 C6 1_555 1_555
C7 P1 1_555 1_555
C8 C7 1_555 1_555
H15 C8 1_555 1_555
C9 C8 1_555 1_555
H16 C9 1_555 1_555
C10 C9 1_555 1_555
H17 C10 1_555 1_555
C11 C10 1_555 1_555
H18 C11 1_555 1_555
C12 C7 1_555 1_555
C13 N1 1_555 1_555
C14 C13 1_555 1_555
C15 C14 1_555 1_555
H19 C15 1_555 1_555
H20 C15 1_555 1_555
H21 C15 1_555 1_555
C16 C14 1_555 1_555
H22 C16 1_555 1_555
C17 C16 1_555 1_555
H23 C17 1_555 1_555
C18 C17 1_555 1_555
H24 C18 1_555 1_555
C19 C13 1_555 1_555
C20 C19 1_555 1_555
H25 C20 1_555 1_555
H26 C20 1_555 1_555
H27 C20 1_555 1_555
C21 H28 1_555 1_555
H29 C21 1_555 1_555
C22 C21 1_555 1_555
H30 C22 1_555 1_555
H31 C22 1_555 1_555
C23 C22 1_555 1_555
H32 C23 1_555 1_555
H33 C23 1_555 1_555
C24 O1 1_555 1_555
H34 C24 1_555 1_555
H35 C24 1_555 1_555
C25 H36 1_555 1_555
H37 C25 1_555 1_555
C26 C25 1_555 1_555
H38 C26 1_555 1_555
H39 C26 1_555 1_555
C27 C26 1_555 1_555
H40 C27 1_555 1_555
H41 C27 1_555 1_555
C28 O2 1_555 1_555
H42 C28 1_555 1_555
H43 C28 1_555 1_555
Li1 P1 1_555 1_555
O1 Li1 1_555 1_555
O2 Li1 1_555 1_555
N1 Li1 1_555 1_555
C11 C12 1_555 1_555
C18 C19 1_555 1_555
C23 C24 1_555 1_555
C27 C28 1_555 1_555

#END
