
#######################################################################
#
#                 Cambridge Crystallographic Data Centre
#                                CCDC 
#
#######################################################################
#
# If this CIF has been generated from an entry in the Cambridge 
# Structural Database, then it will include bibliographic, chemical, 
# crystal, experimental, refinement or atomic coordinate data resulting 
# from the CCDC's data processing and validation procedures.
#
#######################################################################

data_LUZWAG
_chemical_formula_moiety         'C24 H18 Cl2 F3 N3 O1'
_chemical_name_systematic        
3-(bis(4-Chlorophenyl)amino)-1,1,1-trifluoro-2-(1-phenyl-1H-imidazol-2-yl)propan-2-ol
_symmetry_cell_setting           monoclinic
_symmetry_space_group_name_H-M   'P 21'
_symmetry_Int_Tables_number      4
_space_group_name_Hall           'P 2yb'
loop_
_symmetry_equiv_pos_site_id
_symmetry_equiv_pos_as_xyz
1 x,y,z
2 -x,1/2+y,-z
_cell_length_a                   10.4418(6)
_cell_length_b                   18.1671(9)
_cell_length_c                   12.1722(7)
_cell_angle_alpha                90
_cell_angle_beta                 106.238(2)
_cell_angle_gamma                90
_cell_volume                     2216.92
_exptl_crystal_colour            colorless
_exptl_crystal_description       block
_cell_formula_units_Z            4
loop_
_atom_site_label
_atom_site_type_symbol
_atom_site_fract_x
_atom_site_fract_y
_atom_site_fract_z
F1 F 0.19127(13) 0.57935(8) 0.70734(13)
O1 O -0.11380(15) 0.48385(10) 0.68499(15)
H1 H -0.139(3) 0.5032(19) 0.732(3)
Cl1 Cl -0.24533(7) 0.32353(4) 1.19211(6)
C1 C 0.0245(2) 0.48798(12) 0.70752(19)
F2 F 0.02108(14) 0.61383(8) 0.76135(12)
Cl2 Cl 0.37110(11) 0.15591(5) 0.71134(8)
C2 C 0.0999(2) 0.46490(13) 0.83173(19)
H2 H 0.1971 0.4667 0.8410
H3 H 0.0796 0.5006 0.8859
F3 F 0.00018(15) 0.59213(8) 0.58323(12)
N1 N 0.0639(2) 0.39113(11) 0.86026(17)
C3 C -0.0086(2) 0.37687(13) 0.93933(18)
C4 C -0.0509(2) 0.43276(13) 1.00047(19)
H4 H -0.0299 0.4826 0.9891
C5 C -0.1233(2) 0.41632(14) 1.07777(19)
H5 H -0.1521 0.4548 1.1181
C6 C -0.1531(2) 0.34413(15) 1.09572(19)
C7 C -0.1110(3) 0.28797(15) 1.0381(2)
H6 H -0.1311 0.2383 1.0513
C8 C -0.0394(3) 0.30411(13) 0.9608(2)
H7 H -0.0105 0.2650 0.9216
C9 C 0.1359(2) 0.33167(12) 0.82786(19)
C10 C 0.2713(3) 0.32373(14) 0.8814(2)
H8 H 0.3145 0.3557 0.9422
C11 C 0.3435(3) 0.26878(15) 0.8457(2)
H9 H 0.4362 0.2629 0.8815
C12 C 0.2779(3) 0.22278(14) 0.7572(2)
C13 C 0.1438(3) 0.22819(14) 0.7066(2)
H10 H 0.1003 0.1947 0.6482
C14 C 0.0721(3) 0.28322(14) 0.7416(2)
H11 H -0.0210 0.2878 0.7065
C15 C 0.0640(2) 0.43938(12) 0.62085(18)
N2 N -0.02258(18) 0.40690(11) 0.52833(15)
C16 C 0.0533(2) 0.36385(13) 0.4770(2)
H12 H 0.0218 0.3343 0.4106
C17 C 0.1818(2) 0.37223(13) 0.5404(2)
H13 H 0.2564 0.3488 0.5253
N3 N 0.18816(18) 0.41973(10) 0.62981(16)
C18 C -0.1666(2) 0.41068(13) 0.48285(19)
C19 C -0.2253(3) 0.47123(14) 0.4201(2)
H14 H -0.1729 0.5121 0.4102
C20 C -0.3631(3) 0.47111(14) 0.3716(2)
H15 H -0.4050 0.5124 0.3283
C21 C -0.4390(2) 0.41168(15) 0.3857(2)
H16 H -0.5328 0.4123 0.3525
C22 C -0.3790(2) 0.35141(15) 0.4479(2)
H17 H -0.4316 0.3105 0.4576
C23 C -0.2415(2) 0.35043(14) 0.49664(19)
H18 H -0.1995 0.3088 0.5389
C24 C 0.0611(2) 0.56866(13) 0.68944(19)
F4 F 0.59513(14) 0.37649(8) 0.86881(11)
O2 O 0.41749(16) 0.48842(10) 0.76888(14)
C25 C 0.5418(2) 0.48242(12) 0.74771(17)
H19 H 0.360(4) 0.469(2) 0.724(3)
Cl3 Cl 0.03227(6) 0.61004(3) 0.16726(5)
F5 F 0.70357(13) 0.38918(8) 0.74358(12)
C26 C 0.5416(2) 0.50571(12) 0.62453(18)
H20 H 0.6348 0.5067 0.6199
H21 H 0.4927 0.4682 0.5697
Cl4 Cl 0.79602(6) 0.84419(3) 0.77627(5)
F6 F 0.49634(13) 0.35770(7) 0.69036(11)
N4 N 0.48090(19) 0.57757(11) 0.59067(16)
C27 C 0.3751(2) 0.58577(13) 0.49085(18)
C28 C 0.2836(2) 0.52921(14) 0.45101(19)
H22 H 0.2941 0.4841 0.4921
C29 C 0.1782(2) 0.53687(14) 0.35353(19)
H23 H 0.1171 0.4976 0.3281
C30 C 0.1625(2) 0.60240(13) 0.29337(18)
C31 C 0.2516(2) 0.65974(13) 0.32942(19)
H24 H 0.2405 0.7044 0.2873
C32 C 0.3575(2) 0.65155(13) 0.42752(19)
H25 H 0.4187 0.6909 0.4521
C33 C 0.5592(2) 0.64125(12) 0.63563(18)
C34 C 0.5177(2) 0.68668(13) 0.71049(19)
H26 H 0.4387 0.6752 0.7312
C35 C 0.5911(2) 0.74904(13) 0.75548(19)
H27 H 0.5637 0.7800 0.8076
C36 C 0.7050(2) 0.76526(13) 0.72300(19)
C37 C 0.7483(2) 0.71993(13) 0.6488(2)
H28 H 0.8274 0.7313 0.6283
C38 C 0.6747(2) 0.65784(13) 0.60530(19)
H29 H 0.7032 0.6264 0.5544
C39 C 0.6392(2) 0.52990(12) 0.83510(17)
N5 N 0.61456(18) 0.56236(10) 0.92849(15)
C40 C 0.7208(2) 0.60813(13) 0.97550(18)
H30 H 0.7325 0.6384 1.0413
C41 C 0.8056(2) 0.60157(13) 0.90930(18)
H31 H 0.8876 0.6273 0.9212
N6 N 0.75484(18) 0.55211(10) 0.82242(15)
C42 C 0.5100(2) 0.54932(13) 0.98305(18)
C43 C 0.5096(2) 0.48363(14) 1.04047(19)
H32 H 0.5746 0.4469 1.0412
C44 C 0.4129(3) 0.47206(15) 1.0969(2)
H33 H 0.4107 0.4268 1.1355
C45 C 0.3196(3) 0.52600(16) 1.0975(2)
H34 H 0.2533 0.5177 1.1359
C46 C 0.3231(3) 0.59196(16) 1.0421(2)
H35 H 0.2601 0.6293 1.0440
C47 C 0.4182(2) 0.60417(15) 0.9833(2)
H36 H 0.4200 0.6493 0.9442
C48 C 0.5857(2) 0.40105(13) 0.76328(18)
loop_
_geom_bond_atom_site_label_1
_geom_bond_atom_site_label_2
_geom_bond_site_symmetry_1
_geom_bond_site_symmetry_2
F1 C24 1_555 1_555
O1 H1 1_555 1_555
Cl1 C6 1_555 1_555
C1 O1 1_555 1_555
F2 C24 1_555 1_555
Cl2 C12 1_555 1_555
C2 C1 1_555 1_555
H2 C2 1_555 1_555
H3 C2 1_555 1_555
F3 C24 1_555 1_555
N1 C2 1_555 1_555
C3 N1 1_555 1_555
C4 C3 1_555 1_555
H4 C4 1_555 1_555
C5 C4 1_555 1_555
H5 C5 1_555 1_555
C6 C5 1_555 1_555
C7 C6 1_555 1_555
H6 C7 1_555 1_555
C8 C3 1_555 1_555
H7 C8 1_555 1_555
C9 N1 1_555 1_555
C10 C9 1_555 1_555
H8 C10 1_555 1_555
C11 C10 1_555 1_555
H9 C11 1_555 1_555
C12 C11 1_555 1_555
C13 C12 1_555 1_555
H10 C13 1_555 1_555
C14 C9 1_555 1_555
H11 C14 1_555 1_555
C15 C1 1_555 1_555
N2 C15 1_555 1_555
C16 N2 1_555 1_555
H12 C16 1_555 1_555
C17 C16 1_555 1_555
H13 C17 1_555 1_555
N3 C15 1_555 1_555
C18 N2 1_555 1_555
C19 C18 1_555 1_555
H14 C19 1_555 1_555
C20 C19 1_555 1_555
H15 C20 1_555 1_555
C21 C20 1_555 1_555
H16 C21 1_555 1_555
C22 C21 1_555 1_555
H17 C22 1_555 1_555
C23 C18 1_555 1_555
H18 C23 1_555 1_555
C24 C1 1_555 1_555
F4 C48 1_555 1_555
O2 C25 1_555 1_555
C25 C26 1_555 1_555
H19 O2 1_555 1_555
Cl3 C30 1_555 1_555
F5 C48 1_555 1_555
C26 H20 1_555 1_555
H21 C26 1_555 1_555
Cl4 C36 1_555 1_555
F6 C48 1_555 1_555
N4 C26 1_555 1_555
C27 N4 1_555 1_555
C28 C27 1_555 1_555
H22 C28 1_555 1_555
C29 C28 1_555 1_555
H23 C29 1_555 1_555
C30 C29 1_555 1_555
C31 C30 1_555 1_555
H24 C31 1_555 1_555
C32 C27 1_555 1_555
H25 C32 1_555 1_555
C33 N4 1_555 1_555
C34 C33 1_555 1_555
H26 C34 1_555 1_555
C35 C34 1_555 1_555
H27 C35 1_555 1_555
C36 C35 1_555 1_555
C37 C36 1_555 1_555
H28 C37 1_555 1_555
C38 C33 1_555 1_555
H29 C38 1_555 1_555
C39 C25 1_555 1_555
N5 C39 1_555 1_555
C40 N5 1_555 1_555
H30 C40 1_555 1_555
C41 C40 1_555 1_555
H31 C41 1_555 1_555
N6 C39 1_555 1_555
C42 N5 1_555 1_555
C43 C42 1_555 1_555
H32 C43 1_555 1_555
C44 C43 1_555 1_555
H33 C44 1_555 1_555
C45 C44 1_555 1_555
H34 C45 1_555 1_555
C46 C45 1_555 1_555
H35 C46 1_555 1_555
C47 C42 1_555 1_555
H36 C47 1_555 1_555
C48 C25 1_555 1_555
C7 C8 1_555 1_555
C13 C14 1_555 1_555
C17 N3 1_555 1_555
C22 C23 1_555 1_555
C31 C32 1_555 1_555
C37 C38 1_555 1_555
C41 N6 1_555 1_555
C46 C47 1_555 1_555

#END
