
#######################################################################
#
#                 Cambridge Crystallographic Data Centre
#                                CCDC 
#
#######################################################################
#
# If this CIF has been generated from an entry in the Cambridge 
# Structural Database, then it will include bibliographic, chemical, 
# crystal, experimental, refinement or atomic coordinate data resulting 
# from the CCDC's data processing and validation procedures.
#
#######################################################################

data_LUZZUC
_chemical_formula_moiety         '2(C9 H8 N3 O2 S1 1-),H12 Mg1 O6 2+'
_chemical_name_systematic        
'Hexa-aqua-magnesium 2-(thiosemicarbazonomethyl)benzoate'
_chemical_properties_biological  'tested for antibacterial activity'
_symmetry_cell_setting           monoclinic
_symmetry_space_group_name_H-M   'P 21/c'
_symmetry_Int_Tables_number      14
_space_group_name_Hall           '-P 2ybc'
loop_
_symmetry_equiv_pos_site_id
_symmetry_equiv_pos_as_xyz
1 x,y,z
2 -x,1/2+y,1/2-z
3 -x,-y,-z
4 x,1/2-y,1/2+z
_cell_length_a                   12.952(2)
_cell_length_b                   8.9082(13)
_cell_length_c                   11.5365(17)
_cell_angle_alpha                90
_cell_angle_beta                 95.160(2)
_cell_angle_gamma                90
_cell_volume                     1325.68
_exptl_crystal_colour            colorless
_exptl_crystal_description       block
_cell_formula_units_Z            2
loop_
_atom_site_label
_atom_site_type_symbol
_atom_site_fract_x
_atom_site_fract_y
_atom_site_fract_z
Mg1 Mg 0.0000 0.0000 0.5000
O3 O -0.0301(2) 0.1292(3) 0.3557(2)
H1 H -0.0052 0.1142 0.2910
H2 H -0.0695 0.2050 0.3447
O4 O -0.0488(3) 0.1697(3) 0.5997(2)
H3 H -0.0535 0.2606 0.6209
H4 H -0.1092 0.1353 0.5807
O5 O 0.1524(2) 0.0818(4) 0.5138(3)
H5 H 0.1237 0.1411 0.5588
H6 H 0.2107 0.0610 0.5501
O3B O 0.0301(2) -0.1292(3) 0.6443(2)
H1B H 0.0052 -0.1142 0.7090
H2B H 0.0695 -0.2050 0.6553
O4B O 0.0488(3) -0.1697(3) 0.4003(2)
H3B H 0.0535 -0.2606 0.3791
H4B H 0.1092 -0.1353 0.4193
O5B O -0.1524(2) -0.0818(4) 0.4862(3)
H5B H -0.1237 -0.1411 0.4412
H6B H -0.2107 -0.0610 0.4499
S1 S 0.64756(6) 0.12807(11) 0.50631(7)
O1 O 0.16143(16) -0.1228(2) 0.2064(2)
O2 O 0.0736(2) 0.0860(3) 0.1683(2)
N1 N 0.46344(19) 0.1006(3) 0.2190(2)
N2 N 0.50330(19) 0.0876(3) 0.3334(2)
H7 H 0.4676 0.0462 0.3840
N3 N 0.6500(2) 0.2014(3) 0.2836(2)
H8 H 0.6222 0.2062 0.2132
H9 H 0.7114 0.2364 0.3008
C1 C 0.1449(2) -0.0020(3) 0.1518(3)
C2 C 0.2127(2) 0.0383(3) 0.0565(3)
C3 C 0.3187(2) 0.0696(3) 0.0786(3)
C4 C 0.3749(3) 0.1106(4) -0.0145(3)
H10 H 0.4450 0.1330 -0.0007
C5 C 0.3280(3) 0.1183(4) -0.1257(3)
H11 H 0.3667 0.1443 -0.1868
C6 C 0.2236(3) 0.0874(4) -0.1473(3)
H12 H 0.1921 0.0931 -0.2228
C7 C 0.1662(3) 0.0483(4) -0.0573(3)
H13 H 0.0958 0.0283 -0.0723
C8 C 0.3687(2) 0.0629(4) 0.1980(3)
H14 H 0.3310 0.0310 0.2584
C9 C 0.5990(2) 0.1408(3) 0.3647(3)
loop_
_geom_bond_atom_site_label_1
_geom_bond_atom_site_label_2
_geom_bond_site_symmetry_1
_geom_bond_site_symmetry_2
Mg1 O3 1_555 1_555
S1 C9 1_555 1_555
O1 C1 1_555 1_555
O2 C1 1_555 1_555
O3 H1 1_555 1_555
H2 O3 1_555 1_555
O4 Mg1 1_555 1_555
H3 O4 1_555 1_555
H4 O4 1_555 1_555
O5 Mg1 1_555 1_555
H5 O5 1_555 1_555
H6 O5 1_555 1_555
N1 N2 1_555 1_555
N2 H7 1_555 1_555
N3 H8 1_555 1_555
H9 N3 1_555 1_555
C1 C2 1_555 1_555
C2 C3 1_555 1_555
C3 C4 1_555 1_555
C4 H10 1_555 1_555
C5 C4 1_555 1_555
H11 C5 1_555 1_555
C6 C5 1_555 1_555
H12 C6 1_555 1_555
C7 C2 1_555 1_555
H13 C7 1_555 1_555
C8 N1 1_555 1_555
H14 C8 1_555 1_555
C9 N2 1_555 1_555
O3B Mg1 1_555 1_555
H1B O3B 1_555 1_555
H2B O3B 1_555 1_555
O4B Mg1 1_555 1_555
H3B O4B 1_555 1_555
H4B O4B 1_555 1_555
O5B Mg1 1_555 1_555
H5B O5B 1_555 1_555
H6B O5B 1_555 1_555
N3 C9 1_555 1_555
C3 C8 1_555 1_555
C6 C7 1_555 1_555

#END
