
#######################################################################
#
#                 Cambridge Crystallographic Data Centre
#                                CCDC 
#
#######################################################################
#
# If this CIF has been generated from an entry in the Cambridge 
# Structural Database, then it will include bibliographic, chemical, 
# crystal, experimental, refinement or atomic coordinate data resulting 
# from the CCDC's data processing and validation procedures.
#
#######################################################################

data_LYCTON10
_chemical_formula_moiety         'C24 H33 N1 O8'
_chemical_name_systematic        'Lycoctonine keto lactam acid'
_symmetry_cell_setting           orthorhombic
_symmetry_space_group_name_H-M   'P 21 21 21'
_symmetry_Int_Tables_number      19
_space_group_name_Hall           'P 2ac 2ab'
loop_
_symmetry_equiv_pos_site_id
_symmetry_equiv_pos_as_xyz
1 x,y,z
2 1/2+x,1/2-y,-z
3 -x,1/2+y,1/2-z
4 1/2-x,-y,1/2+z
_cell_length_a                   13.810(1)
_cell_length_b                   15.527(2)
_cell_length_c                   10.644(1)
_cell_angle_alpha                90
_cell_angle_beta                 90
_cell_angle_gamma                90
_cell_volume                     2282.37
_exptl_crystal_colour            colorless
_chemical_melting_point          425K
_cell_formula_units_Z            4
loop_
_atom_site_label
_atom_site_type_symbol
_atom_site_fract_x
_atom_site_fract_y
_atom_site_fract_z
O1 O 0.04950 0.08490 0.16190
O2 O -0.19260 -0.11510 0.46950
O3 O -0.24070 0.01860 0.49610
O4 O -0.02150 -0.14490 0.40520
O5 O -0.04360 0.11740 0.70770
O6 O 0.13370 0.02660 0.73500
O7 O 0.27110 0.25580 0.64240
O8 O 0.41190 0.15810 0.46150
C1 C -0.01910 0.10300 0.25740
C2 C -0.09510 0.03190 0.27460
C3 C -0.17920 -0.03160 0.46500
C4 C -0.08180 0.00080 0.41150
C5 C -0.04440 0.08130 0.48080
C6 C -0.01000 0.05790 0.61620
C7 C 0.10190 0.05290 0.63710
C8 C 0.16000 0.09020 0.53230
C9 C 0.12580 0.18860 0.53780
C10 C 0.07890 0.20000 0.40950
C11 C 0.03270 0.11210 0.38420
C12 C 0.16940 0.22360 0.32590
C13 C 0.25860 0.22570 0.41490
C14 C 0.20920 0.25270 0.53610
C15 C 0.26970 0.08380 0.53750
C16 C 0.31250 0.13980 0.43180
C17 C 0.11720 0.05230 0.40690
N1 N 0.08970 -0.03960 0.41580
C18 C -0.00200 -0.06710 0.41070
C19 C 0.01550 0.10870 0.04090
C20 C 0.16750 -0.10520 0.40520
C21 C 0.18770 -0.15060 0.52920
C22 C -0.13140 0.09300 0.76600
C23 C 0.22380 0.28890 0.75030
C24 C 0.47100 0.14710 0.35680
H1 H -0.12900 -0.14600 0.45600
H2 H -0.05400 0.15900 0.23400
H3 H -0.08600 -0.01400 0.21800
H4 H -0.16000 0.05000 0.26900
H5 H -0.09700 0.12200 0.48800
H6 H -0.03600 0.00000 0.63600
H7 H 0.08000 0.19900 0.61100
H8 H 0.03100 0.24400 0.41000
H9 H 0.15800 0.28400 0.28900
H10 H 0.17800 0.18100 0.25000
H11 H 0.30800 0.26900 0.38000
H12 H 0.17700 0.31300 0.52800
H13 H 0.29400 0.10600 0.62000
H14 H 0.28800 0.02400 0.52700
H15 H 0.31200 0.10600 0.34800
H16 H 0.16300 0.05800 0.33500
H17 H -0.00200 0.04800 0.03600
H18 H 0.06200 0.11900 -0.02100
H19 H -0.04000 0.12500 0.02700
H20 H 0.22700 -0.07300 0.36900
H21 H 0.14800 -0.14800 0.33600
H22 H 0.21100 -0.10200 0.60100
H23 H 0.23600 -0.19700 0.51500
H24 H 0.12400 -0.18300 0.55900
H25 H -0.12100 0.03600 0.80800
H26 H -0.18300 0.08500 0.70400
H27 H -0.14700 0.13900 0.82500
H28 H 0.16900 0.24400 0.77800
H29 H 0.27400 0.30100 0.81800
H30 H 0.19200 0.35100 0.73400
H31 H 0.45900 0.09800 0.28400
H32 H 0.53900 0.14700 0.39200
H33 H 0.47400 0.20900 0.31300
loop_
_geom_bond_atom_site_label_1
_geom_bond_atom_site_label_2
_geom_bond_site_symmetry_1
_geom_bond_site_symmetry_2
O1 C1 1_555 1_555
O2 C3 1_555 1_555
O3 C3 1_555 1_555
O4 C18 1_555 1_555
O5 C6 1_555 1_555
O6 C7 1_555 1_555
O7 C14 1_555 1_555
O8 C16 1_555 1_555
C1 C2 1_555 1_555
C2 C4 1_555 1_555
C3 C4 1_555 1_555
C4 C5 1_555 1_555
C5 C6 1_555 1_555
C6 C7 1_555 1_555
C7 C8 1_555 1_555
C8 C9 1_555 1_555
C9 C10 1_555 1_555
C10 C11 1_555 1_555
C11 C1 1_555 1_555
C12 C10 1_555 1_555
C13 C12 1_555 1_555
C14 C9 1_555 1_555
C15 C8 1_555 1_555
C16 C13 1_555 1_555
C17 C8 1_555 1_555
N1 C17 1_555 1_555
C18 C4 1_555 1_555
C19 O1 1_555 1_555
C20 N1 1_555 1_555
C21 C20 1_555 1_555
C22 O5 1_555 1_555
C23 O7 1_555 1_555
C24 O8 1_555 1_555
H1 O2 1_555 1_555
H2 C1 1_555 1_555
H3 C2 1_555 1_555
H4 C2 1_555 1_555
H5 C5 1_555 1_555
H6 C6 1_555 1_555
H7 C9 1_555 1_555
H8 C10 1_555 1_555
H9 C12 1_555 1_555
H10 C12 1_555 1_555
H11 C13 1_555 1_555
H12 C14 1_555 1_555
H13 C15 1_555 1_555
H14 C15 1_555 1_555
H15 C16 1_555 1_555
H16 C17 1_555 1_555
H17 C19 1_555 1_555
H18 C19 1_555 1_555
H19 C19 1_555 1_555
H20 C20 1_555 1_555
H21 C20 1_555 1_555
H22 C21 1_555 1_555
H23 C21 1_555 1_555
H24 C21 1_555 1_555
H25 C22 1_555 1_555
H26 C22 1_555 1_555
H27 C22 1_555 1_555
H28 C23 1_555 1_555
H29 C23 1_555 1_555
H30 C23 1_555 1_555
H31 C24 1_555 1_555
H32 C24 1_555 1_555
H33 C24 1_555 1_555
C5 C11 1_555 1_555
C11 C17 1_555 1_555
C13 C14 1_555 1_555
C15 C16 1_555 1_555
N1 C18 1_555 1_555

#END
