
#######################################################################
#
#                 Cambridge Crystallographic Data Centre
#                                CCDC 
#
#######################################################################
#
# If this CIF has been generated from an entry in the Cambridge 
# Structural Database, then it will include bibliographic, chemical, 
# crystal, experimental, refinement or atomic coordinate data resulting 
# from the CCDC's data processing and validation procedures.
#
#######################################################################

data_MABRUE
_chemical_formula_moiety         'C6 S10 2-,2(Cs1 1+)'
_chemical_name_systematic        
"Di-cesium 4,4'-disulfanediylbis(3-thioxo-3H-1,2-dithiole-5-thiolate)"
_symmetry_cell_setting           orthorhombic
_symmetry_space_group_name_H-M   'P b c n'
_symmetry_Int_Tables_number      60
_space_group_name_Hall           '-P 2n 2ab'
loop_
_symmetry_equiv_pos_site_id
_symmetry_equiv_pos_as_xyz
1 x,y,z
2 1/2-x,1/2-y,1/2+z
3 1/2+x,1/2-y,-z
4 -x,y,1/2-z
5 -x,-y,-z
6 1/2+x,1/2+y,1/2-z
7 1/2-x,1/2+y,z
8 x,-y,1/2+z
_cell_length_a                   18.832(4)
_cell_length_b                   9.792(2)
_cell_length_c                   9.217(2)
_cell_angle_alpha                90
_cell_angle_beta                 90
_cell_angle_gamma                90
_cell_volume                     1699.64
_exptl_crystal_colour            yellow
_exptl_crystal_description       block
_cell_formula_units_Z            4
loop_
_atom_site_label
_atom_site_type_symbol
_atom_site_fract_x
_atom_site_fract_y
_atom_site_fract_z
Cs1 Cs 0.596628(10) 0.23649(2) 0.62095(2)
S1 S 0.69987(4) 0.11285(8) 0.17647(9)
S2 S 0.72799(3) 0.26229(8) 0.32670(9)
S3 S 0.65248(4) 0.51496(8) 0.38824(8)
S4 S 0.52778(3) 0.40927(7) 0.15079(8)
S5 S 0.57456(4) 0.10593(8) -0.00626(10)
C1 C 0.65512(13) 0.3684(3) 0.2915(3)
C2 C 0.60546(13) 0.3148(3) 0.1935(3)
C3 C 0.62050(14) 0.1907(3) 0.1224(3)
S1C S 0.30013(4) 0.11285(8) 0.32353(9)
S2C S 0.27201(3) 0.26229(8) 0.17330(9)
S3C S 0.34752(4) 0.51496(8) 0.11176(8)
S4C S 0.47222(3) 0.40927(7) 0.34921(8)
S5C S 0.42544(4) 0.10593(8) 0.50626(10)
C1C C 0.34488(13) 0.3684(3) 0.2085(3)
C2C C 0.39454(13) 0.3148(3) 0.3065(3)
C3C C 0.37950(14) 0.1907(3) 0.3776(3)
loop_
_geom_bond_atom_site_label_1
_geom_bond_atom_site_label_2
_geom_bond_site_symmetry_1
_geom_bond_site_symmetry_2
S1 S2 1_555 1_555
S2 C1 1_555 1_555
S3 C1 1_555 1_555
S4 C2 1_555 1_555
S5 C3 1_555 1_555
C1 C2 1_555 1_555
C2 C3 1_555 1_555
C3 S1 1_555 1_555
S1C S2C 1_555 1_555
S2C C1C 1_555 1_555
S3C C1C 1_555 1_555
S4C S4 1_555 1_555
S5C C3C 1_555 1_555
C1C C2C 1_555 1_555
C2C S4C 1_555 1_555
C3C S1C 1_555 1_555
C2C C3C 1_555 1_555

#END
