
#######################################################################
#
#                 Cambridge Crystallographic Data Centre
#                                CCDC 
#
#######################################################################
#
# If this CIF has been generated from an entry in the Cambridge 
# Structural Database, then it will include bibliographic, chemical, 
# crystal, experimental, refinement or atomic coordinate data resulting 
# from the CCDC's data processing and validation procedures.
#
#######################################################################

data_MABXOE
_chemical_formula_moiety         'C22 H21 N1 O3'
_chemical_name_systematic        
't-Butyl 2-phenyl-5-(2-phenylvinyl)-1,3-oxazole-4-carboxylate'
_symmetry_cell_setting           monoclinic
_symmetry_space_group_name_H-M   'P 21/n'
_symmetry_Int_Tables_number      14
_space_group_name_Hall           '-P 2yn'
loop_
_symmetry_equiv_pos_site_id
_symmetry_equiv_pos_as_xyz
1 x,y,z
2 1/2-x,1/2+y,1/2-z
3 -x,-y,-z
4 1/2+x,1/2-y,1/2+z
_cell_length_a                   6.715(5)
_cell_length_b                   17.086(5)
_cell_length_c                   16.786(5)
_cell_angle_alpha                90
_cell_angle_beta                 95.450(5)
_cell_angle_gamma                90
_cell_volume                     1917.19
_exptl_crystal_colour            yellow
_cell_formula_units_Z            4
loop_
_atom_site_label
_atom_site_type_symbol
_atom_site_fract_x
_atom_site_fract_y
_atom_site_fract_z
O1 O 0.93259(15) 0.22248(6) 0.44148(5)
O2 O 0.57947(15) 0.08438(6) 0.28015(5)
O3 O 0.80655(15) 0.11612(7) 0.19474(6)
N1 N 1.01941(17) 0.20441(8) 0.31772(7)
C1 C 1.0631(2) 0.23910(10) 0.38533(9)
C2 C 0.5995(2) 0.17013(9) 0.52003(8)
H1 H 0.6930 0.2043 0.5454
C3 C 0.4302(2) 0.14871(10) 0.56384(9)
C4 C 1.2263(2) 0.29291(9) 0.40799(9)
C5 C 0.7939(2) 0.17205(10) 0.40356(9)
C6 C 1.2439(2) 0.33029(10) 0.48119(9)
H2 H 1.1496 0.3214 0.5173
C7 C 0.7467(2) 0.11828(10) 0.25963(10)
C8 C 0.8471(2) 0.16105(9) 0.32801(9)
C9 C 0.3033(3) 0.08691(11) 0.54189(9)
H3 H 0.3303 0.0550 0.4993
C10 C 1.5256(3) 0.35684(11) 0.37564(10)
H4 H 1.6200 0.3661 0.3397
C11 C 0.6333(2) 0.14564(9) 0.44732(9)
H5 H 0.5461 0.1086 0.4230
C12 C 0.4365(2) 0.04605(11) 0.22089(10)
C13 C 1.3697(2) 0.30639(10) 0.35543(9)
H6 H 1.3604 0.2811 0.3062
C14 C 0.3875(2) 0.19339(10) 0.62862(9)
H7 H 0.4730 0.2341 0.6459
C15 C 1.4011(3) 0.38095(11) 0.50093(9)
H8 H 1.4112 0.4066 0.5500
C16 C 0.0953(3) 0.11852(13) 0.64465(11)
H9 H -0.0182 0.1092 0.6709
C17 C 0.1375(3) 0.07177(12) 0.58209(10)
H10 H 0.0544 0.0298 0.5667
C18 C 1.5427(2) 0.39360(10) 0.44842(10)
H11 H 1.6498 0.4270 0.4623
C19 C 0.2204(3) 0.17880(12) 0.66818(10)
H12 H 0.1930 0.2102 0.7111
C20 C 0.2791(2) 0.01597(11) 0.27197(9)
H13 H 0.3376 -0.0223 0.3090
H14 H 0.1720 -0.0076 0.2383
H15 H 0.2279 0.0587 0.3010
C21 C 0.3483(3) 0.10752(12) 0.16364(10)
H16 H 0.2862 0.1475 0.1929
H17 H 0.2501 0.0839 0.1258
H18 H 0.4524 0.1303 0.1357
C22 C 0.5343(3) -0.02025(11) 0.17964(12)
H19 H 0.6343 0.0004 0.1482
H20 H 0.4350 -0.0477 0.1454
H21 H 0.5957 -0.0556 0.2191
loop_
_geom_bond_atom_site_label_1
_geom_bond_atom_site_label_2
_geom_bond_site_symmetry_1
_geom_bond_site_symmetry_2
O1 C1 1_555 1_555
O2 C7 1_555 1_555
O3 C7 1_555 1_555
N1 C1 1_555 1_555
C1 C4 1_555 1_555
C2 H1 1_555 1_555
C3 C2 1_555 1_555
C4 C6 1_555 1_555
C5 O1 1_555 1_555
C6 H2 1_555 1_555
C7 C8 1_555 1_555
C8 N1 1_555 1_555
C9 C3 1_555 1_555
H3 C9 1_555 1_555
C10 H4 1_555 1_555
C11 C2 1_555 1_555
H5 C11 1_555 1_555
C12 O2 1_555 1_555
C13 C4 1_555 1_555
H6 C13 1_555 1_555
C14 C3 1_555 1_555
H7 C14 1_555 1_555
C15 C6 1_555 1_555
H8 C15 1_555 1_555
C16 H9 1_555 1_555
C17 C9 1_555 1_555
H10 C17 1_555 1_555
C18 C10 1_555 1_555
H11 C18 1_555 1_555
C19 C14 1_555 1_555
H12 C19 1_555 1_555
C20 C12 1_555 1_555
H13 C20 1_555 1_555
H14 C20 1_555 1_555
H15 C20 1_555 1_555
C21 C12 1_555 1_555
H16 C21 1_555 1_555
H17 C21 1_555 1_555
H18 C21 1_555 1_555
C22 C12 1_555 1_555
H19 C22 1_555 1_555
H20 C22 1_555 1_555
H21 C22 1_555 1_555
C5 C8 1_555 1_555
C5 C11 1_555 1_555
C10 C13 1_555 1_555
C15 C18 1_555 1_555
C16 C17 1_555 1_555
C16 C19 1_555 1_555

#END
