
#######################################################################
#
#                 Cambridge Crystallographic Data Centre
#                                CCDC 
#
#######################################################################
#
# If this CIF has been generated from an entry in the Cambridge 
# Structural Database, then it will include bibliographic, chemical, 
# crystal, experimental, refinement or atomic coordinate data resulting 
# from the CCDC's data processing and validation procedures.
#
#######################################################################

data_MABZEW
_chemical_formula_moiety         'C24 H9 F17'
_chemical_name_systematic        1-(Heptadecafluorooctyl)pyrene
_symmetry_cell_setting           monoclinic
_symmetry_space_group_name_H-M   'P 21/c'
_symmetry_Int_Tables_number      14
_space_group_name_Hall           '-P 2ybc'
loop_
_symmetry_equiv_pos_site_id
_symmetry_equiv_pos_as_xyz
1 x,y,z
2 -x,1/2+y,1/2-z
3 -x,-y,-z
4 x,1/2-y,1/2+z
_cell_length_a                   19.0062(12)
_cell_length_b                   11.4277(13)
_cell_length_c                   10.594(2)
_cell_angle_alpha                90
_cell_angle_beta                 105.056(8)
_cell_angle_gamma                90
_cell_volume                     2222
_exptl_crystal_colour            colorless
_exptl_crystal_description       plate
_cell_formula_units_Z            4
loop_
_atom_site_label
_atom_site_type_symbol
_atom_site_fract_x
_atom_site_fract_y
_atom_site_fract_z
F1 F 0.24298(14) 0.2154(2) -0.0553(3)
F2 F 0.28316(15) 0.3166(3) -0.1956(3)
F3 F 0.27728(14) 0.3979(3) 0.1200(3)
F4 F 0.31014(15) 0.5024(2) -0.0269(3)
F5 F 0.37810(15) 0.2257(3) 0.0774(3)
F6 F 0.41580(15) 0.3568(3) -0.0361(3)
F7 F 0.40736(15) 0.3547(3) 0.2875(3)
F8 F 0.42440(16) 0.5096(3) 0.1813(3)
F9 F 0.51968(15) 0.2497(3) 0.1882(3)
F10 F 0.54155(15) 0.4246(3) 0.1320(3)
F11 F 0.54395(17) 0.3025(3) 0.4313(3)
F12 F 0.53740(16) 0.4894(3) 0.3942(3)
F13 F 0.66143(16) 0.3049(3) 0.3070(3)
F14 F 0.65720(17) 0.4921(3) 0.3239(4)
F15 F 0.6860(2) 0.2775(4) 0.5605(4)
F16 F 0.6654(2) 0.4575(4) 0.5892(4)
F17 F 0.75620(16) 0.4062(4) 0.5184(3)
C1 C 0.1775(2) 0.3862(4) -0.1448(4)
C2 C 0.1182(2) 0.3642(4) -0.0913(4)
C3 C 0.1206(2) 0.2943(4) 0.0226(4)
H1 H 0.1657 0.2610 0.0688
C4 C 0.0614(3) 0.2745(4) 0.0657(4)
H2 H 0.0662 0.2303 0.1434
C5 C -0.0091(2) 0.3181(4) -0.0019(4)
C6 C -0.0719(3) 0.2931(4) 0.0390(5)
H3 H -0.0688 0.2457 0.1138
C7 C -0.1384(3) 0.3378(5) -0.0301(5)
H4 H -0.1809 0.3192 -0.0029
C8 C -0.1441(3) 0.4082(4) -0.1367(5)
H5 H -0.1904 0.4383 -0.1817
C9 C -0.0830(2) 0.4363(4) -0.1804(4)
C10 C -0.0861(3) 0.5113(4) -0.2899(5)
H6 H -0.1319 0.5423 -0.3366
C11 C -0.0266(3) 0.5391(4) -0.3284(4)
H7 H -0.0307 0.5914 -0.3997
C12 C 0.0433(2) 0.4915(4) -0.2642(4)
C13 C 0.1052(3) 0.5174(4) -0.3064(4)
H8 H 0.1024 0.5718 -0.3754
C14 C 0.1703(3) 0.4639(4) -0.2477(5)
H9 H 0.2117 0.4807 -0.2789
C15 C -0.0139(2) 0.3892(4) -0.1126(4)
C16 C 0.0494(2) 0.4159(4) -0.1560(4)
C17 C 0.2500(3) 0.3259(4) -0.0965(5)
C18 C 0.3050(2) 0.3918(4) 0.0148(5)
C19 C 0.3827(2) 0.3402(4) 0.0592(5)
C20 C 0.4310(2) 0.3941(4) 0.1860(5)
C21 C 0.5131(3) 0.3624(4) 0.2141(5)
C22 C 0.5579(3) 0.3875(5) 0.3537(5)
C23 C 0.6407(3) 0.3908(5) 0.3747(5)
C24 C 0.6868(3) 0.3845(6) 0.5138(6)
loop_
_geom_bond_atom_site_label_1
_geom_bond_atom_site_label_2
_geom_bond_site_symmetry_1
_geom_bond_site_symmetry_2
F1 C17 1_555 1_555
F2 C17 1_555 1_555
F3 C18 1_555 1_555
F4 C18 1_555 1_555
F5 C19 1_555 1_555
F6 C19 1_555 1_555
F7 C20 1_555 1_555
F8 C20 1_555 1_555
F9 C21 1_555 1_555
F10 C21 1_555 1_555
F11 C22 1_555 1_555
F12 C22 1_555 1_555
F13 C23 1_555 1_555
F14 C23 1_555 1_555
F15 C24 1_555 1_555
F16 C24 1_555 1_555
F17 C24 1_555 1_555
C1 C2 1_555 1_555
C2 C3 1_555 1_555
C3 H1 1_555 1_555
C4 C3 1_555 1_555
H2 C4 1_555 1_555
C5 C4 1_555 1_555
C6 C5 1_555 1_555
H3 C6 1_555 1_555
C7 C6 1_555 1_555
H4 C7 1_555 1_555
C8 C7 1_555 1_555
H5 C8 1_555 1_555
C9 C8 1_555 1_555
C10 C9 1_555 1_555
H6 C10 1_555 1_555
C11 C10 1_555 1_555
H7 C11 1_555 1_555
C12 C11 1_555 1_555
C13 C12 1_555 1_555
H8 C13 1_555 1_555
C14 C1 1_555 1_555
H9 C14 1_555 1_555
C15 C5 1_555 1_555
C16 C2 1_555 1_555
C17 C1 1_555 1_555
C18 C17 1_555 1_555
C19 C18 1_555 1_555
C20 C19 1_555 1_555
C21 C20 1_555 1_555
C22 C21 1_555 1_555
C23 C22 1_555 1_555
C24 C23 1_555 1_555
C9 C15 1_555 1_555
C12 C16 1_555 1_555
C13 C14 1_555 1_555
C15 C16 1_555 1_555

#END
