
#######################################################################
#
#                 Cambridge Crystallographic Data Centre
#                                CCDC 
#
#######################################################################
#
# If this CIF has been generated from an entry in the Cambridge 
# Structural Database, then it will include bibliographic, chemical, 
# crystal, experimental, refinement or atomic coordinate data resulting 
# from the CCDC's data processing and validation procedures.
#
#######################################################################

data_MACLOS
_chemical_name_common            
'1,2-bis(4-(4-Iodophenylaminomethyl)phenyl)diazene 1-oxide'
_chemical_formula_moiety         'C26 H22 I2 N4 O1'
_chemical_name_systematic        4,4'-bis(4-Iodophenylaminomethyl)azoxybenzene
_symmetry_cell_setting           monoclinic
_symmetry_space_group_name_H-M   'P 21/c'
_symmetry_Int_Tables_number      14
_space_group_name_Hall           '-P 2ybc'
loop_
_symmetry_equiv_pos_site_id
_symmetry_equiv_pos_as_xyz
1 x,y,z
2 x,1/2-y,1/2+z
3 -x,-y,-z
4 -x,1/2+y,1/2-z
_cell_length_a                   5.6959(7)
_cell_length_b                   30.061(3)
_cell_length_c                   7.2017(8)
_cell_angle_alpha                90
_cell_angle_beta                 99.526(2)
_cell_angle_gamma                90
_cell_volume                     1216.1
_exptl_crystal_colour            colorless
_exptl_crystal_description       plate
_cell_formula_units_Z            2
_exptl_crystal_recrystallization_method ethanol
loop_
_atom_site_label
_atom_site_type_symbol
_atom_site_fract_x
_atom_site_fract_y
_atom_site_fract_z
C1 C -0.0487(8) 0.42356(17) 0.0829(6)
C2 C 0.1493(10) 0.4451(2) 0.0392(7)
C3 C 0.3088(10) 0.4667(2) 0.1769(8)
C4 C 0.2659(9) 0.46671(16) 0.3596(7)
C5 C 0.0703(9) 0.44510(18) 0.4049(7)
C6 C -0.0883(9) 0.42386(17) 0.2660(7)
C7 C -0.2247(10) 0.4015(2) -0.0689(8)
N1 N -0.1072(8) 0.37175(16) -0.1815(6)
N2 N 0.4229(8) 0.48628(14) 0.5175(6)
O1 O 0.3713(15) 0.4722(3) 0.6943(9)
I1 I -0.60670(8) 0.287175(14) -0.93967(6)
C8 C -0.2268(8) 0.35259(16) -0.3447(6)
C9 C -0.1097(8) 0.32065(17) -0.4363(7)
C10 C -0.2133(9) 0.30266(18) -0.6060(7)
C11 C -0.4425(8) 0.31586(15) -0.6852(6)
C12 C -0.5615(8) 0.34664(16) -0.5969(6)
C13 C -0.4571(8) 0.36469(16) -0.4253(6)
H1 H 0.1766 0.4451 -0.0846
H2 H 0.4422 0.4809 0.1462
H3 H 0.0442 0.4447 0.5290
H4 H -0.2220 0.4098 0.2969
H5 H -0.3400 0.3849 -0.0114
H6 H -0.3099 0.4241 -0.1494
H7 H 0.0411 0.3658 -0.1460
H8 H 0.0416 0.3113 -0.3814
H9 H -0.1313 0.2820 -0.6669
H10 H -0.7135 0.3556 -0.6518
H11 H -0.5414 0.3849 -0.3642
N2B N 0.5771(8) 0.51372(14) 0.4825(6)
C4B C 0.7341(9) 0.53329(16) 0.6404(7)
C3B C 0.6912(10) 0.5333(2) 0.8231(8)
C2B C 0.8507(10) 0.5549(2) 0.9608(7)
C1B C 1.0487(8) 0.57644(17) 0.9171(6)
C6B C 1.0883(9) 0.57614(17) 0.7340(7)
C5B C 0.9297(9) 0.55490(18) 0.5951(7)
H3B H 0.9558 0.5553 0.4710
H4B H 1.2220 0.5902 0.7031
C7B C 1.2247(10) 0.5985(2) 1.0689(8)
N1B N 1.1072(8) 0.62825(16) 1.1815(6)
C8B C 1.2268(8) 0.64741(16) 1.3447(6)
C9B C 1.1097(8) 0.67935(17) 1.4363(7)
C10B C 1.2133(9) 0.69734(18) 1.6060(7)
C11B C 1.4425(8) 0.68414(15) 1.6852(6)
I1B I 1.60670(8) 0.712825(14) 1.93967(6)
C12B C 1.5615(8) 0.65336(16) 1.5969(6)
C13B C 1.4571(8) 0.63531(16) 1.4253(6)
H11B H 1.5414 0.6151 1.3642
H10B H 1.7135 0.6444 1.6518
H9B H 1.1313 0.7180 1.6669
H8B H 0.9584 0.6887 1.3814
H7B H 0.9589 0.6342 1.1460
H5B H 1.3400 0.6151 1.0114
H6B H 1.3099 0.5759 1.1494
H1B H 0.8234 0.5549 1.0846
H2B H 0.5578 0.5191 0.8538
O1B O 0.6287(15) 0.5278(3) 0.3057(9)
loop_
_geom_bond_atom_site_label_1
_geom_bond_atom_site_label_2
_geom_bond_site_symmetry_1
_geom_bond_site_symmetry_2
C1 C2 1_555 1_555
C2 C3 1_555 1_555
C3 C4 1_555 1_555
C4 C5 1_555 1_555
C5 C6 1_555 1_555
C6 C1 1_555 1_555
C7 C1 1_555 1_555
N1 C7 1_555 1_555
N2 C4 1_555 1_555
O1 N2 1_555 1_555
I1 C11 1_555 1_555
C8 N1 1_555 1_555
C9 C8 1_555 1_555
C10 C9 1_555 1_555
C11 C10 1_555 1_555
C12 C11 1_555 1_555
C13 C8 1_555 1_555
H1 C2 1_555 1_555
H2 C3 1_555 1_555
H3 C5 1_555 1_555
H4 C6 1_555 1_555
H5 C7 1_555 1_555
H6 C7 1_555 1_555
H7 N1 1_555 1_555
H8 C9 1_555 1_555
H9 C10 1_555 1_555
H10 C12 1_555 1_555
H11 C13 1_555 1_555
N2B N2 1_555 1_555
C4B N2B 1_555 1_555
C3B C4B 1_555 1_555
C2B C3B 1_555 1_555
C1B C2B 1_555 1_555
C6B C1B 1_555 1_555
C5B C4B 1_555 1_555
H3B C5B 1_555 1_555
H4B C6B 1_555 1_555
C7B C1B 1_555 1_555
N1B C7B 1_555 1_555
C8B N1B 1_555 1_555
C9B C8B 1_555 1_555
C10B C9B 1_555 1_555
C11B C10B 1_555 1_555
I1B C11B 1_555 1_555
C12B C11B 1_555 1_555
C13B C8B 1_555 1_555
H11B C13B 1_555 1_555
H10B C12B 1_555 1_555
H9B C10B 1_555 1_555
H8B C9B 1_555 1_555
H7B N1B 1_555 1_555
H5B C7B 1_555 1_555
H6B C7B 1_555 1_555
H1B C2B 1_555 1_555
H2B C3B 1_555 1_555
O1B N2B 1_555 1_555
C12 C13 1_555 1_555
C6B C5B 1_555 1_555
C12B C13B 1_555 1_555

#END
