
#######################################################################
#
#                 Cambridge Crystallographic Data Centre
#                                CCDC 
#
#######################################################################
#
# If this CIF has been generated from an entry in the Cambridge 
# Structural Database, then it will include bibliographic, chemical, 
# crystal, experimental, refinement or atomic coordinate data resulting 
# from the CCDC's data processing and validation procedures.
#
#######################################################################

data_MACLIM
_chemical_name_common            
'1,2,4,5-benzenetetracarboxylic acid bis(dimethyl sulfoxide)'
_chemical_formula_moiety         'C10 H6 O8,2(C2 H6 O1 S1)'
_chemical_name_systematic        'Pyromellitic acid bis(dimethyl sulfoxide)'
_symmetry_cell_setting           triclinic
_symmetry_space_group_name_H-M   'P -1'
_symmetry_Int_Tables_number      2
_space_group_name_Hall           '-P 1'
loop_
_symmetry_equiv_pos_site_id
_symmetry_equiv_pos_as_xyz
1 x,y,z
2 -x,-y,-z
_cell_length_a                   7.3770(10)
_cell_length_b                   7.4240(10)
_cell_length_c                   8.9340(10)
_cell_angle_alpha                80.070(10)
_cell_angle_beta                 80.970(10)
_cell_angle_gamma                76.150(10)
_cell_volume                     464.509
_exptl_crystal_colour            colorless
_exptl_crystal_description       prism
_cell_formula_units_Z            1
loop_
_atom_site_label
_atom_site_type_symbol
_atom_site_fract_x
_atom_site_fract_y
_atom_site_fract_z
O1 O 0.2108(2) 0.5497(3) 0.69190(18)
O2 O 0.4485(2) 0.6869(2) 0.59915(16)
O3 O 0.3879(2) 0.9808(2) 0.8045(2)
O4 O 0.6979(2) 0.8918(2) 0.80119(19)
C1 C 0.4108(3) 0.3836(2) 0.9479(2)
H1 H 0.3504 0.3054 0.9129
C2 C 0.4291(2) 0.5529(2) 0.8586(2)
C3 C 0.5194(2) 0.6711(2) 0.9120(2)
C4 C 0.3499(3) 0.5982(3) 0.7087(2)
C5 C 0.5259(3) 0.8645(3) 0.8311(2)
H8 H 0.706(4) 1.006(3) 0.753(3)
H9 H 0.394(4) 0.711(4) 0.514(2)
C3A C 0.4806(2) 0.3289(2) 1.0880(2)
C2A C 0.5709(2) 0.4471(2) 1.1414(2)
C1A C 0.5892(3) 0.6164(2) 1.0521(2)
H1A H 0.6496 0.6946 1.0871
C4A C 0.6501(3) 0.4018(3) 1.2913(2)
O1A O 0.7892(2) 0.4503(3) 1.30810(18)
O2A O 0.5515(2) 0.3131(2) 1.40085(16)
H9A H 0.606(4) 0.289(4) 1.486(2)
C5A C 0.4741(3) 0.1355(3) 1.1689(2)
O3A O 0.6121(2) 0.0192(2) 1.1955(2)
O4A O 0.3021(2) 0.1082(2) 1.19881(19)
H8A H 0.294(4) -0.006(3) 1.247(3)
S1 S 0.11370(7) 0.68265(7) 0.33963(6)
O5 O 0.2693(2) 0.7812(2) 0.35311(16)
C6 C -0.0921(3) 0.7997(4) 0.4438(3)
H2 H -0.1130 0.9318 0.4084
H3 H -0.0772 0.7774 0.5507
H4 H -0.1979 0.7533 0.4288
C7 C 0.0531(3) 0.7653(5) 0.1514(3)
H5 H 0.1608 0.7298 0.0784
H6 H 0.0129 0.8994 0.1388
H7 H -0.0470 0.7114 0.1352
loop_
_geom_bond_atom_site_label_1
_geom_bond_atom_site_label_2
_geom_bond_site_symmetry_1
_geom_bond_site_symmetry_2
O1 C4 1_555 1_555
O2 C4 1_555 1_555
O3 C5 1_555 1_555
O4 C5 1_555 1_555
C1 H1 1_555 1_555
C2 C1 1_555 1_555
C3 C2 1_555 1_555
C4 C2 1_555 1_555
C5 C3 1_555 1_555
S1 O5 1_555 1_555
C6 S1 1_555 1_555
H2 C6 1_555 1_555
H3 C6 1_555 1_555
H4 C6 1_555 1_555
C7 S1 1_555 1_555
H5 C7 1_555 1_555
H6 C7 1_555 1_555
H7 C7 1_555 1_555
H8 O4 1_555 1_555
H9 O2 1_555 1_555
C3A C1 1_555 1_555
C2A C3A 1_555 1_555
C1A C3 1_555 1_555
H1A C1A 1_555 1_555
C4A C2A 1_555 1_555
O1A C4A 1_555 1_555
O2A C4A 1_555 1_555
H9A O2A 1_555 1_555
C5A C3A 1_555 1_555
O3A C5A 1_555 1_555
O4A C5A 1_555 1_555
H8A O4A 1_555 1_555
C2A C1A 1_555 1_555

#END
