
#######################################################################
#
#                 Cambridge Crystallographic Data Centre
#                                CCDC 
#
#######################################################################
#
# If this CIF has been generated from an entry in the Cambridge 
# Structural Database, then it will include bibliographic, chemical, 
# crystal, experimental, refinement or atomic coordinate data resulting 
# from the CCDC's data processing and validation procedures.
#
#######################################################################

data_MACMOT01
_chemical_formula_moiety         'C16 H12 N2 S4'
_chemical_name_systematic        1,2-bis(Benzothiazol-2-ylsulfanyl)ethane
_symmetry_cell_setting           monoclinic
_symmetry_space_group_name_H-M   'P 21/n'
_symmetry_Int_Tables_number      14
_space_group_name_Hall           '-P 2yn'
loop_
_symmetry_equiv_pos_site_id
_symmetry_equiv_pos_as_xyz
1 x,y,z
2 1/2+x,1/2-y,1/2+z
3 -x,-y,-z
4 1/2-x,1/2+y,1/2-z
_cell_length_a                   11.534(4)
_cell_length_b                   10.719(4)
_cell_length_c                   14.006(5)
_cell_angle_alpha                90
_cell_angle_beta                 114.029(5)
_cell_angle_gamma                90
_cell_volume                     1581.54
_exptl_crystal_colour            yellow
_exptl_crystal_description       needle
_chemical_melting_point          411-413K
_cell_formula_units_Z            4
_exptl_crystal_recrystallization_method chloroform
loop_
_atom_site_label
_atom_site_type_symbol
_atom_site_fract_x
_atom_site_fract_y
_atom_site_fract_z
S1 S 0.71656(7) 0.53816(7) 0.11326(6)
S2 S 0.73711(8) 0.40329(8) 0.30512(6)
S3 S 0.43280(8) 0.33636(8) 0.41476(7)
S4 S 0.43831(7) 0.19798(8) 0.59982(6)
N1 N 0.5573(2) 0.5757(2) 0.19906(17)
N2 N 0.6112(2) 0.1659(2) 0.52809(18)
C1 C 0.5964(2) 0.6467(2) 0.0549(2)
C2 C 0.5719(3) 0.7194(3) -0.0323(2)
H1 H 0.6217 0.7134 -0.0702
C3 C 0.4708(3) 0.8019(3) -0.0618(2)
H2 H 0.4523 0.8518 -0.1205
C4 C 0.3975(3) 0.8107(3) -0.0054(3)
H3 H 0.3305 0.8672 -0.0265
C5 C 0.4210(3) 0.7377(3) 0.0819(2)
H4 H 0.3704 0.7443 0.1191
C6 C 0.5217(2) 0.6542(2) 0.1129(2)
C7 C 0.6560(3) 0.5113(3) 0.2078(2)
C8 C 0.6432(3) 0.4090(3) 0.3827(2)
H5 H 0.6954 0.3826 0.4536
H6 H 0.6169 0.4943 0.3856
C9 C 0.5291(3) 0.3279(3) 0.3388(2)
H7 H 0.5556 0.2422 0.3376
H8 H 0.4780 0.3529 0.2674
C10 C 0.5096(3) 0.2275(3) 0.5127(2)
C11 C 0.6412(3) 0.0865(2) 0.6133(2)
C12 C 0.7435(3) 0.0061(3) 0.6508(2)
H9 H 0.7989 0.0009 0.6179
C13 C 0.7629(3) -0.0663(3) 0.7374(2)
H10 H 0.8327 -0.1193 0.7633
C14 C 0.6800(3) -0.0611(3) 0.7862(2)
H11 H 0.6940 -0.1113 0.8440
C15 C 0.5769(3) 0.0179(3) 0.7498(2)
H12 H 0.5215 0.0218 0.7828
C16 C 0.5575(3) 0.0913(3) 0.6633(2)
loop_
_geom_bond_atom_site_label_1
_geom_bond_atom_site_label_2
_geom_bond_site_symmetry_1
_geom_bond_site_symmetry_2
S1 C1 1_555 1_555
S2 C7 1_555 1_555
S3 C9 1_555 1_555
S4 C10 1_555 1_555
N1 C6 1_555 1_555
N2 C10 1_555 1_555
C1 C2 1_555 1_555
C2 H1 1_555 1_555
C3 C2 1_555 1_555
H2 C3 1_555 1_555
C4 C3 1_555 1_555
H3 C4 1_555 1_555
C5 C4 1_555 1_555
H4 C5 1_555 1_555
C6 C1 1_555 1_555
C7 S1 1_555 1_555
C8 S2 1_555 1_555
H5 C8 1_555 1_555
H6 C8 1_555 1_555
C9 C8 1_555 1_555
H7 C9 1_555 1_555
H8 C9 1_555 1_555
C10 S3 1_555 1_555
C11 N2 1_555 1_555
C12 C11 1_555 1_555
H9 C12 1_555 1_555
C13 C12 1_555 1_555
H10 C13 1_555 1_555
C14 C13 1_555 1_555
H11 C14 1_555 1_555
C15 C14 1_555 1_555
H12 C15 1_555 1_555
C16 S4 1_555 1_555
N1 C7 1_555 1_555
C5 C6 1_555 1_555
C11 C16 1_555 1_555
C15 C16 1_555 1_555

#END
