
#######################################################################
#
#                 Cambridge Crystallographic Data Centre
#                                CCDC 
#
#######################################################################
#
# If this CIF has been generated from an entry in the Cambridge 
# Structural Database, then it will include bibliographic, chemical, 
# crystal, experimental, refinement or atomic coordinate data resulting 
# from the CCDC's data processing and validation procedures.
#
#######################################################################

data_MACSAM
_chemical_formula_moiety         'C35 H34'
_chemical_name_systematic        2,6-Di-t-butyl-9-(9H-fluoren-9-yl)anthracene
_symmetry_cell_setting           monoclinic
_symmetry_space_group_name_H-M   'P 21/c'
_symmetry_Int_Tables_number      14
_space_group_name_Hall           '-P 2ybc'
loop_
_symmetry_equiv_pos_site_id
_symmetry_equiv_pos_as_xyz
1 x,y,z
2 -x,1/2+y,1/2-z
3 -x,-y,-z
4 x,1/2-y,1/2+z
_cell_length_a                   17.740(3)
_cell_length_b                   16.318(2)
_cell_length_c                   9.1125(13)
_cell_angle_alpha                90
_cell_angle_beta                 97.205(2)
_cell_angle_gamma                90
_cell_volume                     2617.07
_cell_formula_units_Z            4
_exptl_crystal_recrystallization_method pentane
loop_
_atom_site_label
_atom_site_type_symbol
_atom_site_fract_x
_atom_site_fract_y
_atom_site_fract_z
C1 C 0.21143(12) 0.38550(13) 0.7863(2)
C2 C 0.13412(13) 0.36650(14) 0.7381(3)
H1 H 0.1083 0.3313 0.7946
C3 C 0.09711(12) 0.39822(13) 0.6124(2)
H2 H 0.0464 0.3845 0.5848
C4 C 0.13374(11) 0.45220(12) 0.5210(2)
C5 C 0.09576(12) 0.48704(13) 0.3941(2)
H3 H 0.0442 0.4765 0.3695
C6 C 0.13269(11) 0.53743(12) 0.3021(2)
C7 C 0.09314(12) 0.57262(12) 0.1717(2)
H4 H 0.0411 0.5638 0.1516
C8 C 0.12782(12) 0.61851(12) 0.0751(2)
C9 C 0.20775(13) 0.62891(14) 0.1096(3)
H5 H 0.2337 0.6575 0.0433
C10 C 0.24746(12) 0.59936(13) 0.2337(2)
H6 H 0.2994 0.6097 0.2512
C11 C 0.21255(11) 0.55249(12) 0.3400(2)
C12 C 0.25126(11) 0.52117(12) 0.4722(2)
C13 C 0.21224(11) 0.47045(12) 0.5638(2)
C14 C 0.24757(11) 0.43615(13) 0.6989(2)
H7 H 0.2982 0.4491 0.7292
C15 C 0.25020(13) 0.35118(14) 0.9328(3)
C16 C 0.2430(2) 0.25864(18) 0.9345(4)
H8 H 0.1902 0.2437 0.9210
H9 H 0.2666 0.2378 1.0276
H10 H 0.2676 0.2357 0.8559
C17 C 0.21116(18) 0.3851(2) 1.0590(3)
H11 H 0.1593 0.3669 1.0485
H12 H 0.2125 0.4439 1.0566
H13 H 0.2370 0.3661 1.1515
C18 C 0.33362(16) 0.3737(3) 0.9618(4)
H14 H 0.3550 0.3518 1.0557
H15 H 0.3388 0.4322 0.9630
H16 H 0.3599 0.3512 0.8852
C19 C 0.08752(13) 0.65468(13) -0.0677(2)
C20 C 0.00123(14) 0.65168(18) -0.0732(3)
H17 H -0.0149 0.5958 -0.0673
H18 H -0.0219 0.6754 -0.1643
H19 H -0.0138 0.6820 0.0086
C21 C 0.11007(16) 0.60515(17) -0.1980(3)
H20 H 0.1642 0.6074 -0.1974
H21 H 0.0856 0.6278 -0.2890
H22 H 0.0945 0.5492 -0.1894
C22 C 0.11072(17) 0.74418(15) -0.0847(3)
H23 H 0.0994 0.7750 -0.0004
H24 H 0.0831 0.7666 -0.1729
H25 H 0.1642 0.7470 -0.0914
C23 C 0.33439(11) 0.54240(13) 0.5179(2)
H26 H 0.3503 0.5757 0.4377
C24 C 0.39113(12) 0.47271(14) 0.5432(3)
C25 C 0.39875(14) 0.40409(15) 0.4578(3)
H27 H 0.3658 0.3949 0.3716
C26 C 0.45643(16) 0.34929(17) 0.5033(4)
H28 H 0.4620 0.3024 0.4477
C27 C 0.50579(15) 0.36329(18) 0.6299(4)
H29 H 0.5440 0.3255 0.6588
C28 C 0.49948(13) 0.43204(16) 0.7142(3)
H30 H 0.5336 0.4417 0.7985
C29 C 0.44121(12) 0.48681(14) 0.6712(3)
C30 C 0.41734(11) 0.56110(14) 0.7428(3)
C31 C 0.44562(14) 0.59888(16) 0.8748(3)
H31 H 0.4893 0.5791 0.9308
C32 C 0.40817(16) 0.66600(16) 0.9215(3)
H32 H 0.4262 0.6909 1.0109
C33 C 0.34423(15) 0.69684(15) 0.8376(3)
H33 H 0.3198 0.7424 0.8707
C34 C 0.31622(13) 0.66044(13) 0.7047(3)
H34 H 0.2735 0.6816 0.6476
C35 C 0.35256(11) 0.59239(13) 0.6585(2)
loop_
_geom_bond_atom_site_label_1
_geom_bond_atom_site_label_2
_geom_bond_site_symmetry_1
_geom_bond_site_symmetry_2
C1 C2 1_555 1_555
C2 H1 1_555 1_555
C3 C2 1_555 1_555
H2 C3 1_555 1_555
C4 C3 1_555 1_555
C5 C4 1_555 1_555
H3 C5 1_555 1_555
C6 C5 1_555 1_555
C7 C6 1_555 1_555
H4 C7 1_555 1_555
C8 C7 1_555 1_555
C9 C8 1_555 1_555
H5 C9 1_555 1_555
C10 C9 1_555 1_555
H6 C10 1_555 1_555
C11 C6 1_555 1_555
C12 C11 1_555 1_555
C13 C4 1_555 1_555
C14 C1 1_555 1_555
H7 C14 1_555 1_555
C15 C1 1_555 1_555
C16 C15 1_555 1_555
H8 C16 1_555 1_555
H9 C16 1_555 1_555
H10 C16 1_555 1_555
C17 C15 1_555 1_555
H11 C17 1_555 1_555
H12 C17 1_555 1_555
H13 C17 1_555 1_555
C18 C15 1_555 1_555
H14 C18 1_555 1_555
H15 C18 1_555 1_555
H16 C18 1_555 1_555
C19 C8 1_555 1_555
C20 C19 1_555 1_555
H17 C20 1_555 1_555
H18 C20 1_555 1_555
H19 C20 1_555 1_555
C21 C19 1_555 1_555
H20 C21 1_555 1_555
H21 C21 1_555 1_555
H22 C21 1_555 1_555
C22 C19 1_555 1_555
H23 C22 1_555 1_555
H24 C22 1_555 1_555
H25 C22 1_555 1_555
C23 C12 1_555 1_555
H26 C23 1_555 1_555
C24 C23 1_555 1_555
C25 C24 1_555 1_555
H27 C25 1_555 1_555
C26 C25 1_555 1_555
H28 C26 1_555 1_555
C27 C26 1_555 1_555
H29 C27 1_555 1_555
C28 C27 1_555 1_555
H30 C28 1_555 1_555
C29 C24 1_555 1_555
C30 C29 1_555 1_555
C31 C30 1_555 1_555
H31 C31 1_555 1_555
C32 C31 1_555 1_555
H32 C32 1_555 1_555
C33 C32 1_555 1_555
H33 C33 1_555 1_555
C34 C33 1_555 1_555
H34 C34 1_555 1_555
C35 C23 1_555 1_555
C10 C11 1_555 1_555
C12 C13 1_555 1_555
C13 C14 1_555 1_555
C28 C29 1_555 1_555
C30 C35 1_555 1_555
C34 C35 1_555 1_555

#END
