
#######################################################################
#
#                 Cambridge Crystallographic Data Centre
#                                CCDC 
#
#######################################################################
#
# If this CIF has been generated from an entry in the Cambridge 
# Structural Database, then it will include bibliographic, chemical, 
# crystal, experimental, refinement or atomic coordinate data resulting 
# from the CCDC's data processing and validation procedures.
#
#######################################################################

data_MACSEQ
_chemical_formula_moiety         'C26 H24 O1'
_chemical_name_systematic        
6,7-Diphenyl-2-(2-phenylethyl)-3-oxabicyclo[4.1.0]hept-4-ene
_symmetry_cell_setting           monoclinic
_symmetry_space_group_name_H-M   'P 21'
_symmetry_Int_Tables_number      4
_space_group_name_Hall           'P 2yb'
loop_
_symmetry_equiv_pos_site_id
_symmetry_equiv_pos_as_xyz
1 x,y,z
2 -x,1/2+y,-z
_cell_length_a                   12.393(3)
_cell_length_b                   5.8186(12)
_cell_length_c                   14.691(3)
_cell_angle_alpha                90
_cell_angle_beta                 111.21(3)
_cell_angle_gamma                90
_cell_volume                     987.606
_cell_formula_units_Z            2
loop_
_atom_site_label
_atom_site_type_symbol
_atom_site_fract_x
_atom_site_fract_y
_atom_site_fract_z
O1 O 0.32049(15) 0.3110(3) 0.41719(11)
C1 C 0.4104(2) 0.1636(5) 0.42644(18)
H1 H 0.4431 0.0854 0.4853
C2 C 0.4538(2) 0.1247(4) 0.35843(18)
H2 H 0.5156 0.0234 0.3714
C3 C 0.40675(19) 0.2383(3) 0.26120(16)
C4 C 0.32266(18) 0.4273(4) 0.25743(15)
H3 H 0.3221 0.5542 0.2134
C5 C 0.3059(2) 0.4990(4) 0.34953(15)
H4 H 0.3630 0.6179 0.3815
C6 C 0.1863(2) 0.5966(4) 0.32935(16)
H5 H 0.1301 0.4749 0.3031
H6 H 0.1715 0.7137 0.2793
C7 C 0.1663(2) 0.7010(5) 0.41667(17)
H7 H 0.1802 0.5851 0.4671
H8 H 0.2210 0.8250 0.4430
C8 C 0.0455(2) 0.7920(4) 0.38996(16)
C9 C 0.0136(3) 1.0001(5) 0.34280(19)
H9 H 0.0690 1.0870 0.3293
C10 C -0.0964(3) 1.0821(5) 0.3154(2)
H10 H -0.1152 1.2229 0.2836
C11 C -0.1797(3) 0.9574(6) 0.3346(2)
H11 H -0.2550 1.0128 0.3164
C12 C -0.1500(3) 0.7494(6) 0.3813(2)
H12 H -0.2058 0.6632 0.3945
C13 C -0.0381(2) 0.6668(5) 0.40867(17)
H13 H -0.0193 0.5254 0.4400
C14 C 0.27460(18) 0.2050(4) 0.20688(15)
H14 H 0.2387 0.1101 0.2433
C15 C 0.21705(18) 0.1827(4) 0.09936(15)
C16 C 0.1468(2) -0.0055(4) 0.06170(18)
H15 H 0.1375 -0.1161 0.1040
C17 C 0.0902(2) -0.0316(5) -0.0380(2)
H16 H 0.0432 -0.1591 -0.0619
C18 C 0.1028(2) 0.1291(5) -0.10149(19)
H17 H 0.0645 0.1111 -0.1684
C19 C 0.1720(2) 0.3162(5) -0.06595(18)
H18 H 0.1811 0.4255 -0.1088
C20 C 0.2286(2) 0.3431(4) 0.03364(17)
H19 H 0.2754 0.4713 0.0570
C21 C 0.48566(19) 0.2577(4) 0.20499(16)
C22 C 0.5559(2) 0.4487(4) 0.21560(19)
H20 H 0.5521 0.5670 0.2570
C23 C 0.6311(2) 0.4673(5) 0.16617(19)
H21 H 0.6771 0.5975 0.1741
C24 C 0.6383(2) 0.2941(4) 0.10530(19)
H22 H 0.6890 0.3059 0.0718
C25 C 0.5700(2) 0.1039(5) 0.09440(19)
H23 H 0.5745 -0.0142 0.0532
C26 C 0.4945(2) 0.0850(4) 0.14375(19)
H24 H 0.4490 -0.0460 0.1356
loop_
_geom_bond_atom_site_label_1
_geom_bond_atom_site_label_2
_geom_bond_site_symmetry_1
_geom_bond_site_symmetry_2
O1 C1 1_555 1_555
C1 H1 1_555 1_555
C2 C1 1_555 1_555
H2 C2 1_555 1_555
C3 C2 1_555 1_555
C4 C3 1_555 1_555
H3 C4 1_555 1_555
C5 O1 1_555 1_555
H4 C5 1_555 1_555
C6 C5 1_555 1_555
H5 C6 1_555 1_555
H6 C6 1_555 1_555
C7 C6 1_555 1_555
H7 C7 1_555 1_555
H8 C7 1_555 1_555
C8 C7 1_555 1_555
C9 C8 1_555 1_555
H9 C9 1_555 1_555
C10 C9 1_555 1_555
H10 C10 1_555 1_555
C11 C10 1_555 1_555
H11 C11 1_555 1_555
C12 C11 1_555 1_555
H12 C12 1_555 1_555
C13 C8 1_555 1_555
H13 C13 1_555 1_555
C14 C3 1_555 1_555
H14 C14 1_555 1_555
C15 C14 1_555 1_555
C16 C15 1_555 1_555
H15 C16 1_555 1_555
C17 C16 1_555 1_555
H16 C17 1_555 1_555
C18 C17 1_555 1_555
H17 C18 1_555 1_555
C19 C18 1_555 1_555
H18 C19 1_555 1_555
C20 C15 1_555 1_555
H19 C20 1_555 1_555
C21 C3 1_555 1_555
C22 C21 1_555 1_555
H20 C22 1_555 1_555
C23 C22 1_555 1_555
H21 C23 1_555 1_555
C24 C23 1_555 1_555
H22 C24 1_555 1_555
C25 C24 1_555 1_555
H23 C25 1_555 1_555
C26 C21 1_555 1_555
H24 C26 1_555 1_555
C4 C5 1_555 1_555
C4 C14 1_555 1_555
C12 C13 1_555 1_555
C19 C20 1_555 1_555
C25 C26 1_555 1_555

#END
