
#######################################################################
#
#                 Cambridge Crystallographic Data Centre
#                                CCDC 
#
#######################################################################
#
# If this CIF has been generated from an entry in the Cambridge 
# Structural Database, then it will include bibliographic, chemical, 
# crystal, experimental, refinement or atomic coordinate data resulting 
# from the CCDC's data processing and validation procedures.
#
#######################################################################

data_MACYAT
_chemical_formula_moiety         'C28 H26 B2 N6 O1,C4 H8 O1'
_chemical_name_systematic        
"3,3'-oxybis(5-(4-methylphenyl)-2-phenyl-3,4-dihydro-2H-1,2,4,3-triazaborole) tetrahydrofuran solvate"
_symmetry_cell_setting           monoclinic
_symmetry_space_group_name_H-M   'C 2/c'
_symmetry_Int_Tables_number      15
_space_group_name_Hall           '-C 2yn'
loop_
_symmetry_equiv_pos_site_id
_symmetry_equiv_pos_as_xyz
1 x,y,z
2 -x,y,1/2-z
3 1/2+x,1/2+y,z
4 1/2-x,1/2+y,1/2-z
5 -x,-y,-z
6 x,-y,1/2+z
7 1/2-x,1/2-y,-z
8 1/2+x,1/2-y,1/2+z
_cell_length_a                   12.2629(5)
_cell_length_b                   19.8344(9)
_cell_length_c                   14.5639(8)
_cell_angle_alpha                90
_cell_angle_beta                 113.0854(13)
_cell_angle_gamma                90
_cell_volume                     3258.67
_exptl_crystal_colour            colorless
_exptl_crystal_description       block
_cell_formula_units_Z            4
loop_
_atom_site_label
_atom_site_type_symbol
_atom_site_fract_x
_atom_site_fract_y
_atom_site_fract_z
N1 N 0.60900(9) 0.34511(5) 0.13885(8)
H1 H 0.5576(18) 0.4931(11) 0.1912(14)
N2 N 0.65335(10) 0.38775(5) 0.08493(8)
N3 N 0.57516(10) 0.45247(5) 0.17123(8)
C1 C 0.66914(11) 0.50801(6) 0.06422(9)
C2 C 0.63273(11) 0.44923(6) 0.10645(9)
C3 C 0.77666(12) 0.55311(7) -0.03064(10)
H2 H 0.8262 0.5458 -0.0661
C4 C 0.74294(12) 0.49864(7) 0.01218(10)
H3 H 0.7701 0.4547 0.0062
C5 C 0.63124(11) 0.57314(7) 0.07283(10)
H4 H 0.5815 0.5804 0.1081
C6 C 0.66581(12) 0.62754(7) 0.02998(10)
H5 H 0.6392 0.6716 0.0365
C7 C 0.73883(12) 0.61856(7) -0.02235(10)
C8 C 0.62030(12) 0.18198(7) 0.01839(10)
H6 H 0.6311 0.1657 -0.0388
C9 C 0.59693(13) 0.22967(7) 0.18877(11)
H7 H 0.5918 0.2456 0.2485
C10 C 0.60129(12) 0.13660(7) 0.08311(11)
H8 H 0.5952 0.0897 0.0689
C11 C 0.61010(11) 0.27539(6) 0.12098(9)
C12 C 0.62380(11) 0.25123(7) 0.03611(10)
H9 H 0.6355 0.2818 -0.0094
C13 C 0.77660(13) 0.67721(7) -0.06863(11)
H10 H 0.7781 0.6633 -0.1327
H11 H 0.8559 0.6920 -0.0239
H12 H 0.7204 0.7144 -0.0794
C14 C 0.59135(13) 0.16082(7) 0.16911(11)
H13 H 0.5806 0.1301 0.2149
B1 B 0.55557(12) 0.38438(7) 0.19321(10)
O1 O 0.5000 0.35788(7) 0.2500
N1A N 0.39100(9) 0.34511(5) 0.36115(8)
H1A H 0.4424(18) 0.4931(11) 0.3088(14)
N2A N 0.34665(10) 0.38775(5) 0.41507(8)
N3A N 0.42484(10) 0.45247(5) 0.32877(8)
C1A C 0.33086(11) 0.50801(6) 0.43578(9)
C2A C 0.36727(11) 0.44923(6) 0.39355(9)
C3A C 0.22334(12) 0.55311(7) 0.53064(10)
H2A H 0.1738 0.5458 0.5661
C4A C 0.25706(12) 0.49864(7) 0.48782(10)
H3A H 0.2299 0.4547 0.4938
C5A C 0.36876(11) 0.57314(7) 0.42717(10)
H4A H 0.4185 0.5804 0.3919
C6A C 0.33419(12) 0.62754(7) 0.47002(10)
H5A H 0.3608 0.6716 0.4635
C7A C 0.26117(12) 0.61856(7) 0.52235(10)
C8A C 0.37970(12) 0.18198(7) 0.48161(10)
H6A H 0.3689 0.1657 0.5388
C9A C 0.40307(13) 0.22967(7) 0.31123(11)
H7A H 0.4082 0.2456 0.2515
C10A C 0.39871(12) 0.13660(7) 0.41689(11)
H8A H 0.4048 0.0897 0.4311
C11A C 0.38990(11) 0.27539(6) 0.37902(9)
C12A C 0.37620(11) 0.25123(7) 0.46389(10)
H9A H 0.3645 0.2818 0.5094
C13A C 0.22340(13) 0.67721(7) 0.56863(11)
H10A H 0.2219 0.6633 0.6327
H11A H 0.1441 0.6920 0.5239
H12A H 0.2796 0.7144 0.5794
C14A C 0.40865(13) 0.16082(7) 0.33089(11)
H13A H 0.4194 0.1301 0.2851
B1A B 0.44443(12) 0.38438(7) 0.30679(10)
O2 O 1.0000 0.07553(7) 0.2500
C15 C 0.89857(12) 0.11805(7) 0.19572(10)
H14 H 0.8276 0.1024 0.2061
H15 H 0.8811 0.1173 0.1234
C16 C 0.93322(14) 0.18853(7) 0.23761(11)
H16 H 0.9165 0.1956 0.2981
H17 H 0.8918 0.2234 0.1875
C15A C 1.10143(12) 0.11805(7) 0.30428(10)
H14A H 1.1724 0.1024 0.2939
H15A H 1.1189 0.1173 0.3766
C16A C 1.06678(14) 0.18853(7) 0.26239(11)
H16A H 1.0835 0.1956 0.2019
H17A H 1.1082 0.2234 0.3125
loop_
_geom_bond_atom_site_label_1
_geom_bond_atom_site_label_2
_geom_bond_site_symmetry_1
_geom_bond_site_symmetry_2
N1 N2 1_555 1_555
H1 N3 1_555 1_555
N2 C2 1_555 1_555
N3 C2 1_555 1_555
C1 C2 1_555 1_555
C3 H2 1_555 1_555
C4 C1 1_555 1_555
H3 C4 1_555 1_555
C5 C1 1_555 1_555
H4 C5 1_555 1_555
C6 C5 1_555 1_555
H5 C6 1_555 1_555
C7 C3 1_555 1_555
C8 H6 1_555 1_555
C9 H7 1_555 1_555
C10 C8 1_555 1_555
H8 C10 1_555 1_555
C11 N1 1_555 1_555
C12 C8 1_555 1_555
H9 C12 1_555 1_555
C13 C7 1_555 1_555
H10 C13 1_555 1_555
H11 C13 1_555 1_555
H12 C13 1_555 1_555
C14 C9 1_555 1_555
H13 C14 1_555 1_555
B1 N1 1_555 1_555
O1 B1 1_555 1_555
O2 C15 1_555 1_555
C15 H14 1_555 1_555
H15 C15 1_555 1_555
C16 C15 1_555 1_555
H16 C16 1_555 1_555
H17 C16 1_555 1_555
N1A N2A 1_555 1_555
H1A N3A 1_555 1_555
N2A C2A 1_555 1_555
N3A C2A 1_555 1_555
C1A C2A 1_555 1_555
C3A H2A 1_555 1_555
C4A C1A 1_555 1_555
H3A C4A 1_555 1_555
C5A C1A 1_555 1_555
H4A C5A 1_555 1_555
C6A C5A 1_555 1_555
H5A C6A 1_555 1_555
C7A C3A 1_555 1_555
C8A H6A 1_555 1_555
C9A H7A 1_555 1_555
C10A C8A 1_555 1_555
H8A C10A 1_555 1_555
C11A N1A 1_555 1_555
C12A C8A 1_555 1_555
H9A C12A 1_555 1_555
C13A C7A 1_555 1_555
H10A C13A 1_555 1_555
H11A C13A 1_555 1_555
H12A C13A 1_555 1_555
C14A C9A 1_555 1_555
H13A C14A 1_555 1_555
B1A O1 1_555 1_555
C15A O2 1_555 1_555
H14A C15A 1_555 1_555
H15A C15A 1_555 1_555
C16A C16 1_555 1_555
H16A C16A 1_555 1_555
H17A C16A 1_555 1_555
N3 B1 1_555 1_555
C3 C4 1_555 1_555
C6 C7 1_555 1_555
C9 C11 1_555 1_555
C10 C14 1_555 1_555
C11 C12 1_555 1_555
N1A B1A 1_555 1_555
N3A B1A 1_555 1_555
C3A C4A 1_555 1_555
C6A C7A 1_555 1_555
C9A C11A 1_555 1_555
C10A C14A 1_555 1_555
C11A C12A 1_555 1_555
C15A C16A 1_555 1_555

#END
