
#######################################################################
#
#                 Cambridge Crystallographic Data Centre
#                                CCDC 
#
#######################################################################
#
# If this CIF has been generated from an entry in the Cambridge 
# Structural Database, then it will include bibliographic, chemical, 
# crystal, experimental, refinement or atomic coordinate data resulting 
# from the CCDC's data processing and validation procedures.
#
#######################################################################

data_MADFUV
_chemical_formula_moiety         'C8 H16 O7 S1'
_chemical_name_systematic        
'1,3,6,9,12-Pentaoxa-2-thiacyclotetradecane 2,2-dioxide'
_symmetry_cell_setting           monoclinic
_symmetry_space_group_name_H-M   'P 21/c'
_symmetry_Int_Tables_number      14
_space_group_name_Hall           '-P 2ybc'
loop_
_symmetry_equiv_pos_site_id
_symmetry_equiv_pos_as_xyz
1 x,y,z
2 -x,1/2+y,1/2-z
3 -x,-y,-z
4 x,1/2-y,1/2+z
_cell_length_a                   9.1033(15)
_cell_length_b                   17.040(3)
_cell_length_c                   15.396(3)
_cell_angle_alpha                90
_cell_angle_beta                 100.741(3)
_cell_angle_gamma                90
_cell_volume                     2346.39
_exptl_crystal_colour            white
_exptl_crystal_description       block
_chemical_melting_point          '319 K'
_cell_formula_units_Z            8
loop_
_atom_site_label
_atom_site_type_symbol
_atom_site_fract_x
_atom_site_fract_y
_atom_site_fract_z
C1 C 0.6358(5) 0.3204(3) 0.0664(3)
H1 H 0.6168 0.3363 0.0049
H2 H 0.5482 0.2926 0.0776
C2 C 0.6590(5) 0.3895(3) 0.1217(5)
H3 H 0.5725 0.4232 0.1056
H4 H 0.6627 0.3732 0.1824
C3 C 0.7860(5) 0.5082(3) 0.1559(4)
H5 H 0.6849 0.5279 0.1509
H6 H 0.8384 0.5426 0.1217
C4 C 0.8617(5) 0.5116(3) 0.2505(3)
H7 H 0.9515 0.4798 0.2594
H8 H 0.8901 0.5653 0.2666
C5 C 0.8347(7) 0.4630(3) 0.3907(4)
H9 H 0.7615 0.4636 0.4291
H10 H 0.9099 0.5023 0.4123
C6 C 0.9068(5) 0.3848(3) 0.3958(3)
H11 H 0.9770 0.3823 0.3556
H12 H 0.9611 0.3753 0.4553
C7 C 0.8517(6) 0.2509(3) 0.3692(3)
H13 H 0.7801 0.2134 0.3838
H14 H 0.9421 0.2466 0.4136
C8 C 0.8872(5) 0.2302(3) 0.2810(3)
H15 H 0.9306 0.2749 0.2561
H16 H 0.9580 0.1871 0.2869
O1 O 0.6097(3) 0.15289(18) 0.0933(2)
O2 O 0.8831(3) 0.14730(18) 0.11962(19)
O3 O 0.7636(3) 0.26802(16) 0.08248(17)
O4 O 0.7801(3) 0.4318(2) 0.1188(3)
O5 O 0.7630(3) 0.4836(2) 0.3038(2)
O6 O 0.7929(3) 0.32705(19) 0.37230(19)
O7 O 0.7464(3) 0.20732(17) 0.22387(17)
S1 S 0.75012(11) 0.18721(6) 0.12622(7)
C9 C 0.6004(5) 0.5204(3) 0.7024(3)
H17 H 0.5492 0.5589 0.7324
H18 H 0.5351 0.4755 0.6875
C10 C 0.6405(6) 0.5549(3) 0.6211(3)
H19 H 0.7090 0.5197 0.5991
H20 H 0.5509 0.5590 0.5760
C11 C 0.5984(5) 0.6912(3) 0.6268(3)
H21 H 0.5333 0.6832 0.6692
H22 H 0.5376 0.6908 0.5679
C12 C 0.6761(6) 0.7670(3) 0.6434(3)
H23 H 0.7483 0.7715 0.6046
H24 H 0.6037 0.8089 0.6284
C13 C 0.6570(5) 0.8049(3) 0.7883(3)
H25 H 0.5664 0.7736 0.7806
H26 H 0.6290 0.8590 0.7739
C14 C 0.7373(5) 0.7997(2) 0.8819(3)
H27 H 0.8396 0.8172 0.8850
H28 H 0.6902 0.8352 0.9177
C15 C 0.8545(5) 0.6768(3) 0.8988(6)
H29 H 0.8475 0.6777 0.8351
H30 H 0.9478 0.7023 0.9243
C16 C 0.8657(6) 0.6014(3) 0.9242(7)
H31 H 0.8995 0.5999 0.9878
H32 H 0.9422 0.5767 0.8975
O8 O 0.8764(3) 0.43853(18) 0.8874(2)
O9 O 0.6030(3) 0.43764(18) 0.8635(2)
O10 O 0.7408(3) 0.49634(19) 0.7592(2)
O11 O 0.7072(3) 0.62956(19) 0.63467(19)
O12 O 0.7508(3) 0.77720(18) 0.73156(19)
O13 O 0.7390(3) 0.72348(17) 0.9180(2)
O14 O 0.7310(3) 0.55531(18) 0.9028(2)
S2 S 0.73781(11) 0.47542(6) 0.85663(8)
loop_
_geom_bond_atom_site_label_1
_geom_bond_atom_site_label_2
_geom_bond_site_symmetry_1
_geom_bond_site_symmetry_2
C1 H1 1_555 1_555
H2 C1 1_555 1_555
C2 C1 1_555 1_555
H3 C2 1_555 1_555
H4 C2 1_555 1_555
C3 H5 1_555 1_555
H6 C3 1_555 1_555
C4 C3 1_555 1_555
H7 C4 1_555 1_555
H8 C4 1_555 1_555
C5 H9 1_555 1_555
H10 C5 1_555 1_555
C6 C5 1_555 1_555
H11 C6 1_555 1_555
H12 C6 1_555 1_555
C7 H13 1_555 1_555
H14 C7 1_555 1_555
C8 C7 1_555 1_555
H15 C8 1_555 1_555
H16 C8 1_555 1_555
O1 S1 1_555 1_555
O2 S1 1_555 1_555
O3 C1 1_555 1_555
O4 C2 1_555 1_555
O5 C4 1_555 1_555
O6 C6 1_555 1_555
O7 C8 1_555 1_555
S1 O3 1_555 1_555
C9 H17 1_555 1_555
H18 C9 1_555 1_555
C10 C9 1_555 1_555
H19 C10 1_555 1_555
H20 C10 1_555 1_555
C11 H21 1_555 1_555
H22 C11 1_555 1_555
C12 C11 1_555 1_555
H23 C12 1_555 1_555
H24 C12 1_555 1_555
C13 H25 1_555 1_555
H26 C13 1_555 1_555
C14 C13 1_555 1_555
H27 C14 1_555 1_555
H28 C14 1_555 1_555
C15 H29 1_555 1_555
H30 C15 1_555 1_555
C16 C15 1_555 1_555
H31 C16 1_555 1_555
H32 C16 1_555 1_555
O8 S2 1_555 1_555
O9 S2 1_555 1_555
O10 C9 1_555 1_555
O11 C10 1_555 1_555
O12 C12 1_555 1_555
O13 C14 1_555 1_555
O14 C16 1_555 1_555
S2 O10 1_555 1_555
C3 O4 1_555 1_555
C5 O5 1_555 1_555
C7 O6 1_555 1_555
O7 S1 1_555 1_555
C11 O11 1_555 1_555
C13 O12 1_555 1_555
C15 O13 1_555 1_555
O14 S2 1_555 1_555

#END
