
#######################################################################
#
#                 Cambridge Crystallographic Data Centre
#                                CCDC 
#
#######################################################################
#
# If this CIF has been generated from an entry in the Cambridge 
# Structural Database, then it will include bibliographic, chemical, 
# crystal, experimental, refinement or atomic coordinate data resulting 
# from the CCDC's data processing and validation procedures.
#
#######################################################################

data_MADGAC
_chemical_formula_moiety         'C16 H32 O14 S2'
_chemical_name_systematic        
'1,3,6,9,12,15,17,20,23,26-decaoxa-2,16-dithiacyclooctacosane 2,2,16,16-tetraoxide'
_symmetry_cell_setting           triclinic
_symmetry_space_group_name_H-M   'P -1'
_symmetry_Int_Tables_number      2
_space_group_name_Hall           '-P 1'
loop_
_symmetry_equiv_pos_site_id
_symmetry_equiv_pos_as_xyz
1 x,y,z
2 -x,-y,-z
_cell_length_a                   8.0757(14)
_cell_length_b                   8.0994(14)
_cell_length_c                   10.3006(18)
_cell_angle_alpha                75.999(3)
_cell_angle_beta                 69.095(3)
_cell_angle_gamma                67.603(2)
_cell_volume                     577.519
_exptl_crystal_colour            white
_exptl_crystal_description       block
_cell_formula_units_Z            1
loop_
_atom_site_label
_atom_site_type_symbol
_atom_site_fract_x
_atom_site_fract_y
_atom_site_fract_z
C1 C 0.5657(3) 0.7639(3) 0.0751(2)
H1 H 0.5043 0.8824 0.1059
H2 H 0.6307 0.7776 -0.0242
C2 C 0.7017(3) 0.6507(3) 0.1540(2)
H3 H 0.7599 0.5326 0.1223
H4 H 0.7996 0.7037 0.1308
C3 C 0.5502(3) 0.7893(2) 0.3633(2)
H5 H 0.4209 0.8487 0.3631
H6 H 0.6205 0.8705 0.3107
C4 C 0.0463(3) 0.9197(3) 0.25940(19)
H7 H 0.1286 0.8320 0.3112
H8 H -0.0543 0.8760 0.2690
C5 C -0.0311(2) 1.0962(3) 0.3138(2)
H9 H -0.0958 1.1881 0.2522
H10 H -0.1201 1.0895 0.4061
C6 C 0.0635(3) 1.3194(2) 0.3486(2)
H11 H -0.0371 1.3384 0.4358
H12 H 0.0181 1.4027 0.2740
C7 C 0.2277(3) 1.3524(2) 0.35859(19)
H13 H 0.3381 1.3021 0.2837
H14 H 0.2044 1.4808 0.3483
C8 C 0.4396(3) 1.2555(3) 0.4897(2)
H15 H 0.4653 1.3675 0.4483
H16 H 0.5331 1.1613 0.4344
O1 O 0.15890(19) 0.66115(19) 0.06898(16)
O2 O 0.33344(19) 0.8474(2) -0.10684(13)
O3 O 0.42663(16) 0.67662(16) 0.10048(13)
O4 O 0.6259(2) 0.62888(17) 0.30016(14)
O5 O 0.15067(16) 0.94752(16) 0.11187(12)
O6 O 0.11856(16) 1.14045(16) 0.32087(14)
O7 O 0.25942(16) 1.27232(16) 0.48952(12)
S1 S 0.26423(6) 0.77878(6) 0.03387(4)
C1A C 0.4343(3) 1.2361(3) 0.9249(2)
H1A H 0.4957 1.1176 0.8941
H2A H 0.3693 1.2224 1.0242
C2A C 0.2983(3) 1.3493(3) 0.8460(2)
H3A H 0.2401 1.4674 0.8777
H4A H 0.2004 1.2963 0.8692
C3A C 0.4498(3) 1.2107(2) 0.6367(2)
H5A H 0.5791 1.1513 0.6369
H6A H 0.3795 1.1295 0.6893
C4A C 0.9537(3) 1.0803(3) 0.74060(19)
H7A H 0.8714 1.1680 0.6888
H8A H 1.0543 1.1240 0.7310
C5A C 1.0311(2) 0.9038(3) 0.6862(2)
H9A H 1.0958 0.8119 0.7478
H10A H 1.1201 0.9105 0.5939
C6A C 0.9365(3) 0.6806(2) 0.6514(2)
H11A H 1.0371 0.6616 0.5642
H12A H 0.9819 0.5973 0.7260
C7A C 0.7723(3) 0.6476(2) 0.64141(19)
H13A H 0.6619 0.6979 0.7163
H14A H 0.7956 0.5192 0.6517
C8A C 0.5604(3) 0.7445(3) 0.5103(2)
H15A H 0.5347 0.6325 0.5517
H16A H 0.4669 0.8387 0.5656
O1A O 0.84110(19) 1.33885(19) 0.93102(16)
O2A O 0.66656(19) 1.1526(2) 1.10684(13)
O3A O 0.57337(16) 1.32338(16) 0.89952(13)
O4A O 0.3741(2) 1.37112(17) 0.69984(14)
O5A O 0.84933(16) 1.05248(16) 0.88813(12)
O6A O 0.88144(16) 0.85955(16) 0.67913(14)
O7A O 0.74058(16) 0.72768(16) 0.51048(12)
S1A S 0.73577(6) 1.22122(6) 0.96613(4)
loop_
_geom_bond_atom_site_label_1
_geom_bond_atom_site_label_2
_geom_bond_site_symmetry_1
_geom_bond_site_symmetry_2
C1 H1 1_555 1_555
H2 C1 1_555 1_555
C2 C1 1_555 1_555
H3 C2 1_555 1_555
H4 C2 1_555 1_555
C3 H5 1_555 1_555
H6 C3 1_555 1_555
C4 H7 1_555 1_555
H8 C4 1_555 1_555
C5 C4 1_555 1_555
H9 C5 1_555 1_555
H10 C5 1_555 1_555
C6 H11 1_555 1_555
H12 C6 1_555 1_555
C7 C6 1_555 1_555
H13 C7 1_555 1_555
H14 C7 1_555 1_555
C8 H15 1_555 1_555
H16 C8 1_555 1_555
O1 S1 1_555 1_555
O2 S1 1_555 1_555
O3 C1 1_555 1_555
O4 C2 1_555 1_555
O5 C4 1_555 1_555
O6 C5 1_555 1_555
O7 C7 1_555 1_555
S1 O3 1_555 1_555
C1A H1A 1_555 1_555
H2A C1A 1_555 1_555
C2A C1A 1_555 1_555
H3A C2A 1_555 1_555
H4A C2A 1_555 1_555
C3A C8 1_555 1_555
H5A C3A 1_555 1_555
H6A C3A 1_555 1_555
C4A H7A 1_555 1_555
H8A C4A 1_555 1_555
C5A C4A 1_555 1_555
H9A C5A 1_555 1_555
H10A C5A 1_555 1_555
C6A H11A 1_555 1_555
H12A C6A 1_555 1_555
C7A C6A 1_555 1_555
H13A C7A 1_555 1_555
H14A C7A 1_555 1_555
C8A C3 1_555 1_555
H15A C8A 1_555 1_555
H16A C8A 1_555 1_555
O1A S1A 1_555 1_555
O2A S1A 1_555 1_555
O3A C1A 1_555 1_555
O4A C2A 1_555 1_555
O5A C4A 1_555 1_555
O6A C5A 1_555 1_555
O7A C7A 1_555 1_555
S1A O3A 1_555 1_555
C3 O4 1_555 1_555
C6 O6 1_555 1_555
C8 O7 1_555 1_555
O5 S1 1_555 1_555
C3A O4A 1_555 1_555
C6A O6A 1_555 1_555
C8A O7A 1_555 1_555
O5A S1A 1_555 1_555

#END
