
#######################################################################
#
#                 Cambridge Crystallographic Data Centre
#                                CCDC 
#
#######################################################################
#
# If this CIF has been generated from an entry in the Cambridge 
# Structural Database, then it will include bibliographic, chemical, 
# crystal, experimental, refinement or atomic coordinate data resulting 
# from the CCDC's data processing and validation procedures.
#
#######################################################################

data_MAFBED
_chemical_compound_source        'extract of the mycelia of Hericium erinaceus'
_chemical_name_common            'erinacine S 15,22-diacetate'
_chemical_formula_moiety         'C29 H38 O8'
_chemical_name_systematic        
"2a-hydroxy-7-isopropyl-9a,11a-dimethyl-3-oxo-2,2a,3,5,6,6a,8,9,9a,10,11,11a,11b,12c-tetradecahydrofuro[2,3,4-cd]indeno[5',4':4,5]cyclohepta[1,2,3-hi][2]benzofuran-4,12b(12aH)-diyl diacetate"
_symmetry_cell_setting           tetragonal
_symmetry_space_group_name_H-M   'P 41 21 2'
_symmetry_Int_Tables_number      92
_space_group_name_Hall           'P 4abw 2nw'
loop_
_symmetry_equiv_pos_site_id
_symmetry_equiv_pos_as_xyz
1 x,y,z
2 -x,-y,1/2+z
3 1/2-y,1/2+x,1/4+z
4 1/2+y,1/2-x,3/4+z
5 1/2-x,1/2+y,1/4-z
6 1/2+x,1/2-y,3/4-z
7 y,x,-z
8 -y,-x,1/2-z
_cell_length_a                   15.0258(2)
_cell_length_b                   15.0258(2)
_cell_length_c                   24.0607(7)
_cell_angle_alpha                90
_cell_angle_beta                 90
_cell_angle_gamma                90
_cell_volume                     5432.3
_cell_formula_units_Z            8
loop_
_atom_site_label
_atom_site_type_symbol
_atom_site_fract_x
_atom_site_fract_y
_atom_site_fract_z
O1 O -0.00928(15) 0.10572(14) 0.19477(8)
O2 O 0.12031(16) 0.03555(16) 0.22493(8)
O3 O 0.20840(17) -0.06738(14) 0.13638(10)
H1 H 0.2016 -0.0874 0.1050
O4 O 0.31679(17) 0.03992(16) 0.08261(10)
O5 O 0.04334(16) -0.02830(13) 0.09724(8)
O6 O 0.1341(2) -0.00823(16) 0.02391(9)
O7 O 0.28707(16) 0.21597(14) 0.06052(8)
O8 O 0.34602(17) 0.22406(16) 0.14596(9)
C1 C -0.2767(3) 0.3974(3) 0.0859(2)
H2 H -0.2931 0.4135 0.0482
H3 H -0.3300 0.3805 0.1060
C2 C -0.2307(3) 0.4753(3) 0.11473(18)
H4 H -0.2390 0.5299 0.0938
H5 H -0.2541 0.4837 0.1519
C3 C -0.1335(2) 0.4503(3) 0.11677(13)
C4 C -0.1225(2) 0.3666(2) 0.09985(12)
C5 C -0.0439(2) 0.3045(2) 0.10288(11)
H6 H -0.0503 0.2654 0.0705
C6 C -0.0587(2) 0.2425(2) 0.15423(12)
C7 C -0.1457(2) 0.1910(2) 0.14391(15)
H7 H -0.1586 0.1544 0.1761
H8 H -0.1375 0.1516 0.1124
C8 C -0.2265(3) 0.2530(3) 0.13242(17)
H9 H -0.2775 0.2168 0.1226
H10 H -0.2410 0.2851 0.1662
C9 C -0.2094(3) 0.3206(3) 0.08555(17)
C10 C 0.0505(2) 0.3432(2) 0.09798(12)
H11 H 0.0472 0.4015 0.0809
H12 H 0.0753 0.3505 0.1349
C11 C 0.1125(2) 0.2840(2) 0.06362(12)
H13 H 0.0856 0.2761 0.0273
H14 H 0.1677 0.3163 0.0581
C12 C 0.1359(2) 0.1925(2) 0.08586(10)
C13 C 0.0626(2) 0.13475(19) 0.10885(10)
H15 H 0.0163 0.1294 0.0803
C14 C 0.0199(2) 0.17811(19) 0.16097(10)
H16 H 0.0670 0.2095 0.1812
C15 C 0.2197(2) 0.1633(2) 0.08279(11)
C16 C -0.0647(3) 0.2954(2) 0.20878(12)
H17 H -0.0102 0.3274 0.2146
H18 H -0.0743 0.2551 0.2392
H19 H -0.1134 0.3367 0.2066
C17 C -0.2092(3) 0.2747(3) 0.02815(16)
H20 H -0.1670 0.2267 0.0283
H21 H -0.1929 0.3171 0.0001
H22 H -0.2675 0.2517 0.0204
C18 C -0.0655(3) 0.5163(2) 0.13733(12)
H23 H -0.0106 0.4835 0.1454
C19 C -0.0446(3) 0.5848(3) 0.09271(15)
H24 H -0.0254 0.5550 0.0595
H25 H 0.0017 0.6236 0.1056
H26 H -0.0971 0.6190 0.0848
C20 C -0.0955(4) 0.5620(3) 0.19114(15)
H27 H -0.1081 0.5177 0.2188
H28 H -0.1482 0.5963 0.1841
H29 H -0.0491 0.6005 0.2043
C21 C 0.0759(3) -0.0496(2) 0.04619(12)
C22 C 0.0305(3) -0.1307(2) 0.02407(14)
H30 H 0.0542 -0.1449 -0.0119
H31 H -0.0322 -0.1196 0.0210
H32 H 0.0404 -0.1797 0.0489
C23 C 0.3521(2) 0.2389(2) 0.09773(14)
C24 C 0.4270(3) 0.2824(2) 0.06804(17)
H33 H 0.4726 0.2980 0.0942
H34 H 0.4059 0.3351 0.0498
H35 H 0.4509 0.2421 0.0409
C25 C 0.0475(2) 0.0338(2) 0.18752(11)
H36 H 0.0145 -0.0221 0.1917
C26 C 0.0872(2) 0.03997(19) 0.12837(11)
C27 C 0.1864(2) 0.0237(2) 0.13676(12)
C28 C 0.2472(2) 0.0741(2) 0.09761(12)
C29 C 0.1985(2) 0.0609(2) 0.19605(12)
H37 H 0.2508 0.0355 0.2135
H38 H 0.2045 0.1251 0.1953
loop_
_geom_bond_atom_site_label_1
_geom_bond_atom_site_label_2
_geom_bond_site_symmetry_1
_geom_bond_site_symmetry_2
O1 C14 1_555 1_555
O2 C25 1_555 1_555
O3 H1 1_555 1_555
O4 C28 1_555 1_555
O5 C21 1_555 1_555
O6 C21 1_555 1_555
O7 C15 1_555 1_555
O8 C23 1_555 1_555
C1 H2 1_555 1_555
H3 C1 1_555 1_555
C2 C1 1_555 1_555
H4 C2 1_555 1_555
H5 C2 1_555 1_555
C3 C2 1_555 1_555
C4 C3 1_555 1_555
C5 C4 1_555 1_555
H6 C5 1_555 1_555
C6 C5 1_555 1_555
C7 C6 1_555 1_555
H7 C7 1_555 1_555
H8 C7 1_555 1_555
C8 C7 1_555 1_555
H9 C8 1_555 1_555
H10 C8 1_555 1_555
C9 C1 1_555 1_555
C10 C5 1_555 1_555
H11 C10 1_555 1_555
H12 C10 1_555 1_555
C11 C10 1_555 1_555
H13 C11 1_555 1_555
H14 C11 1_555 1_555
C12 C11 1_555 1_555
C13 C12 1_555 1_555
H15 C13 1_555 1_555
C14 C6 1_555 1_555
H16 C14 1_555 1_555
C15 C12 1_555 1_555
C16 C6 1_555 1_555
H17 C16 1_555 1_555
H18 C16 1_555 1_555
H19 C16 1_555 1_555
C17 C9 1_555 1_555
H20 C17 1_555 1_555
H21 C17 1_555 1_555
H22 C17 1_555 1_555
C18 C3 1_555 1_555
H23 C18 1_555 1_555
C19 C18 1_555 1_555
H24 C19 1_555 1_555
H25 C19 1_555 1_555
H26 C19 1_555 1_555
C20 C18 1_555 1_555
H27 C20 1_555 1_555
H28 C20 1_555 1_555
H29 C20 1_555 1_555
C21 C22 1_555 1_555
C22 H30 1_555 1_555
H31 C22 1_555 1_555
H32 C22 1_555 1_555
C23 O7 1_555 1_555
C24 C23 1_555 1_555
H33 C24 1_555 1_555
H34 C24 1_555 1_555
H35 C24 1_555 1_555
C25 O1 1_555 1_555
H36 C25 1_555 1_555
C26 O5 1_555 1_555
C27 O3 1_555 1_555
C28 C15 1_555 1_555
C29 O2 1_555 1_555
H37 C29 1_555 1_555
H38 C29 1_555 1_555
C4 C9 1_555 1_555
C8 C9 1_555 1_555
C13 C14 1_555 1_555
C13 C26 1_555 1_555
C25 C26 1_555 1_555
C26 C27 1_555 1_555
C27 C28 1_555 1_555
C27 C29 1_555 1_555

#END
