
#######################################################################
#
#                 Cambridge Crystallographic Data Centre
#                                CCDC 
#
#######################################################################
#
# If this CIF has been generated from an entry in the Cambridge 
# Structural Database, then it will include bibliographic, chemical, 
# crystal, experimental, refinement or atomic coordinate data resulting 
# from the CCDC's data processing and validation procedures.
#
#######################################################################

data_MAFCUU
_chemical_formula_moiety         'C15 H12 N1 O1 P1 S2'
_chemical_name_systematic        
"N-benzyl-4H-thieno[2',3':4,5]phospholo[3,2-b]thiophen-4-amine 4-oxide"
_symmetry_cell_setting           orthorhombic
_symmetry_space_group_name_H-M   'P 21 21 21'
_symmetry_Int_Tables_number      19
_space_group_name_Hall           'P 2ac 2ab'
loop_
_symmetry_equiv_pos_site_id
_symmetry_equiv_pos_as_xyz
1 x,y,z
2 1/2-x,-y,1/2+z
3 1/2+x,1/2-y,-z
4 -x,1/2+y,1/2-z
_cell_length_a                   5.99360(10)
_cell_length_b                   10.8839(2)
_cell_length_c                   21.5299(3)
_cell_angle_alpha                90
_cell_angle_beta                 90
_cell_angle_gamma                90
_cell_volume                     1404.48
_exptl_crystal_colour            orange
_exptl_crystal_description       rod
_cell_formula_units_Z            4
loop_
_atom_site_label
_atom_site_type_symbol
_atom_site_fract_x
_atom_site_fract_y
_atom_site_fract_z
S1 S 0.40705(15) 0.13073(8) 0.27303(4)
S2 S -0.10004(15) -0.04781(8) 0.21883(4)
P1 P 0.21303(14) 0.17862(8) 0.08675(4)
O1 O 0.3344(5) 0.1222(3) 0.03381(12)
N1 N 0.1020(7) 0.3107(3) 0.06892(14)
H1 H 0.038(10) 0.316(5) 0.039(3)
C1 C 0.5940(7) 0.2351(4) 0.24250(17)
H2 H 0.7140 0.2698 0.2654
C2 C 0.5502(6) 0.2620(4) 0.18192(18)
H3 H 0.6362 0.3174 0.1577
C3 C 0.3617(6) 0.1977(3) 0.15935(15)
C4 C 0.2679(5) 0.1230(3) 0.20368(14)
C5 C 0.0758(5) 0.0539(3) 0.18273(14)
C6 C 0.0159(5) 0.0732(3) 0.12223(15)
C7 C -0.1786(6) 0.0081(3) 0.10463(16)
H4 H -0.2448 0.0120 0.0646
C8 C -0.2590(6) -0.0611(4) 0.15259(18)
H5 H -0.3885 -0.1110 0.1497
C9 C 0.0712(7) 0.4163(3) 0.10928(17)
H6 H 0.1067 0.3922 0.1525
H7 H -0.0875 0.4415 0.1080
C10 C 0.2153(6) 0.5248(3) 0.09127(14)
C11 C 0.4195(6) 0.5097(3) 0.06171(15)
H8 H 0.4716 0.4291 0.0529
C12 C 0.5482(6) 0.6095(4) 0.04487(17)
H9 H 0.6874 0.5976 0.0246
C13 C 0.4725(7) 0.7270(4) 0.05771(18)
H10 H 0.5588 0.7961 0.0454
C14 C 0.2735(7) 0.7443(3) 0.08815(18)
H11 H 0.2242 0.8251 0.0976
C15 C 0.1439(6) 0.6436(3) 0.10508(16)
H12 H 0.0063 0.6558 0.1261
loop_
_geom_bond_atom_site_label_1
_geom_bond_atom_site_label_2
_geom_bond_site_symmetry_1
_geom_bond_site_symmetry_2
S1 C1 1_555 1_555
S2 C5 1_555 1_555
P1 O1 1_555 1_555
N1 P1 1_555 1_555
H1 N1 1_555 1_555
C1 H2 1_555 1_555
C2 C1 1_555 1_555
H3 C2 1_555 1_555
C3 P1 1_555 1_555
C4 S1 1_555 1_555
C5 C4 1_555 1_555
C6 P1 1_555 1_555
C7 C6 1_555 1_555
H4 C7 1_555 1_555
C8 S2 1_555 1_555
H5 C8 1_555 1_555
C9 N1 1_555 1_555
H6 C9 1_555 1_555
H7 C9 1_555 1_555
C10 C9 1_555 1_555
C11 C10 1_555 1_555
H8 C11 1_555 1_555
C12 C11 1_555 1_555
H9 C12 1_555 1_555
C13 C12 1_555 1_555
H10 C13 1_555 1_555
C14 C13 1_555 1_555
H11 C14 1_555 1_555
C15 C10 1_555 1_555
H12 C15 1_555 1_555
C2 C3 1_555 1_555
C3 C4 1_555 1_555
C5 C6 1_555 1_555
C7 C8 1_555 1_555
C14 C15 1_555 1_555

#END
