
#######################################################################
#
#                 Cambridge Crystallographic Data Centre
#                                CCDC 
#
#######################################################################
#
# If this CIF has been generated from an entry in the Cambridge 
# Structural Database, then it will include bibliographic, chemical, 
# crystal, experimental, refinement or atomic coordinate data resulting 
# from the CCDC's data processing and validation procedures.
#
#######################################################################

data_MAFCIH
_chemical_formula_moiety         'C20 H40 P2 S1,C1 H1 Cl3'
_chemical_name_systematic        
'(1S,2R,3aS,7aS)-2-t-Butyl-1-(di-t-butylphosphino)-octahydro-1H-isophosphindole 2-sulfide chloroform solvate'
_symmetry_cell_setting           orthorhombic
_symmetry_space_group_name_H-M   'P 21 21 21'
_symmetry_Int_Tables_number      19
_space_group_name_Hall           'P 2ac 2ab'
loop_
_symmetry_equiv_pos_site_id
_symmetry_equiv_pos_as_xyz
1 x,y,z
2 1/2-x,-y,1/2+z
3 -x,1/2+y,1/2-z
4 1/2+x,1/2-y,-z
_cell_length_a                   8.4109(5)
_cell_length_b                   15.8263(10)
_cell_length_c                   39.840(3)
_cell_angle_alpha                90
_cell_angle_beta                 90
_cell_angle_gamma                90
_cell_volume                     5303.24
_exptl_crystal_colour            colorless
_exptl_crystal_description       rod
_cell_formula_units_Z            8
loop_
_atom_site_label
_atom_site_type_symbol
_atom_site_fract_x
_atom_site_fract_y
_atom_site_fract_z
P1 P 1.02880(8) -0.07267(4) 0.097034(17)
P2 P 1.08977(8) 0.10737(4) 0.069447(18)
S1 S 1.25625(9) -0.08959(5) 0.088366(18)
C1 C 0.9497(3) 0.03844(16) 0.09507(7)
H1 H 0.8497 0.0348 0.0816
C2 C 0.8946(3) 0.05780(17) 0.13178(7)
H2 H 0.9890 0.0785 0.1446
C3 C 0.7611(3) 0.12236(18) 0.13598(8)
H3 H 0.6657 0.1030 0.1236
H4 H 0.7947 0.1772 0.1264
C4 C 0.7200(4) 0.1338(2) 0.17321(9)
H5 H 0.8123 0.1590 0.1849
H6 H 0.6298 0.1736 0.1752
C5 C 0.6760(4) 0.0507(2) 0.19028(9)
H7 H 0.6619 0.0604 0.2146
H8 H 0.5739 0.0299 0.1811
C6 C 0.8041(4) -0.0159(2) 0.18486(7)
H9 H 0.7679 -0.0705 0.1942
H10 H 0.9021 0.0010 0.1969
C7 C 0.8402(3) -0.02626(17) 0.14760(7)
H11 H 0.7404 -0.0446 0.1361
C8 C 0.9695(4) -0.09156(17) 0.14019(7)
H12 H 0.9274 -0.1496 0.1429
H13 H 1.0609 -0.0841 0.1556
C9 C 0.9481(3) 0.17396(17) 0.04333(8)
C10 C 1.0434(5) 0.2444(2) 0.02571(9)
H14 H 1.1440 0.2212 0.0174
H15 H 1.0653 0.2899 0.0417
H16 H 0.9815 0.2667 0.0068
C11 C 0.8018(4) 0.2134(2) 0.06001(9)
H17 H 0.8357 0.2502 0.0785
H18 H 0.7331 0.1686 0.0688
H19 H 0.7429 0.2468 0.0434
C12 C 0.8905(4) 0.1135(2) 0.01580(8)
H20 H 0.8218 0.1441 0.0001
H21 H 0.8306 0.0670 0.0260
H22 H 0.9824 0.0906 0.0037
C13 C 1.2093(3) 0.17625(18) 0.09930(8)
C14 C 1.1188(4) 0.2443(2) 0.11888(9)
H23 H 1.1934 0.2758 0.1331
H24 H 1.0379 0.2175 0.1330
H25 H 1.0674 0.2832 0.1031
C15 C 1.2974(3) 0.1174(2) 0.12376(8)
H26 H 1.3652 0.1511 0.1386
H27 H 1.3633 0.0776 0.1110
H28 H 1.2199 0.0859 0.1372
C16 C 1.3398(4) 0.2197(2) 0.07844(10)
H29 H 1.2918 0.2633 0.0642
H30 H 1.3930 0.1776 0.0643
H31 H 1.4176 0.2457 0.0935
C17 C 0.9057(4) -0.14238(18) 0.06977(7)
C18 C 0.9476(4) -0.23471(19) 0.07889(8)
H32 H 0.8950 -0.2732 0.0631
H33 H 0.9114 -0.2469 0.1018
H34 H 1.0630 -0.2426 0.0776
C19 C 0.7274(4) -0.12822(19) 0.07486(8)
H35 H 0.6676 -0.1673 0.0605
H36 H 0.7003 -0.0699 0.0689
H37 H 0.7000 -0.1384 0.0984
C20 C 0.9512(5) -0.1268(2) 0.03294(7)
H38 H 1.0626 -0.1426 0.0294
H39 H 0.9368 -0.0668 0.0276
H40 H 0.8831 -0.1610 0.0183
P3 P 0.51746(8) 0.68906(4) 0.154894(17)
S2 S 0.73065(9) 0.72600(5) 0.16848(2)
C21 C 0.4761(3) 0.57284(16) 0.15220(6)
H41 H 0.3683 0.5676 0.1626
C22 C 0.4431(3) 0.55714(16) 0.11429(7)
H42 H 0.5476 0.5478 0.1029
C23 C 0.3363(4) 0.48136(19) 0.10634(7)
H43 H 0.2323 0.4886 0.1176
H44 H 0.3861 0.4291 0.1151
C24 C 0.3106(4) 0.4729(2) 0.06837(8)
H45 H 0.4125 0.4573 0.0576
H46 H 0.2338 0.4268 0.0641
C25 C 0.2482(4) 0.5546(2) 0.05239(8)
H47 H 0.2452 0.5479 0.0277
H48 H 0.1383 0.5651 0.0602
C26 C 0.3523(4) 0.63004(19) 0.06131(7)
H49 H 0.3041 0.6824 0.0523
H50 H 0.4587 0.6232 0.0510
C27 C 0.3689(3) 0.63697(17) 0.09946(7)
H51 H 0.2600 0.6434 0.1092
C28 C 0.4694(4) 0.71146(17) 0.11133(7)
H52 H 0.4089 0.7649 0.1095
H53 H 0.5675 0.7163 0.0977
P4 P 0.6032(5) 0.5102(3) 0.18079(12)
C29 C 0.7596(8) 0.4537(4) 0.15469(18)
C30 C 0.7144(12) 0.3966(6) 0.1255(2)
H54 H 0.6481 0.3501 0.1337
H55 H 0.8109 0.3737 0.1151
H56 H 0.6549 0.4293 0.1088
C31 C 0.8651(8) 0.5262(5) 0.1403(2)
H57 H 0.9051 0.5611 0.1587
H58 H 0.8015 0.5611 0.1250
H59 H 0.9549 0.5018 0.1279
C32 C 0.8624(9) 0.4029(5) 0.1795(2)
H60 H 0.8046 0.3520 0.1865
H61 H 0.8859 0.4377 0.1992
H62 H 0.9621 0.3865 0.1685
C33 C 0.4676(9) 0.4270(4) 0.20102(15)
C34 C 0.4507(10) 0.3410(4) 0.1828(2)
H63 H 0.3973 0.3495 0.1612
H64 H 0.3878 0.3024 0.1967
H65 H 0.5564 0.3168 0.1790
C35 C 0.3018(7) 0.4625(4) 0.20675(15)
H66 H 0.3097 0.5165 0.2187
H67 H 0.2394 0.4226 0.2201
H68 H 0.2495 0.4715 0.1851
C36 C 0.5423(9) 0.4099(4) 0.23595(15)
H69 H 0.5636 0.4638 0.2472
H70 H 0.6421 0.3787 0.2332
H71 H 0.4684 0.3764 0.2495
C37 C 0.3631(4) 0.73878(18) 0.18202(7)
C38 C 0.3869(4) 0.83525(18) 0.18069(8)
H72 H 0.3699 0.8553 0.1577
H73 H 0.4953 0.8492 0.1878
H74 H 0.3105 0.8627 0.1957
C39 C 0.1931(3) 0.7177(2) 0.17024(8)
H75 H 0.1160 0.7429 0.1857
H76 H 0.1788 0.6562 0.1699
H77 H 0.1763 0.7404 0.1476
C40 C 0.3889(4) 0.70777(19) 0.21802(7)
H78 H 0.4941 0.7257 0.2258
H79 H 0.3823 0.6460 0.2186
H80 H 0.3070 0.7318 0.2327
Cl1 Cl 1.00361(10) 0.46058(5) -0.01730(2)
Cl2 Cl 0.90782(13) 0.63131(6) -0.00213(3)
Cl3 Cl 0.75876(15) 0.49063(11) 0.03161(3)
C41 C 0.8430(4) 0.5260(2) -0.00630(8)
H81 H 0.7608 0.5231 -0.0244
Cl4 Cl 1.00698(11) 0.58523(7) 0.24064(2)
Cl5 Cl 0.91234(15) 0.75570(8) 0.25611(3)
Cl6 Cl 0.72765(15) 0.61541(10) 0.28139(3)
C42 C 0.8436(4) 0.6528(3) 0.24793(9)
H82 H 0.7762 0.6542 0.2272
C43? C 0.7862(10) 0.4690(6) 0.1451(2)
C44? C 0.7334(18) 0.4043(9) 0.1191(3)
C45? C 0.8584(10) 0.5444(5) 0.1262(2)
C46? C 0.9246(11) 0.4309(6) 0.1660(2)
C47? C 0.5212(11) 0.4224(6) 0.1964(2)
C48? C 0.4117(12) 0.3652(6) 0.1752(2)
C49? C 0.4181(11) 0.4626(6) 0.2233(2)
C50? C 0.6423(12) 0.3656(6) 0.2154(2)
H83? H 0.6941 0.3536 0.1305
H84? H 0.8237 0.3893 0.1047
H85? H 0.6483 0.4284 0.1052
H86? H 0.9004 0.5852 0.1424
H87? H 0.7761 0.5714 0.1125
H88? H 0.9446 0.5245 0.1117
H89? H 0.8983 0.3727 0.1723
H90? H 0.9405 0.4647 0.1863
H91? H 1.0222 0.4312 0.1526
H92? H 0.3227 0.3986 0.1665
H93? H 0.3707 0.3192 0.1892
H94? H 0.4723 0.3415 0.1564
H95? H 0.4662 0.5160 0.2305
H96? H 0.4097 0.4243 0.2425
H97? H 0.3119 0.4736 0.2142
H98? H 0.7044 0.3329 0.1991
H99? H 0.5850 0.3269 0.2303
H100? H 0.7140 0.4012 0.2287
P5? P 0.6368(7) 0.5109(5) 0.17648(18)
loop_
_geom_bond_atom_site_label_1
_geom_bond_atom_site_label_2
_geom_bond_site_symmetry_1
_geom_bond_site_symmetry_2
P1 S1 1_555 1_555
P2 C1 1_555 1_555
C1 P1 1_555 1_555
H1 C1 1_555 1_555
C2 C1 1_555 1_555
H2 C2 1_555 1_555
C3 C2 1_555 1_555
H3 C3 1_555 1_555
H4 C3 1_555 1_555
C4 C3 1_555 1_555
H5 C4 1_555 1_555
H6 C4 1_555 1_555
C5 C4 1_555 1_555
H7 C5 1_555 1_555
H8 C5 1_555 1_555
C6 C5 1_555 1_555
H9 C6 1_555 1_555
H10 C6 1_555 1_555
C7 C2 1_555 1_555
H11 C7 1_555 1_555
C8 P1 1_555 1_555
H12 C8 1_555 1_555
H13 C8 1_555 1_555
C9 P2 1_555 1_555
C10 C9 1_555 1_555
H14 C10 1_555 1_555
H15 C10 1_555 1_555
H16 C10 1_555 1_555
C11 C9 1_555 1_555
H17 C11 1_555 1_555
H18 C11 1_555 1_555
H19 C11 1_555 1_555
C12 C9 1_555 1_555
H20 C12 1_555 1_555
H21 C12 1_555 1_555
H22 C12 1_555 1_555
C13 P2 1_555 1_555
C14 C13 1_555 1_555
H23 C14 1_555 1_555
H24 C14 1_555 1_555
H25 C14 1_555 1_555
C15 C13 1_555 1_555
H26 C15 1_555 1_555
H27 C15 1_555 1_555
H28 C15 1_555 1_555
C16 C13 1_555 1_555
H29 C16 1_555 1_555
H30 C16 1_555 1_555
H31 C16 1_555 1_555
C17 P1 1_555 1_555
C18 C17 1_555 1_555
H32 C18 1_555 1_555
H33 C18 1_555 1_555
H34 C18 1_555 1_555
C19 C17 1_555 1_555
H35 C19 1_555 1_555
H36 C19 1_555 1_555
H37 C19 1_555 1_555
C20 C17 1_555 1_555
H38 C20 1_555 1_555
H39 C20 1_555 1_555
H40 C20 1_555 1_555
P3 S2 1_555 1_555
C21 P3 1_555 1_555
H41 C21 1_555 1_555
C22 C21 1_555 1_555
H42 C22 1_555 1_555
C23 C22 1_555 1_555
H43 C23 1_555 1_555
H44 C23 1_555 1_555
C24 C23 1_555 1_555
H45 C24 1_555 1_555
H46 C24 1_555 1_555
C25 C24 1_555 1_555
H47 C25 1_555 1_555
H48 C25 1_555 1_555
C26 C25 1_555 1_555
H49 C26 1_555 1_555
H50 C26 1_555 1_555
C27 C22 1_555 1_555
H51 C27 1_555 1_555
C28 P3 1_555 1_555
H52 C28 1_555 1_555
H53 C28 1_555 1_555
P4 C21 1_555 1_555
C29 P4 1_555 1_555
C30 C29 1_555 1_555
H54 C30 1_555 1_555
H55 C30 1_555 1_555
H56 C30 1_555 1_555
C31 C29 1_555 1_555
H57 C31 1_555 1_555
H58 C31 1_555 1_555
H59 C31 1_555 1_555
C32 C29 1_555 1_555
H60 C32 1_555 1_555
H61 C32 1_555 1_555
H62 C32 1_555 1_555
C33 P4 1_555 1_555
C34 C33 1_555 1_555
H63 C34 1_555 1_555
H64 C34 1_555 1_555
H65 C34 1_555 1_555
C35 C33 1_555 1_555
H66 C35 1_555 1_555
H67 C35 1_555 1_555
H68 C35 1_555 1_555
C36 C33 1_555 1_555
H69 C36 1_555 1_555
H70 C36 1_555 1_555
H71 C36 1_555 1_555
C37 P3 1_555 1_555
C38 C37 1_555 1_555
H72 C38 1_555 1_555
H73 C38 1_555 1_555
H74 C38 1_555 1_555
C39 C37 1_555 1_555
H75 C39 1_555 1_555
H76 C39 1_555 1_555
H77 C39 1_555 1_555
C40 C37 1_555 1_555
H78 C40 1_555 1_555
H79 C40 1_555 1_555
H80 C40 1_555 1_555
Cl1 C41 1_555 1_555
Cl2 C41 1_555 1_555
Cl3 C41 1_555 1_555
C41 H81 1_555 1_555
Cl4 C42 1_555 1_555
Cl5 C42 1_555 1_555
Cl6 C42 1_555 1_555
C42 H82 1_555 1_555
C6 C7 1_555 1_555
C7 C8 1_555 1_555
C26 C27 1_555 1_555
C27 C28 1_555 1_555

#END
