
#######################################################################
#
#                 Cambridge Crystallographic Data Centre
#                                CCDC 
#
#######################################################################
#
# If this CIF has been generated from an entry in the Cambridge 
# Structural Database, then it will include bibliographic, chemical, 
# crystal, experimental, refinement or atomic coordinate data resulting 
# from the CCDC's data processing and validation procedures.
#
#######################################################################

data_MAFDEE
_chemical_formula_moiety         'C74 H4 F10'
_chemical_name_systematic        1,4-bis(pentafluorobenzyl)-C60fullerene
_symmetry_cell_setting           tetragonal
_symmetry_space_group_name_H-M   'P 43 21 2'
_symmetry_Int_Tables_number      96
_space_group_name_Hall           'P 4nw 2abw'
loop_
_symmetry_equiv_pos_site_id
_symmetry_equiv_pos_as_xyz
1 x,y,z
2 -x,-y,1/2+z
3 1/2+x,1/2-y,1/4-z
4 1/2-x,1/2+y,3/4-z
5 -y,-x,1/2-z
6 y,x,-z
7 1/2+y,1/2-x,1/4+z
8 1/2-y,1/2+x,3/4+z
_cell_length_a                   13.897(5)
_cell_length_b                   13.897(5)
_cell_length_c                   20.108(5)
_cell_angle_alpha                90
_cell_angle_beta                 90
_cell_angle_gamma                90
_cell_volume                     3883.39
_exptl_crystal_colour            black
_exptl_crystal_description       prism
_cell_formula_units_Z            4
loop_
_atom_site_label
_atom_site_type_symbol
_atom_site_fract_x
_atom_site_fract_y
_atom_site_fract_z
C1 C 0.39479(18) 0.62549(18) 0.32551(12)
C2 C 0.34255(17) 0.54329(17) 0.29154(12)
C3 C 0.46582(18) 0.66885(17) 0.27549(12)
C4 C 0.33911(19) 0.4534(2) 0.32779(15)
C5 C 0.4116(4) 0.4740(4) 0.3879(2)
C6 C 0.5638(4) 0.6226(4) 0.3665(3)
C7 C 0.4594(2) 0.5768(2) 0.37820(14)
C8 C 0.5449(4) 0.5853(4) 0.3934(3)
C9 C 0.4589(4) 0.4935(4) 0.4032(3)
C10 C 0.6043(4) 0.6445(4) 0.3490(2)
C11 C 0.3886(4) 0.4235(4) 0.3752(3)
C12 C 0.5637(2) 0.67993(19) 0.29806(14)
C13 C 0.3157(4) 0.3792(4) 0.2690(3)
C14 C 0.6433(4) 0.6760(4) 0.2636(3)
C15 C 0.3330(4) 0.3667(4) 0.3067(3)
C16 C 0.3944(5) 0.2872(5) 0.3335(3)
C17 C 0.4583(5) 0.3062(5) 0.3837(3)
C18 C 0.7295(5) 0.5729(5) 0.3428(3)
C19 C 0.4668(4) 0.3994(4) 0.4126(3)
C20 C 0.6440(4) 0.5721(4) 0.3859(3)
C21 C 0.5424(5) 0.4380(5) 0.4235(3)
C22 C 0.6342(5) 0.4796(5) 0.4145(3)
C23 C 0.6040(5) 0.5067(5) 0.4172(3)
C24 C 0.5673(5) 0.4175(5) 0.4269(3)
C25 C 0.6999(4) 0.5174(4) 0.3887(3)
C26 C 0.5259(4) 0.3375(4) 0.4082(3)
C27 C 0.6996(5) 0.6013(5) 0.3468(3)
C28 C 0.4292(5) 0.3277(5) 0.3785(3)
C29 C 0.7292(5) 0.6236(5) 0.2825(3)
C30 C 0.7519(5) 0.6012(5) 0.2886(3)
C31 C 0.4149(5) 0.2609(5) 0.3260(3)
C32 C 0.3563(4) 0.2897(4) 0.2717(3)
C33 C 0.4197(4) 0.2291(4) 0.2756(3)
C34 C 0.5102(4) 0.1884(4) 0.2720(3)
C35 C 0.5819(2) 0.20849(19) 0.32902(14)
C36 C 0.5540(4) 0.2623(4) 0.3810(3)
C37 C 0.7720(4) 0.4770(5) 0.3468(3)
C38 C 0.6205(4) 0.3304(4) 0.4079(3)
C39 C 0.7128(5) 0.4192(4) 0.3902(3)
C40 C 0.7044(2) 0.3324(2) 0.37764(14)
C41 C 0.7524(4) 0.4377(4) 0.3701(3)
C42 C 0.6015(5) 0.2820(4) 0.3858(3)
C43 C 0.5646(2) 0.1911(2) 0.20061(19)
C44 C 0.8060(4) 0.5158(4) 0.2678(3)
C45 C 0.4941(4) 0.2031(4) 0.3037(3)
C46 C 0.6716(2) 0.21364(19) 0.29316(14)
C47 C 0.73864(19) 0.28110(19) 0.31987(15)
C48 C 0.66220(18) 0.2039(2) 0.22334(14)
C49 C 0.31990(19) 0.69833(18) 0.35410(13)
H1 H 0.2681 0.7053 0.3221
H2 H 0.2925 0.6711 0.3943
C50 C 0.35822(18) 0.79629(19) 0.37013(13)
C51 C 0.3425(2) 0.87387(19) 0.32824(14)
C52 C 0.3679(2) 0.9667(2) 0.34434(16)
C53 C 0.4127(2) 0.9843(2) 0.40478(17)
C54 C 0.4313(2) 0.9094(2) 0.44745(15)
C55 C 0.4043(2) 0.8175(2) 0.42995(14)
F1 F 0.29443(14) 0.85996(12) 0.27101(8)
F2 F 0.34516(17) 1.03907(13) 0.30410(10)
F3 F 0.47200(14) 0.92624(15) 0.50677(10)
F4 F 0.43564(18) 1.07410(14) 0.42209(11)
F5 F 0.42034(15) 0.74600(13) 0.47322(8)
C1D C 0.37451(18) 0.60521(18) 0.17449(12)
C2D C 0.45671(17) 0.65745(17) 0.20846(12)
C3D C 0.33115(17) 0.53418(18) 0.22451(12)
C4D C 0.5466(2) 0.66089(19) 0.17221(15)
C5D C 0.5260(4) 0.5884(4) 0.1121(2)
C6D C 0.3774(4) 0.4362(4) 0.1335(3)
C7D C 0.4232(2) 0.5406(2) 0.12180(14)
C8D C 0.4147(4) 0.4551(4) 0.1066(3)
C9D C 0.5065(4) 0.5411(4) 0.0968(3)
C10D C 0.3555(4) 0.3957(4) 0.1510(2)
C11D C 0.5765(4) 0.6114(4) 0.1248(3)
C12D C 0.32007(19) 0.4363(2) 0.20194(14)
C13D C 0.6208(4) 0.6843(4) 0.2310(3)
C14D C 0.3240(4) 0.3567(4) 0.2364(3)
C15D C 0.6333(4) 0.6670(4) 0.1933(3)
C16D C 0.7128(5) 0.6056(5) 0.1665(3)
C17D C 0.6938(5) 0.5417(5) 0.1163(3)
C18D C 0.4271(5) 0.2705(5) 0.1572(3)
C19D C 0.6006(4) 0.5332(4) 0.0874(3)
C20D C 0.4279(4) 0.3560(4) 0.1141(3)
C21D C 0.5620(5) 0.4576(5) 0.0765(3)
C22D C 0.5204(5) 0.3658(5) 0.0855(3)
C23D C 0.4933(5) 0.3960(5) 0.0828(3)
C24D C 0.5825(5) 0.4327(5) 0.0731(3)
C25D C 0.4826(4) 0.3001(4) 0.1113(3)
C26D C 0.6625(4) 0.4741(4) 0.0918(3)
C27D C 0.3987(5) 0.3004(5) 0.1532(3)
C28D C 0.6723(5) 0.5708(5) 0.1215(3)
C29D C 0.3764(5) 0.2708(5) 0.2175(3)
C30D C 0.3988(5) 0.2481(5) 0.2114(3)
C31D C 0.7391(5) 0.5851(5) 0.1740(3)
C32D C 0.7103(4) 0.6437(4) 0.2283(3)
C33D C 0.7709(4) 0.5803(4) 0.2244(3)
C34D C 0.8116(4) 0.4898(4) 0.2280(3)
C35D C 0.79151(19) 0.4181(2) 0.17098(14)
C36D C 0.7377(4) 0.4460(4) 0.1190(3)
C37D C 0.5230(5) 0.2280(4) 0.1532(3)
C38D C 0.6696(4) 0.3795(4) 0.0921(3)
C39D C 0.5808(4) 0.2872(5) 0.1098(3)
C40D C 0.6676(2) 0.2956(2) 0.12236(14)
C41D C 0.5623(4) 0.2476(4) 0.1299(3)
C42D C 0.7180(4) 0.3985(5) 0.1142(3)
C43D C 0.8089(2) 0.4354(2) 0.29939(19)
C44D C 0.4842(4) 0.1940(4) 0.2322(3)
C45D C 0.7969(4) 0.5059(4) 0.1963(3)
C46D C 0.78636(19) 0.3284(2) 0.20684(14)
C47D C 0.71890(19) 0.26136(19) 0.18013(15)
C48D C 0.7961(2) 0.33780(18) 0.27666(14)
C49D C 0.30167(18) 0.68010(19) 0.14590(13)
H1D H 0.2947 0.7319 0.1779
H2D H 0.3289 0.7075 0.1057
C50D C 0.20371(19) 0.64178(18) 0.12987(13)
C51D C 0.12613(19) 0.6575(2) 0.17176(14)
C52D C 0.0333(2) 0.6321(2) 0.15566(16)
C53D C 0.0157(2) 0.5873(2) 0.09522(17)
C54D C 0.0906(2) 0.5687(2) 0.05255(15)
C55D C 0.1825(2) 0.5957(2) 0.07005(14)
F1D F 0.14004(12) 0.70557(14) 0.22899(8)
F2D F -0.03907(13) 0.65484(17) 0.19590(10)
F3D F 0.07376(15) 0.52800(14) -0.00677(10)
F4D F -0.07410(14) 0.56436(18) 0.07791(11)
F5D F 0.25400(13) 0.57966(15) 0.02678(8)
loop_
_geom_bond_atom_site_label_1
_geom_bond_atom_site_label_2
_geom_bond_site_symmetry_1
_geom_bond_site_symmetry_2
C1 C2 1_555 1_555
C2 C4 1_555 1_555
C3 C1 1_555 1_555
C4 C5 1_555 1_555
C5 C7 1_555 1_555
C6 C7 1_555 1_555
C7 C1 1_555 1_555
C8 C6 1_555 1_555
C9 C5 1_555 1_555
C10 C6 1_555 1_555
C11 C4 1_555 1_555
C12 C3 1_555 1_555
C13 C4 1_555 1_555
C14 C12 1_555 1_555
C15 C4 1_555 1_555
C16 C15 1_555 1_555
C17 C16 1_555 1_555
C18 C20 1_555 1_555
C19 C5 1_555 1_555
C20 C6 1_555 1_555
C21 C9 1_555 1_555
C22 C20 1_555 1_555
C23 C8 1_555 1_555
C24 C19 1_555 1_555
C25 C18 1_555 1_555
C26 C17 1_555 1_555
C27 C10 1_555 1_555
C28 C11 1_555 1_555
C29 C14 1_555 1_555
C30 C18 1_555 1_555
C31 C16 1_555 1_555
C32 C13 1_555 1_555
C33 C16 1_555 1_555
C34 C33 1_555 1_555
C35 C34 1_555 1_555
C36 C17 1_555 1_555
C37 C18 1_555 1_555
C38 C24 1_555 1_555
C39 C22 1_555 1_555
C40 C38 1_555 1_555
C41 C25 1_555 1_555
C42 C26 1_555 1_555
C43 C34 1_555 1_555
C44 C30 1_555 1_555
C45 C31 1_555 1_555
C46 C35 1_555 1_555
C47 C40 1_555 1_555
C48 C43 1_555 1_555
C49 C1 1_555 1_555
H1 C49 1_555 1_555
H2 C49 1_555 1_555
C50 C49 1_555 1_555
C51 C50 1_555 1_555
C52 C51 1_555 1_555
C53 C52 1_555 1_555
C54 C53 1_555 1_555
C55 C50 1_555 1_555
F1 C51 1_555 1_555
F2 C52 1_555 1_555
F3 C54 1_555 1_555
F4 C53 1_555 1_555
F5 C55 1_555 1_555
C1D C2D 1_555 1_555
C2D C3 1_555 1_555
C3D C2 1_555 1_555
C4D C2D 1_555 1_555
C5D C4D 1_555 1_555
C6D C7D 1_555 1_555
C7D C1D 1_555 1_555
C8D C6D 1_555 1_555
C9D C5D 1_555 1_555
C10D C6D 1_555 1_555
C11D C4D 1_555 1_555
C12D C13 1_555 1_555
C13D C12 1_555 1_555
C14D C13 1_555 1_555
C15D C14 1_555 1_555
C16D C15D 1_555 1_555
C17D C16D 1_555 1_555
C18D C20D 1_555 1_555
C19D C5D 1_555 1_555
C20D C6D 1_555 1_555
C21D C9D 1_555 1_555
C22D C20D 1_555 1_555
C23D C8D 1_555 1_555
C24D C19D 1_555 1_555
C25D C18D 1_555 1_555
C26D C17D 1_555 1_555
C27D C10D 1_555 1_555
C28D C11D 1_555 1_555
C29D C32 1_555 1_555
C30D C32 1_555 1_555
C31D C16D 1_555 1_555
C32D C14 1_555 1_555
C33D C29 1_555 1_555
C34D C44 1_555 1_555
C35D C34D 1_555 1_555
C36D C17D 1_555 1_555
C37D C43 1_555 1_555
C38D C24D 1_555 1_555
C39D C22D 1_555 1_555
C40D C38D 1_555 1_555
C41D C43 1_555 1_555
C42D C26D 1_555 1_555
C43D C37 1_555 1_555
C44D C33 1_555 1_555
C45D C44 1_555 1_555
C46D C35D 1_555 1_555
C47D C48 1_555 1_555
C48D C47 1_555 1_555
C49D C1D 1_555 1_555
H1D C49D 1_555 1_555
H2D C49D 1_555 1_555
C50D C49D 1_555 1_555
C51D C50D 1_555 1_555
C52D C51D 1_555 1_555
C53D C52D 1_555 1_555
C54D C53D 1_555 1_555
C55D C50D 1_555 1_555
F1D C51D 1_555 1_555
F2D C52D 1_555 1_555
F3D C54D 1_555 1_555
F4D C53D 1_555 1_555
F5D C55D 1_555 1_555
C5 C11 1_555 1_555
C6 C12 1_555 1_555
C7 C8 1_555 1_555
C7 C9 1_555 1_555
C8 C9 1_555 1_555
C8 C10 1_555 1_555
C8 C20 1_555 1_555
C9 C11 1_555 1_555
C9 C19 1_555 1_555
C10 C12 1_555 1_555
C10 C20 1_555 1_555
C11 C19 1_555 1_555
C13 C15 1_555 1_555
C14 C13D 1_555 1_555
C15 C32 1_555 1_555
C15 C14D 1_555 1_555
C16 C28 1_555 1_555
C16 C32 1_555 1_555
C17 C19 1_555 1_555
C17 C28 1_555 1_555
C17 C31 1_555 1_555
C18 C27 1_555 1_555
C18 C29 1_555 1_555
C19 C21 1_555 1_555
C19 C26 1_555 1_555
C19 C28 1_555 1_555
C20 C23 1_555 1_555
C20 C25 1_555 1_555
C20 C27 1_555 1_555
C21 C22 1_555 1_555
C21 C23 1_555 1_555
C21 C24 1_555 1_555
C21 C26 1_555 1_555
C22 C23 1_555 1_555
C22 C24 1_555 1_555
C22 C25 1_555 1_555
C23 C24 1_555 1_555
C23 C25 1_555 1_555
C24 C26 1_555 1_555
C25 C27 1_555 1_555
C25 C37 1_555 1_555
C25 C39 1_555 1_555
C26 C28 1_555 1_555
C26 C36 1_555 1_555
C26 C38 1_555 1_555
C27 C29 1_555 1_555
C27 C30 1_555 1_555
C28 C31 1_555 1_555
C29 C30 1_555 1_555
C29 C32D 1_555 1_555
C30 C32D 1_555 1_555
C30 C33D 1_555 1_555
C31 C32 1_555 1_555
C31 C33 1_555 1_555
C32 C33 1_555 1_555
C32 C14D 1_555 1_555
C33 C45 1_555 1_555
C33 C29D 1_555 1_555
C33 C30D 1_555 1_555
C34 C45 1_555 1_555
C34 C44D 1_555 1_555
C35 C36 1_555 1_555
C35 C42 1_555 1_555
C35 C45 1_555 1_555
C36 C38 1_555 1_555
C36 C42 1_555 1_555
C37 C39 1_555 1_555
C37 C41 1_555 1_555
C37 C44 1_555 1_555
C38 C42 1_555 1_555
C39 C40 1_555 1_555
C39 C41 1_555 1_555
C40 C41 1_555 1_555
C40 C42 1_555 1_555
C41 C43D 1_555 1_555
C43 C44D 1_555 1_555
C44 C33D 1_555 1_555
C44 C43D 1_555 1_555
C45 C44D 1_555 1_555
C46 C47 1_555 1_555
C46 C48 1_555 1_555
C54 C55 1_555 1_555
C1D C3D 1_555 1_555
C3D C12D 1_555 1_555
C4D C13D 1_555 1_555
C4D C15D 1_555 1_555
C5D C7D 1_555 1_555
C5D C11D 1_555 1_555
C6D C12D 1_555 1_555
C7D C8D 1_555 1_555
C7D C9D 1_555 1_555
C8D C9D 1_555 1_555
C8D C10D 1_555 1_555
C8D C20D 1_555 1_555
C9D C11D 1_555 1_555
C9D C19D 1_555 1_555
C10D C12D 1_555 1_555
C10D C20D 1_555 1_555
C11D C19D 1_555 1_555
C12D C14D 1_555 1_555
C13D C15D 1_555 1_555
C13D C32D 1_555 1_555
C14D C29D 1_555 1_555
C15D C32D 1_555 1_555
C16D C28D 1_555 1_555
C16D C32D 1_555 1_555
C16D C33D 1_555 1_555
C17D C19D 1_555 1_555
C17D C28D 1_555 1_555
C17D C31D 1_555 1_555
C18D C27D 1_555 1_555
C18D C29D 1_555 1_555
C18D C30D 1_555 1_555
C18D C37D 1_555 1_555
C19D C21D 1_555 1_555
C19D C26D 1_555 1_555
C19D C28D 1_555 1_555
C20D C23D 1_555 1_555
C20D C25D 1_555 1_555
C20D C27D 1_555 1_555
C21D C22D 1_555 1_555
C21D C23D 1_555 1_555
C21D C24D 1_555 1_555
C21D C26D 1_555 1_555
C22D C23D 1_555 1_555
C22D C24D 1_555 1_555
C22D C25D 1_555 1_555
C23D C24D 1_555 1_555
C23D C25D 1_555 1_555
C24D C26D 1_555 1_555
C25D C27D 1_555 1_555
C25D C37D 1_555 1_555
C25D C39D 1_555 1_555
C25D C41D 1_555 1_555
C26D C28D 1_555 1_555
C26D C36D 1_555 1_555
C26D C38D 1_555 1_555
C27D C29D 1_555 1_555
C27D C30D 1_555 1_555
C28D C31D 1_555 1_555
C29D C30D 1_555 1_555
C30D C44D 1_555 1_555
C31D C32D 1_555 1_555
C31D C33D 1_555 1_555
C31D C45D 1_555 1_555
C32D C33D 1_555 1_555
C33D C34D 1_555 1_555
C33D C45D 1_555 1_555
C34D C43D 1_555 1_555
C34D C45D 1_555 1_555
C35D C36D 1_555 1_555
C35D C42D 1_555 1_555
C35D C45D 1_555 1_555
C36D C38D 1_555 1_555
C36D C42D 1_555 1_555
C37D C39D 1_555 1_555
C37D C41D 1_555 1_555
C37D C44D 1_555 1_555
C38D C42D 1_555 1_555
C39D C40D 1_555 1_555
C39D C41D 1_555 1_555
C40D C41D 1_555 1_555
C40D C42D 1_555 1_555
C40D C47D 1_555 1_555
C43D C48D 1_555 1_555
C46D C47D 1_555 1_555
C46D C48D 1_555 1_555
C54D C55D 1_555 1_555

#END
