
#######################################################################
#
#                 Cambridge Crystallographic Data Centre
#                                CCDC 
#
#######################################################################
#
# If this CIF has been generated from an entry in the Cambridge 
# Structural Database, then it will include bibliographic, chemical, 
# crystal, experimental, refinement or atomic coordinate data resulting 
# from the CCDC's data processing and validation procedures.
#
#######################################################################

data_MAFPUH
_chemical_formula_moiety         'C19 H23 Br1 N2 O2'
_chemical_name_systematic        
6-Bromo-2-(hex-5-en-1-yl)-2-(nitromethyl)-2,3,4,9-tetrahydro-1H-carbazole
_symmetry_cell_setting           orthorhombic
_symmetry_space_group_name_H-M   'P 21 21 21'
_symmetry_Int_Tables_number      19
_space_group_name_Hall           'P 2ac 2ab'
loop_
_symmetry_equiv_pos_site_id
_symmetry_equiv_pos_as_xyz
1 x,y,z
2 1/2-x,-y,1/2+z
3 -x,1/2+y,1/2-z
4 1/2+x,1/2-y,-z
_cell_length_a                   8.48566(15)
_cell_length_b                   22.4955(4)
_cell_length_c                   28.2708(5)
_cell_angle_alpha                90
_cell_angle_beta                 90
_cell_angle_gamma                90
_cell_volume                     5396.59
_exptl_crystal_colour            colorless
_exptl_crystal_description       block
_cell_formula_units_Z            12
loop_
_atom_site_label
_atom_site_type_symbol
_atom_site_fract_x
_atom_site_fract_y
_atom_site_fract_z
Br1 Br 0.89165(8) 0.20248(3) 0.53395(2)
N1 N 0.9677(5) 0.4633(2) 0.57202(16)
H1 H 1.0453 0.4854 0.5805
N2 N 0.3430(6) 0.5232(2) 0.61323(19)
C1 C 0.7247(6) 0.4353(3) 0.5494(2)
C2 C 0.5807(6) 0.5513(3) 0.56336(19)
C3 C 0.5164(6) 0.5361(3) 0.6129(2)
H2 H 0.5724 0.5018 0.6251
H3 H 0.5372 0.5692 0.6340
C4 C 0.9737(6) 0.4031(3) 0.56490(19)
O1 O 0.3001(6) 0.4756(3) 0.6268(3)
C5 C 0.8147(6) 0.4824(3) 0.56310(19)
C6 C 0.7984(7) 0.3230(3) 0.5403(2)
H4 H 0.7013 0.3093 0.5296
C7 C 0.8234(6) 0.3835(3) 0.55056(18)
C8 C 0.5199(7) 0.5080(3) 0.5255(2)
H5 H 0.5667 0.5187 0.4954
H6 H 0.4068 0.5130 0.5226
C9 C 1.0998(7) 0.3632(3) 0.5702(2)
H7 H 1.1991 0.3763 0.5794
O2 O 0.2506(6) 0.5590(3) 0.5983(3)
C10 C 0.5957(9) 0.6654(3) 0.5791(2)
H8 H 0.7092 0.6624 0.5825
H9 H 0.5494 0.6606 0.6102
C11 C 1.0711(7) 0.3035(3) 0.5611(2)
H10 H 1.1517 0.2759 0.5647
C12 C 0.5550(6) 0.4420(3) 0.5354(2)
H11 H 0.4876 0.4277 0.5607
H12 H 0.5337 0.4186 0.5073
C13 C 0.9235(7) 0.2850(3) 0.5467(2)
C14 C 0.7635(6) 0.5456(3) 0.5676(2)
H13 H 0.8132 0.5692 0.5431
H14 H 0.7972 0.5611 0.5980
C15 C 0.5544(8) 0.7277(3) 0.5602(2)
H15 H 0.4415 0.7300 0.5552
H16 H 0.5821 0.7570 0.5840
C16 C 0.5388(7) 0.6151(3) 0.5474(2)
H17 H 0.5821 0.6212 0.5161
H18 H 0.4251 0.6179 0.5448
C17 C 0.6368(9) 0.7431(3) 0.5148(2)
H19 H 0.7486 0.7358 0.5190
H20 H 0.5997 0.7162 0.4904
C18 C 0.6165(9) 0.8051(3) 0.4974(2)
H21 H 0.6734 0.8154 0.4705
C19 C 0.5287(10) 0.8463(4) 0.5155(3)
H22 H 0.4693 0.8385 0.5424
H23 H 0.5251 0.8837 0.5015
Br2 Br 0.63300(10) 0.73426(3) 0.70620(3)
N3 N 0.5514(5) 0.4733(2) 0.73946(17)
H24 H 0.4734 0.4514 0.7479
N4 N 1.1720(5) 0.4049(2) 0.77800(17)
C20 C 0.9314(6) 0.3835(3) 0.7280(2)
O3 O 1.2248(6) 0.4537(2) 0.7832(3)
C21 C 0.9980(6) 0.3966(3) 0.7779(2)
H25 H 0.9484 0.4322 0.7902
H26 H 0.9713 0.3639 0.7988
C22 C 0.7946(7) 0.5003(3) 0.7167(2)
O4 O 1.2578(6) 0.3637(3) 0.7714(3)
C23 C 0.9940(7) 0.4272(3) 0.6908(2)
H27 H 1.1068 0.4215 0.6877
H28 H 0.9464 0.4177 0.6606
C24 C 0.5458(7) 0.5336(3) 0.7339(2)
C25 C 0.9730(7) 0.3198(3) 0.7107(2)
H29 H 0.9334 0.3152 0.6787
H30 H 1.0869 0.3163 0.7093
C26 C 0.9091(9) 0.2688(3) 0.7407(2)
H31 H 0.9471 0.2734 0.7729
H32 H 0.7950 0.2713 0.7415
C27 C 0.6979(7) 0.5528(3) 0.7197(2)
C28 C 0.7020(6) 0.4530(3) 0.7294(2)
C29 C 0.7246(7) 0.6131(3) 0.7105(2)
H33 H 0.8221 0.6268 0.7003
C30 C 0.4510(8) 0.6329(3) 0.7310(2)
H34 H 0.3704 0.6606 0.7345
C31 C 0.9625(7) 0.4930(3) 0.7019(2)
H35 H 1.0318 0.5063 0.7270
H36 H 0.9832 0.5170 0.6740
C32 C 0.4228(7) 0.5733(3) 0.7396(2)
H37 H 0.3236 0.5603 0.7490
C33 C 0.7498(6) 0.3903(3) 0.7320(2)
H38 H 0.6996 0.3683 0.7067
H39 H 0.7145 0.3736 0.7618
C34 C 0.9561(8) 0.2075(3) 0.7228(2)
H40 H 1.0702 0.2055 0.7213
H41 H 0.9210 0.1780 0.7454
C35 C 0.5992(8) 0.6510(3) 0.7173(2)
C36 C 0.8903(8) 0.1919(3) 0.6749(2)
H42 H 0.7790 0.2018 0.6747
H43 H 0.9412 0.2169 0.6515
C37 C 0.9080(9) 0.1283(3) 0.6597(3)
H44 H 0.8742 0.1193 0.6293
C38 C 0.9639(10) 0.0850(4) 0.6837(3)
H45 H 0.9996 0.0912 0.7144
H46 H 0.9689 0.0472 0.6704
Br3 Br 0.64224(10) 0.81280(3) 0.36011(3)
N5 N 0.5526(5) 0.5551(2) 0.40554(17)
H47 H 0.4738 0.5340 0.4147
O5 O 1.2390(6) 0.5221(3) 0.4385(2)
O6 O 1.2325(6) 0.4308(3) 0.4593(3)
N6 N 1.1675(6) 0.4767(3) 0.44880(18)
C39 C 0.9919(6) 0.4783(3) 0.4475(2)
H48 H 0.9559 0.5178 0.4559
H49 H 0.9502 0.4506 0.4707
C40 C 0.7969(7) 0.5799(3) 0.3815(2)
C41 C 0.9285(7) 0.4619(3) 0.3981(2)
C42 C 0.7013(6) 0.5337(3) 0.3962(2)
C43 C 0.9063(8) 0.3485(3) 0.4167(2)
H50 H 0.9428 0.3557 0.4487
H51 H 0.7921 0.3500 0.4170
C44 C 0.7025(7) 0.6321(3) 0.3824(2)
C45 C 0.5496(6) 0.6152(3) 0.3980(2)
C46 C 0.9937(7) 0.5035(3) 0.3593(2)
H52 H 1.1064 0.4971 0.3568
H53 H 0.9469 0.4922 0.3294
C47 C 0.9688(7) 0.3977(3) 0.3844(2)
H54 H 0.9287 0.3906 0.3527
H55 H 1.0826 0.3941 0.3830
C48 C 0.7476(7) 0.4702(3) 0.4009(2)
H56 H 0.6981 0.4473 0.3759
H57 H 0.7098 0.4549 0.4309
C49 C 0.4277(8) 0.6559(3) 0.4013(2)
H58 H 0.3278 0.6439 0.4110
C50 C 0.6077(8) 0.7312(3) 0.37477(19)
C51 C 0.9649(7) 0.5696(3) 0.3670(2)
H59 H 1.0350 0.5844 0.3915
H60 H 0.9870 0.5912 0.3381
C52 C 0.4575(8) 0.7144(3) 0.3900(2)
H61 H 0.3779 0.7426 0.3926
C53 C 0.9583(7) 0.2873(3) 0.4014(2)
H62 H 0.9248 0.2587 0.4251
H63 H 1.0725 0.2863 0.4002
C54 C 0.7315(7) 0.6919(3) 0.3707(2)
H64 H 0.8304 0.7044 0.3607
C55 C 0.8935(9) 0.2682(3) 0.3534(2)
H65 H 0.7811 0.2761 0.3533
H66 H 0.9408 0.2934 0.3295
C56 C 0.9175(9) 0.2051(3) 0.3389(3)
H67 H 0.8786 0.1947 0.3093
C57 C 0.9849(10) 0.1638(4) 0.3623(3)
H68 H 1.0261 0.1716 0.3921
H69 H 0.9929 0.1258 0.3494
loop_
_geom_bond_atom_site_label_1
_geom_bond_atom_site_label_2
_geom_bond_site_symmetry_1
_geom_bond_site_symmetry_2
Br1 C13 1_555 1_555
N1 H1 1_555 1_555
N2 C3 1_555 1_555
C1 C5 1_555 1_555
C2 C3 1_555 1_555
C3 H2 1_555 1_555
H3 C3 1_555 1_555
C4 N1 1_555 1_555
O1 N2 1_555 1_555
C5 N1 1_555 1_555
C6 H4 1_555 1_555
C7 C1 1_555 1_555
C8 C2 1_555 1_555
H5 C8 1_555 1_555
H6 C8 1_555 1_555
C9 C4 1_555 1_555
H7 C9 1_555 1_555
O2 N2 1_555 1_555
C10 H8 1_555 1_555
H9 C10 1_555 1_555
C11 C9 1_555 1_555
H10 C11 1_555 1_555
C12 C1 1_555 1_555
H11 C12 1_555 1_555
H12 C12 1_555 1_555
C13 C6 1_555 1_555
C14 C2 1_555 1_555
H13 C14 1_555 1_555
H14 C14 1_555 1_555
C15 C10 1_555 1_555
H15 C15 1_555 1_555
H16 C15 1_555 1_555
C16 C2 1_555 1_555
H17 C16 1_555 1_555
H18 C16 1_555 1_555
C17 C15 1_555 1_555
H19 C17 1_555 1_555
H20 C17 1_555 1_555
C18 C17 1_555 1_555
H21 C18 1_555 1_555
C19 C18 1_555 1_555
H22 C19 1_555 1_555
H23 C19 1_555 1_555
Br2 C35 1_555 1_555
N3 H24 1_555 1_555
N4 O3 1_555 1_555
C20 C21 1_555 1_555
C21 N4 1_555 1_555
H25 C21 1_555 1_555
H26 C21 1_555 1_555
C22 C27 1_555 1_555
O4 N4 1_555 1_555
C23 C20 1_555 1_555
H27 C23 1_555 1_555
H28 C23 1_555 1_555
C24 N3 1_555 1_555
C25 C20 1_555 1_555
H29 C25 1_555 1_555
H30 C25 1_555 1_555
C26 C25 1_555 1_555
H31 C26 1_555 1_555
H32 C26 1_555 1_555
C27 C24 1_555 1_555
C28 N3 1_555 1_555
C29 C27 1_555 1_555
H33 C29 1_555 1_555
C30 H34 1_555 1_555
C31 C22 1_555 1_555
H35 C31 1_555 1_555
H36 C31 1_555 1_555
C32 C24 1_555 1_555
H37 C32 1_555 1_555
C33 C20 1_555 1_555
H38 C33 1_555 1_555
H39 C33 1_555 1_555
C34 C26 1_555 1_555
H40 C34 1_555 1_555
H41 C34 1_555 1_555
C35 C29 1_555 1_555
C36 C34 1_555 1_555
H42 C36 1_555 1_555
H43 C36 1_555 1_555
C37 C36 1_555 1_555
H44 C37 1_555 1_555
C38 C37 1_555 1_555
H45 C38 1_555 1_555
H46 C38 1_555 1_555
Br3 C50 1_555 1_555
N5 H47 1_555 1_555
O5 N6 1_555 1_555
O6 N6 1_555 1_555
N6 C39 1_555 1_555
C39 H48 1_555 1_555
H49 C39 1_555 1_555
C40 C42 1_555 1_555
C41 C39 1_555 1_555
C42 N5 1_555 1_555
C43 H50 1_555 1_555
H51 C43 1_555 1_555
C44 C40 1_555 1_555
C45 N5 1_555 1_555
C46 C41 1_555 1_555
H52 C46 1_555 1_555
H53 C46 1_555 1_555
C47 C41 1_555 1_555
H54 C47 1_555 1_555
H55 C47 1_555 1_555
C48 C41 1_555 1_555
H56 C48 1_555 1_555
H57 C48 1_555 1_555
C49 C45 1_555 1_555
H58 C49 1_555 1_555
C50 C52 1_555 1_555
C51 C40 1_555 1_555
H59 C51 1_555 1_555
H60 C51 1_555 1_555
C52 C49 1_555 1_555
H61 C52 1_555 1_555
C53 C43 1_555 1_555
H62 C53 1_555 1_555
H63 C53 1_555 1_555
C54 C44 1_555 1_555
H64 C54 1_555 1_555
C55 C53 1_555 1_555
H65 C55 1_555 1_555
H66 C55 1_555 1_555
C56 C55 1_555 1_555
H67 C56 1_555 1_555
C57 C56 1_555 1_555
H68 C57 1_555 1_555
H69 C57 1_555 1_555
C4 C7 1_555 1_555
C5 C14 1_555 1_555
C6 C7 1_555 1_555
C8 C12 1_555 1_555
C10 C16 1_555 1_555
C11 C13 1_555 1_555
C22 C28 1_555 1_555
C23 C31 1_555 1_555
C28 C33 1_555 1_555
C30 C32 1_555 1_555
C30 C35 1_555 1_555
C42 C48 1_555 1_555
C43 C47 1_555 1_555
C44 C45 1_555 1_555
C46 C51 1_555 1_555
C50 C54 1_555 1_555

#END
