
#######################################################################
#
#                 Cambridge Crystallographic Data Centre
#                                CCDC 
#
#######################################################################
#
# If this CIF has been generated from an entry in the Cambridge 
# Structural Database, then it will include bibliographic, chemical, 
# crystal, experimental, refinement or atomic coordinate data resulting 
# from the CCDC's data processing and validation procedures.
#
#######################################################################

data_MAFPOB
_chemical_formula_moiety         'C43 H72 N2 O5 S1 Si1'
_chemical_name_systematic        
19-((t-Butyl(dimethyl)silyl)oxy)-12-(phenylsulfonyl)-12,29-diazatetracyclo[27.3.1.0^1,17^.0^15,31^]tritriacontane-16,30-dione
_symmetry_cell_setting           monoclinic
_symmetry_space_group_name_H-M   'P 21/n'
_symmetry_Int_Tables_number      14
_space_group_name_Hall           '-P 2yn'
loop_
_symmetry_equiv_pos_site_id
_symmetry_equiv_pos_as_xyz
1 x,y,z
2 1/2-x,1/2+y,1/2-z
3 -x,-y,-z
4 1/2+x,1/2-y,1/2+z
_cell_length_a                   13.1460(4)
_cell_length_b                   23.6613(7)
_cell_length_c                   14.3296(4)
_cell_angle_alpha                90
_cell_angle_beta                 106.992(3)
_cell_angle_gamma                90
_cell_volume                     4262.66
_exptl_crystal_colour            colorless
_exptl_crystal_description       block-like
_cell_formula_units_Z            4
loop_
_atom_site_label
_atom_site_type_symbol
_atom_site_fract_x
_atom_site_fract_y
_atom_site_fract_z
C1 C 0.49807(15) 0.25546(8) 0.24334(13)
C2 C 0.50440(15) 0.24063(8) 0.35163(13)
H1 H 0.5105 0.1994 0.3569
C3 C 0.40464(16) 0.25630(9) 0.38050(14)
H2 H 0.4196 0.2904 0.4197
H3 H 0.3483 0.2651 0.3215
C4 C 0.36357(15) 0.21151(9) 0.43701(14)
H4 H 0.3315 0.1808 0.3921
C5 C 0.27914(17) 0.23572(10) 0.47976(15)
H5 H 0.2430 0.2046 0.5007
H6 H 0.2268 0.2558 0.4286
C6 C 0.3222(2) 0.27602(11) 0.56643(15)
H7 H 0.3203 0.2568 0.6257
H8 H 0.3961 0.2843 0.5723
C7 C 0.2621(2) 0.33147(12) 0.55925(19)
H9 H 0.2842 0.3501 0.6223
H10 H 0.1868 0.3233 0.5445
C8 C 0.2786(2) 0.37201(11) 0.48243(17)
H11 H 0.2620 0.3524 0.4204
H12 H 0.2288 0.4031 0.4753
C9 C 0.3903(2) 0.39606(11) 0.50507(17)
H13 H 0.4407 0.3662 0.5328
H14 H 0.3986 0.4252 0.5544
C10 C 0.4191(2) 0.42139(10) 0.41722(18)
H15 H 0.3920 0.3970 0.3611
H16 H 0.3850 0.4580 0.4016
C11 C 0.5381(2) 0.42834(10) 0.43705(17)
H17 H 0.5637 0.4539 0.4919
H18 H 0.5715 0.3919 0.4565
C12 C 0.5745(2) 0.45047(10) 0.35310(18)
H19 H 0.6515 0.4531 0.3748
H20 H 0.5471 0.4885 0.3385
C13 C 0.54265(19) 0.41663(9) 0.25910(16)
H21 H 0.4667 0.4212 0.2292
H22 H 0.5783 0.4327 0.2148
C14 C 0.47658(16) 0.31825(8) 0.22301(13)
H23 H 0.4563 0.3242 0.1530
H24 H 0.4166 0.3291 0.2455
C15 C 0.69233(16) 0.27617(9) 0.29306(14)
H25 H 0.7584 0.2697 0.2761
C16 C 0.60369(16) 0.24271(9) 0.22308(14)
H26 H 0.6190 0.2026 0.2313
H27 H 0.5989 0.2528 0.1563
C17 C 0.70867(15) 0.25642(9) 0.39926(14)
H28 H 0.7622 0.2810 0.4423
C18 C 0.60460(16) 0.26432(8) 0.42436(13)
C19 C 0.74592(16) 0.19494(9) 0.42060(14)
H29 H 0.7553 0.1870 0.4890
H30 H 0.6910 0.1699 0.3824
C20 C 0.84951(16) 0.18235(9) 0.39747(15)
H31 H 0.8371 0.1827 0.3273
H32 H 0.9013 0.2115 0.4257
C21 C 0.82605(17) 0.07648(9) 0.39975(15)
H33 H 0.7673 0.0760 0.4279
H34 H 0.8687 0.0431 0.4228
C22 C 0.78082(18) 0.07261(9) 0.28896(15)
H35 H 0.7364 0.1053 0.2650
H36 H 0.8388 0.0729 0.2598
C23 C 0.66972(17) 0.33922(9) 0.28821(15)
C24 C 0.71553(18) 0.01919(9) 0.25851(16)
H37 H 0.6614 0.0177 0.2921
H38 H 0.7616 -0.0133 0.2791
C25 C 0.66157(19) 0.01497(10) 0.14857(16)
H39 H 0.7135 0.0246 0.1150
H40 H 0.6410 -0.0241 0.1330
C26 C 0.56349(18) 0.05215(9) 0.10781(15)
H41 H 0.5827 0.0913 0.1238
H42 H 0.5400 0.0488 0.0373
C27 C 0.47210(18) 0.03631(9) 0.14782(16)
H43 H 0.4914 0.0469 0.2162
H44 H 0.4640 -0.0045 0.1445
C28 C 0.36467(18) 0.06292(10) 0.09631(17)
H45 H 0.3392 0.0470 0.0312
H46 H 0.3145 0.0523 0.1312
C29 C 0.36467(18) 0.12691(9) 0.08772(15)
H47 H 0.2921 0.1395 0.0583
H48 H 0.4056 0.1373 0.0439
C30 C 0.40998(17) 0.15823(9) 0.18398(14)
H49 H 0.4827 0.1461 0.2137
H50 H 0.3690 0.1484 0.2280
C31 C 0.40814(16) 0.22251(9) 0.17070(14)
H51 H 0.3407 0.2366 0.1757
H52 H 0.4111 0.2307 0.1052
C32 C 0.5177(2) 0.08368(11) 0.4520(2)
H53 H 0.4638 0.0839 0.3901
H54 H 0.5345 0.0454 0.4729
H55 H 0.5805 0.1021 0.4457
C33 C 0.3426(2) 0.08761(12) 0.5494(2)
H56 H 0.2920 0.0879 0.4856
H57 H 0.3140 0.1079 0.5941
H58 H 0.3571 0.0493 0.5712
C34 C 0.6105(3) 0.06271(14) 0.6961(2)
H59 H 0.6630 0.0634 0.7589
H60 H 0.6416 0.0478 0.6485
H61 H 0.5520 0.0393 0.6992
C35 C 0.5209(3) 0.1482(2) 0.7410(2)
H62 H 0.5726 0.1489 0.8042
H63 H 0.4611 0.1256 0.7438
H64 H 0.4975 0.1860 0.7218
C36 C 0.6655(2) 0.15909(13) 0.6634(2)
H65 H 0.7176 0.1593 0.7263
H66 H 0.6422 0.1971 0.6453
H67 H 0.6965 0.1437 0.6160
C37 C 0.5706(2) 0.12291(11) 0.66723(18)
C38 C 1.06533(16) 0.11714(10) 0.36657(15)
C39 C 1.06743(18) 0.16634(12) 0.31462(16)
H68 H 1.0453 0.2003 0.3349
C40 C 1.1026(2) 0.16465(15) 0.23244(18)
H69 H 1.1031 0.1974 0.1966
C41 C 1.1366(2) 0.11461(19) 0.2042(2)
H70 H 1.1609 0.1136 0.1495
C42 C 1.1351(2) 0.06602(17) 0.2557(2)
H71 H 1.1591 0.0325 0.2357
C43 C 1.09781(19) 0.06605(12) 0.33804(19)
H72 H 1.0951 0.0329 0.3722
N1 N 0.89202(13) 0.12692(7) 0.43656(12)
N2 N 0.56665(14) 0.35562(7) 0.26898(12)
O1 O 1.04430(13) 0.06652(8) 0.52017(12)
O2 O 1.06337(12) 0.17031(7) 0.52256(10)
O3 O 0.44995(11) 0.18899(6) 0.51317(9)
O4 O 0.74307(13) 0.37342(7) 0.30743(14)
O5 O 0.60362(11) 0.28691(6) 0.49980(9)
S1 S 1.02115(4) 0.11970(2) 0.47208(3)
Si1 Si 0.46790(5) 0.12200(3) 0.54399(4)
loop_
_geom_bond_atom_site_label_1
_geom_bond_atom_site_label_2
_geom_bond_site_symmetry_1
_geom_bond_site_symmetry_2
C1 C2 1_555 1_555
C2 H1 1_555 1_555
C3 C2 1_555 1_555
H2 C3 1_555 1_555
H3 C3 1_555 1_555
C4 C3 1_555 1_555
H4 C4 1_555 1_555
C5 C4 1_555 1_555
H5 C5 1_555 1_555
H6 C5 1_555 1_555
C6 C5 1_555 1_555
H7 C6 1_555 1_555
H8 C6 1_555 1_555
C7 C6 1_555 1_555
H9 C7 1_555 1_555
H10 C7 1_555 1_555
C8 C7 1_555 1_555
H11 C8 1_555 1_555
H12 C8 1_555 1_555
C9 C8 1_555 1_555
H13 C9 1_555 1_555
H14 C9 1_555 1_555
C10 C9 1_555 1_555
H15 C10 1_555 1_555
H16 C10 1_555 1_555
C11 C10 1_555 1_555
H17 C11 1_555 1_555
H18 C11 1_555 1_555
C12 C11 1_555 1_555
H19 C12 1_555 1_555
H20 C12 1_555 1_555
C13 C12 1_555 1_555
H21 C13 1_555 1_555
H22 C13 1_555 1_555
C14 C1 1_555 1_555
H23 C14 1_555 1_555
H24 C14 1_555 1_555
C15 H25 1_555 1_555
C16 C1 1_555 1_555
H26 C16 1_555 1_555
H27 C16 1_555 1_555
C17 C15 1_555 1_555
H28 C17 1_555 1_555
C18 C2 1_555 1_555
C19 C17 1_555 1_555
H29 C19 1_555 1_555
H30 C19 1_555 1_555
C20 C19 1_555 1_555
H31 C20 1_555 1_555
H32 C20 1_555 1_555
C21 H33 1_555 1_555
H34 C21 1_555 1_555
C22 C21 1_555 1_555
H35 C22 1_555 1_555
H36 C22 1_555 1_555
C23 C15 1_555 1_555
C24 C22 1_555 1_555
H37 C24 1_555 1_555
H38 C24 1_555 1_555
C25 C24 1_555 1_555
H39 C25 1_555 1_555
H40 C25 1_555 1_555
C26 C25 1_555 1_555
H41 C26 1_555 1_555
H42 C26 1_555 1_555
C27 C26 1_555 1_555
H43 C27 1_555 1_555
H44 C27 1_555 1_555
C28 C27 1_555 1_555
H45 C28 1_555 1_555
H46 C28 1_555 1_555
C29 C28 1_555 1_555
H47 C29 1_555 1_555
H48 C29 1_555 1_555
C30 C29 1_555 1_555
H49 C30 1_555 1_555
H50 C30 1_555 1_555
C31 C1 1_555 1_555
H51 C31 1_555 1_555
H52 C31 1_555 1_555
C32 H53 1_555 1_555
H54 C32 1_555 1_555
H55 C32 1_555 1_555
C33 H56 1_555 1_555
H57 C33 1_555 1_555
H58 C33 1_555 1_555
C34 H59 1_555 1_555
H60 C34 1_555 1_555
H61 C34 1_555 1_555
C35 H62 1_555 1_555
H63 C35 1_555 1_555
H64 C35 1_555 1_555
C36 H65 1_555 1_555
H66 C36 1_555 1_555
H67 C36 1_555 1_555
C37 C34 1_555 1_555
C38 C39 1_555 1_555
C39 H68 1_555 1_555
C40 C39 1_555 1_555
H69 C40 1_555 1_555
C41 C40 1_555 1_555
H70 C41 1_555 1_555
C42 C41 1_555 1_555
H71 C42 1_555 1_555
C43 C38 1_555 1_555
H72 C43 1_555 1_555
N1 C20 1_555 1_555
N2 C13 1_555 1_555
O1 S1 1_555 1_555
O2 S1 1_555 1_555
O3 C4 1_555 1_555
O4 C23 1_555 1_555
O5 C18 1_555 1_555
S1 C38 1_555 1_555
Si1 C32 1_555 1_555
C14 N2 1_555 1_555
C15 C16 1_555 1_555
C17 C18 1_555 1_555
C21 N1 1_555 1_555
C23 N2 1_555 1_555
C30 C31 1_555 1_555
C33 Si1 1_555 1_555
C35 C37 1_555 1_555
C36 C37 1_555 1_555
C37 Si1 1_555 1_555
C42 C43 1_555 1_555
N1 S1 1_555 1_555
O3 Si1 1_555 1_555

#END
