
#######################################################################
#
#                 Cambridge Crystallographic Data Centre
#                                CCDC 
#
#######################################################################
#
# If this CIF has been generated from an entry in the Cambridge 
# Structural Database, then it will include bibliographic, chemical, 
# crystal, experimental, refinement or atomic coordinate data resulting 
# from the CCDC's data processing and validation procedures.
#
#######################################################################

data_MAFPOZ
_chemical_name_common            
'poly((Buta-1,3-diyne-1,4-diyldibenzene-4,1-diyl)dimethanaminium (2E,6E)-1,5-dicarboxylato-4-methylnona-2,6-diene-1,8-diyl)'
_chemical_formula_moiety         '(C18 H18 N2 2+)n,n(C12 H14 O4 2-)'
_chemical_name_systematic        
"poly(4,4'-Butadiynedibenzylammonium disorbate)"
_symmetry_cell_setting           triclinic
_symmetry_space_group_name_H-M   'P -1'
_symmetry_Int_Tables_number      2
_space_group_name_Hall           '-P 1'
loop_
_symmetry_equiv_pos_site_id
_symmetry_equiv_pos_as_xyz
1 x,y,z
2 -x,-y,-z
_cell_length_a                   4.818(3)
_cell_length_b                   5.609(2)
_cell_length_c                   23.803(10)
_cell_angle_alpha                89.02(3)
_cell_angle_beta                 85.43(4)
_cell_angle_gamma                80.22(4)
_cell_volume                     631.888
_exptl_crystal_colour            blue
_exptl_crystal_description       plate
_cell_formula_units_Z            1
_exptl_crystal_preparation       'irradiated product'
loop_
_atom_site_label
_atom_site_type_symbol
_atom_site_fract_x
_atom_site_fract_y
_atom_site_fract_z
C1 C 0.2708(10) 0.8810(9) 0.4087(2)
H1 H 0.2451 1.0497 0.4210
O1 O 0.3142(7) 0.9100(5) 0.26934(14)
O2 O 0.0709(7) 1.2405(5) 0.30958(16)
C3 C 0.1527(9) 1.0141(7) 0.3079(2)
C4 C 0.0648(10) 0.8645(8) 0.3593(2)
H5 H 0.0877 0.6950 0.3477
C5 C -0.2388(9) 0.9461(8) 0.3794(2)
H6 H -0.2979 1.1103 0.3863
C14 C 0.2028(12) 0.7215(12) 0.4608(3)
H13 H 0.2404 0.5541 0.4502
H14 H 0.0073 0.7658 0.4738
H15 H 0.3188 0.7467 0.4904
C15 C 0.5736(9) 0.8040(9) 0.3878(2)
H16 H 0.6334 0.6405 0.3802
C15_2 C -0.4264(9) 0.8040(9) 0.3878(2)
C5_2 C 0.7612(9) 0.9461(8) 0.3794(2)
C1_2 C -0.7292(10) 0.8810(9) 0.4087(2)
H16_2 H -0.3666 0.6405 0.3802
C4_2 C 1.0648(10) 0.8645(8) 0.3593(2)
H6_2 H 0.7021 1.1103 0.3863
H1_2 H -0.7549 1.0497 0.4210
C4_3 C -0.9352(10) 0.8645(8) 0.3593(2)
C14_2 C -0.7972(12) 0.7215(12) 0.4608(3)
C1_3 C 1.2708(10) 0.8810(9) 0.4087(2)
C3_2 C 1.1527(9) 1.0141(7) 0.3079(2)
H5_2 H 1.0877 0.6950 0.3477
H5_3 H -0.9123 0.6950 0.3477
H13_2 H -0.7596 0.5541 0.4502
H14_2 H -0.9927 0.7658 0.4738
H15_2 H -0.6812 0.7467 0.4904
H1_3 H 1.2451 1.0497 0.4210
O1_2 O 1.3142(7) 0.9100(5) 0.26934(14)
O2_2 O 1.0709(7) 1.2405(5) 0.30958(16)
N1 N 0.5398(8) 0.4220(6) 0.26202(17)
H2 H 0.6957 0.3885 0.2804
H3 H 0.4053 0.3502 0.2793
H4 H 0.4816 0.5813 0.2616
C2 C 0.7987(9) 0.4602(7) 0.1671(2)
C6 C 0.6007(10) 0.3325(8) 0.2035(2)
H7 H 0.4237 0.3471 0.1860
H8 H 0.6807 0.1618 0.2048
C7 C 0.9070(9) 0.6568(8) 0.1850(2)
H9 H 0.8613 0.7118 0.2217
C8 C 1.0815(10) 0.7728(8) 0.1492(2)
H10 H 1.1535 0.9036 0.1622
C9 C 1.1500(9) 0.6948(8) 0.0941(2)
C10 C 0.8751(11) 0.3780(8) 0.1123(2)
H11 H 0.8059 0.2447 0.0999
C11 C 1.4314(11) 0.9354(8) 0.0195(2)
C12 C 1.3133(11) 0.8213(9) 0.0537(2)
C13 C 1.0506(11) 0.4891(9) 0.0759(2)
H12 H 1.1028 0.4290 0.0397
C11A C 1.5686(11) 1.0646(8) -0.0195(2)
C12A C 1.6867(11) 1.1787(9) -0.0537(2)
C9A C 1.8500(9) 1.3052(8) -0.0941(2)
C8A C 1.9185(10) 1.2272(8) -0.1492(2)
C13A C 1.9494(11) 1.5109(9) -0.0759(2)
C7A C 2.0930(9) 1.3432(8) -0.1850(2)
H10A H 1.8465 1.0964 -0.1622
C10A C 2.1249(11) 1.6220(8) -0.1123(2)
H12A H 1.8972 1.5710 -0.0397
C2A C 2.2013(9) 1.5398(7) -0.1671(2)
H9A H 2.1387 1.2882 -0.2217
H11A H 2.1941 1.7553 -0.0999
C6A C 2.3993(10) 1.6675(8) -0.2035(2)
N1A N 2.4602(8) 1.5780(6) -0.26202(17)
H7A H 2.5763 1.6529 -0.1860
H8A H 2.3193 1.8382 -0.2048
H2A H 2.3043 1.6115 -0.2804
H3A H 2.5947 1.6498 -0.2793
H4A H 2.5184 1.4187 -0.2616
loop_
_geom_bond_atom_site_label_1
_geom_bond_atom_site_label_2
_geom_bond_site_symmetry_1
_geom_bond_site_symmetry_2
C1 H1 1_555 1_555
O1 C3 1_555 1_555
O2 C3 1_555 1_555
N1 H2 1_555 1_555
H3 N1 1_555 1_555
H4 N1 1_555 1_555
C2 C6 1_555 1_555
C3 C4 1_555 1_555
C4 C1 1_555 1_555
H5 C4 1_555 1_555
C5 C4 1_555 1_555
H6 C5 1_555 1_555
C6 N1 1_555 1_555
H7 C6 1_555 1_555
H8 C6 1_555 1_555
C7 C2 1_555 1_555
H9 C7 1_555 1_555
C8 C7 1_555 1_555
H10 C8 1_555 1_555
C9 C8 1_555 1_555
C10 C2 1_555 1_555
H11 C10 1_555 1_555
C11 C12 1_555 1_555
C12 C9 1_555 1_555
C13 C9 1_555 1_555
H12 C13 1_555 1_555
C14 C1 1_555 1_555
H13 C14 1_555 1_555
H14 C14 1_555 1_555
H15 C14 1_555 1_555
C15 C1 1_555 1_555
H16 C15 1_555 1_555
C15_2 C5 1_555 1_555
C11A C11 1_555 1_555
C5_2 C15 1_555 1_555
C1_2 C15_2 1_555 1_555
H16_2 C15_2 1_555 1_555
C12A C11A 1_555 1_555
C4_2 C5_2 1_555 1_555
H6_2 C5_2 1_555 1_555
H1_2 C1_2 1_555 1_555
C4_3 C1_2 1_555 1_555
C14_2 C1_2 1_555 1_555
C9A C12A 1_555 1_555
C1_3 C4_2 1_555 1_555
C3_2 C4_2 1_555 1_555
H5_2 C4_2 1_555 1_555
H5_3 C4_3 1_555 1_555
H13_2 C14_2 1_555 1_555
H14_2 C14_2 1_555 1_555
H15_2 C14_2 1_555 1_555
C8A C9A 1_555 1_555
C13A C9A 1_555 1_555
H1_3 C1_3 1_555 1_555
O1_2 C3_2 1_555 1_555
O2_2 C3_2 1_555 1_555
C7A C8A 1_555 1_555
H10A C8A 1_555 1_555
C10A C13A 1_555 1_555
H12A C13A 1_555 1_555
C2A C7A 1_555 1_555
H9A C7A 1_555 1_555
H11A C10A 1_555 1_555
C6A C2A 1_555 1_555
N1A C6A 1_555 1_555
H7A C6A 1_555 1_555
H8A C6A 1_555 1_555
H2A N1A 1_555 1_555
H3A N1A 1_555 1_555
H4A N1A 1_555 1_555
C10 C13 1_555 1_555
C10A C2A 1_555 1_555

#END
