
#######################################################################
#
#                 Cambridge Crystallographic Data Centre
#                                CCDC 
#
#######################################################################
#
# If this CIF has been generated from an entry in the Cambridge 
# Structural Database, then it will include bibliographic, chemical, 
# crystal, experimental, refinement or atomic coordinate data resulting 
# from the CCDC's data processing and validation procedures.
#
#######################################################################

data_MAFQOC
_chemical_formula_moiety         'C12 H14 N1 O1 P1 S2'
_chemical_name_systematic        
"N-butyl-4H-thieno[2',3':4,5]phospholo[3,2-b]thiophen-4-amine 4-oxide"
_symmetry_cell_setting           triclinic
_symmetry_space_group_name_H-M   'P -1'
_symmetry_Int_Tables_number      2
_space_group_name_Hall           '-P 1'
loop_
_symmetry_equiv_pos_site_id
_symmetry_equiv_pos_as_xyz
1 x,y,z
2 -x,-y,-z
_cell_length_a                   7.43010(10)
_cell_length_b                   14.1613(3)
_cell_length_c                   25.5011(5)
_cell_angle_alpha                100.3860(10)
_cell_angle_beta                 97.0560(10)
_cell_angle_gamma                90.1810(10)
_cell_volume                     2618.39
_exptl_crystal_colour            yellow
_exptl_crystal_description       block
_cell_formula_units_Z            8
_exptl_crystal_preparation       Luminescent
loop_
_atom_site_label
_atom_site_type_symbol
_atom_site_fract_x
_atom_site_fract_y
_atom_site_fract_z
N1 N 0.8242(4) 0.1746(2) 0.01743(11)
H1 H 0.9057 0.2219 0.0256
C1 C 0.7004(4) 0.0804(2) 0.09279(12)
C2 C 0.6927(4) -0.0221(2) 0.08495(14)
H2 H 0.6584 -0.0629 0.0513
C3 C 0.7667(5) 0.0402(2) -0.12818(13)
H3 H 0.8803 0.0040 -0.1258
H4 H 0.6665 -0.0028 -0.1238
C4 C 0.7409(4) -0.0538(2) 0.13192(13)
H5 H 0.7448 -0.1197 0.1347
C5 C 0.8385(5) 0.0967(2) -0.02842(13)
H6 H 0.7607 0.0415 -0.0254
H7 H 0.9654 0.0752 -0.0270
C6 C 0.7612(4) 0.2270(2) 0.15531(12)
C7 C 0.7538(4) 0.1224(2) 0.14534(13)
C8 C 0.7785(4) 0.4031(2) 0.17445(13)
H8 H 0.7938 0.4696 0.1894
C9 C 0.7124(4) 0.2672(2) 0.11055(13)
C10 C 0.7825(5) 0.1267(2) -0.08212(13)
H9 H 0.8734 0.1735 -0.0883
H10 H 0.6643 0.1587 -0.0814
C11 C 0.7202(4) 0.3689(2) 0.12198(13)
H11 H 0.6884 0.4083 0.0960
C12 C 0.7320(5) 0.0672(3) -0.18361(14)
H12 H 0.6185 0.1020 -0.1866
H13 H 0.7226 0.0088 -0.2111
H14 H 0.8324 0.1081 -0.1888
O1 O 0.4727(3) 0.16932(17) 0.02321(9)
P1 P 0.65719(12) 0.17310(6) 0.05302(3)
S1 S 0.82174(11) 0.31289(6) 0.21091(3)
S2 S 0.79387(12) 0.03839(6) 0.18577(3)
N2 N 0.7775(4) 0.1521(2) 0.48348(11)
H15 H 0.8497 0.1953 0.4755
C13 C 0.6148(4) 0.0248(2) 0.35035(12)
C14 C 0.5921(4) 0.2925(2) 0.33247(13)
H16 H 0.5902 0.3518 0.3199
C15 C 0.6255(4) -0.0898(2) 0.40520(14)
H17 H 0.6255 -0.1143 0.4375
C16 C 0.5812(4) 0.2857(2) 0.38436(13)
H18 H 0.5707 0.3390 0.4123
C17 C 0.8660(5) 0.1293(3) 0.63232(13)
H19 H 0.7674 0.0815 0.6310
H20 H 0.9812 0.0946 0.6309
C18 C 0.6099(4) 0.0096(2) 0.40194(12)
C19 C 0.5876(4) 0.1883(2) 0.39164(12)
C20 C 0.8329(5) 0.1081(2) 0.53105(13)
H21 H 0.9567 0.0831 0.5291
H22 H 0.7498 0.0531 0.5306
C21 C 0.8310(5) 0.1779(2) 0.58274(13)
H23 H 0.7117 0.2088 0.5827
H24 H 0.9250 0.2287 0.5852
C22 C 0.6402(5) -0.1447(3) 0.35684(14)
H25 H 0.6518 -0.2124 0.3515
C23 C 0.6023(4) 0.1250(2) 0.34476(12)
C24 C 0.8769(6) 0.2000(3) 0.68516(15)
H26 H 0.9789 0.2454 0.6878
H27 H 0.8951 0.1649 0.7151
H28 H 0.7638 0.2352 0.6867
O2 O 0.4227(3) 0.12704(17) 0.47373(9)
P2 P 0.58665(12) 0.12248(6) 0.44574(3)
S3 S 0.60975(12) 0.18299(6) 0.29166(3)
S4 S 0.63579(12) -0.07924(6) 0.30588(3)
N3 N 1.2830(4) 0.3217(2) 0.48145(10)
H29 H 1.3513 0.2718 0.4735
C25 C 1.1004(4) 0.2702(2) 0.34362(12)
C26 C 1.1086(4) 0.4193(2) 0.40540(13)
C27 C 1.3458(5) 0.3986(2) 0.52696(13)
H30 H 1.2711 0.4557 0.5242
H31 H 1.4728 0.4167 0.5244
C28 C 1.1188(4) 0.5207(2) 0.41260(13)
H32 H 1.1185 0.5624 0.4462
C29 C 1.0871(4) 0.2321(2) 0.38902(12)
C30 C 1.1109(4) 0.3757(2) 0.35286(12)
C31 C 1.1290(4) 0.5507(2) 0.36521(14)
H33 H 1.1369 0.6164 0.3621
C32 C 1.3365(4) 0.3718(2) 0.58110(13)
H34 H 1.4266 0.3220 0.5866
H35 H 1.2147 0.3439 0.5818
C33 C 1.0913(4) 0.0946(2) 0.32615(13)
H36 H 1.0889 0.0279 0.3117
C34 C 1.3733(5) 0.4574(2) 0.62695(13)
H37 H 1.2773 0.5048 0.6229
H38 H 1.4905 0.4885 0.6243
C35 C 1.0813(4) 0.1305(2) 0.37865(13)
H39 H 1.0715 0.0922 0.4052
C36 C 1.3798(5) 0.4306(3) 0.68283(14)
H40 H 1.2628 0.4017 0.6863
H41 H 1.4050 0.4884 0.7104
H42 H 1.4758 0.3844 0.6874
O3 O 0.9267(3) 0.33780(16) 0.47528(9)
P3 P 1.08839(12) 0.32812(6) 0.44591(3)
S5 S 1.10861(11) 0.18266(6) 0.28863(3)
S6 S 1.12630(12) 0.45731(6) 0.31171(3)
N4 N 1.3143(4) 0.3549(2) 0.01595(11)
H43 H 1.4003 0.3161 0.0250
C37 C 1.2485(4) 0.4773(2) 0.14900(13)
C38 C 1.1984(4) 0.4928(2) 0.09742(13)
C39 C 1.2080(4) 0.3131(2) 0.10712(13)
C40 C 1.2570(4) 0.3768(2) 0.15361(12)
C41 C 1.2814(4) 0.2096(2) 0.16552(13)
H44 H 1.2991 0.1503 0.1777
C42 C 1.3212(5) 0.3968(2) -0.03247(13)
H45 H 1.4432 0.4262 -0.0310
H46 H 1.2318 0.4485 -0.0327
C43 C 1.2732(5) 0.3704(2) -0.13345(13)
H47 H 1.3867 0.4083 -0.1318
H48 H 1.1713 0.4153 -0.1333
C44 C 1.2819(4) 0.3244(2) -0.08389(12)
H49 H 1.1647 0.2908 -0.0840
H50 H 1.3777 0.2759 -0.0853
C45 C 1.2206(5) 0.2164(2) 0.11404(13)
H51 H 1.1902 0.1627 0.0860
C46 C 1.2353(5) 0.6479(3) 0.14373(14)
H52 H 1.2391 0.7161 0.1497
C47 C 1.2477(6) 0.2971(3) -0.18614(14)
H53 H 1.3516 0.2547 -0.1875
H54 H 1.2390 0.3310 -0.2166
H55 H 1.1362 0.2589 -0.1880
C48 C 1.1909(4) 0.5923(2) 0.09500(14)
H56 H 1.1585 0.6167 0.0629
O4 O 0.9655(3) 0.36807(17) 0.02412(9)
P4 P 1.15232(12) 0.37819(6) 0.05300(3)
S7 S 1.32290(11) 0.31990(6) 0.20631(3)
S8 S 1.28422(13) 0.58209(6) 0.19405(3)
loop_
_geom_bond_atom_site_label_1
_geom_bond_atom_site_label_2
_geom_bond_site_symmetry_1
_geom_bond_site_symmetry_2
N1 H1 1_555 1_555
C1 C2 1_555 1_555
C2 H2 1_555 1_555
C3 H3 1_555 1_555
H4 C3 1_555 1_555
C4 C2 1_555 1_555
H5 C4 1_555 1_555
C5 N1 1_555 1_555
H6 C5 1_555 1_555
H7 C5 1_555 1_555
C6 C7 1_555 1_555
C7 C1 1_555 1_555
C8 H8 1_555 1_555
C9 C6 1_555 1_555
C10 C3 1_555 1_555
H9 C10 1_555 1_555
H10 C10 1_555 1_555
C11 C8 1_555 1_555
H11 C11 1_555 1_555
C12 C3 1_555 1_555
H12 C12 1_555 1_555
H13 C12 1_555 1_555
H14 C12 1_555 1_555
O1 P1 1_555 1_555
P1 N1 1_555 1_555
S1 C6 1_555 1_555
S2 C4 1_555 1_555
N2 H15 1_555 1_555
C13 C18 1_555 1_555
C14 H16 1_555 1_555
C15 H17 1_555 1_555
C16 C14 1_555 1_555
H18 C16 1_555 1_555
C17 H19 1_555 1_555
H20 C17 1_555 1_555
C18 C15 1_555 1_555
C19 C16 1_555 1_555
C20 N2 1_555 1_555
H21 C20 1_555 1_555
H22 C20 1_555 1_555
C21 C17 1_555 1_555
H23 C21 1_555 1_555
H24 C21 1_555 1_555
C22 C15 1_555 1_555
H25 C22 1_555 1_555
C23 C13 1_555 1_555
C24 C17 1_555 1_555
H26 C24 1_555 1_555
H27 C24 1_555 1_555
H28 C24 1_555 1_555
O2 P2 1_555 1_555
P2 N2 1_555 1_555
S3 C14 1_555 1_555
S4 C13 1_555 1_555
N3 H29 1_555 1_555
C25 C29 1_555 1_555
C26 C28 1_555 1_555
C27 N3 1_555 1_555
H30 C27 1_555 1_555
H31 C27 1_555 1_555
C28 H32 1_555 1_555
C29 C35 1_555 1_555
C30 C25 1_555 1_555
C31 C28 1_555 1_555
H33 C31 1_555 1_555
C32 C27 1_555 1_555
H34 C32 1_555 1_555
H35 C32 1_555 1_555
C33 H36 1_555 1_555
C34 C32 1_555 1_555
H37 C34 1_555 1_555
H38 C34 1_555 1_555
C35 C33 1_555 1_555
H39 C35 1_555 1_555
C36 C34 1_555 1_555
H40 C36 1_555 1_555
H41 C36 1_555 1_555
H42 C36 1_555 1_555
O3 P3 1_555 1_555
P3 N3 1_555 1_555
S5 C25 1_555 1_555
S6 C30 1_555 1_555
N4 H43 1_555 1_555
C37 C38 1_555 1_555
C38 C48 1_555 1_555
C39 C40 1_555 1_555
C40 C37 1_555 1_555
C41 H44 1_555 1_555
C42 N4 1_555 1_555
H45 C42 1_555 1_555
H46 C42 1_555 1_555
C43 H47 1_555 1_555
H48 C43 1_555 1_555
C44 C42 1_555 1_555
H49 C44 1_555 1_555
H50 C44 1_555 1_555
C45 C39 1_555 1_555
H51 C45 1_555 1_555
C46 H52 1_555 1_555
C47 C43 1_555 1_555
H53 C47 1_555 1_555
H54 C47 1_555 1_555
H55 C47 1_555 1_555
C48 C46 1_555 1_555
H56 C48 1_555 1_555
O4 P4 1_555 1_555
P4 N4 1_555 1_555
S7 C40 1_555 1_555
S8 C37 1_555 1_555
C1 P1 1_555 1_555
C5 C10 1_555 1_555
C7 S2 1_555 1_555
C8 S1 1_555 1_555
C9 C11 1_555 1_555
C9 P1 1_555 1_555
C18 P2 1_555 1_555
C19 C23 1_555 1_555
C19 P2 1_555 1_555
C20 C21 1_555 1_555
C22 S4 1_555 1_555
C23 S3 1_555 1_555
C26 C30 1_555 1_555
C26 P3 1_555 1_555
C29 P3 1_555 1_555
C31 S6 1_555 1_555
C33 S5 1_555 1_555
C38 P4 1_555 1_555
C39 P4 1_555 1_555
C41 C45 1_555 1_555
C41 S7 1_555 1_555
C43 C44 1_555 1_555
C46 S8 1_555 1_555

#END
