
#######################################################################
#
#                 Cambridge Crystallographic Data Centre
#                                CCDC 
#
#######################################################################
#
# If this CIF has been generated from an entry in the Cambridge 
# Structural Database, then it will include bibliographic, chemical, 
# crystal, experimental, refinement or atomic coordinate data resulting 
# from the CCDC's data processing and validation procedures.
#
#######################################################################

data_MAFTOD
_chemical_formula_moiety         'C36 H58 N2 O2'
_chemical_name_systematic        
(R,R)-1,2-bis(3,5-di-t-butyl-2-hdroxybenzylamino)cyclohexane
_symmetry_cell_setting           orthorhombic
_symmetry_space_group_name_H-M   'P 21 21 21'
_symmetry_Int_Tables_number      19
_space_group_name_Hall           'P 2ac 2ab'
loop_
_symmetry_equiv_pos_site_id
_symmetry_equiv_pos_as_xyz
1 x,y,z
2 1/2+x,1/2-y,-z
3 -x,1/2+y,1/2-z
4 1/2-x,-y,1/2+z
_cell_length_a                   12.27910(10)
_cell_length_b                   13.9327(2)
_cell_length_c                   20.5380(3)
_cell_angle_alpha                90
_cell_angle_beta                 90
_cell_angle_gamma                90
_cell_volume                     3513.66
_exptl_crystal_colour            colorless
_exptl_crystal_description       prism
_cell_formula_units_Z            4
_exptl_crystal_recrystallization_method pentane
loop_
_atom_site_label
_atom_site_type_symbol
_atom_site_fract_x
_atom_site_fract_y
_atom_site_fract_z
C1 C 0.53010(18) 0.21350(16) 0.89136(11)
H1 H 0.5834 0.1928 0.9254
C2 C 0.41894(18) 0.16925(16) 0.91077(11)
H2 H 0.3656 0.1847 0.8755
C3 C 0.4302(2) 0.05974(17) 0.91401(13)
H3 H 0.4817 0.0424 0.9492
H4 H 0.3586 0.0310 0.9246
C4 C 0.4710(2) 0.01884(18) 0.84947(14)
H5 H 0.4795 -0.0516 0.8535
H6 H 0.4166 0.0317 0.8150
C5 C 0.5790(2) 0.06281(19) 0.83022(15)
H7 H 0.6013 0.0378 0.7871
H8 H 0.6354 0.0443 0.8623
C6 C 0.5706(2) 0.17188(18) 0.82723(13)
H9 H 0.6430 0.1992 0.8170
H10 H 0.5200 0.1903 0.7919
N1 N 0.53335(15) 0.31937(13) 0.89024(9)
H11 H 0.513(2) 0.343(2) 0.9301(15)
C7 C 0.45941(18) 0.36771(16) 0.84384(11)
H12 H 0.3833 0.3478 0.8524
H13 H 0.4783 0.3488 0.7988
C8 C 0.46963(18) 0.47545(16) 0.85119(11)
C9 C 0.57309(18) 0.51720(17) 0.84948(12)
O1 O 0.66351(14) 0.45905(13) 0.84495(10)
H14 H 0.641(3) 0.406(3) 0.8583(18)
C10 C 0.5857(2) 0.61698(18) 0.85235(13)
C11 C 0.6997(2) 0.6632(2) 0.85164(17)
C12 C 0.7639(3) 0.6297(3) 0.9116(2)
H15 H 0.8346 0.6623 0.9128
H16 H 0.7754 0.5602 0.9092
H17 H 0.7229 0.6452 0.9512
C13 C 0.6925(3) 0.7742(2) 0.8545(2)
H18 H 0.6545 0.7979 0.8157
H19 H 0.7661 0.8013 0.8559
H20 H 0.6524 0.7935 0.8936
C14 C 0.7611(3) 0.6355(3) 0.7889(2)
H21 H 0.7207 0.6590 0.7509
H22 H 0.7677 0.5655 0.7864
H23 H 0.8339 0.6643 0.7894
C15 C 0.4904(2) 0.67100(18) 0.85753(13)
H24 H 0.4972 0.7389 0.8594
C16 C 0.3854(2) 0.63217(17) 0.86017(12)
C17 C 0.2822(3) 0.6928(2) 0.86719(16)
C18 C 0.2284(3) 0.6702(3) 0.93459(19)
H25 H 0.1556 0.6989 0.9362
H26 H 0.2734 0.6970 0.9695
H27 H 0.2226 0.6005 0.9402
C19 C 0.3030(4) 0.7974(3) 0.8579(4)
H28 H 0.3358 0.8080 0.8150
H29 H 0.3529 0.8202 0.8918
H30 H 0.2341 0.8326 0.8608
C20 C 0.1964(3) 0.6608(3) 0.81552(19)
H31 H 0.2265 0.6696 0.7717
H32 H 0.1304 0.6997 0.8202
H33 H 0.1783 0.5930 0.8221
C21 C 0.37845(19) 0.53248(17) 0.85741(11)
H34 H 0.3089 0.5029 0.8599
N2 N 0.38147(16) 0.21679(14) 0.97087(9)
H35 H 0.429(3) 0.224(2) 0.9987(15)
C22 C 0.28752(18) 0.17306(19) 1.00479(11)
H36 H 0.2738 0.2083 1.0458
H37 H 0.3052 0.1057 1.0161
C23 C 0.18592(18) 0.17497(17) 0.96354(10)
C24 C 0.15649(17) 0.25861(15) 0.93030(10)
O2 O 0.22257(13) 0.33785(12) 0.93449(8)
H38 H 0.298(3) 0.316(2) 0.9523(17)
C25 C 0.06005(17) 0.26300(16) 0.89277(10)
C26 C 0.03096(18) 0.35244(17) 0.85307(11)
C27 C 0.0207(2) 0.44165(17) 0.89694(12)
H39 H 0.0894 0.4520 0.9202
H40 H -0.0381 0.4318 0.9285
H41 H 0.0044 0.4980 0.8701
C28 C 0.1198(2) 0.3688(2) 0.80122(11)
H42 H 0.1207 0.3146 0.7708
H43 H 0.1910 0.3742 0.8226
H44 H 0.1043 0.4282 0.7773
C29 C -0.0788(2) 0.3415(2) 0.81715(14)
H45 H -0.1365 0.3279 0.8488
H46 H -0.0739 0.2886 0.7859
H47 H -0.0957 0.4012 0.7940
C30 C -0.00365(18) 0.17990(17) 0.89171(11)
H48 H -0.0695 0.1812 0.8674
C31 C 0.02366(19) 0.09449(16) 0.92438(11)
C32 C -0.0493(2) 0.00585(18) 0.91872(13)
C33 C -0.0033(3) -0.0807(2) 0.95782(18)
H49 H 0.0673 -0.0996 0.9396
H50 H -0.0542 -0.1347 0.9549
H51 H 0.0059 -0.0622 1.0035
C34 C -0.1609(3) 0.0269(2) 0.94956(19)
H52 H -0.2102 -0.0270 0.9414
H53 H -0.1914 0.0855 0.9304
H54 H -0.1522 0.0358 0.9966
C35 C -0.0604(5) -0.0212(4) 0.84838(18)
H55 H 0.0118 -0.0337 0.8300
H56 H -0.0950 0.0316 0.8245
H57 H -0.1054 -0.0790 0.8446
C36 C 0.11961(19) 0.09420(16) 0.96003(11)
H58 H 0.1405 0.0376 0.9826
loop_
_geom_bond_atom_site_label_1
_geom_bond_atom_site_label_2
_geom_bond_site_symmetry_1
_geom_bond_site_symmetry_2
C1 H1 1_555 1_555
C2 C1 1_555 1_555
H2 C2 1_555 1_555
C3 C2 1_555 1_555
H3 C3 1_555 1_555
H4 C3 1_555 1_555
C4 C3 1_555 1_555
H5 C4 1_555 1_555
H6 C4 1_555 1_555
C5 C4 1_555 1_555
H7 C5 1_555 1_555
H8 C5 1_555 1_555
C6 C1 1_555 1_555
H9 C6 1_555 1_555
H10 C6 1_555 1_555
N1 C1 1_555 1_555
H11 N1 1_555 1_555
C7 N1 1_555 1_555
H12 C7 1_555 1_555
H13 C7 1_555 1_555
C8 C7 1_555 1_555
C9 C8 1_555 1_555
O1 C9 1_555 1_555
H14 O1 1_555 1_555
C10 C9 1_555 1_555
C11 C10 1_555 1_555
C12 C11 1_555 1_555
H15 C12 1_555 1_555
H16 C12 1_555 1_555
H17 C12 1_555 1_555
C13 C11 1_555 1_555
H18 C13 1_555 1_555
H19 C13 1_555 1_555
H20 C13 1_555 1_555
C14 C11 1_555 1_555
H21 C14 1_555 1_555
H22 C14 1_555 1_555
H23 C14 1_555 1_555
C15 C10 1_555 1_555
H24 C15 1_555 1_555
C16 C15 1_555 1_555
C17 C16 1_555 1_555
C18 C17 1_555 1_555
H25 C18 1_555 1_555
H26 C18 1_555 1_555
H27 C18 1_555 1_555
C19 C17 1_555 1_555
H28 C19 1_555 1_555
H29 C19 1_555 1_555
H30 C19 1_555 1_555
C20 C17 1_555 1_555
H31 C20 1_555 1_555
H32 C20 1_555 1_555
H33 C20 1_555 1_555
C21 C8 1_555 1_555
H34 C21 1_555 1_555
N2 C2 1_555 1_555
H35 N2 1_555 1_555
C22 N2 1_555 1_555
H36 C22 1_555 1_555
H37 C22 1_555 1_555
C23 C22 1_555 1_555
C24 C23 1_555 1_555
O2 C24 1_555 1_555
H38 O2 1_555 1_555
C25 C24 1_555 1_555
C26 C25 1_555 1_555
C27 C26 1_555 1_555
H39 C27 1_555 1_555
H40 C27 1_555 1_555
H41 C27 1_555 1_555
C28 C26 1_555 1_555
H42 C28 1_555 1_555
H43 C28 1_555 1_555
H44 C28 1_555 1_555
C29 C26 1_555 1_555
H45 C29 1_555 1_555
H46 C29 1_555 1_555
H47 C29 1_555 1_555
C30 C25 1_555 1_555
H48 C30 1_555 1_555
C31 C30 1_555 1_555
C32 C31 1_555 1_555
C33 C32 1_555 1_555
H49 C33 1_555 1_555
H50 C33 1_555 1_555
H51 C33 1_555 1_555
C34 C32 1_555 1_555
H52 C34 1_555 1_555
H53 C34 1_555 1_555
H54 C34 1_555 1_555
C35 C32 1_555 1_555
H55 C35 1_555 1_555
H56 C35 1_555 1_555
H57 C35 1_555 1_555
C36 C23 1_555 1_555
H58 C36 1_555 1_555
C5 C6 1_555 1_555
C16 C21 1_555 1_555
C31 C36 1_555 1_555

#END
