
#######################################################################
#
#                 Cambridge Crystallographic Data Centre
#                                CCDC 
#
#######################################################################
#
# If this CIF has been generated from an entry in the Cambridge 
# Structural Database, then it will include bibliographic, chemical, 
# crystal, experimental, refinement or atomic coordinate data resulting 
# from the CCDC's data processing and validation procedures.
#
#######################################################################

data_MAFXOI
_chemical_formula_moiety         
'C19 H15 N4 1+,C12 H4 N4 1-,0.5(C12 H4 N4),C2 H3 N1'
_chemical_name_systematic        
'1,3-bis(4-cyanobenzyl)imidazolium sesquikis(7,7,8,8-tetracyanoquinodimethanide) acetonitrile solvate'
_symmetry_cell_setting           monoclinic
_symmetry_space_group_name_H-M   'P 21/c'
_symmetry_Int_Tables_number      14
_space_group_name_Hall           '-P 2ybc'
loop_
_symmetry_equiv_pos_site_id
_symmetry_equiv_pos_as_xyz
1 x,y,z
2 -x,1/2+y,1/2-z
3 -x,-y,-z
4 x,1/2-y,1/2+z
_cell_length_a                   10.1823(17)
_cell_length_b                   20.292(3)
_cell_length_c                   16.952(3)
_cell_angle_alpha                90
_cell_angle_beta                 104.728(3)
_cell_angle_gamma                90
_cell_volume                     3387.53
_exptl_crystal_colour            black
_exptl_crystal_description       pillar
_cell_formula_units_Z            4
loop_
_atom_site_label
_atom_site_type_symbol
_atom_site_fract_x
_atom_site_fract_y
_atom_site_fract_z
C1 C 0.9085(3) 1.12953(17) 0.57028(18)
C2 C 0.9903(3) 1.05077(14) 0.6787(2)
C3 C 0.9244(3) 1.06250(15) 0.59529(18)
C4 C 0.8736(2) 1.01121(14) 0.54121(17)
C5 C 0.8036(2) 1.02351(14) 0.45879(17)
H1 H 0.7919 1.0668 0.4404
C6 C 0.7536(2) 0.97429(14) 0.40632(16)
H2 H 0.7086 0.9843 0.3527
C7 C 0.7685(2) 0.90736(14) 0.43165(17)
C8 C 0.8393(2) 0.89476(14) 0.51423(17)
H3 H 0.8506 0.8515 0.5327
C9 C 0.8904(2) 0.94417(14) 0.56630(16)
H4 H 0.9374 0.9342 0.6195
C10 C 0.6522(3) 0.86742(14) 0.29363(19)
C11 C 0.7150(3) 0.85600(15) 0.37816(18)
C12 C 0.7247(3) 0.78883(17) 0.40382(19)
N1 N 0.8965(3) 1.18326(14) 0.54997(16)
N2 N 1.0441(3) 1.04090(13) 0.74529(16)
N3 N 0.7314(3) 0.73547(14) 0.42584(17)
N4 N 0.6043(3) 0.87697(13) 0.22632(16)
C13 C 0.5661(3) 0.18180(18) 0.5330(2)
C14 C 0.5869(3) 0.12148(15) 0.57698(18)
C15 C 0.6593(3) 0.12464(14) 0.66069(19)
C16 C 0.4722(2) 0.05775(15) 0.45552(17)
H5 H 0.4532 0.0965 0.4255
C17 C 0.5436(2) 0.06121(14) 0.53887(17)
C18 C 0.5693(2) 0.00056(16) 0.58175(16)
H6 H 0.6157 0.0008 0.6366
N5 N 0.5504(3) 0.22917(14) 0.49614(19)
N6 N 0.7176(2) 0.12749(12) 0.72716(16)
C13B C 0.4339(3) -0.18180(18) 0.4670(2)
C14B C 0.4131(3) -0.12148(15) 0.42302(18)
C15B C 0.3407(3) -0.12464(14) 0.33931(19)
C16B C 0.5278(2) -0.05775(15) 0.54448(17)
H5B H 0.5468 -0.0965 0.5745
C17B C 0.4564(2) -0.06121(14) 0.46113(17)
C18B C 0.4307(2) -0.00056(16) 0.41825(16)
H6B H 0.3843 -0.0008 0.3634
N5B N 0.4496(3) -0.22917(14) 0.50386(19)
N6B N 0.2824(2) -0.12749(12) 0.27284(16)
C19 C 1.1050(3) 0.38301(19) 0.6610(2)
C20 C 1.1144(3) 0.32855(16) 0.7170(2)
C21 C 1.0137(3) 0.28191(16) 0.7033(2)
H7 H 0.9397 0.2854 0.6582
C22 C 1.0226(3) 0.22976(16) 0.75680(19)
H8 H 0.9535 0.1985 0.7475
C23 C 1.1319(3) 0.22317(14) 0.82371(18)
C24 C 1.2321(3) 0.27004(17) 0.83690(19)
H9 H 1.3062 0.2667 0.8819
C25 C 1.2233(3) 0.32242(17) 0.7834(2)
H10 H 1.2921 0.3538 0.7927
C26 C 1.1426(3) 0.16588(14) 0.88125(17)
H11 H 1.1644 0.1263 0.8550
H12 H 1.2160 0.1739 0.9294
C27 C 0.9387(3) 0.10213(15) 0.89318(15)
H13 H 0.9569 0.0637 0.8679
C28 C 0.9543(3) 0.20150(14) 0.94357(18)
H14 H 0.9865 0.2437 0.9590
C29 C 0.8393(3) 0.17474(15) 0.95420(17)
H15 H 0.7772 0.1947 0.9784
C30 C 0.7159(3) 0.06684(14) 0.91315(17)
H16 H 0.7445 0.0226 0.9037
H17 H 0.6442 0.0798 0.8661
C31 C 0.6621(3) 0.06711(14) 0.98802(18)
C32 C 0.7356(3) 0.04018(14) 1.0598(2)
H18 H 0.8205 0.0220 1.0625
C33 C 0.6854(3) 0.03964(15) 1.12783(19)
H19 H 0.7360 0.0210 1.1762
C34 C 0.5610(3) 0.06648(14) 1.12421(18)
C35 C 0.4860(3) 0.09456(14) 1.05334(19)
H20 H 0.4018 0.1134 1.0510
C36 C 0.5381(3) 0.09437(14) 0.98546(18)
H21 H 0.4879 0.1131 0.9371
C37 C 0.5047(3) 0.06513(16) 1.1940(2)
N7 N 1.0975(3) 0.42556(16) 0.6158(2)
N8 N 1.0156(2) 0.15541(12) 0.90582(13)
N9 N 0.8315(2) 0.11232(11) 0.92239(13)
N10 N 0.4588(3) 0.06462(15) 1.24844(18)
C38 C 0.6099(5) 0.2765(2) 0.7865(3)
H22 H 0.6415 0.2319 0.7952
H23 H 0.5595 0.2820 0.7308
H24 H 0.5522 0.2862 0.8219
C39 C 0.7247(6) 0.3209(3) 0.8042(3)
N11 N 0.8132(5) 0.3547(2) 0.8188(3)
loop_
_geom_bond_atom_site_label_1
_geom_bond_atom_site_label_2
_geom_bond_site_symmetry_1
_geom_bond_site_symmetry_2
C1 C3 1_555 1_555
C2 C3 1_555 1_555
C3 C4 1_555 1_555
C4 C5 1_555 1_555
C5 H1 1_555 1_555
C6 C5 1_555 1_555
H2 C6 1_555 1_555
C7 C6 1_555 1_555
C8 C7 1_555 1_555
H3 C8 1_555 1_555
C9 C4 1_555 1_555
H4 C9 1_555 1_555
C10 C11 1_555 1_555
C11 C7 1_555 1_555
C12 C11 1_555 1_555
C13 C14 1_555 1_555
C14 C15 1_555 1_555
C15 N6 1_555 1_555
C16 H5 1_555 1_555
C17 C14 1_555 1_555
C18 C17 1_555 1_555
H6 C18 1_555 1_555
C19 C20 1_555 1_555
C20 C21 1_555 1_555
C21 H7 1_555 1_555
C22 C21 1_555 1_555
H8 C22 1_555 1_555
C23 C22 1_555 1_555
C24 C23 1_555 1_555
H9 C24 1_555 1_555
C25 C20 1_555 1_555
H10 C25 1_555 1_555
C26 C23 1_555 1_555
H11 C26 1_555 1_555
H12 C26 1_555 1_555
C27 H13 1_555 1_555
C28 H14 1_555 1_555
C29 C28 1_555 1_555
H15 C29 1_555 1_555
C30 H16 1_555 1_555
H17 C30 1_555 1_555
C31 C30 1_555 1_555
C32 C31 1_555 1_555
H18 C32 1_555 1_555
C33 C32 1_555 1_555
H19 C33 1_555 1_555
C34 C33 1_555 1_555
C35 C34 1_555 1_555
H20 C35 1_555 1_555
C36 C31 1_555 1_555
H21 C36 1_555 1_555
C37 C34 1_555 1_555
C38 H22 1_555 1_555
H23 C38 1_555 1_555
H24 C38 1_555 1_555
C39 C38 1_555 1_555
N1 C1 1_555 1_555
N2 C2 1_555 1_555
N3 C12 1_555 1_555
N4 C10 1_555 1_555
N5 C13 1_555 1_555
N7 C19 1_555 1_555
N8 C26 1_555 1_555
N9 C27 1_555 1_555
N10 C37 1_555 1_555
N11 C39 1_555 1_555
C13B C14B 1_555 1_555
C14B C15B 1_555 1_555
C15B N6B 1_555 1_555
C16B C18 1_555 1_555
H5B C16B 1_555 1_555
C17B C14B 1_555 1_555
C18B C16 1_555 1_555
H6B C18B 1_555 1_555
N5B C13B 1_555 1_555
C8 C9 1_555 1_555
C16 C17 1_555 1_555
C24 C25 1_555 1_555
C27 N8 1_555 1_555
C28 N8 1_555 1_555
C29 N9 1_555 1_555
C30 N9 1_555 1_555
C35 C36 1_555 1_555
C16B C17B 1_555 1_555
C17B C18B 1_555 1_555

#END
