
#######################################################################
#
#                 Cambridge Crystallographic Data Centre
#                                CCDC 
#
#######################################################################
#
# If this CIF has been generated from an entry in the Cambridge 
# Structural Database, then it will include bibliographic, chemical, 
# crystal, experimental, refinement or atomic coordinate data resulting 
# from the CCDC's data processing and validation procedures.
#
#######################################################################

data_MAFXEZ
_chemical_name_common            
'10,15,20-tris(3,5-di-t-butylphenyl)-([1]benzoborinino[1,2-a][1]benzoborinine)[3,4,3a,4a-cdef]porphyrin chloroform solvate'
_chemical_formula_moiety         'C74 H79 B1 N4,C1 H1 Cl3'
_chemical_name_systematic        
'10,15,20-tris(3,5-di-t-butylphenyl)-3,5,7-(diphenylboranyl)porphyrin chloroform solvate'
_symmetry_cell_setting           monoclinic
_symmetry_space_group_name_H-M   'P 21/n'
_symmetry_Int_Tables_number      14
_space_group_name_Hall           '-P 2yn'
loop_
_symmetry_equiv_pos_site_id
_symmetry_equiv_pos_as_xyz
1 x,y,z
2 1/2-x,1/2+y,1/2-z
3 -x,-y,-z
4 1/2+x,1/2-y,1/2+z
_cell_length_a                   13.393(4)
_cell_length_b                   27.843(7)
_cell_length_c                   17.192(5)
_cell_angle_alpha                90
_cell_angle_beta                 98.078(6)
_cell_angle_gamma                90
_cell_volume                     6347.31
_exptl_crystal_colour            brown
_exptl_crystal_description       Prism
_cell_formula_units_Z            4
loop_
_atom_site_label
_atom_site_type_symbol
_atom_site_fract_x
_atom_site_fract_y
_atom_site_fract_z
N1 N 0.3279(2) -0.00003(9) 0.53191(15)
N2 N 0.2572(2) -0.07158(9) 0.41813(15)
H1 H 0.2986 -0.0469 0.4210
N3 N 0.3577(2) -0.01772(9) 0.30293(15)
N4 N 0.43770(19) 0.05023(9) 0.42024(15)
H2 H 0.4015 0.0238 0.4183
B1 B 0.4737(3) 0.11007(13) 0.6230(2)
C1 C 0.3705(2) 0.03585(11) 0.57883(18)
C2 C 0.3390(2) 0.03379(11) 0.65649(18)
C3 C 0.2756(2) -0.00455(11) 0.65400(19)
H3 H 0.2416 -0.0155 0.6956
C4 C 0.2692(2) -0.02556(11) 0.57676(18)
C5 C 0.2157(2) -0.06703(11) 0.55295(18)
C6 C 0.2124(2) -0.08900(11) 0.47862(19)
C7 C 0.1561(3) -0.13020(12) 0.4507(2)
H4 H 0.1189 -0.1503 0.4808
C8 C 0.1649(3) -0.13580(12) 0.3737(2)
H5 H 0.1343 -0.1604 0.3401
C9 C 0.2279(2) -0.09848(11) 0.35198(19)
C10 C 0.2477(2) -0.08874(12) 0.27598(19)
C11 C 0.3065(3) -0.05107(12) 0.25388(19)
C12 C 0.3208(3) -0.04163(13) 0.1741(2)
H6 H 0.2938 -0.0597 0.1291
C13 C 0.3798(3) -0.00236(12) 0.1750(2)
H7 H 0.4019 0.0127 0.1308
C14 C 0.4030(2) 0.01236(11) 0.25583(19)
C15 C 0.4608(2) 0.05356(11) 0.28124(18)
C16 C 0.4769(2) 0.07018(11) 0.35784(18)
C17 C 0.5319(2) 0.11186(11) 0.38658(19)
H8 H 0.5682 0.1325 0.3566
C18 C 0.5238(2) 0.11725(11) 0.46429(19)
C19 C 0.4634(2) 0.07771(11) 0.48532(18)
C20 C 0.4355(2) 0.07243(11) 0.55969(18)
C21 C 0.3760(2) 0.06648(11) 0.72083(19)
C22 C 0.4502(3) 0.10145(11) 0.70832(19)
C23 C 0.4949(3) 0.12626(12) 0.7752(2)
H9 H 0.5483 0.1480 0.7701
C24 C 0.4648(3) 0.12052(12) 0.8482(2)
H10 H 0.4980 0.1376 0.8923
C25 C 0.3863(3) 0.08984(12) 0.8569(2)
H11 H 0.3621 0.0872 0.9061
C26 C 0.3428(3) 0.06288(11) 0.79308(19)
H12 H 0.2892 0.0415 0.7992
C27 C 0.5555(2) 0.15638(11) 0.51841(19)
C28 C 0.5273(2) 0.15598(11) 0.59475(19)
C29 C 0.5439(3) 0.19864(12) 0.6385(2)
H13 H 0.5214 0.2004 0.6884
C30 C 0.5914(3) 0.23774(12) 0.6118(2)
H14 H 0.6009 0.2660 0.6429
C31 C 0.6253(3) 0.23602(12) 0.5399(2)
H15 H 0.6615 0.2623 0.5224
C32 C 0.6065(2) 0.19595(12) 0.4935(2)
H16 H 0.6286 0.1952 0.4434
C33 C 0.1553(2) -0.09098(11) 0.60885(18)
C34 C 0.1846(3) -0.13598(11) 0.63889(19)
H17 H 0.2439 -0.1505 0.6251
C35 C 0.1286(3) -0.16018(12) 0.68881(19)
C36 C 0.0423(3) -0.13736(13) 0.7075(2)
H18 H 0.0031 -0.1534 0.7415
C37 C 0.0105(3) -0.09216(13) 0.6787(2)
C38 C 0.0697(3) -0.06962(12) 0.6294(2)
H19 H 0.0508 -0.0386 0.6093
C39 C 0.1593(3) -0.20956(13) 0.7215(2)
C40 C 0.2586(4) -0.22768(17) 0.6961(3)
H20 H 0.2747 -0.2595 0.7188
H21 H 0.2511 -0.2297 0.6387
H22 H 0.3133 -0.2053 0.7148
C41 C 0.1745(4) -0.20914(17) 0.8115(3)
H23 H 0.1942 -0.2413 0.8312
H24 H 0.2276 -0.1861 0.8307
H25 H 0.1114 -0.1998 0.8301
C42 C 0.0779(5) -0.24618(17) 0.6912(3)
H26 H 0.0978 -0.2780 0.7124
H27 H 0.0139 -0.2368 0.7082
H28 H 0.0700 -0.2472 0.6337
C43 C -0.0845(3) -0.06761(16) 0.7008(2)
C44 C 0.1971(17) -0.1219(8) 0.2156(12)
C45 C 0.1008(13) -0.1067(5) 0.1766(8)
H29 H 0.0741 -0.0768 0.1906
C46 C 0.0456(7) -0.1345(3) 0.1191(5)
C47 C 0.0881(13) -0.1785(4) 0.0996(8)
H30 H 0.0514 -0.1982 0.0604
C48 C 0.1825(11) -0.1942(6) 0.1361(10)
C49 C 0.2335(13) -0.1660(6) 0.1972(9)
H31 H 0.2942 -0.1777 0.2263
C50 C -0.0592(5) -0.1201(2) 0.0790(4)
C51 C -0.0879(6) -0.0679(3) 0.1014(6)
H32 H -0.0384 -0.0452 0.0859
H33 H -0.1551 -0.0599 0.0741
H34 H -0.0882 -0.0659 0.1583
C52 C -0.1364(4) -0.1539(2) 0.1036(4)
H35 H -0.2036 -0.1446 0.0779
H36 H -0.1215 -0.1867 0.0882
H37 H -0.1345 -0.1524 0.1607
C53 C -0.0633(15) -0.1207(6) -0.0121(12)
H38 H -0.0126 -0.0985 -0.0273
H39 H -0.0494 -0.1532 -0.0294
H40 H -0.1304 -0.1107 -0.0369
C54 C 0.2259(18) -0.2419(8) 0.1083(18)
C55 C 0.2990(11) -0.2305(3) 0.0579(8)
H41 H 0.3478 -0.2074 0.0844
H42 H 0.3343 -0.2598 0.0459
H43 H 0.2651 -0.2163 0.0091
C56 C 0.2832(9) -0.2647(4) 0.1818(6)
H44 H 0.2359 -0.2731 0.2182
H45 H 0.3176 -0.2937 0.1673
H46 H 0.3332 -0.2419 0.2073
C57 C 0.1471(9) -0.2758(4) 0.0782(10)
H47 H 0.1019 -0.2808 0.1176
H48 H 0.1087 -0.2630 0.0299
H49 H 0.1779 -0.3065 0.0668
C58 C 0.5012(2) 0.08330(11) 0.21992(18)
C59 C 0.4604(3) 0.12820(12) 0.1999(2)
H50 H 0.4084 0.1402 0.2269
C60 C 0.4932(3) 0.15613(12) 0.1415(2)
C61 C 0.5709(2) 0.13754(11) 0.1040(2)
H51 H 0.5951 0.1562 0.0644
C62 C 0.6138(2) 0.09302(11) 0.12243(18)
C63 C 0.5776(2) 0.06601(11) 0.18060(18)
H52 H 0.6056 0.0352 0.1936
C64 C 0.4448(3) 0.20454(15) 0.1161(3)
C65 C 0.5175(5) 0.2413(2) 0.1058(7)
H53 H 0.5741 0.2270 0.0836
H54 H 0.4856 0.2660 0.0701
H55 H 0.5423 0.2558 0.1568
C66 C 0.3543(5) 0.2158(3) 0.1478(5)
H56 H 0.3143 0.1865 0.1505
H57 H 0.3717 0.2292 0.2007
H58 H 0.3150 0.2394 0.1140
C67 C 0.3947(7) 0.1991(3) 0.0256(4)
H59 H 0.4472 0.1911 -0.0067
H60 H 0.3441 0.1734 0.0212
H61 H 0.3624 0.2294 0.0073
C68 C 0.6971(2) 0.07238(11) 0.07923(18)
C69 C 0.7889(3) 0.05845(12) 0.1386(2)
H62 H 0.7682 0.0355 0.1766
H63 H 0.8402 0.0437 0.1109
H64 H 0.8169 0.0872 0.1664
C70 C 0.6543(3) 0.02764(12) 0.03297(19)
H65 H 0.6311 0.0044 0.0693
H66 H 0.5975 0.0371 -0.0063
H67 H 0.7071 0.0130 0.0066
C71 C 0.7325(3) 0.10794(12) 0.0215(2)
H68 H 0.6752 0.1175 -0.0172
H69 H 0.7609 0.1364 0.0501
H70 H 0.7842 0.0928 -0.0054
C72 C -0.0585(9) -0.0434(5) 0.7812(7)
H71 H 0.0007 -0.0228 0.7809
H72 H -0.1158 -0.0240 0.7923
H73 H -0.0438 -0.0681 0.8219
C73 C -0.1706(6) -0.0981(3) 0.6988(7)
H74 H -0.1854 -0.1131 0.6468
H75 H -0.1567 -0.1232 0.7389
H76 H -0.2288 -0.0791 0.7093
C74 C -0.1181(7) -0.0227(4) 0.6449(6)
H77 H -0.0608 -0.0008 0.6447
H78 H -0.1404 -0.0341 0.5914
H79 H -0.1736 -0.0057 0.6645
C92 C 0.1676(7) 0.1202(4) 0.5954(6)
H110 H 0.2189 0.0957 0.5855
Cl1 Cl 0.1031(2) 0.13780(18) 0.5077(2)
Cl2 Cl 0.2290(3) 0.16896(10) 0.6411(3)
Cl3 Cl 0.0869(2) 0.0947(2) 0.6572(3)
C75? C 0.184(3) -0.1147(13) 0.203(2)
C76? C 0.106(2) -0.0965(9) 0.1598(14)
H80? H 0.0850 -0.0650 0.1712
C77? C 0.0536(15) -0.1210(7) 0.0982(11)
C78? C 0.085(2) -0.1663(8) 0.0828(14)
H81? H 0.0484 -0.1839 0.0410
C79? C 0.165(3) -0.1866(11) 0.1236(18)
C80? C 0.219(3) -0.1594(13) 0.1824(18)
H82? H 0.2806 -0.1714 0.2093
C81? C -0.0402(10) -0.0989(6) 0.0476(9)
C82? C -0.0118(10) -0.0451(5) 0.0177(8)
H83? H 0.0086 -0.0245 0.0634
H84? H 0.0437 -0.0475 -0.0136
H85? H -0.0709 -0.0311 -0.0144
C83? C -0.069(3) -0.1258(11) -0.025(2)
H86? H -0.0099 -0.1302 -0.0519
H87? H -0.0957 -0.1572 -0.0126
H88? H -0.1210 -0.1080 -0.0592
C84? C -0.1220(17) -0.0898(10) 0.0934(13)
H89? H -0.0961 -0.0717 0.1408
H90? H -0.1751 -0.0712 0.0618
H91? H -0.1498 -0.1204 0.1084
C85? C 0.210(3) -0.2363(15) 0.108(3)
C86? C 0.2048(14) -0.2421(4) 0.0154(6)
H92? H 0.2423 -0.2158 -0.0052
H93? H 0.2346 -0.2729 0.0036
H94? H 0.1342 -0.2410 -0.0093
C87? C 0.3197(12) -0.2493(6) 0.1390(12)
H95? H 0.3640 -0.2228 0.1284
H96? H 0.3265 -0.2550 0.1957
H97? H 0.3388 -0.2784 0.1126
C88? C 0.1493(16) -0.2790(7) 0.1272(11)
H98? H 0.0777 -0.2731 0.1089
H99? H 0.1715 -0.3075 0.1010
H100? H 0.1592 -0.2841 0.1841
C89? C -0.0582(9) -0.0252(5) 0.7412(8)
H101? H -0.0057 -0.0318 0.7856
H102? H -0.0327 -0.0021 0.7057
H103? H -0.1177 -0.0118 0.7607
C90? C -0.1321(9) -0.1042(4) 0.7636(8)
H104? H -0.1517 -0.1347 0.7375
H105? H -0.0811 -0.1101 0.8093
H106? H -0.1914 -0.0891 0.7809
C91? C -0.1607(7) -0.0682(5) 0.6323(6)
H107? H -0.1690 -0.1010 0.6118
H108? H -0.2249 -0.0568 0.6468
H109? H -0.1399 -0.0471 0.5918
C93? C 0.1322(16) 0.1073(6) 0.5981(10)
H111? H 0.2032 0.0953 0.6027
Cl4? Cl 0.0549(4) 0.06002(17) 0.5677(3)
Cl5? Cl 0.1142(7) 0.1295(3) 0.6908(4)
Cl6? Cl 0.1209(9) 0.1516(3) 0.5319(7)
loop_
_geom_bond_atom_site_label_1
_geom_bond_atom_site_label_2
_geom_bond_site_symmetry_1
_geom_bond_site_symmetry_2
N1 C1 1_555 1_555
N2 H1 1_555 1_555
N3 C11 1_555 1_555
N4 H2 1_555 1_555
B1 C20 1_555 1_555
C1 C2 1_555 1_555
C2 C3 1_555 1_555
C3 H3 1_555 1_555
C4 N1 1_555 1_555
C5 C4 1_555 1_555
C6 N2 1_555 1_555
C7 C6 1_555 1_555
H4 C7 1_555 1_555
C8 C7 1_555 1_555
H5 C8 1_555 1_555
C9 N2 1_555 1_555
C10 C9 1_555 1_555
C11 C10 1_555 1_555
C12 C11 1_555 1_555
H6 C12 1_555 1_555
C13 C12 1_555 1_555
H7 C13 1_555 1_555
C14 N3 1_555 1_555
C15 C14 1_555 1_555
C16 N4 1_555 1_555
C17 C16 1_555 1_555
H8 C17 1_555 1_555
C18 C17 1_555 1_555
C19 N4 1_555 1_555
C20 C1 1_555 1_555
C21 C2 1_555 1_555
C22 B1 1_555 1_555
C23 C22 1_555 1_555
H9 C23 1_555 1_555
C24 C23 1_555 1_555
H10 C24 1_555 1_555
C25 C24 1_555 1_555
H11 C25 1_555 1_555
C26 C21 1_555 1_555
H12 C26 1_555 1_555
C27 C18 1_555 1_555
C28 B1 1_555 1_555
C29 C28 1_555 1_555
H13 C29 1_555 1_555
C30 C29 1_555 1_555
H14 C30 1_555 1_555
C31 C30 1_555 1_555
H15 C31 1_555 1_555
C32 C27 1_555 1_555
H16 C32 1_555 1_555
C33 C5 1_555 1_555
C34 C33 1_555 1_555
H17 C34 1_555 1_555
C35 C34 1_555 1_555
C36 C35 1_555 1_555
H18 C36 1_555 1_555
C37 C36 1_555 1_555
C38 C33 1_555 1_555
H19 C38 1_555 1_555
C39 C35 1_555 1_555
C40 C39 1_555 1_555
H20 C40 1_555 1_555
H21 C40 1_555 1_555
H22 C40 1_555 1_555
C41 C39 1_555 1_555
H23 C41 1_555 1_555
H24 C41 1_555 1_555
H25 C41 1_555 1_555
C42 C39 1_555 1_555
H26 C42 1_555 1_555
H27 C42 1_555 1_555
H28 C42 1_555 1_555
C43 C37 1_555 1_555
C44 C10 1_555 1_555
C45 C44 1_555 1_555
H29 C45 1_555 1_555
C46 C45 1_555 1_555
C47 C46 1_555 1_555
H30 C47 1_555 1_555
C48 C47 1_555 1_555
C49 C44 1_555 1_555
H31 C49 1_555 1_555
C50 C46 1_555 1_555
C51 C50 1_555 1_555
H32 C51 1_555 1_555
H33 C51 1_555 1_555
H34 C51 1_555 1_555
C52 C50 1_555 1_555
H35 C52 1_555 1_555
H36 C52 1_555 1_555
H37 C52 1_555 1_555
C53 C50 1_555 1_555
H38 C53 1_555 1_555
H39 C53 1_555 1_555
H40 C53 1_555 1_555
C54 C48 1_555 1_555
C55 C54 1_555 1_555
H41 C55 1_555 1_555
H42 C55 1_555 1_555
H43 C55 1_555 1_555
C56 C54 1_555 1_555
H44 C56 1_555 1_555
H45 C56 1_555 1_555
H46 C56 1_555 1_555
C57 C54 1_555 1_555
H47 C57 1_555 1_555
H48 C57 1_555 1_555
H49 C57 1_555 1_555
C58 C15 1_555 1_555
C59 C58 1_555 1_555
H50 C59 1_555 1_555
C60 C59 1_555 1_555
C61 C60 1_555 1_555
H51 C61 1_555 1_555
C62 C61 1_555 1_555
C63 C58 1_555 1_555
H52 C63 1_555 1_555
C64 C60 1_555 1_555
C65 C64 1_555 1_555
H53 C65 1_555 1_555
H54 C65 1_555 1_555
H55 C65 1_555 1_555
C66 C64 1_555 1_555
H56 C66 1_555 1_555
H57 C66 1_555 1_555
H58 C66 1_555 1_555
C67 C64 1_555 1_555
H59 C67 1_555 1_555
H60 C67 1_555 1_555
H61 C67 1_555 1_555
C68 C62 1_555 1_555
C69 C68 1_555 1_555
H62 C69 1_555 1_555
H63 C69 1_555 1_555
H64 C69 1_555 1_555
C70 C68 1_555 1_555
H65 C70 1_555 1_555
H66 C70 1_555 1_555
H67 C70 1_555 1_555
C71 C68 1_555 1_555
H68 C71 1_555 1_555
H69 C71 1_555 1_555
H70 C71 1_555 1_555
C72 C43 1_555 1_555
H71 C72 1_555 1_555
H72 C72 1_555 1_555
H73 C72 1_555 1_555
C73 C43 1_555 1_555
H74 C73 1_555 1_555
H75 C73 1_555 1_555
H76 C73 1_555 1_555
C74 C43 1_555 1_555
H77 C74 1_555 1_555
H78 C74 1_555 1_555
H79 C74 1_555 1_555
C92 H110 1_555 1_555
Cl1 C92 1_555 1_555
Cl2 C92 1_555 1_555
Cl3 C92 1_555 1_555
C3 C4 1_555 1_555
C5 C6 1_555 1_555
C8 C9 1_555 1_555
C13 C14 1_555 1_555
C15 C16 1_555 1_555
C18 C19 1_555 1_555
C19 C20 1_555 1_555
C21 C22 1_555 1_555
C25 C26 1_555 1_555
C27 C28 1_555 1_555
C31 C32 1_555 1_555
C37 C38 1_555 1_555
C48 C49 1_555 1_555
C62 C63 1_555 1_555

#END
