
#######################################################################
#
#                 Cambridge Crystallographic Data Centre
#                                CCDC 
#
#######################################################################
#
# If this CIF has been generated from an entry in the Cambridge 
# Structural Database, then it will include bibliographic, chemical, 
# crystal, experimental, refinement or atomic coordinate data resulting 
# from the CCDC's data processing and validation procedures.
#
#######################################################################

data_MAGPUI
_chemical_formula_moiety         'C15 H16 O8,H2 O1'
_chemical_name_systematic        
'2-acetoxy-3-(3,4-diacetoxyphenyl)propanoic acid monohydrate'
_symmetry_cell_setting           monoclinic
_symmetry_space_group_name_H-M   'P 21'
_symmetry_Int_Tables_number      4
_space_group_name_Hall           'P 2yb'
loop_
_symmetry_equiv_pos_site_id
_symmetry_equiv_pos_as_xyz
1 x,y,z
2 -x,1/2+y,-z
_cell_length_a                   11.428(3)
_cell_length_b                   6.1995(17)
_cell_length_c                   12.737(4)
_cell_angle_alpha                90
_cell_angle_beta                 105.794(6)
_cell_angle_gamma                90
_cell_volume                     868.321
_exptl_crystal_colour            colorless
_exptl_crystal_description       block
_cell_formula_units_Z            2
loop_
_atom_site_label
_atom_site_type_symbol
_atom_site_fract_x
_atom_site_fract_y
_atom_site_fract_z
O1 O 1.2574(4) 0.4624(7) 0.8615(3)
O2 O 0.9683(3) 0.4369(5) 0.7153(3)
O3 O 0.8707(7) 0.2708(10) 0.5613(5)
O4 O 0.6817(3) -0.0880(6) 0.7681(3)
O5 O 0.5852(5) -0.3207(10) 0.6421(4)
O6 O 0.5780(3) -0.3117(6) 0.9046(3)
O7 O 0.6874(3) -0.5993(5) 0.8849(3)
H1 H 0.6389 -0.6627 0.9111
C1 C 1.3174(6) 0.5147(12) 0.6980(5)
H2 H 1.3778 0.6119 0.7397
H3 H 1.2599 0.5936 0.6423
H4 H 1.3561 0.4070 0.6647
C2 C 1.2534(5) 0.4087(10) 0.7712(5)
C3 C 0.8890(8) 0.6613(16) 0.5658(7)
H5 H 0.8903 0.6631 0.4907
H6 H 0.9543 0.7486 0.6082
H7 H 0.8128 0.7177 0.5716
C4 C 0.9042(6) 0.4309(13) 0.6082(5)
C5 C 0.9961(5) 0.2361(9) 0.7677(4)
C6 C 1.1085(5) 0.1405(9) 0.7769(4)
C7 C 1.1393(5) -0.0452(10) 0.8312(4)
H8 H 1.2153 -0.1067 0.8381
C8 C 1.0556(5) -0.1447(9) 0.8772(4)
H9 H 1.0761 -0.2749 0.9138
C9 C 0.9430(4) -0.0545(8) 0.8697(4)
C10 C 0.9150(5) 0.1407(9) 0.8160(4)
H10 H 0.8412 0.2076 0.8124
C11 C 0.8523(5) -0.1683(8) 0.9182(4)
H11 H 0.8199 -0.0663 0.9608
H12 H 0.8935 -0.2819 0.9668
C12 C 0.7475(4) -0.2659(8) 0.8291(4)
H13 H 0.7798 -0.3581 0.7811
C13 C 0.6627(5) -0.3958(8) 0.8786(4)
C14 C 0.6033(6) -0.1391(14) 0.6725(5)
C15 C 0.5428(9) 0.0591(14) 0.6150(8)
H14 H 0.6012 0.1433 0.5910
H15 H 0.5109 0.1432 0.6642
H16 H 0.4777 0.0178 0.5531
O8 O 1.1851(3) 0.2399(6) 0.7207(3)
O9 O 0.4716(4) 0.6394(7) 0.0810(4)
H17 H 0.450(7) 0.512(5) 0.080(6)
H18 H 0.512(6) 0.654(15) 0.036(5)
loop_
_geom_bond_atom_site_label_1
_geom_bond_atom_site_label_2
_geom_bond_site_symmetry_1
_geom_bond_site_symmetry_2
O1 C2 1_555 1_555
O2 C4 1_555 1_555
O3 C4 1_555 1_555
O4 C12 1_555 1_555
O5 C14 1_555 1_555
O6 C13 1_555 1_555
O7 H1 1_555 1_555
C1 H2 1_555 1_555
H3 C1 1_555 1_555
H4 C1 1_555 1_555
C2 C1 1_555 1_555
C3 H5 1_555 1_555
H6 C3 1_555 1_555
H7 C3 1_555 1_555
C4 C3 1_555 1_555
C5 O2 1_555 1_555
C6 C5 1_555 1_555
C7 C6 1_555 1_555
H8 C7 1_555 1_555
C8 C7 1_555 1_555
H9 C8 1_555 1_555
C9 C8 1_555 1_555
C10 C5 1_555 1_555
H10 C10 1_555 1_555
C11 C9 1_555 1_555
H11 C11 1_555 1_555
H12 C11 1_555 1_555
C12 C11 1_555 1_555
H13 C12 1_555 1_555
C13 O7 1_555 1_555
C14 O4 1_555 1_555
C15 C14 1_555 1_555
H14 C15 1_555 1_555
H15 C15 1_555 1_555
H16 C15 1_555 1_555
O8 C2 1_555 1_555
O9 H17 1_555 1_555
H18 O9 1_555 1_555
C6 O8 1_555 1_555
C9 C10 1_555 1_555
C12 C13 1_555 1_555

#END
