
#######################################################################
#
#                 Cambridge Crystallographic Data Centre
#                                CCDC 
#
#######################################################################
#
# If this CIF has been generated from an entry in the Cambridge 
# Structural Database, then it will include bibliographic, chemical, 
# crystal, experimental, refinement or atomic coordinate data resulting 
# from the CCDC's data processing and validation procedures.
#
#######################################################################

data_MAGWEZ
_chemical_formula_moiety         'C24 H21 F1 O5,1.38(C1 H2 Cl2)'
_chemical_name_systematic        
'Ethyl 4-(4-fluorophenyl)-2,3-dihydroxy-2-phenylchromane-3-carboxylate dichloromethane solvate'
_symmetry_cell_setting           monoclinic
_symmetry_space_group_name_H-M   'P 21'
_symmetry_Int_Tables_number      4
_space_group_name_Hall           'P 2yb'
loop_
_symmetry_equiv_pos_site_id
_symmetry_equiv_pos_as_xyz
1 x,y,z
2 -x,1/2+y,-z
_cell_length_a                   9.4509(2)
_cell_length_b                   19.3226(5)
_cell_length_c                   28.2591(7)
_cell_angle_alpha                90
_cell_angle_beta                 92.225(2)
_cell_angle_gamma                90
_cell_volume                     5156.67
_exptl_crystal_colour            colorless
_exptl_crystal_description       needle
_cell_formula_units_Z            8
loop_
_atom_site_label
_atom_site_type_symbol
_atom_site_fract_x
_atom_site_fract_y
_atom_site_fract_z
F1 F 1.0831(4) 0.6756(2) 0.67324(12)
O1 O 0.6600(3) 0.58461(16) 0.42066(11)
O2 O 0.4961(3) 0.54000(17) 0.47162(11)
H1 H 0.4364 0.5398 0.4488
O3 O 0.8741(3) 0.55180(17) 0.47795(11)
H2 H 0.9287 0.5206 0.4885
O4 O 0.8540(4) 0.44702(19) 0.53376(13)
O5 O 0.6344(3) 0.47249(18) 0.55538(11)
C1 C 0.6324(4) 0.5319(2) 0.45443(16)
C2 C 0.7385(4) 0.5435(2) 0.49738(15)
C3 C 0.6973(5) 0.6110(2) 0.52255(16)
H3 H 0.6036 0.6031 0.5369
C4 C 0.6774(4) 0.6676(2) 0.48576(16)
C5 C 0.6584(4) 0.6514(2) 0.43760(17)
C6 C 0.6392(5) 0.7034(3) 0.40400(18)
H4 H 0.6276 0.6919 0.3714
C7 C 0.6369(6) 0.7721(3) 0.4181(2)
H5 H 0.6247 0.8077 0.3951
C8 C 0.6521(5) 0.7888(3) 0.4654(2)
H6 H 0.6494 0.8357 0.4753
C9 C 0.6714(5) 0.7364(3) 0.49844(19)
H7 H 0.6809 0.7483 0.531
C10 C 0.6491(5) 0.4631(2) 0.42909(16)
C11 C 0.7558(5) 0.4523(3) 0.39727(17)
H8 H 0.8216 0.4881 0.3914
C12 C 0.7662(5) 0.3898(3) 0.37432(19)
H9 H 0.8407 0.3824 0.3533
C13 C 0.6691(6) 0.3377(3) 0.3816(2)
H10 H 0.6762 0.2951 0.3652
C14 C 0.5619(6) 0.3477(3) 0.4128(2)
H11 H 0.495 0.3119 0.4179
C15 C 0.5524(5) 0.4100(3) 0.43677(17)
H12 H 0.4796 0.4167 0.4586
C16 C 0.7494(5) 0.4816(3) 0.53067(16)
C17 C 0.6410(6) 0.4139(3) 0.58883(19)
H13 H 0.6818 0.3731 0.5732
H14 H 0.5441 0.4018 0.598
C18 C 0.7291(8) 0.4315(4) 0.6320(2)
H15 H 0.8244 0.4447 0.6229
H16 H 0.7353 0.3911 0.653
H17 H 0.6857 0.4702 0.6485
C19 C 0.8033(5) 0.6294(2) 0.56265(17)
C20 C 0.7684(6) 0.6169(3) 0.60922(18)
H18 H 0.678 0.5983 0.6155
C21 C 0.8625(6) 0.6310(3) 0.6465(2)
H19 H 0.8391 0.621 0.6782
C22 C 0.9905(6) 0.6598(3) 0.63668(19)
C23 C 1.0297(5) 0.6737(3) 0.59134(18)
H20 H 1.1198 0.6931 0.5855
C24 C 0.9346(5) 0.6586(3) 0.55447(17)
H21 H 0.9593 0.6684 0.5229
F2 F 1.0721(3) 0.5590(2) 1.16535(11)
O6 O 0.6513(3) 0.45831(17) 0.91431(11)
O7 O 0.4859(3) 0.41553(18) 0.96554(11)
H22 H 0.4295 0.4243 0.9426
O8 O 0.8638(3) 0.42529(17) 0.97274(11)
H23 H 0.9223 0.4021 0.9893
O9 O 0.8405(4) 0.3241(2) 1.03125(13)
O10 O 0.6189(3) 0.35100(18) 1.05058(12)
C25 C 0.6219(5) 0.4067(3) 0.94906(16)
C26 C 0.7287(4) 0.4194(2) 0.99159(16)
C27 C 0.6875(5) 0.4880(2) 1.01600(16)
H24 H 0.5935 0.4808 1.0303
C28 C 0.6693(5) 0.5433(3) 0.97834(17)
C29 C 0.6516(5) 0.5256(3) 0.93026(17)
C30 C 0.6353(5) 0.5772(3) 0.89592(18)
H25 H 0.6237 0.5648 0.8635
C31 C 0.6358(6) 0.6455(3) 0.9088(2)
H26 H 0.6256 0.6804 0.8853
C32 C 0.6512(6) 0.6635(3) 0.9559(2)
H27 H 0.6499 0.7109 0.9649
C33 C 0.6684(5) 0.6130(3) 0.99022(18)
H28 H 0.6799 0.6262 1.0225
C34 C 0.6385(5) 0.3371(2) 0.92505(16)
C35 C 0.7475(5) 0.3248(3) 0.89427(18)
H29 H 0.8127 0.3606 0.8876
C36 C 0.7609(6) 0.2599(3) 0.8733(2)
H30 H 0.8374 0.2508 0.8534
C37 C 0.6622(6) 0.2086(3) 0.8816(2)
H31 H 0.6693 0.1651 0.8663
C38 C 0.5551(6) 0.2202(3) 0.9116(2)
H32 H 0.4885 0.1846 0.9173
C39 C 0.5431(5) 0.2841(3) 0.93399(18)
H33 H 0.4696 0.2916 0.9554
C40 C 0.7350(5) 0.3594(2) 1.02664(17)
C41 C 0.6204(7) 0.2943(3) 1.0850(2)
H34 H 0.6639 0.253 1.0709
H35 H 0.5218 0.2825 1.0925
C42 C 0.7001(9) 0.3128(4) 1.1291(2)
H36 H 0.8014 0.3152 1.123
H37 H 0.6841 0.2776 1.1533
H38 H 0.6678 0.3579 1.1403
C43 C 0.7933(5) 0.5066(2) 1.05578(16)
C44 C 0.7576(5) 0.4978(3) 1.10237(18)
H39 H 0.6665 0.4804 1.109
C45 C 0.8503(6) 0.5137(3) 1.13938(19)
H40 H 0.8253 0.5065 1.1712
C46 C 0.9816(5) 0.5407(3) 1.12899(18)
C47 C 1.0215(5) 0.5511(3) 1.08338(18)
H41 H 1.1124 0.5693 1.0772
C48 C 0.9274(5) 0.5348(3) 1.04662(17)
H42 H 0.953 0.5425 1.0149
F3 F 0.5278(4) 0.3333(2) 0.68715(13)
O11 O 0.1511(3) 0.41849(17) 0.93874(11)
O12 O -0.0230(3) 0.46610(18) 0.88866(11)
H43 H -0.0781 0.4659 0.9113
O13 O 0.3550(3) 0.45918(19) 0.88246(11)
H44 H 0.4003 0.4953 0.8763
O14 O 0.3094(4) 0.5655(2) 0.82795(15)
O15 O 0.0872(4) 0.5349(2) 0.80732(13)
C49 C 0.1166(5) 0.4730(3) 0.90629(16)
C50 C 0.2148(4) 0.4650(3) 0.86359(16)
C51 C 0.1739(5) 0.3979(3) 0.83683(16)
H45 H 0.0775 0.4054 0.8219
C52 C 0.1614(5) 0.3393(3) 0.87195(17)
C53 C 0.1463(4) 0.3523(2) 0.91934(17)
C54 C 0.1272(5) 0.2988(3) 0.95204(19)
H46 H 0.1161 0.3089 0.9846
C55 C 0.1249(6) 0.2312(3) 0.9361(2)
H47 H 0.1127 0.1943 0.9578
C56 C 0.1402(6) 0.2170(3) 0.8884(2)
H48 H 0.1381 0.1705 0.8774
C57 C 0.1584(5) 0.2701(3) 0.8572(2)
H49 H 0.1693 0.2598 0.8247
C58 C 0.1386(5) 0.5403(3) 0.93414(16)
C59 C 0.0469(5) 0.5954(3) 0.92580(19)
H50 H -0.0283 0.5916 0.9027
C60 C 0.0658(6) 0.6563(3) 0.9515(2)
H51 H 0.0041 0.6944 0.9455
C61 C 0.1744(6) 0.6616(3) 0.9858(2)
H52 H 0.185 0.7028 1.0039
C62 C 0.2664(5) 0.6077(3) 0.99353(19)
H53 H 0.3419 0.6118 1.0165
C63 C 0.2491(5) 0.5466(3) 0.96760(17)
H54 H 0.3132 0.5093 0.9729
C64 C 0.2090(5) 0.5280(3) 0.83106(17)
C65 C 0.0752(8) 0.5916(4) 0.7728(2)
H55 H 0.1687 0.6005 0.7593
H56 H 0.008 0.5785 0.7466
C66 C 0.0255(12) 0.6539(5) 0.7959(3)
H57 H -0.0711 0.6465 0.8062
H58 H 0.0261 0.6927 0.7735
H59 H 0.088 0.6645 0.8234
C67 C 0.2728(5) 0.3828(3) 0.79709(17)
C68 C 0.4015(5) 0.3472(3) 0.80592(19)
H60 H 0.4298 0.3347 0.8374
C69 C 0.4868(6) 0.3303(3) 0.7686(2)
H61 H 0.5724 0.3052 0.774
C70 C 0.4442(6) 0.3507(4) 0.7239(2)
C71 C 0.3250(8) 0.3872(4) 0.7137(2)
H62 H 0.3017 0.4022 0.6824
C72 C 0.2363(6) 0.4020(4) 0.75144(19)
H63 H 0.1496 0.4258 0.7451
F4 F 0.5692(4) 0.4723(3) 0.19761(11)
O16 O 0.1599(3) 0.54207(16) 0.44397(10)
O17 O -0.0131(3) 0.59066(17) 0.39384(11)
H64 H -0.0696 0.5917 0.4161
O18 O 0.3650(3) 0.58674(19) 0.38963(12)
H65 H 0.4117 0.6217 0.382
O19 O 0.3199(5) 0.6942(2) 0.33643(16)
O20 O 0.0971(4) 0.6652(2) 0.31620(13)
C73 C 0.1258(5) 0.5979(2) 0.41226(16)
C74 C 0.2255(5) 0.5917(3) 0.36985(15)
C75 C 0.1883(5) 0.5258(3) 0.34189(16)
H66 H 0.0938 0.5337 0.3256
C76 C 0.1716(5) 0.4655(3) 0.37582(16)
C77 C 0.1540(4) 0.4769(2) 0.42361(16)
C78 C 0.1307(5) 0.4222(3) 0.45408(17)
H67 H 0.1207 0.4308 0.4869
C79 C 0.1221(5) 0.3554(3) 0.4369(2)
H68 H 0.1036 0.3182 0.4578
C80 C 0.1403(6) 0.3425(3) 0.3894(2)
H69 H 0.1365 0.2965 0.3775
C81 C 0.1641(5) 0.3980(3) 0.35946(19)
H70 H 0.1756 0.3894 0.3267
C82 C 0.1457(5) 0.6639(2) 0.44100(16)
C83 C 0.0532(5) 0.7192(3) 0.43238(18)
H71 H -0.0213 0.7153 0.409
C84 C 0.0709(6) 0.7799(3) 0.4583(2)
H72 H 0.0082 0.8177 0.4525
C85 C 0.1787(6) 0.7858(3) 0.4924(2)
H73 H 0.1896 0.8274 0.5101
C86 C 0.2707(5) 0.7315(3) 0.50069(19)
H74 H 0.3449 0.7356 0.5242
C87 C 0.2556(5) 0.6705(3) 0.47479(17)
H75 H 0.3202 0.6334 0.4802
C88 C 0.2197(6) 0.6564(3) 0.33897(18)
C89 C 0.0773(17) 0.7203(7) 0.2807(5)
H76 H 0.0199 0.7034 0.253
H77 H 0.1698 0.7366 0.2698
C90 C 0.0013(19) 0.7777(8) 0.3055(6)
H78 H -0.0829 0.759 0.3201
H79 H -0.0271 0.8134 0.2824
H80 H 0.0647 0.7979 0.33
C91 C 0.2932(5) 0.5121(3) 0.30356(17)
C92 C 0.4198(5) 0.4772(3) 0.31310(18)
H81 H 0.4429 0.4624 0.3445
C93 C 0.5130(5) 0.4634(3) 0.27749(19)
H82 H 0.5979 0.4382 0.2838
C94 C 0.4785(6) 0.4876(4) 0.2328(2)
C95 C 0.3549(6) 0.5209(4) 0.22154(19)
H83 H 0.3323 0.5352 0.19
C96 C 0.2629(6) 0.5332(3) 0.25771(18)
H84 H 0.1766 0.557 0.2507
Cl1 Cl 0.36365(19) 0.58395(12) 0.60737(8)
Cl2 Cl 0.2032(2) 0.45806(11) 0.58810(6)
C97 C 0.2803(7) 0.5322(4) 0.5640(2)
H85 H 0.3505 0.5179 0.5408
H86 H 0.206 0.5596 0.5469
Cl3 Cl 0.35644(17) 0.46354(11) 1.09687(7)
Cl4 Cl 0.1934(2) 0.33680(12) 1.08397(7)
C98 C 0.2660(7) 0.4102(4) 1.0557(2)
H87 H 0.3319 0.3946 1.0315
H88 H 0.1888 0.4368 1.0395
Cl5 Cl -0.16863(16) 0.40595(10) 0.76081(6)
Cl6 Cl -0.3301(3) 0.53339(14) 0.76327(7)
C99 C -0.2535(7) 0.4654(4) 0.7972(2)
H89 H -0.1841 0.4846 0.8208
H90 H -0.3282 0.4413 0.8145
Cl7 Cl -0.14924(17) 0.53650(13) 0.26984(6)
Cl8 Cl -0.3158(3) 0.66402(17) 0.26788(9)
C100 C -0.2404(6) 0.6000(4) 0.3024(2)
H91 H -0.3154 0.577 0.3201
H92 H -0.173 0.6214 0.3258
Cl9 Cl 0.066(5) 0.357(3) 0.2147(18)
Cl10 Cl 0.278(5) 0.269(2) 0.2650(18)
C101 C 0.236(9) 0.320(8) 0.214(3)
H93 H 0.3074 0.3575 0.2119
H94 H 0.2429 0.2908 0.1854
C102? C 0.0845(19) 0.7342(7) 0.2919(5)
H95? H -0.01 0.7548 0.2963
H96? H 0.1579 0.7666 0.3045
C103? C 0.1054(17) 0.7188(9) 0.2410(5)
H97? H 0.2052 0.7078 0.2364
H98? H 0.0783 0.7593 0.2218
H99? H 0.0465 0.6792 0.2312
C104? C 0.089(3) 0.378(3) 0.2055(17)
H100? H 0.116 0.4273 0.2086
H101? H 0.0688 0.3681 0.1715
Cl11? Cl -0.0564(13) 0.3632(7) 0.2358(5)
Cl12? Cl 0.377(4) 0.275(2) 0.2178(13)
Cl13? Cl 0.2338(13) 0.3241(8) 0.2273(5)
H102? H 0.4222 0.2553 0.2368
C105? C 0.481(3) 0.259(2) 0.2665(18)
H103? H 0.4587 0.304 0.2817
Cl14? Cl 0.4458(15) 0.1922(7) 0.3037(5)
Cl15? Cl 0.554(3) 0.1841(19) 0.2767(13)
Cl16? Cl 0.6671(14) 0.2563(8) 0.2534(5)
H104? H 0.6027 0.2349 0.2069
C106? C 0.517(9) 0.213(5) 0.2195(17)
H105? H 0.4901 0.1737 0.1989
loop_
_geom_bond_atom_site_label_1
_geom_bond_atom_site_label_2
_geom_bond_site_symmetry_1
_geom_bond_site_symmetry_2
F1 C22 1_555 1_555
O1 C1 1_555 1_555
O2 H1 1_555 1_555
O3 H2 1_555 1_555
O4 C16 1_555 1_555
O5 C16 1_555 1_555
C1 O2 1_555 1_555
C2 O3 1_555 1_555
C3 C2 1_555 1_555
H3 C3 1_555 1_555
C4 C3 1_555 1_555
C5 O1 1_555 1_555
C6 C5 1_555 1_555
H4 C6 1_555 1_555
C7 C6 1_555 1_555
H5 C7 1_555 1_555
C8 C7 1_555 1_555
H6 C8 1_555 1_555
C9 C4 1_555 1_555
H7 C9 1_555 1_555
C10 C1 1_555 1_555
C11 C10 1_555 1_555
H8 C11 1_555 1_555
C12 C11 1_555 1_555
H9 C12 1_555 1_555
C13 C12 1_555 1_555
H10 C13 1_555 1_555
C14 C13 1_555 1_555
H11 C14 1_555 1_555
C15 C10 1_555 1_555
H12 C15 1_555 1_555
C16 C2 1_555 1_555
C17 O5 1_555 1_555
H13 C17 1_555 1_555
H14 C17 1_555 1_555
C18 C17 1_555 1_555
H15 C18 1_555 1_555
H16 C18 1_555 1_555
H17 C18 1_555 1_555
C19 C3 1_555 1_555
C20 C19 1_555 1_555
H18 C20 1_555 1_555
C21 C20 1_555 1_555
H19 C21 1_555 1_555
C22 C21 1_555 1_555
C23 C22 1_555 1_555
H20 C23 1_555 1_555
C24 C19 1_555 1_555
H21 C24 1_555 1_555
F2 C46 1_555 1_555
O6 C25 1_555 1_555
O7 H22 1_555 1_555
O8 H23 1_555 1_555
O9 C40 1_555 1_555
O10 C40 1_555 1_555
C25 O7 1_555 1_555
C26 O8 1_555 1_555
C27 C26 1_555 1_555
H24 C27 1_555 1_555
C28 C27 1_555 1_555
C29 O6 1_555 1_555
C30 C29 1_555 1_555
H25 C30 1_555 1_555
C31 C30 1_555 1_555
H26 C31 1_555 1_555
C32 C31 1_555 1_555
H27 C32 1_555 1_555
C33 C28 1_555 1_555
H28 C33 1_555 1_555
C34 C25 1_555 1_555
C35 C34 1_555 1_555
H29 C35 1_555 1_555
C36 C35 1_555 1_555
H30 C36 1_555 1_555
C37 C36 1_555 1_555
H31 C37 1_555 1_555
C38 C37 1_555 1_555
H32 C38 1_555 1_555
C39 C34 1_555 1_555
H33 C39 1_555 1_555
C40 C26 1_555 1_555
C41 O10 1_555 1_555
H34 C41 1_555 1_555
H35 C41 1_555 1_555
C42 C41 1_555 1_555
H36 C42 1_555 1_555
H37 C42 1_555 1_555
H38 C42 1_555 1_555
C43 C27 1_555 1_555
C44 C43 1_555 1_555
H39 C44 1_555 1_555
C45 C44 1_555 1_555
H40 C45 1_555 1_555
C46 C45 1_555 1_555
C47 C46 1_555 1_555
H41 C47 1_555 1_555
C48 C43 1_555 1_555
H42 C48 1_555 1_555
F3 C70 1_555 1_555
O11 C49 1_555 1_555
O12 H43 1_555 1_555
O13 H44 1_555 1_555
O14 C64 1_555 1_555
O15 C64 1_555 1_555
C49 O12 1_555 1_555
C50 O13 1_555 1_555
C51 C50 1_555 1_555
H45 C51 1_555 1_555
C52 C51 1_555 1_555
C53 O11 1_555 1_555
C54 C53 1_555 1_555
H46 C54 1_555 1_555
C55 C54 1_555 1_555
H47 C55 1_555 1_555
C56 C55 1_555 1_555
H48 C56 1_555 1_555
C57 C52 1_555 1_555
H49 C57 1_555 1_555
C58 C49 1_555 1_555
C59 C58 1_555 1_555
H50 C59 1_555 1_555
C60 C59 1_555 1_555
H51 C60 1_555 1_555
C61 C60 1_555 1_555
H52 C61 1_555 1_555
C62 C61 1_555 1_555
H53 C62 1_555 1_555
C63 C58 1_555 1_555
H54 C63 1_555 1_555
C64 C50 1_555 1_555
C65 O15 1_555 1_555
H55 C65 1_555 1_555
H56 C65 1_555 1_555
C66 C65 1_555 1_555
H57 C66 1_555 1_555
H58 C66 1_555 1_555
H59 C66 1_555 1_555
C67 C51 1_555 1_555
C68 C67 1_555 1_555
H60 C68 1_555 1_555
C69 C68 1_555 1_555
H61 C69 1_555 1_555
C70 C69 1_555 1_555
C71 C70 1_555 1_555
H62 C71 1_555 1_555
C72 C67 1_555 1_555
H63 C72 1_555 1_555
F4 C94 1_555 1_555
O16 C73 1_555 1_555
O17 H64 1_555 1_555
O18 H65 1_555 1_555
O19 C88 1_555 1_555
O20 C88 1_555 1_555
C73 O17 1_555 1_555
C74 O18 1_555 1_555
C75 C74 1_555 1_555
H66 C75 1_555 1_555
C76 C75 1_555 1_555
C77 O16 1_555 1_555
C78 C77 1_555 1_555
H67 C78 1_555 1_555
C79 C78 1_555 1_555
H68 C79 1_555 1_555
C80 C79 1_555 1_555
H69 C80 1_555 1_555
C81 C76 1_555 1_555
H70 C81 1_555 1_555
C82 C73 1_555 1_555
C83 C82 1_555 1_555
H71 C83 1_555 1_555
C84 C83 1_555 1_555
H72 C84 1_555 1_555
C85 C84 1_555 1_555
H73 C85 1_555 1_555
C86 C85 1_555 1_555
H74 C86 1_555 1_555
C87 C82 1_555 1_555
H75 C87 1_555 1_555
C88 C74 1_555 1_555
C89 O20 1_555 1_555
H76 C89 1_555 1_555
H77 C89 1_555 1_555
C90 C89 1_555 1_555
H78 C90 1_555 1_555
H79 C90 1_555 1_555
H80 C90 1_555 1_555
C91 C75 1_555 1_555
C92 C91 1_555 1_555
H81 C92 1_555 1_555
C93 C92 1_555 1_555
H82 C93 1_555 1_555
C94 C93 1_555 1_555
C95 C94 1_555 1_555
H83 C95 1_555 1_555
C96 C91 1_555 1_555
H84 C96 1_555 1_555
Cl1 C97 1_555 1_555
Cl2 C97 1_555 1_555
C97 H85 1_555 1_555
H86 C97 1_555 1_555
Cl3 C98 1_555 1_555
Cl4 C98 1_555 1_555
C98 H87 1_555 1_555
H88 C98 1_555 1_555
Cl5 C99 1_555 1_555
Cl6 C99 1_555 1_555
C99 H89 1_555 1_555
H90 C99 1_555 1_555
Cl7 C100 1_555 1_555
Cl8 C100 1_555 1_555
C100 H91 1_555 1_555
H92 C100 1_555 1_555
Cl9 C101 1_555 1_555
Cl10 C101 1_555 1_555
C101 H93 1_555 1_555
H94 C101 1_555 1_555
C1 C2 1_555 1_555
C4 C5 1_555 1_555
C8 C9 1_555 1_555
C14 C15 1_555 1_555
C23 C24 1_555 1_555
C25 C26 1_555 1_555
C28 C29 1_555 1_555
C32 C33 1_555 1_555
C38 C39 1_555 1_555
C47 C48 1_555 1_555
C49 C50 1_555 1_555
C52 C53 1_555 1_555
C56 C57 1_555 1_555
C62 C63 1_555 1_555
C71 C72 1_555 1_555
C73 C74 1_555 1_555
C76 C77 1_555 1_555
C80 C81 1_555 1_555
C86 C87 1_555 1_555
C95 C96 1_555 1_555

#END
