
#######################################################################
#
#                 Cambridge Crystallographic Data Centre
#                                CCDC 
#
#######################################################################
#
# If this CIF has been generated from an entry in the Cambridge 
# Structural Database, then it will include bibliographic, chemical, 
# crystal, experimental, refinement or atomic coordinate data resulting 
# from the CCDC's data processing and validation procedures.
#
#######################################################################

data_MAGZIE
_chemical_formula_moiety         'C10 H8 N2,C12 Cl8'
_chemical_name_systematic        "2,2'-bipyridine perchloroacenaphthalene"
_symmetry_cell_setting           triclinic
_symmetry_space_group_name_H-M   'P 1'
_symmetry_Int_Tables_number      1
_space_group_name_Hall           'P 1'
loop_
_symmetry_equiv_pos_site_id
_symmetry_equiv_pos_as_xyz
1 x,y,z
_cell_length_a                   7.0600(14)
_cell_length_b                   8.4810(17)
_cell_length_c                   10.678(2)
_cell_angle_alpha                107.73(3)
_cell_angle_beta                 102.98(3)
_cell_angle_gamma                105.19(3)
_cell_volume                     554.549
_exptl_crystal_colour            'slightly red'
_exptl_crystal_description       prism
_cell_formula_units_Z            1
loop_
_atom_site_label
_atom_site_type_symbol
_atom_site_fract_x
_atom_site_fract_y
_atom_site_fract_z
Cl1 Cl 1.2947(8) 1.3440(6) 0.7229(5)
Cl2 Cl 1.0502(9) 1.0143(6) 0.4458(5)
Cl3 Cl 0.8348(8) 0.6015(7) 0.3601(4)
Cl4 Cl 0.7620(10) 0.3636(8) 0.5295(5)
Cl5 Cl 0.8711(8) 0.4364(6) 0.8490(5)
Cl6 Cl 1.1204(9) 0.7762(7) 1.1306(5)
Cl7 Cl 1.3282(8) 1.1779(6) 1.2087(4)
Cl8 Cl 1.4013(9) 1.4176(7) 1.0395(5)
C1 C 1.182(3) 1.132(2) 0.7170(16)
C2 C 1.077(3) 0.980(2) 0.5906(13)
C3 C 0.923(4) 0.666(2) 0.5595(18)
C4 C 0.878(3) 0.5575(19) 0.6274(17)
C5 C 0.936(3) 0.6006(14) 0.7683(19)
C6 C 1.125(3) 0.866(2) 0.9870(13)
C7 C 1.223(3) 1.044(2) 1.0448(10)
C8 C 1.254(4) 1.151(2) 0.9734(13)
C9 C 1.188(3) 1.0805(15) 0.8324(11)
C10 C 1.020(4) 0.8386(19) 0.6328(15)
C11 C 1.048(2) 0.7795(14) 0.8457(12)
C12 C 1.086(3) 0.8933(14) 0.7794(13)
C13 C 0.490(3) -0.135(2) 0.493(2)
H1 H 0.5026 -0.0688 0.4379
C14 C 0.368(3) -0.406(3) 0.5146(13)
H2 H 0.3003 -0.5278 0.4750
C15 C 0.548(3) -0.149(2) 0.7020(17)
C16 C 0.571(3) -0.052(3) 0.6288(19)
H3 H 0.6408 0.0700 0.6705
C17 C 0.383(4) -0.324(3) 0.4238(18)
H4 H 0.3297 -0.3837 0.3275
C18 C 0.795(3) 0.187(2) 1.053(3)
H5 H 0.8682 0.3086 1.0899
C19 C 0.776(3) 0.106(3) 1.1439(16)
H6 H 0.8319 0.1722 1.2393
C20 C 0.600(2) -0.1622(19) 0.9467(14)
H7 H 0.5342 -0.2848 0.9077
C21 C 0.678(4) -0.065(3) 1.0970(18)
H8 H 0.6589 -0.1224 1.1574
C22 C 0.628(3) -0.059(3) 0.8574(18)
N1 N 0.438(3) -0.332(2) 0.6534(13)
N2 N 0.717(2) 0.1064(17) 0.9169(16)
loop_
_geom_bond_atom_site_label_1
_geom_bond_atom_site_label_2
_geom_bond_site_symmetry_1
_geom_bond_site_symmetry_2
Cl1 C1 1_555 1_555
Cl2 C2 1_555 1_555
Cl3 C3 1_555 1_555
Cl4 C4 1_555 1_555
Cl5 C5 1_555 1_555
Cl6 C6 1_555 1_555
Cl7 C7 1_555 1_555
Cl8 C8 1_555 1_555
C1 C2 1_555 1_555
C2 C10 1_555 1_555
C3 C4 1_555 1_555
C4 C5 1_555 1_555
C5 C11 1_555 1_555
C6 C7 1_555 1_555
C7 C8 1_555 1_555
C8 C9 1_555 1_555
C9 C1 1_555 1_555
C10 C3 1_555 1_555
C11 C6 1_555 1_555
C12 C9 1_555 1_555
C13 H1 1_555 1_555
C14 H2 1_555 1_555
C15 C16 1_555 1_555
C16 C13 1_555 1_555
H3 C16 1_555 1_555
C17 C13 1_555 1_555
H4 C17 1_555 1_555
C18 H5 1_555 1_555
C19 C18 1_555 1_555
H6 C19 1_555 1_555
C20 H7 1_555 1_555
C21 C19 1_555 1_555
H8 C21 1_555 1_555
C22 C15 1_555 1_555
N1 C14 1_555 1_555
N2 C18 1_555 1_555
C10 C12 1_555 1_555
C11 C12 1_555 1_555
C14 C17 1_555 1_555
C15 N1 1_555 1_555
C20 C22 1_555 1_555
C20 C21 1_555 1_555
C22 N2 1_555 1_555

#END
