
#######################################################################
#
#                 Cambridge Crystallographic Data Centre
#                                CCDC 
#
#######################################################################
#
# If this CIF has been generated from an entry in the Cambridge 
# Structural Database, then it will include bibliographic, chemical, 
# crystal, experimental, refinement or atomic coordinate data resulting 
# from the CCDC's data processing and validation procedures.
#
#######################################################################

data_MAHFOR
_chemical_name_common            
'(Nonapyridyl-tetraium)octa-amine tetrakis(trifluoromethanesulfonate) acetonitrile solvate'
_chemical_formula_moiety         
'C45 H41 N17 4+,4(C1 F3 O3 S1 1-),1.5(C2 H3 N1)'
_chemical_name_systematic        
"2,6-bis(6'-(6''-(6'''-(Pyridinium-2''''-ylamino)pyrid-2'''-ylamino)pyrid-2''-ylamino)pyridinium-2'-ylamino)pyridine tetrakis(trifluoromethanesulfonate) acetonitrile solvate"
_symmetry_cell_setting           monoclinic
_symmetry_space_group_name_H-M   'C 2/c'
_symmetry_Int_Tables_number      15
_space_group_name_Hall           '-C 2yn'
loop_
_symmetry_equiv_pos_site_id
_symmetry_equiv_pos_as_xyz
1 x,y,z
2 1/2+x,1/2+y,z
3 x,-y,1/2+z
4 1/2+x,1/2-y,1/2+z
5 -x,-y,-z
6 1/2-x,1/2-y,-z
7 -x,y,1/2-z
8 1/2-x,1/2+y,1/2-z
_cell_length_a                   26.5696(11)
_cell_length_b                   14.6662(6)
_cell_length_c                   33.9125(14)
_cell_angle_alpha                90
_cell_angle_beta                 111.3060(10)
_cell_angle_gamma                90
_cell_volume                     12311.7
_exptl_crystal_colour            'light brown'
_exptl_crystal_description       plate
_cell_formula_units_Z            8
loop_
_atom_site_label
_atom_site_type_symbol
_atom_site_fract_x
_atom_site_fract_y
_atom_site_fract_z
S1 S 0.20587(4) -0.00197(8) 0.44562(4)
O1 O 0.15803(11) -0.0262(2) 0.41033(9)
O2 O 0.25158(11) 0.0242(2) 0.43546(10)
O3 O 0.19618(11) 0.0564(2) 0.47655(10)
C46 C 0.22846(19) -0.1085(3) 0.47471(17)
F1 F 0.23780(12) -0.17159(19) 0.45077(10)
F2 F 0.19155(11) -0.14010(19) 0.48920(10)
F3 F 0.27328(11) -0.0942(2) 0.50826(10)
S2 S 0.28097(4) -0.43572(8) 0.34686(4)
O4 O 0.23452(11) -0.4791(2) 0.31617(11)
O5 O 0.32079(13) -0.4971(2) 0.37205(11)
O6 O 0.30177(12) -0.3602(2) 0.33063(11)
C47 C 0.2524(3) -0.3837(4) 0.3823(2)
F4 F 0.21287(15) -0.3287(3) 0.36272(14)
F5 F 0.29049(17) -0.3370(3) 0.41224(12)
F6 F 0.23407(18) -0.4458(3) 0.40158(13)
S3 S 0.71511(4) -0.48963(8) 0.30895(4)
O7 O 0.67885(12) -0.4454(2) 0.32515(11)
O8 O 0.69765(12) -0.4881(2) 0.26330(9)
O9 O 0.77117(11) -0.4686(2) 0.33072(10)
C48 C 0.7107(2) -0.6095(3) 0.32110(17)
F7 F 0.73896(12) -0.66101(19) 0.30493(9)
F8 F 0.65949(12) -0.6386(2) 0.30476(12)
F9 F 0.72939(15) -0.6237(2) 0.36227(10)
S4 S 0.53156(5) 0.16973(8) 0.38689(5)
O10 O 0.51982(12) 0.1323(2) 0.42176(11)
O11 O 0.49399(13) 0.2360(2) 0.36186(12)
O12 O 0.54830(15) 0.1039(2) 0.36287(13)
C49 C 0.5923(2) 0.2365(4) 0.4122(2)
F10 F 0.63126(12) 0.1857(2) 0.43773(13)
F11 F 0.60882(13) 0.2756(2) 0.38414(13)
F12 F 0.58214(13) 0.3014(2) 0.43631(11)
N18 N 0.4934(2) -0.3784(3) 0.50173(16)
C50 C 0.4531(2) -0.4162(4) 0.48930(17)
C51 C 0.4018(2) -0.4655(4) 0.47370(17)
H42 H 0.3835 -0.4534 0.4434
H43 H 0.3790 -0.4452 0.4891
H44 H 0.4087 -0.5311 0.4781
N19 N 0.5000 -0.9385(10) 0.2500
C52 C 0.5342(7) -0.8772(10) 0.2655(6)
C53 C 0.5688(4) -0.7984(7) 0.2812(4)
H45 H 0.5608 -0.7706 0.3045
H46 H 0.5621 -0.7539 0.2583
H47 H 0.6067 -0.8175 0.2912
C52F C 0.4658(7) -0.8772(10) 0.2345(6)
C53F C 0.4312(4) -0.7984(7) 0.2188(4)
H45F H 0.4392 -0.7706 0.1955
H46F H 0.4379 -0.7539 0.2417
H47F H 0.3933 -0.8175 0.2088
N1 N 0.40967(14) 0.1596(2) 0.42506(12)
H1 H 0.4389(16) 0.113(3) 0.4299(13)
N2 N 0.35178(13) 0.0399(2) 0.42528(11)
H2 H 0.3179 0.0238 0.4191
N3 N 0.43971(12) -0.0130(2) 0.44144(10)
N4 N 0.52685(12) -0.0552(2) 0.45460(11)
H3 H 0.5309 0.0033 0.4508
N5 N 0.56322(12) -0.1997(2) 0.45239(10)
N6 N 0.59661(12) -0.3461(2) 0.44998(11)
H4 H 0.6251 -0.3818 0.4601
N7 N 0.50406(13) -0.3370(2) 0.41212(11)
H5 H 0.5088(15) -0.275(3) 0.4145(12)
N8 N 0.41381(12) -0.3094(2) 0.37107(11)
H6 H 0.3809 -0.3292 0.3665
N9 N 0.46725(12) -0.1940(2) 0.36054(10)
N10 N 0.52432(12) -0.0834(2) 0.35165(11)
H7 H 0.5292 -0.0247 0.3489
N11 N 0.56011(13) -0.2292(2) 0.34788(11)
H8 H 0.5304(15) -0.252(3) 0.3432(13)
N12 N 0.59084(12) -0.3767(2) 0.34212(11)
H9 H 0.6200 -0.4109 0.3505
N13 N 0.49692(12) -0.3759(2) 0.30793(10)
N14 N 0.40327(13) -0.3765(2) 0.27191(11)
H10 H 0.3742 -0.4085 0.2693
N15 N 0.34088(13) -0.2636(2) 0.24707(11)
N16 N 0.27218(13) -0.1562(2) 0.21916(11)
H11 H 0.2641 -0.0999 0.2100
N17 N 0.23718(14) -0.2943(3) 0.23244(13)
H12 H 0.2646(17) -0.311(3) 0.2448(15)
C1 C 0.42063(18) 0.2501(3) 0.42232(15)
H13 H 0.4566 0.2689 0.4270
C2 C 0.38072(19) 0.3130(3) 0.41296(17)
H14 H 0.3880 0.3760 0.4113
C3 C 0.3277(2) 0.2816(4) 0.40580(17)
H15 H 0.2987 0.3240 0.3985
C4 C 0.31755(18) 0.1919(3) 0.40922(16)
H16 H 0.2818 0.1721 0.4045
C5 C 0.35988(17) 0.1283(3) 0.41972(14)
C6 C 0.38976(16) -0.0308(3) 0.43953(14)
C7 C 0.37389(18) -0.1126(3) 0.45123(15)
H17 H 0.3375 -0.1228 0.4487
C8 C 0.41244(19) -0.1784(3) 0.46657(15)
H18 H 0.4032 -0.2349 0.4760
C9 C 0.46492(17) -0.1637(3) 0.46858(14)
H19 H 0.4918 -0.2095 0.4790
C10 C 0.47690(16) -0.0806(3) 0.45492(13)
C11 C 0.57144(15) -0.1096(3) 0.45950(13)
C12 C 0.62224(16) -0.0702(3) 0.47122(14)
H20 H 0.6269 -0.0061 0.4751
C13 C 0.66603(17) -0.1270(3) 0.47717(14)
H21 H 0.7013 -0.1019 0.4854
C14 C 0.65878(16) -0.2198(3) 0.47127(13)
H22 H 0.6885 -0.2597 0.4758
C15 C 0.60629(16) -0.2527(3) 0.45838(13)
C16 C 0.54916(16) -0.3888(3) 0.42835(13)
C17 C 0.54428(16) -0.4821(3) 0.42163(13)
H23 H 0.5751 -0.5204 0.4322
C18 C 0.49455(17) -0.5183(3) 0.39965(14)
H24 H 0.4911 -0.5825 0.3960
C19 C 0.44900(16) -0.4640(3) 0.38246(14)
H25 H 0.4147 -0.4903 0.3673
C20 C 0.45469(16) -0.3699(3) 0.38796(13)
C21 C 0.41869(16) -0.2190(3) 0.36029(13)
C22 C 0.37504(15) -0.1597(3) 0.34965(13)
H26 H 0.3408 -0.1794 0.3492
C23 C 0.38338(17) -0.0711(3) 0.33982(14)
H27 H 0.3543 -0.0288 0.3323
C24 C 0.43278(16) -0.0434(3) 0.34070(13)
H28 H 0.4390 0.0178 0.3345
C25 C 0.47345(15) -0.1079(3) 0.35096(13)
C26 C 0.56765(16) -0.1375(3) 0.35592(13)
C27 C 0.61863(16) -0.1018(3) 0.36659(14)
H29 H 0.6250 -0.0386 0.3724
C28 C 0.66044(16) -0.1597(3) 0.36869(15)
H30 H 0.6958 -0.1354 0.3759
C29 C 0.65251(16) -0.2515(3) 0.36065(14)
H31 H 0.6820 -0.2901 0.3625
C30 C 0.60081(15) -0.2871(3) 0.34975(13)
C31 C 0.54291(15) -0.4253(3) 0.32338(13)
C32 C 0.54528(17) -0.5191(3) 0.32110(14)
H32 H 0.5787 -0.5505 0.3329
C33 C 0.49815(17) -0.5659(3) 0.30131(14)
H33 H 0.4984 -0.6305 0.2997
C34 C 0.45054(17) -0.5186(3) 0.28386(14)
H34 H 0.4177 -0.5497 0.2693
C35 C 0.45146(15) -0.4239(3) 0.28801(13)
C36 C 0.39374(16) -0.2868(3) 0.25936(13)
C37 C 0.43256(16) -0.2255(3) 0.25767(13)
H35 H 0.4693 -0.2438 0.2659
C38 C 0.41715(17) -0.1369(3) 0.24385(14)
H36 H 0.4434 -0.0937 0.2429
C39 C 0.36378(17) -0.1125(3) 0.23153(14)
H37 H 0.3522 -0.0524 0.2220
C40 C 0.32724(16) -0.1785(3) 0.23341(13)
C41 C 0.22958(16) -0.2092(3) 0.21749(14)
C42 C 0.17647(17) -0.1758(3) 0.20008(14)
H38 H 0.1697 -0.1155 0.1893
C43 C 0.13498(18) -0.2313(4) 0.19894(16)
H39 H 0.0989 -0.2094 0.1869
C44 C 0.14434(18) -0.3196(4) 0.21516(16)
H40 H 0.1151 -0.3579 0.2143
C45 C 0.19586(18) -0.3499(3) 0.23206(15)
H41 H 0.2032 -0.4095 0.2436
loop_
_geom_bond_atom_site_label_1
_geom_bond_atom_site_label_2
_geom_bond_site_symmetry_1
_geom_bond_site_symmetry_2
N1 H1 1_555 1_555
N2 H2 1_555 1_555
N3 C6 1_555 1_555
N4 H3 1_555 1_555
N5 C11 1_555 1_555
N6 H4 1_555 1_555
N7 H5 1_555 1_555
N8 H6 1_555 1_555
N9 C21 1_555 1_555
N10 H7 1_555 1_555
N11 H8 1_555 1_555
N12 H9 1_555 1_555
N13 C31 1_555 1_555
N14 H10 1_555 1_555
N15 C36 1_555 1_555
N16 H11 1_555 1_555
N17 H12 1_555 1_555
C1 N1 1_555 1_555
H13 C1 1_555 1_555
C2 C1 1_555 1_555
H14 C2 1_555 1_555
C3 C2 1_555 1_555
H15 C3 1_555 1_555
C4 C3 1_555 1_555
H16 C4 1_555 1_555
C5 N1 1_555 1_555
C6 N2 1_555 1_555
C7 C6 1_555 1_555
H17 C7 1_555 1_555
C8 C7 1_555 1_555
H18 C8 1_555 1_555
C9 C8 1_555 1_555
H19 C9 1_555 1_555
C10 N3 1_555 1_555
C11 N4 1_555 1_555
C12 C11 1_555 1_555
H20 C12 1_555 1_555
C13 C12 1_555 1_555
H21 C13 1_555 1_555
C14 C13 1_555 1_555
H22 C14 1_555 1_555
C15 N5 1_555 1_555
C16 N6 1_555 1_555
C17 C16 1_555 1_555
H23 C17 1_555 1_555
C18 C17 1_555 1_555
H24 C18 1_555 1_555
C19 C18 1_555 1_555
H25 C19 1_555 1_555
C20 N7 1_555 1_555
C21 N8 1_555 1_555
C22 C21 1_555 1_555
H26 C22 1_555 1_555
C23 C22 1_555 1_555
H27 C23 1_555 1_555
C24 C23 1_555 1_555
H28 C24 1_555 1_555
C25 N9 1_555 1_555
C26 N10 1_555 1_555
C27 C26 1_555 1_555
H29 C27 1_555 1_555
C28 C27 1_555 1_555
H30 C28 1_555 1_555
C29 C28 1_555 1_555
H31 C29 1_555 1_555
C30 N11 1_555 1_555
C31 N12 1_555 1_555
C32 C31 1_555 1_555
H32 C32 1_555 1_555
C33 C32 1_555 1_555
H33 C33 1_555 1_555
C34 C33 1_555 1_555
H34 C34 1_555 1_555
C35 N13 1_555 1_555
C36 N14 1_555 1_555
C37 C36 1_555 1_555
H35 C37 1_555 1_555
C38 C37 1_555 1_555
H36 C38 1_555 1_555
C39 C38 1_555 1_555
H37 C39 1_555 1_555
C40 N15 1_555 1_555
C41 N16 1_555 1_555
C42 C41 1_555 1_555
H38 C42 1_555 1_555
C43 C42 1_555 1_555
H39 C43 1_555 1_555
C44 C43 1_555 1_555
H40 C44 1_555 1_555
C45 N17 1_555 1_555
H41 C45 1_555 1_555
S1 O1 1_555 1_555
S2 O4 1_555 1_555
S3 O7 1_555 1_555
S4 O10 1_555 1_555
O2 S1 1_555 1_555
O3 S1 1_555 1_555
O5 S2 1_555 1_555
O6 S2 1_555 1_555
O8 S3 1_555 1_555
O9 S3 1_555 1_555
O11 S4 1_555 1_555
O12 S4 1_555 1_555
C46 S1 1_555 1_555
C47 S2 1_555 1_555
C48 S3 1_555 1_555
C49 S4 1_555 1_555
F1 C46 1_555 1_555
F2 C46 1_555 1_555
F3 C46 1_555 1_555
F4 C47 1_555 1_555
F5 C47 1_555 1_555
F6 C47 1_555 1_555
F7 C48 1_555 1_555
F8 C48 1_555 1_555
F9 C48 1_555 1_555
F10 C49 1_555 1_555
F11 C49 1_555 1_555
F12 C49 1_555 1_555
N18 C50 1_555 1_555
C50 C51 1_555 1_555
C51 H42 1_555 1_555
H43 C51 1_555 1_555
H44 C51 1_555 1_555
N19 C52 1_555 1_555
C52 C53 1_555 1_555
C53 H45 1_555 1_555
H46 C53 1_555 1_555
H47 C53 1_555 1_555
C52F N19 1_555 1_555
C53F C52F 1_555 1_555
H45F C53F 1_555 1_555
H46F C53F 1_555 1_555
H47F C53F 1_555 1_555
N2 C5 1_555 1_555
N4 C10 1_555 1_555
N6 C15 1_555 1_555
N7 C16 1_555 1_555
N8 C20 1_555 1_555
N10 C25 1_555 1_555
N11 C26 1_555 1_555
N12 C30 1_555 1_555
N14 C35 1_555 1_555
N16 C40 1_555 1_555
N17 C41 1_555 1_555
C4 C5 1_555 1_555
C9 C10 1_555 1_555
C14 C15 1_555 1_555
C19 C20 1_555 1_555
C24 C25 1_555 1_555
C29 C30 1_555 1_555
C34 C35 1_555 1_555
C39 C40 1_555 1_555
C44 C45 1_555 1_555
C52 C52F 1_555 1_555

#END
