
#######################################################################
#
#                 Cambridge Crystallographic Data Centre
#                                CCDC 
#
#######################################################################
#
# If this CIF has been generated from an entry in the Cambridge 
# Structural Database, then it will include bibliographic, chemical, 
# crystal, experimental, refinement or atomic coordinate data resulting 
# from the CCDC's data processing and validation procedures.
#
#######################################################################

data_MAHJIR
_chemical_formula_moiety         'C25 H16 Br1 N1 O1'
_chemical_name_systematic        
(4-Bromophenyl)(4-(9H-carbazol-9-yl)phenyl)methanone
_symmetry_cell_setting           monoclinic
_symmetry_space_group_name_H-M   'P 21/n'
_symmetry_Int_Tables_number      14
_space_group_name_Hall           '-P 2yn'
loop_
_symmetry_equiv_pos_site_id
_symmetry_equiv_pos_as_xyz
1 x,y,z
2 1/2-x,1/2+y,1/2-z
3 -x,-y,-z
4 1/2+x,1/2-y,1/2+z
_cell_length_a                   7.5467(2)
_cell_length_b                   13.2396(5)
_cell_length_c                   18.8573(5)
_cell_angle_alpha                90
_cell_angle_beta                 98.702(3)
_cell_angle_gamma                90
_cell_volume                     1862.44
_cell_formula_units_Z            4
loop_
_atom_site_label
_atom_site_type_symbol
_atom_site_fract_x
_atom_site_fract_y
_atom_site_fract_z
O1 O 1.602299(10) 0.223893(10) 0.683696(10)
N1 N 1.916391(10) -0.216865(10) 0.660455(10)
C1 C 1.821688(10) -0.069016(10) 0.721694(10)
H1 H 1.892830(10) -0.089514(10) 0.763858(10)
C2 C 0.994757(10) 0.189732(10) 0.541575(10)
C3 C 2.097735(10) -0.224402(10) 0.689985(10)
C4 C 1.688702(10) -0.342575(10) 0.601791(10)
H2 H 1.591729(10) -0.298445(10) 0.596713(10)
C5 C 1.695504(10) -0.100842(10) 0.598370(10)
H3 H 1.687379(10) -0.140357(10) 0.557231(10)
C6 C 1.809949(10) -0.128776(10) 0.660250(10)
C7 C 2.21445(1) -0.150596(10) 0.722586(10)
H4 H 2.17586(1) -0.084726(10) 0.728023(10)
C8 C 1.727258(10) 0.020902(10) 0.719841(10)
H5 H 1.740612(10) 0.062448(10) 0.760064(10)
C9 C 1.216503(10) 0.082786(10) 0.606605(10)
H6 H 1.251619(10) 0.019923(10) 0.625797(10)
C10 C 2.33462(1) -0.349755(10) 0.704897(10)
H7 H 2.37495(1) -0.415164(10) 0.699052(10)
C11 C 2.44960(1) -0.277614(10) 0.738620(10)
H8 H 2.56761(1) -0.294740(10) 0.756176(10)
C12 C 2.15675(1) -0.323532(10) 0.679582(10)
C13 C 1.338692(10) 0.162383(10) 0.613324(10)
C14 C 1.859444(10) -0.310823(10) 0.632087(10)
C15 C 1.593749(10) -0.013653(10) 0.598564(10)
H9 H 1.511858(10) 0.002724(10) 0.558242(10)
C16 C 1.981627(10) -0.477609(10) 0.617798(10)
H10 H 2.077870(10) -0.522234(10) 0.622610(10)
C17 C 1.523581(10) 0.151236(10) 0.654565(10)
C18 C 1.113812(10) 0.270101(10) 0.546538(10)
H11 H 1.079538(10) 0.332074(10) 0.525617(10)
C19 C 1.612116(10) 0.049695(10) 0.658041(10)
C20 C 2.005711(10) -0.378360(10) 0.641979(10)
C21 C 2.38984(1) -0.178963(10) 0.746560(10)
H12 H 2.47007(1) -0.131054(10) 0.768548(10)
C22 C 1.042881(10) 0.096521(10) 0.571522(10)
H13 H 0.960315(10) 0.043945(10) 0.568209(10)
C23 C 1.285257(10) 0.255740(10) 0.583481(10)
H14 H 1.365848(10) 0.309332(10) 0.588403(10)
C24 C 1.668394(10) -0.441913(10) 0.579543(10)
H15 H 1.555475(10) -0.464801(10) 0.559341(10)
C25 C 1.813265(10) -0.508908(10) 0.586623(10)
H16 H 1.796076(10) -0.574955(10) 0.570229(10)
Br1 Br 0.759496(10) 0.207111(9) 0.490644(8)
loop_
_geom_bond_atom_site_label_1
_geom_bond_atom_site_label_2
_geom_bond_site_symmetry_1
_geom_bond_site_symmetry_2
O1 C17 1_555 1_555
N1 C3 1_555 1_555
C1 H1 1_555 1_555
C2 C18 1_555 1_555
C3 C7 1_555 1_555
C4 H2 1_555 1_555
C5 H3 1_555 1_555
C6 N1 1_555 1_555
C7 H4 1_555 1_555
C8 C1 1_555 1_555
H5 C8 1_555 1_555
C9 H6 1_555 1_555
C10 H7 1_555 1_555
C11 C10 1_555 1_555
H8 C11 1_555 1_555
C12 C3 1_555 1_555
C13 C9 1_555 1_555
C14 N1 1_555 1_555
C15 C5 1_555 1_555
H9 C15 1_555 1_555
C16 H10 1_555 1_555
C17 C13 1_555 1_555
C18 H11 1_555 1_555
C19 C8 1_555 1_555
C20 C12 1_555 1_555
C21 C7 1_555 1_555
H12 C21 1_555 1_555
C22 C2 1_555 1_555
H13 C22 1_555 1_555
C23 C13 1_555 1_555
H14 C23 1_555 1_555
C24 C4 1_555 1_555
H15 C24 1_555 1_555
C25 C16 1_555 1_555
H16 C25 1_555 1_555
Br1 C2 1_555 1_555
C1 C6 1_555 1_555
C4 C14 1_555 1_555
C5 C6 1_555 1_555
C9 C22 1_555 1_555
C10 C12 1_555 1_555
C11 C21 1_555 1_555
C14 C20 1_555 1_555
C15 C19 1_555 1_555
C16 C20 1_555 1_555
C17 C19 1_555 1_555
C18 C23 1_555 1_555
C24 C25 1_555 1_555

#END
