
#######################################################################
#
#                 Cambridge Crystallographic Data Centre
#                                CCDC 
#
#######################################################################
#
# If this CIF has been generated from an entry in the Cambridge 
# Structural Database, then it will include bibliographic, chemical, 
# crystal, experimental, refinement or atomic coordinate data resulting 
# from the CCDC's data processing and validation procedures.
#
#######################################################################

data_MAHKAK
_chemical_formula_moiety         'C24 H17 N1 O2 S1'
_chemical_name_systematic        9-(4-(Phenylsulfonyl)phenyl)-9H-carbazole
_symmetry_cell_setting           monoclinic
_symmetry_space_group_name_H-M   'P 21/n'
_symmetry_Int_Tables_number      14
_space_group_name_Hall           '-P 2yn'
loop_
_symmetry_equiv_pos_site_id
_symmetry_equiv_pos_as_xyz
1 x,y,z
2 1/2-x,1/2+y,1/2-z
3 -x,-y,-z
4 1/2+x,1/2-y,1/2+z
_cell_length_a                   9.513(2)
_cell_length_b                   11.961(3)
_cell_length_c                   17.047(5)
_cell_angle_alpha                90
_cell_angle_beta                 99.69(3)
_cell_angle_gamma                90
_cell_volume                     1912.02
_exptl_crystal_colour            colorless
_exptl_crystal_description       block
_cell_formula_units_Z            4
loop_
_atom_site_label
_atom_site_type_symbol
_atom_site_fract_x
_atom_site_fract_y
_atom_site_fract_z
S1 S 0.46421(5) -0.25361(4) 0.15698(3)
N1 N 0.56473(17) 0.15763(13) 0.35260(9)
C1 C 0.54257(19) 0.06376(15) 0.30101(10)
O1 O 0.34623(17) -0.30710(13) 0.18407(9)
O2 O 0.59783(17) -0.31221(13) 0.16455(10)
C2 C 0.49674(18) -0.12576(15) 0.20835(10)
C3 C 0.56819(18) 0.33597(17) 0.39983(10)
C4 C 0.49399(19) 0.31505(17) 0.25618(11)
H1 H 0.4744 0.2703 0.2111
C5 C 0.38375(18) -0.05263(16) 0.21234(10)
H2 H 0.2933 -0.0679 0.1841
C6 C 0.40734(18) 0.04227(16) 0.25841(10)
H3 H 0.3330 0.0919 0.2610
C7 C 0.61352(19) 0.15292(17) 0.43464(10)
C8 C 0.6535(2) 0.0607(2) 0.48288(13)
H4 H 0.6546 -0.0108 0.4614
C9 C 0.63238(19) -0.10224(17) 0.24826(12)
H5 H 0.7078 -0.1500 0.2437
C10 C 0.5096(2) 0.49762(18) 0.31841(13)
H6 H 0.4993 0.5747 0.3132
C11 C 0.65524(19) -0.00709(17) 0.29505(12)
H7 H 0.7460 0.0091 0.3224
C12 C 0.4079(2) -0.21825(16) 0.05615(11)
C13 C 0.5535(2) 0.45159(18) 0.39289(12)
H8 H 0.5730 0.4971 0.4376
C14 C 0.4807(2) 0.43020(18) 0.25127(12)
H9 H 0.4516 0.4632 0.2018
C15 C 0.61430(19) 0.26168(17) 0.46581(11)
C16 C 0.6533(2) 0.2778(2) 0.54800(12)
H10 H 0.6544 0.3491 0.5699
C17 C 0.53783(18) 0.26892(16) 0.33116(10)
C18 C 0.6915(2) 0.0786(2) 0.56365(13)
H11 H 0.7186 0.0182 0.5971
C19 C 0.5030(3) -0.1671(2) 0.01464(14)
H12 H 0.5950 -0.1500 0.0398
C20 C 0.3230(3) -0.1693(3) -0.10253(15)
H13 H 0.2945 -0.1533 -0.1562
C21 C 0.6900(2) 0.1855(2) 0.59597(12)
H14 H 0.7141 0.1950 0.6507
C22 C 0.2711(2) -0.24448(19) 0.01941(14)
H15 H 0.2074 -0.2779 0.0480
C23 C 0.4591(3) -0.1417(3) -0.06499(16)
H16 H 0.5214 -0.1060 -0.0934
C24 C 0.2303(3) -0.2203(3) -0.06047(15)
H17 H 0.1389 -0.2388 -0.0859
loop_
_geom_bond_atom_site_label_1
_geom_bond_atom_site_label_2
_geom_bond_site_symmetry_1
_geom_bond_site_symmetry_2
S1 O1 1_555 1_555
N1 C1 1_555 1_555
C1 C6 1_555 1_555
O2 S1 1_555 1_555
C2 S1 1_555 1_555
C3 C13 1_555 1_555
C4 H1 1_555 1_555
C5 C2 1_555 1_555
H2 C5 1_555 1_555
C6 C5 1_555 1_555
H3 C6 1_555 1_555
C7 N1 1_555 1_555
C8 C7 1_555 1_555
H4 C8 1_555 1_555
C9 C2 1_555 1_555
H5 C9 1_555 1_555
C10 H6 1_555 1_555
C11 C1 1_555 1_555
H7 C11 1_555 1_555
C12 S1 1_555 1_555
C13 C10 1_555 1_555
H8 C13 1_555 1_555
C14 C4 1_555 1_555
H9 C14 1_555 1_555
C15 C3 1_555 1_555
C16 C15 1_555 1_555
H10 C16 1_555 1_555
C17 N1 1_555 1_555
C18 C8 1_555 1_555
H11 C18 1_555 1_555
C19 C12 1_555 1_555
H12 C19 1_555 1_555
C20 H13 1_555 1_555
C21 C16 1_555 1_555
H14 C21 1_555 1_555
C22 C12 1_555 1_555
H15 C22 1_555 1_555
C23 C19 1_555 1_555
H16 C23 1_555 1_555
C24 C20 1_555 1_555
H17 C24 1_555 1_555
C3 C17 1_555 1_555
C4 C17 1_555 1_555
C7 C15 1_555 1_555
C9 C11 1_555 1_555
C10 C14 1_555 1_555
C18 C21 1_555 1_555
C20 C23 1_555 1_555
C22 C24 1_555 1_555

#END
