
#######################################################################
#
#                 Cambridge Crystallographic Data Centre
#                                CCDC 
#
#######################################################################
#
# If this CIF has been generated from an entry in the Cambridge 
# Structural Database, then it will include bibliographic, chemical, 
# crystal, experimental, refinement or atomic coordinate data resulting 
# from the CCDC's data processing and validation procedures.
#
#######################################################################

data_MAHKIQ
_chemical_formula_moiety         'C20 H18 N2'
_chemical_name_systematic        
2-(4'-n-Propylphenyl)imidazole(2,1-a)isoquinoline
_symmetry_cell_setting           monoclinic
_symmetry_space_group_name_H-M   'P 21/n'
_symmetry_Int_Tables_number      14
_space_group_name_Hall           '-P 2yn'
loop_
_symmetry_equiv_pos_site_id
_symmetry_equiv_pos_as_xyz
1 x,y,z
2 1/2+x,1/2-y,1/2+z
3 -x,-y,-z
4 1/2-x,1/2+y,1/2-z
_cell_length_a                   7.2177(1)
_cell_length_b                   7.8036(2)
_cell_length_c                   27.429(1)
_cell_angle_alpha                90
_cell_angle_beta                 90.976(3)
_cell_angle_gamma                90
_cell_volume                     1544.69
_exptl_crystal_colour            colorless
_exptl_crystal_description       chunk
_cell_formula_units_Z            4
loop_
_atom_site_label
_atom_site_type_symbol
_atom_site_fract_x
_atom_site_fract_y
_atom_site_fract_z
N1 N 0.5879(4) 0.0890(3) 0.1636(1)
N2 N 0.8752(4) 0.1884(3) 0.16284(9)
C1 C 0.6832(5) 0.2080(4) 0.0868(1)
C2 C 0.8192(5) 0.2796(5) 0.0570(1)
C3 C 0.7756(6) 0.3163(5) 0.0095(1)
C4 C 0.5995(8) 0.2859(6) -0.0093(1)
C5 C 0.4690(6) 0.2158(5) 0.0191(2)
C6 C 0.5076(6) 0.1755(5) 0.0681(1)
C7 C 0.3728(5) 0.0968(5) 0.0990(2)
C8 C 0.4136(5) 0.0573(5) 0.1449(2)
C9 C 0.7239(5) 0.1674(4) 0.1366(1)
C10 C 0.6619(5) 0.0619(4) 0.2087(1)
C11 C 0.8386(4) 0.1229(4) 0.2081(1)
C12 C 0.9768(4) 0.1236(4) 0.2468(1)
C13 C 0.9506(5) 0.0381(4) 0.2910(1)
C14 C 1.0834(5) 0.0388(4) 0.3268(1)
C15 C 1.2498(5) 0.1256(4) 0.3218(1)
C16 C 1.2745(5) 0.2112(4) 0.2782(1)
C17 C 1.1411(5) 0.2104(4) 0.2420(1)
C18 C 1.3937(6) 0.1209(6) 0.3613(1)
C19 C 1.5364(7) 0.2430(7) 0.3625(2)
C20 C 1.6738(6) 0.2391(6) 0.4033(2)
H1 H 0.9396(5) 0.3018(5) 0.0700(1)
H2 H 0.8680(6) 0.3617(5) -0.0112(1)
H3 H 0.5718(8) 0.3153(6) -0.0422(1)
H4 H 0.3488(6) 0.1945(5) 0.0058(2)
H5 H 0.2518(5) 0.0750(5) 0.0863(2)
H6 H 0.3233(5) 0.0058(5) 0.1650(2)
H7 H 0.6024(5) 0.0101(4) 0.2356(1)
H8 H 0.8371(5) -0.0209(4) 0.2957(1)
H9 H 1.0623(5) -0.0221(4) 0.3562(1)
H10 H 1.3874(5) 0.2711(4) 0.2735(1)
H11 H 1.1622(5) 0.2705(4) 0.2125(1)
H12 H 1.3326(6) 0.1301(6) 0.3916(1)
H13 H 1.4533(6) 0.0126(6) 0.3594(1)
H14 H 1.6030(7) 0.2302(7) 0.3331(2)
H15 H 1.4775(7) 0.3518(7) 0.3627(2)
H16 H 1.7366(6) 0.1321(6) 0.4033(2)
H17 H 1.7612(6) 0.3293(6) 0.4002(2)
H18 H 1.6100(6) 0.2521(6) 0.4331(2)
loop_
_geom_bond_atom_site_label_1
_geom_bond_atom_site_label_2
_geom_bond_site_symmetry_1
_geom_bond_site_symmetry_2
N1 C8 1_555 1_555
N2 C9 1_555 1_555
C1 C2 1_555 1_555
C2 C3 1_555 1_555
C3 C4 1_555 1_555
C4 C5 1_555 1_555
C5 C6 1_555 1_555
C6 C1 1_555 1_555
C7 C6 1_555 1_555
C8 C7 1_555 1_555
C9 N1 1_555 1_555
C10 N1 1_555 1_555
C11 N2 1_555 1_555
C12 C11 1_555 1_555
C13 C12 1_555 1_555
C14 C13 1_555 1_555
C15 C14 1_555 1_555
C16 C15 1_555 1_555
C17 C12 1_555 1_555
C18 C15 1_555 1_555
C19 C18 1_555 1_555
C20 C19 1_555 1_555
H1 C2 1_555 1_555
H2 C3 1_555 1_555
H3 C4 1_555 1_555
H4 C5 1_555 1_555
H5 C7 1_555 1_555
H6 C8 1_555 1_555
H7 C10 1_555 1_555
H8 C13 1_555 1_555
H9 C14 1_555 1_555
H10 C16 1_555 1_555
H11 C17 1_555 1_555
H12 C18 1_555 1_555
H13 C18 1_555 1_555
H14 C19 1_555 1_555
H15 C19 1_555 1_555
H16 C20 1_555 1_555
H17 C20 1_555 1_555
H18 C20 1_555 1_555
C1 C9 1_555 1_555
C10 C11 1_555 1_555
C16 C17 1_555 1_555

#END
