
#######################################################################
#
#                 Cambridge Crystallographic Data Centre
#                                CCDC 
#
#######################################################################
#
# If this CIF has been generated from an entry in the Cambridge 
# Structural Database, then it will include bibliographic, chemical, 
# crystal, experimental, refinement or atomic coordinate data resulting 
# from the CCDC's data processing and validation procedures.
#
#######################################################################

data_MAHREU
_chemical_formula_moiety         'C26 H24 N2 O4,0.25(H2 O1)'
_chemical_name_systematic        
'(Z)-3-((2-(Benzoylamino)ethyl)(methyl)amino)-3-oxo-1-phenylprop-1-en-1-yl benzoate hydrate'
_symmetry_cell_setting           triclinic
_symmetry_space_group_name_H-M   'P -1'
_symmetry_Int_Tables_number      2
_space_group_name_Hall           '-P 1'
loop_
_symmetry_equiv_pos_site_id
_symmetry_equiv_pos_as_xyz
1 x,y,z
2 -x,-y,-z
_cell_length_a                   8.5713(16)
_cell_length_b                   10.1403(19)
_cell_length_c                   14.383(3)
_cell_angle_alpha                103.687(3)
_cell_angle_beta                 106.909(3)
_cell_angle_gamma                96.759(4)
_cell_volume                     1138.47
_exptl_crystal_colour            colorless
_exptl_crystal_description       block
_cell_formula_units_Z            2
loop_
_atom_site_label
_atom_site_type_symbol
_atom_site_fract_x
_atom_site_fract_y
_atom_site_fract_z
O1 O 0.9348(8) 0.3187(11) 0.8518(8)
O2 O 0.46405(19) 0.09641(16) 0.41036(13)
O3 O 0.34823(17) 0.34408(14) 0.44307(11)
O4 O 0.11991(18) 0.18469(17) 0.41243(12)
N1 N 0.8010(2) 0.1300(2) 0.72486(17)
H1 H 0.7371 0.0482 0.6975
N2 N 0.7314(2) 0.15643(18) 0.51153(15)
C1 C 0.5706(4) 0.0677(5) 0.8169(2)
H2 H 0.5802 -0.0049 0.7657
C2 C 0.4438(4) 0.0494(5) 0.8576(3)
H3 H 0.3676 -0.0356 0.8339
C3 C 0.4295(6) 0.1566(6) 0.9333(4)
H4 H 0.3437 0.1443 0.9608
C4 C 0.5421(8) 0.2823(5) 0.9683(4)
H5 H 0.5325 0.3548 1.0195
C5 C 0.6690(7) 0.3006(5) 0.9277(4)
H6 H 0.7451 0.3856 0.9514
C6 C 0.6832(5) 0.1933(6) 0.8520(4)
C7 C 0.821(3) 0.218(2) 0.812(3)
C8 C 0.9251(3) 0.1624(3) 0.6796(2)
H7 H 0.9525 0.0761 0.6468
H8 H 1.0266 0.2188 0.7330
C9 C 0.8666(3) 0.2404(2) 0.60148(19)
H9 H 0.8295 0.3222 0.6328
H10 H 0.9606 0.2726 0.5813
C10 C 0.7729(3) 0.0498(3) 0.4401(2)
H11 H 0.6728 0.0009 0.3840
H12 H 0.8209 -0.0151 0.4742
H13 H 0.8527 0.0926 0.4146
C11 C 0.5707(3) 0.1680(2) 0.49034(18)
C12 C 0.5227(3) 0.2654(2) 0.56702(17)
H14 H 0.5787 0.2766 0.6360
C13 C 0.4048(3) 0.3375(2) 0.54323(16)
C14 C 0.3332(2) 0.4196(2) 0.61279(17)
C15 C 0.2573(3) 0.5265(2) 0.5895(2)
H15 H 0.2506 0.5468 0.5281
C16 C 0.1920(3) 0.6027(3) 0.6557(2)
H16 H 0.1406 0.6749 0.6393
C17 C 0.2009(4) 0.5746(3) 0.7456(3)
H17 H 0.1571 0.6282 0.7909
C18 C 0.2741(3) 0.4678(3) 0.7693(2)
H18 H 0.2792 0.4474 0.8304
C19 C 0.3401(3) 0.3908(3) 0.70303(18)
H19 H 0.3903 0.3180 0.7194
C20 C 0.2055(3) 0.2532(2) 0.38078(18)
C21 C 0.1689(3) 0.2525(2) 0.27456(17)
C22 C 0.2641(4) 0.3438(3) 0.2459(2)
H20 H 0.3570 0.4074 0.2949
C23 C 0.2239(5) 0.3425(4) 0.1456(2)
H21 H 0.2890 0.4059 0.1268
C24 C 0.0913(5) 0.2507(4) 0.0740(2)
H22 H 0.0643 0.2506 0.0058
C25 C -0.0029(4) 0.1581(4) 0.1012(2)
H23 H -0.0942 0.0939 0.0514
C26 C 0.0349(3) 0.1581(3) 0.2013(2)
H24 H -0.0303 0.0940 0.2195
O5 O 1.1576(11) 0.4858(9) 0.9613(6)
C27? C 0.5787(5) 0.0240(5) 0.8312(3)
C28? C 0.4540(6) -0.0167(4) 0.8683(3)
C29? C 0.3887(6) 0.0825(7) 0.9217(4)
C30? C 0.4464(16) 0.2189(18) 0.9360(10)
C31? C 0.5746(10) 0.2611(8) 0.9020(6)
C32? C 0.6384(14) 0.1629(10) 0.8465(7)
C33? C 0.771(3) 0.2153(18) 0.808(3)
H25? H 0.6228 -0.0434 0.7953
H26? H 0.4138 -0.1114 0.8573
H27? H 0.3053 0.0554 0.9477
H28? H 0.3988 0.2859 0.9695
H29? H 0.6182 0.3559 0.9165
O6? O 0.8556(10) 0.3319(10) 0.8499(8)
loop_
_geom_bond_atom_site_label_1
_geom_bond_atom_site_label_2
_geom_bond_site_symmetry_1
_geom_bond_site_symmetry_2
O1 C7 1_555 1_555
O2 C11 1_555 1_555
O3 C13 1_555 1_555
O4 C20 1_555 1_555
N1 H1 1_555 1_555
N2 C9 1_555 1_555
C1 H2 1_555 1_555
C2 C1 1_555 1_555
H3 C2 1_555 1_555
C3 C2 1_555 1_555
H4 C3 1_555 1_555
C4 C3 1_555 1_555
H5 C4 1_555 1_555
C5 C4 1_555 1_555
H6 C5 1_555 1_555
C6 C1 1_555 1_555
C7 N1 1_555 1_555
C8 N1 1_555 1_555
H7 C8 1_555 1_555
H8 C8 1_555 1_555
C9 C8 1_555 1_555
H9 C9 1_555 1_555
H10 C9 1_555 1_555
C10 N2 1_555 1_555
H11 C10 1_555 1_555
H12 C10 1_555 1_555
H13 C10 1_555 1_555
C11 N2 1_555 1_555
C12 C11 1_555 1_555
H14 C12 1_555 1_555
C13 C12 1_555 1_555
C14 C13 1_555 1_555
C15 C14 1_555 1_555
H15 C15 1_555 1_555
C16 C15 1_555 1_555
H16 C16 1_555 1_555
C17 C16 1_555 1_555
H17 C17 1_555 1_555
C18 C17 1_555 1_555
H18 C18 1_555 1_555
C19 C14 1_555 1_555
H19 C19 1_555 1_555
C20 O3 1_555 1_555
C21 C20 1_555 1_555
C22 C21 1_555 1_555
H20 C22 1_555 1_555
C23 C22 1_555 1_555
H21 C23 1_555 1_555
C24 C23 1_555 1_555
H22 C24 1_555 1_555
C25 C24 1_555 1_555
H23 C25 1_555 1_555
C26 C21 1_555 1_555
H24 C26 1_555 1_555
C5 C6 1_555 1_555
C6 C7 1_555 1_555
C18 C19 1_555 1_555
C25 C26 1_555 1_555

#END
