
#######################################################################
#
#                 Cambridge Crystallographic Data Centre
#                                CCDC 
#
#######################################################################
#
# If this CIF has been generated from an entry in the Cambridge 
# Structural Database, then it will include bibliographic, chemical, 
# crystal, experimental, refinement or atomic coordinate data resulting 
# from the CCDC's data processing and validation procedures.
#
#######################################################################

data_MAHTEX
_chemical_formula_moiety         'C50 H68 O4'
_chemical_name_systematic        
1-(hexyloxy)-4-(tris(4-(hexyloxy)phenyl)vinyl)benzene
_symmetry_cell_setting           triclinic
_symmetry_space_group_name_H-M   'P -1'
_symmetry_Int_Tables_number      2
_space_group_name_Hall           '-P 1'
loop_
_symmetry_equiv_pos_site_id
_symmetry_equiv_pos_as_xyz
1 x,y,z
2 -x,-y,-z
_cell_length_a                   9.1934(4)
_cell_length_b                   13.5122(5)
_cell_length_c                   18.2252(9)
_cell_angle_alpha                76.830(4)
_cell_angle_beta                 75.995(4)
_cell_angle_gamma                86.625(3)
_cell_volume                     2138.9
_exptl_crystal_colour            colorless
_exptl_crystal_description       block
_cell_formula_units_Z            2
_exptl_crystal_preparation       Luminescent
loop_
_atom_site_label
_atom_site_type_symbol
_atom_site_fract_x
_atom_site_fract_y
_atom_site_fract_z
O1 O 0.8066(2) 0.26230(16) 0.11140(11)
O2 O 0.8894(2) -0.29129(15) 0.32280(12)
O3 O 0.7351(2) 0.49081(14) 0.55297(11)
O4 O 0.6577(2) -0.06635(16) 0.80388(11)
C1 C 0.6104(4) 0.2865(3) -0.26667(19)
H1 H 0.7091 0.2664 -0.2907
H2 H 0.6050 0.3593 -0.2753
H3 H 0.5381 0.2626 -0.2887
C2 C 0.5773(4) 0.2412(2) -0.18055(17)
H4 H 0.5798 0.1677 -0.1723
H5 H 0.4768 0.2609 -0.1569
C3 C 0.6875(4) 0.2744(2) -0.14043(16)
H6 H 0.7862 0.2479 -0.1598
H7 H 0.6934 0.3480 -0.1534
C4 C 0.6435(3) 0.2382(2) -0.05297(16)
H8 H 0.6362 0.1646 -0.0403
H9 H 0.5450 0.2651 -0.0338
C5 C 0.7530(3) 0.2694(2) -0.01125(16)
H10 H 0.8531 0.2461 -0.0320
H11 H 0.7551 0.3429 -0.0202
C6 C 0.7067(3) 0.2244(2) 0.07502(16)
H12 H 0.6044 0.2438 0.0957
H13 H 0.7124 0.1508 0.0848
C7 C 0.7887(3) 0.2271(2) 0.18954(15)
C8 C 0.8842(3) 0.2689(2) 0.22333(15)
H14 H 0.9545 0.3173 0.1929
C9 C 0.8742(3) 0.2382(2) 0.30213(15)
H15 H 0.9377 0.2671 0.3241
C10 C 0.7707(3) 0.16429(18) 0.34992(14)
C11 C 0.6748(3) 0.12504(19) 0.31512(15)
H16 H 0.6039 0.0770 0.3456
C12 C 0.6822(3) 0.1556(2) 0.23612(15)
H17 H 0.6164 0.1285 0.2144
C13 C 0.8642(7) -0.4084(5) -0.0089(3)
H18 H 0.8394 -0.3586 -0.0509
H19 H 0.8142 -0.4711 -0.0033
H20 H 0.9706 -0.4195 -0.0196
C14 C 0.8135(6) -0.3702(4) 0.0663(3)
H21 H 0.8492 -0.3012 0.0563
H22 H 0.7048 -0.3677 0.0795
C15 C 0.8652(5) -0.4324(3) 0.1364(3)
H23 H 0.8256 -0.5007 0.1489
H24 H 0.9738 -0.4371 0.1236
C16 C 0.8143(5) -0.3857(3) 0.2058(2)
H25 H 0.7061 -0.3788 0.2159
H26 H 0.8555 -0.3177 0.1920
C17 C 0.8553(4) -0.4421(2) 0.2829(2)
H27 H 0.8101 -0.5090 0.3000
H28 H 0.9631 -0.4504 0.2746
C18 C 0.7983(4) -0.3809(2) 0.34465(18)
H29 H 0.6939 -0.3625 0.3473
H30 H 0.8070 -0.4203 0.3950
C19 C 0.8470(3) -0.21545(19) 0.36206(15)
C20 C 0.9403(3) -0.1306(2) 0.33716(16)
H31 H 1.0240 -0.1286 0.2962
C21 C 0.9089(3) -0.04965(19) 0.37315(15)
H32 H 0.9722 0.0063 0.3560
C22 C 0.7836(3) -0.05010(18) 0.43494(14)
C23 C 0.6927(3) -0.13515(19) 0.45901(15)
H33 H 0.6098 -0.1374 0.5004
C24 C 0.7215(3) -0.2175(2) 0.42322(16)
H34 H 0.6576 -0.2732 0.4400
C25 C 0.7614(3) 0.13523(19) 0.43487(14)
C26 C 0.7550(3) 0.03620(18) 0.47555(14)
C27 C 0.7580(3) 0.22540(18) 0.46972(14)
C28 C 0.6560(3) 0.30386(19) 0.45395(15)
H35 H 0.5912 0.2977 0.4232
C29 C 0.6499(3) 0.3901(2) 0.48311(15)
H36 H 0.5800 0.4407 0.4727
C30 C 0.7480(3) 0.40155(19) 0.52804(15)
C31 C 0.8521(3) 0.32512(19) 0.54349(14)
H37 H 0.9188 0.3322 0.5730
C32 C 0.8553(3) 0.23795(19) 0.51433(14)
H38 H 0.9244 0.1869 0.5251
C33 C 0.8408(3) 0.5107(2) 0.59419(16)
H39 H 0.9424 0.5074 0.5635
H40 H 0.8306 0.4610 0.6428
C34 C 0.8067(4) 0.6162(2) 0.60916(17)
H41 H 0.8015 0.6628 0.5608
H42 H 0.8886 0.6378 0.6268
C35 C 0.6600(4) 0.6235(2) 0.66930(17)
H43 H 0.6266 0.6937 0.6620
H44 H 0.5840 0.5838 0.6604
C36 C 0.6741(4) 0.5861(2) 0.75262(17)
H45 H 0.7386 0.6319 0.7640
H46 H 0.7212 0.5195 0.7581
C37 C 0.5224(5) 0.5792(3) 0.8115(2)
H47 H 0.4713 0.6441 0.8026
H48 H 0.4615 0.5287 0.8029
C38 C 0.5348(6) 0.5512(3) 0.8957(2)
H49 H 0.6019 0.5973 0.9037
H50 H 0.5726 0.4831 0.9071
H51 H 0.4376 0.5556 0.9292
C39 C 0.7254(3) 0.00695(18) 0.56197(14)
C40 C 0.6318(3) 0.06381(19) 0.61043(15)
H52 H 0.5826 0.1208 0.5883
C41 C 0.6108(3) 0.0372(2) 0.68997(15)
H53 H 0.5488 0.0767 0.7205
C42 C 0.6817(3) -0.0481(2) 0.72480(15)
C43 C 0.7681(3) -0.1089(2) 0.67894(16)
H54 H 0.8112 -0.1683 0.7017
C44 C 0.7902(3) -0.08090(19) 0.59866(15)
H55 H 0.8497 -0.1218 0.5685
C45 C 0.7507(4) -0.1399(2) 0.84113(18)
H56 H 0.8529 -0.1351 0.8101
H57 H 0.7143 -0.2079 0.8473
C46 C 0.7454(4) -0.1181(3) 0.91944(19)
H58 H 0.7942 -0.1733 0.9489
H59 H 0.6416 -0.1155 0.9474
C47 C 0.8222(4) -0.0171(3) 0.9136(2)
H60 H 0.7772 0.0371 0.8812
H61 H 0.8018 -0.0029 0.9650
C48 C 0.9923(4) -0.0149(3) 0.8806(2)
H62 H 1.0376 -0.0688 0.9131
H63 H 1.0129 -0.0292 0.8293
C49 C 1.0671(5) 0.0857(3) 0.8749(3)
H64 H 1.0201 0.1400 0.8437
H65 H 1.0494 0.0991 0.9264
C50 C 1.2306(4) 0.0874(3) 0.8408(3)
H66 H 1.2498 0.0689 0.7915
H67 H 1.2797 0.0399 0.8749
H68 H 1.2683 0.1545 0.8339
loop_
_geom_bond_atom_site_label_1
_geom_bond_atom_site_label_2
_geom_bond_site_symmetry_1
_geom_bond_site_symmetry_2
O1 C6 1_555 1_555
O2 C18 1_555 1_555
O3 C30 1_555 1_555
O4 C42 1_555 1_555
C1 H1 1_555 1_555
H2 C1 1_555 1_555
H3 C1 1_555 1_555
C2 C1 1_555 1_555
H4 C2 1_555 1_555
H5 C2 1_555 1_555
C3 C2 1_555 1_555
H6 C3 1_555 1_555
H7 C3 1_555 1_555
C4 C3 1_555 1_555
H8 C4 1_555 1_555
H9 C4 1_555 1_555
C5 C4 1_555 1_555
H10 C5 1_555 1_555
H11 C5 1_555 1_555
C6 C5 1_555 1_555
H12 C6 1_555 1_555
H13 C6 1_555 1_555
C7 O1 1_555 1_555
C8 C7 1_555 1_555
H14 C8 1_555 1_555
C9 C8 1_555 1_555
H15 C9 1_555 1_555
C10 C9 1_555 1_555
C11 C10 1_555 1_555
H16 C11 1_555 1_555
C12 C7 1_555 1_555
H17 C12 1_555 1_555
C13 H18 1_555 1_555
H19 C13 1_555 1_555
H20 C13 1_555 1_555
C14 C13 1_555 1_555
H21 C14 1_555 1_555
H22 C14 1_555 1_555
C15 C14 1_555 1_555
H23 C15 1_555 1_555
H24 C15 1_555 1_555
C16 C15 1_555 1_555
H25 C16 1_555 1_555
H26 C16 1_555 1_555
C17 C16 1_555 1_555
H27 C17 1_555 1_555
H28 C17 1_555 1_555
C18 C17 1_555 1_555
H29 C18 1_555 1_555
H30 C18 1_555 1_555
C19 O2 1_555 1_555
C20 C19 1_555 1_555
H31 C20 1_555 1_555
C21 C20 1_555 1_555
H32 C21 1_555 1_555
C22 C21 1_555 1_555
C23 C22 1_555 1_555
H33 C23 1_555 1_555
C24 C19 1_555 1_555
H34 C24 1_555 1_555
C25 C10 1_555 1_555
C26 C22 1_555 1_555
C27 C25 1_555 1_555
C28 C27 1_555 1_555
H35 C28 1_555 1_555
C29 C28 1_555 1_555
H36 C29 1_555 1_555
C30 C29 1_555 1_555
C31 C30 1_555 1_555
H37 C31 1_555 1_555
C32 C27 1_555 1_555
H38 C32 1_555 1_555
C33 O3 1_555 1_555
H39 C33 1_555 1_555
H40 C33 1_555 1_555
C34 C33 1_555 1_555
H41 C34 1_555 1_555
H42 C34 1_555 1_555
C35 C34 1_555 1_555
H43 C35 1_555 1_555
H44 C35 1_555 1_555
C36 C35 1_555 1_555
H45 C36 1_555 1_555
H46 C36 1_555 1_555
C37 C36 1_555 1_555
H47 C37 1_555 1_555
H48 C37 1_555 1_555
C38 C37 1_555 1_555
H49 C38 1_555 1_555
H50 C38 1_555 1_555
H51 C38 1_555 1_555
C39 C26 1_555 1_555
C40 C39 1_555 1_555
H52 C40 1_555 1_555
C41 C40 1_555 1_555
H53 C41 1_555 1_555
C42 C41 1_555 1_555
C43 C42 1_555 1_555
H54 C43 1_555 1_555
C44 C39 1_555 1_555
H55 C44 1_555 1_555
C45 O4 1_555 1_555
H56 C45 1_555 1_555
H57 C45 1_555 1_555
C46 C45 1_555 1_555
H58 C46 1_555 1_555
H59 C46 1_555 1_555
C47 C46 1_555 1_555
H60 C47 1_555 1_555
H61 C47 1_555 1_555
C48 C47 1_555 1_555
H62 C48 1_555 1_555
H63 C48 1_555 1_555
C49 C48 1_555 1_555
H64 C49 1_555 1_555
H65 C49 1_555 1_555
C50 C49 1_555 1_555
H66 C50 1_555 1_555
H67 C50 1_555 1_555
H68 C50 1_555 1_555
C11 C12 1_555 1_555
C23 C24 1_555 1_555
C25 C26 1_555 1_555
C31 C32 1_555 1_555
C43 C44 1_555 1_555

#END
