
#######################################################################
#
#                 Cambridge Crystallographic Data Centre
#                                CCDC 
#
#######################################################################
#
# If this CIF has been generated from an entry in the Cambridge 
# Structural Database, then it will include bibliographic, chemical, 
# crystal, experimental, refinement or atomic coordinate data resulting 
# from the CCDC's data processing and validation procedures.
#
#######################################################################

data_MAHTOG
_chemical_name_common            't-Butyl N-(9-phenyl-9H-fluoren-9-yl)alaninate'
_chemical_formula_moiety         'C26 H27 N1 O2'
_chemical_name_systematic        
'(S)-t-Butyl 2-(9-phenyl-9H-fluoren-9-yl)alaninate'
_symmetry_cell_setting           orthorhombic
_symmetry_space_group_name_H-M   'P 21 21 21'
_symmetry_Int_Tables_number      19
_space_group_name_Hall           'P 2ac 2ab'
loop_
_symmetry_equiv_pos_site_id
_symmetry_equiv_pos_as_xyz
1 x,y,z
2 1/2-x,-y,1/2+z
3 -x,1/2+y,1/2-z
4 1/2+x,1/2-y,-z
_cell_length_a                   9.0028(3)
_cell_length_b                   9.4284(3)
_cell_length_c                   25.0491(8)
_cell_angle_alpha                90
_cell_angle_beta                 90
_cell_angle_gamma                90
_cell_volume                     2126.22
_exptl_crystal_colour            colorless
_exptl_crystal_description       blocks
_chemical_melting_point          '114 deg.C'
_cell_formula_units_Z            4
loop_
_atom_site_label
_atom_site_type_symbol
_atom_site_fract_x
_atom_site_fract_y
_atom_site_fract_z
C1 C 0.9227(2) 0.3019(2) 0.86567(9)
C2 C 0.9138(2) 0.4560(2) 0.84695(9)
C3 C 0.9750(3) 0.5755(2) 0.87053(10)
H1 H 1.0221 0.5693 0.9044
C4 C 0.9664(3) 0.7047(2) 0.84380(10)
H2 H 1.0076 0.7875 0.8595
C5 C 0.8974(3) 0.7127(3) 0.79412(10)
H3 H 0.8951 0.8006 0.7756
C6 C 0.8324(3) 0.5947(2) 0.77143(10)
H4 H 0.7829 0.6014 0.7380
C7 C 0.8405(2) 0.4662(2) 0.79821(9)
C8 C 0.7833(2) 0.3250(2) 0.78349(9)
C9 C 0.6930(3) 0.2825(3) 0.74177(9)
H5 H 0.6629 0.3481 0.7151
C10 C 0.6472(3) 0.1416(3) 0.73971(10)
H6 H 0.5843 0.1111 0.7115
C11 C 0.6920(3) 0.0455(3) 0.77814(9)
H7 H 0.6595 -0.0502 0.7761
C12 C 0.7847(2) 0.0876(2) 0.81997(10)
H8 H 0.8167 0.0212 0.8461
C13 C 0.8293(2) 0.2282(2) 0.82264(8)
C14 C 1.0845(2) 0.2474(2) 0.86494(8)
C15 C 1.1167(3) 0.1175(2) 0.88840(10)
H9 H 1.0394 0.0645 0.9048
C16 C 1.2605(3) 0.0640(3) 0.88815(10)
H10 H 1.2806 -0.0250 0.9044
C17 C 1.3743(2) 0.1392(3) 0.86454(10)
H11 H 1.4726 0.1025 0.8643
C18 C 1.3436(2) 0.2682(2) 0.84133(9)
H12 H 1.4212 0.3211 0.8251
C19 C 1.2000(2) 0.3214(2) 0.84146(9)
H13 H 1.1806 0.4104 0.8251
C20 C 0.7083(2) 0.3086(2) 0.92842(9)
H14 H 0.6517 0.2941 0.8945
C21 C 0.6416(3) 0.2130(3) 0.97138(9)
H15 H 0.6533 0.1135 0.9609
H16 H 0.5358 0.2348 0.9755
H17 H 0.6929 0.2294 1.0053
C22 C 0.6875(3) 0.4616(2) 0.94629(9)
C23 C 0.4940(3) 0.6469(2) 0.94707(10)
C24 C 0.5860(3) 0.7642(3) 0.92255(12)
H18 H 0.5865 0.7538 0.8836
H19 H 0.6880 0.7586 0.9360
H20 H 0.5431 0.8563 0.9321
C25 C 0.3382(3) 0.6435(3) 0.92372(11)
H21 H 0.2808 0.5679 0.9409
H22 H 0.3440 0.6256 0.8852
H23 H 0.2894 0.7349 0.9300
C26 C 0.4863(3) 0.6559(3) 1.00764(10)
H24 H 0.4244 0.5785 1.0213
H25 H 0.4429 0.7471 1.0181
H26 H 0.5866 0.6480 1.0225
N1 N 0.86272(19) 0.26964(19) 0.91912(7)
H27 H 0.915(2) 0.312(2) 0.9440(7)
O1 O 0.77604(16) 0.52681(16) 0.97336(6)
O2 O 0.55401(16) 0.50847(15) 0.93043(6)
loop_
_geom_bond_atom_site_label_1
_geom_bond_atom_site_label_2
_geom_bond_site_symmetry_1
_geom_bond_site_symmetry_2
C1 C2 1_555 1_555
C2 C3 1_555 1_555
C3 H1 1_555 1_555
C4 C3 1_555 1_555
H2 C4 1_555 1_555
C5 C4 1_555 1_555
H3 C5 1_555 1_555
C6 C5 1_555 1_555
H4 C6 1_555 1_555
C7 C2 1_555 1_555
C8 C7 1_555 1_555
C9 C8 1_555 1_555
H5 C9 1_555 1_555
C10 C9 1_555 1_555
H6 C10 1_555 1_555
C11 C10 1_555 1_555
H7 C11 1_555 1_555
C12 C11 1_555 1_555
H8 C12 1_555 1_555
C13 C1 1_555 1_555
C14 C1 1_555 1_555
C15 C14 1_555 1_555
H9 C15 1_555 1_555
C16 C15 1_555 1_555
H10 C16 1_555 1_555
C17 C16 1_555 1_555
H11 C17 1_555 1_555
C18 C17 1_555 1_555
H12 C18 1_555 1_555
C19 C14 1_555 1_555
H13 C19 1_555 1_555
C20 H14 1_555 1_555
C21 C20 1_555 1_555
H15 C21 1_555 1_555
H16 C21 1_555 1_555
H17 C21 1_555 1_555
C22 C20 1_555 1_555
C23 C24 1_555 1_555
C24 H18 1_555 1_555
H19 C24 1_555 1_555
H20 C24 1_555 1_555
C25 C23 1_555 1_555
H21 C25 1_555 1_555
H22 C25 1_555 1_555
H23 C25 1_555 1_555
C26 C23 1_555 1_555
H24 C26 1_555 1_555
H25 C26 1_555 1_555
H26 C26 1_555 1_555
N1 C1 1_555 1_555
H27 N1 1_555 1_555
O1 C22 1_555 1_555
O2 C22 1_555 1_555
C6 C7 1_555 1_555
C8 C13 1_555 1_555
C12 C13 1_555 1_555
C18 C19 1_555 1_555
C20 N1 1_555 1_555
C23 O2 1_555 1_555

#END
