
#######################################################################
#
#                 Cambridge Crystallographic Data Centre
#                                CCDC 
#
#######################################################################
#
# If this CIF has been generated from an entry in the Cambridge 
# Structural Database, then it will include bibliographic, chemical, 
# crystal, experimental, refinement or atomic coordinate data resulting 
# from the CCDC's data processing and validation procedures.
#
#######################################################################

data_MAHVEY
_chemical_formula_moiety         'C15 H16 Cl1 N1 O2'
_chemical_name_systematic        
2-((4-Chlorophenyl)amino)-1-(4-methoxyphenyl)ethanol
_symmetry_cell_setting           monoclinic
_symmetry_space_group_name_H-M   'P 21'
_symmetry_Int_Tables_number      4
_space_group_name_Hall           'P 2yb'
loop_
_symmetry_equiv_pos_site_id
_symmetry_equiv_pos_as_xyz
1 x,y,z
2 -x,1/2+y,-z
_cell_length_a                   5.822(2)
_cell_length_b                   7.496(3)
_cell_length_c                   15.729(6)
_cell_angle_alpha                90
_cell_angle_beta                 96.681(9)
_cell_angle_gamma                90
_cell_volume                     681.779
_exptl_crystal_colour            colorless
_exptl_crystal_description       block
_cell_formula_units_Z            2
_exptl_crystal_recrystallization_method 'ethyl acetate/petroleum ether'
loop_
_atom_site_label
_atom_site_type_symbol
_atom_site_fract_x
_atom_site_fract_y
_atom_site_fract_z
Cl1 Cl -0.1983(3) 0.2459(2) 0.10570(9)
O1 O 0.6918(5) 0.3937(5) 0.5457(2)
H1 H 0.7008 0.2878 0.5587
O2 O 0.4616(6) 0.2941(6) 0.9243(2)
N1 N 0.3238(8) 0.5021(6) 0.4281(3)
H2 H 0.472(10) 0.497(7) 0.420(3)
C1 C -0.0215(8) 0.3559(6) 0.3532(3)
H3 H -0.0850 0.3396 0.4043
C2 C -0.1394(8) 0.2987(6) 0.2768(3)
H4 H -0.2818 0.2424 0.2770
C3 C -0.0511(8) 0.3231(6) 0.2009(3)
C4 C 0.1595(8) 0.4093(7) 0.1999(3)
H5 H 0.2191 0.4284 0.1484
C5 C 0.2793(8) 0.4661(6) 0.2750(3)
H6 H 0.4200 0.5243 0.2739
C6 C 0.1937(8) 0.4384(6) 0.3534(3)
C7 C 0.2791(7) 0.4318(6) 0.5116(3)
H7 H 0.2513 0.3043 0.5077
H8 H 0.1433 0.4886 0.5298
C8 C 0.4891(8) 0.4697(7) 0.5758(3)
H9 H 0.5109 0.5994 0.5767
C9 C 0.4691(7) 0.4136(6) 0.6665(3)
C10 C 0.6522(8) 0.4553(7) 0.7288(3)
H10 H 0.7828 0.5115 0.7126
C11 C 0.6428(8) 0.4150(7) 0.8132(3)
H11 H 0.7660 0.4449 0.8537
C12 C 0.4487(8) 0.3291(7) 0.8388(3)
C13 C 0.2665(8) 0.2903(6) 0.7787(3)
H12 H 0.1359 0.2347 0.7951
C14 C 0.2754(8) 0.3335(6) 0.6925(3)
H13 H 0.1495 0.3081 0.6524
C15 C 0.2619(9) 0.2336(11) 0.9573(3)
H14 H 0.1348 0.3111 0.9386
H15 H 0.2878 0.2337 1.0187
H16 H 0.2266 0.1147 0.9373
loop_
_geom_bond_atom_site_label_1
_geom_bond_atom_site_label_2
_geom_bond_site_symmetry_1
_geom_bond_site_symmetry_2
Cl1 C3 1_555 1_555
O1 H1 1_555 1_555
O2 C12 1_555 1_555
N1 H2 1_555 1_555
C1 H3 1_555 1_555
C2 C1 1_555 1_555
H4 C2 1_555 1_555
C3 C2 1_555 1_555
C4 C3 1_555 1_555
H5 C4 1_555 1_555
C5 C4 1_555 1_555
H6 C5 1_555 1_555
C6 N1 1_555 1_555
C7 N1 1_555 1_555
H7 C7 1_555 1_555
H8 C7 1_555 1_555
C8 O1 1_555 1_555
H9 C8 1_555 1_555
C9 C8 1_555 1_555
C10 C9 1_555 1_555
H10 C10 1_555 1_555
C11 C10 1_555 1_555
H11 C11 1_555 1_555
C12 C11 1_555 1_555
C13 C12 1_555 1_555
H12 C13 1_555 1_555
C14 C9 1_555 1_555
H13 C14 1_555 1_555
C15 O2 1_555 1_555
H14 C15 1_555 1_555
H15 C15 1_555 1_555
H16 C15 1_555 1_555
C1 C6 1_555 1_555
C5 C6 1_555 1_555
C7 C8 1_555 1_555
C13 C14 1_555 1_555

#END
