
#######################################################################
#
#                 Cambridge Crystallographic Data Centre
#                                CCDC 
#
#######################################################################
#
# If this CIF has been generated from an entry in the Cambridge 
# Structural Database, then it will include bibliographic, chemical, 
# crystal, experimental, refinement or atomic coordinate data resulting 
# from the CCDC's data processing and validation procedures.
#
#######################################################################

data_MAHWOK
_chemical_formula_moiety         'C30 H22'
_chemical_name_systematic        
9-(2-(4-(2-phenylvinyl)phenyl)vinyl)anthracene
_symmetry_cell_setting           triclinic
_symmetry_space_group_name_H-M   'P -1'
_symmetry_Int_Tables_number      2
_space_group_name_Hall           '-P 1'
loop_
_symmetry_equiv_pos_site_id
_symmetry_equiv_pos_as_xyz
1 x,y,z
2 -x,-y,-z
_cell_length_a                   9.3498(16)
_cell_length_b                   9.4481(18)
_cell_length_c                   24.396(2)
_cell_angle_alpha                89.902(12)
_cell_angle_beta                 81.207(12)
_cell_angle_gamma                76.231(16)
_cell_volume                     2067.21
_exptl_crystal_colour            yellow
_cell_formula_units_Z            4
loop_
_atom_site_label
_atom_site_type_symbol
_atom_site_fract_x
_atom_site_fract_y
_atom_site_fract_z
C1 C 0.7384(7) 0.4174(8) 0.1418(2)
C2 C 0.6232(8) 0.3457(10) 0.1606(3)
H1 H 0.6134 0.3155 0.1970
C3 C 0.5278(8) 0.3197(10) 0.1280(3)
H2 H 0.4576 0.2676 0.1411
C4 C 0.5354(8) 0.3727(9) 0.0733(3)
H3 H 0.4667 0.3594 0.0511
C5 C 0.6414(7) 0.4417(8) 0.0534(3)
H4 H 0.6463 0.4736 0.0172
C6 C 0.7463(7) 0.4670(7) 0.0864(2)
C7 C 0.8543(7) 0.5401(7) 0.0663(2)
H5 H 0.8578 0.5730 0.0303
C8 C 0.9581(6) 0.5665(7) 0.0981(2)
C9 C 1.0703(8) 0.6386(8) 0.0767(3)
H6 H 1.0726 0.6736 0.0410
C10 C 1.1732(8) 0.6573(9) 0.1069(3)
H7 H 1.2457 0.7054 0.0922
C11 C 1.1711(8) 0.6026(9) 0.1621(3)
H8 H 1.2433 0.6145 0.1828
C12 C 1.0666(7) 0.5352(9) 0.1837(3)
H9 H 1.0678 0.5004 0.2194
C13 C 0.9532(7) 0.5150(7) 0.1537(2)
C14 C 0.8403(7) 0.4414(8) 0.1751(2)
C15 C 0.8346(8) 0.3799(10) 0.2315(3)
H10 H 0.8647 0.2787 0.2312
C16 C 0.7989(7) 0.4356(9) 0.2770(2)
H11 H 0.7703 0.5369 0.2770
C17 C 0.7908(6) 0.3767(7) 0.3331(2)
C18 C 0.8455(6) 0.2292(7) 0.3448(2)
H12 H 0.8901 0.1621 0.3157
C19 C 0.8343(6) 0.1826(7) 0.3982(2)
H13 H 0.8708 0.0845 0.4045
C20 C 0.7694(6) 0.2790(7) 0.4433(2)
C21 C 0.7165(7) 0.4236(7) 0.4314(2)
H14 H 0.6728 0.4911 0.4604
C22 C 0.7269(7) 0.4701(7) 0.3777(2)
H15 H 0.6892 0.5682 0.3716
C23 C 0.7644(7) 0.2166(9) 0.4994(3)
H16 H 0.8048 0.1168 0.5003
C24 C 0.7135(8) 0.2803(9) 0.5452(3)
H17 H 0.6728 0.3800 0.5442
C25 C 0.7087(7) 0.2189(8) 0.6014(3)
C26 C 0.7650(7) 0.0744(8) 0.6137(3)
H18 H 0.8126 0.0069 0.5850
C27 C 0.7513(7) 0.0290(8) 0.6680(3)
H19 H 0.7891 -0.0681 0.6756
C28 C 0.6813(7) 0.1290(8) 0.7107(3)
H20 H 0.6709 0.0997 0.7472
C29 C 0.6275(7) 0.2709(8) 0.6989(3)
H21 H 0.5808 0.3385 0.7276
C30 C 0.6415(7) 0.3150(7) 0.6452(3)
H22 H 0.6045 0.4126 0.6383
C31 C 0.0350(6) -0.0147(6) 0.8495(2)
C32 C -0.0799(7) -0.0419(7) 0.8220(3)
H23 H -0.0858 -0.0086 0.7863
C33 C -0.1804(8) -0.1139(9) 0.8454(3)
H24 H -0.2530 -0.1306 0.8259
C34 C -0.1751(8) -0.1643(8) 0.9004(3)
H25 H -0.2461 -0.2117 0.9170
C35 C -0.0678(8) -0.1435(8) 0.9282(3)
H26 H -0.0645 -0.1793 0.9636
C36 C 0.0412(7) -0.0677(7) 0.9048(2)
C37 C 0.1491(7) -0.0440(7) 0.9338(2)
H27 H 0.1515 -0.0783 0.9695
C38 C 0.2548(6) 0.0304(7) 0.9108(2)
C39 C 0.3652(7) 0.0547(8) 0.9415(3)
H28 H 0.3673 0.0192 0.9771
C40 C 0.4673(7) 0.1287(9) 0.9199(3)
H29 H 0.5403 0.1413 0.9401
C41 C 0.4622(7) 0.1868(8) 0.8664(3)
H30 H 0.5294 0.2410 0.8522
C42 C 0.3590(7) 0.1633(7) 0.8357(2)
H31 H 0.3579 0.2014 0.8006
C43 C 0.2531(6) 0.0821(7) 0.8560(2)
C44 C 0.1441(6) 0.0581(7) 0.8256(2)
C45 C 0.1346(7) 0.1094(7) 0.7682(2)
H32 H 0.0414 0.1617 0.7618
C46 C 0.2413(6) 0.0898(7) 0.7261(2)
H33 H 0.3355 0.0405 0.7326
C47 C 0.2285(6) 0.1374(6) 0.6692(2)
C48 C 0.3550(6) 0.1071(6) 0.6295(2)
H34 H 0.4459 0.0610 0.6399
C49 C 0.3501(6) 0.1438(7) 0.5747(2)
H35 H 0.4374 0.1212 0.5491
C50 C 0.2180(6) 0.2131(7) 0.5575(2)
C51 C 0.0903(6) 0.2430(7) 0.5967(2)
H36 H -0.0004 0.2888 0.5862
C52 C 0.0955(7) 0.2059(7) 0.6513(2)
H37 H 0.0078 0.2273 0.6768
C53 C 0.2055(7) 0.2586(7) 0.4999(2)
H38 H 0.1097 0.2939 0.4917
C54 C 0.3153(7) 0.2539(7) 0.4595(2)
H39 H 0.4107 0.2203 0.4682
C55 C 0.3065(7) 0.2955(6) 0.4018(2)
C56 C 0.4365(6) 0.2643(7) 0.3642(2)
H40 H 0.5262 0.2225 0.3763
C57 C 0.4357(7) 0.2938(8) 0.3094(3)
H41 H 0.5251 0.2704 0.2849
C58 C 0.3075(7) 0.3566(8) 0.2897(2)
H42 H 0.3093 0.3763 0.2522
C59 C 0.1753(7) 0.3904(7) 0.3260(3)
H43 H 0.0868 0.4325 0.3131
C60 C 0.1740(7) 0.3619(7) 0.3818(2)
H44 H 0.0846 0.3869 0.4062
loop_
_geom_bond_atom_site_label_1
_geom_bond_atom_site_label_2
_geom_bond_site_symmetry_1
_geom_bond_site_symmetry_2
C1 C2 1_555 1_555
C2 H1 1_555 1_555
C3 C2 1_555 1_555
H2 C3 1_555 1_555
C4 C3 1_555 1_555
H3 C4 1_555 1_555
C5 C4 1_555 1_555
H4 C5 1_555 1_555
C6 C1 1_555 1_555
C7 C6 1_555 1_555
H5 C7 1_555 1_555
C8 C7 1_555 1_555
C9 C8 1_555 1_555
H6 C9 1_555 1_555
C10 C9 1_555 1_555
H7 C10 1_555 1_555
C11 C10 1_555 1_555
H8 C11 1_555 1_555
C12 C11 1_555 1_555
H9 C12 1_555 1_555
C13 C8 1_555 1_555
C14 C1 1_555 1_555
C15 C14 1_555 1_555
H10 C15 1_555 1_555
C16 C15 1_555 1_555
H11 C16 1_555 1_555
C17 C16 1_555 1_555
C18 C17 1_555 1_555
H12 C18 1_555 1_555
C19 C18 1_555 1_555
H13 C19 1_555 1_555
C20 C19 1_555 1_555
C21 C20 1_555 1_555
H14 C21 1_555 1_555
C22 C17 1_555 1_555
H15 C22 1_555 1_555
C23 C20 1_555 1_555
H16 C23 1_555 1_555
C24 C23 1_555 1_555
H17 C24 1_555 1_555
C25 C24 1_555 1_555
C26 C25 1_555 1_555
H18 C26 1_555 1_555
C27 C26 1_555 1_555
H19 C27 1_555 1_555
C28 C27 1_555 1_555
H20 C28 1_555 1_555
C29 C28 1_555 1_555
H21 C29 1_555 1_555
C30 C25 1_555 1_555
H22 C30 1_555 1_555
C31 C32 1_555 1_555
C32 H23 1_555 1_555
C33 C32 1_555 1_555
H24 C33 1_555 1_555
C34 C33 1_555 1_555
H25 C34 1_555 1_555
C35 C34 1_555 1_555
H26 C35 1_555 1_555
C36 C31 1_555 1_555
C37 C36 1_555 1_555
H27 C37 1_555 1_555
C38 C37 1_555 1_555
C39 C38 1_555 1_555
H28 C39 1_555 1_555
C40 C39 1_555 1_555
H29 C40 1_555 1_555
C41 C40 1_555 1_555
H30 C41 1_555 1_555
C42 C41 1_555 1_555
H31 C42 1_555 1_555
C43 C38 1_555 1_555
C44 C31 1_555 1_555
C45 C44 1_555 1_555
H32 C45 1_555 1_555
C46 C45 1_555 1_555
H33 C46 1_555 1_555
C47 C46 1_555 1_555
C48 C47 1_555 1_555
H34 C48 1_555 1_555
C49 C48 1_555 1_555
H35 C49 1_555 1_555
C50 C49 1_555 1_555
C51 C50 1_555 1_555
H36 C51 1_555 1_555
C52 C47 1_555 1_555
H37 C52 1_555 1_555
C53 C50 1_555 1_555
H38 C53 1_555 1_555
C54 C53 1_555 1_555
H39 C54 1_555 1_555
C55 C54 1_555 1_555
C56 C55 1_555 1_555
H40 C56 1_555 1_555
C57 C56 1_555 1_555
H41 C57 1_555 1_555
C58 C57 1_555 1_555
H42 C58 1_555 1_555
C59 C58 1_555 1_555
H43 C59 1_555 1_555
C60 C55 1_555 1_555
H44 C60 1_555 1_555
C5 C6 1_555 1_555
C12 C13 1_555 1_555
C13 C14 1_555 1_555
C21 C22 1_555 1_555
C29 C30 1_555 1_555
C35 C36 1_555 1_555
C42 C43 1_555 1_555
C43 C44 1_555 1_555
C51 C52 1_555 1_555
C59 C60 1_555 1_555

#END
