
#######################################################################
#
#                 Cambridge Crystallographic Data Centre
#                                CCDC 
#
#######################################################################
#
# If this CIF has been generated from an entry in the Cambridge 
# Structural Database, then it will include bibliographic, chemical, 
# crystal, experimental, refinement or atomic coordinate data resulting 
# from the CCDC's data processing and validation procedures.
#
#######################################################################

data_MAHWUN
_chemical_formula_moiety         'C32 H38 N4'
_chemical_name_systematic        5,10,15,20-Tetraisopropylporphyrin
_symmetry_cell_setting           orthorhombic
_symmetry_space_group_name_H-M   'F d d 2'
_symmetry_Int_Tables_number      43
_space_group_name_Hall           'F 2 -2d'
loop_
_symmetry_equiv_pos_site_id
_symmetry_equiv_pos_as_xyz
1 x,y,z
2 -x,-y,z
3 1/4+x,1/4-y,1/4+z
4 1/4-x,1/4+y,1/4+z
5 x,1/2+y,1/2+z
6 -x,1/2-y,1/2+z
7 1/4+x,3/4-y,3/4+z
8 1/4-x,3/4+y,3/4+z
9 1/2+x,y,1/2+z
10 1/2-x,-y,1/2+z
11 3/4+x,1/4-y,3/4+z
12 3/4-x,1/4+y,3/4+z
13 1/2+x,1/2+y,z
14 1/2-x,1/2-y,z
15 3/4+x,3/4-y,1/4+z
16 3/4-x,3/4+y,1/4+z
_cell_length_a                   20.257(4)
_cell_length_b                   20.999(4)
_cell_length_c                   12.373(3)
_cell_angle_alpha                90
_cell_angle_beta                 90
_cell_angle_gamma                90
_cell_volume                     5263.19
_exptl_crystal_colour            red
_exptl_crystal_description       parallelepiped
_cell_formula_units_Z            8
_exptl_crystal_recrystallization_method dichloromethane/cyclohexane
loop_
_atom_site_label
_atom_site_type_symbol
_atom_site_fract_x
_atom_site_fract_y
_atom_site_fract_z
N1 N 0.0000 0.5000 0.4179(5)
N2 N 0.0497(2) 0.5867(2) 0.2556(3)
N3 N 0.0000 0.5000 0.0944(5)
C1 C 0.0219(2) 0.5239(3) 0.5967(4)
H1 H 0.0409(2) 0.5435(3) 0.6584(4)
C2 C 0.0348(2) 0.5401(2) 0.4841(4)
H2 H 0.0294(23) 0.5515(25) 0.2554(43)
C3 C 0.0750(2) 0.5915(2) 0.4526(4)
C4 C 0.1139(3) 0.6309(2) 0.5358(4)
H3 H 0.1428(3) 0.6598(2) 0.4924(4)
C5 C 0.0690(3) 0.6751(3) 0.6026(5)
H4 H 0.0401(3) 0.6991(3) 0.5539(5)
H5 H 0.0963(3) 0.7048(3) 0.6443(5)
H6 H 0.0421(3) 0.6495(3) 0.6520(5)
C6 C 0.1610(3) 0.5913(3) 0.6047(4)
H7 H 0.1841(3) 0.6192(3) 0.6557(4)
H8 H 0.1932(3) 0.5701(3) 0.5579(4)
H9 H 0.1359(3) 0.5592(3) 0.6448(4)
C7 C 0.0767(2) 0.6153(2) 0.3449(4)
C8 C 0.1019(2) 0.6747(3) 0.3097(4)
H10 H 0.1253(2) 0.7045(3) 0.3528(4)
C9 C 0.0867(3) 0.6816(2) 0.2038(4)
H11 H 0.0960(3) 0.7182(2) 0.1612(4)
C10 C 0.0548(2) 0.6258(2) 0.1664(4)
C11 C 0.0361(2) 0.6107(3) 0.0597(4)
C12 C 0.0457(3) 0.6639(2) -0.0236(4)
H12 H 0.0548(3) 0.7031(2) 0.0198(4)
C13 C 0.1069(3) 0.6543(3) -0.0934(5)
H13 H 0.1449(3) 0.6448(3) -0.0470(5)
H14 H 0.1157(3) 0.6931(3) -0.1348(5)
H15 H 0.0996(3) 0.6187(3) -0.1432(5)
C14 C -0.0163(3) 0.6790(3) -0.0883(5)
H16 H -0.0536(3) 0.6847(3) -0.0388(5)
H17 H -0.0257(3) 0.6439(3) -0.1380(5)
H18 H -0.0094(3) 0.7183(3) -0.1296(5)
C15 C 0.0152(2) 0.5503(2) 0.0280(4)
C16 C 0.0082(2) 0.5304(3) -0.0844(4)
H19 H 0.0144(2) 0.5565(3) -0.1463(4)
C1A C -0.0219(2) 0.4761(3) 0.5967(4)
H1A H -0.0409(2) 0.4565(3) 0.6584(4)
C2A C -0.0348(2) 0.4599(2) 0.4841(4)
C3A C -0.0750(2) 0.4085(2) 0.4526(4)
C4A C -0.1139(3) 0.3691(2) 0.5358(4)
H3A H -0.1428(3) 0.3402(2) 0.4924(4)
C5A C -0.0690(3) 0.3249(3) 0.6026(5)
H4A H -0.0401(3) 0.3009(3) 0.5539(5)
H5A H -0.0963(3) 0.2952(3) 0.6443(5)
H6A H -0.0421(3) 0.3505(3) 0.6520(5)
C6A C -0.1610(3) 0.4087(3) 0.6047(4)
H7A H -0.1841(3) 0.3808(3) 0.6557(4)
H8A H -0.1932(3) 0.4299(3) 0.5579(4)
H9A H -0.1359(3) 0.4408(3) 0.6448(4)
C7A C -0.0767(2) 0.3847(2) 0.3449(4)
N2A N -0.0497(2) 0.4133(2) 0.2556(3)
H2A H -0.0294(23) 0.4485(25) 0.2554(43)
C10A C -0.0548(2) 0.3742(2) 0.1664(4)
C9A C -0.0867(3) 0.3184(2) 0.2038(4)
C8A C -0.1019(2) 0.3253(3) 0.3097(4)
H10A H -0.1253(2) 0.2955(3) 0.3528(4)
H11A H -0.0960(3) 0.2818(2) 0.1612(4)
C11A C -0.0361(2) 0.3893(3) 0.0597(4)
C12A C -0.0457(3) 0.3361(2) -0.0236(4)
H12A H -0.0548(3) 0.2969(2) 0.0198(4)
C13A C -0.1069(3) 0.3457(3) -0.0934(5)
H13A H -0.1449(3) 0.3552(3) -0.0470(5)
H14A H -0.1157(3) 0.3069(3) -0.1348(5)
H15A H -0.0996(3) 0.3813(3) -0.1432(5)
C14A C 0.0163(3) 0.3210(3) -0.0883(5)
H16A H 0.0536(3) 0.3153(3) -0.0388(5)
H17A H 0.0257(3) 0.3561(3) -0.1380(5)
H18A H 0.0094(3) 0.2817(3) -0.1296(5)
C15A C -0.0152(2) 0.4497(2) 0.0280(4)
C16A C -0.0082(2) 0.4696(3) -0.0844(4)
H19A H -0.0144(2) 0.4435(3) -0.1463(4)
loop_
_geom_bond_atom_site_label_1
_geom_bond_atom_site_label_2
_geom_bond_site_symmetry_1
_geom_bond_site_symmetry_2
N1 C2 1_555 1_555
N2 H2 1_555 1_555
N3 C15 1_555 1_555
C1 H1 1_555 1_555
C2 C1 1_555 1_555
C3 C2 1_555 1_555
C4 C3 1_555 1_555
H3 C4 1_555 1_555
C5 C4 1_555 1_555
H4 C5 1_555 1_555
H5 C5 1_555 1_555
H6 C5 1_555 1_555
C6 C4 1_555 1_555
H7 C6 1_555 1_555
H8 C6 1_555 1_555
H9 C6 1_555 1_555
C7 N2 1_555 1_555
C8 C7 1_555 1_555
H10 C8 1_555 1_555
C9 C8 1_555 1_555
H11 C9 1_555 1_555
C10 N2 1_555 1_555
C11 C10 1_555 1_555
C12 C11 1_555 1_555
H12 C12 1_555 1_555
C13 C12 1_555 1_555
H13 C13 1_555 1_555
H14 C13 1_555 1_555
H15 C13 1_555 1_555
C14 C12 1_555 1_555
H16 C14 1_555 1_555
H17 C14 1_555 1_555
H18 C14 1_555 1_555
C15 C11 1_555 1_555
C16 C15 1_555 1_555
H19 C16 1_555 1_555
C1A C1 1_555 1_555
H1A C1A 1_555 1_555
C2A N1 1_555 1_555
C3A C2A 1_555 1_555
C4A C3A 1_555 1_555
H3A C4A 1_555 1_555
C5A C4A 1_555 1_555
H4A C5A 1_555 1_555
H5A C5A 1_555 1_555
H6A C5A 1_555 1_555
C6A C4A 1_555 1_555
H7A C6A 1_555 1_555
H8A C6A 1_555 1_555
H9A C6A 1_555 1_555
C7A C3A 1_555 1_555
N2A C7A 1_555 1_555
H2A N2A 1_555 1_555
C10A N2A 1_555 1_555
C9A C10A 1_555 1_555
C8A C7A 1_555 1_555
H10A C8A 1_555 1_555
H11A C9A 1_555 1_555
C11A C10A 1_555 1_555
C12A C11A 1_555 1_555
H12A C12A 1_555 1_555
C13A C12A 1_555 1_555
H13A C13A 1_555 1_555
H14A C13A 1_555 1_555
H15A C13A 1_555 1_555
C14A C12A 1_555 1_555
H16A C14A 1_555 1_555
H17A C14A 1_555 1_555
H18A C14A 1_555 1_555
C15A N3 1_555 1_555
C16A C16 1_555 1_555
H19A C16A 1_555 1_555
C3 C7 1_555 1_555
C9 C10 1_555 1_555
C1A C2A 1_555 1_555
C9A C8A 1_555 1_555
C11A C15A 1_555 1_555
C15A C16A 1_555 1_555

#END
