
#######################################################################
#
#                 Cambridge Crystallographic Data Centre
#                                CCDC 
#
#######################################################################
#
# If this CIF has been generated from an entry in the Cambridge 
# Structural Database, then it will include bibliographic, chemical, 
# crystal, experimental, refinement or atomic coordinate data resulting 
# from the CCDC's data processing and validation procedures.
#
#######################################################################

data_MAHXIC
_chemical_formula_moiety         'C21 H24 N4 O6'
_chemical_name_systematic        
"(3-(N-(N'-(3''-N''-Methylcarbamoyl-4''-methoxyphenyl)carbamoylmethyl)carbamoyl)-4-methoxyphenyl) acetamide"
_symmetry_cell_setting           monoclinic
_symmetry_space_group_name_H-M   'C 2/c'
_symmetry_Int_Tables_number      15
_space_group_name_Hall           '-C 2yn'
loop_
_symmetry_equiv_pos_site_id
_symmetry_equiv_pos_as_xyz
1 x,y,z
2 -x,y,1/2-z
3 1/2+x,1/2+y,z
4 1/2-x,1/2+y,1/2-z
5 -x,-y,-z
6 x,-y,1/2+z
7 1/2-x,1/2-y,-z
8 1/2+x,1/2-y,1/2+z
_cell_length_a                   25.3432(11)
_cell_length_b                   11.7711(10)
_cell_length_c                   17.2886(10)
_cell_angle_alpha                90
_cell_angle_beta                 125.60(3)
_cell_angle_gamma                90
_cell_volume                     4193.56
_cell_formula_units_Z            8
_exptl_crystal_recrystallization_method chloroform/methanol
loop_
_atom_site_label
_atom_site_type_symbol
_atom_site_fract_x
_atom_site_fract_y
_atom_site_fract_z
N1 N 0.4876(1) 0.6357(1) 0.1169(1)
C1 C 0.5212(1) 0.7098(1) 0.1035(1)
O1 O 0.5570(1) 0.6790(1) 0.0810(1)
C2 C 0.5148(1) 0.8343(1) 0.1176(1)
C3 C 0.5582(1) 0.9069(1) 0.1186(1)
C4 C 0.5564(1) 1.0242(1) 0.1275(1)
C5 C 0.5086(1) 1.0694(2) 0.1339(1)
C6 C 0.4648(1) 0.9986(1) 0.1328(1)
C7 C 0.4674(1) 0.8818(1) 0.1256(1)
N2 N 0.6038(1) 1.0890(1) 0.1287(1)
C8 C 0.6088(1) 1.2046(1) 0.1284(1)
O2 O 0.5720(1) 1.2702(1) 0.1292(1)
C9 C 0.6642(1) 1.2456(2) 0.1274(2)
O3 O 0.4259(1) 0.8084(1) 0.1274(1)
C10 C 0.3721(1) 0.8525(2) 0.1224(2)
C11 C 0.4854(1) 0.5165(2) 0.0954(2)
C12 C 0.4354(1) 0.4566(1) 0.1014(1)
O4 O 0.4097(1) 0.5008(1) 0.1353(1)
N3 N 0.4226(1) 0.3506(1) 0.0654(1)
C13 C 0.3785(1) 0.2729(1) 0.0617(1)
C14 C 0.3419(1) 0.2041(1) -0.0178(1)
C15 C 0.2985(1) 0.1242(1) -0.0259(1)
C16 C 0.2919(1) 0.1147(1) 0.0489(1)
C17 C 0.3296(1) 0.1820(1) 0.1292(1)
C18 C 0.3728(1) 0.2603(1) 0.1359(1)
C19 C 0.2635(1) 0.0534(1) -0.1151(1)
O5 O 0.2864(1) 0.0428(1) -0.1612(1)
N4 N 0.2076(1) 0.0057(1) -0.1431(1)
C20 C 0.1682(1) -0.0570(2) -0.2316(2)
O6 O 0.2488(1) 0.0359(1) 0.0395(1)
C21 C 0.2420(1) 0.0230(2) 0.1152(2)
H1 H 0.4610(9) 0.6592(15) 0.1313(13)
H2 H 0.5894(8) 0.8730(13) 0.1113(11)
H3 H 0.5066(10) 1.1469(18) 0.1421(15)
H4 H 0.4324(9) 1.0296(14) 0.1399(12)
H5 H 0.6350(9) 1.0540(16) 0.1282(13)
H6 H 0.6936(13) 1.2920(20) 0.1840(20)
H7 H 0.6903(14) 1.1870(30) 0.1290(20)
H8 H 0.6507(15) 1.2920(30) 0.0720(30)
H9 H 0.3455(11) 0.8929(19) 0.0641(17)
H10 H 0.3500(10) 0.7872(19) 0.1251(15)
H11 H 0.3852(11) 0.9040(20) 0.1770(18)
H12 H 0.4747(11) 0.5060(19) 0.0301(19)
H13 H 0.5260(12) 0.4810(20) 0.1322(18)
H14 H 0.4398(9) 0.3340(15) 0.0356(14)
H15 H 0.3460(8) 0.2098(14) -0.0695(13)
H16 H 0.3254(8) 0.1734(14) 0.1804(13)
H17 H 0.3972(8) 0.3025(14) 0.1915(12)
H18 H 0.1915(9) 0.0162(15) -0.1098(14)
H19 H 0.1948(14) -0.1200(20) -0.2340(20)
H20 H 0.1295(12) -0.0900(20) -0.2374(16)
H21 H 0.1543(14) -0.0110(30) -0.2910(20)
H22 H 0.2813(12) -0.0050(20) 0.1696(18)
H23 H 0.2094(11) -0.0322(19) 0.0926(16)
H24 H 0.2296(10) 0.0980(20) 0.1306(16)
loop_
_geom_bond_atom_site_label_1
_geom_bond_atom_site_label_2
_geom_bond_site_symmetry_1
_geom_bond_site_symmetry_2
N1 C1 1_555 1_555
C1 O1 1_555 1_555
C2 C1 1_555 1_555
C3 C2 1_555 1_555
C4 C3 1_555 1_555
C5 C4 1_555 1_555
C6 C5 1_555 1_555
C7 C2 1_555 1_555
N2 C4 1_555 1_555
C8 N2 1_555 1_555
O2 C8 1_555 1_555
C9 C8 1_555 1_555
O3 C7 1_555 1_555
C10 O3 1_555 1_555
C11 N1 1_555 1_555
C12 C11 1_555 1_555
O4 C12 1_555 1_555
N3 C12 1_555 1_555
C13 N3 1_555 1_555
C14 C13 1_555 1_555
C15 C14 1_555 1_555
C16 C15 1_555 1_555
C17 C16 1_555 1_555
C18 C13 1_555 1_555
C19 C15 1_555 1_555
O5 C19 1_555 1_555
N4 C19 1_555 1_555
C20 N4 1_555 1_555
O6 C16 1_555 1_555
C21 O6 1_555 1_555
H1 N1 1_555 1_555
H2 C3 1_555 1_555
H3 C5 1_555 1_555
H4 C6 1_555 1_555
H5 N2 1_555 1_555
H6 C9 1_555 1_555
H7 C9 1_555 1_555
H8 C9 1_555 1_555
H9 C10 1_555 1_555
H10 C10 1_555 1_555
H11 C10 1_555 1_555
H12 C11 1_555 1_555
H13 C11 1_555 1_555
H14 N3 1_555 1_555
H15 C14 1_555 1_555
H16 C17 1_555 1_555
H17 C18 1_555 1_555
H18 N4 1_555 1_555
H19 C20 1_555 1_555
H20 C20 1_555 1_555
H21 C20 1_555 1_555
H22 C21 1_555 1_555
H23 C21 1_555 1_555
H24 C21 1_555 1_555
C6 C7 1_555 1_555
C17 C18 1_555 1_555

#END
