
#######################################################################
#
#                 Cambridge Crystallographic Data Centre
#                                CCDC 
#
#######################################################################
#
# If this CIF has been generated from an entry in the Cambridge 
# Structural Database, then it will include bibliographic, chemical, 
# crystal, experimental, refinement or atomic coordinate data resulting 
# from the CCDC's data processing and validation procedures.
#
#######################################################################

data_MAJCOS
_chemical_formula_moiety         'C19 H22 O4'
_chemical_name_systematic        
2-(3-Furyl)-6a,10b-dimethyl-1,4a,5,6,6a,8,10a,10b-octahydro-2H-benzo[f]isochromene-4,7-dione
_symmetry_cell_setting           orthorhombic
_symmetry_space_group_name_H-M   'P 21 21 21'
_symmetry_Int_Tables_number      19
_space_group_name_Hall           'P 2ac 2ab'
loop_
_symmetry_equiv_pos_site_id
_symmetry_equiv_pos_as_xyz
1 x,y,z
2 1/2+x,1/2-y,-z
3 -x,1/2+y,1/2-z
4 1/2-x,-y,1/2+z
_cell_length_a                   7.24430(10)
_cell_length_b                   10.9720(2)
_cell_length_c                   19.9120(3)
_cell_angle_alpha                90
_cell_angle_beta                 90
_cell_angle_gamma                90
_cell_volume                     1582.69
_exptl_crystal_colour            colorless
_exptl_crystal_description       prism
_cell_formula_units_Z            4
loop_
_atom_site_label
_atom_site_type_symbol
_atom_site_fract_x
_atom_site_fract_y
_atom_site_fract_z
O1 O -0.2004(2) 1.15799(14) 1.08497(7)
O2 O 0.3054(2) 0.68146(11) 0.70775(7)
O3 O 0.2856(2) 0.98689(13) 0.98123(7)
O4 O 0.5391(2) 0.88043(14) 0.97316(7)
C1 C 0.0522(3) 0.81320(18) 0.68554(11)
H1 H 0.0833 0.8407 0.6396
H2 H -0.0270 0.7400 0.6813
C2 C -0.0565(3) 0.91159(19) 0.71954(10)
H3 H -0.1658 0.9399 0.6983
C3 C -0.0088(3) 0.96104(16) 0.77739(10)
H4 H -0.0853 1.0231 0.7956
C4 C 0.1612(3) 0.92383(15) 0.81605(9)
H5 H 0.2139 1.0004 0.8354
C5 C 0.1082(3) 0.84152(17) 0.87718(9)
C6 C -0.0038(3) 0.91473(17) 0.92918(10)
H6 H -0.1190 0.9444 0.9080
H7 H -0.0382 0.8605 0.9669
C7 C 0.1039(3) 1.02237(17) 0.95617(10)
H8 H 0.1229 1.0809 0.9183
C8 C 0.0098(3) 1.08977(16) 1.01194(10)
C9 C -0.1588(3) 1.06991(19) 1.03756(10)
H9 H -0.2381 1.0048 1.0250
C10 C 0.2284(3) 0.77731(16) 0.72085(10)
C11 C 0.3811(3) 0.89121(18) 0.95611(10)
C12 C 0.2831(3) 0.79620(17) 0.91328(10)
H10 H 0.2412 0.7312 0.9450
C13 C 0.4193(3) 0.73453(18) 0.86526(10)
H11 H 0.5308 0.7093 0.8905
H12 H 0.3618 0.6605 0.8461
C14 C 0.4750(3) 0.82020(17) 0.80860(10)
H13 H 0.5581 0.7760 0.7775
H14 H 0.5453 0.8892 0.8278
C15 C 0.3117(3) 0.87083(15) 0.76851(9)
C16 C 0.3834(3) 0.97388(17) 0.72220(11)
H15 H 0.4809 0.9419 0.6930
H16 H 0.4330 1.0403 0.7497
H17 H 0.2815 1.0046 0.6946
C17 C -0.0493(3) 1.23215(19) 1.08794(10)
H18 H -0.0386 1.3005 1.1170
C18 C 0.0817(3) 1.19665(19) 1.04489(11)
H19 H 0.1982 1.2341 1.0375
C19 C -0.0082(3) 0.73146(17) 0.85569(10)
H20 H 0.0562 0.6869 0.8200
H21 H -0.1281 0.7596 0.8390
H22 H -0.0269 0.6775 0.8943
loop_
_geom_bond_atom_site_label_1
_geom_bond_atom_site_label_2
_geom_bond_site_symmetry_1
_geom_bond_site_symmetry_2
O1 C9 1_555 1_555
O2 C10 1_555 1_555
O3 C7 1_555 1_555
O4 C11 1_555 1_555
C1 H1 1_555 1_555
H2 C1 1_555 1_555
C2 C1 1_555 1_555
H3 C2 1_555 1_555
C3 C2 1_555 1_555
H4 C3 1_555 1_555
C4 C3 1_555 1_555
H5 C4 1_555 1_555
C5 C4 1_555 1_555
C6 C5 1_555 1_555
H6 C6 1_555 1_555
H7 C6 1_555 1_555
C7 C6 1_555 1_555
H8 C7 1_555 1_555
C8 C7 1_555 1_555
C9 C8 1_555 1_555
H9 C9 1_555 1_555
C10 C1 1_555 1_555
C11 O3 1_555 1_555
C12 C5 1_555 1_555
H10 C12 1_555 1_555
C13 C12 1_555 1_555
H11 C13 1_555 1_555
H12 C13 1_555 1_555
C14 C13 1_555 1_555
H13 C14 1_555 1_555
H14 C14 1_555 1_555
C15 C4 1_555 1_555
C16 C15 1_555 1_555
H15 C16 1_555 1_555
H16 C16 1_555 1_555
H17 C16 1_555 1_555
C17 O1 1_555 1_555
H18 C17 1_555 1_555
C18 C8 1_555 1_555
H19 C18 1_555 1_555
C19 C5 1_555 1_555
H20 C19 1_555 1_555
H21 C19 1_555 1_555
H22 C19 1_555 1_555
C10 C15 1_555 1_555
C11 C12 1_555 1_555
C14 C15 1_555 1_555
C17 C18 1_555 1_555

#END
