
#######################################################################
#
#                 Cambridge Crystallographic Data Centre
#                                CCDC 
#
#######################################################################
#
# If this CIF has been generated from an entry in the Cambridge 
# Structural Database, then it will include bibliographic, chemical, 
# crystal, experimental, refinement or atomic coordinate data resulting 
# from the CCDC's data processing and validation procedures.
#
#######################################################################

data_MAJDEJ
_chemical_formula_moiety         'C19 H20 O5'
_chemical_name_systematic        
2-(3-Furyl)-6a,10b-dimethyl-4a,5,6,6a,10a,10b-hexahydro-2H-benzo[f]isochromene-4,7,10(1H)-trione
_symmetry_cell_setting           orthorhombic
_symmetry_space_group_name_H-M   'P 21 21 21'
_symmetry_Int_Tables_number      19
_space_group_name_Hall           'P 2ac 2ab'
loop_
_symmetry_equiv_pos_site_id
_symmetry_equiv_pos_as_xyz
1 x,y,z
2 1/2+x,1/2-y,-z
3 -x,1/2+y,1/2-z
4 1/2-x,-y,1/2+z
_cell_length_a                   6.9929(2)
_cell_length_b                   11.9109(3)
_cell_length_c                   19.5018(4)
_cell_angle_alpha                90
_cell_angle_beta                 90
_cell_angle_gamma                90
_cell_volume                     1624.34
_exptl_crystal_colour            colorless
_exptl_crystal_description       needle
_cell_formula_units_Z            4
loop_
_atom_site_label
_atom_site_type_symbol
_atom_site_fract_x
_atom_site_fract_y
_atom_site_fract_z
O1 O 1.0108(3) 0.20575(18) 0.28744(12)
O2 O 0.9302(5) 0.7577(2) -0.08758(14)
O3 O 0.9946(4) 0.39434(18) -0.01995(11)
O4 O 1.0720(3) 0.21687(18) -0.01598(12)
O5 O 0.6503(3) 0.54388(18) 0.16587(14)
C1 C 0.9090(4) 0.2758(2) 0.26056(16)
C2 C 0.8323(4) 0.2639(2) 0.18762(16)
C3 C 0.8404(5) 0.3785(2) 0.15009(17)
H1 H 0.7642 0.3701 0.1070
C4 C 1.0478(5) 0.4153(2) 0.12798(16)
C5 C 1.0403(5) 0.5179(2) 0.08037(16)
H2 H 0.9795 0.5810 0.1052
H3 H 1.1726 0.5407 0.0689
C6 C 0.9305(5) 0.4968(2) 0.01406(16)
H4 H 0.7911 0.4901 0.0248
C7 C 0.9593(6) 0.5908(3) -0.03581(18)
C8 C 0.8556(7) 0.6856(3) -0.0400(2)
H5 H 0.7448 0.7006 -0.0134
C9 C 1.0842(6) 0.7066(3) -0.1138(2)
H6 H 1.1640 0.7372 -0.1485
C10 C 1.1104(6) 0.6053(3) -0.08402(19)
H7 H 1.2105 0.5537 -0.0934
C11 C 1.0619(4) 0.3048(3) 0.01497(17)
C12 C 1.1394(4) 0.3194(2) 0.08697(17)
H8 H 1.2771 0.3403 0.0814
C13 C 0.7429(4) 0.4692(2) 0.19245(19)
C14 C 0.7645(5) 0.4637(3) 0.26754(18)
H9 H 0.7208 0.5252 0.2944
C15 C 0.8434(5) 0.3755(3) 0.29954(18)
H10 H 0.8574 0.3769 0.3480
C16 C 0.9362(5) 0.1740(2) 0.14598(17)
H11 H 0.9415 0.1039 0.1732
H12 H 0.8619 0.1582 0.1039
C17 C 1.1387(5) 0.2075(2) 0.12584(18)
H13 H 1.1950 0.1482 0.0965
H14 H 1.2183 0.2143 0.1676
C18 C 0.6196(4) 0.2273(2) 0.19493(17)
H15 H 0.5491 0.2844 0.2208
H16 H 0.6130 0.1555 0.2193
H17 H 0.5626 0.2190 0.1493
C19 C 1.1776(4) 0.4478(2) 0.18822(17)
H18 H 1.1235 0.5130 0.2120
H19 H 1.3053 0.4665 0.1710
H20 H 1.1869 0.3846 0.2202
loop_
_geom_bond_atom_site_label_1
_geom_bond_atom_site_label_2
_geom_bond_site_symmetry_1
_geom_bond_site_symmetry_2
O1 C1 1_555 1_555
O2 C8 1_555 1_555
O3 C6 1_555 1_555
O4 C11 1_555 1_555
O5 C13 1_555 1_555
C1 C2 1_555 1_555
C2 C3 1_555 1_555
C3 H1 1_555 1_555
C4 C3 1_555 1_555
C5 C4 1_555 1_555
H2 C5 1_555 1_555
H3 C5 1_555 1_555
C6 C5 1_555 1_555
H4 C6 1_555 1_555
C7 C6 1_555 1_555
C8 C7 1_555 1_555
H5 C8 1_555 1_555
C9 O2 1_555 1_555
H6 C9 1_555 1_555
C10 C7 1_555 1_555
H7 C10 1_555 1_555
C11 O3 1_555 1_555
C12 C4 1_555 1_555
H8 C12 1_555 1_555
C13 C3 1_555 1_555
C14 C13 1_555 1_555
H9 C14 1_555 1_555
C15 C1 1_555 1_555
H10 C15 1_555 1_555
C16 C2 1_555 1_555
H11 C16 1_555 1_555
H12 C16 1_555 1_555
C17 C12 1_555 1_555
H13 C17 1_555 1_555
H14 C17 1_555 1_555
C18 C2 1_555 1_555
H15 C18 1_555 1_555
H16 C18 1_555 1_555
H17 C18 1_555 1_555
C19 C4 1_555 1_555
H18 C19 1_555 1_555
H19 C19 1_555 1_555
H20 C19 1_555 1_555
C9 C10 1_555 1_555
C11 C12 1_555 1_555
C14 C15 1_555 1_555
C16 C17 1_555 1_555

#END
