
#######################################################################
#
#                 Cambridge Crystallographic Data Centre
#                                CCDC 
#
#######################################################################
#
# If this CIF has been generated from an entry in the Cambridge 
# Structural Database, then it will include bibliographic, chemical, 
# crystal, experimental, refinement or atomic coordinate data resulting 
# from the CCDC's data processing and validation procedures.
#
#######################################################################

data_MAJFUZ
_chemical_formula_moiety         'C42 H36 O4 P2'
_chemical_name_systematic        
(S)-(-)-5,5'-bis(Diphenylphosphino)-2,2,2',2'-tetramethyl-4,4'-bi-1,3-benzodioxole
_symmetry_cell_setting           orthorhombic
_symmetry_space_group_name_H-M   'P 21 21 2'
_symmetry_Int_Tables_number      18
_space_group_name_Hall           'P 2 2ab'
loop_
_symmetry_equiv_pos_site_id
_symmetry_equiv_pos_as_xyz
1 x,y,z
2 -x,-y,z
3 1/2-x,1/2+y,-z
4 1/2+x,1/2-y,-z
_cell_length_a                   9.7007(9)
_cell_length_b                   20.774(2)
_cell_length_c                   8.9149(9)
_cell_angle_alpha                90
_cell_angle_beta                 90
_cell_angle_gamma                90
_cell_volume                     1796.55
_exptl_crystal_colour            colorless
_exptl_crystal_description       block
_cell_formula_units_Z            2
_exptl_crystal_recrystallization_method methanol
loop_
_atom_site_label
_atom_site_type_symbol
_atom_site_fract_x
_atom_site_fract_y
_atom_site_fract_z
P1 P 0.11334(6) 0.57910(3) 0.87952(8)
O1 O 0.26803(18) 0.37231(9) 1.3052(2)
O2 O 0.04484(17) 0.41140(9) 1.3100(2)
C1 C 0.0734(2) 0.48884(11) 1.1044(3)
C2 C 0.1713(2) 0.51408(11) 1.0037(3)
C3 C 0.3045(2) 0.48948(13) 1.0021(3)
H1 H 0.3674 0.5060 0.9334
C4 C 0.3470(2) 0.44138(12) 1.0988(3)
H2 H 0.4366 0.4255 1.0970
C5 C 0.2515(2) 0.41836(12) 1.1967(3)
C6 C 0.1186(2) 0.44177(11) 1.1998(3)
C7 C 0.1314(3) 0.35966(14) 1.3657(3)
C8 C 0.0815(3) 0.29695(15) 1.3065(5)
H3 H -0.0124 0.2904 1.3370
H4 H 0.1378 0.2628 1.3454
H5 H 0.0867 0.2971 1.1990
C9 C 0.1393(4) 0.3643(2) 1.5328(4)
H6 H 0.1775 0.4053 1.5604
H7 H 0.1971 0.3305 1.5707
H8 H 0.0485 0.3602 1.5745
C10 C 0.2454(2) 0.58082(12) 0.7322(3)
C11 C 0.2141(3) 0.55156(15) 0.5988(3)
H9 H 0.1298 0.5307 0.5884
C12 C 0.3046(4) 0.5523(2) 0.4799(4)
H10 H 0.2809 0.5321 0.3903
C13 C 0.4277(4) 0.5822(2) 0.4931(4)
H11 H 0.4895 0.5822 0.4134
C14 C 0.4606(3) 0.61210(17) 0.6230(5)
H12 H 0.5449 0.6331 0.6319
C15 C 0.3703(3) 0.61181(15) 0.7426(4)
H13 H 0.3941 0.6328 0.8311
C16 C 0.1627(3) 0.65082(13) 0.9853(3)
C17 C 0.1152(4) 0.70932(14) 0.9290(4)
H14 H 0.0581 0.7099 0.8453
C18 C 0.1526(5) 0.76611(16) 0.9969(5)
H15 H 0.1211 0.8049 0.9575
C19 C 0.2344(5) 0.76666(18) 1.1200(5)
H16 H 0.2597 0.8055 1.1640
C20 C 0.2794(4) 0.70973(19) 1.1791(4)
H17 H 0.3345 0.7099 1.2645
C21 C 0.2434(3) 0.65169(14) 1.1125(4)
H18 H 0.2739 0.6132 1.1540
C1A C -0.0734(2) 0.51116(11) 1.1044(3)
C2A C -0.1713(2) 0.48592(11) 1.0037(3)
P1A P -0.11334(6) 0.42090(3) 0.87952(8)
C10A C -0.2454(2) 0.41918(12) 0.7322(3)
C11A C -0.2141(3) 0.44844(15) 0.5988(3)
H9A H -0.1298 0.4693 0.5884
C12A C -0.3046(4) 0.4477(2) 0.4799(4)
H10A H -0.2809 0.4679 0.3903
C13A C -0.4277(4) 0.4178(2) 0.4931(4)
H11A H -0.4895 0.4178 0.4134
C14A C -0.4606(3) 0.38790(17) 0.6230(5)
H12A H -0.5449 0.3669 0.6319
C15A C -0.3703(3) 0.38819(15) 0.7426(4)
H13A H -0.3941 0.3672 0.8311
C16A C -0.1627(3) 0.34918(13) 0.9853(3)
C17A C -0.1152(4) 0.29068(14) 0.9290(4)
H14A H -0.0581 0.2901 0.8453
C18A C -0.1526(5) 0.23389(16) 0.9969(5)
H15A H -0.1211 0.1951 0.9575
C19A C -0.2344(5) 0.23334(18) 1.1200(5)
H16A H -0.2597 0.1945 1.1640
C20A C -0.2794(4) 0.29027(19) 1.1791(4)
H17A H -0.3345 0.2901 1.2645
C21A C -0.2434(3) 0.34831(14) 1.1125(4)
H18A H -0.2739 0.3868 1.1540
C3A C -0.3045(2) 0.51052(13) 1.0021(3)
H1A H -0.3674 0.4940 0.9334
C4A C -0.3470(2) 0.55862(12) 1.0988(3)
H2A H -0.4366 0.5745 1.0970
C5A C -0.2515(2) 0.58164(12) 1.1967(3)
O1A O -0.26803(18) 0.62769(9) 1.3052(2)
C7A C -0.1314(3) 0.64034(14) 1.3657(3)
O2A O -0.04484(17) 0.58860(9) 1.3100(2)
C6A C -0.1186(2) 0.55823(11) 1.1998(3)
C8A C -0.0815(3) 0.70305(15) 1.3065(5)
H3A H 0.0124 0.7096 1.3370
H4A H -0.1378 0.7372 1.3454
H5A H -0.0867 0.7029 1.1990
C9A C -0.1393(4) 0.6357(2) 1.5328(4)
H6A H -0.1775 0.5947 1.5604
H7A H -0.1971 0.6695 1.5707
H8A H -0.0485 0.6398 1.5745
loop_
_geom_bond_atom_site_label_1
_geom_bond_atom_site_label_2
_geom_bond_site_symmetry_1
_geom_bond_site_symmetry_2
P1 C2 1_555 1_555
O1 C5 1_555 1_555
O2 C6 1_555 1_555
C1 C2 1_555 1_555
C2 C3 1_555 1_555
C3 H1 1_555 1_555
C4 C3 1_555 1_555
H2 C4 1_555 1_555
C5 C4 1_555 1_555
C6 C1 1_555 1_555
C7 O1 1_555 1_555
C8 C7 1_555 1_555
H3 C8 1_555 1_555
H4 C8 1_555 1_555
H5 C8 1_555 1_555
C9 C7 1_555 1_555
H6 C9 1_555 1_555
H7 C9 1_555 1_555
H8 C9 1_555 1_555
C10 P1 1_555 1_555
C11 C10 1_555 1_555
H9 C11 1_555 1_555
C12 C11 1_555 1_555
H10 C12 1_555 1_555
C13 C12 1_555 1_555
H11 C13 1_555 1_555
C14 C13 1_555 1_555
H12 C14 1_555 1_555
C15 C10 1_555 1_555
H13 C15 1_555 1_555
C16 P1 1_555 1_555
C17 C16 1_555 1_555
H14 C17 1_555 1_555
C18 C17 1_555 1_555
H15 C18 1_555 1_555
C19 C18 1_555 1_555
H16 C19 1_555 1_555
C20 C19 1_555 1_555
H17 C20 1_555 1_555
C21 C16 1_555 1_555
H18 C21 1_555 1_555
C1A C1 1_555 1_555
C2A C1A 1_555 1_555
P1A C2A 1_555 1_555
C10A P1A 1_555 1_555
C11A C10A 1_555 1_555
H9A C11A 1_555 1_555
C12A C11A 1_555 1_555
H10A C12A 1_555 1_555
C13A C12A 1_555 1_555
H11A C13A 1_555 1_555
C14A C13A 1_555 1_555
H12A C14A 1_555 1_555
C15A C10A 1_555 1_555
H13A C15A 1_555 1_555
C16A P1A 1_555 1_555
C17A C16A 1_555 1_555
H14A C17A 1_555 1_555
C18A C17A 1_555 1_555
H15A C18A 1_555 1_555
C19A C18A 1_555 1_555
H16A C19A 1_555 1_555
C20A C19A 1_555 1_555
H17A C20A 1_555 1_555
C21A C16A 1_555 1_555
H18A C21A 1_555 1_555
C3A C2A 1_555 1_555
H1A C3A 1_555 1_555
C4A C3A 1_555 1_555
H2A C4A 1_555 1_555
C5A C4A 1_555 1_555
O1A C5A 1_555 1_555
C7A O1A 1_555 1_555
O2A C7A 1_555 1_555
C6A C1A 1_555 1_555
C8A C7A 1_555 1_555
H3A C8A 1_555 1_555
H4A C8A 1_555 1_555
H5A C8A 1_555 1_555
C9A C7A 1_555 1_555
H6A C9A 1_555 1_555
H7A C9A 1_555 1_555
H8A C9A 1_555 1_555
O2 C7 1_555 1_555
C5 C6 1_555 1_555
C14 C15 1_555 1_555
C20 C21 1_555 1_555
C14A C15A 1_555 1_555
C20A C21A 1_555 1_555
C5A C6A 1_555 1_555
O2A C6A 1_555 1_555

#END
