
#######################################################################
#
#                 Cambridge Crystallographic Data Centre
#                                CCDC 
#
#######################################################################
#
# If this CIF has been generated from an entry in the Cambridge 
# Structural Database, then it will include bibliographic, chemical, 
# crystal, experimental, refinement or atomic coordinate data resulting 
# from the CCDC's data processing and validation procedures.
#
#######################################################################

data_MAJGUA
_chemical_formula_moiety         'C16 H14 N2 O2'
_chemical_name_systematic        
5-(4-Methoxyphenyl)-1-phenyl-3-hydroxy-1H-pyrazole
_symmetry_cell_setting           triclinic
_symmetry_space_group_name_H-M   'P -1'
_symmetry_Int_Tables_number      2
_space_group_name_Hall           '-P 1'
loop_
_symmetry_equiv_pos_site_id
_symmetry_equiv_pos_as_xyz
1 x,y,z
2 -x,-y,-z
_cell_length_a                   9.4266(19)
_cell_length_b                   9.938(2)
_cell_length_c                   15.347(3)
_cell_angle_alpha                88.90(3)
_cell_angle_beta                 86.63(3)
_cell_angle_gamma                70.37(3)
_cell_volume                     1351.83
_exptl_crystal_colour            white
_exptl_crystal_description       block
_cell_formula_units_Z            4
_exptl_crystal_recrystallization_method ethanol
loop_
_atom_site_label
_atom_site_type_symbol
_atom_site_fract_x
_atom_site_fract_y
_atom_site_fract_z
O1 O 0.1190(2) 0.29610(18) 0.49408(11)
H1 H 0.0396 0.3520 0.5151
O2 O 0.9594(2) 0.37515(18) 0.23268(11)
N1 N 0.1547(2) 0.5107(2) 0.45785(13)
N2 N 0.2785(2) 0.5424(2) 0.41793(13)
C1 C 0.2037(3) 0.3675(3) 0.46163(17)
C2 C 0.3453(3) 0.3038(3) 0.42142(16)
H2 H 0.3988 0.2071 0.4137
C3 C 0.3891(3) 0.4228(3) 0.39484(17)
C4 C 0.5379(3) 0.4224(3) 0.35122(17)
C5 C 0.6045(3) 0.5207(3) 0.36527(17)
H3 H 0.5552 0.5976 0.4020
C6 C 0.7446(3) 0.5096(3) 0.32615(17)
H4 H 0.7868 0.5802 0.3346
C7 C 0.8177(3) 0.3964(3) 0.27637(17)
C8 C 0.7613(3) 0.2903(3) 0.26193(17)
H5 H 0.8152 0.2124 0.2270
C9 C 0.6175(3) 0.3015(3) 0.30180(17)
H6 H 0.5772 0.2290 0.2950
C10 C 1.0348(3) 0.4642(3) 0.25523(18)
H7 H 0.9755 0.5612 0.2429
H8 H 1.1298 0.4394 0.2222
H9 H 1.0521 0.4544 0.3164
C11 C 0.2482(3) 0.6880(3) 0.39407(16)
C12 C 0.2499(3) 0.7253(3) 0.30674(16)
H10 H 0.2730 0.6549 0.2640
C13 C 0.2169(3) 0.8691(3) 0.28257(18)
H11 H 0.2198 0.8949 0.2241
C14 C 0.1807(3) 0.9688(3) 0.34594(17)
H12 H 0.1569 1.0644 0.3302
C15 C 0.1778(3) 0.9343(3) 0.43357(17)
H13 H 0.1539 1.0052 0.4760
C16 C 0.2110(3) 0.7924(3) 0.45693(17)
H14 H 0.2080 0.7676 0.5156
O3 O 0.9535(2) 0.94177(18) -0.10783(11)
H15 H 1.0028 0.9820 -0.0831
O4 O 0.26504(19) 0.55211(18) 0.09247(11)
N3 N 0.8693(2) 0.9293(2) 0.03676(14)
N4 N 0.7633(2) 0.8763(2) 0.07750(13)
C17 C 0.8623(3) 0.9031(3) -0.04811(17)
C18 C 0.7638(3) 0.8341(3) -0.06357(17)
H16 H 0.7465 0.8019 -0.1171
C19 C 0.6940(3) 0.8214(3) 0.01698(17)
C20 C 0.5826(3) 0.7490(3) 0.03654(17)
C21 C 0.4553(3) 0.7820(3) -0.01006(17)
H17 H 0.4416 0.8502 -0.0540
C22 C 0.3467(3) 0.7181(3) 0.00557(17)
H18 H 0.2620 0.7415 -0.0274
C23 C 0.3683(3) 0.6179(3) 0.07191(17)
C24 C 0.4898(3) 0.5880(3) 0.12016(17)
H19 H 0.5014 0.5214 0.1649
C25 C 0.5965(3) 0.6520(3) 0.10583(17)
H20 H 0.6775 0.6315 0.1416
C26 C 0.1389(3) 0.5796(3) 0.03929(17)
H21 H 0.0769 0.5254 0.0606
H22 H 0.1741 0.5524 -0.0199
H23 H 0.0809 0.6796 0.0414
C27 C 0.7359(3) 0.8895(3) 0.16712(17)
C28 C 0.5876(3) 0.9299(3) 0.20412(17)
H24 H 0.5061 0.9509 0.1688
C29 C 0.5645(3) 0.9381(3) 0.29568(17)
H25 H 0.4674 0.9622 0.3213
C30 C 0.6868(3) 0.9101(3) 0.34766(18)
H26 H 0.6714 0.9116 0.4081
C31 C 0.8288(3) 0.8806(3) 0.31110(17)
H27 H 0.9093 0.8687 0.3462
C32 C 0.8531(3) 0.8683(3) 0.22081(17)
H28 H 0.9509 0.8451 0.1963
loop_
_geom_bond_atom_site_label_1
_geom_bond_atom_site_label_2
_geom_bond_site_symmetry_1
_geom_bond_site_symmetry_2
O1 H1 1_555 1_555
O2 C7 1_555 1_555
N1 N2 1_555 1_555
N2 C3 1_555 1_555
C1 O1 1_555 1_555
C2 C1 1_555 1_555
H2 C2 1_555 1_555
C3 C2 1_555 1_555
C4 C3 1_555 1_555
C5 C4 1_555 1_555
H3 C5 1_555 1_555
C6 C5 1_555 1_555
H4 C6 1_555 1_555
C7 C6 1_555 1_555
C8 C7 1_555 1_555
H5 C8 1_555 1_555
C9 C4 1_555 1_555
H6 C9 1_555 1_555
C10 O2 1_555 1_555
H7 C10 1_555 1_555
H8 C10 1_555 1_555
H9 C10 1_555 1_555
C11 N2 1_555 1_555
C12 C11 1_555 1_555
H10 C12 1_555 1_555
C13 C12 1_555 1_555
H11 C13 1_555 1_555
C14 C13 1_555 1_555
H12 C14 1_555 1_555
C15 C14 1_555 1_555
H13 C15 1_555 1_555
C16 C11 1_555 1_555
H14 C16 1_555 1_555
O3 H15 1_555 1_555
O4 C23 1_555 1_555
N3 N4 1_555 1_555
N4 C19 1_555 1_555
C17 O3 1_555 1_555
C18 C17 1_555 1_555
H16 C18 1_555 1_555
C19 C18 1_555 1_555
C20 C19 1_555 1_555
C21 C20 1_555 1_555
H17 C21 1_555 1_555
C22 C21 1_555 1_555
H18 C22 1_555 1_555
C23 C22 1_555 1_555
C24 C23 1_555 1_555
H19 C24 1_555 1_555
C25 C20 1_555 1_555
H20 C25 1_555 1_555
C26 O4 1_555 1_555
H21 C26 1_555 1_555
H22 C26 1_555 1_555
H23 C26 1_555 1_555
C27 N4 1_555 1_555
C28 C27 1_555 1_555
H24 C28 1_555 1_555
C29 C28 1_555 1_555
H25 C29 1_555 1_555
C30 C29 1_555 1_555
H26 C30 1_555 1_555
C31 C30 1_555 1_555
H27 C31 1_555 1_555
C32 C27 1_555 1_555
H28 C32 1_555 1_555
N1 C1 1_555 1_555
C8 C9 1_555 1_555
C15 C16 1_555 1_555
N3 C17 1_555 1_555
C24 C25 1_555 1_555
C31 C32 1_555 1_555

#END
