
#######################################################################
#
#                 Cambridge Crystallographic Data Centre
#                                CCDC 
#
#######################################################################
#
# If this CIF has been generated from an entry in the Cambridge 
# Structural Database, then it will include bibliographic, chemical, 
# crystal, experimental, refinement or atomic coordinate data resulting 
# from the CCDC's data processing and validation procedures.
#
#######################################################################

data_MAJHOX
_chemical_formula_moiety         'C24 H26 N2 O1 S2'
_chemical_name_systematic        
5-(2-(1,1-Dimethyl-3-propyl-1,3-dihydro-2H-benzo[e]indol-2-ylidene)ethylidene)-3-ethyl-2-sulfanylidene-1,3-thiazolidin-4-one
_symmetry_cell_setting           monoclinic
_symmetry_space_group_name_H-M   'P 21'
_symmetry_Int_Tables_number      4
_space_group_name_Hall           'P 2yb'
loop_
_symmetry_equiv_pos_site_id
_symmetry_equiv_pos_as_xyz
1 x,y,z
2 -x,1/2+y,-z
_cell_length_a                   7.659(2)
_cell_length_b                   8.932(3)
_cell_length_c                   16.909(5)
_cell_angle_alpha                90
_cell_angle_beta                 102.072(6)
_cell_angle_gamma                90
_cell_volume                     1131.17
_exptl_crystal_description       block
_cell_formula_units_Z            2
loop_
_atom_site_label
_atom_site_type_symbol
_atom_site_fract_x
_atom_site_fract_y
_atom_site_fract_z
S1 S 0.0642(3) 0.9346(3) 0.55272(12)
S2 S -0.2359(3) 0.8781(3) 0.41408(13)
O1 O -0.1190(8) 0.6697(7) 0.6929(4)
N1 N -0.1896(8) 0.7499(7) 0.5619(4)
N2 N 0.6022(8) 1.0811(6) 0.8093(3)
C1 C -0.1351(10) 0.8462(9) 0.5091(5)
C2 C -0.3548(10) 0.6658(9) 0.5435(4)
H1 H -0.3369 0.5683 0.5692
H2 H -0.3899 0.6507 0.4856
C3 C -0.5013(12) 0.7481(11) 0.5731(5)
H3 H -0.5090 0.8489 0.5529
H4 H -0.4750 0.7497 0.6311
H5 H -0.6131 0.6981 0.5539
C4 C -0.0804(11) 0.7426(10) 0.6411(5)
C5 C 0.0732(9) 0.8459(8) 0.6462(4)
C6 C 0.1992(10) 0.8632(9) 0.7149(4)
H6 H 0.1885 0.8020 0.7581
C7 C 0.3446(10) 0.9634(10) 0.7284(4)
H7 H 0.3598 1.0226 0.6851
C8 C 0.4661(10) 0.9810(8) 0.8003(4)
C9 C 0.4769(9) 0.9007(8) 0.8802(4)
C10 C 0.5145(10) 0.7300(8) 0.8704(4)
H8 H 0.4111 0.6836 0.8377
H9 H 0.5409 0.6834 0.9227
H10 H 0.6144 0.7185 0.8448
C11 C 0.3062(9) 0.9244(8) 0.9128(4)
H11 H 0.2822 1.0297 0.9150
H12 H 0.3222 0.8826 0.9662
H13 H 0.2077 0.8758 0.8778
C12 C 0.6380(9) 0.9734(8) 0.9333(4)
C13 C 0.7151(9) 0.9522(7) 1.0157(4)
C14 C 0.6505(11) 0.8524(8) 1.0683(4)
H14 H 0.5552 0.7891 1.0480
C15 C 0.7274(11) 0.8491(8) 1.1483(5)
H15 H 0.6820 0.7851 1.1824
C16 C 0.8756(10) 0.9413(9) 1.1808(5)
H16 H 0.9263 0.9383 1.2358
C17 C 0.9416(10) 1.0320(9) 1.1321(4)
H17 H 1.0413 1.0893 1.1540
C18 C 0.8679(10) 1.0453(8) 1.0495(4)
C19 C 0.9387(10) 1.1409(9) 0.9989(5)
H18 H 1.0432 1.1932 1.0197
C20 C 0.8582(10) 1.1595(10) 0.9196(5)
H19 H 0.9020 1.2279 0.8871
C21 C 0.7087(10) 1.0729(8) 0.8889(4)
C22 C 0.6385(11) 1.1873(10) 0.7493(4)
H20 H 0.5270 1.2134 0.7130
H21 H 0.6880 1.2781 0.7766
C23 C 0.7620(14) 1.1295(11) 0.7020(5)
H22 H 0.7140 1.0377 0.6754
H23 H 0.8748 1.1058 0.7380
C24 C 0.7950(14) 1.2433(14) 0.6375(5)
H24 H 0.6901 1.2503 0.5951
H25 H 0.8939 1.2104 0.6152
H26 H 0.8214 1.3398 0.6621
loop_
_geom_bond_atom_site_label_1
_geom_bond_atom_site_label_2
_geom_bond_site_symmetry_1
_geom_bond_site_symmetry_2
S1 C1 1_555 1_555
S2 C1 1_555 1_555
O1 C4 1_555 1_555
N1 C1 1_555 1_555
N2 C8 1_555 1_555
C2 N1 1_555 1_555
H1 C2 1_555 1_555
H2 C2 1_555 1_555
C3 C2 1_555 1_555
H3 C3 1_555 1_555
H4 C3 1_555 1_555
H5 C3 1_555 1_555
C4 N1 1_555 1_555
C5 S1 1_555 1_555
C6 C5 1_555 1_555
H6 C6 1_555 1_555
C7 C6 1_555 1_555
H7 C7 1_555 1_555
C8 C7 1_555 1_555
C9 C8 1_555 1_555
C10 C9 1_555 1_555
H8 C10 1_555 1_555
H9 C10 1_555 1_555
H10 C10 1_555 1_555
C11 C9 1_555 1_555
H11 C11 1_555 1_555
H12 C11 1_555 1_555
H13 C11 1_555 1_555
C12 C9 1_555 1_555
C13 C12 1_555 1_555
C14 C13 1_555 1_555
H14 C14 1_555 1_555
C15 C14 1_555 1_555
H15 C15 1_555 1_555
C16 C15 1_555 1_555
H16 C16 1_555 1_555
C17 C16 1_555 1_555
H17 C17 1_555 1_555
C18 C13 1_555 1_555
C19 C18 1_555 1_555
H18 C19 1_555 1_555
C20 C19 1_555 1_555
H19 C20 1_555 1_555
C21 N2 1_555 1_555
C22 N2 1_555 1_555
H20 C22 1_555 1_555
H21 C22 1_555 1_555
C23 C22 1_555 1_555
H22 C23 1_555 1_555
H23 C23 1_555 1_555
C24 C23 1_555 1_555
H24 C24 1_555 1_555
H25 C24 1_555 1_555
H26 C24 1_555 1_555
C4 C5 1_555 1_555
C12 C21 1_555 1_555
C17 C18 1_555 1_555
C20 C21 1_555 1_555

#END
