
#######################################################################
#
#                 Cambridge Crystallographic Data Centre
#                                CCDC 
#
#######################################################################
#
# If this CIF has been generated from an entry in the Cambridge 
# Structural Database, then it will include bibliographic, chemical, 
# crystal, experimental, refinement or atomic coordinate data resulting 
# from the CCDC's data processing and validation procedures.
#
#######################################################################

data_MAJHAJ
_chemical_formula_moiety         'C21 H20 N2 O1 S2'
_chemical_name_systematic        
3-Methyl-2-sulfanylidene-5-(2-(1,1,3-trimethyl-1,3-dihydro-2H-benzo[e]indol-2-ylidene)ethylidene)-1,3-thiazolidin-4-one
_symmetry_cell_setting           orthorhombic
_symmetry_space_group_name_H-M   'P b c a'
_symmetry_Int_Tables_number      61
_space_group_name_Hall           '-P 2ac 2ab'
loop_
_symmetry_equiv_pos_site_id
_symmetry_equiv_pos_as_xyz
1 x,y,z
2 1/2-x,-y,1/2+z
3 1/2+x,1/2-y,-z
4 -x,1/2+y,1/2-z
5 -x,-y,-z
6 1/2+x,y,1/2-z
7 1/2-x,1/2+y,z
8 x,1/2-y,1/2+z
_cell_length_a                   8.868(2)
_cell_length_b                   11.924(3)
_cell_length_c                   35.709(9)
_cell_angle_alpha                90
_cell_angle_beta                 90
_cell_angle_gamma                90
_cell_volume                     3775.94
_exptl_crystal_description       block
_cell_formula_units_Z            8
loop_
_atom_site_label
_atom_site_type_symbol
_atom_site_fract_x
_atom_site_fract_y
_atom_site_fract_z
S1 S 0.22556(13) 0.93123(10) 0.23334(3)
S2 S 0.27283(14) 1.00624(11) 0.15478(3)
O1 O 0.4711(4) 1.1650(3) 0.27355(7)
N1 N 0.0649(3) 0.8192(2) 0.37620(8)
N2 N 0.3906(4) 1.0992(3) 0.21647(8)
C1 C 0.2857(5) 1.0172(4) 0.52058(10)
H1 H 0.3507 1.0708 0.5304
C2 C 0.1005(5) 0.8743(4) 0.53060(11)
H2 H 0.0423 0.8318 0.5469
C3 C 0.1945(6) 0.9539(4) 0.54461(12)
H3 H 0.1984 0.9664 0.5703
C4 C 0.0896(4) 0.8551(3) 0.49174(11)
C5 C 0.1827(4) 0.9201(3) 0.46707(9)
C6 C 0.2797(4) 1.0008(3) 0.48293(9)
H4 H 0.3408 1.0437 0.4673
C7 C 0.1661(4) 0.9009(3) 0.42830(10)
C8 C 0.0643(4) 0.8239(3) 0.41537(10)
C9 C -0.0261(4) 0.7593(3) 0.43928(11)
H5 H -0.0937 0.7068 0.4298
C10 C -0.0118(5) 0.7758(3) 0.47664(11)
H6 H -0.0708 0.7335 0.4929
C11 C 0.4130(4) 0.9332(4) 0.39474(10)
H7 H 0.4574 0.9719 0.4156
H8 H 0.4568 0.9602 0.3719
H9 H 0.4316 0.8542 0.3971
C12 C 0.2027(4) 1.0802(3) 0.39260(9)
H10 H 0.0953 1.0891 0.3911
H11 H 0.2489 1.1131 0.3709
H12 H 0.2394 1.1167 0.4148
C13 C 0.2417(4) 0.9548(3) 0.39425(9)
C14 C 0.1668(4) 0.8923(3) 0.36178(10)
C15 C 0.1924(4) 0.9056(3) 0.32397(10)
H13 H 0.1413 0.8574 0.3079
C16 C -0.0364(5) 0.7486(3) 0.35464(10)
H14 H 0.0024 0.6735 0.3539
H15 H -0.0443 0.7772 0.3296
H16 H -0.1343 0.7484 0.3661
C17 C 0.2885(4) 0.9851(3) 0.30747(10)
H17 H 0.3448 1.0294 0.3238
C18 C 0.3082(4) 1.0045(3) 0.27021(10)
C19 C 0.3981(5) 1.0967(4) 0.25594(11)
C20 C 0.3028(4) 1.0202(3) 0.19990(10)
C21 C 0.4720(5) 1.1854(3) 0.19542(11)
H18 H 0.5231 1.2344 0.2126
H19 H 0.4018 1.2280 0.1807
H20 H 0.5443 1.1503 0.1792
loop_
_geom_bond_atom_site_label_1
_geom_bond_atom_site_label_2
_geom_bond_site_symmetry_1
_geom_bond_site_symmetry_2
S1 C18 1_555 1_555
S2 C20 1_555 1_555
O1 C19 1_555 1_555
N1 C8 1_555 1_555
N2 C19 1_555 1_555
C1 H1 1_555 1_555
C2 H2 1_555 1_555
C3 C1 1_555 1_555
H3 C3 1_555 1_555
C4 C2 1_555 1_555
C5 C4 1_555 1_555
C6 C1 1_555 1_555
H4 C6 1_555 1_555
C7 C5 1_555 1_555
C8 C7 1_555 1_555
C9 C8 1_555 1_555
H5 C9 1_555 1_555
C10 C4 1_555 1_555
H6 C10 1_555 1_555
C11 H7 1_555 1_555
H8 C11 1_555 1_555
H9 C11 1_555 1_555
C12 H10 1_555 1_555
H11 C12 1_555 1_555
H12 C12 1_555 1_555
C13 C7 1_555 1_555
C14 N1 1_555 1_555
C15 C14 1_555 1_555
H13 C15 1_555 1_555
C16 N1 1_555 1_555
H14 C16 1_555 1_555
H15 C16 1_555 1_555
H16 C16 1_555 1_555
C17 C15 1_555 1_555
H17 C17 1_555 1_555
C18 C17 1_555 1_555
C19 C18 1_555 1_555
C20 S1 1_555 1_555
C21 N2 1_555 1_555
H18 C21 1_555 1_555
H19 C21 1_555 1_555
H20 C21 1_555 1_555
N2 C20 1_555 1_555
C2 C3 1_555 1_555
C5 C6 1_555 1_555
C9 C10 1_555 1_555
C11 C13 1_555 1_555
C12 C13 1_555 1_555
C13 C14 1_555 1_555

#END
