
#######################################################################
#
#                 Cambridge Crystallographic Data Centre
#                                CCDC 
#
#######################################################################
#
# If this CIF has been generated from an entry in the Cambridge 
# Structural Database, then it will include bibliographic, chemical, 
# crystal, experimental, refinement or atomic coordinate data resulting 
# from the CCDC's data processing and validation procedures.
#
#######################################################################

data_MAJMUI
_chemical_formula_moiety         'C30 H38 O5'
_chemical_name_systematic        
7-Hydroxy-1',8a,10'-trimethyl-5,5'-bis(methylene)-3a,4,4a,5,6,7,8,8a,9,9a-decahydro-6'H-spiro[naphtho[2,3-b]furan-3,14'-[7]oxatetracyclo[10.2.1.0^2,11^.0^4,8^]pentadec[2(11)]ene]-2,6'-dione
_symmetry_cell_setting           orthorhombic
_symmetry_space_group_name_H-M   'P 21 21 21'
_symmetry_Int_Tables_number      19
_space_group_name_Hall           'P 2ac 2ab'
loop_
_symmetry_equiv_pos_site_id
_symmetry_equiv_pos_as_xyz
1 x,y,z
2 1/2-x,-y,1/2+z
3 -x,1/2+y,1/2-z
4 1/2+x,1/2-y,-z
_cell_length_a                   12.3053(2)
_cell_length_b                   13.5240(2)
_cell_length_c                   15.5466(2)
_cell_angle_alpha                90
_cell_angle_beta                 90
_cell_angle_gamma                90
_cell_volume                     2587.22
_exptl_crystal_colour            colorless
_exptl_crystal_description       prismatic
_cell_formula_units_Z            4
loop_
_atom_site_label
_atom_site_type_symbol
_atom_site_fract_x
_atom_site_fract_y
_atom_site_fract_z
O1 O 0.65352(16) 0.20915(16) 0.1789(2)
H1 H 0.6582 0.1474 0.1828
O2 O 0.1594(2) 0.49435(14) -0.14169(12)
O3 O 0.32518(16) 0.50070(13) -0.08616(11)
O4 O 0.2472(2) 1.03178(17) 0.34805(16)
O5 O 0.13304(15) 0.90779(13) 0.31786(12)
C1 C 0.5622(2) 0.3277(2) 0.0902(2)
H2 H 0.6110 0.3127 0.0412
H3 H 0.5976 0.3795 0.1253
C2 C 0.5499(2) 0.23508(19) 0.14454(19)
H4 H 0.5231 0.1799 0.1074
C3 C 0.4689(2) 0.2526(2) 0.21685(19)
H5 H 0.4559 0.1898 0.2479
H6 H 0.4995 0.3008 0.2582
C4 C 0.3629(2) 0.29139(18) 0.18199(15)
C5 C 0.37622(19) 0.38609(17) 0.13144(14)
H7 H 0.4123 0.4347 0.1706
C6 C 0.27016(19) 0.43297(17) 0.10213(15)
H8 H 0.2218 0.4407 0.1525
H9 H 0.2339 0.3878 0.0611
C7 C 0.28505(18) 0.53442(16) 0.05898(14)
H10 H 0.2986 0.5864 0.1035
C8 C 0.3779(2) 0.53293(18) -0.00659(16)
H11 H 0.4034 0.6025 -0.0150
C9 C 0.47587(19) 0.4696(2) 0.01310(18)
H12 H 0.5244 0.5077 0.0516
H13 H 0.5158 0.4584 -0.0413
C10 C 0.45498(19) 0.36872(18) 0.05484(15)
C11 C 0.18578(19) 0.56237(15) 0.00363(14)
C12 C 0.2176(2) 0.51600(16) -0.08200(16)
C13 C 0.07223(19) 0.52784(17) 0.03481(17)
H14 H 0.0399 0.4801 -0.0061
H15 H 0.0769 0.4966 0.0923
C14 C 0.4068(2) 0.2952(2) -0.01071(17)
H16 H 0.3464 0.3266 -0.0413
H17 H 0.3804 0.2364 0.0196
H18 H 0.4631 0.2759 -0.0520
C15 C 0.2714(3) 0.2437(2) 0.1919(2)
H19 H 0.2702 0.1825 0.2218
H20 H 0.2059 0.2703 0.1691
C16 C 0.05255(17) 0.69084(15) 0.10731(13)
C17 C 0.00482(18) 0.62415(16) 0.03846(15)
H21 H -0.0757 0.6147 0.0415
C18 C 0.0460(2) 0.67489(18) -0.04251(15)
H22 H 0.0141 0.7414 -0.0510
H23 H 0.0360 0.6342 -0.0948
C19 C 0.1651(2) 0.67874(15) -0.01229(14)
C20 C 0.14867(17) 0.72363(14) 0.07723(13)
C21 C 0.23319(18) 0.78974(17) 0.11759(15)
H24 H 0.2759 0.8219 0.0715
H25 H 0.2836 0.7488 0.1521
C22 C 0.18393(18) 0.86911(16) 0.17501(16)
H26 H 0.1293 0.9067 0.1405
C23 C 0.12713(18) 0.82798(17) 0.25407(14)
H27 H 0.1688 0.7696 0.2758
C24 C 0.01099(18) 0.79863(19) 0.24069(16)
H28 H -0.0260 0.8509 0.2070
H29 H -0.0254 0.7944 0.2974
C25 C -0.00240(18) 0.69937(18) 0.19376(15)
H30 H -0.0820 0.6920 0.1825
C26 C 0.2613(2) 0.94159(17) 0.21379(19)
C27 C 0.2174(2) 0.96713(19) 0.2995(2)
C28 C 0.3524(3) 0.9793(2) 0.1835(3)
H31 H 0.3928 1.0250 0.2171
H32 H 0.3776 0.9608 0.1280
C29 C 0.0293(3) 0.6122(2) 0.25151(17)
H33 H 0.0105 0.5500 0.2228
H34 H -0.0100 0.6169 0.3062
H35 H 0.1077 0.6141 0.2625
C30 C 0.2431(2) 0.73106(17) -0.07251(15)
H36 H 0.2193 0.7995 -0.0808
H37 H 0.2442 0.6969 -0.1281
H38 H 0.3162 0.7306 -0.0475
loop_
_geom_bond_atom_site_label_1
_geom_bond_atom_site_label_2
_geom_bond_site_symmetry_1
_geom_bond_site_symmetry_2
O1 H1 1_555 1_555
O2 C12 1_555 1_555
O3 C8 1_555 1_555
O4 C27 1_555 1_555
O5 C23 1_555 1_555
C1 H2 1_555 1_555
H3 C1 1_555 1_555
C2 O1 1_555 1_555
H4 C2 1_555 1_555
C3 C2 1_555 1_555
H5 C3 1_555 1_555
H6 C3 1_555 1_555
C4 C3 1_555 1_555
C5 C4 1_555 1_555
H7 C5 1_555 1_555
C6 C5 1_555 1_555
H8 C6 1_555 1_555
H9 C6 1_555 1_555
C7 C6 1_555 1_555
H10 C7 1_555 1_555
C8 C7 1_555 1_555
H11 C8 1_555 1_555
C9 C8 1_555 1_555
H12 C9 1_555 1_555
H13 C9 1_555 1_555
C10 C1 1_555 1_555
C11 C7 1_555 1_555
C12 O3 1_555 1_555
C13 C11 1_555 1_555
H14 C13 1_555 1_555
H15 C13 1_555 1_555
C14 C10 1_555 1_555
H16 C14 1_555 1_555
H17 C14 1_555 1_555
H18 C14 1_555 1_555
C15 C4 1_555 1_555
H19 C15 1_555 1_555
H20 C15 1_555 1_555
C16 C17 1_555 1_555
C17 C13 1_555 1_555
H21 C17 1_555 1_555
C18 C17 1_555 1_555
H22 C18 1_555 1_555
H23 C18 1_555 1_555
C19 C11 1_555 1_555
C20 C16 1_555 1_555
C21 C20 1_555 1_555
H24 C21 1_555 1_555
H25 C21 1_555 1_555
C22 C21 1_555 1_555
H26 C22 1_555 1_555
C23 C22 1_555 1_555
H27 C23 1_555 1_555
C24 C23 1_555 1_555
H28 C24 1_555 1_555
H29 C24 1_555 1_555
C25 C16 1_555 1_555
H30 C25 1_555 1_555
C26 C22 1_555 1_555
C27 O5 1_555 1_555
C28 C26 1_555 1_555
H31 C28 1_555 1_555
H32 C28 1_555 1_555
C29 C25 1_555 1_555
H33 C29 1_555 1_555
H34 C29 1_555 1_555
H35 C29 1_555 1_555
C30 C19 1_555 1_555
H36 C30 1_555 1_555
H37 C30 1_555 1_555
H38 C30 1_555 1_555
C1 C2 1_555 1_555
C5 C10 1_555 1_555
C9 C10 1_555 1_555
C11 C12 1_555 1_555
C18 C19 1_555 1_555
C19 C20 1_555 1_555
C24 C25 1_555 1_555
C26 C27 1_555 1_555

#END
