
#######################################################################
#
#                 Cambridge Crystallographic Data Centre
#                                CCDC 
#
#######################################################################
#
# If this CIF has been generated from an entry in the Cambridge 
# Structural Database, then it will include bibliographic, chemical, 
# crystal, experimental, refinement or atomic coordinate data resulting 
# from the CCDC's data processing and validation procedures.
#
#######################################################################

data_MAJRAS
_chemical_formula_moiety         'C18 H12 F3 N3 O1'
_chemical_name_systematic        
3-(2-(Trifluoromethyl)benzylidene)-3,4-dihydropyrimido[1,2-a]benzimidazol-2(1H)-one
_symmetry_cell_setting           monoclinic
_symmetry_space_group_name_H-M   'P 21/c'
_symmetry_Int_Tables_number      14
_space_group_name_Hall           '-P 2ybc'
loop_
_symmetry_equiv_pos_site_id
_symmetry_equiv_pos_as_xyz
1 x,y,z
2 -x,1/2+y,1/2-z
3 -x,-y,-z
4 x,1/2-y,1/2+z
_cell_length_a                   6.5560(13)
_cell_length_b                   33.361(7)
_cell_length_c                   7.1651(14)
_cell_angle_alpha                90
_cell_angle_beta                 99.55(3)
_cell_angle_gamma                90
_cell_volume                     1545.39
_exptl_crystal_colour            colorless
_exptl_crystal_description       plate
_cell_formula_units_Z            4
loop_
_atom_site_label
_atom_site_type_symbol
_atom_site_fract_x
_atom_site_fract_y
_atom_site_fract_z
F1 F -0.147(2) 0.2696(2) 1.0787(13)
F2 F 0.1129(15) 0.2823(3) 0.964(2)
F3 F -0.065(2) 0.3312(3) 1.0907(17)
O1 O 0.4844(3) 0.38582(7) 0.9063(4)
N1 N 0.0443(3) 0.46991(7) 0.7556(3)
N2 N 0.2678(3) 0.51781(7) 0.8799(3)
N3 N 0.3852(3) 0.45023(7) 0.8810(3)
H1 H 0.5013 0.4571 0.9573
C1 C -0.2012(7) 0.31201(10) 0.7935(6)
C2 C -0.3927(9) 0.29585(13) 0.7210(9)
H2 H -0.4542 0.2771 0.7944
C3 C -0.4948(7) 0.30644(14) 0.5456(10)
H3 H -0.6264 0.2952 0.4987
C4 C -0.4065(6) 0.33337(13) 0.4375(8)
H4 H -0.4747 0.3401 0.3140
C5 C -0.2176(5) 0.35056(11) 0.5099(6)
H5 H -0.1587 0.3695 0.4355
C6 C -0.1117(5) 0.34080(9) 0.6888(5)
C7 C -0.0888(9) 0.29832(14) 0.9799(7)
C8 C 0.0888(5) 0.35948(10) 0.7625(4)
H6 H 0.1980 0.3420 0.8138
C9 C 0.1325(4) 0.39856(9) 0.7646(4)
C10 C -0.0261(4) 0.43019(8) 0.6922(4)
H7 H -0.0533 0.4296 0.5521
H8 H -0.1574 0.4242 0.7375
C11 C -0.0636(4) 0.50611(8) 0.7309(3)
C12 C -0.2653(4) 0.51513(9) 0.6512(4)
H9 H -0.3596 0.4950 0.5977
C13 C -0.3224(4) 0.55518(10) 0.6537(4)
H10 H -0.4593 0.5627 0.5999
C14 C -0.1833(4) 0.58461(9) 0.7335(4)
H11 H -0.2275 0.6117 0.7315
C15 C 0.0179(4) 0.57526(9) 0.8155(4)
H12 H 0.1109 0.5953 0.8721
C16 C 0.0780(4) 0.53531(9) 0.8116(4)
C17 C 0.2388(4) 0.47946(9) 0.8422(4)
C18 C 0.3470(5) 0.41029(10) 0.8545(4)
F4? F -0.264(3) 0.2825(4) 1.0582(16)
F5? F 0.051(2) 0.2715(4) 0.963(3)
F6? F 0.0195(18) 0.3259(4) 1.1047(18)
loop_
_geom_bond_atom_site_label_1
_geom_bond_atom_site_label_2
_geom_bond_site_symmetry_1
_geom_bond_site_symmetry_2
F1 C7 1_555 1_555
F2 C7 1_555 1_555
F3 C7 1_555 1_555
O1 C18 1_555 1_555
N1 C10 1_555 1_555
N2 C16 1_555 1_555
N3 H1 1_555 1_555
C1 C2 1_555 1_555
C2 H2 1_555 1_555
C3 C2 1_555 1_555
H3 C3 1_555 1_555
C4 C3 1_555 1_555
H4 C4 1_555 1_555
C5 C4 1_555 1_555
H5 C5 1_555 1_555
C6 C1 1_555 1_555
C7 C1 1_555 1_555
C8 C6 1_555 1_555
H6 C8 1_555 1_555
C9 C8 1_555 1_555
C10 C9 1_555 1_555
H7 C10 1_555 1_555
H8 C10 1_555 1_555
C11 N1 1_555 1_555
C12 C11 1_555 1_555
H9 C12 1_555 1_555
C13 C12 1_555 1_555
H10 C13 1_555 1_555
C14 C13 1_555 1_555
H11 C14 1_555 1_555
C15 C14 1_555 1_555
H12 C15 1_555 1_555
C16 C11 1_555 1_555
C17 N1 1_555 1_555
C18 N3 1_555 1_555
N2 C17 1_555 1_555
N3 C17 1_555 1_555
C5 C6 1_555 1_555
C9 C18 1_555 1_555
C15 C16 1_555 1_555

#END
