
#######################################################################
#
#                 Cambridge Crystallographic Data Centre
#                                CCDC 
#
#######################################################################
#
# If this CIF has been generated from an entry in the Cambridge 
# Structural Database, then it will include bibliographic, chemical, 
# crystal, experimental, refinement or atomic coordinate data resulting 
# from the CCDC's data processing and validation procedures.
#
#######################################################################

data_MAJSIC
_chemical_formula_moiety         'C40 H25 B1 Cl1 N3 O3'
_chemical_name_systematic        
9c-((3-Chlorobenzoyl)peroxy)-3,6,9-triphenyl-9cH-8b\l^5^,9b,9d-triaza-9\L^5^-boratricyclopenta[cd,gh,kl]phenalene
_symmetry_cell_setting           orthorhombic
_symmetry_space_group_name_H-M   'P 21 21 21'
_symmetry_Int_Tables_number      19
_space_group_name_Hall           'P 2ac 2ab'
loop_
_symmetry_equiv_pos_site_id
_symmetry_equiv_pos_as_xyz
1 x,y,z
2 1/2-x,-y,1/2+z
3 1/2+x,1/2-y,-z
4 -x,1/2+y,1/2-z
_cell_length_a                   9.5886(9)
_cell_length_b                   13.7023(12)
_cell_length_c                   23.195(2)
_cell_angle_alpha                90
_cell_angle_beta                 90
_cell_angle_gamma                90
_cell_volume                     3047.5
_exptl_crystal_colour            yellow
_exptl_crystal_description       Prism
_cell_formula_units_Z            4
loop_
_atom_site_label
_atom_site_type_symbol
_atom_site_fract_x
_atom_site_fract_y
_atom_site_fract_z
C1 C -0.0042(3) 0.95555(18) 0.17186(10)
C2 C -0.0733(3) 0.87293(19) 0.19736(11)
H1 H -0.0616 0.8081 0.1865
C3 C -0.1591(3) 0.9058(2) 0.24016(11)
H2 H -0.2162 0.8674 0.2633
C4 C -0.1458(3) 1.01058(19) 0.24321(10)
C5 C -0.2289(3) 1.08504(19) 0.26819(10)
C6 C -0.2150(3) 1.18175(19) 0.24662(10)
C7 C -0.2995(3) 1.26871(19) 0.24717(11)
H3 H -0.3759 1.2797 0.2710
C8 C -0.2490(3) 1.3324(2) 0.20691(11)
H4 H -0.2856 1.3936 0.1985
C9 C -0.1299(3) 1.28847(19) 0.17980(11)
C10 C -0.0572(3) 1.30753(19) 0.12789(11)
C11 C 0.0178(3) 1.22961(19) 0.10155(11)
C12 C 0.0716(3) 1.2090(2) 0.04523(11)
H5 H 0.0828 1.2541 0.0156
C13 C 0.1035(3) 1.1119(2) 0.04235(11)
H6 H 0.1392 1.0797 0.0103
C14 C 0.0729(3) 1.06811(19) 0.09700(11)
C15 C 0.0633(3) 0.97141(19) 0.11833(10)
C16 C -0.3414(3) 1.05854(19) 0.30898(11)
C17 C -0.3169(3) 0.9931(2) 0.35404(11)
H7 H -0.2287 0.9659 0.3586
C18 C -0.4229(3) 0.9683(2) 0.39211(11)
H8 H -0.4053 0.9246 0.4219
C19 C -0.5543(3) 1.0082(2) 0.38599(11)
H9 H -0.6248 0.9919 0.4118
C20 C -0.5805(3) 1.0727(2) 0.34125(11)
H10 H -0.6689 1.0997 0.3369
C21 C -0.4755(3) 1.0968(2) 0.30317(11)
H11 H -0.4945 1.1394 0.2730
C22 C -0.0699(3) 1.4048(2) 0.10049(11)
C23 C -0.0624(3) 1.4879(2) 0.13518(14)
H12 H -0.0533 1.4813 0.1749
C24 C -0.0685(3) 1.5804(2) 0.11077(17)
H13 H -0.0616 1.6353 0.1342
C25 C -0.0845(3) 1.5913(3) 0.05227(18)
H14 H -0.0887 1.6533 0.0361
C26 C -0.0944(3) 1.5094(3) 0.01730(15)
H15 H -0.1058 1.5168 -0.0223
C27 C -0.0874(3) 1.4166(2) 0.04108(12)
H16 H -0.0943 1.3621 0.0174
C28 C 0.1060(3) 0.88686(19) 0.08232(11)
C29 C 0.0621(3) 0.8778(2) 0.02557(11)
H17 H 0.0032 0.9246 0.0097
C30 C 0.1056(3) 0.7992(2) -0.00771(12)
H18 H 0.0758 0.7936 -0.0457
C31 C 0.1931(3) 0.7291(2) 0.01548(12)
H19 H 0.2229 0.6769 -0.0070
C32 C 0.2360(3) 0.7368(2) 0.07195(13)
H20 H 0.2943 0.6896 0.0877
C33 C 0.1924(3) 0.81484(19) 0.10528(11)
H21 H 0.2211 0.8193 0.1435
C34 C 0.3306(3) 1.1644(2) 0.17563(12)
C35 C 0.4507(8) 1.1094(6) 0.1508(4)
C36 C 0.5544(6) 1.1587(4) 0.1218(3)
H22 H 0.5483 1.2259 0.1169
C37 C 0.6670(5) 1.1083(4) 0.1002(2)
H23 H 0.7379 1.1419 0.0813
C38 C 0.6754(5) 1.0076(5) 0.1064(2)
H24 H 0.7511 0.9735 0.0914
C39 C 0.5702(6) 0.9583(4) 0.1352(2)
C40 C 0.4568(7) 1.0078(5) 0.1578(3)
H25 H 0.3865 0.9745 0.1772
N1 N -0.0435(2) 1.03437(15) 0.20461(8)
N2 N -0.1101(2) 1.20205(15) 0.20821(9)
N3 N 0.0293(2) 1.14345(15) 0.13128(9)
B1 B 0.0059(3) 1.1354(2) 0.19412(13)
O1 O 0.12692(18) 1.16687(13) 0.23010(7)
O2 O 0.24541(19) 1.10879(14) 0.20967(8)
O3 O 0.3160(2) 1.24939(15) 0.16640(10)
Cl1 Cl 0.57936(9) 0.83195(6) 0.14278(4)
Cl2? Cl 0.7560(3) 1.1096(3) 0.04832(13)
C41? C 0.5470(18) 0.9276(9) 0.1492(7)
H26? H 0.5511 0.8619 0.1592
C42? C 0.6459(15) 0.9668(10) 0.1120(5)
H27? H 0.7162 0.9273 0.0971
C43? C 0.6398(14) 1.0649(11) 0.0970(5)
C44? C 0.5347(17) 1.1238(8) 0.1192(7)
H28? H 0.5306 1.1895 0.1092
C45? C 0.4358(17) 1.0847(12) 0.1564(8)
C46? C 0.4419(17) 0.9865(13) 0.1714(8)
H29? H 0.3757 0.9603 0.1962
loop_
_geom_bond_atom_site_label_1
_geom_bond_atom_site_label_2
_geom_bond_site_symmetry_1
_geom_bond_site_symmetry_2
C1 C2 1_555 1_555
C2 H1 1_555 1_555
C3 C2 1_555 1_555
H2 C3 1_555 1_555
C4 C3 1_555 1_555
C5 C4 1_555 1_555
C6 C5 1_555 1_555
C7 C6 1_555 1_555
H3 C7 1_555 1_555
C8 C7 1_555 1_555
H4 C8 1_555 1_555
C9 C8 1_555 1_555
C10 C9 1_555 1_555
C11 C10 1_555 1_555
C12 C11 1_555 1_555
H5 C12 1_555 1_555
C13 C12 1_555 1_555
H6 C13 1_555 1_555
C14 C13 1_555 1_555
C15 C1 1_555 1_555
C16 C5 1_555 1_555
C17 C16 1_555 1_555
H7 C17 1_555 1_555
C18 C17 1_555 1_555
H8 C18 1_555 1_555
C19 C18 1_555 1_555
H9 C19 1_555 1_555
C20 C19 1_555 1_555
H10 C20 1_555 1_555
C21 C16 1_555 1_555
H11 C21 1_555 1_555
C22 C10 1_555 1_555
C23 C22 1_555 1_555
H12 C23 1_555 1_555
C24 C23 1_555 1_555
H13 C24 1_555 1_555
C25 C24 1_555 1_555
H14 C25 1_555 1_555
C26 C25 1_555 1_555
H15 C26 1_555 1_555
C27 C22 1_555 1_555
H16 C27 1_555 1_555
C28 C15 1_555 1_555
C29 C28 1_555 1_555
H17 C29 1_555 1_555
C30 C29 1_555 1_555
H18 C30 1_555 1_555
C31 C30 1_555 1_555
H19 C31 1_555 1_555
C32 C31 1_555 1_555
H20 C32 1_555 1_555
C33 C28 1_555 1_555
H21 C33 1_555 1_555
C34 C35 1_555 1_555
C35 C36 1_555 1_555
C36 H22 1_555 1_555
C37 C36 1_555 1_555
H23 C37 1_555 1_555
C38 C37 1_555 1_555
H24 C38 1_555 1_555
C39 C38 1_555 1_555
C40 C35 1_555 1_555
H25 C40 1_555 1_555
N1 C1 1_555 1_555
N2 C6 1_555 1_555
N3 C11 1_555 1_555
B1 N1 1_555 1_555
O1 B1 1_555 1_555
O2 C34 1_555 1_555
O3 C34 1_555 1_555
Cl1 C39 1_555 1_555
C4 N1 1_555 1_555
C9 N2 1_555 1_555
C14 C15 1_555 1_555
C14 N3 1_555 1_555
C20 C21 1_555 1_555
C26 C27 1_555 1_555
C32 C33 1_555 1_555
C39 C40 1_555 1_555
N2 B1 1_555 1_555
N3 B1 1_555 1_555
O1 O2 1_555 1_555

#END
