
#######################################################################
#
#                 Cambridge Crystallographic Data Centre
#                                CCDC 
#
#######################################################################
#
# If this CIF has been generated from an entry in the Cambridge 
# Structural Database, then it will include bibliographic, chemical, 
# crystal, experimental, refinement or atomic coordinate data resulting 
# from the CCDC's data processing and validation procedures.
#
#######################################################################

data_MAJSEY
_chemical_formula_moiety         'C37 H30 B1 N3 O2,0.5(C6 H5 Cl1)'
_chemical_name_systematic        
'9c-(t-Butylperoxy)-3,6,9-triphenyl-9cH-8b\l^5^,9b,9d-triaza-9\L^5^-boratricyclopenta[cd,gh,kl]phenalene chlorobenzene solvate'
_symmetry_cell_setting           triclinic
_symmetry_space_group_name_H-M   'P -1'
_symmetry_Int_Tables_number      2
_space_group_name_Hall           '-P 1'
loop_
_symmetry_equiv_pos_site_id
_symmetry_equiv_pos_as_xyz
1 x,y,z
2 -x,-y,-z
_cell_length_a                   12.848
_cell_length_b                   16.369
_cell_length_c                   17.810
_cell_angle_alpha                102.81
_cell_angle_beta                 105.51
_cell_angle_gamma                112.22
_cell_volume                     3114.68
_exptl_crystal_colour            yellow
_exptl_crystal_description       Prism
_cell_formula_units_Z            4
loop_
_atom_site_label
_atom_site_type_symbol
_atom_site_fract_x
_atom_site_fract_y
_atom_site_fract_z
B1 B 0.23253(15) 0.58640(12) -0.20618(10)
O1 O 0.25330(8) 0.68341(7) -0.19188(6)
O2 O 0.13524(9) 0.67601(7) -0.24081(6)
N1 N 0.13653(10) 0.52723(9) -0.18105(7)
N2 N 0.19872(10) 0.52671(8) -0.29432(7)
N3 N 0.34797(10) 0.59132(8) -0.15523(7)
C1 C 0.15845(13) 0.52795(10) -0.10143(9)
C2 C 0.04055(13) 0.47529(11) -0.10103(9)
H1 H 0.0249 0.4663 -0.0547
C3 C -0.04486(13) 0.44060(11) -0.18048(9)
H2 H -0.1285 0.4040 -0.1975
C4 C 0.01711(13) 0.47046(10) -0.23301(9)
C5 C -0.01477(13) 0.44445(10) -0.32052(9)
C6 C 0.08142(13) 0.46861(10) -0.34971(9)
C7 C 0.08908(13) 0.42960(11) -0.42735(9)
H3 H 0.0234 0.3893 -0.4778
C8 C 0.21003(13) 0.46208(11) -0.41414(9)
H4 H 0.2407 0.4480 -0.4543
C9 C 0.28176(13) 0.52181(10) -0.32737(9)
C10 C 0.40538(13) 0.55954(10) -0.27259(9)
C11 C 0.43419(13) 0.58736(10) -0.18493(9)
C12 C 0.52962(13) 0.59443(10) -0.11591(9)
H5 H 0.6032 0.5972 -0.1160
C13 C 0.49405(13) 0.59652(11) -0.04977(9)
H6 H 0.5394 0.6011 0.0028
C14 C 0.37466(13) 0.59034(10) -0.07566(8)
C15 C 0.28073(13) 0.56533(10) -0.04474(9)
C16 C -0.14234(13) 0.38541(11) -0.38145(9)
C17 C -0.22200(14) 0.30417(11) -0.37422(9)
H7 H -0.1947 0.2859 -0.3302
C18 C -0.34121(14) 0.25067(12) -0.43206(10)
H8 H -0.3937 0.1968 -0.4266
C19 C -0.38240(13) 0.27715(11) -0.49804(9)
H9 H -0.4626 0.2413 -0.5367
C20 C -0.30431(13) 0.35694(11) -0.50641(9)
H10 H -0.3318 0.3745 -0.5510
C21 C -0.18512(13) 0.41073(11) -0.44847(9)
H11 H -0.1330 0.4644 -0.4544
C22 C 0.50188(13) 0.56051(11) -0.30360(9)
C23 C 0.48112(14) 0.48547(11) -0.37110(9)
H12 H 0.4043 0.4330 -0.3983
C24 C 0.57395(14) 0.48851(12) -0.39799(10)
H13 H 0.5585 0.4386 -0.4436
C25 C 0.68930(14) 0.56529(12) -0.35739(10)
H14 H 0.7516 0.5668 -0.3752
C26 C 0.71129(14) 0.64006(12) -0.28981(10)
H15 H 0.7887 0.6918 -0.2621
C27 C 0.61834(13) 0.63786(11) -0.26356(9)
H16 H 0.6338 0.6886 -0.2187
C28 C 0.30847(13) 0.57000(11) 0.04296(9)
C29 C 0.40144(13) 0.65221(11) 0.10835(9)
H17 H 0.4486 0.7029 0.0966
C30 C 0.42464(14) 0.65942(12) 0.19114(9)
H18 H 0.4868 0.7147 0.2343
C31 C 0.35477(14) 0.58390(13) 0.20916(9)
H19 H 0.3693 0.5889 0.2644
C32 C 0.26348(14) 0.50126(12) 0.14476(10)
H20 H 0.2171 0.4505 0.1569
C33 C 0.24066(13) 0.49363(11) 0.06206(9)
H21 H 0.1800 0.4375 0.0191
C34 C 0.15899(14) 0.74334(11) -0.28238(9)
C35 C 0.21277(14) 0.71832(12) -0.34498(9)
H22 H 0.2925 0.7263 -0.3157
H23 H 0.2188 0.7592 -0.3766
H24 H 0.1609 0.6537 -0.3822
C36 C 0.03064(15) 0.72810(12) -0.32798(10)
H25 H -0.0201 0.6631 -0.3644
H26 H 0.0340 0.7681 -0.3603
H27 H -0.0027 0.7435 -0.2879
C37 C 0.24083(15) 0.84345(11) -0.21907(10)
H28 H 0.2049 0.8564 -0.1800
H29 H 0.2498 0.8876 -0.2475
H30 H 0.3195 0.8497 -0.1897
B2 B 0.73146(15) 0.91232(12) 0.23241(10)
O3 O 0.70123(9) 0.81564(7) 0.22684(6)
O4 O 0.80831(9) 0.82192(7) 0.28940(6)
N4 N 0.62212(11) 0.90893(8) 0.17387(7)
N5 N 0.83442(11) 0.96082(9) 0.20798(7)
N6 N 0.76208(11) 0.97987(9) 0.31632(7)
C38 C 0.53412(13) 0.92044(10) 0.19707(9)
C39 C 0.44659(13) 0.91291(11) 0.12298(9)
H31 H 0.3734 0.9141 0.1182
C40 C 0.48894(13) 0.90359(11) 0.06026(9)
H32 H 0.4497 0.8977 0.0058
C41 C 0.60442(13) 0.90455(10) 0.09346(9)
C42 C 0.70254(13) 0.91891(10) 0.06642(9)
C43 C 0.82036(13) 0.95086(10) 0.12692(9)
C44 C 0.94252(13) 0.99262(11) 0.12956(9)
H33 H 0.9636 0.9927 0.0835
C45 C 1.02234(13) 1.03211(11) 0.21113(9)
H34 H 1.1070 1.0640 0.2302
C46 C 0.95293(13) 1.01577(10) 0.26239(9)
C47 C 0.97844(13) 1.05361(10) 0.34913(9)
C48 C 0.87820(13) 1.03883(10) 0.37354(9)
C49 C 0.86564(13) 1.08619(11) 0.44630(9)
H35 H 0.9293 1.1295 0.4968
C50 C 0.74393(14) 1.05662(11) 0.42848(9)
H36 H 0.7106 1.0754 0.4651
C51 C 0.67654(13) 0.99154(10) 0.34326(9)
C52 C 0.55566(13) 0.95406(10) 0.28353(9)
C53 C 0.68257(13) 0.91315(10) -0.02080(9)
C54 C 0.58027(13) 0.83743(11) -0.08712(9)
H37 H 0.5239 0.7910 -0.0762
C55 C 0.56167(14) 0.83066(12) -0.16921(9)
H38 H 0.4928 0.7800 -0.2128
C56 C 0.64518(15) 0.89898(12) -0.18661(10)
H39 H 0.6336 0.8936 -0.2417
C57 C 0.74595(14) 0.97533(12) -0.12131(10)
H40 H 0.8018 1.0217 -0.1326
C58 C 0.76418(13) 0.98319(11) -0.03919(9)
H41 H 0.8313 1.0355 0.0042
C59 C 1.10464(13) 1.11689(10) 0.41146(9)
C60 C 1.18786(13) 1.18958(11) 0.39657(9)
H42 H 1.1641 1.1984 0.3461
C61 C 1.30489(13) 1.24837(11) 0.45583(9)
H43 H 1.3592 1.2963 0.4450
C62 C 1.34180(13) 1.23626(11) 0.53150(9)
H44 H 1.4209 1.2754 0.5711
C63 C 1.26023(14) 1.16559(11) 0.54772(9)
H45 H 1.2842 1.1578 0.5986
C64 C 1.14305(13) 1.10650(11) 0.48828(9)
H46 H 1.0890 1.0590 0.4997
C65 C 0.45443(13) 0.95728(11) 0.30725(9)
C66 C 0.33809(14) 0.88007(11) 0.26618(9)
H47 H 0.3250 0.8272 0.2246
C67 C 0.24151(14) 0.88120(12) 0.28667(10)
H48 H 0.1641 0.8296 0.2580
C68 C 0.25970(14) 0.95861(12) 0.34945(10)
H49 H 0.1951 0.9590 0.3634
C69 C 0.37451(15) 1.03505(12) 0.39098(10)
H50 H 0.3875 1.0869 0.4337
C70 C 0.47097(14) 1.03536(11) 0.36966(10)
H51 H 0.5475 1.0881 0.3972
C71 C 0.82635(14) 0.74259(11) 0.25358(9)
C72 C 0.86144(15) 0.75185(12) 0.17992(10)
H52 H 0.7953 0.7489 0.1366
H53 H 0.8786 0.7011 0.1590
H54 H 0.9327 0.8114 0.1976
C73 C 0.71441(15) 0.65012(11) 0.22951(11)
H55 H 0.6929 0.6481 0.2769
H56 H 0.7313 0.5984 0.2114
H57 H 0.6479 0.6450 0.1849
C74 C 0.93255(15) 0.75477(12) 0.32646(10)
H58 H 0.9996 0.8168 0.3448
H59 H 0.9576 0.7080 0.3089
H60 H 0.9074 0.7471 0.3717
C75 C 0.02982(14) 0.22059(11) 0.04448(10)
C76 C 0.01175(15) 0.22934(12) -0.03250(10)
H61 H 0.0555 0.2155 -0.0629
C77 C -0.07192(17) 0.25884(13) -0.06378(10)
H62 H -0.0839 0.2653 -0.1155
C78 C -0.13869(16) 0.27908(12) -0.01991(11)
H63 H -0.1954 0.2986 -0.0418
C79 C -0.11888(16) 0.26946(13) 0.05811(11)
H64 H -0.1631 0.2826 0.0884
C80 C -0.03472(15) 0.24083(12) 0.09054(10)
H65 H -0.0213 0.2351 0.1427
Cl1 Cl 0.13387(4) 0.18098(3) 0.08262(3)
loop_
_geom_bond_atom_site_label_1
_geom_bond_atom_site_label_2
_geom_bond_site_symmetry_1
_geom_bond_site_symmetry_2
B1 O1 1_555 1_555
O1 O2 1_555 1_555
O2 C34 1_555 1_555
N1 B1 1_555 1_555
N2 B1 1_555 1_555
N3 B1 1_555 1_555
C1 N1 1_555 1_555
C2 C1 1_555 1_555
H1 C2 1_555 1_555
C3 C2 1_555 1_555
H2 C3 1_555 1_555
C4 N1 1_555 1_555
C5 C4 1_555 1_555
C6 N2 1_555 1_555
C7 C6 1_555 1_555
H3 C7 1_555 1_555
C8 C7 1_555 1_555
H4 C8 1_555 1_555
C9 N2 1_555 1_555
C10 C9 1_555 1_555
C11 N3 1_555 1_555
C12 C11 1_555 1_555
H5 C12 1_555 1_555
C13 C12 1_555 1_555
H6 C13 1_555 1_555
C14 N3 1_555 1_555
C15 C1 1_555 1_555
C16 C5 1_555 1_555
C17 C16 1_555 1_555
H7 C17 1_555 1_555
C18 C17 1_555 1_555
H8 C18 1_555 1_555
C19 C18 1_555 1_555
H9 C19 1_555 1_555
C20 C19 1_555 1_555
H10 C20 1_555 1_555
C21 C16 1_555 1_555
H11 C21 1_555 1_555
C22 C10 1_555 1_555
C23 C22 1_555 1_555
H12 C23 1_555 1_555
C24 C23 1_555 1_555
H13 C24 1_555 1_555
C25 C24 1_555 1_555
H14 C25 1_555 1_555
C26 C25 1_555 1_555
H15 C26 1_555 1_555
C27 C22 1_555 1_555
H16 C27 1_555 1_555
C28 C15 1_555 1_555
C29 C28 1_555 1_555
H17 C29 1_555 1_555
C30 C29 1_555 1_555
H18 C30 1_555 1_555
C31 C30 1_555 1_555
H19 C31 1_555 1_555
C32 C31 1_555 1_555
H20 C32 1_555 1_555
C33 C28 1_555 1_555
H21 C33 1_555 1_555
C34 C35 1_555 1_555
C35 H22 1_555 1_555
H23 C35 1_555 1_555
H24 C35 1_555 1_555
C36 C34 1_555 1_555
H25 C36 1_555 1_555
H26 C36 1_555 1_555
H27 C36 1_555 1_555
C37 C34 1_555 1_555
H28 C37 1_555 1_555
H29 C37 1_555 1_555
H30 C37 1_555 1_555
B2 O3 1_555 1_555
O3 O4 1_555 1_555
O4 C71 1_555 1_555
N4 B2 1_555 1_555
N5 B2 1_555 1_555
N6 B2 1_555 1_555
C38 N4 1_555 1_555
C39 C38 1_555 1_555
H31 C39 1_555 1_555
C40 C39 1_555 1_555
H32 C40 1_555 1_555
C41 N4 1_555 1_555
C42 C41 1_555 1_555
C43 N5 1_555 1_555
C44 C43 1_555 1_555
H33 C44 1_555 1_555
C45 C44 1_555 1_555
H34 C45 1_555 1_555
C46 N5 1_555 1_555
C47 C46 1_555 1_555
C48 N6 1_555 1_555
C49 C48 1_555 1_555
H35 C49 1_555 1_555
C50 C49 1_555 1_555
H36 C50 1_555 1_555
C51 N6 1_555 1_555
C52 C38 1_555 1_555
C53 C42 1_555 1_555
C54 C53 1_555 1_555
H37 C54 1_555 1_555
C55 C54 1_555 1_555
H38 C55 1_555 1_555
C56 C55 1_555 1_555
H39 C56 1_555 1_555
C57 C56 1_555 1_555
H40 C57 1_555 1_555
C58 C53 1_555 1_555
H41 C58 1_555 1_555
C59 C47 1_555 1_555
C60 C59 1_555 1_555
H42 C60 1_555 1_555
C61 C60 1_555 1_555
H43 C61 1_555 1_555
C62 C61 1_555 1_555
H44 C62 1_555 1_555
C63 C62 1_555 1_555
H45 C63 1_555 1_555
C64 C59 1_555 1_555
H46 C64 1_555 1_555
C65 C52 1_555 1_555
C66 C65 1_555 1_555
H47 C66 1_555 1_555
C67 C66 1_555 1_555
H48 C67 1_555 1_555
C68 C67 1_555 1_555
H49 C68 1_555 1_555
C69 C68 1_555 1_555
H50 C69 1_555 1_555
C70 C65 1_555 1_555
H51 C70 1_555 1_555
C71 C72 1_555 1_555
C72 H52 1_555 1_555
H53 C72 1_555 1_555
H54 C72 1_555 1_555
C73 C71 1_555 1_555
H55 C73 1_555 1_555
H56 C73 1_555 1_555
H57 C73 1_555 1_555
C74 C71 1_555 1_555
H58 C74 1_555 1_555
H59 C74 1_555 1_555
H60 C74 1_555 1_555
C75 C76 1_555 1_555
C76 H61 1_555 1_555
C77 C76 1_555 1_555
H62 C77 1_555 1_555
C78 C77 1_555 1_555
H63 C78 1_555 1_555
C79 C78 1_555 1_555
H64 C79 1_555 1_555
C80 C75 1_555 1_555
H65 C80 1_555 1_555
Cl1 C75 1_555 1_555
C3 C4 1_555 1_555
C5 C6 1_555 1_555
C8 C9 1_555 1_555
C10 C11 1_555 1_555
C13 C14 1_555 1_555
C14 C15 1_555 1_555
C20 C21 1_555 1_555
C26 C27 1_555 1_555
C32 C33 1_555 1_555
C40 C41 1_555 1_555
C42 C43 1_555 1_555
C45 C46 1_555 1_555
C47 C48 1_555 1_555
C50 C51 1_555 1_555
C51 C52 1_555 1_555
C57 C58 1_555 1_555
C63 C64 1_555 1_555
C69 C70 1_555 1_555
C79 C80 1_555 1_555

#END
