
#######################################################################
#
#                 Cambridge Crystallographic Data Centre
#                                CCDC 
#
#######################################################################
#
# If this CIF has been generated from an entry in the Cambridge 
# Structural Database, then it will include bibliographic, chemical, 
# crystal, experimental, refinement or atomic coordinate data resulting 
# from the CCDC's data processing and validation procedures.
#
#######################################################################

data_MAJTIB
_chemical_formula_moiety         'C8 H4 N2 O4'
_chemical_name_systematic        4-Nitrophthalimide
_symmetry_cell_setting           orthorhombic
_symmetry_space_group_name_H-M   'P 21 21 21'
_symmetry_Int_Tables_number      19
_space_group_name_Hall           'P 2ac 2ab'
loop_
_symmetry_equiv_pos_site_id
_symmetry_equiv_pos_as_xyz
1 x,y,z
2 1/2-x,-y,1/2+z
3 -x,1/2+y,1/2-z
4 1/2+x,1/2-y,-z
_cell_length_a                   5.3114(3)
_cell_length_b                   5.6812(5)
_cell_length_c                   24.645(2)
_cell_angle_alpha                90
_cell_angle_beta                 90
_cell_angle_gamma                90
_cell_volume                     743.666
_exptl_crystal_colour            colorless
_exptl_crystal_description       plate
_cell_formula_units_Z            4
_exptl_crystal_recrystallization_method acetone
loop_
_atom_site_label
_atom_site_type_symbol
_atom_site_fract_x
_atom_site_fract_y
_atom_site_fract_z
N1 N 0.8528(5) 0.4545(4) 0.71294(9)
C1 C 0.8471(6) 0.6382(5) 0.67636(10)
O1 O 0.9844(4) 0.8077(4) 0.67667(8)
C2 C 0.6641(5) 0.2892(5) 0.70364(11)
O2 O 0.6265(4) 0.1134(4) 0.73007(8)
C3 C 0.5294(5) 0.3736(5) 0.65413(11)
C4 C 0.3286(5) 0.2744(5) 0.62623(11)
C5 C 0.2516(5) 0.4022(5) 0.58086(10)
N2 N 0.0417(5) 0.3041(4) 0.54841(9)
O3 O -0.0327(4) 0.1058(4) 0.55967(9)
O4 O -0.0481(4) 0.4261(4) 0.51226(8)
C6 C 0.3542(6) 0.6110(5) 0.56411(11)
C7 C 0.5546(6) 0.7071(6) 0.59283(11)
C8 C 0.6376(5) 0.5839(5) 0.63799(11)
H1 H 0.9573 0.4249 0.7418
H2 H 0.2521 0.1346 0.6369
H3 H 0.2904 0.6879 0.5338
H4 H 0.6296 0.8477 0.5822
loop_
_geom_bond_atom_site_label_1
_geom_bond_atom_site_label_2
_geom_bond_site_symmetry_1
_geom_bond_site_symmetry_2
N1 C1 1_555 1_555
C1 O1 1_555 1_555
C2 N1 1_555 1_555
O2 C2 1_555 1_555
C3 C2 1_555 1_555
C4 C3 1_555 1_555
C5 C4 1_555 1_555
N2 C5 1_555 1_555
O3 N2 1_555 1_555
O4 N2 1_555 1_555
C6 C5 1_555 1_555
C7 C6 1_555 1_555
C8 C1 1_555 1_555
H1 N1 1_555 1_555
H2 C4 1_555 1_555
H3 C6 1_555 1_555
H4 C7 1_555 1_555
C3 C8 1_555 1_555
C7 C8 1_555 1_555

#END
