
#######################################################################
#
#                 Cambridge Crystallographic Data Centre
#                                CCDC 
#
#######################################################################
#
# If this CIF has been generated from an entry in the Cambridge 
# Structural Database, then it will include bibliographic, chemical, 
# crystal, experimental, refinement or atomic coordinate data resulting 
# from the CCDC's data processing and validation procedures.
#
#######################################################################

data_MAJVIF
_chemical_formula_moiety         'C15 H14 O4 S1'
_chemical_name_systematic        
'dimethyl 2-(1-benzothiophen-2-ylmethylene)succinate'
_symmetry_cell_setting           monoclinic
_symmetry_space_group_name_H-M   'P 21/n'
_symmetry_Int_Tables_number      14
_space_group_name_Hall           '-P 2yn'
loop_
_symmetry_equiv_pos_site_id
_symmetry_equiv_pos_as_xyz
1 x,y,z
2 1/2-x,1/2+y,1/2-z
3 -x,-y,-z
4 1/2+x,1/2-y,1/2+z
_cell_length_a                   11.0883(9)
_cell_length_b                   7.5760(6)
_cell_length_c                   32.450(3)
_cell_angle_alpha                90
_cell_angle_beta                 99.2171(14)
_cell_angle_gamma                90
_cell_volume                     2690.76
_exptl_crystal_colour            colorless
_exptl_crystal_description       plate
_cell_formula_units_Z            8
loop_
_atom_site_label
_atom_site_type_symbol
_atom_site_fract_x
_atom_site_fract_y
_atom_site_fract_z
C1 C 0.69095(12) 0.61759(18) 0.27109(4)
C2 C 0.77136(13) 0.57073(19) 0.30709(5)
H1 H 0.8451 0.5094 0.3053
C3 C 0.74095(14) 0.6159(2) 0.34533(5)
H2 H 0.7939 0.5839 0.3702
C4 C 0.63273(14) 0.7084(2) 0.34800(5)
H3 H 0.6142 0.7396 0.3746
C5 C 0.55308(13) 0.7547(2) 0.31265(5)
H4 H 0.4803 0.8177 0.3148
C6 C 0.58082(12) 0.70763(18) 0.27327(4)
C7 C 0.51135(12) 0.73688(18) 0.23274(4)
H5 H 0.4341 0.7940 0.2283
C8 C 0.56737(12) 0.67426(18) 0.20085(4)
C9 C 0.51064(13) 0.68190(19) 0.15737(4)
H6 H 0.4288 0.7237 0.1531
C10 C 0.55335(14) 0.6404(2) 0.12215(4)
C11 C 0.67922(15) 0.5748(2) 0.11845(5)
H7 H 0.6744 0.4477 0.1113
H8 H 0.7324 0.5873 0.1459
C12 C 0.73695(14) 0.6720(2) 0.08587(5)
C13 C 0.87105(16) 0.6443(2) 0.03694(5)
H9 H 0.8129 0.6988 0.0146
H10 H 0.9192 0.5550 0.0250
H11 H 0.9257 0.7350 0.0510
C14 C 0.46936(15) 0.6419(2) 0.08138(5)
C15 C 0.26893(17) 0.6714(3) 0.04593(6)
H12 H 0.2889 0.7603 0.0261
H13 H 0.1857 0.6914 0.0515
H14 H 0.2743 0.5534 0.0340
O1 O 0.80486(10) 0.56148(14) 0.06684(3)
O2 O 0.72974(12) 0.82775(16) 0.07904(4)
O3 O 0.35415(11) 0.6849(2) 0.08444(4)
O4 O 0.50232(13) 0.60397(19) 0.04898(4)
S1 S 0.70845(3) 0.57584(5) 0.21974(2)
C16 C 0.32743(12) 0.11570(18) 0.26750(4)
C17 C 0.28058(13) 0.06833(19) 0.30357(5)
H15 H 0.2054 0.0063 0.3017
C18 C 0.34647(14) 0.1141(2) 0.34185(5)
H16 H 0.3168 0.0818 0.3667
C19 C 0.45704(14) 0.2080(2) 0.34456(5)
H17 H 0.5003 0.2397 0.3712
C20 C 0.50355(13) 0.25450(19) 0.30915(5)
H18 H 0.5780 0.3183 0.3113
C21 C 0.43927(12) 0.20627(18) 0.26981(4)
C22 C 0.47075(12) 0.23542(18) 0.22918(4)
H19 H 0.5438 0.2929 0.2248
C23 C 0.38535(12) 0.17240(18) 0.19731(4)
C24 C 0.40079(13) 0.18142(19) 0.15369(4)
H20 H 0.4783 0.2244 0.1494
C25 C 0.32532(13) 0.1400(2) 0.11848(5)
C26 C 0.19642(14) 0.0718(2) 0.11509(5)
H21 H 0.1693 0.0841 0.1426
H22 H 0.1957 -0.0554 0.1081
C27 C 0.10659(13) 0.1665(2) 0.08259(4)
C28 C -0.07962(14) 0.1324(2) 0.03646(5)
H23 H -0.1124 0.2355 0.0492
H24 H -0.1447 0.0453 0.0290
H25 H -0.0478 0.1690 0.0113
C29 C 0.37122(14) 0.1421(2) 0.07763(5)
C30 C 0.53857(17) 0.1898(3) 0.04220(5)
H26 H 0.5501 0.0657 0.0353
H27 H 0.6177 0.2504 0.0462
H28 H 0.4833 0.2461 0.0194
O5 O 0.01789(10) 0.05507(15) 0.06588(3)
O6 O 0.10839(11) 0.32040(16) 0.07397(4)
O7 O 0.48612(10) 0.20030(18) 0.08037(3)
O8 O 0.31037(12) 0.09224(18) 0.04554(4)
S2 S 0.26217(3) 0.07281(5) 0.21619(2)
loop_
_geom_bond_atom_site_label_1
_geom_bond_atom_site_label_2
_geom_bond_site_symmetry_1
_geom_bond_site_symmetry_2
C1 C2 1_555 1_555
C2 H1 1_555 1_555
C3 C2 1_555 1_555
H2 C3 1_555 1_555
C4 C3 1_555 1_555
H3 C4 1_555 1_555
C5 C4 1_555 1_555
H4 C5 1_555 1_555
C6 C1 1_555 1_555
C7 C6 1_555 1_555
H5 C7 1_555 1_555
C8 C7 1_555 1_555
C9 C8 1_555 1_555
H6 C9 1_555 1_555
C10 C9 1_555 1_555
C11 C10 1_555 1_555
H7 C11 1_555 1_555
H8 C11 1_555 1_555
C12 C11 1_555 1_555
C13 H9 1_555 1_555
H10 C13 1_555 1_555
H11 C13 1_555 1_555
C14 C10 1_555 1_555
C15 H12 1_555 1_555
H13 C15 1_555 1_555
H14 C15 1_555 1_555
O1 C12 1_555 1_555
O2 C12 1_555 1_555
O3 C14 1_555 1_555
O4 C14 1_555 1_555
S1 C1 1_555 1_555
C16 C17 1_555 1_555
C17 H15 1_555 1_555
C18 C17 1_555 1_555
H16 C18 1_555 1_555
C19 C18 1_555 1_555
H17 C19 1_555 1_555
C20 C19 1_555 1_555
H18 C20 1_555 1_555
C21 C16 1_555 1_555
C22 C21 1_555 1_555
H19 C22 1_555 1_555
C23 C22 1_555 1_555
C24 C23 1_555 1_555
H20 C24 1_555 1_555
C25 C24 1_555 1_555
C26 C25 1_555 1_555
H21 C26 1_555 1_555
H22 C26 1_555 1_555
C27 C26 1_555 1_555
C28 H23 1_555 1_555
H24 C28 1_555 1_555
H25 C28 1_555 1_555
C29 C25 1_555 1_555
C30 H26 1_555 1_555
H27 C30 1_555 1_555
H28 C30 1_555 1_555
O5 C27 1_555 1_555
O6 C27 1_555 1_555
O7 C29 1_555 1_555
O8 C29 1_555 1_555
S2 C16 1_555 1_555
C5 C6 1_555 1_555
C8 S1 1_555 1_555
C13 O1 1_555 1_555
C15 O3 1_555 1_555
C20 C21 1_555 1_555
C23 S2 1_555 1_555
C28 O5 1_555 1_555
C30 O7 1_555 1_555

#END
