
#######################################################################
#
#                 Cambridge Crystallographic Data Centre
#                                CCDC 
#
#######################################################################
#
# If this CIF has been generated from an entry in the Cambridge 
# Structural Database, then it will include bibliographic, chemical, 
# crystal, experimental, refinement or atomic coordinate data resulting 
# from the CCDC's data processing and validation procedures.
#
#######################################################################

data_MAJVEB
_chemical_formula_moiety         'C16 H16 N6 S1'
_chemical_name_systematic        
10-isobutyl-8,9-dihydro-7H-cyclopenta[4',5']pyrido[3',2':4,5]thieno[2,3-e]tetrazolo[1,5-c]pyrimidine
_symmetry_cell_setting           orthorhombic
_symmetry_space_group_name_H-M   'P b c a'
_symmetry_Int_Tables_number      61
_space_group_name_Hall           '-P 2ac 2ab'
loop_
_symmetry_equiv_pos_site_id
_symmetry_equiv_pos_as_xyz
1 x,y,z
2 1/2-x,-y,1/2+z
3 -x,1/2+y,1/2-z
4 1/2+x,1/2-y,-z
5 -x,-y,-z
6 1/2+x,y,1/2-z
7 x,1/2-y,1/2+z
8 1/2-x,1/2+y,z
_cell_length_a                   14.307(3)
_cell_length_b                   7.9771(16)
_cell_length_c                   27.220(5)
_cell_angle_alpha                90
_cell_angle_beta                 90
_cell_angle_gamma                90
_cell_volume                     3106.57
_exptl_crystal_colour            colorless
_exptl_crystal_description       prism
_cell_formula_units_Z            8
loop_
_atom_site_label
_atom_site_type_symbol
_atom_site_fract_x
_atom_site_fract_y
_atom_site_fract_z
N1 N -0.03619(13) 0.0404(2) 0.39287(6)
N2 N 0.02488(15) -0.0230(3) 0.35907(7)
N3 N 0.11137(14) 0.0009(2) 0.37030(6)
N4 N 0.10913(12) 0.0857(2) 0.41419(6)
C1 C 0.18399(13) 0.1416(3) 0.44129(7)
H1 H 0.2444 0.1222 0.4300
N5 N 0.17155(11) 0.2205(2) 0.48215(6)
C2 C 0.08108(12) 0.2462(2) 0.49752(6)
C3 C 0.05538(12) 0.3306(2) 0.54212(6)
C4 C 0.10749(12) 0.4043(2) 0.57970(6)
C5 C 0.21119(13) 0.4200(3) 0.58518(7)
H2 H 0.2363 0.5025 0.5626
H3 H 0.2420 0.3133 0.5796
C6 C 0.22268(15) 0.4772(3) 0.63879(7)
H4 H 0.2369 0.3824 0.6598
H5 H 0.2729 0.5584 0.6415
C7 C 0.12957(13) 0.5564(3) 0.65355(7)
H6 H 0.1139 0.5292 0.6873
H7 H 0.1315 0.6773 0.6499
C8 C 0.06024(13) 0.4793(2) 0.61830(6)
C9 C -0.03753(13) 0.4814(2) 0.61990(7)
N6 N -0.08899(10) 0.40937(19) 0.58417(5)
C10 C -0.04215(12) 0.3380(2) 0.54760(6)
S1 S -0.10193(3) 0.24056(6) 0.49885(2)
C11 C 0.00353(12) 0.1935(2) 0.47159(6)
C12 C 0.01915(13) 0.1082(2) 0.42673(6)
C13 C -0.09184(14) 0.5606(3) 0.66080(7)
H8 H -0.1427 0.6254 0.6468
H9 H -0.0513 0.6376 0.6783
C14 C -0.13224(17) 0.4350(3) 0.69736(7)
H10 H -0.1656 0.3486 0.6787
C15 C -0.2026(2) 0.5222(5) 0.73074(10)
H11 H -0.2299 0.4415 0.7526
H12 H -0.2508 0.5726 0.7111
H13 H -0.1714 0.6074 0.7495
C16 C -0.0574(2) 0.3497(3) 0.72724(9)
H14 H -0.0142 0.2945 0.7056
H15 H -0.0855 0.2685 0.7486
H16 H -0.0246 0.4317 0.7465
loop_
_geom_bond_atom_site_label_1
_geom_bond_atom_site_label_2
_geom_bond_site_symmetry_1
_geom_bond_site_symmetry_2
N1 N2 1_555 1_555
N2 N3 1_555 1_555
N3 N4 1_555 1_555
N4 C1 1_555 1_555
C1 H1 1_555 1_555
N5 C1 1_555 1_555
C2 N5 1_555 1_555
C3 C2 1_555 1_555
C4 C3 1_555 1_555
C5 C4 1_555 1_555
H2 C5 1_555 1_555
H3 C5 1_555 1_555
C6 C5 1_555 1_555
H4 C6 1_555 1_555
H5 C6 1_555 1_555
C7 C6 1_555 1_555
H6 C7 1_555 1_555
H7 C7 1_555 1_555
C8 C4 1_555 1_555
C9 C8 1_555 1_555
N6 C9 1_555 1_555
C10 C3 1_555 1_555
S1 C10 1_555 1_555
C11 C2 1_555 1_555
C12 N1 1_555 1_555
C13 C9 1_555 1_555
H8 C13 1_555 1_555
H9 C13 1_555 1_555
C14 C13 1_555 1_555
H10 C14 1_555 1_555
C15 C14 1_555 1_555
H11 C15 1_555 1_555
H12 C15 1_555 1_555
H13 C15 1_555 1_555
C16 C14 1_555 1_555
H14 C16 1_555 1_555
H15 C16 1_555 1_555
H16 C16 1_555 1_555
N4 C12 1_555 1_555
C7 C8 1_555 1_555
N6 C10 1_555 1_555
S1 C11 1_555 1_555
C11 C12 1_555 1_555

#END
