
#######################################################################
#
#                 Cambridge Crystallographic Data Centre
#                                CCDC 
#
#######################################################################
#
# If this CIF has been generated from an entry in the Cambridge 
# Structural Database, then it will include bibliographic, chemical, 
# crystal, experimental, refinement or atomic coordinate data resulting 
# from the CCDC's data processing and validation procedures.
#
#######################################################################

data_MAJWUS
_chemical_formula_moiety         'C14 H11 F1 O3'
_chemical_name_systematic        
3a-acetyl-7-fluoro-3-methylene-2,3,3a,8b-tetrahydro-4H-indeno[1,2-b]furan-4-one
_symmetry_cell_setting           monoclinic
_symmetry_space_group_name_H-M   'C 2/c'
_symmetry_Int_Tables_number      15
_space_group_name_Hall           '-C 2yn'
loop_
_symmetry_equiv_pos_site_id
_symmetry_equiv_pos_as_xyz
1 x,y,z
2 -x,y,1/2-z
3 1/2+x,1/2+y,z
4 1/2-x,1/2+y,1/2-z
5 -x,-y,-z
6 x,-y,1/2+z
7 1/2-x,1/2-y,-z
8 1/2+x,1/2-y,1/2+z
_cell_length_a                   24.6510(16)
_cell_length_b                   7.3173(5)
_cell_length_c                   15.7251(10)
_cell_angle_alpha                90
_cell_angle_beta                 127.242(3)
_cell_angle_gamma                90
_cell_volume                     2258.08
_exptl_crystal_colour            colorless
_exptl_crystal_description       block
_cell_formula_units_Z            8
loop_
_atom_site_label
_atom_site_type_symbol
_atom_site_fract_x
_atom_site_fract_y
_atom_site_fract_z
F1 F 0.09650(7) 0.3601(2) 0.30627(13)
O1 O 0.30954(8) 0.5108(3) 0.30904(12)
O2 O 0.40220(8) 0.6280(2) 0.66511(11)
O3 O 0.39715(8) 0.9003(2) 0.42700(13)
C1 C 0.30451(10) 0.6225(3) 0.37712(15)
H1 H 0.2893 0.7452 0.3465
C2 C 0.37513(9) 0.6330(3) 0.48670(14)
C3 C 0.36144(10) 0.6075(3) 0.57017(15)
C4 C 0.29047(9) 0.5456(2) 0.51049(15)
C5 C 0.25675(11) 0.4859(3) 0.55202(17)
H2 H 0.2783 0.4875 0.6251
C6 C 0.19072(11) 0.4249(3) 0.48119(18)
H3 H 0.1667 0.3844 0.5057
C7 C 0.16067(10) 0.4246(3) 0.37359(18)
C8 C 0.19242(10) 0.4833(3) 0.33019(16)
H4 H 0.1707 0.4805 0.2570
C9 C 0.25858(9) 0.5465(3) 0.40213(14)
C10 C 0.36861(17) 0.4030(4) 0.3700(2)
H5 H 0.3954 0.4178 0.3440
H6 H 0.3563 0.2752 0.3635
C11 C 0.40942(11) 0.4610(3) 0.48425(17)
C12 C 0.46272(13) 0.3764(3) 0.5668(2)
H7 H 0.4784 0.2691 0.5568
H8 H 0.4847 0.4240 0.6352
C13 C 0.41671(9) 0.8020(3) 0.50172(15)
C14 C 0.48151(11) 0.8416(3) 0.60893(18)
H9 H 0.5115 0.9090 0.6007
H10 H 0.5029 0.7287 0.6453
H11 H 0.4720 0.9124 0.6498
loop_
_geom_bond_atom_site_label_1
_geom_bond_atom_site_label_2
_geom_bond_site_symmetry_1
_geom_bond_site_symmetry_2
F1 C7 1_555 1_555
O1 C1 1_555 1_555
O2 C3 1_555 1_555
O3 C13 1_555 1_555
C1 H1 1_555 1_555
C2 C1 1_555 1_555
C3 C2 1_555 1_555
C4 C3 1_555 1_555
C5 C4 1_555 1_555
H2 C5 1_555 1_555
C6 C5 1_555 1_555
H3 C6 1_555 1_555
C7 C6 1_555 1_555
C8 C7 1_555 1_555
H4 C8 1_555 1_555
C9 C1 1_555 1_555
C10 O1 1_555 1_555
H5 C10 1_555 1_555
H6 C10 1_555 1_555
C11 C2 1_555 1_555
C12 C11 1_555 1_555
H7 C12 1_555 1_555
H8 C12 1_555 1_555
C13 C2 1_555 1_555
C14 C13 1_555 1_555
H9 C14 1_555 1_555
H10 C14 1_555 1_555
H11 C14 1_555 1_555
C4 C9 1_555 1_555
C8 C9 1_555 1_555
C10 C11 1_555 1_555

#END
