
#######################################################################
#
#                 Cambridge Crystallographic Data Centre
#                                CCDC 
#
#######################################################################
#
# If this CIF has been generated from an entry in the Cambridge 
# Structural Database, then it will include bibliographic, chemical, 
# crystal, experimental, refinement or atomic coordinate data resulting 
# from the CCDC's data processing and validation procedures.
#
#######################################################################

data_MAJXOM
_chemical_formula_moiety         'C3 H6 Cl6 Si3'
_chemical_name_systematic        1,1,3,3,5,5-Hexachloro-1,3,5-trisilinane
_symmetry_cell_setting           triclinic
_symmetry_space_group_name_H-M   'P -1'
_symmetry_Int_Tables_number      2
_space_group_name_Hall           '-P 1'
loop_
_symmetry_equiv_pos_site_id
_symmetry_equiv_pos_as_xyz
1 x,y,z
2 -x,-y,-z
_cell_length_a                   6.269
_cell_length_b                   8.241
_cell_length_c                   12.869
_cell_angle_alpha                73.79
_cell_angle_beta                 81.34
_cell_angle_gamma                80.18
_cell_volume                     625.329
_cell_formula_units_Z            2
loop_
_atom_site_label
_atom_site_type_symbol
_atom_site_fract_x
_atom_site_fract_y
_atom_site_fract_z
C1 C 0.3808(5) 0.1304(4) 0.3516(2)
C2 C 0.1975(5) 0.5094(4) 0.3028(2)
C3 C 0.2860(5) 0.3229(4) 0.1207(2)
Si1 Si 0.30858(12) 0.11152(10) 0.22137(6)
Si2 Si 0.21270(12) 0.30112(9) 0.40711(6)
Si3 Si 0.12391(12) 0.50267(10) 0.16964(6)
Cl1 Cl 0.02057(12) 0.01478(10) 0.24626(6)
Cl2 Cl -0.09572(11) 0.24148(9) 0.46079(6)
Cl3 Cl -0.20288(11) 0.48262(10) 0.18449(6)
Cl4 Cl 0.53983(12) -0.05660(9) 0.16170(6)
Cl5 Cl 0.33776(11) 0.31752(9) 0.54163(5)
Cl6 Cl 0.16467(13) 0.72694(9) 0.05527(6)
H1 H 0.343(5) 0.554(4) 0.289(3)
H2 H 0.524(6) 0.146(4) 0.342(3)
H3 H 0.435(6) 0.358(4) 0.101(3)
H4 H 0.243(6) 0.317(4) 0.055(3)
H5 H 0.389(6) 0.040(5) 0.395(3)
H6 H 0.112(7) 0.598(5) 0.325(3)
loop_
_geom_bond_atom_site_label_1
_geom_bond_atom_site_label_2
_geom_bond_site_symmetry_1
_geom_bond_site_symmetry_2
C1 Si1 1_555 1_555
C2 Si2 1_555 1_555
C3 Si1 1_555 1_555
Si1 Cl1 1_555 1_555
Si2 C1 1_555 1_555
Si3 C2 1_555 1_555
Cl2 Si2 1_555 1_555
Cl3 Si3 1_555 1_555
Cl4 Si1 1_555 1_555
Cl5 Si2 1_555 1_555
Cl6 Si3 1_555 1_555
H1 C2 1_555 1_555
H2 C1 1_555 1_555
H3 C3 1_555 1_555
H4 C3 1_555 1_555
H5 C1 1_555 1_555
H6 C2 1_555 1_555
C3 Si3 1_555 1_555

#END
