
#######################################################################
#
#                 Cambridge Crystallographic Data Centre
#                                CCDC 
#
#######################################################################
#
# If this CIF has been generated from an entry in the Cambridge 
# Structural Database, then it will include bibliographic, chemical, 
# crystal, experimental, refinement or atomic coordinate data resulting 
# from the CCDC's data processing and validation procedures.
#
#######################################################################

data_MAKHUD
_chemical_formula_moiety         'C31 H32 Cl2 N2'
_chemical_name_systematic        
5,5'-dichloro-2,2'-(2-phenylpropane-1,3-diylidene)bis(1,3,3-trimethylindoline)
_symmetry_cell_setting           monoclinic
_symmetry_space_group_name_H-M   'P 21/n'
_symmetry_Int_Tables_number      14
_space_group_name_Hall           '-P 2yn'
loop_
_symmetry_equiv_pos_site_id
_symmetry_equiv_pos_as_xyz
1 x,y,z
2 1/2-x,1/2+y,1/2-z
3 -x,-y,-z
4 1/2+x,1/2-y,1/2+z
_cell_length_a                   9.6877(8)
_cell_length_b                   22.8280(18)
_cell_length_c                   12.0817(10)
_cell_angle_alpha                90
_cell_angle_beta                 93.899(2)
_cell_angle_gamma                90
_cell_volume                     2665.69
_exptl_crystal_colour            colorless
_exptl_crystal_description       block
_cell_formula_units_Z            4
loop_
_atom_site_label
_atom_site_type_symbol
_atom_site_fract_x
_atom_site_fract_y
_atom_site_fract_z
Cl1 Cl 0.03365(8) 0.11254(3) 0.91303(5)
Cl2 Cl 0.13995(8) 0.72474(3) 0.57268(6)
N1 N -0.28188(15) 0.31679(7) 1.04342(12)
C1 C -0.08142(17) 0.60676(7) 0.72754(14)
N2 N -0.20522(16) 0.52394(7) 0.68128(12)
C2 C -0.14285(17) 0.58727(7) 0.83332(13)
C3 C -0.00012(19) 0.65459(8) 0.70815(16)
H1 H 0.027 0.6805 0.765
C4 C -0.35179(18) 0.40429(8) 0.94298(14)
H2 H -0.3824 0.4184 1.0093
C5 C -0.22536(17) 0.53238(7) 0.79467(13)
C6 C -0.37576(17) 0.44349(7) 0.84322(14)
H3 H -0.3373 0.4238 0.7802
C7 C -0.29170(16) 0.35175(8) 0.94712(13)
C8 C -0.29850(18) 0.50062(8) 0.86213(14)
H4 H -0.3029 0.5162 0.9329
C9 C -0.22131(16) 0.31804(7) 0.85598(13)
C10 C -0.53212(17) 0.45111(8) 0.81553(13)
C11 C -0.21330(17) 0.26468(8) 1.02582(14)
C12 C -0.17015(17) 0.26366(8) 0.91809(14)
C13 C -0.1855(2) 0.21824(9) 1.09812(15)
H5 H -0.2158 0.2187 1.1695
C14 C -0.0941(2) 0.21744(8) 0.88256(15)
H6 H -0.0631 0.2169 0.8114
C15 C -0.12179(18) 0.56808(8) 0.64280(14)
C16 C -0.3250(2) 0.30047(8) 0.75963(15)
H7 H -0.2805 0.2749 0.71
H8 H -0.357 0.3349 0.7203
H9 H -0.4022 0.2806 0.7885
C17 C -0.2373(2) 0.63457(8) 0.87682(17)
H10 H -0.1838 0.6689 0.896
H11 H -0.2792 0.6202 0.9413
H12 H -0.3083 0.6442 0.8204
C18 C 0.0405(2) 0.66310(9) 0.60070(17)
C19 C -0.0646(2) 0.17140(9) 0.95604(16)
C20 C -0.1110(2) 0.17118(9) 1.06081(16)
H13 H -0.0924 0.1392 1.1072
C21 C -0.62060(19) 0.40360(9) 0.82436(16)
H14 H -0.5851 0.368 0.8505
C22 C -0.02861(19) 0.57178(9) 0.92206(15)
H15 H 0.0274 0.5408 0.8953
H16 H -0.0695 0.5591 0.9882
H17 H 0.0279 0.6056 0.9384
C23 C 0.0014(2) 0.62484(10) 0.51672(18)
H18 H 0.0294 0.6316 0.4457
C24 C -0.10007(19) 0.35205(9) 0.81209(16)
H19 H -0.0346 0.3616 0.8726
H20 H -0.1338 0.3875 0.777
H21 H -0.0559 0.3284 0.7591
C25 C -0.7602(2) 0.40852(10) 0.79494(18)
H22 H -0.8176 0.3762 0.801
C26 C -0.8153(2) 0.46078(11) 0.75671(17)
H23 H -0.9095 0.4639 0.7371
C27 C -0.5892(2) 0.50347(9) 0.77739(16)
H24 H -0.5324 0.536 0.7715
C28 C -0.0793(2) 0.57635(10) 0.53621(16)
H25 H -0.1043 0.55 0.4796
C29 C -0.7300(2) 0.50835(10) 0.74770(18)
H26 H -0.7664 0.5439 0.7217
C30 C -0.2848(2) 0.48581(10) 0.60495(16)
H27 H -0.2936 0.5036 0.5328
H28 H -0.3751 0.4798 0.6311
H29 H -0.2383 0.4488 0.6004
C31 C -0.3525(2) 0.32957(11) 1.14148(17)
H30 H -0.4499 0.333 1.1223
H31 H -0.3183 0.3657 1.1732
H32 H -0.3363 0.2985 1.1943
loop_
_geom_bond_atom_site_label_1
_geom_bond_atom_site_label_2
_geom_bond_site_symmetry_1
_geom_bond_site_symmetry_2
Cl1 C19 1_555 1_555
Cl2 C18 1_555 1_555
N1 C7 1_555 1_555
C1 C2 1_555 1_555
N2 C5 1_555 1_555
C2 C5 1_555 1_555
C3 C1 1_555 1_555
H1 C3 1_555 1_555
C4 H2 1_555 1_555
C5 C8 1_555 1_555
C6 C4 1_555 1_555
H3 C6 1_555 1_555
C7 C4 1_555 1_555
C8 C6 1_555 1_555
H4 C8 1_555 1_555
C9 C7 1_555 1_555
C10 C6 1_555 1_555
C11 N1 1_555 1_555
C12 C9 1_555 1_555
C13 C11 1_555 1_555
H5 C13 1_555 1_555
C14 C12 1_555 1_555
H6 C14 1_555 1_555
C15 C1 1_555 1_555
C16 C9 1_555 1_555
H7 C16 1_555 1_555
H8 C16 1_555 1_555
H9 C16 1_555 1_555
C17 C2 1_555 1_555
H10 C17 1_555 1_555
H11 C17 1_555 1_555
H12 C17 1_555 1_555
C18 C3 1_555 1_555
C19 C14 1_555 1_555
C20 C13 1_555 1_555
H13 C20 1_555 1_555
C21 C10 1_555 1_555
H14 C21 1_555 1_555
C22 C2 1_555 1_555
H15 C22 1_555 1_555
H16 C22 1_555 1_555
H17 C22 1_555 1_555
C23 C18 1_555 1_555
H18 C23 1_555 1_555
C24 C9 1_555 1_555
H19 C24 1_555 1_555
H20 C24 1_555 1_555
H21 C24 1_555 1_555
C25 C21 1_555 1_555
H22 C25 1_555 1_555
C26 C25 1_555 1_555
H23 C26 1_555 1_555
C27 C10 1_555 1_555
H24 C27 1_555 1_555
C28 C15 1_555 1_555
H25 C28 1_555 1_555
C29 C26 1_555 1_555
H26 C29 1_555 1_555
C30 N2 1_555 1_555
H27 C30 1_555 1_555
H28 C30 1_555 1_555
H29 C30 1_555 1_555
C31 N1 1_555 1_555
H30 C31 1_555 1_555
H31 C31 1_555 1_555
H32 C31 1_555 1_555
N2 C15 1_555 1_555
C11 C12 1_555 1_555
C19 C20 1_555 1_555
C23 C28 1_555 1_555
C27 C29 1_555 1_555

#END
