
#######################################################################
#
#                 Cambridge Crystallographic Data Centre
#                                CCDC 
#
#######################################################################
#
# If this CIF has been generated from an entry in the Cambridge 
# Structural Database, then it will include bibliographic, chemical, 
# crystal, experimental, refinement or atomic coordinate data resulting 
# from the CCDC's data processing and validation procedures.
#
#######################################################################

data_MAKMUI
_chemical_formula_moiety         'C31 H30 Cl3 N3 O2'
_chemical_name_systematic        
2,2'-(2-(2-Chloro-5-nitrophenyl)propane-1,3-diylidene)bis(5-chloro-1,3,3-trimethylindoline)
_symmetry_cell_setting           triclinic
_symmetry_space_group_name_H-M   'P -1'
_symmetry_Int_Tables_number      2
_space_group_name_Hall           '-P 1'
loop_
_symmetry_equiv_pos_site_id
_symmetry_equiv_pos_as_xyz
1 x,y,z
2 -x,-y,-z
_cell_length_a                   10.4953(9)
_cell_length_b                   12.4987(11)
_cell_length_c                   12.7481(11)
_cell_angle_alpha                69.255(2)
_cell_angle_beta                 68.635(2)
_cell_angle_gamma                79.762(2)
_cell_volume                     1454.1
_cell_formula_units_Z            2
loop_
_atom_site_label
_atom_site_type_symbol
_atom_site_fract_x
_atom_site_fract_y
_atom_site_fract_z
Cl1 Cl 0.34493(13) 0.79616(11) 0.35620(11)
Cl2 Cl -0.19311(12) 1.47833(10) 0.70943(13)
Cl3 Cl 0.59162(13) 1.73857(10) 0.66858(15)
O1 O -0.4914(5) 1.0168(4) 1.1040(3)
O2 O -0.2921(5) 0.9410(4) 1.0307(4)
N1 N 0.1638(3) 1.4097(3) 0.9323(3)
N2 N 0.0946(3) 1.1572(3) 0.5728(3)
N3 N -0.3738(6) 1.0230(5) 1.0353(4)
C1 C 0.2793(4) 0.9016(3) 0.5223(3)
H1 H 0.3264 0.84 0.5621
C2 C 0.2685(4) 0.9064(4) 0.4156(4)
C3 C 0.2001(4) 0.9974(4) 0.3552(4)
H2 H 0.1946 0.9993 0.2834
C4 C 0.1392(4) 1.0864(4) 0.4013(3)
H3 H 0.0935 1.1486 0.3608
C5 C 0.1482(4) 1.0802(3) 0.5085(3)
C6 C 0.2194(4) 0.9892(3) 0.5680(3)
C7 C 0.2181(4) 1.0085(3) 0.6775(3)
C8 C 0.1572(6) 0.9097(4) 0.7885(4)
H4 H 0.0646 0.902 0.7961
H5 H 0.1581 0.9248 0.857
H6 H 0.2106 0.84 0.7823
C9 C 0.3649(4) 1.0271(4) 0.6659(5)
H7 H 0.4218 0.9586 0.6612
H8 H 0.3626 1.0449 0.734
H9 H 0.4015 1.0894 0.5953
C10 C 0.1291(4) 1.1202(3) 0.6763(3)
C11 C 0.0238(5) 1.2640(4) 0.5286(4)
H10 H 0.0806 1.3262 0.5058
H11 H -0.0601 1.2732 0.5897
H12 H 0.0036 1.264 0.461
C12 C 0.0951(4) 1.1675(3) 0.7620(3)
H13 H 0.1306 1.1265 0.8229
C13 C 0.0105(4) 1.2741(3) 0.7800(3)
H14 H 0.0313 1.3353 0.7034
C14 C -0.1431(4) 1.2568(3) 0.8276(3)
C15 C -0.1900(4) 1.1515(4) 0.9015(4)
H15 H -0.1279 1.0899 0.917
C16 C -0.3295(5) 1.1362(4) 0.9532(4)
C17 C -0.3801(4) 1.3254(4) 0.8542(4)
H16 H -0.4431 1.3849 0.8347
C18 C -0.4247(5) 1.2223(4) 0.9304(4)
H17 H -0.5178 1.2104 0.9663
C19 C -0.2410(4) 1.3435(3) 0.8046(4)
C20 C 0.0446(4) 1.3121(3) 0.8662(3)
H18 H -0.005 1.2801 0.9459
C21 C 0.1363(4) 1.3853(3) 0.8426(3)
C22 C 0.2325(4) 1.4553(3) 0.7237(3)
C23 C 0.1563(5) 1.5426(4) 0.6454(4)
H19 H 0.0894 1.5867 0.6906
H20 H 0.1113 1.5033 0.6174
H21 H 0.2203 1.5928 0.5789
C24 C 0.3311(5) 1.3767(4) 0.6574(5)
H22 H 0.4011 1.421 0.5911
H23 H 0.2816 1.3413 0.6295
H24 H 0.3725 1.3186 0.7101
C25 C 0.1011(5) 1.3541(5) 1.0560(4)
H25 H 0.1355 1.2757 1.0764
H26 H 0.0036 1.3569 1.0743
H27 H 0.1219 1.3924 1.1007
C26 C 0.2647(4) 1.4871(3) 0.8848(4)
C27 C 0.3103(4) 1.5178(3) 0.7619(3)
C28 C 0.4104(4) 1.5944(3) 0.6946(4)
H28 H 0.4411 1.6148 0.6122
C29 C 0.4649(4) 1.6407(3) 0.7518(4)
C30 C 0.4200(5) 1.6104(4) 0.8726(5)
H29 H 0.4581 1.6425 0.9094
C31 C 0.3194(4) 1.5333(4) 0.9416(4)
H30 H 0.2893 1.513 1.0239
loop_
_geom_bond_atom_site_label_1
_geom_bond_atom_site_label_2
_geom_bond_site_symmetry_1
_geom_bond_site_symmetry_2
Cl1 C2 1_555 1_555
Cl2 C19 1_555 1_555
Cl3 C29 1_555 1_555
O1 N3 1_555 1_555
O2 N3 1_555 1_555
N1 C21 1_555 1_555
N2 C5 1_555 1_555
N3 C16 1_555 1_555
C1 H1 1_555 1_555
C2 C1 1_555 1_555
C3 C2 1_555 1_555
H2 C3 1_555 1_555
C4 C3 1_555 1_555
H3 C4 1_555 1_555
C5 C4 1_555 1_555
C6 C1 1_555 1_555
C7 C6 1_555 1_555
C8 C7 1_555 1_555
H4 C8 1_555 1_555
H5 C8 1_555 1_555
H6 C8 1_555 1_555
C9 C7 1_555 1_555
H7 C9 1_555 1_555
H8 C9 1_555 1_555
H9 C9 1_555 1_555
C10 N2 1_555 1_555
C11 N2 1_555 1_555
H10 C11 1_555 1_555
H11 C11 1_555 1_555
H12 C11 1_555 1_555
C12 C10 1_555 1_555
H13 C12 1_555 1_555
C13 C12 1_555 1_555
H14 C13 1_555 1_555
C14 C13 1_555 1_555
C15 C14 1_555 1_555
H15 C15 1_555 1_555
C16 C15 1_555 1_555
C17 H16 1_555 1_555
C18 C16 1_555 1_555
H17 C18 1_555 1_555
C19 C14 1_555 1_555
C20 C13 1_555 1_555
H18 C20 1_555 1_555
C21 C20 1_555 1_555
C22 C21 1_555 1_555
C23 C22 1_555 1_555
H19 C23 1_555 1_555
H20 C23 1_555 1_555
H21 C23 1_555 1_555
C24 C22 1_555 1_555
H22 C24 1_555 1_555
H23 C24 1_555 1_555
H24 C24 1_555 1_555
C25 N1 1_555 1_555
H25 C25 1_555 1_555
H26 C25 1_555 1_555
H27 C25 1_555 1_555
C26 N1 1_555 1_555
C27 C22 1_555 1_555
C28 C27 1_555 1_555
H28 C28 1_555 1_555
C29 C28 1_555 1_555
C30 C29 1_555 1_555
H29 C30 1_555 1_555
C31 C26 1_555 1_555
H30 C31 1_555 1_555
C5 C6 1_555 1_555
C7 C10 1_555 1_555
C17 C18 1_555 1_555
C17 C19 1_555 1_555
C26 C27 1_555 1_555
C30 C31 1_555 1_555

#END
