
#######################################################################
#
#                 Cambridge Crystallographic Data Centre
#                                CCDC 
#
#######################################################################
#
# If this CIF has been generated from an entry in the Cambridge 
# Structural Database, then it will include bibliographic, chemical, 
# crystal, experimental, refinement or atomic coordinate data resulting 
# from the CCDC's data processing and validation procedures.
#
#######################################################################

data_MAKPUK
_chemical_formula_moiety         'C14 H20 O5 S2'
_chemical_name_systematic        
"(3S)-Tetrahydro-3-((1R,2R,4R,5S)-2-hydroxy-spiro(3-oxa-7-thiabicyclo(3.3.1) nonane-9,2'-(1',3')dioxolane)-4-yl)-4H-thiopyran-4-one"
_symmetry_cell_setting           monoclinic
_symmetry_space_group_name_H-M   'P 21/c'
_symmetry_Int_Tables_number      14
_space_group_name_Hall           '-P 2ybc'
loop_
_symmetry_equiv_pos_site_id
_symmetry_equiv_pos_as_xyz
1 x,y,z
2 -x,1/2+y,1/2-z
3 -x,-y,-z
4 x,1/2-y,1/2+z
_cell_length_a                   8.3040(2)
_cell_length_b                   8.8750(3)
_cell_length_c                   20.5620(7)
_cell_angle_alpha                90
_cell_angle_beta                 91.9970(11)
_cell_angle_gamma                90
_cell_volume                     1514.46
_exptl_crystal_colour            colorless
_exptl_crystal_description       plate
_cell_formula_units_Z            4
loop_
_atom_site_label
_atom_site_type_symbol
_atom_site_fract_x
_atom_site_fract_y
_atom_site_fract_z
S1 S 0.01923(8) 0.22428(9) -0.05929(4)
S2 S 0.50428(8) 0.04542(9) 0.17188(4)
O1 O 0.5219(2) 0.3034(2) -0.05830(9)
O2 O 0.40389(19) 0.32462(19) 0.09367(8)
O3 O 0.03321(19) 0.3166(2) 0.16389(8)
O4 O 0.1047(2) 0.1134(2) 0.22610(8)
O5 O 0.2930(2) 0.5271(2) 0.14731(10)
H1 H 0.3385 0.5862 0.1218
C1 C 0.1875(3) 0.1028(3) -0.03749(13)
H2 H 0.1479 0.0161 -0.0123
H3 H 0.2339 0.0630 -0.0777
C2 C 0.3206(3) 0.1838(3) 0.00300(11)
H4 H 0.4098 0.1104 0.0123
C3 C 0.3858(3) 0.3101(3) -0.03843(12)
C4 C 0.2698(3) 0.4334(3) -0.05856(13)
H5 H 0.3268 0.5113 -0.0834
H6 H 0.2266 0.4816 -0.0194
C5 C 0.1305(4) 0.3678(4) -0.10079(14)
H7 H 0.1744 0.3242 -0.1408
H8 H 0.0561 0.4503 -0.1140
C6 C 0.2651(3) 0.2457(3) 0.06759(11)
H9 H 0.1775 0.3208 0.0583
C7 C 0.2026(3) 0.1281(3) 0.11552(11)
H10 H 0.0999 0.0862 0.0962
C8 C 0.3144(3) -0.0055(3) 0.13140(12)
H11 H 0.3373 -0.0586 0.0904
H12 H 0.2571 -0.0769 0.1595
C9 C 0.4333(3) 0.1792(3) 0.23152(13)
H13 H 0.3845 0.1224 0.2673
H14 H 0.5274 0.2346 0.2503
C10 C 0.3099(3) 0.2941(3) 0.20489(12)
H15 H 0.2761 0.3581 0.2420
C11 C 0.1610(3) 0.2123(3) 0.17763(11)
C12 C -0.1096(3) 0.2595(4) 0.19018(17)
H16 H -0.1960 0.2506 0.1560
H17 H -0.1475 0.3264 0.2250
C13 C -0.0643(3) 0.1046(4) 0.21756(18)
H18 H -0.1160 0.0862 0.2595
H19 H -0.0959 0.0236 0.1866
C15 C 0.3835(3) 0.3974(3) 0.15456(12)
H22 H 0.4929 0.4275 0.1719
C14? C -0.0411(18) 0.171(3) 0.2481(5)
H20? H -0.0221 0.2377 0.2862
H21? H -0.1148 0.0888 0.2601
loop_
_geom_bond_atom_site_label_1
_geom_bond_atom_site_label_2
_geom_bond_site_symmetry_1
_geom_bond_site_symmetry_2
S1 C1 1_555 1_555
S2 C8 1_555 1_555
O1 C3 1_555 1_555
O2 C6 1_555 1_555
O3 C11 1_555 1_555
O4 C11 1_555 1_555
O5 H1 1_555 1_555
C1 H2 1_555 1_555
H3 C1 1_555 1_555
C2 C1 1_555 1_555
H4 C2 1_555 1_555
C3 C2 1_555 1_555
C4 C3 1_555 1_555
H5 C4 1_555 1_555
H6 C4 1_555 1_555
C5 S1 1_555 1_555
H7 C5 1_555 1_555
H8 C5 1_555 1_555
C6 C2 1_555 1_555
H9 C6 1_555 1_555
C7 C6 1_555 1_555
H10 C7 1_555 1_555
C8 C7 1_555 1_555
H11 C8 1_555 1_555
H12 C8 1_555 1_555
C9 S2 1_555 1_555
H13 C9 1_555 1_555
H14 C9 1_555 1_555
C10 C9 1_555 1_555
H15 C10 1_555 1_555
C11 C7 1_555 1_555
C12 O3 1_555 1_555
H16 C12 1_555 1_555
H17 C12 1_555 1_555
C13 O4 1_555 1_555
H18 C13 1_555 1_555
H19 C13 1_555 1_555
C15 O2 1_555 1_555
H22 C15 1_555 1_555
O5 C15 1_555 1_555
C4 C5 1_555 1_555
C10 C11 1_555 1_555
C10 C15 1_555 1_555
C12 C13 1_555 1_555

#END
