
#######################################################################
#
#                 Cambridge Crystallographic Data Centre
#                                CCDC 
#
#######################################################################
#
# If this CIF has been generated from an entry in the Cambridge 
# Structural Database, then it will include bibliographic, chemical, 
# crystal, experimental, refinement or atomic coordinate data resulting 
# from the CCDC's data processing and validation procedures.
#
#######################################################################

data_MAKPOE
_chemical_name_common            'compound 15'
_chemical_formula_moiety         'C14 H24 O5 S2,H2 O1'
_chemical_name_systematic        
'(+)-(3R,4S)-3-((R)-Hydroxy-((6S,10R)-10-hydroxymethyl-1,4-dioxa-8-thiaspiro(4.5)dec-6-yl)methyl)-tetrahydro-2H-thiopyran-4-ol monohydrate'
_symmetry_cell_setting           monoclinic
_symmetry_space_group_name_H-M   'C 2'
_symmetry_Int_Tables_number      5
_space_group_name_Hall           'C 2y'
loop_
_symmetry_equiv_pos_site_id
_symmetry_equiv_pos_as_xyz
1 x,y,z
2 -x,y,-z
3 1/2+x,1/2+y,z
4 1/2-x,1/2+y,-z
_cell_length_a                   20.5560(8)
_cell_length_b                   5.3200(3)
_cell_length_c                   15.0250(7)
_cell_angle_alpha                90
_cell_angle_beta                 95.915(2)
_cell_angle_gamma                90
_cell_volume                     1634.35
_exptl_crystal_colour            colorless
_exptl_crystal_description       block
_chemical_melting_point          163-165deg.C
_cell_formula_units_Z            4
loop_
_atom_site_label
_atom_site_type_symbol
_atom_site_fract_x
_atom_site_fract_y
_atom_site_fract_z
S1 S -0.09583(3) 1.05739(19) 0.01524(4)
S2 S 0.18199(3) 0.56692(19) 0.15229(4)
O1 O -0.13416(8) 0.8523(4) 0.24944(12)
H1 H -0.1644 0.7852 0.2746
O2 O -0.00712(8) 0.5109(4) 0.28912(12)
H2 H 0.0274 0.4702 0.3207
O3 O 0.11359(8) 0.6617(4) 0.38031(11)
O4 O 0.09312(7) 1.0768(5) 0.34712(10)
O5 O 0.29410(7) 1.0762(5) 0.35947(12)
H3 H 0.3213 0.9581 0.3661
C1 C -0.04466(11) 1.0268(7) 0.12025(15)
H6 H -0.0002 1.0636 0.1107
H7 H -0.0591 1.1430 0.1630
C2 C -0.04597(11) 0.7622(6) 0.16010(15)
H8 H -0.0308 0.6488 0.1170
C3 C -0.11560(11) 0.6892(6) 0.18014(15)
H9 H -0.1127 0.5198 0.2022
C4 C -0.16598(12) 0.7020(6) 0.09847(17)
H10 H -0.1547 0.5857 0.0537
H11 H -0.2081 0.6592 0.1163
C5 C -0.17196(12) 0.9600(7) 0.05504(17)
H12 H -0.1835 1.0787 0.0989
H13 H -0.2058 0.9554 0.0060
C6 C 0.00275(11) 0.7473(6) 0.24484(16)
H14 H -0.0074 0.8814 0.2839
C7 C 0.07529(10) 0.7752(6) 0.22673(15)
H15 H 0.0763 0.9056 0.1827
C8 C 0.09966(10) 0.5387(7) 0.18306(15)
H16 H 0.0705 0.5076 0.1301
H17 H 0.0969 0.4025 0.2245
C9 C 0.22068(12) 0.6608(6) 0.26048(17)
H18 H 0.2182 0.5273 0.3030
H19 H 0.2657 0.6988 0.2548
C10 C 0.19009(11) 0.8954(6) 0.29656(16)
H20 H 0.1926 1.0264 0.2531
C11 C 0.11815(11) 0.8509(6) 0.31312(16)
C12 C 0.09922(16) 0.7827(8) 0.46123(18)
H21 H 0.0683 0.6824 0.4892
H22 H 0.1387 0.7984 0.5009
C13 C 0.07224(15) 1.0312(9) 0.43339(16)
H23 H 0.0886 1.1615 0.4739
H24 H 0.0253 1.0305 0.4287
C14 C 0.23157(11) 0.9896(6) 0.38072(16)
H25 H 0.2084 1.1285 0.4079
H26 H 0.2377 0.8517 0.4250
O6 O 0.10347(10) 0.2498(5) 0.63564(13)
H4 H 0.1116(17) 0.122(5) 0.670(2)
H5 H 0.0761(18) 0.326(8) 0.666(3)
loop_
_geom_bond_atom_site_label_1
_geom_bond_atom_site_label_2
_geom_bond_site_symmetry_1
_geom_bond_site_symmetry_2
S1 C1 1_555 1_555
S2 C8 1_555 1_555
O1 H1 1_555 1_555
O2 H2 1_555 1_555
O3 C11 1_555 1_555
O4 C11 1_555 1_555
O5 H3 1_555 1_555
O6 H4 1_555 1_555
H5 O6 1_555 1_555
C1 H6 1_555 1_555
H7 C1 1_555 1_555
C2 C1 1_555 1_555
H8 C2 1_555 1_555
C3 O1 1_555 1_555
H9 C3 1_555 1_555
C4 C3 1_555 1_555
H10 C4 1_555 1_555
H11 C4 1_555 1_555
C5 S1 1_555 1_555
H12 C5 1_555 1_555
H13 C5 1_555 1_555
C6 O2 1_555 1_555
H14 C6 1_555 1_555
C7 C6 1_555 1_555
H15 C7 1_555 1_555
C8 C7 1_555 1_555
H16 C8 1_555 1_555
H17 C8 1_555 1_555
C9 S2 1_555 1_555
H18 C9 1_555 1_555
H19 C9 1_555 1_555
C10 C9 1_555 1_555
H20 C10 1_555 1_555
C11 C7 1_555 1_555
C12 O3 1_555 1_555
H21 C12 1_555 1_555
H22 C12 1_555 1_555
C13 O4 1_555 1_555
H23 C13 1_555 1_555
H24 C13 1_555 1_555
C14 O5 1_555 1_555
H25 C14 1_555 1_555
H26 C14 1_555 1_555
C2 C3 1_555 1_555
C2 C6 1_555 1_555
C4 C5 1_555 1_555
C10 C11 1_555 1_555
C10 C14 1_555 1_555
C12 C13 1_555 1_555

#END
