
#######################################################################
#
#                 Cambridge Crystallographic Data Centre
#                                CCDC 
#
#######################################################################
#
# If this CIF has been generated from an entry in the Cambridge 
# Structural Database, then it will include bibliographic, chemical, 
# crystal, experimental, refinement or atomic coordinate data resulting 
# from the CCDC's data processing and validation procedures.
#
#######################################################################

data_MAKQEW
_chemical_name_common            1,4-bis(dichloromethylsilane)phenylene
_chemical_formula_moiety         'C8 H10 Cl4 Si2'
_chemical_name_systematic        1,4-Phenylenebis(dichloro(methyl)silane)
_symmetry_cell_setting           monoclinic
_symmetry_space_group_name_H-M   'P 21/n'
_symmetry_Int_Tables_number      14
_space_group_name_Hall           '-P 2yn'
loop_
_symmetry_equiv_pos_site_id
_symmetry_equiv_pos_as_xyz
1 x,y,z
2 1/2-x,1/2+y,1/2-z
3 -x,-y,-z
4 1/2+x,1/2-y,1/2+z
_cell_length_a                   6.4095(7)
_cell_length_b                   10.0698(11)
_cell_length_c                   10.4441(12)
_cell_angle_alpha                90
_cell_angle_beta                 96.131(2)
_cell_angle_gamma                90
_cell_volume                     670.232
_exptl_crystal_colour            colorless
_exptl_crystal_description       prism
_cell_formula_units_Z            2
loop_
_atom_site_label
_atom_site_type_symbol
_atom_site_fract_x
_atom_site_fract_y
_atom_site_fract_z
Si1 Si 0.12478(8) 0.78626(5) 0.23032(5)
Cl1 Cl -0.02605(9) 0.61019(5) 0.18075(6)
Cl2 Cl 0.43935(8) 0.74470(5) 0.24602(5)
C1 C 0.0454(4) 0.8437(2) 0.3859(2)
H1 H 0.1086 0.9306 0.4073
H2 H 0.0932 0.7798 0.4535
H3 H -0.1078 0.8513 0.3796
C2 C 0.0588(3) 0.90649(17) 0.09750(17)
C3 C 0.2045(3) 0.95432(19) 0.01905(17)
H4 H 0.3453 0.9235 0.0313
C4 C -0.1463(3) 0.95363(19) 0.07666(18)
H5 H -0.2481 0.9221 0.1290
Si1B Si -0.12478(8) 1.21374(5) -0.23032(5)
Cl1B Cl 0.02605(9) 1.38981(5) -0.18075(6)
Cl2B Cl -0.43935(8) 1.25530(5) -0.24602(5)
C1B C -0.0454(4) 1.1563(2) -0.3859(2)
H1B H -0.1086 1.0694 -0.4073
H2B H -0.0932 1.2202 -0.4535
H3B H 0.1078 1.1487 -0.3796
C2B C -0.0588(3) 1.09351(17) -0.09750(17)
C3B C -0.2045(3) 1.04568(19) -0.01905(17)
H4B H -0.3453 1.0765 -0.0313
C4B C 0.1463(3) 1.04637(19) -0.07666(18)
H5B H 0.2481 1.0779 -0.1290
loop_
_geom_bond_atom_site_label_1
_geom_bond_atom_site_label_2
_geom_bond_site_symmetry_1
_geom_bond_site_symmetry_2
Si1 Cl1 1_555 1_555
Cl2 Si1 1_555 1_555
C1 Si1 1_555 1_555
H1 C1 1_555 1_555
H2 C1 1_555 1_555
H3 C1 1_555 1_555
C2 Si1 1_555 1_555
C3 C2 1_555 1_555
H4 C3 1_555 1_555
C4 C2 1_555 1_555
H5 C4 1_555 1_555
Si1B Cl1B 1_555 1_555
Cl2B Si1B 1_555 1_555
C1B Si1B 1_555 1_555
H1B C1B 1_555 1_555
H2B C1B 1_555 1_555
H3B C1B 1_555 1_555
C2B Si1B 1_555 1_555
C3B C4 1_555 1_555
H4B C3B 1_555 1_555
C4B C3 1_555 1_555
H5B C4B 1_555 1_555
C2B C3B 1_555 1_555
C2B C4B 1_555 1_555

#END
