
#######################################################################
#
#                 Cambridge Crystallographic Data Centre
#                                CCDC 
#
#######################################################################
#
# If this CIF has been generated from an entry in the Cambridge 
# Structural Database, then it will include bibliographic, chemical, 
# crystal, experimental, refinement or atomic coordinate data resulting 
# from the CCDC's data processing and validation procedures.
#
#######################################################################

data_MAKRIB
_chemical_formula_moiety         'C21 H16 F3 N3 O3 S1'
_chemical_name_systematic        
N-((2-(4-Methylbenzoyl)hydrazino)carbothioyl)-5-(2-(trifluoromethyl)phenyl)-2-furamide
_symmetry_cell_setting           triclinic
_symmetry_space_group_name_H-M   'P -1'
_symmetry_Int_Tables_number      2
_space_group_name_Hall           '-P 1'
loop_
_symmetry_equiv_pos_site_id
_symmetry_equiv_pos_as_xyz
1 x,y,z
2 -x,-y,-z
_cell_length_a                   9.677(7)
_cell_length_b                   10.461(8)
_cell_length_c                   10.771(7)
_cell_angle_alpha                109.9
_cell_angle_beta                 98.912(9)
_cell_angle_gamma                91.97
_cell_volume                     1008.41
_exptl_crystal_colour            colorless
_cell_formula_units_Z            2
loop_
_atom_site_label
_atom_site_type_symbol
_atom_site_fract_x
_atom_site_fract_y
_atom_site_fract_z
S1 S 0.4390(1) 0.5895(1) 0.1716(1)
N1 N 0.1798(3) 0.4070(2) 0.0282(2)
C1 C 0.2432(3) 0.5168(2) 0.4433(3)
C2 C 0.2789(3) 0.5819(3) 0.5885(3)
N2 N 0.2085(2) 0.4415(2) 0.1654(2)
N3 N 0.3375(2) 0.5514(2) 0.3732(2)
O1 O -0.0234(2) 0.2964(3) 0.0205(2)
O2 O 0.1376(2) 0.4392(2) 0.3881(2)
O3 O 0.4036(2) 0.6625(2) 0.6389(2)
C3 C -0.0334(4) 0.1340(3) -0.6186(3)
C4 C -0.0093(3) 0.1889(3) -0.4683(3)
C5 C -0.1168(3) 0.1909(3) -0.3984(3)
C6 C -0.0946(3) 0.2377(3) -0.2616(3)
C7 C 0.0397(3) 0.2862(2) -0.1872(3)
C8 C 0.1486(3) 0.2859(3) -0.2567(3)
C9 C 0.1240(3) 0.2378(3) -0.3939(3)
C10 C 0.0599(3) 0.3292(3) -0.0400(3)
C11 C 0.3219(3) 0.5212(3) 0.2358(3)
C12 C 0.2077(3) 0.5890(3) 0.6871(3)
C13 C 0.2912(3) 0.6785(3) 0.8069(3)
C14 C 0.4077(3) 0.7216(3) 0.7727(3)
C15 C 0.5318(3) 0.81472(3) 0.8515(3)
C16 C 0.5706(4) 0.8245(3) 0.9837(3)
C17 C 0.6870(4) 0.9075(3) 1.0646(3)
C18 C 0.7697(4) 0.9795(4) 1.0158(4)
C19 C 0.7323(3) 0.9729(4) 0.8855(3)
C20 C 0.6135(3) 0.8935(3) 0.8029(3)
C21 C 0.5746(4) 0.9004(4) 0.6655(3)
F1 F 0.4393(2) 0.9162(2) 0.6346(2)
F2 F 0.6012(2) 0.7893(3) 0.5672(2)
F3 F 0.6459(3) 1.0058(3) 0.6545(3)
loop_
_geom_bond_atom_site_label_1
_geom_bond_atom_site_label_2
_geom_bond_site_symmetry_1
_geom_bond_site_symmetry_2
S1 C11 1_555 1_555
N1 N2 1_555 1_555
C1 C2 1_555 1_555
C2 O3 1_555 1_555
N2 C11 1_555 1_555
N3 C1 1_555 1_555
O1 C10 1_555 1_555
O2 C1 1_555 1_555
O3 C14 1_555 1_555
C3 C4 1_555 1_555
C4 C5 1_555 1_555
C5 C6 1_555 1_555
C6 C7 1_555 1_555
C7 C8 1_555 1_555
C8 C9 1_555 1_555
C9 C4 1_555 1_555
C10 N1 1_555 1_555
C11 N3 1_555 1_555
C12 C2 1_555 1_555
C13 C12 1_555 1_555
C14 C13 1_555 1_555
C15 C14 1_555 1_555
C16 C15 1_555 1_555
C17 C16 1_555 1_555
C18 C17 1_555 1_555
C19 C18 1_555 1_555
C20 C15 1_555 1_555
C21 C20 1_555 1_555
F1 C21 1_555 1_555
F2 C21 1_555 1_555
F3 C21 1_555 1_555
C7 C10 1_555 1_555
C19 C20 1_555 1_555

#END
