
#######################################################################
#
#                 Cambridge Crystallographic Data Centre
#                                CCDC 
#
#######################################################################
#
# If this CIF has been generated from an entry in the Cambridge 
# Structural Database, then it will include bibliographic, chemical, 
# crystal, experimental, refinement or atomic coordinate data resulting 
# from the CCDC's data processing and validation procedures.
#
#######################################################################

data_MAKVOM
_chemical_formula_moiety         'C17 H12 Cl1 F1 N2 O2,H2 O1'
_chemical_name_systematic        
'10-chloro-2-(4-fluorophenyl)-1,11b-dihydropyrazolo[1,5-d][1,4]benzoxazepin-5(6H)-one monohydrate'
_chemical_properties_biological  'hMAO-B inhibitor activity'
_symmetry_cell_setting           monoclinic
_symmetry_space_group_name_H-M   'I 2/a'
_symmetry_Int_Tables_number      15
_space_group_name_Hall           '-I 2ya'
loop_
_symmetry_equiv_pos_site_id
_symmetry_equiv_pos_as_xyz
1 x,y,z
2 1/2-x,y,-z
3 1/2+x,1/2+y,1/2+z
4 -x,1/2+y,1/2-z
5 -x,-y,-z
6 1/2+x,-y,z
7 1/2-x,1/2-y,1/2-z
8 x,1/2-y,1/2+z
_cell_length_a                   12.7349(3)
_cell_length_b                   17.3453(4)
_cell_length_c                   14.6200(3)
_cell_angle_alpha                90
_cell_angle_beta                 103.788(2)
_cell_angle_gamma                90
_cell_volume                     3136.36
_exptl_crystal_colour            colorless
_exptl_crystal_description       block
_cell_formula_units_Z            8
loop_
_atom_site_label
_atom_site_type_symbol
_atom_site_fract_x
_atom_site_fract_y
_atom_site_fract_z
Cl1 Cl 0.08326(4) 0.19644(3) 0.06210(3)
F1 F 0.87739(10) -0.03982(7) 0.10934(11)
O1 O 0.41029(10) 0.43160(7) 0.20348(9)
O2 O 0.62001(11) 0.42470(7) 0.07718(10)
N1 N 0.55482(10) 0.32534(7) 0.14736(9)
N2 N 0.63700(10) 0.27746(7) 0.13107(9)
C1 C 0.36554(12) 0.30081(9) 0.16293(10)
C2 C 0.28746(12) 0.24526(9) 0.13122(10)
H1 H 0.3069 0.1937 0.1295
C3 C 0.18021(12) 0.26714(11) 0.10210(10)
C4 C 0.14827(14) 0.34296(12) 0.10344(13)
H2 H 0.0757 0.3563 0.0834
C5 C 0.22567(15) 0.39871(12) 0.13494(14)
H3 H 0.2059 0.4503 0.1357
C6 C 0.33298(13) 0.37722(10) 0.16545(11)
C7 C 0.47397(15) 0.45600(9) 0.14121(14)
H4 H 0.5124 0.5023 0.1672
H5 H 0.4253 0.4701 0.0819
C8 C 0.55587(13) 0.39958(9) 0.12033(11)
C9 C 0.62087(11) 0.20929(8) 0.15854(10)
C10 C 0.52128(12) 0.20100(9) 0.19536(12)
H6 H 0.5377 0.1771 0.2571
H7 H 0.4666 0.1707 0.1528
C11 C 0.69098(12) 0.14465(8) 0.14786(10)
C12 C 0.66072(15) 0.06986(10) 0.16452(14)
H8 H 0.5980 0.0617 0.1852
C13 C 0.72294(16) 0.00732(11) 0.15073(15)
H9 H 0.7019 -0.0428 0.1604
C14 C 0.81570(14) 0.02125(10) 0.12260(13)
C15 C 0.84937(13) 0.09370(10) 0.10662(13)
H10 H 0.9135 0.1010 0.0878
C16 C 0.78646(12) 0.15595(9) 0.11887(12)
H11 H 0.8079 0.2056 0.1077
C17 C 0.48451(12) 0.28431(9) 0.20035(10)
H12 H 0.5053 0.3010 0.2662
O3 O 0.85500(12) 0.36007(13) 0.09950(12)
H13 H 0.8547 0.3759 0.0444
H14 H 0.7935 0.3683 0.1108
loop_
_geom_bond_atom_site_label_1
_geom_bond_atom_site_label_2
_geom_bond_site_symmetry_1
_geom_bond_site_symmetry_2
Cl1 C3 1_555 1_555
F1 C14 1_555 1_555
O1 C6 1_555 1_555
O2 C8 1_555 1_555
N1 N2 1_555 1_555
N2 C9 1_555 1_555
C1 C2 1_555 1_555
C2 H1 1_555 1_555
C3 C2 1_555 1_555
C4 C3 1_555 1_555
H2 C4 1_555 1_555
C5 C4 1_555 1_555
H3 C5 1_555 1_555
C6 C1 1_555 1_555
C7 O1 1_555 1_555
H4 C7 1_555 1_555
H5 C7 1_555 1_555
C8 N1 1_555 1_555
C9 C10 1_555 1_555
C10 H6 1_555 1_555
H7 C10 1_555 1_555
C11 C9 1_555 1_555
C12 C11 1_555 1_555
H8 C12 1_555 1_555
C13 C12 1_555 1_555
H9 C13 1_555 1_555
C14 C13 1_555 1_555
C15 C14 1_555 1_555
H10 C15 1_555 1_555
C16 C11 1_555 1_555
H11 C16 1_555 1_555
C17 N1 1_555 1_555
H12 C17 1_555 1_555
O3 H13 1_555 1_555
H14 O3 1_555 1_555
C1 C17 1_555 1_555
C5 C6 1_555 1_555
C7 C8 1_555 1_555
C10 C17 1_555 1_555
C15 C16 1_555 1_555

#END
