
#######################################################################
#
#                 Cambridge Crystallographic Data Centre
#                                CCDC 
#
#######################################################################
#
# If this CIF has been generated from an entry in the Cambridge 
# Structural Database, then it will include bibliographic, chemical, 
# crystal, experimental, refinement or atomic coordinate data resulting 
# from the CCDC's data processing and validation procedures.
#
#######################################################################

data_MAKWOL
_chemical_formula_moiety         'C23 H17 N3 O2'
_chemical_name_systematic        
2,6-Dicyano-3-(4-methyloxycarbonylphenyl)-4-methyl-5-phenylaniline
_symmetry_cell_setting           monoclinic
_symmetry_space_group_name_H-M   'P 21/n'
_symmetry_Int_Tables_number      14
_space_group_name_Hall           '-P 2yn'
loop_
_symmetry_equiv_pos_site_id
_symmetry_equiv_pos_as_xyz
1 x,y,z
2 1/2-x,1/2+y,1/2-z
3 -x,-y,-z
4 1/2+x,1/2-y,1/2+z
_cell_length_a                   12.3996(2)
_cell_length_b                   9.3240(1)
_cell_length_c                   33.2240(5)
_cell_angle_alpha                90
_cell_angle_beta                 95.5013(4)
_cell_angle_gamma                90
_cell_volume                     3823.46
_exptl_crystal_colour            colorless
_exptl_crystal_description       needle
_chemical_melting_point          210-213deg.C
_cell_formula_units_Z            8
loop_
_atom_site_label
_atom_site_type_symbol
_atom_site_fract_x
_atom_site_fract_y
_atom_site_fract_z
O1 O 0.0545(2) 1.1272(3) 0.18233(9)
O2 O -0.0097(2) 0.9173(4) 0.1607(1)
N1 N 0.5319(3) 0.9521(4) 0.2144(1)
N2 N 0.7528(2) 0.8803(3) 0.16514(9)
N3 N 0.8920(3) 0.7621(4) 0.0846(1)
C1 C -0.0438(3) 1.1480(5) 0.2021(1)
C2 C 0.0609(3) 1.0060(5) 0.1625(1)
C3 C 0.1661(3) 0.9839(4) 0.1451(1)
C4 C 0.2471(3) 1.0874(4) 0.1481(1)
C5 C 0.3465(3) 1.0559(4) 0.1351(1)
C6 C 0.3689(3) 0.9234(4) 0.1189(1)
C7 C 0.2847(3) 0.8226(4) 0.1141(1)
C8 C 0.1847(3) 0.8540(4) 0.1271(1)
C9 C 0.4804(3) 0.8856(4) 0.1091(1)
C10 C 0.5640(3) 0.8947(4) 0.1406(1)
C11 C 0.5421(3) 0.9285(4) 0.1812(1)
C12 C 0.6731(3) 0.8674(4) 0.1348(1)
C13 C 0.6942(3) 0.8235(4) 0.0959(1)
C14 C 0.8040(3) 0.7885(4) 0.0892(1)
C15 C 0.6119(3) 0.8115(4) 0.0642(1)
C16 C 0.6425(3) 0.7656(4) 0.0235(1)
C17 C 0.6070(4) 0.6395(5) 0.0063(1)
C18 C 0.6392(5) 0.5967(6) -0.0312(1)
C19 C 0.7055(5) 0.6787(7) -0.0507(1)
C20 C 0.7451(4) 0.8040(7) -0.0335(1)
C21 C 0.7138(4) 0.8487(5) 0.0037(1)
C22 C 0.5038(3) 0.8435(4) 0.0702(1)
C23 C 0.4169(3) 0.8413(5) 0.0354(1)
H1 H 0.7358 0.9094 0.1918
H2 H 0.8272 0.8601 0.1603
H5 H -0.0321 1.1103 0.2294
H6 H -0.0609 1.2494 0.2031
H7 H -0.1036 1.0974 0.1874
H8 H 0.2323 1.1811 0.1590
H9 H 0.4036 1.1274 0.1375
H10 H 0.2972 0.7316 0.1012
H11 H 0.1268 0.7839 0.1240
H12 H 0.5586 0.5795 0.0202
H13 H 0.6127 0.5076 -0.0436
H14 H 0.7272 0.6492 -0.0767
H15 H 0.7951 0.8616 -0.0474
H16 H 0.7399 0.9383 0.0159
H17 H 0.4146 0.9337 0.0220
H18 H 0.4329 0.7670 0.0164
H19 H 0.3473 0.8220 0.0454
O3 O 0.2931(2) 0.3304(3) 0.24683(9)
O4 O 0.2227(2) 0.4937(4) 0.2033(1)
N4 N 0.7481(3) 0.5906(4) 0.2461(1)
N5 N 0.9801(2) 0.5520(3) 0.19425(9)
N6 N 1.1165(3) 0.4725(4) 0.1103(1)
C24 C 0.1930(3) 0.3296(6) 0.2662(1)
C25 C 0.2963(3) 0.4186(5) 0.2160(1)
C26 C 0.4021(3) 0.4125(4) 0.1984(1)
C27 C 0.4850(3) 0.3253(4) 0.2140(1)
C28 C 0.5830(3) 0.3277(4) 0.1981(1)
C29 C 0.6009(3) 0.4162(4) 0.1660(1)
C30 C 0.5165(3) 0.5015(4) 0.1497(1)
C31 C 0.4176(3) 0.4981(5) 0.1656(1)
C32 C 0.7107(3) 0.4240(4) 0.1515(1)
C33 C 0.7932(3) 0.4877(4) 0.17766(9)
C34 C 0.7669(3) 0.5453(4) 0.2157(1)
C35 C 0.9003(3) 0.4965(4) 0.1679(1)
C36 C 0.9209(3) 0.4454(4) 0.1294(1)
C37 C 1.0291(3) 0.4578(4) 0.1180(1)
C38 C 0.8403(3) 0.3830(4) 0.1032(1)
C39 C 0.8686(3) 0.3267(4) 0.0637(1)
C40 C 0.8955(4) 0.1854(5) 0.0599(1)
C41 C 0.9200(5) 0.1308(6) 0.0234(2)
C42 C 0.9199(4) 0.2185(7) -0.0094(1)
C43 C 0.8934(4) 0.3576(6) -0.0065(1)
C44 C 0.8673(4) 0.4126(5) 0.0304(1)
C45 C 0.7339(3) 0.3699(4) 0.1140(1)
C46 C 0.6474(3) 0.2932(5) 0.0867(1)
H3 H 0.9638 0.5867 0.2205
H4 H 1.0536 0.5567 0.1867
H20 H 0.1438 0.2588 0.2533
H21 H 0.2088 0.3060 0.2946
H22 H 0.1597 0.4237 0.2637
H23 H 0.4732 0.2619 0.2363
H24 H 0.6421 0.2680 0.2097
H25 H 0.5280 0.5637 0.1271
H26 H 0.3581 0.5570 0.1540
H27 H 0.8956 0.1234 0.0834
H28 H 0.9391 0.0305 0.0208
H29 H 0.9385 0.1813 -0.0351
H30 H 0.8925 0.4196 -0.0300
H31 H 0.8482 0.5129 0.0328
H32 H 0.6088 0.3624 0.0690
H33 H 0.6814 0.2224 0.0707
H34 H 0.5970 0.2459 0.1030
loop_
_geom_bond_atom_site_label_1
_geom_bond_atom_site_label_2
_geom_bond_site_symmetry_1
_geom_bond_site_symmetry_2
O1 C1 1_555 1_555
O2 C2 1_555 1_555
O3 C24 1_555 1_555
O4 C25 1_555 1_555
N1 C11 1_555 1_555
N2 C12 1_555 1_555
N3 C14 1_555 1_555
N4 C34 1_555 1_555
N5 C35 1_555 1_555
N6 C37 1_555 1_555
C1 H5 1_555 1_555
C2 O1 1_555 1_555
C3 C2 1_555 1_555
C4 C3 1_555 1_555
C5 C4 1_555 1_555
C6 C5 1_555 1_555
C7 C6 1_555 1_555
C8 C3 1_555 1_555
C9 C6 1_555 1_555
C10 C9 1_555 1_555
C11 C10 1_555 1_555
C12 C10 1_555 1_555
C13 C12 1_555 1_555
C14 C13 1_555 1_555
C15 C13 1_555 1_555
C16 C15 1_555 1_555
C17 C16 1_555 1_555
C18 C17 1_555 1_555
C19 C18 1_555 1_555
C20 C19 1_555 1_555
C21 C16 1_555 1_555
C22 C9 1_555 1_555
C23 C22 1_555 1_555
C24 H20 1_555 1_555
C25 O3 1_555 1_555
C26 C25 1_555 1_555
C27 C26 1_555 1_555
C28 C27 1_555 1_555
C29 C28 1_555 1_555
C30 C29 1_555 1_555
C31 C26 1_555 1_555
C32 C29 1_555 1_555
C33 C32 1_555 1_555
C34 C33 1_555 1_555
C35 C33 1_555 1_555
C36 C35 1_555 1_555
C37 C36 1_555 1_555
C38 C36 1_555 1_555
C39 C38 1_555 1_555
C40 C39 1_555 1_555
C41 C40 1_555 1_555
C42 C41 1_555 1_555
C43 C42 1_555 1_555
C44 C39 1_555 1_555
C45 C32 1_555 1_555
C46 C45 1_555 1_555
H1 N2 1_555 1_555
H2 N2 1_555 1_555
H3 N5 1_555 1_555
H4 N5 1_555 1_555
H6 C1 1_555 1_555
H7 C1 1_555 1_555
H8 C4 1_555 1_555
H9 C5 1_555 1_555
H10 C7 1_555 1_555
H11 C8 1_555 1_555
H12 C17 1_555 1_555
H13 C18 1_555 1_555
H14 C19 1_555 1_555
H15 C20 1_555 1_555
H16 C21 1_555 1_555
H17 C23 1_555 1_555
H18 C23 1_555 1_555
H19 C23 1_555 1_555
H21 C24 1_555 1_555
H22 C24 1_555 1_555
H23 C27 1_555 1_555
H24 C28 1_555 1_555
H25 C30 1_555 1_555
H26 C31 1_555 1_555
H27 C40 1_555 1_555
H28 C41 1_555 1_555
H29 C42 1_555 1_555
H30 C43 1_555 1_555
H31 C44 1_555 1_555
H32 C46 1_555 1_555
H33 C46 1_555 1_555
H34 C46 1_555 1_555
C7 C8 1_555 1_555
C15 C22 1_555 1_555
C20 C21 1_555 1_555
C30 C31 1_555 1_555
C38 C45 1_555 1_555
C43 C44 1_555 1_555

#END
