
#######################################################################
#
#                 Cambridge Crystallographic Data Centre
#                                CCDC 
#
#######################################################################
#
# If this CIF has been generated from an entry in the Cambridge 
# Structural Database, then it will include bibliographic, chemical, 
# crystal, experimental, refinement or atomic coordinate data resulting 
# from the CCDC's data processing and validation procedures.
#
#######################################################################

data_MAKXEE
_chemical_formula_moiety         'C21 H24 N2 O5'
_chemical_name_systematic        
5-(2-amino-3-(3-methoxyphenyl)-4,5,6,7-tetrahydro-7aH-indolium-7a-yl)-2,2-dimethyl-4,6-dioxo-1,3-dioxan-5-ide
_symmetry_cell_setting           monoclinic
_symmetry_space_group_name_H-M   'P 21/c'
_symmetry_Int_Tables_number      14
_space_group_name_Hall           '-P 2ybc'
loop_
_symmetry_equiv_pos_site_id
_symmetry_equiv_pos_as_xyz
1 x,y,z
2 -x,1/2+y,1/2-z
3 -x,-y,-z
4 x,1/2-y,1/2+z
_cell_length_a                   10.5648(19)
_cell_length_b                   18.878(3)
_cell_length_c                   9.6863(18)
_cell_angle_alpha                90
_cell_angle_beta                 96.845(5)
_cell_angle_gamma                90
_cell_volume                     1918.09
_exptl_crystal_colour            colorless
_exptl_crystal_description       block
_cell_formula_units_Z            4
loop_
_atom_site_label
_atom_site_type_symbol
_atom_site_fract_x
_atom_site_fract_y
_atom_site_fract_z
O1 O 0.7413(2) 0.24373(14) 0.2908(3)
O2 O 0.3173(2) 0.00439(12) 1.0113(2)
O3 O 0.2403(2) -0.00867(12) 0.5304(2)
O4 O 0.16317(19) -0.06208(11) 0.9067(2)
O5 O 0.1276(2) -0.07020(11) 0.6653(2)
N1 N 0.4797(2) 0.07068(14) 0.8091(3)
N2 N 0.6718(2) 0.06712(13) 0.7164(3)
H1 H 0.7101 0.0488 0.7913
H2 H 0.7135 0.0757 0.6472
C1 C 0.5495(3) 0.08216(15) 0.7078(3)
C2 C 0.4713(3) 0.11320(16) 0.5894(3)
C3 C 0.3513(3) 0.11578(16) 0.6211(3)
C4 C 0.2379(3) 0.15197(17) 0.5466(3)
H3 H 0.1696 0.1180 0.5241
H4 H 0.2596 0.1723 0.4604
C5 C 0.1940(4) 0.21058(18) 0.6397(4)
H5 H 0.2564 0.2485 0.6483
H6 H 0.1137 0.2300 0.5971
C6 C 0.1777(3) 0.18241(18) 0.7820(4)
H7 H 0.1100 0.1474 0.7737
H8 H 0.1525 0.2209 0.8392
C7 C 0.2996(3) 0.14874(16) 0.8532(3)
H9 H 0.2847 0.1312 0.9440
H10 H 0.3663 0.1842 0.8665
C8 C 0.3434(3) 0.08697(16) 0.7654(3)
C9 C 0.2598(3) 0.02183(15) 0.7702(3)
C10 C 0.2505(3) -0.00899(16) 0.8993(3)
C11 C 0.2124(3) -0.01606(16) 0.6489(3)
C12 C 0.0676(3) -0.06889(18) 0.7889(3)
C13 C 0.0079(4) -0.1408(2) 0.8018(4)
H11 H 0.0727 -0.1766 0.8043
H12 H -0.0550 -0.1488 0.7234
H13 H -0.0318 -0.1428 0.8858
C14 C -0.0298(3) -0.0102(2) 0.7848(4)
H14 H -0.0893 -0.0148 0.7023
H15 H 0.0125 0.0348 0.7842
H16 H -0.0746 -0.0133 0.8652
C15 C 0.5138(3) 0.13291(15) 0.4546(3)
C16 C 0.4478(3) 0.10496(17) 0.3353(3)
H17 H 0.3801 0.0741 0.3418
C17 C 0.4820(3) 0.12271(19) 0.2065(3)
H18 H 0.4383 0.1031 0.1265
C18 C 0.5796(3) 0.16887(18) 0.1963(3)
H19 H 0.6018 0.1811 0.1094
C19 C 0.6454(3) 0.19733(17) 0.3143(3)
C20 C 0.6150(3) 0.17928(16) 0.4447(3)
H20 H 0.6613 0.1977 0.5243
C21 C 0.8180(4) 0.2721(3) 0.4070(5)
H21 H 0.8540 0.2342 0.4650
H22 H 0.7668 0.3016 0.4591
H23 H 0.8853 0.2998 0.3760
H24 H 0.504(3) 0.0469(17) 0.886(3)
loop_
_geom_bond_atom_site_label_1
_geom_bond_atom_site_label_2
_geom_bond_site_symmetry_1
_geom_bond_site_symmetry_2
O1 C19 1_555 1_555
O2 C10 1_555 1_555
O3 C11 1_555 1_555
O4 C10 1_555 1_555
O5 C11 1_555 1_555
N1 C1 1_555 1_555
N2 H1 1_555 1_555
H2 N2 1_555 1_555
C1 N2 1_555 1_555
C2 C1 1_555 1_555
C3 C2 1_555 1_555
C4 C3 1_555 1_555
H3 C4 1_555 1_555
H4 C4 1_555 1_555
C5 C4 1_555 1_555
H5 C5 1_555 1_555
H6 C5 1_555 1_555
C6 C5 1_555 1_555
H7 C6 1_555 1_555
H8 C6 1_555 1_555
C7 C6 1_555 1_555
H9 C7 1_555 1_555
H10 C7 1_555 1_555
C8 N1 1_555 1_555
C9 C8 1_555 1_555
C10 C9 1_555 1_555
C11 C9 1_555 1_555
C12 O4 1_555 1_555
C13 C12 1_555 1_555
H11 C13 1_555 1_555
H12 C13 1_555 1_555
H13 C13 1_555 1_555
C14 C12 1_555 1_555
H14 C14 1_555 1_555
H15 C14 1_555 1_555
H16 C14 1_555 1_555
C15 C2 1_555 1_555
C16 C15 1_555 1_555
H17 C16 1_555 1_555
C17 C16 1_555 1_555
H18 C17 1_555 1_555
C18 C17 1_555 1_555
H19 C18 1_555 1_555
C19 C18 1_555 1_555
C20 C15 1_555 1_555
H20 C20 1_555 1_555
C21 O1 1_555 1_555
H21 C21 1_555 1_555
H22 C21 1_555 1_555
H23 C21 1_555 1_555
H24 N1 1_555 1_555
O5 C12 1_555 1_555
C3 C8 1_555 1_555
C7 C8 1_555 1_555
C19 C20 1_555 1_555

#END
