
#######################################################################
#
#                 Cambridge Crystallographic Data Centre
#                                CCDC 
#
#######################################################################
#
# If this CIF has been generated from an entry in the Cambridge 
# Structural Database, then it will include bibliographic, chemical, 
# crystal, experimental, refinement or atomic coordinate data resulting 
# from the CCDC's data processing and validation procedures.
#
#######################################################################

data_MAKXOO
_chemical_formula_moiety         'C44 H40 N2 O6'
_chemical_name_systematic        
2,2'-(ethane-1,2-diylbis(oxy-4,1-phenylenemethyleneoxy))bis(N-benzylbenzamide)
_symmetry_cell_setting           monoclinic
_symmetry_space_group_name_H-M   'C 2/c'
_symmetry_Int_Tables_number      15
_space_group_name_Hall           '-C 2yn'
loop_
_symmetry_equiv_pos_site_id
_symmetry_equiv_pos_as_xyz
1 x,y,z
2 -x,y,1/2-z
3 1/2+x,1/2+y,z
4 1/2-x,1/2+y,1/2-z
5 -x,-y,-z
6 x,-y,1/2+z
7 1/2-x,1/2-y,-z
8 1/2+x,1/2-y,1/2+z
_cell_length_a                   10.403(3)
_cell_length_b                   17.359(5)
_cell_length_c                   19.688(6)
_cell_angle_alpha                90
_cell_angle_beta                 102.701(4)
_cell_angle_gamma                90
_cell_volume                     3468.37
_cell_formula_units_Z            4
loop_
_atom_site_label
_atom_site_type_symbol
_atom_site_fract_x
_atom_site_fract_y
_atom_site_fract_z
C1 C 0.5405(3) 0.04997(17) 0.28676(13)
H1 H 0.5239 0.0974 0.3114
H2 H 0.5180 0.0049 0.3127
C2 C 0.7693(3) 0.06128(15) 0.34102(15)
C3 C 0.7448(3) 0.07056(14) 0.40657(14)
H3 H 0.6577 0.0669 0.4138
C4 C 0.8499(3) 0.08537(15) 0.46171(14)
H4 H 0.8331 0.0933 0.5067
C5 C 0.9784(3) 0.08910(14) 0.45354(15)
C6 C 0.9996(3) 0.07915(16) 0.38748(15)
H5 H 1.0870 0.0821 0.3805
C7 C 0.8972(3) 0.06492(16) 0.33111(15)
H6 H 0.9141 0.0577 0.2860
C8 C 1.0883(3) 0.10224(14) 0.51488(15)
H7 H 1.0678 0.0778 0.5567
H8 H 1.1704 0.0790 0.5066
C9 C 1.1777(3) 0.20896(16) 0.59025(14)
C10 C 1.1748(3) 0.28775(15) 0.60511(14)
C11 C 1.2410(3) 0.31165(17) 0.67099(15)
H9 H 1.2390 0.3647 0.6826
C12 C 1.3093(3) 0.26148(18) 0.72003(15)
H10 H 1.3532 0.2797 0.7646
C13 C 1.3131(3) 0.18426(18) 0.70370(16)
H11 H 1.3610 0.1492 0.7369
C14 C 1.2472(3) 0.15799(17) 0.63906(15)
H12 H 1.2496 0.1048 0.6281
C15 C 1.1050(3) 0.34959(16) 0.55778(16)
C16 C 0.9854(3) 0.38738(16) 0.44085(15)
H13 H 1.0347 0.3957 0.4038
H14 H 0.9818 0.4373 0.4647
C17 C 0.8473(3) 0.36321(17) 0.40745(14)
C18 C 0.7690(3) 0.41612(17) 0.36409(14)
H15 H 0.8029 0.4657 0.3573
C19 C 0.6414(3) 0.39668(19) 0.33064(16)
H16 H 0.5888 0.4329 0.3005
C20 C 0.5901(3) 0.32550(19) 0.34065(16)
H17 H 0.5028 0.3125 0.3176
C21 C 0.6665(3) 0.27358(18) 0.38431(16)
H18 H 0.6313 0.2246 0.3920
C22 C 0.7953(3) 0.29214(16) 0.41750(15)
H19 H 0.8477 0.2556 0.4473
N1 N 1.0577(2) 0.33257(13) 0.49079(12)
H20 H 1.0709 0.2859 0.4762
O1 O 0.67392(19) 0.04649(11) 0.28159(9)
O2 O 1.10589(18) 0.18485(10) 0.52593(10)
O3 O 1.0913(2) 0.41401(11) 0.58043(10)
C1A C 0.4595(3) 0.04997(17) 0.21324(13)
H1A H 0.4761 0.0974 0.1886
H2A H 0.4820 0.0049 0.1873
C2A C 0.2307(3) 0.06128(15) 0.15898(15)
C3A C 0.2552(3) 0.07056(14) 0.09343(14)
H3A H 0.3423 0.0669 0.0862
C4A C 0.1501(3) 0.08537(15) 0.03829(14)
H4A H 0.1669 0.0933 -0.0067
C5A C 0.0216(3) 0.08910(14) 0.04646(15)
C6A C 0.0004(3) 0.07915(16) 0.11252(15)
H5A H -0.0870 0.0821 0.1195
C7A C 0.1028(3) 0.06492(16) 0.16889(15)
H6A H 0.0859 0.0577 0.2140
C8A C -0.0883(3) 0.10224(14) -0.01488(15)
H7A H -0.0678 0.0778 -0.0567
H8A H -0.1704 0.0790 -0.0066
C9A C -0.1777(3) 0.20896(16) -0.09025(14)
C10A C -0.1748(3) 0.28775(15) -0.10511(14)
C11A C -0.2410(3) 0.31165(17) -0.17099(15)
H9A H -0.2390 0.3647 -0.1826
C12A C -0.3093(3) 0.26148(18) -0.22003(15)
H10A H -0.3532 0.2797 -0.2646
C13A C -0.3131(3) 0.18426(18) -0.20370(16)
H11A H -0.3610 0.1492 -0.2369
C14A C -0.2472(3) 0.15799(17) -0.13906(15)
H12A H -0.2496 0.1048 -0.1281
C15A C -0.1050(3) 0.34959(16) -0.05778(16)
C16A C 0.0146(3) 0.38738(16) 0.05915(15)
H13A H -0.0347 0.3957 0.0962
H14A H 0.0182 0.4373 0.0353
C17A C 0.1527(3) 0.36321(17) 0.09255(14)
C18A C 0.2310(3) 0.41612(17) 0.13591(14)
H15A H 0.1971 0.4657 0.1427
C19A C 0.3586(3) 0.39668(19) 0.16936(16)
H16A H 0.4112 0.4329 0.1995
C20A C 0.4099(3) 0.32550(19) 0.15935(16)
H17A H 0.4972 0.3125 0.1824
C21A C 0.3335(3) 0.27358(18) 0.11569(16)
H18A H 0.3687 0.2246 0.1080
C22A C 0.2047(3) 0.29214(16) 0.08250(15)
H19A H 0.1523 0.2556 0.0527
N1A N -0.0577(2) 0.33257(13) 0.00921(12)
H20A H -0.0709 0.2859 0.0238
O1A O 0.32608(19) 0.04649(11) 0.21841(9)
O2A O -0.10589(18) 0.18485(10) -0.02593(10)
O3A O -0.0913(2) 0.41401(11) -0.08043(10)
loop_
_geom_bond_atom_site_label_1
_geom_bond_atom_site_label_2
_geom_bond_site_symmetry_1
_geom_bond_site_symmetry_2
C1 H1 1_555 1_555
H2 C1 1_555 1_555
C2 C3 1_555 1_555
C3 H3 1_555 1_555
C4 C3 1_555 1_555
H4 C4 1_555 1_555
C5 C4 1_555 1_555
C6 C5 1_555 1_555
H5 C6 1_555 1_555
C7 C2 1_555 1_555
H6 C7 1_555 1_555
C8 C5 1_555 1_555
H7 C8 1_555 1_555
H8 C8 1_555 1_555
C9 C10 1_555 1_555
C10 C11 1_555 1_555
C11 H9 1_555 1_555
C12 C11 1_555 1_555
H10 C12 1_555 1_555
C13 C12 1_555 1_555
H11 C13 1_555 1_555
C14 C9 1_555 1_555
H12 C14 1_555 1_555
C15 C10 1_555 1_555
C16 H13 1_555 1_555
H14 C16 1_555 1_555
C17 C16 1_555 1_555
C18 C17 1_555 1_555
H15 C18 1_555 1_555
C19 C18 1_555 1_555
H16 C19 1_555 1_555
C20 C19 1_555 1_555
H17 C20 1_555 1_555
C21 C20 1_555 1_555
H18 C21 1_555 1_555
C22 C17 1_555 1_555
H19 C22 1_555 1_555
N1 C15 1_555 1_555
H20 N1 1_555 1_555
O1 C1 1_555 1_555
O2 C8 1_555 1_555
O3 C15 1_555 1_555
C1A C1 1_555 1_555
H1A C1A 1_555 1_555
H2A C1A 1_555 1_555
C2A C3A 1_555 1_555
C3A H3A 1_555 1_555
C4A C3A 1_555 1_555
H4A C4A 1_555 1_555
C5A C4A 1_555 1_555
C6A C5A 1_555 1_555
H5A C6A 1_555 1_555
C7A C2A 1_555 1_555
H6A C7A 1_555 1_555
C8A C5A 1_555 1_555
H7A C8A 1_555 1_555
H8A C8A 1_555 1_555
C9A C10A 1_555 1_555
C10A C11A 1_555 1_555
C11A H9A 1_555 1_555
C12A C11A 1_555 1_555
H10A C12A 1_555 1_555
C13A C12A 1_555 1_555
H11A C13A 1_555 1_555
C14A C9A 1_555 1_555
H12A C14A 1_555 1_555
C15A C10A 1_555 1_555
C16A H13A 1_555 1_555
H14A C16A 1_555 1_555
C17A C16A 1_555 1_555
C18A C17A 1_555 1_555
H15A C18A 1_555 1_555
C19A C18A 1_555 1_555
H16A C19A 1_555 1_555
C20A C19A 1_555 1_555
H17A C20A 1_555 1_555
C21A C20A 1_555 1_555
H18A C21A 1_555 1_555
C22A C17A 1_555 1_555
H19A C22A 1_555 1_555
N1A C15A 1_555 1_555
H20A N1A 1_555 1_555
O1A C1A 1_555 1_555
O2A C8A 1_555 1_555
O3A C15A 1_555 1_555
C2 O1 1_555 1_555
C6 C7 1_555 1_555
C9 O2 1_555 1_555
C13 C14 1_555 1_555
C16 N1 1_555 1_555
C21 C22 1_555 1_555
C2A O1A 1_555 1_555
C6A C7A 1_555 1_555
C9A O2A 1_555 1_555
C13A C14A 1_555 1_555
C16A N1A 1_555 1_555
C21A C22A 1_555 1_555

#END
