
#######################################################################
#
#                 Cambridge Crystallographic Data Centre
#                                CCDC 
#
#######################################################################
#
# If this CIF has been generated from an entry in the Cambridge 
# Structural Database, then it will include bibliographic, chemical, 
# crystal, experimental, refinement or atomic coordinate data resulting 
# from the CCDC's data processing and validation procedures.
#
#######################################################################

data_MAKYUV
_chemical_formula_moiety         'C32 H53 N1 O3 Si2'
_chemical_name_systematic        
4-benzyl-3-((4-(bis(triethylsilyl)methyl)-2-ethylcyclohex-3-en-1-yl)carbonyl)-1,3-oxazolidin-2-one
_symmetry_cell_setting           orthorhombic
_symmetry_space_group_name_H-M   'P 21 21 21'
_symmetry_Int_Tables_number      19
_space_group_name_Hall           'P 2ac 2ab'
loop_
_symmetry_equiv_pos_site_id
_symmetry_equiv_pos_as_xyz
1 x,y,z
2 1/2-x,-y,1/2+z
3 1/2+x,1/2-y,-z
4 -x,1/2+y,1/2-z
_cell_length_a                   8.6338(6)
_cell_length_b                   40.258(4)
_cell_length_c                   9.8293(6)
_cell_angle_alpha                90
_cell_angle_beta                 90
_cell_angle_gamma                90
_cell_volume                     3416.46
_exptl_crystal_colour            colorless
_exptl_crystal_description       needle
_cell_formula_units_Z            4
loop_
_atom_site_label
_atom_site_type_symbol
_atom_site_fract_x
_atom_site_fract_y
_atom_site_fract_z
Si1 Si -0.47951(16) -0.53704(4) -0.28924(13)
Si2 Si -0.62449(17) -0.59390(4) -0.08552(14)
O1 O -0.3703(8) -0.76519(12) -0.5416(5)
O2 O -0.4076(9) -0.72396(12) -0.3950(5)
O3 O -0.4782(6) -0.67232(9) -0.7583(3)
N1 N -0.4366(5) -0.71680(11) -0.6286(4)
C1 C -0.5193(7) -0.76129(17) -1.0457(6)
H1 H -0.4711 -0.7408 -1.0573
C2 C -0.5193(8) -0.7841(2) -1.1513(7)
H2 H -0.4717 -0.7790 -1.2336
C3 C -0.5898(8) -0.8141(2) -1.1335(9)
H3 H -0.5872 -0.8298 -1.2029
C4 C -0.6635(9) -0.82125(19) -1.0153(9)
H4 H -0.7141 -0.8415 -1.0049
C5 C -0.6634(7) -0.79875(17) -0.9115(7)
H5 H -0.7140 -0.8039 -0.8306
C6 C -0.5895(6) -0.76856(14) -0.9245(6)
C7 C -0.5912(7) -0.74443(14) -0.8068(6)
H6 H -0.6583 -0.7530 -0.7358
H7 H -0.6334 -0.7234 -0.8373
C8 C -0.4302(7) -0.73879(13) -0.7487(5)
H8 H -0.3618 -0.7293 -0.8182
C9 C -0.3569(10) -0.76930(17) -0.6860(7)
H9 H -0.4105 -0.7892 -0.7153
H10 H -0.2489 -0.7710 -0.7124
C10 C -0.4072(10) -0.73348(19) -0.5095(8)
C11 C -0.4678(7) -0.68278(14) -0.6437(5)
C12 C -0.4836(6) -0.66156(13) -0.5185(5)
H11 H -0.5135 -0.6756 -0.4413
C13 C -0.6039(6) -0.63479(12) -0.5385(5)
H12 H -0.5794 -0.6231 -0.6233
C14 C -0.5949(6) -0.60980(12) -0.4240(5)
H13 H -0.6802 -0.5960 -0.4120
C15 C -0.4789(6) -0.60566(12) -0.3403(5)
C16 C -0.3323(6) -0.62564(16) -0.3563(6)
H14 H -0.3230 -0.6409 -0.2802
H15 H -0.2440 -0.6107 -0.3537
C17 C -0.3283(7) -0.64536(16) -0.4886(6)
H16 H -0.3010 -0.6306 -0.5630
H17 H -0.2491 -0.6624 -0.4824
C18 C -0.7692(7) -0.64893(16) -0.5518(7)
H18 H -0.7677 -0.6671 -0.6168
H19 H -0.8005 -0.6580 -0.4646
C19 C -0.8876(8) -0.6238(2) -0.5966(8)
H20 H -0.8553 -0.6140 -0.6808
H21 H -0.8976 -0.6069 -0.5284
H22 H -0.9857 -0.6347 -0.6092
C20 C -0.4830(6) -0.58107(11) -0.2232(4)
H23 H -0.3815 -0.5837 -0.1799
C21 C -0.6436(6) -0.52611(14) -0.4082(5)
H24 H -0.7318 -0.5400 -0.3853
H25 H -0.6733 -0.5032 -0.3910
C22 C -0.6121(8) -0.5298(2) -0.5593(6)
H26 H -0.7051 -0.5252 -0.6095
H27 H -0.5787 -0.5521 -0.5781
H28 H -0.5326 -0.5145 -0.5861
C23 C -0.2956(6) -0.53072(18) -0.3833(6)
H29 H -0.2893 -0.5475 -0.4539
H30 H -0.3007 -0.5093 -0.4281
C24 C -0.1470(7) -0.5320(2) -0.3014(7)
H31 H -0.0602 -0.5283 -0.3605
H32 H -0.1373 -0.5534 -0.2593
H33 H -0.1493 -0.5151 -0.2324
C25 C -0.4830(8) -0.50692(13) -0.1448(5)
H34 H -0.5812 -0.5092 -0.0976
H35 H -0.4018 -0.5129 -0.0812
C26 C -0.4617(9) -0.47035(15) -0.1849(7)
H36 H -0.5399 -0.4642 -0.2496
H37 H -0.3612 -0.4674 -0.2247
H38 H -0.4708 -0.4566 -0.1054
C27 C -0.5686(8) -0.57482(17) 0.0818(6)
H39 H -0.5826 -0.5510 0.0756
H40 H -0.6389 -0.5830 0.1513
C28 C -0.4027(8) -0.5818(2) 0.1274(6)
H41 H -0.3317 -0.5706 0.0680
H42 H -0.3835 -0.6053 0.1242
H43 H -0.3886 -0.5739 0.2188
C29 C -0.8261(6) -0.58015(17) -0.1258(6)
H44 H -0.8243 -0.5564 -0.1426
H45 H -0.8581 -0.5909 -0.2096
C30 C -0.9481(8) -0.5872(2) -0.0177(8)
H46 H -1.0464 -0.5787 -0.0475
H47 H -0.9191 -0.5765 0.0658
H48 H -0.9558 -0.6107 -0.0034
C31 C -0.6176(10) -0.63936(18) -0.0561(8)
H49 H -0.5181 -0.6465 -0.0914
H50 H -0.6115 -0.6420 0.0419
C32 C -0.7158(13) -0.6619(2) -0.0965(19)
H51 H -0.7775 -0.6690 -0.0207
H52 H -0.6604 -0.6805 -0.1331
H53 H -0.7819 -0.6526 -0.1654
loop_
_geom_bond_atom_site_label_1
_geom_bond_atom_site_label_2
_geom_bond_site_symmetry_1
_geom_bond_site_symmetry_2
Si1 C20 1_555 1_555
Si2 C20 1_555 1_555
O1 C9 1_555 1_555
O2 C10 1_555 1_555
O3 C11 1_555 1_555
N1 C8 1_555 1_555
C1 H1 1_555 1_555
C2 C1 1_555 1_555
H2 C2 1_555 1_555
C3 C2 1_555 1_555
H3 C3 1_555 1_555
C4 C3 1_555 1_555
H4 C4 1_555 1_555
C5 C4 1_555 1_555
H5 C5 1_555 1_555
C6 C1 1_555 1_555
C7 C6 1_555 1_555
H6 C7 1_555 1_555
H7 C7 1_555 1_555
C8 C7 1_555 1_555
H8 C8 1_555 1_555
C9 C8 1_555 1_555
H9 C9 1_555 1_555
H10 C9 1_555 1_555
C10 O1 1_555 1_555
C11 N1 1_555 1_555
C12 C11 1_555 1_555
H11 C12 1_555 1_555
C13 C12 1_555 1_555
H12 C13 1_555 1_555
C14 C13 1_555 1_555
H13 C14 1_555 1_555
C15 C14 1_555 1_555
C16 C15 1_555 1_555
H14 C16 1_555 1_555
H15 C16 1_555 1_555
C17 C12 1_555 1_555
H16 C17 1_555 1_555
H17 C17 1_555 1_555
C18 C13 1_555 1_555
H18 C18 1_555 1_555
H19 C18 1_555 1_555
C19 C18 1_555 1_555
H20 C19 1_555 1_555
H21 C19 1_555 1_555
H22 C19 1_555 1_555
C20 C15 1_555 1_555
H23 C20 1_555 1_555
C21 Si1 1_555 1_555
H24 C21 1_555 1_555
H25 C21 1_555 1_555
C22 C21 1_555 1_555
H26 C22 1_555 1_555
H27 C22 1_555 1_555
H28 C22 1_555 1_555
C23 Si1 1_555 1_555
H29 C23 1_555 1_555
H30 C23 1_555 1_555
C24 C23 1_555 1_555
H31 C24 1_555 1_555
H32 C24 1_555 1_555
H33 C24 1_555 1_555
C25 Si1 1_555 1_555
H34 C25 1_555 1_555
H35 C25 1_555 1_555
C26 C25 1_555 1_555
H36 C26 1_555 1_555
H37 C26 1_555 1_555
H38 C26 1_555 1_555
C27 Si2 1_555 1_555
H39 C27 1_555 1_555
H40 C27 1_555 1_555
C28 C27 1_555 1_555
H41 C28 1_555 1_555
H42 C28 1_555 1_555
H43 C28 1_555 1_555
C29 Si2 1_555 1_555
H44 C29 1_555 1_555
H45 C29 1_555 1_555
C30 C29 1_555 1_555
H46 C30 1_555 1_555
H47 C30 1_555 1_555
H48 C30 1_555 1_555
C31 Si2 1_555 1_555
H49 C31 1_555 1_555
H50 C31 1_555 1_555
C32 C31 1_555 1_555
H51 C32 1_555 1_555
H52 C32 1_555 1_555
H53 C32 1_555 1_555
N1 C10 1_555 1_555
C5 C6 1_555 1_555
C16 C17 1_555 1_555

#END
