
#######################################################################
#
#                 Cambridge Crystallographic Data Centre
#                                CCDC 
#
#######################################################################
#
# If this CIF has been generated from an entry in the Cambridge 
# Structural Database, then it will include bibliographic, chemical, 
# crystal, experimental, refinement or atomic coordinate data resulting 
# from the CCDC's data processing and validation procedures.
#
#######################################################################

data_MALNOF
_chemical_formula_moiety         'C24 H21 B1 F2 N2'
_chemical_name_systematic        
5,5-difluoro-10-mesityl-3-phenyl-5H-4\l^5^,5\l^5^-dipyrrolo[1,2-c:2',1'-f][1,3,2]diazaborinine
_symmetry_cell_setting           orthorhombic
_symmetry_space_group_name_H-M   'P n a 21'
_symmetry_Int_Tables_number      33
_space_group_name_Hall           'P 2c -2n'
loop_
_symmetry_equiv_pos_site_id
_symmetry_equiv_pos_as_xyz
1 x,y,z
2 -x,-y,1/2+z
3 1/2+x,1/2-y,z
4 1/2-x,1/2+y,1/2+z
_cell_length_a                   16.262(3)
_cell_length_b                   8.2789(17)
_cell_length_c                   15.194(3)
_cell_angle_alpha                90
_cell_angle_beta                 90
_cell_angle_gamma                90
_cell_volume                     2045.59
_exptl_crystal_colour            red
_exptl_crystal_description       block
_cell_formula_units_Z            4
loop_
_atom_site_label
_atom_site_type_symbol
_atom_site_fract_x
_atom_site_fract_y
_atom_site_fract_z
B1 B 0.14311(19) 0.2167(4) 0.1093(2)
C1 C 0.05461(17) 0.4464(3) 0.0435(2)
H1 H 0.0921 0.5290 0.0540
C2 C -0.02085(18) 0.4656(4) 0.0016(2)
H2 H -0.0427 0.5618 -0.0196
C3 C -0.05706(17) 0.3159(3) -0.00253(19)
H3 H -0.1075 0.2914 -0.0280
C4 C -0.00356(15) 0.2073(3) 0.03889(17)
C5 C -0.01094(14) 0.0423(3) 0.05681(16)
C6 C 0.04779(15) -0.0345(3) 0.10942(16)
C7 C 0.04472(16) -0.1906(3) 0.14657(19)
H4 H 0.0036 -0.2671 0.1381
C8 C 0.11383(16) -0.2080(3) 0.19750(18)
H5 H 0.1272 -0.2980 0.2312
C9 C 0.16105(15) -0.0660(3) 0.18987(16)
C10 C 0.24306(17) -0.0446(3) 0.22822(17)
C11 C 0.2598(2) -0.1166(4) 0.30976(19)
H6 H 0.2177 -0.1678 0.3404
C12 C 0.3371(2) -0.1126(5) 0.3450(2)
H7 H 0.3471 -0.1618 0.3989
C13 C 0.4003(2) -0.0362(5) 0.3012(2)
H8 H 0.4528 -0.0342 0.3253
C14 C 0.38486(19) 0.0368(4) 0.2218(2)
H9 H 0.4272 0.0892 0.1922
C15 C 0.30733(17) 0.0332(4) 0.18559(19)
H10 H 0.2978 0.0836 0.1318
C16 C -0.08168(15) -0.0510(3) 0.02071(17)
C17 C -0.15025(17) -0.0864(3) 0.0741(2)
C18 C -0.21314(17) -0.1775(4) 0.0378(3)
H11 H -0.2587 -0.2016 0.0725
C19 C -0.2112(2) -0.2340(4) -0.0473(3)
C20 C -0.1439(2) -0.1965(4) -0.0989(2)
H12 H -0.1420 -0.2336 -0.1566
C21 C -0.07851(16) -0.1043(3) -0.06654(18)
C22 C -0.1559(2) -0.0274(4) 0.1671(2)
H13 H -0.1368 -0.1101 0.2064
H14 H -0.2120 -0.0016 0.1807
H15 H -0.1225 0.0674 0.1739
C23 C -0.2806(3) -0.3329(6) -0.0851(4)
H16 H -0.2652 -0.4448 -0.0861
H17 H -0.2922 -0.2972 -0.1439
H18 H -0.3288 -0.3197 -0.0493
C24 C -0.0062(2) -0.0663(4) -0.1257(2)
H19 H -0.0118 0.0412 -0.1485
H20 H -0.0048 -0.1419 -0.1736
H21 H 0.0439 -0.0742 -0.0925
F1 F 0.20511(9) 0.2143(2) 0.04659(12)
F2 F 0.16658(12) 0.3068(2) 0.18063(11)
N1 N 0.06550(12) 0.2903(2) 0.06666(13)
N2 N 0.12029(12) 0.0411(2) 0.13673(13)
loop_
_geom_bond_atom_site_label_1
_geom_bond_atom_site_label_2
_geom_bond_site_symmetry_1
_geom_bond_site_symmetry_2
B1 F1 1_555 1_555
C1 H1 1_555 1_555
C2 C1 1_555 1_555
H2 C2 1_555 1_555
C3 C2 1_555 1_555
H3 C3 1_555 1_555
C4 C3 1_555 1_555
C5 C4 1_555 1_555
C6 C5 1_555 1_555
C7 C6 1_555 1_555
H4 C7 1_555 1_555
C8 C7 1_555 1_555
H5 C8 1_555 1_555
C9 C8 1_555 1_555
C10 C9 1_555 1_555
C11 C10 1_555 1_555
H6 C11 1_555 1_555
C12 C11 1_555 1_555
H7 C12 1_555 1_555
C13 C12 1_555 1_555
H8 C13 1_555 1_555
C14 C13 1_555 1_555
H9 C14 1_555 1_555
C15 C10 1_555 1_555
H10 C15 1_555 1_555
C16 C5 1_555 1_555
C17 C16 1_555 1_555
C18 C17 1_555 1_555
H11 C18 1_555 1_555
C19 C18 1_555 1_555
C20 C19 1_555 1_555
H12 C20 1_555 1_555
C21 C16 1_555 1_555
C22 C17 1_555 1_555
H13 C22 1_555 1_555
H14 C22 1_555 1_555
H15 C22 1_555 1_555
C23 C19 1_555 1_555
H16 C23 1_555 1_555
H17 C23 1_555 1_555
H18 C23 1_555 1_555
C24 C21 1_555 1_555
H19 C24 1_555 1_555
H20 C24 1_555 1_555
H21 C24 1_555 1_555
F2 B1 1_555 1_555
N1 B1 1_555 1_555
N2 B1 1_555 1_555
C1 N1 1_555 1_555
C4 N1 1_555 1_555
C6 N2 1_555 1_555
C9 N2 1_555 1_555
C14 C15 1_555 1_555
C20 C21 1_555 1_555

#END
