
#######################################################################
#
#                 Cambridge Crystallographic Data Centre
#                                CCDC 
#
#######################################################################
#
# If this CIF has been generated from an entry in the Cambridge 
# Structural Database, then it will include bibliographic, chemical, 
# crystal, experimental, refinement or atomic coordinate data resulting 
# from the CCDC's data processing and validation procedures.
#
#######################################################################

data_MALNIX
_chemical_formula_moiety         'C84 H76 O4 P4'
_chemical_name_systematic        
25,26,27,28-tetrakis(2-(Diphenylphosphino)ethoxy)calix[4]arene
_symmetry_cell_setting           triclinic
_symmetry_space_group_name_H-M   'P -1'
_symmetry_Int_Tables_number      2
_space_group_name_Hall           '-P 1'
loop_
_symmetry_equiv_pos_site_id
_symmetry_equiv_pos_as_xyz
1 x,y,z
2 -x,-y,-z
_cell_length_a                   11.125(2)
_cell_length_b                   11.133(2)
_cell_length_c                   31.458(6)
_cell_angle_alpha                95.350(4)
_cell_angle_beta                 95.120(4)
_cell_angle_gamma                115.772(3)
_cell_volume                     3456.59
_exptl_crystal_colour            colorless
_exptl_crystal_description       prism
_chemical_melting_point          202deg.C
_cell_formula_units_Z            2
_exptl_crystal_recrystallization_method 'ethyl acetate/hexane'
loop_
_atom_site_label
_atom_site_type_symbol
_atom_site_fract_x
_atom_site_fract_y
_atom_site_fract_z
P1 P 0.21285(6) -0.13650(7) 0.169285(19)
P2 P 1.13648(6) 0.78704(7) 0.330641(19)
P3 P 1.08626(6) 0.37305(7) 0.41385(2)
P4 P 0.62709(6) -0.08630(7) 0.08617(2)
O1 O 0.56182(13) 0.10102(14) 0.24729(4)
O2 O 0.89902(13) 0.43821(14) 0.25271(4)
O3 O 0.87246(14) 0.12353(16) 0.30151(4)
O4 O 0.87644(14) 0.12768(15) 0.19854(4)
C1 C 0.2376(2) -0.0073(2) 0.13435(7)
C2 C 0.2030(2) 0.0951(3) 0.14665(8)
H1 H 0.1641 0.0938 0.1717
C3 C 0.2245(3) 0.1984(3) 0.12299(9)
H2 H 0.2018 0.2666 0.1323
C4 C 0.2795(3) 0.2007(3) 0.08565(8)
H3 H 0.2939 0.2699 0.0693
C5 C 0.3132(3) 0.0997(3) 0.07264(8)
H4 H 0.3493 0.1000 0.0471
C6 C 0.2942(2) -0.0015(3) 0.09682(7)
H5 H 0.3200 -0.0677 0.0878
C7 C 0.2040(2) -0.2758(2) 0.13130(7)
C8 C 0.3045(3) -0.3157(3) 0.12889(10)
H6 H 0.3859 -0.2684 0.1472
C9 C 0.2867(3) -0.4256(3) 0.09951(12)
H7 H 0.3556 -0.4512 0.0984
C10 C 0.1692(4) -0.4951(3) 0.07252(10)
H8 H 0.1581 -0.5678 0.0527
C11 C 0.0671(4) -0.4592(3) 0.07419(9)
H9 H -0.0137 -0.5077 0.0556
C12 C 0.0836(3) -0.3506(3) 0.10356(8)
H10 H 0.0131 -0.3273 0.1048
C13 C 0.3863(2) -0.0693(2) 0.19775(7)
H11 H 0.3980 -0.1416 0.2095
H12 H 0.4491 -0.0374 0.1772
C14 C 0.4196(2) 0.0437(2) 0.23355(7)
H13 H 0.3953 0.1110 0.2234
H14 H 0.3706 0.0100 0.2573
C15 C 1.2761(2) 0.7961(3) 0.36880(7)
C16 C 1.3504(2) 0.9161(3) 0.39636(8)
H15 H 1.3271 0.9866 0.3952
C17 C 1.4596(3) 0.9326(4) 0.42588(9)
H16 H 1.5080 1.0133 0.4445
C18 C 1.4951(3) 0.8306(4) 0.42736(10)
H17 H 1.5682 0.8419 0.4470
C19 C 1.4250(3) 0.7125(4) 0.40050(12)
H18 H 1.4496 0.6429 0.4017
C20 C 1.3155(3) 0.6961(3) 0.37103(10)
H19 H 1.2682 0.6152 0.3525
C21 C 1.0073(2) 0.7623(2) 0.36572(6)
C22 C 1.0017(2) 0.7058(2) 0.40321(7)
H20 H 1.0680 0.6801 0.4122
C23 C 0.9002(3) 0.6868(3) 0.42739(7)
H21 H 0.8990 0.6502 0.4528
C24 C 0.8005(3) 0.7216(3) 0.41435(8)
H22 H 0.7318 0.7085 0.4309
C25 C 0.8020(3) 0.7755(3) 0.37700(9)
H23 H 0.7333 0.7973 0.3677
C26 C 0.9053(3) 0.7972(3) 0.35325(8)
H24 H 0.9070 0.8362 0.3283
C27 C 1.0694(2) 0.6139(2) 0.30232(7)
H25 H 1.1418 0.6020 0.2905
H26 H 1.0373 0.5514 0.3229
C28 C 0.9563(2) 0.5803(2) 0.26647(7)
H27 H 0.8889 0.6046 0.2766
H28 H 0.9902 0.6290 0.2428
C29 C 1.2275(2) 0.3305(3) 0.42196(8)
C30 C 1.2884(3) 0.3448(4) 0.46305(10)
H29 H 1.2518 0.3671 0.4862
C31 C 1.4043(3) 0.3264(4) 0.47104(12)
H30 H 1.4437 0.3353 0.4992
C32 C 1.4589(3) 0.2955(4) 0.43740(14)
H31 H 1.5364 0.2836 0.4423
C33 C 1.3998(3) 0.2822(4) 0.39656(12)
H32 H 1.4368 0.2608 0.3734
C34 C 1.2857(3) 0.3000(3) 0.38917(9)
H33 H 1.2471 0.2910 0.3609
C35 C 0.9687(2) 0.2620(3) 0.44640(7)
C36 C 0.9533(2) 0.1344(3) 0.45146(8)
H34 H 1.0034 0.0995 0.4372
C37 C 0.8642(3) 0.0575(3) 0.47758(9)
H35 H 0.8551 -0.0279 0.4811
C38 C 0.7908(3) 0.1090(5) 0.49786(10)
H36 H 0.7307 0.0574 0.5152
C39 C 0.8021(3) 0.2329(5) 0.49360(9)
H37 H 0.7503 0.2658 0.5078
C40 C 0.8923(2) 0.3113(3) 0.46771(8)
H38 H 0.9011 0.3969 0.4648
C41 C 1.0073(2) 0.2978(2) 0.35783(7)
H39 H 0.9411 0.3301 0.3505
H40 H 1.0767 0.3348 0.3396
C42 C 0.9383(2) 0.1461(2) 0.34467(7)
H41 H 1.0039 0.1105 0.3458
H42 H 0.8732 0.1030 0.3637
C43 C 0.7385(3) 0.0313(2) 0.05363(7)
C44 C 0.6891(3) 0.1079(3) 0.03238(8)
H43 H 0.6035 0.0994 0.0354
C45 C 0.7678(5) 0.1978(3) 0.00642(9)
H44 H 0.7348 0.2493 -0.0078
C46 C 0.8922(5) 0.2096(3) 0.00204(9)
H45 H 0.9443 0.2696 -0.0153
C47 C 0.9421(3) 0.1351(3) 0.02253(9)
H46 H 1.0275 0.1437 0.0190
C48 C 0.8659(3) 0.0466(3) 0.04856(8)
H47 H 0.9010 -0.0032 0.0628
C49 C 0.6698(2) -0.2270(2) 0.07809(8)
C50 C 0.6557(4) -0.2885(3) 0.03690(10)
H48 H 0.6330 -0.2528 0.0137
C51 C 0.6748(4) -0.4040(4) 0.02936(12)
H49 H 0.6669 -0.4436 0.0012
C52 C 0.7049(4) -0.4583(4) 0.06292(15)
H50 H 0.7162 -0.5362 0.0580
C53 C 0.7185(4) -0.3988(4) 0.10361(13)
H51 H 0.7402 -0.4353 0.1268
C54 C 0.7005(3) -0.2854(3) 0.11090(10)
H52 H 0.7095 -0.2466 0.1392
C55 C 0.7020(2) -0.0076(2) 0.14209(7)
H53 H 0.6695 0.0584 0.1495
H54 H 0.6649 -0.0771 0.1602
C56 C 0.8542(2) 0.0619(2) 0.15537(7)
H55 H 0.8900 -0.0036 0.1542
H56 H 0.8974 0.1270 0.1364
C57 C 0.60759(18) 0.1841(2) 0.28670(6)
C58 C 0.62759(18) 0.1273(2) 0.32280(6)
C59 C 0.6750(2) 0.2105(3) 0.36229(7)
H57 H 0.6865 0.1745 0.3870
C60 C 0.7052(2) 0.3439(3) 0.36576(8)
H58 H 0.7372 0.3979 0.3926
C61 C 0.6880(2) 0.3986(2) 0.32946(8)
H59 H 0.7096 0.4898 0.3320
C62 C 0.63905(19) 0.3197(2) 0.28903(7)
C63 C 0.6181(2) 0.3818(2) 0.24994(7)
H60 H 0.5218 0.3466 0.2411
H61 H 0.6535 0.4782 0.2588
C64 C 0.6802(2) 0.3606(2) 0.21097(7)
C65 C 0.6014(2) 0.3119(2) 0.17062(8)
H62 H 0.5102 0.2905 0.1681
C66 C 0.6559(2) 0.2948(2) 0.13441(8)
H63 H 0.6018 0.2626 0.1077
C67 C 0.7896(2) 0.3251(2) 0.13764(7)
H64 H 0.8257 0.3138 0.1129
C68 C 0.8727(2) 0.3726(2) 0.17726(6)
C69 C 0.8162(2) 0.3925(2) 0.21333(6)
C70 C 1.0194(2) 0.4048(2) 0.18037(7)
H65 H 1.0713 0.5018 0.1881
H66 H 1.0361 0.3816 0.1517
C71 C 1.0673(3) 0.1479(3) 0.24486(7)
C72 C 1.0090(2) 0.2056(3) 0.21743(6)
C73 C 1.0765(2) 0.3397(3) 0.21120(7)
C74 C 1.2064(2) 0.4154(3) 0.23312(8)
H67 H 1.2539 0.5050 0.2293
C75 C 1.2665(3) 0.3611(5) 0.26030(9)
H68 H 1.3535 0.4137 0.2748
C76 C 1.1978(4) 0.2293(5) 0.26592(8)
H69 H 1.2391 0.1930 0.2843
C77 C 0.9988(3) 0.0006(4) 0.24995(9)
H70 H 1.0104 -0.0494 0.2250
H71 H 1.0488 -0.0106 0.2749
C78 C 0.7945(3) -0.0089(2) 0.28274(6)
C79 C 0.8518(3) -0.0677(3) 0.25503(7)
C80 C 0.7697(5) -0.1981(4) 0.23404(9)
H72 H 0.8057 -0.2397 0.2155
C81 C 0.6384(5) -0.2666(3) 0.23979(10)
H73 H 0.5856 -0.3537 0.2254
C82 C 0.5848(3) -0.2057(3) 0.26708(8)
H74 H 0.4950 -0.2529 0.2709
C83 C 0.6599(2) -0.0769(2) 0.28894(7)
C84 C 0.5951(2) -0.0192(2) 0.31969(7)
H75 H 0.4982 -0.0709 0.3120
H76 H 0.6182 -0.0356 0.3483
loop_
_geom_bond_atom_site_label_1
_geom_bond_atom_site_label_2
_geom_bond_site_symmetry_1
_geom_bond_site_symmetry_2
P1 C1 1_555 1_555
P2 C15 1_555 1_555
P3 C29 1_555 1_555
P4 C43 1_555 1_555
O1 C14 1_555 1_555
O2 C28 1_555 1_555
O3 C42 1_555 1_555
O4 C56 1_555 1_555
C1 C2 1_555 1_555
C2 H1 1_555 1_555
C3 C2 1_555 1_555
H2 C3 1_555 1_555
C4 C3 1_555 1_555
H3 C4 1_555 1_555
C5 C4 1_555 1_555
H4 C5 1_555 1_555
C6 C1 1_555 1_555
H5 C6 1_555 1_555
C7 P1 1_555 1_555
C8 C7 1_555 1_555
H6 C8 1_555 1_555
C9 C8 1_555 1_555
H7 C9 1_555 1_555
C10 C9 1_555 1_555
H8 C10 1_555 1_555
C11 C10 1_555 1_555
H9 C11 1_555 1_555
C12 C7 1_555 1_555
H10 C12 1_555 1_555
C13 P1 1_555 1_555
H11 C13 1_555 1_555
H12 C13 1_555 1_555
C14 C13 1_555 1_555
H13 C14 1_555 1_555
H14 C14 1_555 1_555
C15 C16 1_555 1_555
C16 H15 1_555 1_555
C17 C16 1_555 1_555
H16 C17 1_555 1_555
C18 C17 1_555 1_555
H17 C18 1_555 1_555
C19 C18 1_555 1_555
H18 C19 1_555 1_555
C20 C15 1_555 1_555
H19 C20 1_555 1_555
C21 P2 1_555 1_555
C22 C21 1_555 1_555
H20 C22 1_555 1_555
C23 C22 1_555 1_555
H21 C23 1_555 1_555
C24 C23 1_555 1_555
H22 C24 1_555 1_555
C25 C24 1_555 1_555
H23 C25 1_555 1_555
C26 C21 1_555 1_555
H24 C26 1_555 1_555
C27 P2 1_555 1_555
H25 C27 1_555 1_555
H26 C27 1_555 1_555
C28 C27 1_555 1_555
H27 C28 1_555 1_555
H28 C28 1_555 1_555
C29 C30 1_555 1_555
C30 H29 1_555 1_555
C31 C30 1_555 1_555
H30 C31 1_555 1_555
C32 C31 1_555 1_555
H31 C32 1_555 1_555
C33 C32 1_555 1_555
H32 C33 1_555 1_555
C34 C29 1_555 1_555
H33 C34 1_555 1_555
C35 P3 1_555 1_555
C36 C35 1_555 1_555
H34 C36 1_555 1_555
C37 C36 1_555 1_555
H35 C37 1_555 1_555
C38 C37 1_555 1_555
H36 C38 1_555 1_555
C39 C38 1_555 1_555
H37 C39 1_555 1_555
C40 C35 1_555 1_555
H38 C40 1_555 1_555
C41 P3 1_555 1_555
H39 C41 1_555 1_555
H40 C41 1_555 1_555
C42 C41 1_555 1_555
H41 C42 1_555 1_555
H42 C42 1_555 1_555
C43 C44 1_555 1_555
C44 H43 1_555 1_555
C45 C44 1_555 1_555
H44 C45 1_555 1_555
C46 C45 1_555 1_555
H45 C46 1_555 1_555
C47 C46 1_555 1_555
H46 C47 1_555 1_555
C48 C43 1_555 1_555
H47 C48 1_555 1_555
C49 P4 1_555 1_555
C50 C49 1_555 1_555
H48 C50 1_555 1_555
C51 C50 1_555 1_555
H49 C51 1_555 1_555
C52 C51 1_555 1_555
H50 C52 1_555 1_555
C53 C52 1_555 1_555
H51 C53 1_555 1_555
C54 C49 1_555 1_555
H52 C54 1_555 1_555
C55 P4 1_555 1_555
H53 C55 1_555 1_555
H54 C55 1_555 1_555
C56 C55 1_555 1_555
H55 C56 1_555 1_555
H56 C56 1_555 1_555
C57 O1 1_555 1_555
C58 C57 1_555 1_555
C59 C58 1_555 1_555
H57 C59 1_555 1_555
C60 C59 1_555 1_555
H58 C60 1_555 1_555
C61 C60 1_555 1_555
H59 C61 1_555 1_555
C62 C57 1_555 1_555
C63 C62 1_555 1_555
H60 C63 1_555 1_555
H61 C63 1_555 1_555
C64 C63 1_555 1_555
C65 C64 1_555 1_555
H62 C65 1_555 1_555
C66 C65 1_555 1_555
H63 C66 1_555 1_555
C67 C66 1_555 1_555
H64 C67 1_555 1_555
C68 C67 1_555 1_555
C69 O2 1_555 1_555
C70 C68 1_555 1_555
H65 C70 1_555 1_555
H66 C70 1_555 1_555
C71 C72 1_555 1_555
C72 O4 1_555 1_555
C73 C70 1_555 1_555
C74 C73 1_555 1_555
H67 C74 1_555 1_555
C75 C74 1_555 1_555
H68 C75 1_555 1_555
C76 C71 1_555 1_555
H69 C76 1_555 1_555
C77 C71 1_555 1_555
H70 C77 1_555 1_555
H71 C77 1_555 1_555
C78 O3 1_555 1_555
C79 C77 1_555 1_555
C80 C79 1_555 1_555
H72 C80 1_555 1_555
C81 C80 1_555 1_555
H73 C81 1_555 1_555
C82 C81 1_555 1_555
H74 C82 1_555 1_555
C83 C78 1_555 1_555
C84 C58 1_555 1_555
H75 C84 1_555 1_555
H76 C84 1_555 1_555
C5 C6 1_555 1_555
C11 C12 1_555 1_555
C19 C20 1_555 1_555
C25 C26 1_555 1_555
C33 C34 1_555 1_555
C39 C40 1_555 1_555
C47 C48 1_555 1_555
C53 C54 1_555 1_555
C61 C62 1_555 1_555
C64 C69 1_555 1_555
C68 C69 1_555 1_555
C72 C73 1_555 1_555
C75 C76 1_555 1_555
C78 C79 1_555 1_555
C82 C83 1_555 1_555
C83 C84 1_555 1_555

#END
