
#######################################################################
#
#                 Cambridge Crystallographic Data Centre
#                                CCDC 
#
#######################################################################
#
# If this CIF has been generated from an entry in the Cambridge 
# Structural Database, then it will include bibliographic, chemical, 
# crystal, experimental, refinement or atomic coordinate data resulting 
# from the CCDC's data processing and validation procedures.
#
#######################################################################

data_MALNUL
_chemical_formula_moiety         'C25 H23 B1 F2 N2 O1'
_chemical_name_systematic        
5,5-difluoro-10-mesityl-3-(4-methoxyphenyl)-5H-4\l^5^,5\l^5^-dipyrrolo[1,2-c:2',1'-f][1,3,2]diazaborinine
_symmetry_cell_setting           orthorhombic
_symmetry_space_group_name_H-M   'P n a 21'
_symmetry_Int_Tables_number      33
_space_group_name_Hall           'P 2c -2n'
loop_
_symmetry_equiv_pos_site_id
_symmetry_equiv_pos_as_xyz
1 x,y,z
2 -x,-y,1/2+z
3 1/2+x,1/2-y,z
4 1/2-x,1/2+y,1/2+z
_cell_length_a                   17.9538(17)
_cell_length_b                   8.2467(8)
_cell_length_c                   14.4494(14)
_cell_angle_alpha                90
_cell_angle_beta                 90
_cell_angle_gamma                90
_cell_volume                     2139.37
_exptl_crystal_colour            red
_exptl_crystal_description       block
_cell_formula_units_Z            4
loop_
_atom_site_label
_atom_site_type_symbol
_atom_site_fract_x
_atom_site_fract_y
_atom_site_fract_z
B1 B 0.08903(9) 0.9590(2) 0.12926(12)
C1 C 0.15134(8) 0.68543(18) 0.07314(10)
C2 C 0.17195(9) 0.53696(18) 0.11524(11)
H1 H 0.1930 0.4481 0.0855
C3 C 0.15535(9) 0.54766(18) 0.20710(10)
H2 H 0.1625 0.4670 0.2512
C4 C 0.12555(8) 0.70281(17) 0.22305(10)
C5 C 0.10767(7) 0.77542(17) 0.30655(10)
C6 C 0.08965(7) 0.94147(17) 0.30952(10)
C7 C 0.07951(8) 1.04810(18) 0.38402(11)
H3 H 0.0793 1.0215 0.4466
C8 C 0.06989(9) 1.2001(2) 0.34634(13)
H4 H 0.0628 1.2961 0.3789
C9 C 0.07272(8) 1.18380(18) 0.25113(12)
H5 H 0.0667 1.2682 0.2091
C10 C 0.15944(8) 0.72187(18) -0.02513(10)
C11 C 0.10911(8) 0.8144(2) -0.07519(11)
H6 H 0.0684 0.8594 -0.0448
C12 C 0.11756(9) 0.8416(2) -0.16842(11)
H7 H 0.0828 0.9042 -0.2001
C13 C 0.17775(8) 0.77602(18) -0.21528(10)
C14 C 0.22860(9) 0.6831(2) -0.16679(11)
H8 H 0.2693 0.6388 -0.1974
C15 C 0.21940(8) 0.6559(2) -0.07353(11)
H9 H 0.2539 0.5921 -0.0422
C16 C 0.14020(12) 0.8889(2) -0.35847(13)
H10 H 0.0913 0.8428 -0.3522
H11 H 0.1546 0.8880 -0.4225
H12 H 0.1398 0.9985 -0.3361
C17 C 0.11034(8) 0.67943(17) 0.39392(10)
C18 C 0.04363(9) 0.63157(19) 0.43639(11)
C19 C 0.04761(12) 0.5386(2) 0.51631(12)
H13 H 0.0036 0.5065 0.5449
C20 C 0.11460(13) 0.4922(2) 0.55468(13)
C21 C 0.17938(12) 0.5421(2) 0.51226(13)
H14 H 0.2249 0.5120 0.5378
C22 C 0.17876(9) 0.63586(19) 0.43268(11)
C23 C -0.03133(10) 0.6748(3) 0.39705(15)
H15 H -0.0459 0.7801 0.4189
H16 H -0.0674 0.5960 0.4164
H17 H -0.0285 0.6760 0.3307
C24 C 0.1178(2) 0.3910(3) 0.64199(18)
H18 H 0.0891 0.4426 0.6897
H19 H 0.1686 0.3809 0.6619
H20 H 0.0977 0.2852 0.6298
C25 C 0.25153(10) 0.6915(2) 0.39226(14)
H21 H 0.2886 0.6955 0.4401
H22 H 0.2454 0.7975 0.3659
H23 H 0.2670 0.6170 0.3450
F1 F 0.13193(6) 1.05799(11) 0.07527(7)
F2 F 0.01770(5) 0.94751(13) 0.09411(6)
N1 N 0.12326(6) 0.78578(14) 0.13874(8)
N2 N 0.08546(6) 1.02840(13) 0.22814(9)
O1 O 0.19160(6) 0.79645(14) -0.30637(8)
loop_
_geom_bond_atom_site_label_1
_geom_bond_atom_site_label_2
_geom_bond_site_symmetry_1
_geom_bond_site_symmetry_2
B1 F1 1_555 1_555
C1 C2 1_555 1_555
C2 H1 1_555 1_555
C3 C2 1_555 1_555
H2 C3 1_555 1_555
C4 C3 1_555 1_555
C5 C4 1_555 1_555
C6 C5 1_555 1_555
C7 C6 1_555 1_555
H3 C7 1_555 1_555
C8 C7 1_555 1_555
H4 C8 1_555 1_555
C9 C8 1_555 1_555
H5 C9 1_555 1_555
C10 C1 1_555 1_555
C11 C10 1_555 1_555
H6 C11 1_555 1_555
C12 C11 1_555 1_555
H7 C12 1_555 1_555
C13 C12 1_555 1_555
C14 C13 1_555 1_555
H8 C14 1_555 1_555
C15 C10 1_555 1_555
H9 C15 1_555 1_555
C16 H10 1_555 1_555
H11 C16 1_555 1_555
H12 C16 1_555 1_555
C17 C5 1_555 1_555
C18 C17 1_555 1_555
C19 C18 1_555 1_555
H13 C19 1_555 1_555
C20 C19 1_555 1_555
C21 C20 1_555 1_555
H14 C21 1_555 1_555
C22 C17 1_555 1_555
C23 C18 1_555 1_555
H15 C23 1_555 1_555
H16 C23 1_555 1_555
H17 C23 1_555 1_555
C24 C20 1_555 1_555
H18 C24 1_555 1_555
H19 C24 1_555 1_555
H20 C24 1_555 1_555
C25 C22 1_555 1_555
H21 C25 1_555 1_555
H22 C25 1_555 1_555
H23 C25 1_555 1_555
F2 B1 1_555 1_555
N1 B1 1_555 1_555
N2 B1 1_555 1_555
O1 C13 1_555 1_555
C1 N1 1_555 1_555
C4 N1 1_555 1_555
C6 N2 1_555 1_555
C9 N2 1_555 1_555
C14 C15 1_555 1_555
C16 O1 1_555 1_555
C21 C22 1_555 1_555

#END
