
#######################################################################
#
#                 Cambridge Crystallographic Data Centre
#                                CCDC 
#
#######################################################################
#
# If this CIF has been generated from an entry in the Cambridge 
# Structural Database, then it will include bibliographic, chemical, 
# crystal, experimental, refinement or atomic coordinate data resulting 
# from the CCDC's data processing and validation procedures.
#
#######################################################################

data_MALQAR
_chemical_formula_moiety         
'0.88(C14 H12 Te4 1+),0.12(C14 H12 Te4),0.88(C1 N1 S1 1-)'
_chemical_name_systematic        
"2,3,6,7-Tetramethylnaphtho(1,8-cd:4,5-c'd')bis(1,2)ditellurole thiocyanate"
_symmetry_cell_setting           monoclinic
_symmetry_space_group_name_H-M   'P 21/a'
_symmetry_Int_Tables_number      14
_space_group_name_Hall           '-P 2yab'
loop_
_symmetry_equiv_pos_site_id
_symmetry_equiv_pos_as_xyz
1 x,y,z
2 1/2+x,1/2-y,z
3 -x,-y,-z
4 1/2-x,1/2+y,-z
_cell_length_a                   5.419(3)
_cell_length_b                   17.493(2)
_cell_length_c                   8.941(2)
_cell_angle_alpha                90
_cell_angle_beta                 94.77(3)
_cell_angle_gamma                90
_cell_volume                     844.623
_exptl_crystal_colour            black
_exptl_crystal_description       prismatic
_cell_formula_units_Z            2
loop_
_atom_site_label
_atom_site_type_symbol
_atom_site_fract_x
_atom_site_fract_y
_atom_site_fract_z
S1 S 0.46(1) 0.228(2) -0.091(2)
N1 N 0.21(3) 0.251(3) -0.076(3)
S1A S -0.04(1) 0.272(2) -0.091(2)
N1A N -0.29(3) 0.249(3) -0.076(3)
S1_2 S -0.54(1) 0.228(2) -0.091(2)
N1_2 N -0.79(3) 0.251(3) -0.076(3)
N1A_2 N 0.71(3) 0.249(3) -0.076(3)
Te1 Te 0.2771(1) 0.16403(4) 0.25681(7)
Te2 Te 0.6368(1) 0.08819(4) 0.13556(7)
C1 C -0.009(2) 0.1648(6) 0.554(1)
C2 C 0.169(2) 0.0982(5) 0.5570(10)
C3 C 0.321(2) 0.0873(5) 0.4407(9)
C4 C 0.490(2) 0.0266(5) 0.4370(9)
C5 C 0.647(2) 0.0140(5) 0.3216(10)
C6 C 0.187(2) 0.0476(5) 0.6781(10)
C7 C 0.025(2) 0.0589(5) 0.806(1)
H1 H -0.1023 0.1634 0.6400
H2 H -0.1249 0.1601 0.4642
H3 H 0.0778 0.2116 0.5491
H4 H 0.0626 0.0189 0.8800
H5 H 0.0601 0.1074 0.8526
H6 H -0.1446 0.0557 0.7701
C5B C 0.353(2) -0.0140(5) 0.6784(10)
Te2B Te 0.3632(1) -0.08819(4) 0.86444(7)
Te1B Te 0.7229(1) -0.16403(4) 0.74319(7)
C3B C 0.679(2) -0.0873(5) 0.5593(9)
C2B C 0.831(2) -0.0982(5) 0.4430(10)
C1B C 1.009(2) -0.1648(6) 0.446(1)
H1B H 1.1023 -0.1634 0.3600
H2B H 1.1249 -0.1601 0.5358
H3B H 0.9222 -0.2116 0.4509
C6B C 0.813(2) -0.0476(5) 0.3219(10)
C7B C 0.975(2) -0.0589(5) 0.194(1)
H4B H 0.9374 -0.0189 0.1200
H5B H 0.9399 -0.1074 0.1474
H6B H 1.1446 -0.0557 0.2299
C4B C 0.510(2) -0.0266(5) 0.5630(9)
loop_
_geom_bond_atom_site_label_1
_geom_bond_atom_site_label_2
_geom_bond_site_symmetry_1
_geom_bond_site_symmetry_2
Te1 Te2 1_555 1_555
Te2 C5 1_555 1_555
S1 N1 1_555 1_555
N1 S1A 1_555 1_555
C1 C2 1_555 1_555
C2 C3 1_555 1_555
C3 Te1 1_555 1_555
C4 C3 1_555 1_555
C5 C4 1_555 1_555
C6 C2 1_555 1_555
C7 C6 1_555 1_555
H1 C1 1_555 1_555
H2 C1 1_555 1_555
H3 C1 1_555 1_555
H4 C7 1_555 1_555
H5 C7 1_555 1_555
H6 C7 1_555 1_555
C5B C6 1_555 1_555
Te2B C5B 1_555 1_555
Te1B Te2B 1_555 1_555
C3B Te1B 1_555 1_555
C2B C3B 1_555 1_555
C1B C2B 1_555 1_555
H1B C1B 1_555 1_555
H2B C1B 1_555 1_555
H3B C1B 1_555 1_555
C6B C5 1_555 1_555
C7B C6B 1_555 1_555
H4B C7B 1_555 1_555
H5B C7B 1_555 1_555
H6B C7B 1_555 1_555
C4B C4 1_555 1_555
S1A N1A 1_555 1_555
N1A S1_2 1_555 1_555
S1_2 N1_2 1_555 1_555
N1A_2 S1 1_555 1_555
C5B C4B 1_555 1_555
C3B C4B 1_555 1_555
C2B C6B 1_555 1_555

#END
