
#######################################################################
#
#                 Cambridge Crystallographic Data Centre
#                                CCDC 
#
#######################################################################
#
# If this CIF has been generated from an entry in the Cambridge 
# Structural Database, then it will include bibliographic, chemical, 
# crystal, experimental, refinement or atomic coordinate data resulting 
# from the CCDC's data processing and validation procedures.
#
#######################################################################

data_MALTAU
_chemical_formula_moiety         'C40 H32 O4'
_chemical_name_systematic        
9(1,4)-Benzena-1(6,2),6(2,6)-bis(3-phenylbenzofurana)-7,11-dioxacyclophane
_symmetry_cell_setting           monoclinic
_symmetry_space_group_name_H-M   'C 2/c'
_symmetry_Int_Tables_number      15
_space_group_name_Hall           '-C 2yn'
loop_
_symmetry_equiv_pos_site_id
_symmetry_equiv_pos_as_xyz
1 x,y,z
2 1/2+x,1/2+y,z
3 x,-y,1/2+z
4 1/2+x,1/2-y,1/2+z
5 -x,-y,-z
6 1/2-x,1/2-y,-z
7 -x,y,1/2-z
8 1/2-x,1/2+y,1/2-z
_cell_length_a                   16.945(3)
_cell_length_b                   11.3392(14)
_cell_length_c                   16.529(5)
_cell_angle_alpha                90
_cell_angle_beta                 109.45(2)
_cell_angle_gamma                90
_cell_volume                     2994.68
_exptl_crystal_colour            colorless
_exptl_crystal_description       block
_cell_formula_units_Z            4
_exptl_crystal_recrystallization_method chloroform
loop_
_atom_site_label
_atom_site_type_symbol
_atom_site_fract_x
_atom_site_fract_y
_atom_site_fract_z
O1 O 0.34753(19) 0.5343(3) 0.8652(2)
O2 O 0.37046(18) 0.1416(3) 0.75798(19)
C1 C 0.5013(3) 0.5932(4) 0.8337(3)
H1 H 0.5037 0.5934 0.8908
C2 C 0.4254(3) 0.5934(5) 0.6866(3)
H2 H 0.3743 0.5942 0.6422
C3 C 0.4254(3) 0.5926(4) 0.7688(3)
C4 C 0.3437(3) 0.5926(4) 0.7882(3)
H3 H 0.3268 0.6737 0.7914
H4 H 0.3009 0.5553 0.7408
C5 C 0.3506(3) 0.4131(4) 0.8665(3)
C6 C 0.3569(3) 0.3437(4) 0.7997(3)
H5 H 0.3584 0.3757 0.7484
C7 C 0.3610(2) 0.2238(4) 0.8149(3)
C8 C 0.3582(2) 0.1696(4) 0.8887(3)
C9 C 0.3506(3) 0.2416(4) 0.9537(3)
H6 H 0.3475 0.2091 1.0043
C10 C 0.3477(3) 0.3629(4) 0.9417(3)
H7 H 0.3437 0.4118 0.9854
C11 C 0.3686(2) 0.0443(4) 0.8771(3)
C12 C 0.3707(2) -0.0497(4) 0.9400(3)
C13 C 0.3134(3) -0.0481(4) 0.9840(3)
H8 H 0.2736 0.0117 0.9724
C14 C 0.3142(3) -0.1316(5) 1.0435(3)
H9 H 0.2754 -0.1285 1.0721
C15 C 0.3731(3) -0.2213(5) 1.0611(3)
H10 H 0.3739 -0.2790 1.1013
C16 C 0.4297(3) -0.2242(4) 1.0189(3)
H11 H 0.4695 -0.2840 1.0309
C17 C 0.4291(3) -0.1393(4) 0.9585(3)
H12 H 0.4682 -0.1427 0.9302
C18 C 0.3759(3) 0.0322(4) 0.7980(3)
C19 C 0.3825(3) -0.0687(4) 0.7440(3)
H13 H 0.3321 -0.0716 0.6940
H14 H 0.3847 -0.1409 0.7762
C20 C 0.4588(2) -0.0651(4) 0.7135(3)
H15 H 0.4570 -0.1329 0.6771
H16 H 0.4555 0.0052 0.6791
C2F C 0.5746(3) 0.5934(5) 0.8134(3)
H2F H 0.6257 0.5942 0.8578
C3F C 0.5746(3) 0.5926(4) 0.7312(3)
C1F C 0.4987(3) 0.5932(4) 0.6663(3)
H1F H 0.4963 0.5934 0.6092
C4F C 0.6563(3) 0.5926(4) 0.7118(3)
O1F O 0.65247(19) 0.5343(3) 0.6348(2)
C5F C 0.6494(3) 0.4131(4) 0.6335(3)
C6F C 0.6431(3) 0.3437(4) 0.7003(3)
H5F H 0.6416 0.3757 0.7516
C7F C 0.6390(2) 0.2238(4) 0.6851(3)
O2F O 0.62954(18) 0.1416(3) 0.74202(19)
C18F C 0.6241(3) 0.0322(4) 0.7020(3)
C11F C 0.6314(2) 0.0443(4) 0.6229(3)
C8F C 0.6418(2) 0.1696(4) 0.6113(3)
C9F C 0.6494(3) 0.2416(4) 0.5463(3)
H6F H 0.6525 0.2091 0.4957
C10F C 0.6523(3) 0.3629(4) 0.5583(3)
H7F H 0.6563 0.4118 0.5146
C12F C 0.6293(2) -0.0497(4) 0.5600(3)
C13F C 0.6866(3) -0.0481(4) 0.5160(3)
H8F H 0.7264 0.0117 0.5276
C14F C 0.6858(3) -0.1316(5) 0.4565(3)
H9F H 0.7246 -0.1285 0.4279
C15F C 0.6269(3) -0.2213(5) 0.4389(3)
H10F H 0.6261 -0.2790 0.3987
C16F C 0.5703(3) -0.2242(4) 0.4811(3)
H11F H 0.5305 -0.2840 0.4691
C17F C 0.5709(3) -0.1393(4) 0.5415(3)
H12F H 0.5318 -0.1427 0.5698
C19F C 0.6175(3) -0.0687(4) 0.7560(3)
H13F H 0.6679 -0.0716 0.8060
H14F H 0.6153 -0.1409 0.7238
C20F C 0.5412(2) -0.0651(4) 0.7865(3)
H15F H 0.5430 -0.1329 0.8229
H16F H 0.5445 0.0052 0.8209
H3F H 0.6732 0.6737 0.7086
H4F H 0.6991 0.5553 0.7592
loop_
_geom_bond_atom_site_label_1
_geom_bond_atom_site_label_2
_geom_bond_site_symmetry_1
_geom_bond_site_symmetry_2
O1 C4 1_555 1_555
O2 C7 1_555 1_555
C1 H1 1_555 1_555
C2 H2 1_555 1_555
C3 C1 1_555 1_555
C4 C3 1_555 1_555
H3 C4 1_555 1_555
H4 C4 1_555 1_555
C5 O1 1_555 1_555
C6 C5 1_555 1_555
H5 C6 1_555 1_555
C7 C6 1_555 1_555
C8 C7 1_555 1_555
C9 C8 1_555 1_555
H6 C9 1_555 1_555
C10 C5 1_555 1_555
H7 C10 1_555 1_555
C11 C8 1_555 1_555
C12 C11 1_555 1_555
C13 C12 1_555 1_555
H8 C13 1_555 1_555
C14 C13 1_555 1_555
H9 C14 1_555 1_555
C15 C14 1_555 1_555
H10 C15 1_555 1_555
C16 C15 1_555 1_555
H11 C16 1_555 1_555
C17 C12 1_555 1_555
H12 C17 1_555 1_555
C18 O2 1_555 1_555
C19 C18 1_555 1_555
H13 C19 1_555 1_555
H14 C19 1_555 1_555
C20 C19 1_555 1_555
H15 C20 1_555 1_555
H16 C20 1_555 1_555
C2F C1 1_555 1_555
H2F C2F 1_555 1_555
C3F C2F 1_555 1_555
C1F C2 1_555 1_555
H1F C1F 1_555 1_555
C4F C3F 1_555 1_555
O1F C4F 1_555 1_555
C5F O1F 1_555 1_555
C6F C5F 1_555 1_555
H5F C6F 1_555 1_555
C7F C6F 1_555 1_555
O2F C7F 1_555 1_555
C18F O2F 1_555 1_555
C11F C18F 1_555 1_555
C8F C7F 1_555 1_555
C9F C8F 1_555 1_555
H6F C9F 1_555 1_555
C10F C5F 1_555 1_555
H7F C10F 1_555 1_555
C12F C11F 1_555 1_555
C13F C12F 1_555 1_555
H8F C13F 1_555 1_555
C14F C13F 1_555 1_555
H9F C14F 1_555 1_555
C15F C14F 1_555 1_555
H10F C15F 1_555 1_555
C16F C15F 1_555 1_555
H11F C16F 1_555 1_555
C17F C12F 1_555 1_555
H12F C17F 1_555 1_555
C19F C18F 1_555 1_555
H13F C19F 1_555 1_555
H14F C19F 1_555 1_555
C20F C20 1_555 1_555
H15F C20F 1_555 1_555
H16F C20F 1_555 1_555
H3F C4F 1_555 1_555
H4F C4F 1_555 1_555
C2 C3 1_555 1_555
C9 C10 1_555 1_555
C11 C18 1_555 1_555
C16 C17 1_555 1_555
C3F C1F 1_555 1_555
C11F C8F 1_555 1_555
C9F C10F 1_555 1_555
C16F C17F 1_555 1_555
C19F C20F 1_555 1_555

#END
