
#######################################################################
#
#                 Cambridge Crystallographic Data Centre
#                                CCDC 
#
#######################################################################
#
# If this CIF has been generated from an entry in the Cambridge 
# Structural Database, then it will include bibliographic, chemical, 
# crystal, experimental, refinement or atomic coordinate data resulting 
# from the CCDC's data processing and validation procedures.
#
#######################################################################

data_MALVON
_chemical_formula_moiety         '1.16(C12 H3 F9 N6)'
_chemical_name_systematic        
2,5,8-tris(Trifluoromethyl)-4,7-dihydro-1H-di-imidazo[4,5-e:4',5'-g]benzimidazole
_symmetry_cell_setting           cubic
_symmetry_space_group_name_H-M   'P 41 3 2'
_symmetry_Int_Tables_number      213
_space_group_name_Hall           'P 4bd 2ab 3'
loop_
_symmetry_equiv_pos_site_id
_symmetry_equiv_pos_as_xyz
1 x,y,z
2 1/4-y,3/4+x,1/4+z
3 1/2-x,-y,1/2+z
4 1/4+y,1/4-x,3/4+z
5 1/4+x,1/4-z,3/4+y
6 1/2+x,1/2-y,-z
7 3/4+x,1/4+z,1/4-y
8 3/4+z,1/4+y,1/4-x
9 -x,1/2+y,1/2-z
10 1/4-z,3/4+y,1/4+x
11 z,x,y
12 y,z,x
13 1/2-y,-z,1/2+x
14 1/2+z,1/2-x,-y
15 -y,1/2+z,1/2-x
16 1/2-z,-x,1/2+y
17 -z,1/2+x,1/2-y
18 1/2+y,1/2-z,-x
19 3/4+y,1/4+x,1/4-z
20 3/4-y,3/4-x,3/4-z
21 1/4-x,3/4+z,1/4+y
22 3/4-x,3/4-z,3/4-y
23 1/4+z,1/4-y,3/4+x
24 3/4-z,3/4-y,3/4-x
_cell_length_a                   15.8427(15)
_cell_length_b                   15.8427(15)
_cell_length_c                   15.8427(15)
_cell_angle_alpha                90
_cell_angle_beta                 90
_cell_angle_gamma                90
_cell_volume                     3976.38
_exptl_crystal_colour            colorless
_exptl_crystal_description       block
_cell_formula_units_Z            8
loop_
_atom_site_label
_atom_site_type_symbol
_atom_site_fract_x
_atom_site_fract_y
_atom_site_fract_z
N1 N 0.6230(3) 0.1217(3) -0.0056(3)
H1 H 0.668(4) 0.130(4) -0.036(4)
N2 N 0.5301(3) 0.1414(3) 0.0999(3)
F1 F 0.7094(10) 0.2159(8) 0.1485(14)
F2 F 0.6898(14) 0.2792(12) 0.0347(10)
F3 F 0.5981(12) 0.2950(12) 0.1318(14)
C1 C 0.6498(5) 0.2422(5) 0.0913(6)
C2 C 0.5997(4) 0.1681(4) 0.0627(4)
C3 C 0.5631(4) 0.0590(3) -0.0135(3)
C4 C 0.5075(3) 0.0716(3) 0.0526(4)
N1L N 0.3783(3) 0.0056(3) 0.1230(3)
H1L H 0.370(4) 0.036(4) 0.168(4)
N2L N 0.3586(3) -0.0999(3) 0.0301(3)
F1L F 0.2841(8) -0.1485(14) 0.2094(10)
F2L F 0.2208(12) -0.0347(10) 0.1898(14)
F3L F 0.2050(12) -0.1318(14) 0.0981(12)
C1L C 0.2578(5) -0.0913(6) 0.1498(5)
C2L C 0.3319(4) -0.0627(4) 0.0997(4)
C3L C 0.4410(3) 0.0135(3) 0.0631(4)
C4L C 0.4284(3) -0.0526(4) 0.0075(3)
N1M N 0.4944(3) -0.1230(3) -0.1217(3)
H1M H 0.464(4) -0.168(4) -0.130(4)
N2M N 0.5999(3) -0.0301(3) -0.1414(3)
F1M F 0.6485(14) -0.2094(10) -0.2159(8)
F2M F 0.5347(10) -0.1898(14) -0.2792(12)
F3M F 0.6318(14) -0.0981(12) -0.2950(12)
C1M C 0.5913(6) -0.1498(5) -0.2422(5)
C2M C 0.5627(4) -0.0997(4) -0.1681(4)
C3M C 0.4865(3) -0.0631(4) -0.0590(3)
C4M C 0.5526(4) -0.0075(3) -0.0716(3)
F4? F 0.6174(18) 0.2804(19) 0.1562(15)
F5? F 0.6482(19) 0.3006(14) 0.0228(16)
F6? F 0.7274(11) 0.2281(13) 0.097(2)
H2? H 0.7297 0.0427 0.2027
F7? F 0.586(3) 0.145(3) 0.286(3)
N3? N 0.6845(15) 0.0110(15) 0.2083(15)
C5? C 0.6599(11) -0.0544(11) 0.1597(11)
C6? C 0.6250 0.0163(12) 0.2663(12)
C7? C 0.6250 0.0812(17) 0.3312(17)
F8? F 0.6664(11) 0.1664(11) 0.3336(11)
loop_
_geom_bond_atom_site_label_1
_geom_bond_atom_site_label_2
_geom_bond_site_symmetry_1
_geom_bond_site_symmetry_2
N1 H1 1_555 1_555
N2 C2 1_555 1_555
F1 C1 1_555 1_555
F2 C1 1_555 1_555
F3 C1 1_555 1_555
C1 C2 1_555 1_555
C2 N1 1_555 1_555
C3 N1 1_555 1_555
C4 N2 1_555 1_555
N1L H1L 1_555 1_555
N2L C2L 1_555 1_555
F1L C1L 1_555 1_555
F2L C1L 1_555 1_555
F3L C1L 1_555 1_555
C1L C2L 1_555 1_555
C2L N1L 1_555 1_555
C3L C4 1_555 1_555
C4L N2L 1_555 1_555
N1M H1M 1_555 1_555
N2M C2M 1_555 1_555
F1M C1M 1_555 1_555
F2M C1M 1_555 1_555
F3M C1M 1_555 1_555
C1M C2M 1_555 1_555
C2M N1M 1_555 1_555
C3M C4L 1_555 1_555
C4M C3 1_555 1_555
C3 C4 1_555 1_555
N1L C3L 1_555 1_555
C3L C4L 1_555 1_555
N1M C3M 1_555 1_555
N2M C4M 1_555 1_555
C3M C4M 1_555 1_555

#END
