
#######################################################################
#
#                 Cambridge Crystallographic Data Centre
#                                CCDC 
#
#######################################################################
#
# If this CIF has been generated from an entry in the Cambridge 
# Structural Database, then it will include bibliographic, chemical, 
# crystal, experimental, refinement or atomic coordinate data resulting 
# from the CCDC's data processing and validation procedures.
#
#######################################################################

data_MALVED
_chemical_formula_moiety         'C9 H6 N6,0.1(H2 O1)'
_chemical_name_systematic        
"4,9-Dihydro-1H-di-imidazo[4,5-e:4',5'-g]benzimidazole hydrate"
_symmetry_cell_setting           rhombohedral
_symmetry_space_group_name_H-M   'R -3 m'
_symmetry_Int_Tables_number      166
_space_group_name_Hall           '-R 3 2"'
loop_
_symmetry_equiv_pos_site_id
_symmetry_equiv_pos_as_xyz
1 x,y,z
2 -y,x-y,z
3 -x+y,-x,z
4 y,x,-z
5 x-y,-y,-z
6 -x,-x+y,-z
7 2/3+x,1/3+y,1/3+z
8 2/3-y,1/3+x-y,1/3+z
9 2/3-x+y,1/3-x,1/3+z
10 2/3+y,1/3+x,1/3-z
11 2/3+x-y,1/3-y,1/3-z
12 2/3-x,1/3-x+y,1/3-z
13 1/3+x,2/3+y,2/3+z
14 1/3-y,2/3+x-y,2/3+z
15 1/3-x+y,2/3-x,2/3+z
16 1/3+y,2/3+x,2/3-z
17 1/3+x-y,2/3-y,2/3-z
18 1/3-x,2/3-x+y,2/3-z
19 -x,-y,-z
20 y,-x+y,-z
21 x-y,x,-z
22 -y,-x,z
23 -x+y,y,z
24 x,x-y,z
25 1/3-x,2/3-y,2/3-z
26 1/3+y,2/3-x+y,2/3-z
27 1/3+x-y,2/3+x,2/3-z
28 1/3-y,2/3-x,2/3+z
29 1/3-x+y,2/3+y,2/3+z
30 1/3+x,2/3+x-y,2/3+z
31 2/3-x,1/3-y,1/3-z
32 2/3+y,1/3-x+y,1/3-z
33 2/3+x-y,1/3+x,1/3-z
34 2/3-y,1/3-x,1/3+z
35 2/3-x+y,1/3+y,1/3+z
36 2/3+x,1/3+x-y,1/3+z
_cell_length_a                   12.657(4)
_cell_length_b                   12.657(4)
_cell_length_c                   9.296(3)
_cell_angle_alpha                90
_cell_angle_beta                 90
_cell_angle_gamma                120
_cell_volume                     1289.7
_exptl_crystal_colour            'light yellow'
_exptl_crystal_description       block
_cell_formula_units_Z            6
loop_
_atom_site_label
_atom_site_type_symbol
_atom_site_fract_x
_atom_site_fract_y
_atom_site_fract_z
N1 N 0.7955(2) 0.02736(19) 0.8242(3)
C1 C 0.85107(16) 0.14893(16) 0.8306(4)
H1 H 0.8079 0.1921 0.8389
C2 C 0.88884(19) 0.00067(19) 0.8139(2)
N1U N 0.97264(19) 0.2045(2) 0.8242(3)
C2U C 0.99933(19) 0.11116(19) 0.8139(2)
N1W N 0.7955(2) -0.23186(28) 0.8242(3)
C1A C 0.85107(16) -0.29786(23) 0.8306(4)
H1A H 0.8079 -0.3842 0.8389
C2W C 0.88884(19) -0.11183(27) 0.8139(2)
N1A N 0.97264(19) -0.23186(28) 0.8242(3)
C2A C 0.99933(19) -0.11183(27) 0.8139(2)
N1B N 1.23186(28) 0.2045(2) 0.8242(3)
C1B C 1.29786(23) 0.14893(16) 0.8306(4)
H1B H 1.3842 0.1921 0.8389
C2B C 1.11183(27) 0.11116(19) 0.8139(2)
N1V N 1.23186(28) 0.02736(19) 0.8242(3)
C2V C 1.11183(27) 0.00067(19) 0.8139(2)
O1 O 0.6667 0.3333 0.8333
H2? H 0.711(4) -0.020(5) 0.821(6)
H3? H 0.6216 0.3784 0.8443
loop_
_geom_bond_atom_site_label_1
_geom_bond_atom_site_label_2
_geom_bond_site_symmetry_1
_geom_bond_site_symmetry_2
N1 C1 1_555 1_555
C1 H1 1_555 1_555
C2 N1 1_555 1_555
N1U C1 1_555 1_555
C2U C2 1_555 1_555
N1W C1A 1_555 1_555
C1A H1A 1_555 1_555
C2W C2 1_555 1_555
N1A C1A 1_555 1_555
C2A C2W 1_555 1_555
N1B C1B 1_555 1_555
C1B H1B 1_555 1_555
C2B C2U 1_555 1_555
N1V C1B 1_555 1_555
C2V C2A 1_555 1_555
N1U C2U 1_555 1_555
N1W C2W 1_555 1_555
N1A C2A 1_555 1_555
N1B C2B 1_555 1_555
C2B C2V 1_555 1_555
N1V C2V 1_555 1_555

#END
