
#######################################################################
#
#                 Cambridge Crystallographic Data Centre
#                                CCDC 
#
#######################################################################
#
# If this CIF has been generated from an entry in the Cambridge 
# Structural Database, then it will include bibliographic, chemical, 
# crystal, experimental, refinement or atomic coordinate data resulting 
# from the CCDC's data processing and validation procedures.
#
#######################################################################

data_MALVIH
_chemical_formula_moiety         'C12 H3 F9 N6,7(H2 O1)'
_chemical_name_systematic        
"2,5,8-tris(Trifluoromethyl)-4,9-dihydro-1H-di-imidazo[4,5-e:4',5'-g]benzimidazole heptahydrate"
_symmetry_cell_setting           orthorhombic
_symmetry_space_group_name_H-M   'P b c n'
_symmetry_Int_Tables_number      60
_space_group_name_Hall           '-P 2n 2ab'
loop_
_symmetry_equiv_pos_site_id
_symmetry_equiv_pos_as_xyz
1 x,y,z
2 1/2-x,1/2-y,1/2+z
3 -x,y,1/2-z
4 1/2+x,1/2-y,-z
5 -x,-y,-z
6 1/2+x,1/2+y,1/2-z
7 x,-y,1/2+z
8 1/2-x,1/2+y,z
_cell_length_a                   12.335(4)
_cell_length_b                   21.047(8)
_cell_length_c                   7.890(3)
_cell_angle_alpha                90
_cell_angle_beta                 90
_cell_angle_gamma                90
_cell_volume                     2048.36
_exptl_crystal_colour            colorless
_exptl_crystal_description       needle-like
_cell_formula_units_Z            4
loop_
_atom_site_label
_atom_site_type_symbol
_atom_site_fract_x
_atom_site_fract_y
_atom_site_fract_z
O1 O 0.3803(2) 0.73572(10) 0.7387(3)
H4 H 0.390(5) 0.702(4) 0.681(9)
H5 H 0.359(6) 0.763(4) 0.657(10)
O2 O 0.12928(17) 0.43824(11) 0.4860(3)
H6 H 0.191(6) 0.456(3) 0.522(8)
H7 H 0.145(5) 0.398(4) 0.480(8)
O3 O 0.24015(19) 0.32125(10) 0.5176(3)
H8 H 0.297(6) 0.336(3) 0.576(8)
H9 H 0.199(6) 0.352(4) 0.492(8)
O1B O 0.6197(2) 0.73572(10) 0.7613(3)
H4B H 0.610(5) 0.702(4) 0.819(9)
H5B H 0.641(6) 0.763(4) 0.843(10)
O2B O 0.87072(17) 0.43824(11) 1.0140(3)
H6B H 0.809(6) 0.456(3) 0.978(8)
H7B H 0.855(5) 0.398(4) 1.020(8)
O3B O 0.75985(19) 0.32125(10) 0.9824(3)
H8B H 0.703(6) 0.336(3) 0.924(8)
H9B H 0.801(6) 0.352(4) 1.008(8)
O4 O 0.0000 0.50354(16) 0.2500
H10 H -0.037(5) 0.531(3) 0.317(8)
H10B H 0.037(5) 0.531(3) 0.183(8)
N1 N 0.38461(14) 0.60572(9) 0.6503(2)
H1 H 0.390(4) 0.643(3) 0.677(7)
N2 N 0.30460(15) 0.51362(9) 0.5825(2)
H2 H 0.258(5) 0.490(3) 0.552(7)
N3 N 0.42029(15) 0.37895(8) 0.6813(2)
H3 H 0.373(5) 0.364(3) 0.636(7)
C1 C 0.20819(18) 0.61271(11) 0.5021(3)
C2 C 0.30026(17) 0.57721(10) 0.5788(3)
C3 C 0.44982(16) 0.55697(9) 0.7072(3)
C4 C 0.39996(16) 0.49957(9) 0.6644(3)
C5 C 0.45031(16) 0.44127(9) 0.7075(3)
C6 C 0.5000 0.27369(15) 0.7500
C7 C 0.5000 0.34477(14) 0.7500
F1 F 0.1258(15) 0.6169(12) 0.605(3)
F2 F 0.1703(19) 0.5863(7) 0.368(3)
F3 F 0.2363(10) 0.6712(5) 0.4667(14)
F4 F 0.5640(7) 0.24965(19) 0.6505(10)
F5 F 0.5229(6) 0.25164(16) 0.9032(6)
F6 F 0.4016(3) 0.25078(17) 0.7253(10)
N1B N 0.61539(14) 0.60572(9) 0.8497(2)
H1B H 0.610(4) 0.643(3) 0.823(7)
N2B N 0.69540(15) 0.51362(9) 0.9175(2)
H2B H 0.742(5) 0.490(3) 0.948(7)
N3B N 0.57971(15) 0.37895(8) 0.8187(2)
H3B H 0.627(5) 0.364(3) 0.864(7)
C1B C 0.79181(18) 0.61271(11) 0.9979(3)
C2B C 0.69974(17) 0.57721(10) 0.9212(3)
C3B C 0.55018(16) 0.55697(9) 0.7928(3)
C4B C 0.60004(16) 0.49957(9) 0.8356(3)
C5B C 0.54969(16) 0.44127(9) 0.7925(3)
F1B F 0.8742(15) 0.6169(12) 0.895(3)
F2B F 0.8297(19) 0.5863(7) 1.132(3)
F3B F 0.7637(10) 0.6712(5) 1.0333(14)
F4B F 0.4360(7) 0.24965(19) 0.8495(10)
F5B F 0.4771(6) 0.25164(16) 0.5968(6)
F6B F 0.5984(3) 0.25078(17) 0.7747(10)
F7? F 0.1169(15) 0.6041(14) 0.585(3)
F8? F 0.1907(10) 0.5927(7) 0.3420(13)
F9? F 0.2277(14) 0.6737(5) 0.494(3)
H11? H 0.446(6) 0.744(3) 0.713(9)
H12? H 0.327(6) 0.735(3) 0.810(10)
H13? H 0.093(5) 0.453(3) 0.391(9)
H14? H 0.092(6) 0.444(3) 0.556(10)
H15? H 0.272(5) 0.299(3) 0.428(9)
H16? H 0.204(6) 0.297(3) 0.574(9)
H17? H 0.040(6) 0.483(3) 0.299(9)
loop_
_geom_bond_atom_site_label_1
_geom_bond_atom_site_label_2
_geom_bond_site_symmetry_1
_geom_bond_site_symmetry_2
N1 H1 1_555 1_555
N2 H2 1_555 1_555
N3 H3 1_555 1_555
C1 C2 1_555 1_555
C2 N1 1_555 1_555
C3 N1 1_555 1_555
C4 N2 1_555 1_555
C5 N3 1_555 1_555
C6 C7 1_555 1_555
C7 N3 1_555 1_555
F1 C1 1_555 1_555
F2 C1 1_555 1_555
F3 C1 1_555 1_555
F4 C6 1_555 1_555
F5 C6 1_555 1_555
F6 C6 1_555 1_555
O1 H4 1_555 1_555
H5 O1 1_555 1_555
O2 H6 1_555 1_555
H7 O2 1_555 1_555
O3 H8 1_555 1_555
H9 O3 1_555 1_555
O4 H10 1_555 1_555
N1B H1B 1_555 1_555
N2B H2B 1_555 1_555
N3B C7 1_555 1_555
H3B N3B 1_555 1_555
C1B C2B 1_555 1_555
C2B N1B 1_555 1_555
C3B C3 1_555 1_555
C4B N2B 1_555 1_555
C5B C5 1_555 1_555
F1B C1B 1_555 1_555
F2B C1B 1_555 1_555
F3B C1B 1_555 1_555
F4B C6 1_555 1_555
F5B C6 1_555 1_555
F6B C6 1_555 1_555
O1B H4B 1_555 1_555
H5B O1B 1_555 1_555
O2B H6B 1_555 1_555
H7B O2B 1_555 1_555
O3B H8B 1_555 1_555
H9B O3B 1_555 1_555
H10B O4 1_555 1_555
N2 C2 1_555 1_555
C3 C4 1_555 1_555
C4 C5 1_555 1_555
F4 F5B 1_555 1_555
F4 F6B 1_555 1_555
F5 F4B 1_555 1_555
F5 F6B 1_555 1_555
F6 F4B 1_555 1_555
F6 F5B 1_555 1_555
N1B C3B 1_555 1_555
N2B C2B 1_555 1_555
N3B C5B 1_555 1_555
C3B C4B 1_555 1_555
C4B C5B 1_555 1_555

#END
