
#######################################################################
#
#                 Cambridge Crystallographic Data Centre
#                                CCDC 
#
#######################################################################
#
# If this CIF has been generated from an entry in the Cambridge 
# Structural Database, then it will include bibliographic, chemical, 
# crystal, experimental, refinement or atomic coordinate data resulting 
# from the CCDC's data processing and validation procedures.
#
#######################################################################

data_MALZOR
_chemical_formula_moiety         'C21 H16 O2 S1'
_chemical_name_systematic        
(S)-1-((4-Hydroxyphenyl)(thiophen-3-yl)methyl)naphthalen-2-ol
_symmetry_cell_setting           orthorhombic
_symmetry_space_group_name_H-M   'P 21 21 21'
_symmetry_Int_Tables_number      19
_space_group_name_Hall           'P 2ac 2ab'
loop_
_symmetry_equiv_pos_site_id
_symmetry_equiv_pos_as_xyz
1 x,y,z
2 1/2-x,-y,1/2+z
3 1/2+x,1/2-y,-z
4 -x,1/2+y,1/2-z
_cell_length_a                   10.2816(3)
_cell_length_b                   10.4360(3)
_cell_length_c                   15.0467(5)
_cell_angle_alpha                90
_cell_angle_beta                 90
_cell_angle_gamma                90
_cell_volume                     1614.49
_exptl_crystal_colour            red
_exptl_crystal_description       needle
_cell_formula_units_Z            4
_exptl_crystal_recrystallization_method 'hexane/ethyl acetate'
loop_
_atom_site_label
_atom_site_type_symbol
_atom_site_fract_x
_atom_site_fract_y
_atom_site_fract_z
S1 S 0.10474(13) 0.80350(14) 0.25416(10)
O1 O 0.2477(3) 0.3337(3) 0.3352(2)
H1 H 0.2940 0.3762 0.3705
O2 O 0.5850(18) 0.367(2) 0.6236(10)
H2 H 0.6377 0.3059 0.6174
C1 C 0.1853(4) 0.6570(5) 0.2393(3)
H3 H 0.1556 0.5863 0.2052
C2 C 0.3042(4) 0.6640(4) 0.2883(3)
C3 C 0.3211(4) 0.7834(4) 0.3323(3)
H4 H 0.3952 0.8022 0.3677
C4 C 0.2225(5) 0.8685(4) 0.3197(3)
H5 H 0.2198 0.9524 0.3440
C5 C 0.4062(4) 0.5590(4) 0.2852(3)
H6 H 0.4846 0.5996 0.2577
C6 C 0.3687(4) 0.4508(4) 0.2228(3)
C7 C 0.2962(4) 0.3466(4) 0.2496(3)
C8 C 0.2658(5) 0.2434(4) 0.1930(3)
H7 H 0.2165 0.1731 0.2147
C9 C 0.3071(4) 0.2444(4) 0.1074(3)
H8 H 0.2880 0.1738 0.0696
C10 C 0.3789(4) 0.3502(4) 0.0737(3)
C11 C 0.4264(5) 0.3512(5) -0.0153(3)
H9 H 0.4104 0.2797 -0.0528
C12 C 0.4944(5) 0.4531(5) -0.0472(3)
H10 H 0.5255 0.4524 -0.1067
C13 C 0.5189(5) 0.5595(5) 0.0078(3)
H11 H 0.5639 0.6316 -0.0155
C14 C 0.4785(4) 0.5600(4) 0.0942(3)
H12 H 0.4976 0.6322 0.1305
C15 C 0.4082(4) 0.4548(4) 0.1316(3)
C16 C 0.4521(4) 0.5100(4) 0.3765(3)
C17 C 0.3938(15) 0.5451(16) 0.4574(7)
H13 H 0.3227 0.6031 0.4598
C18 C 0.4469(10) 0.4892(6) 0.5351(7)
H14 H 0.4040 0.5082 0.5894
C19 C 0.5496(9) 0.4135(11) 0.5403(8)
C20 C 0.6056(19) 0.375(2) 0.4613(10)
H15 H 0.6751 0.3147 0.4616
C21 C 0.560(2) 0.424(2) 0.3820(13)
H16 H 0.6021 0.3993 0.3285
O3? O 0.561(5) 0.366(5) 0.618(2)
C22? C 0.410(4) 0.558(4) 0.4563(15)
H17? H 0.3481 0.6251 0.4516
C23? C 0.442(3) 0.525(2) 0.5418(19)
H18? H 0.4174 0.5680 0.5947
C24? C 0.515(3) 0.418(3) 0.536(2)
C25? C 0.585(5) 0.382(6) 0.460(2)
H19? H 0.6611 0.3318 0.4677
C26? C 0.548(5) 0.417(6) 0.377(3)
H20? H 0.5849 0.3811 0.3244
loop_
_geom_bond_atom_site_label_1
_geom_bond_atom_site_label_2
_geom_bond_site_symmetry_1
_geom_bond_site_symmetry_2
S1 C1 1_555 1_555
O1 H1 1_555 1_555
O2 H2 1_555 1_555
C1 H3 1_555 1_555
C2 C1 1_555 1_555
C3 C2 1_555 1_555
H4 C3 1_555 1_555
C4 S1 1_555 1_555
H5 C4 1_555 1_555
C5 C2 1_555 1_555
H6 C5 1_555 1_555
C6 C5 1_555 1_555
C7 O1 1_555 1_555
C8 C7 1_555 1_555
H7 C8 1_555 1_555
C9 C8 1_555 1_555
H8 C9 1_555 1_555
C10 C9 1_555 1_555
C11 C10 1_555 1_555
H9 C11 1_555 1_555
C12 C11 1_555 1_555
H10 C12 1_555 1_555
C13 C12 1_555 1_555
H11 C13 1_555 1_555
C14 C13 1_555 1_555
H12 C14 1_555 1_555
C15 C6 1_555 1_555
C16 C5 1_555 1_555
C17 C16 1_555 1_555
H13 C17 1_555 1_555
C18 C17 1_555 1_555
H14 C18 1_555 1_555
C19 O2 1_555 1_555
C20 C19 1_555 1_555
H15 C20 1_555 1_555
C21 C16 1_555 1_555
H16 C21 1_555 1_555
C3 C4 1_555 1_555
C6 C7 1_555 1_555
C10 C15 1_555 1_555
C14 C15 1_555 1_555
C18 C19 1_555 1_555
C20 C21 1_555 1_555

#END
