
#######################################################################
#
#                 Cambridge Crystallographic Data Centre
#                                CCDC 
#
#######################################################################
#
# If this CIF has been generated from an entry in the Cambridge 
# Structural Database, then it will include bibliographic, chemical, 
# crystal, experimental, refinement or atomic coordinate data resulting 
# from the CCDC's data processing and validation procedures.
#
#######################################################################

data_MAMGOX
_chemical_formula_moiety         'C22 H20 Cl1 N1 O4'
_chemical_name_systematic        
'Methyl 3-amino-1-(2-chlorophenyl)-9-methoxy-5,6-dihydro-1H-naphtho(2,1-b)pyran-2-carboxylate'
_symmetry_cell_setting           monoclinic
_symmetry_space_group_name_H-M   'P 21/c'
_symmetry_Int_Tables_number      14
_space_group_name_Hall           '-P 2ybc'
loop_
_symmetry_equiv_pos_site_id
_symmetry_equiv_pos_as_xyz
1 x,y,z
2 -x,1/2+y,1/2-z
3 -x,-y,-z
4 x,1/2-y,1/2+z
_cell_length_a                   8.0430(10)
_cell_length_b                   11.8770(10)
_cell_length_c                   20.233(3)
_cell_angle_alpha                90
_cell_angle_beta                 99.400(10)
_cell_angle_gamma                90
_cell_volume                     1906.84
_exptl_crystal_colour            yellow
_exptl_crystal_description       block
_chemical_melting_point          '448-449 K'
_cell_formula_units_Z            4
_exptl_crystal_recrystallization_method ethanol
loop_
_atom_site_label
_atom_site_type_symbol
_atom_site_fract_x
_atom_site_fract_y
_atom_site_fract_z
Cl1 Cl 0.22062(10) 0.34114(6) 0.70333(3)
O1 O 0.2507(2) 0.02551(11) 0.46781(7)
O2 O 0.1242(2) 0.08507(13) 0.68342(7)
O3 O 0.1298(2) -0.09363(13) 0.64895(8)
O4 O 0.1863(2) 0.62504(11) 0.54584(8)
N1 N 0.1935(3) -0.12471(14) 0.52408(10)
H1 H 0.1688 -0.1606 0.5581
H2 H 0.2068 -0.1608 0.4885
C1 C 0.2663(3) 0.14112(16) 0.45930(10)
C2 C 0.2937(3) 0.16725(18) 0.38959(10)
H3 H 0.1861 0.1787 0.3609
H4 H 0.3505 0.1048 0.3719
C3 C 0.4004(3) 0.27304(18) 0.39080(11)
H5 H 0.5161 0.2554 0.4098
H6 H 0.3988 0.2993 0.3453
C4 C 0.3369(3) 0.36473(17) 0.43117(10)
C5 C 0.3487(3) 0.47782(19) 0.41459(11)
H7 H 0.3928 0.4969 0.3764
C6 C 0.2971(3) 0.56210(18) 0.45313(11)
H8 H 0.3056 0.6371 0.4408
C7 C 0.2324(3) 0.53481(17) 0.51027(10)
C8 C 0.2191(2) 0.42303(16) 0.52829(10)
H9 H 0.1757 0.4051 0.5669
C9 C 0.2702(2) 0.33724(16) 0.48902(9)
C10 C 0.2562(2) 0.21692(16) 0.50676(10)
C11 C 0.2338(3) 0.18198(15) 0.57682(9)
H10 H 0.1391 0.2241 0.5895
C12 C 0.1947(3) 0.05623(16) 0.57874(10)
C13 C 0.2115(3) -0.01199(17) 0.52662(11)
C14 C 0.3928(3) 0.20966(16) 0.62655(9)
C15 C 0.5444(3) 0.16100(18) 0.61594(10)
H11 H 0.5438 0.1139 0.5792
C16 C 0.6949(3) 0.1801(2) 0.65790(12)
H12 H 0.7933 0.1458 0.6496
C17 C 0.6984(4) 0.2503(2) 0.71198(13)
H13 H 0.7999 0.2649 0.7399
C18 C 0.5530(4) 0.2988(2) 0.72493(12)
H14 H 0.5551 0.3453 0.7620
C19 C 0.4018(3) 0.27822(18) 0.68254(11)
C20 C 0.1486(3) 0.00719(18) 0.63807(11)
C21 C 0.0843(3) 0.0464(2) 0.74622(12)
H15 H -0.0243 0.0108 0.7389
H16 H 0.0825 0.1093 0.7759
H17 H 0.1680 -0.0067 0.7659
C22 C 0.1371(3) 0.60378(18) 0.60866(12)
H18 H 0.0387 0.5568 0.6025
H19 H 0.1121 0.6737 0.6287
H20 H 0.2270 0.5664 0.6374
loop_
_geom_bond_atom_site_label_1
_geom_bond_atom_site_label_2
_geom_bond_site_symmetry_1
_geom_bond_site_symmetry_2
Cl1 C19 1_555 1_555
O1 C1 1_555 1_555
O2 C20 1_555 1_555
O3 C20 1_555 1_555
O4 C7 1_555 1_555
N1 H1 1_555 1_555
H2 N1 1_555 1_555
C1 C2 1_555 1_555
C2 H3 1_555 1_555
H4 C2 1_555 1_555
C3 C2 1_555 1_555
H5 C3 1_555 1_555
H6 C3 1_555 1_555
C4 C3 1_555 1_555
C5 C4 1_555 1_555
H7 C5 1_555 1_555
C6 C5 1_555 1_555
H8 C6 1_555 1_555
C7 C6 1_555 1_555
C8 C7 1_555 1_555
H9 C8 1_555 1_555
C9 C4 1_555 1_555
C10 C1 1_555 1_555
C11 C10 1_555 1_555
H10 C11 1_555 1_555
C12 C11 1_555 1_555
C13 O1 1_555 1_555
C14 C11 1_555 1_555
C15 C14 1_555 1_555
H11 C15 1_555 1_555
C16 C15 1_555 1_555
H12 C16 1_555 1_555
C17 C16 1_555 1_555
H13 C17 1_555 1_555
C18 C17 1_555 1_555
H14 C18 1_555 1_555
C19 C14 1_555 1_555
C20 C12 1_555 1_555
C21 O2 1_555 1_555
H15 C21 1_555 1_555
H16 C21 1_555 1_555
H17 C21 1_555 1_555
C22 O4 1_555 1_555
H18 C22 1_555 1_555
H19 C22 1_555 1_555
H20 C22 1_555 1_555
N1 C13 1_555 1_555
C8 C9 1_555 1_555
C9 C10 1_555 1_555
C12 C13 1_555 1_555
C18 C19 1_555 1_555

#END
