
#######################################################################
#
#                 Cambridge Crystallographic Data Centre
#                                CCDC 
#
#######################################################################
#
# If this CIF has been generated from an entry in the Cambridge 
# Structural Database, then it will include bibliographic, chemical, 
# crystal, experimental, refinement or atomic coordinate data resulting 
# from the CCDC's data processing and validation procedures.
#
#######################################################################

data_MAMGAI
_chemical_formula_moiety         'C9 H9 F1 N2 O3'
_chemical_name_systematic        
1-(N-(2-Fluoroethyl)aminocarbonyl)-4-nitrobenzene
_symmetry_cell_setting           orthorhombic
_symmetry_space_group_name_H-M   'P n a 21'
_symmetry_Int_Tables_number      33
_space_group_name_Hall           'P 2c -2n'
loop_
_symmetry_equiv_pos_site_id
_symmetry_equiv_pos_as_xyz
1 x,y,z
2 -x,-y,1/2+z
3 1/2+x,1/2-y,z
4 1/2-x,1/2+y,1/2+z
_cell_length_a                   9.9569(3)
_cell_length_b                   20.4211(8)
_cell_length_c                   4.6421(2)
_cell_angle_alpha                90
_cell_angle_beta                 90
_cell_angle_gamma                90
_cell_volume                     943.882
_exptl_crystal_colour            colorless
_exptl_crystal_description       plate
_cell_formula_units_Z            4
loop_
_atom_site_label
_atom_site_type_symbol
_atom_site_fract_x
_atom_site_fract_y
_atom_site_fract_z
C1 C 0.0634(2) 0.86566(11) 0.5174(6)
H1 H -0.028(3) 0.8524(12) 0.486(7)
C2 C 0.0966(2) 0.91558(11) 0.7072(5)
H2 H 0.030(3) 0.9341(14) 0.826(7)
C3 C 0.2314(2) 0.93151(10) 0.7412(5)
N1 N 0.26877(19) 0.98300(8) 0.9451(4)
O1 O 0.17918(19) 1.01110(12) 1.0768(7)
O2 O 0.38672(17) 0.99431(10) 0.9852(5)
C4 C 0.3324(2) 0.89970(11) 0.5894(5)
H3 H 0.429(3) 0.9090(13) 0.610(8)
C5 C 0.29731(19) 0.84960(11) 0.4026(5)
H4 H 0.368(3) 0.8288(13) 0.285(7)
C6 C 0.16206(18) 0.83221(10) 0.3651(4)
C7 C 0.11745(19) 0.77794(10) 0.1657(5)
O3 O -0.00446(14) 0.76749(8) 0.1283(4)
N2 N 0.21231(18) 0.74271(9) 0.0335(4)
C8 C 0.1788(2) 0.68802(12) -0.1549(5)
H5 H 0.090(3) 0.6937(12) -0.256(6)
H6 H 0.245(3) 0.6868(11) -0.309(6)
C9 C 0.1755(3) 0.62365(13) 0.0031(7)
H7 H 0.154(3) 0.5901(13) -0.131(6)
F1 F 0.2832(3) 0.60512(14) 0.1418(9)
H8 H 0.293(3) 0.7479(14) 0.086(7)
F2? F 0.1042(3) 0.62480(14) 0.2304(7)
H9? H 0.2041 0.6187 0.0400
H10? H 0.1580 0.6239 0.0588
loop_
_geom_bond_atom_site_label_1
_geom_bond_atom_site_label_2
_geom_bond_site_symmetry_1
_geom_bond_site_symmetry_2
C1 H1 1_555 1_555
C2 C1 1_555 1_555
H2 C2 1_555 1_555
C3 C2 1_555 1_555
N1 C3 1_555 1_555
O1 N1 1_555 1_555
O2 N1 1_555 1_555
C4 C3 1_555 1_555
H3 C4 1_555 1_555
C5 C4 1_555 1_555
H4 C5 1_555 1_555
C6 C1 1_555 1_555
C7 C6 1_555 1_555
O3 C7 1_555 1_555
N2 C7 1_555 1_555
C8 N2 1_555 1_555
H5 C8 1_555 1_555
H6 C8 1_555 1_555
C9 C8 1_555 1_555
H7 C9 1_555 1_555
F1 C9 1_555 1_555
H8 N2 1_555 1_555
C5 C6 1_555 1_555

#END
