
#######################################################################
#
#                 Cambridge Crystallographic Data Centre
#                                CCDC 
#
#######################################################################
#
# If this CIF has been generated from an entry in the Cambridge 
# Structural Database, then it will include bibliographic, chemical, 
# crystal, experimental, refinement or atomic coordinate data resulting 
# from the CCDC's data processing and validation procedures.
#
#######################################################################

data_MAMJOC
_chemical_formula_moiety         'C11 H12 Br1 N1 O4'
_chemical_name_systematic        
'2-(dimethylamino)-2-oxoethyl 5-bromo-2-hydroxybenzoate'
_symmetry_cell_setting           monoclinic
_symmetry_space_group_name_H-M   'P 21/n'
_symmetry_Int_Tables_number      14
_space_group_name_Hall           '-P 2yn'
loop_
_symmetry_equiv_pos_site_id
_symmetry_equiv_pos_as_xyz
1 x,y,z
2 1/2-x,1/2+y,1/2-z
3 -x,-y,-z
4 1/2+x,1/2-y,1/2+z
_cell_length_a                   5.4464(3)
_cell_length_b                   8.7160(5)
_cell_length_c                   25.2572(14)
_cell_angle_alpha                90
_cell_angle_beta                 91.713(4)
_cell_angle_gamma                90
_cell_volume                     1198.44
_exptl_crystal_colour            colorless
_exptl_crystal_description       block
_cell_formula_units_Z            4
loop_
_atom_site_label
_atom_site_type_symbol
_atom_site_fract_x
_atom_site_fract_y
_atom_site_fract_z
Br1 Br 0.22028(10) 0.99147(6) 0.241172(17)
C1 C 0.2357(7) 0.7077(5) 0.05333(14)
C2 C 0.1150(7) 0.7316(4) 0.10426(14)
C3 C -0.1136(8) 0.7662(5) 0.20044(16)
H1 H -0.1910 0.7795 0.2324
C4 C -0.0913(7) 0.6421(5) 0.11611(14)
C5 C -0.2034(7) 0.6623(5) 0.16432(15)
H2 H -0.3413 0.6044 0.1721
C6 C 0.2044(7) 0.8368(4) 0.14179(14)
H3 H 0.3402 0.8969 0.1344
C7 C 0.0929(7) 0.8517(5) 0.18942(14)
C8 C 0.3695(7) 0.8342(4) -0.05105(14)
C9 C 0.5385(7) 0.7876(5) -0.00474(13)
H4 H 0.5858 0.6810 -0.0086
H5 H 0.6864 0.8496 -0.0047
C10 C 0.6750(8) 0.7149(6) -0.10791(17)
H6 H 0.7976 0.7417 -0.0814
H7 H 0.7350 0.7376 -0.1424
H8 H 0.6391 0.6073 -0.1055
C11 C 0.2928(8) 0.8279(6) -0.14525(15)
H9 H 0.2123 0.7336 -0.1549
H10 H 0.3879 0.8632 -0.1742
H11 H 0.1719 0.9037 -0.1370
O1 O 0.4155(5) 0.8081(3) 0.04465(9)
O2 O -0.1903(6) 0.5356(3) 0.08308(11)
H12 H -0.1021 0.5246 0.0576
O3 O 0.1735(5) 0.8964(4) -0.04384(11)
O4 O 0.1779(5) 0.6064(3) 0.02254(10)
N1 N 0.4532(6) 0.8026(4) -0.09939(11)
loop_
_geom_bond_atom_site_label_1
_geom_bond_atom_site_label_2
_geom_bond_site_symmetry_1
_geom_bond_site_symmetry_2
Br1 C7 1_555 1_555
C1 C2 1_555 1_555
C2 C4 1_555 1_555
C3 H1 1_555 1_555
C4 C5 1_555 1_555
C5 C3 1_555 1_555
H2 C5 1_555 1_555
C6 C2 1_555 1_555
H3 C6 1_555 1_555
C7 C3 1_555 1_555
C8 C9 1_555 1_555
C9 H4 1_555 1_555
H5 C9 1_555 1_555
C10 H6 1_555 1_555
H7 C10 1_555 1_555
H8 C10 1_555 1_555
C11 H9 1_555 1_555
H10 C11 1_555 1_555
H11 C11 1_555 1_555
O1 C1 1_555 1_555
O2 C4 1_555 1_555
H12 O2 1_555 1_555
O3 C8 1_555 1_555
O4 C1 1_555 1_555
N1 C8 1_555 1_555
C6 C7 1_555 1_555
C9 O1 1_555 1_555
C10 N1 1_555 1_555
C11 N1 1_555 1_555

#END
