
#######################################################################
#
#                 Cambridge Crystallographic Data Centre
#                                CCDC 
#
#######################################################################
#
# If this CIF has been generated from an entry in the Cambridge 
# Structural Database, then it will include bibliographic, chemical, 
# crystal, experimental, refinement or atomic coordinate data resulting 
# from the CCDC's data processing and validation procedures.
#
#######################################################################

data_MAMKIX
_chemical_formula_moiety         'C25 H23 N5 O5 S1,2(C2 H6 O1 S1)'
_chemical_name_systematic        
'4-(3-((2-(4-methoxybenzylidene)hydrazino)carbonyl)-5-(4-methoxyphenyl)-1H-pyrazol-1-yl)benzenesulfonamide dimethyl sulfoxide solvate'
_symmetry_cell_setting           triclinic
_symmetry_space_group_name_H-M   'P -1'
_symmetry_Int_Tables_number      2
_space_group_name_Hall           '-P 1'
loop_
_symmetry_equiv_pos_site_id
_symmetry_equiv_pos_as_xyz
1 x,y,z
2 -x,-y,-z
_cell_length_a                   10.9102(19)
_cell_length_b                   11.1286(19)
_cell_length_c                   16.302(2)
_cell_angle_alpha                76.597(3)
_cell_angle_beta                 87.151(3)
_cell_angle_gamma                60.847(3)
_cell_volume                     1676.83
_exptl_crystal_colour            white
_exptl_crystal_description       block
_cell_formula_units_Z            2
loop_
_atom_site_label
_atom_site_type_symbol
_atom_site_fract_x
_atom_site_fract_y
_atom_site_fract_z
N1 N 0.4457(6) 0.4128(5) 0.6649(3)
N2 N 0.4444(5) 0.3623(6) 0.5951(3)
N3 N 0.4457(5) 0.2435(5) 0.4622(3)
N4 N 0.4054(5) 0.2095(5) 0.3969(3)
N5 N 0.7697(5) -0.3184(6) 0.2199(3)
O1 O 0.6308(7) 0.5928(6) 0.9610(3)
O2 O 0.2062(4) 0.4521(5) 0.5938(3)
O3 O -0.0562(6) 0.1843(7) 0.1692(4)
O4 O 0.8241(5) -0.1402(5) 0.1353(3)
O5 O 0.9567(4) -0.2849(5) 0.2721(3)
S1 S 0.82699(17) -0.20989(18) 0.22084(11)
C1 C 0.5803(7) 0.4462(7) 0.7594(4)
C2 C 0.7101(8) 0.4204(8) 0.7839(4)
H1 H 0.7861 0.3707 0.7542
C3 C 0.7338(9) 0.4652(9) 0.8514(5)
H2 H 0.8239 0.4459 0.8662
C4 C 0.6245(10) 0.5371(8) 0.8952(5)
C5 C 0.4921(9) 0.5654(8) 0.8710(5)
H3 H 0.4161 0.6172 0.9000
C6 C 0.4694(7) 0.5190(7) 0.8051(4)
H4 H 0.3795 0.5366 0.7913
C7 C 0.7695(12) 0.5514(11) 0.9940(6)
H5 H 0.8205 0.4505 1.0157
H6 H 0.7618 0.5974 1.0385
H7 H 0.8187 0.5787 0.9496
C8 C 0.5637(8) 0.3967(7) 0.6871(4)
H8 H 0.6411 0.3527 0.6568
C9 C 0.3209(7) 0.3885(6) 0.5636(4)
C10 C 0.3232(7) 0.3355(6) 0.4878(4)
C11 C 0.2077(6) 0.3579(6) 0.4409(4)
H9 H 0.1135 0.4178 0.4471
C12 C 0.2590(6) 0.2757(6) 0.3847(4)
C13 C 0.1868(6) 0.2454(6) 0.3256(4)
C14 C 0.2167(7) 0.1080(7) 0.3281(4)
H10 H 0.2901 0.0319 0.3645
C15 C 0.1381(8) 0.0840(8) 0.2767(5)
H11 H 0.1583 -0.0081 0.2790
C16 C 0.0301(8) 0.1958(9) 0.2225(5)
C17 C -0.0019(7) 0.3326(8) 0.2199(4)
H12 H -0.0756 0.4084 0.1835
C18 C 0.0754(6) 0.3561(7) 0.2714(4)
H13 H 0.0527 0.4487 0.2699
C19 C -0.0461(12) 0.0504(12) 0.1800(7)
H14 H 0.0424 -0.0132 0.1620
H15 H -0.1216 0.0593 0.1468
H16 H -0.0521 0.0139 0.2386
C20 C 0.5093(6) 0.1141(6) 0.3540(4)
C21 C 0.6255(6) -0.0066(6) 0.4008(4)
H17 H 0.6369 -0.0218 0.4591
C22 C 0.7227(6) -0.1025(6) 0.3588(4)
H18 H 0.8004 -0.1832 0.3892
C23 C 0.7062(6) -0.0804(6) 0.2718(4)
C24 C 0.5918(6) 0.0415(6) 0.2269(4)
H19 H 0.5805 0.0573 0.1685
C25 C 0.4944(6) 0.1398(6) 0.2675(4)
H20 H 0.4192 0.2226 0.2367
H21 H 0.526(3) 0.322(6) 0.571(3)
H22 H 0.756(5) -0.351(7) 0.2732(14)
H23 H 0.688(3) -0.272(6) 0.189(3)
S2 S 0.6299(3) 0.1000(3) 0.88534(17)
C26 C 0.7063(9) -0.0830(8) 0.9316(6)
H24 H 0.6865 -0.1282 0.8946
H25 H 0.6676 -0.0974 0.9848
H26 H 0.8062 -0.1231 0.9404
C27 C 0.6823(11) 0.1527(10) 0.9659(5)
H27 H 0.6479 0.2530 0.9497
H28 H 0.7832 0.1038 0.9738
H29 H 0.6443 0.1298 1.0178
O6 O 0.4775(6) 0.1584(8) 0.8865(5)
S4 S 0.8302(3) 0.1601(4) 0.50092(19)
C28 C 0.9569(8) 0.2140(11) 0.5137(6)
H36 H 0.9948 0.1789 0.5715
H37 H 0.9122 0.3156 0.4991
H38 H 1.0315 0.1765 0.4775
C29 C 0.7875(9) 0.2380(8) 0.3935(4)
H39 H 0.7180 0.2200 0.3738
H40 H 0.8704 0.1988 0.3633
H41 H 0.7507 0.3384 0.3841
O7 O 0.7275(6) 0.2214(11) 0.5521(4)
S3? S 0.5743(14) 0.0835(13) 0.9544(10)
H30? H 0.6623 -0.1365 0.9236
H31? H 0.7768 -0.1364 0.9780
H32? H 0.7493 -0.0639 0.8811
H33? H 0.6275 0.2429 0.9797
H34? H 0.7252 0.1645 0.9140
H35? H 0.7543 0.0891 1.0105
S5? S 0.7623(6) 0.2868(7) 0.4975(4)
H42? H 0.9783 0.2247 0.5671
H43? H 0.9870 0.2646 0.4690
H44? H 1.0050 0.1154 0.5133
H45? H 0.6978 0.2663 0.3671
H46? H 0.8464 0.1374 0.4021
H47? H 0.8314 0.2853 0.3577
loop_
_geom_bond_atom_site_label_1
_geom_bond_atom_site_label_2
_geom_bond_site_symmetry_1
_geom_bond_site_symmetry_2
N1 N2 1_555 1_555
N2 C9 1_555 1_555
N3 N4 1_555 1_555
N4 C12 1_555 1_555
N5 S1 1_555 1_555
O1 C4 1_555 1_555
O2 C9 1_555 1_555
O3 C16 1_555 1_555
O4 S1 1_555 1_555
O5 S1 1_555 1_555
S1 C23 1_555 1_555
C1 C2 1_555 1_555
C2 H1 1_555 1_555
C3 C2 1_555 1_555
H2 C3 1_555 1_555
C4 C3 1_555 1_555
C5 C4 1_555 1_555
H3 C5 1_555 1_555
C6 C1 1_555 1_555
H4 C6 1_555 1_555
C7 O1 1_555 1_555
H5 C7 1_555 1_555
H6 C7 1_555 1_555
H7 C7 1_555 1_555
C8 N1 1_555 1_555
H8 C8 1_555 1_555
C9 C10 1_555 1_555
C10 N3 1_555 1_555
C11 C10 1_555 1_555
H9 C11 1_555 1_555
C12 C11 1_555 1_555
C13 C12 1_555 1_555
C14 C13 1_555 1_555
H10 C14 1_555 1_555
C15 C14 1_555 1_555
H11 C15 1_555 1_555
C16 C15 1_555 1_555
C17 C16 1_555 1_555
H12 C17 1_555 1_555
C18 C13 1_555 1_555
H13 C18 1_555 1_555
C19 O3 1_555 1_555
H14 C19 1_555 1_555
H15 C19 1_555 1_555
H16 C19 1_555 1_555
C20 N4 1_555 1_555
C21 C20 1_555 1_555
H17 C21 1_555 1_555
C22 C21 1_555 1_555
H18 C22 1_555 1_555
C23 C22 1_555 1_555
C24 C23 1_555 1_555
H19 C24 1_555 1_555
C25 C20 1_555 1_555
H20 C25 1_555 1_555
H21 N2 1_555 1_555
H22 N5 1_555 1_555
H23 N5 1_555 1_555
S2 C26 1_555 1_555
C26 H24 1_555 1_555
H25 C26 1_555 1_555
H26 C26 1_555 1_555
C27 S2 1_555 1_555
H27 C27 1_555 1_555
H28 C27 1_555 1_555
H29 C27 1_555 1_555
O6 S2 1_555 1_555
S4 C28 1_555 1_555
C28 H36 1_555 1_555
H37 C28 1_555 1_555
H38 C28 1_555 1_555
C29 S4 1_555 1_555
H39 C29 1_555 1_555
H40 C29 1_555 1_555
H41 C29 1_555 1_555
O7 S4 1_555 1_555
C1 C8 1_555 1_555
C5 C6 1_555 1_555
C17 C18 1_555 1_555
C24 C25 1_555 1_555

#END
