
#######################################################################
#
#                 Cambridge Crystallographic Data Centre
#                                CCDC 
#
#######################################################################
#
# If this CIF has been generated from an entry in the Cambridge 
# Structural Database, then it will include bibliographic, chemical, 
# crystal, experimental, refinement or atomic coordinate data resulting 
# from the CCDC's data processing and validation procedures.
#
#######################################################################

data_MAMKOD
_chemical_formula_moiety         'C24 H20 Br1 N5 O3 S1,2(C2 H6 O1 S1)'
_chemical_name_systematic        
'4-(5-(4-bromophenyl)-3-((2-(4-methylbenzylidene)hydrazino)carbonyl)-1H-pyrazol-1-yl)benzenesulfonamide dimethyl sulfoxide solvate'
_symmetry_cell_setting           triclinic
_symmetry_space_group_name_H-M   'P -1'
_symmetry_Int_Tables_number      2
_space_group_name_Hall           '-P 1'
loop_
_symmetry_equiv_pos_site_id
_symmetry_equiv_pos_as_xyz
1 x,y,z
2 -x,-y,-z
_cell_length_a                   10.683(2)
_cell_length_b                   10.986(2)
_cell_length_c                   16.0730(19)
_cell_angle_alpha                91.984(3)
_cell_angle_beta                 100.304(3)
_cell_angle_gamma                117.555(3)
_cell_volume                     1630.47
_exptl_crystal_colour            white
_exptl_crystal_description       block
_cell_formula_units_Z            2
loop_
_atom_site_label
_atom_site_type_symbol
_atom_site_fract_x
_atom_site_fract_y
_atom_site_fract_z
Br1 Br 0.60431(9) 1.08471(7) 0.32922(5)
S1 S 0.28582(11) 0.19168(10) 0.27946(7)
O1 O 0.9511(3) 0.7702(3) -0.10145(18)
N1 N 0.9231(4) 0.5286(3) -0.1732(2)
N2 N 0.8788(4) 0.5404(3) -0.0983(2)
N3 N 0.7518(3) 0.5495(3) 0.03631(19)
N4 N 0.7112(3) 0.5943(3) 0.10159(18)
O2 O 0.2045(3) 0.0636(3) 0.2235(2)
O3 O 0.3575(3) 0.1940(3) 0.36370(19)
N5 N 0.1777(4) 0.2535(4) 0.2868(2)
C1 C 1.0514(7) 0.2753(7) -0.5042(3)
H1 H 0.9702 0.2548 -0.5498
H2 H 1.0657 0.1954 -0.5004
H3 H 1.1367 0.3514 -0.5150
C2 C 1.0227(5) 0.3135(5) -0.4211(3)
C3 C 0.9586(6) 0.2143(5) -0.3700(3)
H4 H 0.9364 0.1231 -0.3857
C4 C 0.9269(5) 0.2482(5) -0.2959(3)
H5 H 0.8856 0.1799 -0.2618
C5 C 0.9557(4) 0.3828(4) -0.2712(3)
C6 C 1.0215(5) 0.4826(4) -0.3222(3)
H6 H 1.0438 0.5739 -0.3067
C7 C 1.0539(5) 0.4474(5) -0.3955(3)
H7 H 1.0983 0.5161 -0.4286
C8 C 0.9147(4) 0.4122(4) -0.1941(3)
H8 H 0.8812 0.3434 -0.1592
C9 C 0.8970(4) 0.6633(4) -0.0679(2)
C10 C 0.8422(4) 0.6660(4) 0.0105(2)
C11 C 0.8601(4) 0.7839(4) 0.0579(2)
H9 H 0.9188 0.8757 0.0518
C12 C 0.7732(4) 0.7362(4) 0.1154(2)
C13 C 0.7326(4) 0.8125(4) 0.1727(2)
C14 C 0.8390(5) 0.9350(4) 0.2225(3)
H10 H 0.9360 0.9636 0.2234
C15 C 0.8017(6) 1.0143(5) 0.2705(3)
H11 H 0.8731 1.0954 0.3047
C16 C 0.6583(6) 0.9726(5) 0.2674(3)
C17 C 0.5510(5) 0.8529(5) 0.2184(3)
H12 H 0.4543 0.8259 0.2173
C18 C 0.5879(4) 0.7725(4) 0.1705(3)
H13 H 0.5157 0.6913 0.1368
C19 C 0.6139(4) 0.4946(4) 0.1452(2)
C20 C 0.6437(4) 0.5131(4) 0.2336(2)
H14 H 0.7283 0.5880 0.2646
C21 C 0.5452(4) 0.4178(4) 0.2751(2)
H15 H 0.5636 0.4282 0.3344
C22 C 0.4198(4) 0.3076(4) 0.2280(2)
C23 C 0.3935(4) 0.2880(4) 0.1399(2)
H16 H 0.3104 0.2117 0.1087
C24 C 0.4912(4) 0.3821(4) 0.0985(2)
H17 H 0.4743 0.3696 0.0392
H18 H 0.839(5) 0.463(3) -0.074(3)
H19 H 0.132(5) 0.259(4) 0.2359(15)
H20 H 0.225(5) 0.338(2) 0.318(2)
O4 O 0.6605(6) 0.4947(5) 0.5992(3)
C25 C 0.4045(6) 0.2807(7) 0.5708(4)
C26 C 0.6278(7) 0.2541(7) 0.5372(4)
S3 S 0.5952(2) 0.3495(2) 0.61436(12)
S4 S 0.67634(15) 0.17422(15) -0.00310(9)
O5 O 0.7875(5) 0.2820(4) -0.0387(3)
C27 C 0.7128(7) 0.0332(5) -0.0120(4)
H21 H 0.6970 0.0012 -0.0712
H22 H 0.6495 -0.0407 0.0147
H23 H 0.8115 0.0626 0.0156
C28 C 0.7270(6) 0.2166(6) 0.1078(3)
H24 H 0.8223 0.2274 0.1277
H25 H 0.6596 0.1439 0.1334
H26 H 0.7269 0.3017 0.1233
S2? S 0.5799(8) 0.3830(7) 0.5405(5)
loop_
_geom_bond_atom_site_label_1
_geom_bond_atom_site_label_2
_geom_bond_site_symmetry_1
_geom_bond_site_symmetry_2
Br1 C16 1_555 1_555
S1 O2 1_555 1_555
O1 C9 1_555 1_555
N1 N2 1_555 1_555
N2 C9 1_555 1_555
N3 N4 1_555 1_555
N4 C12 1_555 1_555
O3 S1 1_555 1_555
N5 S1 1_555 1_555
C1 H1 1_555 1_555
H2 C1 1_555 1_555
H3 C1 1_555 1_555
C2 C1 1_555 1_555
C3 C2 1_555 1_555
H4 C3 1_555 1_555
C4 C3 1_555 1_555
H5 C4 1_555 1_555
C5 C4 1_555 1_555
C6 C5 1_555 1_555
H6 C6 1_555 1_555
C7 C2 1_555 1_555
H7 C7 1_555 1_555
C8 N1 1_555 1_555
H8 C8 1_555 1_555
C9 C10 1_555 1_555
C10 N3 1_555 1_555
C11 C10 1_555 1_555
H9 C11 1_555 1_555
C12 C11 1_555 1_555
C13 C12 1_555 1_555
C14 C13 1_555 1_555
H10 C14 1_555 1_555
C15 C14 1_555 1_555
H11 C15 1_555 1_555
C16 C15 1_555 1_555
C17 C16 1_555 1_555
H12 C17 1_555 1_555
C18 C13 1_555 1_555
H13 C18 1_555 1_555
C19 N4 1_555 1_555
C20 C19 1_555 1_555
H14 C20 1_555 1_555
C21 C20 1_555 1_555
H15 C21 1_555 1_555
C22 S1 1_555 1_555
C23 C22 1_555 1_555
H16 C23 1_555 1_555
C24 C19 1_555 1_555
H17 C24 1_555 1_555
H18 N2 1_555 1_555
H19 N5 1_555 1_555
H20 N5 1_555 1_555
O4 S3 1_555 1_555
C25 S3 1_555 1_555
C26 S3 1_555 1_555
S4 O5 1_555 1_555
C27 S4 1_555 1_555
H21 C27 1_555 1_555
H22 C27 1_555 1_555
H23 C27 1_555 1_555
C28 S4 1_555 1_555
H24 C28 1_555 1_555
H25 C28 1_555 1_555
H26 C28 1_555 1_555
C5 C8 1_555 1_555
C6 C7 1_555 1_555
C17 C18 1_555 1_555
C21 C22 1_555 1_555
C23 C24 1_555 1_555

#END
