
#######################################################################
#
#                 Cambridge Crystallographic Data Centre
#                                CCDC 
#
#######################################################################
#
# If this CIF has been generated from an entry in the Cambridge 
# Structural Database, then it will include bibliographic, chemical, 
# crystal, experimental, refinement or atomic coordinate data resulting 
# from the CCDC's data processing and validation procedures.
#
#######################################################################

data_MAMMIY
_chemical_formula_moiety         'C56 H80 Li2 N16 O4 2+,2(B1 F4 1-)'
_chemical_name_systematic        
'bis(\m~2~-11,23-Di-t-butyl-1,9,11,13,21,23,26,28-octaazapentacyclo[19.3.1.1^3,7^.1^9,13^.1^15,19^]octacosa-3(28),4,6,15(26),16,18-hexaene-25,27-dione)-di-lithium bis(tetrafluoroborate)'
_symmetry_cell_setting           triclinic
_symmetry_space_group_name_H-M   'P -1'
_symmetry_Int_Tables_number      2
_space_group_name_Hall           '-P 1'
loop_
_symmetry_equiv_pos_site_id
_symmetry_equiv_pos_as_xyz
1 x,y,z
2 -x,-y,-z
_cell_length_a                   10.3057(5)
_cell_length_b                   10.3148(5)
_cell_length_c                   14.5675(7)
_cell_angle_alpha                107.3900(10)
_cell_angle_beta                 91.5960(10)
_cell_angle_gamma                90.6070(10)
_cell_volume                     1476.9
_exptl_crystal_colour            colorless
_exptl_crystal_description       'rectangular plate'
_cell_formula_units_Z            1
loop_
_atom_site_label
_atom_site_type_symbol
_atom_site_fract_x
_atom_site_fract_y
_atom_site_fract_z
Li1 Li 0.4385(2) 0.3756(2) 0.48066(17)
C1 C 0.46152(15) 0.09827(14) 0.42243(10)
C2 C 0.48474(15) -0.10916(15) 0.28702(11)
H1 H 0.5372 -0.1332 0.2286
H2 H 0.4924 -0.1834 0.3169
C3 C 0.27868(16) -0.06096(15) 0.34675(11)
H3 H 0.2756 -0.1388 0.3733
H4 H 0.1884 -0.0411 0.3311
C4 C 0.67483(14) 0.05083(15) 0.35244(11)
H5 H 0.7247 -0.0337 0.3413
H6 H 0.7034 0.1129 0.4160
C5 C 0.70682(14) 0.11651(14) 0.27558(10)
C6 C 0.78730(15) 0.05375(16) 0.20102(11)
H7 H 0.8188 -0.0348 0.1942
C7 C 0.82059(17) 0.12299(17) 0.13696(11)
H8 H 0.8754 0.0826 0.0852
C8 C 0.77333(16) 0.25150(17) 0.14902(11)
H9 H 0.7948 0.3006 0.1056
C9 C 0.69390(14) 0.30777(15) 0.22568(10)
C10 C 0.64941(14) 0.45283(15) 0.24769(11)
H10 H 0.6842 0.5051 0.3124
H11 H 0.6871 0.4934 0.2006
C11 C 0.44196(14) 0.49696(13) 0.32712(9)
C12 C 0.44707(14) 0.45533(17) 0.15152(10)
H12 H 0.4598 0.5410 0.1352
H13 H 0.4875 0.3812 0.1014
C13 C 0.25602(15) 0.53411(15) 0.23106(9)
H14 H 0.1609 0.5203 0.2322
H15 H 0.2729 0.6234 0.2208
C14 C 0.23810(14) 0.56104(14) 0.40798(10)
H16 H 0.1747 0.6315 0.4056
H17 H 0.2950 0.5981 0.4660
C15 C 0.16611(14) 0.43673(14) 0.41588(9)
C16 C 0.03664(15) 0.41566(16) 0.38747(11)
H18 H -0.0079 0.4790 0.3629
C17 C -0.02728(16) 0.30074(17) 0.39527(12)
H19 H -0.1164 0.2843 0.3765
C18 C 0.04062(16) 0.21083(17) 0.43071(11)
H20 H -0.0012 0.1314 0.4368
C19 C 0.17038(15) 0.23752(15) 0.45742(10)
C20 C 0.24852(15) 0.13847(15) 0.49318(10)
H21 H 0.3004 0.1892 0.5513
H22 H 0.1885 0.0759 0.5119
C21 C 0.31933(15) -0.02552(15) 0.18700(10)
C22 C 0.32853(17) 0.12950(15) 0.22570(11)
H23 H 0.4160 0.1573 0.2530
H24 H 0.2648 0.1620 0.2757
H25 H 0.3106 0.1685 0.1731
C23 C 0.41051(18) -0.0745(2) 0.10324(12)
H26 H 0.4121 -0.1740 0.0827
H27 H 0.4982 -0.0378 0.1239
H28 H 0.3797 -0.0430 0.0494
C24 C 0.18116(17) -0.06690(18) 0.14834(13)
H29 H 0.1204 -0.0356 0.2006
H30 H 0.1744 -0.1661 0.1221
H31 H 0.1599 -0.0257 0.0974
C25 C 0.23643(14) 0.39527(15) 0.05984(10)
C26 C 0.21702(17) 0.51988(16) 0.02515(11)
H32 H 0.3017 0.5605 0.0196
H33 H 0.1654 0.5865 0.0714
H34 H 0.1714 0.4926 -0.0378
C27 C 0.30922(18) 0.28854(17) -0.01595(11)
H35 H 0.3296 0.2120 0.0084
H36 H 0.3900 0.3289 -0.0300
H37 H 0.2549 0.2563 -0.0749
C28 C 0.10463(16) 0.33494(18) 0.07170(12)
H38 H 0.0533 0.4047 0.1158
H39 H 0.1170 0.2588 0.0980
H40 H 0.0588 0.3026 0.0089
N1 N 0.53762(12) 0.01806(12) 0.35528(8)
N2 N 0.35096(12) -0.09870(12) 0.25953(9)
N3 N 0.33559(12) 0.05903(12) 0.42094(8)
N4 N 0.65966(11) 0.24075(12) 0.28757(8)
N5 N 0.50862(11) 0.46767(12) 0.24529(8)
N6 N 0.31027(11) 0.42657(12) 0.15395(8)
N7 N 0.31702(11) 0.53089(12) 0.32226(8)
N8 N 0.23366(11) 0.34946(12) 0.45070(8)
O1 O 0.50443(10) 0.20522(10) 0.48239(7)
O2 O 0.49504(10) 0.49361(10) 0.40487(6)
Li1A Li 0.5615(2) 0.6244(2) 0.51934(17)
C1A C 0.53848(15) 0.90173(14) 0.57757(10)
C2A C 0.51526(15) 1.10916(15) 0.71298(11)
H1A H 0.4628 1.1332 0.7714
H2A H 0.5076 1.1834 0.6831
C3A C 0.72132(16) 1.06096(15) 0.65325(11)
H3A H 0.7244 1.1388 0.6267
H4A H 0.8116 1.0411 0.6689
C4A C 0.32517(14) 0.94917(15) 0.64756(11)
H5A H 0.2753 1.0337 0.6587
H6A H 0.2966 0.8871 0.5840
C5A C 0.29318(14) 0.88349(14) 0.72442(10)
C6A C 0.21270(15) 0.94625(16) 0.79898(11)
H7A H 0.1812 1.0348 0.8058
C7A C 0.17941(17) 0.87701(17) 0.86304(11)
H8A H 0.1246 0.9174 0.9148
C8A C 0.22667(16) 0.74850(17) 0.85098(11)
H9A H 0.2052 0.6994 0.8944
C9A C 0.30610(14) 0.69223(15) 0.77432(10)
C10A C 0.35059(14) 0.54717(15) 0.75231(11)
H10A H 0.3158 0.4949 0.6876
H11A H 0.3129 0.5066 0.7994
C11A C 0.55804(14) 0.50304(13) 0.67288(9)
C12A C 0.55293(14) 0.54467(17) 0.84848(10)
H12A H 0.5402 0.4590 0.8648
H13A H 0.5125 0.6188 0.8986
C13A C 0.74398(15) 0.46589(15) 0.76894(9)
H14A H 0.8391 0.4797 0.7678
H15A H 0.7271 0.3766 0.7792
C14A C 0.76190(14) 0.43896(14) 0.59202(10)
H16A H 0.8253 0.3685 0.5944
H17A H 0.7050 0.4019 0.5340
C15A C 0.83389(14) 0.56327(14) 0.58412(9)
C16A C 0.96336(15) 0.58434(16) 0.61253(11)
H18A H 1.0079 0.5210 0.6371
C17A C 1.02728(16) 0.69926(17) 0.60473(12)
H19A H 1.1164 0.7157 0.6235
C18A C 0.95938(16) 0.78917(17) 0.56929(11)
H20A H 1.0012 0.8686 0.5632
C19A C 0.82962(15) 0.76248(15) 0.54258(10)
C20A C 0.75148(15) 0.86153(15) 0.50682(10)
H21A H 0.6996 0.8108 0.4487
H22A H 0.8115 0.9241 0.4881
C21A C 0.68067(15) 1.02552(15) 0.81300(10)
C22A C 0.67147(17) 0.87050(15) 0.77430(11)
H23A H 0.5840 0.8427 0.7470
H24A H 0.7352 0.8380 0.7243
H25A H 0.6894 0.8315 0.8269
C23A C 0.58949(18) 1.0745(2) 0.89676(12)
H26A H 0.5879 1.1740 0.9173
H27A H 0.5018 1.0378 0.8761
H28A H 0.6203 1.0430 0.9506
C24A C 0.81884(17) 1.06690(18) 0.85166(13)
H29A H 0.8796 1.0356 0.7994
H30A H 0.8256 1.1661 0.8779
H31A H 0.8401 1.0257 0.9026
C25A C 0.76357(14) 0.60473(15) 0.94016(10)
C26A C 0.78298(17) 0.48012(16) 0.97485(11)
H32A H 0.6983 0.4395 0.9804
H33A H 0.8346 0.4135 0.9286
H34A H 0.8286 0.5074 1.0378
C27A C 0.69078(18) 0.71146(17) 1.01595(11)
H35A H 0.6704 0.7880 0.9916
H36A H 0.6100 0.6711 1.0300
H37A H 0.7451 0.7437 1.0749
C28A C 0.89537(16) 0.66506(18) 0.92830(12)
H38A H 0.9467 0.5953 0.8842
H39A H 0.8830 0.7412 0.9020
H40A H 0.9412 0.6974 0.9911
N1A N 0.46238(12) 0.98194(12) 0.64472(8)
N2A N 0.64904(12) 1.09870(12) 0.74047(9)
N3A N 0.66441(12) 0.94097(12) 0.57906(8)
N4A N 0.34034(11) 0.75925(12) 0.71243(8)
N5A N 0.49138(11) 0.53233(12) 0.75471(8)
N6A N 0.68973(11) 0.57343(12) 0.84605(8)
N7A N 0.68298(11) 0.46911(12) 0.67774(8)
N8A N 0.76634(11) 0.65054(12) 0.54930(8)
O1A O 0.49557(10) 0.79478(10) 0.51761(7)
O2A O 0.50496(10) 0.50639(10) 0.59513(6)
B1 B 0.0888(7) 0.2598(5) 0.7304(4)
F1 F 0.0635(3) 0.3534(4) 0.6831(4)
F2 F 0.0285(7) 0.2990(7) 0.8168(4)
F3 F 0.2219(7) 0.2563(13) 0.7462(9)
F4 F 0.0439(3) 0.1351(3) 0.6741(2)
B2? B 0.0875(8) 0.2837(6) 0.7405(5)
F5? F 0.0700(3) 0.4195(4) 0.7575(4)
F6? F 0.0489(7) 0.2486(6) 0.8193(4)
F7? F 0.2182(9) 0.2581(16) 0.7296(11)
F8? F 0.0165(4) 0.2125(8) 0.6608(2)
loop_
_geom_bond_atom_site_label_1
_geom_bond_atom_site_label_2
_geom_bond_site_symmetry_1
_geom_bond_site_symmetry_2
Li1 N8 1_555 1_555
C1 N1 1_555 1_555
C2 H1 1_555 1_555
H2 C2 1_555 1_555
C3 H3 1_555 1_555
H4 C3 1_555 1_555
C4 H5 1_555 1_555
H6 C4 1_555 1_555
C5 C4 1_555 1_555
C6 C5 1_555 1_555
H7 C6 1_555 1_555
C7 C6 1_555 1_555
H8 C7 1_555 1_555
C8 C7 1_555 1_555
H9 C8 1_555 1_555
C9 C8 1_555 1_555
C10 C9 1_555 1_555
H10 C10 1_555 1_555
H11 C10 1_555 1_555
C11 N5 1_555 1_555
C12 H12 1_555 1_555
H13 C12 1_555 1_555
C13 H14 1_555 1_555
H15 C13 1_555 1_555
C14 H16 1_555 1_555
H17 C14 1_555 1_555
C15 C14 1_555 1_555
C16 C15 1_555 1_555
H18 C16 1_555 1_555
C17 C16 1_555 1_555
H19 C17 1_555 1_555
C18 C17 1_555 1_555
H20 C18 1_555 1_555
C19 C18 1_555 1_555
C20 C19 1_555 1_555
H21 C20 1_555 1_555
H22 C20 1_555 1_555
C21 C22 1_555 1_555
C22 H23 1_555 1_555
H24 C22 1_555 1_555
H25 C22 1_555 1_555
C23 C21 1_555 1_555
H26 C23 1_555 1_555
H27 C23 1_555 1_555
H28 C23 1_555 1_555
C24 C21 1_555 1_555
H29 C24 1_555 1_555
H30 C24 1_555 1_555
H31 C24 1_555 1_555
C25 C26 1_555 1_555
C26 H32 1_555 1_555
H33 C26 1_555 1_555
H34 C26 1_555 1_555
C27 C25 1_555 1_555
H35 C27 1_555 1_555
H36 C27 1_555 1_555
H37 C27 1_555 1_555
C28 C25 1_555 1_555
H38 C28 1_555 1_555
H39 C28 1_555 1_555
H40 C28 1_555 1_555
N1 C2 1_555 1_555
N2 C2 1_555 1_555
N3 C1 1_555 1_555
N4 C5 1_555 1_555
N5 C10 1_555 1_555
N6 C12 1_555 1_555
N7 C11 1_555 1_555
N8 C15 1_555 1_555
O1 Li1 1_555 1_555
O2 Li1 1_555 1_555
B1 F1 1_555 1_555
F2 B1 1_555 1_555
F3 B1 1_555 1_555
F4 B1 1_555 1_555
Li1A O2 1_555 1_555
C1A N1A 1_555 1_555
C2A H1A 1_555 1_555
H2A C2A 1_555 1_555
C3A H3A 1_555 1_555
H4A C3A 1_555 1_555
C4A H5A 1_555 1_555
H6A C4A 1_555 1_555
C5A C4A 1_555 1_555
C6A C5A 1_555 1_555
H7A C6A 1_555 1_555
C7A C6A 1_555 1_555
H8A C7A 1_555 1_555
C8A C7A 1_555 1_555
H9A C8A 1_555 1_555
C9A C8A 1_555 1_555
C10A C9A 1_555 1_555
H10A C10A 1_555 1_555
H11A C10A 1_555 1_555
C11A N5A 1_555 1_555
C12A H12A 1_555 1_555
H13A C12A 1_555 1_555
C13A H14A 1_555 1_555
H15A C13A 1_555 1_555
C14A H16A 1_555 1_555
H17A C14A 1_555 1_555
C15A C14A 1_555 1_555
C16A C15A 1_555 1_555
H18A C16A 1_555 1_555
C17A C16A 1_555 1_555
H19A C17A 1_555 1_555
C18A C17A 1_555 1_555
H20A C18A 1_555 1_555
C19A C18A 1_555 1_555
C20A C19A 1_555 1_555
H21A C20A 1_555 1_555
H22A C20A 1_555 1_555
C21A C22A 1_555 1_555
C22A H23A 1_555 1_555
H24A C22A 1_555 1_555
H25A C22A 1_555 1_555
C23A C21A 1_555 1_555
H26A C23A 1_555 1_555
H27A C23A 1_555 1_555
H28A C23A 1_555 1_555
C24A C21A 1_555 1_555
H29A C24A 1_555 1_555
H30A C24A 1_555 1_555
H31A C24A 1_555 1_555
C25A C26A 1_555 1_555
C26A H32A 1_555 1_555
H33A C26A 1_555 1_555
H34A C26A 1_555 1_555
C27A C25A 1_555 1_555
H35A C27A 1_555 1_555
H36A C27A 1_555 1_555
H37A C27A 1_555 1_555
C28A C25A 1_555 1_555
H38A C28A 1_555 1_555
H39A C28A 1_555 1_555
H40A C28A 1_555 1_555
N1A C2A 1_555 1_555
N2A C2A 1_555 1_555
N3A C1A 1_555 1_555
N4A C5A 1_555 1_555
N5A C10A 1_555 1_555
N6A C12A 1_555 1_555
N7A C11A 1_555 1_555
N8A Li1A 1_555 1_555
O1A Li1A 1_555 1_555
O2A Li1 1_555 1_555
C1 O1 1_555 1_555
C3 N2 1_555 1_555
C3 N3 1_555 1_555
C4 N1 1_555 1_555
C9 N4 1_555 1_555
C11 O2 1_555 1_555
C12 N5 1_555 1_555
C13 N6 1_555 1_555
C13 N7 1_555 1_555
C14 N7 1_555 1_555
C19 N8 1_555 1_555
C20 N3 1_555 1_555
C21 N2 1_555 1_555
C25 N6 1_555 1_555
Li1A O2A 1_555 1_555
C1A O1A 1_555 1_555
C3A N2A 1_555 1_555
C3A N3A 1_555 1_555
C4A N1A 1_555 1_555
C9A N4A 1_555 1_555
C11A O2A 1_555 1_555
C12A N5A 1_555 1_555
C13A N6A 1_555 1_555
C13A N7A 1_555 1_555
C14A N7A 1_555 1_555
C15A N8A 1_555 1_555
C19A N8A 1_555 1_555
C20A N3A 1_555 1_555
C21A N2A 1_555 1_555
C25A N6A 1_555 1_555

#END
