
#######################################################################
#
#                 Cambridge Crystallographic Data Centre
#                                CCDC 
#
#######################################################################
#
# If this CIF has been generated from an entry in the Cambridge 
# Structural Database, then it will include bibliographic, chemical, 
# crystal, experimental, refinement or atomic coordinate data resulting 
# from the CCDC's data processing and validation procedures.
#
#######################################################################

data_MAMMOE
_chemical_formula_moiety         'C28 H40 N8 O2,1.5(C6 H6),H2 O1'
_chemical_name_systematic        
'11,23-Di-t-butyl-1,9,11,13,21,23,26,28-octaazapentacyclo[19.3.1.1^3,7^.1^9,13^.1^15,19^]octacosa-3(28),4,6,15(26),16,18-hexaene-25,27-dione benzene solvate monohydrate'
_symmetry_cell_setting           triclinic
_symmetry_space_group_name_H-M   'P -1'
_symmetry_Int_Tables_number      2
_space_group_name_Hall           '-P 1'
loop_
_symmetry_equiv_pos_site_id
_symmetry_equiv_pos_as_xyz
1 x,y,z
2 -x,-y,-z
_cell_length_a                   14.2251(7)
_cell_length_b                   15.9467(7)
_cell_length_c                   16.5472(8)
_cell_angle_alpha                90.932(1)
_cell_angle_beta                 93.840(1)
_cell_angle_gamma                103.550(1)
_cell_volume                     3638.98
_exptl_crystal_colour            colorless
_exptl_crystal_description       chunk
_cell_formula_units_Z            4
loop_
_atom_site_label
_atom_site_type_symbol
_atom_site_fract_x
_atom_site_fract_y
_atom_site_fract_z
C1 C 0.61062(18) 0.93884(15) 0.41084(14)
C2 C 0.6951(2) 1.09094(18) 0.38956(18)
H1 H 0.6986 1.1012 0.3309
H2 H 0.6888 1.1450 0.4166
C3 C 0.7836(2) 0.98605(18) 0.39029(17)
H3 H 0.8437 0.9703 0.4116
H4 H 0.7837 0.9866 0.3305
C4 C 0.5165(2) 1.04703(17) 0.39527(15)
H5 H 0.5151 1.0877 0.4408
H6 H 0.4639 0.9949 0.4008
C5 C 0.49674(17) 1.08863(15) 0.31662(14)
C6 C 0.4568(2) 1.15995(16) 0.31707(16)
H7 H 0.4427 1.1837 0.3666
C7 C 0.4380(2) 1.19586(17) 0.24441(16)
H8 H 0.4100 1.2444 0.2430
C8 C 0.46012(19) 1.16050(16) 0.17411(15)
H9 H 0.4484 1.1845 0.1233
C9 C 0.49981(17) 1.08919(15) 0.17850(14)
C10 C 0.5222(2) 1.04741(18) 0.10173(15)
H10 H 0.4688 0.9964 0.0867
H11 H 0.5242 1.0887 0.0575
C11 C 0.61181(18) 0.93547(15) 0.10343(15)
C12 C 0.7019(2) 1.08743(18) 0.1267(2)
H12 H 0.6960 1.1407 0.0990
H13 H 0.7091 1.1006 0.1858
C13 C 0.7880(2) 0.98090(19) 0.13699(19)
H14 H 0.7955 0.9875 0.1968
H15 H 0.8446 0.9615 0.1189
C14 C 0.7006(2) 0.82405(17) 0.11781(19)
H16 H 0.7682 0.8185 0.1156
H17 H 0.6627 0.7927 0.0696
C15 C 0.66011(19) 0.78113(16) 0.19281(19)
C16 C 0.5921(2) 0.70255(18) 0.1866(2)
H18 H 0.5692 0.6757 0.1350
C17 C 0.5586(2) 0.66445(18) 0.2561(3)
H19 H 0.5115 0.6111 0.2535
C18 C 0.5946(2) 0.70500(18) 0.3297(2)
H20 H 0.5732 0.6796 0.3788
C19 C 0.66214(19) 0.78334(16) 0.33117(19)
C20 C 0.7035(2) 0.83032(18) 0.41010(19)
H21 H 0.6673 0.8007 0.4547
H22 H 0.7719 0.8267 0.4196
C21 C 0.81453(19) 1.09297(18) 0.50792(16)
C22 C 0.7416(3) 1.0528(3) 0.5672(2)
H23 H 0.6801 1.0690 0.5540
H24 H 0.7664 1.0737 0.6224
H25 H 0.7310 0.9899 0.5637
C23 C 0.8317(3) 1.1910(2) 0.5186(2)
H26 H 0.8735 1.2190 0.4773
H27 H 0.8630 1.2093 0.5726
H28 H 0.7694 1.2074 0.5126
C24 C 0.9110(3) 1.0717(3) 0.5264(2)
H29 H 0.9020 1.0090 0.5283
H30 H 0.9396 1.0984 0.5788
H31 H 0.9542 1.0940 0.4839
C49 C 0.8122(2) 1.0781(2) 0.0181(2)
C50 C 0.7312(3) 1.0432(4) -0.0470(3)
H63 H 0.7095 0.9805 -0.0430
H64 H 0.7552 1.0568 -0.1006
H65 H 0.6768 1.0699 -0.0395
C51 C 0.8356(4) 1.1795(3) 0.0108(3)
H66 H 0.7760 1.1997 0.0148
H67 H 0.8620 1.1952 -0.0415
H68 H 0.8833 1.2066 0.0547
C52 C 0.9045(5) 1.0506(7) 0.0069(8)
H69 H 0.9521 1.0742 0.0519
H70 H 0.9301 1.0723 -0.0443
H71 H 0.8915 0.9875 0.0056
N1 N 0.60865(15) 1.02264(12) 0.40162(12)
N2 N 0.78378(16) 1.07079(14) 0.42067(13)
N3 N 0.69963(15) 0.92070(13) 0.41297(14)
N4 N 0.51790(14) 1.05316(12) 0.24862(11)
N5 N 0.61260(15) 1.02050(12) 0.10779(12)
N6 N 0.78685(17) 1.06335(15) 0.10308(15)
N7 N 0.69955(15) 0.91505(13) 0.11321(14)
N8 N 0.69510(15) 0.82147(13) 0.26374(15)
O1 O 0.53668(12) 0.88197(10) 0.42033(11)
O2 O 0.53618(12) 0.87900(10) 0.08851(11)
C25 C 0.3429(2) 0.52285(15) 0.08504(15)
C26 C 0.2610(2) 0.37032(17) 0.10697(18)
H32 H 0.2666 0.3164 0.0792
H33 H 0.2597 0.3599 0.1657
C27 C 0.1717(2) 0.47425(17) 0.11112(17)
H34 H 0.1752 0.4727 0.1710
H35 H 0.1104 0.4896 0.0929
C28 C 0.4406(3) 0.41817(19) 0.1011(2)
H36 H 0.4824 0.4525 0.0621
H37 H 0.4323 0.3565 0.0857
C29 C 0.4922(2) 0.43474(16) 0.1850(2)
C30 C 0.5939(3) 0.4631(2) 0.1957(4)
H38 H 0.6327 0.4751 0.1508
C31 C 0.6354(3) 0.4729(3) 0.2761(4)
H39 H 0.7036 0.4923 0.2861
C32 C 0.5796(3) 0.4552(2) 0.3385(3)
H40 H 0.6081 0.4608 0.3925
C33 C 0.4828(2) 0.42921(16) 0.3240(2)
C34 C 0.4195(3) 0.40786(19) 0.39428(19)
H41 H 0.4032 0.3445 0.4002
H42 H 0.4571 0.4343 0.4446
C35 C 0.3356(2) 0.52159(15) 0.39712(15)
C36 C 0.2391(3) 0.37659(19) 0.35643(19)
H43 H 0.2336 0.3766 0.2965
H44 H 0.2407 0.3174 0.3727
C37 C 0.1576(2) 0.48401(19) 0.36211(19)
H45 H 0.1042 0.5032 0.3865
H46 H 0.1461 0.4844 0.3025
C38 C 0.25215(19) 0.63637(16) 0.38517(16)
H47 H 0.2925 0.6658 0.4331
H48 H 0.1855 0.6438 0.3897
C39 C 0.29122(17) 0.68020(15) 0.30984(15)
C40 C 0.35391(18) 0.76137(15) 0.31536(16)
H49 H 0.3751 0.7893 0.3667
C41 C 0.38506(18) 0.80099(15) 0.24548(16)
H50 H 0.4285 0.8563 0.2478
C42 C 0.35197(18) 0.75885(15) 0.17208(16)
H51 H 0.3719 0.7850 0.1229
C43 C 0.28928(17) 0.67788(14) 0.17083(15)
C44 C 0.24913(19) 0.63094(15) 0.09106(15)
H52 H 0.1806 0.6339 0.0813
H53 H 0.2853 0.6617 0.0470
C45 C 0.1397(2) 0.36888(17) -0.00904(17)
C46 C 0.2197(3) 0.4012(2) -0.06762(18)
H54 H 0.2400 0.4643 -0.0635
H55 H 0.1945 0.3830 -0.1233
H56 H 0.2755 0.3767 -0.0532
C47 C 0.1091(3) 0.27046(19) -0.0182(2)
H57 H 0.1646 0.2461 -0.0029
H58 H 0.0862 0.2538 -0.0747
H59 H 0.0568 0.2485 0.0171
C48 C 0.0538(3) 0.4057(2) -0.0315(2)
H60 H 0.0027 0.3843 0.0051
H61 H 0.0294 0.3879 -0.0874
H62 H 0.0733 0.4688 -0.0267
C53 C 0.1343(2) 0.3733(2) 0.46959(18)
C54 C 0.2288(6) 0.3981(6) 0.5336(4)
H72 H 0.2564 0.4605 0.5337
H73 H 0.2772 0.3674 0.5178
H74 H 0.2097 0.3814 0.5880
C55 C 0.1111(10) 0.2733(6) 0.4704(11)
H75 H 0.0918 0.2542 0.5241
H76 H 0.1687 0.2533 0.4580
H77 H 0.0580 0.2494 0.4296
C56 C 0.0539(9) 0.4057(8) 0.4944(8)
H78 H 0.0758 0.4677 0.5073
H79 H 0.0287 0.3756 0.5424
H80 H 0.0027 0.3958 0.4502
N9 N 0.34641(18) 0.43879(13) 0.09331(14)
N10 N 0.17097(18) 0.39011(13) 0.07836(13)
N11 N 0.25373(15) 0.54078(12) 0.08612(13)
N12 N 0.43839(16) 0.41825(13) 0.24788(15)
N13 N 0.33140(19) 0.43640(13) 0.38642(14)
N14 N 0.1560(2) 0.39774(15) 0.38566(14)
N15 N 0.24987(16) 0.54532(13) 0.38714(13)
N16 N 0.25858(14) 0.63815(12) 0.23837(12)
O3 O 0.41638(13) 0.57921(11) 0.07359(11)
O4 O 0.41307(13) 0.57425(11) 0.41786(11)
O5 O 0.47124(19) 0.73312(13) 0.50935(13)
H81 H 0.496(3) 0.774(2) 0.477(2)
H82 H 0.455(2) 0.6861(16) 0.4790(18)
O6 O 0.46212(19) 0.73289(13) -0.01286(13)
H83 H 0.487(2) 0.7753(18) 0.0219(18)
H84 H 0.444(3) 0.6864(17) 0.015(2)
C57 C 0.9355(3) 0.8110(3) 0.25885(19)
H85 H 0.8999 0.8544 0.2615
C58 C 0.8926(3) 0.7277(3) 0.27298(18)
H86 H 0.8267 0.7129 0.2856
C59 C 0.9433(2) 0.6644(3) 0.26919(19)
H87 H 0.9123 0.6064 0.2792
C60 C 1.0386(2) 0.6846(3) 0.25105(19)
H88 H 1.0732 0.6404 0.2483
C61 C 1.0837(2) 0.7674(3) 0.23706(19)
H89 H 1.1498 0.7812 0.2251
C62 C 1.0330(3) 0.8325(3) 0.2402(2)
H90 H 1.0640 0.8905 0.2299
C63 C 0.9937(2) 0.1980(2) 0.2393(2)
H91 H 0.9486 0.2331 0.2306
C64 C 0.9720(2) 0.1270(2) 0.2883(2)
H92 H 0.9121 0.1136 0.3130
C65 C 1.0379(3) 0.07573(18) 0.3011(2)
H93 H 1.0231 0.0272 0.3345
C66 C 1.1255(3) 0.0954(2) 0.2649(3)
H94 H 1.1705 0.0603 0.2736
C67 C 1.1472(2) 0.1664(3) 0.2159(2)
H95 H 1.2070 0.1798 0.1912
C68 C 1.0813(3) 0.2177(2) 0.20314(19)
H96 H 1.0961 0.2662 0.1697
C69 C 0.7251(3) 0.2968(3) 0.2553(4)
H97 H 0.6694 0.2590 0.2740
C70 C 0.7283(3) 0.3157(3) 0.1737(3)
H98 H 0.6747 0.2909 0.1366
C71 C 0.8099(3) 0.3710(3) 0.1463(2)
H99 H 0.8121 0.3839 0.0906
C72 C 0.8883(3) 0.4072(3) 0.2006(3)
H100 H 0.9441 0.4450 0.1819
C73 C 0.8851(3) 0.3883(4) 0.2822(3)
H101 H 0.9387 0.4131 0.3193
C74 C 0.8036(4) 0.3330(4) 0.3095(3)
H102 H 0.8014 0.3201 0.3653
C75? C 0.8122(2) 1.0781(2) 0.0181(2)
C76? C 0.7552(9) 0.9900(8) -0.0378(7)
C77? C 0.7902(18) 1.1512(12) -0.0225(14)
C78? C 0.9146(11) 1.0675(18) 0.009(2)
C79? C 0.1343(2) 0.3733(2) 0.46959(18)
C80? C 0.1831(9) 0.4454(8) 0.5349(4)
C81? C 0.1461(12) 0.2852(8) 0.4836(15)
C82? C 0.0230(8) 0.3717(10) 0.4737(8)
C83? C 1.0171(8) 0.1338(10) 0.2101(8)
C84? C 1.0198(8) 0.1307(10) 0.2941(8)
C85? C 1.1033(10) 0.1210(10) 0.3378(6)
C86? C 1.1841(8) 0.1144(10) 0.2975(7)
C87? C 1.1813(8) 0.1174(9) 0.2135(7)
C88? C 1.0978(9) 0.1272(9) 0.1698(6)
C89? C 0.7390(8) 0.2895(11) 0.2420(10)
C90? C 0.7430(8) 0.3153(12) 0.1623(9)
C91? C 0.8320(10) 0.3499(10) 0.1317(6)
C92? C 0.9171(8) 0.3588(9) 0.1809(6)
C93? C 0.9131(8) 0.3330(9) 0.2607(6)
C94? C 0.8241(10) 0.2983(8) 0.2913(7)
H103? H 0.6857 0.9773 -0.0300
H104? H 0.7814 0.9409 -0.0210
H105? H 0.7652 1.0004 -0.0952
H106? H 0.7689 1.1884 0.0167
H107? H 0.7385 1.1310 -0.0653
H108? H 0.8483 1.1840 -0.0463
H109? H 0.9356 1.0879 -0.0437
H110? H 0.9155 1.0065 0.0133
H111? H 0.9587 1.1013 0.0522
H112? H 0.2536 0.4527 0.5376
H113? H 0.1592 0.4286 0.5879
H114? H 0.1670 0.4998 0.5200
H115? H 0.1131 0.2466 0.4384
H116? H 0.1178 0.2648 0.5342
H117? H 0.2153 0.2855 0.4876
H118? H 0.0130 0.4297 0.4646
H119? H 0.0023 0.3532 0.5273
H120? H -0.0153 0.3314 0.4319
H121? H 0.9600 0.1404 0.1802
H122? H 0.9647 0.1353 0.3216
H123? H 1.1052 0.1189 0.3952
H124? H 1.2411 0.1077 0.3274
H125? H 1.2365 0.1129 0.1860
H126? H 1.0960 0.1293 0.1124
H127? H 0.6782 0.2658 0.2629
H128? H 0.6848 0.3093 0.1286
H129? H 0.8347 0.3676 0.0772
H130? H 0.9779 0.3825 0.1600
H131? H 0.9713 0.3390 0.2943
H132? H 0.8214 0.2807 0.3458
loop_
_geom_bond_atom_site_label_1
_geom_bond_atom_site_label_2
_geom_bond_site_symmetry_1
_geom_bond_site_symmetry_2
C1 N1 1_555 1_555
C2 H1 1_555 1_555
H2 C2 1_555 1_555
C3 H3 1_555 1_555
H4 C3 1_555 1_555
C4 H5 1_555 1_555
H6 C4 1_555 1_555
C5 C4 1_555 1_555
C6 C5 1_555 1_555
H7 C6 1_555 1_555
C7 C6 1_555 1_555
H8 C7 1_555 1_555
C8 C7 1_555 1_555
H9 C8 1_555 1_555
C9 C8 1_555 1_555
C10 C9 1_555 1_555
H10 C10 1_555 1_555
H11 C10 1_555 1_555
C11 N5 1_555 1_555
C12 H12 1_555 1_555
H13 C12 1_555 1_555
C13 H14 1_555 1_555
H15 C13 1_555 1_555
C14 H16 1_555 1_555
H17 C14 1_555 1_555
C15 C14 1_555 1_555
C16 C15 1_555 1_555
H18 C16 1_555 1_555
C17 C16 1_555 1_555
H19 C17 1_555 1_555
C18 C17 1_555 1_555
H20 C18 1_555 1_555
C19 C18 1_555 1_555
C20 C19 1_555 1_555
H21 C20 1_555 1_555
H22 C20 1_555 1_555
C21 C22 1_555 1_555
C22 H23 1_555 1_555
H24 C22 1_555 1_555
H25 C22 1_555 1_555
C23 C21 1_555 1_555
H26 C23 1_555 1_555
H27 C23 1_555 1_555
H28 C23 1_555 1_555
C24 C21 1_555 1_555
H29 C24 1_555 1_555
H30 C24 1_555 1_555
H31 C24 1_555 1_555
C25 N9 1_555 1_555
C26 H32 1_555 1_555
H33 C26 1_555 1_555
C27 H34 1_555 1_555
H35 C27 1_555 1_555
C28 H36 1_555 1_555
H37 C28 1_555 1_555
C29 C28 1_555 1_555
C30 C29 1_555 1_555
H38 C30 1_555 1_555
C31 C30 1_555 1_555
H39 C31 1_555 1_555
C32 C31 1_555 1_555
H40 C32 1_555 1_555
C33 C32 1_555 1_555
C34 C33 1_555 1_555
H41 C34 1_555 1_555
H42 C34 1_555 1_555
C35 N13 1_555 1_555
C36 H43 1_555 1_555
H44 C36 1_555 1_555
C37 H45 1_555 1_555
H46 C37 1_555 1_555
C38 H47 1_555 1_555
H48 C38 1_555 1_555
C39 C38 1_555 1_555
C40 C39 1_555 1_555
H49 C40 1_555 1_555
C41 C40 1_555 1_555
H50 C41 1_555 1_555
C42 C41 1_555 1_555
H51 C42 1_555 1_555
C43 C42 1_555 1_555
C44 C43 1_555 1_555
H52 C44 1_555 1_555
H53 C44 1_555 1_555
C45 C46 1_555 1_555
C46 H54 1_555 1_555
H55 C46 1_555 1_555
H56 C46 1_555 1_555
C47 C45 1_555 1_555
H57 C47 1_555 1_555
H58 C47 1_555 1_555
H59 C47 1_555 1_555
C48 C45 1_555 1_555
H60 C48 1_555 1_555
H61 C48 1_555 1_555
H62 C48 1_555 1_555
C49 C50 1_555 1_555
C50 H63 1_555 1_555
H64 C50 1_555 1_555
H65 C50 1_555 1_555
C51 C49 1_555 1_555
H66 C51 1_555 1_555
H67 C51 1_555 1_555
H68 C51 1_555 1_555
C52 C49 1_555 1_555
H69 C52 1_555 1_555
H70 C52 1_555 1_555
H71 C52 1_555 1_555
C53 C54 1_555 1_555
C54 H72 1_555 1_555
H73 C54 1_555 1_555
H74 C54 1_555 1_555
C55 C53 1_555 1_555
H75 C55 1_555 1_555
H76 C55 1_555 1_555
H77 C55 1_555 1_555
C56 C53 1_555 1_555
H78 C56 1_555 1_555
H79 C56 1_555 1_555
H80 C56 1_555 1_555
N1 C2 1_555 1_555
N2 C2 1_555 1_555
N3 C1 1_555 1_555
N4 C5 1_555 1_555
N5 C10 1_555 1_555
N6 C12 1_555 1_555
N7 C11 1_555 1_555
N8 C15 1_555 1_555
N9 C26 1_555 1_555
N10 C26 1_555 1_555
N11 C25 1_555 1_555
N12 C29 1_555 1_555
N13 C34 1_555 1_555
N14 C36 1_555 1_555
N15 C35 1_555 1_555
N16 C39 1_555 1_555
O1 C1 1_555 1_555
O2 C11 1_555 1_555
O3 C25 1_555 1_555
O4 C35 1_555 1_555
O5 H81 1_555 1_555
H82 O5 1_555 1_555
O6 H83 1_555 1_555
H84 O6 1_555 1_555
C57 H85 1_555 1_555
C58 C57 1_555 1_555
H86 C58 1_555 1_555
C59 C58 1_555 1_555
H87 C59 1_555 1_555
C60 C59 1_555 1_555
H88 C60 1_555 1_555
C61 C60 1_555 1_555
H89 C61 1_555 1_555
C62 C57 1_555 1_555
H90 C62 1_555 1_555
C63 H91 1_555 1_555
C64 C63 1_555 1_555
H92 C64 1_555 1_555
C65 C64 1_555 1_555
H93 C65 1_555 1_555
C66 C65 1_555 1_555
H94 C66 1_555 1_555
C67 C66 1_555 1_555
H95 C67 1_555 1_555
C68 C63 1_555 1_555
H96 C68 1_555 1_555
C69 H97 1_555 1_555
C70 C69 1_555 1_555
H98 C70 1_555 1_555
C71 C70 1_555 1_555
H99 C71 1_555 1_555
C72 C71 1_555 1_555
H100 C72 1_555 1_555
C73 C72 1_555 1_555
H101 C73 1_555 1_555
C74 C69 1_555 1_555
H102 C74 1_555 1_555
C3 N2 1_555 1_555
C3 N3 1_555 1_555
C4 N1 1_555 1_555
C9 N4 1_555 1_555
C12 N5 1_555 1_555
C13 N6 1_555 1_555
C13 N7 1_555 1_555
C14 N7 1_555 1_555
C19 N8 1_555 1_555
C20 N3 1_555 1_555
C21 N2 1_555 1_555
C27 N10 1_555 1_555
C27 N11 1_555 1_555
C28 N9 1_555 1_555
C33 N12 1_555 1_555
C36 N13 1_555 1_555
C37 N14 1_555 1_555
C37 N15 1_555 1_555
C38 N15 1_555 1_555
C43 N16 1_555 1_555
C44 N11 1_555 1_555
C45 N10 1_555 1_555
C49 N6 1_555 1_555
C53 N14 1_555 1_555
C61 C62 1_555 1_555
C67 C68 1_555 1_555
C73 C74 1_555 1_555

#END
