
#######################################################################
#
#                 Cambridge Crystallographic Data Centre
#                                CCDC 
#
#######################################################################
#
# If this CIF has been generated from an entry in the Cambridge 
# Structural Database, then it will include bibliographic, chemical, 
# crystal, experimental, refinement or atomic coordinate data resulting 
# from the CCDC's data processing and validation procedures.
#
#######################################################################

data_MAMNEV
_chemical_formula_moiety         'C42 H60 N12 O3,1.24(C1 H2 Cl2)'
_chemical_name_systematic        
'11,23,35-Tri-t-butyl-1,9,11,13,21,23,25,33,35,38,40,42-dodecaazaheptacyclo[31.3.1.1^3,7^.1^9,13^.1^15,19^.1^21,25^.1^27,31^]dotetraconta-3(42),4,6,15(40),16,18,27(38),28,30-nonaene-37,39,41-trione dichloromethane solvate'
_symmetry_cell_setting           triclinic
_symmetry_space_group_name_H-M   'P -1'
_symmetry_Int_Tables_number      2
_space_group_name_Hall           '-P 1'
loop_
_symmetry_equiv_pos_site_id
_symmetry_equiv_pos_as_xyz
1 x,y,z
2 -x,-y,-z
_cell_length_a                   10.9600(4)
_cell_length_b                   13.0521(5)
_cell_length_c                   17.2061(6)
_cell_angle_alpha                98.316(1)
_cell_angle_beta                 101.925(1)
_cell_angle_gamma                90.848(1)
_cell_volume                     2380.37
_exptl_crystal_colour            colorless
_exptl_crystal_description       block
_cell_formula_units_Z            2
loop_
_atom_site_label
_atom_site_type_symbol
_atom_site_fract_x
_atom_site_fract_y
_atom_site_fract_z
C1 C 0.6197(2) 0.85488(18) 0.39801(14)
C2 C 0.8279(2) 0.83557(18) 0.47756(16)
H1 H 0.8815 0.8653 0.4458
H2 H 0.8703 0.8507 0.5349
C3 C 0.7541(2) 0.70664(19) 0.36963(15)
H3 H 0.7296 0.6320 0.3536
H4 H 0.8150 0.7240 0.3378
C4 C 0.7668(2) 0.65945(18) 0.50683(15)
C5 C 0.6290(3) 0.6664(2) 0.5079(2)
H5 H 0.6118 0.7379 0.5275
H6 H 0.6069 0.6203 0.5436
H7 H 0.5794 0.6455 0.4534
C6 C 0.8433(3) 0.6900(2) 0.59161(16)
H8 H 0.9324 0.6888 0.5907
H9 H 0.8236 0.6409 0.6258
H10 H 0.8233 0.7600 0.6130
C7 C 0.7929(3) 0.54634(19) 0.47882(18)
H11 H 0.7419 0.5232 0.4250
H12 H 0.7720 0.5025 0.5163
H13 H 0.8815 0.5411 0.4772
C8 C 0.5596(2) 0.73433(19) 0.27238(14)
H14 H 0.6089 0.7275 0.2299
H15 H 0.4978 0.7876 0.2611
C9 C 0.4921(2) 0.6324(2) 0.27018(14)
C10 C 0.3927(2) 0.6255(2) 0.30693(16)
H16 H 0.3625 0.6860 0.3331
C11 C 0.3378(3) 0.5290(2) 0.30511(17)
H17 H 0.2695 0.5220 0.3304
C12 C 0.3834(3) 0.4431(2) 0.26613(17)
H18 H 0.3471 0.3761 0.2642
C13 C 0.4823(2) 0.4557(2) 0.22994(15)
C14 C 0.5345(3) 0.3631(2) 0.18539(18)
H19 H 0.5661 0.3153 0.2239
H20 H 0.4656 0.3258 0.1441
C15 C 0.7517(3) 0.40762(19) 0.19431(16)
C16 C 0.5961(3) 0.4378(2) 0.07398(16)
H21 H 0.5268 0.3954 0.0367
H22 H 0.5646 0.5069 0.0893
C17 C 0.7966(3) 0.5064(2) 0.09046(17)
H23 H 0.7703 0.5770 0.1069
H24 H 0.8687 0.5130 0.0648
C18 C 0.7297(3) 0.3605(2) -0.02102(17)
C19 C 0.8175(4) 0.2862(3) 0.02108(19)
H25 H 0.8983 0.3223 0.0456
H26 H 0.8293 0.2269 -0.0182
H27 H 0.7812 0.2616 0.0629
C20 C 0.6093(4) 0.2978(3) -0.0652(2)
H28 H 0.5762 0.2616 -0.0274
H29 H 0.6275 0.2471 -0.1087
H30 H 0.5473 0.3448 -0.0878
C21 C 0.7851(4) 0.4052(4) -0.0826(2)
H31 H 0.7279 0.4540 -0.1074
H32 H 0.7982 0.3491 -0.1241
H33 H 0.8652 0.4415 -0.0565
C22 C 0.9663(3) 0.4631(2) 0.20291(16)
H34 H 1.0185 0.4579 0.1621
H35 H 0.9834 0.4034 0.2325
C23 C 1.0039(2) 0.5616(2) 0.26088(17)
C24 C 1.0198(2) 0.5646(2) 0.34253(17)
H36 H 1.0039 0.5040 0.3641
C25 C 1.0587(3) 0.6558(3) 0.39239(19)
H37 H 1.0724 0.6590 0.4491
C26 C 1.0777(3) 0.7427(3) 0.3591(2)
H38 H 1.1043 0.8070 0.3925
C27 C 1.0576(3) 0.7355(2) 0.2765(2)
C28 C 1.0697(3) 0.8290(2) 0.2359(2)
H39 H 1.1445 0.8722 0.2655
H40 H 1.0810 0.8059 0.1805
C29 C 0.9690(3) 0.9882(2) 0.27639(16)
C30 C 0.8426(3) 0.8398(2) 0.18525(19)
H41 H 0.8594 0.7979 0.1362
H42 H 0.8105 0.7919 0.2168
C31 C 0.7414(3) 0.9799(2) 0.23330(19)
H43 H 0.7149 0.9401 0.2722
H44 H 0.6769 1.0303 0.2192
C32 C 0.7645(6) 0.9378(5) 0.0822(3)
C33 C 0.8878(6) 0.9849(6) 0.0791(4)
H45 H 0.9075 1.0470 0.1197
H46 H 0.8844 1.0039 0.0256
H47 H 0.9525 0.9348 0.0899
C34 C 0.7284(7) 0.8472(5) 0.0159(4)
H48 H 0.7899 0.7938 0.0236
H49 H 0.7261 0.8703 -0.0361
H50 H 0.6458 0.8184 0.0170
C35 C 0.6644(6) 1.0182(6) 0.0688(4)
H51 H 0.5915 0.9975 0.0887
H52 H 0.6395 1.0222 0.0113
H53 H 0.6982 1.0861 0.0979
C36 C 0.8597(3) 1.1406(2) 0.31348(19)
H54 H 0.8242 1.1860 0.2739
H55 H 0.9470 1.1658 0.3370
C37 C 0.7866(2) 1.15139(19) 0.37969(16)
C38 C 0.7357(2) 1.24530(19) 0.40057(16)
H56 H 0.7471 1.3028 0.3742
C39 C 0.6682(2) 1.25376(19) 0.46023(16)
H57 H 0.6331 1.3175 0.4762
C40 C 0.6524(2) 1.16786(18) 0.49652(15)
H58 H 0.6044 1.1712 0.5369
C41 C 0.7073(2) 1.07743(18) 0.47315(15)
C42 C 0.6953(3) 0.98408(17) 0.51429(14)
H59 H 0.7601 0.9913 0.5645
H60 H 0.6129 0.9837 0.5294
N1 N 0.70732(19) 0.88503(14) 0.46612(11)
N2 N 0.81325(19) 0.72448(15) 0.45317(12)
N3 N 0.64251(19) 0.76775(15) 0.35009(12)
N4 N 0.5376(2) 0.54902(16) 0.23209(12)
N5 N 0.6341(2) 0.38861(16) 0.14657(13)
N6 N 0.6960(2) 0.44971(16) 0.03303(12)
N7 N 0.8358(2) 0.45611(15) 0.16230(12)
N8 N 1.0214(2) 0.64602(17) 0.22693(14)
N9 N 0.9600(2) 0.89065(17) 0.23290(15)
N10 N 0.7490(3) 0.9104(2) 0.16244(14)
N11 N 0.8605(2) 1.03700(16) 0.27181(13)
N12 N 0.7743(2) 1.06825(15) 0.41550(13)
O1 O 0.52310(16) 0.90267(12) 0.38124(10)
O2 O 0.78117(19) 0.37696(15) 0.25938(11)
O3 O 1.07026(17) 1.02834(13) 0.31472(11)
C43 C 0.3462(3) 0.0342(2) 0.26862(17)
H61 H 0.2632 0.0457 0.2817
H62 H 0.3924 -0.0088 0.3068
Cl1 Cl 0.32681(11) -0.03236(8) 0.17090(6)
Cl2 Cl 0.42647(11) 0.15210(8) 0.28013(8)
C44 C 0.1415(14) 0.1980(11) 0.1017(8)
H63 H 0.0704 0.1605 0.0624
H64 H 0.2144 0.1539 0.1031
Cl3 Cl 0.1761(4) 0.3146(3) 0.0680(2)
Cl4 Cl 0.1053(3) 0.2143(2) 0.1941(2)
C45? C 0.7308(8) 0.9744(7) 0.0925(4)
C46? C 0.8558(8) 1.0175(8) 0.0827(6)
C47? C 0.6605(11) 0.8979(8) 0.0227(5)
C48? C 0.6475(8) 1.0709(8) 0.0982(6)
H65? H 0.9172 0.9637 0.0875
H66? H 0.8846 1.0771 0.1246
H67? H 0.8459 1.0395 0.0298
H68? H 0.6715 0.8274 0.0353
H69? H 0.6929 0.9046 -0.0254
H70? H 0.5716 0.9123 0.0129
H71? H 0.6209 1.0911 0.0447
H72? H 0.6957 1.1288 0.1349
H73? H 0.5738 1.0532 0.1184
loop_
_geom_bond_atom_site_label_1
_geom_bond_atom_site_label_2
_geom_bond_site_symmetry_1
_geom_bond_site_symmetry_2
C1 N1 1_555 1_555
C2 H1 1_555 1_555
H2 C2 1_555 1_555
C3 H3 1_555 1_555
H4 C3 1_555 1_555
C4 C5 1_555 1_555
C5 H5 1_555 1_555
H6 C5 1_555 1_555
H7 C5 1_555 1_555
C6 C4 1_555 1_555
H8 C6 1_555 1_555
H9 C6 1_555 1_555
H10 C6 1_555 1_555
C7 C4 1_555 1_555
H11 C7 1_555 1_555
H12 C7 1_555 1_555
H13 C7 1_555 1_555
C8 H14 1_555 1_555
H15 C8 1_555 1_555
C9 C8 1_555 1_555
C10 C9 1_555 1_555
H16 C10 1_555 1_555
C11 C10 1_555 1_555
H17 C11 1_555 1_555
C12 C11 1_555 1_555
H18 C12 1_555 1_555
C13 C12 1_555 1_555
C14 C13 1_555 1_555
H19 C14 1_555 1_555
H20 C14 1_555 1_555
C15 N5 1_555 1_555
C16 H21 1_555 1_555
H22 C16 1_555 1_555
C17 H23 1_555 1_555
H24 C17 1_555 1_555
C18 C19 1_555 1_555
C19 H25 1_555 1_555
H26 C19 1_555 1_555
H27 C19 1_555 1_555
C20 C18 1_555 1_555
H28 C20 1_555 1_555
H29 C20 1_555 1_555
H30 C20 1_555 1_555
C21 C18 1_555 1_555
H31 C21 1_555 1_555
H32 C21 1_555 1_555
H33 C21 1_555 1_555
C22 H34 1_555 1_555
H35 C22 1_555 1_555
C23 C22 1_555 1_555
C24 C23 1_555 1_555
H36 C24 1_555 1_555
C25 C24 1_555 1_555
H37 C25 1_555 1_555
C26 C25 1_555 1_555
H38 C26 1_555 1_555
C27 C26 1_555 1_555
C28 C27 1_555 1_555
H39 C28 1_555 1_555
H40 C28 1_555 1_555
C29 N9 1_555 1_555
C30 H41 1_555 1_555
H42 C30 1_555 1_555
C31 H43 1_555 1_555
H44 C31 1_555 1_555
C32 C33 1_555 1_555
C33 H45 1_555 1_555
H46 C33 1_555 1_555
H47 C33 1_555 1_555
C34 C32 1_555 1_555
H48 C34 1_555 1_555
H49 C34 1_555 1_555
H50 C34 1_555 1_555
C35 C32 1_555 1_555
H51 C35 1_555 1_555
H52 C35 1_555 1_555
H53 C35 1_555 1_555
C36 H54 1_555 1_555
H55 C36 1_555 1_555
C37 C36 1_555 1_555
C38 C37 1_555 1_555
H56 C38 1_555 1_555
C39 C38 1_555 1_555
H57 C39 1_555 1_555
C40 C39 1_555 1_555
H58 C40 1_555 1_555
C41 C40 1_555 1_555
C42 C41 1_555 1_555
H59 C42 1_555 1_555
H60 C42 1_555 1_555
N1 C2 1_555 1_555
N2 C2 1_555 1_555
N3 C1 1_555 1_555
N4 C9 1_555 1_555
N5 C14 1_555 1_555
N6 C16 1_555 1_555
N7 C15 1_555 1_555
N8 C23 1_555 1_555
N9 C28 1_555 1_555
N10 C30 1_555 1_555
N11 C29 1_555 1_555
N12 C37 1_555 1_555
O1 C1 1_555 1_555
O2 C15 1_555 1_555
O3 C29 1_555 1_555
C43 H61 1_555 1_555
H62 C43 1_555 1_555
Cl1 C43 1_555 1_555
Cl2 C43 1_555 1_555
C44 H63 1_555 1_555
H64 C44 1_555 1_555
Cl3 C44 1_555 1_555
Cl4 C44 1_555 1_555
C3 N2 1_555 1_555
C3 N3 1_555 1_555
C4 N2 1_555 1_555
C8 N3 1_555 1_555
C13 N4 1_555 1_555
C16 N5 1_555 1_555
C17 N6 1_555 1_555
C17 N7 1_555 1_555
C18 N6 1_555 1_555
C22 N7 1_555 1_555
C27 N8 1_555 1_555
C30 N9 1_555 1_555
C31 N10 1_555 1_555
C31 N11 1_555 1_555
C32 N10 1_555 1_555
C36 N11 1_555 1_555
C41 N12 1_555 1_555
C42 N1 1_555 1_555

#END
