
#######################################################################
#
#                 Cambridge Crystallographic Data Centre
#                                CCDC 
#
#######################################################################
#
# If this CIF has been generated from an entry in the Cambridge 
# Structural Database, then it will include bibliographic, chemical, 
# crystal, experimental, refinement or atomic coordinate data resulting 
# from the CCDC's data processing and validation procedures.
#
#######################################################################

data_MAMNOF
_chemical_formula_moiety         
'C113 H182 Cl4 N32 Na6 O34 2+,2(Cl1 O4 1-),4(C1 H4 O1),6(H2 O1)'
_chemical_name_systematic        
"octakis(\m~2~-Aqua)-bis(\m~2~-11,23,35,47-tetra-t-butyl-1,9,11,13,21,23,25,33,35,37,45,47,50,52,54,56-hexadecaazanonacyclo[43.3.1.1^3,7^.1^9,13^.1^15,19^.1^21,25^.1^27,31^.1^33,37^.1^39,43^]hexapentaconta-3(56),4,6,15(54),16,18,27(52),28,30,39(50),40,42-dodecaene-49,51,53,55-tetrone)-bis(\m~2~-perchlorato-O,O')-aqua-methanol bis(perchlorato-O)-hexa-sodium diperchlorate methanol solvate hexahydrate"
_symmetry_cell_setting           triclinic
_symmetry_space_group_name_H-M   'P -1'
_symmetry_Int_Tables_number      2
_space_group_name_Hall           '-P 1'
loop_
_symmetry_equiv_pos_site_id
_symmetry_equiv_pos_as_xyz
1 x,y,z
2 -x,-y,-z
_cell_length_a                   14.4465(6)
_cell_length_b                   15.4789(6)
_cell_length_c                   19.1776(7)
_cell_angle_alpha                78.228(1)
_cell_angle_beta                 69.194(1)
_cell_angle_gamma                84.717(1)
_cell_volume                     3923.55
_exptl_crystal_colour            colorless
_exptl_crystal_description       block
_cell_formula_units_Z            1
loop_
_atom_site_label
_atom_site_type_symbol
_atom_site_fract_x
_atom_site_fract_y
_atom_site_fract_z
Cl5 Cl 0.7562(5) 0.8843(5) 0.7624(4)
O25 O 0.7303(6) 0.9282(5) 0.6978(4)
O26 O 0.8529(4) 0.9099(4) 0.7540(4)
O27 O 0.6808(5) 0.9073(5) 0.8263(3)
O28 O 0.7563(7) 0.7911(5) 0.7716(6)
O35 O 0.57553(15) 0.59521(14) 0.84356(12)
H98 H 0.5635 0.5487 0.8764
H99 H 0.5275 0.6306 0.8564
O36 O 0.86365(16) 0.00551(15) 0.15425(13)
H100 H 0.8600 0.0377 0.1855
H101 H 0.9138 -0.0258 0.1559
O37 O 0.8324(2) 0.09058(18) 0.27628(16)
H102 H 0.8454 0.1406 0.2806
H103 H 0.7737 0.0762 0.3021
O38 O 0.33489(18) 0.01315(17) 0.63997(15)
H104 H 0.3853 0.0334 0.6426
C62 C 0.2758(3) 0.0881(3) 0.6232(2)
H105 H 0.2548 0.1210 0.6651
H106 H 0.2173 0.0684 0.6167
H107 H 0.3147 0.1264 0.5763
O39 O 0.2944(4) 0.1058(4) 0.8056(3)
H108 H 0.2487 0.0695 0.8193
C63 C 0.2573(7) 0.1659(6) 0.8590(5)
H109 H 0.2193 0.1329 0.9091
H110 H 0.2145 0.2113 0.8415
H111 H 0.3132 0.1940 0.8626
Na1 Na 0.56755(7) 0.36460(6) 0.81853(5)
Na2 Na 0.90780(7) 0.35274(6) 0.56627(5)
Na3 Na 0.73930(8) 0.51777(7) 0.65700(7)
C1 C 0.56454(17) 0.24293(16) 0.69928(12)
C2 C 0.45971(18) 0.19565(16) 0.63915(14)
H1 H 0.3954 0.1888 0.6814
H2 H 0.4459 0.2150 0.5912
C3 C 0.5295(2) 0.08522(16) 0.70890(14)
H3 H 0.5742 0.0326 0.7063
H4 H 0.4660 0.0687 0.7503
C4 C 0.5974(2) 0.09937(17) 0.56668(14)
C5 C 0.6943(2) 0.1388(2) 0.55941(16)
H5 H 0.6849 0.2025 0.5583
H6 H 0.7461 0.1281 0.5124
H7 H 0.7141 0.1112 0.6029
C6 C 0.5684(2) 0.1409(2) 0.49745(15)
H8 H 0.5019 0.1223 0.5053
H9 H 0.6159 0.1217 0.4521
H10 H 0.5689 0.2054 0.4907
C7 C 0.6121(2) -0.00043(18) 0.56855(17)
H11 H 0.6324 -0.0279 0.6118
H12 H 0.6636 -0.0113 0.5214
H13 H 0.5498 -0.0258 0.5736
C8 C 0.61577(18) 0.13269(17) 0.78832(14)
H14 H 0.6654 0.1766 0.7816
H15 H 0.6499 0.0743 0.7856
C9 C 0.53597(18) 0.12920(16) 0.86537(13)
C10 C 0.4826(2) 0.05253(18) 0.90050(15)
H16 H 0.4989 0.0013 0.8781
C11 C 0.4056(2) 0.0521(2) 0.96839(16)
H17 H 0.3668 0.0010 0.9928
C12 C 0.3860(2) 0.1266(2) 1.00012(15)
H18 H 0.3329 0.1281 1.0466
C13 C 0.44448(18) 0.19953(18) 0.96335(13)
C14 C 0.42889(18) 0.28104(19) 0.99898(14)
H19 H 0.4148 0.3327 0.9640
H20 H 0.3709 0.2729 1.0466
C15 C 0.57083(18) 0.37111(17) 0.97899(13)
C16 C 0.5430(2) 0.23125(18) 1.07131(16)
H21 H 0.5950 0.1907 1.0454
H22 H 0.4844 0.1962 1.1047
C17 C 0.6678(2) 0.32322(19) 1.06513(15)
H23 H 0.7207 0.2804 1.0445
H24 H 0.6917 0.3576 1.0934
C18 C 0.5956(2) 0.21523(17) 1.18378(16)
C19 C 0.6856(6) 0.1512(4) 1.1579(3)
H25 H 0.6766 0.1196 1.1214
H26 H 0.6901 0.1086 1.2021
H27 H 0.7465 0.1850 1.1339
C20 C 0.5052(4) 0.1616(4) 1.2267(3)
H28 H 0.4467 0.2009 1.2383
H29 H 0.5112 0.1278 1.2741
H30 H 0.4985 0.1209 1.1959
C21 C 0.6142(5) 0.2721(3) 1.2328(3)
H31 H 0.6723 0.3083 1.2031
H32 H 0.6261 0.2342 1.2766
H33 H 0.5563 0.3106 1.2506
C26 C 0.70946(18) 0.46011(17) 0.96778(14)
H43 H 0.6990 0.4979 1.0059
H44 H 0.6899 0.4950 0.9257
C27 C 0.81805(18) 0.43464(16) 0.93756(14)
C28 C 0.87945(19) 0.43937(17) 0.97837(14)
H45 H 0.8537 0.4580 1.0260
C29 C 0.9787(2) 0.41651(18) 0.94854(15)
H46 H 1.0220 0.4183 0.9757
C30 C 1.01382(19) 0.39099(18) 0.87830(15)
H47 H 1.0819 0.3759 0.8562
C31 C 0.94838(18) 0.38776(16) 0.84086(14)
C32 C 0.98455(19) 0.35944(17) 0.76415(14)
H48 H 0.9528 0.3976 0.7305
H49 H 1.0570 0.3672 0.7405
C33 C 0.91483(17) 0.24456(16) 0.72770(13)
C34 C 1.0216(2) 0.19947(18) 0.80369(15)
H50 H 1.0869 0.1930 0.7642
H51 H 1.0329 0.2194 0.8459
C35 C 0.9597(2) 0.08792(18) 0.76856(15)
H52 H 0.9189 0.0344 0.7876
H53 H 1.0246 0.0725 0.7326
C36 C 0.8905(2) 0.1014(2) 0.90669(15)
C37 C 0.7921(2) 0.1447(2) 0.90334(17)
H54 H 0.8004 0.2086 0.8860
H55 H 0.7413 0.1332 0.9540
H56 H 0.7718 0.1202 0.8679
C38 C 0.9215(3) 0.1394(3) 0.96292(18)
H57 H 0.9897 0.1205 0.9582
H58 H 0.8772 0.1180 1.0148
H59 H 0.9172 0.2040 0.9516
C39 C 0.8772(3) 0.0024(2) 0.9345(2)
H60 H 0.8497 -0.0215 0.9026
H61 H 0.8318 -0.0088 0.9872
H62 H 0.9415 -0.0263 0.9316
C40 C 0.86988(18) 0.13094(16) 0.67549(13)
H63 H 0.8204 0.1758 0.6657
H64 H 0.8356 0.0743 0.6995
C41 C 0.94944(18) 0.12058(16) 0.60088(13)
C42 C 1.0086(2) 0.04426(17) 0.59558(15)
H65 H 0.9973 -0.0027 0.6380
C43 C 1.0834(2) 0.03771(18) 0.52831(16)
H66 H 1.1256 -0.0132 0.5239
C44 C 1.0966(2) 0.10614(18) 0.46711(15)
H67 H 1.1474 0.1028 0.4199
C45 C 1.03402(17) 0.17984(16) 0.47597(13)
C46 C 1.04722(18) 0.25626(17) 0.41065(13)
H68 H 1.0630 0.3094 0.4252
H69 H 1.1044 0.2430 0.3667
C47 C 0.90328(17) 0.34901(16) 0.40350(12)
C48 C 0.9437(2) 0.21725(16) 0.34167(14)
H70 H 1.0084 0.1933 0.3119
H71 H 0.9035 0.1669 0.3760
C49 C 0.80568(18) 0.30408(18) 0.33498(15)
H72 H 0.7604 0.2582 0.3715
H73 H 0.7712 0.3374 0.3011
C50 C 0.95884(19) 0.31370(18) 0.21589(14)
C51 C 1.0346(2) 0.3702(2) 0.22352(17)
H74 H 1.0001 0.4128 0.2561
H75 H 1.0737 0.4019 0.1732
H76 H 1.0786 0.3322 0.2461
C52 C 1.0128(3) 0.2463(2) 0.16598(17)
H77 H 1.0501 0.2041 0.1921
H78 H 1.0586 0.2768 0.1178
H79 H 0.9644 0.2147 0.1561
C53 C 0.8949(2) 0.3730(2) 0.17676(17)
H80 H 0.8439 0.3378 0.1738
H81 H 0.9364 0.3998 0.1254
H82 H 0.8633 0.4195 0.2059
C54 C 0.76299(18) 0.44373(16) 0.38838(14)
H83 H 0.7723 0.4824 0.3386
H84 H 0.7831 0.4768 0.4196
C55 C 0.65476(17) 0.42152(15) 0.42701(13)
C56 C 0.59293(19) 0.42572(17) 0.38510(14)
H85 H 0.6184 0.4415 0.3313
C57 C 0.49393(19) 0.40671(18) 0.42244(15)
H86 H 0.4505 0.4085 0.3948
C58 C 0.45923(18) 0.38510(17) 0.50071(14)
H87 H 0.3912 0.3732 0.5279
C59 C 0.52512(17) 0.38109(15) 0.53896(13)
C60 C 0.48989(18) 0.35570(16) 0.62481(14)
H88 H 0.5203 0.3947 0.6453
H89 H 0.4171 0.3641 0.6457
N1 N 0.51623(15) 0.26382(13) 0.64861(11)
N2 N 0.51166(15) 0.11136(13) 0.63755(11)
N3 N 0.57458(15) 0.15657(13) 0.72685(11)
N4 N 0.51822(14) 0.20223(13) 0.89619(11)
N5 N 0.51643(16) 0.29768(15) 1.01539(11)
N6 N 0.57944(15) 0.27618(14) 1.11625(11)
N7 N 0.64608(15) 0.38282(15) 1.00273(11)
N8 N 0.85144(15) 0.40851(13) 0.86995(11)
N9 N 0.96170(15) 0.26716(14) 0.77137(12)
N10 N 0.97467(17) 0.11466(15) 0.83161(12)
N11 N 0.91024(15) 0.15750(14) 0.72784(11)
N12 N 0.96169(14) 0.18819(13) 0.54201(11)
N13 N 0.96020(15) 0.27569(13) 0.38768(11)
N14 N 0.89367(15) 0.26171(14) 0.29006(11)
N15 N 0.82698(15) 0.36476(14) 0.37694(11)
N16 N 0.62167(14) 0.39839(13) 0.50319(11)
O1 O 0.60284(12) 0.30052(11) 0.71677(9)
O2 O 0.55198(13) 0.42441(12) 0.92711(10)
O3 O 0.87288(12) 0.30097(11) 0.69179(9)
O4 O 0.92190(12) 0.40044(11) 0.43907(9)
O5 O 0.55897(13) 0.51123(12) 0.73635(10)
H90 H 0.4976 0.5073 0.7473
H91 H 0.5611 0.5433 0.7661
O6 O 0.73528(13) 0.40852(13) 0.77169(10)
H92 H 0.7607 0.4101 0.8046
H93 H 0.7758 0.3717 0.7497
O7 O 0.91041(13) 0.50422(12) 0.58202(10)
H94 H 0.9579 0.5263 0.5873
H95 H 0.9101 0.5301 0.5391
O8 O 0.73915(12) 0.39702(12) 0.59744(10)
H96 H 0.7082 0.4020 0.5670
H97 H 0.6999 0.3638 0.6342
Cl1 Cl 0.30687(4) 0.42374(4) 0.83436(3)
O9 O 0.39221(14) 0.36704(14) 0.82899(13)
O10 O 0.23655(16) 0.40531(17) 0.90910(11)
O11 O 0.26429(15) 0.40993(16) 0.78088(11)
O12 O 0.33755(17) 0.51374(13) 0.81663(15)
Cl2 Cl 0.82104(7) 0.66658(7) 0.45436(7)
O13 O 0.7572(2) 0.6085(2) 0.51807(16)
O14 O 1.0776(4) 0.3651(4) 0.5566(5)
O15 O 0.7968(5) 0.6635(6) 0.3902(4)
O16 O 0.8152(4) 0.7549(2) 0.4665(3)
O34 O 0.7285(4) 0.6520(4) 0.6905(3)
C61 C 0.6931(7) 0.7266(6) 0.6520(5)
Na1A Na 1.43245(7) 0.63540(6) 0.18147(5)
Na2A Na 1.09220(7) 0.64726(6) 0.43373(5)
Na3A Na 1.26070(8) 0.48223(7) 0.34300(7)
C1A C 1.43546(17) 0.75707(16) 0.30072(12)
C2A C 1.54029(18) 0.80435(16) 0.36085(14)
H1A H 1.6046 0.8112 0.3186
H2A H 1.5541 0.7850 0.4088
C3A C 1.4705(2) 0.91478(16) 0.29110(14)
H3A H 1.4258 0.9674 0.2937
H4A H 1.5340 0.9313 0.2497
C4A C 1.4026(2) 0.90063(17) 0.43332(14)
C5A C 1.3057(2) 0.8612(2) 0.44059(16)
H5A H 1.3151 0.7975 0.4417
H6A H 1.2539 0.8719 0.4876
H7A H 1.2859 0.8888 0.3971
C6A C 1.4316(2) 0.8591(2) 0.50255(15)
H8A H 1.4981 0.8777 0.4947
H9A H 1.3841 0.8783 0.5479
H10A H 1.4311 0.7946 0.5093
C7A C 1.3879(2) 1.00043(18) 0.43145(17)
H11A H 1.3676 1.0279 0.3882
H12A H 1.3364 1.0113 0.4786
H13A H 1.4502 1.0258 0.4264
C8A C 1.38423(18) 0.86731(17) 0.21168(14)
H14A H 1.3346 0.8234 0.2184
H15A H 1.3501 0.9257 0.2144
C9A C 1.46403(18) 0.87080(16) 0.13463(13)
C10A C 1.5174(2) 0.94747(18) 0.09950(15)
H16A H 1.5011 0.9987 0.1219
C11A C 1.5944(2) 0.9479(2) 0.03161(16)
H17A H 1.6332 0.9990 0.0072
C12A C 1.6140(2) 0.8734(2) -0.00012(15)
H18A H 1.6671 0.8719 -0.0466
C13A C 1.55552(18) 0.80047(18) 0.03665(13)
C14A C 1.57111(18) 0.71896(19) 0.00102(14)
H19A H 1.5852 0.6673 0.0360
H20A H 1.6291 0.7271 -0.0466
C15A C 1.42917(18) 0.62889(17) 0.02101(13)
C16A C 1.4570(2) 0.76875(18) -0.07131(16)
H21A H 1.4050 0.8093 -0.0454
H22A H 1.5156 0.8038 -0.1047
C17A C 1.3322(2) 0.67678(19) -0.06513(15)
H23A H 1.2793 0.7196 -0.0445
H24A H 1.3083 0.6424 -0.0934
C18A C 1.4044(2) 0.78477(17) -0.18378(16)
C19A C 1.3144(6) 0.8488(4) -0.1579(3)
H25A H 1.3234 0.8804 -0.1214
H26A H 1.3099 0.8914 -0.2021
H27A H 1.2535 0.8150 -0.1339
C20A C 1.4948(4) 0.8384(4) -0.2267(3)
H28A H 1.5533 0.7991 -0.2383
H29A H 1.4888 0.8722 -0.2741
H30A H 1.5015 0.8791 -0.1959
C21A C 1.3858(5) 0.7279(3) -0.2328(3)
H31A H 1.3277 0.6917 -0.2031
H32A H 1.3739 0.7658 -0.2766
H33A H 1.4437 0.6894 -0.2506
C26A C 1.29054(18) 0.53989(17) 0.03222(14)
H43A H 1.3010 0.5021 -0.0059
H44A H 1.3101 0.5050 0.0743
C27A C 1.18195(18) 0.56536(16) 0.06244(14)
C28A C 1.12055(19) 0.56063(17) 0.02163(14)
H45A H 1.1463 0.5420 -0.0260
C29A C 1.0213(2) 0.58349(18) 0.05146(15)
H46A H 0.9780 0.5817 0.0243
C30A C 0.98618(19) 0.60901(18) 0.12170(15)
H47A H 0.9181 0.6241 0.1438
C31A C 1.05162(18) 0.61224(16) 0.15914(14)
C32A C 1.01545(19) 0.64056(17) 0.23585(14)
H48A H 1.0472 0.6024 0.2695
H49A H 0.9430 0.6328 0.2595
C33A C 1.08517(17) 0.75544(16) 0.27230(13)
C34A C 0.9784(2) 0.80053(18) 0.19631(15)
H50A H 0.9131 0.8070 0.2358
H51A H 0.9671 0.7806 0.1541
C35A C 1.0403(2) 0.91208(18) 0.23144(15)
H52A H 1.0811 0.9656 0.2124
H53A H 0.9754 0.9275 0.2674
C36A C 1.1095(2) 0.8986(2) 0.09331(15)
C37A C 1.2079(2) 0.8553(2) 0.09666(17)
H54A H 1.1996 0.7914 0.1140
H55A H 1.2587 0.8668 0.0460
H56A H 1.2282 0.8798 0.1321
C38A C 1.0785(3) 0.8606(3) 0.03708(18)
H57A H 1.0103 0.8795 0.0418
H58A H 1.1228 0.8820 -0.0148
H59A H 1.0828 0.7960 0.0484
C39A C 1.1228(3) 0.9976(2) 0.0655(2)
H60A H 1.1503 1.0215 0.0974
H61A H 1.1682 1.0088 0.0128
H62A H 1.0585 1.0263 0.0684
C40A C 1.13012(18) 0.86906(16) 0.32451(13)
H63A H 1.1796 0.8242 0.3343
H64A H 1.1644 0.9257 0.3005
C41A C 1.05056(18) 0.87942(16) 0.39912(13)
C42A C 0.9914(2) 0.95574(17) 0.40442(15)
H65A H 1.0027 1.0027 0.3620
C43A C 0.9166(2) 0.96229(18) 0.47169(16)
H66A H 0.8744 1.0132 0.4761
C44A C 0.9034(2) 0.89386(18) 0.53289(15)
H67A H 0.8526 0.8972 0.5801
C45A C 0.96598(17) 0.82016(16) 0.52403(13)
C46A C 0.95278(18) 0.74374(17) 0.58935(13)
H68A H 0.9370 0.6906 0.5748
H69A H 0.8956 0.7570 0.6333
C47A C 1.09672(17) 0.65099(16) 0.59650(12)
C48A C 1.0563(2) 0.78275(16) 0.65833(14)
H70A H 0.9916 0.8067 0.6881
H71A H 1.0965 0.8331 0.6240
C49A C 1.19432(18) 0.69592(18) 0.66502(15)
H72A H 1.2396 0.7418 0.6285
H73A H 1.2288 0.6626 0.6989
C50A C 1.04116(19) 0.68630(18) 0.78411(14)
C51A C 0.9654(2) 0.6298(2) 0.77648(17)
H74A H 0.9999 0.5872 0.7439
H75A H 0.9263 0.5981 0.8268
H76A H 0.9214 0.6678 0.7539
C52A C 0.9872(3) 0.7537(2) 0.83402(17)
H77A H 0.9499 0.7959 0.8079
H78A H 0.9414 0.7232 0.8822
H79A H 1.0356 0.7853 0.8439
C53A C 1.1051(2) 0.6270(2) 0.82324(17)
H80A H 1.1561 0.6622 0.8262
H81A H 1.0636 0.6002 0.8746
H82A H 1.1367 0.5805 0.7941
C54A C 1.23701(18) 0.55627(16) 0.61162(14)
H83A H 1.2277 0.5176 0.6614
H84A H 1.2169 0.5232 0.5804
C55A C 1.34524(17) 0.57848(15) 0.57299(13)
C56A C 1.40707(19) 0.57428(17) 0.61490(14)
H85A H 1.3816 0.5585 0.6687
C57A C 1.50607(19) 0.59329(18) 0.57756(15)
H86A H 1.5495 0.5915 0.6052
C58A C 1.54077(18) 0.61490(17) 0.49929(14)
H87A H 1.6088 0.6268 0.4721
C59A C 1.47488(17) 0.61891(15) 0.46104(13)
C60A C 1.51011(18) 0.64430(16) 0.37519(14)
H88A H 1.4797 0.6053 0.3547
H89A H 1.5829 0.6359 0.3543
N1A N 1.48377(15) 0.73618(13) 0.35139(11)
N2A N 1.48834(15) 0.88864(13) 0.36245(11)
N3A N 1.42542(15) 0.84343(13) 0.27315(11)
N4A N 1.48178(14) 0.79777(13) 0.10381(11)
N5A N 1.48357(16) 0.70232(15) -0.01539(11)
N6A N 1.42056(15) 0.72382(14) -0.11625(11)
N7A N 1.35392(15) 0.61718(15) -0.00273(11)
N8A N 1.14856(15) 0.59149(13) 0.13005(11)
N9A N 1.03830(15) 0.73284(14) 0.22863(12)
N10A N 1.02533(17) 0.88534(15) 0.16839(12)
N11A N 1.08976(15) 0.84250(14) 0.27216(11)
N12A N 1.03831(14) 0.81181(13) 0.45799(11)
N13A N 1.03980(15) 0.72431(13) 0.61232(11)
N14A N 1.10633(15) 0.73829(14) 0.70994(11)
N15A N 1.17302(15) 0.63524(14) 0.62306(11)
N16A N 1.37833(14) 0.60161(13) 0.49681(11)
O1A O 1.39716(12) 0.69948(11) 0.28323(9)
O2A O 1.44802(13) 0.57559(12) 0.07289(10)
O3A O 1.12712(12) 0.69903(11) 0.30821(9)
O4A O 1.07810(12) 0.59956(11) 0.56093(9)
O5A O 1.44103(13) 0.48877(12) 0.26365(10)
H90A H 1.5024 0.4927 0.2527
H91A H 1.4389 0.4567 0.2339
O6A O 1.26472(13) 0.59148(13) 0.22831(10)
H92A H 1.2393 0.5899 0.1954
H93A H 1.2242 0.6283 0.2503
O7A O 1.08959(13) 0.49578(12) 0.41798(10)
H94A H 1.0421 0.4737 0.4127
H95A H 1.0899 0.4699 0.4609
O8A O 1.26085(12) 0.60298(12) 0.40256(10)
H96A H 1.2918 0.5980 0.4330
H97A H 1.3001 0.6362 0.3658
Cl1A Cl 1.69313(4) 0.57626(4) 0.16564(3)
O9A O 1.60779(14) 0.63296(14) 0.17101(13)
O10A O 1.76345(16) 0.59469(17) 0.09090(11)
O11A O 1.73571(15) 0.59007(16) 0.21912(11)
O12A O 1.66245(17) 0.48626(13) 0.18337(15)
Cl2A Cl 1.17896(7) 0.33342(7) 0.54564(7)
O13A O 1.2428(2) 0.3915(2) 0.48193(16)
O14A O 0.9224(4) 0.6349(4) 0.4434(5)
O15A O 1.2032(5) 0.3365(6) 0.6098(4)
O16A O 1.1848(4) 0.2451(2) 0.5335(3)
O34A O 1.2715(4) 0.3480(4) 0.3095(3)
C61A C 1.3069(7) 0.2734(6) 0.3480(5)
C22? C 0.5956(2) 0.21523(17) 1.18378(16)
C23? C 0.6356(15) 0.1235(8) 1.1753(11)
H34? H 0.5866 0.0897 1.1682
H35? H 0.6496 0.0945 1.2211
H36? H 0.6968 0.1264 1.1312
C24? C 0.4889(8) 0.2059(14) 1.2467(8)
H37? H 0.4665 0.2629 1.2623
H38? H 0.4915 0.1618 1.2907
H39? H 0.4425 0.1870 1.2261
C25? C 0.6525(13) 0.2619(12) 1.2194(11)
H40? H 0.7232 0.2620 1.1891
H41? H 0.6428 0.2305 1.2713
H42? H 0.6276 0.3228 1.2207
Cl3? Cl 0.8328(5) 0.6952(4) 0.4258(4)
O17? O 0.8847(10) 0.7732(7) 0.3771(7)
O18? O 0.9062(14) 0.6318(14) 0.4409(15)
O19? O 0.7818(18) 0.6630(18) 0.3863(12)
O20? O 0.7662(10) 0.7162(10) 0.4957(6)
Cl4? Cl 0.7536(5) 0.8932(4) 0.7735(4)
O21? O 0.6998(6) 0.9354(5) 0.7246(4)
O22? O 0.8562(4) 0.8849(5) 0.7286(4)
O23? O 0.7452(4) 0.9494(4) 0.8252(3)
O24? O 0.7157(5) 0.8088(4) 0.8143(4)
Cl6? Cl 0.7494(6) 0.8902(6) 0.7632(5)
O29? O 0.7482(7) 0.9519(6) 0.6955(4)
O30? O 0.8207(7) 0.9202(6) 0.7894(6)
O31? O 0.6534(6) 0.8966(7) 0.8169(5)
O32? O 0.7697(7) 0.8040(5) 0.7447(6)
O33? O 0.7414(4) 0.6300(4) 0.7221(3)
O40? O 0.2987(4) 0.0811(4) 0.8349(3)
H112? H 0.2507 0.0642 0.8265
C64? C 0.2718(7) 0.1735(6) 0.8399(5)
H113? H 0.2200 0.1769 0.8889
H114? H 0.2473 0.2007 0.7988
H115? H 0.3302 0.2048 0.8354
loop_
_geom_bond_atom_site_label_1
_geom_bond_atom_site_label_2
_geom_bond_site_symmetry_1
_geom_bond_site_symmetry_2
Na1 N4 1_555 1_555
Na2 N12 1_555 1_555
Na3 O5 1_555 1_555
C1 N1 1_555 1_555
C2 H1 1_555 1_555
H2 C2 1_555 1_555
C3 H3 1_555 1_555
H4 C3 1_555 1_555
C4 C5 1_555 1_555
C5 H5 1_555 1_555
H6 C5 1_555 1_555
H7 C5 1_555 1_555
C6 C4 1_555 1_555
H8 C6 1_555 1_555
H9 C6 1_555 1_555
H10 C6 1_555 1_555
C7 C4 1_555 1_555
H11 C7 1_555 1_555
H12 C7 1_555 1_555
H13 C7 1_555 1_555
C8 H14 1_555 1_555
H15 C8 1_555 1_555
C9 C8 1_555 1_555
C10 C9 1_555 1_555
H16 C10 1_555 1_555
C11 C10 1_555 1_555
H17 C11 1_555 1_555
C12 C11 1_555 1_555
H18 C12 1_555 1_555
C13 C12 1_555 1_555
C14 C13 1_555 1_555
H19 C14 1_555 1_555
H20 C14 1_555 1_555
C15 N5 1_555 1_555
C16 H21 1_555 1_555
H22 C16 1_555 1_555
C17 H23 1_555 1_555
H24 C17 1_555 1_555
C18 C19 1_555 1_555
C19 H25 1_555 1_555
H26 C19 1_555 1_555
H27 C19 1_555 1_555
C20 C18 1_555 1_555
H28 C20 1_555 1_555
H29 C20 1_555 1_555
H30 C20 1_555 1_555
C21 C18 1_555 1_555
H31 C21 1_555 1_555
H32 C21 1_555 1_555
H33 C21 1_555 1_555
C26 H43 1_555 1_555
H44 C26 1_555 1_555
C27 C26 1_555 1_555
C28 C27 1_555 1_555
H45 C28 1_555 1_555
C29 C28 1_555 1_555
H46 C29 1_555 1_555
C30 C29 1_555 1_555
H47 C30 1_555 1_555
C31 C30 1_555 1_555
C32 C31 1_555 1_555
H48 C32 1_555 1_555
H49 C32 1_555 1_555
C33 N9 1_555 1_555
C34 H50 1_555 1_555
H51 C34 1_555 1_555
C35 H52 1_555 1_555
H53 C35 1_555 1_555
C36 C37 1_555 1_555
C37 H54 1_555 1_555
H55 C37 1_555 1_555
H56 C37 1_555 1_555
C38 C36 1_555 1_555
H57 C38 1_555 1_555
H58 C38 1_555 1_555
H59 C38 1_555 1_555
C39 C36 1_555 1_555
H60 C39 1_555 1_555
H61 C39 1_555 1_555
H62 C39 1_555 1_555
C40 H63 1_555 1_555
H64 C40 1_555 1_555
C41 C40 1_555 1_555
C42 C41 1_555 1_555
H65 C42 1_555 1_555
C43 C42 1_555 1_555
H66 C43 1_555 1_555
C44 C43 1_555 1_555
H67 C44 1_555 1_555
C45 C44 1_555 1_555
C46 C45 1_555 1_555
H68 C46 1_555 1_555
H69 C46 1_555 1_555
C47 N13 1_555 1_555
C48 H70 1_555 1_555
H71 C48 1_555 1_555
C49 H72 1_555 1_555
H73 C49 1_555 1_555
C50 C51 1_555 1_555
C51 H74 1_555 1_555
H75 C51 1_555 1_555
H76 C51 1_555 1_555
C52 C50 1_555 1_555
H77 C52 1_555 1_555
H78 C52 1_555 1_555
H79 C52 1_555 1_555
C53 C50 1_555 1_555
H80 C53 1_555 1_555
H81 C53 1_555 1_555
H82 C53 1_555 1_555
C54 H83 1_555 1_555
H84 C54 1_555 1_555
C55 C54 1_555 1_555
C56 C55 1_555 1_555
H85 C56 1_555 1_555
C57 C56 1_555 1_555
H86 C57 1_555 1_555
C58 C57 1_555 1_555
H87 C58 1_555 1_555
C59 C58 1_555 1_555
C60 C59 1_555 1_555
H88 C60 1_555 1_555
H89 C60 1_555 1_555
N1 C2 1_555 1_555
N2 C2 1_555 1_555
N3 C1 1_555 1_555
N4 C9 1_555 1_555
N5 C14 1_555 1_555
N6 C16 1_555 1_555
N7 C15 1_555 1_555
N8 C27 1_555 1_555
N9 C32 1_555 1_555
N10 C34 1_555 1_555
N11 C33 1_555 1_555
N12 C41 1_555 1_555
N13 C46 1_555 1_555
N14 C48 1_555 1_555
N15 C47 1_555 1_555
N16 C55 1_555 1_555
O1 Na1 1_555 1_555
O2 Na1 1_555 1_555
O3 Na2 1_555 1_555
O4 Na2 1_555 1_555
O5 Na1 1_555 1_555
H90 O5 1_555 1_555
H91 O5 1_555 1_555
O6 Na1 1_555 1_555
H92 O6 1_555 1_555
H93 O6 1_555 1_555
O7 Na2 1_555 1_555
H94 O7 1_555 1_555
H95 O7 1_555 1_555
O8 Na2 1_555 1_555
H96 O8 1_555 1_555
H97 O8 1_555 1_555
Cl1 O9 1_555 1_555
O9 Na1 1_555 1_555
O10 Cl1 1_555 1_555
O11 Cl1 1_555 1_555
O12 Cl1 1_555 1_555
Cl2 O13 1_555 1_555
O13 Na3 1_555 1_555
O14 Na2 1_555 1_555
O15 Cl2 1_555 1_555
O16 Cl2 1_555 1_555
Cl5 O25 1_555 1_555
O26 Cl5 1_555 1_555
O27 Cl5 1_555 1_555
O28 Cl5 1_555 1_555
O34 Na3 1_555 1_555
C61 O34 1_555 1_555
O35 H98 1_555 1_555
H99 O35 1_555 1_555
O36 H100 1_555 1_555
H101 O36 1_555 1_555
O37 H102 1_555 1_555
H103 O37 1_555 1_555
O38 H104 1_555 1_555
C62 O38 1_555 1_555
H105 C62 1_555 1_555
H106 C62 1_555 1_555
H107 C62 1_555 1_555
O39 H108 1_555 1_555
C63 O39 1_555 1_555
H109 C63 1_555 1_555
H110 C63 1_555 1_555
H111 C63 1_555 1_555
Na1A N4A 1_555 1_555
Na2A N12A 1_555 1_555
Na3A O5A 1_555 1_555
C1A N1A 1_555 1_555
C2A H1A 1_555 1_555
H2A C2A 1_555 1_555
C3A H3A 1_555 1_555
H4A C3A 1_555 1_555
C4A C5A 1_555 1_555
C5A H5A 1_555 1_555
H6A C5A 1_555 1_555
H7A C5A 1_555 1_555
C6A C4A 1_555 1_555
H8A C6A 1_555 1_555
H9A C6A 1_555 1_555
H10A C6A 1_555 1_555
C7A C4A 1_555 1_555
H11A C7A 1_555 1_555
H12A C7A 1_555 1_555
H13A C7A 1_555 1_555
C8A H14A 1_555 1_555
H15A C8A 1_555 1_555
C9A C8A 1_555 1_555
C10A C9A 1_555 1_555
H16A C10A 1_555 1_555
C11A C10A 1_555 1_555
H17A C11A 1_555 1_555
C12A C11A 1_555 1_555
H18A C12A 1_555 1_555
C13A C12A 1_555 1_555
C14A C13A 1_555 1_555
H19A C14A 1_555 1_555
H20A C14A 1_555 1_555
C15A N5A 1_555 1_555
C16A H21A 1_555 1_555
H22A C16A 1_555 1_555
C17A H23A 1_555 1_555
H24A C17A 1_555 1_555
C18A C19A 1_555 1_555
C19A H25A 1_555 1_555
H26A C19A 1_555 1_555
H27A C19A 1_555 1_555
C20A C18A 1_555 1_555
H28A C20A 1_555 1_555
H29A C20A 1_555 1_555
H30A C20A 1_555 1_555
C21A C18A 1_555 1_555
H31A C21A 1_555 1_555
H32A C21A 1_555 1_555
H33A C21A 1_555 1_555
C26A H43A 1_555 1_555
H44A C26A 1_555 1_555
C27A C26A 1_555 1_555
C28A C27A 1_555 1_555
H45A C28A 1_555 1_555
C29A C28A 1_555 1_555
H46A C29A 1_555 1_555
C30A C29A 1_555 1_555
H47A C30A 1_555 1_555
C31A C30A 1_555 1_555
C32A C31A 1_555 1_555
H48A C32A 1_555 1_555
H49A C32A 1_555 1_555
C33A N9A 1_555 1_555
C34A H50A 1_555 1_555
H51A C34A 1_555 1_555
C35A H52A 1_555 1_555
H53A C35A 1_555 1_555
C36A C37A 1_555 1_555
C37A H54A 1_555 1_555
H55A C37A 1_555 1_555
H56A C37A 1_555 1_555
C38A C36A 1_555 1_555
H57A C38A 1_555 1_555
H58A C38A 1_555 1_555
H59A C38A 1_555 1_555
C39A C36A 1_555 1_555
H60A C39A 1_555 1_555
H61A C39A 1_555 1_555
H62A C39A 1_555 1_555
C40A H63A 1_555 1_555
H64A C40A 1_555 1_555
C41A C40A 1_555 1_555
C42A C41A 1_555 1_555
H65A C42A 1_555 1_555
C43A C42A 1_555 1_555
H66A C43A 1_555 1_555
C44A C43A 1_555 1_555
H67A C44A 1_555 1_555
C45A C44A 1_555 1_555
C46A C45A 1_555 1_555
H68A C46A 1_555 1_555
H69A C46A 1_555 1_555
C47A N13A 1_555 1_555
C48A H70A 1_555 1_555
H71A C48A 1_555 1_555
C49A H72A 1_555 1_555
H73A C49A 1_555 1_555
C50A C51A 1_555 1_555
C51A H74A 1_555 1_555
H75A C51A 1_555 1_555
H76A C51A 1_555 1_555
C52A C50A 1_555 1_555
H77A C52A 1_555 1_555
H78A C52A 1_555 1_555
H79A C52A 1_555 1_555
C53A C50A 1_555 1_555
H80A C53A 1_555 1_555
H81A C53A 1_555 1_555
H82A C53A 1_555 1_555
C54A H83A 1_555 1_555
H84A C54A 1_555 1_555
C55A C54A 1_555 1_555
C56A C55A 1_555 1_555
H85A C56A 1_555 1_555
C57A C56A 1_555 1_555
H86A C57A 1_555 1_555
C58A C57A 1_555 1_555
H87A C58A 1_555 1_555
C59A C58A 1_555 1_555
C60A C59A 1_555 1_555
H88A C60A 1_555 1_555
H89A C60A 1_555 1_555
N1A C2A 1_555 1_555
N2A C2A 1_555 1_555
N3A C1A 1_555 1_555
N4A C9A 1_555 1_555
N5A C14A 1_555 1_555
N6A C16A 1_555 1_555
N7A C15A 1_555 1_555
N8A C27A 1_555 1_555
N9A C32A 1_555 1_555
N10A C34A 1_555 1_555
N11A C33A 1_555 1_555
N12A C41A 1_555 1_555
N13A C46A 1_555 1_555
N14A C48A 1_555 1_555
N15A C47A 1_555 1_555
N16A C55A 1_555 1_555
O1A Na1A 1_555 1_555
O2A Na1A 1_555 1_555
O3A Na2A 1_555 1_555
O4A Na2A 1_555 1_555
O5A Na1A 1_555 1_555
H90A O5A 1_555 1_555
H91A O5A 1_555 1_555
O6A Na1A 1_555 1_555
H92A O6A 1_555 1_555
H93A O6A 1_555 1_555
O7A Na2A 1_555 1_555
H94A O7A 1_555 1_555
H95A O7A 1_555 1_555
O8A Na2A 1_555 1_555
H96A O8A 1_555 1_555
H97A O8A 1_555 1_555
Cl1A O9A 1_555 1_555
O9A Na1A 1_555 1_555
O10A Cl1A 1_555 1_555
O11A Cl1A 1_555 1_555
O12A Cl1A 1_555 1_555
Cl2A O14 1_555 1_555
O13A Na3A 1_555 1_555
O14A Cl2 1_555 1_555
O15A Cl2A 1_555 1_555
O16A Cl2A 1_555 1_555
O34A Na3A 1_555 1_555
C61A O34A 1_555 1_555
Na3 O6 1_555 1_555
Na3 O7 1_555 1_555
Na3 O8 1_555 1_555
C1 O1 1_555 1_555
C3 N2 1_555 1_555
C3 N3 1_555 1_555
C4 N2 1_555 1_555
C8 N3 1_555 1_555
C13 N4 1_555 1_555
C15 O2 1_555 1_555
C16 N5 1_555 1_555
C17 N6 1_555 1_555
C17 N7 1_555 1_555
C18 N6 1_555 1_555
C26 N7 1_555 1_555
C31 N8 1_555 1_555
C33 O3 1_555 1_555
C34 N9 1_555 1_555
C35 N10 1_555 1_555
C35 N11 1_555 1_555
C36 N10 1_555 1_555
C40 N11 1_555 1_555
C45 N12 1_555 1_555
C47 O4 1_555 1_555
C48 N13 1_555 1_555
C49 N14 1_555 1_555
C49 N15 1_555 1_555
C50 N14 1_555 1_555
C54 N15 1_555 1_555
C59 N16 1_555 1_555
C60 N1 1_555 1_555
Na2A O14A 1_555 1_555
Na3A O6A 1_555 1_555
Na3A O7A 1_555 1_555
Na3A O8A 1_555 1_555
C1A O1A 1_555 1_555
C3A N2A 1_555 1_555
C3A N3A 1_555 1_555
C4A N2A 1_555 1_555
C8A N3A 1_555 1_555
C13A N4A 1_555 1_555
C15A O2A 1_555 1_555
C16A N5A 1_555 1_555
C17A N6A 1_555 1_555
C17A N7A 1_555 1_555
C18A N6A 1_555 1_555
C26A N7A 1_555 1_555
C31A N8A 1_555 1_555
C33A O3A 1_555 1_555
C34A N9A 1_555 1_555
C35A N10A 1_555 1_555
C35A N11A 1_555 1_555
C36A N10A 1_555 1_555
C40A N11A 1_555 1_555
C45A N12A 1_555 1_555
C47A O4A 1_555 1_555
C48A N13A 1_555 1_555
C49A N14A 1_555 1_555
C49A N15A 1_555 1_555
C50A N14A 1_555 1_555
C54A N15A 1_555 1_555
C59A N16A 1_555 1_555
C60A N1A 1_555 1_555
Cl2A O13A 1_555 1_555

#END
