
#######################################################################
#
#                 Cambridge Crystallographic Data Centre
#                                CCDC 
#
#######################################################################
#
# If this CIF has been generated from an entry in the Cambridge 
# Structural Database, then it will include bibliographic, chemical, 
# crystal, experimental, refinement or atomic coordinate data resulting 
# from the CCDC's data processing and validation procedures.
#
#######################################################################

data_MAMROK
_chemical_formula_moiety         'C27 H27 B1 F2 N2 O3'
_chemical_name_systematic        
(N-benzyl-N-(3-(t-butylamino)-1-(hydroxy)-3-(oxo)-1-phenylprop-1-en-2-yl)benzamide)-difluoro-boron
_symmetry_cell_setting           monoclinic
_symmetry_space_group_name_H-M   'P 21/c'
_symmetry_Int_Tables_number      14
_space_group_name_Hall           '-P 2ybc'
loop_
_symmetry_equiv_pos_site_id
_symmetry_equiv_pos_as_xyz
1 x,y,z
2 -x,1/2+y,1/2-z
3 -x,-y,-z
4 x,1/2-y,1/2+z
_cell_length_a                   23.4172(5)
_cell_length_b                   11.0788(2)
_cell_length_c                   19.5406(5)
_cell_angle_alpha                90
_cell_angle_beta                 100.072(2)
_cell_angle_gamma                90
_cell_volume                     4991.38
_exptl_crystal_colour            colorless
_exptl_crystal_description       block
_cell_formula_units_Z            8
loop_
_atom_site_label
_atom_site_type_symbol
_atom_site_fract_x
_atom_site_fract_y
_atom_site_fract_z
F1 F 0.95898(6) 0.65068(12) 0.64444(8)
F2 F 0.86511(6) 0.70436(12) 0.63929(7)
O1 O 0.89477(7) 0.63757(13) 0.53921(8)
O2 O 0.88835(7) 0.50156(14) 0.63558(8)
O3 O 0.86168(7) 0.21863(14) 0.38367(8)
N1 N 0.87701(8) 0.30312(16) 0.61604(10)
H1 H 0.8760 0.2441 0.5857
N2 N 0.89811(7) 0.32318(15) 0.48103(9)
C1 C 0.88813(10) 0.4107(2) 0.59393(12)
C2 C 0.89889(9) 0.5426(2) 0.49889(12)
C3 C 0.89730(9) 0.42798(19) 0.52355(11)
C4 C 0.90051(10) 0.57624(19) 0.42568(12)
C5 C 0.86634(10) 0.6730(2) 0.39646(13)
H2 H 0.8424 0.7144 0.4233
C6 C 0.86707(10) 0.7089(2) 0.32891(13)
H3 H 0.8435 0.7744 0.3094
C7 C 0.90228(11) 0.6492(2) 0.28958(13)
H4 H 0.9026 0.6736 0.2430
C8 C 0.93703(10) 0.5538(2) 0.31829(12)
H5 H 0.9615 0.5137 0.2915
C9 C 0.93603(10) 0.5168(2) 0.38614(12)
H6 H 0.9595 0.4511 0.4055
C10 C 0.86584(10) 0.2679(2) 0.68669(12)
C11 C 0.85012(11) 0.1345(2) 0.68038(13)
H7 H 0.8132 0.1246 0.6485
H8 H 0.8465 0.1027 0.7262
H9 H 0.8806 0.0902 0.6624
C12 C 0.81520(11) 0.3405(2) 0.70534(13)
H10 H 0.8253 0.4264 0.7079
H11 H 0.8071 0.3134 0.7504
H12 H 0.7807 0.3282 0.6696
C13 C 0.92137(11) 0.2875(2) 0.73936(12)
H13 H 0.9525 0.2377 0.7267
H14 H 0.9147 0.2646 0.7858
H15 H 0.9325 0.3728 0.7394
C14 C 0.85440(10) 0.29581(19) 0.42644(11)
C15 C 0.95427(10) 0.25750(19) 0.48557(12)
H16 H 0.9864 0.3138 0.5027
H17 H 0.9587 0.2313 0.4383
C16 C 0.95944(10) 0.14894(19) 0.53239(12)
C17 C 0.92651(10) 0.0454(2) 0.51423(12)
H18 H 0.8998 0.0430 0.4717
C18 C 0.93254(11) -0.0543(2) 0.55803(13)
H19 H 0.9094 -0.1239 0.5455
C19 C 0.97187(11) -0.0531(2) 0.61963(13)
H20 H 0.9762 -0.1218 0.6492
C20 C 1.00485(11) 0.0491(2) 0.63779(13)
H21 H 1.0319 0.0508 0.6801
C21 C 0.99865(10) 0.1491(2) 0.59464(13)
H22 H 1.0215 0.2188 0.6078
B1 B 0.90221(12) 0.6270(2) 0.61525(15)
C22 C 0.7975(4) 0.3595(8) 0.4184(5)
C23 C 0.7674(5) 0.3797(9) 0.4723(7)
H23 H 0.7833 0.3549 0.5182
C24 C 0.7138(4) 0.4362(8) 0.4586(4)
H24 H 0.6929 0.4493 0.4955
C25 C 0.6902(3) 0.4739(6) 0.3921(4)
H25 H 0.6539 0.5143 0.3835
C26 C 0.7199(2) 0.4525(7) 0.3385(4)
H26 H 0.7039 0.4769 0.2926
C27 C 0.7734(2) 0.3949(7) 0.3518(4)
H27 H 0.7936 0.3798 0.3146
F3 F 0.68226(6) 1.21493(12) 0.60888(8)
F4 F 0.59336(6) 1.16117(12) 0.62879(7)
O4 O 0.61411(7) 1.14714(13) 0.51681(8)
O5 O 0.65856(7) 1.01230(14) 0.60950(8)
O6 O 0.59213(7) 0.72626(14) 0.36176(9)
N3 N 0.66287(8) 0.81342(16) 0.58991(10)
H33 H 0.6520 0.7532 0.5612
N4 N 0.59018(8) 0.83173(16) 0.46141(10)
C34 C 0.64294(10) 0.9212(2) 0.56926(12)
C35 C 0.59564(10) 1.0517(2) 0.47801(12)
C36 C 0.60653(9) 0.9369(2) 0.50200(12)
C37 C 0.56641(10) 1.0850(2) 0.40667(12)
C38 C 0.58860(11) 1.1822(2) 0.37431(13)
H34 H 0.6209 1.2259 0.3983
C39 C 0.56371(12) 1.2153(2) 0.30721(13)
H35 H 0.5798 1.2798 0.2847
C40 C 0.51541(12) 1.1542(2) 0.27304(14)
H36 H 0.4979 1.1780 0.2275
C41 C 0.49256(12) 1.0587(2) 0.30504(13)
H37 H 0.4592 1.0176 0.2815
C42 C 0.51817(10) 1.0226(2) 0.37156(12)
H38 H 0.5029 0.9558 0.3930
C43 C 0.70188(10) 0.7819(2) 0.65661(13)
C44 C 0.71838(11) 0.6497(2) 0.64783(14)
H39 H 0.6831 0.6006 0.6377
H40 H 0.7426 0.6210 0.6908
H41 H 0.7400 0.6430 0.6094
C45 C 0.66842(12) 0.7960(2) 0.71586(13)
H42 H 0.6550 0.8796 0.7174
H43 H 0.6937 0.7761 0.7599
H44 H 0.6349 0.7415 0.7086
C46 C 0.75638(11) 0.8608(2) 0.66615(15)
H45 H 0.7736 0.8574 0.6240
H46 H 0.7844 0.8311 0.7057
H47 H 0.7460 0.9444 0.6748
C47 C 0.61297(10) 0.8046(2) 0.40261(12)
C48 C 0.66574(10) 0.8738(2) 0.39190(13)
C49 C 0.71799(11) 0.8665(2) 0.43845(14)
H48 H 0.7207 0.8178 0.4789
C50 C 0.76625(11) 0.9305(3) 0.42577(15)
H49 H 0.8019 0.9250 0.4574
C51 C 0.76248(12) 1.0023(2) 0.36714(16)
H50 H 0.7953 1.0469 0.3589
C52 C 0.71096(12) 1.0088(2) 0.32070(15)
H51 H 0.7083 1.0580 0.2805
C53 C 0.66295(11) 0.9435(2) 0.33261(13)
H52 H 0.6279 0.9467 0.2998
C54 C 0.53725(9) 0.7650(2) 0.47269(12)
H53 H 0.5165 0.7354 0.4273
H54 H 0.5112 0.8217 0.4914
C55 C 0.54982(9) 0.6589(2) 0.52184(12)
C56 C 0.57160(10) 0.5511(2) 0.49992(13)
H55 H 0.5790 0.5446 0.4538
C57 C 0.58255(11) 0.4534(2) 0.54452(14)
H56 H 0.5974 0.3807 0.5288
C58 C 0.57202(10) 0.4612(2) 0.61187(14)
H57 H 0.5797 0.3943 0.6425
C59 C 0.55012(11) 0.5677(2) 0.63421(14)
H58 H 0.5426 0.5739 0.6803
C60 C 0.53913(10) 0.6653(2) 0.58929(13)
H59 H 0.5240 0.7377 0.6051
B2 B 0.63713(13) 1.1378(2) 0.59176(16)
C28? C 0.7989(10) 0.363(2) 0.4247(14)
C29? C 0.7670(14) 0.355(3) 0.4782(19)
H28? H 0.7817 0.3072 0.5175
C30? C 0.7145(13) 0.415(2) 0.4774(12)
H29? H 0.6936 0.4086 0.5147
C31? C 0.6945(10) 0.4843(19) 0.4196(10)
H30? H 0.6588 0.5265 0.4172
C32? C 0.7246(7) 0.4942(17) 0.3651(10)
H31? H 0.7099 0.5428 0.3259
C33? C 0.7764(8) 0.4327(17) 0.3679(11)
H32? H 0.7968 0.4388 0.3302
loop_
_geom_bond_atom_site_label_1
_geom_bond_atom_site_label_2
_geom_bond_site_symmetry_1
_geom_bond_site_symmetry_2
F1 B1 1_555 1_555
F2 B1 1_555 1_555
O1 C2 1_555 1_555
O2 C1 1_555 1_555
O3 C14 1_555 1_555
N1 H1 1_555 1_555
N2 C3 1_555 1_555
C1 N1 1_555 1_555
C2 C3 1_555 1_555
C3 C1 1_555 1_555
C4 C2 1_555 1_555
C5 C4 1_555 1_555
H2 C5 1_555 1_555
C6 C5 1_555 1_555
H3 C6 1_555 1_555
C7 C6 1_555 1_555
H4 C7 1_555 1_555
C8 C7 1_555 1_555
H5 C8 1_555 1_555
C9 C4 1_555 1_555
H6 C9 1_555 1_555
C10 N1 1_555 1_555
C11 C10 1_555 1_555
H7 C11 1_555 1_555
H8 C11 1_555 1_555
H9 C11 1_555 1_555
C12 C10 1_555 1_555
H10 C12 1_555 1_555
H11 C12 1_555 1_555
H12 C12 1_555 1_555
C13 C10 1_555 1_555
H13 C13 1_555 1_555
H14 C13 1_555 1_555
H15 C13 1_555 1_555
C14 N2 1_555 1_555
C15 N2 1_555 1_555
H16 C15 1_555 1_555
H17 C15 1_555 1_555
C16 C15 1_555 1_555
C17 C16 1_555 1_555
H18 C17 1_555 1_555
C18 C17 1_555 1_555
H19 C18 1_555 1_555
C19 C18 1_555 1_555
H20 C19 1_555 1_555
C20 C19 1_555 1_555
H21 C20 1_555 1_555
C21 C16 1_555 1_555
H22 C21 1_555 1_555
B1 O1 1_555 1_555
C22 C14 1_555 1_555
C23 C22 1_555 1_555
H23 C23 1_555 1_555
C24 C23 1_555 1_555
H24 C24 1_555 1_555
C25 C24 1_555 1_555
H25 C25 1_555 1_555
C26 C25 1_555 1_555
H26 C26 1_555 1_555
C27 C22 1_555 1_555
H27 C27 1_555 1_555
F3 B2 1_555 1_555
F4 B2 1_555 1_555
O4 C35 1_555 1_555
O5 C34 1_555 1_555
O6 C47 1_555 1_555
N3 H33 1_555 1_555
N4 C36 1_555 1_555
C34 N3 1_555 1_555
C35 C36 1_555 1_555
C36 C34 1_555 1_555
C37 C35 1_555 1_555
C38 C37 1_555 1_555
H34 C38 1_555 1_555
C39 C38 1_555 1_555
H35 C39 1_555 1_555
C40 C39 1_555 1_555
H36 C40 1_555 1_555
C41 C40 1_555 1_555
H37 C41 1_555 1_555
C42 C37 1_555 1_555
H38 C42 1_555 1_555
C43 N3 1_555 1_555
C44 C43 1_555 1_555
H39 C44 1_555 1_555
H40 C44 1_555 1_555
H41 C44 1_555 1_555
C45 C43 1_555 1_555
H42 C45 1_555 1_555
H43 C45 1_555 1_555
H44 C45 1_555 1_555
C46 C43 1_555 1_555
H45 C46 1_555 1_555
H46 C46 1_555 1_555
H47 C46 1_555 1_555
C47 N4 1_555 1_555
C48 C47 1_555 1_555
C49 C48 1_555 1_555
H48 C49 1_555 1_555
C50 C49 1_555 1_555
H49 C50 1_555 1_555
C51 C50 1_555 1_555
H50 C51 1_555 1_555
C52 C51 1_555 1_555
H51 C52 1_555 1_555
C53 C48 1_555 1_555
H52 C53 1_555 1_555
C54 N4 1_555 1_555
H53 C54 1_555 1_555
H54 C54 1_555 1_555
C55 C54 1_555 1_555
C56 C55 1_555 1_555
H55 C56 1_555 1_555
C57 C56 1_555 1_555
H56 C57 1_555 1_555
C58 C57 1_555 1_555
H57 C58 1_555 1_555
C59 C58 1_555 1_555
H58 C59 1_555 1_555
C60 C55 1_555 1_555
H59 C60 1_555 1_555
B2 O4 1_555 1_555
O2 B1 1_555 1_555
C8 C9 1_555 1_555
C20 C21 1_555 1_555
C26 C27 1_555 1_555
O5 B2 1_555 1_555
C41 C42 1_555 1_555
C52 C53 1_555 1_555
C59 C60 1_555 1_555

#END
