
#######################################################################
#
#                 Cambridge Crystallographic Data Centre
#                                CCDC 
#
#######################################################################
#
# If this CIF has been generated from an entry in the Cambridge 
# Structural Database, then it will include bibliographic, chemical, 
# crystal, experimental, refinement or atomic coordinate data resulting 
# from the CCDC's data processing and validation procedures.
#
#######################################################################

data_MAMSAX
_chemical_formula_moiety         'C28 H29 B1 F2 N2 O4'
_chemical_name_systematic        
(N-benzyl-N-[3-(t-butylamino)-1-(hydroxy)-1-(4-methoxyphenyl)-3-(oxo)prop-1-en-2-yl]benzamide)-difluoro-boron
_symmetry_cell_setting           monoclinic
_symmetry_space_group_name_H-M   'P 21/c'
_symmetry_Int_Tables_number      14
_space_group_name_Hall           '-P 2ybc'
loop_
_symmetry_equiv_pos_site_id
_symmetry_equiv_pos_as_xyz
1 x,y,z
2 -x,1/2+y,1/2-z
3 -x,-y,-z
4 x,1/2-y,1/2+z
_cell_length_a                   14.4449(4)
_cell_length_b                   10.6697(3)
_cell_length_c                   17.2690(4)
_cell_angle_alpha                90
_cell_angle_beta                 103.984(3)
_cell_angle_gamma                90
_cell_volume                     2582.67
_exptl_crystal_colour            colorless
_exptl_crystal_description       block
_cell_formula_units_Z            4
loop_
_atom_site_label
_atom_site_type_symbol
_atom_site_fract_x
_atom_site_fract_y
_atom_site_fract_z
F1 F 0.84311(9) 0.13393(11) 0.82106(7)
F2 F 0.86269(8) 0.33584(12) 0.86587(6)
O1 O 0.85125(9) 0.29677(13) 0.73250(7)
O2 O 0.71516(9) 0.27320(13) 0.78972(7)
O3 O 0.28231(10) 0.18538(14) 0.74566(9)
O4 O 0.60857(11) 0.10374(15) 0.46043(8)
N1 N 0.83050(12) 0.30886(16) 0.60030(10)
N2 N 0.64039(11) 0.21918(15) 0.57367(9)
C1 C 0.79491(14) 0.28340(18) 0.66178(11)
C2 C 0.69764(14) 0.24419(18) 0.65243(11)
C3 C 0.65974(14) 0.24471(18) 0.71811(11)
C4 C 0.93003(15) 0.3490(2) 0.60198(11)
C5 C 1.00065(16) 0.2505(2) 0.64444(13)
H1 H 0.9988 0.2464 0.7007
H2 H 1.0651 0.2732 0.6405
H3 H 0.9835 0.1686 0.6194
C6 C 0.94961(16) 0.4772(2) 0.64200(12)
H4 H 0.9008 0.5369 0.6150
H5 H 1.0127 0.5068 0.6384
H6 H 0.9479 0.4702 0.6982
C7 C 0.93419(16) 0.3560(2) 0.51492(12)
H7 H 0.9189 0.2737 0.4899
H8 H 0.9985 0.3808 0.5117
H9 H 0.8879 0.4179 0.4870
C8 C 0.55974(14) 0.22493(18) 0.72004(11)
C9 C 0.49701(14) 0.14443(19) 0.66894(11)
H10 H 0.5183 0.1003 0.6287
C10 C 0.40413(14) 0.12786(18) 0.67592(12)
H11 H 0.3625 0.0719 0.6413
C11 C 0.37244(14) 0.19386(19) 0.73399(12)
C12 C 0.43408(15) 0.2744(2) 0.78517(12)
H12 H 0.4121 0.3197 0.8246
C13 C 0.52646(15) 0.28888(19) 0.77904(11)
H13 H 0.5683 0.3428 0.8151
C14 C 0.22322(16) 0.0876(2) 0.70526(14)
H14 H 0.2043 0.1063 0.6480
H15 H 0.1661 0.0807 0.7262
H16 H 0.2584 0.0083 0.7137
C15 C 0.56916(15) 0.3156(2) 0.53602(12)
H17 H 0.5308 0.3402 0.5739
H18 H 0.5254 0.2798 0.4880
C16 C 0.61785(14) 0.4302(2) 0.51269(12)
C17 C 0.63934(16) 0.5324(2) 0.56403(13)
H19 H 0.6201 0.5323 0.6129
C18 C 0.68871(17) 0.6344(2) 0.54415(15)
H20 H 0.7043 0.7031 0.5799
C19 C 0.71492(18) 0.6360(2) 0.47280(16)
H21 H 0.7482 0.7061 0.4591
C20 C 0.69299(18) 0.5363(2) 0.42125(14)
H22 H 0.7108 0.5382 0.3718
C21 C 0.64518(17) 0.4331(2) 0.44091(12)
H23 H 0.6310 0.3641 0.4052
C22 C 0.65610(15) 0.11887(19) 0.52893(11)
C23 C 0.73752(15) 0.03220(19) 0.56396(11)
C24 C 0.80121(16) 0.0075(2) 0.51648(12)
H24 H 0.7907 0.0433 0.4647
C25 C 0.87980(17) -0.0691(2) 0.54482(15)
H25 H 0.9236 -0.0843 0.5128
C26 C 0.89458(17) -0.1238(2) 0.61997(14)
H26 H 0.9485 -0.1760 0.6395
C27 C 0.83001(16) -0.1014(2) 0.66583(13)
H27 H 0.8392 -0.1401 0.7167
C28 C 0.75236(15) -0.02382(19) 0.63889(12)
H28 H 0.7091 -0.0086 0.6714
B1 B 0.81850(17) 0.2574(2) 0.80494(13)
H29 H 0.7880(16) 0.309(2) 0.5534(13)
loop_
_geom_bond_atom_site_label_1
_geom_bond_atom_site_label_2
_geom_bond_site_symmetry_1
_geom_bond_site_symmetry_2
F1 B1 1_555 1_555
F2 B1 1_555 1_555
O1 C1 1_555 1_555
O2 C3 1_555 1_555
O3 C11 1_555 1_555
O4 C22 1_555 1_555
N1 C1 1_555 1_555
N2 C2 1_555 1_555
C1 C2 1_555 1_555
C2 C3 1_555 1_555
C3 C8 1_555 1_555
C4 N1 1_555 1_555
C5 C4 1_555 1_555
H1 C5 1_555 1_555
H2 C5 1_555 1_555
H3 C5 1_555 1_555
C6 C4 1_555 1_555
H4 C6 1_555 1_555
H5 C6 1_555 1_555
H6 C6 1_555 1_555
C7 C4 1_555 1_555
H7 C7 1_555 1_555
H8 C7 1_555 1_555
H9 C7 1_555 1_555
C8 C9 1_555 1_555
C9 H10 1_555 1_555
C10 C9 1_555 1_555
H11 C10 1_555 1_555
C11 C10 1_555 1_555
C12 C11 1_555 1_555
H12 C12 1_555 1_555
C13 C8 1_555 1_555
H13 C13 1_555 1_555
C14 O3 1_555 1_555
H14 C14 1_555 1_555
H15 C14 1_555 1_555
H16 C14 1_555 1_555
C15 N2 1_555 1_555
H17 C15 1_555 1_555
H18 C15 1_555 1_555
C16 C15 1_555 1_555
C17 C16 1_555 1_555
H19 C17 1_555 1_555
C18 C17 1_555 1_555
H20 C18 1_555 1_555
C19 C18 1_555 1_555
H21 C19 1_555 1_555
C20 C19 1_555 1_555
H22 C20 1_555 1_555
C21 C16 1_555 1_555
H23 C21 1_555 1_555
C22 N2 1_555 1_555
C23 C22 1_555 1_555
C24 C23 1_555 1_555
H24 C24 1_555 1_555
C25 C24 1_555 1_555
H25 C25 1_555 1_555
C26 C25 1_555 1_555
H26 C26 1_555 1_555
C27 C26 1_555 1_555
H27 C27 1_555 1_555
C28 C23 1_555 1_555
H28 C28 1_555 1_555
B1 O1 1_555 1_555
H29 N1 1_555 1_555
O2 B1 1_555 1_555
C12 C13 1_555 1_555
C20 C21 1_555 1_555
C27 C28 1_555 1_555

#END
