
#######################################################################
#
#                 Cambridge Crystallographic Data Centre
#                                CCDC 
#
#######################################################################
#
# If this CIF has been generated from an entry in the Cambridge 
# Structural Database, then it will include bibliographic, chemical, 
# crystal, experimental, refinement or atomic coordinate data resulting 
# from the CCDC's data processing and validation procedures.
#
#######################################################################

data_MAMSEB
_chemical_formula_moiety         'C24 H29 B1 F2 N2 O3'
_chemical_name_systematic        
(N-t-butyl-N-[3-(t-butylamino)-1-(hydroxy)-3-(oxo)-1-phenylprop-1-en-2-yl]benzamide)-difluoro-boron
_symmetry_cell_setting           triclinic
_symmetry_space_group_name_H-M   'P -1'
_symmetry_Int_Tables_number      2
_space_group_name_Hall           '-P 1'
loop_
_symmetry_equiv_pos_site_id
_symmetry_equiv_pos_as_xyz
1 x,y,z
2 -x,-y,-z
_cell_length_a                   7.8889(3)
_cell_length_b                   8.6198(6)
_cell_length_c                   18.5609(8)
_cell_angle_alpha                99.118(4)
_cell_angle_beta                 94.175(4)
_cell_angle_gamma                112.387(5)
_cell_volume                     1139.96
_exptl_crystal_colour            colorless
_exptl_crystal_description       block
_cell_formula_units_Z            2
loop_
_atom_site_label
_atom_site_type_symbol
_atom_site_fract_x
_atom_site_fract_y
_atom_site_fract_z
F1 F 0.22557(16) 0.09915(18) 0.15090(7)
F2 F 0.24525(15) -0.15877(15) 0.13876(6)
O1 O 0.51271(16) 0.08439(17) 0.14561(7)
O2 O 0.35194(16) 0.02809(17) 0.25128(7)
O3 O 1.02989(19) 0.61659(19) 0.35954(8)
N1 N 0.8133(2) 0.2568(2) 0.16092(9)
N2 N 0.83122(19) 0.3396(2) 0.31402(8)
C1 C 0.6612(2) 0.1877(2) 0.18985(11)
C2 C 0.6606(2) 0.2257(2) 0.26849(10)
C3 C 0.5025(2) 0.1410(2) 0.29615(10)
C4 C 0.8367(3) 0.2439(3) 0.08141(10)
C5 C 0.7046(3) 0.3052(3) 0.04187(11)
H1 H 0.5764 0.2315 0.0449
H2 H 0.7225 0.2999 -0.0100
H3 H 0.7302 0.4235 0.0653
C6 C 0.8030(3) 0.0602(3) 0.04723(11)
H4 H 0.8904 0.0256 0.0738
H5 H 0.8212 0.0525 -0.0047
H6 H 0.6759 -0.0158 0.0506
C7 C 1.0367(3) 0.3620(3) 0.08044(12)
H7 H 1.0577 0.4795 0.1035
H8 H 1.0614 0.3581 0.0293
H9 H 1.1199 0.3246 0.1079
C8 C 0.4719(2) 0.1541(3) 0.37432(10)
C9 C 0.5643(2) 0.3012(3) 0.42904(11)
H10 H 0.6592 0.3979 0.4177
C10 C 0.5183(3) 0.3068(3) 0.49974(11)
H11 H 0.5819 0.4073 0.5366
C11 C 0.3805(3) 0.1672(3) 0.51704(11)
H12 H 0.3495 0.1717 0.5656
C12 C 0.2878(3) 0.0208(3) 0.46322(12)
H13 H 0.1927 -0.0752 0.4749
C13 C 0.3331(3) 0.0137(3) 0.39268(11)
H14 H 0.2693 -0.0876 0.3562
C14 C 0.9623(2) 0.2688(3) 0.34768(11)
C15 C 0.8714(3) 0.0737(3) 0.32932(14)
H15 H 0.7550 0.0344 0.3499
H16 H 0.9549 0.0274 0.3506
H17 H 0.8460 0.0339 0.2757
C16 C 1.1424(3) 0.3286(3) 0.31408(12)
H18 H 1.1169 0.2758 0.2615
H19 H 1.2323 0.2947 0.3393
H20 H 1.1932 0.4536 0.3199
C17 C 1.0047(3) 0.3289(3) 0.43106(11)
H21 H 1.0626 0.4543 0.4434
H22 H 1.0896 0.2826 0.4512
H23 H 0.8894 0.2883 0.4524
C18 C 0.8879(3) 0.5141(3) 0.32023(11)
C19 C 0.7791(3) 0.5788(3) 0.27165(11)
C20 C 0.8754(3) 0.6707(3) 0.22147(11)
H24 H 1.0020 0.6901 0.2204
C21 C 0.7887(3) 0.7332(3) 0.17369(12)
H25 H 0.8541 0.7918 0.1385
C22 C 0.6062(3) 0.7110(3) 0.17666(13)
H26 H 0.5461 0.7538 0.1435
C23 C 0.5122(3) 0.6266(3) 0.22803(13)
H27 H 0.3885 0.6149 0.2314
C24 C 0.5974(3) 0.5584(3) 0.27505(12)
H28 H 0.5308 0.4979 0.3095
B1 B 0.3287(3) 0.0115(3) 0.17150(13)
H29 H 0.909(3) 0.325(3) 0.1934(12)
loop_
_geom_bond_atom_site_label_1
_geom_bond_atom_site_label_2
_geom_bond_site_symmetry_1
_geom_bond_site_symmetry_2
F1 B1 1_555 1_555
F2 B1 1_555 1_555
O1 C1 1_555 1_555
O2 C3 1_555 1_555
O3 C18 1_555 1_555
N1 C1 1_555 1_555
N2 C2 1_555 1_555
C1 C2 1_555 1_555
C2 C3 1_555 1_555
C3 C8 1_555 1_555
C4 N1 1_555 1_555
C5 C4 1_555 1_555
H1 C5 1_555 1_555
H2 C5 1_555 1_555
H3 C5 1_555 1_555
C6 C4 1_555 1_555
H4 C6 1_555 1_555
H5 C6 1_555 1_555
H6 C6 1_555 1_555
C7 C4 1_555 1_555
H7 C7 1_555 1_555
H8 C7 1_555 1_555
H9 C7 1_555 1_555
C8 C9 1_555 1_555
C9 H10 1_555 1_555
C10 C9 1_555 1_555
H11 C10 1_555 1_555
C11 C10 1_555 1_555
H12 C11 1_555 1_555
C12 C11 1_555 1_555
H13 C12 1_555 1_555
C13 C8 1_555 1_555
H14 C13 1_555 1_555
C14 N2 1_555 1_555
C15 C14 1_555 1_555
H15 C15 1_555 1_555
H16 C15 1_555 1_555
H17 C15 1_555 1_555
C16 C14 1_555 1_555
H18 C16 1_555 1_555
H19 C16 1_555 1_555
H20 C16 1_555 1_555
C17 C14 1_555 1_555
H21 C17 1_555 1_555
H22 C17 1_555 1_555
H23 C17 1_555 1_555
C18 N2 1_555 1_555
C19 C18 1_555 1_555
C20 C19 1_555 1_555
H24 C20 1_555 1_555
C21 C20 1_555 1_555
H25 C21 1_555 1_555
C22 C21 1_555 1_555
H26 C22 1_555 1_555
C23 C22 1_555 1_555
H27 C23 1_555 1_555
C24 C19 1_555 1_555
H28 C24 1_555 1_555
B1 O1 1_555 1_555
H29 N1 1_555 1_555
O2 B1 1_555 1_555
C12 C13 1_555 1_555
C23 C24 1_555 1_555

#END
