
#######################################################################
#
#                 Cambridge Crystallographic Data Centre
#                                CCDC 
#
#######################################################################
#
# If this CIF has been generated from an entry in the Cambridge 
# Structural Database, then it will include bibliographic, chemical, 
# crystal, experimental, refinement or atomic coordinate data resulting 
# from the CCDC's data processing and validation procedures.
#
#######################################################################

data_MAMVON
_chemical_name_common            
Trimethylsilylacetylenyl-azacalix[1]arene[3]pyridine
_chemical_formula_moiety         'C30 H33 N7 Si1'
_chemical_name_systematic        
2,8,14,20-Tetramethyl-28-((trimethylsilyl)ethynyl)-2,8,14,20,25,26,27-heptaazapentacyclo[19.3.1.1^3,7^.1^9,13^.1^15,19^]octacosa-1(25),3(28),4,6,9(27),10,12,15(26),16,18,21,23-dodecaene
_symmetry_cell_setting           triclinic
_symmetry_space_group_name_H-M   'P -1'
_symmetry_Int_Tables_number      2
_space_group_name_Hall           '-P 1'
loop_
_symmetry_equiv_pos_site_id
_symmetry_equiv_pos_as_xyz
1 x,y,z
2 -x,-y,-z
_cell_length_a                   10.2829(17)
_cell_length_b                   10.390(2)
_cell_length_c                   14.484(2)
_cell_angle_alpha                79.649(10)
_cell_angle_beta                 71.640(10)
_cell_angle_gamma                76.483(9)
_cell_volume                     1418.55
_exptl_crystal_colour            yellow
_exptl_crystal_description       block
_cell_formula_units_Z            2
loop_
_atom_site_label
_atom_site_type_symbol
_atom_site_fract_x
_atom_site_fract_y
_atom_site_fract_z
Si1 Si 0.73854(7) 0.87823(8) 0.03364(5)
N1 N 0.3532(2) 1.07080(18) 0.34992(15)
N2 N 0.15741(18) 1.02636(18) 0.32826(12)
N3 N -0.03036(19) 0.96199(19) 0.30863(14)
N4 N 0.12088(19) 0.75830(19) 0.26613(13)
N5 N 0.2840(2) 0.56560(19) 0.21635(14)
N6 N 0.46035(19) 0.58148(18) 0.27910(13)
N7 N 0.61993(19) 0.61305(19) 0.34894(13)
C1 C 0.4850(2) 0.8421(2) 0.34878(15)
C2 C 0.5133(2) 0.7147(2) 0.39849(15)
C3 C 0.4377(3) 0.6856(2) 0.49415(16)
H1 H 0.4582 0.5997 0.5280
C4 C 0.3318(3) 0.7819(3) 0.54082(17)
H2 H 0.2790 0.7612 0.6065
C5 C 0.3022(2) 0.9076(2) 0.49295(17)
H3 H 0.2288 0.9729 0.5255
C6 C 0.3795(2) 0.9386(2) 0.39746(16)
C7 C 0.2330(2) 1.1178(2) 0.32195(15)
C8 C 0.1940(2) 1.2522(2) 0.28755(17)
H4 H 0.2469 1.3168 0.2858
C9 C 0.0751(3) 1.2862(2) 0.25625(17)
H5 H 0.0461 1.3760 0.2320
C10 C -0.0020(2) 1.1930(2) 0.25945(16)
H6 H -0.0823 1.2163 0.2365
C11 C 0.0425(2) 1.0626(2) 0.29771(15)
C12 C 0.0354(2) 0.8298(2) 0.33767(16)
C13 C 0.0108(2) 0.7829(3) 0.43539(17)
H7 H -0.0517 0.8361 0.4840
C14 C 0.0789(3) 0.6568(2) 0.46137(18)
H8 H 0.0630 0.6212 0.5283
C15 C 0.1697(2) 0.5836(2) 0.38920(17)
H9 H 0.2181 0.4968 0.4052
C16 C 0.1895(2) 0.6387(2) 0.29236(16)
C17 C 0.4255(2) 0.5329(2) 0.21269(16)
C18 C 0.5231(3) 0.4551(2) 0.14340(18)
H10 H 0.4963 0.4216 0.0966
C19 C 0.6597(3) 0.4288(3) 0.14551(18)
H11 H 0.7283 0.3750 0.0998
C20 C 0.6993(3) 0.4785(2) 0.21227(18)
H12 H 0.7938 0.4607 0.2134
C21 C 0.5938(2) 0.5569(2) 0.27881(15)
C22 C 0.5627(2) 0.8667(2) 0.24681(16)
C23 C 0.6325(2) 0.8783(2) 0.16260(17)
C24 C 0.7758(4) 1.0456(4) -0.0142(3)
H13 H 0.6910 1.1122 0.0075
H14 H 0.8069 1.0538 -0.0859
H15 H 0.8493 1.0603 0.0102
C25 C 0.6372(3) 0.8223(4) -0.0310(2)
H16 H 0.5523 0.8889 -0.0311
H17 H 0.6118 0.7371 0.0024
H18 H 0.6936 0.8110 -0.0986
C26 C 0.9031(3) 0.7557(4) 0.0310(2)
H19 H 0.8812 0.6673 0.0583
H20 H 0.9526 0.7825 0.0700
H21 H 0.9622 0.7526 -0.0368
C27 C 0.4504(3) 1.1565(3) 0.3392(3)
H22 H 0.4775 1.1973 0.2711
H23 H 0.5335 1.1040 0.3566
H24 H 0.4062 1.2266 0.3825
C28 C -0.1287(3) 0.9737(3) 0.2527(2)
H25 H -0.2026 1.0519 0.2686
H26 H -0.1699 0.8935 0.2693
H27 H -0.0798 0.9834 0.1826
C29 C 0.2476(3) 0.5783(3) 0.12501(18)
H28 H 0.2727 0.4910 0.1007
H29 H 0.2986 0.6410 0.0762
H30 H 0.1470 0.6113 0.1368
C30 C 0.7619(3) 0.6037(3) 0.3514(2)
H31 H 0.8075 0.5098 0.3570
H32 H 0.7604 0.6443 0.4079
H33 H 0.8136 0.6506 0.2910
loop_
_geom_bond_atom_site_label_1
_geom_bond_atom_site_label_2
_geom_bond_site_symmetry_1
_geom_bond_site_symmetry_2
Si1 C23 1_555 1_555
N1 C6 1_555 1_555
N2 C7 1_555 1_555
N3 C11 1_555 1_555
N4 C12 1_555 1_555
N5 C16 1_555 1_555
N6 C17 1_555 1_555
N7 C2 1_555 1_555
C1 C2 1_555 1_555
C2 C3 1_555 1_555
C3 H1 1_555 1_555
C4 C3 1_555 1_555
H2 C4 1_555 1_555
C5 C4 1_555 1_555
H3 C5 1_555 1_555
C6 C1 1_555 1_555
C7 N1 1_555 1_555
C8 C7 1_555 1_555
H4 C8 1_555 1_555
C9 C8 1_555 1_555
H5 C9 1_555 1_555
C10 C9 1_555 1_555
H6 C10 1_555 1_555
C11 N2 1_555 1_555
C12 N3 1_555 1_555
C13 C12 1_555 1_555
H7 C13 1_555 1_555
C14 C13 1_555 1_555
H8 C14 1_555 1_555
C15 C14 1_555 1_555
H9 C15 1_555 1_555
C16 N4 1_555 1_555
C17 N5 1_555 1_555
C18 C17 1_555 1_555
H10 C18 1_555 1_555
C19 C18 1_555 1_555
H11 C19 1_555 1_555
C20 C19 1_555 1_555
H12 C20 1_555 1_555
C21 N6 1_555 1_555
C22 C1 1_555 1_555
C23 C22 1_555 1_555
C24 Si1 1_555 1_555
H13 C24 1_555 1_555
H14 C24 1_555 1_555
H15 C24 1_555 1_555
C25 Si1 1_555 1_555
H16 C25 1_555 1_555
H17 C25 1_555 1_555
H18 C25 1_555 1_555
C26 Si1 1_555 1_555
H19 C26 1_555 1_555
H20 C26 1_555 1_555
H21 C26 1_555 1_555
C27 N1 1_555 1_555
H22 C27 1_555 1_555
H23 C27 1_555 1_555
H24 C27 1_555 1_555
C28 N3 1_555 1_555
H25 C28 1_555 1_555
H26 C28 1_555 1_555
H27 C28 1_555 1_555
C29 N5 1_555 1_555
H28 C29 1_555 1_555
H29 C29 1_555 1_555
H30 C29 1_555 1_555
C30 N7 1_555 1_555
H31 C30 1_555 1_555
H32 C30 1_555 1_555
H33 C30 1_555 1_555
N7 C21 1_555 1_555
C5 C6 1_555 1_555
C10 C11 1_555 1_555
C15 C16 1_555 1_555
C20 C21 1_555 1_555

#END
