
#######################################################################
#
#                 Cambridge Crystallographic Data Centre
#                                CCDC 
#
#######################################################################
#
# If this CIF has been generated from an entry in the Cambridge 
# Structural Database, then it will include bibliographic, chemical, 
# crystal, experimental, refinement or atomic coordinate data resulting 
# from the CCDC's data processing and validation procedures.
#
#######################################################################

data_MAMVIH
_chemical_name_common            
'2-thienylacetylenyl-azacalix[1]arene[3]pyridine unknown solvate'
_chemical_formula_moiety         'C31 H27 N7 S1'
_chemical_name_systematic        
'2,8,14,20-Tetramethyl-28-(2-thienylethynyl)-2,8,14,20,25,26,27-heptaazapentacyclo[19.3.1.1^3,7^.1^9,13^.1^15,19^]octacosa-1(25),3(28),4,6,9(27),10,12,15(26),16,18,21,23-dodecaene unknown solvate'
_symmetry_cell_setting           triclinic
_symmetry_space_group_name_H-M   'P -1'
_symmetry_Int_Tables_number      2
_space_group_name_Hall           '-P 1'
loop_
_symmetry_equiv_pos_site_id
_symmetry_equiv_pos_as_xyz
1 x,y,z
2 -x,-y,-z
_cell_length_a                   10.558(3)
_cell_length_b                   10.651(3)
_cell_length_c                   14.434(4)
_cell_angle_alpha                74.058(11)
_cell_angle_beta                 80.601(13)
_cell_angle_gamma                75.891(11)
_cell_volume                     1505.54
_exptl_crystal_colour            colorless
_exptl_crystal_description       block
_cell_formula_units_Z            2
loop_
_atom_site_label
_atom_site_type_symbol
_atom_site_fract_x
_atom_site_fract_y
_atom_site_fract_z
N1 N 0.1400(3) 1.1089(3) 0.8534(2)
N2 N 0.0833(2) 0.9613(3) 0.78709(18)
N3 N 0.0395(3) 0.7984(4) 0.7276(2)
N4 N 0.2339(3) 0.6355(3) 0.7651(2)
N5 N 0.4375(4) 0.4880(3) 0.7936(2)
N6 N 0.5137(3) 0.6452(3) 0.83799(17)
N7 N 0.5721(3) 0.8082(3) 0.8869(2)
C1 C 0.3545(3) 0.9544(3) 0.86813(19)
C2 C 0.2264(3) 0.9984(3) 0.9086(2)
C3 C 0.1861(3) 0.9368(4) 1.0025(2)
H1 H 0.1022 0.9676 1.0299
C4 C 0.2677(4) 0.8314(4) 1.0556(2)
H2 H 0.2382 0.7893 1.1180
C5 C 0.3933(3) 0.7873(4) 1.0172(2)
H3 H 0.4485 0.7155 1.0537
C6 C 0.4380(3) 0.8493(3) 0.9244(2)
C7 C 0.0714(3) 1.0887(4) 0.7878(2)
C8 C -0.0063(4) 1.1934(5) 0.7250(3)
H4 H -0.0140 1.2822 0.7252
C9 C -0.0701(5) 1.1586(7) 0.6637(4)
H5 H -0.1229 1.2255 0.6218
C10 C -0.0589(5) 1.0297(6) 0.6621(3)
H6 H -0.1026 1.0076 0.6199
C11 C 0.0202(3) 0.9317(5) 0.7258(2)
C12 C 0.1177(4) 0.7018(4) 0.7978(2)
C13 C 0.0737(4) 0.6819(4) 0.8953(3)
H7 H -0.0076 0.7286 0.9162
C14 C 0.1527(4) 0.5918(4) 0.9599(3)
H8 H 0.1251 0.5757 1.0259
C15 C 0.2737(4) 0.5244(4) 0.9274(3)
H9 H 0.3289 0.4631 0.9706
C16 C 0.3095(4) 0.5503(4) 0.8301(3)
C17 C 0.5430(4) 0.5426(3) 0.7965(2)
C18 C 0.6694(5) 0.4950(4) 0.7590(3)
H10 H 0.6883 0.4230 0.7307
C19 C 0.7658(4) 0.5577(5) 0.7648(3)
H11 H 0.8515 0.5274 0.7401
C20 C 0.7392(3) 0.6634(4) 0.8060(3)
H12 H 0.8046 0.7062 0.8095
C21 C 0.6093(3) 0.7044(4) 0.8428(2)
C22 C 0.3996(4) 1.0152(4) 0.7708(2)
C23 C 0.4152(8) 1.0760(8) 0.6874(6)
C24 C 0.4471(6) 1.1314(5) 0.5870(4)
S1 S 0.5805(4) 1.1966(4) 0.5417(2)
C25 C 0.5567(9) 1.2284(8) 0.4284(5)
H13 H 0.6136 1.2621 0.3763
C26 C 0.4407(9) 1.1983(8) 0.4211(5)
H14 H 0.4074 1.2135 0.3623
C27 C 0.3759(6) 1.1420(6) 0.5109(4)
H15 H 0.2963 1.1156 0.5183
C28 C 0.1413(6) 1.2429(5) 0.8577(4)
H16 H 0.0788 1.3061 0.8174
H17 H 0.2274 1.2606 0.8353
H18 H 0.1186 1.2507 0.9234
C29 C 0.0275(6) 0.7575(6) 0.6416(3)
H19 H -0.0275 0.8289 0.6001
H20 H -0.0108 0.6801 0.6604
H21 H 0.1129 0.7366 0.6075
C30 C 0.4473(6) 0.4097(6) 0.7242(4)
H22 H 0.5381 0.3749 0.7063
H23 H 0.4071 0.4651 0.6676
H24 H 0.4032 0.3371 0.7526
C31 C 0.6628(4) 0.8907(6) 0.8868(4)
H25 H 0.7486 0.8531 0.8602
H26 H 0.6666 0.8944 0.9520
H27 H 0.6334 0.9793 0.8482
C32? C 0.4765(9) 1.0387(11) 0.6965(7)
C33? C 0.5573(7) 1.0642(8) 0.6035(5)
C34? C 0.6592(11) 1.1629(12) 0.4472(7)
C35? C 0.7024(9) 1.0279(11) 0.4707(6)
C36? C 0.6443(6) 0.9681(7) 0.5604(4)
H28? H 0.6849 1.2206 0.3899
H29? H 0.7634 0.9812 0.4314
H30? H 0.6608 0.8767 0.5882
S2? S 0.5574(11) 1.2075(11) 0.5337(7)
loop_
_geom_bond_atom_site_label_1
_geom_bond_atom_site_label_2
_geom_bond_site_symmetry_1
_geom_bond_site_symmetry_2
N1 C2 1_555 1_555
N2 C7 1_555 1_555
N3 C11 1_555 1_555
N4 C12 1_555 1_555
N5 C16 1_555 1_555
N6 C17 1_555 1_555
N7 C6 1_555 1_555
C1 C2 1_555 1_555
C2 C3 1_555 1_555
C3 H1 1_555 1_555
C4 C3 1_555 1_555
H2 C4 1_555 1_555
C5 C4 1_555 1_555
H3 C5 1_555 1_555
C6 C1 1_555 1_555
C7 N1 1_555 1_555
C8 C7 1_555 1_555
H4 C8 1_555 1_555
C9 C8 1_555 1_555
H5 C9 1_555 1_555
C10 C9 1_555 1_555
H6 C10 1_555 1_555
C11 N2 1_555 1_555
C12 N3 1_555 1_555
C13 C12 1_555 1_555
H7 C13 1_555 1_555
C14 C13 1_555 1_555
H8 C14 1_555 1_555
C15 C14 1_555 1_555
H9 C15 1_555 1_555
C16 N4 1_555 1_555
C17 N5 1_555 1_555
C18 C17 1_555 1_555
H10 C18 1_555 1_555
C19 C18 1_555 1_555
H11 C19 1_555 1_555
C20 C19 1_555 1_555
H12 C20 1_555 1_555
C21 N6 1_555 1_555
C22 C1 1_555 1_555
C23 C22 1_555 1_555
C24 C23 1_555 1_555
S1 C24 1_555 1_555
C25 S1 1_555 1_555
H13 C25 1_555 1_555
C26 C25 1_555 1_555
H14 C26 1_555 1_555
C27 C24 1_555 1_555
H15 C27 1_555 1_555
C28 N1 1_555 1_555
H16 C28 1_555 1_555
H17 C28 1_555 1_555
H18 C28 1_555 1_555
C29 N3 1_555 1_555
H19 C29 1_555 1_555
H20 C29 1_555 1_555
H21 C29 1_555 1_555
C30 N5 1_555 1_555
H22 C30 1_555 1_555
H23 C30 1_555 1_555
H24 C30 1_555 1_555
C31 N7 1_555 1_555
H25 C31 1_555 1_555
H26 C31 1_555 1_555
H27 C31 1_555 1_555
N7 C21 1_555 1_555
C5 C6 1_555 1_555
C10 C11 1_555 1_555
C15 C16 1_555 1_555
C20 C21 1_555 1_555
C26 C27 1_555 1_555

#END
