
#######################################################################
#
#                 Cambridge Crystallographic Data Centre
#                                CCDC 
#
#######################################################################
#
# If this CIF has been generated from an entry in the Cambridge 
# Structural Database, then it will include bibliographic, chemical, 
# crystal, experimental, refinement or atomic coordinate data resulting 
# from the CCDC's data processing and validation procedures.
#
#######################################################################

data_MANCEM
_chemical_formula_moiety         
'C44 H52 N24 O12,2(Na1 1+),2(Cl1 1-),4(C7 H6 O3),7(H2 O1)'
_chemical_name_systematic        
'octamethylcucurbit(6)uril di-sodium dichloride tetrakis(4-hydroxybenzoic acid) heptahydrate'
_symmetry_cell_setting           monoclinic
_symmetry_space_group_name_H-M   'P 21/c'
_symmetry_Int_Tables_number      14
_space_group_name_Hall           '-P 2ybc'
loop_
_symmetry_equiv_pos_site_id
_symmetry_equiv_pos_as_xyz
1 x,y,z
2 -x,1/2+y,1/2-z
3 -x,-y,-z
4 x,1/2-y,1/2+z
_cell_length_a                   11.239(6)
_cell_length_b                   15.408(8)
_cell_length_c                   24.027(12)
_cell_angle_alpha                90
_cell_angle_beta                 98.565(14)
_cell_angle_gamma                90
_cell_volume                     4114.37
_exptl_crystal_colour            colorless
_exptl_crystal_description       prism
_cell_formula_units_Z            2
loop_
_atom_site_label
_atom_site_type_symbol
_atom_site_fract_x
_atom_site_fract_y
_atom_site_fract_z
Cl1 Cl 0.54530(11) 0.00132(7) 0.63892(5)
C1 C 0.9089(3) -0.0782(3) 0.78680(17)
C2 C 0.9240(3) -0.1613(3) 0.80968(16)
H1 H 0.9075 -0.1721 0.8463
C3 C 0.9633(3) -0.2279(3) 0.77827(16)
H2 H 0.9771 -0.2831 0.7945
C4 C 0.9269(4) -0.0643(3) 0.73188(17)
H3 H 0.9135 -0.0089 0.7157
C5 C 0.9646(3) -0.1319(3) 0.70046(16)
H4 H 0.9780 -0.1215 0.6633
C6 C 0.9828(3) -0.2144(2) 0.72320(16)
C7 C 1.0245(4) -0.2876(3) 0.69198(17)
O1 O 0.8761(3) -0.01446(17) 0.82026(11)
H5 H 0.8927 0.0414 0.8077
O2 O 1.0398(3) -0.36001(19) 0.71099(12)
O3 O 1.0406(3) -0.26706(19) 0.64032(13)
H6 H 1.0640 -0.3105 0.6246
O4 O 0.9182(2) 0.11025(17) 0.92761(11)
O5 O 0.7297(3) 0.0027(2) 0.99645(13)
O6 O 0.9411(2) -0.10586(19) 0.95737(12)
Na1 Na 0.78514(13) -0.01225(10) 0.90462(6)
C8 C 0.5484(3) -0.1322(2) 0.84256(14)
C9 C 0.3661(3) -0.2118(2) 0.82930(14)
C10 C 0.3465(3) -0.1195(2) 0.79826(14)
C11 C 0.2280(3) -0.1272(3) 0.87149(16)
C12 C 0.5068(3) -0.0026(2) 0.78464(15)
H7 H 0.5943 -0.0055 0.7862
H8 H 0.4710 -0.0016 0.7449
C13 C 0.2016(3) 0.0048(2) 0.81539(16)
H9 H 0.1286 0.0072 0.8331
H10 H 0.1766 0.0074 0.7746
C14 C 0.5632(3) 0.1237(2) 0.84382(14)
C15 C 0.3598(3) 0.1219(2) 0.80108(14)
C16 C 0.3876(3) 0.2110(2) 0.83363(14)
C17 C 0.2476(3) 0.1304(2) 0.87665(15)
C18 C 0.5899(3) 0.2671(2) 0.88786(14)
H11 H 0.6740 0.2565 0.8835
H12 H 0.5676 0.3242 0.8716
C19 C 0.2899(3) 0.2751(2) 0.91608(14)
H13 H 0.2930 0.3314 0.8973
H14 H 0.2090 0.2687 0.9262
C20 C 0.6728(3) 0.2455(2) 0.98734(15)
C21 C 0.4906(3) 0.3197(2) 0.96938(14)
H15 H 0.4816 0.3785 0.9528
C22 C 0.5364(3) 0.3228(2) 1.03340(13)
H16 H 0.5490 0.3831 1.0472
C23 C 0.3449(3) 0.2595(2) 1.01874(15)
C24 C 0.7339(3) 0.2724(2) 1.08873(14)
H17 H 0.7332 0.3286 1.1078
H18 H 0.8142 0.2644 1.0783
C25 C 0.5610(3) -0.2789(2) 0.88231(13)
H19 H 0.6449 -0.2750 0.8760
H20 H 0.5288 -0.3342 0.8665
C26 C 0.3353(4) -0.2907(2) 0.79217(15)
H21 H 0.2496 -0.2912 0.7786
H22 H 0.3572 -0.3430 0.8138
H23 H 0.3794 -0.2883 0.7604
C27 C 0.3034(3) -0.1253(3) 0.73561(15)
H24 H 0.3642 -0.1538 0.7174
H25 H 0.2891 -0.0674 0.7203
H26 H 0.2293 -0.1585 0.7290
C28 C 0.3139(4) 0.1306(3) 0.73868(15)
H27 H 0.2373 0.1608 0.7335
H28 H 0.3034 0.0733 0.7219
H29 H 0.3715 0.1632 0.7207
C29 C 0.3653(3) 0.2922(2) 0.79763(15)
H30 H 0.2802 0.2969 0.7833
H31 H 0.4106 0.2887 0.7664
H32 H 0.3909 0.3429 0.8203
N1 N 0.4940(2) -0.20917(18) 0.85233(12)
N2 N 0.4667(2) -0.08079(19) 0.81040(11)
N3 N 0.2866(2) -0.20501(19) 0.87220(12)
N4 N 0.2603(2) -0.07790(19) 0.82911(12)
N5 N 0.4768(2) 0.07794(19) 0.81077(12)
N6 N 0.5154(2) 0.20197(18) 0.85601(11)
N7 N 0.2739(2) 0.08107(19) 0.83250(12)
N8 N 0.3090(2) 0.20698(19) 0.87674(11)
N9 N 0.5813(2) 0.26992(19) 0.94693(11)
N10 N 0.6478(2) 0.27492(19) 1.03835(11)
N11 N 0.3754(2) 0.27567(19) 0.96659(11)
N12 N 0.4418(2) 0.27957(19) 1.05774(11)
O7 O 0.6541(2) -0.11572(16) 0.85766(10)
O8 O 0.6675(2) 0.10168(16) 0.85772(10)
O9 O 0.7639(2) 0.20630(18) 0.98012(10)
O10 O 0.1554(2) -0.10691(17) 0.90292(11)
O11 O 0.1777(2) 0.11078(17) 0.90926(11)
O12 O 0.2479(2) 0.23295(17) 1.02867(10)
C8B C 0.4516(3) 0.1322(2) 1.15744(14)
C9B C 0.6339(3) 0.2118(2) 1.17070(14)
C10B C 0.6535(3) 0.1195(2) 1.20174(14)
C11B C 0.7720(3) 0.1272(3) 1.12851(16)
C12B C 0.4932(3) 0.0026(2) 1.21536(15)
H7B H 0.4057 0.0055 1.2138
H8B H 0.5290 0.0016 1.2551
C13B C 0.7984(3) -0.0048(2) 1.18461(16)
H9B H 0.8714 -0.0072 1.1669
H10B H 0.8234 -0.0074 1.2254
C14B C 0.4368(3) -0.1237(2) 1.15618(14)
C15B C 0.6402(3) -0.1219(2) 1.19892(14)
C16B C 0.6124(3) -0.2110(2) 1.16637(14)
C17B C 0.7524(3) -0.1304(2) 1.12335(15)
C18B C 0.4101(3) -0.2671(2) 1.11214(14)
H11B H 0.3260 -0.2565 1.1165
H12B H 0.4324 -0.3242 1.1284
C19B C 0.7101(3) -0.2751(2) 1.08392(14)
H13B H 0.7070 -0.3314 1.1027
H14B H 0.7910 -0.2687 1.0738
C20B C 0.3272(3) -0.2455(2) 1.01266(15)
C21B C 0.5094(3) -0.3197(2) 1.03062(14)
H15B H 0.5184 -0.3785 1.0472
C22B C 0.4636(3) -0.3228(2) 0.96660(13)
H16B H 0.4510 -0.3831 0.9528
C23B C 0.6551(3) -0.2595(2) 0.98126(15)
C24B C 0.2661(3) -0.2724(2) 0.91127(14)
H17B H 0.2668 -0.3286 0.8922
H18B H 0.1858 -0.2644 0.9217
C25B C 0.4390(3) 0.2789(2) 1.11769(13)
H19B H 0.3551 0.2750 1.1240
H20B H 0.4712 0.3342 1.1335
C26B C 0.6647(4) 0.2907(2) 1.20783(15)
H21B H 0.7504 0.2912 1.2214
H22B H 0.6428 0.3430 1.1862
H23B H 0.6206 0.2883 1.2396
C27B C 0.6966(3) 0.1253(3) 1.26439(15)
H24B H 0.6358 0.1538 1.2826
H25B H 0.7109 0.0674 1.2797
H26B H 0.7707 0.1585 1.2710
C28B C 0.6861(4) -0.1306(3) 1.26132(15)
H27B H 0.7627 -0.1608 1.2665
H28B H 0.6966 -0.0733 1.2781
H29B H 0.6285 -0.1632 1.2793
C29B C 0.6347(3) -0.2922(2) 1.20237(15)
H30B H 0.7198 -0.2969 1.2167
H31B H 0.5894 -0.2887 1.2336
H32B H 0.6091 -0.3429 1.1797
N1B N 0.5060(2) 0.20917(18) 1.14767(12)
N2B N 0.5333(2) 0.08079(19) 1.18960(11)
N3B N 0.7134(2) 0.20501(19) 1.12780(12)
N4B N 0.7397(2) 0.07790(19) 1.17089(12)
N5B N 0.5232(2) -0.07794(19) 1.18923(12)
N6B N 0.4846(2) -0.20197(18) 1.14399(11)
N7B N 0.7261(2) -0.08107(19) 1.16750(12)
N8B N 0.6910(2) -0.20698(19) 1.12326(11)
N9B N 0.4187(2) -0.26992(19) 1.05307(11)
N10B N 0.3522(2) -0.27492(19) 0.96165(11)
N11B N 0.6246(2) -0.27567(19) 1.03341(11)
N12B N 0.5582(2) -0.27957(19) 0.94226(11)
O7B O 0.3459(2) 0.11572(16) 1.14234(10)
O8B O 0.3325(2) -0.10168(16) 1.14228(10)
O9B O 0.2361(2) -0.20630(18) 1.01988(10)
O10B O 0.8446(2) 0.10691(17) 1.09708(11)
O11B O 0.8223(2) -0.11078(17) 1.09074(11)
O12B O 0.7521(2) -0.23295(17) 0.97133(10)
C30 C -0.0360(4) 0.6298(3) 0.9329(2)
C31 C -0.0034(4) 0.6500(3) 0.98855(19)
H33 H -0.0481 0.6906 1.0060
C32 C 0.0964(4) 0.6099(3) 1.0192(2)
H34 H 0.1188 0.6233 1.0574
C33 C 0.0320(4) 0.5696(3) 0.9067(2)
H35 H 0.0099 0.5559 0.8685
C34 C 0.1303(4) 0.5313(3) 0.9374(2)
H36 H 0.1763 0.4916 0.9198
C35 C 0.1629(4) 0.5501(3) 0.9935(2)
C36 C 0.2711(4) 0.5082(3) 1.0249(2)
O13 O -0.1323(3) 0.6673(2) 0.90039(13)
H37 H -0.1651 0.7020 0.9197
O14 O 0.2997(3) 0.5374(2) 1.07708(17)
H38 H 0.3604 0.5115 1.0927
O15 O 0.3284(3) 0.4532(2) 1.00600(16)
loop_
_geom_bond_atom_site_label_1
_geom_bond_atom_site_label_2
_geom_bond_site_symmetry_1
_geom_bond_site_symmetry_2
C1 C2 1_555 1_555
C2 H1 1_555 1_555
C3 C2 1_555 1_555
H2 C3 1_555 1_555
C4 C1 1_555 1_555
H3 C4 1_555 1_555
C5 C4 1_555 1_555
H4 C5 1_555 1_555
C6 C3 1_555 1_555
C7 C6 1_555 1_555
O1 C1 1_555 1_555
H5 O1 1_555 1_555
O2 C7 1_555 1_555
O3 C7 1_555 1_555
H6 O3 1_555 1_555
C8 N1 1_555 1_555
C9 C10 1_555 1_555
C10 C27 1_555 1_555
C11 N3 1_555 1_555
C12 H7 1_555 1_555
H8 C12 1_555 1_555
C13 H9 1_555 1_555
H10 C13 1_555 1_555
C14 N5 1_555 1_555
C15 C16 1_555 1_555
C16 C29 1_555 1_555
C17 N7 1_555 1_555
C18 H11 1_555 1_555
H12 C18 1_555 1_555
C19 H13 1_555 1_555
H14 C19 1_555 1_555
C20 N9 1_555 1_555
C21 H15 1_555 1_555
C22 C21 1_555 1_555
H16 C22 1_555 1_555
C23 N11 1_555 1_555
C24 H17 1_555 1_555
H18 C24 1_555 1_555
C25 H19 1_555 1_555
H20 C25 1_555 1_555
C26 C9 1_555 1_555
H21 C26 1_555 1_555
H22 C26 1_555 1_555
H23 C26 1_555 1_555
C27 H24 1_555 1_555
H25 C27 1_555 1_555
H26 C27 1_555 1_555
C28 C15 1_555 1_555
H27 C28 1_555 1_555
H28 C28 1_555 1_555
H29 C28 1_555 1_555
C29 H30 1_555 1_555
H31 C29 1_555 1_555
H32 C29 1_555 1_555
N1 C9 1_555 1_555
N2 C8 1_555 1_555
N3 C9 1_555 1_555
N4 C10 1_555 1_555
N5 C12 1_555 1_555
N6 C14 1_555 1_555
N7 C13 1_555 1_555
N8 C16 1_555 1_555
N9 C18 1_555 1_555
N10 C20 1_555 1_555
N11 C19 1_555 1_555
N12 C22 1_555 1_555
O7 C8 1_555 1_555
O8 C14 1_555 1_555
O9 C20 1_555 1_555
O10 C11 1_555 1_555
O11 C17 1_555 1_555
O12 C23 1_555 1_555
C30 C31 1_555 1_555
C31 H33 1_555 1_555
C32 C31 1_555 1_555
H34 C32 1_555 1_555
C33 C30 1_555 1_555
H35 C33 1_555 1_555
C34 C33 1_555 1_555
H36 C34 1_555 1_555
C35 C32 1_555 1_555
C36 C35 1_555 1_555
O13 C30 1_555 1_555
H37 O13 1_555 1_555
O14 C36 1_555 1_555
H38 O14 1_555 1_555
O15 C36 1_555 1_555
C8B N1B 1_555 1_555
C9B C10B 1_555 1_555
C10B C27B 1_555 1_555
C11B N3B 1_555 1_555
C12B H7B 1_555 1_555
H8B C12B 1_555 1_555
C13B H9B 1_555 1_555
H10B C13B 1_555 1_555
C14B N5B 1_555 1_555
C15B C16B 1_555 1_555
C16B C29B 1_555 1_555
C17B N7B 1_555 1_555
C18B H11B 1_555 1_555
H12B C18B 1_555 1_555
C19B H13B 1_555 1_555
H14B C19B 1_555 1_555
C20B N9B 1_555 1_555
C21B H15B 1_555 1_555
C22B C21B 1_555 1_555
H16B C22B 1_555 1_555
C23B N11B 1_555 1_555
C24B N3 1_555 1_555
H17B C24B 1_555 1_555
H18B C24B 1_555 1_555
C25B N12 1_555 1_555
H19B C25B 1_555 1_555
H20B C25B 1_555 1_555
C26B C9B 1_555 1_555
H21B C26B 1_555 1_555
H22B C26B 1_555 1_555
H23B C26B 1_555 1_555
C27B H24B 1_555 1_555
H25B C27B 1_555 1_555
H26B C27B 1_555 1_555
C28B C15B 1_555 1_555
H27B C28B 1_555 1_555
H28B C28B 1_555 1_555
H29B C28B 1_555 1_555
C29B H30B 1_555 1_555
H31B C29B 1_555 1_555
H32B C29B 1_555 1_555
N1B C9B 1_555 1_555
N2B C8B 1_555 1_555
N3B C24 1_555 1_555
N4B C10B 1_555 1_555
N5B C12B 1_555 1_555
N6B C14B 1_555 1_555
N7B C13B 1_555 1_555
N8B C16B 1_555 1_555
N9B C18B 1_555 1_555
N10B C20B 1_555 1_555
N11B C19B 1_555 1_555
N12B C25 1_555 1_555
O7B C8B 1_555 1_555
O8B C14B 1_555 1_555
O9B C20B 1_555 1_555
O10B C11B 1_555 1_555
O11B C17B 1_555 1_555
O12B C23B 1_555 1_555
C5 C6 1_555 1_555
C10 N2 1_555 1_555
C11 N4 1_555 1_555
C12 N2 1_555 1_555
C13 N4 1_555 1_555
C15 N5 1_555 1_555
C15 N7 1_555 1_555
C16 N6 1_555 1_555
C17 N8 1_555 1_555
C18 N6 1_555 1_555
C19 N8 1_555 1_555
C21 N9 1_555 1_555
C21 N11 1_555 1_555
C22 N10 1_555 1_555
C23 N12 1_555 1_555
C24 N10 1_555 1_555
C25 N1 1_555 1_555
C34 C35 1_555 1_555
C9B N3B 1_555 1_555
C10B N2B 1_555 1_555
C11B N4B 1_555 1_555
C12B N2B 1_555 1_555
C13B N4B 1_555 1_555
C15B N5B 1_555 1_555
C15B N7B 1_555 1_555
C16B N6B 1_555 1_555
C17B N8B 1_555 1_555
C18B N6B 1_555 1_555
C19B N8B 1_555 1_555
C21B N9B 1_555 1_555
C21B N11B 1_555 1_555
C22B N10B 1_555 1_555
C22B N12B 1_555 1_555
C23B N12B 1_555 1_555
C24B N10B 1_555 1_555
C25B N1B 1_555 1_555

#END
