
#######################################################################
#
#                 Cambridge Crystallographic Data Centre
#                                CCDC 
#
#######################################################################
#
# If this CIF has been generated from an entry in the Cambridge 
# Structural Database, then it will include bibliographic, chemical, 
# crystal, experimental, refinement or atomic coordinate data resulting 
# from the CCDC's data processing and validation procedures.
#
#######################################################################

data_MANHOB
_chemical_formula_moiety         'C23 H35 N4 O3 P1'
_chemical_name_systematic        
'methyl (4S,5R)-1-((3aR,7aR)-1,3-di-isopropyl-2-oxido-octahydro-1H-1,3,2-benzodiazaphosphol-2-yl)-5-phenyl-4,5-dihydro-1H-imidazole-4-carboxylate'
_symmetry_cell_setting           monoclinic
_symmetry_space_group_name_H-M   'P 21'
_symmetry_Int_Tables_number      4
_space_group_name_Hall           'P 2yb'
loop_
_symmetry_equiv_pos_site_id
_symmetry_equiv_pos_as_xyz
1 x,y,z
2 -x,1/2+y,-z
_cell_length_a                   5.9174(14)
_cell_length_b                   20.176(5)
_cell_length_c                   10.449(2)
_cell_angle_alpha                90
_cell_angle_beta                 104.909(3)
_cell_angle_gamma                90
_cell_volume                     1205.5
_exptl_crystal_colour            colorless
_exptl_crystal_description       parallelepiped
_cell_formula_units_Z            2
loop_
_atom_site_label
_atom_site_type_symbol
_atom_site_fract_x
_atom_site_fract_y
_atom_site_fract_z
P1 P 0.39269(16) 0.53704(4) 0.37844(9)
O1 O 0.1423(4) 0.52865(13) 0.3712(3)
O2 O 0.1751(5) 0.28524(14) 0.2288(3)
O3 O 0.3092(6) 0.3628(2) 0.1126(3)
N1 N 0.4850(6) 0.57108(15) 0.2576(3)
N2 N 0.5331(5) 0.58831(14) 0.4953(3)
N3 N 0.5062(5) 0.45987(14) 0.3917(3)
N4 N 0.7121(6) 0.37701(16) 0.3254(3)
C1 C 0.6007(7) 0.63550(18) 0.3014(4)
H1 H 0.4777 0.6705 0.2919
C2 C 0.7832(7) 0.65904(18) 0.2338(4)
H2 H 0.7121 0.665 0.1378
H3 H 0.9102 0.6259 0.2452
C3 C 0.8820(7) 0.72540(19) 0.2966(4)
H4 H 1.0097 0.7399 0.2577
H5 H 0.7573 0.7594 0.2756
C4 C 0.9763(7) 0.7201(2) 0.4479(4)
H6 H 1.1179 0.6918 0.4686
H7 H 1.0223 0.7647 0.4848
C5 C 0.7962(7) 0.69081(18) 0.5143(4)
H8 H 0.8678 0.6842 0.6101
H9 H 0.662 0.7214 0.5042
C6 C 0.7136(6) 0.62465(17) 0.4482(4)
H10 H 0.8525 0.5951 0.4573
C7 C 0.3717(8) 0.5553(2) 0.1189(4)
H11 H 0.2568 0.5191 0.1202
C8 C 0.5641(7) 0.56932(19) 0.6351(4)
H12 H 0.453 0.532 0.6355
C9 C 0.5461(10) 0.5274(3) 0.0482(4)
H13 H 0.6596 0.5618 0.0417
H14 H 0.4627 0.5128 -0.041
H15 H 0.6282 0.4896 0.0982
C10 C 0.2313(8) 0.6135(2) 0.0455(4)
H16 H 0.1175 0.6282 0.0931
H17 H 0.1488 0.5997 -0.0442
H18 H 0.3375 0.6502 0.0406
C11 C 0.4944(8) 0.6255(2) 0.7156(4)
H19 H 0.5997 0.6633 0.7184
H20 H 0.5054 0.6101 0.8059
H21 H 0.3333 0.6392 0.6739
C12 C 0.8083(7) 0.5429(2) 0.6992(4)
H22 H 0.8445 0.5065 0.6456
H23 H 0.8143 0.5266 0.7884
H24 H 0.9231 0.5785 0.7048
C13 C 0.6973(7) 0.4391(2) 0.3495(4)
H25 H 0.8135 0.4695 0.3388
C14 C 0.4975(7) 0.34650(18) 0.3459(4)
H26 H 0.5356 0.3051 0.3996
C15 C 0.3820(7) 0.39899(17) 0.4198(4)
H27 H 0.2106 0.4024 0.3772
C16 C 0.4251(7) 0.38822(17) 0.5669(4)
C17 C 0.2539(7) 0.40670(19) 0.6295(4)
H28 H 0.1083 0.4231 0.5779
C18 C 0.2916(7) 0.40163(19) 0.7656(4)
H29 H 0.1733 0.4148 0.8069
C19 C 0.5047(7) 0.37710(19) 0.8417(4)
H30 H 0.5328 0.3735 0.9352
C20 C 0.6741(7) 0.3581(2) 0.7797(4)
H31 H 0.8188 0.3411 0.831
C21 C 0.6361(7) 0.36338(19) 0.6437(4)
H32 H 0.7545 0.35 0.6026
C22 C 0.3257(7) 0.3321(2) 0.2138(4)
C23 C -0.0241(9) 0.2747(2) 0.1158(5)
H33 H -0.1102 0.3164 0.0933
H34 H -0.1274 0.2411 0.138
H35 H 0.031 0.2596 0.04
loop_
_geom_bond_atom_site_label_1
_geom_bond_atom_site_label_2
_geom_bond_site_symmetry_1
_geom_bond_site_symmetry_2
P1 O1 1_555 1_555
O2 C22 1_555 1_555
O3 C22 1_555 1_555
N1 P1 1_555 1_555
N2 P1 1_555 1_555
N3 P1 1_555 1_555
N4 C13 1_555 1_555
C1 N1 1_555 1_555
H1 C1 1_555 1_555
C2 C1 1_555 1_555
H2 C2 1_555 1_555
H3 C2 1_555 1_555
C3 C2 1_555 1_555
H4 C3 1_555 1_555
H5 C3 1_555 1_555
C4 C3 1_555 1_555
H6 C4 1_555 1_555
H7 C4 1_555 1_555
C5 C4 1_555 1_555
H8 C5 1_555 1_555
H9 C5 1_555 1_555
C6 N2 1_555 1_555
H10 C6 1_555 1_555
C7 N1 1_555 1_555
H11 C7 1_555 1_555
C8 N2 1_555 1_555
H12 C8 1_555 1_555
C9 C7 1_555 1_555
H13 C9 1_555 1_555
H14 C9 1_555 1_555
H15 C9 1_555 1_555
C10 C7 1_555 1_555
H16 C10 1_555 1_555
H17 C10 1_555 1_555
H18 C10 1_555 1_555
C11 C8 1_555 1_555
H19 C11 1_555 1_555
H20 C11 1_555 1_555
H21 C11 1_555 1_555
C12 C8 1_555 1_555
H22 C12 1_555 1_555
H23 C12 1_555 1_555
H24 C12 1_555 1_555
C13 N3 1_555 1_555
H25 C13 1_555 1_555
C14 N4 1_555 1_555
H26 C14 1_555 1_555
C15 N3 1_555 1_555
H27 C15 1_555 1_555
C16 C15 1_555 1_555
C17 C16 1_555 1_555
H28 C17 1_555 1_555
C18 C17 1_555 1_555
H29 C18 1_555 1_555
C19 C18 1_555 1_555
H30 C19 1_555 1_555
C20 C19 1_555 1_555
H31 C20 1_555 1_555
C21 C16 1_555 1_555
H32 C21 1_555 1_555
C22 C14 1_555 1_555
C23 O2 1_555 1_555
H33 C23 1_555 1_555
H34 C23 1_555 1_555
H35 C23 1_555 1_555
C1 C6 1_555 1_555
C5 C6 1_555 1_555
C14 C15 1_555 1_555
C20 C21 1_555 1_555

#END
