
#######################################################################
#
#                 Cambridge Crystallographic Data Centre
#                                CCDC 
#
#######################################################################
#
# If this CIF has been generated from an entry in the Cambridge 
# Structural Database, then it will include bibliographic, chemical, 
# crystal, experimental, refinement or atomic coordinate data resulting 
# from the CCDC's data processing and validation procedures.
#
#######################################################################

data_MANTHR14
_chemical_formula_moiety         'C15 H12'
_chemical_name_systematic        9-Methylanthracene
_symmetry_cell_setting           monoclinic
_symmetry_space_group_name_H-M   'P 21/c'
_symmetry_Int_Tables_number      14
_space_group_name_Hall           '-P 2ybc'
loop_
_symmetry_equiv_pos_site_id
_symmetry_equiv_pos_as_xyz
1 x,y,z
2 -x,1/2+y,1/2-z
3 -x,-y,-z
4 x,1/2-y,1/2+z
_cell_length_a                   8.893(3)
_cell_length_b                   14.615(5)
_cell_length_c                   8.047(3)
_cell_angle_alpha                90
_cell_angle_beta                 96.499(3)
_cell_angle_gamma                90
_cell_volume                     1039.16
_exptl_crystal_colour            yellow
_exptl_crystal_description       block
_cell_formula_units_Z            4
loop_
_atom_site_label
_atom_site_type_symbol
_atom_site_fract_x
_atom_site_fract_y
_atom_site_fract_z
C1 C 0.7931(2) 0.88743(14) -0.0517(3)
C2 C 0.6350(3) 0.89753(16) -0.0998(3)
H1 H 0.5756 0.9242 -0.0251
C3 C 0.5688(3) 0.86979(18) -0.2500(3)
H2 H 0.4649 0.8769 -0.2763
C4 C 0.6542(3) 0.83033(17) -0.3676(3)
H3 H 0.6073 0.8118 -0.4713
C5 C 0.8047(3) 0.81946(15) -0.3294(3)
H4 H 0.8610 0.7941 -0.4084
C6 C 0.8792(2) 0.84577(14) -0.1717(3)
C7 C 1.0323(2) 0.83001(15) -0.1289(3)
H5 H 1.0880 0.8028 -0.2067
C8 C 1.1047(2) 0.85375(14) 0.0267(3)
C9 C 1.2613(3) 0.83554(16) 0.0721(3)
H6 H 1.3164 0.8067 -0.0044
C10 C 1.3309(3) 0.85888(19) 0.2221(4)
H7 H 1.4332 0.8462 0.2489
C11 C 1.2496(3) 0.90245(19) 0.3391(3)
H8 H 1.2991 0.9193 0.4426
C12 C 1.1009(3) 0.92021(16) 0.3034(3)
H9 H 1.0495 0.9483 0.3839
C13 C 1.0200(2) 0.89717(14) 0.1458(3)
C14 C 0.8647(2) 0.91324(14) 0.1055(3)
C15 C 0.7755(3) 0.95685(18) 0.2325(3)
H10 H 0.7590 0.9129 0.3172
H11 H 0.6798 0.9775 0.1784
H12 H 0.8309 1.0080 0.2831
loop_
_geom_bond_atom_site_label_1
_geom_bond_atom_site_label_2
_geom_bond_site_symmetry_1
_geom_bond_site_symmetry_2
C1 C2 1_555 1_555
C2 H1 1_555 1_555
C3 C2 1_555 1_555
H2 C3 1_555 1_555
C4 C3 1_555 1_555
H3 C4 1_555 1_555
C5 C4 1_555 1_555
H4 C5 1_555 1_555
C6 C1 1_555 1_555
C7 C6 1_555 1_555
H5 C7 1_555 1_555
C8 C7 1_555 1_555
C9 C8 1_555 1_555
H6 C9 1_555 1_555
C10 C9 1_555 1_555
H7 C10 1_555 1_555
C11 C10 1_555 1_555
H8 C11 1_555 1_555
C12 C11 1_555 1_555
H9 C12 1_555 1_555
C13 C8 1_555 1_555
C14 C1 1_555 1_555
C15 C14 1_555 1_555
H10 C15 1_555 1_555
H11 C15 1_555 1_555
H12 C15 1_555 1_555
C5 C6 1_555 1_555
C12 C13 1_555 1_555
C13 C14 1_555 1_555

#END
