
#######################################################################
#
#                 Cambridge Crystallographic Data Centre
#                                CCDC 
#
#######################################################################
#
# If this CIF has been generated from an entry in the Cambridge 
# Structural Database, then it will include bibliographic, chemical, 
# crystal, experimental, refinement or atomic coordinate data resulting 
# from the CCDC's data processing and validation procedures.
#
#######################################################################

data_MANXEG
_chemical_formula_moiety         'C54 H41 N2 O2 P1 S1,C1 H2 Cl2'
_chemical_name_systematic        
"(4S,5S)-2-((R)-2'-(Diphenylphosphino)-1,1'-binaphthyl-2-yl)-4,5-diphenyl-1-(p-tosyl)-4,5-dihydro-1H-imidazoline dichloromethane solvate"
_symmetry_cell_setting           orthorhombic
_symmetry_space_group_name_H-M   'C 2 2 21'
_symmetry_Int_Tables_number      20
_space_group_name_Hall           'C 2n 2'
loop_
_symmetry_equiv_pos_site_id
_symmetry_equiv_pos_as_xyz
1 x,y,z
2 -x,-y,1/2+z
3 -x,y,1/2-z
4 x,-y,-z
5 1/2+x,1/2+y,z
6 1/2-x,1/2-y,1/2+z
7 1/2-x,1/2+y,1/2-z
8 1/2+x,1/2-y,-z
_cell_length_a                   13.5209(9)
_cell_length_b                   16.5318(12)
_cell_length_c                   41.077(3)
_cell_angle_alpha                90
_cell_angle_beta                 90
_cell_angle_gamma                90
_cell_volume                     9181.73
_exptl_crystal_colour            colorless
_exptl_crystal_description       prismatic
_chemical_melting_point          '150-153 deg.C'
_cell_formula_units_Z            8
loop_
_atom_site_label
_atom_site_type_symbol
_atom_site_fract_x
_atom_site_fract_y
_atom_site_fract_z
P1 P 0.94014(6) 0.78502(5) 0.926087(19)
S1 S 0.69894(5) 0.93798(5) 0.807172(18)
N1 N 0.72691(15) 0.85533(14) 0.82860(5)
N2 N 0.70315(16) 0.78954(16) 0.87681(5)
O1 O 0.75665(14) 1.00232(13) 0.81972(5)
O2 O 0.70711(14) 0.91400(14) 0.77434(5)
C1 C 0.73899(18) 0.85202(18) 0.86304(6)
C2 C 0.64931(19) 0.74192(18) 0.85249(7)
H1 H 0.6738 0.6861 0.8530
C3 C 0.67498(19) 0.78030(18) 0.81872(6)
H2 H 0.6133 0.7951 0.8077
C4 C 0.7349(2) 0.72708(18) 0.79629(7)
C5 C 0.6883(3) 0.6858(2) 0.77175(9)
H3 H 0.6209 0.6930 0.7684
C6 C 0.7414(4) 0.6330(3) 0.75172(10)
H4 H 0.7092 0.6044 0.7353
C7 C 0.8403(3) 0.6236(2) 0.75629(10)
H5 H 0.8762 0.5887 0.7430
C8 C 0.8858(3) 0.6647(2) 0.77991(9)
H6 H 0.9536 0.6585 0.7828
C9 C 0.8341(2) 0.7164(2) 0.80028(8)
H7 H 0.8672 0.7440 0.8167
C10 C 0.5392(2) 0.74137(18) 0.85812(7)
C11 C 0.4924(2) 0.8043(2) 0.87404(8)
H8 H 0.5297 0.8458 0.8832
C12 C 0.3904(3) 0.8061(3) 0.87649(10)
H9 H 0.3592 0.8487 0.8872
C13 C 0.3358(3) 0.7455(3) 0.86322(11)
H10 H 0.2672 0.7469 0.8648
C14 C 0.3808(3) 0.6829(3) 0.84774(10)
H11 H 0.3429 0.6414 0.8389
C15 C 0.4823(2) 0.6807(2) 0.84511(8)
H12 H 0.5125 0.6378 0.8344
C16 C 0.79009(19) 0.91759(17) 0.88102(6)
C17 C 0.7317(2) 0.97106(19) 0.89927(7)
H13 H 0.6636 0.9632 0.9001
C18 C 0.7723(2) 1.0338(2) 0.91570(8)
H14 H 0.7318 1.0688 0.9274
C19 C 0.8757(2) 1.04671(18) 0.91522(7)
C20 C 0.9186(3) 1.1139(2) 0.93064(8)
H15 H 0.8786 1.1504 0.9418
C21 C 1.0167(3) 1.1260(2) 0.92950(9)
H16 H 1.0443 1.1715 0.9392
C22 C 1.0772(3) 1.0697(2) 0.91361(9)
H17 H 1.1452 1.0779 0.9131
C23 C 1.0389(2) 1.0040(2) 0.89906(7)
H18 H 1.0808 0.9667 0.8892
C24 C 0.9359(2) 0.99107(17) 0.89855(6)
C25 C 0.89295(18) 0.92472(17) 0.88159(6)
C26 C 0.95679(18) 0.86158(17) 0.86639(6)
C27 C 1.00153(19) 0.87610(19) 0.83522(7)
C28 C 0.9894(2) 0.9499(2) 0.81862(7)
H19 H 0.9482 0.9895 0.8272
C29 C 1.0372(2) 0.9638(2) 0.79029(8)
H20 H 1.0295 1.0134 0.7799
C30 C 1.0978(3) 0.9052(3) 0.77633(9)
H21 H 1.1300 0.9157 0.7568
C31 C 1.1098(2) 0.8335(3) 0.79128(8)
H22 H 1.1496 0.7944 0.7816
C32 C 1.0632(2) 0.8160(2) 0.82135(7)
C33 C 1.0764(2) 0.7421(2) 0.83787(8)
H23 H 1.1127 0.7009 0.8282
C34 C 1.0364(2) 0.7307(2) 0.86786(7)
H24 H 1.0472 0.6821 0.8787
C35 C 0.97835(19) 0.79143(18) 0.88295(7)
C36 C 0.9422(2) 0.67623(18) 0.93384(7)
C37 C 0.8580(2) 0.6329(2) 0.92630(9)
H25 H 0.8050 0.6591 0.9164
C38 C 0.8510(3) 0.5523(2) 0.93306(10)
H26 H 0.7934 0.5246 0.9276
C39 C 0.9264(3) 0.5116(2) 0.94754(9)
H27 H 0.9209 0.4566 0.9521
C40 C 1.0099(3) 0.5528(2) 0.95521(10)
H28 H 1.0626 0.5260 0.9650
C41 C 1.0170(2) 0.6339(2) 0.94860(9)
H29 H 1.0746 0.6612 0.9543
C42 C 1.0530(3) 0.82018(18) 0.94622(7)
C43 C 1.1490(3) 0.8060(2) 0.93511(9)
H30 H 1.1592 0.7768 0.9161
C44 C 1.2292(3) 0.8355(3) 0.95248(10)
H31 H 1.2930 0.8260 0.9449
C45 C 1.2159(4) 0.8780(3) 0.98044(11)
H32 H 1.2704 0.8975 0.9918
C46 C 1.1252(4) 0.8919(3) 0.99171(10)
H33 H 1.1166 0.9209 1.0109
C47 C 1.0427(3) 0.8628(2) 0.97467(9)
H34 H 0.9797 0.8727 0.9828
C48 C 0.5736(2) 0.95965(17) 0.81520(7)
C49 C 0.5486(2) 1.00992(19) 0.84025(7)
H35 H 0.5977 1.0350 0.8525
C50 C 0.4506(2) 1.0233(2) 0.84734(9)
H36 H 0.4340 1.0579 0.8643
C51 C 0.3765(2) 0.9864(2) 0.82967(9)
C52 C 0.4018(2) 0.9386(2) 0.80405(8)
H37 H 0.3523 0.9157 0.7913
C53 C 0.5004(2) 0.9235(2) 0.79660(7)
H38 H 0.5170 0.8896 0.7794
C54 C 0.2687(2) 1.0021(3) 0.83775(11)
H39 H 0.2382 1.0311 0.8202
H40 H 0.2645 1.0336 0.8573
H41 H 0.2353 0.9515 0.8409
Cl1 Cl 0.24924(11) 0.38740(14) 0.99342(4)
Cl2 Cl 0.07216(11) 0.33216(9) 0.96371(4)
C55 C 0.1965(3) 0.3187(3) 0.96687(11)
H42 H 0.2265 0.3248 0.9455
H43 H 0.2099 0.2643 0.9745
loop_
_geom_bond_atom_site_label_1
_geom_bond_atom_site_label_2
_geom_bond_site_symmetry_1
_geom_bond_site_symmetry_2
P1 C35 1_555 1_555
S1 N1 1_555 1_555
Cl1 C55 1_555 1_555
Cl2 C55 1_555 1_555
N1 C1 1_555 1_555
N2 C1 1_555 1_555
O1 S1 1_555 1_555
O2 S1 1_555 1_555
C1 C16 1_555 1_555
C2 N2 1_555 1_555
H1 C2 1_555 1_555
C3 N1 1_555 1_555
H2 C3 1_555 1_555
C4 C3 1_555 1_555
C5 C4 1_555 1_555
H3 C5 1_555 1_555
C6 C5 1_555 1_555
H4 C6 1_555 1_555
C7 C6 1_555 1_555
H5 C7 1_555 1_555
C8 C7 1_555 1_555
H6 C8 1_555 1_555
C9 C4 1_555 1_555
H7 C9 1_555 1_555
C10 C2 1_555 1_555
C11 C10 1_555 1_555
H8 C11 1_555 1_555
C12 C11 1_555 1_555
H9 C12 1_555 1_555
C13 C12 1_555 1_555
H10 C13 1_555 1_555
C14 C13 1_555 1_555
H11 C14 1_555 1_555
C15 C10 1_555 1_555
H12 C15 1_555 1_555
C16 C17 1_555 1_555
C17 H13 1_555 1_555
C18 C17 1_555 1_555
H14 C18 1_555 1_555
C19 C18 1_555 1_555
C20 C19 1_555 1_555
H15 C20 1_555 1_555
C21 C20 1_555 1_555
H16 C21 1_555 1_555
C22 C21 1_555 1_555
H17 C22 1_555 1_555
C23 C22 1_555 1_555
H18 C23 1_555 1_555
C24 C19 1_555 1_555
C25 C16 1_555 1_555
C26 C25 1_555 1_555
C27 C26 1_555 1_555
C28 C27 1_555 1_555
H19 C28 1_555 1_555
C29 C28 1_555 1_555
H20 C29 1_555 1_555
C30 C29 1_555 1_555
H21 C30 1_555 1_555
C31 C30 1_555 1_555
H22 C31 1_555 1_555
C32 C27 1_555 1_555
C33 C32 1_555 1_555
H23 C33 1_555 1_555
C34 C33 1_555 1_555
H24 C34 1_555 1_555
C35 C26 1_555 1_555
C36 P1 1_555 1_555
C37 C36 1_555 1_555
H25 C37 1_555 1_555
C38 C37 1_555 1_555
H26 C38 1_555 1_555
C39 C38 1_555 1_555
H27 C39 1_555 1_555
C40 C39 1_555 1_555
H28 C40 1_555 1_555
C41 C36 1_555 1_555
H29 C41 1_555 1_555
C42 P1 1_555 1_555
C43 C42 1_555 1_555
H30 C43 1_555 1_555
C44 C43 1_555 1_555
H31 C44 1_555 1_555
C45 C44 1_555 1_555
H32 C45 1_555 1_555
C46 C45 1_555 1_555
H33 C46 1_555 1_555
C47 C42 1_555 1_555
H34 C47 1_555 1_555
C48 S1 1_555 1_555
C49 C48 1_555 1_555
H35 C49 1_555 1_555
C50 C49 1_555 1_555
H36 C50 1_555 1_555
C51 C50 1_555 1_555
C52 C51 1_555 1_555
H37 C52 1_555 1_555
C53 C48 1_555 1_555
H38 C53 1_555 1_555
C54 C51 1_555 1_555
H39 C54 1_555 1_555
H40 C54 1_555 1_555
H41 C54 1_555 1_555
C55 H42 1_555 1_555
H43 C55 1_555 1_555
C2 C3 1_555 1_555
C8 C9 1_555 1_555
C14 C15 1_555 1_555
C23 C24 1_555 1_555
C24 C25 1_555 1_555
C31 C32 1_555 1_555
C34 C35 1_555 1_555
C40 C41 1_555 1_555
C46 C47 1_555 1_555
C52 C53 1_555 1_555

#END
