
#######################################################################
#
#                 Cambridge Crystallographic Data Centre
#                                CCDC 
#
#######################################################################
#
# If this CIF has been generated from an entry in the Cambridge 
# Structural Database, then it will include bibliographic, chemical, 
# crystal, experimental, refinement or atomic coordinate data resulting 
# from the CCDC's data processing and validation procedures.
#
#######################################################################

data_MANYEI
_chemical_formula_moiety         'C20 H16 N2 O4 S1'
_chemical_name_systematic        
4-(3-methyl-4-nitro-1,2-oxazol-5-yl)-5-(thiophen-2-yl)-5,6-dihydro[1,1'-biphenyl]-3(4H)-one
_symmetry_cell_setting           orthorhombic
_symmetry_space_group_name_H-M   'P 21 21 21'
_symmetry_Int_Tables_number      19
_space_group_name_Hall           'P 2ac 2ab'
loop_
_symmetry_equiv_pos_site_id
_symmetry_equiv_pos_as_xyz
1 x,y,z
2 1/2-x,-y,1/2+z
3 1/2+x,1/2-y,-z
4 -x,1/2+y,1/2-z
_cell_length_a                   8.44225(12)
_cell_length_b                   8.47414(11)
_cell_length_c                   24.9281(3)
_cell_angle_alpha                90
_cell_angle_beta                 90
_cell_angle_gamma                90
_cell_volume                     1783.38
_exptl_crystal_colour            colorless
_exptl_crystal_description       plate
_cell_formula_units_Z            4
loop_
_atom_site_label
_atom_site_type_symbol
_atom_site_fract_x
_atom_site_fract_y
_atom_site_fract_z
S1 S 0.05417(7) 0.83816(6) 0.04670(2)
O1 O -0.09460(18) 0.16189(18) 0.04568(6)
O2 O 0.07806(19) 0.35022(19) 0.13052(6)
O3 O -0.3445(3) 0.6342(3) 0.17393(8)
O4 O -0.3347(2) 0.5802(3) 0.08944(7)
N1 N 0.0539(3) 0.3557(2) 0.18723(7)
N2 N -0.2828(2) 0.5713(2) 0.13527(8)
C1 C 0.1210(2) 0.5173(2) 0.02563(8)
H1 H 0.2100 0.4414 0.0317
C2 C -0.0332(2) 0.4378(2) 0.04612(8)
H2 H -0.1251 0.5028 0.0338
C3 C -0.0466(2) 0.2750(2) 0.02033(8)
C4 C -0.0038(2) 0.2671(2) -0.03634(8)
H3 H -0.0212 0.1710 -0.0550
C5 C 0.0589(3) 0.3891(2) -0.06338(8)
C6 C 0.1036(2) 0.5400(2) -0.03503(8)
H4 H 0.0215 0.6207 -0.0420
H5 H 0.2050 0.5794 -0.0498
C7 C 0.1593(2) 0.6658(3) 0.05590(8)
C8 C 0.2711(3) 0.6816(3) 0.09501(8)
H6 H 0.3410 0.5996 0.1057
C9 C 0.2705(3) 0.8371(3) 0.11818(9)
H7 H 0.3406 0.8692 0.1460
C10 C 0.1597(3) 0.9328(3) 0.09622(9)
H8 H 0.1423 1.0391 0.1068
C11 C -0.0402(3) 0.4267(2) 0.10583(8)
C12 C -0.0763(3) 0.4361(3) 0.19447(8)
C13 C -0.1393(3) 0.4822(3) 0.14396(8)
C14 C -0.1380(3) 0.4652(3) 0.24982(9)
H9 H -0.0861 0.3931 0.2750
H10 H -0.2527 0.4470 0.2505
H11 H -0.1158 0.5745 0.2602
C15 C 0.0819(3) 0.3807(2) -0.12231(8)
C16 C 0.2015(3) 0.4653(3) -0.14819(9)
H12 H 0.2734 0.5271 -0.1278
C17 C 0.2159(3) 0.4593(3) -0.20390(9)
H13 H 0.2981 0.5165 -0.2212
C18 C 0.1114(3) 0.3709(3) -0.23409(9)
H14 H 0.1208 0.3686 -0.2721
C19 C -0.0070(3) 0.2857(3) -0.20899(9)
H15 H -0.0780 0.2237 -0.2297
C20 C -0.0223(3) 0.2906(3) -0.15354(9)
H16 H -0.1044 0.2323 -0.1366
loop_
_geom_bond_atom_site_label_1
_geom_bond_atom_site_label_2
_geom_bond_site_symmetry_1
_geom_bond_site_symmetry_2
S1 C7 1_555 1_555
O1 C3 1_555 1_555
O2 N1 1_555 1_555
O3 N2 1_555 1_555
O4 N2 1_555 1_555
N1 C12 1_555 1_555
N2 C13 1_555 1_555
C1 H1 1_555 1_555
C2 C1 1_555 1_555
H2 C2 1_555 1_555
C3 C2 1_555 1_555
C4 C3 1_555 1_555
H3 C4 1_555 1_555
C5 C4 1_555 1_555
C6 C1 1_555 1_555
H4 C6 1_555 1_555
H5 C6 1_555 1_555
C7 C1 1_555 1_555
C8 C7 1_555 1_555
H6 C8 1_555 1_555
C9 C8 1_555 1_555
H7 C9 1_555 1_555
C10 S1 1_555 1_555
H8 C10 1_555 1_555
C11 O2 1_555 1_555
C12 C13 1_555 1_555
C13 C11 1_555 1_555
C14 C12 1_555 1_555
H9 C14 1_555 1_555
H10 C14 1_555 1_555
H11 C14 1_555 1_555
C15 C5 1_555 1_555
C16 C15 1_555 1_555
H12 C16 1_555 1_555
C17 C16 1_555 1_555
H13 C17 1_555 1_555
C18 C17 1_555 1_555
H14 C18 1_555 1_555
C19 C18 1_555 1_555
H15 C19 1_555 1_555
C20 C15 1_555 1_555
H16 C20 1_555 1_555
C2 C11 1_555 1_555
C5 C6 1_555 1_555
C9 C10 1_555 1_555
C19 C20 1_555 1_555

#END
