
#######################################################################
#
#                 Cambridge Crystallographic Data Centre
#                                CCDC 
#
#######################################################################
#
# If this CIF has been generated from an entry in the Cambridge 
# Structural Database, then it will include bibliographic, chemical, 
# crystal, experimental, refinement or atomic coordinate data resulting 
# from the CCDC's data processing and validation procedures.
#
#######################################################################

data_MANZEI
_chemical_name_common            
'Tetra-n-butylammonium hemikis(cyclo(bis(urea-3,6-dichlorocarbazole))) chloride'
_chemical_formula_moiety         'C16 H36 N1 1+,0.5(C26 H14 Cl4 N6 O2),Cl1 1-'
_chemical_name_systematic        
'Tetra-n-butylammonium hemikis(6,14,22,30-tetrachloro-2,9,11,18,25,27-hexaazaheptacyclo[26.4.0.0^3,8^.0^4,32^.0^12,17^.0^16,20^.0^19,24^]dotriaconta-1(32),3,5,7,12,14,16,19,21,23,28,30-dodecaene-10,26-dione) chloride'
_symmetry_cell_setting           triclinic
_symmetry_space_group_name_H-M   'P -1'
_symmetry_Int_Tables_number      2
_space_group_name_Hall           '-P 1'
loop_
_symmetry_equiv_pos_site_id
_symmetry_equiv_pos_as_xyz
1 x,y,z
2 -x,-y,-z
_cell_length_a                   13.644(3)
_cell_length_b                   15.163(3)
_cell_length_c                   16.546(4)
_cell_angle_alpha                84.368(4)
_cell_angle_beta                 78.777(4)
_cell_angle_gamma                72.600(4)
_cell_volume                     3201.08
_exptl_crystal_colour            colorless
_exptl_crystal_description       plate
_cell_formula_units_Z            4
_chemical_properties_physical    'air- and moisture-sensitive'
loop_
_atom_site_label
_atom_site_type_symbol
_atom_site_fract_x
_atom_site_fract_y
_atom_site_fract_z
C1 C -0.2329(5) 0.8245(4) 0.3712(5)
C2 C -0.1949(6) 0.8135(4) 0.4456(5)
C3 C -0.2680(6) 0.8299(4) 0.5163(4)
H1 H -0.2462 0.8228 0.5671
C4 C -0.3743(6) 0.8569(5) 0.5134(5)
C5 C -0.4141(5) 0.8672(4) 0.4432(5)
H2 H -0.4855 0.8841 0.4435
C6 C -0.3406(5) 0.8509(4) 0.3692(5)
C7 C -0.3513(5) 0.8512(4) 0.2840(5)
C8 C -0.4364(5) 0.8663(5) 0.2454(5)
H3 H -0.5040 0.8822 0.2752
C9 C -0.4179(5) 0.8571(5) 0.1622(6)
C10 C -0.3179(6) 0.8336(4) 0.1153(4)
H4 H -0.3091 0.8290 0.0586
C11 C -0.2317(5) 0.8172(4) 0.1528(5)
C12 C -0.2501(5) 0.8266(4) 0.2386(4)
C13 C -0.0403(5) 0.7966(5) 0.1158(4)
C14 C 0.1870(5) 0.7304(4) 0.1455(5)
C15 C 0.1501(5) 0.7327(4) 0.0700(5)
C16 C 0.2229(6) 0.7134(4) -0.0003(5)
H5 H 0.2009 0.7140 -0.0502
C17 C 0.3282(7) 0.6929(5) 0.0008(5)
C18 C 0.3652(5) 0.6908(5) 0.0735(6)
H6 H 0.4365 0.6762 0.0730
C19 C 0.2950(5) 0.7107(4) 0.1472(5)
C20 C 0.3055(6) 0.7111(4) 0.2315(5)
C21 C 0.3913(5) 0.6947(5) 0.2716(6)
H7 H 0.4590 0.6822 0.2421
C22 C 0.3717(6) 0.6979(5) 0.3548(6)
C23 C 0.2714(6) 0.7136(4) 0.4015(5)
H8 H 0.2625 0.7123 0.4587
C24 C 0.1853(5) 0.7311(4) 0.3637(5)
C25 C 0.2040(5) 0.7293(4) 0.2782(5)
C26 C -0.0065(5) 0.7925(5) 0.3961(5)
Cl1 Cl -0.52085(15) 0.87249(16) 0.10827(15)
Cl2 Cl 0.41392(17) 0.66738(18) -0.09290(15)
Cl3 Cl 0.47518(15) 0.68042(16) 0.40690(15)
Cl4 Cl -0.46112(16) 0.87787(18) 0.60645(14)
N1 N -0.1785(4) 0.8077(3) 0.2918(4)
H45 H -0.1118 0.7888 0.2778
N2 N -0.1322(4) 0.7835(3) 0.1046(3)
H46 H -0.1286 0.7512 0.0636
N3 N 0.0451(4) 0.7436(4) 0.0668(3)
H47 H 0.0333 0.7137 0.0299
N4 N 0.1339(4) 0.7391(3) 0.2243(4)
H48 H 0.0676 0.7491 0.2387
N5 N 0.0877(4) 0.7397(3) 0.4137(3)
H49 H 0.0871 0.7086 0.4601
N6 N -0.0895(4) 0.7788(3) 0.4515(3)
H50 H -0.0752 0.7450 0.4949
O1 O -0.0369(3) 0.8519(3) 0.1653(3)
O2 O -0.0156(3) 0.8466(3) 0.3359(3)
C27 C 0.9189(7) 0.4720(5) 0.2347(5)
H9 H 0.9420 0.4351 0.2823
H10 H 0.9345 0.4302 0.1901
C28 C 0.9846(11) 0.5376(8) 0.2101(7)
H11 H 0.9662 0.5844 0.2508
H12 H 0.9720 0.5684 0.1573
C29 C 1.1027(12) 0.4819(14) 0.2038(10)
H13 H 1.1053 0.4174 0.2025
H14 H 1.1364 0.4983 0.1497
C30 C 1.1559(16) 0.4837(14) 0.2476(12)
H15 H 1.1150 0.5124 0.2972
H16 H 1.2030 0.5184 0.2220
H17 H 1.1951 0.4216 0.2607
C31 C 0.7583(8) 0.5700(6) 0.1840(7)
H18 H 0.7933 0.6178 0.1697
H19 H 0.6848 0.6004 0.2024
C32 C 0.7696(10) 0.5179(8) 0.1059(8)
H20 H 0.7404 0.4662 0.1196
H21 H 0.8427 0.4941 0.0820
C33 C 0.7107(17) 0.5865(13) 0.0440(10)
H22 H 0.6517 0.6288 0.0767
H23 H 0.7568 0.6226 0.0174
C34 C 0.6785(12) 0.5641(12) -0.0081(11)
H24 H 0.7323 0.5165 -0.0383
H25 H 0.6560 0.6164 -0.0447
H26 H 0.6205 0.5409 0.0156
C35 C 0.7572(6) 0.4296(5) 0.2770(5)
H27 H 0.7864 0.3949 0.3235
H28 H 0.7805 0.3893 0.2308
C36 C 0.6381(7) 0.4533(6) 0.2989(6)
H29 H 0.6130 0.4968 0.3427
H30 H 0.6078 0.4825 0.2511
C37 C 0.6039(8) 0.3679(7) 0.3263(7)
H31 H 0.6293 0.3243 0.2825
H32 H 0.6342 0.3387 0.3740
C38 C 0.4907(10) 0.3898(9) 0.3470(9)
H33 H 0.4657 0.4312 0.3917
H34 H 0.4712 0.3340 0.3632
H35 H 0.4605 0.4188 0.2998
C39 C 0.7735(7) 0.5741(5) 0.3269(6)
H36 H 0.8049 0.6241 0.3106
H37 H 0.6985 0.6012 0.3374
C40 C 0.8070(9) 0.5289(7) 0.4063(6)
H38 H 0.7854 0.4729 0.4178
H39 H 0.8826 0.5108 0.3982
C41 C 0.8057(11) 0.5475(8) 0.5476(8)
H40 H 0.7844 0.4930 0.5666
H41 H 0.7783 0.5928 0.5891
H42 H 0.8804 0.5318 0.5371
C42 C 0.7679(11) 0.5834(8) 0.4756(8)
H43 H 0.7826 0.6424 0.4615
H44 H 0.6927 0.5957 0.4870
N7 N 0.8015(6) 0.5105(5) 0.2552(4)
C43 C -0.0032(5) 0.1187(4) 0.2404(4)
H51 H -0.0132 0.1586 0.1913
H52 H -0.0176 0.1583 0.2864
C44 C -0.0834(5) 0.0649(4) 0.2549(4)
H53 H -0.0684 0.0227 0.2108
H54 H -0.0789 0.0286 0.3064
C45 C -0.1910(5) 0.1287(5) 0.2582(6)
H55 H -0.1947 0.1643 0.2063
H56 H -0.2042 0.1718 0.3014
C46 C -0.2754(6) 0.0809(6) 0.2740(6)
H57 H -0.2741 0.0472 0.3263
H58 H -0.2637 0.0388 0.2311
H59 H -0.3420 0.1261 0.2748
C47 C 0.1348(5) -0.0029(5) 0.3040(5)
H60 H 0.0930 -0.0456 0.3102
H61 H 0.2074 -0.0391 0.2916
C48 C 0.1183(6) 0.0390(5) 0.3835(6)
H62 H 0.0446 0.0703 0.3992
H63 H 0.1555 0.0854 0.3769
C49 C 0.1545(6) -0.0310(5) 0.4546(5)
H64 H 0.1228 -0.0013 0.5065
H65 H 0.1273 -0.0831 0.4540
C50 C 0.2675(7) -0.0670(6) 0.4531(7)
H66 H 0.2947 -0.0173 0.4600
H67 H 0.3008 -0.0944 0.4012
H68 H 0.2807 -0.1129 0.4970
C51 C 0.1714(5) 0.1332(4) 0.2163(4)
H69 H 0.1506 0.1743 0.1700
H70 H 0.1518 0.1702 0.2646
C52 C 0.2870(5) 0.0949(5) 0.2000(5)
H71 H 0.3084 0.0559 0.1529
H72 H 0.3102 0.0575 0.2475
C53 C 0.3364(7) 0.1743(7) 0.1827(7)
H73 H 0.3074 0.2152 0.1390
H74 H 0.3201 0.2097 0.2318
C54 C 0.4464(10) 0.1405(9) 0.1591(8)
H75 H 0.4626 0.1029 0.1122
H76 H 0.4758 0.1042 0.2040
H77 H 0.4752 0.1917 0.1450
C55 C 0.1380(5) -0.0010(4) 0.1577(5)
H78 H 0.2116 -0.0342 0.1518
H79 H 0.0995 -0.0464 0.1709
C56 C 0.1168(6) 0.0464(5) 0.0762(5)
H80 H 0.1525 0.0939 0.0639
H81 H 0.0426 0.0768 0.0809
C57 C 0.1518(7) -0.0197(5) 0.0020(6)
H82 H 0.1198 -0.0697 0.0154
H83 H 0.1267 0.0145 -0.0462
C58 C 0.2613(7) -0.0578(6) -0.0174(6)
H84 H 0.2857 -0.0976 0.0278
H85 H 0.2938 -0.0088 -0.0270
H86 H 0.2786 -0.0928 -0.0661
N8 N 0.1098(4) 0.0622(3) 0.2301(3)
Cl5 Cl 0.94744(16) 0.68613(13) 0.93313(13)
Cl6 Cl 0.02328(18) 0.70882(13) 0.60448(12)
loop_
_geom_bond_atom_site_label_1
_geom_bond_atom_site_label_2
_geom_bond_site_symmetry_1
_geom_bond_site_symmetry_2
C1 C2 1_555 1_555
C2 C3 1_555 1_555
C3 H1 1_555 1_555
C4 C3 1_555 1_555
C5 C4 1_555 1_555
H2 C5 1_555 1_555
C6 C1 1_555 1_555
C7 C6 1_555 1_555
C8 C7 1_555 1_555
H3 C8 1_555 1_555
C9 C8 1_555 1_555
C10 C9 1_555 1_555
H4 C10 1_555 1_555
C11 C10 1_555 1_555
C12 C7 1_555 1_555
C13 N2 1_555 1_555
C14 C15 1_555 1_555
C15 C16 1_555 1_555
C16 H5 1_555 1_555
C17 C16 1_555 1_555
C18 C17 1_555 1_555
H6 C18 1_555 1_555
C19 C14 1_555 1_555
C20 C19 1_555 1_555
C21 C20 1_555 1_555
H7 C21 1_555 1_555
C22 C21 1_555 1_555
C23 C22 1_555 1_555
H8 C23 1_555 1_555
C24 C23 1_555 1_555
C25 C20 1_555 1_555
C26 N5 1_555 1_555
C27 H9 1_555 1_555
H10 C27 1_555 1_555
C28 C27 1_555 1_555
H11 C28 1_555 1_555
H12 C28 1_555 1_555
C29 C28 1_555 1_555
H13 C29 1_555 1_555
H14 C29 1_555 1_555
C30 C29 1_555 1_555
H15 C30 1_555 1_555
H16 C30 1_555 1_555
H17 C30 1_555 1_555
C31 H18 1_555 1_555
H19 C31 1_555 1_555
C32 C31 1_555 1_555
H20 C32 1_555 1_555
H21 C32 1_555 1_555
C33 C32 1_555 1_555
H22 C33 1_555 1_555
H23 C33 1_555 1_555
C34 C33 1_555 1_555
H24 C34 1_555 1_555
H25 C34 1_555 1_555
H26 C34 1_555 1_555
C35 H27 1_555 1_555
H28 C35 1_555 1_555
C36 C35 1_555 1_555
H29 C36 1_555 1_555
H30 C36 1_555 1_555
C37 C36 1_555 1_555
H31 C37 1_555 1_555
H32 C37 1_555 1_555
C38 C37 1_555 1_555
H33 C38 1_555 1_555
H34 C38 1_555 1_555
H35 C38 1_555 1_555
C39 H36 1_555 1_555
H37 C39 1_555 1_555
C40 C39 1_555 1_555
H38 C40 1_555 1_555
H39 C40 1_555 1_555
C41 H40 1_555 1_555
H41 C41 1_555 1_555
H42 C41 1_555 1_555
C42 C40 1_555 1_555
H43 C42 1_555 1_555
H44 C42 1_555 1_555
Cl1 C9 1_555 1_555
Cl2 C17 1_555 1_555
Cl3 C22 1_555 1_555
Cl4 C4 1_555 1_555
N1 C1 1_555 1_555
H45 N1 1_555 1_555
N2 C11 1_555 1_555
H46 N2 1_555 1_555
N3 C13 1_555 1_555
H47 N3 1_555 1_555
N4 C14 1_555 1_555
H48 N4 1_555 1_555
N5 C24 1_555 1_555
H49 N5 1_555 1_555
N6 C2 1_555 1_555
H50 N6 1_555 1_555
N7 C27 1_555 1_555
O1 C13 1_555 1_555
O2 C26 1_555 1_555
C43 H51 1_555 1_555
H52 C43 1_555 1_555
C44 C43 1_555 1_555
H53 C44 1_555 1_555
H54 C44 1_555 1_555
C45 C44 1_555 1_555
H55 C45 1_555 1_555
H56 C45 1_555 1_555
C46 C45 1_555 1_555
H57 C46 1_555 1_555
H58 C46 1_555 1_555
H59 C46 1_555 1_555
C47 H60 1_555 1_555
H61 C47 1_555 1_555
C48 C47 1_555 1_555
H62 C48 1_555 1_555
H63 C48 1_555 1_555
C49 C48 1_555 1_555
H64 C49 1_555 1_555
H65 C49 1_555 1_555
C50 C49 1_555 1_555
H66 C50 1_555 1_555
H67 C50 1_555 1_555
H68 C50 1_555 1_555
C51 H69 1_555 1_555
H70 C51 1_555 1_555
C52 C51 1_555 1_555
H71 C52 1_555 1_555
H72 C52 1_555 1_555
C53 C52 1_555 1_555
H73 C53 1_555 1_555
H74 C53 1_555 1_555
C54 C53 1_555 1_555
H75 C54 1_555 1_555
H76 C54 1_555 1_555
H77 C54 1_555 1_555
C55 H78 1_555 1_555
H79 C55 1_555 1_555
C56 C55 1_555 1_555
H80 C56 1_555 1_555
H81 C56 1_555 1_555
C57 C56 1_555 1_555
H82 C57 1_555 1_555
H83 C57 1_555 1_555
C58 C57 1_555 1_555
H84 C58 1_555 1_555
H85 C58 1_555 1_555
H86 C58 1_555 1_555
N8 C43 1_555 1_555
C5 C6 1_555 1_555
C11 C12 1_555 1_555
C12 N1 1_555 1_555
C15 N3 1_555 1_555
C18 C19 1_555 1_555
C24 C25 1_555 1_555
C25 N4 1_555 1_555
C26 N6 1_555 1_555
C31 N7 1_555 1_555
C35 N7 1_555 1_555
C39 N7 1_555 1_555
C41 C42 1_555 1_555
C47 N8 1_555 1_555
C51 N8 1_555 1_555
C55 N8 1_555 1_555

#END
