
#######################################################################
#
#                 Cambridge Crystallographic Data Centre
#                                CCDC 
#
#######################################################################
#
# If this CIF has been generated from an entry in the Cambridge 
# Structural Database, then it will include bibliographic, chemical, 
# crystal, experimental, refinement or atomic coordinate data resulting 
# from the CCDC's data processing and validation procedures.
#
#######################################################################

data_MANZAE
_chemical_name_common            
'Tetra-n-butylammonium hemikis(cyclo(bis(urea-3,6-dichlorocarbazole))) acetate'
_chemical_formula_moiety         
'C16 H36 N1 1+,0.5(C26 H14 Cl4 N6 O2),C2 H3 O2 1-'
_chemical_name_systematic        
'Tetra-n-butylammonium hemikis(6,14,22,30-tetrachloro-2,9,11,18,25,27-hexaazaheptacyclo[26.4.0.0^3,8^.0^4,32^.0^12,17^.0^16,20^.0^19,24^]dotriaconta-1(32),3,5,7,12,14,16,19,21,23,28,30-dodecaene-10,26-dione) acetate'
_symmetry_cell_setting           triclinic
_symmetry_space_group_name_H-M   'P -1'
_symmetry_Int_Tables_number      2
_space_group_name_Hall           '-P 1'
loop_
_symmetry_equiv_pos_site_id
_symmetry_equiv_pos_as_xyz
1 x,y,z
2 -x,-y,-z
_cell_length_a                   8.8875(11)
_cell_length_b                   13.7511(17)
_cell_length_c                   15.0665(19)
_cell_angle_alpha                64.753(2)
_cell_angle_beta                 77.356(3)
_cell_angle_gamma                74.412(2)
_cell_volume                     1592.64
_exptl_crystal_colour            yellow
_exptl_crystal_description       stick
_cell_formula_units_Z            2
_chemical_properties_physical    'air- and moisture-sensitive'
loop_
_atom_site_label
_atom_site_type_symbol
_atom_site_fract_x
_atom_site_fract_y
_atom_site_fract_z
Cl1 Cl -0.03926(14) 0.89023(8) 1.20236(9)
Cl2 Cl 0.59260(18) 1.06277(8) 0.67313(10)
O1 O 0.6920(2) 0.52752(17) 0.95223(18)
N1 N 0.4092(3) 0.6620(2) 0.9748(2)
H1 H 0.4374 0.5942 0.9828
N2 N 0.6458(3) 0.6501(2) 0.7956(2)
H2 H 0.6540 0.6573 0.7352
N3 N 0.7573(3) 0.4712(2) 0.8232(2)
H3 H 0.7797 0.4959 0.7599
C1 C 0.2983(4) 0.7012(2) 1.0360(3)
C2 C 0.2827(4) 0.8158(2) 0.9997(3)
C3 C 0.1783(4) 0.8760(3) 1.0502(3)
H4 H 0.1670 0.9518 1.0268
C4 C 0.0930(4) 0.8195(3) 1.1358(3)
C5 C 0.4698(4) 0.7465(2) 0.8985(3)
C6 C 0.3938(4) 0.8448(3) 0.9110(3)
C7 C 0.4327(4) 0.9443(3) 0.8408(3)
H5 H 0.3859 1.0102 0.8478
C8 C 0.5402(5) 0.9415(3) 0.7625(3)
C9 C 0.6138(4) 0.8442(3) 0.7483(3)
H6 H 0.6858 0.8471 0.6926
C10 C 0.5803(4) 0.7442(2) 0.8164(3)
C11 C 0.6973(4) 0.5480(3) 0.8638(3)
C12 C 0.2136(4) 0.6437(2) 1.1265(3)
C13 C 0.1099(4) 0.7055(3) 1.1740(3)
H7 H 0.0500 0.6707 1.2328
Cl1A Cl 1.03926(14) 0.10977(8) 0.79764(9)
Cl2A Cl 0.40740(18) -0.06277(8) 1.32687(10)
O1A O 0.3080(2) 0.47248(17) 1.04777(18)
N1A N 0.5908(3) 0.3380(2) 1.0252(2)
H1A H 0.5626 0.4058 1.0172
N2A N 0.3542(3) 0.3499(2) 1.2044(2)
H2A H 0.3460 0.3427 1.2648
N3A N 0.2427(3) 0.5288(2) 1.1768(2)
H3A H 0.2203 0.5041 1.2401
C1A C 0.7017(4) 0.2988(2) 0.9640(3)
C2A C 0.7173(4) 0.1842(2) 1.0003(3)
C3A C 0.8217(4) 0.1240(3) 0.9498(3)
H4A H 0.8330 0.0482 0.9732
C4A C 0.9070(4) 0.1805(3) 0.8642(3)
C5A C 0.5302(4) 0.2535(2) 1.1015(3)
C6A C 0.6062(4) 0.1552(3) 1.0890(3)
C7A C 0.5673(4) 0.0557(3) 1.1592(3)
H5A H 0.6141 -0.0102 1.1522
C8A C 0.4598(5) 0.0585(3) 1.2375(3)
C9A C 0.3862(4) 0.1558(3) 1.2517(3)
H6A H 0.3142 0.1529 1.3074
C10A C 0.4197(4) 0.2558(2) 1.1836(3)
C11A C 0.3027(4) 0.4520(3) 1.1362(3)
C12A C 0.7864(4) 0.3563(2) 0.8735(3)
C13A C 0.8901(4) 0.2945(3) 0.8260(3)
H7A H 0.9500 0.3293 0.7672
N4 N 0.8066(3) 0.3365(2) 0.2911(2)
C14 C 0.6905(4) 0.4415(3) 0.2436(3)
H8 H 0.5928 0.4401 0.2877
H9 H 0.6684 0.4422 0.1831
C15 C 0.7424(4) 0.5478(3) 0.2192(3)
H10 H 0.7469 0.5549 0.2799
H11 H 0.8469 0.5465 0.1827
C16 C 0.6283(4) 0.6451(3) 0.1580(3)
H12 H 0.5217 0.6369 0.1878
H13 H 0.6405 0.6455 0.0923
C17 C 0.6526(5) 0.7551(3) 0.1492(3)
H14 H 0.6385 0.7560 0.2139
H15 H 0.5774 0.8136 0.1100
H16 H 0.7571 0.7647 0.1183
C18 C 0.8554(4) 0.3354(3) 0.3812(3)
H17 H 0.9095 0.3955 0.3604
H18 H 0.9303 0.2677 0.4092
C19 C 0.7236(4) 0.3447(3) 0.4618(3)
H19 H 0.6559 0.4165 0.4375
H20 H 0.6610 0.2902 0.4778
C20 C 0.7838(5) 0.3285(3) 0.5534(3)
H21 H 0.8534 0.3791 0.5361
H22 H 0.8449 0.2546 0.5803
C21 C 0.6547(5) 0.3462(4) 0.6314(3)
H23 H 0.5974 0.4205 0.6065
H24 H 0.6996 0.3324 0.6890
H25 H 0.5847 0.2969 0.6483
C22 C 0.7243(4) 0.2417(3) 0.3191(3)
H26 H 0.6241 0.2552 0.3576
H27 H 0.7023 0.2414 0.2589
C23 C 0.8143(4) 0.1287(3) 0.3774(3)
H28 H 0.9147 0.1141 0.3395
H29 H 0.8352 0.1275 0.4385
C24 C 0.7263(5) 0.0413(3) 0.4008(4)
H30 H 0.7067 0.0423 0.3396
H31 H 0.6252 0.0570 0.4376
C25 C 0.8125(6) -0.0721(3) 0.4604(4)
H32 H 0.9106 -0.0897 0.4232
H33 H 0.7492 -0.1248 0.4746
H34 H 0.8323 -0.0738 0.5212
C26 C 0.9535(4) 0.3266(3) 0.2191(3)
H35 H 1.0111 0.3816 0.2099
H36 H 1.0197 0.2553 0.2494
C27 C 1.0691(4) 0.2889(3) 0.0663(3)
H37 H 1.1612 0.3110 0.0706
H38 H 1.0554 0.3172 -0.0030
C28 C 0.9280(4) 0.3392(4) 0.1188(3)
H39 H 0.8405 0.3055 0.1265
H40 H 0.8993 0.4167 0.0782
C29 C 1.0977(6) 0.1650(4) 0.1076(4)
H41 H 1.1010 0.1365 0.1776
H42 H 1.1961 0.1374 0.0766
H43 H 1.0141 0.1425 0.0948
C30 C 0.2404(4) 0.3807(3) 0.4276(3)
C31 C 0.2238(5) 0.3587(3) 0.5359(3)
H44 H 0.3147 0.3722 0.5501
H45 H 0.2148 0.2837 0.5746
H46 H 0.1313 0.4063 0.5520
O2 O 0.1413(3) 0.4557(2) 0.3757(2)
O3 O 0.3530(3) 0.3239(2) 0.3950(2)
loop_
_geom_bond_atom_site_label_1
_geom_bond_atom_site_label_2
_geom_bond_site_symmetry_1
_geom_bond_site_symmetry_2
Cl1 C4 1_555 1_555
Cl2 C8 1_555 1_555
O1 C11 1_555 1_555
N1 H1 1_555 1_555
N2 H2 1_555 1_555
N3 H3 1_555 1_555
C1 N1 1_555 1_555
C2 C1 1_555 1_555
C3 C2 1_555 1_555
H4 C3 1_555 1_555
C4 C3 1_555 1_555
C5 N1 1_555 1_555
C6 C2 1_555 1_555
C7 C6 1_555 1_555
H5 C7 1_555 1_555
C8 C7 1_555 1_555
C9 C8 1_555 1_555
H6 C9 1_555 1_555
C10 N2 1_555 1_555
C11 N2 1_555 1_555
C12 C1 1_555 1_555
C13 C4 1_555 1_555
H7 C13 1_555 1_555
N4 C14 1_555 1_555
C14 H8 1_555 1_555
H9 C14 1_555 1_555
C15 C14 1_555 1_555
H10 C15 1_555 1_555
H11 C15 1_555 1_555
C16 C15 1_555 1_555
H12 C16 1_555 1_555
H13 C16 1_555 1_555
C17 C16 1_555 1_555
H14 C17 1_555 1_555
H15 C17 1_555 1_555
H16 C17 1_555 1_555
C18 N4 1_555 1_555
H17 C18 1_555 1_555
H18 C18 1_555 1_555
C19 C18 1_555 1_555
H19 C19 1_555 1_555
H20 C19 1_555 1_555
C20 C19 1_555 1_555
H21 C20 1_555 1_555
H22 C20 1_555 1_555
C21 C20 1_555 1_555
H23 C21 1_555 1_555
H24 C21 1_555 1_555
H25 C21 1_555 1_555
C22 N4 1_555 1_555
H26 C22 1_555 1_555
H27 C22 1_555 1_555
C23 C22 1_555 1_555
H28 C23 1_555 1_555
H29 C23 1_555 1_555
C24 C23 1_555 1_555
H30 C24 1_555 1_555
H31 C24 1_555 1_555
C25 C24 1_555 1_555
H32 C25 1_555 1_555
H33 C25 1_555 1_555
H34 C25 1_555 1_555
C26 N4 1_555 1_555
H35 C26 1_555 1_555
H36 C26 1_555 1_555
C27 H37 1_555 1_555
H38 C27 1_555 1_555
C28 C26 1_555 1_555
H39 C28 1_555 1_555
H40 C28 1_555 1_555
C29 C27 1_555 1_555
H41 C29 1_555 1_555
H42 C29 1_555 1_555
H43 C29 1_555 1_555
C30 C31 1_555 1_555
C31 H44 1_555 1_555
H45 C31 1_555 1_555
H46 C31 1_555 1_555
O2 C30 1_555 1_555
O3 C30 1_555 1_555
Cl1A C4A 1_555 1_555
Cl2A C8A 1_555 1_555
O1A C11A 1_555 1_555
N1A H1A 1_555 1_555
N2A H2A 1_555 1_555
N3A C12 1_555 1_555
H3A N3A 1_555 1_555
C1A N1A 1_555 1_555
C2A C1A 1_555 1_555
C3A C2A 1_555 1_555
H4A C3A 1_555 1_555
C4A C3A 1_555 1_555
C5A N1A 1_555 1_555
C6A C2A 1_555 1_555
C7A C6A 1_555 1_555
H5A C7A 1_555 1_555
C8A C7A 1_555 1_555
C9A C8A 1_555 1_555
H6A C9A 1_555 1_555
C10A N2A 1_555 1_555
C11A N2A 1_555 1_555
C12A N3 1_555 1_555
C13A C4A 1_555 1_555
H7A C13A 1_555 1_555
N3 C11 1_555 1_555
C5 C6 1_555 1_555
C5 C10 1_555 1_555
C9 C10 1_555 1_555
C12 C13 1_555 1_555
C27 C28 1_555 1_555
N3A C11A 1_555 1_555
C1A C12A 1_555 1_555
C5A C6A 1_555 1_555
C5A C10A 1_555 1_555
C9A C10A 1_555 1_555
C12A C13A 1_555 1_555

#END
