
#######################################################################
#
#                 Cambridge Crystallographic Data Centre
#                                CCDC 
#
#######################################################################
#
# If this CIF has been generated from an entry in the Cambridge 
# Structural Database, then it will include bibliographic, chemical, 
# crystal, experimental, refinement or atomic coordinate data resulting 
# from the CCDC's data processing and validation procedures.
#
#######################################################################

data_MAPCTD
_chemical_formula_moiety         'C13 H11 N1 O2'
_chemical_name_systematic        
12-Methyl-11,13-dioxo-12-azapentacyclo(4.4.3.0^1,6^.0^2,10^.0^5,7^)trideca-3,8-diene
_symmetry_cell_setting           orthorhombic
_symmetry_space_group_name_H-M   'F d d 2'
_symmetry_Int_Tables_number      43
_space_group_name_Hall           'F 2 -2d'
loop_
_symmetry_equiv_pos_site_id
_symmetry_equiv_pos_as_xyz
1 x,y,z
2 x,1/2+y,1/2+z
3 1/2+x,y,1/2+z
4 1/2+x,1/2+y,z
5 1/4-x,1/4+y,1/4+z
6 1/4-x,3/4+y,3/4+z
7 3/4-x,1/4+y,3/4+z
8 3/4-x,3/4+y,1/4+z
9 1/4+x,1/4-y,1/4+z
10 1/4+x,3/4-y,3/4+z
11 3/4+x,1/4-y,3/4+z
12 3/4+x,3/4-y,1/4+z
13 1/2-x,-y,1/2+z
14 1/2-x,1/2-y,z
15 -x,-y,z
16 -x,1/2-y,1/2+z
_cell_length_a                   17.289(4)
_cell_length_b                   13.108(5)
_cell_length_c                   9.165(2)
_cell_angle_alpha                90
_cell_angle_beta                 90
_cell_angle_gamma                90
_cell_volume                     2077.01
_cell_formula_units_Z            8
loop_
_atom_site_label
_atom_site_type_symbol
_atom_site_fract_x
_atom_site_fract_y
_atom_site_fract_z
C1 C 0.00000 0.00000 -0.16020
C2 C 0.04120 0.06750 0.08420
C3 C 0.02670 0.04340 0.23760
C4 C 0.02140 0.12330 0.35600
C5 C 0.08840 0.05000 0.35470
C6 C -0.04380 0.11030 0.46090
C7 C 0.09210 -0.03450 0.45970
H1 H 0.03410 0.18810 0.33690
H2 H 0.14370 0.08320 0.32520
H3 H -0.05760 0.16550 0.53450
H4 H 0.13350 -0.02430 0.56640
N1 N 0.00000 0.00000 0.00000
O1 O 0.08240 0.13480 0.03420
C2N C -0.04120 -0.06750 0.08420
C3N C -0.02670 -0.04340 0.23760
C7N C -0.09210 0.03450 0.45970
C6N C 0.04380 -0.11030 0.46090
O1N O -0.08240 -0.13480 0.03420
C4N C -0.02140 -0.12330 0.35600
C5N C -0.08840 -0.05000 0.35470
H4N H -0.13350 0.02430 0.56640
H3N H 0.05760 -0.16550 0.53450
H1N H -0.03410 -0.18810 0.33690
H2N H -0.14370 -0.08320 0.32520
loop_
_geom_bond_atom_site_label_1
_geom_bond_atom_site_label_2
_geom_bond_site_symmetry_1
_geom_bond_site_symmetry_2
C1 N1 1_555 1_555
C2 C3 1_555 1_555
C3 C4 1_555 1_555
C4 C5 1_555 1_555
C5 C3 1_555 1_555
C6 C4 1_555 1_555
C7 C5 1_555 1_555
H1 C4 1_555 1_555
H2 C5 1_555 1_555
H3 C6 1_555 1_555
H4 C7 1_555 1_555
N1 C2 1_555 1_555
O1 C2 1_555 1_555
C2N N1 1_555 1_555
C3N C3 1_555 1_555
C7N C6 1_555 1_555
C6N C7 1_555 1_555
O1N C2N 1_555 1_555
C4N C3N 1_555 1_555
C5N C3N 1_555 1_555
H4N C7N 1_555 1_555
H3N C6N 1_555 1_555
H1N C4N 1_555 1_555
H2N C5N 1_555 1_555
C2N C3N 1_555 1_555
C7N C5N 1_555 1_555
C6N C4N 1_555 1_555
C4N C5N 1_555 1_555

#END
