
#######################################################################
#
#                 Cambridge Crystallographic Data Centre
#                                CCDC 
#
#######################################################################
#
# If this CIF has been generated from an entry in the Cambridge 
# Structural Database, then it will include bibliographic, chemical, 
# crystal, experimental, refinement or atomic coordinate data resulting 
# from the CCDC's data processing and validation procedures.
#
#######################################################################

data_MAPCEN
_chemical_formula_moiety         'C25 H23 N1 O4'
_chemical_name_systematic        
syn-(2S*,4S*,5R*)-Methyl-5-benzoyl-2-hydroxyl-1,4-diphenylpyrrolidine-2-carboxylate
_symmetry_cell_setting           monoclinic
_symmetry_space_group_name_H-M   'P 21/n'
_symmetry_Int_Tables_number      14
_space_group_name_Hall           '-P 2yn'
loop_
_symmetry_equiv_pos_site_id
_symmetry_equiv_pos_as_xyz
1 x,y,z
2 1/2-x,1/2+y,1/2-z
3 -x,-y,-z
4 1/2+x,1/2-y,1/2+z
_cell_length_a                   11.934(2)
_cell_length_b                   14.466(3)
_cell_length_c                   12.536(2)
_cell_angle_alpha                90
_cell_angle_beta                 110.006(5)
_cell_angle_gamma                90
_cell_volume                     2033.59
_exptl_crystal_colour            colorless
_exptl_crystal_description       block
_cell_formula_units_Z            4
loop_
_atom_site_label
_atom_site_type_symbol
_atom_site_fract_x
_atom_site_fract_y
_atom_site_fract_z
O1 O 0.52413(16) -0.09410(12) 0.77108(16)
O2 O 0.56838(17) -0.04565(15) 0.62078(16)
O3 O 0.29413(18) 0.23583(12) 0.80782(17)
O4 O 0.43033(17) 0.10723(13) 0.59861(16)
H1 H 0.4299 0.0826 0.5378
N1 N 0.42379(18) 0.07895(15) 0.77965(18)
C1 C 0.5354(2) 0.12402(17) 0.9739(2)
H2 H 0.4698 0.1069 0.9962
C2 C 0.6371(2) 0.16113(17) 1.0538(2)
H3 H 0.6394 0.1705 1.1295
C3 C 0.7354(2) 0.18465(19) 1.0238(2)
H4 H 0.8047 0.2104 1.0782
C4 C 0.7302(2) 0.16988(19) 0.9135(3)
H5 H 0.7976 0.1845 0.8928
C5 C 0.6286(2) 0.13405(18) 0.8320(2)
H6 H 0.6269 0.1248 0.7564
C6 C 0.5285(2) 0.11164(16) 0.8617(2)
C7 C 0.0691(3) -0.0691(2) 0.6660(3)
H7 H 0.1265 -0.1147 0.6663
C8 C -0.0439(3) -0.0965(2) 0.6617(3)
H8 H -0.0637 -0.1603 0.6572
C9 C -0.1270(3) -0.0316(2) 0.6640(3)
H9 H -0.2034 -0.0505 0.6636
C10 C -0.0994(3) 0.0604(2) 0.6668(3)
H10 H -0.1569 0.1055 0.6679
C11 C 0.0124(2) 0.0878(2) 0.6681(2)
H11 H 0.0301 0.1518 0.6678
C12 C 0.0992(2) 0.02280(17) 0.6697(2)
C13 C 0.1867(3) 0.0742(2) 0.9731(3)
H12 H 0.2171 0.0177 0.9555
C14 C 0.1220(3) 0.0738(3) 1.0456(3)
H13 H 0.1090 0.0173 1.0782
C15 C 0.0769(3) 0.1535(4) 1.0704(3)
H14 H 0.0310 0.1523 1.1191
C16 C 0.0964(4) 0.2346(4) 1.0267(3)
H15 H 0.0643 0.2901 1.0448
C17 C 0.1644(4) 0.2373(3) 0.9541(3)
H16 H 0.1799 0.2948 0.9252
C18 C 0.2083(2) 0.15663(18) 0.9253(2)
C19 C 0.4194(2) 0.03810(18) 0.6740(2)
C20 C 0.2956(2) -0.00815(19) 0.6315(2)
H17 H 0.2638 -0.0115 0.5476
H18 H 0.2986 -0.0712 0.6632
C21 C 0.2215(2) 0.05637(17) 0.6763(2)
H19 H 0.2114 0.1160 0.6336
C22 C 0.3095(2) 0.07313(16) 0.7983(2)
H20 H 0.3088 0.0198 0.8488
C23 C 0.2749(2) 0.16217(16) 0.8437(2)
C24 C 0.5147(2) -0.03672(18) 0.6865(2)
C25 C 0.6003(3) -0.1735(2) 0.7796(3)
H21 H 0.6013 -0.2114 0.8447
H22 H 0.6815 -0.1526 0.7899
H23 H 0.5699 -0.2103 0.7100
loop_
_geom_bond_atom_site_label_1
_geom_bond_atom_site_label_2
_geom_bond_site_symmetry_1
_geom_bond_site_symmetry_2
O1 C24 1_555 1_555
O2 C24 1_555 1_555
O3 C23 1_555 1_555
O4 H1 1_555 1_555
N1 C6 1_555 1_555
C1 H2 1_555 1_555
C2 C1 1_555 1_555
H3 C2 1_555 1_555
C3 C2 1_555 1_555
H4 C3 1_555 1_555
C4 C3 1_555 1_555
H5 C4 1_555 1_555
C5 C4 1_555 1_555
H6 C5 1_555 1_555
C6 C1 1_555 1_555
C7 H7 1_555 1_555
C8 C7 1_555 1_555
H8 C8 1_555 1_555
C9 C8 1_555 1_555
H9 C9 1_555 1_555
C10 C9 1_555 1_555
H10 C10 1_555 1_555
C11 C10 1_555 1_555
H11 C11 1_555 1_555
C12 C7 1_555 1_555
C13 H12 1_555 1_555
C14 C13 1_555 1_555
H13 C14 1_555 1_555
C15 C14 1_555 1_555
H14 C15 1_555 1_555
C16 C15 1_555 1_555
H15 C16 1_555 1_555
C17 C16 1_555 1_555
H16 C17 1_555 1_555
C18 C13 1_555 1_555
C19 O4 1_555 1_555
C20 C19 1_555 1_555
H17 C20 1_555 1_555
H18 C20 1_555 1_555
C21 C12 1_555 1_555
H19 C21 1_555 1_555
C22 N1 1_555 1_555
H20 C22 1_555 1_555
C23 C18 1_555 1_555
C24 C19 1_555 1_555
C25 O1 1_555 1_555
H21 C25 1_555 1_555
H22 C25 1_555 1_555
H23 C25 1_555 1_555
N1 C19 1_555 1_555
C5 C6 1_555 1_555
C11 C12 1_555 1_555
C17 C18 1_555 1_555
C20 C21 1_555 1_555
C21 C22 1_555 1_555
C22 C23 1_555 1_555

#END
