
#######################################################################
#
#                 Cambridge Crystallographic Data Centre
#                                CCDC 
#
#######################################################################
#
# If this CIF has been generated from an entry in the Cambridge 
# Structural Database, then it will include bibliographic, chemical, 
# crystal, experimental, refinement or atomic coordinate data resulting 
# from the CCDC's data processing and validation procedures.
#
#######################################################################

data_MAPDAK
_chemical_formula_moiety         'C22 H21 N3'
_chemical_name_systematic        
5'-(Mesityl(1H-pyrrol-2-yl)methylene)-1H,5'H-2,2'-bipyrrole
_symmetry_cell_setting           triclinic
_symmetry_space_group_name_H-M   'P -1'
_symmetry_Int_Tables_number      2
_space_group_name_Hall           '-P 1'
loop_
_symmetry_equiv_pos_site_id
_symmetry_equiv_pos_as_xyz
1 x,y,z
2 -x,-y,-z
_cell_length_a                   9.481(6)
_cell_length_b                   12.320(8)
_cell_length_c                   17.351(11)
_cell_angle_alpha                70.679(8)
_cell_angle_beta                 80.779(9)
_cell_angle_gamma                83.598(9)
_cell_volume                     1884.12
_exptl_crystal_colour            colorless
_exptl_crystal_description       block
_cell_formula_units_Z            4
loop_
_atom_site_label
_atom_site_type_symbol
_atom_site_fract_x
_atom_site_fract_y
_atom_site_fract_z
C1 C 0.8574(10) 0.4892(7) 0.3162(6)
H1 H 0.8319 0.4355 0.2946
C2 C 0.9359(10) 0.4670(8) 0.3797(6)
H2 H 0.9721 0.3947 0.4097
C3 C 0.9528(10) 0.5684(7) 0.3920(5)
H3 H 1.0040 0.5766 0.4309
C4 C 0.8811(8) 0.6572(7) 0.3368(5)
C5 C 0.8637(8) 0.7762(6) 0.3279(4)
C6 C 0.9487(9) 0.8122(7) 0.3819(5)
C7 C 0.8818(10) 0.8172(7) 0.4580(5)
C8 C 0.9697(15) 0.8422(9) 0.5084(7)
H4 H 0.9279 0.8473 0.5594
C9 C 1.1104(15) 0.8587(9) 0.4860(8)
C10 C 1.1686(12) 0.8559(9) 0.4081(8)
H5 H 1.2646 0.8707 0.3906
C11 C 1.0915(9) 0.8324(7) 0.3551(6)
C12 C 0.7258(12) 0.7998(10) 0.4869(6)
H6 H 0.7076 0.7213 0.4953
H7 H 0.6702 0.8505 0.4461
H8 H 0.6996 0.8165 0.5377
C13 C 1.2049(17) 0.8813(13) 0.5404(11)
H9 H 1.2323 0.9595 0.5178
H10 H 1.2891 0.8297 0.5434
H11 H 1.1536 0.8692 0.5946
C14 C 1.1625(11) 0.8249(10) 0.2730(7)
H12 H 1.1769 0.7456 0.2754
H13 H 1.2533 0.8588 0.2597
H14 H 1.1027 0.8656 0.2314
C15 C 0.7756(8) 0.8573(7) 0.2800(5)
C16 C 0.7563(9) 0.9768(7) 0.2735(5)
H15 H 0.8035 1.0148 0.2991
C17 C 0.6558(10) 1.0233(7) 0.2226(6)
H16 H 0.6212 1.1000 0.2066
C18 C 0.6129(9) 0.9350(7) 0.1982(5)
C19 C 0.5069(9) 0.9465(7) 0.1466(5)
C20 C 0.4134(9) 1.0395(8) 0.1126(6)
H17 H 0.4086 1.1121 0.1186
C21 C 0.3300(10) 1.0048(9) 0.0689(6)
H18 H 0.2577 1.0501 0.0405
C22 C 0.3694(9) 0.8937(9) 0.0735(5)
H19 H 0.3305 0.8498 0.0487
N1 N 0.8237(7) 0.6038(5) 0.2904(4)
H39 H 0.7739 0.6390 0.2510
N2 N 0.6867(7) 0.8348(6) 0.2316(4)
N3 N 0.4762(8) 0.8593(6) 0.1212(4)
H40 H 0.5188 0.7916 0.1338
C23 C 0.4494(10) 0.6463(9) 0.3836(6)
H20 H 0.4815 0.6982 0.4046
C24 C 0.3494(11) 0.5652(9) 0.4241(6)
H21 H 0.3022 0.5523 0.4773
C25 C 0.3331(9) 0.5075(8) 0.3712(5)
H22 H 0.2718 0.4487 0.3823
C26 C 0.4223(9) 0.5507(7) 0.2989(5)
C27 C 0.4516(8) 0.5096(7) 0.2290(5)
C28 C 0.3577(9) 0.4173(7) 0.2312(5)
C29 C 0.2286(9) 0.4482(7) 0.1983(5)
C30 C 0.1436(9) 0.3598(8) 0.2033(5)
H23 H 0.0575 0.3793 0.1813
C31 C 0.1815(10) 0.2463(8) 0.2390(6)
C32 C 0.3075(11) 0.2175(8) 0.2714(6)
H24 H 0.3335 0.1401 0.2962
C33 C 0.3996(10) 0.3011(8) 0.2685(5)
C34 C 0.1791(12) 0.5725(9) 0.1596(7)
H25 H 0.1604 0.6101 0.2009
H26 H 0.0932 0.5760 0.1359
H27 H 0.2524 0.6105 0.1172
C35 C 0.0843(12) 0.1547(9) 0.2423(8)
H28 H -0.0040 0.1619 0.2765
H29 H 0.1304 0.0797 0.2647
H30 H 0.0651 0.1643 0.1877
C36 C 0.5365(12) 0.2681(9) 0.3059(7)
H31 H 0.5285 0.1954 0.3491
H32 H 0.5546 0.3260 0.3283
H33 H 0.6141 0.2617 0.2644
C37 C 0.5537(9) 0.5440(7) 0.1619(5)
C38 C 0.5859(10) 0.4992(9) 0.0944(6)
H34 H 0.5387 0.4425 0.0861
C39 C 0.6979(11) 0.5551(9) 0.0452(6)
H35 H 0.7417 0.5449 -0.0041
C40 C 0.7372(8) 0.6326(8) 0.0821(5)
C41 C 0.8504(9) 0.7092(8) 0.0507(5)
C42 C 0.9551(10) 0.7248(10) -0.0161(6)
H36 H 0.9656 0.6858 -0.0545
C43 C 1.0415(10) 0.8074(10) -0.0166(6)
H37 H 1.1215 0.8326 -0.0547
C44 C 0.9915(9) 0.8456(8) 0.0470(6)
H38 H 1.0285 0.9030 0.0603
N4 N 0.4910(7) 0.6360(6) 0.3085(4)
H41 H 0.5524 0.6774 0.2716
N5 N 0.6501(7) 0.6292(6) 0.1516(4)
N6 N 0.8753(7) 0.7841(6) 0.0887(4)
H42 H 0.8253 0.7919 0.1328
loop_
_geom_bond_atom_site_label_1
_geom_bond_atom_site_label_2
_geom_bond_site_symmetry_1
_geom_bond_site_symmetry_2
C1 H1 1_555 1_555
C2 C1 1_555 1_555
H2 C2 1_555 1_555
C3 C2 1_555 1_555
H3 C3 1_555 1_555
C4 C3 1_555 1_555
C5 C4 1_555 1_555
C6 C5 1_555 1_555
C7 C6 1_555 1_555
C8 C7 1_555 1_555
H4 C8 1_555 1_555
C9 C8 1_555 1_555
C10 C9 1_555 1_555
H5 C10 1_555 1_555
C11 C6 1_555 1_555
C12 C7 1_555 1_555
H6 C12 1_555 1_555
H7 C12 1_555 1_555
H8 C12 1_555 1_555
C13 C9 1_555 1_555
H9 C13 1_555 1_555
H10 C13 1_555 1_555
H11 C13 1_555 1_555
C14 C11 1_555 1_555
H12 C14 1_555 1_555
H13 C14 1_555 1_555
H14 C14 1_555 1_555
C15 C5 1_555 1_555
C16 C15 1_555 1_555
H15 C16 1_555 1_555
C17 C16 1_555 1_555
H16 C17 1_555 1_555
C18 C17 1_555 1_555
C19 C18 1_555 1_555
C20 C19 1_555 1_555
H17 C20 1_555 1_555
C21 C20 1_555 1_555
H18 C21 1_555 1_555
C22 C21 1_555 1_555
H19 C22 1_555 1_555
C23 H20 1_555 1_555
C24 C23 1_555 1_555
H21 C24 1_555 1_555
C25 C24 1_555 1_555
H22 C25 1_555 1_555
C26 C25 1_555 1_555
C27 C26 1_555 1_555
C28 C27 1_555 1_555
C29 C28 1_555 1_555
C30 C29 1_555 1_555
H23 C30 1_555 1_555
C31 C30 1_555 1_555
C32 C31 1_555 1_555
H24 C32 1_555 1_555
C33 C28 1_555 1_555
C34 C29 1_555 1_555
H25 C34 1_555 1_555
H26 C34 1_555 1_555
H27 C34 1_555 1_555
C35 C31 1_555 1_555
H28 C35 1_555 1_555
H29 C35 1_555 1_555
H30 C35 1_555 1_555
C36 C33 1_555 1_555
H31 C36 1_555 1_555
H32 C36 1_555 1_555
H33 C36 1_555 1_555
C37 C27 1_555 1_555
C38 C37 1_555 1_555
H34 C38 1_555 1_555
C39 C38 1_555 1_555
H35 C39 1_555 1_555
C40 C39 1_555 1_555
C41 C40 1_555 1_555
C42 C41 1_555 1_555
H36 C42 1_555 1_555
C43 C42 1_555 1_555
H37 C43 1_555 1_555
C44 C43 1_555 1_555
H38 C44 1_555 1_555
N1 C1 1_555 1_555
H39 N1 1_555 1_555
N2 C15 1_555 1_555
N3 C19 1_555 1_555
H40 N3 1_555 1_555
N4 C23 1_555 1_555
H41 N4 1_555 1_555
N5 C37 1_555 1_555
N6 C41 1_555 1_555
H42 N6 1_555 1_555
C4 N1 1_555 1_555
C10 C11 1_555 1_555
C18 N2 1_555 1_555
C22 N3 1_555 1_555
C26 N4 1_555 1_555
C32 C33 1_555 1_555
C40 N5 1_555 1_555
C44 N6 1_555 1_555

#END
