
#######################################################################
#
#                 Cambridge Crystallographic Data Centre
#                                CCDC 
#
#######################################################################
#
# If this CIF has been generated from an entry in the Cambridge 
# Structural Database, then it will include bibliographic, chemical, 
# crystal, experimental, refinement or atomic coordinate data resulting 
# from the CCDC's data processing and validation procedures.
#
#######################################################################

data_MAPDAJ
_chemical_formula_moiety         'C30 H28 N1 O2 P1'
_chemical_name_systematic        
'(Z)-Ethyl 3-(4-methylphenyl)-2-((triphenylphosphoranylidene)amino)prop-2-enoate'
_symmetry_cell_setting           monoclinic
_symmetry_space_group_name_H-M   'P 21/n'
_symmetry_Int_Tables_number      14
_space_group_name_Hall           '-P 2yn'
loop_
_symmetry_equiv_pos_site_id
_symmetry_equiv_pos_as_xyz
1 x,y,z
2 1/2-x,1/2+y,1/2-z
3 -x,-y,-z
4 1/2+x,1/2-y,1/2+z
_cell_length_a                   10.6177(8)
_cell_length_b                   17.6052(13)
_cell_length_c                   14.1076(10)
_cell_angle_alpha                90
_cell_angle_beta                 105.897(2)
_cell_angle_gamma                90
_cell_volume                     2536.23
_exptl_crystal_colour            colorless
_exptl_crystal_description       block
_chemical_melting_point          '403-405 K'
_cell_formula_units_Z            4
loop_
_atom_site_label
_atom_site_type_symbol
_atom_site_fract_x
_atom_site_fract_y
_atom_site_fract_z
P1 P 0.19490(7) 0.18755(4) 0.13722(5)
O1 O 0.0875(2) 0.18402(12) 0.30313(15)
O2 O 0.2156(2) 0.16745(13) 0.45579(15)
N1 N 0.2895(2) 0.14034(13) 0.22179(16)
C1 C 0.2662(3) 0.18288(15) 0.0339(2)
C2 C 0.3404(3) 0.12002(17) 0.0249(2)
H1 H 0.3595 0.0834 0.0742
C3 C 0.3860(3) 0.1116(2) -0.0574(3)
H2 H 0.4353 0.0692 -0.0636
C4 C 0.3587(4) 0.1659(2) -0.1300(3)
H3 H 0.3892 0.1603 -0.1854
C5 C 0.2865(4) 0.2281(2) -0.1206(3)
H4 H 0.2685 0.2649 -0.1697
C6 C 0.2401(3) 0.23700(19) -0.0395(2)
H5 H 0.1908 0.2797 -0.0340
C7 C 0.1822(3) 0.28740(15) 0.16299(19)
C8 C 0.2977(3) 0.32889(17) 0.1873(2)
H6 H 0.3752 0.3061 0.1838
C9 C 0.2985(3) 0.40353(18) 0.2166(3)
H7 H 0.3764 0.4308 0.2326
C10 C 0.1847(3) 0.43789(17) 0.2223(2)
H8 H 0.1858 0.4881 0.2428
C11 C 0.0700(3) 0.39812(16) 0.1977(2)
H9 H -0.0073 0.4217 0.2005
C12 C 0.0680(3) 0.32302(15) 0.1687(2)
H10 H -0.0104 0.2962 0.1529
C13 C 0.0332(3) 0.14822(15) 0.08357(19)
C14 C -0.0575(3) 0.18279(17) 0.0058(2)
H11 H -0.0390 0.2301 -0.0165
C15 C -0.1746(3) 0.1477(2) -0.0388(3)
H12 H -0.2354 0.1716 -0.0902
C16 C -0.2016(3) 0.0774(2) -0.0073(3)
H13 H -0.2804 0.0535 -0.0378
C17 C -0.1122(3) 0.0422(2) 0.0692(3)
H14 H -0.1304 -0.0055 0.0905
C18 C 0.0046(3) 0.07783(17) 0.1143(2)
H15 H 0.0648 0.0539 0.1662
C19 C 0.3049(3) 0.14075(14) 0.3220(2)
C20 C 0.1910(3) 0.16581(15) 0.3575(2)
C21 C 0.1101(3) 0.1933(2) 0.4940(3)
H16 H 0.0424 0.1547 0.4840
H17 H 0.0716 0.2392 0.4602
C22 C 0.1648(4) 0.2086(3) 0.6010(3)
H18 H 0.2033 0.1630 0.6337
H19 H 0.0960 0.2253 0.6282
H20 H 0.2306 0.2474 0.6101
C23 C 0.4149(3) 0.11601(15) 0.3887(2)
H21 H 0.4122 0.1164 0.4540
C24 C 0.5368(3) 0.08890(15) 0.3722(2)
C25 C 0.5706(3) 0.09645(18) 0.2833(2)
H22 H 0.5131 0.1203 0.2299
C26 C 0.6878(3) 0.0690(2) 0.2742(2)
H23 H 0.7081 0.0754 0.2146
C27 C 0.7767(3) 0.03220(19) 0.3506(2)
C28 C 0.7439(3) 0.02507(19) 0.4383(2)
H24 H 0.8019 0.0011 0.4913
C29 C 0.6273(3) 0.05270(17) 0.4491(2)
H25 H 0.6085 0.0470 0.5094
C30 C 0.9052(3) 0.0025(2) 0.3386(3)
H26 H 0.9544 -0.0205 0.3992
H27 H 0.9545 0.0437 0.3222
H28 H 0.8882 -0.0347 0.2869
loop_
_geom_bond_atom_site_label_1
_geom_bond_atom_site_label_2
_geom_bond_site_symmetry_1
_geom_bond_site_symmetry_2
P1 N1 1_555 1_555
O1 C20 1_555 1_555
O2 C20 1_555 1_555
N1 C19 1_555 1_555
C1 P1 1_555 1_555
C2 C1 1_555 1_555
H1 C2 1_555 1_555
C3 C2 1_555 1_555
H2 C3 1_555 1_555
C4 C3 1_555 1_555
H3 C4 1_555 1_555
C5 C4 1_555 1_555
H4 C5 1_555 1_555
C6 C1 1_555 1_555
H5 C6 1_555 1_555
C7 P1 1_555 1_555
C8 C7 1_555 1_555
H6 C8 1_555 1_555
C9 C8 1_555 1_555
H7 C9 1_555 1_555
C10 C9 1_555 1_555
H8 C10 1_555 1_555
C11 C10 1_555 1_555
H9 C11 1_555 1_555
C12 C7 1_555 1_555
H10 C12 1_555 1_555
C13 P1 1_555 1_555
C14 C13 1_555 1_555
H11 C14 1_555 1_555
C15 C14 1_555 1_555
H12 C15 1_555 1_555
C16 C15 1_555 1_555
H13 C16 1_555 1_555
C17 C16 1_555 1_555
H14 C17 1_555 1_555
C18 C13 1_555 1_555
H15 C18 1_555 1_555
C19 C20 1_555 1_555
C21 O2 1_555 1_555
H16 C21 1_555 1_555
H17 C21 1_555 1_555
C22 C21 1_555 1_555
H18 C22 1_555 1_555
H19 C22 1_555 1_555
H20 C22 1_555 1_555
C23 C19 1_555 1_555
H21 C23 1_555 1_555
C24 C23 1_555 1_555
C25 C24 1_555 1_555
H22 C25 1_555 1_555
C26 C25 1_555 1_555
H23 C26 1_555 1_555
C27 C26 1_555 1_555
C28 C27 1_555 1_555
H24 C28 1_555 1_555
C29 C24 1_555 1_555
H25 C29 1_555 1_555
C30 C27 1_555 1_555
H26 C30 1_555 1_555
H27 C30 1_555 1_555
H28 C30 1_555 1_555
C5 C6 1_555 1_555
C11 C12 1_555 1_555
C17 C18 1_555 1_555
C28 C29 1_555 1_555

#END
