
#######################################################################
#
#                 Cambridge Crystallographic Data Centre
#                                CCDC 
#
#######################################################################
#
# If this CIF has been generated from an entry in the Cambridge 
# Structural Database, then it will include bibliographic, chemical, 
# crystal, experimental, refinement or atomic coordinate data resulting 
# from the CCDC's data processing and validation procedures.
#
#######################################################################

data_MAPJEV
_chemical_formula_moiety         'C53 H42 B2 F20 N1 O1 P1,2(C1 H2 Cl2)'
_chemical_name_systematic        
'2,2,8,8-tetrakis(pentafluorophenyl)-9-phenyl-5-(2,4,6-tri-t-butylphenyl)-[1,5,2]oxaphosphaborinino[5,6-e][1,5,2]azaphosphaborinine dichloromethane solvate'
_symmetry_cell_setting           triclinic
_symmetry_space_group_name_H-M   'P -1'
_symmetry_Int_Tables_number      2
_space_group_name_Hall           '-P 1'
loop_
_symmetry_equiv_pos_site_id
_symmetry_equiv_pos_as_xyz
1 x,y,z
2 -x,-y,-z
_cell_length_a                   11.9911(2)
_cell_length_b                   12.2241(2)
_cell_length_c                   20.5637(4)
_cell_angle_alpha                85.022(1)
_cell_angle_beta                 80.922(1)
_cell_angle_gamma                72.511(1)
_cell_volume                     2836.41
_exptl_crystal_colour            colorless
_exptl_crystal_description       prism
_cell_formula_units_Z            2
loop_
_atom_site_label
_atom_site_type_symbol
_atom_site_fract_x
_atom_site_fract_y
_atom_site_fract_z
P1 P -0.29379(8) 1.33810(7) 0.75031(4)
O1 O -0.3179(2) 1.1413(2) 0.71500(11)
N1 N -0.2984(2) 1.1374(2) 0.82366(13)
C1 C -0.4461(3) 1.3893(3) 0.73492(19)
H1 H -0.4978 1.3715 0.7737
H2 H -0.4688 1.4728 0.7271
C2 C -0.4616(3) 1.3318(3) 0.67430(19)
H3 H -0.4106 1.3523 0.6361
H4 H -0.5434 1.3648 0.6657
C3 C -0.2688(3) 1.3804(3) 0.82817(17)
H5 H -0.2190 1.4320 0.8187
H6 H -0.3449 1.4240 0.8515
C4 C -0.2104(3) 1.2811(3) 0.87416(17)
H7 H -0.2030 1.3127 0.9149
H8 H -0.1306 1.2426 0.8530
C5 C -0.3007(3) 1.1876(3) 0.76492(17)
C6 C -0.2085(3) 1.3653(3) 0.67161(17)
C7 C -0.1194(3) 1.2761(3) 0.63738(18)
C8 C -0.1108(3) 1.2790(3) 0.56883(19)
H9 H -0.0563 1.2173 0.5461
C9 C -0.1779(4) 1.3675(4) 0.53259(19)
C10 C -0.2445(4) 1.4629(4) 0.5668(2)
H10 H -0.2810 1.5289 0.5423
C11 C -0.2613(3) 1.4686(3) 0.63500(18)
C12 C -0.0160(3) 1.1871(3) 0.66647(18)
C13 C 0.0951(4) 1.2246(4) 0.6381(2)
H11 H 0.1640 1.1712 0.6541
H12 H 0.0855 1.3011 0.6521
H13 H 0.1054 1.2250 0.5904
C14 C 0.0017(4) 1.0640(3) 0.6476(2)
H14 H -0.0645 1.0381 0.6689
H15 H 0.0741 1.0142 0.6618
H16 H 0.0068 1.0618 0.6002
C15 C -0.0253(3) 1.1883(3) 0.74077(18)
H17 H 0.0476 1.1395 0.7550
H18 H -0.0905 1.1600 0.7612
H19 H -0.0389 1.2662 0.7537
C16 C -0.1739(4) 1.3648(4) 0.4578(2)
C17 C -0.2990(6) 1.3810(8) 0.4438(3)
H20 H -0.3274 1.3187 0.4653
H21 H -0.2990 1.3812 0.3966
H22 H -0.3502 1.4535 0.4606
C18 C -0.0908(7) 1.2541(6) 0.4300(3)
H23 H -0.1177 1.1899 0.4498
H24 H -0.0119 1.2449 0.4398
H25 H -0.0897 1.2568 0.3826
C19 C -0.1310(7) 1.4651(6) 0.4244(3)
H26 H -0.1248 1.4621 0.3769
H27 H -0.0542 1.4593 0.4363
H28 H -0.1868 1.5372 0.4388
C20 C -0.3221(3) 1.5920(3) 0.6603(2)
C21 C -0.2422(4) 1.6664(4) 0.6264(2)
H29 H -0.1639 1.6358 0.6392
H30 H -0.2762 1.7449 0.6399
H31 H -0.2368 1.6646 0.5789
C22 C -0.3279(4) 1.6072(3) 0.7337(2)
H32 H -0.2498 1.5745 0.7466
H33 H -0.3816 1.5684 0.7587
H34 H -0.3558 1.6883 0.7425
C23 C -0.4465(4) 1.6431(4) 0.6401(2)
H35 H -0.4788 1.7216 0.6538
H36 H -0.4973 1.5979 0.6612
H37 H -0.4415 1.6418 0.5926
B1 B -0.4331(4) 1.1940(4) 0.6790(2)
C24 C -0.4101(12) 1.1512(16) 0.6040(6)
C25 C -0.3068(10) 1.0775(11) 0.5749(5)
F1 F -0.2208(9) 1.0045(9) 0.6141(6)
C26 C -0.3035(11) 1.0454(12) 0.5122(5)
F2 F -0.2017(9) 0.9715(10) 0.4833(5)
C27 C -0.3977(11) 1.0791(11) 0.4773(5)
F3 F -0.3498(10) 1.0065(9) 0.4189(4)
C28 C -0.5002(11) 1.1463(12) 0.5049(5)
F4 F -0.6011(10) 1.1839(9) 0.4765(4)
C29 C -0.5058(11) 1.1811(12) 0.5685(5)
F5 F -0.6120(8) 1.2510(10) 0.5962(5)
C30 C -0.5335(3) 1.1401(3) 0.72282(18)
F6 F -0.41226(19) 0.95131(19) 0.69946(12)
C31 C -0.5147(3) 1.0222(3) 0.72845(19)
F7 F -0.5674(2) 0.8543(2) 0.76858(15)
C32 C -0.5931(4) 0.9695(3) 0.7637(2)
F8 F -0.7731(2) 0.9855(2) 0.83305(14)
C33 C -0.6978(3) 1.0352(4) 0.7959(2)
F9 F -0.82531(19) 1.2186(2) 0.82195(13)
C34 C -0.7232(3) 1.1526(3) 0.79047(19)
F10 F -0.67584(19) 1.31801(18) 0.75269(12)
C35 C -0.6424(3) 1.2018(3) 0.75438(19)
B2 B -0.2821(3) 1.1872(3) 0.89268(19)
C36 C -0.2149(3) 1.0723(3) 0.93541(17)
F11 F -0.02634(19) 1.0584(2) 0.87421(12)
C37 C -0.0946(3) 1.0169(3) 0.92240(17)
F12 F 0.07967(19) 0.8692(2) 0.93823(12)
C38 C -0.0373(3) 0.9166(3) 0.95428(19)
F13 F -0.0447(2) 0.7673(2) 1.03370(13)
C39 C -0.0991(4) 0.8652(3) 1.0021(2)
F14 F -0.2836(2) 0.8650(2) 1.06259(13)
C40 C -0.2187(4) 0.9150(3) 1.01700(19)
F15 F -0.39067(18) 1.05500(19) 1.00239(11)
C41 C -0.2722(3) 1.0155(3) 0.98421(18)
C42 C -0.4096(3) 1.2574(3) 0.93447(17)
F16 F -0.53959(18) 1.25166(18) 0.85993(10)
C43 C -0.5222(3) 1.2889(3) 0.91679(17)
F17 F -0.72699(19) 1.3828(2) 0.93131(13)
C44 C -0.6220(3) 1.3564(3) 0.9532(2)
F18 F -0.7086(2) 1.4628(2) 1.04781(13)
C45 C -0.6134(3) 1.3960(3) 1.0115(2)
F19 F -0.4952(2) 1.4028(2) 1.09143(11)
C46 C -0.5049(3) 1.3667(3) 1.03313(18)
F20 F -0.30506(19) 1.2725(2) 1.02099(11)
C47 C -0.4078(3) 1.2993(3) 0.99517(18)
C48 C -0.3045(3) 1.0191(3) 0.82850(17)
C49 C -0.2054(3) 0.9350(3) 0.80152(19)
H38 H -0.1415 0.9557 0.7766
C50 C -0.2015(4) 0.8205(3) 0.8116(2)
H39 H -0.1350 0.7631 0.7934
C51 C -0.2955(4) 0.7910(3) 0.8485(2)
H40 H -0.2924 0.7133 0.8562
C52 C -0.3934(4) 0.8750(3) 0.8741(2)
H41 H -0.4575 0.8543 0.8988
C53 C -0.3991(3) 0.9900(3) 0.86407(19)
H42 H -0.4666 1.0472 0.8814
C60 C -0.0354(6) 1.5314(5) 0.1372(4)
H43 H -0.1213 1.5641 0.1411
H44 H 0.0002 1.5905 0.1164
Cl1 Cl 0.00462(15) 1.49637(13) 0.21559(10)
Cl2 Cl 0.00735(17) 1.41568(17) 0.08662(10)
C61 C 0.7837(5) 1.2802(5) 0.1856(3)
H45 H 0.7279 1.2420 0.1752
H46 H 0.8390 1.2836 0.1455
Cl3 Cl 0.8600(3) 1.2005(2) 0.24499(14)
Cl4 Cl 0.70732(17) 1.41734(15) 0.20790(13)
C54? C -0.3987(17) 1.127(2) 0.6089(8)
C55? C -0.3033(13) 1.0416(15) 0.5814(7)
F21? F -0.2032(12) 1.0380(14) 0.6065(10)
C56? C -0.2784(11) 1.0011(14) 0.5182(6)
F22? F -0.1759(10) 0.9142(12) 0.5034(6)
C57? C -0.3585(13) 1.0382(14) 0.4773(7)
F23? F -0.4016(14) 1.0541(12) 0.4141(5)
C58? C -0.4565(15) 1.1232(17) 0.5016(8)
F24? F -0.5437(13) 1.1571(10) 0.4610(6)
C59? C -0.4719(18) 1.168(2) 0.5610(9)
F25? F -0.5782(14) 1.2496(15) 0.5769(8)
loop_
_geom_bond_atom_site_label_1
_geom_bond_atom_site_label_2
_geom_bond_site_symmetry_1
_geom_bond_site_symmetry_2
P1 C1 1_555 1_555
O1 C5 1_555 1_555
N1 C5 1_555 1_555
C1 H1 1_555 1_555
H2 C1 1_555 1_555
C2 C1 1_555 1_555
H3 C2 1_555 1_555
H4 C2 1_555 1_555
C3 P1 1_555 1_555
H5 C3 1_555 1_555
H6 C3 1_555 1_555
C4 C3 1_555 1_555
H7 C4 1_555 1_555
H8 C4 1_555 1_555
C5 P1 1_555 1_555
C6 P1 1_555 1_555
C7 C6 1_555 1_555
C8 C7 1_555 1_555
H9 C8 1_555 1_555
C9 C8 1_555 1_555
C10 C9 1_555 1_555
H10 C10 1_555 1_555
C11 C6 1_555 1_555
C12 C7 1_555 1_555
C13 C12 1_555 1_555
H11 C13 1_555 1_555
H12 C13 1_555 1_555
H13 C13 1_555 1_555
C14 C12 1_555 1_555
H14 C14 1_555 1_555
H15 C14 1_555 1_555
H16 C14 1_555 1_555
C15 C12 1_555 1_555
H17 C15 1_555 1_555
H18 C15 1_555 1_555
H19 C15 1_555 1_555
C16 C9 1_555 1_555
C17 C16 1_555 1_555
H20 C17 1_555 1_555
H21 C17 1_555 1_555
H22 C17 1_555 1_555
C18 C16 1_555 1_555
H23 C18 1_555 1_555
H24 C18 1_555 1_555
H25 C18 1_555 1_555
C19 C16 1_555 1_555
H26 C19 1_555 1_555
H27 C19 1_555 1_555
H28 C19 1_555 1_555
C20 C11 1_555 1_555
C21 C20 1_555 1_555
H29 C21 1_555 1_555
H30 C21 1_555 1_555
H31 C21 1_555 1_555
C22 C20 1_555 1_555
H32 C22 1_555 1_555
H33 C22 1_555 1_555
H34 C22 1_555 1_555
C23 C20 1_555 1_555
H35 C23 1_555 1_555
H36 C23 1_555 1_555
H37 C23 1_555 1_555
B1 O1 1_555 1_555
C24 B1 1_555 1_555
C25 C24 1_555 1_555
F1 C25 1_555 1_555
C26 C25 1_555 1_555
F2 C26 1_555 1_555
C27 C26 1_555 1_555
F3 C27 1_555 1_555
C28 C27 1_555 1_555
F4 C28 1_555 1_555
C29 C24 1_555 1_555
F5 C29 1_555 1_555
C30 B1 1_555 1_555
F6 C31 1_555 1_555
C31 C30 1_555 1_555
F7 C32 1_555 1_555
C32 C31 1_555 1_555
F8 C33 1_555 1_555
C33 C32 1_555 1_555
F9 C34 1_555 1_555
C34 C33 1_555 1_555
F10 C35 1_555 1_555
C35 C30 1_555 1_555
B2 N1 1_555 1_555
C36 B2 1_555 1_555
F11 C37 1_555 1_555
C37 C36 1_555 1_555
F12 C38 1_555 1_555
C38 C37 1_555 1_555
F13 C39 1_555 1_555
C39 C38 1_555 1_555
F14 C40 1_555 1_555
C40 C39 1_555 1_555
F15 C41 1_555 1_555
C41 C36 1_555 1_555
C42 B2 1_555 1_555
F16 C43 1_555 1_555
C43 C42 1_555 1_555
F17 C44 1_555 1_555
C44 C43 1_555 1_555
F18 C45 1_555 1_555
C45 C44 1_555 1_555
F19 C46 1_555 1_555
C46 C45 1_555 1_555
F20 C47 1_555 1_555
C47 C42 1_555 1_555
C48 N1 1_555 1_555
C49 C48 1_555 1_555
H38 C49 1_555 1_555
C50 C49 1_555 1_555
H39 C50 1_555 1_555
C51 C50 1_555 1_555
H40 C51 1_555 1_555
C52 C51 1_555 1_555
H41 C52 1_555 1_555
C53 C48 1_555 1_555
H42 C53 1_555 1_555
C60 H43 1_555 1_555
H44 C60 1_555 1_555
Cl1 C60 1_555 1_555
Cl2 C60 1_555 1_555
C61 H45 1_555 1_555
H46 C61 1_555 1_555
Cl3 C61 1_555 1_555
Cl4 C61 1_555 1_555
C2 B1 1_555 1_555
C4 B2 1_555 1_555
C10 C11 1_555 1_555
C28 C29 1_555 1_555
C34 C35 1_555 1_555
C40 C41 1_555 1_555
C46 C47 1_555 1_555
C52 C53 1_555 1_555

#END
