
#######################################################################
#
#                 Cambridge Crystallographic Data Centre
#                                CCDC 
#
#######################################################################
#
# If this CIF has been generated from an entry in the Cambridge 
# Structural Database, then it will include bibliographic, chemical, 
# crystal, experimental, refinement or atomic coordinate data resulting 
# from the CCDC's data processing and validation procedures.
#
#######################################################################

data_MAPKEU
_chemical_formula_moiety         'C18 H18 F1 N3 O4'
_chemical_name_systematic        
'1-Cyclopropyl-6-fluoro-7-(4-formylpiperazin-1-yl)-4-oxo-1,4-dihydroquinoline-3-carboxylic acid'
_symmetry_cell_setting           triclinic
_symmetry_space_group_name_H-M   'P -1'
_symmetry_Int_Tables_number      2
_space_group_name_Hall           '-P 1'
loop_
_symmetry_equiv_pos_site_id
_symmetry_equiv_pos_as_xyz
1 x,y,z
2 -x,-y,-z
_cell_length_a                   8.414(2)
_cell_length_b                   9.513(2)
_cell_length_c                   10.497(2)
_cell_angle_alpha                102.57(3)
_cell_angle_beta                 96.58(3)
_cell_angle_gamma                97.08(3)
_cell_volume                     805.092
_exptl_crystal_colour            yellow
_exptl_crystal_description       needle
_chemical_melting_point          '565.9-567.5 K'
_cell_formula_units_Z            2
loop_
_atom_site_label
_atom_site_type_symbol
_atom_site_fract_x
_atom_site_fract_y
_atom_site_fract_z
F1 F 0.52063(18) 0.74819(15) -0.07309(14)
O1 O 0.7511(3) 1.3189(2) 0.4184(2)
O2 O 0.0708(2) 0.32798(18) -0.24166(17)
O3 O -0.1250(3) 0.1022(2) -0.25234(19)
O4 O -0.1734(2) 0.0351(2) -0.06989(19)
N1 N 0.7420(3) 1.0744(2) 0.36587(19)
N2 N 0.5558(2) 0.8162(2) 0.20153(19)
N3 N 0.1515(2) 0.38818(19) 0.16083(18)
C1 C 0.7561(4) 1.2033(3) 0.4492(3)
H1 H 0.7711 1.2056 0.5389
C2 C 0.7396(3) 0.9372(3) 0.4054(2)
H2 H 0.7486 0.9556 0.5008
H3 H 0.8322 0.8929 0.3790
C3 C 0.5846(3) 0.8319(3) 0.3435(2)
H4 H 0.5932 0.7375 0.3623
H5 H 0.4937 0.8678 0.3822
C4 C 0.5543(3) 0.9592(3) 0.1686(3)
H6 H 0.4662 1.0040 0.2039
H7 H 0.5366 0.9459 0.0735
C5 C 0.7127(3) 1.0574(3) 0.2252(2)
H8 H 0.8001 1.0157 0.1856
H9 H 0.7093 1.1519 0.2051
C6 C 0.4412(3) 0.6999(2) 0.1267(2)
C7 C 0.4207(3) 0.6684(2) -0.0128(2)
C8 C 0.3098(3) 0.5589(2) -0.0912(2)
H10 H 0.2966 0.5468 -0.1823
C9 C 0.2149(3) 0.4638(2) -0.0344(2)
C10 C 0.0981(3) 0.3454(2) -0.1176(2)
C11 C 0.0169(3) 0.2494(2) -0.0500(2)
C12 C -0.1022(3) 0.1194(3) -0.1222(3)
C13 C 0.0465(3) 0.2758(2) 0.0842(2)
H11 H -0.0094 0.2120 0.1251
C14 C 0.2387(3) 0.4863(2) 0.1032(2)
C15 C 0.3470(3) 0.6054(2) 0.1819(2)
H12 H 0.3561 0.6216 0.2732
C16 C 0.1684(3) 0.4125(3) 0.3041(2)
H13 H 0.1203 0.4948 0.3491
C17 C 0.1618(4) 0.2866(3) 0.3656(3)
H14 H 0.1490 0.1901 0.3079
H15 H 0.1088 0.2922 0.4435
C18 C 0.3182(3) 0.3848(3) 0.3778(3)
H16 H 0.3599 0.4500 0.4631
H17 H 0.4001 0.3479 0.3274
H18 H -0.066(3) 0.174(3) -0.277(3)
loop_
_geom_bond_atom_site_label_1
_geom_bond_atom_site_label_2
_geom_bond_site_symmetry_1
_geom_bond_site_symmetry_2
F1 C7 1_555 1_555
O1 C1 1_555 1_555
O2 C10 1_555 1_555
O3 C12 1_555 1_555
O4 C12 1_555 1_555
N1 C1 1_555 1_555
N2 C3 1_555 1_555
N3 C13 1_555 1_555
C1 H1 1_555 1_555
C2 N1 1_555 1_555
H2 C2 1_555 1_555
H3 C2 1_555 1_555
C3 C2 1_555 1_555
H4 C3 1_555 1_555
H5 C3 1_555 1_555
C4 N2 1_555 1_555
H6 C4 1_555 1_555
H7 C4 1_555 1_555
C5 N1 1_555 1_555
H8 C5 1_555 1_555
H9 C5 1_555 1_555
C6 N2 1_555 1_555
C7 C6 1_555 1_555
C8 C7 1_555 1_555
H10 C8 1_555 1_555
C9 C8 1_555 1_555
C10 C9 1_555 1_555
C11 C10 1_555 1_555
C12 C11 1_555 1_555
C13 C11 1_555 1_555
H11 C13 1_555 1_555
C14 N3 1_555 1_555
C15 C6 1_555 1_555
H12 C15 1_555 1_555
C16 N3 1_555 1_555
H13 C16 1_555 1_555
C17 C16 1_555 1_555
H14 C17 1_555 1_555
H15 C17 1_555 1_555
C18 C16 1_555 1_555
H16 C18 1_555 1_555
H17 C18 1_555 1_555
H18 O3 1_555 1_555
C4 C5 1_555 1_555
C9 C14 1_555 1_555
C14 C15 1_555 1_555
C17 C18 1_555 1_555

#END
