
#######################################################################
#
#                 Cambridge Crystallographic Data Centre
#                                CCDC 
#
#######################################################################
#
# If this CIF has been generated from an entry in the Cambridge 
# Structural Database, then it will include bibliographic, chemical, 
# crystal, experimental, refinement or atomic coordinate data resulting 
# from the CCDC's data processing and validation procedures.
#
#######################################################################

data_MAPNEY
_chemical_formula_moiety         'C4 H10 N10 2+,2(Cl1 O4 1-)'
_chemical_name_systematic        
'(1,2,4,5-Tetrazine-3,6-diyldiimino)bis(aminomethaniminium) diperchlorate'
_symmetry_cell_setting           monoclinic
_symmetry_space_group_name_H-M   'P 21/c'
_symmetry_Int_Tables_number      14
_space_group_name_Hall           '-P 2ybc'
loop_
_symmetry_equiv_pos_site_id
_symmetry_equiv_pos_as_xyz
1 x,y,z
2 -x,1/2+y,1/2-z
3 -x,-y,-z
4 x,1/2-y,1/2+z
_cell_length_a                   4.8581(15)
_cell_length_b                   13.058(4)
_cell_length_c                   10.519(3)
_cell_angle_alpha                90
_cell_angle_beta                 91.159(5)
_cell_angle_gamma                90
_cell_volume                     667.158
_exptl_crystal_colour            orange
_exptl_crystal_description       prism
_cell_formula_units_Z            2
loop_
_atom_site_label
_atom_site_type_symbol
_atom_site_fract_x
_atom_site_fract_y
_atom_site_fract_z
Cl1 Cl 0.28110(11) 0.82882(4) 0.32467(5)
O1 O 0.3968(3) 0.91815(12) 0.38722(15)
O2 O 0.3877(3) 0.73756(13) 0.38651(15)
O3 O 0.3515(4) 0.82835(13) 0.19236(15)
O4 O -0.0148(3) 0.83076(12) 0.33707(15)
N1 N 1.2212(4) 0.43596(15) 0.48983(18)
N2 N 1.1412(4) 0.48976(14) 0.38975(18)
N3 N 0.8225(4) 0.60783(15) 0.30162(18)
N4 N 0.7982(5) 0.68159(16) 0.1045(2)
N5 N 1.1419(4) 0.56469(16) 0.1472(2)
C1 C 0.9224(5) 0.55092(17) 0.4032(2)
C2 C 0.9250(5) 0.61756(17) 0.1822(2)
H1 H 0.697(6) 0.646(2) 0.316(3)
H2 H 0.690(6) 0.718(2) 0.132(3)
H3 H 0.850(7) 0.688(2) 0.030(3)
H4 H 1.222(6) 0.518(2) 0.199(3)
H5 H 1.198(6) 0.569(2) 0.071(3)
N1B N 0.7788(4) 0.56404(15) 0.51017(18)
N2B N 0.8588(4) 0.51024(14) 0.61025(18)
N3B N 1.1775(4) 0.39217(15) 0.69838(18)
N4B N 1.2018(5) 0.31841(16) 0.8955(2)
N5B N 0.8581(4) 0.43531(16) 0.8528(2)
C1B C 1.0776(5) 0.44908(17) 0.5968(2)
C2B C 1.0750(5) 0.38244(17) 0.8178(2)
H1B H 1.303(6) 0.354(2) 0.684(3)
H2B H 1.310(6) 0.282(2) 0.868(3)
H3B H 1.150(7) 0.312(2) 0.970(3)
H4B H 0.778(6) 0.482(2) 0.801(3)
H5B H 0.802(6) 0.431(2) 0.929(3)
loop_
_geom_bond_atom_site_label_1
_geom_bond_atom_site_label_2
_geom_bond_site_symmetry_1
_geom_bond_site_symmetry_2
Cl1 O1 1_555 1_555
O2 Cl1 1_555 1_555
O3 Cl1 1_555 1_555
O4 Cl1 1_555 1_555
N1 N2 1_555 1_555
N2 C1 1_555 1_555
N3 C1 1_555 1_555
N4 C2 1_555 1_555
N5 C2 1_555 1_555
C1 N1B 1_555 1_555
C2 N3 1_555 1_555
H1 N3 1_555 1_555
H2 N4 1_555 1_555
H3 N4 1_555 1_555
H4 N5 1_555 1_555
H5 N5 1_555 1_555
N1B N2B 1_555 1_555
N2B C1B 1_555 1_555
N3B C1B 1_555 1_555
N4B C2B 1_555 1_555
N5B C2B 1_555 1_555
C1B N1 1_555 1_555
C2B N3B 1_555 1_555
H1B N3B 1_555 1_555
H2B N4B 1_555 1_555
H3B N4B 1_555 1_555
H4B N5B 1_555 1_555
H5B N5B 1_555 1_555

#END
