
#######################################################################
#
#                 Cambridge Crystallographic Data Centre
#                                CCDC 
#
#######################################################################
#
# If this CIF has been generated from an entry in the Cambridge 
# Structural Database, then it will include bibliographic, chemical, 
# crystal, experimental, refinement or atomic coordinate data resulting 
# from the CCDC's data processing and validation procedures.
#
#######################################################################

data_MAPNIB
_chemical_formula_moiety         'C22 H14 O6,2(C2 H6 O1)'
_chemical_name_systematic        
'2,5-Dibenzoylterephthalic acid ethanol solvate'
_symmetry_cell_setting           triclinic
_symmetry_space_group_name_H-M   'P -1'
_symmetry_Int_Tables_number      2
_space_group_name_Hall           '-P 1'
loop_
_symmetry_equiv_pos_site_id
_symmetry_equiv_pos_as_xyz
1 x,y,z
2 -x,-y,-z
_cell_length_a                   6.1010(10)
_cell_length_b                   8.598(2)
_cell_length_c                   11.479(2)
_cell_angle_alpha                94.88(3)
_cell_angle_beta                 98.56(3)
_cell_angle_gamma                92.42(3)
_cell_volume                     592.36
_exptl_crystal_colour            colorless
_exptl_crystal_description       block
_cell_formula_units_Z            1
_exptl_crystal_recrystallization_method 'acetic acid'
loop_
_atom_site_label
_atom_site_type_symbol
_atom_site_fract_x
_atom_site_fract_y
_atom_site_fract_z
O1 O 0.4571(3) 0.1957(2) 0.28809(15)
O2 O 0.5742(3) -0.0414(2) 0.31656(14)
O3 O 1.0041(3) -0.01209(19) 0.20565(16)
C1 C 0.3500(4) 0.0947(2) 0.04517(19)
H1 H 0.2495 0.1590 0.0758
C2 C 0.6684(3) -0.0614(2) 0.07642(19)
C3 C 0.5160(3) 0.0336(2) 0.12232(18)
C4 C 0.5201(4) 0.0591(3) 0.25244(19)
C5 C 0.8696(4) -0.1115(3) 0.15441(19)
C6 C 0.9014(4) -0.2799(3) 0.15887(19)
C7 C 0.7272(4) -0.3904(3) 0.1255(2)
H2 H 0.5877 -0.3594 0.0950
C8 C 0.7592(5) -0.5460(3) 0.1370(3)
H3 H 0.6410 -0.6198 0.1158
C9 C 0.9665(5) -0.5922(3) 0.1801(3)
H4 H 0.9887 -0.6975 0.1870
C10 C 1.1406(5) -0.4837(3) 0.2128(3)
H5 H 1.2801 -0.5162 0.2417
C11 C 1.1115(4) -0.3273(3) 0.2035(2)
H6 H 1.2299 -0.2541 0.2266
H13 H 0.456(6) 0.200(4) 0.382(4)
O1A O 0.5429(3) -0.1957(2) -0.28809(15)
O2A O 0.4258(3) 0.0414(2) -0.31656(14)
O3A O -0.0041(3) 0.01209(19) -0.20565(16)
C1A C 0.6500(4) -0.0947(2) -0.04517(19)
H1A H 0.7505 -0.1590 -0.0758
C2A C 0.3316(3) 0.0614(2) -0.07642(19)
C3A C 0.4840(3) -0.0336(2) -0.12232(18)
C4A C 0.4799(4) -0.0591(3) -0.25244(19)
C5A C 0.1304(4) 0.1115(3) -0.15441(19)
C6A C 0.0986(4) 0.2799(3) -0.15887(19)
C7A C 0.2728(4) 0.3904(3) -0.1255(2)
H2A H 0.4123 0.3594 -0.0950
C8A C 0.2408(5) 0.5460(3) -0.1370(3)
H3A H 0.3590 0.6198 -0.1158
C9A C 0.0335(5) 0.5922(3) -0.1801(3)
H4A H 0.0113 0.6975 -0.1870
C10A C -0.1406(5) 0.4837(3) -0.2128(3)
H5A H -0.2801 0.5162 -0.2417
C11A C -0.1115(4) 0.3273(3) -0.2035(2)
H6A H -0.2299 0.2541 -0.2266
H13A H 0.544(6) -0.200(4) -0.382(4)
O4 O 0.4278(4) 0.2453(3) 0.50846(17)
C12 C 0.0271(7) 0.2351(6) 0.4951(4)
H7 H -0.0949 0.2980 0.5081
H8 H 0.0296 0.1492 0.5434
H9 H 0.0098 0.1956 0.4133
C13 C 0.2364(7) 0.3307(4) 0.5266(3)
H10 H 0.2306 0.4192 0.4793
H11 H 0.2518 0.3712 0.6090
H12 H 0.438(6) 0.154(5) 0.559(4)
loop_
_geom_bond_atom_site_label_1
_geom_bond_atom_site_label_2
_geom_bond_site_symmetry_1
_geom_bond_site_symmetry_2
O1 C4 1_555 1_555
O2 C4 1_555 1_555
O3 C5 1_555 1_555
O4 C13 1_555 1_555
C1 H1 1_555 1_555
C2 C3 1_555 1_555
C3 C1 1_555 1_555
C4 C3 1_555 1_555
C5 C2 1_555 1_555
C6 C5 1_555 1_555
C7 C6 1_555 1_555
H2 C7 1_555 1_555
C8 C7 1_555 1_555
H3 C8 1_555 1_555
C9 C8 1_555 1_555
H4 C9 1_555 1_555
C10 C9 1_555 1_555
H5 C10 1_555 1_555
C11 C6 1_555 1_555
H6 C11 1_555 1_555
C12 H7 1_555 1_555
H8 C12 1_555 1_555
H9 C12 1_555 1_555
C13 C12 1_555 1_555
H10 C13 1_555 1_555
H11 C13 1_555 1_555
H12 O4 1_555 1_555
H13 O1 1_555 1_555
O1A C4A 1_555 1_555
O2A C4A 1_555 1_555
O3A C5A 1_555 1_555
C1A C2 1_555 1_555
H1A C1A 1_555 1_555
C2A C1 1_555 1_555
C3A C1A 1_555 1_555
C4A C3A 1_555 1_555
C5A C2A 1_555 1_555
C6A C5A 1_555 1_555
C7A C6A 1_555 1_555
H2A C7A 1_555 1_555
C8A C7A 1_555 1_555
H3A C8A 1_555 1_555
C9A C8A 1_555 1_555
H4A C9A 1_555 1_555
C10A C9A 1_555 1_555
H5A C10A 1_555 1_555
C11A C6A 1_555 1_555
H6A C11A 1_555 1_555
H13A O1A 1_555 1_555
C10 C11 1_555 1_555
C2A C3A 1_555 1_555
C10A C11A 1_555 1_555

#END
