
#######################################################################
#
#                 Cambridge Crystallographic Data Centre
#                                CCDC 
#
#######################################################################
#
# If this CIF has been generated from an entry in the Cambridge 
# Structural Database, then it will include bibliographic, chemical, 
# crystal, experimental, refinement or atomic coordinate data resulting 
# from the CCDC's data processing and validation procedures.
#
#######################################################################

data_MAPPAV
_chemical_formula_moiety         'C15 H10 Cl2 N4 O2 S1'
_chemical_name_systematic        
2-(2,4-Dichlorophenoxy)-N-(5-(3-pyridyl)-1,3,4-thiadiazol-2-yl)acetamide
_chemical_properties_biological  'potential biological activity'
_symmetry_cell_setting           monoclinic
_symmetry_space_group_name_H-M   'P 21/c'
_symmetry_Int_Tables_number      14
_space_group_name_Hall           '-P 2ybc'
loop_
_symmetry_equiv_pos_site_id
_symmetry_equiv_pos_as_xyz
1 x,y,z
2 -x,1/2+y,1/2-z
3 -x,-y,-z
4 x,1/2-y,1/2+z
_cell_length_a                   7.6550(7)
_cell_length_b                   9.0221(8)
_cell_length_c                   22.927(2)
_cell_angle_alpha                90
_cell_angle_beta                 92.811(2)
_cell_angle_gamma                90
_cell_volume                     1581.53
_exptl_crystal_colour            colorless
_exptl_crystal_description       block
_chemical_melting_point          '528-529 K'
_cell_formula_units_Z            4
_exptl_crystal_recrystallization_method methanol/DMF
loop_
_atom_site_label
_atom_site_type_symbol
_atom_site_fract_x
_atom_site_fract_y
_atom_site_fract_z
C1 C 0.8000(3) 0.7468(2) 0.12476(9)
C2 C 0.8454(3) 0.8435(3) 0.08093(9)
C3 C 0.9129(3) 0.9821(3) 0.09370(10)
H1 H 0.9429 1.0457 0.0639
C4 C 0.9354(3) 1.0252(2) 0.15107(10)
C5 C 0.8882(3) 0.9337(3) 0.19528(11)
H2 H 0.9016 0.9647 0.2339
C6 C 0.8202(3) 0.7947(3) 0.18206(10)
H3 H 0.7877 0.7328 0.2121
C7 C 0.6985(3) 0.5153(2) 0.15412(10)
H4 H 0.6156 0.5634 0.1786
H5 H 0.8044 0.4960 0.1779
C8 C 0.6227(3) 0.3705(2) 0.13181(10)
C9 C 0.4995(3) 0.1486(2) 0.17362(9)
C10 C 0.3824(3) -0.0900(2) 0.15232(9)
C11 C 0.3137(3) -0.2302(2) 0.12851(10)
C12 C 0.2317(3) -0.3286(3) 0.16523(10)
H6 H 0.2238 -0.3020 0.2042
C13 C 0.1757(4) -0.4917(3) 0.09168(12)
H7 H 0.1280 -0.5811 0.0785
C14 C 0.2532(4) -0.4032(3) 0.05207(12)
H8 H 0.2586 -0.4324 0.0133
C15 C 0.3231(4) -0.2696(3) 0.07075(11)
H9 H 0.3760 -0.2069 0.0447
Cl1 Cl 0.81031(12) 0.79051(8) 0.00883(3)
Cl2 Cl 1.02256(9) 1.19985(7) 0.16702(3)
N1 N 0.5670(3) 0.2889(2) 0.17763(8)
H10 H 0.5750 0.3290 0.2117
N2 N 0.4626(3) 0.0771(2) 0.22056(8)
N3 N 0.3953(3) -0.0613(2) 0.20804(8)
N4 N 0.1641(3) -0.4580(2) 0.14819(9)
O1 O 0.7374(2) 0.61078(17) 0.10759(6)
O2 O 0.6136(3) 0.3275(2) 0.08191(7)
S1 S 0.45450(8) 0.05412(6) 0.10930(2)
loop_
_geom_bond_atom_site_label_1
_geom_bond_atom_site_label_2
_geom_bond_site_symmetry_1
_geom_bond_site_symmetry_2
C1 C2 1_555 1_555
C2 C3 1_555 1_555
C3 H1 1_555 1_555
C4 C3 1_555 1_555
C5 C4 1_555 1_555
H2 C5 1_555 1_555
C6 C1 1_555 1_555
H3 C6 1_555 1_555
C7 H4 1_555 1_555
H5 C7 1_555 1_555
C8 C7 1_555 1_555
C9 N1 1_555 1_555
C10 C11 1_555 1_555
C11 C12 1_555 1_555
C12 H6 1_555 1_555
C13 H7 1_555 1_555
C14 C13 1_555 1_555
H8 C14 1_555 1_555
C15 C11 1_555 1_555
H9 C15 1_555 1_555
Cl1 C2 1_555 1_555
Cl2 C4 1_555 1_555
N1 C8 1_555 1_555
H10 N1 1_555 1_555
N2 C9 1_555 1_555
N3 C10 1_555 1_555
N4 C12 1_555 1_555
O1 C1 1_555 1_555
O2 C8 1_555 1_555
S1 C9 1_555 1_555
C5 C6 1_555 1_555
C7 O1 1_555 1_555
C10 S1 1_555 1_555
C13 N4 1_555 1_555
C14 C15 1_555 1_555
N2 N3 1_555 1_555

#END
