
#######################################################################
#
#                 Cambridge Crystallographic Data Centre
#                                CCDC 
#
#######################################################################
#
# If this CIF has been generated from an entry in the Cambridge 
# Structural Database, then it will include bibliographic, chemical, 
# crystal, experimental, refinement or atomic coordinate data resulting 
# from the CCDC's data processing and validation procedures.
#
#######################################################################

data_MAPSUU
_chemical_formula_moiety         'C25 H21 N1 O3'
_chemical_name_systematic        
"ethyl 3'-oxo-3-phenyl-2,2',3,3'-tetrahydrospiro[indene-1,1'-isoindole]-2-carboxylate"
_symmetry_cell_setting           orthorhombic
_symmetry_space_group_name_H-M   'P n a 21'
_symmetry_Int_Tables_number      33
_space_group_name_Hall           'P 2c -2n'
loop_
_symmetry_equiv_pos_site_id
_symmetry_equiv_pos_as_xyz
1 x,y,z
2 -x,-y,1/2+z
3 1/2+x,1/2-y,z
4 1/2-x,1/2+y,1/2+z
_cell_length_a                   10.2941(3)
_cell_length_b                   18.8657(5)
_cell_length_c                   10.2215(3)
_cell_angle_alpha                90
_cell_angle_beta                 90
_cell_angle_gamma                90
_cell_volume                     1985.07
_exptl_crystal_colour            colorless
_exptl_crystal_description       block
_cell_formula_units_Z            4
loop_
_atom_site_label
_atom_site_type_symbol
_atom_site_fract_x
_atom_site_fract_y
_atom_site_fract_z
C1 C 0.8108(3) 0.10516(17) 0.5925(4)
C2 C 0.8653(3) 0.03878(19) 0.5737(4)
H1 H 0.8873 0.0103 0.6446
C3 C 0.8864(4) 0.0158(2) 0.4459(5)
H2 H 0.9242 -0.0283 0.4312
C4 C 0.8516(4) 0.0579(2) 0.3406(4)
H3 H 0.8642 0.0415 0.2558
C5 C 0.7974(4) 0.1251(2) 0.3609(4)
H4 H 0.7747 0.1534 0.2901
C6 C 0.7779(3) 0.14890(19) 0.4883(4)
C7 C 0.7249(3) 0.21938(18) 0.5356(4)
H5 H 0.6298 0.2169 0.5357
C8 C 0.7730(3) 0.21993(17) 0.6794(4)
H6 H 0.8624 0.2377 0.6793
C9 C 0.7778(3) 0.13985(16) 0.7214(3)
C10 C 0.6514(3) 0.11261(17) 0.7807(4)
C11 C 0.5295(4) 0.1035(2) 0.7246(5)
H7 H 0.5134 0.1158 0.638
C12 C 0.4324(4) 0.0751(3) 0.8045(6)
H8 H 0.3497 0.0687 0.7697
C13 C 0.4545(5) 0.0564(3) 0.9328(6)
H9 H 0.3873 0.0379 0.983
C14 C 0.5769(5) 0.0651(2) 0.9873(5)
H10 H 0.5931 0.0526 1.0737
C15 C 0.6743(4) 0.0930(2) 0.9092(4)
C16 C 0.8129(4) 0.10524(19) 0.9409(4)
C17 C 0.6959(3) 0.26525(18) 0.7731(4)
C18 C 0.6943(6) 0.3089(3) 0.9948(5)
C19 C 0.6018(12) 0.2652(4) 1.0707(10)
C20 C 0.7662(3) 0.28474(18) 0.4587(4)
C21 C 0.6853(4) 0.3441(2) 0.4536(5)
H11 H 0.6059 0.3433 0.497
C22 C 0.7216(5) 0.4040(2) 0.3850(6)
H12 H 0.6658 0.4427 0.3815
C23 C 0.8404(5) 0.4069(2) 0.3214(6)
H13 H 0.8642 0.4471 0.2747
C24 C 0.9230(4) 0.3493(2) 0.3283(5)
H14 H 1.0039 0.3511 0.2881
C25 C 0.8853(4) 0.2887(2) 0.3951(4)
H15 H 0.9409 0.2498 0.3974
N1 N 0.8693(3) 0.12653(16) 0.8265(3)
H16 H 0.9518 0.1316 0.8176
O1 O 0.8701(4) 0.0971(2) 1.0442(3)
O2 O 0.5962(3) 0.29469(19) 0.7460(4)
O3 O 0.7545(3) 0.26836(18) 0.8885(4)
C26? C 0.677(5) 0.267(2) 1.115(3)
loop_
_geom_bond_atom_site_label_1
_geom_bond_atom_site_label_2
_geom_bond_site_symmetry_1
_geom_bond_site_symmetry_2
C1 C2 1_555 1_555
C2 H1 1_555 1_555
C3 C2 1_555 1_555
H2 C3 1_555 1_555
C4 C3 1_555 1_555
H3 C4 1_555 1_555
C5 C4 1_555 1_555
H4 C5 1_555 1_555
C6 C1 1_555 1_555
C7 C6 1_555 1_555
H5 C7 1_555 1_555
C8 C7 1_555 1_555
H6 C8 1_555 1_555
C9 C1 1_555 1_555
C10 C9 1_555 1_555
C11 C10 1_555 1_555
H7 C11 1_555 1_555
C12 C11 1_555 1_555
H8 C12 1_555 1_555
C13 C12 1_555 1_555
H9 C13 1_555 1_555
C14 C13 1_555 1_555
H10 C14 1_555 1_555
C15 C10 1_555 1_555
C16 C15 1_555 1_555
C17 C8 1_555 1_555
C18 C19 1_555 1_555
C20 C7 1_555 1_555
C21 C20 1_555 1_555
H11 C21 1_555 1_555
C22 C21 1_555 1_555
H12 C22 1_555 1_555
C23 C22 1_555 1_555
H13 C23 1_555 1_555
C24 C23 1_555 1_555
H14 C24 1_555 1_555
C25 C20 1_555 1_555
H15 C25 1_555 1_555
N1 C9 1_555 1_555
H16 N1 1_555 1_555
O1 C16 1_555 1_555
O2 C17 1_555 1_555
O3 C17 1_555 1_555
C5 C6 1_555 1_555
C8 C9 1_555 1_555
C14 C15 1_555 1_555
C16 N1 1_555 1_555
C18 O3 1_555 1_555
C24 C25 1_555 1_555

#END
