
#######################################################################
#
#                 Cambridge Crystallographic Data Centre
#                                CCDC 
#
#######################################################################
#
# If this CIF has been generated from an entry in the Cambridge 
# Structural Database, then it will include bibliographic, chemical, 
# crystal, experimental, refinement or atomic coordinate data resulting 
# from the CCDC's data processing and validation procedures.
#
#######################################################################

data_MAPTAB
_chemical_formula_moiety         'C30 H23 N1 O3'
_chemical_name_systematic        
"benzyl 3'-oxo-3-phenyl-2,2',3,3'-tetrahydrospiro[indene-1,1'-isoindole]-2-carboxylate"
_symmetry_cell_setting           monoclinic
_symmetry_space_group_name_H-M   'C 2/c'
_symmetry_Int_Tables_number      15
_space_group_name_Hall           '-C 2yn'
loop_
_symmetry_equiv_pos_site_id
_symmetry_equiv_pos_as_xyz
1 x,y,z
2 -x,y,1/2-z
3 1/2+x,1/2+y,z
4 1/2-x,1/2+y,1/2-z
5 -x,-y,-z
6 x,-y,1/2+z
7 1/2-x,1/2-y,-z
8 1/2+x,1/2-y,1/2+z
_cell_length_a                   32.5385(15)
_cell_length_b                   9.6703(4)
_cell_length_c                   17.3689(7)
_cell_angle_alpha                90
_cell_angle_beta                 120.546(3)
_cell_angle_gamma                90
_cell_volume                     4706.79
_exptl_crystal_colour            colorless
_exptl_crystal_description       block
_cell_formula_units_Z            8
loop_
_atom_site_label
_atom_site_type_symbol
_atom_site_fract_x
_atom_site_fract_y
_atom_site_fract_z
C1 C 0.35440(11) 0.5019(4) 0.6040(2)
C2 C 0.35655(14) 0.3611(4) 0.6143(3)
H1 H 0.3809 0.3202 0.6659
C3 C 0.32145(16) 0.2804(4) 0.5461(3)
H2 H 0.3227 0.1846 0.5515
C4 C 0.28463(15) 0.3421(4) 0.4698(3)
H3 H 0.2612 0.2875 0.4248
C5 C 0.28264(12) 0.4846(4) 0.4606(2)
H4 H 0.2579 0.5262 0.4099
C6 C 0.31818(11) 0.5648(4) 0.5281(2)
C7 C 0.32216(11) 0.7211(4) 0.5322(2)
H5 H 0.2992 0.7577 0.5476
C8 C 0.37312(11) 0.7448(3) 0.6129(2)
H6 H 0.3949 0.7543 0.5899
C9 C 0.38719(10) 0.6093(3) 0.6716(2)
C10 C 0.37928(11) 0.6161(3) 0.7507(2)
C11 C 0.33807(13) 0.6450(4) 0.7528(3)
H7 H 0.3096 0.6655 0.7006
C12 C 0.34048(15) 0.6423(5) 0.8339(3)
H8 H 0.3134 0.6629 0.8368
C13 C 0.38213(16) 0.6099(5) 0.9108(3)
H9 H 0.3826 0.6078 0.9648
C14 C 0.42357(14) 0.5803(4) 0.9099(2)
H10 H 0.4518 0.5579 0.962
C15 C 0.42110(12) 0.5855(4) 0.8285(2)
C16 C 0.45900(12) 0.5600(4) 0.8059(2)
C17 C 0.37743(13) 0.8734(4) 0.6658(2)
C18 C 0.42901(18) 1.0053(5) 0.7918(3)
H11 H 0.4126 0.9855 0.8241
H12 H 0.4164 1.0908 0.7589
C19 C 0.48143(10) 1.0191(4) 0.8557(2)
C20 C 0.50643(14) 0.9122(4) 0.9146(3)
C21 C 0.55506(15) 0.9257(6) 0.9748(4)
C22 C 0.57869(11) 1.0462(8) 0.9760(5)
C23 C 0.55369(17) 1.1532(6) 0.9171(4)
C24 C 0.50506(16) 1.1396(4) 0.8570(3)
C25 C 0.31386(12) 0.7927(4) 0.4475(2)
C26 C 0.28976(15) 0.9174(4) 0.4213(3)
H13 H 0.2772 0.9558 0.4541
C27 C 0.28428(18) 0.9850(6) 0.3464(3)
H14 H 0.2687 1.0698 0.3298
C28 C 0.3017(2) 0.9277(7) 0.2962(3)
H15 H 0.298 0.9738 0.246
C29 C 0.3247(2) 0.8021(7) 0.3205(3)
H16 H 0.3363 0.7626 0.2864
C30 C 0.33064(18) 0.7341(5) 0.3961(3)
H17 H 0.346 0.6489 0.4121
N1 N 0.43745(9) 0.5740(3) 0.71629(17)
H18 H 0.4524 0.5628 0.6878
O1 O 0.50139(9) 0.5338(4) 0.85735(16)
O2 O 0.34485(10) 0.9485(3) 0.65196(19)
O3 O 0.42180(9) 0.8928(3) 0.73060(17)
C31? C 0.5513(3) 0.8804(14) 0.9866(7)
C32? C 0.5733(5) 0.9991(14) 0.9799(9)
C33? C 0.5519(3) 1.1120(18) 0.9237(10)
loop_
_geom_bond_atom_site_label_1
_geom_bond_atom_site_label_2
_geom_bond_site_symmetry_1
_geom_bond_site_symmetry_2
C1 C2 1_555 1_555
C2 H1 1_555 1_555
C3 C2 1_555 1_555
H2 C3 1_555 1_555
C4 C3 1_555 1_555
H3 C4 1_555 1_555
C5 C4 1_555 1_555
H4 C5 1_555 1_555
C6 C1 1_555 1_555
C7 C6 1_555 1_555
H5 C7 1_555 1_555
C8 C7 1_555 1_555
H6 C8 1_555 1_555
C9 C1 1_555 1_555
C10 C9 1_555 1_555
C11 C10 1_555 1_555
H7 C11 1_555 1_555
C12 C11 1_555 1_555
H8 C12 1_555 1_555
C13 C12 1_555 1_555
H9 C13 1_555 1_555
C14 C13 1_555 1_555
H10 C14 1_555 1_555
C15 C10 1_555 1_555
C16 C15 1_555 1_555
C17 C8 1_555 1_555
C18 H11 1_555 1_555
H12 C18 1_555 1_555
C19 C18 1_555 1_555
C20 C19 1_555 1_555
C21 C20 1_555 1_555
C22 C21 1_555 1_555
C23 C22 1_555 1_555
C24 C19 1_555 1_555
C25 C7 1_555 1_555
C26 C25 1_555 1_555
H13 C26 1_555 1_555
C27 C26 1_555 1_555
H14 C27 1_555 1_555
C28 C27 1_555 1_555
H15 C28 1_555 1_555
C29 C28 1_555 1_555
H16 C29 1_555 1_555
C30 C25 1_555 1_555
H17 C30 1_555 1_555
N1 C9 1_555 1_555
H18 N1 1_555 1_555
O1 C16 1_555 1_555
O2 C17 1_555 1_555
O3 C17 1_555 1_555
C5 C6 1_555 1_555
C8 C9 1_555 1_555
C14 C15 1_555 1_555
C16 N1 1_555 1_555
C18 O3 1_555 1_555
C23 C24 1_555 1_555
C29 C30 1_555 1_555

#END
