
#######################################################################
#
#                 Cambridge Crystallographic Data Centre
#                                CCDC 
#
#######################################################################
#
# If this CIF has been generated from an entry in the Cambridge 
# Structural Database, then it will include bibliographic, chemical, 
# crystal, experimental, refinement or atomic coordinate data resulting 
# from the CCDC's data processing and validation procedures.
#
#######################################################################

data_MAPVEH
_chemical_formula_moiety         'C14 H11 F1 O3'
_chemical_name_systematic        
4'-fluoro-4-hydroxy-5-methoxybiphenyl-2-carbaldehyde
_symmetry_cell_setting           orthorhombic
_symmetry_space_group_name_H-M   'P b c a'
_symmetry_Int_Tables_number      61
_space_group_name_Hall           '-P 2ac 2ab'
loop_
_symmetry_equiv_pos_site_id
_symmetry_equiv_pos_as_xyz
1 x,y,z
2 1/2+x,1/2-y,-z
3 -x,1/2+y,1/2-z
4 1/2-x,-y,1/2+z
5 -x,-y,-z
6 1/2-x,1/2+y,z
7 x,1/2-y,1/2+z
8 1/2+x,y,1/2-z
_cell_length_a                   5.5903(2)
_cell_length_b                   11.7704(4)
_cell_length_c                   34.3826(13)
_cell_angle_alpha                90
_cell_angle_beta                 90
_cell_angle_gamma                90
_cell_volume                     2262.38
_exptl_crystal_colour            colorless
_cell_formula_units_Z            8
loop_
_atom_site_label
_atom_site_type_symbol
_atom_site_fract_x
_atom_site_fract_y
_atom_site_fract_z
F1 F 0.23943(16) 0.54470(8) 0.50348(2)
O1 O -0.20898(19) 0.84314(9) 0.28642(3)
O2 O 0.0855(2) 1.01477(9) 0.27072(3)
H1 H -0.047(4) 0.9900(17) 0.2604(6)
O3 O 0.65609(19) 1.03810(9) 0.38472(3)
C1 C 0.2262(3) 0.61650(12) 0.47249(4)
C2 C 0.4068(3) 0.61383(12) 0.44520(4)
H2 H 0.5375 0.5627 0.4476
C3 C 0.3913(3) 0.68858(12) 0.41393(4)
H3 H 0.5141 0.6889 0.3948
C4 C 0.1987(2) 0.76296(12) 0.41013(4)
C5 C 0.1720(2) 0.83462(12) 0.37449(4)
C6 C -0.0098(2) 0.80473(11) 0.34822(4)
H4 H -0.1128 0.7428 0.3540
C7 C -0.0401(3) 0.86473(12) 0.31397(4)
C8 C -0.3597(3) 0.74610(13) 0.29191(4)
H5 H -0.2606 0.6778 0.2943
H6 H -0.4669 0.7381 0.2695
H7 H -0.4547 0.7560 0.3156
C9 C 0.0328(3) 0.68853(13) 0.47005(4)
H8 H -0.0886 0.6879 0.4894
C10 C 0.0203(2) 0.76208(12) 0.43853(4)
H9 H -0.1117 0.8125 0.4363
C11 C 0.3218(2) 0.92656(12) 0.36549(4)
C12 C 0.2900(3) 0.98648(12) 0.33044(4)
H10 H 0.3926 1.0483 0.3244
C13 C 0.1122(3) 0.95625(12) 0.30503(4)
C14 C 0.5104(3) 0.96503(12) 0.39245(4)
H11 H 0.5184 0.9305 0.4174
loop_
_geom_bond_atom_site_label_1
_geom_bond_atom_site_label_2
_geom_bond_site_symmetry_1
_geom_bond_site_symmetry_2
F1 C1 1_555 1_555
O1 C7 1_555 1_555
O2 H1 1_555 1_555
O3 C14 1_555 1_555
C1 C2 1_555 1_555
C2 H2 1_555 1_555
C3 C2 1_555 1_555
H3 C3 1_555 1_555
C4 C3 1_555 1_555
C5 C4 1_555 1_555
C6 C5 1_555 1_555
H4 C6 1_555 1_555
C7 C6 1_555 1_555
C8 O1 1_555 1_555
H5 C8 1_555 1_555
H6 C8 1_555 1_555
H7 C8 1_555 1_555
C9 C1 1_555 1_555
H8 C9 1_555 1_555
C10 C4 1_555 1_555
H9 C10 1_555 1_555
C11 C5 1_555 1_555
C12 C11 1_555 1_555
H10 C12 1_555 1_555
C13 O2 1_555 1_555
C14 C11 1_555 1_555
H11 C14 1_555 1_555
C7 C13 1_555 1_555
C9 C10 1_555 1_555
C12 C13 1_555 1_555

#END
