
#######################################################################
#
#                 Cambridge Crystallographic Data Centre
#                                CCDC 
#
#######################################################################
#
# If this CIF has been generated from an entry in the Cambridge 
# Structural Database, then it will include bibliographic, chemical, 
# crystal, experimental, refinement or atomic coordinate data resulting 
# from the CCDC's data processing and validation procedures.
#
#######################################################################

data_MAPVOR
_chemical_formula_moiety         'C25 H22 O3'
_chemical_name_systematic        
1,2-dimethoxy-4-(2-methoxyphenyl)-7-phenylnaphthalene
_symmetry_cell_setting           monoclinic
_symmetry_space_group_name_H-M   'C 2/c'
_symmetry_Int_Tables_number      15
_space_group_name_Hall           '-C 2yn'
loop_
_symmetry_equiv_pos_site_id
_symmetry_equiv_pos_as_xyz
1 x,y,z
2 -x,y,1/2-z
3 1/2+x,1/2+y,z
4 1/2-x,1/2+y,1/2-z
5 -x,-y,-z
6 x,-y,1/2+z
7 1/2-x,1/2-y,-z
8 1/2+x,1/2-y,1/2+z
_cell_length_a                   21.016(4)
_cell_length_b                   5.9939(11)
_cell_length_c                   30.001(6)
_cell_angle_alpha                90
_cell_angle_beta                 99.403(4)
_cell_angle_gamma                90
_cell_volume                     3728.38
_exptl_crystal_colour            colorless
_cell_formula_units_Z            8
loop_
_atom_site_label
_atom_site_type_symbol
_atom_site_fract_x
_atom_site_fract_y
_atom_site_fract_z
O1 O 0.38305(5) 0.4456(2) 0.04298(4)
O2 O 0.65180(5) 0.7650(2) 0.11329(4)
O3 O 0.58432(5) 1.0887(2) 0.06388(4)
C1 C 0.35099(9) 0.2919(3) 0.01033(6)
H1 H 0.3245 0.1897 0.0250
H2 H 0.3831 0.2064 -0.0028
H3 H 0.3234 0.3743 -0.0136
C2 C 0.34520(8) 0.5973(3) 0.06073(6)
C3 C 0.37802(8) 0.7633(3) 0.08828(5)
C4 C 0.45007(8) 0.7682(3) 0.09758(5)
C5 C 0.48531(7) 0.6085(3) 0.12677(5)
C6 C 0.55402(8) 0.6114(3) 0.13301(5)
C7 C 0.58901(8) 0.4539(3) 0.16274(5)
H4 H 0.6347 0.4516 0.1661
C8 C 0.55843(8) 0.3050(3) 0.18677(5)
C9 C 0.59559(8) 0.1479(3) 0.21968(5)
C10 C 0.65591(8) 0.2068(3) 0.24394(6)
H5 H 0.6733 0.3503 0.2399
C11 C 0.69053(9) 0.0578(3) 0.27384(6)
H6 H 0.7318 0.0989 0.2896
C12 C 0.66555(9) -0.1505(3) 0.28090(6)
H7 H 0.6894 -0.2520 0.3015
C13 C 0.34253(8) 0.9277(3) 0.10561(6)
H8 H 0.3644 1.0428 0.1238
C14 C 0.27546(8) 0.9267(3) 0.09677(6)
H9 H 0.2516 1.0404 0.1087
C15 C 0.24416(8) 0.7598(3) 0.07060(6)
H10 H 0.1983 0.7578 0.0648
C16 C 0.27822(8) 0.5943(3) 0.05253(6)
H11 H 0.2559 0.4793 0.0346
C17 C 0.45495(8) 0.4492(3) 0.15112(5)
H12 H 0.4092 0.4436 0.1470
C18 C 0.48987(8) 0.3040(3) 0.18034(5)
H13 H 0.4682 0.2008 0.1966
C19 C 0.58533(7) 0.7736(3) 0.11009(5)
C20 C 0.68500(8) 0.9180(3) 0.14595(6)
H14 H 0.6682 1.0690 0.1394
H15 H 0.7312 0.9154 0.1445
H16 H 0.6782 0.8740 0.1763
C21 C 0.55040(8) 0.9345(3) 0.08401(5)
C22 C 0.54874(8) 1.2634(3) 0.03861(6)
H17 H 0.5204 1.1994 0.0126
H18 H 0.5788 1.3684 0.0280
H19 H 0.5227 1.3421 0.0579
C23 C 0.48237(7) 0.9299(3) 0.07820(5)
H20 H 0.4585 1.0420 0.0604
C24 C 0.57098(8) -0.0621(3) 0.22730(6)
H21 H 0.5299 -0.1050 0.2114
C25 C 0.60554(9) -0.2096(3) 0.25775(6)
H22 H 0.5879 -0.3516 0.2627
loop_
_geom_bond_atom_site_label_1
_geom_bond_atom_site_label_2
_geom_bond_site_symmetry_1
_geom_bond_site_symmetry_2
O1 C1 1_555 1_555
O2 C19 1_555 1_555
O3 C21 1_555 1_555
C1 H1 1_555 1_555
H2 C1 1_555 1_555
H3 C1 1_555 1_555
C2 O1 1_555 1_555
C3 C2 1_555 1_555
C4 C3 1_555 1_555
C5 C4 1_555 1_555
C6 C5 1_555 1_555
C7 C6 1_555 1_555
H4 C7 1_555 1_555
C8 C7 1_555 1_555
C9 C8 1_555 1_555
C10 C9 1_555 1_555
H5 C10 1_555 1_555
C11 C10 1_555 1_555
H6 C11 1_555 1_555
C12 C11 1_555 1_555
H7 C12 1_555 1_555
C13 C3 1_555 1_555
H8 C13 1_555 1_555
C14 C13 1_555 1_555
H9 C14 1_555 1_555
C15 C14 1_555 1_555
H10 C15 1_555 1_555
C16 C2 1_555 1_555
H11 C16 1_555 1_555
C17 C5 1_555 1_555
H12 C17 1_555 1_555
C18 C8 1_555 1_555
H13 C18 1_555 1_555
C19 C6 1_555 1_555
C20 O2 1_555 1_555
H14 C20 1_555 1_555
H15 C20 1_555 1_555
H16 C20 1_555 1_555
C21 C19 1_555 1_555
C22 O3 1_555 1_555
H17 C22 1_555 1_555
H18 C22 1_555 1_555
H19 C22 1_555 1_555
C23 C4 1_555 1_555
H20 C23 1_555 1_555
C24 C9 1_555 1_555
H21 C24 1_555 1_555
C25 C12 1_555 1_555
H22 C25 1_555 1_555
C15 C16 1_555 1_555
C17 C18 1_555 1_555
C21 C23 1_555 1_555
C24 C25 1_555 1_555

#END
