
#######################################################################
#
#                 Cambridge Crystallographic Data Centre
#                                CCDC 
#
#######################################################################
#
# If this CIF has been generated from an entry in the Cambridge 
# Structural Database, then it will include bibliographic, chemical, 
# crystal, experimental, refinement or atomic coordinate data resulting 
# from the CCDC's data processing and validation procedures.
#
#######################################################################

data_MAPVUX
_chemical_formula_moiety         'C28 H26 O2'
_chemical_name_systematic        
1-(cyclopentoxy)-2-methoxy-4,7-diphenylnaphthalene
_symmetry_cell_setting           monoclinic
_symmetry_space_group_name_H-M   'P 21/c'
_symmetry_Int_Tables_number      14
_space_group_name_Hall           '-P 2ybc'
loop_
_symmetry_equiv_pos_site_id
_symmetry_equiv_pos_as_xyz
1 x,y,z
2 -x,1/2+y,1/2-z
3 -x,-y,-z
4 x,1/2-y,1/2+z
_cell_length_a                   25.5837(7)
_cell_length_b                   17.5631(5)
_cell_length_c                   18.0778(5)
_cell_angle_alpha                90
_cell_angle_beta                 95.1770(10)
_cell_angle_gamma                90
_cell_volume                     8089.75
_exptl_crystal_colour            colorless
_cell_formula_units_Z            16
loop_
_atom_site_label
_atom_site_type_symbol
_atom_site_fract_x
_atom_site_fract_y
_atom_site_fract_z
C1 C 0.19133(6) 0.67120(8) 0.84087(8)
C2 C 0.23378(6) 0.64654(9) 0.88682(8)
C3 C 0.27186(6) 0.69933(9) 0.91454(8)
H1 H 0.2997 0.6824 0.9489
C4 C 0.27033(6) 0.77446(8) 0.89384(8)
C5 C 0.22798(6) 0.80112(9) 0.84422(8)
C6 C 0.22209(6) 0.87785(9) 0.82103(8)
H2 H 0.2483 0.9138 0.8376
C7 C 0.17978(6) 0.90156(9) 0.77561(8)
H3 H 0.1769 0.9536 0.7616
C8 C 0.13987(6) 0.84949(9) 0.74883(8)
C9 C 0.14478(6) 0.77492(9) 0.77106(8)
H4 H 0.1183 0.7396 0.7536
C10 C 0.18777(6) 0.74867(8) 0.81893(8)
C11 C 0.12496(7) 0.57500(10) 0.85875(9)
H5 H 0.1471 0.5310 0.8778
C12 C 0.10415(8) 0.62011(14) 0.92205(10)
H6 H 0.1099 0.5913 0.9692
H7 H 0.1227 0.6695 0.9283
C13 C 0.04624(10) 0.63305(14) 0.90253(12)
H8 H 0.0254 0.6020 0.9349
H9 H 0.0373 0.6874 0.9088
C14 C 0.03509(7) 0.60953(10) 0.82275(10)
H10 H 0.0388 0.6532 0.7890
H11 H -0.0008 0.5885 0.8135
C15 C 0.07624(6) 0.54868(9) 0.81185(9)
H12 H 0.0646 0.4984 0.8288
H13 H 0.0830 0.5449 0.7589
C16 C 0.28705(6) 0.54233(9) 0.93200(9)
H14 H 0.3132 0.5562 0.8979
H15 H 0.2855 0.4868 0.9363
H16 H 0.2970 0.5645 0.9810
C17 C 0.31412(6) 0.82497(8) 0.92362(8)
C18 C 0.34672(6) 0.86001(9) 0.87606(8)
H17 H 0.3396 0.8547 0.8238
C19 C 0.38953(6) 0.90259(9) 0.90458(9)
H18 H 0.4119 0.9256 0.8718
C20 C 0.39982(6) 0.91168(9) 0.98065(9)
H19 H 0.4290 0.9412 1.0000
C21 C 0.36739(6) 0.87763(9) 1.02841(9)
H20 H 0.3742 0.8841 1.0806
C22 C 0.32501(6) 0.83406(9) 1.00010(8)
H21 H 0.3032 0.8102 1.0331
C23 C 0.09510(6) 0.87490(9) 0.69674(8)
C24 C 0.09914(6) 0.93960(9) 0.65288(8)
H22 H 0.1306 0.9686 0.6579
C25 C 0.05830(6) 0.96251(9) 0.60216(9)
H23 H 0.0620 1.0067 0.5727
C26 C 0.01220(6) 0.92099(9) 0.59446(9)
H24 H -0.0157 0.9360 0.5592
C27 C 0.00698(7) 0.85753(9) 0.63842(9)
H25 H -0.0249 0.8295 0.6341
C28 C 0.04797(6) 0.83462(9) 0.68877(9)
H26 H 0.0439 0.7907 0.7184
O1 O 0.15278(4) 0.62350(6) 0.81016(5)
O2 O 0.23672(4) 0.57074(6) 0.90389(6)
C29 C 0.26177(6) 0.39582(8) 0.60751(8)
C30 C 0.30545(6) 0.41843(8) 0.65242(8)
C31 C 0.30989(6) 0.49447(8) 0.67789(8)
C32 C 0.35383(6) 0.51766(9) 0.72561(8)
H27 H 0.3805 0.4815 0.7399
C33 C 0.35917(6) 0.59124(9) 0.75209(8)
C34 C 0.31918(6) 0.64452(9) 0.72963(8)
H28 H 0.3223 0.6956 0.7469
C35 C 0.27624(6) 0.62377(9) 0.68370(8)
H29 H 0.2501 0.6608 0.6697
C36 C 0.26973(6) 0.54860(9) 0.65645(8)
C37 C 0.22657(6) 0.52473(9) 0.60675(8)
C38 C 0.22362(6) 0.45036(9) 0.58336(8)
H30 H 0.1949 0.4352 0.5497
C39 C 0.20813(6) 0.29386(9) 0.55852(9)
H31 H 0.1823 0.3054 0.5938
H32 H 0.2097 0.2387 0.5511
H33 H 0.1978 0.3188 0.5110
C40 C 0.37476(6) 0.33927(9) 0.61649(9)
H34 H 0.3519 0.3083 0.5802
C41 C 0.41936(6) 0.29106(9) 0.65384(10)
H35 H 0.4197 0.2939 0.7086
H36 H 0.4154 0.2371 0.6384
C42 C 0.46983(7) 0.32456(10) 0.62827(10)
H37 H 0.4995 0.3180 0.6668
H38 H 0.4788 0.3001 0.5817
C43 C 0.45717(7) 0.40738(10) 0.61605(10)
H39 H 0.4819 0.4319 0.5843
H40 H 0.4577 0.4353 0.6637
C44 C 0.40191(7) 0.40352(10) 0.57703(9)
H41 H 0.4030 0.3918 0.5236
H42 H 0.3833 0.4524 0.5819
C45 C 0.18417(6) 0.57810(8) 0.57829(8)
C46 C 0.17482(6) 0.59060(9) 0.50169(8)
H43 H 0.1961 0.5659 0.4685
C47 C 0.13476(6) 0.63865(9) 0.47402(9)
H44 H 0.1291 0.6475 0.4221
C48 C 0.10300(6) 0.67386(9) 0.52178(9)
H45 H 0.0756 0.7068 0.5027
C49 C 0.11148(6) 0.66075(9) 0.59792(9)
H46 H 0.0894 0.6842 0.6308
C50 C 0.15205(6) 0.61356(9) 0.62581(8)
H47 H 0.1579 0.6054 0.6779
C51 C 0.40447(6) 0.61245(9) 0.80506(8)
C52 C 0.39942(6) 0.66974(9) 0.85736(8)
H48 H 0.3673 0.6970 0.8570
C53 C 0.44025(6) 0.68759(9) 0.90963(9)
H49 H 0.4360 0.7264 0.9451
C54 C 0.48748(7) 0.64893(10) 0.91040(9)
H50 H 0.5154 0.6605 0.9469
C55 C 0.49374(6) 0.59350(10) 0.85779(9)
H51 H 0.5263 0.5677 0.8573
C56 C 0.45258(6) 0.57549(9) 0.80565(9)
H52 H 0.4573 0.5373 0.7697
O3 O 0.25853(4) 0.32101(6) 0.58725(6)
O4 O 0.34490(4) 0.36833(6) 0.67566(6)
C57 C 0.26283(6) -0.10106(9) 0.62043(8)
C58 C 0.30605(6) -0.07619(8) 0.66473(8)
C59 C 0.31097(6) 0.00176(8) 0.68449(8)
C60 C 0.35447(6) 0.02756(9) 0.73188(8)
H53 H 0.3802 -0.0082 0.7506
C61 C 0.36065(6) 0.10309(9) 0.75171(8)
C62 C 0.32224(6) 0.15579(9) 0.72221(8)
H54 H 0.3265 0.2083 0.7337
C63 C 0.27932(6) 0.13249(9) 0.67762(8)
H55 H 0.2540 0.1691 0.6595
C64 C 0.27162(6) 0.05493(8) 0.65759(8)
C65 C 0.22821(6) 0.02818(9) 0.60998(8)
C66 C 0.22494(6) -0.04793(9) 0.59228(8)
H56 H 0.1961 -0.0653 0.5599
C67 C 0.20940(6) -0.20506(9) 0.57533(9)
H57 H 0.1825 -0.1907 0.6081
H58 H 0.2108 -0.2607 0.5712
H59 H 0.2007 -0.1829 0.5260
C68 C 0.37335(6) -0.16912(9) 0.64374(9)
H60 H 0.3510 -0.2105 0.6196
C69 C 0.39656(8) -0.11820(13) 0.58564(10)
H61 H 0.3879 -0.1390 0.5351
H62 H 0.3821 -0.0660 0.5874
C70 C 0.45558(8) -0.11693(12) 0.60436(11)
H63 H 0.4732 -0.1525 0.5721
H64 H 0.4697 -0.0651 0.5982
C71 C 0.46339(7) -0.14170(11) 0.68428(10)
H65 H 0.4589 -0.0984 0.7182
H66 H 0.4987 -0.1641 0.6960
C72 C 0.42052(7) -0.20139(10) 0.69020(10)
H67 H 0.4311 -0.2510 0.6703
H68 H 0.4128 -0.2083 0.7425
C73 C 0.40532(6) 0.12772(9) 0.80449(8)
C74 C 0.45091(6) 0.08443(9) 0.81708(9)
H69 H 0.4543 0.0387 0.7898
C75 C 0.49133(7) 0.10685(9) 0.86858(9)
H70 H 0.5221 0.0765 0.8762
C76 C 0.48721(6) 0.17313(9) 0.90894(9)
H71 H 0.5148 0.1881 0.9447
C77 C 0.44259(6) 0.21746(9) 0.89686(9)
H72 H 0.4395 0.2632 0.9242
C78 C 0.40244(6) 0.19504(9) 0.84480(8)
H73 H 0.3722 0.2263 0.8364
C79 C 0.18544(6) 0.07915(8) 0.57856(8)
C80 C 0.15396(6) 0.11885(9) 0.62423(8)
H74 H 0.1613 0.1164 0.6766
C81 C 0.11203(6) 0.16183(9) 0.59405(9)
H75 H 0.0905 0.1881 0.6258
C82 C 0.10119(6) 0.16681(9) 0.51738(9)
H76 H 0.0724 0.1965 0.4968
C83 C 0.13249(6) 0.12825(9) 0.47131(9)
H77 H 0.1255 0.1319 0.4189
C84 C 0.17407(6) 0.08423(9) 0.50150(8)
H78 H 0.1951 0.0572 0.4696
O5 O 0.25928(4) -0.17720(6) 0.60549(6)
O6 O 0.34458(4) -0.12465(6) 0.69466(6)
C85 C 0.24155(6) 0.35223(9) 0.38095(8)
C86 C 0.19720(6) 0.32961(8) 0.33795(8)
C87 C 0.19160(6) 0.25301(9) 0.31455(8)
C88 C 0.14729(6) 0.22994(9) 0.26732(8)
H79 H 0.1213 0.2667 0.2518
C89 C 0.14054(6) 0.15598(9) 0.24309(8)
C90 C 0.17929(6) 0.10144(9) 0.26805(8)
H80 H 0.1750 0.0498 0.2530
C91 C 0.22264(6) 0.12220(9) 0.31334(8)
H81 H 0.2479 0.0846 0.3291
C92 C 0.23085(6) 0.19832(9) 0.33742(8)
C93 C 0.27486(6) 0.22242(9) 0.38550(8)
C94 C 0.27938(6) 0.29777(9) 0.40571(8)
H82 H 0.3090 0.3135 0.4374
C95 C 0.29567(6) 0.45418(9) 0.43017(9)
H83 H 0.3049 0.4287 0.4778
H84 H 0.2941 0.5093 0.4381
H85 H 0.3223 0.4427 0.3960
C96 C 0.12832(6) 0.40827(9) 0.37477(9)
H86 H 0.1516 0.4370 0.4125
C97 C 0.08483(7) 0.45998(9) 0.33874(10)
H87 H 0.0847 0.4591 0.2840
H88 H 0.0899 0.5131 0.3562
C98 C 0.03334(7) 0.42741(10) 0.36289(10)
H89 H 0.0246 0.4507 0.4101
H90 H 0.0040 0.4362 0.3243
C99 C 0.04436(7) 0.34387(10) 0.37263(10)
H91 H 0.0430 0.3174 0.3241
H92 H 0.0192 0.3195 0.4039
C100 C 0.09986(6) 0.34394(9) 0.41139(9)
H93 H 0.1174 0.2945 0.4043
H94 H 0.0992 0.3534 0.4653
C101 C 0.09554(6) 0.13476(9) 0.18976(8)
C102 C 0.04849(6) 0.17498(9) 0.18528(9)
H95 H 0.0441 0.2152 0.2193
C103 C 0.00790(7) 0.15716(10) 0.13176(9)
H96 H -0.0240 0.1851 0.1296
C104 C 0.01368(7) 0.09921(10) 0.08182(9)
H97 H -0.0137 0.0880 0.0444
C105 C 0.05964(6) 0.05759(9) 0.08654(9)
H98 H 0.0637 0.0170 0.0528
C106 C 0.09987(6) 0.07483(9) 0.14030(8)
H99 H 0.1311 0.0452 0.1435
C107 C 0.31625(6) 0.16838(8) 0.41628(8)
C108 C 0.34733(6) 0.12808(8) 0.37028(8)
H100 H 0.3411 0.1327 0.3179
C109 C 0.38740(6) 0.08121(9) 0.40066(9)
H101 H 0.4088 0.0547 0.3690
C110 C 0.39623(6) 0.07296(9) 0.47716(9)
H102 H 0.4234 0.0404 0.4978
C111 C 0.36527(6) 0.11235(9) 0.52327(9)
H103 H 0.3711 0.1066 0.5756
C112 C 0.32581(6) 0.16013(9) 0.49316(8)
H104 H 0.3051 0.1875 0.5251
O7 O 0.24566(4) 0.42765(6) 0.39902(6)
O8 O 0.15799(4) 0.38042(6) 0.31502(6)
loop_
_geom_bond_atom_site_label_1
_geom_bond_atom_site_label_2
_geom_bond_site_symmetry_1
_geom_bond_site_symmetry_2
C1 C2 1_555 1_555
C2 C3 1_555 1_555
C3 H1 1_555 1_555
C4 C3 1_555 1_555
C5 C4 1_555 1_555
C6 C5 1_555 1_555
H2 C6 1_555 1_555
C7 C6 1_555 1_555
H3 C7 1_555 1_555
C8 C7 1_555 1_555
C9 C8 1_555 1_555
H4 C9 1_555 1_555
C10 C1 1_555 1_555
C11 H5 1_555 1_555
C12 C11 1_555 1_555
H6 C12 1_555 1_555
H7 C12 1_555 1_555
C13 C12 1_555 1_555
H8 C13 1_555 1_555
H9 C13 1_555 1_555
C14 C13 1_555 1_555
H10 C14 1_555 1_555
H11 C14 1_555 1_555
C15 C11 1_555 1_555
H12 C15 1_555 1_555
H13 C15 1_555 1_555
C16 H14 1_555 1_555
H15 C16 1_555 1_555
H16 C16 1_555 1_555
C17 C4 1_555 1_555
C18 C17 1_555 1_555
H17 C18 1_555 1_555
C19 C18 1_555 1_555
H18 C19 1_555 1_555
C20 C19 1_555 1_555
H19 C20 1_555 1_555
C21 C20 1_555 1_555
H20 C21 1_555 1_555
C22 C17 1_555 1_555
H21 C22 1_555 1_555
C23 C8 1_555 1_555
C24 C23 1_555 1_555
H22 C24 1_555 1_555
C25 C24 1_555 1_555
H23 C25 1_555 1_555
C26 C25 1_555 1_555
H24 C26 1_555 1_555
C27 C26 1_555 1_555
H25 C27 1_555 1_555
C28 C23 1_555 1_555
H26 C28 1_555 1_555
O1 C1 1_555 1_555
O2 C2 1_555 1_555
C29 C30 1_555 1_555
C30 C31 1_555 1_555
C31 C32 1_555 1_555
C32 H27 1_555 1_555
C33 C32 1_555 1_555
C34 C33 1_555 1_555
H28 C34 1_555 1_555
C35 C34 1_555 1_555
H29 C35 1_555 1_555
C36 C31 1_555 1_555
C37 C36 1_555 1_555
C38 C29 1_555 1_555
H30 C38 1_555 1_555
C39 H31 1_555 1_555
H32 C39 1_555 1_555
H33 C39 1_555 1_555
C40 H34 1_555 1_555
C41 C40 1_555 1_555
H35 C41 1_555 1_555
H36 C41 1_555 1_555
C42 C41 1_555 1_555
H37 C42 1_555 1_555
H38 C42 1_555 1_555
C43 C42 1_555 1_555
H39 C43 1_555 1_555
H40 C43 1_555 1_555
C44 C40 1_555 1_555
H41 C44 1_555 1_555
H42 C44 1_555 1_555
C45 C37 1_555 1_555
C46 C45 1_555 1_555
H43 C46 1_555 1_555
C47 C46 1_555 1_555
H44 C47 1_555 1_555
C48 C47 1_555 1_555
H45 C48 1_555 1_555
C49 C48 1_555 1_555
H46 C49 1_555 1_555
C50 C45 1_555 1_555
H47 C50 1_555 1_555
C51 C33 1_555 1_555
C52 C51 1_555 1_555
H48 C52 1_555 1_555
C53 C52 1_555 1_555
H49 C53 1_555 1_555
C54 C53 1_555 1_555
H50 C54 1_555 1_555
C55 C54 1_555 1_555
H51 C55 1_555 1_555
C56 C51 1_555 1_555
H52 C56 1_555 1_555
O3 C29 1_555 1_555
O4 C30 1_555 1_555
C57 C58 1_555 1_555
C58 C59 1_555 1_555
C59 C60 1_555 1_555
C60 H53 1_555 1_555
C61 C60 1_555 1_555
C62 C61 1_555 1_555
H54 C62 1_555 1_555
C63 C62 1_555 1_555
H55 C63 1_555 1_555
C64 C59 1_555 1_555
C65 C64 1_555 1_555
C66 C57 1_555 1_555
H56 C66 1_555 1_555
C67 H57 1_555 1_555
H58 C67 1_555 1_555
H59 C67 1_555 1_555
C68 H60 1_555 1_555
C69 C68 1_555 1_555
H61 C69 1_555 1_555
H62 C69 1_555 1_555
C70 C69 1_555 1_555
H63 C70 1_555 1_555
H64 C70 1_555 1_555
C71 C70 1_555 1_555
H65 C71 1_555 1_555
H66 C71 1_555 1_555
C72 C68 1_555 1_555
H67 C72 1_555 1_555
H68 C72 1_555 1_555
C73 C61 1_555 1_555
C74 C73 1_555 1_555
H69 C74 1_555 1_555
C75 C74 1_555 1_555
H70 C75 1_555 1_555
C76 C75 1_555 1_555
H71 C76 1_555 1_555
C77 C76 1_555 1_555
H72 C77 1_555 1_555
C78 C73 1_555 1_555
H73 C78 1_555 1_555
C79 C65 1_555 1_555
C80 C79 1_555 1_555
H74 C80 1_555 1_555
C81 C80 1_555 1_555
H75 C81 1_555 1_555
C82 C81 1_555 1_555
H76 C82 1_555 1_555
C83 C82 1_555 1_555
H77 C83 1_555 1_555
C84 C79 1_555 1_555
H78 C84 1_555 1_555
O5 C57 1_555 1_555
O6 C58 1_555 1_555
C85 C86 1_555 1_555
C86 C87 1_555 1_555
C87 C88 1_555 1_555
C88 H79 1_555 1_555
C89 C88 1_555 1_555
C90 C89 1_555 1_555
H80 C90 1_555 1_555
C91 C90 1_555 1_555
H81 C91 1_555 1_555
C92 C87 1_555 1_555
C93 C92 1_555 1_555
C94 C85 1_555 1_555
H82 C94 1_555 1_555
C95 H83 1_555 1_555
H84 C95 1_555 1_555
H85 C95 1_555 1_555
C96 H86 1_555 1_555
C97 C96 1_555 1_555
H87 C97 1_555 1_555
H88 C97 1_555 1_555
C98 C97 1_555 1_555
H89 C98 1_555 1_555
H90 C98 1_555 1_555
C99 C98 1_555 1_555
H91 C99 1_555 1_555
H92 C99 1_555 1_555
C100 C96 1_555 1_555
H93 C100 1_555 1_555
H94 C100 1_555 1_555
C101 C89 1_555 1_555
C102 C101 1_555 1_555
H95 C102 1_555 1_555
C103 C102 1_555 1_555
H96 C103 1_555 1_555
C104 C103 1_555 1_555
H97 C104 1_555 1_555
C105 C104 1_555 1_555
H98 C105 1_555 1_555
C106 C101 1_555 1_555
H99 C106 1_555 1_555
C107 C93 1_555 1_555
C108 C107 1_555 1_555
H100 C108 1_555 1_555
C109 C108 1_555 1_555
H101 C109 1_555 1_555
C110 C109 1_555 1_555
H102 C110 1_555 1_555
C111 C110 1_555 1_555
H103 C111 1_555 1_555
C112 C107 1_555 1_555
H104 C112 1_555 1_555
O7 C85 1_555 1_555
O8 C86 1_555 1_555
C5 C10 1_555 1_555
C9 C10 1_555 1_555
C11 O1 1_555 1_555
C14 C15 1_555 1_555
C16 O2 1_555 1_555
C21 C22 1_555 1_555
C27 C28 1_555 1_555
C35 C36 1_555 1_555
C37 C38 1_555 1_555
C39 O3 1_555 1_555
C40 O4 1_555 1_555
C43 C44 1_555 1_555
C49 C50 1_555 1_555
C55 C56 1_555 1_555
C63 C64 1_555 1_555
C65 C66 1_555 1_555
C67 O5 1_555 1_555
C68 O6 1_555 1_555
C71 C72 1_555 1_555
C77 C78 1_555 1_555
C83 C84 1_555 1_555
C91 C92 1_555 1_555
C93 C94 1_555 1_555
C95 O7 1_555 1_555
C96 O8 1_555 1_555
C99 C100 1_555 1_555
C105 C106 1_555 1_555
C111 C112 1_555 1_555

#END
