
#######################################################################
#
#                 Cambridge Crystallographic Data Centre
#                                CCDC 
#
#######################################################################
#
# If this CIF has been generated from an entry in the Cambridge 
# Structural Database, then it will include bibliographic, chemical, 
# crystal, experimental, refinement or atomic coordinate data resulting 
# from the CCDC's data processing and validation procedures.
#
#######################################################################

data_MAPWAE
_chemical_formula_moiety         'C17 H20 O4'
_chemical_name_systematic        
4-(3,4-dimethoxyphenyl)-2-(2-furyl)tetrahydro-2H-pyran
_symmetry_cell_setting           monoclinic
_symmetry_space_group_name_H-M   'P 21/c'
_symmetry_Int_Tables_number      14
_space_group_name_Hall           '-P 2ybc'
loop_
_symmetry_equiv_pos_site_id
_symmetry_equiv_pos_as_xyz
1 x,y,z
2 -x,1/2+y,1/2-z
3 -x,-y,-z
4 x,1/2-y,1/2+z
_cell_length_a                   8.6678(17)
_cell_length_b                   19.551(3)
_cell_length_c                   9.4202(17)
_cell_angle_alpha                90
_cell_angle_beta                 111.010(3)
_cell_angle_gamma                90
_cell_volume                     1490.26
_exptl_crystal_colour            colorless
_exptl_crystal_description       Block
_cell_formula_units_Z            4
loop_
_atom_site_label
_atom_site_type_symbol
_atom_site_fract_x
_atom_site_fract_y
_atom_site_fract_z
O1 O 0.22824(11) 0.48345(4) 0.47065(10)
O2 O 0.38817(12) 0.35171(5) 0.50967(11)
O3 O 0.05328(11) 0.67433(5) 1.19449(10)
O4 O -0.14464(11) 0.59894(5) 0.98234(10)
C1 C 0.33338(16) 0.45803(6) 0.61637(14)
H1 H 0.4498 0.4721 0.6345
C2 C 0.28285(16) 0.48618(6) 0.74445(14)
H2 H 0.3632 0.4708 0.8435
H3 H 0.1729 0.4678 0.7342
C3 C 0.27604(15) 0.56478(6) 0.74129(14)
H4 H 0.3906 0.5818 0.7608
C4 C 0.16723(17) 0.58828(6) 0.58105(14)
H5 H 0.0513 0.5742 0.5598
H6 H 0.1704 0.6388 0.5747
C5 C 0.22916(18) 0.55671(7) 0.46406(15)
H7 H 0.1581 0.5719 0.3611
H8 H 0.3430 0.5728 0.4827
C6 C 0.32232(15) 0.38204(6) 0.60716(14)
C7 C 0.25542(17) 0.33416(7) 0.67115(16)
H9 H 0.2029 0.3417 0.7426
C8 C 0.27974(19) 0.26951(7) 0.60934(17)
H10 H 0.2463 0.2258 0.6320
C9 C 0.35878(19) 0.28301(7) 0.51356(17)
H11 H 0.3902 0.2495 0.4561
C10 C 0.22149(15) 0.59328(6) 0.86549(13)
C11 C 0.33035(16) 0.63017(6) 0.98578(14)
H12 H 0.4411 0.6366 0.9916
C12 C 0.27900(16) 0.65806(6) 1.09886(14)
H13 H 0.3547 0.6835 1.1799
C13 C 0.11825(16) 0.64852(6) 1.09261(13)
C14 C 0.00853(15) 0.60854(6) 0.97444(13)
C15 C 0.05943(15) 0.58255(6) 0.86120(13)
H14 H -0.0162 0.5572 0.7798
C16 C 0.15063(19) 0.72458(7) 1.29871(15)
H15 H 0.1744 0.7626 1.2419
H16 H 0.2546 0.7039 1.3646
H17 H 0.0895 0.7417 1.3610
C17 C -0.25394(16) 0.55408(7) 0.87100(14)
H18 H -0.2820 0.5744 0.7697
H19 H -0.3550 0.5473 0.8932
H20 H -0.1995 0.5099 0.8739
loop_
_geom_bond_atom_site_label_1
_geom_bond_atom_site_label_2
_geom_bond_site_symmetry_1
_geom_bond_site_symmetry_2
O1 C1 1_555 1_555
O2 C6 1_555 1_555
O3 C13 1_555 1_555
O4 C14 1_555 1_555
C1 H1 1_555 1_555
C2 C1 1_555 1_555
H2 C2 1_555 1_555
H3 C2 1_555 1_555
C3 C2 1_555 1_555
H4 C3 1_555 1_555
C4 C3 1_555 1_555
H5 C4 1_555 1_555
H6 C4 1_555 1_555
C5 O1 1_555 1_555
H7 C5 1_555 1_555
H8 C5 1_555 1_555
C6 C1 1_555 1_555
C7 C6 1_555 1_555
H9 C7 1_555 1_555
C8 C7 1_555 1_555
H10 C8 1_555 1_555
C9 O2 1_555 1_555
H11 C9 1_555 1_555
C10 C3 1_555 1_555
C11 C10 1_555 1_555
H12 C11 1_555 1_555
C12 C11 1_555 1_555
H13 C12 1_555 1_555
C13 C12 1_555 1_555
C14 C13 1_555 1_555
C15 C10 1_555 1_555
H14 C15 1_555 1_555
C16 O3 1_555 1_555
H15 C16 1_555 1_555
H16 C16 1_555 1_555
H17 C16 1_555 1_555
C17 O4 1_555 1_555
H18 C17 1_555 1_555
H19 C17 1_555 1_555
H20 C17 1_555 1_555
C4 C5 1_555 1_555
C8 C9 1_555 1_555
C14 C15 1_555 1_555

#END
