
#######################################################################
#
#                 Cambridge Crystallographic Data Centre
#                                CCDC 
#
#######################################################################
#
# If this CIF has been generated from an entry in the Cambridge 
# Structural Database, then it will include bibliographic, chemical, 
# crystal, experimental, refinement or atomic coordinate data resulting 
# from the CCDC's data processing and validation procedures.
#
#######################################################################

data_MAPYAG
_chemical_formula_moiety         'C16 H12 Cl1 N1 O1'
_chemical_name_systematic        
1'-(4-chlorophenyl)spiro[cyclopropane-1,3'-indol]-2'(1'H)-one
_symmetry_cell_setting           monoclinic
_symmetry_space_group_name_H-M   'P 21/c'
_symmetry_Int_Tables_number      14
_space_group_name_Hall           '-P 2ybc'
loop_
_symmetry_equiv_pos_site_id
_symmetry_equiv_pos_as_xyz
1 x,y,z
2 -x,1/2+y,1/2-z
3 -x,-y,-z
4 x,1/2-y,1/2+z
_cell_length_a                   9.0611(6)
_cell_length_b                   7.1551(4)
_cell_length_c                   20.5051(18)
_cell_angle_alpha                90
_cell_angle_beta                 93.684(6)
_cell_angle_gamma                90
_cell_volume                     1326.66
_exptl_crystal_colour            colorless
_exptl_crystal_description       prism
_cell_formula_units_Z            4
loop_
_atom_site_label
_atom_site_type_symbol
_atom_site_fract_x
_atom_site_fract_y
_atom_site_fract_z
C1 C 0.9889(2) 0.3414(3) 0.71245(11)
H1 H 0.9665 0.4352 0.7416
C2 C 1.1347(3) 0.3091(3) 0.69805(13)
H2 H 1.2106 0.3799 0.7183
C3 C 1.1668(2) 0.1718(3) 0.65364(12)
H3 H 1.2646 0.1525 0.6440
C4 C 1.0563(2) 0.0619(3) 0.62303(11)
H4 H 1.0781 -0.0292 0.5928
C5 C 0.9131(2) 0.0933(3) 0.63932(9)
C6 C 0.8786(2) 0.2331(3) 0.68304(9)
C7 C 0.7168(2) 0.2345(3) 0.68607(10)
C8 C 0.6592(2) 0.0836(3) 0.64163(11)
C9 C 0.6249(3) 0.4114(3) 0.69170(13)
H5 H 0.6773 0.5290 0.6975
H6 H 0.5320 0.4191 0.6655
C10 C 0.6343(3) 0.2773(4) 0.74673(12)
H7 H 0.5472 0.2034 0.7541
H8 H 0.6925 0.3133 0.7861
C11 C 0.7730(2) -0.1586(3) 0.57454(10)
C12 C 0.6712(2) -0.1644(3) 0.52133(11)
H9 H 0.6128 -0.0604 0.5109
C13 C 0.6560(3) -0.3234(3) 0.48373(12)
H10 H 0.5853 -0.3286 0.4488
C14 C 0.7456(3) -0.4739(3) 0.49813(11)
C15 C 0.8506(3) -0.4688(3) 0.54961(12)
H11 H 0.9126 -0.5706 0.5582
C16 C 0.8632(2) -0.3106(3) 0.58838(11)
H12 H 0.9325 -0.3069 0.6238
Cl1 Cl 0.72477(9) -0.67334(10) 0.44990(4)
N1 N 0.78152(17) 0.0027(2) 0.61516(8)
O1 O 0.53138(16) 0.0359(3) 0.63031(9)
loop_
_geom_bond_atom_site_label_1
_geom_bond_atom_site_label_2
_geom_bond_site_symmetry_1
_geom_bond_site_symmetry_2
C1 H1 1_555 1_555
C2 C1 1_555 1_555
H2 C2 1_555 1_555
C3 C2 1_555 1_555
H3 C3 1_555 1_555
C4 C3 1_555 1_555
H4 C4 1_555 1_555
C5 C4 1_555 1_555
C6 C1 1_555 1_555
C7 C6 1_555 1_555
C8 C7 1_555 1_555
C9 C7 1_555 1_555
H5 C9 1_555 1_555
H6 C9 1_555 1_555
C10 C7 1_555 1_555
H7 C10 1_555 1_555
H8 C10 1_555 1_555
C11 C12 1_555 1_555
C12 H9 1_555 1_555
C13 C12 1_555 1_555
H10 C13 1_555 1_555
C14 C13 1_555 1_555
C15 C14 1_555 1_555
H11 C15 1_555 1_555
C16 C11 1_555 1_555
H12 C16 1_555 1_555
Cl1 C14 1_555 1_555
N1 C5 1_555 1_555
O1 C8 1_555 1_555
C5 C6 1_555 1_555
C8 N1 1_555 1_555
C9 C10 1_555 1_555
C11 N1 1_555 1_555
C15 C16 1_555 1_555

#END
