
#######################################################################
#
#                 Cambridge Crystallographic Data Centre
#                                CCDC 
#
#######################################################################
#
# If this CIF has been generated from an entry in the Cambridge 
# Structural Database, then it will include bibliographic, chemical, 
# crystal, experimental, refinement or atomic coordinate data resulting 
# from the CCDC's data processing and validation procedures.
#
#######################################################################

data_MAQJIA
_chemical_formula_moiety         'C20 H12 Cl1 N5 O3 S1'
_chemical_name_systematic        
'1-benzyl-5-[2-(4-chloro-3-cyano-5-formylthiophen-2-yl)hydrazinylidene]-4-methyl-2,6-dioxo-1,2,5,6-tetrahydropyridine-3-carbonitrile unknown solvate'
_symmetry_cell_setting           triclinic
_symmetry_space_group_name_H-M   'P -1'
_symmetry_Int_Tables_number      2
_space_group_name_Hall           '-P 1'
loop_
_symmetry_equiv_pos_site_id
_symmetry_equiv_pos_as_xyz
1 x,y,z
2 -x,-y,-z
_cell_length_a                   9.7076(13)
_cell_length_b                   10.6482(15)
_cell_length_c                   12.1607(17)
_cell_angle_alpha                68.052(2)
_cell_angle_beta                 80.481(2)
_cell_angle_gamma                87.950(2)
_cell_volume                     1149.41
_exptl_crystal_colour            red
_exptl_crystal_description       block
_cell_formula_units_Z            2
loop_
_atom_site_label
_atom_site_type_symbol
_atom_site_fract_x
_atom_site_fract_y
_atom_site_fract_z
C1 C -0.2547(3) 0.3153(3) 1.3721(3)
H1 H -0.3455 0.3420 1.3886
C2 C -0.2007(2) 0.3264(3) 1.2497(2)
C3 C -0.2669(2) 0.3755(2) 1.1528(2)
C4 C -0.1830(2) 0.3787(2) 1.0451(2)
C5 C -0.0528(2) 0.3258(2) 1.0649(2)
C6 C -0.2267(2) 0.4290(2) 0.9310(2)
C7 C 0.27933(19) 0.2488(2) 0.95481(19)
C8 C 0.30184(19) 0.2953(2) 0.82479(19)
C9 C 0.5452(2) 0.2213(2) 0.8282(2)
C10 C 0.5171(2) 0.1769(2) 0.9576(2)
C11 C 0.3904(2) 0.1911(2) 1.02030(19)
C12 C 0.6337(2) 0.1187(2) 1.0163(2)
C13 C 0.3669(2) 0.1442(3) 1.1540(2)
H2 H 0.3180 0.0579 1.1880
H3 H 0.3122 0.2089 1.1786
H4 H 0.4553 0.1355 1.1814
C14 C 0.4613(2) 0.3342(3) 0.6355(2)
H5 H 0.5612 0.3380 0.6076
H6 H 0.4284 0.4261 0.6068
C15 C 0.3912(2) 0.2525(3) 0.58161(19)
C16 C 0.3970(4) 0.1144(3) 0.6254(3)
H7 H 0.4430 0.0709 0.6902
C17 C 0.3361(6) 0.0384(4) 0.5754(4)
H8 H 0.3425 -0.0554 0.6054
C18 C 0.2652(4) 0.1025(5) 0.4801(3)
H9 H 0.2200 0.0518 0.4482
C19 C 0.2624(3) 0.2379(4) 0.4343(3)
H10 H 0.2193 0.2816 0.3676
C20 C 0.3237(3) 0.3138(3) 0.4860(2)
H11 H 0.3186 0.4076 0.4548
Cl1 Cl -0.43566(6) 0.42952(7) 1.15718(7)
N1 N -0.2609(2) 0.4692(3) 0.8389(2)
N2 N 0.04972(17) 0.31266(19) 0.97741(16)
H12 H 0.0416 0.3337 0.9033
N3 N 0.16016(16) 0.26393(18) 1.02337(16)
N4 N 0.43575(16) 0.27949(19) 0.76796(16)
N5 N 0.7283(2) 0.0708(2) 1.0600(2)
O1 O -0.1875(3) 0.2730(3) 1.4536(2)
O2 O 0.21463(15) 0.34962(17) 0.76148(14)
O3 O 0.65987(15) 0.20823(19) 0.77278(16)
S1 S -0.03197(6) 0.27862(7) 1.21266(6)
loop_
_geom_bond_atom_site_label_1
_geom_bond_atom_site_label_2
_geom_bond_site_symmetry_1
_geom_bond_site_symmetry_2
C1 H1 1_555 1_555
C2 C1 1_555 1_555
C3 C2 1_555 1_555
C4 C3 1_555 1_555
C5 C4 1_555 1_555
C6 C4 1_555 1_555
C7 C8 1_555 1_555
C8 N4 1_555 1_555
C9 C10 1_555 1_555
C10 C11 1_555 1_555
C11 C7 1_555 1_555
C12 C10 1_555 1_555
C13 C11 1_555 1_555
H2 C13 1_555 1_555
H3 C13 1_555 1_555
H4 C13 1_555 1_555
C14 H5 1_555 1_555
H6 C14 1_555 1_555
C15 C14 1_555 1_555
C16 C15 1_555 1_555
H7 C16 1_555 1_555
C17 C16 1_555 1_555
H8 C17 1_555 1_555
C18 C17 1_555 1_555
H9 C18 1_555 1_555
C19 C18 1_555 1_555
H10 C19 1_555 1_555
C20 C15 1_555 1_555
H11 C20 1_555 1_555
Cl1 C3 1_555 1_555
N1 C6 1_555 1_555
N2 C5 1_555 1_555
H12 N2 1_555 1_555
N3 C7 1_555 1_555
N4 C9 1_555 1_555
N5 C12 1_555 1_555
O1 C1 1_555 1_555
O2 C8 1_555 1_555
O3 C9 1_555 1_555
S1 C2 1_555 1_555
C5 S1 1_555 1_555
C14 N4 1_555 1_555
C19 C20 1_555 1_555
N2 N3 1_555 1_555

#END
