
#######################################################################
#
#                 Cambridge Crystallographic Data Centre
#                                CCDC 
#
#######################################################################
#
# If this CIF has been generated from an entry in the Cambridge 
# Structural Database, then it will include bibliographic, chemical, 
# crystal, experimental, refinement or atomic coordinate data resulting 
# from the CCDC's data processing and validation procedures.
#
#######################################################################

data_MAQKUL
_chemical_formula_moiety         'C21 H14 F5 N1 O2 S1'
_chemical_name_systematic        
trans-2-Pentafluorophenyl-3-phenyl-N-p-tosylaziridine
_symmetry_cell_setting           triclinic
_symmetry_space_group_name_H-M   'P -1'
_symmetry_Int_Tables_number      2
_space_group_name_Hall           '-P 1'
loop_
_symmetry_equiv_pos_site_id
_symmetry_equiv_pos_as_xyz
1 x,y,z
2 -x,-y,-z
_cell_length_a                   7.7472(19)
_cell_length_b                   9.419(2)
_cell_length_c                   14.952(3)
_cell_angle_alpha                74.701(5)
_cell_angle_beta                 76.265(5)
_cell_angle_gamma                66.196(4)
_cell_volume                     952.213
_exptl_crystal_colour            colorless
_cell_formula_units_Z            2
loop_
_atom_site_label
_atom_site_type_symbol
_atom_site_fract_x
_atom_site_fract_y
_atom_site_fract_z
S1 S -0.01598(18) 0.92420(14) 0.22663(8)
O1 O 0.1819(4) 0.9042(4) 0.1962(2)
O2 O -0.1475(5) 1.0752(4) 0.2470(2)
N1 N -0.0503(5) 0.7964(4) 0.3248(2)
F1 F 0.2186(4) 0.5226(3) 0.20356(19)
F2 F 0.5847(5) 0.4090(4) 0.1197(2)
F3 F 0.8648(4) 0.4200(4) 0.1957(3)
F4 F 0.7800(4) 0.5358(4) 0.3524(3)
F5 F 0.4171(4) 0.6539(3) 0.4342(2)
C1 C 0.3572(7) 0.5287(5) 0.2392(3)
C2 C 0.5419(8) 0.4696(6) 0.2000(3)
C3 C 0.6833(8) 0.4735(6) 0.2351(4)
C4 C 0.6425(7) 0.5336(6) 0.3115(4)
C5 C 0.4544(7) 0.5951(5) 0.3554(4)
C6 C 0.3057(6) 0.5956(5) 0.3176(3)
C7 C 0.1028(7) 0.6525(6) 0.3651(3)
C8 C 0.0182(7) 0.7976(5) 0.4080(3)
C9 C -0.1180(7) 0.8095(5) 0.4951(3)
C10 C -0.2947(7) 0.7995(6) 0.5018(3)
H1 H -0.3311 0.7842 0.4512
C11 C -0.4203(8) 0.8135(6) 0.5904(4)
H2 H -0.5408 0.8099 0.5962
C12 C -0.3662(9) 0.8319(6) 0.6648(3)
H3 H -0.4482 0.8380 0.7214
C13 C -0.1928(9) 0.8414(6) 0.6575(3)
H4 H -0.1579 0.8554 0.7091
C14 C -0.0706(8) 0.8308(6) 0.5763(3)
H5 H 0.0473 0.8376 0.5730
C15 C -0.0971(6) 0.8692(5) 0.1466(3)
C16 C -0.2818(7) 0.8775(5) 0.1611(3)
H6 H -0.3622 0.9115 0.2145
C17 C -0.3504(7) 0.8382(6) 0.1008(3)
H7 H -0.4769 0.8457 0.1126
C18 C -0.2269(8) 0.7833(6) 0.0162(3)
C19 C -0.0423(8) 0.7746(6) 0.0027(3)
H8 H 0.0407 0.7401 -0.0499
C20 C 0.0236(7) 0.8180(6) 0.0689(3)
H9 H 0.1494 0.8115 0.0592
C21 C -0.3000(8) 0.7389(7) -0.0513(4)
H10 H -0.2632 0.7878 -0.1139
H11 H -0.4367 0.7741 -0.0377
H12 H -0.2477 0.6262 -0.0460
H13 H 0.038(6) 0.581(5) 0.402(3)
H14 H 0.093(4) 0.860(4) 0.398(2)
loop_
_geom_bond_atom_site_label_1
_geom_bond_atom_site_label_2
_geom_bond_site_symmetry_1
_geom_bond_site_symmetry_2
S1 O1 1_555 1_555
O2 S1 1_555 1_555
N1 S1 1_555 1_555
F1 C1 1_555 1_555
F2 C2 1_555 1_555
F3 C3 1_555 1_555
F4 C4 1_555 1_555
F5 C5 1_555 1_555
C1 C2 1_555 1_555
C2 C3 1_555 1_555
C3 C4 1_555 1_555
C4 C5 1_555 1_555
C5 C6 1_555 1_555
C6 C1 1_555 1_555
C7 N1 1_555 1_555
C8 N1 1_555 1_555
C9 C8 1_555 1_555
C10 C9 1_555 1_555
H1 C10 1_555 1_555
C11 C10 1_555 1_555
H2 C11 1_555 1_555
C12 C11 1_555 1_555
H3 C12 1_555 1_555
C13 C12 1_555 1_555
H4 C13 1_555 1_555
C14 C9 1_555 1_555
H5 C14 1_555 1_555
C15 S1 1_555 1_555
C16 C15 1_555 1_555
H6 C16 1_555 1_555
C17 C16 1_555 1_555
H7 C17 1_555 1_555
C18 C17 1_555 1_555
C19 C18 1_555 1_555
H8 C19 1_555 1_555
C20 C15 1_555 1_555
H9 C20 1_555 1_555
C21 C18 1_555 1_555
H10 C21 1_555 1_555
H11 C21 1_555 1_555
H12 C21 1_555 1_555
H13 C7 1_555 1_555
H14 C8 1_555 1_555
C6 C7 1_555 1_555
C7 C8 1_555 1_555
C13 C14 1_555 1_555
C19 C20 1_555 1_555

#END
