
#######################################################################
#
#                 Cambridge Crystallographic Data Centre
#                                CCDC 
#
#######################################################################
#
# If this CIF has been generated from an entry in the Cambridge 
# Structural Database, then it will include bibliographic, chemical, 
# crystal, experimental, refinement or atomic coordinate data resulting 
# from the CCDC's data processing and validation procedures.
#
#######################################################################

data_MAQSUV
_chemical_formula_moiety         'C28 H42 N2 O10'
_chemical_name_systematic        
6,6,23,23-tetramethyl-3,5,7,10,16,20,22,24,27,33-decaoxa-17,34-diazaheptacyclo[30.2.1.1^15,18^.0^2,9^.0^4,8^.0^19,26^.0^21,25^]hexatriaconta-1(34),17-diene
_symmetry_cell_setting           orthorhombic
_symmetry_space_group_name_H-M   'P 21 21 2'
_symmetry_Int_Tables_number      18
_space_group_name_Hall           'P 2 2ab'
loop_
_symmetry_equiv_pos_site_id
_symmetry_equiv_pos_as_xyz
1 x,y,z
2 -x,-y,z
3 1/2-x,1/2+y,-z
4 1/2+x,1/2-y,-z
_cell_length_a                   30.476(5)
_cell_length_b                   9.2237(16)
_cell_length_c                   10.5661(19)
_cell_angle_alpha                90
_cell_angle_beta                 90
_cell_angle_gamma                90
_cell_volume                     2970.15
_exptl_crystal_colour            colorless
_exptl_crystal_description       needle
_cell_formula_units_Z            4
loop_
_atom_site_label
_atom_site_type_symbol
_atom_site_fract_x
_atom_site_fract_y
_atom_site_fract_z
O1 O -0.6919(2) -0.1324(6) -0.0182(5)
O2 O -0.68539(18) -0.0518(5) -0.2199(5)
O3 O -0.64672(17) -0.3277(6) -0.0671(6)
O4 O -0.63108(19) -0.7299(6) -0.3025(5)
O5 O -0.58745(17) -0.2665(5) -0.2837(5)
N1 N -0.6554(2) -0.5991(8) -0.2922(7)
C1 C -0.6962(3) 0.1250(9) -0.0527(8)
H1 H -0.6650 0.1377 -0.0513
H2 H -0.7076 0.1339 0.0317
H3 H -0.7092 0.1977 -0.1057
C2 C -0.7558(3) -0.0406(9) -0.1257(10)
H4 H -0.7653 0.0263 -0.1896
H5 H -0.7713 -0.0215 -0.0483
H6 H -0.7618 -0.1379 -0.1529
C3 C -0.7070(3) -0.0228(10) -0.1039(9)
C4 C -0.6432(3) -0.1086(8) -0.1878(8)
H7 H -0.6200 -0.0352 -0.1908
C5 C -0.6487(3) -0.1750(9) -0.0577(9)
H8 H -0.6263 -0.1384 0.0010
C6 C -0.6339(2) -0.2381(9) -0.2737(7)
H9 H -0.6478 -0.2272 -0.3569
C7 C -0.6531(3) -0.3648(9) -0.2000(9)
H10 H -0.6847 -0.3691 -0.2168
C8 C -0.5664(3) -0.1733(9) -0.3719(10)
H11 H -0.5617 -0.0790 -0.3337
H12 H -0.5849 -0.1606 -0.4457
C9 C -0.5222(4) -0.2386(19) -0.4118(12)
H13 H -0.5266 -0.3359 -0.4444
H14 H -0.5092 -0.1801 -0.4782
C10 C -0.4919(4) -0.243(2) -0.2972(13)
H15 H -0.5026 -0.3114 -0.2346
H16 H -0.4896 -0.1480 -0.2584
C11 C -0.6341(3) -0.5127(9) -0.2219(9)
C12 C -0.5924(3) -0.5699(8) -0.1682(7)
H17 H -0.5953 -0.5917 -0.0788
H18 H -0.5683 -0.5029 -0.1807
C13 C -0.5866(3) -0.7088(9) -0.2477(10)
H19 H -0.5795 -0.7904 -0.1920
C14 C -0.5556(2) -0.7048(10) -0.3543(9)
H20 H -0.5535 -0.6074 -0.3884
H21 H -0.5651 -0.7697 -0.4212
O1A O -0.3081(2) -0.8676(6) -0.0182(5)
O2A O -0.31461(18) -0.9482(5) -0.2199(5)
O3A O -0.35328(17) -0.6723(6) -0.0671(6)
O4A O -0.36892(19) -0.2701(6) -0.3025(5)
O5A O -0.41255(17) -0.7335(5) -0.2837(5)
N1A N -0.3446(2) -0.4009(8) -0.2922(7)
C1A C -0.3038(3) -1.1250(9) -0.0527(8)
H1A H -0.3350 -1.1377 -0.0513
H2A H -0.2924 -1.1339 0.0317
H3A H -0.2908 -1.1977 -0.1057
C2A C -0.2442(3) -0.9594(9) -0.1257(10)
H4A H -0.2347 -1.0263 -0.1896
H5A H -0.2287 -0.9785 -0.0483
H6A H -0.2382 -0.8621 -0.1529
C3A C -0.2930(3) -0.9772(10) -0.1039(9)
C4A C -0.3568(3) -0.8914(8) -0.1878(8)
H7A H -0.3800 -0.9648 -0.1908
C5A C -0.3513(3) -0.8250(9) -0.0577(9)
H8A H -0.3737 -0.8616 0.0010
C6A C -0.3661(2) -0.7619(9) -0.2737(7)
H9A H -0.3522 -0.7728 -0.3569
C7A C -0.3469(3) -0.6352(9) -0.2000(9)
H10A H -0.3153 -0.6309 -0.2168
C8A C -0.4336(3) -0.8267(9) -0.3719(10)
H11A H -0.4383 -0.9210 -0.3337
H12A H -0.4151 -0.8394 -0.4457
C9A C -0.4778(4) -0.7614(19) -0.4118(12)
H13A H -0.4734 -0.6641 -0.4444
H14A H -0.4908 -0.8199 -0.4782
C10A C -0.5081(4) -0.757(2) -0.2972(13)
H15A H -0.4974 -0.6886 -0.2346
H16A H -0.5104 -0.8520 -0.2584
C11A C -0.3659(3) -0.4873(9) -0.2219(9)
C12A C -0.4076(3) -0.4301(8) -0.1682(7)
H17A H -0.4047 -0.4083 -0.0788
H18A H -0.4317 -0.4971 -0.1807
C13A C -0.4134(3) -0.2912(9) -0.2477(10)
H19A H -0.4205 -0.2096 -0.1920
C14A C -0.4444(2) -0.2952(10) -0.3543(9)
H20A H -0.4465 -0.3926 -0.3884
H21A H -0.4349 -0.2303 -0.4212
O6 O -0.33410(17) 0.0587(5) -0.5778(5)
O7 O -0.29627(15) -0.1205(6) -0.6754(5)
O8 O -0.39890(15) -0.0612(5) -0.6350(6)
O9 O -0.38856(16) -0.3721(6) -0.6632(5)
O10 O -0.4804(2) -0.1933(7) -0.9689(6)
N2 N -0.4367(2) -0.1520(9) -0.9283(11)
C17 C -0.2615(2) 0.0048(9) -0.4993(8)
H30 H -0.2606 0.0972 -0.4577
H31 H -0.2323 -0.0236 -0.5229
H32 H -0.2737 -0.0662 -0.4429
C18 C -0.2737(2) 0.1224(8) -0.7104(8)
H33 H -0.2924 0.1218 -0.7836
H34 H -0.2444 0.0974 -0.7351
H35 H -0.2738 0.2173 -0.6731
C19 C -0.2900(3) 0.0157(9) -0.6173(8)
C20 C -0.3323(2) -0.1921(8) -0.6154(8)
H36 H -0.3229 -0.2607 -0.5500
C21 C -0.3596(3) -0.0681(8) -0.5623(7)
H37 H -0.3662 -0.0845 -0.4727
C22 C -0.3615(2) -0.2629(8) -0.7167(7)
H38 H -0.3445 -0.2988 -0.7888
C23 C -0.3700(3) -0.5141(11) -0.6553(11)
H39 H -0.3384 -0.5061 -0.6630
H40 H -0.3763 -0.5536 -0.5722
C24 C -0.3854(3) -0.6130(10) -0.7481(12)
H41 H -0.3697 -0.7035 -0.7365
H42 H -0.3771 -0.5753 -0.8304
C25 C -0.3903(2) -0.1312(8) -0.7520(8)
H43 H -0.3741 -0.0661 -0.8086
C26 C -0.4336(3) -0.1687(8) -0.8081(10)
C27 C -0.4753(2) -0.2165(9) -0.7473(9)
H44 H -0.4900 -0.1375 -0.7040
H45 H -0.4707 -0.2964 -0.6891
C28 C -0.4999(3) -0.2638(11) -0.8662(9)
H46 H -0.4901 -0.3642 -0.8772
C29 C -0.5460(3) -0.2785(11) -0.8601(10)
H47 H -0.5552 -0.3285 -0.9363
H48 H -0.5584 -0.1816 -0.8640
C30 C -0.5668(3) -0.3528(11) -0.7525(11)
H49 H -0.5605 -0.2950 -0.6779
H50 H -0.5514 -0.4440 -0.7417
O6A O -0.66590(17) -1.0587(5) -0.5778(5)
O7A O -0.70373(15) -0.8795(6) -0.6754(5)
O8A O -0.60110(15) -0.9388(5) -0.6350(6)
O9A O -0.61144(16) -0.6279(6) -0.6632(5)
O10A O -0.5196(2) -0.8067(7) -0.9689(6)
N2A N -0.5633(2) -0.8480(9) -0.9283(11)
C17A C -0.7385(2) -1.0048(9) -0.4993(8)
H30A H -0.7394 -1.0972 -0.4577
H31A H -0.7677 -0.9764 -0.5229
H32A H -0.7263 -0.9338 -0.4429
C18A C -0.7263(2) -1.1224(8) -0.7104(8)
H33A H -0.7076 -1.1218 -0.7836
H34A H -0.7556 -1.0974 -0.7351
H35A H -0.7262 -1.2173 -0.6731
C19A C -0.7100(3) -1.0157(9) -0.6173(8)
C20A C -0.6677(2) -0.8079(8) -0.6154(8)
H36A H -0.6771 -0.7393 -0.5500
C21A C -0.6404(3) -0.9319(8) -0.5623(7)
H37A H -0.6338 -0.9155 -0.4727
C22A C -0.6385(2) -0.7371(8) -0.7167(7)
H38A H -0.6555 -0.7012 -0.7888
C23A C -0.6300(3) -0.4859(11) -0.6553(11)
H39A H -0.6616 -0.4939 -0.6630
H40A H -0.6237 -0.4464 -0.5722
C24A C -0.6146(3) -0.3870(10) -0.7481(12)
H41A H -0.6303 -0.2965 -0.7365
H42A H -0.6229 -0.4247 -0.8304
C25A C -0.6097(2) -0.8688(8) -0.7520(8)
H43A H -0.6259 -0.9339 -0.8086
C26A C -0.5664(3) -0.8313(8) -0.8081(10)
C27A C -0.5247(2) -0.7835(9) -0.7473(9)
H44A H -0.5100 -0.8625 -0.7040
H45A H -0.5293 -0.7036 -0.6891
C28A C -0.5001(3) -0.7362(11) -0.8662(9)
H46A H -0.5099 -0.6358 -0.8772
C29A C -0.4540(3) -0.7215(11) -0.8601(10)
H47A H -0.4448 -0.6715 -0.9363
H48A H -0.4416 -0.8184 -0.8640
C30A C -0.4332(3) -0.6472(11) -0.7525(11)
H49A H -0.4395 -0.7050 -0.6779
H50A H -0.4486 -0.5560 -0.7417
H22? H -0.5780 -0.0760 -0.3634
H23? H -0.5723 -0.2066 -0.4573
C15? C -0.5141(6) -0.171(3) -0.348(4)
H24? H -0.4999 -0.1218 -0.4181
H25? H -0.5079 -0.1165 -0.2715
C16? C -0.4955(10) -0.324(3) -0.335(4)
H26? H -0.5070 -0.3876 -0.4002
H27? H -0.5016 -0.3643 -0.2527
H28? H -0.5661 -0.6310 -0.4122
H29? H -0.5583 -0.7968 -0.3980
loop_
_geom_bond_atom_site_label_1
_geom_bond_atom_site_label_2
_geom_bond_site_symmetry_1
_geom_bond_site_symmetry_2
O1 C3 1_555 1_555
O2 C3 1_555 1_555
O3 C5 1_555 1_555
O4 N1 1_555 1_555
O5 C6 1_555 1_555
N1 C11 1_555 1_555
C1 H1 1_555 1_555
H2 C1 1_555 1_555
H3 C1 1_555 1_555
C2 H4 1_555 1_555
H5 C2 1_555 1_555
H6 C2 1_555 1_555
C3 C1 1_555 1_555
C4 O2 1_555 1_555
H7 C4 1_555 1_555
C5 O1 1_555 1_555
H8 C5 1_555 1_555
C6 C4 1_555 1_555
H9 C6 1_555 1_555
C7 O3 1_555 1_555
H10 C7 1_555 1_555
C8 O5 1_555 1_555
H11 C8 1_555 1_555
H12 C8 1_555 1_555
C9 C8 1_555 1_555
H13 C9 1_555 1_555
H14 C9 1_555 1_555
C10 C9 1_555 1_555
H15 C10 1_555 1_555
H16 C10 1_555 1_555
C11 C7 1_555 1_555
C12 C11 1_555 1_555
H17 C12 1_555 1_555
H18 C12 1_555 1_555
C13 O4 1_555 1_555
H19 C13 1_555 1_555
C14 C13 1_555 1_555
H20 C14 1_555 1_555
H21 C14 1_555 1_555
O6 C19 1_555 1_555
O7 C19 1_555 1_555
O8 C21 1_555 1_555
O9 C22 1_555 1_555
O10 N2 1_555 1_555
N2 C26 1_555 1_555
C17 H30 1_555 1_555
H31 C17 1_555 1_555
H32 C17 1_555 1_555
C18 H33 1_555 1_555
H34 C18 1_555 1_555
H35 C18 1_555 1_555
C19 C17 1_555 1_555
C20 O7 1_555 1_555
H36 C20 1_555 1_555
C21 O6 1_555 1_555
H37 C21 1_555 1_555
C22 C20 1_555 1_555
H38 C22 1_555 1_555
C23 O9 1_555 1_555
H39 C23 1_555 1_555
H40 C23 1_555 1_555
C24 C23 1_555 1_555
H41 C24 1_555 1_555
H42 C24 1_555 1_555
C25 O8 1_555 1_555
H43 C25 1_555 1_555
C26 C25 1_555 1_555
C27 C26 1_555 1_555
H44 C27 1_555 1_555
H45 C27 1_555 1_555
C28 O10 1_555 1_555
H46 C28 1_555 1_555
C29 C28 1_555 1_555
H47 C29 1_555 1_555
H48 C29 1_555 1_555
C30 C29 1_555 1_555
H49 C30 1_555 1_555
H50 C30 1_555 1_555
O1A C3A 1_555 1_555
O2A C3A 1_555 1_555
O3A C5A 1_555 1_555
O4A N1A 1_555 1_555
O5A C6A 1_555 1_555
N1A C11A 1_555 1_555
C1A H1A 1_555 1_555
H2A C1A 1_555 1_555
H3A C1A 1_555 1_555
C2A H4A 1_555 1_555
H5A C2A 1_555 1_555
H6A C2A 1_555 1_555
C3A C1A 1_555 1_555
C4A O2A 1_555 1_555
H7A C4A 1_555 1_555
C5A O1A 1_555 1_555
H8A C5A 1_555 1_555
C6A C4A 1_555 1_555
H9A C6A 1_555 1_555
C7A O3A 1_555 1_555
H10A C7A 1_555 1_555
C8A O5A 1_555 1_555
H11A C8A 1_555 1_555
H12A C8A 1_555 1_555
C9A C8A 1_555 1_555
H13A C9A 1_555 1_555
H14A C9A 1_555 1_555
C10A C14 1_555 1_555
H15A C10A 1_555 1_555
H16A C10A 1_555 1_555
C11A C7A 1_555 1_555
C12A C11A 1_555 1_555
H17A C12A 1_555 1_555
H18A C12A 1_555 1_555
C13A O4A 1_555 1_555
H19A C13A 1_555 1_555
C14A C10 1_555 1_555
H20A C14A 1_555 1_555
H21A C14A 1_555 1_555
O6A C19A 1_555 1_555
O7A C19A 1_555 1_555
O8A C21A 1_555 1_555
O9A C22A 1_555 1_555
O10A N2A 1_555 1_555
N2A C26A 1_555 1_555
C17A H30A 1_555 1_555
H31A C17A 1_555 1_555
H32A C17A 1_555 1_555
C18A H33A 1_555 1_555
H34A C18A 1_555 1_555
H35A C18A 1_555 1_555
C19A C17A 1_555 1_555
C20A O7A 1_555 1_555
H36A C20A 1_555 1_555
C21A O6A 1_555 1_555
H37A C21A 1_555 1_555
C22A C20A 1_555 1_555
H38A C22A 1_555 1_555
C23A O9A 1_555 1_555
H39A C23A 1_555 1_555
H40A C23A 1_555 1_555
C24A C30 1_555 1_555
H41A C24A 1_555 1_555
H42A C24A 1_555 1_555
C25A O8A 1_555 1_555
H43A C25A 1_555 1_555
C26A C25A 1_555 1_555
C27A C26A 1_555 1_555
H44A C27A 1_555 1_555
H45A C27A 1_555 1_555
C28A O10A 1_555 1_555
H46A C28A 1_555 1_555
C29A C28A 1_555 1_555
H47A C29A 1_555 1_555
H48A C29A 1_555 1_555
C30A C24 1_555 1_555
H49A C30A 1_555 1_555
H50A C30A 1_555 1_555
C2 C3 1_555 1_555
C4 C5 1_555 1_555
C6 C7 1_555 1_555
C12 C13 1_555 1_555
C18 C19 1_555 1_555
C20 C21 1_555 1_555
C22 C25 1_555 1_555
C27 C28 1_555 1_555
C2A C3A 1_555 1_555
C4A C5A 1_555 1_555
C6A C7A 1_555 1_555
C9A C10A 1_555 1_555
C12A C13A 1_555 1_555
C13A C14A 1_555 1_555
C18A C19A 1_555 1_555
C20A C21A 1_555 1_555
C22A C25A 1_555 1_555
C23A C24A 1_555 1_555
C27A C28A 1_555 1_555
C29A C30A 1_555 1_555

#END
