
#######################################################################
#
#                 Cambridge Crystallographic Data Centre
#                                CCDC 
#
#######################################################################
#
# If this CIF has been generated from an entry in the Cambridge 
# Structural Database, then it will include bibliographic, chemical, 
# crystal, experimental, refinement or atomic coordinate data resulting 
# from the CCDC's data processing and validation procedures.
#
#######################################################################

data_MAQSOP
_chemical_formula_moiety         'C26 H38 N2 O10'
_chemical_name_systematic        
6,6,22,22-tetramethyl-3,5,7,10,15,19,21,23,26,31-decaoxa-16,32-diazaheptacyclo[28.2.1.1^14,17^.0^2,9^.0^4,8^.0^18,25^.0^20,24^]tetratriaconta-1(32),16-diene
_symmetry_cell_setting           orthorhombic
_symmetry_space_group_name_H-M   'P 21 21 2'
_symmetry_Int_Tables_number      18
_space_group_name_Hall           'P 2 2ab'
loop_
_symmetry_equiv_pos_site_id
_symmetry_equiv_pos_as_xyz
1 x,y,z
2 -x,-y,z
3 1/2-x,1/2+y,-z
4 1/2+x,1/2-y,-z
_cell_length_a                   28.130(3)
_cell_length_b                   9.4518(10)
_cell_length_c                   10.4693(11)
_cell_angle_alpha                90
_cell_angle_beta                 90
_cell_angle_gamma                90
_cell_volume                     2783.57
_exptl_crystal_colour            colorless
_exptl_crystal_description       plate
_cell_formula_units_Z            4
loop_
_atom_site_label
_atom_site_type_symbol
_atom_site_fract_x
_atom_site_fract_y
_atom_site_fract_z
O1 O 0.6855(2) 0.4038(5) 0.0068(3)
O2 O 0.67450(13) 0.4734(4) 0.2122(3)
O3 O 0.64886(14) 0.1946(4) 0.0680(3)
O4 O 0.56924(13) 0.2530(5) 0.2480(3)
O5 O 0.61432(17) -0.1892(5) 0.3048(4)
N1 N 0.64057(18) -0.0558(7) 0.3150(5)
C1 C 0.7532(2) 0.4760(8) 0.1276(6)
H1 H 0.7640 0.5427 0.1903
H2 H 0.7714 0.4870 0.0507
H3 H 0.7571 0.3816 0.1598
C2 C 0.7018(2) 0.5020(6) 0.0996(4)
C3 C 0.6929(3) 0.6508(7) 0.0522(7)
H4 H 0.6597 0.6622 0.0332
H5 H 0.7113 0.6672 -0.0236
H6 H 0.7021 0.7173 0.1170
C4 C 0.6311(2) 0.4090(6) 0.1755(5)
H7 H 0.6051 0.4774 0.1685
C5 C 0.6430(2) 0.3400(7) 0.0476(5)
H8 H 0.6175 0.3572 -0.0143
C6 C 0.61876(19) 0.2853(6) 0.2621(4)
H9 H 0.6275 0.3033 0.3512
C7 C 0.6485(2) 0.1664(6) 0.2025(5)
H10 H 0.6811 0.1701 0.2360
C8 C 0.6287(2) 0.0202(6) 0.2192(5)
C9 C 0.5951(2) -0.0502(6) 0.1294(6)
H11 H 0.6108 -0.0736 0.0496
H12 H 0.5680 0.0099 0.1116
C10 C 0.5803(2) -0.1810(7) 0.1992(6)
H13 H 0.5842 -0.2635 0.1434
C11 C 0.5396(2) 0.2947(8) 0.3506(6)
H14 H 0.5494 0.3870 0.3815
H15 H 0.5426 0.2277 0.4203
C12 C 0.4885(2) 0.3005(9) 0.3060(7)
H16 H 0.4686 0.3233 0.3789
H17 H 0.4854 0.3774 0.2452
C13 C 0.4705(2) 0.1754(8) 0.2484(6)
H18 H 0.4727 0.0993 0.3104
H19 H 0.4912 0.1508 0.1775
O1A O 0.3145(2) -0.4038(5) 0.0068(3)
O2A O 0.32550(13) -0.4734(4) 0.2122(3)
O3A O 0.35114(14) -0.1946(4) 0.0680(3)
O4A O 0.43076(13) -0.2530(5) 0.2480(3)
O5A O 0.38568(17) 0.1892(5) 0.3048(4)
N1A N 0.35943(18) 0.0558(7) 0.3150(5)
C1A C 0.2468(2) -0.4760(8) 0.1276(6)
H1A H 0.2360 -0.5427 0.1903
H2A H 0.2286 -0.4870 0.0507
H3A H 0.2429 -0.3816 0.1598
C2A C 0.2982(2) -0.5020(6) 0.0996(4)
C3A C 0.3071(3) -0.6508(7) 0.0522(7)
H4A H 0.3403 -0.6622 0.0332
H5A H 0.2887 -0.6672 -0.0236
H6A H 0.2979 -0.7173 0.1170
C4A C 0.3689(2) -0.4090(6) 0.1755(5)
H7A H 0.3949 -0.4774 0.1685
C5A C 0.3570(2) -0.3400(7) 0.0476(5)
H8A H 0.3825 -0.3572 -0.0143
C6A C 0.38124(19) -0.2853(6) 0.2621(4)
H9A H 0.3725 -0.3033 0.3512
C7A C 0.3515(2) -0.1664(6) 0.2025(5)
H10A H 0.3189 -0.1701 0.2360
C8A C 0.3713(2) -0.0202(6) 0.2192(5)
C9A C 0.4049(2) 0.0502(6) 0.1294(6)
H11A H 0.3892 0.0736 0.0496
H12A H 0.4320 -0.0099 0.1116
C10A C 0.4197(2) 0.1810(7) 0.1992(6)
H13A H 0.4158 0.2635 0.1434
C11A C 0.4604(2) -0.2947(8) 0.3506(6)
H14A H 0.4506 -0.3870 0.3815
H15A H 0.4574 -0.2277 0.4203
C12A C 0.5115(2) -0.3005(9) 0.3060(7)
H16A H 0.5314 -0.3233 0.3789
H17A H 0.5146 -0.3774 0.2452
C13A C 0.5295(2) -0.1754(8) 0.2484(6)
H18A H 0.5273 -0.0993 0.3104
H19A H 0.5088 -0.1508 0.1775
O6 O 0.70132(12) 0.6289(4) 0.6634(3)
O7 O 0.65960(12) 0.4534(4) 0.5646(3)
O8 O 0.58888(12) 0.5671(3) 0.6112(3)
O9 O 0.60223(12) 0.8765(4) 0.6749(3)
O10 O 0.49379(17) 0.7343(5) 0.9286(3)
N2 N 0.53996(18) 0.6797(5) 0.9054(4)
C14 C 0.73919(19) 0.5075(7) 0.4869(5)
H20 H 0.7261 0.5764 0.4294
H21 H 0.7416 0.4179 0.4443
H22 H 0.7702 0.5374 0.5140
C15 C 0.70700(18) 0.4931(6) 0.6026(4)
C16 C 0.7252(2) 0.3880(7) 0.7001(5)
H23 H 0.7566 0.4150 0.7268
H24 H 0.7263 0.2954 0.6627
H25 H 0.7044 0.3870 0.7727
C17 C 0.63261(17) 0.5752(6) 0.5448(4)
H26 H 0.6275 0.5925 0.4535
C18 C 0.66172(17) 0.6976(6) 0.6072(4)
H27 H 0.6712 0.7699 0.5451
C19 C 0.59531(18) 0.6329(5) 0.7361(4)
H28 H 0.6101 0.5653 0.7949
C20 C 0.62934(18) 0.7565(5) 0.7113(4)
H29 H 0.6478 0.7775 0.7884
C21 C 0.54721(18) 0.6745(5) 0.7854(5)
C22 C 0.50570(18) 0.7203(6) 0.7060(4)
H30 H 0.4976 0.6497 0.6424
H31 H 0.5118 0.8099 0.6639
C23 C 0.46696(19) 0.7343(6) 0.8066(5)
H32 H 0.4464 0.6507 0.8034
C24 C 0.43635(19) 0.8668(6) 0.8001(5)
H33 H 0.4567 0.9496 0.8033
H34 H 0.4156 0.8696 0.8740
C25 C 0.40628(19) 0.8725(6) 0.6791(6)
H35 H 0.4273 0.8807 0.6059
H36 H 0.3890 0.7842 0.6709
C26 C 0.6290(2) 1.0060(6) 0.6761(7)
H37 H 0.6487 1.0123 0.6005
H38 H 0.6493 1.0094 0.7508
O6A O 0.29868(12) 1.3711(4) 0.6634(3)
O7A O 0.34040(12) 1.5466(4) 0.5646(3)
O8A O 0.41112(12) 1.4329(3) 0.6112(3)
O9A O 0.39777(12) 1.1235(4) 0.6749(3)
O10A O 0.50621(17) 1.2657(5) 0.9286(3)
N2A N 0.46004(18) 1.3203(5) 0.9054(4)
C14A C 0.26081(19) 1.4925(7) 0.4869(5)
H20A H 0.2739 1.4236 0.4294
H21A H 0.2584 1.5821 0.4443
H22A H 0.2298 1.4626 0.5140
C15A C 0.29300(18) 1.5069(6) 0.6026(4)
C16A C 0.2748(2) 1.6120(7) 0.7001(5)
H23A H 0.2434 1.5850 0.7268
H24A H 0.2737 1.7046 0.6627
H25A H 0.2956 1.6130 0.7727
C17A C 0.36739(17) 1.4248(6) 0.5448(4)
H26A H 0.3725 1.4075 0.4535
C18A C 0.33828(17) 1.3024(6) 0.6072(4)
H27A H 0.3288 1.2301 0.5451
C19A C 0.40469(18) 1.3671(5) 0.7361(4)
H28A H 0.3899 1.4347 0.7949
C20A C 0.37066(18) 1.2435(5) 0.7113(4)
H29A H 0.3522 1.2225 0.7884
C21A C 0.45279(18) 1.3255(5) 0.7854(5)
C22A C 0.49430(18) 1.2797(6) 0.7060(4)
H30A H 0.5024 1.3503 0.6424
H31A H 0.4882 1.1901 0.6639
C23A C 0.53304(19) 1.2657(6) 0.8066(5)
H32A H 0.5536 1.3493 0.8034
C24A C 0.56365(19) 1.1332(6) 0.8001(5)
H33A H 0.5433 1.0504 0.8033
H34A H 0.5844 1.1304 0.8740
C25A C 0.59372(19) 1.1275(6) 0.6791(6)
H35A H 0.5727 1.1193 0.6059
H36A H 0.6110 1.2158 0.6709
C26A C 0.3710(2) 0.9940(6) 0.6761(7)
H37A H 0.3513 0.9877 0.6005
H38A H 0.3507 0.9906 0.7508
loop_
_geom_bond_atom_site_label_1
_geom_bond_atom_site_label_2
_geom_bond_site_symmetry_1
_geom_bond_site_symmetry_2
O1 C2 1_555 1_555
O2 C2 1_555 1_555
O3 C5 1_555 1_555
O4 C6 1_555 1_555
O5 N1 1_555 1_555
N1 C8 1_555 1_555
C1 H1 1_555 1_555
H2 C1 1_555 1_555
H3 C1 1_555 1_555
C2 C1 1_555 1_555
C3 C2 1_555 1_555
H4 C3 1_555 1_555
H5 C3 1_555 1_555
H6 C3 1_555 1_555
C4 O2 1_555 1_555
H7 C4 1_555 1_555
C5 O1 1_555 1_555
H8 C5 1_555 1_555
C6 C4 1_555 1_555
H9 C6 1_555 1_555
C7 O3 1_555 1_555
H10 C7 1_555 1_555
C8 C7 1_555 1_555
C9 C8 1_555 1_555
H11 C9 1_555 1_555
H12 C9 1_555 1_555
C10 O5 1_555 1_555
H13 C10 1_555 1_555
C11 O4 1_555 1_555
H14 C11 1_555 1_555
H15 C11 1_555 1_555
C12 C11 1_555 1_555
H16 C12 1_555 1_555
H17 C12 1_555 1_555
C13 C12 1_555 1_555
H18 C13 1_555 1_555
H19 C13 1_555 1_555
O6 C15 1_555 1_555
O7 C15 1_555 1_555
O8 C17 1_555 1_555
O9 C20 1_555 1_555
O10 N2 1_555 1_555
N2 C21 1_555 1_555
C14 H20 1_555 1_555
H21 C14 1_555 1_555
H22 C14 1_555 1_555
C15 C14 1_555 1_555
C16 C15 1_555 1_555
H23 C16 1_555 1_555
H24 C16 1_555 1_555
H25 C16 1_555 1_555
C17 O7 1_555 1_555
H26 C17 1_555 1_555
C18 O6 1_555 1_555
H27 C18 1_555 1_555
C19 O8 1_555 1_555
H28 C19 1_555 1_555
C20 C18 1_555 1_555
H29 C20 1_555 1_555
C21 C19 1_555 1_555
C22 C21 1_555 1_555
H30 C22 1_555 1_555
H31 C22 1_555 1_555
C23 O10 1_555 1_555
H32 C23 1_555 1_555
C24 C23 1_555 1_555
H33 C24 1_555 1_555
H34 C24 1_555 1_555
C25 C24 1_555 1_555
H35 C25 1_555 1_555
H36 C25 1_555 1_555
C26 O9 1_555 1_555
H37 C26 1_555 1_555
H38 C26 1_555 1_555
O1A C2A 1_555 1_555
O2A C2A 1_555 1_555
O3A C5A 1_555 1_555
O4A C6A 1_555 1_555
O5A N1A 1_555 1_555
N1A C8A 1_555 1_555
C1A H1A 1_555 1_555
H2A C1A 1_555 1_555
H3A C1A 1_555 1_555
C2A C1A 1_555 1_555
C3A C2A 1_555 1_555
H4A C3A 1_555 1_555
H5A C3A 1_555 1_555
H6A C3A 1_555 1_555
C4A O2A 1_555 1_555
H7A C4A 1_555 1_555
C5A O1A 1_555 1_555
H8A C5A 1_555 1_555
C6A C4A 1_555 1_555
H9A C6A 1_555 1_555
C7A O3A 1_555 1_555
H10A C7A 1_555 1_555
C8A C7A 1_555 1_555
C9A C8A 1_555 1_555
H11A C9A 1_555 1_555
H12A C9A 1_555 1_555
C10A C13 1_555 1_555
H13A C10A 1_555 1_555
C11A O4A 1_555 1_555
H14A C11A 1_555 1_555
H15A C11A 1_555 1_555
C12A C11A 1_555 1_555
H16A C12A 1_555 1_555
H17A C12A 1_555 1_555
C13A C10 1_555 1_555
H18A C13A 1_555 1_555
H19A C13A 1_555 1_555
O6A C15A 1_555 1_555
O7A C15A 1_555 1_555
O8A C17A 1_555 1_555
O9A C20A 1_555 1_555
O10A N2A 1_555 1_555
N2A C21A 1_555 1_555
C14A H20A 1_555 1_555
H21A C14A 1_555 1_555
H22A C14A 1_555 1_555
C15A C14A 1_555 1_555
C16A C15A 1_555 1_555
H23A C16A 1_555 1_555
H24A C16A 1_555 1_555
H25A C16A 1_555 1_555
C17A O7A 1_555 1_555
H26A C17A 1_555 1_555
C18A O6A 1_555 1_555
H27A C18A 1_555 1_555
C19A O8A 1_555 1_555
H28A C19A 1_555 1_555
C20A C18A 1_555 1_555
H29A C20A 1_555 1_555
C21A C19A 1_555 1_555
C22A C21A 1_555 1_555
H30A C22A 1_555 1_555
H31A C22A 1_555 1_555
C23A O10A 1_555 1_555
H32A C23A 1_555 1_555
C24A C23A 1_555 1_555
H33A C24A 1_555 1_555
H34A C24A 1_555 1_555
C25A C26 1_555 1_555
H35A C25A 1_555 1_555
H36A C25A 1_555 1_555
C26A C25 1_555 1_555
H37A C26A 1_555 1_555
H38A C26A 1_555 1_555
C4 C5 1_555 1_555
C6 C7 1_555 1_555
C9 C10 1_555 1_555
C17 C18 1_555 1_555
C19 C20 1_555 1_555
C22 C23 1_555 1_555
O5A C10A 1_555 1_555
C4A C5A 1_555 1_555
C6A C7A 1_555 1_555
C9A C10A 1_555 1_555
C12A C13A 1_555 1_555
O9A C26A 1_555 1_555
C17A C18A 1_555 1_555
C19A C20A 1_555 1_555
C22A C23A 1_555 1_555
C24A C25A 1_555 1_555

#END
