
#######################################################################
#
#                 Cambridge Crystallographic Data Centre
#                                CCDC 
#
#######################################################################
#
# If this CIF has been generated from an entry in the Cambridge 
# Structural Database, then it will include bibliographic, chemical, 
# crystal, experimental, refinement or atomic coordinate data resulting 
# from the CCDC's data processing and validation procedures.
#
#######################################################################

data_MAQSIJ
_chemical_formula_moiety         'C12 H17 N1 O5'
_chemical_name_systematic        
8,8-dimethyl-3,3a,4,5,6a,6b,9a,10a-octahydro[1,3]dioxolo[4',5']furo[3',2':2,3]oxepino[4,5-c][1,2]oxazole
_symmetry_cell_setting           orthorhombic
_symmetry_space_group_name_H-M   'P 21 21 21'
_symmetry_Int_Tables_number      19
_space_group_name_Hall           'P 2ac 2ab'
loop_
_symmetry_equiv_pos_site_id
_symmetry_equiv_pos_as_xyz
1 x,y,z
2 1/2-x,-y,1/2+z
3 -x,1/2+y,1/2-z
4 1/2+x,1/2-y,-z
_cell_length_a                   5.3115(6)
_cell_length_b                   11.0401(13)
_cell_length_c                   22.214(3)
_cell_angle_alpha                90
_cell_angle_beta                 90
_cell_angle_gamma                90
_cell_volume                     1302.62
_exptl_crystal_colour            colorless
_exptl_crystal_description       irregular
_cell_formula_units_Z            4
loop_
_atom_site_label
_atom_site_type_symbol
_atom_site_fract_x
_atom_site_fract_y
_atom_site_fract_z
C1 C 0.0212(8) 0.5865(5) 0.5847(2)
H1 H -0.1467 0.6093 0.5704
C2 C 0.2230(9) 0.6745(4) 0.5609(2)
H2 H 0.1562 0.7311 0.5309
C3 C 0.2920(9) 0.4846(4) 0.5205(2)
C4 C 0.4753(12) 0.3828(6) 0.5297(4)
H3 H 0.5279 0.3812 0.5711
H4 H 0.6193 0.3947 0.5043
H5 H 0.3958 0.3073 0.5197
C5 C 0.1858(13) 0.4918(7) 0.4571(2)
H6 H 0.1096 0.4158 0.4468
H7 H 0.3192 0.5094 0.4293
H8 H 0.0615 0.5548 0.4553
C6 C 0.3193(9) 0.7384(4) 0.6173(2)
H9 H 0.4986 0.7582 0.6137
C7 C 0.2744(9) 0.6419(4) 0.66599(19)
H10 H 0.4056 0.5797 0.6634
C8 C 0.2437(16) 0.9230(5) 0.6717(3)
H11 H 0.2231 1.0062 0.6585
H12 H 0.4204 0.9108 0.6809
C9 C 0.097(2) 0.9045(6) 0.7263(3)
H13 H -0.0713 0.9352 0.7186
H14 H 0.1695 0.9554 0.7573
C10 C 0.0684(11) 0.7776(5) 0.7527(3)
H15 H -0.1030 0.7481 0.7455
C11 C 0.2560(10) 0.6866(4) 0.7291(2)
C12 C 0.130(2) 0.7676(7) 0.8188(3)
H16 H 0.1472 0.8477 0.8363
H17 H -0.0044 0.7254 0.8398
N1 N 0.4137(11) 0.6503(5) 0.7681(2)
O1 O 0.4109(6) 0.5966(3) 0.53670(15)
O2 O 0.0917(6) 0.4714(3) 0.56268(15)
O3 O 0.0336(7) 0.5903(3) 0.64784(15)
O4 O 0.1732(8) 0.8435(3) 0.62361(16)
O5 O 0.3597(13) 0.7023(5) 0.8244(2)
loop_
_geom_bond_atom_site_label_1
_geom_bond_atom_site_label_2
_geom_bond_site_symmetry_1
_geom_bond_site_symmetry_2
C1 H1 1_555 1_555
C2 C1 1_555 1_555
H2 C2 1_555 1_555
C3 C4 1_555 1_555
C4 H3 1_555 1_555
H4 C4 1_555 1_555
H5 C4 1_555 1_555
C5 C3 1_555 1_555
H6 C5 1_555 1_555
H7 C5 1_555 1_555
H8 C5 1_555 1_555
C6 C2 1_555 1_555
H9 C6 1_555 1_555
C7 C6 1_555 1_555
H10 C7 1_555 1_555
C8 H11 1_555 1_555
H12 C8 1_555 1_555
C9 C8 1_555 1_555
H13 C9 1_555 1_555
H14 C9 1_555 1_555
C10 C9 1_555 1_555
H15 C10 1_555 1_555
C11 C7 1_555 1_555
C12 C10 1_555 1_555
H16 C12 1_555 1_555
H17 C12 1_555 1_555
N1 C11 1_555 1_555
O1 C2 1_555 1_555
O2 C1 1_555 1_555
O3 C1 1_555 1_555
O4 C6 1_555 1_555
O5 C12 1_555 1_555
C3 O1 1_555 1_555
C3 O2 1_555 1_555
C7 O3 1_555 1_555
C8 O4 1_555 1_555
C10 C11 1_555 1_555
N1 O5 1_555 1_555

#END
