
#######################################################################
#
#                 Cambridge Crystallographic Data Centre
#                                CCDC 
#
#######################################################################
#
# If this CIF has been generated from an entry in the Cambridge 
# Structural Database, then it will include bibliographic, chemical, 
# crystal, experimental, refinement or atomic coordinate data resulting 
# from the CCDC's data processing and validation procedures.
#
#######################################################################

data_MAQWIM18
_chemical_formula_moiety         'C10 H12 N2 O2'
_chemical_name_systematic        4-hydroxy-N'-isopropylidenebenzohydrazide
_symmetry_cell_setting           orthorhombic
_symmetry_space_group_name_H-M   'P n a 21'
_symmetry_Int_Tables_number      33
_space_group_name_Hall           'P 2c -2n'
loop_
_symmetry_equiv_pos_site_id
_symmetry_equiv_pos_as_xyz
1 x,y,z
2 -x,-y,1/2+z
3 1/2+x,1/2-y,z
4 1/2-x,1/2+y,1/2+z
_cell_length_a                   9.2009(17)
_cell_length_b                   7.2412(14)
_cell_length_c                   15.552(3)
_cell_angle_alpha                90
_cell_angle_beta                 90
_cell_angle_gamma                90
_cell_volume                     1036.16
_exptl_crystal_colour            colorless
_exptl_crystal_description       Prismatic
_cell_formula_units_Z            4
loop_
_atom_site_label
_atom_site_type_symbol
_atom_site_fract_x
_atom_site_fract_y
_atom_site_fract_z
O1 O 0.67690(17) 0.9128(2) 0.55859(11)
O2 O 0.25324(17) 1.1474(3) 0.25457(11)
H1 H 0.3099 1.1908 0.2193
N1 N 0.49349(18) 0.7114(2) 0.57814(11)
H2 H 0.4131 0.6654 0.5598
N2 N 0.5642(2) 0.6375(2) 0.64974(12)
C1 C 0.4727(2) 0.9405(3) 0.46629(13)
C2 C 0.5559(2) 0.8583(3) 0.53862(13)
C3 C 0.3284(2) 1.0863(3) 0.32385(13)
C4 C 0.5486(2) 1.0216(3) 0.39949(15)
H3 H 0.6494 1.0282 0.4025
C5 C 0.3215(2) 0.9418(3) 0.46219(14)
H4 H 0.2678 0.8929 0.5074
C6 C 0.5418(2) 0.4674(3) 0.66625(15)
C7 C 0.4788(2) 1.0927(3) 0.32878(14)
H5 H 0.5323 1.1451 0.2843
C8 C 0.2506(2) 1.0144(3) 0.39219(16)
H6 H 0.1496 1.0153 0.3907
C9 C 0.6126(4) 0.3937(4) 0.7462(2)
H7 H 0.6682 0.4899 0.7730
H8 H 0.6757 0.2930 0.7313
H9 H 0.5392 0.3510 0.7852
C10 C 0.4541(4) 0.3375(4) 0.6135(2)
H10 H 0.3526 0.3601 0.6232
H11 H 0.4770 0.2128 0.6294
H12 H 0.4760 0.3558 0.5537
loop_
_geom_bond_atom_site_label_1
_geom_bond_atom_site_label_2
_geom_bond_site_symmetry_1
_geom_bond_site_symmetry_2
O1 C2 1_555 1_555
O2 H1 1_555 1_555
N1 H2 1_555 1_555
N2 N1 1_555 1_555
C1 C2 1_555 1_555
C2 N1 1_555 1_555
C3 O2 1_555 1_555
C4 C1 1_555 1_555
H3 C4 1_555 1_555
C5 C1 1_555 1_555
H4 C5 1_555 1_555
C6 N2 1_555 1_555
C7 C3 1_555 1_555
H5 C7 1_555 1_555
C8 C3 1_555 1_555
H6 C8 1_555 1_555
C9 C6 1_555 1_555
H7 C9 1_555 1_555
H8 C9 1_555 1_555
H9 C9 1_555 1_555
C10 C6 1_555 1_555
H10 C10 1_555 1_555
H11 C10 1_555 1_555
H12 C10 1_555 1_555
C4 C7 1_555 1_555
C5 C8 1_555 1_555

#END
