
#######################################################################
#
#                 Cambridge Crystallographic Data Centre
#                                CCDC 
#
#######################################################################
#
# If this CIF has been generated from an entry in the Cambridge 
# Structural Database, then it will include bibliographic, chemical, 
# crystal, experimental, refinement or atomic coordinate data resulting 
# from the CCDC's data processing and validation procedures.
#
#######################################################################

data_MAQWIM06
_chemical_formula_moiety         'C10 H10 D2 N2 O2'
_chemical_name_systematic        
4-deuteroxy-N'-isopropylidene-deuterobenzohydrazide
_symmetry_cell_setting           orthorhombic
_symmetry_space_group_name_H-M   'P n a 21'
_symmetry_Int_Tables_number      33
_space_group_name_Hall           'P 2c -2n'
loop_
_symmetry_equiv_pos_site_id
_symmetry_equiv_pos_as_xyz
1 x,y,z
2 -x,-y,1/2+z
3 1/2+x,1/2-y,z
4 1/2-x,1/2+y,1/2+z
_cell_length_a                   9.1926(16)
_cell_length_b                   7.2198(12)
_cell_length_c                   15.599(3)
_cell_angle_alpha                90
_cell_angle_beta                 90
_cell_angle_gamma                90
_cell_volume                     1035.29
_exptl_crystal_colour            colorless
_exptl_crystal_description       Prismatic
_cell_formula_units_Z            4
loop_
_atom_site_label
_atom_site_type_symbol
_atom_site_fract_x
_atom_site_fract_y
_atom_site_fract_z
O1 O 0.32226(16) 0.0859(2) 0.44156(10)
O2 O 0.74717(17) -0.1458(3) 0.74535(10)
N1 N 0.50599(18) 0.2885(2) 0.42179(11)
N2 N 0.43524(19) 0.3616(2) 0.34996(11)
C1 C 0.5274(2) 0.0591(3) 0.53361(12)
C2 C 0.4436(2) 0.1411(3) 0.46126(12)
C3 C 0.6722(2) -0.0856(3) 0.67609(12)
C4 C 0.6789(2) 0.0577(3) 0.53745(14)
H1 H 0.7325 0.1058 0.4920
C5 C 0.45070(19) -0.0215(3) 0.60054(15)
H2 H 0.3498 -0.0278 0.5976
C6 C 0.4576(2) 0.5322(3) 0.33332(14)
C7 C 0.5210(2) -0.0924(3) 0.67131(14)
H3 H 0.4676 -0.1447 0.7158
C8 C 0.75021(19) -0.0139(3) 0.60764(15)
H4 H 0.8513 -0.0143 0.6091
C9 C 0.3873(4) 0.6061(4) 0.2537(2)
H5 H 0.4611 0.6481 0.2147
H6 H 0.3246 0.7076 0.2683
H7 H 0.3312 0.5099 0.2270
C10 C 0.5450(4) 0.6632(4) 0.3861(2)
H8 H 0.5224 0.6457 0.4456
H9 H 0.5224 0.7882 0.3698
H10 H 0.6467 0.6404 0.3769
D1 D 0.694(5) -0.196(7) 0.784(3)
D2 D 0.594(4) 0.326(5) 0.431(3)
loop_
_geom_bond_atom_site_label_1
_geom_bond_atom_site_label_2
_geom_bond_site_symmetry_1
_geom_bond_site_symmetry_2
O1 C2 1_555 1_555
O2 C3 1_555 1_555
N1 N2 1_555 1_555
N2 C6 1_555 1_555
C1 C2 1_555 1_555
C2 N1 1_555 1_555
C3 C7 1_555 1_555
C4 C1 1_555 1_555
H1 C4 1_555 1_555
C5 C1 1_555 1_555
H2 C5 1_555 1_555
C6 C9 1_555 1_555
C7 C5 1_555 1_555
H3 C7 1_555 1_555
C8 C3 1_555 1_555
H4 C8 1_555 1_555
C9 H5 1_555 1_555
H6 C9 1_555 1_555
H7 C9 1_555 1_555
C10 C6 1_555 1_555
H8 C10 1_555 1_555
H9 C10 1_555 1_555
H10 C10 1_555 1_555
D1 O2 1_555 1_555
D2 N1 1_555 1_555
C4 C8 1_555 1_555

#END
