
#######################################################################
#
#                 Cambridge Crystallographic Data Centre
#                                CCDC 
#
#######################################################################
#
# If this CIF has been generated from an entry in the Cambridge 
# Structural Database, then it will include bibliographic, chemical, 
# crystal, experimental, refinement or atomic coordinate data resulting 
# from the CCDC's data processing and validation procedures.
#
#######################################################################

data_MAQWIM15
_chemical_formula_moiety         'C10 H12 N2 O2'
_chemical_name_systematic        4-hydroxy-N'-isopropylidenebenzohydrazide
_symmetry_cell_setting           orthorhombic
_symmetry_space_group_name_H-M   'P n a 21'
_symmetry_Int_Tables_number      33
_space_group_name_Hall           'P 2c -2n'
loop_
_symmetry_equiv_pos_site_id
_symmetry_equiv_pos_as_xyz
1 x,y,z
2 -x,-y,1/2+z
3 1/2+x,1/2-y,z
4 1/2-x,1/2+y,1/2+z
_cell_length_a                   9.1415(8)
_cell_length_b                   7.1872(7)
_cell_length_c                   15.6583(15)
_cell_angle_alpha                90
_cell_angle_beta                 90
_cell_angle_gamma                90
_cell_volume                     1028.78
_exptl_crystal_colour            colorless
_exptl_crystal_description       Prismatic
_cell_formula_units_Z            4
loop_
_atom_site_label
_atom_site_type_symbol
_atom_site_fract_x
_atom_site_fract_y
_atom_site_fract_z
O1 O 0.67910(16) 0.9155(2) 0.44177(10)
O2 O 0.25294(17) 1.1430(3) 0.74581(10)
H1 H 0.3102 1.1839 0.7815
N1 N 0.56500(19) 0.6402(2) 0.34982(11)
N2 N 0.49400(17) 0.7129(2) 0.42157(10)
H2 H 0.4133 0.6660 0.4398
C1 C 0.4733(2) 0.9416(3) 0.53373(12)
C2 C 0.5570(2) 0.8599(3) 0.46133(12)
C3 C 0.3284(2) 1.0840(3) 0.67642(12)
C4 C 0.5507(2) 1.0210(3) 0.60061(14)
H3 H 0.6522 1.0274 0.5975
C5 C 0.3206(2) 0.9425(3) 0.53772(13)
H4 H 0.2665 0.8947 0.4925
C6 C 0.5435(2) 0.4688(3) 0.33306(13)
C7 C 0.4802(2) 1.0907(3) 0.67147(13)
H5 H 0.5341 1.1423 0.7160
C8 C 0.2495(2) 1.0137(3) 0.60804(15)
H6 H 0.1479 1.0146 0.6097
C9 C 0.6136(4) 0.3951(4) 0.2533(2)
H7 H 0.5392 0.3515 0.2150
H8 H 0.6779 0.2942 0.2677
H9 H 0.6686 0.4925 0.2263
C10 C 0.4568(4) 0.3361(4) 0.3859(2)
H10 H 0.4785 0.3556 0.4452
H11 H 0.4816 0.2109 0.3703
H12 H 0.3543 0.3564 0.3762
loop_
_geom_bond_atom_site_label_1
_geom_bond_atom_site_label_2
_geom_bond_site_symmetry_1
_geom_bond_site_symmetry_2
O1 C2 1_555 1_555
O2 H1 1_555 1_555
N1 N2 1_555 1_555
N2 H2 1_555 1_555
C1 C2 1_555 1_555
C2 N2 1_555 1_555
C3 O2 1_555 1_555
C4 C1 1_555 1_555
H3 C4 1_555 1_555
C5 C1 1_555 1_555
H4 C5 1_555 1_555
C6 N1 1_555 1_555
C7 C3 1_555 1_555
H5 C7 1_555 1_555
C8 C3 1_555 1_555
H6 C8 1_555 1_555
C9 C6 1_555 1_555
H7 C9 1_555 1_555
H8 C9 1_555 1_555
H9 C9 1_555 1_555
C10 C6 1_555 1_555
H10 C10 1_555 1_555
H11 C10 1_555 1_555
H12 C10 1_555 1_555
C4 C7 1_555 1_555
C5 C8 1_555 1_555

#END
