
#######################################################################
#
#                 Cambridge Crystallographic Data Centre
#                                CCDC 
#
#######################################################################
#
# If this CIF has been generated from an entry in the Cambridge 
# Structural Database, then it will include bibliographic, chemical, 
# crystal, experimental, refinement or atomic coordinate data resulting 
# from the CCDC's data processing and validation procedures.
#
#######################################################################

data_MAQWIM14
_chemical_formula_moiety         'C10 H10 D2 N2 O2'
_chemical_name_systematic        
4-deuteroxy-N'-isopropylidene-deuterobenzohydrazide
_symmetry_cell_setting           orthorhombic
_symmetry_space_group_name_H-M   'P n a 21'
_symmetry_Int_Tables_number      33
_space_group_name_Hall           'P 2c -2n'
loop_
_symmetry_equiv_pos_site_id
_symmetry_equiv_pos_as_xyz
1 x,y,z
2 -x,-y,1/2+z
3 1/2+x,1/2-y,z
4 1/2-x,1/2+y,1/2+z
_cell_length_a                   9.894(4)
_cell_length_b                   9.105(3)
_cell_length_c                   11.629(4)
_cell_angle_alpha                90
_cell_angle_beta                 90
_cell_angle_gamma                90
_cell_volume                     1047.6
_exptl_crystal_colour            colorless
_exptl_crystal_description       Prismatic
_cell_formula_units_Z            4
loop_
_atom_site_label
_atom_site_type_symbol
_atom_site_fract_x
_atom_site_fract_y
_atom_site_fract_z
O1 O 1.1351(4) 0.1997(6) 0.5317(5)
O2 O 0.7944(5) -0.2837(6) 0.7861(5)
D1 D 0.8488 -0.3141 0.8337
N1 N 0.9336(5) 0.3045(6) 0.5027(5)
D2 D 0.8496 0.3110 0.5208
N2 N 0.9953(6) 0.4046(6) 0.4290(6)
C1 C 1.0127(6) 0.1974(7) 0.5439(6)
C2 C 0.8472(6) -0.1671(7) 0.7307(6)
C3 C 0.9479(6) 0.0740(7) 0.6084(5)
C4 C 0.9801(6) -0.1217(8) 0.7451(6)
H1 H 1.0364 -0.1713 0.7960
C5 C 0.8144(6) 0.0280(8) 0.5932(6)
H2 H 0.7587 0.0779 0.5419
C6 C 1.0288(6) -0.0035(9) 0.6840(7)
H3 H 1.1183 0.0250 0.6939
C7 C 0.9395(10) 0.5282(10) 0.4123(9)
C8 C 0.7646(6) -0.0897(8) 0.6530(6)
H4 H 0.6754 -0.1188 0.6422
C9 C 0.8131(10) 0.5829(9) 0.4668(9)
H5 H 0.7364 0.5471 0.4247
H6 H 0.8128 0.6884 0.4661
H7 H 0.8085 0.5486 0.5448
C10 C 1.0067(10) 0.6290(9) 0.3288(9)
H8 H 1.0861 0.5825 0.2984
H9 H 1.0317 0.7183 0.3671
H10 H 0.9454 0.6510 0.2671
loop_
_geom_bond_atom_site_label_1
_geom_bond_atom_site_label_2
_geom_bond_site_symmetry_1
_geom_bond_site_symmetry_2
O1 C1 1_555 1_555
O2 D1 1_555 1_555
N1 D2 1_555 1_555
N2 N1 1_555 1_555
C1 N1 1_555 1_555
C2 O2 1_555 1_555
C3 C1 1_555 1_555
C4 C2 1_555 1_555
H1 C4 1_555 1_555
C5 C3 1_555 1_555
H2 C5 1_555 1_555
C6 C3 1_555 1_555
H3 C6 1_555 1_555
C7 N2 1_555 1_555
C8 C2 1_555 1_555
H4 C8 1_555 1_555
C9 C7 1_555 1_555
H5 C9 1_555 1_555
H6 C9 1_555 1_555
H7 C9 1_555 1_555
C10 C7 1_555 1_555
H8 C10 1_555 1_555
H9 C10 1_555 1_555
H10 C10 1_555 1_555
C4 C6 1_555 1_555
C5 C8 1_555 1_555

#END
