
#######################################################################
#
#                 Cambridge Crystallographic Data Centre
#                                CCDC 
#
#######################################################################
#
# If this CIF has been generated from an entry in the Cambridge 
# Structural Database, then it will include bibliographic, chemical, 
# crystal, experimental, refinement or atomic coordinate data resulting 
# from the CCDC's data processing and validation procedures.
#
#######################################################################

data_MAQWIM07
_chemical_formula_moiety         'C10 H10 D2 N2 O2'
_chemical_name_systematic        
4-deuteroxy-N'-isopropylidene-deuterobenzohydrazide
_symmetry_cell_setting           orthorhombic
_symmetry_space_group_name_H-M   'P n a 21'
_symmetry_Int_Tables_number      33
_space_group_name_Hall           'P 2c -2n'
loop_
_symmetry_equiv_pos_site_id
_symmetry_equiv_pos_as_xyz
1 x,y,z
2 -x,-y,1/2+z
3 1/2+x,1/2-y,z
4 1/2-x,1/2+y,1/2+z
_cell_length_a                   9.2242(11)
_cell_length_b                   7.2491(9)
_cell_length_c                   15.5395(19)
_cell_angle_alpha                90
_cell_angle_beta                 90
_cell_angle_gamma                90
_cell_volume                     1039.08
_exptl_crystal_colour            colorless
_exptl_crystal_description       Prismatic
_cell_formula_units_Z            4
loop_
_atom_site_label
_atom_site_type_symbol
_atom_site_fract_x
_atom_site_fract_y
_atom_site_fract_z
O1 O 0.32359(16) 0.9127(2) 0.55879(11)
O2 O 0.74733(17) 1.1482(3) 0.25488(11)
D1 D 0.6908 1.1924 0.2197
N1 N 0.50614(17) 0.7108(2) 0.57813(11)
D2 D 0.5860 0.6644 0.5595
N2 N 0.43572(19) 0.6367(2) 0.64985(12)
C1 C 0.5277(2) 0.9402(3) 0.46647(12)
C2 C 0.4444(2) 0.8579(3) 0.53901(13)
C3 C 0.6724(2) 1.0868(3) 0.32425(13)
C4 C 0.4515(2) 1.0217(3) 0.39957(15)
H1 H 0.3510 1.0282 0.4026
C5 C 0.6786(2) 0.9419(3) 0.46258(14)
H2 H 0.7320 0.8932 0.5080
C6 C 0.4585(2) 0.4673(3) 0.66644(14)
C7 C 0.5216(2) 1.0931(3) 0.32886(14)
H3 H 0.4685 1.1455 0.2843
C8 C 0.7496(2) 1.0145(3) 0.39262(16)
H4 H 0.8504 1.0150 0.3913
C9 C 0.3877(4) 0.3927(5) 0.7464(2)
H5 H 0.4610 0.3541 0.7863
H6 H 0.3277 0.2893 0.7316
H7 H 0.3291 0.4872 0.7722
C10 C 0.5467(4) 0.3378(4) 0.6135(2)
H8 H 0.5223 0.3529 0.5539
H9 H 0.5268 0.2133 0.6309
H10 H 0.6478 0.3639 0.6217
loop_
_geom_bond_atom_site_label_1
_geom_bond_atom_site_label_2
_geom_bond_site_symmetry_1
_geom_bond_site_symmetry_2
O1 C2 1_555 1_555
O2 D1 1_555 1_555
N1 D2 1_555 1_555
N2 N1 1_555 1_555
C1 C2 1_555 1_555
C2 N1 1_555 1_555
C3 O2 1_555 1_555
C4 C1 1_555 1_555
H1 C4 1_555 1_555
C5 C1 1_555 1_555
H2 C5 1_555 1_555
C6 N2 1_555 1_555
C7 C3 1_555 1_555
H3 C7 1_555 1_555
C8 C3 1_555 1_555
H4 C8 1_555 1_555
C9 C6 1_555 1_555
H5 C9 1_555 1_555
H6 C9 1_555 1_555
H7 C9 1_555 1_555
C10 C6 1_555 1_555
H8 C10 1_555 1_555
H9 C10 1_555 1_555
H10 C10 1_555 1_555
C4 C7 1_555 1_555
C5 C8 1_555 1_555

#END
