
#######################################################################
#
#                 Cambridge Crystallographic Data Centre
#                                CCDC 
#
#######################################################################
#
# If this CIF has been generated from an entry in the Cambridge 
# Structural Database, then it will include bibliographic, chemical, 
# crystal, experimental, refinement or atomic coordinate data resulting 
# from the CCDC's data processing and validation procedures.
#
#######################################################################

data_MAQWIM21
_chemical_formula_moiety         'C10 H12 N2 O2'
_chemical_name_systematic        4-hydroxy-N'-isopropylidenebenzohydrazide
_symmetry_cell_setting           orthorhombic
_symmetry_space_group_name_H-M   'P n a 21'
_symmetry_Int_Tables_number      33
_space_group_name_Hall           'P 2c -2n'
loop_
_symmetry_equiv_pos_site_id
_symmetry_equiv_pos_as_xyz
1 x,y,z
2 -x,-y,1/2+z
3 1/2+x,1/2-y,z
4 1/2-x,1/2+y,1/2+z
_cell_length_a                   9.341(3)
_cell_length_b                   7.355(2)
_cell_length_c                   15.297(5)
_cell_angle_alpha                90
_cell_angle_beta                 90
_cell_angle_gamma                90
_cell_volume                     1050.95
_exptl_crystal_colour            colorless
_exptl_crystal_description       Prismatic
_cell_formula_units_Z            4
loop_
_atom_site_label
_atom_site_type_symbol
_atom_site_fract_x
_atom_site_fract_y
_atom_site_fract_z
O1 O 0.3275(4) 0.0929(5) 0.5588(2)
O2 O 0.7470(4) -0.1554(6) 0.2550(2)
H1 H 0.6920 -0.1996 0.2190
N1 N 0.5086(4) 0.2917(5) 0.5768(2)
H2 H 0.5884 0.3352 0.5583
N2 N 0.4366(4) 0.3689(5) 0.6485(2)
C1 C 0.5295(4) 0.0609(5) 0.4662(3)
C2 C 0.4470(5) 0.1464(5) 0.5384(3)
C3 C 0.6713(5) -0.0916(6) 0.3240(3)
C4 C 0.4547(5) -0.0219(7) 0.3999(3)
H3 H 0.3553 -0.0279 0.4031
C5 C 0.4630(7) 0.5342(7) 0.6649(5)
C6 C 0.6777(4) 0.0586(7) 0.4619(3)
H4 H 0.7306 0.1096 0.5071
C7 C 0.5243(5) -0.0969(7) 0.3282(3)
H5 H 0.4719 -0.1503 0.2834
C8 C 0.7474(4) -0.0170(7) 0.3926(3)
H6 H 0.8469 -0.0184 0.3915
C9 C 0.3907(7) 0.6096(7) 0.7455(5)
H7 H 0.3402 0.5139 0.7750
H8 H 0.3244 0.7031 0.7288
H9 H 0.4616 0.6598 0.7840
C10 C 0.5539(8) 0.6593(8) 0.6131(4)
H10 H 0.6522 0.6221 0.6175
H11 H 0.5440 0.7808 0.6352
H12 H 0.5245 0.6560 0.5530
loop_
_geom_bond_atom_site_label_1
_geom_bond_atom_site_label_2
_geom_bond_site_symmetry_1
_geom_bond_site_symmetry_2
O1 C2 1_555 1_555
O2 H1 1_555 1_555
N1 H2 1_555 1_555
N2 N1 1_555 1_555
C1 C2 1_555 1_555
C2 N1 1_555 1_555
C3 O2 1_555 1_555
C4 C1 1_555 1_555
H3 C4 1_555 1_555
C5 N2 1_555 1_555
C6 C1 1_555 1_555
H4 C6 1_555 1_555
C7 C3 1_555 1_555
H5 C7 1_555 1_555
C8 C3 1_555 1_555
H6 C8 1_555 1_555
C9 C5 1_555 1_555
H7 C9 1_555 1_555
H8 C9 1_555 1_555
H9 C9 1_555 1_555
C10 C5 1_555 1_555
H10 C10 1_555 1_555
H11 C10 1_555 1_555
H12 C10 1_555 1_555
C4 C7 1_555 1_555
C6 C8 1_555 1_555

#END
