
#######################################################################
#
#                 Cambridge Crystallographic Data Centre
#                                CCDC 
#
#######################################################################
#
# If this CIF has been generated from an entry in the Cambridge 
# Structural Database, then it will include bibliographic, chemical, 
# crystal, experimental, refinement or atomic coordinate data resulting 
# from the CCDC's data processing and validation procedures.
#
#######################################################################

data_MAQWIM20
_chemical_formula_moiety         'C10 H12 N2 O2'
_chemical_name_systematic        4-hydroxy-N'-isopropylidenebenzohydrazide
_symmetry_cell_setting           orthorhombic
_symmetry_space_group_name_H-M   'P n a 21'
_symmetry_Int_Tables_number      33
_space_group_name_Hall           'P 2c -2n'
loop_
_symmetry_equiv_pos_site_id
_symmetry_equiv_pos_as_xyz
1 x,y,z
2 -x,-y,1/2+z
3 1/2+x,1/2-y,z
4 1/2-x,1/2+y,1/2+z
_cell_length_a                   9.281(3)
_cell_length_b                   7.308(2)
_cell_length_c                   15.397(5)
_cell_angle_alpha                90
_cell_angle_beta                 90
_cell_angle_gamma                90
_cell_volume                     1044.31
_exptl_crystal_colour            colorless
_exptl_crystal_description       Prismatic
_cell_formula_units_Z            4
loop_
_atom_site_label
_atom_site_type_symbol
_atom_site_fract_x
_atom_site_fract_y
_atom_site_fract_z
O1 O 0.6743(3) 0.0904(4) 0.5579(2)
O2 O 0.2531(3) -0.1517(5) 0.2540(2)
H1 H 0.3088 -0.1972 0.2187
N1 N 0.5641(4) 0.3662(5) 0.6481(2)
N2 N 0.4924(4) 0.2902(4) 0.5764(2)
H2 H 0.4124 0.3349 0.5578
C1 C 0.4711(4) 0.0596(5) 0.4655(3)
C2 C 0.5540(4) 0.1444(5) 0.5379(2)
C3 C 0.3284(5) -0.0895(5) 0.3233(2)
C4 C 0.5469(4) -0.0224(6) 0.3993(3)
H3 H 0.6468 -0.0285 0.4025
C5 C 0.5388(6) 0.5337(7) 0.6648(4)
C6 C 0.3220(4) 0.0581(6) 0.4614(3)
H4 H 0.2687 0.1081 0.5067
C7 C 0.4769(5) -0.0960(6) 0.3277(3)
H5 H 0.5297 -0.1493 0.2830
C8 C 0.2525(4) -0.0154(6) 0.3919(3)
H6 H 0.1523 -0.0157 0.3906
C9 C 0.4495(7) 0.6607(7) 0.6127(4)
H7 H 0.4786 0.6549 0.5530
H8 H 0.4619 0.7832 0.6339
H9 H 0.3499 0.6264 0.6175
C10 C 0.6104(7) 0.6078(7) 0.7450(4)
H10 H 0.5386 0.6563 0.7835
H11 H 0.6764 0.7032 0.7290
H12 H 0.6620 0.5113 0.7737
loop_
_geom_bond_atom_site_label_1
_geom_bond_atom_site_label_2
_geom_bond_site_symmetry_1
_geom_bond_site_symmetry_2
O1 C2 1_555 1_555
O2 H1 1_555 1_555
N1 N2 1_555 1_555
N2 H2 1_555 1_555
C1 C2 1_555 1_555
C2 N2 1_555 1_555
C3 O2 1_555 1_555
C4 C1 1_555 1_555
H3 C4 1_555 1_555
C5 N1 1_555 1_555
C6 C1 1_555 1_555
H4 C6 1_555 1_555
C7 C3 1_555 1_555
H5 C7 1_555 1_555
C8 C3 1_555 1_555
H6 C8 1_555 1_555
C9 C5 1_555 1_555
H7 C9 1_555 1_555
H8 C9 1_555 1_555
H9 C9 1_555 1_555
C10 C5 1_555 1_555
H10 C10 1_555 1_555
H11 C10 1_555 1_555
H12 C10 1_555 1_555
C4 C7 1_555 1_555
C6 C8 1_555 1_555

#END
