
#######################################################################
#
#                 Cambridge Crystallographic Data Centre
#                                CCDC 
#
#######################################################################
#
# If this CIF has been generated from an entry in the Cambridge 
# Structural Database, then it will include bibliographic, chemical, 
# crystal, experimental, refinement or atomic coordinate data resulting 
# from the CCDC's data processing and validation procedures.
#
#######################################################################

data_MAQZUC
_chemical_compound_source        'fruits of Garcinia speciosa'
_chemical_name_common            'garciosaterpene F'
_chemical_formula_moiety         'C32 H48 O5'
_chemical_name_systematic        
'(24E)-23-Acetoxy-3-oxolanosta-9,24-dien-26-oic acid'
_chemical_properties_biological  
'cytotoxic, anti-HIV-1 and anti-inflammatory activity'
_symmetry_cell_setting           monoclinic
_symmetry_space_group_name_H-M   'C 2'
_symmetry_Int_Tables_number      5
_space_group_name_Hall           'C 2y'
loop_
_symmetry_equiv_pos_site_id
_symmetry_equiv_pos_as_xyz
1 x,y,z
2 -x,y,-z
3 1/2+x,1/2+y,z
4 1/2-x,1/2+y,-z
_cell_length_a                   26.8960(8)
_cell_length_b                   7.8010(3)
_cell_length_c                   17.6010(9)
_cell_angle_alpha                90
_cell_angle_beta                 124.2391(16)
_cell_angle_gamma                90
_cell_volume                     3052.96
_exptl_crystal_colour            colorless
_exptl_crystal_description       plate
_chemical_melting_point          '213.8-215.6 deg.C'
_cell_formula_units_Z            4
_exptl_crystal_recrystallization_method dichloromethane/hexanes
loop_
_atom_site_label
_atom_site_type_symbol
_atom_site_fract_x
_atom_site_fract_y
_atom_site_fract_z
C1 C 0.1427(2) -0.1406(8) 0.1660(4)
O1 O 0.0232(2) -0.5325(6) -0.3405(3)
C2 C 0.1733(3) 0.1275(8) 0.4099(4)
C3 C 0.1996(2) 0.0745(8) 0.2940(4)
H1 H 0.2269(2) -0.0214(8) 0.3275(4)
C4 C 0.1811(2) -0.2206(8) 0.0700(4)
C5 C 0.1734(3) -0.0777(8) 0.1206(4)
H2 H 0.1460(3) 0.0058(8) 0.0739(4)
C6 C 0.1352(2) -0.4313(8) -0.0523(4)
H3 H 0.1628(2) -0.5222(8) -0.0124(4)
C7 C 0.1378(2) -0.0113(9) 0.2277(4)
C8 C 0.0687(3) -0.2016(10) -0.0549(4)
H4 H 0.0638(14) -0.121(4) -0.0183(4)
H5 H 0.0763(10) -0.141(5) -0.095(2)
H6 H 0.0326(5) -0.2684(11) -0.091(2)
C9 C 0.0609(3) -0.6751(9) -0.2841(4)
H7 H 0.0368(3) -0.7644(9) -0.2803(4)
C10 C 0.1156(3) -0.2940(9) 0.1439(4)
H8 H 0.0992(3) -0.3294(9) 0.1757(4)
O2 O 0.1915(2) 0.1608(7) 0.4891(3)
C11 C 0.1215(2) -0.3199(8) 0.0076(3)
C12 C 0.2235(3) 0.1546(10) 0.2419(4)
H9 H 0.1955(3) 0.2408(10) 0.1998(4)
H10 H 0.2617(3) 0.2105(10) 0.2849(4)
C13 C 0.0838(3) -0.5177(10) -0.1386(4)
H11 H 0.0552(3) -0.4290(10) -0.1790(4)
C14 C 0.1093(3) -0.4139(9) 0.0722(4)
H12 H 0.1375(3) -0.5080(9) 0.1019(4)
H13 H 0.0690(3) -0.4614(9) 0.0367(4)
C15 C 0.0900(3) -0.7420(10) -0.3296(4)
H14 H 0.1088(3) -0.6613(10) -0.3442(4)
C16 C 0.1198(3) -0.0983(9) 0.2868(4)
H15 H 0.0806(3) -0.1509(9) 0.2468(4)
H16 H 0.1484(3) -0.1887(9) 0.3226(4)
C17 C 0.2321(3) 0.0199(10) 0.1890(5)
H17 H 0.2623(3) -0.0612(10) 0.2318(5)
H18 H 0.2467(3) 0.0739(10) 0.1555(5)
C18 C 0.2066(3) 0.1921(9) 0.3700(4)
C19 C 0.1956(3) -0.1598(9) 0.0014(5)
H19 H 0.1753(3) -0.0527(9) -0.0274(5)
H20 H 0.2386(3) -0.1443(9) 0.0316(5)
C20 C 0.1083(3) -0.6054(9) -0.1892(4)
H21 H 0.1341(3) -0.6993(9) -0.1515(4)
H22 H 0.1330(3) -0.5237(9) -0.1952(4)
C21 C 0.1829(4) 0.3753(9) 0.3357(5)
H23 H 0.1400(5) 0.3724(13) 0.293(3)
H24 H 0.193(2) 0.447(2) 0.3871(7)
H25 H 0.201(2) 0.421(3) 0.306(4)
C22 C 0.0876(3) 0.1136(9) 0.1612(4)
H26 H 0.0996(10) 0.175(5) 0.127(2)
H27 H 0.0514(7) 0.0506(11) 0.120(2)
H28 H 0.0805(15) 0.194(4) 0.1956(5)
C23 C 0.2732(3) 0.2024(11) 0.4476(5)
H29 H 0.2781(4) 0.269(6) 0.4974(17)
H30 H 0.2887(7) 0.0889(11) 0.469(3)
H31 H 0.2948(5) 0.256(7) 0.4255(12)
C24 C 0.1715(3) -0.3083(9) -0.0711(4)
H32 H 0.2048(3) -0.3686(9) -0.0659(4)
H33 H 0.1461(3) -0.2620(9) -0.1328(4)
C25 C 0.1222(4) -0.9402(13) -0.3981(6)
O3 O 0.1500(3) -0.8182(9) -0.4061(5)
C26 C 0.1174(3) 0.0237(10) 0.3513(5)
H34 H 0.1101(3) -0.0416(10) 0.3910(5)
H35 H 0.0837(3) 0.1012(10) 0.3154(5)
C27 C 0.2322(3) -0.3434(10) 0.1393(4)
H36 H 0.2705(3) -0.289(3) 0.164(3)
H37 H 0.2277(15) -0.369(6) 0.188(2)
H38 H 0.2302(15) -0.447(3) 0.1084(10)
C28 C 0.0920(3) -0.9021(10) -0.3514(5)
O4 O 0.1196(5) -1.0825(9) -0.4293(8)
C29 C 0.0504(4) -0.6476(13) -0.1181(6)
H39 H 0.0787(6) -0.726(6) -0.072(4)
H40 H 0.029(3) -0.5886(14) -0.097(5)
H41 H 0.022(3) -0.710(7) -0.1732(14)
C30 C -0.0331(4) -0.5404(15) -0.3811(9)
C31 C -0.0664(5) -0.4042(19) -0.4446(11)
H42 H -0.047(4) -0.297(2) -0.417(4)
H43 H -0.068(6) -0.422(10) -0.500(4)
H44 H -0.107(2) -0.403(12) -0.459(8)
O5 O -0.0557(4) -0.6395(16) -0.3609(13)
C32 C 0.0653(8) -1.0435(15) -0.3322(12)
H45 H 0.056(6) -1.007(6) -0.289(8)
H46 H 0.029(4) -1.080(13) -0.388(2)
H47 H 0.093(3) -1.138(7) -0.306(10)
H48 H 0.159(4) -0.861(16) -0.442(6)
loop_
_geom_bond_atom_site_label_1
_geom_bond_atom_site_label_2
_geom_bond_site_symmetry_1
_geom_bond_site_symmetry_2
C1 C5 1_555 1_555
O1 C9 1_555 1_555
C2 O2 1_555 1_555
C3 H1 1_555 1_555
C4 C5 1_555 1_555
C5 H2 1_555 1_555
C6 H3 1_555 1_555
C7 C1 1_555 1_555
C8 H4 1_555 1_555
H5 C8 1_555 1_555
H6 C8 1_555 1_555
C9 H7 1_555 1_555
C10 C1 1_555 1_555
H8 C10 1_555 1_555
C11 C4 1_555 1_555
C12 C3 1_555 1_555
H9 C12 1_555 1_555
H10 C12 1_555 1_555
C13 C6 1_555 1_555
H11 C13 1_555 1_555
C14 C10 1_555 1_555
H12 C14 1_555 1_555
H13 C14 1_555 1_555
C15 C9 1_555 1_555
H14 C15 1_555 1_555
C16 C7 1_555 1_555
H15 C16 1_555 1_555
H16 C16 1_555 1_555
C17 C5 1_555 1_555
H17 C17 1_555 1_555
H18 C17 1_555 1_555
C18 C2 1_555 1_555
C19 C4 1_555 1_555
H19 C19 1_555 1_555
H20 C19 1_555 1_555
C20 C9 1_555 1_555
H21 C20 1_555 1_555
H22 C20 1_555 1_555
C21 C18 1_555 1_555
H23 C21 1_555 1_555
H24 C21 1_555 1_555
H25 C21 1_555 1_555
C22 C7 1_555 1_555
H26 C22 1_555 1_555
H27 C22 1_555 1_555
H28 C22 1_555 1_555
C23 C18 1_555 1_555
H29 C23 1_555 1_555
H30 C23 1_555 1_555
H31 C23 1_555 1_555
C24 C6 1_555 1_555
H32 C24 1_555 1_555
H33 C24 1_555 1_555
C25 O3 1_555 1_555
O3 H48 1_555 1_555
C26 C2 1_555 1_555
H34 C26 1_555 1_555
H35 C26 1_555 1_555
C27 C4 1_555 1_555
H36 C27 1_555 1_555
H37 C27 1_555 1_555
H38 C27 1_555 1_555
C28 C15 1_555 1_555
O4 C25 1_555 1_555
C29 C13 1_555 1_555
H39 C29 1_555 1_555
H40 C29 1_555 1_555
H41 C29 1_555 1_555
C30 O1 1_555 1_555
C31 C30 1_555 1_555
H42 C31 1_555 1_555
H43 C31 1_555 1_555
H44 C31 1_555 1_555
O5 C30 1_555 1_555
C32 C28 1_555 1_555
H45 C32 1_555 1_555
H46 C32 1_555 1_555
H47 C32 1_555 1_555
C3 C7 1_555 1_555
C3 C18 1_555 1_555
C6 C11 1_555 1_555
C8 C11 1_555 1_555
C11 C14 1_555 1_555
C12 C17 1_555 1_555
C13 C20 1_555 1_555
C16 C26 1_555 1_555
C19 C24 1_555 1_555
C25 C28 1_555 1_555

#END
