
#######################################################################
#
#                 Cambridge Crystallographic Data Centre
#                                CCDC 
#
#######################################################################
#
# If this CIF has been generated from an entry in the Cambridge 
# Structural Database, then it will include bibliographic, chemical, 
# crystal, experimental, refinement or atomic coordinate data resulting 
# from the CCDC's data processing and validation procedures.
#
#######################################################################

data_MARCOA
_chemical_formula_moiety         'C32 H36 N8 O1,H2 O1'
_chemical_name_systematic        
"N'-(4,7,7-trimethyl-3-oxobicyclo[2.2.1]heptan-2-ylidene)-6'-(8,11,11-trimethyl-3,4,6-triazatricyclo[6.2.1.0^2,7^]undeca-2,4,6-trien-5-yl)-2,2'-bipyridine-6-carbohydrazonamide monohydrate"
_symmetry_cell_setting           monoclinic
_symmetry_space_group_name_H-M   'P 21/c'
_symmetry_Int_Tables_number      14
_space_group_name_Hall           '-P 2ybc'
loop_
_symmetry_equiv_pos_site_id
_symmetry_equiv_pos_as_xyz
1 x,y,z
2 -x,1/2+y,1/2-z
3 -x,-y,-z
4 x,1/2-y,1/2+z
_cell_length_a                   7.1556(3)
_cell_length_b                   18.5254(10)
_cell_length_c                   22.1351(13)
_cell_angle_alpha                90
_cell_angle_beta                 98.742(4)
_cell_angle_gamma                90
_cell_volume                     2900.15
_exptl_crystal_colour            yellow
_exptl_crystal_description       needle
_cell_formula_units_Z            4
_chemical_properties_physical    ', Heat-sensitive'
loop_
_atom_site_label
_atom_site_type_symbol
_atom_site_fract_x
_atom_site_fract_y
_atom_site_fract_z
N1 N 0.8267(2) 0.43649(8) 0.08430(7)
N2 N 0.7963(2) 0.50290(8) 0.23541(6)
C1 C 0.8802(2) 0.48042(9) 0.18865(8)
N3 N 0.9077(2) 0.59472(9) 0.37865(7)
N4 N 0.7046(2) 0.36241(9) -0.06637(7)
C2 C 0.7106(3) 0.41331(10) 0.03454(8)
O1 O 1.02856(19) 0.31627(9) -0.20833(7)
N5 N 0.8205(2) 0.35083(9) -0.11087(7)
N6 N 0.6414(2) 0.51886(9) 0.34172(7)
C3 C 0.6351(3) 0.58567(12) 0.42785(9)
C4 C 0.9068(2) 0.52289(9) 0.28718(8)
C5 C 0.7497(2) 0.45707(10) 0.13299(8)
C6 C 0.8049(2) 0.39333(10) -0.01883(8)
N7 N 0.9870(2) 0.40931(10) -0.01353(7)
H1 H 1.0506 0.3991 -0.0435
H2 H 1.0444 0.4301 0.0200
C7 C 0.8095(3) 0.54672(10) 0.33872(8)
C8 C 1.1021(3) 0.52070(10) 0.29419(8)
H3 H 1.1761 0.5356 0.3314
N8 N 0.5476(2) 0.53901(10) 0.38891(8)
C9 C 0.5184(3) 0.40845(15) 0.03214(10)
H4 H 0.4406 0.3906 -0.0033
C10 C 1.0747(3) 0.47614(11) 0.19253(9)
H5 H 1.1301 0.4594 0.1588
C11 C 0.7547(3) 0.31099(11) -0.15577(9)
C12 C 1.1872(3) 0.49649(11) 0.24615(9)
H6 H 1.3210 0.4938 0.2499
C13 C 0.4415(3) 0.43007(18) 0.08239(11)
H7 H 0.3088 0.4271 0.0821
C14 C 0.5281(4) 0.70399(18) 0.46100(15)
H8 H 0.4711 0.7313 0.4921
H9 H 0.4425 0.7064 0.4215
C15 C 0.5677(4) 0.62477(18) 0.48121(13)
H10 H 0.4655 0.6002 0.4997
C16 C 0.7637(4) 0.63135(17) 0.52333(12)
C17 C 0.8464(5) 0.5582(2) 0.54420(15)
H11 H 0.7673 0.5355 0.5713
H12 H 0.9748 0.5647 0.5662
H13 H 0.8503 0.5273 0.5085
C18 C 0.8687(3) 0.29622(11) -0.20606(9)
C19 C 0.8154(3) 0.61318(11) 0.42295(9)
C20 C 0.5568(3) 0.45603(13) 0.13321(9)
H14 H 0.5048 0.4728 0.1677
C21 C 0.7575(5) 0.6784(2) 0.58005(15)
H15 H 0.7001 0.7251 0.5675
H16 H 0.8864 0.6859 0.6014
H17 H 0.6821 0.6541 0.6075
C22 C 0.8627(5) 0.6683(2) 0.47331(17)
C23 C 0.7281(5) 0.73395(16) 0.45483(14)
H18 H 0.7615 0.7754 0.4827
H19 H 0.7342 0.7494 0.4124
C24 C 1.0712(7) 0.6880(3) 0.4884(2)
H20 H 1.0890 0.7225 0.5223
H21 H 1.1135 0.7098 0.4525
H22 H 1.1454 0.6444 0.5002
C25 C 0.815(2) 0.2373(6) -0.3110(6)
H23 H 0.8044 0.2861 -0.3283
H24 H 0.7289 0.2048 -0.3368
H25 H 0.9451 0.2200 -0.3090
C26 C 0.7622(9) 0.2388(3) -0.2467(3)
C27 C 0.4037(10) 0.2067(3) -0.2669(3)
H26 H 0.3947 0.2085 -0.3115
H27 H 0.2819 0.2204 -0.2552
H28 H 0.4368 0.1577 -0.2525
C28 C 0.5956(7) 0.2555(3) -0.1673(2)
H29 H 0.4836 0.2666 -0.1469
C29 C 0.5567(6) 0.2595(2) -0.23802(19)
C30 C 0.5017(7) 0.3346(3) -0.2619(3)
H30 H 0.5927 0.3699 -0.2418
H31 H 0.3750 0.3464 -0.2531
H32 H 0.5018 0.3361 -0.3061
C31 C 0.6757(8) 0.1784(3) -0.1554(3)
H33 H 0.5730 0.1422 -0.1574
H34 H 0.7572 0.1750 -0.1151
C32 C 0.7930(6) 0.1678(2) -0.2089(2)
H35 H 0.9286 0.1607 -0.1928
H36 H 0.7467 0.1255 -0.2342
O2 O 0.7433(2) 0.62513(10) 0.09899(7)
H65 H 0.8138 0.6359 0.1333
H66 H 0.626(2) 0.6250(14) 0.1017(12)
C33? C 0.6052(6) 0.2195(2) -0.2165(2)
C34? C 0.825(2) 0.2204(6) -0.3027(6)
H37? H 0.8959 0.2542 -0.3248
H38? H 0.7295 0.1957 -0.3318
H39? H 0.9126 0.1848 -0.2813
C35? C 0.4362(11) 0.1815(4) -0.2529(4)
H40? H 0.4794 0.1385 -0.2726
H41? H 0.3727 0.2143 -0.2842
H42? H 0.3476 0.1671 -0.2254
C36? C 0.7175(9) 0.1641(3) -0.1756(3)
H43? H 0.6389 0.1446 -0.1468
H44? H 0.8300 0.1870 -0.1528
H45? H 0.7562 0.1248 -0.2007
C37? C 0.5906(6) 0.3217(2) -0.2839(2)
H46? H 0.5103 0.3047 -0.3215
H47? H 0.6605 0.3653 -0.2937
C38? C 0.4683(7) 0.3385(3) -0.2330(2)
H48? H 0.3331 0.3276 -0.2469
H49? H 0.4813 0.3895 -0.2199
C39? C 0.5546(7) 0.2866(3) -0.1809(2)
H50? H 0.4719 0.2768 -0.1493
C40? C 0.7295(10) 0.2617(3) -0.2566(3)
C41? C 0.6930(14) 0.6726(6) 0.4962(5)
C42? C 0.694(2) 0.7118(7) 0.5583(6)
H51? H 0.8004 0.7455 0.5652
H52? H 0.7060 0.6762 0.5913
H53? H 0.5751 0.7385 0.5575
C43? C 0.604(2) 0.7226(7) 0.4469(6)
H54? H 0.4686 0.7270 0.4489
H55? H 0.6214 0.7032 0.4069
H56? H 0.6638 0.7702 0.4526
C44? C 0.895(2) 0.6477(9) 0.4848(8)
C45? C 1.038(3) 0.7042(12) 0.4760(10)
H57? H 1.1499 0.6811 0.4636
H58? H 1.0755 0.7304 0.5144
H59? H 0.9833 0.7380 0.4441
C46? C 0.6125(18) 0.5959(7) 0.4945(6)
H60? H 0.4783 0.5937 0.5020
C47? C 0.9454(16) 0.5906(6) 0.5367(5)
H61? H 1.0339 0.5538 0.5251
H62? H 1.0025 0.6139 0.5754
C48? C 0.7507(17) 0.5567(8) 0.5426(6)
H63? H 0.7507 0.5042 0.5344
H64? H 0.7183 0.5647 0.5840
loop_
_geom_bond_atom_site_label_1
_geom_bond_atom_site_label_2
_geom_bond_site_symmetry_1
_geom_bond_site_symmetry_2
N1 C2 1_555 1_555
N2 C1 1_555 1_555
C1 C5 1_555 1_555
N3 C7 1_555 1_555
N4 N5 1_555 1_555
C2 C6 1_555 1_555
O1 C18 1_555 1_555
N5 C11 1_555 1_555
N6 C7 1_555 1_555
C3 N8 1_555 1_555
C4 N2 1_555 1_555
C5 N1 1_555 1_555
C6 N4 1_555 1_555
N7 C6 1_555 1_555
H1 N7 1_555 1_555
H2 N7 1_555 1_555
C7 C4 1_555 1_555
C8 C4 1_555 1_555
H3 C8 1_555 1_555
N8 N6 1_555 1_555
C9 C2 1_555 1_555
H4 C9 1_555 1_555
C10 C1 1_555 1_555
H5 C10 1_555 1_555
C11 C18 1_555 1_555
C12 C8 1_555 1_555
H6 C12 1_555 1_555
C13 C9 1_555 1_555
H7 C13 1_555 1_555
C14 H8 1_555 1_555
H9 C14 1_555 1_555
C15 C3 1_555 1_555
H10 C15 1_555 1_555
C16 C15 1_555 1_555
C17 C16 1_555 1_555
H11 C17 1_555 1_555
H12 C17 1_555 1_555
H13 C17 1_555 1_555
C18 C26 1_555 1_555
C19 N3 1_555 1_555
C20 C5 1_555 1_555
H14 C20 1_555 1_555
C21 C16 1_555 1_555
H15 C21 1_555 1_555
H16 C21 1_555 1_555
H17 C21 1_555 1_555
C22 C16 1_555 1_555
C23 C14 1_555 1_555
H18 C23 1_555 1_555
H19 C23 1_555 1_555
C24 C22 1_555 1_555
H20 C24 1_555 1_555
H21 C24 1_555 1_555
H22 C24 1_555 1_555
C25 H23 1_555 1_555
H24 C25 1_555 1_555
H25 C25 1_555 1_555
C26 C25 1_555 1_555
C27 H26 1_555 1_555
H27 C27 1_555 1_555
H28 C27 1_555 1_555
C28 C11 1_555 1_555
H29 C28 1_555 1_555
C29 C26 1_555 1_555
C30 C29 1_555 1_555
H30 C30 1_555 1_555
H31 C30 1_555 1_555
H32 C30 1_555 1_555
C31 C28 1_555 1_555
H33 C31 1_555 1_555
H34 C31 1_555 1_555
C32 C26 1_555 1_555
H35 C32 1_555 1_555
H36 C32 1_555 1_555
O2 H65 1_555 1_555
H66 O2 1_555 1_555
C3 C19 1_555 1_555
C10 C12 1_555 1_555
C13 C20 1_555 1_555
C14 C15 1_555 1_555
C19 C22 1_555 1_555
C22 C23 1_555 1_555
C27 C29 1_555 1_555
C28 C29 1_555 1_555
C31 C32 1_555 1_555

#END
