
#######################################################################
#
#                 Cambridge Crystallographic Data Centre
#                                CCDC 
#
#######################################################################
#
# If this CIF has been generated from an entry in the Cambridge 
# Structural Database, then it will include bibliographic, chemical, 
# crystal, experimental, refinement or atomic coordinate data resulting 
# from the CCDC's data processing and validation procedures.
#
#######################################################################

data_MARJAT
_chemical_name_common            
'7-ethyl-10-hydroxycamptothecin N,N-dimethylformamide solvate'
_chemical_formula_moiety         'C22 H20 N2 O5,C3 H7 N1 O1'
_chemical_name_systematic        
"4,11-diethyl-4,9-dihydroxy-1H-pyrano[3',4':6,7]indolizino[1,2-b]quinoline-3,14(4H,12H)-dione N,N-dimethylformamide solvate"
_chemical_properties_biological  'SN38 is an anticancer drug'
_symmetry_cell_setting           orthorhombic
_symmetry_space_group_name_H-M   'P 21 21 21'
_symmetry_Int_Tables_number      19
_space_group_name_Hall           'P 2ac 2ab'
loop_
_symmetry_equiv_pos_site_id
_symmetry_equiv_pos_as_xyz
1 x,y,z
2 1/2+x,1/2-y,-z
3 -x,1/2+y,1/2-z
4 1/2-x,-y,1/2+z
_cell_length_a                   7.0526(5)
_cell_length_b                   8.7052(6)
_cell_length_c                   37.845(3)
_cell_angle_alpha                90
_cell_angle_beta                 90
_cell_angle_gamma                90
_cell_volume                     2323.47
_exptl_crystal_colour            colorless
_exptl_crystal_description       Plate
_cell_formula_units_Z            4
loop_
_atom_site_label
_atom_site_type_symbol
_atom_site_fract_x
_atom_site_fract_y
_atom_site_fract_z
O1 O 0.5631(6) 0.6640(3) -0.14371(6)
H1 H 0.5347 0.7293 -0.1584
N1 N 0.5540(4) 0.9256(3) -0.01060(6)
O2 O 0.5783(4) 0.6207(3) 0.12634(6)
O3 O 0.7605(6) 1.2741(4) 0.16893(9)
O4 O 0.6043(5) 1.2950(3) 0.10402(7)
H2 H 0.6976 1.3357 0.1129
C1 C 0.5562(4) 0.8326(3) 0.01676(8)
N2 N 0.5630(4) 0.7477(3) 0.07372(6)
O5 O 0.6571(5) 1.0400(3) 0.17861(7)
C2 C 0.5597(5) 0.7273(4) -0.11090(9)
C3 C 0.5523(6) 0.8875(4) -0.10619(9)
H3 H 0.5471 0.9518 -0.1258
C4 C 0.5526(6) 0.9488(4) -0.07339(9)
H4 H 0.5514 1.0551 -0.0709
C5 C 0.5547(5) 0.8551(3) -0.04262(8)
C6 C 0.5569(5) 0.8793(3) 0.05359(8)
C7 C 0.5546(5) 1.0195(4) 0.06901(8)
H5 H 0.5506 1.1087 0.0555
C8 C 0.5585(5) 1.0255(3) 0.10616(9)
C9 C 0.5406(6) 1.1761(4) 0.12591(9)
C10 C 0.3310(7) 1.2009(5) 0.13780(12)
H6 H 0.2553 1.2232 0.1170
H7 H 0.2843 1.1055 0.1478
C11 C 0.2996(8) 1.3261(6) 0.16419(14)
H8 H 0.3530 1.2964 0.1865
H9 H 0.1660 1.3437 0.1669
H10 H 0.3596 1.4186 0.1561
C12 C 0.5611(5) 0.6694(3) 0.01510(8)
C13 C 0.5623(5) 0.6067(3) 0.05230(8)
H11 H 0.4503 0.5452 0.0569
H12 H 0.6745 0.5452 0.0567
C14 C 0.5701(4) 0.7451(4) 0.11019(8)
C15 C 0.5670(5) 0.8939(4) 0.12591(8)
C16 C 0.6646(7) 1.1674(5) 0.15907(10)
C17 C 0.5710(7) 0.9021(4) 0.16513(9)
H13 H 0.4421 0.8956 0.1739
H14 H 0.6402 0.8141 0.1741
C18 C 0.5662(6) 0.5978(4) -0.01673(9)
C19 C 0.5600(5) 0.6920(3) -0.04729(8)
C20 C 0.5637(6) 0.6336(4) -0.08229(9)
H15 H 0.5689 0.5279 -0.0857
C21 C 0.5855(12) 0.4261(5) -0.01975(13)
H16 H 0.6293 0.4056 -0.0436
H17 H 0.6882 0.3969 -0.0041
C22 C 0.4539(12) 0.3342(8) -0.0140(4)
H18 H 0.4988 0.2310 -0.0172
H19 H 0.3520 0.3538 -0.0302
H20 H 0.4093 0.3470 0.0098
O6 O 1.0396(7) 0.6477(4) 0.19818(8)
C23 C 0.8874(9) 0.5839(5) 0.20601(12)
H21 H 0.7964 0.5712 0.1885
N3 N 0.8501(8) 0.5340(5) 0.23774(10)
C24 C 0.9841(15) 0.5443(10) 0.26601(15)
H22 H 1.0202 0.4429 0.2733
H23 H 0.9278 0.5978 0.2856
H24 H 1.0943 0.5992 0.2581
C25 C 0.6687(12) 0.4608(11) 0.24459(19)
H25 H 0.5876 0.4733 0.2244
H26 H 0.6106 0.5074 0.2649
H27 H 0.6880 0.3533 0.2490
loop_
_geom_bond_atom_site_label_1
_geom_bond_atom_site_label_2
_geom_bond_site_symmetry_1
_geom_bond_site_symmetry_2
O1 H1 1_555 1_555
N1 C1 1_555 1_555
O2 C14 1_555 1_555
O3 C16 1_555 1_555
O4 H2 1_555 1_555
C1 C6 1_555 1_555
N2 C6 1_555 1_555
O5 C16 1_555 1_555
C2 O1 1_555 1_555
C3 C2 1_555 1_555
H3 C3 1_555 1_555
C4 C3 1_555 1_555
H4 C4 1_555 1_555
C5 N1 1_555 1_555
C6 C7 1_555 1_555
C7 H5 1_555 1_555
C8 C7 1_555 1_555
C9 O4 1_555 1_555
C10 C9 1_555 1_555
H6 C10 1_555 1_555
H7 C10 1_555 1_555
C11 C10 1_555 1_555
H8 C11 1_555 1_555
H9 C11 1_555 1_555
H10 C11 1_555 1_555
C12 C1 1_555 1_555
C13 N2 1_555 1_555
H11 C13 1_555 1_555
H12 C13 1_555 1_555
C14 N2 1_555 1_555
C15 C8 1_555 1_555
C16 C9 1_555 1_555
C17 O5 1_555 1_555
H13 C17 1_555 1_555
H14 C17 1_555 1_555
C18 C12 1_555 1_555
C19 C5 1_555 1_555
C20 C2 1_555 1_555
H15 C20 1_555 1_555
C21 C18 1_555 1_555
H16 C21 1_555 1_555
H17 C21 1_555 1_555
C22 C21 1_555 1_555
H18 C22 1_555 1_555
H19 C22 1_555 1_555
H20 C22 1_555 1_555
O6 C23 1_555 1_555
C23 H21 1_555 1_555
N3 C23 1_555 1_555
C24 N3 1_555 1_555
H22 C24 1_555 1_555
H23 C24 1_555 1_555
H24 C24 1_555 1_555
C25 N3 1_555 1_555
H25 C25 1_555 1_555
H26 C25 1_555 1_555
H27 C25 1_555 1_555
C4 C5 1_555 1_555
C8 C9 1_555 1_555
C12 C13 1_555 1_555
C14 C15 1_555 1_555
C15 C17 1_555 1_555
C18 C19 1_555 1_555
C19 C20 1_555 1_555

#END
