
#######################################################################
#
#                 Cambridge Crystallographic Data Centre
#                                CCDC 
#
#######################################################################
#
# If this CIF has been generated from an entry in the Cambridge 
# Structural Database, then it will include bibliographic, chemical, 
# crystal, experimental, refinement or atomic coordinate data resulting 
# from the CCDC's data processing and validation procedures.
#
#######################################################################

data_MARNOJ
_chemical_formula_moiety         'C42 H27 N9,1.5(C1 H2 Cl2)'
_chemical_name_systematic        
"1,3,5-tris(2-(2'-Pyridyl)benzimidazolyl)benzene dichloromethane solvate"
_symmetry_cell_setting           monoclinic
_symmetry_space_group_name_H-M   'I 2/a'
_symmetry_Int_Tables_number      15
_space_group_name_Hall           '-I 2ya'
loop_
_symmetry_equiv_pos_site_id
_symmetry_equiv_pos_as_xyz
1 x,y,z
2 1/2+x,1/2+y,1/2+z
3 1/2-x,y,-z
4 -x,1/2+y,1/2-z
5 -x,-y,-z
6 1/2-x,1/2-y,1/2-z
7 1/2+x,-y,z
8 x,1/2-y,1/2+z
_cell_length_a                   22.002(5)
_cell_length_b                   13.385(3)
_cell_length_c                   27.273(7)
_cell_angle_alpha                90
_cell_angle_beta                 90.178(6)
_cell_angle_gamma                90
_cell_volume                     8031.77
_exptl_crystal_colour            colorless
_exptl_crystal_description       block
_chemical_melting_point          277-279deg.C
_cell_formula_units_Z            8
_exptl_crystal_recrystallization_method dichloromethane/hexanes
_exptl_crystal_preparation       luminescent
loop_
_atom_site_label
_atom_site_type_symbol
_atom_site_fract_x
_atom_site_fract_y
_atom_site_fract_z
C1 C 0.18897(13) 0.8573(2) 0.15017(11)
C2 C 0.15364(13) 0.7743(2) 0.15948(11)
H1 H 0.1652 0.7285 0.1834
C3 C 0.10113(13) 0.7605(2) 0.13286(11)
C4 C 0.08325(13) 0.8278(2) 0.09678(10)
H2 H 0.0480 0.8175 0.0786
C5 C 0.11911(13) 0.9101(2) 0.08870(10)
C6 C 0.17261(13) 0.9252(2) 0.11438(11)
H3 H 0.1971 0.9800 0.1077
C7 C 0.30610(18) 0.6244(3) 0.11302(17)
H4 H 0.2928 0.6078 0.0817
C8 C 0.34698(19) 0.5611(3) 0.13636(19)
H5 H 0.3609 0.5041 0.1204
C9 C 0.36658(16) 0.5824(3) 0.18250(16)
H6 H 0.3935 0.5399 0.1986
C10 C 0.34593(15) 0.6679(3) 0.20502(14)
H7 H 0.3589 0.6849 0.2364
C11 C 0.30476(14) 0.7288(2) 0.17924(13)
C12 C 0.28496(13) 0.8243(2) 0.20106(12)
C13 C 0.28283(15) 0.9554(3) 0.24630(12)
C14 C 0.29199(18) 1.0267(3) 0.28204(13)
H8 H 0.3224 1.0190 0.3055
C15 C 0.25523(19) 1.1094(3) 0.28221(14)
H9 H 0.2610 1.1580 0.3062
C16 C 0.20943(18) 1.1225(3) 0.24736(14)
H10 H 0.1855 1.1798 0.2481
C17 C 0.19935(15) 1.0506(3) 0.21142(13)
H11 H 0.1687 1.0574 0.1881
C18 C 0.23724(14) 0.9685(2) 0.21214(11)
C19 C -0.01264(17) 0.9020(3) 0.22652(14)
H12 H 0.0107 0.9510 0.2418
C20 C -0.07505(17) 0.9164(3) 0.22368(14)
H13 H -0.0927 0.9750 0.2351
C21 C -0.10980(18) 0.8422(3) 0.20369(14)
H14 H -0.1519 0.8483 0.2025
C22 C -0.08191(16) 0.7584(3) 0.18531(13)
H15 H -0.1048 0.7069 0.1717
C23 C -0.01885(15) 0.7521(3) 0.18741(11)
C24 C 0.01290(15) 0.6647(3) 0.16777(12)
C25 C 0.03754(17) 0.5155(3) 0.14908(12)
C26 C 0.0420(2) 0.4125(3) 0.14365(14)
H16 H 0.0121 0.3709 0.1565
C27 C 0.0903(2) 0.3732(3) 0.11946(14)
H17 H 0.0934 0.3042 0.1161
C28 C 0.1359(2) 0.4353(3) 0.09931(15)
H18 H 0.1687 0.4070 0.0829
C29 C 0.13193(17) 0.5403(3) 0.10412(13)
H19 H 0.1604 0.5833 0.0904
C30 C 0.08254(16) 0.5748(3) 0.13069(12)
C31 C 0.03728(17) 1.1220(3) 0.17982(12)
H20 H 0.0572 1.1151 0.2098
C32 C -0.01842(17) 1.1692(3) 0.17914(13)
H21 H -0.0359 1.1921 0.2081
C33 C -0.04736(16) 1.1818(3) 0.13546(14)
H22 H -0.0847 1.2142 0.1341
C34 C -0.02080(15) 1.1458(2) 0.09306(13)
H23 H -0.0397 1.1538 0.0628
C35 C 0.03478(13) 1.0976(2) 0.09696(11)
C36 C 0.06421(13) 1.0608(2) 0.05218(11)
C37 C 0.09403(14) 1.0497(2) -0.02247(11)
C38 C 0.10583(17) 1.0640(3) -0.07226(12)
H24 H 0.0874 1.1156 -0.0897
C39 C 0.14582(16) 0.9988(3) -0.09477(12)
H25 H 0.1545 1.0070 -0.1279
C40 C 0.17331(15) 0.9216(3) -0.06908(12)
H26 H 0.1996 0.8788 -0.0855
C41 C 0.16262(14) 0.9064(2) -0.01946(11)
H27 H 0.1812 0.8549 -0.0021
C42 C 0.12265(13) 0.9725(2) 0.00253(10)
N1 N 0.23840(11) 0.88256(19) 0.18247(9)
N2 N 0.06639(12) 0.6727(2) 0.14326(9)
N3 N 0.10311(11) 0.98003(18) 0.05075(8)
N4 N 0.31300(12) 0.8647(2) 0.23802(10)
N5 N -0.00725(13) 0.5730(2) 0.17240(10)
N6 N 0.05754(12) 1.1043(2) 0.00919(9)
N7 N 0.28506(13) 0.7079(2) 0.13344(12)
N8 N 0.01562(13) 0.8224(2) 0.20878(10)
N9 N 0.06440(12) 1.0854(2) 0.13950(10)
C43 C 0.5214(3) 0.6491(3) 0.00528(17)
H28 H 0.5350 0.7132 0.0178
H29 H 0.5387 0.5972 0.0259
Cl1 Cl 0.54711(8) 0.63402(12) -0.05471(5)
Cl2 Cl 0.44165(8) 0.64295(11) 0.00768(6)
C44 C 0.2580(13) 1.199(3) 0.0474(19)
Cl3 Cl 0.2924(3) 1.3042(8) 0.0917(4)
Cl5 Cl 0.1914(6) 1.1877(10) 0.0584(9)
Cl4? Cl 0.2197(8) 1.1885(11) 0.0674(13)
Cl6? Cl 0.2894(18) 1.263(3) 0.0364(16)
Cl7? Cl 0.2017(12) 1.2244(19) 0.0233(13)
Cl8? Cl 0.2494(10) 1.2082(11) 0.1074(5)
loop_
_geom_bond_atom_site_label_1
_geom_bond_atom_site_label_2
_geom_bond_site_symmetry_1
_geom_bond_site_symmetry_2
C1 C2 1_555 1_555
C2 H1 1_555 1_555
C3 C2 1_555 1_555
C4 C3 1_555 1_555
H2 C4 1_555 1_555
C5 C4 1_555 1_555
C6 C1 1_555 1_555
H3 C6 1_555 1_555
C7 H4 1_555 1_555
C8 C7 1_555 1_555
H5 C8 1_555 1_555
C9 C8 1_555 1_555
H6 C9 1_555 1_555
C10 C9 1_555 1_555
H7 C10 1_555 1_555
C11 C10 1_555 1_555
C12 C11 1_555 1_555
C13 C14 1_555 1_555
C14 H8 1_555 1_555
C15 C14 1_555 1_555
H9 C15 1_555 1_555
C16 C15 1_555 1_555
H10 C16 1_555 1_555
C17 C16 1_555 1_555
H11 C17 1_555 1_555
C18 C13 1_555 1_555
C19 H12 1_555 1_555
C20 C19 1_555 1_555
H13 C20 1_555 1_555
C21 C20 1_555 1_555
H14 C21 1_555 1_555
C22 C21 1_555 1_555
H15 C22 1_555 1_555
C23 C22 1_555 1_555
C24 C23 1_555 1_555
C25 C26 1_555 1_555
C26 H16 1_555 1_555
C27 C26 1_555 1_555
H17 C27 1_555 1_555
C28 C27 1_555 1_555
H18 C28 1_555 1_555
C29 C28 1_555 1_555
H19 C29 1_555 1_555
C30 C25 1_555 1_555
C31 H20 1_555 1_555
C32 C31 1_555 1_555
H21 C32 1_555 1_555
C33 C32 1_555 1_555
H22 C33 1_555 1_555
C34 C33 1_555 1_555
H23 C34 1_555 1_555
C35 C34 1_555 1_555
C36 C35 1_555 1_555
C37 C38 1_555 1_555
C38 H24 1_555 1_555
C39 C38 1_555 1_555
H25 C39 1_555 1_555
C40 C39 1_555 1_555
H26 C40 1_555 1_555
C41 C40 1_555 1_555
H27 C41 1_555 1_555
C42 C37 1_555 1_555
C43 H28 1_555 1_555
H29 C43 1_555 1_555
C44 Cl3 1_555 1_555
N1 C1 1_555 1_555
N2 C3 1_555 1_555
N3 C5 1_555 1_555
N4 C12 1_555 1_555
N5 C24 1_555 1_555
N6 C36 1_555 1_555
N7 C7 1_555 1_555
N8 C19 1_555 1_555
N9 C31 1_555 1_555
Cl1 C43 1_555 1_555
Cl2 C43 1_555 1_555
Cl5 C44 1_555 1_555
C5 C6 1_555 1_555
C11 N7 1_555 1_555
C12 N1 1_555 1_555
C13 N4 1_555 1_555
C17 C18 1_555 1_555
C18 N1 1_555 1_555
C23 N8 1_555 1_555
C24 N2 1_555 1_555
C25 N5 1_555 1_555
C29 C30 1_555 1_555
C30 N2 1_555 1_555
C35 N9 1_555 1_555
C36 N3 1_555 1_555
C37 N6 1_555 1_555
C41 C42 1_555 1_555
C42 N3 1_555 1_555

#END
