
#######################################################################
#
#                 Cambridge Crystallographic Data Centre
#                                CCDC 
#
#######################################################################
#
# If this CIF has been generated from an entry in the Cambridge 
# Structural Database, then it will include bibliographic, chemical, 
# crystal, experimental, refinement or atomic coordinate data resulting 
# from the CCDC's data processing and validation procedures.
#
#######################################################################

data_MARNEZ
_chemical_formula_moiety         'C30 H20 N6,2(C1 H1 Cl3)'
_chemical_name_systematic        
"1,4-bis(2-(2'-Pyridyl)benzimidazolyl)benzene chloroform solvate"
_symmetry_cell_setting           monoclinic
_symmetry_space_group_name_H-M   'P 21/c'
_symmetry_Int_Tables_number      14
_space_group_name_Hall           '-P 2ybc'
loop_
_symmetry_equiv_pos_site_id
_symmetry_equiv_pos_as_xyz
1 x,y,z
2 -x,1/2+y,1/2-z
3 -x,-y,-z
4 x,1/2-y,1/2+z
_cell_length_a                   9.4513(18)
_cell_length_b                   20.766(4)
_cell_length_c                   8.6353(16)
_cell_angle_alpha                90
_cell_angle_beta                 110.685(3)
_cell_angle_gamma                90
_cell_volume                     1585.56
_exptl_crystal_colour            colorless
_exptl_crystal_description       plate
_chemical_melting_point          229-230deg.C
_cell_formula_units_Z            2
_exptl_crystal_recrystallization_method chloroform/hexanes
_exptl_crystal_preparation       luminescent
loop_
_atom_site_label
_atom_site_type_symbol
_atom_site_fract_x
_atom_site_fract_y
_atom_site_fract_z
N1 N 0.68739(17) 0.48415(7) 0.34330(18)
N2 N 0.45178(18) 0.44817(8) 0.28912(19)
N3 N 0.7810(2) 0.35292(8) 0.4540(2)
C1 C 0.9107(2) 0.48848(9) 0.5923(2)
H1 H 0.8502 0.4810 0.6550
C2 C 0.8475(2) 0.49150(8) 0.4233(2)
C3 C 0.9356(2) 0.50340(9) 0.3310(2)
H2 H 0.8919 0.5060 0.2164
C4 C 0.8309(3) 0.29916(11) 0.5390(3)
H3 H 0.9204 0.2816 0.5360
C5 C 0.7608(3) 0.26801(11) 0.6299(3)
H4 H 0.8015 0.2306 0.6876
C6 C 0.6297(3) 0.29303(11) 0.6344(3)
H5 H 0.5785 0.2729 0.6952
C7 C 0.5736(2) 0.34848(10) 0.5480(3)
H6 H 0.4835 0.3663 0.5486
C8 C 0.6525(2) 0.37704(9) 0.4609(2)
C9 C 0.5953(2) 0.43638(9) 0.3663(2)
C10 C 0.4465(2) 0.50607(9) 0.2076(2)
C11 C 0.3236(2) 0.53965(11) 0.1040(2)
H7 H 0.2255 0.5248 0.0812
C12 C 0.3510(3) 0.59555(11) 0.0359(3)
H8 H 0.2701 0.6185 -0.0365
C13 C 0.4958(3) 0.61869(10) 0.0719(3)
H9 H 0.5097 0.6572 0.0244
C14 C 0.6201(2) 0.58657(9) 0.1759(2)
H10 H 0.7176 0.6026 0.2014
C15 C 0.5924(2) 0.52924(9) 0.2402(2)
N1B N 1.31261(17) 0.51585(7) 0.65670(18)
N2B N 1.54822(18) 0.55183(8) 0.71088(19)
N3B N 1.2190(2) 0.64708(8) 0.5460(2)
C1B C 1.0893(2) 0.51152(9) 0.4077(2)
H1B H 1.1498 0.5190 0.3450
C2B C 1.1525(2) 0.50850(8) 0.5767(2)
C3B C 1.0644(2) 0.49660(9) 0.6690(2)
H2B H 1.1081 0.4940 0.7836
C4B C 1.1691(3) 0.70084(11) 0.4610(3)
H3B H 1.0796 0.7184 0.4640
C5B C 1.2392(3) 0.73199(11) 0.3701(3)
H4B H 1.1985 0.7694 0.3124
C6B C 1.3703(3) 0.70697(11) 0.3656(3)
H5B H 1.4215 0.7271 0.3048
C7B C 1.4264(2) 0.65152(10) 0.4520(3)
H6B H 1.5165 0.6337 0.4514
C8B C 1.3475(2) 0.62296(9) 0.5391(2)
C9B C 1.4047(2) 0.56362(9) 0.6337(2)
C10B C 1.5535(2) 0.49393(9) 0.7924(2)
C11B C 1.6764(2) 0.46035(11) 0.8960(2)
H7B H 1.7745 0.4752 0.9188
C12B C 1.6490(3) 0.40445(11) 0.9641(3)
H8B H 1.7299 0.3815 1.0365
C13B C 1.5042(3) 0.38131(10) 0.9281(3)
H9B H 1.4903 0.3428 0.9756
C14B C 1.3799(2) 0.41343(9) 0.8241(2)
H10B H 1.2824 0.3974 0.7986
C15B C 1.4076(2) 0.47076(9) 0.7598(2)
C16 C 1.1863(3) 0.34420(13) 0.1797(3)
H11 H 1.263(3) 0.3736(13) 0.207(3)
Cl1 Cl 1.0652(9) 0.3552(3) -0.0278(9)
Cl2 Cl 1.2634(5) 0.2655(2) 0.1921(5)
Cl3 Cl 1.0920(5) 0.34968(18) 0.3161(6)
Cl4? Cl 1.0545(9) 0.3764(3) 0.0073(9)
Cl5? Cl 1.2605(8) 0.2762(3) 0.1499(8)
Cl6? Cl 1.1104(7) 0.3413(3) 0.3299(7)
loop_
_geom_bond_atom_site_label_1
_geom_bond_atom_site_label_2
_geom_bond_site_symmetry_1
_geom_bond_site_symmetry_2
N1 C2 1_555 1_555
N2 C9 1_555 1_555
N3 C4 1_555 1_555
C1 H1 1_555 1_555
C2 C1 1_555 1_555
C3 C2 1_555 1_555
H2 C3 1_555 1_555
C4 H3 1_555 1_555
C5 C4 1_555 1_555
H4 C5 1_555 1_555
C6 C5 1_555 1_555
H5 C6 1_555 1_555
C7 C6 1_555 1_555
H6 C7 1_555 1_555
C8 N3 1_555 1_555
C9 N1 1_555 1_555
C10 N2 1_555 1_555
C11 C10 1_555 1_555
H7 C11 1_555 1_555
C12 C11 1_555 1_555
H8 C12 1_555 1_555
C13 C12 1_555 1_555
H9 C13 1_555 1_555
C14 C13 1_555 1_555
H10 C14 1_555 1_555
C15 N1 1_555 1_555
C16 H11 1_555 1_555
Cl1 C16 1_555 1_555
Cl2 C16 1_555 1_555
Cl3 C16 1_555 1_555
N1B C2B 1_555 1_555
N2B C9B 1_555 1_555
N3B C4B 1_555 1_555
C1B C3 1_555 1_555
H1B C1B 1_555 1_555
C2B C1B 1_555 1_555
C3B C1 1_555 1_555
H2B C3B 1_555 1_555
C4B H3B 1_555 1_555
C5B C4B 1_555 1_555
H4B C5B 1_555 1_555
C6B C5B 1_555 1_555
H5B C6B 1_555 1_555
C7B C6B 1_555 1_555
H6B C7B 1_555 1_555
C8B N3B 1_555 1_555
C9B N1B 1_555 1_555
C10B N2B 1_555 1_555
C11B C10B 1_555 1_555
H7B C11B 1_555 1_555
C12B C11B 1_555 1_555
H8B C12B 1_555 1_555
C13B C12B 1_555 1_555
H9B C13B 1_555 1_555
C14B C13B 1_555 1_555
H10B C14B 1_555 1_555
C15B N1B 1_555 1_555
C7 C8 1_555 1_555
C8 C9 1_555 1_555
C10 C15 1_555 1_555
C14 C15 1_555 1_555
C2B C3B 1_555 1_555
C7B C8B 1_555 1_555
C8B C9B 1_555 1_555
C10B C15B 1_555 1_555
C14B C15B 1_555 1_555

#END
