
#######################################################################
#
#                 Cambridge Crystallographic Data Centre
#                                CCDC 
#
#######################################################################
#
# If this CIF has been generated from an entry in the Cambridge 
# Structural Database, then it will include bibliographic, chemical, 
# crystal, experimental, refinement or atomic coordinate data resulting 
# from the CCDC's data processing and validation procedures.
#
#######################################################################

data_MARNID
_chemical_formula_moiety         'C36 H24 N6,2(C1 H1 Cl3)'
_chemical_name_systematic        
"4,4'-bis(2-(2'-Pyridyl)benzimidazolyl)biphenyl chloroform solvate"
_symmetry_cell_setting           monoclinic
_symmetry_space_group_name_H-M   'P 21/c'
_symmetry_Int_Tables_number      14
_space_group_name_Hall           '-P 2ybc'
loop_
_symmetry_equiv_pos_site_id
_symmetry_equiv_pos_as_xyz
1 x,y,z
2 -x,1/2+y,1/2-z
3 -x,-y,-z
4 x,1/2-y,1/2+z
_cell_length_a                   6.158(3)
_cell_length_b                   32.742(18)
_cell_length_c                   9.152(5)
_cell_angle_alpha                90
_cell_angle_beta                 96.325(12)
_cell_angle_gamma                90
_cell_volume                     1834.04
_exptl_crystal_colour            colorless
_exptl_crystal_description       plate
_chemical_melting_point          'above 300deg.C'
_cell_formula_units_Z            2
_exptl_crystal_preparation       luminescent
loop_
_atom_site_label
_atom_site_type_symbol
_atom_site_fract_x
_atom_site_fract_y
_atom_site_fract_z
N1 N 0.1098(6) 0.58679(10) 0.4469(4)
N2 N 0.0684(6) 0.62764(11) 0.6360(4)
N3 N -0.2337(7) 0.63527(14) 0.2797(5)
C1 C 0.0127(7) 0.51348(13) 0.0656(5)
C2 C 0.1779(11) 0.5418(2) 0.0857(6)
H1 H 0.2744 0.5443 0.0148
C3 C 0.2047(11) 0.5666(2) 0.2076(6)
H2 H 0.3174 0.5857 0.2178
C4 C 0.0654(7) 0.56338(14) 0.3145(5)
C5 C -0.0900(7) 0.53389(17) 0.2986(6)
H3 H -0.1794 0.5299 0.3729
C6 C -0.1175(7) 0.51039(16) 0.1781(6)
H4 H -0.2294 0.4912 0.1701
C7 C 0.2831(7) 0.57841(13) 0.5545(5)
C8 C 0.4529(8) 0.55137(15) 0.5548(6)
H5 H 0.4670 0.5338 0.4765
C9 C 0.5995(8) 0.55194(18) 0.6774(7)
H6 H 0.7210 0.5350 0.6808
C10 C 0.5763(8) 0.57637(17) 0.7956(7)
H7 H 0.6793 0.5754 0.8779
C11 C 0.3996(8) 0.60260(17) 0.7932(6)
H8 H 0.3817 0.6191 0.8738
C12 C 0.2515(8) 0.60379(14) 0.6700(5)
C13 C -0.0150(7) 0.61696(13) 0.5052(5)
C14 C -0.2065(8) 0.63582(14) 0.4277(6)
C15 C -0.3532(9) 0.65608(16) 0.5094(6)
H9 H -0.3293 0.6564 0.6115
C16 C -0.5279(9) 0.67492(17) 0.4399(8)
H10 H -0.6260 0.6886 0.4927
C17 C -0.5591(9) 0.67359(18) 0.2894(9)
H11 H -0.6805 0.6859 0.2382
C18 C -0.4109(11) 0.65405(18) 0.2170(6)
H12 H -0.4347 0.6537 0.1149
N1B N -0.1098(6) 0.41321(10) -0.4469(4)
N2B N -0.0684(6) 0.37236(11) -0.6360(4)
N3B N 0.2337(7) 0.36473(14) -0.2797(5)
C1B C -0.0127(7) 0.48652(13) -0.0656(5)
C2B C -0.1779(11) 0.4582(2) -0.0857(6)
H1B H -0.2744 0.4557 -0.0148
C3B C -0.2047(11) 0.4334(2) -0.2076(6)
H2B H -0.3174 0.4143 -0.2178
C4B C -0.0654(7) 0.43662(14) -0.3145(5)
C5B C 0.0900(7) 0.46611(17) -0.2986(6)
H3B H 0.1794 0.4701 -0.3729
C6B C 0.1175(7) 0.48961(16) -0.1781(6)
H4B H 0.2294 0.5088 -0.1701
C7B C -0.2831(7) 0.42159(13) -0.5545(5)
C8B C -0.4529(8) 0.44863(15) -0.5548(6)
H5B H -0.4670 0.4662 -0.4765
C9B C -0.5995(8) 0.44806(18) -0.6774(7)
H6B H -0.7210 0.4650 -0.6808
C10B C -0.5763(8) 0.42363(17) -0.7956(7)
H7B H -0.6793 0.4246 -0.8779
C11B C -0.3996(8) 0.39740(17) -0.7932(6)
H8B H -0.3817 0.3809 -0.8738
C12B C -0.2515(8) 0.39621(14) -0.6700(5)
C13B C 0.0150(7) 0.38304(13) -0.5052(5)
C14B C 0.2065(8) 0.36418(14) -0.4277(6)
C15B C 0.3532(9) 0.34392(16) -0.5094(6)
H9B H 0.3293 0.3436 -0.6115
C16B C 0.5279(9) 0.32508(17) -0.4399(8)
H10B H 0.6260 0.3114 -0.4927
C17B C 0.5591(9) 0.32641(18) -0.2894(9)
H11B H 0.6805 0.3141 -0.2382
C18B C 0.4109(11) 0.34595(18) -0.2170(6)
H12B H 0.4347 0.3463 -0.1149
C19 C 0.0470(9) 0.70552(17) 0.8368(6)
H13 H 0.0211 0.6896 0.7459
Cl1 Cl 0.3240(3) 0.71663(6) 0.8650(2)
Cl2 Cl -0.0271(3) 0.67532(7) 0.9792(2)
Cl3 Cl -0.1087(4) 0.74873(8) 0.8148(4)
loop_
_geom_bond_atom_site_label_1
_geom_bond_atom_site_label_2
_geom_bond_site_symmetry_1
_geom_bond_site_symmetry_2
N1 C4 1_555 1_555
N2 C12 1_555 1_555
N3 C14 1_555 1_555
C1 C2 1_555 1_555
C2 H1 1_555 1_555
C3 C2 1_555 1_555
H2 C3 1_555 1_555
C4 C3 1_555 1_555
C5 C4 1_555 1_555
H3 C5 1_555 1_555
C6 C1 1_555 1_555
H4 C6 1_555 1_555
C7 N1 1_555 1_555
C8 C7 1_555 1_555
H5 C8 1_555 1_555
C9 C8 1_555 1_555
H6 C9 1_555 1_555
C10 C9 1_555 1_555
H7 C10 1_555 1_555
C11 C10 1_555 1_555
H8 C11 1_555 1_555
C12 C7 1_555 1_555
C13 N1 1_555 1_555
C14 C13 1_555 1_555
C15 C14 1_555 1_555
H9 C15 1_555 1_555
C16 C15 1_555 1_555
H10 C16 1_555 1_555
C17 C16 1_555 1_555
H11 C17 1_555 1_555
C18 N3 1_555 1_555
H12 C18 1_555 1_555
C19 H13 1_555 1_555
Cl1 C19 1_555 1_555
Cl2 C19 1_555 1_555
Cl3 C19 1_555 1_555
N1B C4B 1_555 1_555
N2B C12B 1_555 1_555
N3B C14B 1_555 1_555
C1B C1 1_555 1_555
C2B C1B 1_555 1_555
H1B C2B 1_555 1_555
C3B C2B 1_555 1_555
H2B C3B 1_555 1_555
C4B C3B 1_555 1_555
C5B C4B 1_555 1_555
H3B C5B 1_555 1_555
C6B C1B 1_555 1_555
H4B C6B 1_555 1_555
C7B N1B 1_555 1_555
C8B C7B 1_555 1_555
H5B C8B 1_555 1_555
C9B C8B 1_555 1_555
H6B C9B 1_555 1_555
C10B C9B 1_555 1_555
H7B C10B 1_555 1_555
C11B C10B 1_555 1_555
H8B C11B 1_555 1_555
C12B C7B 1_555 1_555
C13B N1B 1_555 1_555
C14B C13B 1_555 1_555
C15B C14B 1_555 1_555
H9B C15B 1_555 1_555
C16B C15B 1_555 1_555
H10B C16B 1_555 1_555
C17B C16B 1_555 1_555
H11B C17B 1_555 1_555
C18B N3B 1_555 1_555
H12B C18B 1_555 1_555
N2 C13 1_555 1_555
C5 C6 1_555 1_555
C11 C12 1_555 1_555
C17 C18 1_555 1_555
N2B C13B 1_555 1_555
C5B C6B 1_555 1_555
C11B C12B 1_555 1_555
C17B C18B 1_555 1_555

#END
