
#######################################################################
#
#                 Cambridge Crystallographic Data Centre
#                                CCDC 
#
#######################################################################
#
# If this CIF has been generated from an entry in the Cambridge 
# Structural Database, then it will include bibliographic, chemical, 
# crystal, experimental, refinement or atomic coordinate data resulting 
# from the CCDC's data processing and validation procedures.
#
#######################################################################

data_MARPIG
_chemical_formula_moiety         'C22 H28 N2 O6'
_chemical_name_systematic        
2,2'-(3,8-Dioxa-2,9-diazadeca-1,9-diene-1,10-diyl)bis(6-ethoxyphenol)
_symmetry_cell_setting           monoclinic
_symmetry_space_group_name_H-M   'P 21/n'
_symmetry_Int_Tables_number      14
_space_group_name_Hall           '-P 2yn'
loop_
_symmetry_equiv_pos_site_id
_symmetry_equiv_pos_as_xyz
1 x,y,z
2 1/2-x,1/2+y,1/2-z
3 -x,-y,-z
4 1/2+x,1/2-y,1/2+z
_cell_length_a                   4.6719(5)
_cell_length_b                   18.0917(17)
_cell_length_c                   12.4084(11)
_cell_angle_alpha                90
_cell_angle_beta                 93.9140(10)
_cell_angle_gamma                90
_cell_volume                     1046.34
_exptl_crystal_colour            colorless
_exptl_crystal_description       needle-like
_cell_formula_units_Z            2
loop_
_atom_site_label
_atom_site_type_symbol
_atom_site_fract_x
_atom_site_fract_y
_atom_site_fract_z
N1 N 0.5856(4) 0.32014(8) 0.53137(14)
O1 O 0.7795(3) 0.37791(7) 0.55476(11)
O2 O 0.2814(3) 0.22309(7) 0.41743(10)
H1 H 0.3996 0.2563 0.4271
O3 O -0.0917(3) 0.11847(8) 0.41087(11)
C1 C 0.8939(5) 0.40123(10) 0.45648(16)
H2 H 0.7396 0.4144 0.4037
H3 H 1.0047 0.3616 0.4269
C2 C 1.0813(4) 0.46675(9) 0.48178(16)
H4 H 1.1790 0.4799 0.4180
H5 H 1.2263 0.4534 0.5381
C3 C 0.4806(5) 0.29582(10) 0.61643(17)
H6 H 0.5395 0.3160 0.6832
C4 C 0.2708(4) 0.23713(10) 0.61015(16)
C5 C 0.1798(4) 0.20367(10) 0.51351(16)
C6 C -0.0232(5) 0.14707(10) 0.50987(17)
C7 C -0.1347(5) 0.12533(11) 0.60424(17)
H7 H -0.2704 0.0877 0.6032
C8 C -0.0471(5) 0.15888(12) 0.70044(18)
H8 H -0.1252 0.1439 0.7639
C9 C 0.1526(5) 0.21366(11) 0.70368(16)
H9 H 0.2105 0.2356 0.7694
C10 C -0.3046(5) 0.06247(11) 0.40199(18)
H10 H -0.4834 0.0807 0.4273
H11 H -0.2436 0.0199 0.4451
C11 C -0.3437(6) 0.04196(13) 0.2866(2)
H12 H -0.4264 0.0828 0.2460
H13 H -0.4691 0.0000 0.2785
H14 H -0.1611 0.0298 0.2602
N1B N 1.4144(4) 0.67986(8) 0.46863(14)
O1B O 1.2205(3) 0.62209(7) 0.44524(11)
O2B O 1.7186(3) 0.77691(7) 0.58257(10)
H1B H 1.6004 0.7437 0.5729
O3B O 2.0917(3) 0.88153(8) 0.58913(11)
C1B C 1.1061(5) 0.59877(10) 0.54352(16)
H2B H 1.2604 0.5856 0.5963
H3B H 0.9953 0.6384 0.5731
C2B C 0.9187(4) 0.53325(9) 0.51822(16)
H4B H 0.8210 0.5201 0.5820
H5B H 0.7737 0.5466 0.4619
C3B C 1.5194(5) 0.70418(10) 0.38357(17)
H6B H 1.4605 0.6840 0.3168
C4B C 1.7292(4) 0.76287(10) 0.38985(16)
C5B C 1.8202(4) 0.79633(10) 0.48649(16)
C6B C 2.0232(5) 0.85293(10) 0.49013(17)
C7B C 2.1347(5) 0.87467(11) 0.39576(17)
H7B H 2.2704 0.9123 0.3968
C8B C 2.0471(5) 0.84112(12) 0.29956(18)
H8B H 2.1252 0.8561 0.2361
C9B C 1.8474(5) 0.78634(11) 0.29632(16)
H9B H 1.7895 0.7644 0.2306
C10B C 2.3046(5) 0.93753(11) 0.59801(18)
H10B H 2.4834 0.9193 0.5727
H11B H 2.2436 0.9801 0.5549
C11B C 2.3437(6) 0.95804(13) 0.7134(2)
H12B H 2.4264 0.9172 0.7540
H13B H 2.4691 1.0000 0.7215
H14B H 2.1611 0.9702 0.7398
loop_
_geom_bond_atom_site_label_1
_geom_bond_atom_site_label_2
_geom_bond_site_symmetry_1
_geom_bond_site_symmetry_2
N1 O1 1_555 1_555
O1 C1 1_555 1_555
O2 H1 1_555 1_555
O3 C6 1_555 1_555
C1 H2 1_555 1_555
H3 C1 1_555 1_555
C2 C1 1_555 1_555
H4 C2 1_555 1_555
H5 C2 1_555 1_555
C3 N1 1_555 1_555
H6 C3 1_555 1_555
C4 C3 1_555 1_555
C5 O2 1_555 1_555
C6 C5 1_555 1_555
C7 C6 1_555 1_555
H7 C7 1_555 1_555
C8 C7 1_555 1_555
H8 C8 1_555 1_555
C9 C4 1_555 1_555
H9 C9 1_555 1_555
C10 O3 1_555 1_555
H10 C10 1_555 1_555
H11 C10 1_555 1_555
C11 C10 1_555 1_555
H12 C11 1_555 1_555
H13 C11 1_555 1_555
H14 C11 1_555 1_555
N1B O1B 1_555 1_555
O1B C1B 1_555 1_555
O2B H1B 1_555 1_555
O3B C6B 1_555 1_555
C1B H2B 1_555 1_555
H3B C1B 1_555 1_555
C2B C2 1_555 1_555
H4B C2B 1_555 1_555
H5B C2B 1_555 1_555
C3B N1B 1_555 1_555
H6B C3B 1_555 1_555
C4B C3B 1_555 1_555
C5B O2B 1_555 1_555
C6B C5B 1_555 1_555
C7B C6B 1_555 1_555
H7B C7B 1_555 1_555
C8B C7B 1_555 1_555
H8B C8B 1_555 1_555
C9B C4B 1_555 1_555
H9B C9B 1_555 1_555
C10B O3B 1_555 1_555
H10B C10B 1_555 1_555
H11B C10B 1_555 1_555
C11B C10B 1_555 1_555
H12B C11B 1_555 1_555
H13B C11B 1_555 1_555
H14B C11B 1_555 1_555
C4 C5 1_555 1_555
C8 C9 1_555 1_555
C1B C2B 1_555 1_555
C4B C5B 1_555 1_555
C8B C9B 1_555 1_555

#END
