
#######################################################################
#
#                 Cambridge Crystallographic Data Centre
#                                CCDC 
#
#######################################################################
#
# If this CIF has been generated from an entry in the Cambridge 
# Structural Database, then it will include bibliographic, chemical, 
# crystal, experimental, refinement or atomic coordinate data resulting 
# from the CCDC's data processing and validation procedures.
#
#######################################################################

data_MARQIH
_chemical_formula_moiety         'C11 H14 O5'
_chemical_name_systematic        
'Methyl 2,3-dihydroxy-3-(4-methoxyphenyl)propanoate'
_symmetry_cell_setting           monoclinic
_symmetry_space_group_name_H-M   'P 21'
_symmetry_Int_Tables_number      4
_space_group_name_Hall           'P 2yb'
loop_
_symmetry_equiv_pos_site_id
_symmetry_equiv_pos_as_xyz
1 x,y,z
2 -x,1/2+y,-z
_cell_length_a                   7.7699(15)
_cell_length_b                   5.7057(11)
_cell_length_c                   12.719(2)
_cell_angle_alpha                90
_cell_angle_beta                 101.316(3)
_cell_angle_gamma                90
_cell_volume                     552.906
_exptl_crystal_colour            colorless
_exptl_crystal_description       block
_cell_formula_units_Z            2
loop_
_atom_site_label
_atom_site_type_symbol
_atom_site_fract_x
_atom_site_fract_y
_atom_site_fract_z
C1 C 0.2203(4) -0.1858(7) -0.08416(19)
H1 H 0.0953 -0.2036 -0.0935
H2 H 0.2772 -0.3191 -0.0464
H3 H 0.2526 -0.1743 -0.1531
C2 C 0.2408(3) 0.0327(4) 0.07739(15)
C3 C 0.1517(3) -0.1386(4) 0.12325(16)
H4 H 0.1076 -0.2702 0.0839
C4 C 0.1288(3) -0.1119(4) 0.22792(15)
H5 H 0.0692 -0.2272 0.2582
C5 C 0.1923(2) 0.0820(4) 0.28843(15)
C6 C 0.2782(3) 0.2543(4) 0.24046(15)
H6 H 0.3195 0.3881 0.2791
C7 C 0.3029(3) 0.2293(4) 0.13687(16)
H7 H 0.3616 0.3453 0.1065
C8 C 0.1740(3) 0.1083(4) 0.40415(14)
H8 H 0.1949 0.2724 0.4257
C9 C 0.3026(2) -0.0475(3) 0.48042(14)
H9 H 0.4214 -0.0149 0.4690
C10 C 0.2956(2) 0.0155(4) 0.59611(14)
C11 C 0.3694(3) 0.3026(5) 0.73094(17)
H10 H 0.4497 0.2095 0.7811
H11 H 0.2536 0.2889 0.7462
H12 H 0.4057 0.4637 0.7371
O1 O 0.36832(18) 0.2206(3) 0.62292(11)
O2 O 0.2315(2) -0.1044(3) 0.65557(11)
O3 O 0.26857(18) -0.2877(3) 0.46187(11)
H13 H 0.1655 -0.3150 0.4634
O4 O 0.00445(16) 0.0402(3) 0.42073(10)
H14 H -0.0688 0.1355 0.3919
O5 O 0.2733(2) 0.0213(4) -0.02410(11)
loop_
_geom_bond_atom_site_label_1
_geom_bond_atom_site_label_2
_geom_bond_site_symmetry_1
_geom_bond_site_symmetry_2
C1 H1 1_555 1_555
H2 C1 1_555 1_555
H3 C1 1_555 1_555
C2 C3 1_555 1_555
C3 H4 1_555 1_555
C4 C3 1_555 1_555
H5 C4 1_555 1_555
C5 C4 1_555 1_555
C6 C5 1_555 1_555
H6 C6 1_555 1_555
C7 C2 1_555 1_555
H7 C7 1_555 1_555
C8 C5 1_555 1_555
H8 C8 1_555 1_555
C9 C8 1_555 1_555
H9 C9 1_555 1_555
C10 C9 1_555 1_555
C11 H10 1_555 1_555
H11 C11 1_555 1_555
H12 C11 1_555 1_555
O1 C10 1_555 1_555
O2 C10 1_555 1_555
O3 C9 1_555 1_555
H13 O3 1_555 1_555
O4 C8 1_555 1_555
H14 O4 1_555 1_555
O5 C1 1_555 1_555
C2 O5 1_555 1_555
C6 C7 1_555 1_555
C11 O1 1_555 1_555

#END
