
#######################################################################
#
#                 Cambridge Crystallographic Data Centre
#                                CCDC 
#
#######################################################################
#
# If this CIF has been generated from an entry in the Cambridge 
# Structural Database, then it will include bibliographic, chemical, 
# crystal, experimental, refinement or atomic coordinate data resulting 
# from the CCDC's data processing and validation procedures.
#
#######################################################################

data_MARTIK
_chemical_formula_moiety         'C16 H11 Br1 Cl1 N1 O2'
_chemical_name_systematic        
3-(4-Bromophenyl)-4-((4-chlorophenyl)amino)furan-2(5H)-one
_symmetry_cell_setting           orthorhombic
_symmetry_space_group_name_H-M   'F d d 2'
_symmetry_Int_Tables_number      43
_space_group_name_Hall           'F 2 -2d'
loop_
_symmetry_equiv_pos_site_id
_symmetry_equiv_pos_as_xyz
1 x,y,z
2 -x,-y,z
3 1/4+x,1/4-y,1/4+z
4 1/4-x,1/4+y,1/4+z
5 x,1/2+y,1/2+z
6 -x,1/2-y,1/2+z
7 1/4+x,3/4-y,3/4+z
8 1/4-x,3/4+y,3/4+z
9 1/2+x,y,1/2+z
10 1/2-x,-y,1/2+z
11 3/4+x,1/4-y,3/4+z
12 3/4-x,1/4+y,3/4+z
13 1/2+x,1/2+y,z
14 1/2-x,1/2-y,z
15 3/4+x,3/4-y,1/4+z
16 3/4-x,3/4+y,1/4+z
_cell_length_a                   25.3007(12)
_cell_length_b                   51.746(2)
_cell_length_c                   4.5806(2)
_cell_angle_alpha                90
_cell_angle_beta                 90
_cell_angle_gamma                90
_cell_volume                     5996.97
_exptl_crystal_colour            colorless
_exptl_crystal_description       block
_cell_formula_units_Z            16
loop_
_atom_site_label
_atom_site_type_symbol
_atom_site_fract_x
_atom_site_fract_y
_atom_site_fract_z
Br1 Br 0.461863(13) 0.038684(7) 0.73702(10)
C1 C 0.35502(9) 0.10353(5) 0.3388(6)
C2 C 0.34731(10) 0.07764(5) 0.2657(8)
H1 H 0.3210 0.0732 0.1328
C3 C 0.37841(12) 0.05842(5) 0.3892(8)
H2 H 0.3730 0.0412 0.3390
C4 C 0.41680(11) 0.06489(5) 0.5842(7)
C5 C 0.42423(11) 0.09000(5) 0.6684(8)
H3 H 0.4499 0.0942 0.8058
C6 C 0.39308(10) 0.10905(5) 0.5467(7)
H4 H 0.3978 0.1261 0.6061
C7 C 0.32505(9) 0.12386(5) 0.1915(6)
C8 C 0.27271(10) 0.11991(6) 0.0708(7)
C9 C 0.29719(9) 0.16038(5) -0.0614(8)
H5 H 0.2841 0.1757 0.0377
H6 H 0.3095 0.1653 -0.2542
C10 C 0.34064(9) 0.14788(5) 0.1109(6)
C11 C 0.39936(9) 0.18475(5) 0.0239(7)
C12 C 0.36929(11) 0.20622(5) 0.0900(8)
H7 H 0.3411 0.2048 0.2196
C13 C 0.38098(11) 0.22976(5) -0.0361(9)
H8 H 0.3600 0.2441 0.0031
C14 C 0.42324(11) 0.23190(5) -0.2178(7)
C15 C 0.45451(11) 0.21067(5) -0.2823(9)
H9 H 0.4834 0.2123 -0.4066
C16 C 0.44218(10) 0.18709(5) -0.1594(7)
H10 H 0.4629 0.1727 -0.2006
Cl1 Cl 0.43916(4) 0.261673(15) -0.3737(2)
H11 H 0.4125(11) 0.1516(5) 0.201(8)
N1 N 0.38700(9) 0.16005(4) 0.1479(6)
O1 O 0.24331(7) 0.10145(4) 0.0880(5)
O2 O 0.25712(6) 0.14109(4) -0.0799(5)
loop_
_geom_bond_atom_site_label_1
_geom_bond_atom_site_label_2
_geom_bond_site_symmetry_1
_geom_bond_site_symmetry_2
Br1 C4 1_555 1_555
C1 C2 1_555 1_555
C2 H1 1_555 1_555
C3 C2 1_555 1_555
H2 C3 1_555 1_555
C4 C3 1_555 1_555
C5 C4 1_555 1_555
H3 C5 1_555 1_555
C6 C1 1_555 1_555
H4 C6 1_555 1_555
C7 C1 1_555 1_555
C8 C7 1_555 1_555
C9 H5 1_555 1_555
H6 C9 1_555 1_555
C10 C7 1_555 1_555
C11 C12 1_555 1_555
C12 H7 1_555 1_555
C13 C12 1_555 1_555
H8 C13 1_555 1_555
C14 C13 1_555 1_555
C15 C14 1_555 1_555
H9 C15 1_555 1_555
C16 C11 1_555 1_555
H10 C16 1_555 1_555
Cl1 C14 1_555 1_555
H11 N1 1_555 1_555
N1 C10 1_555 1_555
O1 C8 1_555 1_555
O2 C8 1_555 1_555
C5 C6 1_555 1_555
C9 C10 1_555 1_555
C9 O2 1_555 1_555
C11 N1 1_555 1_555
C15 C16 1_555 1_555

#END
