
#######################################################################
#
#                 Cambridge Crystallographic Data Centre
#                                CCDC 
#
#######################################################################
#
# If this CIF has been generated from an entry in the Cambridge 
# Structural Database, then it will include bibliographic, chemical, 
# crystal, experimental, refinement or atomic coordinate data resulting 
# from the CCDC's data processing and validation procedures.
#
#######################################################################

data_MARYEJ
_chemical_formula_moiety         'C19 H20 N2 O2'
_chemical_name_systematic        (+-)-B-Norrhazinal
_chemical_properties_biological  'potential antimitotic agent'
_symmetry_cell_setting           monoclinic
_symmetry_space_group_name_H-M   'P 21/n'
_symmetry_Int_Tables_number      14
_space_group_name_Hall           '-P 2yn'
loop_
_symmetry_equiv_pos_site_id
_symmetry_equiv_pos_as_xyz
1 x,y,z
2 1/2+x,1/2-y,1/2+z
3 -x,-y,-z
4 1/2-x,1/2+y,1/2-z
_cell_length_a                   10.040(1)
_cell_length_b                   12.331(1)
_cell_length_c                   12.675(1)
_cell_angle_alpha                90
_cell_angle_beta                 99.651(7)
_cell_angle_gamma                90
_cell_volume                     1547
_exptl_crystal_colour            colorless
_exptl_crystal_description       plate
_chemical_melting_point          'decomposes above 150deg.C'
_cell_formula_units_Z            4
loop_
_atom_site_label
_atom_site_type_symbol
_atom_site_fract_x
_atom_site_fract_y
_atom_site_fract_z
O1 O 0.8300(2) 0.50410(10) 1.02960(10)
O2 O 0.5194(2) -0.00480(10) 0.84510(10)
N1 N 0.9880(2) 0.3783(2) 1.08600(10)
N2 N 0.6335(2) 0.16740(10) 1.00550(10)
C1 C 0.8707(2) 0.4292(2) 1.0922(2)
C2 C 0.7938(2) 0.3943(2) 1.1789(2)
C3 C 0.6816(2) 0.3100(2) 1.1462(2)
C4 C 0.5554(3) 0.3645(2) 1.0841(2)
C5 C 0.4464(3) 0.2832(2) 1.0400(2)
C6 C 0.4961(2) 0.2044(2) 0.9641(2)
C7 C 0.6961(2) 0.0786(2) 0.9679(2)
C8 C 0.8280(2) 0.0788(2) 1.0182(2)
C9 C 0.8500(2) 0.1681(2) 1.0869(2)
C10 C 0.9791(2) 0.1937(2) 1.1569(2)
C11 C 1.0429(2) 0.1139(2) 1.2262(2)
C12 C 1.1679(3) 0.1294(2) 1.2877(2)
C13 C 1.2344(2) 0.2260(2) 1.2803(2)
C14 C 1.1740(2) 0.3065(2) 1.2136(2)
C15 C 1.0468(2) 0.2925(2) 1.1534(2)
C16 C 0.7257(2) 0.2213(2) 1.0782(2)
C17 C 0.6548(3) 0.2499(2) 1.2508(2)
C18 C 0.6117(3) 0.3202(2) 1.3362(2)
C19 C 0.6349(3) -0.0003(2) 0.8922(2)
H1 H 1.0387(7) 0.4154(6) 1.0479(5)
H2 H 0.90113 0.03017 1.01229
H3 H 0.99759 0.04567 1.22929
H4 H 1.20761 0.07419 1.33647
H5 H 1.32310 0.23644 1.32102
H6 H 1.21950 0.37415 1.20798
H7 H 0.68877 -0.05955 0.87411
H8 H 0.75493 0.45892 1.20305
H9 H 0.8593(6) 0.3654(5) 1.2357(5)
H10 H 0.58195 0.40371 1.02551
H11 H 0.52135 0.41441 1.13131
H12 H 0.42093 0.24310 1.09851
H13 H 0.36913 0.32100 1.00261
H14 H 0.43779 0.14226 0.95370
H15 H 0.49669 0.23946 0.89660
H16 H 0.57578 0.18770 1.22419
H17 H 0.73598 0.21400 1.28399
H18 H 0.59749 0.27708 1.39640
H19 H 0.52919 0.35638 1.30670
H20 H 0.68069 0.37308 1.35900
loop_
_geom_bond_atom_site_label_1
_geom_bond_atom_site_label_2
_geom_bond_site_symmetry_1
_geom_bond_site_symmetry_2
O1 C1 1_555 1_555
O2 C19 1_555 1_555
N1 C1 1_555 1_555
N2 C6 1_555 1_555
C1 C2 1_555 1_555
C2 C3 1_555 1_555
C3 C4 1_555 1_555
C4 C5 1_555 1_555
C5 C6 1_555 1_555
C6 H14 1_555 1_555
C7 N2 1_555 1_555
C8 C7 1_555 1_555
C9 C8 1_555 1_555
C10 C9 1_555 1_555
C11 C10 1_555 1_555
C12 C11 1_555 1_555
C13 C12 1_555 1_555
C14 C13 1_555 1_555
C15 N1 1_555 1_555
C16 N2 1_555 1_555
C17 C3 1_555 1_555
C18 C17 1_555 1_555
C19 C7 1_555 1_555
H1 N1 1_555 1_555
H2 C8 1_555 1_555
H3 C11 1_555 1_555
H4 C12 1_555 1_555
H5 C13 1_555 1_555
H6 C14 1_555 1_555
H7 C19 1_555 1_555
H8 C2 1_555 1_555
H9 C2 1_555 1_555
H10 C4 1_555 1_555
H11 C4 1_555 1_555
H12 C5 1_555 1_555
H13 C5 1_555 1_555
H15 C6 1_555 1_555
H16 C17 1_555 1_555
H17 C17 1_555 1_555
H18 C18 1_555 1_555
H19 C18 1_555 1_555
H20 C18 1_555 1_555
C3 C16 1_555 1_555
C9 C16 1_555 1_555
C10 C15 1_555 1_555
C14 C15 1_555 1_555

#END
