
#######################################################################
#
#                 Cambridge Crystallographic Data Centre
#                                CCDC 
#
#######################################################################
#
# If this CIF has been generated from an entry in the Cambridge 
# Structural Database, then it will include bibliographic, chemical, 
# crystal, experimental, refinement or atomic coordinate data resulting 
# from the CCDC's data processing and validation procedures.
#
#######################################################################

data_MASDOA
_chemical_compound_source        'red alga Rhodomela confervoides'
_chemical_formula_moiety         'C13 H13 Br2 N1 O5'
_chemical_name_systematic        
'Methyl N-(2,3-dibromo-4,5-dihydroxybenzyl)pyroglutamate'
_chemical_properties_biological  
'inactive against human cancer cell lines and Staphylococcus aureus, Escherichia coli and Candida albicans'
_symmetry_cell_setting           triclinic
_symmetry_space_group_name_H-M   'P 1'
_symmetry_Int_Tables_number      1
_space_group_name_Hall           'P 1'
loop_
_symmetry_equiv_pos_site_id
_symmetry_equiv_pos_as_xyz
1 x,y,z
_cell_length_a                   8.236(1)
_cell_length_b                   10.022(1)
_cell_length_c                   10.485(1)
_cell_angle_alpha                63.935(4)
_cell_angle_beta                 85.073(4)
_cell_angle_gamma                74.587(3)
_cell_volume                     748.988
_exptl_crystal_colour            colorless
_chemical_melting_point          183-185deg.C
_cell_formula_units_Z            2
_exptl_crystal_recrystallization_method methanol/water
loop_
_atom_site_label
_atom_site_type_symbol
_atom_site_fract_x
_atom_site_fract_y
_atom_site_fract_z
Br1 Br 0.2129(2) 0.8625(2) 0.7284(9)
Br2 Br 0.5936(2) 0.6664(2) 0.6854(2)
O1 O 0.8658(11) 0.7089(12) 0.8205(13)
O2 O 0.8435(11) 0.8873(11) 0.9536(11)
O3 O 0.1851(16) 1.3186(14) 0.9579(14)
O4 O -0.0250(3) 1.2200(40) 0.5224(20)
O5 O -0.1237(13) 1.2938(14) 0.6979(13)
N1 N 0.1966(13) 1.2202(13) 0.8009(12)
C1 C 0.3908(14) 0.9638(13) 0.8755(13)
C2 C 0.4102(20) 0.8714(17) 0.7984(16)
C3 C 0.5586(17) 0.7903(15) 0.7826(16)
C4 C 0.7087(15) 0.7960(14) 0.8354(13)
C5 C 0.6978(14) 0.8809(14) 0.9118(16)
C6 C 0.5375(18) 0.9666(18) 0.9314(17)
C7 C 0.2223(19) 1.0625(17) 0.8970(18)
C8 C -0.0022(20) 1.2606(20) 0.6110(19)
C9 C 0.1668(20) 1.2718(17) 0.6444(17)
C10 C 0.1470(30) 1.4560(30) 0.570(30)
C11 C 0.1376(23) 1.4902(20) 0.6955(22)
C12 C 0.1722(16) 1.3283(15) 0.8395(17)
C13 C -0.3111(25) 1.3049(23) 0.6691(23)
H1 H 0.829 0.961 0.991
H2 H 0.271 1.214 0.598
H3 H 0.023 1.512 0.512
H4 H 0.243 1.486 0.501
H5 H 0.243 1.550 0.682
H6 H 0.023 1.573 0.695
H7 H 0.529 1.034 0.991
H8 H -0.402 1.355 0.724
H9 H -0.333 1.202 0.676
H10 H -0.328 1.388 0.554
H11 H 0.215 1.049 1.003
H12 H 0.119 1.023 0.875
Br3 Br 0.7643 1.5658 1.2653
Br4 Br 0.3853(23) 1.7618(20) 1.3039(21)
O6 O 0.1166(14) 1.7178(14) 1.1616(14)
O7 O 0.1295(12) 1.5470(13) 1.0208(12)
O8 O 0.8149(14) 1.1081(12) 1.0311(12)
O9 O 0.4800(40) 1.2200(50) 1.4730(30)
O10 O 0.4750(13) 1.1298(13) 1.3014(12)
N2 N 0.7717(15) 1.2028(14) 1.1999(14)
C14 C 0.5812(22) 1.4604(18) 1.1180(18)
C15 C 0.5695(14) 1.5559(15) 1.1827(15)
C16 C 0.4050(18) 1.6375(15) 1.2052(16)
C17 C 0.2663(19) 1.6385(18) 1.1427(18)
C18 C 0.2855(20) 1.5355(16) 1.0771(15)
C19 C 0.4342(17) 1.4595(16) 1.0613(16)
C20 C 0.7476(15) 1.3664(16) 1.0957(16)
C21 C 0.5583(20) 1.1687(20) 1.3800(19)
C22 C 0.7409(20) 1.1525(19) 1.3453(17)
C23 C 0.8128(22) 0.9846(18) 1.4080(18)
C24 C 0.8317(21) 0.9408(18) 1.2794(17)
C25 C 0.8021(17) 1.0803(17) 1.1627(17)
C26 C 0.2770(21) 1.1563(21) 1.3196(21)
H13 H 0.045 1.695 1.120
H14 H 0.153 1.466 0.988
H15 H 0.444 1.391 1.002
H16 H 0.744 1.372 0.987
H17 H 0.850 1.412 1.101
H18 H 0.802 1.203 1.396
H19 H 0.926 0.948 1.468
H20 H 0.718 0.928 1.480
H21 H 0.750 0.877 1.279
H22 H 0.964 0.878 1.278
H23 H 0.249 1.057 1.404
H24 H 0.216 1.182 1.221
H25 H 0.242 1.256 1.343
loop_
_geom_bond_atom_site_label_1
_geom_bond_atom_site_label_2
_geom_bond_site_symmetry_1
_geom_bond_site_symmetry_2
Br1 C2 1_555 1_555
Br2 C3 1_555 1_555
O1 C4 1_555 1_555
O2 C5 1_555 1_555
O3 C12 1_555 1_555
O4 C8 1_555 1_555
O5 C8 1_555 1_555
N1 C7 1_555 1_555
C1 C2 1_555 1_555
C2 C3 1_555 1_555
C3 C4 1_555 1_555
C4 C5 1_555 1_555
C5 C6 1_555 1_555
C6 C1 1_555 1_555
C7 C1 1_555 1_555
C8 C9 1_555 1_555
C9 N1 1_555 1_555
C10 C9 1_555 1_555
C11 C10 1_555 1_555
C12 N1 1_555 1_555
C13 O5 1_555 1_555
Br3 C15 1_555 1_555
Br4 C16 1_555 1_555
O6 C17 1_555 1_555
O7 C18 1_555 1_555
O8 C25 1_555 1_555
O9 C21 1_555 1_555
O10 C21 1_555 1_555
N2 C20 1_555 1_555
C14 C15 1_555 1_555
C15 C16 1_555 1_555
C16 C17 1_555 1_555
C17 C18 1_555 1_555
C18 C19 1_555 1_555
C19 C14 1_555 1_555
C20 C14 1_555 1_555
C21 C22 1_555 1_555
C22 N2 1_555 1_555
C23 C22 1_555 1_555
C24 C23 1_555 1_555
C25 N2 1_555 1_555
C26 O10 1_555 1_555
H1 O2 1_555 1_555
H2 C9 1_555 1_555
H3 C10 1_555 1_555
H4 C10 1_555 1_555
H5 C11 1_555 1_555
H6 C11 1_555 1_555
H7 C6 1_555 1_555
H8 C13 1_555 1_555
H9 C13 1_555 1_555
H10 C13 1_555 1_555
H11 C7 1_555 1_555
H12 C7 1_555 1_555
H13 O6 1_555 1_555
H14 O7 1_555 1_555
H15 C19 1_555 1_555
H16 C20 1_555 1_555
H17 C20 1_555 1_555
H18 C22 1_555 1_555
H19 C23 1_555 1_555
H20 C23 1_555 1_555
H21 C24 1_555 1_555
H22 C24 1_555 1_555
H23 C26 1_555 1_555
H24 C26 1_555 1_555
H25 C26 1_555 1_555
C11 C12 1_555 1_555
C24 C25 1_555 1_555

#END
