
#######################################################################
#
#                 Cambridge Crystallographic Data Centre
#                                CCDC 
#
#######################################################################
#
# If this CIF has been generated from an entry in the Cambridge 
# Structural Database, then it will include bibliographic, chemical, 
# crystal, experimental, refinement or atomic coordinate data resulting 
# from the CCDC's data processing and validation procedures.
#
#######################################################################

data_MASPAA
_chemical_name_common            '6-O-(4-methoxycinnamoyl)-(+)-crassalactone D'
_chemical_formula_moiety         'C23 H20 O6'
_chemical_name_systematic        
'7-oxo-2-phenyl-1,6-dioxaspiro[4.4]non-8-en-3-yl 3-(4-methoxyphenyl)prop-2-enoate'
_chemical_properties_biological  'cytotoxic activity'
_symmetry_cell_setting           orthorhombic
_symmetry_space_group_name_H-M   'P 21 21 2'
_symmetry_Int_Tables_number      18
_space_group_name_Hall           'P 2 2ab'
loop_
_symmetry_equiv_pos_site_id
_symmetry_equiv_pos_as_xyz
1 x,y,z
2 -x,-y,z
3 1/2+x,1/2-y,-z
4 1/2-x,1/2+y,-z
_cell_length_a                   32.847(3)
_cell_length_b                   10.5955(8)
_cell_length_c                   5.6346(4)
_cell_angle_alpha                90
_cell_angle_beta                 90
_cell_angle_gamma                90
_cell_volume                     1961.01
_exptl_crystal_colour            colorless
_exptl_crystal_description       plate
_chemical_melting_point          '153-156 deg.C'
_cell_formula_units_Z            4
loop_
_atom_site_label
_atom_site_type_symbol
_atom_site_fract_x
_atom_site_fract_y
_atom_site_fract_z
O1 O 0.37859(8) 0.2921(2) 0.2257(5)
O2 O 0.38307(8) 0.0037(2) 0.1272(4)
O3 O 0.44281(7) 0.0712(2) 0.3042(5)
O4 O 0.41133(12) 0.4768(3) 0.2797(7)
O5 O 0.35762(11) -0.1595(3) -0.0757(7)
O6 O 0.24499(10) 0.6337(4) -0.8936(6)
C1 C 0.48219(11) 0.1579(3) 0.7345(7)
H1 H 0.4658 0.0872 0.7559
C2 C 0.40112(11) 0.2423(3) 0.4266(7)
H2 H 0.4015 0.3024 0.5587
C3 C 0.38241(11) 0.1185(3) 0.5000(7)
H3 H 0.3534 0.1177 0.4681
H4 H 0.3868 0.1027 0.6677
C4 C 0.50197(12) 0.3354(3) 0.5072(7)
H5 H 0.4995 0.3856 0.3725
C5 C 0.53057(13) 0.3660(4) 0.6755(8)
H6 H 0.5470 0.4368 0.6553
C6 C 0.47680(11) 0.2321(3) 0.5331(6)
C7 C 0.51121(12) 0.1865(4) 0.9035(7)
H7 H 0.5147 0.1351 1.0357
C8 C 0.40434(11) 0.0216(3) 0.3495(6)
C9 C 0.44425(11) 0.2055(3) 0.3524(7)
H8 H 0.4511 0.2500 0.2052
C10 C 0.26659(13) 0.5744(5) -0.7195(8)
C11 C 0.39146(14) -0.1903(4) 0.3021(9)
H9 H 0.3900 -0.2770 0.3265
C12 C 0.40829(13) -0.1093(3) 0.4443(8)
H10 H 0.4211 -0.1301 0.5862
C13 C 0.33765(13) 0.4109(4) -0.1456(8)
H11 H 0.3329 0.3264 -0.1105
C14 C 0.38712(14) 0.4163(4) 0.1735(8)
C15 C 0.31584(13) 0.5959(5) -0.4062(9)
H12 H 0.3333 0.6471 -0.3194
C16 C 0.53485(13) 0.2919(4) 0.8732(8)
H13 H 0.5540 0.3133 0.9880
C17 C 0.26402(13) 0.4484(5) -0.6625(9)
H14 H 0.2465 0.3962 -0.7472
C18 C 0.37516(13) -0.1226(4) 0.0976(8)
C19 C 0.28715(14) 0.3987(5) -0.4815(9)
H15 H 0.2850 0.3131 -0.4473
C20 C 0.31324(13) 0.4712(4) -0.3502(9)
C21 C 0.29307(14) 0.6495(5) -0.5901(10)
H16 H 0.2957 0.7348 -0.6254
C22 C 0.36369(15) 0.4693(4) -0.0231(10)
H17 H 0.3684 0.5535 -0.0612
C23 C 0.21725(16) 0.5627(6) -1.0312(10)
H18 H 0.2317 0.4977 -1.1149
H19 H 0.2039 0.6172 -1.1430
H20 H 0.1973 0.5250 -0.9290
loop_
_geom_bond_atom_site_label_1
_geom_bond_atom_site_label_2
_geom_bond_site_symmetry_1
_geom_bond_site_symmetry_2
O1 C2 1_555 1_555
O2 C8 1_555 1_555
O3 C8 1_555 1_555
O4 C14 1_555 1_555
O5 C18 1_555 1_555
O6 C10 1_555 1_555
C1 H1 1_555 1_555
C2 H2 1_555 1_555
C3 C2 1_555 1_555
H3 C3 1_555 1_555
H4 C3 1_555 1_555
C4 H5 1_555 1_555
C5 C4 1_555 1_555
H6 C5 1_555 1_555
C6 C1 1_555 1_555
C7 C1 1_555 1_555
H7 C7 1_555 1_555
C8 C3 1_555 1_555
C9 O3 1_555 1_555
H8 C9 1_555 1_555
C10 C17 1_555 1_555
C11 H9 1_555 1_555
C12 C8 1_555 1_555
H10 C12 1_555 1_555
C13 H11 1_555 1_555
C14 O1 1_555 1_555
C15 H12 1_555 1_555
C16 C5 1_555 1_555
H13 C16 1_555 1_555
C17 H14 1_555 1_555
C18 O2 1_555 1_555
C19 C17 1_555 1_555
H15 C19 1_555 1_555
C20 C13 1_555 1_555
C21 C10 1_555 1_555
H16 C21 1_555 1_555
C22 C13 1_555 1_555
H17 C22 1_555 1_555
C23 O6 1_555 1_555
H18 C23 1_555 1_555
H19 C23 1_555 1_555
H20 C23 1_555 1_555
C2 C9 1_555 1_555
C4 C6 1_555 1_555
C6 C9 1_555 1_555
C7 C16 1_555 1_555
C11 C12 1_555 1_555
C11 C18 1_555 1_555
C14 C22 1_555 1_555
C15 C20 1_555 1_555
C15 C21 1_555 1_555
C19 C20 1_555 1_555

#END
