
#######################################################################
#
#                 Cambridge Crystallographic Data Centre
#                                CCDC 
#
#######################################################################
#
# If this CIF has been generated from an entry in the Cambridge 
# Structural Database, then it will include bibliographic, chemical, 
# crystal, experimental, refinement or atomic coordinate data resulting 
# from the CCDC's data processing and validation procedures.
#
#######################################################################

data_MASPOO
_chemical_formula_moiety         'C17 H20 N2 O1'
_chemical_name_systematic        
phenyl{5-[(piperidin-1-yl)methyl]-1H-pyrrol-2-yl}methanone
_symmetry_cell_setting           monoclinic
_symmetry_space_group_name_H-M   'C 2/c'
_symmetry_Int_Tables_number      15
_space_group_name_Hall           '-C 2yn'
loop_
_symmetry_equiv_pos_site_id
_symmetry_equiv_pos_as_xyz
1 x,y,z
2 -x,y,1/2-z
3 1/2+x,1/2+y,z
4 1/2-x,1/2+y,1/2-z
5 -x,-y,-z
6 x,-y,1/2+z
7 1/2-x,1/2-y,-z
8 1/2+x,1/2-y,1/2+z
_cell_length_a                   25.743(4)
_cell_length_b                   6.1040(8)
_cell_length_c                   20.136(3)
_cell_angle_alpha                90
_cell_angle_beta                 107.317(2)
_cell_angle_gamma                90
_cell_volume                     3020.66
_exptl_crystal_colour            colorless
_exptl_crystal_description       block
_cell_formula_units_Z            8
loop_
_atom_site_label
_atom_site_type_symbol
_atom_site_fract_x
_atom_site_fract_y
_atom_site_fract_z
N1 N 0.27033(5) 0.8122(2) 0.40526(6)
H1 H 0.2683 0.7235 0.4376
N2 N 0.39080(5) 0.6372(2) 0.35820(7)
O1 O 0.20577(5) 0.9937(2) 0.48203(6)
C1 C 0.23982(6) 0.9991(3) 0.38658(7)
C2 C 0.25594(6) 1.0946(3) 0.33350(8)
H2 H 0.2424 1.2239 0.3104
C3 C 0.29600(6) 0.9631(3) 0.32091(9)
H3 H 0.3141 0.9892 0.2881
C4 C 0.30412(6) 0.7873(3) 0.36565(8)
C5 C 0.33903(7) 0.5894(3) 0.37072(11)
H4 H 0.3460 0.5260 0.4167
H5 H 0.3195 0.4816 0.3371
C6 C 0.42728(7) 0.7561(3) 0.41645(9)
H6 H 0.4343 0.6681 0.4583
H7 H 0.4099 0.8909 0.4240
C7 C 0.48069(7) 0.8096(4) 0.40304(11)
H8 H 0.5048 0.8803 0.4438
H9 H 0.4742 0.9112 0.3644
C8 C 0.50784(8) 0.6049(4) 0.38649(12)
H10 H 0.5196 0.5128 0.4275
H11 H 0.5397 0.6451 0.3729
C9 C 0.46836(8) 0.4799(3) 0.32809(11)
H12 H 0.4606 0.5646 0.2855
H13 H 0.4847 0.3425 0.3207
C10 C 0.41593(8) 0.4345(3) 0.34498(11)
H14 H 0.3909 0.3576 0.3064
H15 H 0.4234 0.3410 0.3857
C11 C 0.20422(6) 1.0748(3) 0.42534(8)
C12 C 0.16623(6) 1.2600(3) 0.39692(7)
C13 C 0.15508(6) 1.4080(3) 0.44314(9)
H16 H 0.1700 1.3868 0.4908
C14 C 0.12205(7) 1.5860(3) 0.41899(10)
H17 H 0.1153 1.6856 0.4503
C15 C 0.09906(8) 1.6172(3) 0.34877(11)
H18 H 0.0774 1.7393 0.3326
C16 C 0.10818(7) 1.4673(3) 0.30252(9)
H19 H 0.0917 1.4857 0.2551
C17 C 0.14167(6) 1.2897(3) 0.32619(8)
H20 H 0.1478 1.1894 0.2946
loop_
_geom_bond_atom_site_label_1
_geom_bond_atom_site_label_2
_geom_bond_site_symmetry_1
_geom_bond_site_symmetry_2
N1 H1 1_555 1_555
N2 C5 1_555 1_555
O1 C11 1_555 1_555
C1 N1 1_555 1_555
C2 C1 1_555 1_555
H2 C2 1_555 1_555
C3 C2 1_555 1_555
H3 C3 1_555 1_555
C4 N1 1_555 1_555
C5 C4 1_555 1_555
H4 C5 1_555 1_555
H5 C5 1_555 1_555
C6 N2 1_555 1_555
H6 C6 1_555 1_555
H7 C6 1_555 1_555
C7 C6 1_555 1_555
H8 C7 1_555 1_555
H9 C7 1_555 1_555
C8 C7 1_555 1_555
H10 C8 1_555 1_555
H11 C8 1_555 1_555
C9 C8 1_555 1_555
H12 C9 1_555 1_555
H13 C9 1_555 1_555
C10 N2 1_555 1_555
H14 C10 1_555 1_555
H15 C10 1_555 1_555
C11 C1 1_555 1_555
C12 C11 1_555 1_555
C13 C12 1_555 1_555
H16 C13 1_555 1_555
C14 C13 1_555 1_555
H17 C14 1_555 1_555
C15 C14 1_555 1_555
H18 C15 1_555 1_555
C16 C15 1_555 1_555
H19 C16 1_555 1_555
C17 C12 1_555 1_555
H20 C17 1_555 1_555
C3 C4 1_555 1_555
C9 C10 1_555 1_555
C16 C17 1_555 1_555

#END
