
#######################################################################
#
#                 Cambridge Crystallographic Data Centre
#                                CCDC 
#
#######################################################################
#
# If this CIF has been generated from an entry in the Cambridge 
# Structural Database, then it will include bibliographic, chemical, 
# crystal, experimental, refinement or atomic coordinate data resulting 
# from the CCDC's data processing and validation procedures.
#
#######################################################################

data_MASTEI
_chemical_formula_moiety         'C11 H10 Br1 N1 O4 S1'
_chemical_name_systematic        
4-(bromomethylidene)-3-[(4-methylphenyl)sulfonyl]-1,3-oxazolidin-2-one
_symmetry_cell_setting           monoclinic
_symmetry_space_group_name_H-M   'P 21/n'
_symmetry_Int_Tables_number      14
_space_group_name_Hall           '-P 2yn'
loop_
_symmetry_equiv_pos_site_id
_symmetry_equiv_pos_as_xyz
1 x,y,z
2 1/2-x,1/2+y,1/2-z
3 -x,-y,-z
4 1/2+x,1/2-y,1/2+z
_cell_length_a                   8.1512(10)
_cell_length_b                   16.7902(19)
_cell_length_c                   9.2892(11)
_cell_angle_alpha                90
_cell_angle_beta                 97.105(2)
_cell_angle_gamma                90
_cell_volume                     1261.56
_exptl_crystal_colour            colorless
_exptl_crystal_description       block
_cell_formula_units_Z            4
loop_
_atom_site_label
_atom_site_type_symbol
_atom_site_fract_x
_atom_site_fract_y
_atom_site_fract_z
Br1 Br 0.80939(4) 0.23790(2) 0.68318(3)
S1 S 0.20448(7) 0.33977(4) 0.60269(7)
O1 O 0.2764(2) 0.46554(12) 0.3817(2)
O2 O 0.5355(2) 0.42154(11) 0.3827(2)
O3 O 0.0704(2) 0.35105(13) 0.4912(2)
O4 O 0.2333(3) 0.26413(11) 0.6694(2)
N1 N 0.3789(2) 0.35898(12) 0.5270(2)
C1 C 0.3858(3) 0.42035(14) 0.4254(3)
C2 C 0.6424(3) 0.36285(15) 0.4606(3)
H1 H 0.738101 0.388100 0.514248
H2 H 0.679754 0.324169 0.394212
C3 C 0.5369(3) 0.32386(13) 0.5618(2)
C4 C 0.5862(3) 0.26995(15) 0.6621(3)
H3 H 0.512520 0.248505 0.720499
C5 C 0.2031(3) 0.41303(15) 0.7354(3)
C6 C 0.1118(3) 0.48218(17) 0.7063(3)
H4 H 0.049736 0.489440 0.616364
C7 C 0.1139(4) 0.53965(18) 0.8111(3)
H5 H 0.052936 0.586007 0.790927
C8 C 0.2043(4) 0.53048(17) 0.9460(3)
C9 C 0.2939(5) 0.4602(2) 0.9741(3)
H6 H 0.354611 0.452773 1.064606
C10 C 0.2942(4) 0.40164(18) 0.8700(3)
H7 H 0.354698 0.355114 0.889939
C11 C 0.2069(5) 0.5944(2) 1.0601(4)
H8 H 0.285366 0.634808 1.042267
H9 H 0.238124 0.571509 1.154179
H10 H 0.098978 0.617771 1.056562
loop_
_geom_bond_atom_site_label_1
_geom_bond_atom_site_label_2
_geom_bond_site_symmetry_1
_geom_bond_site_symmetry_2
Br1 C4 1_555 1_555
S1 O3 1_555 1_555
O1 C1 1_555 1_555
O2 C1 1_555 1_555
O4 S1 1_555 1_555
N1 S1 1_555 1_555
C1 N1 1_555 1_555
C2 O2 1_555 1_555
H1 C2 1_555 1_555
H2 C2 1_555 1_555
C3 N1 1_555 1_555
C4 C3 1_555 1_555
H3 C4 1_555 1_555
C5 S1 1_555 1_555
C6 C5 1_555 1_555
H4 C6 1_555 1_555
C7 C6 1_555 1_555
H5 C7 1_555 1_555
C8 C7 1_555 1_555
C9 C8 1_555 1_555
H6 C9 1_555 1_555
C10 C5 1_555 1_555
H7 C10 1_555 1_555
C11 C8 1_555 1_555
H8 C11 1_555 1_555
H9 C11 1_555 1_555
H10 C11 1_555 1_555
C2 C3 1_555 1_555
C9 C10 1_555 1_555

#END
