
#######################################################################
#
#                 Cambridge Crystallographic Data Centre
#                                CCDC 
#
#######################################################################
#
# If this CIF has been generated from an entry in the Cambridge 
# Structural Database, then it will include bibliographic, chemical, 
# crystal, experimental, refinement or atomic coordinate data resulting 
# from the CCDC's data processing and validation procedures.
#
#######################################################################

data_MASTAE
_chemical_formula_moiety         'C17 H16 O2 S2'
_chemical_name_systematic        
5,5'-(cyclopent-1-ene-1,2-diyl)bis(4-methylthiophene-2-carbaldehyde)
_symmetry_cell_setting           orthorhombic
_symmetry_space_group_name_H-M   'P b c n'
_symmetry_Int_Tables_number      60
_space_group_name_Hall           '-P 2n 2ab'
loop_
_symmetry_equiv_pos_site_id
_symmetry_equiv_pos_as_xyz
1 x,y,z
2 1/2-x,1/2-y,1/2+z
3 -x,y,1/2-z
4 1/2+x,1/2-y,-z
5 -x,-y,-z
6 1/2+x,1/2+y,1/2-z
7 x,-y,1/2+z
8 1/2-x,1/2+y,z
_cell_length_a                   10.9395(14)
_cell_length_b                   8.3215(11)
_cell_length_c                   17.160(2)
_cell_angle_alpha                90
_cell_angle_beta                 90
_cell_angle_gamma                90
_cell_volume                     1562.13
_exptl_crystal_colour            yellow
_exptl_crystal_description       prismatic
_cell_formula_units_Z            4
loop_
_atom_site_label
_atom_site_type_symbol
_atom_site_fract_x
_atom_site_fract_y
_atom_site_fract_z
S1 S 0.15706(5) 0.08416(6) 0.40158(3)
O1 O 0.27560(19) -0.0965(2) 0.53549(10)
C1 C 0.1866(3) -0.1598(3) 0.50802(13)
H1 H 0.1614 -0.2570 0.5295
C2 C 0.1156(2) -0.0948(2) 0.44343(11)
C3 C 0.0112(2) -0.1537(2) 0.41096(11)
H2 H -0.0243 -0.2501 0.4264
C4 C -0.03832(16) -0.0552(2) 0.35175(10)
C5 C 0.03240(16) 0.0797(2) 0.33965(10)
C6 C 0.01569(16) 0.21671(19) 0.28780(10)
C7 C 0.0324(2) 0.3867(2) 0.31736(16)
H3 H -0.0211 0.4074 0.3613
H4 H 0.1163 0.4047 0.3335
C8 C 0.0000 0.4924(3) 0.2500
H5 H -0.0688 0.5606 0.2634
C9 C -0.15646(18) -0.0904(2) 0.31149(13)
H6 H -0.1967 0.0088 0.2988
H7 H -0.2078 -0.1529 0.3452
H8 H -0.1407 -0.1495 0.2645
H5B H 0.0688 0.5606 0.2366
S1B S -0.15706(5) 0.08416(6) 0.09842(3)
O1B O -0.27560(19) -0.0965(2) -0.03549(10)
C1B C -0.1866(3) -0.1598(3) -0.00802(13)
H1B H -0.1614 -0.2570 -0.0295
C2B C -0.1156(2) -0.0948(2) 0.05657(11)
C3B C -0.0112(2) -0.1537(2) 0.08904(11)
H2B H 0.0243 -0.2501 0.0736
C4B C 0.03832(16) -0.0552(2) 0.14825(10)
C5B C -0.03240(16) 0.0797(2) 0.16035(10)
C6B C -0.01569(16) 0.21671(19) 0.21220(10)
C7B C -0.0324(2) 0.3867(2) 0.18264(16)
H3B H 0.0211 0.4074 0.1387
H4B H -0.1163 0.4047 0.1665
C9B C 0.15646(18) -0.0904(2) 0.18851(13)
H6B H 0.1967 0.0088 0.2012
H7B H 0.2078 -0.1529 0.1548
H8B H 0.1407 -0.1495 0.2355
H9? H -0.0688 0.5606 0.2634
loop_
_geom_bond_atom_site_label_1
_geom_bond_atom_site_label_2
_geom_bond_site_symmetry_1
_geom_bond_site_symmetry_2
S1 C2 1_555 1_555
O1 C1 1_555 1_555
C1 H1 1_555 1_555
C2 C1 1_555 1_555
C3 C2 1_555 1_555
H2 C3 1_555 1_555
C4 C3 1_555 1_555
C5 S1 1_555 1_555
C6 C5 1_555 1_555
C7 C6 1_555 1_555
H3 C7 1_555 1_555
H4 C7 1_555 1_555
C8 C7 1_555 1_555
H5 C8 1_555 1_555
C9 C4 1_555 1_555
H6 C9 1_555 1_555
H7 C9 1_555 1_555
H8 C9 1_555 1_555
H5B C8 1_555 1_555
S1B C2B 1_555 1_555
O1B C1B 1_555 1_555
C1B H1B 1_555 1_555
C2B C1B 1_555 1_555
C3B C2B 1_555 1_555
H2B C3B 1_555 1_555
C4B C3B 1_555 1_555
C5B S1B 1_555 1_555
C6B C6 1_555 1_555
C7B C8 1_555 1_555
H3B C7B 1_555 1_555
H4B C7B 1_555 1_555
C9B C4B 1_555 1_555
H6B C9B 1_555 1_555
H7B C9B 1_555 1_555
H8B C9B 1_555 1_555
C4 C5 1_555 1_555
C4B C5B 1_555 1_555
C5B C6B 1_555 1_555
C6B C7B 1_555 1_555

#END
