
#######################################################################
#
#                 Cambridge Crystallographic Data Centre
#                                CCDC 
#
#######################################################################
#
# If this CIF has been generated from an entry in the Cambridge 
# Structural Database, then it will include bibliographic, chemical, 
# crystal, experimental, refinement or atomic coordinate data resulting 
# from the CCDC's data processing and validation procedures.
#
#######################################################################

data_MATBIT
_chemical_formula_moiety         'C7 H9 N1 O1'
_chemical_name_systematic        3-Amino-5-methylphenol
_symmetry_cell_setting           monoclinic
_symmetry_space_group_name_H-M   'P 21/n'
_symmetry_Int_Tables_number      14
_space_group_name_Hall           '-P 2yn'
loop_
_symmetry_equiv_pos_site_id
_symmetry_equiv_pos_as_xyz
1 x,y,z
2 1/2-x,1/2+y,1/2-z
3 -x,-y,-z
4 1/2+x,1/2-y,1/2+z
_cell_length_a                   6.02390(10)
_cell_length_b                   15.2605(3)
_cell_length_c                   7.4566(2)
_cell_angle_alpha                90
_cell_angle_beta                 107.5570(10)
_cell_angle_gamma                90
_cell_volume                     653.537
_exptl_crystal_colour            colorless
_exptl_crystal_description       plate
_chemical_melting_point          '410.70 K'
_cell_formula_units_Z            4
_exptl_crystal_recrystallization_method 'ethyl acetate/hexane'
loop_
_atom_site_label
_atom_site_type_symbol
_atom_site_fract_x
_atom_site_fract_y
_atom_site_fract_z
O1 O 0.17491(13) 0.84078(5) 0.56825(10)
N1 N 0.04877(15) 0.77218(6) 1.16523(11)
C1 C 0.12132(16) 0.80581(6) 0.86815(13)
C2 C -0.09964(17) 0.92122(6) 0.66993(14)
C3 C -0.21310(16) 0.93955(6) 0.80293(14)
C4 C -0.15969(16) 0.89057(6) 0.96860(13)
C5 C 0.06785(17) 0.85520(6) 0.70295(13)
C6 C 0.00657(16) 0.82430(6) 1.00114(13)
C7 C -0.39392(19) 1.01105(7) 0.76933(16)
H1 H 0.239(2) 0.7594(9) 0.8926(18)
H2 H -0.134(2) 0.9544(8) 0.5495(18)
H3 H 0.181(3) 0.7394(10) 1.187(2)
H4 H -0.240(2) 0.9019(8) 1.0629(19)
H5 H 0.047(3) 0.8032(10) 1.267(2)
H6 H -0.369(3) 1.0468(10) 0.884(2)
H7 H 0.295(3) 0.8037(11) 0.615(2)
H8 H -0.551(3) 0.9846(10) 0.735(2)
H9 H -0.387(3) 1.0498(11) 0.662(2)
loop_
_geom_bond_atom_site_label_1
_geom_bond_atom_site_label_2
_geom_bond_site_symmetry_1
_geom_bond_site_symmetry_2
O1 C5 1_555 1_555
N1 C6 1_555 1_555
C1 C5 1_555 1_555
C2 C3 1_555 1_555
C3 C4 1_555 1_555
C4 C6 1_555 1_555
C5 C2 1_555 1_555
C6 C1 1_555 1_555
C7 C3 1_555 1_555
H1 C1 1_555 1_555
H2 C2 1_555 1_555
H3 N1 1_555 1_555
H4 C4 1_555 1_555
H5 N1 1_555 1_555
H6 C7 1_555 1_555
H7 O1 1_555 1_555
H8 C7 1_555 1_555
H9 C7 1_555 1_555

#END
