
#######################################################################
#
#                 Cambridge Crystallographic Data Centre
#                                CCDC 
#
#######################################################################
#
# If this CIF has been generated from an entry in the Cambridge 
# Structural Database, then it will include bibliographic, chemical, 
# crystal, experimental, refinement or atomic coordinate data resulting 
# from the CCDC's data processing and validation procedures.
#
#######################################################################

data_MATCAM
_chemical_formula_moiety         'C7 H9 N1 O1'
_chemical_name_systematic        4-Amino-3-methylphenol
_symmetry_cell_setting           monoclinic
_symmetry_space_group_name_H-M   'P 21/n'
_symmetry_Int_Tables_number      14
_space_group_name_Hall           '-P 2yn'
loop_
_symmetry_equiv_pos_site_id
_symmetry_equiv_pos_as_xyz
1 x,y,z
2 1/2-x,1/2+y,1/2-z
3 -x,-y,-z
4 1/2+x,1/2-y,1/2+z
_cell_length_a                   4.6823(2)
_cell_length_b                   11.5155(5)
_cell_length_c                   12.0314(5)
_cell_angle_alpha                90
_cell_angle_beta                 96.884(2)
_cell_angle_gamma                90
_cell_volume                     644.045
_exptl_crystal_colour            yellow
_exptl_crystal_description       cube
_chemical_melting_point          '451 K'
_cell_formula_units_Z            4
_exptl_crystal_recrystallization_method 'ethyl acetate/ethanol'
loop_
_atom_site_label
_atom_site_type_symbol
_atom_site_fract_x
_atom_site_fract_y
_atom_site_fract_z
O1 O 0.1775(2) 0.39537(8) 0.58822(8)
N1 N 0.7321(2) 0.04146(9) 0.84957(10)
C1 C 0.4804(3) 0.23038(11) 0.60642(10)
C2 C 0.5947(2) 0.13243(10) 0.78266(10)
C3 C 0.6260(2) 0.14170(10) 0.66843(10)
C4 C 0.2704(3) 0.29750(11) 0.76739(10)
C5 C 0.4151(3) 0.21002(11) 0.83054(10)
C6 C 0.3051(3) 0.30836(10) 0.65480(10)
C7 C 0.8158(3) 0.05831(12) 0.61411(12)
H1 H 0.394(3) 0.2021(12) 0.9101(12)
H2 H 0.148(3) 0.3515(13) 0.8019(13)
H3 H 0.503(3) 0.2377(12) 0.5254(12)
H4 H 0.770(3) 0.0623(14) 0.9215(15)
H5 H 0.895(4) 0.0164(14) 0.8250(13)
H6 H 0.753(4) -0.0234(15) 0.6252(14)
H7 H 1.024(4) 0.0656(14) 0.6490(13)
H8 H 0.803(4) 0.0735(15) 0.5323(15)
H9 H 0.033(4) 0.4333(17) 0.6211(16)
loop_
_geom_bond_atom_site_label_1
_geom_bond_atom_site_label_2
_geom_bond_site_symmetry_1
_geom_bond_site_symmetry_2
O1 C6 1_555 1_555
N1 C2 1_555 1_555
C1 C3 1_555 1_555
C2 C3 1_555 1_555
C3 C7 1_555 1_555
C4 C5 1_555 1_555
C5 C2 1_555 1_555
C6 C1 1_555 1_555
C7 H6 1_555 1_555
H1 C5 1_555 1_555
H2 C4 1_555 1_555
H3 C1 1_555 1_555
H4 N1 1_555 1_555
H5 N1 1_555 1_555
H7 C7 1_555 1_555
H8 C7 1_555 1_555
H9 O1 1_555 1_555
C4 C6 1_555 1_555

#END
