
#######################################################################
#
#                 Cambridge Crystallographic Data Centre
#                                CCDC 
#
#######################################################################
#
# If this CIF has been generated from an entry in the Cambridge 
# Structural Database, then it will include bibliographic, chemical, 
# crystal, experimental, refinement or atomic coordinate data resulting 
# from the CCDC's data processing and validation procedures.
#
#######################################################################

data_MATCIU
_chemical_name_common            'PDB Chemical Component code: SZ3'
_chemical_formula_moiety         'C6 H13 N1 O1'
_chemical_name_systematic        trans-4-Amino-cyclohexanol
_symmetry_cell_setting           monoclinic
_symmetry_space_group_name_H-M   'P 21/n'
_symmetry_Int_Tables_number      14
_space_group_name_Hall           '-P 2yn'
loop_
_symmetry_equiv_pos_site_id
_symmetry_equiv_pos_as_xyz
1 x,y,z
2 1/2-x,1/2+y,1/2-z
3 -x,-y,-z
4 1/2+x,1/2-y,1/2+z
_cell_length_a                   5.259(2)
_cell_length_b                   11.954(5)
_cell_length_c                   11.730(4)
_cell_angle_alpha                90
_cell_angle_beta                 95.486(8)
_cell_angle_gamma                90
_cell_volume                     734.042
_exptl_crystal_colour            colorless
_exptl_crystal_description       block
_chemical_melting_point          '384 K'
_cell_formula_units_Z            4
loop_
_atom_site_label
_atom_site_type_symbol
_atom_site_fract_x
_atom_site_fract_y
_atom_site_fract_z
O1 O -0.2190(2) 0.43133(9) 0.13974(11)
H1 H -0.381(11) 0.458(4) 0.134(3)
N1 N 0.2150(3) 0.06206(14) 0.38997(13)
H2 H 0.364(4) 0.0332(15) 0.3701(16)
H3 H 0.234(9) 0.054(4) 0.445(6)
C1 C -0.1733(3) 0.32497(11) 0.19248(11)
H4 H -0.3272 0.2792 0.1769
C2 C -0.1209(3) 0.33857(12) 0.31988(11)
H5 H -0.2697 0.3710 0.3501
H6 H 0.0209 0.3898 0.3362
C3 C -0.0578(3) 0.22813(12) 0.37944(11)
H7 H -0.2073 0.1802 0.3713
H8 H -0.0142 0.2415 0.4605
C4 C 0.1627(3) 0.16889(12) 0.33076(11)
H9 H 0.3147 0.2161 0.3452
C5 C 0.1085(3) 0.15556(12) 0.20286(11)
H10 H -0.0341 0.1047 0.1868
H11 H 0.2564 0.1227 0.1723
C6 C 0.0460(3) 0.26624(12) 0.14320(11)
H12 H 0.1957 0.3140 0.1513
H13 H 0.0018 0.2530 0.0621
H14? H -0.247(6) 0.424(3) 0.050(5)
H15? H 0.076(11) 0.012(4) 0.379(3)
loop_
_geom_bond_atom_site_label_1
_geom_bond_atom_site_label_2
_geom_bond_site_symmetry_1
_geom_bond_site_symmetry_2
O1 H1 1_555 1_555
N1 H2 1_555 1_555
H3 N1 1_555 1_555
C1 O1 1_555 1_555
H4 C1 1_555 1_555
C2 C1 1_555 1_555
H5 C2 1_555 1_555
H6 C2 1_555 1_555
C3 C2 1_555 1_555
H7 C3 1_555 1_555
H8 C3 1_555 1_555
C4 N1 1_555 1_555
H9 C4 1_555 1_555
C5 C4 1_555 1_555
H10 C5 1_555 1_555
H11 C5 1_555 1_555
C6 C1 1_555 1_555
H12 C6 1_555 1_555
H13 C6 1_555 1_555
C3 C4 1_555 1_555
C5 C6 1_555 1_555

#END
