
#######################################################################
#
#                 Cambridge Crystallographic Data Centre
#                                CCDC 
#
#######################################################################
#
# If this CIF has been generated from an entry in the Cambridge 
# Structural Database, then it will include bibliographic, chemical, 
# crystal, experimental, refinement or atomic coordinate data resulting 
# from the CCDC's data processing and validation procedures.
#
#######################################################################

data_MATGIX
_chemical_formula_moiety         'C20 H16 Cl2 O4 S2'
_chemical_name_systematic        
1,4-bis(4-Chlorophenylsulfonyl)-2,5-dimethylbenzene
_symmetry_cell_setting           triclinic
_symmetry_space_group_name_H-M   'P -1'
_symmetry_Int_Tables_number      2
_space_group_name_Hall           '-P 1'
loop_
_symmetry_equiv_pos_site_id
_symmetry_equiv_pos_as_xyz
1 x,y,z
2 -x,-y,-z
_cell_length_a                   5.4859(2)
_cell_length_b                   6.9595(4)
_cell_length_c                   12.5211(7)
_cell_angle_alpha                98.6245(17)
_cell_angle_beta                 93.561(4)
_cell_angle_gamma                92.174(3)
_cell_volume                     471.185
_exptl_crystal_colour            colorless
_exptl_crystal_description       plate
_chemical_melting_point          '506-508 K'
_cell_formula_units_Z            1
_exptl_crystal_recrystallization_method ethanol
loop_
_atom_site_label
_atom_site_type_symbol
_atom_site_fract_x
_atom_site_fract_y
_atom_site_fract_z
S1 S 0.85567(9) 0.33050(7) 0.32509(4)
Cl1 Cl 0.20835(10) -0.31579(8) 0.02434(5)
O1 O 1.0591(2) 0.2411(2) 0.37152(12)
O2 O 0.9031(3) 0.4838(2) 0.26234(12)
C1 C 0.3882(4) -0.1363(3) 0.10821(16)
C2 C 0.6042(4) -0.1866(3) 0.15770(16)
H1 H 0.6548 -0.3166 0.1451
C3 C 0.7455(4) -0.0436(3) 0.22619(17)
H2 H 0.8928 -0.0755 0.2621
C4 C 0.6701(4) 0.1460(3) 0.24174(16)
C5 C 0.4549(4) 0.1954(3) 0.19024(17)
H3 H 0.4062 0.3261 0.2012
C6 C 0.3121(4) 0.0531(3) 0.12291(17)
H4 H 0.1642 0.0845 0.0873
C7 C 0.6607(3) 0.4218(3) 0.42770(16)
C8 C 0.5380(3) 0.5875(3) 0.41112(16)
H5 H 0.5674 0.6454 0.3488
C9 C 0.6255(3) 0.3292(3) 0.51764(16)
C10 C 0.7562(4) 0.1531(3) 0.54296(18)
H6 H 0.9304 0.1881 0.5601
H7 H 0.6866 0.1066 0.6052
H8 H 0.7365 0.0501 0.4800
C9A C 0.3745(3) 0.6708(3) 0.48236(16)
C7A C 0.3393(3) 0.5782(3) 0.57230(16)
S1A S 0.14433(9) 0.66950(7) 0.67491(4)
O1A O -0.0591(2) 0.7589(2) 0.62848(12)
O2A O 0.0969(3) 0.5162(2) 0.73766(12)
C4A C 0.3299(4) 0.8540(3) 0.75826(16)
C3A C 0.2545(4) 1.0436(3) 0.77381(17)
C2A C 0.3958(4) 1.1866(3) 0.84230(16)
C1A C 0.6118(4) 1.1363(3) 0.89179(16)
Cl1A Cl 0.79165(10) 1.31579(8) 0.97566(5)
C6A C 0.6879(4) 0.9469(3) 0.87709(17)
C5A C 0.5451(4) 0.8046(3) 0.80976(17)
H3A H 0.5938 0.6739 0.7988
H4A H 0.8358 0.9155 0.9127
H1A H 0.3452 1.3166 0.8549
H2A H 0.1072 1.0755 0.7379
C8A C 0.4620(3) 0.4125(3) 0.58888(16)
H5A H 0.4326 0.3546 0.6512
C10A C 0.2438(4) 0.8469(3) 0.45704(18)
H6A H 0.0696 0.8119 0.4399
H7A H 0.3134 0.8934 0.3948
H8A H 0.2635 0.9499 0.5200
loop_
_geom_bond_atom_site_label_1
_geom_bond_atom_site_label_2
_geom_bond_site_symmetry_1
_geom_bond_site_symmetry_2
S1 O1 1_555 1_555
Cl1 C1 1_555 1_555
O2 S1 1_555 1_555
C1 C2 1_555 1_555
C2 H1 1_555 1_555
C3 C2 1_555 1_555
H2 C3 1_555 1_555
C4 S1 1_555 1_555
C5 C4 1_555 1_555
H3 C5 1_555 1_555
C6 C1 1_555 1_555
H4 C6 1_555 1_555
C7 S1 1_555 1_555
C8 C7 1_555 1_555
H5 C8 1_555 1_555
C9 C7 1_555 1_555
C10 C9 1_555 1_555
H6 C10 1_555 1_555
H7 C10 1_555 1_555
H8 C10 1_555 1_555
C9A C8 1_555 1_555
C7A C9A 1_555 1_555
S1A C7A 1_555 1_555
O1A S1A 1_555 1_555
O2A S1A 1_555 1_555
C4A S1A 1_555 1_555
C3A C4A 1_555 1_555
C2A C3A 1_555 1_555
C1A C2A 1_555 1_555
Cl1A C1A 1_555 1_555
C6A C1A 1_555 1_555
C5A C4A 1_555 1_555
H3A C5A 1_555 1_555
H4A C6A 1_555 1_555
H1A C2A 1_555 1_555
H2A C3A 1_555 1_555
C8A C9 1_555 1_555
H5A C8A 1_555 1_555
C10A C9A 1_555 1_555
H6A C10A 1_555 1_555
H7A C10A 1_555 1_555
H8A C10A 1_555 1_555
C3 C4 1_555 1_555
C5 C6 1_555 1_555
C7A C8A 1_555 1_555
C6A C5A 1_555 1_555

#END
