
#######################################################################
#
#                 Cambridge Crystallographic Data Centre
#                                CCDC 
#
#######################################################################
#
# If this CIF has been generated from an entry in the Cambridge 
# Structural Database, then it will include bibliographic, chemical, 
# crystal, experimental, refinement or atomic coordinate data resulting 
# from the CCDC's data processing and validation procedures.
#
#######################################################################

data_MATLUO
_chemical_compound_source        
'dried bulbs of Fritillaria cirrhosa (Liliaceae)'
_chemical_name_common            
'bis(Cevane-3beta,6alpha,20-triol) ethanol solvate monohydrate'
_chemical_formula_moiety         '2(C27 H45 N1 O3),C2 H6 O1,H2 O1'
_chemical_name_systematic        'bis(Verticine) ethanol solvate monohydrate'
_chemical_properties_biological  'biological activity'
_symmetry_cell_setting           monoclinic
_symmetry_space_group_name_H-M   'P 21'
_symmetry_Int_Tables_number      4
_space_group_name_Hall           'P 2yb'
loop_
_symmetry_equiv_pos_site_id
_symmetry_equiv_pos_as_xyz
1 x,y,z
2 -x,1/2+y,-z
_cell_length_a                   16.146(3)
_cell_length_b                   8.660(2)
_cell_length_c                   19.096(4)
_cell_angle_alpha                90
_cell_angle_beta                 93.74(3)
_cell_angle_gamma                90
_cell_volume                     2664.4
_exptl_crystal_colour            colorless
_exptl_crystal_description       plate
_cell_formula_units_Z            2
loop_
_atom_site_label
_atom_site_type_symbol
_atom_site_fract_x
_atom_site_fract_y
_atom_site_fract_z
O1 O -0.08529(15) 0.5542(3) 0.43564(12)
H1 H -0.1236 0.6143 0.4261
O2 O -0.00076(13) -0.0142(3) 0.43946(10)
H2 H 0.0304 0.0098 0.4733
O3 O 0.26677(13) -0.2083(3) 0.06246(10)
H3 H 0.3080 -0.2488 0.0475
N1 N 0.18369(15) 0.0446(3) -0.02186(12)
C1 C -0.05740(19) 0.3798(4) 0.25645(14)
H4 H -0.0406 0.4268 0.2135
H5 H -0.1115 0.3331 0.2463
C2 C -0.0651(2) 0.5066(4) 0.31189(15)
H6 H -0.0136 0.5643 0.3172
H7 H -0.1090 0.5776 0.2964
C3 C -0.08432(19) 0.4372(4) 0.38234(14)
H8 H -0.1395 0.3900 0.3772
C4 C -0.02275(18) 0.3144(3) 0.40632(14)
H9 H -0.0386 0.2702 0.4502
H10 H 0.0319 0.3601 0.4145
C5 C -0.01976(17) 0.1871(3) 0.35083(13)
H11 H -0.0770 0.1504 0.3426
C6 C 0.03096(18) 0.0467(3) 0.37639(14)
H12 H 0.0891 0.0770 0.3859
C7 C 0.0256(2) -0.0820(4) 0.32202(15)
H13 H -0.0306 -0.1220 0.3175
H14 H 0.0624 -0.1657 0.3374
C8 C 0.04986(19) -0.0228(3) 0.25107(14)
H15 H 0.1081 0.0095 0.2565
C9 C -0.00130(18) 0.1173(3) 0.22675(14)
H16 H -0.0595 0.0847 0.2231
C10 C 0.00532(17) 0.2521(3) 0.27904(14)
C11 C 0.0250(2) 0.1393(4) 0.15172(15)
H17 H 0.0769 0.1955 0.1517
H18 H -0.0172 0.1954 0.1235
C12 C 0.03500(18) -0.0264(4) 0.12320(14)
H19 H -0.0149 -0.0536 0.0939
C13 C 0.11074(17) -0.0460(3) 0.08006(14)
H20 H 0.1603 -0.0197 0.1101
C14 C 0.0411(2) -0.1342(4) 0.18922(15)
H21 H -0.0114 -0.1905 0.1913
C15 C 0.1123(2) -0.2519(4) 0.18780(17)
H22 H 0.1647 -0.1995 0.1986
H23 H 0.1057 -0.3293 0.2237
C16 C 0.1144(2) -0.3299(4) 0.11775(17)
H24 H 0.0649 -0.3926 0.1098
H25 H 0.1621 -0.3982 0.1185
C17 C 0.11931(18) -0.2135(3) 0.05611(15)
H26 H 0.0710 -0.2344 0.0238
C18 C 0.10838(19) 0.0585(4) 0.01600(15)
H27 H 0.0607 0.0319 -0.0152
H28 H 0.1020 0.1648 0.0307
C19 C 0.1782(2) 0.1541(4) -0.08067(16)
H29 H 0.1675 0.2566 -0.0629
H30 H 0.1318 0.1257 -0.1128
C20 C 0.19603(18) -0.2330(4) 0.01312(15)
C21 C 0.19541(19) -0.1137(4) -0.04672(15)
H31 H 0.1485 -0.1384 -0.0800
C22 C 0.2745(2) -0.1205(4) -0.08675(17)
H32 H 0.3222 -0.1011 -0.0543
H33 H 0.2804 -0.2234 -0.1058
C23 C 0.2739(2) -0.0031(5) -0.14645(16)
H34 H 0.3271 -0.0047 -0.1672
H35 H 0.2315 -0.0314 -0.1825
C24 C 0.2568(2) 0.1584(4) -0.12045(15)
H36 H 0.2461 0.2248 -0.1616
C25 C 0.09345(19) 0.3199(4) 0.28425(16)
H37 H 0.1328 0.2396 0.2965
H38 H 0.0972 0.3988 0.3196
H39 H 0.1055 0.3637 0.2399
C26 C 0.1989(2) -0.3966(4) -0.01728(18)
H40 H 0.2520 -0.4141 -0.0357
H41 H 0.1561 -0.4078 -0.0542
H42 H 0.1903 -0.4705 0.0190
C27 C 0.3297(2) 0.2260(5) -0.07682(18)
H43 H 0.3375 0.1703 -0.0334
H44 H 0.3190 0.3327 -0.0672
H45 H 0.3790 0.2179 -0.1022
O4 O 0.42974(15) 0.6533(3) 0.03954(10)
H46 H 0.4474 0.6101 0.0053
O5 O 0.34850(15) 0.1007(3) 0.11070(11)
H47 H 0.3121 0.0352 0.1047
O6 O 0.23827(12) 0.1921(3) 0.59692(12)
H48 H 0.2337 0.2836 0.5862
N2 N 0.36238(14) 0.4218(3) 0.60350(12)
C28 C 0.4515(2) 0.5645(4) 0.23238(14)
H49 H 0.5054 0.5146 0.2363
H50 H 0.4484 0.6333 0.2722
C29 C 0.4442(2) 0.6601(4) 0.16454(14)
H51 H 0.3931 0.7192 0.1627
H52 H 0.4902 0.7322 0.1643
C30 C 0.44475(19) 0.5567(4) 0.10085(14)
H53 H 0.5000 0.5104 0.0994
C31 C 0.38079(19) 0.4276(4) 0.10177(15)
H54 H 0.3874 0.3591 0.0623
H55 H 0.3255 0.4715 0.0967
C32 C 0.39028(18) 0.3346(4) 0.17033(14)
H56 H 0.4469 0.2933 0.1733
C33 C 0.3319(2) 0.1945(4) 0.17040(15)
H57 H 0.2742 0.2303 0.1656
C34 C 0.3455(2) 0.1006(4) 0.23814(15)
H58 H 0.3033 0.0210 0.2391
H59 H 0.3992 0.0503 0.2390
C35 C 0.34156(18) 0.2024(4) 0.30268(14)
H60 H 0.2853 0.2452 0.3024
C36 C 0.40176(17) 0.3378(4) 0.30001(13)
H61 H 0.4573 0.2940 0.2963
C37 C 0.38386(17) 0.4413(4) 0.23530(13)
C38 C 0.3995(2) 0.4068(4) 0.37388(14)
H62 H 0.3493 0.4665 0.3785
H63 H 0.4474 0.4723 0.3849
C39 C 0.40133(18) 0.2629(4) 0.42150(14)
H64 H 0.4596 0.2364 0.4334
C40 C 0.35877(17) 0.2846(3) 0.49023(14)
H65 H 0.3014 0.3175 0.4786
C41 C 0.36180(18) 0.1296(4) 0.37568(15)
H66 H 0.4036 0.0488 0.3712
C42 C 0.2873(2) 0.0592(4) 0.40836(16)
H67 H 0.2675 -0.0285 0.3804
H68 H 0.2429 0.1349 0.4078
C43 C 0.3078(2) 0.0061(4) 0.48405(16)
H69 H 0.3407 -0.0876 0.4836
H70 H 0.2567 -0.0180 0.5056
C44 C 0.35638(19) 0.1301(4) 0.52895(15)
H71 H 0.4139 0.0938 0.5356
C45 C 0.40108(18) 0.4078(4) 0.53664(14)
H72 H 0.4592 0.3817 0.5455
H73 H 0.3979 0.5063 0.5124
C46 C 0.39490(19) 0.5599(4) 0.64080(15)
H74 H 0.3818 0.6503 0.6122
H75 H 0.4549 0.5521 0.6471
C47 C 0.32439(18) 0.1506(3) 0.60287(14)
C48 C 0.37384(18) 0.2780(4) 0.64331(15)
H76 H 0.4328 0.2505 0.6455
C49 C 0.3469(2) 0.2950(4) 0.71872(15)
H77 H 0.2868 0.2989 0.7175
H78 H 0.3649 0.2046 0.7456
C50 C 0.3817(2) 0.4379(4) 0.75560(16)
H79 H 0.4416 0.4290 0.7625
H80 H 0.3593 0.4469 0.8013
C51 C 0.3596(2) 0.5815(4) 0.71237(15)
H81 H 0.3878 0.6698 0.7354
C52 C 0.2994(2) 0.5209(4) 0.23720(17)
H82 H 0.2989 0.5850 0.2782
H83 H 0.2566 0.4443 0.2386
H84 H 0.2896 0.5834 0.1960
C53 C 0.3290(2) -0.0032(4) 0.64205(17)
H85 H 0.3007 0.0057 0.6845
H86 H 0.3860 -0.0297 0.6533
H87 H 0.3031 -0.0823 0.6130
C54 C 0.2669(2) 0.6145(5) 0.70731(19)
H88 H 0.2381 0.5309 0.6834
H89 H 0.2564 0.7086 0.6817
H90 H 0.2478 0.6247 0.7536
O7 O 0.16490(17) 0.4504(4) 0.53190(17)
H91 H 0.1152 0.4561 0.5379
C55 C 0.1944(2) 0.5962(5) 0.5125(2)
H92 H 0.2546 0.5958 0.5166
H93 H 0.1755 0.6738 0.5444
C56 C 0.1652(3) 0.6376(7) 0.4392(2)
H94 H 0.1838 0.5609 0.4075
H95 H 0.1874 0.7365 0.4275
H96 H 0.1057 0.6421 0.4354
O8 O 0.5073(2) 0.4808(4) -0.05736(17)
H97 H 0.517(3) 0.384(3) -0.051(2)
H98 H 0.546(2) 0.525(5) -0.079(2)
loop_
_geom_bond_atom_site_label_1
_geom_bond_atom_site_label_2
_geom_bond_site_symmetry_1
_geom_bond_site_symmetry_2
O1 H1 1_555 1_555
O2 H2 1_555 1_555
O3 H3 1_555 1_555
N1 C18 1_555 1_555
C1 H4 1_555 1_555
H5 C1 1_555 1_555
C2 C1 1_555 1_555
H6 C2 1_555 1_555
H7 C2 1_555 1_555
C3 O1 1_555 1_555
H8 C3 1_555 1_555
C4 C3 1_555 1_555
H9 C4 1_555 1_555
H10 C4 1_555 1_555
C5 C4 1_555 1_555
H11 C5 1_555 1_555
C6 O2 1_555 1_555
H12 C6 1_555 1_555
C7 C6 1_555 1_555
H13 C7 1_555 1_555
H14 C7 1_555 1_555
C8 C7 1_555 1_555
H15 C8 1_555 1_555
C9 C8 1_555 1_555
H16 C9 1_555 1_555
C10 C1 1_555 1_555
C11 C9 1_555 1_555
H17 C11 1_555 1_555
H18 C11 1_555 1_555
C12 C11 1_555 1_555
H19 C12 1_555 1_555
C13 C12 1_555 1_555
H20 C13 1_555 1_555
C14 C8 1_555 1_555
H21 C14 1_555 1_555
C15 C14 1_555 1_555
H22 C15 1_555 1_555
H23 C15 1_555 1_555
C16 C15 1_555 1_555
H24 C16 1_555 1_555
H25 C16 1_555 1_555
C17 C13 1_555 1_555
H26 C17 1_555 1_555
C18 C13 1_555 1_555
H27 C18 1_555 1_555
H28 C18 1_555 1_555
C19 N1 1_555 1_555
H29 C19 1_555 1_555
H30 C19 1_555 1_555
C20 O3 1_555 1_555
C21 N1 1_555 1_555
H31 C21 1_555 1_555
C22 C21 1_555 1_555
H32 C22 1_555 1_555
H33 C22 1_555 1_555
C23 C22 1_555 1_555
H34 C23 1_555 1_555
H35 C23 1_555 1_555
C24 C19 1_555 1_555
H36 C24 1_555 1_555
C25 C10 1_555 1_555
H37 C25 1_555 1_555
H38 C25 1_555 1_555
H39 C25 1_555 1_555
C26 C20 1_555 1_555
H40 C26 1_555 1_555
H41 C26 1_555 1_555
H42 C26 1_555 1_555
C27 C24 1_555 1_555
H43 C27 1_555 1_555
H44 C27 1_555 1_555
H45 C27 1_555 1_555
O4 H46 1_555 1_555
O5 H47 1_555 1_555
O6 H48 1_555 1_555
N2 C45 1_555 1_555
C28 H49 1_555 1_555
H50 C28 1_555 1_555
C29 C28 1_555 1_555
H51 C29 1_555 1_555
H52 C29 1_555 1_555
C30 O4 1_555 1_555
H53 C30 1_555 1_555
C31 C30 1_555 1_555
H54 C31 1_555 1_555
H55 C31 1_555 1_555
C32 C31 1_555 1_555
H56 C32 1_555 1_555
C33 O5 1_555 1_555
H57 C33 1_555 1_555
C34 C33 1_555 1_555
H58 C34 1_555 1_555
H59 C34 1_555 1_555
C35 C34 1_555 1_555
H60 C35 1_555 1_555
C36 C35 1_555 1_555
H61 C36 1_555 1_555
C37 C28 1_555 1_555
C38 C36 1_555 1_555
H62 C38 1_555 1_555
H63 C38 1_555 1_555
C39 C38 1_555 1_555
H64 C39 1_555 1_555
C40 C39 1_555 1_555
H65 C40 1_555 1_555
C41 C35 1_555 1_555
H66 C41 1_555 1_555
C42 C41 1_555 1_555
H67 C42 1_555 1_555
H68 C42 1_555 1_555
C43 C42 1_555 1_555
H69 C43 1_555 1_555
H70 C43 1_555 1_555
C44 C40 1_555 1_555
H71 C44 1_555 1_555
C45 C40 1_555 1_555
H72 C45 1_555 1_555
H73 C45 1_555 1_555
C46 N2 1_555 1_555
H74 C46 1_555 1_555
H75 C46 1_555 1_555
C47 O6 1_555 1_555
C48 N2 1_555 1_555
H76 C48 1_555 1_555
C49 C48 1_555 1_555
H77 C49 1_555 1_555
H78 C49 1_555 1_555
C50 C49 1_555 1_555
H79 C50 1_555 1_555
H80 C50 1_555 1_555
C51 C46 1_555 1_555
H81 C51 1_555 1_555
C52 C37 1_555 1_555
H82 C52 1_555 1_555
H83 C52 1_555 1_555
H84 C52 1_555 1_555
C53 C47 1_555 1_555
H85 C53 1_555 1_555
H86 C53 1_555 1_555
H87 C53 1_555 1_555
C54 C51 1_555 1_555
H88 C54 1_555 1_555
H89 C54 1_555 1_555
H90 C54 1_555 1_555
O7 H91 1_555 1_555
C55 O7 1_555 1_555
H92 C55 1_555 1_555
H93 C55 1_555 1_555
C56 C55 1_555 1_555
H94 C56 1_555 1_555
H95 C56 1_555 1_555
H96 C56 1_555 1_555
O8 H97 1_555 1_555
H98 O8 1_555 1_555
C2 C3 1_555 1_555
C5 C10 1_555 1_555
C5 C6 1_555 1_555
C9 C10 1_555 1_555
C12 C14 1_555 1_555
C16 C17 1_555 1_555
C17 C20 1_555 1_555
C20 C21 1_555 1_555
C23 C24 1_555 1_555
C29 C30 1_555 1_555
C32 C37 1_555 1_555
C32 C33 1_555 1_555
C36 C37 1_555 1_555
C39 C41 1_555 1_555
C43 C44 1_555 1_555
C44 C47 1_555 1_555
C47 C48 1_555 1_555
C50 C51 1_555 1_555

#END
