
#######################################################################
#
#                 Cambridge Crystallographic Data Centre
#                                CCDC 
#
#######################################################################
#
# If this CIF has been generated from an entry in the Cambridge 
# Structural Database, then it will include bibliographic, chemical, 
# crystal, experimental, refinement or atomic coordinate data resulting 
# from the CCDC's data processing and validation procedures.
#
#######################################################################

data_MATQAZ
_chemical_formula_moiety         'C11 H12 Br1 N5 O2'
_chemical_name_systematic        
(6-Bromo-4-oxo-3,4-dihydropteridin-2-yl)-2,2-dimethylpropanamide
_symmetry_cell_setting           monoclinic
_symmetry_space_group_name_H-M   'P 21/c'
_symmetry_Int_Tables_number      14
_space_group_name_Hall           '-P 2ybc'
loop_
_symmetry_equiv_pos_site_id
_symmetry_equiv_pos_as_xyz
1 x,y,z
2 x,1/2-y,1/2+z
3 -x,-y,-z
4 -x,1/2+y,1/2-z
_cell_length_a                   13.43150(10)
_cell_length_b                   10.3779(2)
_cell_length_c                   10.2560(2)
_cell_angle_alpha                90
_cell_angle_beta                 106.2160(10)
_cell_angle_gamma                90
_cell_volume                     1372.72
_exptl_crystal_colour            yellow
_exptl_crystal_description       slab
_cell_formula_units_Z            4
_exptl_crystal_recrystallization_method 'methylene chloride/methanol'
loop_
_atom_site_label
_atom_site_type_symbol
_atom_site_fract_x
_atom_site_fract_y
_atom_site_fract_z
Br1 Br 0.48346(4) 0.19108(5) 0.57471(6)
O1 O 0.2784(3) 0.5192(3) 0.1540(2)
O2 O 0.1154(2) 0.8877(3) 0.1507(3)
N1 N 0.3595(3) 0.5396(3) 0.6380(3)
N2 N 0.3757(3) 0.3971(4) 0.4093(4)
N3 N 0.2455(2) 0.6974(3) 0.2649(3)
H1 H 0.2230 0.7383 0.1894
N4 N 0.2759(2) 0.7073(3) 0.5022(3)
N5 N 0.2040(2) 0.8812(3) 0.3733(3)
H2 H 0.2207 0.9259 0.4469
C1 C 0.4061(3) 0.4259(4) 0.6502(4)
H3 H 0.4342 0.3934 0.7373
C2 C 0.4159(3) 0.3520(4) 0.5413(4)
C3 C 0.3267(3) 0.5175(3) 0.3960(3)
C4 C 0.2828(3) 0.5739(3) 0.2617(3)
C5 C 0.2428(2) 0.7576(3) 0.3817(3)
C6 C 0.3210(3) 0.5871(3) 0.5104(3)
C7 C 0.1408(3) 0.9415(4) 0.2590(4)
C8 C 0.1043(3) 1.0784(4) 0.2793(4)
C9 C 0.0374(8) 1.0643(9) 0.3888(11)
H4 H -0.0170 1.0025 0.3562
H5 H 0.0077 1.1462 0.4003
H6 H 0.0820 1.0360 0.4743
C10 C 0.1933(12) 1.1656(13) 0.3428(17)
H7 H 0.2372 1.1252 0.4224
H8 H 0.1674 1.2454 0.3677
H9 H 0.2323 1.1821 0.2792
C11 C 0.0315(12) 1.1274(11) 0.1565(10)
H10 H -0.0192 1.0623 0.1188
H11 H 0.0682 1.1496 0.0916
H12 H -0.0026 1.2025 0.1780
C12? C -0.0072(10) 1.0720(14) 0.2468(18)
H13? H -0.0340 1.0290 0.1613
H14? H -0.0350 1.1577 0.2410
H15? H -0.0267 1.0251 0.3165
C13? C 0.1625(18) 1.1444(15) 0.4029(17)
H16? H 0.2354 1.1374 0.4119
H17? H 0.1474 1.1055 0.4801
H18? H 0.1431 1.2337 0.3977
C14? C 0.1296(18) 1.1592(11) 0.1537(16)
H19? H 0.2030 1.1733 0.1737
H20? H 0.0944 1.2407 0.1431
H21? H 0.1062 1.1106 0.0711
loop_
_geom_bond_atom_site_label_1
_geom_bond_atom_site_label_2
_geom_bond_site_symmetry_1
_geom_bond_site_symmetry_2
Br1 C2 1_555 1_555
O1 C4 1_555 1_555
O2 C7 1_555 1_555
N1 C1 1_555 1_555
N2 C2 1_555 1_555
N3 H1 1_555 1_555
N4 C5 1_555 1_555
N5 H2 1_555 1_555
C1 H3 1_555 1_555
C2 C1 1_555 1_555
C3 N2 1_555 1_555
C4 N3 1_555 1_555
C5 N3 1_555 1_555
C6 N1 1_555 1_555
C7 N5 1_555 1_555
C8 C7 1_555 1_555
C9 C8 1_555 1_555
H4 C9 1_555 1_555
H5 C9 1_555 1_555
H6 C9 1_555 1_555
C10 C8 1_555 1_555
H7 C10 1_555 1_555
H8 C10 1_555 1_555
H9 C10 1_555 1_555
C11 C8 1_555 1_555
H10 C11 1_555 1_555
H11 C11 1_555 1_555
H12 C11 1_555 1_555
N4 C6 1_555 1_555
N5 C5 1_555 1_555
C3 C4 1_555 1_555
C3 C6 1_555 1_555

#END
