
#######################################################################
#
#                 Cambridge Crystallographic Data Centre
#                                CCDC 
#
#######################################################################
#
# If this CIF has been generated from an entry in the Cambridge 
# Structural Database, then it will include bibliographic, chemical, 
# crystal, experimental, refinement or atomic coordinate data resulting 
# from the CCDC's data processing and validation procedures.
#
#######################################################################

data_MATVUB
_chemical_formula_moiety         'C26 H26 Br1 O3 P1'
_chemical_name_systematic        
'(Z)-t-butyl 3-(4-bromophenyl)-2-((diphenylphosphoryl)methyl)acrylate'
_symmetry_cell_setting           triclinic
_symmetry_space_group_name_H-M   'P -1'
_symmetry_Int_Tables_number      2
_space_group_name_Hall           '-P 1'
loop_
_symmetry_equiv_pos_site_id
_symmetry_equiv_pos_as_xyz
1 x,y,z
2 -x,-y,-z
_cell_length_a                   6.0572(6)
_cell_length_b                   12.7385(11)
_cell_length_c                   16.2312(15)
_cell_angle_alpha                71.599(5)
_cell_angle_beta                 85.516(5)
_cell_angle_gamma                80.119(5)
_cell_volume                     1170.35
_exptl_crystal_colour            white
_exptl_crystal_description       needle
_cell_formula_units_Z            2
loop_
_atom_site_label
_atom_site_type_symbol
_atom_site_fract_x
_atom_site_fract_y
_atom_site_fract_z
Br1 Br -0.25265(5) -0.32953(3) 0.33684(2)
P1 P 0.34849(10) 0.17409(5) 0.17133(4)
C1 C -0.1434(4) -0.0270(2) 0.35475(16)
H1 H -0.2209 0.0458 0.3408
C2 C -0.1259(4) -0.2172(2) 0.36193(16)
C3 C 0.1741(4) -0.1608(2) 0.41423(16)
H2 H 0.3120 -0.1787 0.4409
C4 C 0.0683(4) -0.05037(19) 0.38918(14)
C5 C -0.2410(4) -0.1100(2) 0.34092(16)
H3 H -0.3830 -0.0935 0.3177
C6 C 0.0787(4) -0.2445(2) 0.40038(18)
H4 H 0.1519 -0.3182 0.4168
C7 C 0.3766(4) 0.0389(2) 0.15378(15)
C8 C 0.2499(7) -0.1292(3) 0.1537(2)
H5 H 0.1385 -0.1743 0.1663
C9 C 0.5795(5) 0.0024(3) 0.11872(19)
H6 H 0.6932 0.0462 0.1068
C10 C 0.2107(5) -0.0269(2) 0.17027(18)
H7 H 0.0720 -0.0030 0.1926
C11 C 0.4504(8) -0.1635(3) 0.1191(2)
H8 H 0.4757 -0.2317 0.1075
C12 C 0.6139(7) -0.0980(3) 0.1015(2)
H9 H 0.7506 -0.1214 0.0774
C13 C 0.2394(4) 0.27343(19) 0.07131(15)
C14 C 0.0398(4) 0.2700(2) 0.03640(17)
H10 H -0.0480 0.2160 0.0662
C15 C 0.3637(5) 0.3554(2) 0.02614(18)
H11 H 0.4981 0.3591 0.0484
C16 C 0.2915(5) 0.4323(2) -0.05164(19)
H12 H 0.3760 0.4880 -0.0809
C17 C -0.0295(5) 0.3458(2) -0.04191(18)
H13 H -0.1624 0.3420 -0.0651
C18 C 0.0963(5) 0.4269(2) -0.08580(18)
H14 H 0.0490 0.4780 -0.1387
O1 O 0.5666(3) 0.19672(15) 0.19183(11)
C19 C 0.1260(4) 0.18272(19) 0.25150(14)
H15 H 0.0586 0.2604 0.2410
H16 H 0.0109 0.1416 0.2452
C20 C 0.1878(4) 0.0363(2) 0.39966(15)
H17 H 0.2560 0.0191 0.4527
C21 C 0.2107(4) 0.13577(19) 0.34310(15)
C22 C 0.3424(4) 0.2060(2) 0.37305(16)
C23 C 0.6711(4) 0.3646(3) 0.3231(2)
H18 H 0.7278 0.3017 0.3712
H19 H 0.7475 0.4263 0.3185
H20 H 0.6956 0.3445 0.2705
C24 C 0.3310(5) 0.5025(2) 0.26501(19)
H21 H 0.3625 0.4892 0.2099
H22 H 0.4008 0.5641 0.2662
H23 H 0.1719 0.5198 0.2733
C25 C 0.3625(5) 0.4137(2) 0.42461(18)
H24 H 0.2024 0.4294 0.4310
H25 H 0.4277 0.4751 0.4292
H26 H 0.4188 0.3466 0.4694
C26 C 0.4226(4) 0.39793(19) 0.33737(16)
O2 O 0.2997(3) 0.31363(13) 0.32490(10)
O3 O 0.4657(3) 0.17012(14) 0.43306(13)
loop_
_geom_bond_atom_site_label_1
_geom_bond_atom_site_label_2
_geom_bond_site_symmetry_1
_geom_bond_site_symmetry_2
Br1 C2 1_555 1_555
P1 C7 1_555 1_555
C1 H1 1_555 1_555
C2 C5 1_555 1_555
C3 H2 1_555 1_555
C4 C1 1_555 1_555
C5 C1 1_555 1_555
H3 C5 1_555 1_555
C6 C2 1_555 1_555
H4 C6 1_555 1_555
C7 C9 1_555 1_555
C8 H5 1_555 1_555
C9 H6 1_555 1_555
C10 C7 1_555 1_555
H7 C10 1_555 1_555
C11 C8 1_555 1_555
H8 C11 1_555 1_555
C12 C9 1_555 1_555
H9 C12 1_555 1_555
C13 P1 1_555 1_555
C14 C13 1_555 1_555
H10 C14 1_555 1_555
C15 C13 1_555 1_555
H11 C15 1_555 1_555
C16 C15 1_555 1_555
H12 C16 1_555 1_555
C17 C14 1_555 1_555
H13 C17 1_555 1_555
C18 C16 1_555 1_555
H14 C18 1_555 1_555
O1 P1 1_555 1_555
C19 P1 1_555 1_555
H15 C19 1_555 1_555
H16 C19 1_555 1_555
C20 C4 1_555 1_555
H17 C20 1_555 1_555
C21 C19 1_555 1_555
C22 C21 1_555 1_555
C23 H18 1_555 1_555
H19 C23 1_555 1_555
H20 C23 1_555 1_555
C24 H21 1_555 1_555
H22 C24 1_555 1_555
H23 C24 1_555 1_555
C25 H24 1_555 1_555
H25 C25 1_555 1_555
H26 C25 1_555 1_555
C26 C23 1_555 1_555
O2 C22 1_555 1_555
O3 C22 1_555 1_555
C3 C4 1_555 1_555
C3 C6 1_555 1_555
C8 C10 1_555 1_555
C11 C12 1_555 1_555
C17 C18 1_555 1_555
C20 C21 1_555 1_555
C24 C26 1_555 1_555
C25 C26 1_555 1_555
C26 O2 1_555 1_555

#END
