
#######################################################################
#
#                 Cambridge Crystallographic Data Centre
#                                CCDC 
#
#######################################################################
#
# If this CIF has been generated from an entry in the Cambridge 
# Structural Database, then it will include bibliographic, chemical, 
# crystal, experimental, refinement or atomic coordinate data resulting 
# from the CCDC's data processing and validation procedures.
#
#######################################################################

data_MAVBUJ
_chemical_formula_moiety         'C35 H35 Br1 N2 O7'
_chemical_name_systematic        
'3-(4-(4-bromophenyl)-2-(4-methoxybenzoyl)-3a-(4-methoxyphenyl)-6,6-dimethyl-8-oxo-4,5,6,7,8,8b-hexahydro-2H-[1,3]oxazolo[5,4-b]indol-1(3aH)-yl)propanoic acid'
_symmetry_cell_setting           monoclinic
_symmetry_space_group_name_H-M   'P 21/n'
_symmetry_Int_Tables_number      14
_space_group_name_Hall           '-P 2yn'
loop_
_symmetry_equiv_pos_site_id
_symmetry_equiv_pos_as_xyz
1 x,y,z
2 1/2-x,1/2+y,1/2-z
3 -x,-y,-z
4 1/2+x,1/2-y,1/2+z
_cell_length_a                   14.0787(13)
_cell_length_b                   16.1044(14)
_cell_length_c                   14.3694(12)
_cell_angle_alpha                90
_cell_angle_beta                 94.4550(10)
_cell_angle_gamma                90
_cell_volume                     3248.12
_exptl_crystal_colour            white
_exptl_crystal_description       block
_cell_formula_units_Z            4
loop_
_atom_site_label
_atom_site_type_symbol
_atom_site_fract_x
_atom_site_fract_y
_atom_site_fract_z
Br1 Br 0.35427(5) 1.19623(4) 0.07829(5)
N1 N 0.4928(2) 0.7649(2) 0.4832(2)
N2 N 0.3817(2) 0.8754(2) 0.3006(2)
O1 O 0.48652(18) 0.90285(17) 0.4378(2)
O2 O 0.6008(2) 0.8676(2) 0.3051(2)
O3 O 0.8335(3) 0.5357(2) 0.3224(3)
O4 O 0.0934(2) 1.0034(2) 0.5936(2)
O5 O 0.4391(2) 0.59941(19) 0.3649(2)
O6 O 0.5887(3) 0.6193(2) 0.6301(3)
O7 O 0.4605(2) 0.5399(2) 0.6095(2)
H1 H 0.5001 0.5024 0.6119
C1 C 0.5499(3) 0.8330(3) 0.4544(3)
H2 H 0.5967 0.8470 0.5061
C2 C 0.4043(3) 0.7748(3) 0.4228(3)
H3 H 0.3492 0.7535 0.4530
C3 C 0.3955(3) 0.8711(3) 0.4044(3)
C4 C 0.3959(3) 0.7996(3) 0.2625(3)
C5 C 0.4092(3) 0.7386(3) 0.3274(3)
C6 C 0.4290(3) 0.6548(3) 0.3055(4)
C7 C 0.4431(4) 0.6388(3) 0.2042(4)
H4 H 0.4255 0.5817 0.1900
H5 H 0.5104 0.6445 0.1954
C8 C 0.3871(3) 0.6954(3) 0.1337(3)
C9 C 0.4025(3) 0.7861(3) 0.1606(3)
H6 H 0.4648 0.8036 0.1437
H7 H 0.3551 0.8200 0.1259
C10 C 0.6039(3) 0.8155(3) 0.3668(3)
C11 C 0.6626(3) 0.7403(3) 0.3610(3)
C12 C 0.7133(3) 0.7304(3) 0.2829(4)
H8 H 0.7090 0.7709 0.2367
C13 C 0.7698(4) 0.6622(3) 0.2721(4)
H9 H 0.8025 0.6564 0.2187
C14 C 0.7779(3) 0.6018(3) 0.3412(4)
C15 C 0.7298(3) 0.6115(3) 0.4194(4)
H10 H 0.7355 0.5714 0.4661
C16 C 0.6730(3) 0.6795(3) 0.4298(3)
H11 H 0.6409 0.6851 0.4837
C17 C 0.8457(5) 0.4721(4) 0.3909(5)
H12 H 0.8761 0.4947 0.4474
H13 H 0.8846 0.4286 0.3684
H14 H 0.7846 0.4499 0.4031
C18 C 0.3181(3) 0.9151(2) 0.4510(3)
C19 C 0.2227(3) 0.9045(3) 0.4171(3)
H15 H 0.2083 0.8768 0.3610
C20 C 0.1506(3) 0.9349(3) 0.4663(3)
H16 H 0.0875 0.9269 0.4438
C21 C 0.1709(3) 0.9775(3) 0.5491(3)
C22 C 0.2636(3) 0.9912(3) 0.5816(3)
H17 H 0.2775 1.0211 0.6363
C23 C 0.3365(3) 0.9599(3) 0.5319(3)
H18 H 0.3994 0.9695 0.5540
C24 C 0.1107(4) 1.0487(4) 0.6785(4)
H19 H 0.1457 1.0146 0.7239
H20 H 0.0511 1.0645 0.7015
H21 H 0.1471 1.0976 0.6671
C25 C 0.5040(4) 0.6114(3) 0.6173(3)
C26 C 0.4351(3) 0.6833(3) 0.6122(4)
H22 H 0.4102 0.6903 0.6727
H23 H 0.3819 0.6699 0.5677
C27 C 0.4784(3) 0.7644(3) 0.5839(3)
H24 H 0.4367 0.8099 0.5980
H25 H 0.5391 0.7726 0.6194
C28 C 0.3743(3) 0.9521(2) 0.2508(3)
C29 C 0.2930(3) 0.9699(3) 0.1944(3)
H26 H 0.2425 0.9326 0.1908
C30 C 0.2859(3) 1.0421(3) 0.1435(3)
H27 H 0.2308 1.0538 0.1058
C31 C 0.3607(4) 1.0970(3) 0.1490(4)
C32 C 0.4412(3) 1.0819(3) 0.2072(4)
H28 H 0.4902 1.1207 0.2128
C33 C 0.4485(3) 1.0082(3) 0.2573(3)
H29 H 0.5034 0.9967 0.2953
C34 C 0.4192(5) 0.6829(3) 0.0356(4)
H30 H 0.3812 0.7169 -0.0077
H31 H 0.4116 0.6256 0.0181
H32 H 0.4850 0.6983 0.0347
C35 C 0.2805(4) 0.6746(3) 0.1344(4)
H33 H 0.2444 0.7104 0.0915
H34 H 0.2605 0.6827 0.1962
H35 H 0.2701 0.6178 0.1161
loop_
_geom_bond_atom_site_label_1
_geom_bond_atom_site_label_2
_geom_bond_site_symmetry_1
_geom_bond_site_symmetry_2
Br1 C31 1_555 1_555
N1 C1 1_555 1_555
N2 C3 1_555 1_555
O1 C1 1_555 1_555
O2 C10 1_555 1_555
O3 C14 1_555 1_555
O4 C21 1_555 1_555
O5 C6 1_555 1_555
O6 C25 1_555 1_555
O7 H1 1_555 1_555
C1 H2 1_555 1_555
C2 N1 1_555 1_555
H3 C2 1_555 1_555
C3 O1 1_555 1_555
C4 N2 1_555 1_555
C5 C2 1_555 1_555
C6 C5 1_555 1_555
C7 C6 1_555 1_555
H4 C7 1_555 1_555
H5 C7 1_555 1_555
C8 C7 1_555 1_555
C9 C4 1_555 1_555
H6 C9 1_555 1_555
H7 C9 1_555 1_555
C10 C1 1_555 1_555
C11 C10 1_555 1_555
C12 C11 1_555 1_555
H8 C12 1_555 1_555
C13 C12 1_555 1_555
H9 C13 1_555 1_555
C14 C13 1_555 1_555
C15 C14 1_555 1_555
H10 C15 1_555 1_555
C16 C11 1_555 1_555
H11 C16 1_555 1_555
C17 O3 1_555 1_555
H12 C17 1_555 1_555
H13 C17 1_555 1_555
H14 C17 1_555 1_555
C18 C3 1_555 1_555
C19 C18 1_555 1_555
H15 C19 1_555 1_555
C20 C19 1_555 1_555
H16 C20 1_555 1_555
C21 C20 1_555 1_555
C22 C21 1_555 1_555
H17 C22 1_555 1_555
C23 C18 1_555 1_555
H18 C23 1_555 1_555
C24 O4 1_555 1_555
H19 C24 1_555 1_555
H20 C24 1_555 1_555
H21 C24 1_555 1_555
C25 O7 1_555 1_555
C26 C25 1_555 1_555
H22 C26 1_555 1_555
H23 C26 1_555 1_555
C27 N1 1_555 1_555
H24 C27 1_555 1_555
H25 C27 1_555 1_555
C28 N2 1_555 1_555
C29 C28 1_555 1_555
H26 C29 1_555 1_555
C30 C29 1_555 1_555
H27 C30 1_555 1_555
C31 C30 1_555 1_555
C32 C31 1_555 1_555
H28 C32 1_555 1_555
C33 C28 1_555 1_555
H29 C33 1_555 1_555
C34 C8 1_555 1_555
H30 C34 1_555 1_555
H31 C34 1_555 1_555
H32 C34 1_555 1_555
C35 C8 1_555 1_555
H33 C35 1_555 1_555
H34 C35 1_555 1_555
H35 C35 1_555 1_555
C2 C3 1_555 1_555
C4 C5 1_555 1_555
C8 C9 1_555 1_555
C15 C16 1_555 1_555
C22 C23 1_555 1_555
C26 C27 1_555 1_555
C32 C33 1_555 1_555

#END
