
#######################################################################
#
#                 Cambridge Crystallographic Data Centre
#                                CCDC 
#
#######################################################################
#
# If this CIF has been generated from an entry in the Cambridge 
# Structural Database, then it will include bibliographic, chemical, 
# crystal, experimental, refinement or atomic coordinate data resulting 
# from the CCDC's data processing and validation procedures.
#
#######################################################################

data_MAVCUK
_chemical_formula_moiety         'C25 H22 Br1 Cl1 N2 O4'
_chemical_name_systematic        
'ethyl (4-bromophenyl)(1-((4-chlorophenyl)amino)-2-methoxy-3-oxo-2,3-dihydro-1H-isoindol-1-yl)acetate unknown solvate'
_symmetry_cell_setting           triclinic
_symmetry_space_group_name_H-M   'P -1'
_symmetry_Int_Tables_number      2
_space_group_name_Hall           '-P 1'
loop_
_symmetry_equiv_pos_site_id
_symmetry_equiv_pos_as_xyz
1 x,y,z
2 -x,-y,-z
_cell_length_a                   8.5381(6)
_cell_length_b                   10.8658(9)
_cell_length_c                   15.3763(11)
_cell_angle_alpha                104.009(6)
_cell_angle_beta                 90.953(6)
_cell_angle_gamma                99.026(6)
_cell_volume                     1364.72
_exptl_crystal_colour            yellow
_exptl_crystal_description       block
_cell_formula_units_Z            2
loop_
_atom_site_label
_atom_site_type_symbol
_atom_site_fract_x
_atom_site_fract_y
_atom_site_fract_z
Br1 Br 0.83650(6) 0.62841(6) -0.00485(4)
Cl1 Cl -0.21474(15) 0.22639(11) 0.32521(10)
O1 O 0.3331(3) 0.9567(2) 0.55337(15)
O2 O 0.1494(3) 0.9412(2) 0.39819(16)
O3 O 0.1622(3) 0.8938(2) 0.18837(17)
O4 O 0.3308(3) 1.0723(2) 0.25653(17)
N1 N 0.2428(3) 0.8515(2) 0.40774(18)
N2 N 0.1935(3) 0.6878(2) 0.26603(18)
H1 H 0.1815 0.6988 0.2129
C1 C 0.4315(4) 0.7236(3) 0.3702(2)
C2 C 0.5165(4) 0.6266(3) 0.3326(3)
H2 H 0.5023 0.5846 0.2720
C3 C 0.6218(5) 0.5955(4) 0.3883(3)
H3 H 0.6815 0.5318 0.3648
C4 C 0.6421(5) 0.6568(4) 0.4795(3)
H4 H 0.7138 0.6322 0.5156
C5 C 0.5589(4) 0.7524(4) 0.5172(3)
H5 H 0.5731 0.7944 0.5778
C6 C 0.4526(4) 0.7833(3) 0.4602(2)
C7 C 0.3410(4) 0.8782(3) 0.4840(2)
C8 C 0.3093(3) 0.7797(3) 0.3260(2)
C9 C -0.0158(5) 0.8880(5) 0.4010(4)
H6 H -0.0450 0.8148 0.3510
H7 H -0.0802 0.9519 0.3978
H8 H -0.0322 0.8621 0.4560
C10 C 0.0974(4) 0.5817(3) 0.2849(2)
C11 C 0.1098(4) 0.5439(3) 0.3641(2)
H9 H 0.1829 0.5919 0.4101
C12 C 0.0126(4) 0.4339(4) 0.3746(3)
H10 H 0.0223 0.4082 0.4276
C13 C -0.0960(4) 0.3634(3) 0.3091(3)
C14 C -0.1120(4) 0.4015(3) 0.2312(3)
H11 H -0.1873 0.3540 0.1863
C15 C -0.0169(4) 0.5096(3) 0.2193(2)
H12 H -0.0291 0.5350 0.1663
C16 C 0.3945(3) 0.8787(3) 0.2754(2)
H13 H 0.4646 0.9451 0.3199
C17 C 0.4989(4) 0.8178(3) 0.2032(2)
C18 C 0.4389(4) 0.7352(3) 0.1229(2)
H14 H 0.3296 0.7158 0.1104
C19 C 0.5399(5) 0.6799(4) 0.0598(3)
H15 H 0.4988 0.6251 0.0053
C20 C 0.6987(5) 0.7075(4) 0.0796(3)
C21 C 0.7635(4) 0.7917(4) 0.1581(3)
H16 H 0.8730 0.8117 0.1695
C22 C 0.6620(4) 0.8466(3) 0.2202(2)
H17 H 0.7041 0.9033 0.2739
C23 C 0.2790(4) 0.9461(3) 0.2354(2)
C24 C 0.2322(6) 1.1504(4) 0.2229(3)
H18 H 0.1362 1.1544 0.2556
H19 H 0.2023 1.1130 0.1598
C25 C 0.3252(7) 1.2808(4) 0.2355(4)
H20 H 0.4176 1.2762 0.2009
H21 H 0.3575 1.3157 0.2979
H22 H 0.2610 1.3352 0.2160
loop_
_geom_bond_atom_site_label_1
_geom_bond_atom_site_label_2
_geom_bond_site_symmetry_1
_geom_bond_site_symmetry_2
Br1 C20 1_555 1_555
Cl1 C13 1_555 1_555
O1 C7 1_555 1_555
O2 N1 1_555 1_555
O3 C23 1_555 1_555
O4 C23 1_555 1_555
N1 C7 1_555 1_555
N2 H1 1_555 1_555
C1 C2 1_555 1_555
C2 H2 1_555 1_555
C3 C2 1_555 1_555
H3 C3 1_555 1_555
C4 C3 1_555 1_555
H4 C4 1_555 1_555
C5 C4 1_555 1_555
H5 C5 1_555 1_555
C6 C1 1_555 1_555
C7 C6 1_555 1_555
C8 N1 1_555 1_555
C9 O2 1_555 1_555
H6 C9 1_555 1_555
H7 C9 1_555 1_555
H8 C9 1_555 1_555
C10 N2 1_555 1_555
C11 C10 1_555 1_555
H9 C11 1_555 1_555
C12 C11 1_555 1_555
H10 C12 1_555 1_555
C13 C12 1_555 1_555
C14 C13 1_555 1_555
H11 C14 1_555 1_555
C15 C10 1_555 1_555
H12 C15 1_555 1_555
C16 C8 1_555 1_555
H13 C16 1_555 1_555
C17 C16 1_555 1_555
C18 C17 1_555 1_555
H14 C18 1_555 1_555
C19 C18 1_555 1_555
H15 C19 1_555 1_555
C20 C19 1_555 1_555
C21 C20 1_555 1_555
H16 C21 1_555 1_555
C22 C17 1_555 1_555
H17 C22 1_555 1_555
C23 C16 1_555 1_555
C24 O4 1_555 1_555
H18 C24 1_555 1_555
H19 C24 1_555 1_555
C25 C24 1_555 1_555
H20 C25 1_555 1_555
H21 C25 1_555 1_555
H22 C25 1_555 1_555
N2 C8 1_555 1_555
C1 C8 1_555 1_555
C5 C6 1_555 1_555
C14 C15 1_555 1_555
C21 C22 1_555 1_555

#END
