
#######################################################################
#
#                 Cambridge Crystallographic Data Centre
#                                CCDC 
#
#######################################################################
#
# If this CIF has been generated from an entry in the Cambridge 
# Structural Database, then it will include bibliographic, chemical, 
# crystal, experimental, refinement or atomic coordinate data resulting 
# from the CCDC's data processing and validation procedures.
#
#######################################################################

data_MAVCOE
_chemical_formula_moiety         'C23 H20 N2 O1'
_chemical_name_systematic        
4-methyl-3-((4-methylphenyl)imino)-4-phenyl-3,4-dihydroisoquinolin-1(2H)-one
_symmetry_cell_setting           triclinic
_symmetry_space_group_name_H-M   'P -1'
_symmetry_Int_Tables_number      2
_space_group_name_Hall           '-P 1'
loop_
_symmetry_equiv_pos_site_id
_symmetry_equiv_pos_as_xyz
1 x,y,z
2 -x,-y,-z
_cell_length_a                   7.6762(6)
_cell_length_b                   10.2708(9)
_cell_length_c                   12.3668(10)
_cell_angle_alpha                101.731(7)
_cell_angle_beta                 92.064(6)
_cell_angle_gamma                107.741(7)
_cell_volume                     904.212
_exptl_crystal_colour            colorless
_exptl_crystal_description       block
_cell_formula_units_Z            2
loop_
_atom_site_label
_atom_site_type_symbol
_atom_site_fract_x
_atom_site_fract_y
_atom_site_fract_z
O1 O 0.09878(19) 0.38323(15) 0.49408(10)
N1 N 0.09243(17) 0.47923(14) 0.34588(10)
H1 H 0.0120 0.5156 0.3732
N2 N 0.12394(19) 0.59851(15) 0.20058(11)
C1 C 0.4148(3) 0.3129(2) 0.43440(15)
H2 H 0.3887 0.3154 0.5075
C2 C 0.5588(3) 0.2689(2) 0.39685(17)
H3 H 0.6322 0.2437 0.4449
C3 C 0.5933(2) 0.2623(2) 0.28797(17)
H4 H 0.6891 0.2310 0.2622
C4 C 0.4873(2) 0.30178(18) 0.21668(15)
H5 H 0.5122 0.2961 0.1431
C5 C 0.34352(19) 0.34999(16) 0.25274(12)
C6 C 0.3086(2) 0.35357(17) 0.36281(13)
C7 C 0.1579(2) 0.40393(18) 0.40673(13)
C8 C 0.1458(2) 0.50178(16) 0.24283(12)
C9 C 0.2206(2) 0.39126(16) 0.17619(12)
C10 C 0.0291(2) 0.68894(17) 0.25246(13)
C11 C 0.1224(3) 0.8264(2) 0.30619(15)
H6 H 0.2503 0.8585 0.3143
C12 C 0.0259(3) 0.9162(2) 0.34785(16)
H7 H 0.0909 1.0077 0.3848
C13 C -0.1636(3) 0.8741(2) 0.33626(15)
C14 C -0.2547(3) 0.7371(2) 0.28251(15)
H8 H -0.3826 0.7052 0.2740
C15 C -0.1606(2) 0.6460(2) 0.24099(14)
H9 H -0.2260 0.5542 0.2047
C16 C -0.2670(3) 0.9745(3) 0.3776(2)
H10 H -0.3425 0.9810 0.3167
H11 H -0.1811 1.0655 0.4101
H12 H -0.3432 0.9411 0.4325
C17 C 0.0484(2) 0.26454(17) 0.12369(12)
C18 C 0.0109(2) 0.13569(18) 0.15129(13)
H13 H 0.0888 0.1238 0.2051
C19 C -0.1415(2) 0.0239(2) 0.09966(16)
H14 H -0.1652 -0.0623 0.1190
C20 C -0.2575(2) 0.0405(2) 0.01998(16)
H15 H -0.3590 -0.0347 -0.0152
C21 C -0.2229(3) 0.1686(2) -0.00755(16)
H16 H -0.3018 0.1802 -0.0610
C22 C -0.0723(2) 0.2795(2) 0.04370(14)
H17 H -0.0506 0.3658 0.0248
C23 C 0.3247(2) 0.44839(19) 0.08259(14)
H18 H 0.4367 0.5218 0.1143
H19 H 0.2492 0.4849 0.0417
H20 H 0.3531 0.3740 0.0336
loop_
_geom_bond_atom_site_label_1
_geom_bond_atom_site_label_2
_geom_bond_site_symmetry_1
_geom_bond_site_symmetry_2
O1 C7 1_555 1_555
N1 H1 1_555 1_555
N2 C8 1_555 1_555
C1 H2 1_555 1_555
C2 C1 1_555 1_555
H3 C2 1_555 1_555
C3 C2 1_555 1_555
H4 C3 1_555 1_555
C4 C3 1_555 1_555
H5 C4 1_555 1_555
C5 C4 1_555 1_555
C6 C1 1_555 1_555
C7 N1 1_555 1_555
C8 N1 1_555 1_555
C9 C5 1_555 1_555
C10 N2 1_555 1_555
C11 C10 1_555 1_555
H6 C11 1_555 1_555
C12 C11 1_555 1_555
H7 C12 1_555 1_555
C13 C12 1_555 1_555
C14 C13 1_555 1_555
H8 C14 1_555 1_555
C15 C10 1_555 1_555
H9 C15 1_555 1_555
C16 C13 1_555 1_555
H10 C16 1_555 1_555
H11 C16 1_555 1_555
H12 C16 1_555 1_555
C17 C9 1_555 1_555
C18 C17 1_555 1_555
H13 C18 1_555 1_555
C19 C18 1_555 1_555
H14 C19 1_555 1_555
C20 C19 1_555 1_555
H15 C20 1_555 1_555
C21 C20 1_555 1_555
H16 C21 1_555 1_555
C22 C17 1_555 1_555
H17 C22 1_555 1_555
C23 C9 1_555 1_555
H18 C23 1_555 1_555
H19 C23 1_555 1_555
H20 C23 1_555 1_555
C5 C6 1_555 1_555
C6 C7 1_555 1_555
C8 C9 1_555 1_555
C14 C15 1_555 1_555
C21 C22 1_555 1_555

#END
