
#######################################################################
#
#                 Cambridge Crystallographic Data Centre
#                                CCDC 
#
#######################################################################
#
# If this CIF has been generated from an entry in the Cambridge 
# Structural Database, then it will include bibliographic, chemical, 
# crystal, experimental, refinement or atomic coordinate data resulting 
# from the CCDC's data processing and validation procedures.
#
#######################################################################

data_MAVJAW
_chemical_name_common            'Quercetin pentabenzenesulfonate'
_chemical_formula_moiety         'C45 H30 O17 S5'
_chemical_name_systematic        
'2-(3,4-bis((Phenylsulfonyl)oxy)phenyl)-4-oxo-4H-chromene-3,5,7-triyl tribenzenesulfonate'
_symmetry_cell_setting           triclinic
_symmetry_space_group_name_H-M   'P -1'
_symmetry_Int_Tables_number      2
_space_group_name_Hall           '-P 1'
loop_
_symmetry_equiv_pos_site_id
_symmetry_equiv_pos_as_xyz
1 x,y,z
2 -x,-y,-z
_cell_length_a                   12.000(2)
_cell_length_b                   13.796(3)
_cell_length_c                   14.289(3)
_cell_angle_alpha                70.31(3)
_cell_angle_beta                 77.74(3)
_cell_angle_gamma                88.08(3)
_cell_volume                     2174.6
_cell_formula_units_Z            2
loop_
_atom_site_label
_atom_site_type_symbol
_atom_site_fract_x
_atom_site_fract_y
_atom_site_fract_z
S1 S 0.18908(19) 0.51694(17) 0.57838(15)
S2 S 0.24578(18) 0.15371(16) 0.37684(18)
S3 S 0.29952(19) 0.52413(18) -0.10036(17)
S4 S 0.1939(4) 1.0480(2) 0.0353(2)
S5 S 0.31164(18) 1.07700(17) -0.28070(16)
O1 O 0.2992(4) 0.4748(3) 0.5704(3)
O2 O 0.1810(4) 0.6245(4) 0.5343(3)
O3 O 0.1140(3) 0.4597(3) 0.5300(4)
O4 O 0.2176(4) 0.1285(3) 0.4838(4)
O5 O 0.3226(4) 0.0928(3) 0.3320(4)
O6 O 0.3080(3) 0.2665(4) 0.3252(3)
O7 O 0.2026(4) 0.4658(4) -0.0302(4)
O8 O 0.2864(4) 0.6222(4) -0.1739(4)
O9 O 0.3855(3) 0.5432(3) -0.0342(4)
O10 O 0.1022(8) 1.1167(5) 0.0184(4)
O11 O 0.3086(8) 1.0825(5) 0.0126(5)
O12 O 0.1816(4) 0.9799(4) -0.0340(3)
O13 O 0.2691(4) 0.9868(4) -0.2909(3)
O14 O 0.2361(4) 1.1524(4) -0.2617(4)
O15 O 0.3773(4) 1.0387(4) -0.1884(4)
O16 O 0.2525(4) 0.6253(5) 0.1762(8)
O17 O 0.3541(4) 0.3615(4) 0.1227(4)
C1 C 0.1101(6) 0.4719(10) 0.7028(5)
C2 C 0.0487(9) 0.5398(6) 0.7419(9)
H1 H 0.0483 0.6088 0.7021
C3 C -0.0125(6) 0.5051(10) 0.8408(11)
H2 H -0.0551 0.5505 0.8682
C4 C -0.0104(7) 0.4034(13) 0.8987(6)
H3 H -0.0531 0.3795 0.9651
C5 C 0.0541(10) 0.3365(6) 0.8595(10)
H4 H 0.0562 0.2678 0.8996
C6 C 0.1154(6) 0.3710(10) 0.7611(10)
H5 H 0.1601 0.3263 0.7343
C7 C 0.1660(6) 0.4577(11) 0.4325(8)
C8 C 0.1797(7) 0.5428(7) 0.3466(12)
H6 H 0.1519 0.6056 0.3498
C9 C 0.2359(7) 0.5339(11) 0.2541(9)
C10 C 0.3075(6) 0.6290(10) 0.0800(9)
C11 C 0.3362(5) 0.5408(10) 0.0639(7)
C12 C 0.3256(6) 0.4384(8) 0.1418(9)
C13 C 0.2718(6) 0.4401(10) 0.2458(9)
C14 C 0.2565(7) 0.3557(8) 0.3368(12)
C15 C 0.2055(7) 0.3640(8) 0.4292(8)
H7 H 0.1979 0.3072 0.4885
C16 C 0.1207(8) 0.1676(6) 0.3316(11)
C17 C 0.1265(8) 0.2069(6) 0.2281(12)
H8 H 0.1965 0.2276 0.1829
C18 C 0.0263(17) 0.2151(7) 0.1924(8)
H9 H 0.0282 0.2411 0.1230
C19 C -0.0734(14) 0.1849(8) 0.2598(16)
H10 H -0.1404 0.1920 0.2356
C20 C -0.0802(12) 0.1442(8) 0.3624(14)
H11 H -0.1501 0.1211 0.4070
C21 C 0.0190(15) 0.1381(5) 0.3988(7)
H12 H 0.0160 0.1140 0.4684
C22 C 0.3843(7) 0.4470(10) -0.1595(10)
C23 C 0.4493(10) 0.4938(6) -0.2538(10)
H13 H 0.4476 0.5648 -0.2848
C24 C 0.5170(8) 0.4371(13) -0.3033(6)
H14 H 0.5618 0.4692 -0.3679
C25 C 0.5188(8) 0.3331(13) -0.2577(11)
H15 H 0.5655 0.2945 -0.2912
C26 C 0.4537(11) 0.2853(7) -0.1642(13)
H16 H 0.4554 0.2142 -0.1339
C27 C 0.3840(7) 0.3425(12) -0.1134(6)
H17 H 0.3382 0.3105 -0.0494
C28 C 0.3262(10) 0.7351(8) 0.0078(8)
C29 C 0.2468(7) 0.8073(12) 0.0216(6)
H18 H 0.1827 0.7876 0.0744
C30 C 0.2630(9) 0.9071(10) -0.0423(10)
C31 C 0.3564(11) 0.9369(7) -0.1217(8)
C32 C 0.4361(7) 0.8675(11) -0.1353(6)
H19 H 0.5002 0.8883 -0.1880
C33 C 0.4222(8) 0.7667(9) -0.0714(9)
H20 H 0.4769 0.7196 -0.0810
C34 C 0.1657(19) 0.9607(6) 0.1581(7)
C35 C 0.0551(15) 0.9295(11) 0.2029(13)
H21 H -0.0022 0.9540 0.1672
C36 C 0.0279(10) 0.8617(12) 0.3012(14)
H22 H -0.0479 0.8409 0.3319
C37 C 0.1086(19) 0.8261(7) 0.3517(8)
H23 H 0.0889 0.7782 0.4170
C38 C 0.2201(18) 0.8573(13) 0.3114(16)
H24 H 0.2760 0.8337 0.3490
C39 C 0.2479(12) 0.9261(12) 0.2111(16)
H25 H 0.3235 0.9480 0.1809
C40 C 0.4241(6) 1.1393(10) -0.3807(5)
C41 C 0.4335(8) 1.2440(10) -0.4223(8)
H26 H 0.3803 1.2844 -0.3968
C42 C 0.5224(12) 1.2888(6) -0.5023(9)
H27 H 0.5319 1.3602 -0.5287
C43 C 0.5979(7) 1.2296(12) -0.5443(6)
H28 H 0.6557 1.2606 -0.6007
C44 C 0.5868(9) 1.1250(11) -0.5022(10)
H29 H 0.6383 1.0843 -0.5289
C45 C 0.4998(11) 1.0796(6) -0.4204(9)
H30 H 0.4924 1.0082 -0.3918
loop_
_geom_bond_atom_site_label_1
_geom_bond_atom_site_label_2
_geom_bond_site_symmetry_1
_geom_bond_site_symmetry_2
S1 O1 1_555 1_555
S2 O4 1_555 1_555
S3 O7 1_555 1_555
S4 O10 1_555 1_555
S5 O13 1_555 1_555
O2 S1 1_555 1_555
O3 S1 1_555 1_555
O5 S2 1_555 1_555
O6 S2 1_555 1_555
O8 S3 1_555 1_555
O9 S3 1_555 1_555
O11 S4 1_555 1_555
O12 S4 1_555 1_555
O14 S5 1_555 1_555
O15 S5 1_555 1_555
O16 C9 1_555 1_555
O17 C12 1_555 1_555
C1 S1 1_555 1_555
C2 C1 1_555 1_555
H1 C2 1_555 1_555
C3 C2 1_555 1_555
H2 C3 1_555 1_555
C4 C3 1_555 1_555
H3 C4 1_555 1_555
C5 C4 1_555 1_555
H4 C5 1_555 1_555
C6 C1 1_555 1_555
H5 C6 1_555 1_555
C7 O3 1_555 1_555
C8 C7 1_555 1_555
H6 C8 1_555 1_555
C9 C8 1_555 1_555
C10 O16 1_555 1_555
C11 O9 1_555 1_555
C12 C11 1_555 1_555
C13 C9 1_555 1_555
C14 O6 1_555 1_555
C15 C7 1_555 1_555
H7 C15 1_555 1_555
C16 S2 1_555 1_555
C17 C16 1_555 1_555
H8 C17 1_555 1_555
C18 C17 1_555 1_555
H9 C18 1_555 1_555
C19 C18 1_555 1_555
H10 C19 1_555 1_555
C20 C19 1_555 1_555
H11 C20 1_555 1_555
C21 C16 1_555 1_555
H12 C21 1_555 1_555
C22 S3 1_555 1_555
C23 C22 1_555 1_555
H13 C23 1_555 1_555
C24 C23 1_555 1_555
H14 C24 1_555 1_555
C25 C24 1_555 1_555
H15 C25 1_555 1_555
C26 C25 1_555 1_555
H16 C26 1_555 1_555
C27 C22 1_555 1_555
H17 C27 1_555 1_555
C28 C10 1_555 1_555
C29 C28 1_555 1_555
H18 C29 1_555 1_555
C30 O12 1_555 1_555
C31 O15 1_555 1_555
C32 C31 1_555 1_555
H19 C32 1_555 1_555
C33 C28 1_555 1_555
H20 C33 1_555 1_555
C34 S4 1_555 1_555
C35 C34 1_555 1_555
H21 C35 1_555 1_555
C36 C35 1_555 1_555
H22 C36 1_555 1_555
C37 C36 1_555 1_555
H23 C37 1_555 1_555
C38 C37 1_555 1_555
H24 C38 1_555 1_555
C39 C34 1_555 1_555
H25 C39 1_555 1_555
C40 S5 1_555 1_555
C41 C40 1_555 1_555
H26 C41 1_555 1_555
C42 C41 1_555 1_555
H27 C42 1_555 1_555
C43 C42 1_555 1_555
H28 C43 1_555 1_555
C44 C43 1_555 1_555
H29 C44 1_555 1_555
C45 C40 1_555 1_555
H30 C45 1_555 1_555
C5 C6 1_555 1_555
C10 C11 1_555 1_555
C12 C13 1_555 1_555
C13 C14 1_555 1_555
C14 C15 1_555 1_555
C20 C21 1_555 1_555
C26 C27 1_555 1_555
C29 C30 1_555 1_555
C30 C31 1_555 1_555
C32 C33 1_555 1_555
C38 C39 1_555 1_555
C44 C45 1_555 1_555

#END
