
#######################################################################
#
#                 Cambridge Crystallographic Data Centre
#                                CCDC 
#
#######################################################################
#
# If this CIF has been generated from an entry in the Cambridge 
# Structural Database, then it will include bibliographic, chemical, 
# crystal, experimental, refinement or atomic coordinate data resulting 
# from the CCDC's data processing and validation procedures.
#
#######################################################################

data_MAVKEB
_chemical_formula_moiety         'C42 H60 N2 O4'
_chemical_name_systematic        
2,2'-(Ethane-1,2-diylbis(((2-furylmethyl)imino)methylene))bis(4,6-di-t-butylphenol)
_symmetry_cell_setting           monoclinic
_symmetry_space_group_name_H-M   'P 21/c'
_symmetry_Int_Tables_number      14
_space_group_name_Hall           '-P 2ybc'
loop_
_symmetry_equiv_pos_site_id
_symmetry_equiv_pos_as_xyz
1 x,y,z
2 -x,1/2+y,1/2-z
3 -x,-y,-z
4 x,1/2-y,1/2+z
_cell_length_a                   14.606(4)
_cell_length_b                   8.396(2)
_cell_length_c                   15.829(4)
_cell_angle_alpha                90
_cell_angle_beta                 90.909(4)
_cell_angle_gamma                90
_cell_volume                     1940.9
_exptl_crystal_colour            colorless
_exptl_crystal_description       block
_cell_formula_units_Z            2
loop_
_atom_site_label
_atom_site_type_symbol
_atom_site_fract_x
_atom_site_fract_y
_atom_site_fract_z
N1 N 0.4544(3) 0.1906(6) 0.0463(3)
O1 O 0.3073(3) 0.1435(5) 0.1442(3)
O2 O 0.6206(3) 0.3761(6) 0.1907(3)
C1 C 0.2721(4) 0.2808(7) 0.1092(3)
C2 C 0.2016(4) 0.3605(7) 0.1512(3)
C3 C 0.1660(4) 0.4958(7) 0.1119(3)
H1 H 0.1172 0.5496 0.1387
C4 C 0.1968(4) 0.5564(7) 0.0372(3)
C5 C 0.2687(4) 0.4762(7) -0.0018(3)
H2 H 0.2924 0.5166 -0.0531
C6 C 0.3061(4) 0.3389(7) 0.0332(3)
C7 C 0.1653(4) 0.2999(8) 0.2363(4)
C8 C 0.1236(5) 0.1347(9) 0.2245(5)
H3 H 0.1700 0.0620 0.2025
H4 H 0.0718 0.1408 0.1845
H5 H 0.1022 0.0950 0.2790
C9 C 0.0907(5) 0.4101(10) 0.2709(4)
H6 H 0.0397 0.4164 0.2301
H7 H 0.1163 0.5167 0.2801
H8 H 0.0687 0.3675 0.3245
C10 C 0.2434(4) 0.2940(9) 0.3029(3)
H9 H 0.2916 0.2223 0.2834
H10 H 0.2195 0.2548 0.3565
H11 H 0.2686 0.4011 0.3110
C11 C 0.1541(4) 0.7057(7) -0.0046(4)
C12 C 0.0781(7) 0.7785(11) 0.0476(6)
H12 H 0.0299 0.6992 0.0560
H13 H 0.0523 0.8709 0.0177
H14 H 0.1030 0.8123 0.1025
C13 C 0.1136(7) 0.6605(11) -0.0904(5)
H15 H 0.1613 0.6130 -0.1252
H16 H 0.0893 0.7559 -0.1184
H17 H 0.0640 0.5834 -0.0828
C14 C 0.2268(6) 0.8327(9) -0.0163(6)
H18 H 0.2763 0.7898 -0.0506
H19 H 0.2514 0.8651 0.0390
H20 H 0.1996 0.9252 -0.0449
C15 C 0.3812(4) 0.2484(7) -0.0116(3)
H21 H 0.3537 0.1563 -0.0417
H22 H 0.4087 0.3190 -0.0545
C16 C 0.5034(4) 0.3250(7) 0.0862(3)
H23 H 0.4588 0.4087 0.1014
H24 H 0.5467 0.3713 0.0455
C17 C 0.5547(4) 0.2729(7) 0.1637(3)
C18 C 0.5515(5) 0.1484(9) 0.2151(4)
H25 H 0.5114 0.0596 0.2099
C19 C 0.6198(5) 0.1726(9) 0.2802(4)
H26 H 0.6339 0.1042 0.3265
C20 C 0.6586(5) 0.3092(9) 0.2622(4)
H27 H 0.7070 0.3558 0.2946
C21 C 0.5179(4) 0.0848(7) 0.0032(4)
H28 H 0.5773 0.0844 0.0342
H29 H 0.5287 0.1262 -0.0544
H30 H 0.346(4) 0.135(6) 0.114(3)
N1B N 0.5456(3) -0.1906(6) -0.0463(3)
O1B O 0.6927(3) -0.1435(5) -0.1442(3)
O2B O 0.3794(3) -0.3761(6) -0.1907(3)
C1B C 0.7279(4) -0.2808(7) -0.1092(3)
C2B C 0.7984(4) -0.3605(7) -0.1512(3)
C3B C 0.8340(4) -0.4958(7) -0.1119(3)
H1B H 0.8828 -0.5496 -0.1387
C4B C 0.8032(4) -0.5564(7) -0.0372(3)
C5B C 0.7313(4) -0.4762(7) 0.0018(3)
H2B H 0.7076 -0.5166 0.0531
C6B C 0.6939(4) -0.3389(7) -0.0332(3)
C7B C 0.8347(4) -0.2999(8) -0.2363(4)
C8B C 0.8764(5) -0.1347(9) -0.2245(5)
H3B H 0.8300 -0.0620 -0.2025
H4B H 0.9282 -0.1408 -0.1845
H5B H 0.8978 -0.0950 -0.2790
C9B C 0.9093(5) -0.4101(10) -0.2709(4)
H6B H 0.9603 -0.4164 -0.2301
H7B H 0.8837 -0.5167 -0.2801
H8B H 0.9313 -0.3675 -0.3245
C10B C 0.7566(4) -0.2940(9) -0.3029(3)
H9B H 0.7084 -0.2223 -0.2834
H10B H 0.7805 -0.2548 -0.3565
H11B H 0.7314 -0.4011 -0.3110
C11B C 0.8459(4) -0.7057(7) 0.0046(4)
C12B C 0.9219(7) -0.7785(11) -0.0476(6)
H12B H 0.9701 -0.6992 -0.0560
H13B H 0.9477 -0.8709 -0.0177
H14B H 0.8970 -0.8123 -0.1025
C13B C 0.8864(7) -0.6605(11) 0.0904(5)
H15B H 0.8387 -0.6130 0.1252
H16B H 0.9107 -0.7559 0.1184
H17B H 0.9360 -0.5834 0.0828
C14B C 0.7732(6) -0.8327(9) 0.0163(6)
H18B H 0.7237 -0.7898 0.0506
H19B H 0.7486 -0.8651 -0.0390
H20B H 0.8004 -0.9252 0.0449
C15B C 0.6188(4) -0.2484(7) 0.0116(3)
H21B H 0.6463 -0.1563 0.0417
H22B H 0.5913 -0.3190 0.0545
C16B C 0.4966(4) -0.3250(7) -0.0862(3)
H23B H 0.5412 -0.4087 -0.1014
H24B H 0.4533 -0.3713 -0.0455
C17B C 0.4453(4) -0.2729(7) -0.1637(3)
C18B C 0.4485(5) -0.1484(9) -0.2151(4)
H25B H 0.4886 -0.0596 -0.2099
C19B C 0.3802(5) -0.1726(9) -0.2802(4)
H26B H 0.3661 -0.1042 -0.3265
C20B C 0.3414(5) -0.3092(9) -0.2622(4)
H27B H 0.2930 -0.3558 -0.2946
C21B C 0.4821(4) -0.0848(7) -0.0032(4)
H28B H 0.4227 -0.0844 -0.0342
H29B H 0.4713 -0.1262 0.0544
H30B H 0.654(4) -0.135(6) -0.114(3)
loop_
_geom_bond_atom_site_label_1
_geom_bond_atom_site_label_2
_geom_bond_site_symmetry_1
_geom_bond_site_symmetry_2
N1 C15 1_555 1_555
O1 C1 1_555 1_555
O2 C17 1_555 1_555
C1 C2 1_555 1_555
C2 C3 1_555 1_555
C3 H1 1_555 1_555
C4 C3 1_555 1_555
C5 C4 1_555 1_555
H2 C5 1_555 1_555
C6 C1 1_555 1_555
C7 C2 1_555 1_555
C8 C7 1_555 1_555
H3 C8 1_555 1_555
H4 C8 1_555 1_555
H5 C8 1_555 1_555
C9 C7 1_555 1_555
H6 C9 1_555 1_555
H7 C9 1_555 1_555
H8 C9 1_555 1_555
C10 C7 1_555 1_555
H9 C10 1_555 1_555
H10 C10 1_555 1_555
H11 C10 1_555 1_555
C11 C4 1_555 1_555
C12 C11 1_555 1_555
H12 C12 1_555 1_555
H13 C12 1_555 1_555
H14 C12 1_555 1_555
C13 C11 1_555 1_555
H15 C13 1_555 1_555
H16 C13 1_555 1_555
H17 C13 1_555 1_555
C14 C11 1_555 1_555
H18 C14 1_555 1_555
H19 C14 1_555 1_555
H20 C14 1_555 1_555
C15 C6 1_555 1_555
H21 C15 1_555 1_555
H22 C15 1_555 1_555
C16 N1 1_555 1_555
H23 C16 1_555 1_555
H24 C16 1_555 1_555
C17 C16 1_555 1_555
C18 C17 1_555 1_555
H25 C18 1_555 1_555
C19 C18 1_555 1_555
H26 C19 1_555 1_555
C20 O2 1_555 1_555
H27 C20 1_555 1_555
C21 N1 1_555 1_555
H28 C21 1_555 1_555
H29 C21 1_555 1_555
H30 O1 1_555 1_555
N1B C15B 1_555 1_555
O1B C1B 1_555 1_555
O2B C17B 1_555 1_555
C1B C2B 1_555 1_555
C2B C3B 1_555 1_555
C3B H1B 1_555 1_555
C4B C3B 1_555 1_555
C5B C4B 1_555 1_555
H2B C5B 1_555 1_555
C6B C1B 1_555 1_555
C7B C2B 1_555 1_555
C8B C7B 1_555 1_555
H3B C8B 1_555 1_555
H4B C8B 1_555 1_555
H5B C8B 1_555 1_555
C9B C7B 1_555 1_555
H6B C9B 1_555 1_555
H7B C9B 1_555 1_555
H8B C9B 1_555 1_555
C10B C7B 1_555 1_555
H9B C10B 1_555 1_555
H10B C10B 1_555 1_555
H11B C10B 1_555 1_555
C11B C4B 1_555 1_555
C12B C11B 1_555 1_555
H12B C12B 1_555 1_555
H13B C12B 1_555 1_555
H14B C12B 1_555 1_555
C13B C11B 1_555 1_555
H15B C13B 1_555 1_555
H16B C13B 1_555 1_555
H17B C13B 1_555 1_555
C14B C11B 1_555 1_555
H18B C14B 1_555 1_555
H19B C14B 1_555 1_555
H20B C14B 1_555 1_555
C15B C6B 1_555 1_555
H21B C15B 1_555 1_555
H22B C15B 1_555 1_555
C16B N1B 1_555 1_555
H23B C16B 1_555 1_555
H24B C16B 1_555 1_555
C17B C16B 1_555 1_555
C18B C17B 1_555 1_555
H25B C18B 1_555 1_555
C19B C18B 1_555 1_555
H26B C19B 1_555 1_555
C20B O2B 1_555 1_555
H27B C20B 1_555 1_555
C21B C21 1_555 1_555
H28B C21B 1_555 1_555
H29B C21B 1_555 1_555
H30B O1B 1_555 1_555
C5 C6 1_555 1_555
C19 C20 1_555 1_555
N1B C21B 1_555 1_555
C5B C6B 1_555 1_555
C19B C20B 1_555 1_555

#END
