
#######################################################################
#
#                 Cambridge Crystallographic Data Centre
#                                CCDC 
#
#######################################################################
#
# If this CIF has been generated from an entry in the Cambridge 
# Structural Database, then it will include bibliographic, chemical, 
# crystal, experimental, refinement or atomic coordinate data resulting 
# from the CCDC's data processing and validation procedures.
#
#######################################################################

data_MAVLEC
_chemical_formula_moiety         'C32 H35 N1 O2 P2'
_chemical_name_systematic        
1-n-Butyl-3,4-bis(diphenylphosphoryl)pyrrolidine
_symmetry_cell_setting           triclinic
_symmetry_space_group_name_H-M   'P -1'
_symmetry_Int_Tables_number      2
_space_group_name_Hall           '-P 1'
loop_
_symmetry_equiv_pos_site_id
_symmetry_equiv_pos_as_xyz
1 x,y,z
2 -x,-y,-z
_cell_length_a                   11.204(2)
_cell_length_b                   11.444(2)
_cell_length_c                   12.849(3)
_cell_angle_alpha                64.27(3)
_cell_angle_beta                 82.47(3)
_cell_angle_gamma                81.52(3)
_cell_volume                     1463.75
_cell_formula_units_Z            2
loop_
_atom_site_label
_atom_site_type_symbol
_atom_site_fract_x
_atom_site_fract_y
_atom_site_fract_z
P1 P -0.09638(6) 0.63485(5) 0.14224(5)
P2 P 0.10480(6) 0.86727(5) -0.15427(5)
O1 O -0.06753(17) 0.50433(14) 0.14284(16)
O2 O 0.10994(17) 0.98195(14) -0.13021(14)
N1 N 0.23793(19) 0.7026(2) 0.0954(2)
C1 C -0.22502(17) 0.7330(4) 0.05827(18)
C2 C -0.2945(3) 0.6750(7) 0.0154(3)
H1 H -0.2758 0.5877 0.0297
C3 C -0.3917(2) 0.7475(10) -0.0489(3)
H2 H -0.4382 0.7086 -0.0776
C4 C -0.4195(2) 0.8780(9) -0.0703(3)
H3 H -0.4846 0.9265 -0.1133
C5 C -0.3501(3) 0.9360(6) -0.0274(4)
H4 H -0.3687 1.0233 -0.0417
C6 C -0.2528(3) 0.8635(3) 0.0369(3)
H5 H -0.2064 0.9023 0.0656
C7 C -0.1307(2) 0.6224(2) 0.2875(2)
C8 C -0.1504(3) 0.7278(2) 0.3135(2)
H6 H -0.1490 0.8114 0.2541
C9 C -0.1724(3) 0.7118(3) 0.4269(3)
H7 H -0.1849 0.7845 0.4431
C10 C -0.1758(3) 0.5906(3) 0.5151(3)
H8 H -0.1916 0.5807 0.5912
C11 C -0.1560(3) 0.4841(3) 0.4916(3)
H9 H -0.1579 0.4011 0.5519
C12 C -0.1329(3) 0.4989(2) 0.3784(2)
H10 H -0.1188 0.4256 0.3629
C13 C 0.0256(2) 0.7387(2) 0.07870(19)
H11 H -0.0071 0.8304 0.0520
C14 C 0.1246(2) 0.7078(3) 0.1622(2)
H12 H 0.1203 0.7754 0.1894
H13 H 0.1157 0.6249 0.2286
C15 C 0.2144(3) 0.6448(3) 0.0226(2)
H14 H 0.2089 0.5520 0.0667
H15 H 0.2776 0.6580 -0.0395
C16 C 0.0943(2) 0.7143(2) -0.02509(19)
H16 H 0.0516 0.6557 -0.0410
C17 C 0.2370(2) 0.8417(2) -0.2409(2)
C18 C 0.3279(3) 0.9245(3) -0.2740(2)
H17 H 0.3192 0.9929 -0.2519
C19 C 0.4298(3) 0.9063(4) -0.3386(3)
H18 H 0.4897 0.9625 -0.3606
C20 C 0.4439(3) 0.8068(4) -0.3707(3)
H19 H 0.5139 0.7945 -0.4139
C21 C 0.3558(3) 0.7240(3) -0.3401(3)
H20 H 0.3657 0.6561 -0.3629
C22 C 0.2527(3) 0.7418(3) -0.2756(2)
H21 H 0.1927 0.6858 -0.2551
C23 C -0.0196(2) 0.8905(2) -0.2394(2)
C24 C -0.0747(3) 0.7935(3) -0.2431(3)
H22 H -0.0510 0.7070 -0.1952
C25 C -0.1652(3) 0.8218(4) -0.3171(3)
H23 H -0.2024 0.7546 -0.3176
C26 C -0.1998(3) 0.9483(4) -0.3893(3)
H24 H -0.2589 0.9673 -0.4405
C27 C -0.1472(4) 1.0457(4) -0.3857(3)
H25 H -0.1709 1.1319 -0.4341
C28 C -0.0593(3) 1.0178(3) -0.3110(3)
H26 H -0.0256 1.0859 -0.3084
C29 C 0.3411(11) 0.6279(12) 0.1655(11)
H27 H 0.4089 0.6154 0.1149
H28 H 0.3183 0.5426 0.2200
C30 C 0.3796(7) 0.6956(10) 0.2312(8)
H29 H 0.3100 0.7124 0.2781
H30 H 0.4053 0.7793 0.1759
C31 C 0.4829(7) 0.6193(13) 0.3107(7)
H31 H 0.4581 0.5354 0.3664
H32 H 0.5536 0.6037 0.2644
C32 C 0.5140(10) 0.6903(15) 0.3719(10)
H33 H 0.5788 0.6408 0.4200
H34 H 0.4446 0.7038 0.4194
H35 H 0.5391 0.7731 0.3169
C33? C -0.22214(18) 0.7115(4) 0.0626(2)
C34? C -0.2831(3) 0.6329(7) 0.0346(4)
C35? C 0.334(3) 0.644(3) 0.176(3)
C36? C -0.3814(3) 0.6867(10) -0.0330(4)
C37? C 0.3506(19) 0.731(2) 0.237(2)
C38? C 0.4770(16) 0.681(3) 0.288(2)
C39? C 0.500(2) 0.762(3) 0.347(2)
C40? C -0.4187(2) 0.8192(10) -0.0726(2)
C41? C -0.3577(3) 0.8979(7) -0.0446(3)
C42? C -0.2595(2) 0.8440(4) 0.0230(3)
H36? H -0.2581 0.5442 0.0611
H37? H 0.4100 0.6320 0.1343
H38? H 0.3146 0.5595 0.2346
H39? H -0.4222 0.6341 -0.0517
H40? H 0.2868 0.7226 0.2975
H41? H 0.3487 0.8217 0.1812
H42? H 0.4778 0.5904 0.3435
H43? H 0.5397 0.6877 0.2269
H44? H 0.5758 0.7297 0.3823
H45? H 0.4361 0.7579 0.4056
H46? H 0.5037 0.8510 0.2911
H47? H -0.4845 0.8553 -0.1178
H48? H -0.3827 0.9865 -0.0711
H49? H -0.2187 0.8966 0.0417
loop_
_geom_bond_atom_site_label_1
_geom_bond_atom_site_label_2
_geom_bond_site_symmetry_1
_geom_bond_site_symmetry_2
P1 O1 1_555 1_555
P2 O2 1_555 1_555
N1 C14 1_555 1_555
C1 P1 1_555 1_555
C2 C1 1_555 1_555
H1 C2 1_555 1_555
C3 C2 1_555 1_555
H2 C3 1_555 1_555
C4 C3 1_555 1_555
H3 C4 1_555 1_555
C5 C4 1_555 1_555
H4 C5 1_555 1_555
C6 C1 1_555 1_555
H5 C6 1_555 1_555
C7 P1 1_555 1_555
C8 C7 1_555 1_555
H6 C8 1_555 1_555
C9 C8 1_555 1_555
H7 C9 1_555 1_555
C10 C9 1_555 1_555
H8 C10 1_555 1_555
C11 C10 1_555 1_555
H9 C11 1_555 1_555
C12 C7 1_555 1_555
H10 C12 1_555 1_555
C13 P1 1_555 1_555
H11 C13 1_555 1_555
C14 C13 1_555 1_555
H12 C14 1_555 1_555
H13 C14 1_555 1_555
C15 N1 1_555 1_555
H14 C15 1_555 1_555
H15 C15 1_555 1_555
C16 P2 1_555 1_555
H16 C16 1_555 1_555
C17 P2 1_555 1_555
C18 C17 1_555 1_555
H17 C18 1_555 1_555
C19 C18 1_555 1_555
H18 C19 1_555 1_555
C20 C19 1_555 1_555
H19 C20 1_555 1_555
C21 C20 1_555 1_555
H20 C21 1_555 1_555
C22 C17 1_555 1_555
H21 C22 1_555 1_555
C23 P2 1_555 1_555
C24 C23 1_555 1_555
H22 C24 1_555 1_555
C25 C24 1_555 1_555
H23 C25 1_555 1_555
C26 C25 1_555 1_555
H24 C26 1_555 1_555
C27 C26 1_555 1_555
H25 C27 1_555 1_555
C28 C23 1_555 1_555
H26 C28 1_555 1_555
C29 N1 1_555 1_555
H27 C29 1_555 1_555
H28 C29 1_555 1_555
C30 C29 1_555 1_555
H29 C30 1_555 1_555
H30 C30 1_555 1_555
C31 C30 1_555 1_555
H31 C31 1_555 1_555
H32 C31 1_555 1_555
C32 C31 1_555 1_555
H33 C32 1_555 1_555
H34 C32 1_555 1_555
H35 C32 1_555 1_555
C5 C6 1_555 1_555
C11 C12 1_555 1_555
C13 C16 1_555 1_555
C15 C16 1_555 1_555
C21 C22 1_555 1_555
C27 C28 1_555 1_555

#END
