
#######################################################################
#
#                 Cambridge Crystallographic Data Centre
#                                CCDC 
#
#######################################################################
#
# If this CIF has been generated from an entry in the Cambridge 
# Structural Database, then it will include bibliographic, chemical, 
# crystal, experimental, refinement or atomic coordinate data resulting 
# from the CCDC's data processing and validation procedures.
#
#######################################################################

data_MAVMIG
_chemical_formula_moiety         'C12 H10 F1 N7 S1'
_chemical_name_systematic        
5-((1H-1,2,4-Triazol-1-yl)methyl)-4-(4-fluorobenzylideneamino)-2H-1,2,4-triazole-3(4H)-thione
_chemical_properties_biological  'potential biological activity'
_symmetry_cell_setting           orthorhombic
_symmetry_space_group_name_H-M   'P b c a'
_symmetry_Int_Tables_number      61
_space_group_name_Hall           '-P 2ac 2ab'
loop_
_symmetry_equiv_pos_site_id
_symmetry_equiv_pos_as_xyz
1 x,y,z
2 1/2-x,-y,1/2+z
3 -x,1/2+y,1/2-z
4 1/2+x,1/2-y,-z
5 -x,-y,-z
6 1/2+x,y,1/2-z
7 x,1/2-y,1/2+z
8 1/2-x,1/2+y,z
_cell_length_a                   7.146(4)
_cell_length_b                   17.906(9)
_cell_length_c                   21.697(11)
_cell_angle_alpha                90
_cell_angle_beta                 90
_cell_angle_gamma                90
_cell_volume                     2776.27
_exptl_crystal_colour            yellow
_exptl_crystal_description       block
_chemical_melting_point          '497-498 K'
_cell_formula_units_Z            8
_exptl_crystal_recrystallization_method ethanol
loop_
_atom_site_label
_atom_site_type_symbol
_atom_site_fract_x
_atom_site_fract_y
_atom_site_fract_z
S1 S 0.23628(11) 0.09151(4) 0.48858(3)
F1 F 0.1853(3) 0.47698(12) 0.28040(8)
N1 N 0.3211(4) 0.45649(12) 0.64024(10)
N2 N 0.2937(3) 0.34949(12) 0.69400(10)
N3 N 0.1566(3) 0.35474(11) 0.65073(8)
N4 N 0.0901(3) 0.16373(11) 0.65095(8)
N5 N 0.1469(3) 0.11142(12) 0.60851(9)
N6 N 0.1253(3) 0.21347(10) 0.55896(8)
N7 N 0.1476(3) 0.27395(11) 0.51807(8)
C1 C 0.1769(4) 0.41843(15) 0.61978(11)
H1 H 0.0991 0.4339 0.5879
C2 C 0.3876(4) 0.41172(15) 0.68522(13)
H2 H 0.4926 0.4240 0.7084
C3 C 0.0112(4) 0.29788(13) 0.64484(11)
H3 H -0.0865 0.3167 0.6179
H4 H -0.0441 0.2892 0.6850
C4 C 0.0808(3) 0.22546(13) 0.61986(10)
C5 C 0.1705(3) 0.13854(13) 0.55131(11)
C6 C 0.1001(3) 0.26136(14) 0.46212(11)
H5 H 0.0508 0.2151 0.4512
C7 C 0.1228(3) 0.31919(14) 0.41548(10)
C8 C 0.0703(4) 0.30365(16) 0.35493(11)
H6 H 0.0220 0.2569 0.3453
C9 C 0.0889(4) 0.35663(19) 0.30910(12)
H7 H 0.0530 0.3465 0.2688
C10 C 0.1620(4) 0.42445(18) 0.32505(12)
C11 C 0.2145(4) 0.44279(16) 0.38383(11)
H8 H 0.2622 0.4899 0.3929
C12 C 0.1948(3) 0.38969(14) 0.42907(11)
H9 H 0.2299 0.4009 0.4693
H10 H 0.156(4) 0.0618(18) 0.6218(13)
loop_
_geom_bond_atom_site_label_1
_geom_bond_atom_site_label_2
_geom_bond_site_symmetry_1
_geom_bond_site_symmetry_2
S1 C5 1_555 1_555
F1 C10 1_555 1_555
N1 C1 1_555 1_555
N2 N3 1_555 1_555
N3 C1 1_555 1_555
N4 N5 1_555 1_555
N5 C5 1_555 1_555
N6 N7 1_555 1_555
N7 C6 1_555 1_555
C1 H1 1_555 1_555
C2 N1 1_555 1_555
H2 C2 1_555 1_555
C3 N3 1_555 1_555
H3 C3 1_555 1_555
H4 C3 1_555 1_555
C4 N4 1_555 1_555
C5 N6 1_555 1_555
C6 H5 1_555 1_555
C7 C6 1_555 1_555
C8 C7 1_555 1_555
H6 C8 1_555 1_555
C9 C8 1_555 1_555
H7 C9 1_555 1_555
C10 C9 1_555 1_555
C11 C10 1_555 1_555
H8 C11 1_555 1_555
C12 C7 1_555 1_555
H9 C12 1_555 1_555
H10 N5 1_555 1_555
N2 C2 1_555 1_555
N6 C4 1_555 1_555
C3 C4 1_555 1_555
C11 C12 1_555 1_555

#END
