
#######################################################################
#
#                 Cambridge Crystallographic Data Centre
#                                CCDC 
#
#######################################################################
#
# If this CIF has been generated from an entry in the Cambridge 
# Structural Database, then it will include bibliographic, chemical, 
# crystal, experimental, refinement or atomic coordinate data resulting 
# from the CCDC's data processing and validation procedures.
#
#######################################################################

data_MAVPUX
_chemical_name_common            HOF-9
_chemical_formula_moiety         'C18 H21 N15,2(H2 O1)'
_chemical_name_systematic        
"6,6',6''-(2,4,6-trimethylbenzene-1,3,5-triyl)tris(1,3,5-triazine-2,4-diamine) dihydrate"
_symmetry_cell_setting           triclinic
_symmetry_space_group_name_H-M   'P -1'
_symmetry_Int_Tables_number      2
_space_group_name_Hall           '-P 1'
loop_
_symmetry_equiv_pos_site_id
_symmetry_equiv_pos_as_xyz
1 x,y,z
2 -x,-y,-z
_cell_length_a                   10.7844(13)
_cell_length_b                   11.6088(10)
_cell_length_c                   15.9757(14)
_cell_angle_alpha                79.642(7)
_cell_angle_beta                 86.726(9)
_cell_angle_gamma                69.981(9)
_cell_volume                     1848.57
_exptl_crystal_colour            colorless
_exptl_crystal_description       block
_cell_formula_units_Z            2
loop_
_atom_site_label
_atom_site_type_symbol
_atom_site_fract_x
_atom_site_fract_y
_atom_site_fract_z
C1 C 0.8397(3) 0.3316(2) 0.42120(17)
C2 C 0.6872(3) 0.3005(3) 0.3475(2)
C3 C 0.6913(2) 0.4942(2) 0.34059(15)
C4 C 0.2917(2) 1.0179(2) 0.48188(16)
C5 C 0.1503(2) 0.9779(2) 0.40098(15)
C6 C 0.3686(2) 0.9061(2) 0.37610(13)
C7 C 0.7069(2) 0.9885(3) 0.01335(14)
C8 C 0.8891(2) 0.9227(3) 0.09650(15)
C9 C 0.7084(2) 0.8763(2) 0.14490(14)
C10 C 0.6350(2) 0.6309(2) 0.30917(14)
C11 C 0.6924(2) 0.6850(2) 0.23993(14)
C12 C 0.6427(2) 0.8142(2) 0.21600(13)
C13 C 0.5383(2) 0.8894(2) 0.25974(13)
C14 C 0.4819(2) 0.8312(2) 0.32797(13)
C15 C 0.5289(2) 0.7034(2) 0.35387(14)
C16 C 0.4684(3) 0.6422(2) 0.42852(18)
H1 H 0.4215 0.7027 0.4632
H2 H 0.5369 0.5764 0.4617
H3 H 0.4084 0.6085 0.4081
C17 C 0.8031(3) 0.6060(3) 0.19176(17)
H4 H 0.8860 0.5961 0.2164
H5 H 0.7997 0.6457 0.1334
H6 H 0.7943 0.5259 0.1947
C18 C 0.4882(2) 1.0287(2) 0.23577(15)
H7 H 0.4188 1.0535 0.1943
H8 H 0.5590 1.0566 0.2122
H9 H 0.4547 1.0651 0.2855
N1 N 0.9422(3) 0.2880(2) 0.4738(2)
H10 H 0.9747 0.2095 0.4928
H11 H 0.9762 0.3382 0.4890
N2 N 0.6306(4) 0.2247(3) 0.3241(3)
H12 H 0.6615 0.1460 0.3428
H13 H 0.5634 0.2548 0.2904
N3 N 0.7907(2) 0.2494(2) 0.39969(15)
N4 N 0.6332(2) 0.4232(2) 0.31557(18)
N5 N 0.7927(2) 0.45598(19) 0.39408(14)
N6 N 0.3158(2) 1.0631(2) 0.54761(16)
H14 H 0.2516 1.1018 0.5777
H15 H 0.3957 1.0537 0.5600
N7 N 0.0290(2) 0.9873(2) 0.38220(14)
H16 H -0.0368 1.0284 0.4102
H17 H 0.0160 0.9523 0.3420
N8 N 0.16675(19) 1.0342(2) 0.46461(13)
N9 N 0.25042(18) 0.91222(18) 0.35441(12)
N10 N 0.39769(18) 0.95542(18) 0.43753(12)
N11 N 0.6422(2) 1.0502(3) -0.05821(13)
H18 H 0.6798 1.0873 -0.0976
H19 H 0.5626 1.0530 -0.0651
N12 N 1.0127(2) 0.9130(3) 0.10740(14)
H20 H 1.0530 0.9465 0.0676
H21 H 1.0530 0.8732 0.1543
N13 N 0.8296(2) 0.9856(2) 0.02239(12)
N14 N 0.82979(19) 0.8685(2) 0.16125(12)
N15 N 0.64082(19) 0.9317(2) 0.07349(12)
O1 O 0.2502(2) 0.8026(2) 0.20564(14)
H22 H 0.2476 0.8395 0.2475
H23 H 0.3047 0.7291 0.2181
O2 O 0.9073(3) 0.8256(3) 0.33148(16)
H24 H 0.8830 0.8252 0.2819
H25 H 0.9736 0.7602 0.3452
loop_
_geom_bond_atom_site_label_1
_geom_bond_atom_site_label_2
_geom_bond_site_symmetry_1
_geom_bond_site_symmetry_2
C1 N1 1_555 1_555
C2 N2 1_555 1_555
C3 C10 1_555 1_555
C4 N6 1_555 1_555
C5 N7 1_555 1_555
C6 C14 1_555 1_555
C7 N11 1_555 1_555
C8 N12 1_555 1_555
C9 C12 1_555 1_555
C10 C11 1_555 1_555
C11 C12 1_555 1_555
C12 C13 1_555 1_555
C13 C14 1_555 1_555
C14 C15 1_555 1_555
C15 C10 1_555 1_555
C16 C15 1_555 1_555
H1 C16 1_555 1_555
H2 C16 1_555 1_555
H3 C16 1_555 1_555
C17 C11 1_555 1_555
H4 C17 1_555 1_555
H5 C17 1_555 1_555
H6 C17 1_555 1_555
C18 C13 1_555 1_555
H7 C18 1_555 1_555
H8 C18 1_555 1_555
H9 C18 1_555 1_555
N1 H10 1_555 1_555
H11 N1 1_555 1_555
N2 H12 1_555 1_555
H13 N2 1_555 1_555
N3 C1 1_555 1_555
N4 C2 1_555 1_555
N5 C1 1_555 1_555
N6 H14 1_555 1_555
H15 N6 1_555 1_555
N7 H16 1_555 1_555
H17 N7 1_555 1_555
N8 C4 1_555 1_555
N9 C5 1_555 1_555
N10 C4 1_555 1_555
N11 H18 1_555 1_555
H19 N11 1_555 1_555
N12 H20 1_555 1_555
H21 N12 1_555 1_555
N13 C7 1_555 1_555
N14 C8 1_555 1_555
N15 C7 1_555 1_555
O1 H22 1_555 1_555
H23 O1 1_555 1_555
O2 H24 1_555 1_555
H25 O2 1_555 1_555
C2 N3 1_555 1_555
C3 N4 1_555 1_555
C3 N5 1_555 1_555
C5 N8 1_555 1_555
C6 N9 1_555 1_555
C6 N10 1_555 1_555
C8 N13 1_555 1_555
C9 N14 1_555 1_555
C9 N15 1_555 1_555

#END
