
#######################################################################
#
#                 Cambridge Crystallographic Data Centre
#                                CCDC 
#
#######################################################################
#
# If this CIF has been generated from an entry in the Cambridge 
# Structural Database, then it will include bibliographic, chemical, 
# crystal, experimental, refinement or atomic coordinate data resulting 
# from the CCDC's data processing and validation procedures.
#
#######################################################################

data_MAVVAI
_chemical_formula_moiety         'C66 H72 N6 S6,I2'
_chemical_name_systematic        
'2,23,25,46,65,66-Hexaethyl-12,13,35,36,55,56-hexathia-5,20,28,43,48,63-hexa-azadecacyclo[22.22.18.1^3,45^.1^22,26^.0^6,11^.0^14,19^.0^29,34^.0^37,42^.0^49,54^.0^57,62^]hexahexaconta-1,3(65),6,8,10,14,16,18,22(66),23,25,29,31,33,37,39,41,45,49,51,53,57,59,61-tetracosaene iodine'
_symmetry_cell_setting           rhombohedral
_symmetry_space_group_name_H-M   'R -3 c'
_symmetry_Int_Tables_number      167
_space_group_name_Hall           '-R 3 2"c'
loop_
_symmetry_equiv_pos_site_id
_symmetry_equiv_pos_as_xyz
1 x,y,z
2 -y,x-y,z
3 -x+y,-x,z
4 y,x,1/2-z
5 x-y,-y,1/2-z
6 -x,-x+y,1/2-z
7 2/3+x,1/3+y,1/3+z
8 2/3-y,1/3+x-y,1/3+z
9 2/3-x+y,1/3-x,1/3+z
10 2/3+y,1/3+x,5/6-z
11 2/3+x-y,1/3-y,5/6-z
12 2/3-x,1/3-x+y,5/6-z
13 1/3+x,2/3+y,2/3+z
14 1/3-y,2/3+x-y,2/3+z
15 1/3-x+y,2/3-x,2/3+z
16 1/3+y,2/3+x,1/6-z
17 1/3+x-y,2/3-y,1/6-z
18 1/3-x,2/3-x+y,1/6-z
19 -x,-y,-z
20 y,-x+y,-z
21 x-y,x,-z
22 -y,-x,1/2+z
23 -x+y,y,1/2+z
24 x,x-y,1/2+z
25 1/3-x,2/3-y,2/3-z
26 1/3+y,2/3-x+y,2/3-z
27 1/3+x-y,2/3+x,2/3-z
28 1/3-y,2/3-x,1/6+z
29 1/3-x+y,2/3+y,1/6+z
30 1/3+x,2/3+x-y,1/6+z
31 2/3-x,1/3-y,1/3-z
32 2/3+y,1/3-x+y,1/3-z
33 2/3+x-y,1/3+x,1/3-z
34 2/3-y,1/3-x,5/6+z
35 2/3-x+y,1/3+y,5/6+z
36 2/3+x,1/3+x-y,5/6+z
_cell_length_a                   17.583(3)
_cell_length_b                   17.583(3)
_cell_length_c                   48.345(10)
_cell_angle_alpha                90
_cell_angle_beta                 90
_cell_angle_gamma                120
_cell_volume                     12944
_cell_formula_units_Z            6
loop_
_atom_site_label
_atom_site_type_symbol
_atom_site_fract_x
_atom_site_fract_y
_atom_site_fract_z
C1 C 0.6758(5) 0.9299(6) 0.2157(2)
C2 C 0.5999(11) 0.9287(17) 0.2212(5)
H1 H 0.5822 0.9255 0.2399
C3 C 0.5424(11) 0.9322(9) 0.1989(5)
H2 H 0.4936 0.9400 0.2025
C4 C 0.5670(7) 0.9231(7) 0.1736(2)
H3 H 0.5265 0.9082 0.1588
C5 C 0.6464(5) 0.9342(5) 0.16844(18)
H4 H 0.6644 0.9388 0.1497
C6 C 0.7050(5) 0.9394(5) 0.18917(18)
C7 C 0.8186(5) 0.9610(5) 0.15680(16)
H5 H 0.8137 1.0077 0.1469
H6 H 0.7827 0.9052 0.1467
C8 C 0.9131(5) 0.9830(5) 0.15680(14)
C9 C 0.9328(5) 0.9112(5) 0.15583(16)
C10 C 0.8577(5) 0.8193(5) 0.15820(18)
H7 H 0.8762 0.7845 0.1695
H8 H 0.8087 0.8202 0.1680
C11 C 0.8270(8) 0.7772(9) 0.1322(3)
H9 H 0.7760 0.7186 0.1350
H10 H 0.8738 0.7717 0.1230
H11 H 0.8102 0.8121 0.1206
N1 N 0.7852(4) 0.9526(4) 0.18383(13)
H12 H 0.8188 0.9562 0.1978
S1 S 0.74430(18) 0.9360(2) 0.24422(5)
C1A C 1.0701(6) 0.7459(8) 0.2157(2)
C1B C 1.2541(8) 1.3242(5) 0.2157(2)
C1C C 0.9299(6) 0.6758(5) 0.2843(2)
C1D C 0.7459(8) 1.0701(6) 0.2843(2)
C1E C 1.3242(5) 1.2541(8) 0.2843(2)
C2A C 1.0713(17) 0.6712(20) 0.2212(5)
C2B C 1.3288(20) 1.4001(11) 0.2212(5)
C2C C 0.9287(17) 0.5999(11) 0.2788(5)
C2D C 0.6712(20) 1.0713(17) 0.2788(5)
C2E C 1.4001(11) 1.3288(20) 0.2788(5)
H1A H 1.0745 0.6567 0.2399
H1B H 1.3433 1.4178 0.2399
H1C H 0.9255 0.5822 0.2601
H1D H 0.6567 1.0745 0.2601
H1E H 1.4178 1.3433 0.2601
C3A C 1.0678(9) 0.6102(14) 0.1989(5)
C3B C 1.3898(14) 1.4576(11) 0.1989(5)
C3C C 0.9322(9) 0.5424(11) 0.3011(5)
C3D C 0.6102(14) 1.0678(9) 0.3011(5)
C3E C 1.4576(11) 1.3898(14) 0.3011(5)
H2A H 1.0600 0.5536 0.2025
H2B H 1.4464 1.5064 0.2025
H2C H 0.9400 0.4936 0.2975
H2D H 0.5536 1.0600 0.2975
H2E H 1.5064 1.4464 0.2975
C4A C 1.0769(7) 0.6439(10) 0.1736(2)
C4B C 1.3561(10) 1.4330(7) 0.1736(2)
C4C C 0.9231(7) 0.5670(7) 0.3264(2)
C4D C 0.6439(10) 1.0769(7) 0.3264(2)
C4E C 1.4330(7) 1.3561(10) 0.3264(2)
H3A H 1.0918 0.6183 0.1588
H3B H 1.3817 1.4735 0.1588
H3C H 0.9082 0.5265 0.3412
H3D H 0.6183 1.0918 0.3412
H3E H 1.4735 1.3817 0.3412
C5A C 1.0658(5) 0.7122(7) 0.16844(18)
C5B C 1.2878(7) 1.3536(5) 0.16844(18)
C5C C 0.9342(5) 0.6464(5) 0.33156(18)
C5D C 0.7122(7) 1.0658(5) 0.33156(18)
C5E C 1.3536(5) 1.2878(7) 0.33156(18)
H4A H 1.0612 0.7256 0.1497
H4B H 1.2744 1.3356 0.1497
H4C H 0.9388 0.6644 0.3503
H4D H 0.7256 1.0612 0.3503
H4E H 1.3356 1.2744 0.3503
C6A C 1.0606(5) 0.7656(7) 0.18917(18)
C6B C 1.2344(7) 1.2950(5) 0.18917(18)
C6C C 0.9394(5) 0.7050(5) 0.31083(18)
C6D C 0.7656(7) 1.0606(5) 0.31083(18)
C6E C 1.2950(5) 1.2344(7) 0.31083(18)
C7A C 1.0390(5) 0.8576(7) 0.15680(16)
C7B C 1.1424(7) 1.1814(5) 0.15680(16)
C7C C 0.9610(5) 0.8186(5) 0.34320(16)
C7D C 0.8576(7) 1.0390(5) 0.34320(16)
C7E C 1.1814(5) 1.1424(7) 0.34320(16)
H5A H 0.9923 0.8060 0.1469
H5B H 1.1940 1.1863 0.1469
H5C H 1.0077 0.8137 0.3531
H5D H 0.8060 0.9923 0.3531
H5E H 1.1863 1.1940 0.3531
H6A H 1.0948 0.8775 0.1467
H6B H 1.1225 1.2173 0.1467
H6C H 0.9052 0.7827 0.3533
H6D H 0.8775 1.0948 0.3533
H6E H 1.2173 1.1225 0.3533
C8A C 1.0170(5) 0.9301(7) 0.15680(14)
C8B C 1.0699(7) 1.0869(5) 0.15680(14)
C8C C 0.9830(5) 0.9131(5) 0.34320(14)
C8D C 0.9301(7) 1.0170(5) 0.34320(14)
C8E C 1.0869(5) 1.0699(7) 0.34320(14)
C9A C 1.0888(5) 1.0216(7) 0.15583(16)
C9B C 0.9784(7) 1.0672(5) 0.15583(16)
C9C C 0.9112(5) 0.9328(5) 0.34417(16)
C9D C 1.0216(7) 1.0888(5) 0.34417(16)
C9E C 1.0672(5) 0.9784(7) 0.34417(16)
C10A C 1.1807(5) 1.0384(7) 0.15820(18)
C10B C 0.9616(7) 1.1423(5) 0.15820(18)
C10C C 0.8193(5) 0.8577(5) 0.34180(18)
C10D C 1.0384(7) 1.1807(5) 0.34180(18)
C10E C 1.1423(5) 0.9616(7) 0.34180(18)
H7A H 1.2155 1.0917 0.1695
H7B H 0.9083 1.1238 0.1695
H7C H 0.7845 0.8762 0.3305
H7D H 1.0917 1.2155 0.3305
H7E H 1.1238 0.9083 0.3305
H8A H 1.1798 0.9885 0.1680
H8B H 1.0115 1.1913 0.1680
H8C H 0.8202 0.8087 0.3320
H8D H 0.9885 1.1798 0.3320
H8E H 1.1913 1.0115 0.3320
C11A C 1.2228(9) 1.0498(12) 0.1322(3)
C11B C 0.9502(12) 1.1730(8) 0.1322(3)
C11C C 0.7772(9) 0.8270(8) 0.3678(3)
C11D C 1.0498(12) 1.2228(9) 0.3678(3)
C11E C 1.1730(8) 0.9502(12) 0.3678(3)
H9A H 1.2814 1.0574 0.1350
H9B H 0.9426 1.2240 0.1350
H9C H 0.7186 0.7760 0.3650
H9D H 1.0574 1.2814 0.3650
H9E H 1.2240 0.9426 0.3650
H10A H 1.2283 1.1021 0.1230
H10B H 0.8979 1.1262 0.1230
H10C H 0.7717 0.8738 0.3770
H10D H 1.1021 1.2283 0.3770
H10E H 1.1262 0.8979 0.3770
H11A H 1.1879 0.9981 0.1206
H11B H 1.0019 1.1898 0.1206
H11C H 0.8121 0.8102 0.3794
H11D H 0.9981 1.1879 0.3794
H11E H 1.1898 1.0019 0.3794
N1A N 1.0474(4) 0.8326(6) 0.18383(13)
N1B N 1.1674(6) 1.2148(4) 0.18383(13)
N1C N 0.9526(4) 0.7852(4) 0.31617(13)
N1D N 0.8326(6) 1.0474(4) 0.31617(13)
N1E N 1.2148(4) 1.1674(6) 0.31617(13)
H12A H 1.0438 0.8626 0.1978
H12B H 1.1374 1.1812 0.1978
H12C H 0.9562 0.8188 0.3022
H12D H 0.8626 1.0438 0.3022
H12E H 1.1812 1.1374 0.3022
S1A S 1.0640(2) 0.80830(27) 0.24422(5)
S1B S 1.19170(27) 1.25570(18) 0.24422(5)
S1C S 0.9360(2) 0.74430(18) 0.25578(5)
S1D S 0.80830(27) 1.0640(2) 0.25578(5)
S1E S 1.25570(18) 1.19170(27) 0.25578(5)
I1 I 0.0000 0.0000 0.22287(2)
I1C I 0.0000 0.0000 0.27713(2)
C12? C 0.5740(19) 0.885(3) 0.2240(7)
C13? C 0.5237(19) 0.8838(15) 0.1989(7)
H13? H 0.5499 0.8629 0.2418
H14? H 0.4615 0.8563 0.1998
loop_
_geom_bond_atom_site_label_1
_geom_bond_atom_site_label_2
_geom_bond_site_symmetry_1
_geom_bond_site_symmetry_2
C1 C2 1_555 1_555
C2 H1 1_555 1_555
C3 C2 1_555 1_555
H2 C3 1_555 1_555
C4 C3 1_555 1_555
H3 C4 1_555 1_555
C5 C4 1_555 1_555
H4 C5 1_555 1_555
C6 C1 1_555 1_555
C7 H5 1_555 1_555
H6 C7 1_555 1_555
C8 C7 1_555 1_555
C9 C8 1_555 1_555
C10 C9 1_555 1_555
H7 C10 1_555 1_555
H8 C10 1_555 1_555
C11 C10 1_555 1_555
H9 C11 1_555 1_555
H10 C11 1_555 1_555
H11 C11 1_555 1_555
N1 C6 1_555 1_555
H12 N1 1_555 1_555
S1 C1 1_555 1_555
I1 I1C 1_555 1_555
C1A C2A 1_555 1_555
C1B C2B 1_555 1_555
C1C C2C 1_555 1_555
C1D C2D 1_555 1_555
C1E C2E 1_555 1_555
C2A H1A 1_555 1_555
C2B H1B 1_555 1_555
C2C H1C 1_555 1_555
C2D H1D 1_555 1_555
C2E H1E 1_555 1_555
C3A C2A 1_555 1_555
C3B C2B 1_555 1_555
C3C C2C 1_555 1_555
C3D C2D 1_555 1_555
C3E C2E 1_555 1_555
H2A C3A 1_555 1_555
H2B C3B 1_555 1_555
H2C C3C 1_555 1_555
H2D C3D 1_555 1_555
H2E C3E 1_555 1_555
C4A C3A 1_555 1_555
C4B C3B 1_555 1_555
C4C C3C 1_555 1_555
C4D C3D 1_555 1_555
C4E C3E 1_555 1_555
H3A C4A 1_555 1_555
H3B C4B 1_555 1_555
H3C C4C 1_555 1_555
H3D C4D 1_555 1_555
H3E C4E 1_555 1_555
C5A C4A 1_555 1_555
C5B C4B 1_555 1_555
C5C C4C 1_555 1_555
C5D C4D 1_555 1_555
C5E C4E 1_555 1_555
H4A C5A 1_555 1_555
H4B C5B 1_555 1_555
H4C C5C 1_555 1_555
H4D C5D 1_555 1_555
H4E C5E 1_555 1_555
C6A C1A 1_555 1_555
C6B C1B 1_555 1_555
C6C C1C 1_555 1_555
C6D C1D 1_555 1_555
C6E C1E 1_555 1_555
C7A H5A 1_555 1_555
C7B H5B 1_555 1_555
C7C H5C 1_555 1_555
C7D H5D 1_555 1_555
C7E H5E 1_555 1_555
H6A C7A 1_555 1_555
H6B C7B 1_555 1_555
H6C C7C 1_555 1_555
H6D C7D 1_555 1_555
H6E C7E 1_555 1_555
C8A C9 1_555 1_555
C8B C7B 1_555 1_555
C8C C7C 1_555 1_555
C8D C7D 1_555 1_555
C8E C7E 1_555 1_555
C9A C8A 1_555 1_555
C9B C8 1_555 1_555
C9C C8C 1_555 1_555
C9D C8D 1_555 1_555
C9E C8C 1_555 1_555
C10A C9A 1_555 1_555
C10B C9B 1_555 1_555
C10C C9C 1_555 1_555
C10D C9D 1_555 1_555
C10E C9E 1_555 1_555
H7A C10A 1_555 1_555
H7B C10B 1_555 1_555
H7C C10C 1_555 1_555
H7D C10D 1_555 1_555
H7E C10E 1_555 1_555
H8A C10A 1_555 1_555
H8B C10B 1_555 1_555
H8C C10C 1_555 1_555
H8D C10D 1_555 1_555
H8E C10E 1_555 1_555
C11A C10A 1_555 1_555
C11B C10B 1_555 1_555
C11C C10C 1_555 1_555
C11D C10D 1_555 1_555
C11E C10E 1_555 1_555
H9A C11A 1_555 1_555
H9B C11B 1_555 1_555
H9C C11C 1_555 1_555
H9D C11D 1_555 1_555
H9E C11E 1_555 1_555
H10A C11A 1_555 1_555
H10B C11B 1_555 1_555
H10C C11C 1_555 1_555
H10D C11D 1_555 1_555
H10E C11E 1_555 1_555
H11A C11A 1_555 1_555
H11B C11B 1_555 1_555
H11C C11C 1_555 1_555
H11D C11D 1_555 1_555
H11E C11E 1_555 1_555
N1A C6A 1_555 1_555
N1B C6B 1_555 1_555
N1C C6C 1_555 1_555
N1D C6D 1_555 1_555
N1E C6E 1_555 1_555
H12A N1A 1_555 1_555
H12B N1B 1_555 1_555
H12C N1C 1_555 1_555
H12D N1D 1_555 1_555
H12E N1E 1_555 1_555
S1A C1A 1_555 1_555
S1B C1B 1_555 1_555
S1C C1C 1_555 1_555
S1D S1 1_555 1_555
S1E C1E 1_555 1_555
C5 C6 1_555 1_555
C7 N1 1_555 1_555
C1D S1D 1_555 1_555
C5A C6A 1_555 1_555
C5B C6B 1_555 1_555
C5C C6C 1_555 1_555
C5D C6D 1_555 1_555
C5E C6E 1_555 1_555
C7A C8A 1_555 1_555
C7A N1A 1_555 1_555
C7B N1B 1_555 1_555
C7C N1C 1_555 1_555
C7D N1D 1_555 1_555
C7E N1E 1_555 1_555
C8B C9A 1_555 1_555
C8B C9B 1_555 1_555
C8D C9C 1_555 1_555
C8E C9D 1_555 1_555
C8E C9E 1_555 1_555
S1A S1C 1_555 1_555
S1B S1E 1_555 1_555

#END
