
#######################################################################
#
#                 Cambridge Crystallographic Data Centre
#                                CCDC 
#
#######################################################################
#
# If this CIF has been generated from an entry in the Cambridge 
# Structural Database, then it will include bibliographic, chemical, 
# crystal, experimental, refinement or atomic coordinate data resulting 
# from the CCDC's data processing and validation procedures.
#
#######################################################################

data_MAVYOA
_chemical_formula_moiety         'C24 H20 N4'
_chemical_name_systematic        
3-(2-(pyridin-3-yl)-3,4-bis(pyridin-4-yl)cyclobutyl)pyridine
_symmetry_cell_setting           orthorhombic
_symmetry_space_group_name_H-M   'P b c a'
_symmetry_Int_Tables_number      61
_space_group_name_Hall           '-P 2ac 2ab'
loop_
_symmetry_equiv_pos_site_id
_symmetry_equiv_pos_as_xyz
1 x,y,z
2 1/2-x,-y,1/2+z
3 -x,1/2+y,1/2-z
4 1/2+x,1/2-y,-z
5 -x,-y,-z
6 1/2+x,y,1/2-z
7 x,1/2-y,1/2+z
8 1/2-x,1/2+y,z
_cell_length_a                   12.112(2)
_cell_length_b                   16.437(3)
_cell_length_c                   19.547(4)
_cell_angle_alpha                90
_cell_angle_beta                 90
_cell_angle_gamma                90
_cell_volume                     3891.51
_exptl_crystal_colour            colorless
_exptl_crystal_description       block
_cell_formula_units_Z            8
loop_
_atom_site_label
_atom_site_type_symbol
_atom_site_fract_x
_atom_site_fract_y
_atom_site_fract_z
N1 N 1.00452(13) 0.50173(11) 0.78495(8)
N2 N 0.87084(12) 0.47120(9) 0.40624(7)
N3 N 0.81832(18) 0.71043(10) 0.85378(7)
N4 N 0.48928(15) 0.68199(14) 0.45741(9)
C1 C 0.94891(17) 0.44940(12) 0.82347(9)
H1 H 0.9856 0.4253 0.8607
C2 C 0.84169(17) 0.42874(13) 0.81205(11)
H2 H 0.8056 0.3912 0.8407
C3 C 0.78675(14) 0.46397(11) 0.75757(9)
H3 H 0.7129 0.4501 0.7486
C4 C 0.84053(12) 0.51944(9) 0.71642(7)
C5 C 0.94981(13) 0.53541(10) 0.73251(8)
H4 H 0.9883 0.5725 0.7047
C6 C 0.77856(11) 0.56365(9) 0.66125(7)
H5 H 0.7168 0.5289 0.6455
C7 C 0.83741(11) 0.59945(9) 0.59807(7)
H6 H 0.9126 0.6166 0.6118
C8 C 0.84573(11) 0.55331(9) 0.53194(7)
C9 C 0.91040(14) 0.58395(10) 0.47968(7)
H7 H 0.9475 0.6337 0.4853
C10 C 0.92031(15) 0.54134(10) 0.41924(8)
H8 H 0.9653 0.5636 0.3849
C11 C 0.80756(15) 0.44262(12) 0.45614(9)
H9 H 0.7701 0.3934 0.4485
C12 C 0.79293(14) 0.48067(11) 0.51901(8)
H10 H 0.7473 0.4570 0.5525
C13 C 0.9044(2) 0.75845(12) 0.84149(10)
H11 H 0.9434 0.7796 0.8791
C14 C 0.9393(2) 0.77871(12) 0.77716(10)
H12 H 1.0002 0.8134 0.7710
C15 C 0.88366(17) 0.74736(11) 0.72155(8)
H13 H 0.9060 0.7608 0.6769
C16 C 0.79486(14) 0.69611(9) 0.73178(7)
C17 C 0.76600(17) 0.68076(11) 0.79959(8)
H14 H 0.7049 0.6468 0.8075
C18 C 0.73236(12) 0.65187(9) 0.67688(7)
H15 H 0.6519 0.6513 0.6859
C19 C 0.75871(12) 0.67592(9) 0.60180(7)
H16 H 0.8006 0.7276 0.5993
C20 C 0.66319(13) 0.67504(10) 0.55274(8)
C21 C 0.66905(16) 0.72148(11) 0.49380(9)
H17 H 0.7329 0.7520 0.4843
C22 C 0.58163(19) 0.72291(14) 0.44927(11)
H18 H 0.5882 0.7556 0.4100
C23 C 0.48545(17) 0.63511(17) 0.51272(12)
H19 H 0.4219 0.6033 0.5193
C24 C 0.56809(15) 0.62967(14) 0.56134(10)
H20 H 0.5597 0.5956 0.5996
loop_
_geom_bond_atom_site_label_1
_geom_bond_atom_site_label_2
_geom_bond_site_symmetry_1
_geom_bond_site_symmetry_2
N1 C1 1_555 1_555
N2 C10 1_555 1_555
N3 C13 1_555 1_555
N4 C22 1_555 1_555
C1 H1 1_555 1_555
C2 C1 1_555 1_555
H2 C2 1_555 1_555
C3 C2 1_555 1_555
H3 C3 1_555 1_555
C4 C3 1_555 1_555
C5 N1 1_555 1_555
H4 C5 1_555 1_555
C6 C4 1_555 1_555
H5 C6 1_555 1_555
C7 C6 1_555 1_555
H6 C7 1_555 1_555
C8 C7 1_555 1_555
C9 C8 1_555 1_555
H7 C9 1_555 1_555
C10 C9 1_555 1_555
H8 C10 1_555 1_555
C11 N2 1_555 1_555
H9 C11 1_555 1_555
C12 C8 1_555 1_555
H10 C12 1_555 1_555
C13 H11 1_555 1_555
C14 C13 1_555 1_555
H12 C14 1_555 1_555
C15 C14 1_555 1_555
H13 C15 1_555 1_555
C16 C15 1_555 1_555
C17 N3 1_555 1_555
H14 C17 1_555 1_555
C18 C6 1_555 1_555
H15 C18 1_555 1_555
C19 C7 1_555 1_555
H16 C19 1_555 1_555
C20 C19 1_555 1_555
C21 C20 1_555 1_555
H17 C21 1_555 1_555
C22 C21 1_555 1_555
H18 C22 1_555 1_555
C23 N4 1_555 1_555
H19 C23 1_555 1_555
C24 C20 1_555 1_555
H20 C24 1_555 1_555
C4 C5 1_555 1_555
C11 C12 1_555 1_555
C16 C17 1_555 1_555
C16 C18 1_555 1_555
C18 C19 1_555 1_555
C23 C24 1_555 1_555

#END
