
#######################################################################
#
#                 Cambridge Crystallographic Data Centre
#                                CCDC 
#
#######################################################################
#
# If this CIF has been generated from an entry in the Cambridge 
# Structural Database, then it will include bibliographic, chemical, 
# crystal, experimental, refinement or atomic coordinate data resulting 
# from the CCDC's data processing and validation procedures.
#
#######################################################################

data_MAVZUG
_chemical_formula_moiety         'C20 H19 N1 O4'
_chemical_name_systematic        
(4-Ethoxyphenyl)(5-(4-ethoxyphenyl)-1,3-oxazol-2-yl)methanone
_symmetry_cell_setting           triclinic
_symmetry_space_group_name_H-M   'P 1'
_symmetry_Int_Tables_number      1
_space_group_name_Hall           'P 1'
loop_
_symmetry_equiv_pos_site_id
_symmetry_equiv_pos_as_xyz
1 x,y,z
_cell_length_a                   6.5338(9)
_cell_length_b                   21.451(3)
_cell_length_c                   12.1305(16)
_cell_angle_alpha                90.00
_cell_angle_beta                 95.016(3)
_cell_angle_gamma                90.00
_cell_volume                     1693.66
_exptl_crystal_colour            yellow
_exptl_crystal_description       needle
_cell_formula_units_Z            4
loop_
_atom_site_label
_atom_site_type_symbol
_atom_site_fract_x
_atom_site_fract_y
_atom_site_fract_z
C1 C 0.6213(12) 0.7961(4) 0.3857(6)
H1 H 0.6007 0.8383 0.3709
C2 C -0.5717(14) 0.6832(5) 0.0107(7)
H2 H -0.6602 0.7140 0.0388
H3 H -0.6438 0.6443 0.0019
H4 H -0.5309 0.6966 -0.0597
C3 C -0.3811(14) 0.6749(4) 0.0918(8)
H5 H -0.4218 0.6632 0.1640
H6 H -0.2954 0.6419 0.0662
C4 C -0.0825(13) 0.7312(4) 0.1664(7)
C5 C 0.0016(14) 0.6812(3) 0.2216(6)
H7 H -0.0691 0.6435 0.2200
C6 C 0.1920(15) 0.6859(4) 0.2805(7)
H8 H 0.2542 0.6510 0.3141
C7 C 0.2899(13) 0.7440(3) 0.2887(6)
C8 C 0.2017(13) 0.7960(4) 0.2323(7)
H9 H 0.2671 0.8346 0.2360
C9 C 0.0142(14) 0.7882(4) 0.1709(7)
H10 H -0.0468 0.8218 0.1324
C10 C 0.4891(13) 0.7490(4) 0.3523(6)
C11 C 0.7458(15) 0.7115(4) 0.4442(7)
C12 C 0.8885(12) 0.6599(4) 0.5004(6)
C13 C 1.0897(11) 0.6731(3) 0.5605(6)
C14 C 1.1990(12) 0.6225(3) 0.6051(7)
H11 H 1.1379 0.5835 0.5961
C15 C 1.3819(14) 0.6250(4) 0.6592(8)
H12 H 1.4510 0.5888 0.6823
C16 C 1.4735(11) 0.6860(3) 0.6820(6)
C17 C 1.3681(13) 0.7364(4) 0.6416(7)
H13 H 1.4240 0.7759 0.6545
C18 C 1.1811(13) 0.7308(4) 0.5822(7)
H14 H 1.1134 0.7666 0.5556
C19 C 1.7696(13) 0.6446(4) 0.7859(7)
H15 H 1.8091 0.6168 0.7283
H16 H 1.6844 0.6215 0.8332
C20 C 1.9581(15) 0.6689(5) 0.8526(8)
H17 H 2.0304 0.6969 0.8080
H18 H 2.0461 0.6346 0.8758
H19 H 1.9180 0.6906 0.9165
O1 O 0.5794(9) 0.6948(2) 0.3929(4)
O2 O -0.2707(9) 0.7308(3) 0.0997(5)
N1 N 0.7904(12) 0.7704(4) 0.4452(7)
O3 O 0.8190(10) 0.6084(3) 0.4909(6)
O4 O 1.6613(9) 0.6952(3) 0.7390(5)
C21 C -0.4895(15) 0.1679(4) -0.2419(8)
H20 H -0.5858 0.1822 -0.1920
H21 H -0.5508 0.1351 -0.2874
H22 H -0.4531 0.2019 -0.2879
C22 C -0.2950(13) 0.1432(4) -0.1749(8)
H23 H -0.3324 0.1155 -0.1167
H24 H -0.2105 0.1202 -0.2228
C23 C 0.0008(14) 0.1833(4) -0.0708(8)
C24 C 0.0830(12) 0.1253(4) -0.0544(7)
H25 H 0.0139 0.0899 -0.0819
C25 C 0.2762(15) 0.1213(4) 0.0056(8)
H26 H 0.3336 0.0820 0.0187
C26 C 0.3826(13) 0.1715(4) 0.0452(7)
C27 C 0.2907(15) 0.2307(4) 0.0300(6)
H27 H 0.3556 0.2658 0.0617
C28 C 0.1030(13) 0.2366(4) -0.0325(6)
H28 H 0.0469 0.2758 -0.0483
C29 C 0.5864(14) 0.1610(4) 0.1079(7)
C30 C 0.7157(12) 0.2119(4) 0.1571(6)
C31 C 0.9780(12) 0.2488(3) 0.2574(6)
C32 C 0.8483(14) 0.2957(4) 0.2246(7)
H29 H 0.8695 0.3377 0.2408
C33 C 1.1818(13) 0.2423(4) 0.3202(5)
C34 C 1.2887(12) 0.1855(3) 0.3292(7)
H30 H 1.2328 0.1501 0.2939
C35 C 1.4734(13) 0.1822(4) 0.3892(7)
H31 H 1.5422 0.1442 0.3921
C36 C 1.5636(13) 0.2311(3) 0.4453(6)
C37 C 1.4559(14) 0.2879(4) 0.4384(7)
H32 H 1.5089 0.3228 0.4762
C38 C 1.2682(14) 0.2911(4) 0.3740(7)
H33 H 1.2001 0.3292 0.3684
C39 C 1.8544(14) 0.1746(4) 0.5199(7)
H34 H 1.8956 0.1612 0.4488
H35 H 1.7706 0.1422 0.5490
C40 C 2.0445(14) 0.1877(5) 0.6006(9)
H36 H 2.1262 0.2196 0.5706
H37 H 2.1245 0.1502 0.6112
H38 H 2.0015 0.2012 0.6703
N2 N 0.6851(11) 0.2720(3) 0.1650(6)
O5 O -0.1863(9) 0.1953(2) -0.1288(5)
O6 O 0.6591(10) 0.1082(3) 0.1172(6)
O7 O 0.8979(9) 0.1957(2) 0.2156(5)
O8 O 1.7441(9) 0.2309(3) 0.5087(5)
C41 C -0.5611(14) 0.4632(4) 0.5142(7)
H39 H -0.5245 0.4443 0.4469
H40 H -0.6237 0.5030 0.4979
H41 H -0.6562 0.4367 0.5481
C42 C -0.3748(14) 0.4716(4) 0.5905(8)
H42 H -0.2866 0.5030 0.5618
H43 H -0.4120 0.4853 0.6623
C43 C -0.0815(13) 0.4107(4) 0.6639(7)
C44 C 0.0158(15) 0.3543(4) 0.6709(8)
H44 H -0.0465 0.3201 0.6349
C45 C 0.2015(14) 0.3472(4) 0.7292(7)
H45 H 0.2674 0.3087 0.7317
C46 C 0.2960(12) 0.4005(4) 0.7875(8)
C47 C 0.1952(15) 0.4549(5) 0.7821(8)
H46 H 0.2533 0.4885 0.8218
C48 C 0.0024(14) 0.4640(4) 0.7183(6)
H47 H -0.0628 0.5025 0.7132
C49 C 0.4871(14) 0.3954(4) 0.8533(7)
C50 C 0.6196(13) 0.3499(3) 0.8836(8)
H48 H 0.5988 0.3082 0.8644
C51 C 0.7628(13) 0.4309(4) 0.9469(7)
C52 C 0.8861(14) 0.4828(3) 1.0012(7)
C53 C 1.0875(13) 0.4698(4) 1.0598(6)
C54 C 1.1747(11) 0.4130(3) 1.0840(7)
H49 H 1.1020 0.3771 1.0623
C55 C 1.3646(14) 0.4072(4) 1.1389(7)
H50 H 1.4230 0.3678 1.1482
C56 C 1.4736(13) 0.4591(3) 1.1813(6)
C57 C 1.3816(14) 0.5174(4) 1.1600(7)
H51 H 1.4505 0.5531 1.1864
C58 C 1.1972(13) 0.5237(4) 1.1025(7)
H52 H 1.1406 0.5631 1.0905
C59 C 1.7655(15) 0.5019(4) 1.2909(8)
H53 H 1.6788 0.5229 1.3402
H54 H 1.8040 0.5314 1.2358
C60 C 1.9526(14) 0.4757(5) 1.3546(7)
H55 H 1.9128 0.4535 1.4180
H56 H 2.0438 0.5091 1.3785
H57 H 2.0212 0.4478 1.3082
N3 N 0.7965(12) 0.3724(3) 0.9487(6)
O9 O -0.2676(9) 0.4120(3) 0.6008(5)
O10 O 0.5825(9) 0.4507(3) 0.8948(5)
O11 O 0.8187(11) 0.5358(3) 0.9891(6)
O12 O 1.6587(10) 0.4489(3) 1.2383(5)
C61 C -0.4819(14) 0.9773(5) 0.2559(8)
H58 H -0.4439 0.9441 0.2089
H59 H -0.5505 1.0094 0.2117
H60 H -0.5725 0.9616 0.3076
C62 C -0.2926(14) 1.0037(5) 0.3179(9)
H61 H -0.2066 1.0242 0.2676
H62 H -0.3289 1.0336 0.3729
C63 C -0.0008(14) 0.9613(4) 0.4280(7)
C64 C 0.1052(14) 0.9067(4) 0.4693(7)
H63 H 0.0459 0.8676 0.4575
C65 C 0.2986(14) 0.9124(4) 0.5277(7)
H64 H 0.3688 0.8771 0.5547
C66 C 0.3861(14) 0.9719(4) 0.5453(7)
C67 C 0.2768(15) 1.0244(4) 0.5076(8)
H65 H 0.3296 1.0641 0.5223
C68 C 0.0796(13) 1.0165(4) 0.4452(7)
H66 H 0.0088 1.0514 0.4167
C69 C 0.5907(15) 0.9813(4) 0.6083(7)
C70 C 0.7060(11) 0.9325(3) 0.6557(6)
C71 C 0.8529(15) 0.8503(5) 0.7267(9)
H67 H 0.8769 0.8089 0.7468
C72 C 0.9782(13) 0.8974(4) 0.7558(7)
C73 C 1.1769(14) 0.9022(4) 0.8216(7)
C74 C 1.2664(16) 0.8529(4) 0.8762(8)
H68 H 1.1964 0.8151 0.8717
C75 C 1.4546(16) 0.8546(4) 0.9383(9)
H69 H 1.5084 0.8188 0.9732
C76 C 1.5631(12) 0.9114(4) 0.9476(7)
C77 C 1.4728(15) 0.9633(5) 0.8915(7)
H70 H 1.5379 1.0019 0.8969
C78 C 1.2873(11) 0.9570(4) 0.8283(6)
H71 H 1.2347 0.9913 0.7884
C79 C 1.8490(13) 0.9720(4) 1.0220(7)
H72 H 1.8846 0.9881 0.9514
H73 H 1.7629 1.0023 1.0552
C80 C 2.0359(15) 0.9592(5) 1.0958(8)
H74 H 1.9983 0.9403 1.1628
H75 H 2.1072 0.9976 1.1130
H76 H 2.1237 0.9315 1.0595
N4 N 0.6809(10) 0.8716(3) 0.6621(6)
O13 O -0.1839(9) 0.9491(2) 0.3720(5)
O14 O 0.6592(11) 1.0358(3) 0.6184(6)
O15 O 0.8972(8) 0.9507(2) 0.7148(4)
O16 O 1.7414(9) 0.9114(3) 1.0071(5)
loop_
_geom_bond_atom_site_label_1
_geom_bond_atom_site_label_2
_geom_bond_site_symmetry_1
_geom_bond_site_symmetry_2
C1 H1 1_555 1_555
C2 H2 1_555 1_555
H3 C2 1_555 1_555
H4 C2 1_555 1_555
C3 C2 1_555 1_555
H5 C3 1_555 1_555
H6 C3 1_555 1_555
C4 C5 1_555 1_555
C5 H7 1_555 1_555
C6 C5 1_555 1_555
H8 C6 1_555 1_555
C7 C6 1_555 1_555
C8 C7 1_555 1_555
H9 C8 1_555 1_555
C9 C4 1_555 1_555
H10 C9 1_555 1_555
C10 C1 1_555 1_555
C11 C12 1_555 1_555
C12 C13 1_555 1_555
C13 C14 1_555 1_555
C14 H11 1_555 1_555
C15 C14 1_555 1_555
H12 C15 1_555 1_555
C16 C15 1_555 1_555
C17 C16 1_555 1_555
H13 C17 1_555 1_555
C18 C13 1_555 1_555
H14 C18 1_555 1_555
C19 H15 1_555 1_555
H16 C19 1_555 1_555
C20 C19 1_555 1_555
H17 C20 1_555 1_555
H18 C20 1_555 1_555
H19 C20 1_555 1_555
O1 C10 1_555 1_555
O2 C3 1_555 1_555
N1 C1 1_555 1_555
O3 C12 1_555 1_555
O4 C16 1_555 1_555
C21 H20 1_555 1_555
H21 C21 1_555 1_555
H22 C21 1_555 1_555
C22 C21 1_555 1_555
H23 C22 1_555 1_555
H24 C22 1_555 1_555
C23 C24 1_555 1_555
C24 H25 1_555 1_555
C25 C24 1_555 1_555
H26 C25 1_555 1_555
C26 C25 1_555 1_555
C27 C26 1_555 1_555
H27 C27 1_555 1_555
C28 C23 1_555 1_555
H28 C28 1_555 1_555
C29 C26 1_555 1_555
C30 C29 1_555 1_555
C31 C32 1_555 1_555
C32 H29 1_555 1_555
C33 C31 1_555 1_555
C34 C33 1_555 1_555
H30 C34 1_555 1_555
C35 C34 1_555 1_555
H31 C35 1_555 1_555
C36 C35 1_555 1_555
C37 C36 1_555 1_555
H32 C37 1_555 1_555
C38 C33 1_555 1_555
H33 C38 1_555 1_555
C39 H34 1_555 1_555
H35 C39 1_555 1_555
C40 C39 1_555 1_555
H36 C40 1_555 1_555
H37 C40 1_555 1_555
H38 C40 1_555 1_555
N2 C30 1_555 1_555
O5 C22 1_555 1_555
O6 C29 1_555 1_555
O7 C30 1_555 1_555
O8 C36 1_555 1_555
C41 H39 1_555 1_555
H40 C41 1_555 1_555
H41 C41 1_555 1_555
C42 C41 1_555 1_555
H42 C42 1_555 1_555
H43 C42 1_555 1_555
C43 C44 1_555 1_555
C44 H44 1_555 1_555
C45 C44 1_555 1_555
H45 C45 1_555 1_555
C46 C45 1_555 1_555
C47 C46 1_555 1_555
H46 C47 1_555 1_555
C48 C43 1_555 1_555
H47 C48 1_555 1_555
C49 C46 1_555 1_555
C50 C49 1_555 1_555
H48 C50 1_555 1_555
C51 C52 1_555 1_555
C52 C53 1_555 1_555
C53 C54 1_555 1_555
C54 H49 1_555 1_555
C55 C54 1_555 1_555
H50 C55 1_555 1_555
C56 C55 1_555 1_555
C57 C56 1_555 1_555
H51 C57 1_555 1_555
C58 C53 1_555 1_555
H52 C58 1_555 1_555
C59 H53 1_555 1_555
H54 C59 1_555 1_555
C60 C59 1_555 1_555
H55 C60 1_555 1_555
H56 C60 1_555 1_555
H57 C60 1_555 1_555
N3 C50 1_555 1_555
O9 C42 1_555 1_555
O10 C49 1_555 1_555
O11 C52 1_555 1_555
O12 C56 1_555 1_555
C61 H58 1_555 1_555
H59 C61 1_555 1_555
H60 C61 1_555 1_555
C62 C61 1_555 1_555
H61 C62 1_555 1_555
H62 C62 1_555 1_555
C63 C64 1_555 1_555
C64 H63 1_555 1_555
C65 C64 1_555 1_555
H64 C65 1_555 1_555
C66 C65 1_555 1_555
C67 C66 1_555 1_555
H65 C67 1_555 1_555
C68 C63 1_555 1_555
H66 C68 1_555 1_555
C69 C66 1_555 1_555
C70 C69 1_555 1_555
C71 H67 1_555 1_555
C72 C71 1_555 1_555
C73 C72 1_555 1_555
C74 C73 1_555 1_555
H68 C74 1_555 1_555
C75 C74 1_555 1_555
H69 C75 1_555 1_555
C76 C75 1_555 1_555
C77 C76 1_555 1_555
H70 C77 1_555 1_555
C78 C73 1_555 1_555
H71 C78 1_555 1_555
C79 H72 1_555 1_555
H73 C79 1_555 1_555
C80 C79 1_555 1_555
H74 C80 1_555 1_555
H75 C80 1_555 1_555
H76 C80 1_555 1_555
N4 C70 1_555 1_555
O13 C62 1_555 1_555
O14 C69 1_555 1_555
O15 C70 1_555 1_555
O16 C76 1_555 1_555
C4 O2 1_555 1_555
C7 C10 1_555 1_555
C8 C9 1_555 1_555
C11 O1 1_555 1_555
C11 N1 1_555 1_555
C17 C18 1_555 1_555
C19 O4 1_555 1_555
C23 O5 1_555 1_555
C27 C28 1_555 1_555
C31 O7 1_555 1_555
C32 N2 1_555 1_555
C37 C38 1_555 1_555
C39 O8 1_555 1_555
C43 O9 1_555 1_555
C47 C48 1_555 1_555
C51 N3 1_555 1_555
C51 O10 1_555 1_555
C57 C58 1_555 1_555
C59 O12 1_555 1_555
C63 O13 1_555 1_555
C67 C68 1_555 1_555
C71 N4 1_555 1_555
C72 O15 1_555 1_555
C77 C78 1_555 1_555
C79 O16 1_555 1_555

#END
