
#######################################################################
#
#                 Cambridge Crystallographic Data Centre
#                                CCDC 
#
#######################################################################
#
# If this CIF has been generated from an entry in the Cambridge 
# Structural Database, then it will include bibliographic, chemical, 
# crystal, experimental, refinement or atomic coordinate data resulting 
# from the CCDC's data processing and validation procedures.
#
#######################################################################

data_MAVZAN
_chemical_formula_moiety         'C24 H20 N4'
_chemical_name_systematic        
3-(3-(pyridin-3-yl)-2,4-bis(pyridin-4-yl)cyclobutyl)pyridine
_symmetry_cell_setting           monoclinic
_symmetry_space_group_name_H-M   'P 21/n'
_symmetry_Int_Tables_number      14
_space_group_name_Hall           '-P 2yn'
loop_
_symmetry_equiv_pos_site_id
_symmetry_equiv_pos_as_xyz
1 x,y,z
2 1/2-x,1/2+y,1/2-z
3 -x,-y,-z
4 1/2+x,1/2-y,1/2+z
_cell_length_a                   9.2988(19)
_cell_length_b                   10.402(2)
_cell_length_c                   10.241(2)
_cell_angle_alpha                90
_cell_angle_beta                 96.58(3)
_cell_angle_gamma                90
_cell_volume                     984.047
_exptl_crystal_colour            colorless
_exptl_crystal_description       block
_cell_formula_units_Z            2
loop_
_atom_site_label
_atom_site_type_symbol
_atom_site_fract_x
_atom_site_fract_y
_atom_site_fract_z
N1 N 0.86882(17) 0.58529(18) 0.85026(18)
N2 N 0.7090(2) 0.20623(15) 0.16592(16)
C1 C 0.8028(2) 0.5252(2) 0.9401(2)
H1 H 0.8462 0.5274 1.0276
C2 C 0.6748(2) 0.45966(19) 0.91365(16)
H2 H 0.6321 0.4183 0.9812
C3 C 0.61029(16) 0.45589(16) 0.78546(14)
H3 H 0.5225 0.4116 0.7646
C4 C 0.67524(14) 0.51750(14) 0.68774(13)
C5 C 0.80403(17) 0.58004(17) 0.72758(18)
H4 H 0.8497 0.6224 0.6625
C6 C 0.61030(14) 0.52387(13) 0.54705(12)
H5 H 0.6830 0.5555 0.4913
C7 C 0.53624(14) 0.40096(13) 0.48599(12)
H6 H 0.5256 0.3378 0.5566
C8 C 0.59998(15) 0.33500(13) 0.37511(12)
C9 C 0.52173(18) 0.23995(15) 0.30363(16)
H7 H 0.4295 0.2164 0.3245
C10 C 0.5800(2) 0.18041(17) 0.20204(18)
H8 H 0.5241 0.1168 0.1548
C11 C 0.7829(2) 0.29628(18) 0.2342(2)
H9 H 0.8748 0.3175 0.2108
C12 C 0.73442(17) 0.36190(16) 0.33839(17)
H10 H 0.7932 0.4246 0.3839
N1B N 0.13118(17) 0.41471(18) 0.14974(18)
N2B N 0.2910(2) 0.79377(15) 0.83408(16)
C1B C 0.1972(2) 0.4748(2) 0.0599(2)
H1B H 0.1538 0.4726 -0.0276
C2B C 0.3252(2) 0.54034(19) 0.08635(16)
H2B H 0.3679 0.5817 0.0188
C3B C 0.38971(16) 0.54411(16) 0.21454(14)
H3B H 0.4775 0.5884 0.2354
C4B C 0.32476(14) 0.48250(14) 0.31226(13)
C5B C 0.19597(17) 0.41996(17) 0.27242(18)
H4B H 0.1503 0.3776 0.3375
C6B C 0.38970(14) 0.47613(13) 0.45295(12)
H5B H 0.3170 0.4445 0.5087
C7B C 0.46376(14) 0.59904(13) 0.51401(12)
H6B H 0.4744 0.6622 0.4434
C8B C 0.40002(15) 0.66500(13) 0.62489(12)
C9B C 0.47827(18) 0.76005(15) 0.69637(16)
H7B H 0.5705 0.7836 0.6755
C10B C 0.4200(2) 0.81959(17) 0.79796(18)
H8B H 0.4759 0.8832 0.8452
C11B C 0.2171(2) 0.70372(18) 0.7658(2)
H9B H 0.1252 0.6825 0.7892
C12B C 0.26558(17) 0.63810(16) 0.66161(17)
H10B H 0.2068 0.5754 0.6161
loop_
_geom_bond_atom_site_label_1
_geom_bond_atom_site_label_2
_geom_bond_site_symmetry_1
_geom_bond_site_symmetry_2
N1 C1 1_555 1_555
N2 C10 1_555 1_555
C1 H1 1_555 1_555
C2 C1 1_555 1_555
H2 C2 1_555 1_555
C3 C2 1_555 1_555
H3 C3 1_555 1_555
C4 C3 1_555 1_555
C5 N1 1_555 1_555
H4 C5 1_555 1_555
C6 C4 1_555 1_555
H5 C6 1_555 1_555
C7 C6 1_555 1_555
H6 C7 1_555 1_555
C8 C7 1_555 1_555
C9 C8 1_555 1_555
H7 C9 1_555 1_555
C10 C9 1_555 1_555
H8 C10 1_555 1_555
C11 N2 1_555 1_555
H9 C11 1_555 1_555
C12 C8 1_555 1_555
H10 C12 1_555 1_555
N1B C1B 1_555 1_555
N2B C10B 1_555 1_555
C1B H1B 1_555 1_555
C2B C1B 1_555 1_555
H2B C2B 1_555 1_555
C3B C2B 1_555 1_555
H3B C3B 1_555 1_555
C4B C3B 1_555 1_555
C5B N1B 1_555 1_555
H4B C5B 1_555 1_555
C6B C7 1_555 1_555
H5B C6B 1_555 1_555
C7B C6 1_555 1_555
H6B C7B 1_555 1_555
C8B C7B 1_555 1_555
C9B C8B 1_555 1_555
H7B C9B 1_555 1_555
C10B C9B 1_555 1_555
H8B C10B 1_555 1_555
C11B N2B 1_555 1_555
H9B C11B 1_555 1_555
C12B C8B 1_555 1_555
H10B C12B 1_555 1_555
C4 C5 1_555 1_555
C11 C12 1_555 1_555
C4B C5B 1_555 1_555
C4B C6B 1_555 1_555
C6B C7B 1_555 1_555
C11B C12B 1_555 1_555

#END
