
#######################################################################
#
#                 Cambridge Crystallographic Data Centre
#                                CCDC 
#
#######################################################################
#
# If this CIF has been generated from an entry in the Cambridge 
# Structural Database, then it will include bibliographic, chemical, 
# crystal, experimental, refinement or atomic coordinate data resulting 
# from the CCDC's data processing and validation procedures.
#
#######################################################################

data_MAVZEQ
_chemical_formula_moiety         'C20 H23 N2 O3 1+,0.23(H2 O1),Cl1 1-'
_chemical_name_systematic        
'(2R,5S)-1-Benzyl-2-((benzyloxy)carbonyl)-5-carbamoylpyrrolidinium chloride hydrate'
_symmetry_cell_setting           triclinic
_symmetry_space_group_name_H-M   'P 1'
_symmetry_Int_Tables_number      1
_space_group_name_Hall           'P 1'
loop_
_symmetry_equiv_pos_site_id
_symmetry_equiv_pos_as_xyz
1 x,y,z
_cell_length_a                   5.614(2)
_cell_length_b                   8.720(3)
_cell_length_c                   10.053(4)
_cell_angle_alpha                78.575(11)
_cell_angle_beta                 82.289(12)
_cell_angle_gamma                87.570(15)
_cell_volume                     477.958
_exptl_crystal_colour            colorless
_exptl_crystal_description       rod
_cell_formula_units_Z            1
loop_
_atom_site_label
_atom_site_type_symbol
_atom_site_fract_x
_atom_site_fract_y
_atom_site_fract_z
Cl1 Cl 1.51415(9) 0.03580(6) -0.01906(6)
O1 O 1.4720(3) 0.28976(19) -0.32013(17)
O2 O 1.1265(3) 0.3342(3) -0.1913(2)
O3 O 0.9030(3) 0.6128(2) -0.0068(2)
N1 N 1.3422(3) 0.4870(2) -0.03426(18)
H1 H 1.1888 0.4494 -0.0317
N2 N 1.0284(4) 0.8535(3) 0.0029(3)
H2 H 0.8816 0.8898 0.0216
H3 H 1.1523 0.9144 -0.0042
C1 C 1.4959(4) 0.4409(3) -0.1560(2)
H4 H 1.6369 0.3756 -0.1260
C2 C 1.5801(4) 0.5951(3) -0.2485(3)
H5 H 1.7384 0.6244 -0.2289
H6 H 1.5920 0.5880 -0.3462
C3 C 1.3857(4) 0.7125(3) -0.2128(2)
H7 H 1.2442 0.7065 -0.2605
H8 H 1.4470 0.8205 -0.2374
C4 C 1.3222(4) 0.6627(3) -0.0583(2)
H9 H 1.4360 0.7073 -0.0081
C5 C 1.3391(4) 0.3493(3) -0.2230(3)
C6 C 1.3537(5) 0.1776(3) -0.3784(3)
H10 H 1.2341 0.2319 -0.4361
H11 H 1.2697 0.0985 -0.3046
C7 C 1.5447(4) 0.1005(3) -0.4631(3)
C8 C 1.5163(5) 0.0895(3) -0.5953(3)
H12 H 1.3765 0.1333 -0.6330
C9 C 1.6886(6) 0.0154(4) -0.6734(3)
H13 H 1.6675 0.0084 -0.7642
C10 C 1.8913(6) -0.0481(4) -0.6184(3)
H14 H 2.0112 -0.0980 -0.6719
C11 C 1.9208(5) -0.0396(3) -0.4866(3)
H15 H 2.0601 -0.0850 -0.4493
C12 C 1.7488(5) 0.0346(3) -0.4073(3)
H16 H 1.7700 0.0404 -0.3162
C13 C 1.0626(4) 0.7079(3) -0.0143(2)
C14 C 1.4352(4) 0.4100(3) 0.0986(2)
H17 H 1.4152 0.2954 0.1125
H18 H 1.6092 0.4301 0.0907
C15 C 1.3088(4) 0.4674(3) 0.2222(2)
C16 C 1.4192(4) 0.5752(3) 0.2765(3)
H19 H 1.5696 0.6168 0.2324
C17 C 1.3134(5) 0.6235(3) 0.3943(3)
H20 H 1.3910 0.6975 0.4309
C18 C 1.0940(5) 0.5633(4) 0.4582(3)
H21 H 1.0216 0.5951 0.5396
C19 C 0.9802(5) 0.4575(4) 0.4043(3)
H22 H 0.8288 0.4174 0.4481
C20 C 1.0851(4) 0.4091(3) 0.2865(3)
H23 H 1.0054 0.3365 0.2494
O4 O 0.9956(14) 0.2086(10) 0.0651(8)
loop_
_geom_bond_atom_site_label_1
_geom_bond_atom_site_label_2
_geom_bond_site_symmetry_1
_geom_bond_site_symmetry_2
O1 C5 1_555 1_555
O2 C5 1_555 1_555
O3 C13 1_555 1_555
N1 H1 1_555 1_555
N2 H2 1_555 1_555
H3 N2 1_555 1_555
C1 N1 1_555 1_555
H4 C1 1_555 1_555
C2 C1 1_555 1_555
H5 C2 1_555 1_555
H6 C2 1_555 1_555
C3 C2 1_555 1_555
H7 C3 1_555 1_555
H8 C3 1_555 1_555
C4 N1 1_555 1_555
H9 C4 1_555 1_555
C5 C1 1_555 1_555
C6 O1 1_555 1_555
H10 C6 1_555 1_555
H11 C6 1_555 1_555
C7 C6 1_555 1_555
C8 C7 1_555 1_555
H12 C8 1_555 1_555
C9 C8 1_555 1_555
H13 C9 1_555 1_555
C10 C9 1_555 1_555
H14 C10 1_555 1_555
C11 C10 1_555 1_555
H15 C11 1_555 1_555
C12 C7 1_555 1_555
H16 C12 1_555 1_555
C13 N2 1_555 1_555
C14 N1 1_555 1_555
H17 C14 1_555 1_555
H18 C14 1_555 1_555
C15 C14 1_555 1_555
C16 C15 1_555 1_555
H19 C16 1_555 1_555
C17 C16 1_555 1_555
H20 C17 1_555 1_555
C18 C17 1_555 1_555
H21 C18 1_555 1_555
C19 C18 1_555 1_555
H22 C19 1_555 1_555
C20 C15 1_555 1_555
H23 C20 1_555 1_555
C3 C4 1_555 1_555
C4 C13 1_555 1_555
C11 C12 1_555 1_555
C19 C20 1_555 1_555

#END
