
#######################################################################
#
#                 Cambridge Crystallographic Data Centre
#                                CCDC 
#
#######################################################################
#
# If this CIF has been generated from an entry in the Cambridge 
# Structural Database, then it will include bibliographic, chemical, 
# crystal, experimental, refinement or atomic coordinate data resulting 
# from the CCDC's data processing and validation procedures.
#
#######################################################################

data_MAWCAO
_chemical_formula_moiety         'C34 H38 O1 S6'
_chemical_name_systematic        
9-(4-Formyl-5-methyl-1,3-dithiol-2-ylidene)-10-(4,5-bis(n-hexylthiolato)-1,3-dithiol-2-ylidene)-9,10-dihydroanthracene
_symmetry_cell_setting           triclinic
_symmetry_space_group_name_H-M   'P -1'
_symmetry_Int_Tables_number      2
_space_group_name_Hall           '-P 1'
loop_
_symmetry_equiv_pos_site_id
_symmetry_equiv_pos_as_xyz
1 x,y,z
2 -x,-y,-z
_cell_length_a                   15.208(3)
_cell_length_b                   16.298(3)
_cell_length_c                   16.510(3)
_cell_angle_alpha                111.95(1)
_cell_angle_beta                 95.52(1)
_cell_angle_gamma                113.86(1)
_cell_volume                     3320.23
_exptl_crystal_colour            amber
_exptl_crystal_description       plate
_chemical_melting_point          '178-179 deg.C'
_cell_formula_units_Z            4
loop_
_atom_site_label
_atom_site_type_symbol
_atom_site_fract_x
_atom_site_fract_y
_atom_site_fract_z
S1 S -0.05032(5) 0.58238(5) -0.00819(5)
S2 S 0.16122(5) 0.72149(5) 0.09693(5)
S3 S -0.05110(6) 0.90483(6) -0.16325(5)
S4 S 0.16087(6) 1.04238(5) -0.05372(5)
S5 S -0.10605(6) 0.53986(6) 0.14818(5)
S6 S 0.13390(6) 0.70884(6) 0.27018(5)
O1 O -0.1686(4) 1.0058(4) -0.1578(4)
C1 C -0.0690(2) 0.6939(2) -0.27214(19)
H1 H -0.0678 0.7390 -0.2959
C2 C -0.1412(2) 0.5933(2) -0.3194(2)
H2 H -0.1898 0.5705 -0.3742
C3 C -0.1432(2) 0.5260(2) -0.2863(2)
H3 H -0.1930 0.4573 -0.3183
C4 C -0.0712(2) 0.5597(2) -0.20602(19)
H4 H -0.0717 0.5132 -0.1843
C5 C 0.2720(2) 0.7821(2) -0.0333(2)
H5 H 0.2722 0.7351 -0.0125
C6 C 0.3622(2) 0.8549(2) -0.0307(2)
H6 H 0.4239 0.8593 -0.0058
C7 C 0.3626(2) 0.9211(2) -0.0640(2)
H7 H 0.4244 0.9697 -0.0636
C8 C 0.2730(2) 0.9168(2) -0.09861(19)
H8 H 0.2740 0.9624 -0.1218
C9 C 0.0829(2) 0.8355(2) -0.13802(18)
C10 C 0.0818(2) 0.70043(19) -0.07260(18)
C11 C 0.1805(2) 0.7773(2) -0.06657(18)
C12 C 0.1812(2) 0.8460(2) -0.09951(18)
C13 C 0.0026(2) 0.7295(2) -0.19041(19)
C14 C 0.0016(2) 0.6608(2) -0.15685(18)
C15 C 0.0671(2) 0.67170(19) -0.00561(19)
C16 C -0.0171(2) 0.6093(2) 0.10763(19)
C17 C 0.0797(2) 0.6737(2) 0.15574(19)
C18 C 0.0671(2) 0.9157(2) -0.12222(19)
C19 C -0.0175(3) 1.0316(2) -0.0978(2)
C20 C 0.0793(3) 1.0945(2) -0.0474(2)
C21 C 0.1577(2) 0.8390(2) 0.3229(2)
H9 H 0.1825 0.8675 0.3900
H10 H 0.2107 0.8792 0.3026
C22 C 0.0629(3) 0.8474(2) 0.2986(2)
H11 H 0.0433 0.8269 0.2323
H12 H 0.0075 0.7999 0.3112
C23 C 0.0758(3) 0.9514(3) 0.3501(2)
H13 H 0.1357 1.0000 0.3427
H14 H 0.0882 0.9692 0.4158
C24 C -0.0158(3) 0.9612(3) 0.3179(2)
H15 H -0.0228 0.9517 0.2543
H16 H -0.0768 0.9067 0.3176
C25 C -0.0096(3) 1.0603(3) 0.3757(3)
H17 H 0.0516 1.1150 0.3764
H18 H -0.0033 1.0697 0.4392
C26 C -0.1007(3) 1.0688(3) 0.3420(3)
H19 H -0.1053 1.0635 0.2805
H20 H -0.0937 1.1340 0.3835
H21 H -0.1618 1.0145 0.3406
C27 C -0.2194(2) 0.5417(2) 0.1044(2)
H22 H -0.2357 0.5126 0.0371
H23 H -0.2758 0.4977 0.1191
C28 C -0.2132(2) 0.6449(2) 0.1409(2)
H24 H -0.1656 0.6858 0.1173
H25 H -0.1866 0.6791 0.2083
C29 C -0.3147(2) 0.6391(2) 0.1141(2)
H26 H -0.3631 0.5948 0.1346
H27 H -0.3394 0.6080 0.0467
C30 C -0.3126(3) 0.7409(3) 0.1536(2)
H28 H -0.2856 0.7734 0.2209
H29 H -0.2665 0.7845 0.1311
C31 C -0.4139(3) 0.7338(3) 0.1295(3)
H30 H -0.4596 0.6909 0.1529
H31 H -0.4414 0.7001 0.0622
C32 C -0.4128(4) 0.8350(3) 0.1672(3)
H32 H -0.3930 0.8656 0.2340
H33 H -0.4801 0.8252 0.1445
H34 H -0.3647 0.8795 0.1474
C33 C -0.0995(3) 1.0580(3) -0.1091(3)
H35 H -0.0618 1.1307 -0.0635
C34 C 0.1264(4) 1.2044(3) 0.0101(3)
H38 H 0.0762 1.2278 0.0112
H39 H 0.1792 1.2395 0.0707
H40 H 0.2045 1.2543 0.0056
S7 S 0.60203(5) 0.92688(5) 0.54173(5)
S8 S 0.39038(5) 0.82226(5) 0.43476(5)
S9 S 0.59863(5) 0.48788(5) 0.41137(5)
S10 S 0.38277(5) 0.39489(5) 0.31898(5)
S11 S 0.57170(6) 1.05044(5) 0.71294(5)
S12 S 0.32471(6) 0.92799(7) 0.58721(6)
O3 O 0.6472(2) 0.3945(2) 0.5182(2)
C35 C 0.7144(2) 0.8432(2) 0.41613(18)
H41 H 0.7158 0.9064 0.4330
C36 C 0.8040(2) 0.8387(2) 0.42295(19)
H42 H 0.8661 0.8989 0.4458
C37 C 0.8036(2) 0.7475(2) 0.3969(2)
H43 H 0.8652 0.7452 0.4016
C38 C 0.7129(2) 0.6597(2) 0.36385(19)
H44 H 0.7127 0.5969 0.3449
C39 C 0.3686(2) 0.4905(2) 0.19108(18)
H45 H 0.3683 0.4278 0.1726
C40 C 0.2962(2) 0.4973(2) 0.14004(19)
H46 H 0.2459 0.4392 0.0878
C41 C 0.2976(2) 0.5893(2) 0.16540(19)
H47 H 0.2483 0.5942 0.1303
C42 C 0.3706(2) 0.6740(2) 0.24190(18)
H48 H 0.3715 0.7369 0.2585
C43 C 0.5250(2) 0.75617(19) 0.37533(18)
C44 C 0.5225(2) 0.5717(2) 0.32480(17)
C45 C 0.4421(2) 0.5746(2) 0.26924(18)
C46 C 0.44329(19) 0.66825(19) 0.29501(18)
C47 C 0.6226(2) 0.7560(2) 0.38473(17)
C48 C 0.6218(2) 0.6623(2) 0.35810(17)
C49 C 0.50876(19) 0.82649(19) 0.43917(18)
C50 C 0.5186(2) 0.9548(2) 0.59968(19)
C51 C 0.4220(2) 0.9071(2) 0.55047(19)
C52 C 0.5046(2) 0.4949(2) 0.34675(18)
C53 C 0.5153(2) 0.3871(2) 0.42773(19)
C54 C 0.4164(2) 0.3443(2) 0.38527(19)
C55 C 0.6258(2) 0.9966(2) 0.7686(2)
H49 H 0.6730 0.9805 0.7370
H50 H 0.6648 1.0476 0.8325
C56 C 0.5485(2) 0.9024(2) 0.7689(2)
H51 H 0.5157 0.8485 0.7052
H52 H 0.4961 0.9161 0.7929
C57 C 0.5914(2) 0.8644(2) 0.8256(2)
H53 H 0.6438 0.8504 0.8020
H54 H 0.6233 0.9175 0.8896
C58 C 0.5097(2) 0.7693(2) 0.8224(2)
H55 H 0.4838 0.7146 0.7591
H56 H 0.4533 0.7814 0.8378
C59 C 0.5436(3) 0.7342(2) 0.8864(2)
H57 H 0.5682 0.7878 0.9500
H58 H 0.6001 0.7220 0.8716
C60 C 0.4582(3) 0.6380(3) 0.8787(3)
H59 H 0.4047 0.6515 0.8984
H60 H 0.4839 0.6148 0.9175
H61 H 0.4314 0.5859 0.8151
C61 C 0.2945(3) 0.8619(3) 0.6538(3)
H62 H 0.3578 0.8828 0.6976
H63 H 0.2527 0.8834 0.6900
C63 C 0.2409(3) 0.7504(3) 0.6039(3)
H66 H 0.1794 0.7301 0.5582
H67 H 0.2841 0.7293 0.5696
C64 C 0.2114(4) 0.6936(4) 0.6539(4)
H68 H 0.1683 0.7143 0.6888
H69 H 0.2725 0.7116 0.6986
C65 C 0.1542(4) 0.5793(4) 0.5961(4)
H70 H 0.1973 0.5591 0.5610
H71 H 0.0932 0.5617 0.5515
C68 C 0.1212(4) 0.5148(4) 0.6473(4)
H76 H 0.1824 0.5312 0.6907
H77 H 0.0799 0.5366 0.6839
C69 C 0.0681(5) 0.4124(5) 0.5971(5)
H78 H 0.0524 0.3815 0.6383
H79 H 0.1084 0.3884 0.5619
H80 H 0.0054 0.3938 0.5553
C71 C 0.5635(3) 0.3560(2) 0.4838(2)
C72 C 0.3318(3) 0.2593(3) 0.3891(2)
H87 H 0.3553 0.2179 0.4108
H88 H 0.2794 0.2822 0.4202
H89 H 0.3008 0.2143 0.3426
O2? O 0.2040(4) 1.2511(3) 0.0413(3)
H36? H -0.1624 1.0227 -0.1088
H37? H -0.1382 1.0410 -0.1729
O4? O 0.2616(7) 0.2228(7) 0.3494(6)
C62? C 0.2281(8) 0.7892(7) 0.5521(7)
H64? H 0.1601 0.7830 0.5476
H65? H 0.2268 0.7458 0.4906
C66? C 0.1720(8) 0.6482(8) 0.5995(8)
H72? H 0.1072 0.6478 0.6030
H73? H 0.1588 0.5975 0.5368
C67? C 0.1931(10) 0.6077(9) 0.6592(10)
H74? H 0.2558 0.6037 0.6540
H75? H 0.2081 0.6579 0.7226
C70? C 0.0840(11) 0.4075(10) 0.5479(10)
H81? H 0.0349 0.3489 0.5523
H82? H 0.1428 0.3991 0.5375
H83? H 0.0534 0.4137 0.4969
H84? H 0.5230 0.2997 0.4901
H85? H 0.5977 0.4115 0.5438
H86? H 0.6139 0.3440 0.4584
loop_
_geom_bond_atom_site_label_1
_geom_bond_atom_site_label_2
_geom_bond_site_symmetry_1
_geom_bond_site_symmetry_2
S1 C15 1_555 1_555
S2 C15 1_555 1_555
S3 C18 1_555 1_555
S4 C18 1_555 1_555
S5 C16 1_555 1_555
S6 C17 1_555 1_555
O1 C33 1_555 1_555
C1 H1 1_555 1_555
C2 C1 1_555 1_555
H2 C2 1_555 1_555
C3 C2 1_555 1_555
H3 C3 1_555 1_555
C4 C3 1_555 1_555
H4 C4 1_555 1_555
C5 H5 1_555 1_555
C6 C5 1_555 1_555
H6 C6 1_555 1_555
C7 C6 1_555 1_555
H7 C7 1_555 1_555
C8 C7 1_555 1_555
H8 C8 1_555 1_555
C9 C12 1_555 1_555
C10 C11 1_555 1_555
C11 C5 1_555 1_555
C12 C8 1_555 1_555
C13 C1 1_555 1_555
C14 C4 1_555 1_555
C15 C10 1_555 1_555
C16 S1 1_555 1_555
C17 S2 1_555 1_555
C18 C9 1_555 1_555
C19 S3 1_555 1_555
C20 S4 1_555 1_555
C21 S6 1_555 1_555
H9 C21 1_555 1_555
H10 C21 1_555 1_555
C22 C21 1_555 1_555
H11 C22 1_555 1_555
H12 C22 1_555 1_555
C23 C22 1_555 1_555
H13 C23 1_555 1_555
H14 C23 1_555 1_555
C24 C23 1_555 1_555
H15 C24 1_555 1_555
H16 C24 1_555 1_555
C25 C24 1_555 1_555
H17 C25 1_555 1_555
H18 C25 1_555 1_555
C26 C25 1_555 1_555
H19 C26 1_555 1_555
H20 C26 1_555 1_555
H21 C26 1_555 1_555
C27 S5 1_555 1_555
H22 C27 1_555 1_555
H23 C27 1_555 1_555
C28 C27 1_555 1_555
H24 C28 1_555 1_555
H25 C28 1_555 1_555
C29 C28 1_555 1_555
H26 C29 1_555 1_555
H27 C29 1_555 1_555
C30 C29 1_555 1_555
H28 C30 1_555 1_555
H29 C30 1_555 1_555
C31 C30 1_555 1_555
H30 C31 1_555 1_555
H31 C31 1_555 1_555
C32 C31 1_555 1_555
H32 C32 1_555 1_555
H33 C32 1_555 1_555
H34 C32 1_555 1_555
C33 C19 1_555 1_555
H35 C33 1_555 1_555
C34 C20 1_555 1_555
H38 C34 1_555 1_555
H39 C34 1_555 1_555
H40 C34 1_555 1_555
S7 C49 1_555 1_555
S8 C49 1_555 1_555
S9 C52 1_555 1_555
S10 C52 1_555 1_555
S11 C50 1_555 1_555
S12 C51 1_555 1_555
O3 C71 1_555 1_555
C35 H41 1_555 1_555
C36 C35 1_555 1_555
H42 C36 1_555 1_555
C37 C36 1_555 1_555
H43 C37 1_555 1_555
C38 C37 1_555 1_555
H44 C38 1_555 1_555
C39 H45 1_555 1_555
C40 C39 1_555 1_555
H46 C40 1_555 1_555
C41 C40 1_555 1_555
H47 C41 1_555 1_555
C42 C41 1_555 1_555
H48 C42 1_555 1_555
C43 C46 1_555 1_555
C44 C45 1_555 1_555
C45 C39 1_555 1_555
C46 C42 1_555 1_555
C47 C35 1_555 1_555
C48 C38 1_555 1_555
C49 C43 1_555 1_555
C50 S7 1_555 1_555
C51 S8 1_555 1_555
C52 C44 1_555 1_555
C53 S9 1_555 1_555
C54 S10 1_555 1_555
C55 S11 1_555 1_555
H49 C55 1_555 1_555
H50 C55 1_555 1_555
C56 C55 1_555 1_555
H51 C56 1_555 1_555
H52 C56 1_555 1_555
C57 C56 1_555 1_555
H53 C57 1_555 1_555
H54 C57 1_555 1_555
C58 C57 1_555 1_555
H55 C58 1_555 1_555
H56 C58 1_555 1_555
C59 C58 1_555 1_555
H57 C59 1_555 1_555
H58 C59 1_555 1_555
C60 C59 1_555 1_555
H59 C60 1_555 1_555
H60 C60 1_555 1_555
H61 C60 1_555 1_555
C61 S12 1_555 1_555
H62 C61 1_555 1_555
H63 C61 1_555 1_555
C63 C61 1_555 1_555
H66 C63 1_555 1_555
H67 C63 1_555 1_555
C64 C63 1_555 1_555
H68 C64 1_555 1_555
H69 C64 1_555 1_555
C65 C64 1_555 1_555
H70 C65 1_555 1_555
H71 C65 1_555 1_555
C68 C65 1_555 1_555
H76 C68 1_555 1_555
H77 C68 1_555 1_555
C69 C68 1_555 1_555
H78 C69 1_555 1_555
H79 C69 1_555 1_555
H80 C69 1_555 1_555
C71 C53 1_555 1_555
C72 C54 1_555 1_555
H87 C72 1_555 1_555
H88 C72 1_555 1_555
H89 C72 1_555 1_555
C9 C13 1_555 1_555
C10 C14 1_555 1_555
C11 C12 1_555 1_555
C13 C14 1_555 1_555
C16 C17 1_555 1_555
C19 C20 1_555 1_555
C43 C47 1_555 1_555
C44 C48 1_555 1_555
C45 C46 1_555 1_555
C47 C48 1_555 1_555
C50 C51 1_555 1_555
C53 C54 1_555 1_555

#END
