
#######################################################################
#
#                 Cambridge Crystallographic Data Centre
#                                CCDC 
#
#######################################################################
#
# If this CIF has been generated from an entry in the Cambridge 
# Structural Database, then it will include bibliographic, chemical, 
# crystal, experimental, refinement or atomic coordinate data resulting 
# from the CCDC's data processing and validation procedures.
#
#######################################################################

data_MAWFAU
_chemical_formula_moiety         'C18 H21 N15,2(C5 H5 N1),2(H2 O1)'
_chemical_name_systematic        
"6,6',6''-(2,4,6-trimethylbenzene-1,3,5-triyl)tris(1,3,5-triazine-2,4-diamine) pyridine solvate dihydrate"
_symmetry_cell_setting           triclinic
_symmetry_space_group_name_H-M   'P -1'
_symmetry_Int_Tables_number      2
_space_group_name_Hall           '-P 1'
loop_
_symmetry_equiv_pos_site_id
_symmetry_equiv_pos_as_xyz
1 x,y,z
2 -x,-y,-z
_cell_length_a                   10.8777(10)
_cell_length_b                   11.7580(12)
_cell_length_c                   15.7520(13)
_cell_angle_alpha                80.409(7)
_cell_angle_beta                 86.674(7)
_cell_angle_gamma                68.799(9)
_cell_volume                     1852.06
_exptl_crystal_colour            colorless
_exptl_crystal_description       block
_cell_formula_units_Z            2
loop_
_atom_site_label
_atom_site_type_symbol
_atom_site_fract_x
_atom_site_fract_y
_atom_site_fract_z
C1 C 0.8577(5) 0.3280(4) 0.4145(3)
C2 C 0.7143(9) 0.2964(6) 0.3341(5)
C3 C 0.7070(4) 0.4900(4) 0.3328(2)
C4 C 0.2950(3) 1.0081(4) 0.4853(2)
C5 C 0.1567(4) 0.9646(4) 0.4046(2)
C6 C 0.3761(3) 0.8947(3) 0.37777(19)
C7 C 0.7076(3) 0.9878(3) 0.01206(19)
C8 C 0.8906(3) 0.9233(4) 0.0964(2)
C9 C 0.7118(3) 0.8752(3) 0.14363(18)
C10 C 0.6475(3) 0.6255(3) 0.3044(2)
C11 C 0.7021(3) 0.6828(3) 0.2352(2)
C12 C 0.6489(3) 0.8121(3) 0.21402(18)
C13 C 0.5433(3) 0.8831(3) 0.25974(18)
C14 C 0.4901(3) 0.8223(3) 0.32835(19)
C15 C 0.5417(3) 0.6938(3) 0.3513(2)
C16 C 0.4843(5) 0.6312(4) 0.4256(3)
H1 H 0.4436 0.6880 0.4651
H2 H 0.5532 0.5607 0.4546
H3 H 0.4195 0.6049 0.4045
C17 C 0.8159(4) 0.6059(4) 0.1865(2)
H4 H 0.8968 0.5904 0.2157
H5 H 0.8177 0.6492 0.1294
H6 H 0.8061 0.5288 0.1833
C18 C 0.4882(4) 1.0218(3) 0.2394(2)
H7 H 0.4049 1.0479 0.2106
H8 H 0.5484 1.0500 0.2027
H9 H 0.4761 1.0560 0.2918
N1 N 0.9560(6) 0.2843(4) 0.4690(4)
H10 H 0.9881 0.2064 0.4879
H11 H 0.9886 0.3333 0.4858
N2 N 0.6686(13) 0.2198(6) 0.3039(9)
H12 H 0.7024 0.1416 0.3214
H13 H 0.6054 0.2487 0.2670
N3 N 0.8115(5) 0.2463(4) 0.3908(3)
N4 N 0.6586(6) 0.4191(4) 0.3015(4)
N5 N 0.8059(4) 0.4515(3) 0.3886(3)
N6 N 0.3176(3) 1.0549(4) 0.5518(2)
H14 H 0.2530 1.0930 0.5828
H15 H 0.3968 1.0470 0.5635
N7 N 0.0363(3) 0.9728(4) 0.3856(2)
H16 H -0.0303 1.0140 0.4139
H17 H 0.0249 0.9369 0.3450
N8 N 0.1714(3) 1.0218(3) 0.46857(17)
N9 N 0.2583(3) 0.8982(3) 0.35709(17)
N10 N 0.4033(3) 0.9463(3) 0.44027(17)
N11 N 0.6428(3) 1.0480(3) -0.05996(17)
H18 H 0.6793 1.0850 -0.0995
H19 H 0.5642 1.0502 -0.0673
N12 N 1.0138(3) 0.9131(4) 0.1081(2)
H20 H 1.0536 0.9462 0.0683
H21 H 1.0541 0.8734 0.1554
N13 N 0.8296(3) 0.9859(3) 0.02175(17)
N14 N 0.8323(3) 0.8679(3) 0.16076(16)
N15 N 0.6432(3) 0.9306(3) 0.07162(16)
O1 O 0.2515(3) 0.8028(3) 0.20349(16)
H22 H 0.2489 0.8396 0.2453
H23 H 0.3060 0.7292 0.2160
O2 O 0.9038(3) 0.8230(3) 0.33419(17)
H24 H 0.8795 0.8227 0.2846
H25 H 0.9702 0.7576 0.3480
N16 N 0.5777(11) 0.2882(7) 0.1064(7)
C19 C 0.4190(10) 0.3317(8) -0.0068(6)
H26 H 0.3370 0.3321 -0.0209
C20 C 0.4629(11) 0.2928(7) 0.0780(5)
H27 H 0.4076 0.2680 0.1181
C21 C 0.6559(11) 0.3266(9) 0.0415(9)
H28 H 0.7377 0.3257 0.0566
C22 C 0.6156(15) 0.3659(10) -0.0442(7)
H29 H 0.6711 0.3900 -0.0843
C23 C 0.4954(14) 0.3699(10) -0.0709(9)
H30 H 0.4674 0.3963 -0.1278
C24 C 0.1045(11) 0.3782(10) 0.1045(11)
H31 H 0.1271 0.4433 0.0751
C25 C 0.0960(9) 0.2427(10) 0.2302(6)
H32 H 0.1129 0.2137 0.2886
C26 C 0.1328(9) 0.3391(12) 0.1926(11)
H33 H 0.1739 0.3763 0.2235
C27 C 0.0434(12) 0.3207(13) 0.0612(6)
H34 H 0.0305 0.3450 0.0021
N17 N 0.0010(14) 0.2295(11) 0.1012(7)
C28 C 0.0355(11) 0.1872(10) 0.1856(7)
H35 H 0.0174 0.1189 0.2135
loop_
_geom_bond_atom_site_label_1
_geom_bond_atom_site_label_2
_geom_bond_site_symmetry_1
_geom_bond_site_symmetry_2
C1 N1 1_555 1_555
C2 N2 1_555 1_555
C3 C10 1_555 1_555
C4 N6 1_555 1_555
C5 N7 1_555 1_555
C6 C14 1_555 1_555
C7 N11 1_555 1_555
C8 N12 1_555 1_555
C9 C12 1_555 1_555
C10 C11 1_555 1_555
C11 C12 1_555 1_555
C12 C13 1_555 1_555
C13 C14 1_555 1_555
C14 C15 1_555 1_555
C15 C10 1_555 1_555
C16 C15 1_555 1_555
H1 C16 1_555 1_555
H2 C16 1_555 1_555
H3 C16 1_555 1_555
C17 C11 1_555 1_555
H4 C17 1_555 1_555
H5 C17 1_555 1_555
H6 C17 1_555 1_555
C18 C13 1_555 1_555
H7 C18 1_555 1_555
H8 C18 1_555 1_555
H9 C18 1_555 1_555
N1 H10 1_555 1_555
H11 N1 1_555 1_555
N2 H12 1_555 1_555
H13 N2 1_555 1_555
N3 C1 1_555 1_555
N4 C2 1_555 1_555
N5 C1 1_555 1_555
N6 H14 1_555 1_555
H15 N6 1_555 1_555
N7 H16 1_555 1_555
H17 N7 1_555 1_555
N8 C4 1_555 1_555
N9 C5 1_555 1_555
N10 C4 1_555 1_555
N11 H18 1_555 1_555
H19 N11 1_555 1_555
N12 H20 1_555 1_555
H21 N12 1_555 1_555
N13 C7 1_555 1_555
N14 C8 1_555 1_555
N15 C7 1_555 1_555
O1 H22 1_555 1_555
H23 O1 1_555 1_555
O2 H24 1_555 1_555
H25 O2 1_555 1_555
N16 C20 1_555 1_555
C19 H26 1_555 1_555
C20 C19 1_555 1_555
H27 C20 1_555 1_555
C21 N16 1_555 1_555
H28 C21 1_555 1_555
C22 C21 1_555 1_555
H29 C22 1_555 1_555
C23 C19 1_555 1_555
H30 C23 1_555 1_555
C24 H31 1_555 1_555
C25 H32 1_555 1_555
C26 C24 1_555 1_555
H33 C26 1_555 1_555
C27 C24 1_555 1_555
H34 C27 1_555 1_555
N17 C27 1_555 1_555
C28 C25 1_555 1_555
H35 C28 1_555 1_555
C2 N3 1_555 1_555
C3 N4 1_555 1_555
C3 N5 1_555 1_555
C5 N8 1_555 1_555
C6 N9 1_555 1_555
C6 N10 1_555 1_555
C8 N13 1_555 1_555
C9 N14 1_555 1_555
C9 N15 1_555 1_555
C22 C23 1_555 1_555
C25 C26 1_555 1_555
N17 C28 1_555 1_555

#END
