
#######################################################################
#
#                 Cambridge Crystallographic Data Centre
#                                CCDC 
#
#######################################################################
#
# If this CIF has been generated from an entry in the Cambridge 
# Structural Database, then it will include bibliographic, chemical, 
# crystal, experimental, refinement or atomic coordinate data resulting 
# from the CCDC's data processing and validation procedures.
#
#######################################################################

data_MAWFIB
_chemical_formula_moiety         'C28 H32 S4'
_chemical_name_systematic        
2-(5-Dodecyl-2-thienyl)thieno[2',3':4,5]thieno[3,2-b][1]benzothiophene
_symmetry_cell_setting           triclinic
_symmetry_space_group_name_H-M   'P -1'
_symmetry_Int_Tables_number      2
_space_group_name_Hall           '-P 1'
loop_
_symmetry_equiv_pos_site_id
_symmetry_equiv_pos_as_xyz
1 x,y,z
2 -x,-y,-z
_cell_length_a                   5.8660(7)
_cell_length_b                   7.5451(9)
_cell_length_c                   56.721(7)
_cell_angle_alpha                91.309(2)
_cell_angle_beta                 91.191(2)
_cell_angle_gamma                90.093(2)
_cell_volume                     2509.24
_cell_formula_units_Z            4
_exptl_crystal_recrystallization_method toluene/chlorobenzene
loop_
_atom_site_label
_atom_site_type_symbol
_atom_site_fract_x
_atom_site_fract_y
_atom_site_fract_z
S1 S 0.6087(4) 0.5493(3) 0.08644(4)
S2 S 0.0329(4) 0.3406(3) 0.11879(4)
S3 S 0.6151(4) 0.5315(3) 0.15468(4)
S4 S 0.3396(5) 0.3732(4) 0.22241(5)
C1 C 0.4156(16) 0.4861(12) 0.06379(17)
C2 C 0.4486(18) 0.5072(14) 0.03966(18)
H1 H 0.5832 0.5617 0.0342
C3 C 0.2816(19) 0.4474(15) 0.0240(2)
H2 H 0.3014 0.4597 0.0075
C4 C 0.0853(18) 0.3698(13) 0.03205(18)
H3 H -0.0274 0.3292 0.0209
C5 C 0.0479(17) 0.3493(12) 0.05584(17)
H4 H -0.0883 0.2952 0.0610
C6 C 0.2141(15) 0.4096(12) 0.07232(17)
C7 C 0.2210(16) 0.4081(12) 0.09749(16)
C8 C 0.4203(15) 0.4781(12) 0.10747(16)
C9 C 0.4237(16) 0.4754(13) 0.13227(17)
C10 C 0.2258(16) 0.4019(13) 0.14109(17)
C11 C 0.2270(17) 0.3875(14) 0.16590(17)
H5 H 0.1056 0.3392 0.1746
C12 C 0.4289(17) 0.4532(13) 0.17596(18)
C13 C 0.5030(17) 0.4639(13) 0.20043(18)
C14 C 0.6937(18) 0.5409(14) 0.20996(19)
H6 H 0.8051 0.5977 0.2008
C15 C 0.7114(19) 0.5285(15) 0.2348(2)
H7 H 0.8357 0.5756 0.2440
C16 C 0.5325(19) 0.4424(16) 0.24425(19)
C17 C 0.498(2) 0.3960(17) 0.2696(2)
H8 H 0.6399 0.4237 0.2787
H9 H 0.4724 0.2665 0.2703
C18 C 0.301(2) 0.4892(17) 0.28184(19)
H10 H 0.1575 0.4636 0.2729
H11 H 0.3268 0.6189 0.2818
C19 C 0.276(2) 0.4299(17) 0.30726(18)
H12 H 0.2573 0.2995 0.3072
H13 H 0.4190 0.4589 0.3162
C20 C 0.077(2) 0.5142(18) 0.3201(2)
H14 H -0.0654 0.4901 0.3109
H15 H 0.0996 0.6443 0.3210
C21 C 0.054(2) 0.4436(16) 0.3448(2)
H16 H 0.1982 0.4680 0.3537
H17 H 0.0352 0.3133 0.3436
C22 C -0.143(2) 0.5208(19) 0.3588(2)
H18 H -0.1241 0.6511 0.3602
H19 H -0.2875 0.4966 0.3500
C23 C -0.162(2) 0.4473(18) 0.3833(2)
H20 H -0.1801 0.3170 0.3819
H21 H -0.0168 0.4714 0.3921
C24 C -0.355(2) 0.5215(17) 0.3974(2)
H22 H -0.4992 0.4976 0.3886
H23 H -0.3360 0.6518 0.3988
C25 C -0.375(2) 0.4484(19) 0.4220(2)
H24 H -0.2285 0.4678 0.4307
H25 H -0.4007 0.3188 0.4206
C26 C -0.566(2) 0.530(2) 0.4365(2)
H26 H -0.5408 0.6600 0.4380
H27 H -0.7131 0.5107 0.4280
C27 C -0.583(2) 0.456(2) 0.4610(3)
H28 H -0.4372 0.4780 0.4696
H29 H -0.6051 0.3261 0.4595
C28 C -0.779(3) 0.536(3) 0.4754(3)
H30 H -0.7623 0.6657 0.4764
H31 H -0.7749 0.4886 0.4913
H32 H -0.9257 0.5062 0.4676
S5 S 1.1125(4) 0.8338(3) 0.08690(4)
S6 S 0.5364(4) 1.0483(3) 0.11948(4)
S7 S 1.1168(4) 0.8665(3) 0.15522(4)
S8 S 0.8410(5) 1.0419(4) 0.22303(5)
C29 C 0.9215(16) 0.8928(12) 0.06431(17)
C30 C 0.9598(17) 0.8719(13) 0.04042(17)
H33 H 1.0962 0.8187 0.0350
C31 C 0.7938(18) 0.9307(14) 0.02457(18)
H34 H 0.8160 0.9162 0.0081
C32 C 0.5954(18) 1.0106(14) 0.03265(18)
H35 H 0.4857 1.0528 0.0216
C33 C 0.5556(16) 1.0297(12) 0.05664(17)
H36 H 0.4189 1.0833 0.0620
C34 C 0.7189(16) 0.9692(12) 0.07291(16)
C35 C 0.7273(17) 0.9756(12) 0.09831(17)
C36 C 0.9241(15) 0.9088(12) 0.10838(17)
C37 C 0.9255(15) 0.9162(13) 0.13283(17)
C38 C 0.7291(15) 0.9950(12) 0.14186(16)
C39 C 0.7324(17) 1.0116(13) 0.16686(17)
H37 H 0.6117 1.0605 0.1758
C40 C 0.9309(16) 0.9485(13) 0.17643(17)
C41 C 1.0044(17) 0.9452(14) 0.20107(18)
C42 C 1.1971(18) 0.8722(14) 0.21075(19)
H38 H 1.3103 0.8144 0.2017
C43 C 1.2113(19) 0.8908(16) 0.2352(2)
H39 H 1.3353 0.8464 0.2443
C44 C 1.035(2) 0.9767(16) 0.2447(2)
C45 C 1.001(2) 1.0332(18) 0.2703(2)
H40 H 1.1424 1.0066 0.2795
H41 H 0.9785 1.1632 0.2711
C46 C 0.801(2) 0.9442(17) 0.2820(2)
H42 H 0.6593 0.9695 0.2730
H43 H 0.8245 0.8142 0.2817
C47 C 0.777(2) 1.0095(18) 0.3073(2)
H44 H 0.7615 1.1402 0.3074
H45 H 0.9197 0.9816 0.3162
C48 C 0.578(2) 0.9322(18) 0.3203(2)
H46 H 0.5975 0.8023 0.3213
H47 H 0.4351 0.9543 0.3112
C49 C 0.556(2) 1.0128(17) 0.3454(2)
H48 H 0.7000 0.9929 0.3544
H49 H 0.5336 1.1424 0.3444
C50 C 0.360(2) 0.9349(17) 0.3590(2)
H50 H 0.3830 0.8056 0.3604
H51 H 0.2154 0.9531 0.3500
C51 C 0.339(2) 1.0192(17) 0.3837(2)
H52 H 0.3191 1.1487 0.3822
H53 H 0.4835 0.9996 0.3927
C52 C 0.139(2) 0.9448(18) 0.3979(2)
H54 H -0.0056 0.9662 0.3892
H55 H 0.1580 0.8151 0.3993
C53 C 0.127(2) 1.029(2) 0.4221(2)
H56 H 0.1055 1.1585 0.4207
H57 H 0.2735 1.0098 0.4307
C54 C -0.070(2) 0.952(2) 0.4365(2)
H58 H -0.2163 0.9712 0.4279
H59 H -0.0484 0.8224 0.4379
C55 C -0.083(2) 1.036(2) 0.4611(2)
H60 H 0.0642 1.0186 0.4695
H61 H -0.1070 1.1653 0.4596
C56 C -0.273(3) 0.960(3) 0.4755(3)
H62 H -0.4191 0.9758 0.4672
H63 H -0.2765 1.0216 0.4909
H64 H -0.2455 0.8334 0.4778
loop_
_geom_bond_atom_site_label_1
_geom_bond_atom_site_label_2
_geom_bond_site_symmetry_1
_geom_bond_site_symmetry_2
S1 C1 1_555 1_555
S2 C7 1_555 1_555
S3 C9 1_555 1_555
S4 C13 1_555 1_555
S5 C29 1_555 1_555
S6 C35 1_555 1_555
S7 C37 1_555 1_555
S8 C41 1_555 1_555
C1 C2 1_555 1_555
C2 H1 1_555 1_555
C3 C2 1_555 1_555
H2 C3 1_555 1_555
C4 C3 1_555 1_555
H3 C4 1_555 1_555
C5 C4 1_555 1_555
H4 C5 1_555 1_555
C6 C1 1_555 1_555
C7 C6 1_555 1_555
C8 S1 1_555 1_555
C9 C8 1_555 1_555
C10 S2 1_555 1_555
C11 C10 1_555 1_555
H5 C11 1_555 1_555
C12 S3 1_555 1_555
C13 C12 1_555 1_555
C14 C13 1_555 1_555
H6 C14 1_555 1_555
C15 C14 1_555 1_555
H7 C15 1_555 1_555
C16 S4 1_555 1_555
C17 C16 1_555 1_555
H8 C17 1_555 1_555
H9 C17 1_555 1_555
C18 C17 1_555 1_555
H10 C18 1_555 1_555
H11 C18 1_555 1_555
C19 C18 1_555 1_555
H12 C19 1_555 1_555
H13 C19 1_555 1_555
C20 C19 1_555 1_555
H14 C20 1_555 1_555
H15 C20 1_555 1_555
C21 C20 1_555 1_555
H16 C21 1_555 1_555
H17 C21 1_555 1_555
C22 C21 1_555 1_555
H18 C22 1_555 1_555
H19 C22 1_555 1_555
C23 C22 1_555 1_555
H20 C23 1_555 1_555
H21 C23 1_555 1_555
C24 C23 1_555 1_555
H22 C24 1_555 1_555
H23 C24 1_555 1_555
C25 C24 1_555 1_555
H24 C25 1_555 1_555
H25 C25 1_555 1_555
C26 C25 1_555 1_555
H26 C26 1_555 1_555
H27 C26 1_555 1_555
C27 C26 1_555 1_555
H28 C27 1_555 1_555
H29 C27 1_555 1_555
C28 C27 1_555 1_555
H30 C28 1_555 1_555
H31 C28 1_555 1_555
H32 C28 1_555 1_555
C29 C30 1_555 1_555
C30 H33 1_555 1_555
C31 C30 1_555 1_555
H34 C31 1_555 1_555
C32 C31 1_555 1_555
H35 C32 1_555 1_555
C33 C32 1_555 1_555
H36 C33 1_555 1_555
C34 C29 1_555 1_555
C35 C34 1_555 1_555
C36 S5 1_555 1_555
C37 C36 1_555 1_555
C38 S6 1_555 1_555
C39 C38 1_555 1_555
H37 C39 1_555 1_555
C40 S7 1_555 1_555
C41 C40 1_555 1_555
C42 C41 1_555 1_555
H38 C42 1_555 1_555
C43 C42 1_555 1_555
H39 C43 1_555 1_555
C44 S8 1_555 1_555
C45 C44 1_555 1_555
H40 C45 1_555 1_555
H41 C45 1_555 1_555
C46 C45 1_555 1_555
H42 C46 1_555 1_555
H43 C46 1_555 1_555
C47 C46 1_555 1_555
H44 C47 1_555 1_555
H45 C47 1_555 1_555
C48 C47 1_555 1_555
H46 C48 1_555 1_555
H47 C48 1_555 1_555
C49 C48 1_555 1_555
H48 C49 1_555 1_555
H49 C49 1_555 1_555
C50 C49 1_555 1_555
H50 C50 1_555 1_555
H51 C50 1_555 1_555
C51 C50 1_555 1_555
H52 C51 1_555 1_555
H53 C51 1_555 1_555
C52 C51 1_555 1_555
H54 C52 1_555 1_555
H55 C52 1_555 1_555
C53 C52 1_555 1_555
H56 C53 1_555 1_555
H57 C53 1_555 1_555
C54 C53 1_555 1_555
H58 C54 1_555 1_555
H59 C54 1_555 1_555
C55 C54 1_555 1_555
H60 C55 1_555 1_555
H61 C55 1_555 1_555
C56 C55 1_555 1_555
H62 C56 1_555 1_555
H63 C56 1_555 1_555
H64 C56 1_555 1_555
C5 C6 1_555 1_555
C7 C8 1_555 1_555
C9 C10 1_555 1_555
C11 C12 1_555 1_555
C15 C16 1_555 1_555
C33 C34 1_555 1_555
C35 C36 1_555 1_555
C37 C38 1_555 1_555
C39 C40 1_555 1_555
C43 C44 1_555 1_555

#END
