
#######################################################################
#
#                 Cambridge Crystallographic Data Centre
#                                CCDC 
#
#######################################################################
#
# If this CIF has been generated from an entry in the Cambridge 
# Structural Database, then it will include bibliographic, chemical, 
# crystal, experimental, refinement or atomic coordinate data resulting 
# from the CCDC's data processing and validation procedures.
#
#######################################################################

data_MAWGEY
_chemical_name_common            4-epi-Onchidiol
_chemical_formula_moiety         'C32 H46 O8'
_chemical_name_systematic        
2-((1S)-1-((2S,3S,4S,5S)-6-((1S)-1-(3,5-Dimethyl-4-oxo-6-((2R)-3-oxopentan-2-yl)-4H-pyran-2-yl)ethyl)-2,4-dihydroxy-3,5-dimethyltetrahydro-2H-pyran-2-yl)ethyl)-6-ethyl-3,5-dimethyl-4H-pyran-4-one
_symmetry_cell_setting           monoclinic
_symmetry_space_group_name_H-M   'P 21'
_symmetry_Int_Tables_number      4
_space_group_name_Hall           'P 2yb'
loop_
_symmetry_equiv_pos_site_id
_symmetry_equiv_pos_as_xyz
1 x,y,z
2 -x,1/2+y,-z
_cell_length_a                   9.8613(1)
_cell_length_b                   16.4161(2)
_cell_length_c                   10.2826(1)
_cell_angle_alpha                90
_cell_angle_beta                 117.56
_cell_angle_gamma                90
_cell_volume                     1475.7
_exptl_crystal_colour            pink
_exptl_crystal_description       block
_chemical_melting_point          '173-175 deg.C'
_cell_formula_units_Z            2
loop_
_atom_site_label
_atom_site_type_symbol
_atom_site_fract_x
_atom_site_fract_y
_atom_site_fract_z
O1 O 0.07372(12) 0.87593(7) 1.04396(12)
O2 O 0.21440(10) 0.86724(6) 0.79380(10)
O3 O -0.10647(12) 1.00876(7) 0.48602(11)
O4 O 0.44882(10) 0.80943(6) 0.69468(9)
O5 O 0.64780(11) 0.67037(7) 0.97508(10)
H1 H 0.5754 0.6543 0.9900
O6 O 0.64180(11) 0.83239(6) 0.93357(10)
H2 H 0.6571 0.7891 0.9818
O7 O 0.46357(11) 0.97901(6) 0.61739(10)
O8 O 0.57932(12) 1.13356(6) 0.95586(10)
C1 C 0.2496(2) 0.74627(12) 1.20795(19)
H3 H 0.1658 0.7178 1.1266
H4 H 0.2105 0.7726 1.2694
H5 H 0.3294 0.7071 1.2670
C2 C 0.31571(18) 0.80987(10) 1.14768(15)
H6 H 0.4060 0.8348 1.2301
H7 H 0.3512 0.7829 1.0827
C3 C 0.20454(15) 0.87611(9) 1.06295(13)
C4 C 0.25766(17) 0.94708(8) 0.99858(15)
H8 H 0.2222 0.9989 1.0242
C5 C 0.17268(16) 0.93799(8) 0.83450(14)
C6 C 0.06529(16) 0.98787(9) 0.73616(16)
C7 C -0.00824(16) 0.96475(9) 0.58140(16)
C8 C 0.03537(15) 0.88710(9) 0.54381(15)
C9 C 0.14685(16) 0.84216(8) 0.65150(14)
C10 C 0.20062(15) 0.75854(8) 0.63727(13)
H9 H 0.1787 0.7504 0.5330
C11 C 0.37281(14) 0.74771(8) 0.73572(12)
H10 H 0.3950 0.7575 0.8397
C12 C 0.43163(15) 0.66279(8) 0.72588(14)
H11 H 0.3858 0.6226 0.7674
C13 C 0.60585(15) 0.66218(8) 0.82193(13)
H12 H 0.6467 0.6092 0.8070
C14 C 0.68227(15) 0.73152(9) 0.78003(13)
H13 H 0.6584 0.7230 0.6753
C15 C 0.61064(16) 0.81380(8) 0.78862(14)
C16 C 0.66935(15) 0.88673(9) 0.73408(14)
H14 H 0.7810 0.8923 0.8027
C17 C 0.59378(15) 0.96458(8) 0.74470(14)
C18 C 0.64014(16) 1.01699(8) 0.85951(14)
C19 C 0.54668(15) 1.08756(8) 0.84857(14)
C20 C 0.41248(16) 1.10090(9) 0.70860(14)
C21 C 0.37788(15) 1.04582(9) 0.60030(13)
C22 C 0.24215(17) 1.05118(9) 0.45003(14)
H15 H 0.2452 1.1044 0.4061
H16 H 0.1475 1.0498 0.4609
C23 C 0.23383(18) 0.98375(10) 0.34480(15)
H17 H 0.2361 0.9306 0.3893
H18 H 0.3214 0.9882 0.3245
H19 H 0.1386 0.9890 0.2529
C24 C 0.42990(17) 0.95422(10) 1.05510(16)
H20 H 0.4523 1.0030 1.0135
H21 H 0.4674 0.9059 1.0257
H22 H 0.4807 0.9583 1.1623
C25 C 0.01266(19) 1.06555(10) 0.77742(19)
H23 H 0.0938 1.0861 0.8704
H24 H -0.0793 1.0546 0.7883
H25 H -0.0107 1.1064 0.7004
C26 C -0.05079(17) 0.85933(10) 0.38687(15)
H26 H -0.1551 0.8439 0.3653
H27 H 0.0013 0.8123 0.3716
H28 H -0.0546 0.9037 0.3215
C27 C 0.10909(16) 0.69476(9) 0.67479(16)
H29 H -0.0006 0.7057 0.6170
H30 H 0.1378 0.6979 0.7795
H31 H 0.1319 0.6402 0.6516
C28 C 0.39034(16) 0.63687(9) 0.56918(14)
H32 H 0.4533 0.5901 0.5718
H33 H 0.4092 0.6822 0.5177
H34 H 0.2820 0.6216 0.5176
C29 C 0.85628(16) 0.72844(9) 0.87183(16)
H35 H 0.8924 0.6729 0.8708
H36 H 0.8846 0.7444 0.9730
H37 H 0.9034 0.7660 0.8305
C30 C 0.65396(18) 0.87457(9) 0.57998(15)
H38 H 0.6815 0.9251 0.5473
H39 H 0.5481 0.8601 0.5119
H40 H 0.7224 0.8307 0.5823
C31 C 0.78222(16) 1.00590(9) 1.00318(15)
H41 H 0.8408 0.9594 0.9959
H42 H 0.7535 0.9958 1.0811
H43 H 0.8450 1.0553 1.0261
C32 C 0.31650(18) 1.17576(10) 0.68745(14)
H44 H 0.2326 1.1629 0.7100
H45 H 0.2743 1.1942 0.5855
H46 H 0.3800 1.2190 0.7531
loop_
_geom_bond_atom_site_label_1
_geom_bond_atom_site_label_2
_geom_bond_site_symmetry_1
_geom_bond_site_symmetry_2
O1 C3 1_555 1_555
O2 C5 1_555 1_555
O3 C7 1_555 1_555
O4 C11 1_555 1_555
O5 H1 1_555 1_555
O6 H2 1_555 1_555
O7 C17 1_555 1_555
O8 C19 1_555 1_555
C1 H3 1_555 1_555
H4 C1 1_555 1_555
H5 C1 1_555 1_555
C2 C1 1_555 1_555
H6 C2 1_555 1_555
H7 C2 1_555 1_555
C3 C2 1_555 1_555
C4 C3 1_555 1_555
H8 C4 1_555 1_555
C5 C4 1_555 1_555
C6 C5 1_555 1_555
C7 C6 1_555 1_555
C8 C7 1_555 1_555
C9 O2 1_555 1_555
C10 C9 1_555 1_555
H9 C10 1_555 1_555
C11 C10 1_555 1_555
H10 C11 1_555 1_555
C12 C11 1_555 1_555
H11 C12 1_555 1_555
C13 O5 1_555 1_555
H12 C13 1_555 1_555
C14 C13 1_555 1_555
H13 C14 1_555 1_555
C15 O4 1_555 1_555
C16 C15 1_555 1_555
H14 C16 1_555 1_555
C17 C16 1_555 1_555
C18 C17 1_555 1_555
C19 C18 1_555 1_555
C20 C19 1_555 1_555
C21 O7 1_555 1_555
C22 C21 1_555 1_555
H15 C22 1_555 1_555
H16 C22 1_555 1_555
C23 C22 1_555 1_555
H17 C23 1_555 1_555
H18 C23 1_555 1_555
H19 C23 1_555 1_555
C24 C4 1_555 1_555
H20 C24 1_555 1_555
H21 C24 1_555 1_555
H22 C24 1_555 1_555
C25 C6 1_555 1_555
H23 C25 1_555 1_555
H24 C25 1_555 1_555
H25 C25 1_555 1_555
C26 C8 1_555 1_555
H26 C26 1_555 1_555
H27 C26 1_555 1_555
H28 C26 1_555 1_555
C27 C10 1_555 1_555
H29 C27 1_555 1_555
H30 C27 1_555 1_555
H31 C27 1_555 1_555
C28 C12 1_555 1_555
H32 C28 1_555 1_555
H33 C28 1_555 1_555
H34 C28 1_555 1_555
C29 C14 1_555 1_555
H35 C29 1_555 1_555
H36 C29 1_555 1_555
H37 C29 1_555 1_555
C30 C16 1_555 1_555
H38 C30 1_555 1_555
H39 C30 1_555 1_555
H40 C30 1_555 1_555
C31 C18 1_555 1_555
H41 C31 1_555 1_555
H42 C31 1_555 1_555
H43 C31 1_555 1_555
C32 C20 1_555 1_555
H44 C32 1_555 1_555
H45 C32 1_555 1_555
H46 C32 1_555 1_555
O6 C15 1_555 1_555
C8 C9 1_555 1_555
C12 C13 1_555 1_555
C14 C15 1_555 1_555
C20 C21 1_555 1_555

#END
