
#######################################################################
#
#                 Cambridge Crystallographic Data Centre
#                                CCDC 
#
#######################################################################
#
# If this CIF has been generated from an entry in the Cambridge 
# Structural Database, then it will include bibliographic, chemical, 
# crystal, experimental, refinement or atomic coordinate data resulting 
# from the CCDC's data processing and validation procedures.
#
#######################################################################

data_MAWPIK
_chemical_formula_moiety         'C7 H7 O3 S1 1-,C22 H24 F6 N1 O1 1+'
_chemical_name_systematic        
'2-Phenyl-2-(3-(3,5-bis(trifluoromethyl)phenyl)-2-oxabutyl)piperidinium p-tosylate'
_symmetry_cell_setting           orthorhombic
_symmetry_space_group_name_H-M   'P 21 21 21'
_symmetry_Int_Tables_number      19
_space_group_name_Hall           'P 2ac 2ab'
loop_
_symmetry_equiv_pos_site_id
_symmetry_equiv_pos_as_xyz
1 x,y,z
2 -x,1/2+y,1/2-z
3 1/2+x,1/2-y,-z
4 1/2-x,-y,1/2+z
_cell_length_a                   9.843(1)
_cell_length_b                   32.748(4)
_cell_length_c                   9.246(1)
_cell_angle_alpha                90
_cell_angle_beta                 90
_cell_angle_gamma                90
_cell_volume                     2980.34
_exptl_crystal_colour            colorless
_exptl_crystal_description       block
_cell_formula_units_Z            4
loop_
_atom_site_label
_atom_site_type_symbol
_atom_site_fract_x
_atom_site_fract_y
_atom_site_fract_z
N1 N 0.0234(2) 0.2303(1) 0.3269(3)
C1 C -0.1064(3) 0.2057(1) 0.3094(4)
C2 C -0.2079(4) 0.2340(1) 0.2312(5)
C3 C -0.1529(5) 0.2497(1) 0.0867(5)
C4 C -0.0204(5) 0.2729(1) 0.1114(5)
C5 C 0.0809(4) 0.2461(1) 0.1885(4)
C6 C -0.1601(3) 0.1975(1) 0.4617(4)
O1 O -0.0559(2) 0.1789(1) 0.5437(3)
C7 C -0.1018(4) 0.1692(1) 0.6857(4)
C8 C 0.0244(5) 0.1630(2) 0.7796(5)
C9 C -0.0774(3) 0.1657(1) 0.2316(4)
C10 C 0.0486(4) 0.1479(1) 0.2274(5)
C11 C 0.0669(5) 0.1092(1) 0.1642(6)
C12 C -0.0399(5) 0.0887(1) 0.1074(5)
C13 C -0.1678(5) 0.1061(1) 0.1112(6)
C14 C -0.1853(4) 0.1438(1) 0.1722(5)
C15 C -0.1917(4) 0.1316(1) 0.6830(4)
C16 C -0.3102(4) 0.1298(1) 0.7649(4)
C17 C -0.3868(4) 0.0946(1) 0.7673(4)
C18 C -0.3504(5) 0.0613(1) 0.6871(5)
C19 C -0.2321(5) 0.0629(1) 0.6022(5)
C20 C -0.1557(4) 0.0980(1) 0.6003(5)
C21 C -0.5131(5) 0.0935(2) 0.8602(6)
F1 F -0.5830(5) 0.0590(2) 0.8342(7)
F2 F -0.5971(4) 0.1221(1) 0.8255(6)
F3 F -0.4864(5) 0.0934(3) 0.9892(5)
C22 C -0.1877(8) 0.0268(1) 0.5195(7)
F4 F -0.1498(10) 0.0341(1) 0.3949(6)
F5 F -0.0844(8) 0.0087(2) 0.5836(9)
F6 F -0.2855(9) -0.0008(2) 0.5052(8)
H1 H 0.0917 0.2128 0.3727
H2 H 0.0040 0.2536 0.3899
H3 H -0.2288 0.2591 0.2982
H4 H -0.2980 0.2177 0.2119
H5 H -0.2246 0.2693 0.0393
H6 H -0.1348 0.2249 0.0175
H7 H -0.0399 0.2989 0.1746
H8 H 0.0199 0.2819 0.0112
H9 H 0.1061 0.2213 0.1216
H10 H 0.1687 0.2632 0.2109
H11 H -0.2445 0.1779 0.4563
H12 H -0.1888 0.2251 0.5104
H13 H -0.1614 0.1929 0.7287
H14 H -0.0054 0.1558 0.8856
H15 H 0.0830 0.1390 0.7372
H16 H 0.0822 0.1899 0.7805
H17 H 0.1283 0.1626 0.2697
H18 H 0.1596 0.0967 0.1612
H19 H -0.0264 0.0612 0.0630
H20 H -0.2473 0.0912 0.0695
H21 H -0.2784 0.1560 0.1742
H22 H -0.3398 0.1541 0.8222
H23 H -0.4074 0.0360 0.6888
H24 H -0.0727 0.0993 0.5382
C23 C 0.3429(6) 0.0510(1) 0.4257(6)
C24 C 0.4415(7) 0.0668(2) 0.3431(7)
C25 C 0.4647(6) 0.1089(2) 0.3338(6)
C26 C 0.3844(3) 0.1347(1) 0.4107(4)
C27 C 0.2861(5) 0.1190(1) 0.4984(6)
C28 C 0.2656(6) 0.0773(2) 0.5035(8)
C29 C 0.3229(9) 0.0047(2) 0.4315(12)
S1 S 0.40847(8) 0.18810(3) 0.3999(1)
O2 O 0.5005(2) 0.1990(1) 0.5157(3)
O3 O 0.2759(2) 0.2059(1) 0.4252(4)
O4 O 0.4654(5) 0.1960(1) 0.2618(4)
H25 H 0.5006 0.0479 0.2861
H26 H 0.5393 0.1198 0.2714
H27 H 0.2290 0.1376 0.5589
H28 H 0.1916 0.0662 0.5664
H29 H 0.4116 -0.0108 0.4004
H30 H 0.2428 -0.0029 0.3616
H31 H 0.2967 -0.0033 0.5379
F7? F -0.6226(8) 0.0913(8) 0.8090(13)
F8? F -0.5123(10) 0.1259(3) 0.9656(11)
F9? F -0.5097(10) 0.0661(3) 0.9635(12)
F10? F -0.0690(11) 0.0280(3) 0.4599(20)
F11? F -0.2114(16) -0.0069(2) 0.5819(11)
F12? F -0.2576(16) 0.0221(5) 0.4020(14)
loop_
_geom_bond_atom_site_label_1
_geom_bond_atom_site_label_2
_geom_bond_site_symmetry_1
_geom_bond_site_symmetry_2
N1 C1 1_555 1_555
C1 C2 1_555 1_555
C2 C3 1_555 1_555
C3 C4 1_555 1_555
C4 C5 1_555 1_555
C5 N1 1_555 1_555
C6 C1 1_555 1_555
O1 C6 1_555 1_555
C7 O1 1_555 1_555
C8 C7 1_555 1_555
C9 C1 1_555 1_555
C10 C9 1_555 1_555
C11 C10 1_555 1_555
C12 C11 1_555 1_555
C13 C12 1_555 1_555
C14 C9 1_555 1_555
C15 C7 1_555 1_555
C16 C15 1_555 1_555
C17 C16 1_555 1_555
C18 C17 1_555 1_555
C19 C18 1_555 1_555
C20 C15 1_555 1_555
C21 C17 1_555 1_555
F1 C21 1_555 1_555
F2 C21 1_555 1_555
F3 C21 1_555 1_555
C22 C19 1_555 1_555
F4 C22 1_555 1_555
F5 C22 1_555 1_555
F6 C22 1_555 1_555
C23 C24 1_555 1_555
C24 C25 1_555 1_555
C25 C26 1_555 1_555
C26 C27 1_555 1_555
C27 C28 1_555 1_555
C28 C23 1_555 1_555
C29 C23 1_555 1_555
S1 C26 1_555 1_555
O2 S1 1_555 1_555
O3 S1 1_555 1_555
O4 S1 1_555 1_555
H1 N1 1_555 1_555
H2 N1 1_555 1_555
H3 C2 1_555 1_555
H4 C2 1_555 1_555
H5 C3 1_555 1_555
H6 C3 1_555 1_555
H7 C4 1_555 1_555
H8 C4 1_555 1_555
H9 C5 1_555 1_555
H10 C5 1_555 1_555
H11 C6 1_555 1_555
H12 C6 1_555 1_555
H13 C7 1_555 1_555
H14 C8 1_555 1_555
H15 C8 1_555 1_555
H16 C8 1_555 1_555
H17 C10 1_555 1_555
H18 C11 1_555 1_555
H19 C12 1_555 1_555
H20 C13 1_555 1_555
H21 C14 1_555 1_555
H22 C16 1_555 1_555
H23 C18 1_555 1_555
H24 C20 1_555 1_555
H25 C24 1_555 1_555
H26 C25 1_555 1_555
H27 C27 1_555 1_555
H28 C28 1_555 1_555
H29 C29 1_555 1_555
H30 C29 1_555 1_555
H31 C29 1_555 1_555
C13 C14 1_555 1_555
C19 C20 1_555 1_555

#END
