
#######################################################################
#
#                 Cambridge Crystallographic Data Centre
#                                CCDC 
#
#######################################################################
#
# If this CIF has been generated from an entry in the Cambridge 
# Structural Database, then it will include bibliographic, chemical, 
# crystal, experimental, refinement or atomic coordinate data resulting 
# from the CCDC's data processing and validation procedures.
#
#######################################################################

data_MAWWOZ
_chemical_formula_moiety         'C44 H56 B2 F4 N4'
_chemical_name_systematic        
(1,4-bis({5-[1-(3,5-dimethyl-2H-pyrrol-2-ylidene)octyl]-2,4-dimethyl-1H-pyrrolato-3-yl})buta-1,3-diyne)-tetrafluoro-di-boron
_symmetry_cell_setting           monoclinic
_symmetry_space_group_name_H-M   'C 2/c'
_symmetry_Int_Tables_number      15
_space_group_name_Hall           '-C 2yn'
loop_
_symmetry_equiv_pos_site_id
_symmetry_equiv_pos_as_xyz
1 x,y,z
2 -x,y,1/2-z
3 1/2+x,1/2+y,z
4 1/2-x,1/2+y,1/2-z
5 -x,-y,-z
6 x,-y,1/2+z
7 1/2-x,1/2-y,-z
8 1/2+x,1/2-y,1/2+z
_cell_length_a                   23.268(15)
_cell_length_b                   6.995(4)
_cell_length_c                   30.146(16)
_cell_angle_alpha                90
_cell_angle_beta                 121.650(19)
_cell_angle_gamma                90
_cell_volume                     4176.8
_exptl_crystal_colour            red
_exptl_crystal_description       block
_cell_formula_units_Z            4
_exptl_crystal_preparation       ', Luminescent'
loop_
_atom_site_label
_atom_site_type_symbol
_atom_site_fract_x
_atom_site_fract_y
_atom_site_fract_z
C1 C 0.1459(2) 0.3318(7) 0.12757(18)
N1 N 0.07720(19) 0.0924(5) 0.13631(15)
C2 C 0.1100(2) 0.1592(6) 0.11151(19)
C3 C 0.0460(2) -0.0758(7) 0.1139(2)
F1 F 0.10592(18) 0.0761(4) 0.22534(12)
N2 N 0.1161(2) 0.3748(5) 0.19226(15)
C4 C 0.0584(2) -0.1153(6) 0.07405(19)
F2 F 0.01075(16) 0.2287(5) 0.16717(13)
C5 C 0.1826(3) 0.6173(7) 0.1920(2)
C6 C 0.1203(3) 0.0262(8) 0.0350(2)
H1 H 0.1051 0.1401 0.0142
H2 H 0.1020 -0.0838 0.0129
H3 H 0.1687 0.0210 0.0538
C7 C 0.0126(3) -0.4204(7) 0.01533(19)
C8 C 0.2887(3) 0.3876(8) 0.0980(2)
H4 H 0.2608 0.3508 0.0616
H5 H 0.3314 0.3204 0.1126
C9 C 0.1814(3) 0.3983(7) 0.1015(2)
H6 H 0.1818 0.5370 0.1015
H7 H 0.1561 0.3565 0.0654
C10 C 0.1504(2) 0.4387(7) 0.16866(19)
C11 C 0.0334(2) -0.2821(7) 0.04228(19)
C12 C 0.0978(3) 0.0284(7) 0.07160(19)
C13 C 0.1673(3) 0.6512(7) 0.2285(2)
H8 H 0.1821 0.7572 0.2504
C14 C 0.1255(3) 0.5044(8) 0.2294(2)
C15 C 0.3018(3) 0.6021(8) 0.1011(2)
H9 H 0.2591 0.6686 0.0872
H10 H 0.3303 0.6378 0.1375
B1 B 0.0748(3) 0.1913(9) 0.1809(3)
C16 C 0.3351(3) 0.6694(8) 0.0722(2)
H11 H 0.3787 0.6076 0.0869
H12 H 0.3075 0.6304 0.0360
C17 C 0.3447(3) 0.8819(8) 0.0744(3)
H13 H 0.3014 0.9441 0.0609
H14 H 0.3739 0.9206 0.1105
C18 C 0.3749(4) 0.9462(11) 0.0437(3)
H15 H 0.4180 0.8858 0.0571
H16 H 0.3807 1.0825 0.0465
H17 H 0.3455 0.9117 0.0078
C19 C 0.0064(3) -0.1841(8) 0.1301(2)
H18 H -0.0386 -0.1333 0.1131
H19 H 0.0270 -0.1741 0.1672
H20 H 0.0047 -0.3159 0.1206
C20 C 0.0964(4) 0.4854(9) 0.2628(2)
H21 H 0.0480 0.4810 0.2413
H22 H 0.1097 0.5931 0.2859
H23 H 0.1126 0.3699 0.2829
C21 C 0.2255(3) 0.7422(7) 0.1820(2)
H24 H 0.2411 0.8478 0.2058
H25 H 0.1998 0.7893 0.1469
H26 H 0.2635 0.6708 0.1866
C22 C 0.2541(3) 0.3270(8) 0.1266(2)
H27 H 0.2801 0.3745 0.1621
H28 H 0.2541 0.1885 0.1282
C1D C -0.1459(2) -1.3318(7) -0.12757(18)
N1D N -0.07720(19) -1.0924(5) -0.13631(15)
C2D C -0.1100(2) -1.1592(6) -0.11151(19)
C3D C -0.0460(2) -0.9242(7) -0.1139(2)
F1D F -0.10592(18) -1.0761(4) -0.22534(12)
N2D N -0.1161(2) -1.3748(5) -0.19226(15)
C4D C -0.0584(2) -0.8847(6) -0.07405(19)
F2D F -0.01075(16) -1.2287(5) -0.16717(13)
C5D C -0.1826(3) -1.6173(7) -0.1920(2)
C6D C -0.1203(3) -1.0262(8) -0.0350(2)
H1D H -0.1051 -1.1401 -0.0142
H2D H -0.1020 -0.9162 -0.0129
H3D H -0.1687 -1.0210 -0.0538
C7D C -0.0126(3) -0.5796(7) -0.01533(19)
C8D C -0.2887(3) -1.3876(8) -0.0980(2)
H4D H -0.2608 -1.3508 -0.0616
H5D H -0.3314 -1.3204 -0.1126
C9D C -0.1814(3) -1.3983(7) -0.1015(2)
H6D H -0.1818 -1.5370 -0.1015
H7D H -0.1561 -1.3565 -0.0654
C10D C -0.1504(2) -1.4387(7) -0.16866(19)
C11D C -0.0334(2) -0.7179(7) -0.04228(19)
C12D C -0.0978(3) -1.0284(7) -0.07160(19)
C13D C -0.1673(3) -1.6512(7) -0.2285(2)
H8D H -0.1821 -1.7572 -0.2504
C14D C -0.1255(3) -1.5044(8) -0.2294(2)
C15D C -0.3018(3) -1.6021(8) -0.1011(2)
H9D H -0.2591 -1.6686 -0.0872
H10D H -0.3303 -1.6378 -0.1375
B1D B -0.0748(3) -1.1913(9) -0.1809(3)
C16D C -0.3351(3) -1.6694(8) -0.0722(2)
H11D H -0.3787 -1.6076 -0.0869
H12D H -0.3075 -1.6304 -0.0360
C17D C -0.3447(3) -1.8819(8) -0.0744(3)
H13D H -0.3014 -1.9441 -0.0609
H14D H -0.3739 -1.9206 -0.1105
C18D C -0.3749(4) -1.9462(11) -0.0437(3)
H15D H -0.4180 -1.8858 -0.0571
H16D H -0.3807 -2.0825 -0.0465
H17D H -0.3455 -1.9117 -0.0078
C19D C -0.0064(3) -0.8159(8) -0.1301(2)
H18D H 0.0386 -0.8667 -0.1131
H19D H -0.0270 -0.8259 -0.1672
H20D H -0.0047 -0.6841 -0.1206
C20D C -0.0964(4) -1.4854(9) -0.2628(2)
H21D H -0.0480 -1.4810 -0.2413
H22D H -0.1097 -1.5931 -0.2859
H23D H -0.1126 -1.3699 -0.2829
C21D C -0.2255(3) -1.7422(7) -0.1820(2)
H24D H -0.2411 -1.8478 -0.2058
H25D H -0.1998 -1.7893 -0.1469
H26D H -0.2635 -1.6708 -0.1866
C22D C -0.2541(3) -1.3270(8) -0.1266(2)
H27D H -0.2801 -1.3745 -0.1621
H28D H -0.2541 -1.1885 -0.1282
loop_
_geom_bond_atom_site_label_1
_geom_bond_atom_site_label_2
_geom_bond_site_symmetry_1
_geom_bond_site_symmetry_2
C1 C2 1_555 1_555
N1 C2 1_555 1_555
C2 C12 1_555 1_555
C3 N1 1_555 1_555
F1 B1 1_555 1_555
N2 C10 1_555 1_555
C4 C3 1_555 1_555
F2 B1 1_555 1_555
C5 C10 1_555 1_555
C6 H1 1_555 1_555
H2 C6 1_555 1_555
H3 C6 1_555 1_555
C7 C11 1_555 1_555
C8 H4 1_555 1_555
H5 C8 1_555 1_555
C9 C1 1_555 1_555
H6 C9 1_555 1_555
H7 C9 1_555 1_555
C10 C1 1_555 1_555
C11 C4 1_555 1_555
C12 C4 1_555 1_555
C13 C5 1_555 1_555
H8 C13 1_555 1_555
C14 N2 1_555 1_555
C15 C8 1_555 1_555
H9 C15 1_555 1_555
H10 C15 1_555 1_555
B1 N1 1_555 1_555
C16 C15 1_555 1_555
H11 C16 1_555 1_555
H12 C16 1_555 1_555
C17 C16 1_555 1_555
H13 C17 1_555 1_555
H14 C17 1_555 1_555
C18 C17 1_555 1_555
H15 C18 1_555 1_555
H16 C18 1_555 1_555
H17 C18 1_555 1_555
C19 C3 1_555 1_555
H18 C19 1_555 1_555
H19 C19 1_555 1_555
H20 C19 1_555 1_555
C20 C14 1_555 1_555
H21 C20 1_555 1_555
H22 C20 1_555 1_555
H23 C20 1_555 1_555
C21 C5 1_555 1_555
H24 C21 1_555 1_555
H25 C21 1_555 1_555
H26 C21 1_555 1_555
C22 C8 1_555 1_555
H27 C22 1_555 1_555
H28 C22 1_555 1_555
C1D C2D 1_555 1_555
N1D C2D 1_555 1_555
C2D C12D 1_555 1_555
C3D N1D 1_555 1_555
F1D B1D 1_555 1_555
N2D C10D 1_555 1_555
C4D C3D 1_555 1_555
F2D B1D 1_555 1_555
C5D C10D 1_555 1_555
C6D H1D 1_555 1_555
H2D C6D 1_555 1_555
H3D C6D 1_555 1_555
C7D C7 1_555 1_555
C8D H4D 1_555 1_555
H5D C8D 1_555 1_555
C9D C1D 1_555 1_555
H6D C9D 1_555 1_555
H7D C9D 1_555 1_555
C10D C1D 1_555 1_555
C11D C4D 1_555 1_555
C12D C4D 1_555 1_555
C13D C5D 1_555 1_555
H8D C13D 1_555 1_555
C14D N2D 1_555 1_555
C15D C8D 1_555 1_555
H9D C15D 1_555 1_555
H10D C15D 1_555 1_555
B1D N1D 1_555 1_555
C16D C15D 1_555 1_555
H11D C16D 1_555 1_555
H12D C16D 1_555 1_555
C17D C16D 1_555 1_555
H13D C17D 1_555 1_555
H14D C17D 1_555 1_555
C18D C17D 1_555 1_555
H15D C18D 1_555 1_555
H16D C18D 1_555 1_555
H17D C18D 1_555 1_555
C19D C3D 1_555 1_555
H18D C19D 1_555 1_555
H19D C19D 1_555 1_555
H20D C19D 1_555 1_555
C20D C14D 1_555 1_555
H21D C20D 1_555 1_555
H22D C20D 1_555 1_555
H23D C20D 1_555 1_555
C21D C5D 1_555 1_555
H24D C21D 1_555 1_555
H25D C21D 1_555 1_555
H26D C21D 1_555 1_555
C22D C8D 1_555 1_555
H27D C22D 1_555 1_555
H28D C22D 1_555 1_555
N2 B1 1_555 1_555
C6 C12 1_555 1_555
C9 C22 1_555 1_555
C13 C14 1_555 1_555
N2D B1D 1_555 1_555
C6D C12D 1_555 1_555
C7D C11D 1_555 1_555
C9D C22D 1_555 1_555
C13D C14D 1_555 1_555

#END
