
#######################################################################
#
#                 Cambridge Crystallographic Data Centre
#                                CCDC 
#
#######################################################################
#
# If this CIF has been generated from an entry in the Cambridge 
# Structural Database, then it will include bibliographic, chemical, 
# crystal, experimental, refinement or atomic coordinate data resulting 
# from the CCDC's data processing and validation procedures.
#
#######################################################################

data_MAWWAL
_chemical_formula_moiety         'C19 H18 O2 S1'
_chemical_name_systematic        
1,1'-[1-(methylsulfanyl)but-1-en-3-yne-1,4-diyl]bis(4-methoxybenzene)
_symmetry_cell_setting           triclinic
_symmetry_space_group_name_H-M   'P -1'
_symmetry_Int_Tables_number      2
_space_group_name_Hall           '-P 1'
loop_
_symmetry_equiv_pos_site_id
_symmetry_equiv_pos_as_xyz
1 x,y,z
2 -x,-y,-z
_cell_length_a                   9.863(2)
_cell_length_b                   9.882(2)
_cell_length_c                   17.791(4)
_cell_angle_alpha                82.745(3)
_cell_angle_beta                 76.730(3)
_cell_angle_gamma                82.008(3)
_cell_volume                     1663.3
_exptl_crystal_colour            colorless
_exptl_crystal_description       sheet
_cell_formula_units_Z            4
loop_
_atom_site_label
_atom_site_type_symbol
_atom_site_fract_x
_atom_site_fract_y
_atom_site_fract_z
S1 S 0.18520(6) 0.53787(6) 0.76342(3)
O1 O 0.36895(19) 0.68992(19) 0.26979(9)
O2 O 0.20932(18) 0.74268(17) 1.10431(8)
C1 C 0.3595(2) 0.6972(2) 0.34704(12)
C2 C 0.3412(3) 0.8267(2) 0.37055(13)
H1 H 0.3370 0.9037 0.3339
C3 C 0.3291(2) 0.8446(2) 0.44750(12)
H2 H 0.3168 0.9341 0.4625
C4 C 0.3345(2) 0.7332(2) 0.50349(11)
C5 C 0.3508(3) 0.6029(3) 0.47853(13)
H3 H 0.3520 0.5258 0.5153
C6 C 0.3652(3) 0.5832(3) 0.40142(14)
H4 H 0.3787 0.4940 0.3859
C7 C 0.3235(2) 0.7506(2) 0.58343(12)
C8 C 0.3141(2) 0.7621(2) 0.65068(13)
C9 C 0.3030(2) 0.7738(2) 0.73049(12)
H5 H 0.3401 0.8477 0.7441
C10 C 0.2416(2) 0.6842(2) 0.78857(11)
C11 C 0.23068(19) 0.70195(19) 0.87111(11)
C12 C 0.2531(2) 0.5890(2) 0.92538(12)
H6 H 0.2737 0.5002 0.9091
C13 C 0.2455(2) 0.6064(2) 1.00160(12)
H7 H 0.2606 0.5294 1.0368
C14 C 0.2158(2) 0.7366(2) 1.02738(11)
C15 C 0.1919(2) 0.8503(2) 0.97473(11)
H8 H 0.1712 0.9389 0.9914
C16 C 0.1990(2) 0.8320(2) 0.89784(11)
H9 H 0.1821 0.9088 0.8629
C17 C 0.3997(4) 0.5589(3) 0.24129(16)
H10 H 0.4883 0.5150 0.2523
H11 H 0.4060 0.5693 0.1857
H12 H 0.3258 0.5026 0.2664
C18 C 0.0199(3) 0.5241(3) 0.83183(15)
H13 H 0.0333 0.5251 0.8841
H14 H -0.0149 0.4388 0.8277
H15 H -0.0475 0.6009 0.8205
C19 C 0.1784(3) 0.8728(3) 1.13347(13)
H16 H 0.2472 0.9324 1.1051
H17 H 0.1813 0.8622 1.1881
H18 H 0.0856 0.9128 1.1273
S2 S 0.02522(6) 0.29577(7) 0.67476(3)
O3 O 0.28887(17) 0.2356(2) 1.10071(8)
O4 O 0.18954(17) 0.16891(19) 0.30100(8)
C20 C 0.3003(2) 0.2178(2) 1.02466(11)
C21 C 0.1746(2) 0.2322(2) 0.99966(13)
H19 H 0.0892 0.2531 1.0347
C22 C 0.1748(2) 0.2160(2) 0.92398(13)
H20 H 0.0892 0.2261 0.9080
C23 C 0.2991(2) 0.1851(2) 0.87056(11)
C24 C 0.4236(2) 0.1720(3) 0.89611(13)
H21 H 0.5091 0.1520 0.8609
C25 C 0.4250(2) 0.1878(3) 0.97220(13)
H22 H 0.5107 0.1782 0.9882
C26 C 0.2970(2) 0.1696(2) 0.79190(13)
C27 C 0.2891(3) 0.1609(2) 0.72658(13)
C28 C 0.2815(3) 0.1527(2) 0.64856(13)
H23 H 0.3557 0.1010 0.6175
C29 C 0.1751(2) 0.2138(2) 0.61609(11)
C30 C 0.1748(2) 0.2063(2) 0.53363(11)
C31 C 0.0552(2) 0.1826(2) 0.51033(12)
H24 H -0.0286 0.1763 0.5478
C32 C 0.0559(2) 0.1681(2) 0.43385(12)
H25 H -0.0256 0.1494 0.4200
C33 C 0.1776(2) 0.1813(2) 0.37824(11)
C34 C 0.2974(2) 0.2088(2) 0.39909(12)
H26 H 0.3795 0.2195 0.3608
C35 C 0.2967(2) 0.2204(2) 0.47526(12)
H27 H 0.3790 0.2381 0.4886
C36 C 0.4154(3) 0.2280(4) 1.12816(15)
H28 H 0.4660 0.1370 1.1232
H29 H 0.3927 0.2461 1.1822
H30 H 0.4733 0.2958 1.0977
C37 C -0.0059(3) 0.4543(3) 0.61612(18)
H31 H 0.0813 0.4945 0.5970
H32 H -0.0734 0.5175 0.6472
H33 H -0.0425 0.4365 0.5726
C38 C 0.0723(3) 0.1305(3) 0.27800(14)
H34 H 0.0533 0.0397 0.3025
H35 H 0.0929 0.1296 0.2221
H36 H -0.0091 0.1960 0.2938
loop_
_geom_bond_atom_site_label_1
_geom_bond_atom_site_label_2
_geom_bond_site_symmetry_1
_geom_bond_site_symmetry_2
S1 C10 1_555 1_555
O1 C1 1_555 1_555
O2 C14 1_555 1_555
C1 C2 1_555 1_555
C2 H1 1_555 1_555
C3 C2 1_555 1_555
H2 C3 1_555 1_555
C4 C3 1_555 1_555
C5 C4 1_555 1_555
H3 C5 1_555 1_555
C6 C1 1_555 1_555
H4 C6 1_555 1_555
C7 C4 1_555 1_555
C8 C7 1_555 1_555
C9 C8 1_555 1_555
H5 C9 1_555 1_555
C10 C9 1_555 1_555
C11 C10 1_555 1_555
C12 C11 1_555 1_555
H6 C12 1_555 1_555
C13 C12 1_555 1_555
H7 C13 1_555 1_555
C14 C13 1_555 1_555
C15 C14 1_555 1_555
H8 C15 1_555 1_555
C16 C11 1_555 1_555
H9 C16 1_555 1_555
C17 O1 1_555 1_555
H10 C17 1_555 1_555
H11 C17 1_555 1_555
H12 C17 1_555 1_555
C18 S1 1_555 1_555
H13 C18 1_555 1_555
H14 C18 1_555 1_555
H15 C18 1_555 1_555
C19 O2 1_555 1_555
H16 C19 1_555 1_555
H17 C19 1_555 1_555
H18 C19 1_555 1_555
S2 C29 1_555 1_555
O3 C20 1_555 1_555
O4 C33 1_555 1_555
C20 C21 1_555 1_555
C21 H19 1_555 1_555
C22 C21 1_555 1_555
H20 C22 1_555 1_555
C23 C22 1_555 1_555
C24 C23 1_555 1_555
H21 C24 1_555 1_555
C25 C20 1_555 1_555
H22 C25 1_555 1_555
C26 C23 1_555 1_555
C27 C26 1_555 1_555
C28 C27 1_555 1_555
H23 C28 1_555 1_555
C29 C28 1_555 1_555
C30 C29 1_555 1_555
C31 C30 1_555 1_555
H24 C31 1_555 1_555
C32 C31 1_555 1_555
H25 C32 1_555 1_555
C33 C32 1_555 1_555
C34 C33 1_555 1_555
H26 C34 1_555 1_555
C35 C30 1_555 1_555
H27 C35 1_555 1_555
C36 O3 1_555 1_555
H28 C36 1_555 1_555
H29 C36 1_555 1_555
H30 C36 1_555 1_555
C37 S2 1_555 1_555
H31 C37 1_555 1_555
H32 C37 1_555 1_555
H33 C37 1_555 1_555
C38 O4 1_555 1_555
H34 C38 1_555 1_555
H35 C38 1_555 1_555
H36 C38 1_555 1_555
C5 C6 1_555 1_555
C15 C16 1_555 1_555
C24 C25 1_555 1_555
C34 C35 1_555 1_555

#END
