
#######################################################################
#
#                 Cambridge Crystallographic Data Centre
#                                CCDC 
#
#######################################################################
#
# If this CIF has been generated from an entry in the Cambridge 
# Structural Database, then it will include bibliographic, chemical, 
# crystal, experimental, refinement or atomic coordinate data resulting 
# from the CCDC's data processing and validation procedures.
#
#######################################################################

data_MAWXAM
_chemical_formula_moiety         'C20 H27 B1 F2 I2 N2'
_chemical_name_systematic        
difluoro{3-iodo-5-[1-(4-iodo-3,5-dimethyl-2H-pyrrol-2-ylidene)octyl]-2,4-dimethyl-1H-pyrrolato}boron
_symmetry_cell_setting           orthorhombic
_symmetry_space_group_name_H-M   'P b c a'
_symmetry_Int_Tables_number      61
_space_group_name_Hall           '-P 2ac 2ab'
loop_
_symmetry_equiv_pos_site_id
_symmetry_equiv_pos_as_xyz
1 x,y,z
2 1/2-x,-y,1/2+z
3 -x,1/2+y,1/2-z
4 1/2+x,1/2-y,-z
5 -x,-y,-z
6 1/2+x,y,1/2-z
7 x,1/2-y,1/2+z
8 1/2-x,1/2+y,z
_cell_length_a                   8.4609(9)
_cell_length_b                   16.0863(17)
_cell_length_c                   32.951(3)
_cell_angle_alpha                90
_cell_angle_beta                 90
_cell_angle_gamma                90
_cell_volume                     4484.78
_exptl_crystal_colour            yellow
_exptl_crystal_description       block
_cell_formula_units_Z            8
_exptl_crystal_preparation       ', Luminescent'
loop_
_atom_site_label
_atom_site_type_symbol
_atom_site_fract_x
_atom_site_fract_y
_atom_site_fract_z
B1 B 0.0076(8) 0.6735(4) 0.3195(2)
C1 C 0.0404(7) 0.5954(3) 0.2520(2)
C2 C 0.0909(7) 0.5175(4) 0.23859(19)
C3 C 0.1265(7) 0.4686(3) 0.2713(2)
C4 C 0.0964(6) 0.5192(3) 0.30674(19)
C5 C 0.1156(6) 0.5042(3) 0.3478(2)
C6 C 0.0851(6) 0.5680(3) 0.37659(19)
C7 C 0.1005(7) 0.5704(4) 0.4200(2)
C8 C 0.0659(7) 0.6514(4) 0.43055(19)
C9 C 0.0276(7) 0.6967(4) 0.3964(2)
C10 C -0.0125(9) 0.6674(4) 0.2267(2)
H1 H -0.0997 0.6506 0.2100
H2 H 0.0732 0.6856 0.2098
H3 H -0.0451 0.7121 0.2441
C11 C 0.1859(11) 0.3804(4) 0.2688(2)
H4 H 0.1746 0.3604 0.2415
H5 H 0.1256 0.3459 0.2868
H6 H 0.2953 0.3788 0.2764
C12 C 0.1432(10) 0.5037(5) 0.4496(2)
H7 H 0.1180 0.5218 0.4766
H8 H 0.2544 0.4924 0.4478
H9 H 0.0848 0.4542 0.4434
C13 C -0.0198(9) 0.7861(4) 0.3933(3)
H10 H -0.0776 0.7948 0.3686
H11 H 0.0730 0.8204 0.3934
H12 H -0.0853 0.8004 0.4161
C14 C 0.1635(7) 0.4195(3) 0.36283(19)
H13 H 0.2261 0.4259 0.3873
H14 H 0.2298 0.3932 0.3425
C15 C 0.0239(7) 0.3630(3) 0.3719(2)
H15 H -0.0452 0.3904 0.3912
H16 H -0.0356 0.3542 0.3471
C16 C 0.0739(7) 0.2795(4) 0.3890(2)
H17 H 0.1374 0.2886 0.4130
H18 H 0.1397 0.2514 0.3691
C17 C -0.0642(7) 0.2232(4) 0.3999(2)
H19 H -0.1299 0.2515 0.4196
H20 H -0.1277 0.2143 0.3757
C18 C -0.0172(7) 0.1393(3) 0.41697(19)
H21 H 0.0483 0.1475 0.4408
H22 H 0.0448 0.1095 0.3970
C19 C -0.1617(8) 0.0871(4) 0.4285(2)
H23 H -0.2180 0.1147 0.4504
H24 H -0.2323 0.0838 0.4054
F1 F 0.1077(5) 0.7383(2) 0.30903(14)
F2 F -0.1477(5) 0.6978(3) 0.31411(13)
I1 I 0.11185(7) 0.48512(3) 0.177991(15)
I2 I 0.06934(8) 0.70086(4) 0.488646(17)
N1 N 0.0455(5) 0.5970(3) 0.29263(15)
N2 N 0.0388(5) 0.6466(3) 0.36365(15)
C20 C -0.1179(11) -0.0006(5) 0.4419(3)
H25 H -0.0620 -0.0282 0.4205
H26 H -0.2123 -0.0311 0.4482
H27 H -0.0518 0.0022 0.4656
loop_
_geom_bond_atom_site_label_1
_geom_bond_atom_site_label_2
_geom_bond_site_symmetry_1
_geom_bond_site_symmetry_2
B1 F1 1_555 1_555
C1 C2 1_555 1_555
C2 C3 1_555 1_555
C3 C4 1_555 1_555
C4 C5 1_555 1_555
C5 C6 1_555 1_555
C6 C7 1_555 1_555
C7 C8 1_555 1_555
C8 C9 1_555 1_555
C9 C13 1_555 1_555
C10 C1 1_555 1_555
H1 C10 1_555 1_555
H2 C10 1_555 1_555
H3 C10 1_555 1_555
C11 C3 1_555 1_555
H4 C11 1_555 1_555
H5 C11 1_555 1_555
H6 C11 1_555 1_555
C12 C7 1_555 1_555
H7 C12 1_555 1_555
H8 C12 1_555 1_555
H9 C12 1_555 1_555
C13 H10 1_555 1_555
H11 C13 1_555 1_555
H12 C13 1_555 1_555
C14 C5 1_555 1_555
H13 C14 1_555 1_555
H14 C14 1_555 1_555
C15 C14 1_555 1_555
H15 C15 1_555 1_555
H16 C15 1_555 1_555
C16 C15 1_555 1_555
H17 C16 1_555 1_555
H18 C16 1_555 1_555
C17 C16 1_555 1_555
H19 C17 1_555 1_555
H20 C17 1_555 1_555
C18 C17 1_555 1_555
H21 C18 1_555 1_555
H22 C18 1_555 1_555
C19 C18 1_555 1_555
H23 C19 1_555 1_555
H24 C19 1_555 1_555
F2 B1 1_555 1_555
I1 C2 1_555 1_555
I2 C8 1_555 1_555
N1 B1 1_555 1_555
N2 B1 1_555 1_555
C20 C19 1_555 1_555
H25 C20 1_555 1_555
H26 C20 1_555 1_555
H27 C20 1_555 1_555
C1 N1 1_555 1_555
C4 N1 1_555 1_555
C6 N2 1_555 1_555
C9 N2 1_555 1_555

#END
