
#######################################################################
#
#                 Cambridge Crystallographic Data Centre
#                                CCDC 
#
#######################################################################
#
# If this CIF has been generated from an entry in the Cambridge 
# Structural Database, then it will include bibliographic, chemical, 
# crystal, experimental, refinement or atomic coordinate data resulting 
# from the CCDC's data processing and validation procedures.
#
#######################################################################

data_MAXJUT
_chemical_formula_moiety         'C40 H42 N4 O6'
_chemical_name_systematic        
"di-t-butyl (1,1'-dibenzyl-2,2'-dioxo-1,1',2,2'-tetrahydro-3H,3'H-3,3'-biindole-3,3'-diyl)biscarbamate"
_symmetry_cell_setting           triclinic
_symmetry_space_group_name_H-M   'P -1'
_symmetry_Int_Tables_number      2
_space_group_name_Hall           '-P 1'
loop_
_symmetry_equiv_pos_site_id
_symmetry_equiv_pos_as_xyz
1 x,y,z
2 -x,-y,-z
_cell_length_a                   11.313(3)
_cell_length_b                   11.400(3)
_cell_length_c                   16.467(5)
_cell_angle_alpha                99.471(11)
_cell_angle_beta                 95.525(12)
_cell_angle_gamma                114.446(11)
_cell_volume                     1874.75
_exptl_crystal_colour            colorless
_exptl_crystal_description       bar
_cell_formula_units_Z            2
loop_
_atom_site_label
_atom_site_type_symbol
_atom_site_fract_x
_atom_site_fract_y
_atom_site_fract_z
N1 N 0.89654(11) 0.94258(12) 0.37017(7)
O1 O 0.79597(11) 0.48927(11) 0.15040(7)
O2 O 1.03553(11) 0.98746(12) 0.27619(7)
O3 O 0.78430(10) 0.64779(12) 0.00967(7)
N2 N 0.60801(11) 0.51998(12) 0.13549(7)
N3 N 0.98400(12) 0.70464(14) 0.27661(8)
H1 H 0.9763 0.6458 0.2338
C1 C 0.80705(13) 0.82909(15) 0.39278(8)
C2 C 0.74082(14) 0.56124(15) 0.15444(8)
O4 O 1.00185(11) 0.79276(13) 0.02419(7)
C3 C 0.79664(13) 0.71516(15) 0.34004(8)
O5 O 1.11174(12) 0.83103(14) 0.40163(7)
C4 C 0.88580(13) 0.75529(15) 0.27721(8)
C5 C 0.57852(13) 0.62968(14) 0.14276(8)
O6 O 1.15533(12) 0.67549(14) 0.32212(7)
N4 N 0.91069(12) 0.77232(13) 0.13487(7)
H2 H 0.9861 0.8349 0.1600
C6 C 0.69407(13) 0.74747(14) 0.17161(8)
C7 C 0.81060(13) 0.71544(14) 0.18385(8)
C8 C 0.74058(16) 0.82314(19) 0.45865(9)
H3 H 0.7469 0.8994 0.4933
C9 C 0.95194(13) 0.90941(15) 0.30650(9)
C10 C 0.86534(18) 1.14467(16) 0.37066(10)
C11 C 0.88919(14) 0.73006(16) 0.05101(9)
C12 C 0.93877(16) 1.08064(16) 0.41249(10)
H4 H 1.0325 1.1301 0.4136
H5 H 0.9253 1.0845 0.4700
C13 C 1.08711(15) 0.74547(18) 0.34015(10)
C14 C 0.45627(15) 0.62764(18) 0.12248(10)
H6 H 0.3798 0.5487 0.1042
C15 C 0.45160(15) 0.29448(16) 0.14911(11)
C16 C 0.51645(16) 0.38354(15) 0.09276(10)
H7 H 0.5643 0.3453 0.0605
H8 H 0.4480 0.3857 0.0536
C17 C 0.68881(17) 0.86749(16) 0.17836(10)
H9 H 0.7652 0.9466 0.1963
C18 C 0.72146(17) 0.59215(17) 0.35467(10)
H10 H 0.7161 0.5158 0.3207
C19 C 0.66372(18) 0.6989(2) 0.47141(11)
H11 H 0.6171 0.6923 0.5153
C20 C 1.01201(17) 0.7643(2) -0.06388(10)
C21 C 0.56672(19) 0.8672(2) 0.15768(12)
H12 H 0.5612 0.9471 0.1620
C22 C 0.65413(19) 0.5851(2) 0.42115(12)
H13 H 0.6024 0.5033 0.4318
C23 C 0.45338(18) 0.7496(2) 0.13078(12)
H14 H 0.3728 0.7522 0.1179
C24 C 0.42616(18) 0.3420(2) 0.22426(12)
H15 H 0.4524 0.4322 0.2427
C25 C 1.2697(2) 0.6914(2) 0.38036(13)
C26 C 0.7248(5) 1.2566(4) 0.29207(18)
H16 H 0.6775 1.2938 0.2653
C27 C 0.3468(2) 0.0742(3) 0.1720(3)
H17 H 0.3203 -0.0161 0.1539
C28 C 0.9307(3) 1.2539(2) 0.34013(15)
H18 H 1.0221 1.2905 0.3456
C29 C 0.4110(2) 0.1592(2) 0.12335(16)
H19 H 0.4274 0.1256 0.0725
C30 C 0.7300(2) 1.0939(2) 0.36126(15)
H20 H 0.6841 1.0197 0.3819
C31 C 0.3612(2) 0.2553(3) 0.27280(17)
H21 H 0.3440 0.2878 0.3236
C32 C 0.6612(3) 1.1500(3) 0.32231(18)
H22 H 0.5698 1.1137 0.3169
C33 C 1.1583(2) 0.8469(3) -0.06180(15)
H23 H 1.1804 0.9388 -0.0421
H24 H 1.1774 0.8328 -0.1172
H25 H 1.2095 0.8213 -0.0249
C34 C 0.9294(3) 0.8103(3) -0.11344(16)
H26 H 0.9570 0.9029 -0.0916
H27 H 0.8384 0.7617 -0.1097
H28 H 0.9395 0.7959 -0.1710
C35 C 1.3116(3) 0.5940(3) 0.33193(17)
H29 H 1.2407 0.5064 0.3205
H30 H 1.3878 0.5962 0.3646
H31 H 1.3328 0.6178 0.2801
C36 C 0.9735(3) 0.6197(3) -0.0944(2)
H32 H 0.8810 0.5699 -0.0952
H33 H 1.0234 0.5926 -0.0576
H34 H 0.9915 0.6040 -0.1499
C37 C 0.8592(5) 1.3109(3) 0.3005(2)
H35 H 0.9034 1.3856 0.2800
C38 C 0.3219(2) 0.1215(4) 0.2464(2)
H36 H 0.2786 0.0640 0.2793
C39 C 1.2218(3) 0.6448(3) 0.45649(16)
H37 H 1.1564 0.5544 0.4401
H38 H 1.1836 0.6988 0.4828
H39 H 1.2947 0.6515 0.4951
C40 C 1.3745(3) 0.8310(3) 0.4006(3)
H40 H 1.3424 0.8879 0.4307
H41 H 1.3965 0.8577 0.3496
H42 H 1.4517 0.8370 0.4343
loop_
_geom_bond_atom_site_label_1
_geom_bond_atom_site_label_2
_geom_bond_site_symmetry_1
_geom_bond_site_symmetry_2
N1 C1 1_555 1_555
O1 C2 1_555 1_555
O2 C9 1_555 1_555
O3 C11 1_555 1_555
N2 C2 1_555 1_555
N3 H1 1_555 1_555
C1 C3 1_555 1_555
C2 C7 1_555 1_555
O4 C11 1_555 1_555
C3 C4 1_555 1_555
O5 C13 1_555 1_555
C4 N3 1_555 1_555
C5 N2 1_555 1_555
O6 C13 1_555 1_555
N4 H2 1_555 1_555
C6 C5 1_555 1_555
C7 C4 1_555 1_555
C8 C1 1_555 1_555
H3 C8 1_555 1_555
C9 N1 1_555 1_555
C10 C12 1_555 1_555
C11 N4 1_555 1_555
C12 N1 1_555 1_555
H4 C12 1_555 1_555
H5 C12 1_555 1_555
C13 N3 1_555 1_555
C14 C5 1_555 1_555
H6 C14 1_555 1_555
C15 C16 1_555 1_555
C16 N2 1_555 1_555
H7 C16 1_555 1_555
H8 C16 1_555 1_555
C17 C6 1_555 1_555
H9 C17 1_555 1_555
C18 C3 1_555 1_555
H10 C18 1_555 1_555
C19 C8 1_555 1_555
H11 C19 1_555 1_555
C20 O4 1_555 1_555
C21 C17 1_555 1_555
H12 C21 1_555 1_555
C22 C18 1_555 1_555
H13 C22 1_555 1_555
C23 C14 1_555 1_555
H14 C23 1_555 1_555
C24 C15 1_555 1_555
H15 C24 1_555 1_555
C25 O6 1_555 1_555
C26 H16 1_555 1_555
C27 H17 1_555 1_555
C28 C10 1_555 1_555
H18 C28 1_555 1_555
C29 C15 1_555 1_555
H19 C29 1_555 1_555
C30 C10 1_555 1_555
H20 C30 1_555 1_555
C31 C24 1_555 1_555
H21 C31 1_555 1_555
C32 C26 1_555 1_555
H22 C32 1_555 1_555
C33 C20 1_555 1_555
H23 C33 1_555 1_555
H24 C33 1_555 1_555
H25 C33 1_555 1_555
C34 C20 1_555 1_555
H26 C34 1_555 1_555
H27 C34 1_555 1_555
H28 C34 1_555 1_555
C35 C25 1_555 1_555
H29 C35 1_555 1_555
H30 C35 1_555 1_555
H31 C35 1_555 1_555
C36 C20 1_555 1_555
H32 C36 1_555 1_555
H33 C36 1_555 1_555
H34 C36 1_555 1_555
C37 C26 1_555 1_555
H35 C37 1_555 1_555
C38 C27 1_555 1_555
H36 C38 1_555 1_555
C39 C25 1_555 1_555
H37 C39 1_555 1_555
H38 C39 1_555 1_555
H39 C39 1_555 1_555
C40 C25 1_555 1_555
H40 C40 1_555 1_555
H41 C40 1_555 1_555
H42 C40 1_555 1_555
C4 C9 1_555 1_555
N4 C7 1_555 1_555
C6 C7 1_555 1_555
C19 C22 1_555 1_555
C21 C23 1_555 1_555
C27 C29 1_555 1_555
C28 C37 1_555 1_555
C30 C32 1_555 1_555
C31 C38 1_555 1_555

#END
