
#######################################################################
#
#                 Cambridge Crystallographic Data Centre
#                                CCDC 
#
#######################################################################
#
# If this CIF has been generated from an entry in the Cambridge 
# Structural Database, then it will include bibliographic, chemical, 
# crystal, experimental, refinement or atomic coordinate data resulting 
# from the CCDC's data processing and validation procedures.
#
#######################################################################

data_MAXNOR
_chemical_formula_moiety         'C19 H15 Br1 N2 O3'
_chemical_name_systematic        
"3'-(4-bromophenyl)-1-methyl-2,5'-dioxo-1,2-dihydro-1'H-spiro[indole-3,2'-pyrrolidine]-1'-carbaldehyde unknown solvate"
_symmetry_cell_setting           rhombohedral
_symmetry_space_group_name_H-M   'R 3'
_symmetry_Int_Tables_number      146
_space_group_name_Hall           'R 3'
loop_
_symmetry_equiv_pos_site_id
_symmetry_equiv_pos_as_xyz
1 x,y,z
2 -y,x-y,z
3 -x+y,-x,z
4 2/3+x,1/3+y,1/3+z
5 2/3-y,1/3+x-y,1/3+z
6 2/3-x+y,1/3-x,1/3+z
7 1/3+x,2/3+y,2/3+z
8 1/3-y,2/3+x-y,2/3+z
9 1/3-x+y,2/3-x,2/3+z
_cell_length_a                   20.8688(6)
_cell_length_b                   20.8688(6)
_cell_length_c                   12.2249(4)
_cell_angle_alpha                90
_cell_angle_beta                 90
_cell_angle_gamma                120
_cell_volume                     4610.74
_exptl_crystal_colour            colorless
_exptl_crystal_description       block
_cell_formula_units_Z            9
loop_
_atom_site_label
_atom_site_type_symbol
_atom_site_fract_x
_atom_site_fract_y
_atom_site_fract_z
Br1 Br 0.15927(2) 0.35312(2) 0.68417(3)
N1 N -0.15458(15) 0.40381(15) 0.7436(2)
N2 N -0.05313(14) 0.59447(14) 0.7740(2)
C1 C -0.05746(17) 0.48169(17) 0.8534(3)
C2 C 0.0495(2) 0.39127(19) 0.6276(3)
H1 H 0.0271 0.3471 0.5885
C3 C 0.11404(18) 0.41255(19) 0.6860(3)
C4 C 0.1459(2) 0.4760(2) 0.7458(4)
H2 H 0.1886 0.4891 0.7859
O1 O -0.14629(14) 0.48223(15) 0.6054(2)
C5 C -0.11743(17) 0.41026(16) 0.8415(3)
O2 O -0.16931(16) 0.54325(18) 0.8418(3)
C6 C -0.1123(2) 0.5967(2) 0.8207(3)
H3 H -0.1069 0.6428 0.8365
C7 C 0.05087(16) 0.50313(16) 0.6852(2)
C8 C 0.1146(2) 0.5217(2) 0.7470(4)
H4 H 0.1362 0.5646 0.7890
C9 C 0.01695(16) 0.55218(17) 0.6795(3)
H5 H 0.0012 0.5509 0.6036
C10 C -0.2219(2) 0.3384(2) 0.7095(4)
H6 H -0.2100 0.3032 0.6790
H7 H -0.2465 0.3516 0.6553
H8 H -0.2538 0.3169 0.7716
C11 C 0.01917(17) 0.43702(18) 0.6288(3)
H9 H -0.0243 0.4226 0.5900
C12 C -0.05389(15) 0.52479(14) 0.7529(2)
C13 C 0.01331(18) 0.65758(17) 0.7483(3)
C14 C 0.06558(17) 0.63274(17) 0.7095(3)
H10 H 0.1000 0.6383 0.7669
H11 H 0.0934 0.6613 0.6464
C15 C -0.0124(2) 0.5012(2) 0.9439(3)
H12 H 0.0279 0.5486 0.9514
C16 C -0.0887(3) 0.3775(2) 1.0127(3)
H13 H -0.0991 0.3428 1.0676
C17 C -0.1343(2) 0.3568(2) 0.9208(3)
H14 H -0.1743 0.3092 0.9131
C18 C -0.12468(16) 0.46949(17) 0.6896(3)
C19 C -0.0293(3) 0.4470(3) 1.0247(3)
H15 H 0.0002 0.4586 1.0868
O3 O 0.02459(17) 0.72007(15) 0.7576(4)
loop_
_geom_bond_atom_site_label_1
_geom_bond_atom_site_label_2
_geom_bond_site_symmetry_1
_geom_bond_site_symmetry_2
Br1 C3 1_555 1_555
N1 C5 1_555 1_555
N2 C6 1_555 1_555
C1 C5 1_555 1_555
C2 H1 1_555 1_555
C3 C2 1_555 1_555
C4 C3 1_555 1_555
H2 C4 1_555 1_555
O1 C18 1_555 1_555
C5 C17 1_555 1_555
O2 C6 1_555 1_555
C6 H3 1_555 1_555
C7 C8 1_555 1_555
C8 C4 1_555 1_555
H4 C8 1_555 1_555
C9 C7 1_555 1_555
H5 C9 1_555 1_555
C10 N1 1_555 1_555
H6 C10 1_555 1_555
H7 C10 1_555 1_555
H8 C10 1_555 1_555
C11 C2 1_555 1_555
H9 C11 1_555 1_555
C12 N2 1_555 1_555
C13 N2 1_555 1_555
C14 C9 1_555 1_555
H10 C14 1_555 1_555
H11 C14 1_555 1_555
C15 C1 1_555 1_555
H12 C15 1_555 1_555
C16 H13 1_555 1_555
C17 C16 1_555 1_555
H14 C17 1_555 1_555
C18 N1 1_555 1_555
C19 C15 1_555 1_555
H15 C19 1_555 1_555
O3 C13 1_555 1_555
C1 C12 1_555 1_555
C7 C11 1_555 1_555
C9 C12 1_555 1_555
C12 C18 1_555 1_555
C13 C14 1_555 1_555
C16 C19 1_555 1_555

#END
