
#######################################################################
#
#                 Cambridge Crystallographic Data Centre
#                                CCDC 
#
#######################################################################
#
# If this CIF has been generated from an entry in the Cambridge 
# Structural Database, then it will include bibliographic, chemical, 
# crystal, experimental, refinement or atomic coordinate data resulting 
# from the CCDC's data processing and validation procedures.
#
#######################################################################

data_MAXQAG
_chemical_formula_moiety         'C22 H24 O4'
_chemical_name_systematic        '(E)-diethyl 2-(1,3-diphenylallyl)malonate'
_symmetry_cell_setting           orthorhombic
_symmetry_space_group_name_H-M   'P 21 21 21'
_symmetry_Int_Tables_number      19
_space_group_name_Hall           'P 2ac 2ab'
loop_
_symmetry_equiv_pos_site_id
_symmetry_equiv_pos_as_xyz
1 x,y,z
2 1/2-x,-y,1/2+z
3 -x,1/2+y,1/2-z
4 1/2+x,1/2-y,-z
_cell_length_a                   8.4622(7)
_cell_length_b                   9.6850(8)
_cell_length_c                   22.9564(19)
_cell_angle_alpha                90
_cell_angle_beta                 90
_cell_angle_gamma                90
_cell_volume                     1881.42
_exptl_crystal_colour            colorless
_exptl_crystal_description       block
_chemical_melting_point          '320.15 K'
_cell_formula_units_Z            4
_exptl_crystal_recrystallization_method 'ethyl acetate/Petroleum ether'
loop_
_atom_site_label
_atom_site_type_symbol
_atom_site_fract_x
_atom_site_fract_y
_atom_site_fract_z
O1 O 0.49564(15) 0.59222(13) 0.09186(5)
O2 O 0.44489(13) 0.80929(11) 0.12115(4)
O3 O 0.61677(14) 0.81052(11) 0.23958(5)
O4 O 0.68487(12) 0.58658(10) 0.24653(4)
C1 C 0.45339(16) 0.63643(13) 0.19390(6)
H1 H 0.452362 0.533444 0.197032
C2 C 0.29826(15) 0.69266(14) 0.22108(5)
H2 H 0.302143 0.795856 0.220775
C3 C 0.28387(16) 0.64420(14) 0.28332(6)
H3 H 0.259985 0.549670 0.289979
C4 C 0.30261(17) 0.72586(14) 0.32951(6)
H4 H 0.328254 0.819908 0.322515
C5 C 0.28655(16) 0.68131(14) 0.39080(6)
C6 C 0.36879(19) 0.75124(16) 0.43466(6)
H5 H 0.433556 0.827934 0.424878
C7 C 0.3566(2) 0.70942(18) 0.49253(7)
H6 H 0.415128 0.756387 0.521751
C8 C 0.2599(2) 0.60012(18) 0.50783(6)
H7 H 0.251780 0.572279 0.547394
C9 C 0.17487(18) 0.53128(17) 0.46497(6)
H8 H 0.107104 0.456989 0.475276
C10 C 0.18893(18) 0.57121(15) 0.40685(6)
H9 H 0.131382 0.522923 0.377733
C11 C 0.59337(15) 0.69081(15) 0.22877(6)
C12 C 0.81673(17) 0.62373(16) 0.28419(6)
H10 H 0.860292 0.714178 0.272117
H11 H 0.901529 0.553802 0.280656
C13 C 0.7611(2) 0.63147(19) 0.34657(7)
H12 H 0.685135 0.707199 0.350684
H13 H 0.851810 0.648044 0.372180
H14 H 0.710329 0.544195 0.357338
C14 C 0.46803(15) 0.67481(15) 0.12984(6)
C15 C 0.4441(2) 0.85677(19) 0.06076(6)
H15 H 0.520413 0.801965 0.037663
H16 H 0.476816 0.954840 0.059142
C16 C 0.2805(2) 0.8413(2) 0.03520(7)
H17 H 0.280177 0.876223 -0.004875
H18 H 0.204913 0.894160 0.058628
H19 H 0.250396 0.743642 0.035257
C17 C 0.15673(15) 0.64585(14) 0.18538(6)
C18 C 0.13047(17) 0.50525(15) 0.17551(6)
H20 H 0.202435 0.439136 0.190703
C19 C -0.00005(18) 0.46123(16) 0.14365(7)
H21 H -0.015870 0.365407 0.137002
C20 C -0.10707(18) 0.55588(16) 0.12156(6)
H22 H -0.196727 0.525370 0.100239
C21 C -0.08207(18) 0.69554(18) 0.13088(7)
H23 H -0.154430 0.761300 0.115672
C22 C 0.04919(18) 0.73970(14) 0.16255(6)
H24 H 0.065327 0.835703 0.168614
loop_
_geom_bond_atom_site_label_1
_geom_bond_atom_site_label_2
_geom_bond_site_symmetry_1
_geom_bond_site_symmetry_2
O1 C14 1_555 1_555
O2 C14 1_555 1_555
O3 C11 1_555 1_555
O4 C11 1_555 1_555
C1 H1 1_555 1_555
C2 C1 1_555 1_555
H2 C2 1_555 1_555
C3 C2 1_555 1_555
H3 C3 1_555 1_555
C4 C3 1_555 1_555
H4 C4 1_555 1_555
C5 C4 1_555 1_555
C6 C5 1_555 1_555
H5 C6 1_555 1_555
C7 C6 1_555 1_555
H6 C7 1_555 1_555
C8 C7 1_555 1_555
H7 C8 1_555 1_555
C9 C8 1_555 1_555
H8 C9 1_555 1_555
C10 C5 1_555 1_555
H9 C10 1_555 1_555
C11 C1 1_555 1_555
C12 O4 1_555 1_555
H10 C12 1_555 1_555
H11 C12 1_555 1_555
C13 C12 1_555 1_555
H12 C13 1_555 1_555
H13 C13 1_555 1_555
H14 C13 1_555 1_555
C14 C1 1_555 1_555
C15 O2 1_555 1_555
H15 C15 1_555 1_555
H16 C15 1_555 1_555
C16 C15 1_555 1_555
H17 C16 1_555 1_555
H18 C16 1_555 1_555
H19 C16 1_555 1_555
C17 C2 1_555 1_555
C18 C17 1_555 1_555
H20 C18 1_555 1_555
C19 C18 1_555 1_555
H21 C19 1_555 1_555
C20 C19 1_555 1_555
H22 C20 1_555 1_555
C21 C20 1_555 1_555
H23 C21 1_555 1_555
C22 C17 1_555 1_555
H24 C22 1_555 1_555
C9 C10 1_555 1_555
C21 C22 1_555 1_555

#END
