
#######################################################################
#
#                 Cambridge Crystallographic Data Centre
#                                CCDC 
#
#######################################################################
#
# If this CIF has been generated from an entry in the Cambridge 
# Structural Database, then it will include bibliographic, chemical, 
# crystal, experimental, refinement or atomic coordinate data resulting 
# from the CCDC's data processing and validation procedures.
#
#######################################################################

data_MAXSEL
_chemical_formula_moiety         '0.5(C12 H9 N1),C6 F4 I2'
_chemical_name_systematic        
'1,2,4,5-Tetrafluoro-3,6-diiodobenzene hemikis(9H-carbazole)'
_symmetry_cell_setting           triclinic
_symmetry_space_group_name_H-M   'P -1'
_symmetry_Int_Tables_number      2
_space_group_name_Hall           '-P 1'
loop_
_symmetry_equiv_pos_site_id
_symmetry_equiv_pos_as_xyz
1 x,y,z
2 -x,-y,-z
_cell_length_a                   5.9625(11)
_cell_length_b                   9.3712(18)
_cell_length_c                   12.051(2)
_cell_angle_alpha                75.207(3)
_cell_angle_beta                 88.706(3)
_cell_angle_gamma                80.057(3)
_cell_volume                     641.098
_cell_formula_units_Z            2
loop_
_atom_site_label
_atom_site_type_symbol
_atom_site_fract_x
_atom_site_fract_y
_atom_site_fract_z
C7 C 0.6394(9) 1.1073(6) 0.9358(6)
C8 C 0.6975(12) 1.2463(7) 0.8847(7)
H1 H 0.8390 1.2521 0.8474
C9 C 0.5488(14) 1.3766(6) 0.8882(6)
H2 H 0.5885 1.4716 0.8532
C10 C 0.3418(13) 1.3681(5) 0.9428(5)
H3 H 0.2402 1.4572 0.9451
C11 C 0.2837(10) 1.2291(5) 0.9939(5)
H4 H 0.1423 1.2233 1.0312
C12 C 0.4325(8) 1.0987(5) 0.9904(4)
C13 C 0.5554(9) 1.0654(5) 0.9693(4)
C14 C 0.7118(10) 1.1470(6) 0.9076(5)
H5 H 0.8510 1.0964 0.8856
C15 C 0.6646(14) 1.3027(6) 0.8781(5)
H6 H 0.7715 1.3585 0.8359
C16 C 0.4609(15) 1.3768(5) 0.9103(6)
H7 H 0.4286 1.4832 0.8901
C17 C 0.3045(13) 1.2951(6) 0.9720(7)
H8 H 0.1653 1.3458 0.9940
C18 C 0.3518(10) 1.1394(6) 1.0015(6)
N1 N 0.7734(17) 0.9699(13) 0.9401(8)
C7A C 0.3606(9) 0.8927(6) 1.0642(6)
C8A C 0.3025(12) 0.7537(7) 1.1153(7)
H1A H 0.1610 0.7479 1.1526
C9A C 0.4512(14) 0.6234(6) 1.1118(6)
H2A H 0.4115 0.5284 1.1468
C10A C 0.6582(13) 0.6319(5) 1.0572(5)
H3A H 0.7598 0.5428 1.0549
C11A C 0.7163(10) 0.7709(5) 1.0061(5)
H4A H 0.8577 0.7767 0.9688
C12A C 0.5675(8) 0.9013(5) 1.0096(4)
C13A C 0.4446(9) 0.9346(5) 1.0307(4)
C14A C 0.2882(10) 0.8530(6) 1.0924(5)
H5A H 0.1490 0.9036 1.1144
C15A C 0.3354(14) 0.6973(6) 1.1219(5)
H6A H 0.2285 0.6415 1.1641
C16A C 0.5391(15) 0.6232(5) 1.0897(6)
H7A H 0.5714 0.5168 1.1099
C17A C 0.6955(13) 0.7049(6) 1.0280(7)
H8A H 0.8347 0.6542 1.0060
C18A C 0.6482(10) 0.8606(6) 0.9985(6)
N1A N 0.2266(17) 1.0301(13) 1.0599(8)
C1 C 0.8878(9) 0.7210(6) 0.4758(4)
C2 C 1.0618(9) 0.8036(6) 0.4501(4)
C3 C 1.1798(9) 0.8335(6) 0.5370(5)
C4 C 1.1287(9) 0.7837(6) 0.6513(4)
C5 C 0.9560(9) 0.7010(7) 0.6751(5)
C6 C 0.8364(9) 0.6691(6) 0.5906(5)
F1 F 1.1195(5) 0.8576(4) 0.3419(3)
F2 F 1.3461(5) 0.9164(4) 0.5075(3)
F3 F 0.9025(6) 0.6433(4) 0.7858(3)
F4 F 0.6722(6) 0.5865(4) 0.6196(3)
I1 I 0.70851(6) 0.67927(4) 0.34481(3)
I2 I 1.30852(6) 0.82892(4) 0.78062(3)
loop_
_geom_bond_atom_site_label_1
_geom_bond_atom_site_label_2
_geom_bond_site_symmetry_1
_geom_bond_site_symmetry_2
C1 C2 1_555 1_555
C2 C3 1_555 1_555
C3 C4 1_555 1_555
C4 C5 1_555 1_555
C5 C6 1_555 1_555
C6 C1 1_555 1_555
C7 C8 1_555 1_555
C8 H1 1_555 1_555
H1 C15 1_555 1_555
C9 C8 1_555 1_555
H2 C9 1_555 1_555
C10 C9 1_555 1_555
H3 C10 1_555 1_555
C11 C10 1_555 1_555
H4 C11 1_555 1_555
C12 C7 1_555 1_555
C13 C7 1_555 1_555
C14 C7 1_555 1_555
H5 C14 1_555 1_555
C15 C8 1_555 1_555
H6 C8 1_555 1_555
C16 C9 1_555 1_555
H7 C9 1_555 1_555
C17 C10 1_555 1_555
H8 C10 1_555 1_555
C18 C11 1_555 1_555
F1 C2 1_555 1_555
F2 C3 1_555 1_555
F3 C5 1_555 1_555
F4 C6 1_555 1_555
I1 C1 1_555 1_555
I2 C4 1_555 1_555
N1 C7 1_555 1_555
C7A C8A 1_555 1_555
C8A H1A 1_555 1_555
H1A C15A 1_555 1_555
C9A C8A 1_555 1_555
H2A C9A 1_555 1_555
C10A C9A 1_555 1_555
H3A C10A 1_555 1_555
C11A C10A 1_555 1_555
H4A C11A 1_555 1_555
C12A C13 1_555 1_555
C13A C12 1_555 1_555
C14A C7A 1_555 1_555
H5A C14A 1_555 1_555
C15A C8A 1_555 1_555
H6A C8A 1_555 1_555
C16A C9A 1_555 1_555
H7A C9A 1_555 1_555
C17A C10A 1_555 1_555
H8A C10A 1_555 1_555
C18A N1 1_555 1_555
N1A C12 1_555 1_555
C8 C14 1_555 1_555
C9 C15 1_555 1_555
C10 C16 1_555 1_555
C10 H7 1_555 1_555
C11 C12 1_555 1_555
C11 C17 1_555 1_555
C11 H8 1_555 1_555
C12 C13 1_555 1_555
C12 C18 1_555 1_555
C13 C14 1_555 1_555
C13 C18 1_555 1_555
C13 N1 1_555 1_555
C13 C13A 1_555 1_555
C14 C15 1_555 1_555
C14 N1 1_555 1_555
C15 H6 1_555 1_555
C15 C16 1_555 1_555
C16 H7 1_555 1_555
C16 C17 1_555 1_555
C17 H8 1_555 1_555
C17 C18 1_555 1_555
C18 N1A 1_555 1_555
N1 C12A 1_555 1_555
C7A C12A 1_555 1_555
C7A C13A 1_555 1_555
C7A N1A 1_555 1_555
C8A C14A 1_555 1_555
C9A C15A 1_555 1_555
C10A C16A 1_555 1_555
C10A H7A 1_555 1_555
C11A C12A 1_555 1_555
C11A C17A 1_555 1_555
C11A H8A 1_555 1_555
C11A C18A 1_555 1_555
C12A C13A 1_555 1_555
C12A C18A 1_555 1_555
C13A C14A 1_555 1_555
C13A C18A 1_555 1_555
C13A N1A 1_555 1_555
C14A C15A 1_555 1_555
C14A N1A 1_555 1_555
C15A H6A 1_555 1_555
C15A C16A 1_555 1_555
C16A H7A 1_555 1_555
C16A C17A 1_555 1_555
C17A H8A 1_555 1_555
C17A C18A 1_555 1_555

#END
