
#######################################################################
#
#                 Cambridge Crystallographic Data Centre
#                                CCDC 
#
#######################################################################
#
# If this CIF has been generated from an entry in the Cambridge 
# Structural Database, then it will include bibliographic, chemical, 
# crystal, experimental, refinement or atomic coordinate data resulting 
# from the CCDC's data processing and validation procedures.
#
#######################################################################

data_MAXWEQ
_chemical_formula_moiety         'C31 H27 N1 O2 S1'
_chemical_name_systematic        
1-((4-methylphenyl)sulfonyl)-5-phenyl-3-(1-phenylethylidene)-2,3-dihydro-1H-1-benzazepine
_symmetry_cell_setting           triclinic
_symmetry_space_group_name_H-M   'P -1'
_symmetry_Int_Tables_number      2
_space_group_name_Hall           '-P 1'
loop_
_symmetry_equiv_pos_site_id
_symmetry_equiv_pos_as_xyz
1 x,y,z
2 -x,-y,-z
_cell_length_a                   10.213(3)
_cell_length_b                   10.955(4)
_cell_length_c                   11.821(4)
_cell_angle_alpha                97.369(5)
_cell_angle_beta                 108.277(5)
_cell_angle_gamma                92.549(6)
_cell_volume                     1240.43
_exptl_crystal_colour            colorless
_exptl_crystal_description       block
_cell_formula_units_Z            2
loop_
_atom_site_label
_atom_site_type_symbol
_atom_site_fract_x
_atom_site_fract_y
_atom_site_fract_z
S1 S -0.00664(5) 0.93034(5) 0.79783(5)
N1 N 0.13892(16) 0.91938(14) 0.90350(14)
O1 O -0.00880(15) 1.05875(14) 0.78514(14)
O2 O -0.11644(15) 0.86865(16) 0.82588(15)
C1 C 0.0429(3) 0.6388(2) 0.3416(2)
H1 H 0.1316 0.6061 0.3612
H2 H 0.0359 0.6922 0.2820
H3 H -0.0289 0.5721 0.3103
C2 C 0.0272(2) 0.7115(2) 0.45378(18)
C3 C -0.0423(2) 0.6585(2) 0.5221(2)
H4 H -0.0822 0.5776 0.4971
C4 C -0.0535(2) 0.7237(2) 0.62676(19)
H5 H -0.0989 0.6865 0.6721
C5 C 0.00390(19) 0.84521(18) 0.66303(17)
C6 C 0.0718(2) 0.90016(19) 0.59582(18)
H6 H 0.1098 0.9817 0.6199
C7 C 0.0829(2) 0.8329(2) 0.49217(19)
H7 H 0.1290 0.8703 0.4473
C8 C 0.1750(2) 0.80036(17) 0.93594(16)
C9 C 0.1040(3) 0.7445(2) 1.00220(19)
H8 H 0.0323 0.7828 1.0208
C10 C 0.1394(3) 0.6333(2) 1.0402(2)
H9 H 0.0901 0.5953 1.0822
C11 C 0.2483(3) 0.5785(2) 1.0156(2)
H10 H 0.2742 0.5046 1.0432
C12 C 0.3189(3) 0.63301(19) 0.9503(2)
H11 H 0.3923 0.5947 0.9349
C13 C 0.2838(2) 0.74473(17) 0.90619(17)
C14 C 0.35975(19) 0.79386(16) 0.82978(16)
C15 C 0.37499(19) 0.91049(17) 0.80682(16)
H12 H 0.4250 0.9187 0.7542
C16 C 0.32755(19) 1.02610(16) 0.84931(16)
C17 C 0.2529(2) 1.02021(17) 0.94032(17)
H13 H 0.3190 1.0084 1.0166
H14 H 0.2150 1.0986 0.9527
C18 C 0.4274(2) 0.69800(16) 0.76955(16)
C19 C 0.5683(2) 0.70970(18) 0.78795(19)
H15 H 0.6219 0.7797 0.8358
C20 C 0.6308(2) 0.6185(2) 0.7360(2)
H16 H 0.7258 0.6272 0.7504
C21 C 0.5527(3) 0.5154(2) 0.6635(2)
H17 H 0.5947 0.4540 0.6293
C22 C 0.4126(3) 0.5038(2) 0.6421(2)
H18 H 0.3593 0.4349 0.5918
C23 C 0.3497(2) 0.59306(19) 0.6943(2)
H19 H 0.2546 0.5834 0.6793
C24 C 0.34757(19) 1.13185(17) 0.80698(17)
C25 C 0.4203(2) 1.13931(16) 0.71496(17)
C26 C 0.5622(2) 1.1394(2) 0.7454(2)
H20 H 0.6142 1.1308 0.8236
C27 C 0.6285(2) 1.1521(2) 0.6611(2)
H21 H 0.7243 1.1522 0.6831
C28 C 0.5530(3) 1.1646(2) 0.5447(2)
H22 H 0.5975 1.1729 0.4881
C29 C 0.4115(2) 1.1646(2) 0.5128(2)
H23 H 0.3600 1.1728 0.4343
C30 C 0.3457(2) 1.15244(18) 0.59733(19)
H24 H 0.2499 1.1531 0.5750
C31 C 0.2982(3) 1.25414(19) 0.8449(2)
H25 H 0.2266 1.2396 0.8795
H26 H 0.2625 1.2949 0.7758
H27 H 0.3743 1.3053 0.9035
loop_
_geom_bond_atom_site_label_1
_geom_bond_atom_site_label_2
_geom_bond_site_symmetry_1
_geom_bond_site_symmetry_2
S1 N1 1_555 1_555
N1 C8 1_555 1_555
O1 S1 1_555 1_555
O2 S1 1_555 1_555
C1 H1 1_555 1_555
H2 C1 1_555 1_555
H3 C1 1_555 1_555
C2 C1 1_555 1_555
C3 C2 1_555 1_555
H4 C3 1_555 1_555
C4 C3 1_555 1_555
H5 C4 1_555 1_555
C5 S1 1_555 1_555
C6 C5 1_555 1_555
H6 C6 1_555 1_555
C7 C2 1_555 1_555
H7 C7 1_555 1_555
C8 C9 1_555 1_555
C9 H8 1_555 1_555
C10 C9 1_555 1_555
H9 C10 1_555 1_555
C11 C10 1_555 1_555
H10 C11 1_555 1_555
C12 C11 1_555 1_555
H11 C12 1_555 1_555
C13 C8 1_555 1_555
C14 C13 1_555 1_555
C15 C14 1_555 1_555
H12 C15 1_555 1_555
C16 C15 1_555 1_555
C17 N1 1_555 1_555
H13 C17 1_555 1_555
H14 C17 1_555 1_555
C18 C14 1_555 1_555
C19 C18 1_555 1_555
H15 C19 1_555 1_555
C20 C19 1_555 1_555
H16 C20 1_555 1_555
C21 C20 1_555 1_555
H17 C21 1_555 1_555
C22 C21 1_555 1_555
H18 C22 1_555 1_555
C23 C18 1_555 1_555
H19 C23 1_555 1_555
C24 C16 1_555 1_555
C25 C24 1_555 1_555
C26 C25 1_555 1_555
H20 C26 1_555 1_555
C27 C26 1_555 1_555
H21 C27 1_555 1_555
C28 C27 1_555 1_555
H22 C28 1_555 1_555
C29 C28 1_555 1_555
H23 C29 1_555 1_555
C30 C25 1_555 1_555
H24 C30 1_555 1_555
C31 C24 1_555 1_555
H25 C31 1_555 1_555
H26 C31 1_555 1_555
H27 C31 1_555 1_555
C4 C5 1_555 1_555
C6 C7 1_555 1_555
C12 C13 1_555 1_555
C16 C17 1_555 1_555
C22 C23 1_555 1_555
C29 C30 1_555 1_555

#END
