
#######################################################################
#
#                 Cambridge Crystallographic Data Centre
#                                CCDC 
#
#######################################################################
#
# If this CIF has been generated from an entry in the Cambridge 
# Structural Database, then it will include bibliographic, chemical, 
# crystal, experimental, refinement or atomic coordinate data resulting 
# from the CCDC's data processing and validation procedures.
#
#######################################################################

data_MAXXOB
_chemical_formula_moiety         'C14 H15 N1 O4'
_chemical_name_systematic        
2'-methoxy-5-methyl-6'-nitro-4,5-dihydrobiphenyl-2(3H)-one
_symmetry_cell_setting           monoclinic
_symmetry_space_group_name_H-M   'P 21/c'
_symmetry_Int_Tables_number      14
_space_group_name_Hall           '-P 2ybc'
loop_
_symmetry_equiv_pos_site_id
_symmetry_equiv_pos_as_xyz
1 x,y,z
2 -x,1/2+y,1/2-z
3 -x,-y,-z
4 x,1/2-y,1/2+z
_cell_length_a                   21.5986(4)
_cell_length_b                   6.89910(11)
_cell_length_c                   17.6362(3)
_cell_angle_alpha                90
_cell_angle_beta                 104.596(2)
_cell_angle_gamma                90
_cell_volume                     2543.17
_exptl_crystal_colour            yellow
_exptl_crystal_description       plate
_cell_formula_units_Z            8
loop_
_atom_site_label
_atom_site_type_symbol
_atom_site_fract_x
_atom_site_fract_y
_atom_site_fract_z
C1 C 0.06357(13) 0.2395(4) -0.06389(16)
C2 C 0.0084(4) 0.2080(11) -0.1297(5)
O1 O 0.02335(17) 0.1802(10) -0.1986(2)
C3 C -0.0292(2) 0.1491(12) -0.2657(3)
H1 H -0.0556 0.2665 -0.2762
H2 H -0.0552 0.0405 -0.2555
H3 H -0.0127 0.1192 -0.3113
C4 C 0.05159(13) 0.2480(4) 0.00971(16)
N1 N 0.10550(12) 0.2506(4) 0.08010(14)
O2 O 0.15664(10) 0.1850(4) 0.07616(13)
O3 O 0.09589(13) 0.3172(5) 0.14066(14)
C5 C -0.00972(14) 0.2447(5) 0.02148(18)
H4 H -0.0159 0.2529 0.0728
C6 C -0.06104(14) 0.2296(5) -0.04244(18)
H5 H -0.1032 0.2270 -0.0353
O4 O 0.13158(11) -0.0897(3) -0.09062(13)
C7 C -0.05200(14) 0.2182(5) -0.11689(18)
H6 H -0.090(2) 0.228(8) -0.157(3)
C8 C 0.12742(13) 0.2511(4) -0.08181(16)
C9 C 0.15488(14) 0.4209(5) -0.08973(17)
H7 H 0.1318(17) 0.545(6) -0.087(2)
C10 C 0.21685(14) 0.4437(5) -0.11335(18)
H8 H 0.2436 0.5400 -0.0770
C11 C 0.25390(14) 0.2513(5) -0.1040(2)
H9 H 0.2884 0.2606 -0.1316
H10 H 0.2742 0.2293 -0.0477
C12 C 0.21145(15) 0.0797(6) -0.1360(2)
H11 H 0.1957 0.0930 -0.1935
H12 H 0.2369 -0.0410 -0.1251
C13 C 0.15512(13) 0.0650(5) -0.10015(16)
C14 C 0.20400(17) 0.5258(6) -0.1963(2)
H13 H 0.1789 0.4323 -0.2335
H14 H 0.2448 0.5503 -0.2095
H15 H 0.1801 0.6474 -0.1992
O6 O 0.34205(11) 0.7632(5) -0.07487(14)
N2 N 0.39612(11) 0.7647(4) -0.08040(13)
C17 C 0.44971(13) 0.7446(4) -0.00972(15)
O7 O 0.40905(13) 0.7813(6) -0.14335(14)
C18 C 0.51073(14) 0.7669(4) -0.02051(17)
H20 H 0.5167 0.7953 -0.0709
O8 O 0.47919(10) 0.6304(4) 0.19542(11)
C19 C 0.56244(14) 0.7469(4) 0.04309(18)
H21 H 0.6045 0.7639 0.0369
O9 O 0.36119(12) 1.0279(3) 0.07303(15)
C20 C 0.33722(15) 0.8699(4) 0.07823(19)
C21 C 0.37297(13) 0.6880(4) 0.07849(15)
C22 C 0.34999(13) 0.5197(4) 0.09767(17)
H22 H 0.3745 0.4060 0.0961
C23 C 0.28809(14) 0.4975(5) 0.12157(19)
H23 H 0.2561(16) 0.421(5) 0.077(2)
C24 C 0.55336(13) 0.7023(4) 0.11612(17)
H24 H 0.5893 0.6883 0.1598
C25 C 0.49190(13) 0.6778(4) 0.12580(15)
C26 C 0.43763(12) 0.7027(4) 0.06264(15)
C27 C 0.2630(2) 0.6927(7) 0.1409(4)
H25 H 0.2882 0.7363 0.1931
H26 H 0.2178 0.6789 0.1431
C28 C 0.26752(19) 0.8440(6) 0.0795(3)
H27 H 0.2421 0.8015 0.0273
H28 H 0.2499 0.9689 0.0921
C29 C 0.29782(17) 0.3663(6) 0.1933(2)
H29 H 0.2566 0.3433 0.2053
H30 H 0.3271 0.4290 0.2381
H31 H 0.3161 0.2425 0.1824
C30 C 0.53241(16) 0.6063(5) 0.26213(17)
H32 H 0.5609 0.5053 0.2512
H33 H 0.5168 0.5685 0.3076
H34 H 0.5559 0.7288 0.2733
O5? O 0.0227(4) 0.291(3) -0.1966(4)
C15? C 0.0131(12) 0.269(3) -0.1211(13)
C16? C -0.0310(6) 0.304(3) -0.2626(6)
H16? H -0.0167 0.3467 -0.3084
H17? H -0.0617 0.3978 -0.2516
H18? H -0.0515 0.1767 -0.2732
H19? H -0.083(5) 0.167(19) -0.161(6)
C31? C 0.2483(10) 0.686(3) 0.104(2)
H35? H 0.2280 0.6909 0.0468
H36? H 0.2136 0.6803 0.1312
C32? C 0.2859(11) 0.870(3) 0.1273(18)
H37? H 0.3067 0.8705 0.1841
H38? H 0.2578 0.9851 0.1145
loop_
_geom_bond_atom_site_label_1
_geom_bond_atom_site_label_2
_geom_bond_site_symmetry_1
_geom_bond_site_symmetry_2
C1 C2 1_555 1_555
C2 O1 1_555 1_555
O1 C3 1_555 1_555
C3 H1 1_555 1_555
H2 C3 1_555 1_555
H3 C3 1_555 1_555
C4 C1 1_555 1_555
N1 C4 1_555 1_555
O2 N1 1_555 1_555
O3 N1 1_555 1_555
C5 C4 1_555 1_555
H4 C5 1_555 1_555
C6 C5 1_555 1_555
H5 C6 1_555 1_555
O4 C13 1_555 1_555
C7 C2 1_555 1_555
H6 C7 1_555 1_555
C8 C1 1_555 1_555
C9 C8 1_555 1_555
H7 C9 1_555 1_555
C10 C9 1_555 1_555
H8 C10 1_555 1_555
C11 C10 1_555 1_555
H9 C11 1_555 1_555
H10 C11 1_555 1_555
C12 C11 1_555 1_555
H11 C12 1_555 1_555
H12 C12 1_555 1_555
C13 C8 1_555 1_555
C14 C10 1_555 1_555
H13 C14 1_555 1_555
H14 C14 1_555 1_555
H15 C14 1_555 1_555
O6 N2 1_555 1_555
N2 C17 1_555 1_555
C17 C18 1_555 1_555
O7 N2 1_555 1_555
C18 H20 1_555 1_555
O8 C25 1_555 1_555
C19 C18 1_555 1_555
H21 C19 1_555 1_555
O9 C20 1_555 1_555
C20 C21 1_555 1_555
C21 C22 1_555 1_555
C22 H22 1_555 1_555
C23 C22 1_555 1_555
H23 C23 1_555 1_555
C24 C19 1_555 1_555
H24 C24 1_555 1_555
C25 C24 1_555 1_555
C26 C17 1_555 1_555
C27 C23 1_555 1_555
H25 C27 1_555 1_555
H26 C27 1_555 1_555
C28 C20 1_555 1_555
H27 C28 1_555 1_555
H28 C28 1_555 1_555
C29 C23 1_555 1_555
H29 C29 1_555 1_555
H30 C29 1_555 1_555
H31 C29 1_555 1_555
C30 O8 1_555 1_555
H32 C30 1_555 1_555
H33 C30 1_555 1_555
H34 C30 1_555 1_555
C6 C7 1_555 1_555
C12 C13 1_555 1_555
C21 C26 1_555 1_555
C25 C26 1_555 1_555
C27 C28 1_555 1_555

#END
