
#######################################################################
#
#                 Cambridge Crystallographic Data Centre
#                                CCDC 
#
#######################################################################
#
# If this CIF has been generated from an entry in the Cambridge 
# Structural Database, then it will include bibliographic, chemical, 
# crystal, experimental, refinement or atomic coordinate data resulting 
# from the CCDC's data processing and validation procedures.
#
#######################################################################

data_MAXXUH
_chemical_formula_moiety         'C14 H13 N1 O1'
_chemical_name_systematic        3-methoxy-6-methyl-9H-carbazole
_symmetry_cell_setting           orthorhombic
_symmetry_space_group_name_H-M   'P 21 21 21'
_symmetry_Int_Tables_number      19
_space_group_name_Hall           'P 2ac 2ab'
loop_
_symmetry_equiv_pos_site_id
_symmetry_equiv_pos_as_xyz
1 x,y,z
2 1/2+x,1/2-y,-z
3 -x,1/2+y,1/2-z
4 1/2-x,-y,1/2+z
_cell_length_a                   6.44200(10)
_cell_length_b                   7.59210(10)
_cell_length_c                   21.9422(3)
_cell_angle_alpha                90
_cell_angle_beta                 90
_cell_angle_gamma                90
_cell_volume                     1073.16
_exptl_crystal_colour            black
_exptl_crystal_description       block
_cell_formula_units_Z            4
loop_
_atom_site_label
_atom_site_type_symbol
_atom_site_fract_x
_atom_site_fract_y
_atom_site_fract_z
C1 C 0.7640(2) 0.39744(19) 0.71868(7)
C2 C 0.9350(2) 0.4550(2) 0.75295(7)
C3 C 0.9422(3) 0.4216(2) 0.81519(7)
C4 C 1.1224(3) 0.4801(2) 0.85356(7)
C5 C 0.7767(3) 0.3299(2) 0.84248(7)
C6 C 0.6075(3) 0.2710(2) 0.81043(8)
C7 C 0.6016(2) 0.3046(2) 0.74805(8)
C8 C 0.5158(2) 0.3219(2) 0.64866(8)
C9 C 0.4196(3) 0.3055(2) 0.59218(8)
C10 C 0.5191(3) 0.3766(2) 0.54255(8)
C11 C 0.7101(3) 0.4644(2) 0.54794(7)
C12 C 0.9842(3) 0.6131(3) 0.49637(8)
C13 C 0.8082(2) 0.4808(2) 0.60378(7)
C14 C 0.7091(2) 0.40784(19) 0.65480(7)
N1 N 0.4522(2) 0.26250(18) 0.70532(6)
O1 O 0.78718(19) 0.53034(16) 0.49408(5)
H1 H 1.0555 0.5204 0.7328
H2 H 1.1757 0.3849 0.8810
H3 H 1.0828 0.5836 0.8790
H4 H 1.2427 0.5177 0.8269
H5 H 0.7854 0.3124 0.8874
H6 H 0.4891 0.2062 0.8301
H7 H 0.2880 0.2423 0.5880
H8 H 0.4574 0.3663 0.5005
H9 H 1.0202 0.6486 0.4533
H10 H 0.9802 0.7216 0.5237
H11 H 1.0894 0.5265 0.5125
H12 H 0.9470 0.5426 0.6071
H13 H 0.3370 0.1829 0.7110
loop_
_geom_bond_atom_site_label_1
_geom_bond_atom_site_label_2
_geom_bond_site_symmetry_1
_geom_bond_site_symmetry_2
C1 C2 1_555 1_555
C2 C3 1_555 1_555
C3 C4 1_555 1_555
C4 H2 1_555 1_555
C5 C3 1_555 1_555
C6 C5 1_555 1_555
C7 C1 1_555 1_555
C8 C9 1_555 1_555
C9 C10 1_555 1_555
C10 C11 1_555 1_555
C11 C13 1_555 1_555
C12 O1 1_555 1_555
C13 C14 1_555 1_555
C14 C1 1_555 1_555
N1 C7 1_555 1_555
O1 C11 1_555 1_555
H1 C2 1_555 1_555
H3 C4 1_555 1_555
H4 C4 1_555 1_555
H5 C5 1_555 1_555
H6 C6 1_555 1_555
H7 C9 1_555 1_555
H8 C10 1_555 1_555
H9 C12 1_555 1_555
H10 C12 1_555 1_555
H11 C12 1_555 1_555
H12 C13 1_555 1_555
H13 N1 1_555 1_555
C6 C7 1_555 1_555
C8 C14 1_555 1_555
C8 N1 1_555 1_555

#END
