
#######################################################################
#
#                 Cambridge Crystallographic Data Centre
#                                CCDC 
#
#######################################################################
#
# If this CIF has been generated from an entry in the Cambridge 
# Structural Database, then it will include bibliographic, chemical, 
# crystal, experimental, refinement or atomic coordinate data resulting 
# from the CCDC's data processing and validation procedures.
#
#######################################################################

data_MAXZUG
_chemical_formula_moiety         '2(C1 H6 N3 1+),C12 H8 O6 S2 2-,3(C12 H10)'
_chemical_name_systematic        
"bis(Guanidinium) 4,4'-biphenyldisulfonate biphenyl clathrate"
_symmetry_cell_setting           monoclinic
_symmetry_space_group_name_H-M   'P 21/n'
_symmetry_Int_Tables_number      14
_space_group_name_Hall           '-P 2yn'
loop_
_symmetry_equiv_pos_site_id
_symmetry_equiv_pos_as_xyz
1 x,y,z
2 1/2+x,1/2-y,1/2+z
3 -x,-y,-z
4 1/2-x,1/2+y,1/2-z
_cell_length_a                   7.6612(6)
_cell_length_b                   26.306(2)
_cell_length_c                   11.4887(9)
_cell_angle_alpha                90.00
_cell_angle_beta                 90.458(2)
_cell_angle_gamma                90.00
_cell_volume                     2315.31
_exptl_crystal_colour            colorless
_exptl_crystal_description       needles
_chemical_melting_point          598K
_cell_formula_units_Z            2
loop_
_atom_site_label
_atom_site_type_symbol
_atom_site_fract_x
_atom_site_fract_y
_atom_site_fract_z
S1 S 0.43404(5) 0.198843(16) 0.06763(3)
O1 O 0.58856(14) 0.22035(4) 0.01213(9)
C1 C 0.44824(19) 0.13246(6) 0.04790(13)
O2 O 0.27398(14) 0.21515(4) 0.00932(9)
C2 C 0.5391(3) 0.10292(7) 0.12712(15)
H5 H 0.5880 0.1181 0.1950
O3 O 0.43344(15) 0.20815(4) 0.19227(9)
C3 C 0.5589(3) 0.05174(7) 0.10799(15)
H8 H 0.6224 0.0321 0.1632
C4 C 0.48876(19) 0.02780(6) 0.01030(13)
C5 C 0.3972(2) 0.05848(7) -0.06758(15)
H9 H 0.3474 0.0435 -0.1354
C6 C 0.3765(2) 0.10966(7) -0.04958(15)
H10 H 0.3126 0.1295 -0.1043
C4B C 0.51124(19) -0.02780(6) -0.01030(13)
C3B C 0.4411(3) -0.05174(7) -0.10799(15)
C2B C 0.4609(3) -0.10292(7) -0.12712(15)
C1B C 0.55176(19) -0.13246(6) -0.04790(13)
S1B S 0.56596(5) -0.198843(16) -0.06763(3)
O1B O 0.41144(14) -0.22035(4) -0.01213(9)
O2B O 0.72602(14) -0.21515(4) -0.00932(9)
O3B O 0.56656(15) -0.20815(4) -0.19227(9)
C6B C 0.6235(2) -0.10966(7) 0.04958(15)
C5B C 0.6028(2) -0.05848(7) 0.06758(15)
H9B H 0.6526 -0.0435 0.1354
H10B H 0.6874 -0.1295 0.1043
H5B H 0.4120 -0.1181 -0.1950
H8B H 0.3776 -0.0321 -0.1632
N1 N -0.06678(18) 0.21944(5) 0.11230(11)
H1 H 0.0319 0.2148 0.0751
H2 H -0.1670 0.2135 0.0768
N2 N 0.08568(18) 0.24414(6) 0.27507(12)
H3 H 0.1846 0.2396 0.2380
H4 H 0.0868 0.2546 0.3478
N3 N -0.21322(17) 0.24166(5) 0.27797(12)
H6 H -0.3134 0.2354 0.2427
H7 H -0.2117 0.2522 0.3507
C7 C -0.0645(2) 0.23522(6) 0.22144(14)
C8 C -0.00953(19) -0.00315(7) 0.25393(13)
C9 C 0.0462(3) 0.03223(8) 0.17192(17)
H11 H 0.0958 0.0205 0.1013
C10 C 0.0311(3) 0.08364(8) 0.1907(2)
H12 H 0.0700 0.1069 0.1332
C11 C -0.0401(3) 0.10180(8) 0.29242(19)
H13 H -0.0485 0.1373 0.3059
C12 C -0.0987(3) 0.06776(8) 0.37405(17)
H14 H -0.1499 0.0798 0.4439
C13 C -0.0833(2) 0.01639(7) 0.35469(15)
H15 H -0.1245 -0.0066 0.4121
C14 C 0.0094(2) -0.05876(7) 0.23470(13)
C15 C -0.0704(3) -0.09407(7) 0.30686(15)
H16 H -0.1411 -0.0824 0.3689
C16 C -0.0493(3) -0.14576(8) 0.29041(17)
H17 H -0.1039 -0.1690 0.3419
C17 C 0.0498(2) -0.16373(8) 0.20027(18)
H18 H 0.0640 -0.1993 0.1889
C18 C 0.1279(3) -0.12970(8) 0.12704(18)
H19 H 0.1962 -0.1417 0.0641
C19 C 0.1082(2) -0.07821(8) 0.14404(16)
H20 H 0.1637 -0.0553 0.0922
C20 C 0.4957(2) 0.02789(7) 0.50795(14)
C21 C 0.4123(3) 0.05968(8) 0.42703(17)
H21 H 0.3570 0.0449 0.3609
C22 C 0.4081(3) 0.11151(9) 0.44043(19)
H22 H 0.3513 0.1320 0.3835
C23 C 0.4856(3) 0.13401(8) 0.53562(19)
H23 H 0.4849 0.1699 0.5444
C24 C 0.5642(3) 0.10363(9) 0.6178(2)
H24 H 0.6157 0.1186 0.6850
C25 C 0.5691(3) 0.05180(8) 0.60413(17)
H25 H 0.6245 0.0317 0.6623
C20B C 0.5043(2) -0.02789(7) 0.49205(14)
C21B C 0.5877(3) -0.05968(8) 0.57297(17)
H21B H 0.6430 -0.0449 0.6391
C22B C 0.5919(3) -0.11151(9) 0.55957(19)
H22B H 0.6487 -0.1320 0.6165
C23B C 0.5144(3) -0.13401(8) 0.46438(19)
H23B H 0.5151 -0.1699 0.4556
C24B C 0.4358(3) -0.10363(9) 0.3822(2)
H24B H 0.3843 -0.1186 0.3150
C25B C 0.4309(3) -0.05180(8) 0.39587(17)
H25B H 0.3755 -0.0317 0.3377
loop_
_geom_bond_atom_site_label_1
_geom_bond_atom_site_label_2
_geom_bond_site_symmetry_1
_geom_bond_site_symmetry_2
S1 O1 1_555 1_555
N1 H1 1_555 1_555
H2 N1 1_555 1_555
C1 S1 1_555 1_555
O2 S1 1_555 1_555
N2 H3 1_555 1_555
H4 N2 1_555 1_555
C2 C1 1_555 1_555
H5 C2 1_555 1_555
O3 S1 1_555 1_555
N3 H6 1_555 1_555
H7 N3 1_555 1_555
C3 C2 1_555 1_555
H8 C3 1_555 1_555
C4 C3 1_555 1_555
C5 C4 1_555 1_555
H9 C5 1_555 1_555
C6 C1 1_555 1_555
H10 C6 1_555 1_555
C7 N1 1_555 1_555
C8 C9 1_555 1_555
C9 H11 1_555 1_555
C10 C9 1_555 1_555
H12 C10 1_555 1_555
C11 C10 1_555 1_555
H13 C11 1_555 1_555
C12 C11 1_555 1_555
H14 C12 1_555 1_555
C13 C8 1_555 1_555
H15 C13 1_555 1_555
C14 C8 1_555 1_555
C15 C14 1_555 1_555
H16 C15 1_555 1_555
C16 C15 1_555 1_555
H17 C16 1_555 1_555
C17 C16 1_555 1_555
H18 C17 1_555 1_555
C18 C17 1_555 1_555
H19 C18 1_555 1_555
C19 C14 1_555 1_555
H20 C19 1_555 1_555
C20 C21 1_555 1_555
C21 H21 1_555 1_555
C22 C21 1_555 1_555
H22 C22 1_555 1_555
C23 C22 1_555 1_555
H23 C23 1_555 1_555
C24 C23 1_555 1_555
H24 C24 1_555 1_555
C25 C20 1_555 1_555
H25 C25 1_555 1_555
C4B C4 1_555 1_555
C3B C4B 1_555 1_555
C2B C3B 1_555 1_555
C1B C2B 1_555 1_555
S1B C1B 1_555 1_555
O1B S1B 1_555 1_555
O2B S1B 1_555 1_555
O3B S1B 1_555 1_555
C6B C1B 1_555 1_555
C5B C4B 1_555 1_555
H9B C5B 1_555 1_555
H10B C6B 1_555 1_555
H5B C2B 1_555 1_555
H8B C3B 1_555 1_555
C20B C20 1_555 1_555
C21B C20B 1_555 1_555
H21B C21B 1_555 1_555
C22B C21B 1_555 1_555
H22B C22B 1_555 1_555
C23B C22B 1_555 1_555
H23B C23B 1_555 1_555
C24B C23B 1_555 1_555
H24B C24B 1_555 1_555
C25B C20B 1_555 1_555
H25B C25B 1_555 1_555
N2 C7 1_555 1_555
N3 C7 1_555 1_555
C5 C6 1_555 1_555
C12 C13 1_555 1_555
C18 C19 1_555 1_555
C24 C25 1_555 1_555
C6B C5B 1_555 1_555
C24B C25B 1_555 1_555

#END
