
#######################################################################
#
#                 Cambridge Crystallographic Data Centre
#                                CCDC 
#
#######################################################################
#
# If this CIF has been generated from an entry in the Cambridge 
# Structural Database, then it will include bibliographic, chemical, 
# crystal, experimental, refinement or atomic coordinate data resulting 
# from the CCDC's data processing and validation procedures.
#
#######################################################################

data_MAXZIX
_chemical_formula_moiety         'C21 H14 N2 O3 S1'
_chemical_name_systematic        
'8-[(pyridine-2-carbonyl)amino]naphthalen-1-yl thiophene-2-carboxylate'
_symmetry_cell_setting           triclinic
_symmetry_space_group_name_H-M   'P -1'
_symmetry_Int_Tables_number      2
_space_group_name_Hall           '-P 1'
loop_
_symmetry_equiv_pos_site_id
_symmetry_equiv_pos_as_xyz
1 x,y,z
2 -x,-y,-z
_cell_length_a                   8.6027(8)
_cell_length_b                   14.6659(9)
_cell_length_c                   14.8286(9)
_cell_angle_alpha                82.014(5)
_cell_angle_beta                 77.654(6)
_cell_angle_gamma                76.926(6)
_cell_volume                     1772.15
_exptl_crystal_colour            colorless
_exptl_crystal_description       plane
_cell_formula_units_Z            4
loop_
_atom_site_label
_atom_site_type_symbol
_atom_site_fract_x
_atom_site_fract_y
_atom_site_fract_z
S1 S 0.7245(2) 0.57655(10) 0.07853(10)
O1 O 0.9452(4) 0.8453(3) 0.1076(3)
O2 O 0.4485(3) 0.82544(18) 0.08277(19)
O3 O 0.5744(4) 0.7409(2) 0.1944(2)
N1 N 0.7253(4) 0.8983(2) 0.0380(2)
H1 H 0.679985 0.889526 -0.005584
N2 N 0.8514(5) 0.7816(3) -0.0928(2)
C1 C 0.9135(7) 0.7261(4) -0.1604(3)
H2 H 0.848056 0.722465 -0.201676
C2 C 1.0698(7) 0.6734(4) -0.1730(4)
H3 H 1.109618 0.636396 -0.222300
C3 C 1.1645(6) 0.6771(4) -0.1110(4)
H4 H 1.270660 0.642657 -0.118776
C4 C 1.1056(5) 0.7315(3) -0.0364(3)
H5 H 1.167230 0.733134 0.007563
C5 C 0.9457(5) 0.7837(3) -0.0323(3)
C6 C 0.8735(5) 0.8461(3) 0.0442(3)
C7 C 0.6396(5) 0.9670(3) 0.0991(3)
C8 C 0.7145(6) 1.0351(3) 0.1125(3)
H6 H 0.820172 1.035723 0.081032
C9 C 0.6359(7) 1.1043(3) 0.1725(3)
H7 H 0.690584 1.149066 0.181808
C10 C 0.4814(7) 1.1061(3) 0.2168(3)
H8 H 0.430238 1.152826 0.255948
C11 C 0.3962(5) 1.0389(3) 0.2051(3)
C12 C 0.2334(6) 1.0432(3) 0.2494(3)
H9 H 0.182781 1.090823 0.287619
C13 C 0.1489(6) 0.9804(4) 0.2382(4)
H10 H 0.040303 0.985808 0.266643
C14 C 0.2257(5) 0.9065(3) 0.1831(3)
H11 H 0.168430 0.862013 0.176295
C15 C 0.3829(5) 0.8997(3) 0.1399(3)
C16 C 0.4769(5) 0.9657(2) 0.1457(2)
C17 C 0.5399(5) 0.7476(3) 0.1196(3)
C18 C 0.5919(5) 0.6752(3) 0.0551(3)
C19 C 0.5407(4) 0.6789(2) -0.0343(2)
H12 H 0.465512 0.725902 -0.059620
C20 C 0.6308(7) 0.5950(4) -0.0736(4)
H13 H 0.621716 0.581066 -0.131337
C21 C 0.7293(8) 0.5376(4) -0.0221(4)
H14 H 0.794370 0.481127 -0.040878
S2 S 0.2801(2) 1.08679(11) 0.49755(11)
O4 O 0.5208(4) 1.3381(3) 0.2716(2)
O5 O 0.0623(3) 1.34840(16) 0.48585(16)
O6 O 0.1272(4) 1.2490(2) 0.37498(19)
N3 N 0.3428(4) 1.4041(2) 0.3932(2)
H15 H 0.319140 1.401179 0.452731
N4 N 0.5047(4) 1.2903(3) 0.5122(2)
C22 C 0.5849(7) 1.2343(4) 0.5736(3)
H16 H 0.543944 1.239243 0.636471
C23 C 0.7250(7) 1.1698(4) 0.5481(4)
H17 H 0.777146 1.132137 0.593097
C24 C 0.7865(6) 1.1612(4) 0.4580(4)
H18 H 0.882406 1.118352 0.439930
C25 C 0.7062(5) 1.2165(3) 0.3927(3)
H19 H 0.745317 1.211219 0.329687
C26 C 0.5664(4) 1.2800(3) 0.4230(3)
C27 C 0.4757(4) 1.3434(3) 0.3536(3)
C28 C 0.2409(5) 1.4716(3) 0.3427(2)
C29 C 0.3095(5) 1.5329(3) 0.2766(3)
H20 H 0.421201 1.528877 0.266206
C30 C 0.2152(6) 1.6016(3) 0.2239(3)
H21 H 0.264852 1.642350 0.179090
C31 C 0.0518(6) 1.6090(3) 0.2381(3)
H22 H -0.009800 1.654277 0.202429
C32 C -0.0251(5) 1.5482(2) 0.3066(2)
C33 C -0.1973(5) 1.5585(3) 0.3241(3)
H23 H -0.258587 1.605099 0.289434
C34 C -0.2735(5) 1.5015(3) 0.3903(3)
H24 H -0.386035 1.509248 0.400831
C35 C -0.1831(5) 1.4312(3) 0.4427(3)
H25 H -0.235518 1.392688 0.488636
C36 C -0.0180(4) 1.4189(2) 0.4267(2)
C37 C 0.0697(4) 1.4772(2) 0.3598(2)
C38 C 0.1225(4) 1.2626(2) 0.4525(2)
C39 C 0.1792(4) 1.1932(3) 0.5251(2)
C40 C 0.1540(4) 1.20726(18) 0.62993(18)
H26 H 0.100625 1.259148 0.661980
C41 C 0.2412(7) 1.1126(4) 0.6637(4)
H27 H 0.249158 1.097831 0.725869
C42 C 0.3061(7) 1.0512(3) 0.6030(4)
H28 H 0.363038 0.991385 0.619213
loop_
_geom_bond_atom_site_label_1
_geom_bond_atom_site_label_2
_geom_bond_site_symmetry_1
_geom_bond_site_symmetry_2
S1 C18 1_555 1_555
O1 C6 1_555 1_555
O2 C15 1_555 1_555
O3 C17 1_555 1_555
N1 H1 1_555 1_555
N2 C1 1_555 1_555
C1 H2 1_555 1_555
C2 C1 1_555 1_555
H3 C2 1_555 1_555
C3 C2 1_555 1_555
H4 C3 1_555 1_555
C4 C3 1_555 1_555
H5 C4 1_555 1_555
C5 N2 1_555 1_555
C6 N1 1_555 1_555
C7 N1 1_555 1_555
C8 C7 1_555 1_555
H6 C8 1_555 1_555
C9 C8 1_555 1_555
H7 C9 1_555 1_555
C10 C9 1_555 1_555
H8 C10 1_555 1_555
C11 C10 1_555 1_555
C12 C11 1_555 1_555
H9 C12 1_555 1_555
C13 C12 1_555 1_555
H10 C13 1_555 1_555
C14 C13 1_555 1_555
H11 C14 1_555 1_555
C15 C14 1_555 1_555
C16 C7 1_555 1_555
C17 O2 1_555 1_555
C18 C17 1_555 1_555
C19 C18 1_555 1_555
H12 C19 1_555 1_555
C20 C19 1_555 1_555
H13 C20 1_555 1_555
C21 S1 1_555 1_555
H14 C21 1_555 1_555
S2 C39 1_555 1_555
O4 C27 1_555 1_555
O5 C36 1_555 1_555
O6 C38 1_555 1_555
N3 H15 1_555 1_555
N4 C22 1_555 1_555
C22 H16 1_555 1_555
C23 C22 1_555 1_555
H17 C23 1_555 1_555
C24 C23 1_555 1_555
H18 C24 1_555 1_555
C25 C24 1_555 1_555
H19 C25 1_555 1_555
C26 N4 1_555 1_555
C27 N3 1_555 1_555
C28 N3 1_555 1_555
C29 C28 1_555 1_555
H20 C29 1_555 1_555
C30 C29 1_555 1_555
H21 C30 1_555 1_555
C31 C30 1_555 1_555
H22 C31 1_555 1_555
C32 C31 1_555 1_555
C33 C32 1_555 1_555
H23 C33 1_555 1_555
C34 C33 1_555 1_555
H24 C34 1_555 1_555
C35 C34 1_555 1_555
H25 C35 1_555 1_555
C36 C35 1_555 1_555
C37 C28 1_555 1_555
C38 O5 1_555 1_555
C39 C38 1_555 1_555
C40 C39 1_555 1_555
H26 C40 1_555 1_555
C41 C40 1_555 1_555
H27 C41 1_555 1_555
C42 S2 1_555 1_555
H28 C42 1_555 1_555
C4 C5 1_555 1_555
C5 C6 1_555 1_555
C11 C16 1_555 1_555
C15 C16 1_555 1_555
C20 C21 1_555 1_555
C25 C26 1_555 1_555
C26 C27 1_555 1_555
C32 C37 1_555 1_555
C36 C37 1_555 1_555
C41 C42 1_555 1_555

#END
