
#######################################################################
#
#                 Cambridge Crystallographic Data Centre
#                                CCDC 
#
#######################################################################
#
# If this CIF has been generated from an entry in the Cambridge 
# Structural Database, then it will include bibliographic, chemical, 
# crystal, experimental, refinement or atomic coordinate data resulting 
# from the CCDC's data processing and validation procedures.
#
#######################################################################

data_MAXZOA
_chemical_formula_moiety         '2(C1 H6 N3 1+),C10 H6 O6 S2 2-,3(C10 H8)'
_chemical_name_systematic        
'bis(Guanidinium) 2,6-naphthalenedisulfonate naphthalene clathrate'
_symmetry_cell_setting           monoclinic
_symmetry_space_group_name_H-M   'P 21/n'
_symmetry_Int_Tables_number      14
_space_group_name_Hall           '-P 2yn'
loop_
_symmetry_equiv_pos_site_id
_symmetry_equiv_pos_as_xyz
1 x,y,z
2 1/2+x,1/2-y,1/2+z
3 -x,-y,-z
4 1/2-x,1/2+y,1/2-z
_cell_length_a                   7.63760(10)
_cell_length_b                   22.0442(4)
_cell_length_c                   11.81620(10)
_cell_angle_alpha                90.00
_cell_angle_beta                 91.6110(10)
_cell_angle_gamma                90.00
_cell_volume                     1988.65
_exptl_crystal_colour            colorless
_exptl_crystal_description       plates
_chemical_melting_point          603K
_cell_formula_units_Z            2
loop_
_atom_site_label
_atom_site_type_symbol
_atom_site_fract_x
_atom_site_fract_y
_atom_site_fract_z
S1 S 0.07282(6) 0.191596(19) 0.01463(4)
O1 O 0.23485(16) 0.21201(5) -0.03637(10)
O2 O 0.07167(16) 0.20145(5) 0.13643(10)
O3 O -0.08191(16) 0.21752(6) -0.04343(10)
C1 C 0.0609(2) 0.11211(8) -0.00801(14)
C2 C 0.1228(2) 0.08788(8) -0.11060(15)
H7 H 0.1748 0.1138 -0.1645
C3 C 0.1073(2) 0.02716(8) -0.13156(15)
H8 H 0.1481 0.0111 -0.2006
C4 C -0.0143(2) 0.07554(8) 0.07133(15)
H9 H -0.0550 0.0926 0.1395
C5 C 0.0309(2) -0.01242(8) -0.05145(14)
C4B C 0.0143(2) -0.07554(8) -0.07133(15)
C1B C -0.0609(2) -0.11211(8) 0.00801(14)
S1B S -0.07282(6) -0.191596(19) -0.01463(4)
O1B O -0.23485(16) -0.21201(5) 0.03637(10)
O2B O -0.07167(16) -0.20145(5) -0.13643(10)
O3B O 0.08191(16) -0.21752(6) 0.04343(10)
C2B C -0.1228(2) -0.08788(8) 0.11060(15)
H7B H -0.1748 -0.1138 0.1645
C3B C -0.1073(2) -0.02716(8) 0.13156(15)
H8B H -0.1481 -0.0111 0.2006
C5B C -0.0309(2) 0.01242(8) 0.05145(14)
H9B H 0.0550 -0.0926 -0.1395
N1 N 0.2309(2) 0.26167(7) -0.26656(13)
H1 H 0.2290 0.2520 -0.1943
H2 H 0.3315 0.2672 -0.2995
N2 N -0.0697(2) 0.25936(7) -0.27591(13)
H3 H -0.1689 0.2641 -0.3147
H4 H -0.0711 0.2490 -0.2040
N3 N 0.0840(2) 0.28339(7) -0.43432(13)
H5 H -0.0150 0.2881 -0.4732
H6 H 0.1846 0.2890 -0.4674
C6 C 0.0817(2) 0.26781(8) -0.32588(15)
C7 C 0.4358(3) 0.08439(9) 0.61944(17)
H10 H 0.3770 0.0803 0.5479
C8 C 0.4894(3) 0.14034(9) 0.65566(19)
H11 H 0.4688 0.1748 0.6090
C9 C 0.5751(3) 0.14711(9) 0.7618(2)
H12 H 0.6120 0.1863 0.7861
C10 C 0.6059(3) 0.09841(9) 0.82992(17)
H13 H 0.6632 0.1039 0.9016
C11 C 0.5813(2) -0.01289(9) 0.86328(16)
H14 H 0.6377 -0.0088 0.9356
C12 C 0.5285(3) -0.06885(9) 0.82641(18)
H15 H 0.5487 -0.1033 0.8732
C13 C 0.4446(3) -0.07591(9) 0.71986(19)
H16 H 0.4086 -0.1151 0.6951
C14 C 0.4147(2) -0.02670(8) 0.65181(17)
H17 H 0.3581 -0.0319 0.5798
C15 C 0.4670(2) 0.03207(8) 0.68746(15)
C16 C 0.5530(2) 0.03914(8) 0.79503(15)
C17 C 1.0900(3) 0.04283(10) 0.37833(17)
H18 H 1.1508 0.0351 0.3108
C18 C 1.0481(3) 0.10116(10) 0.40571(19)
H19 H 1.0785 0.1335 0.3568
C19 C 0.9601(3) 0.11351(10) 0.50622(19)
H20 H 0.9310 0.1542 0.5246
C20 C 0.9161(3) 0.06757(9) 0.57749(17)
H21 H 0.8582 0.0767 0.6456
C21 C 1.0442(2) -0.00623(9) 0.44902(15)
C21B C 0.9558(2) 0.00623(9) 0.55098(15)
C17B C 0.9100(3) -0.04283(10) 0.62167(17)
H18B H 0.8492 -0.0351 0.6892
C18B C 0.9519(3) -0.10116(10) 0.59429(19)
H19B H 0.9215 -0.1335 0.6432
C19B C 1.0399(3) -0.11351(10) 0.49378(19)
H20B H 1.0690 -0.1542 0.4754
C20B C 1.0839(3) -0.06757(9) 0.42251(17)
H21B H 1.1418 -0.0767 0.3544
loop_
_geom_bond_atom_site_label_1
_geom_bond_atom_site_label_2
_geom_bond_site_symmetry_1
_geom_bond_site_symmetry_2
S1 O1 1_555 1_555
O2 S1 1_555 1_555
O3 S1 1_555 1_555
N1 H1 1_555 1_555
H2 N1 1_555 1_555
N2 H3 1_555 1_555
H4 N2 1_555 1_555
N3 H5 1_555 1_555
H6 N3 1_555 1_555
C1 S1 1_555 1_555
C2 C1 1_555 1_555
H7 C2 1_555 1_555
C3 C2 1_555 1_555
H8 C3 1_555 1_555
C4 C1 1_555 1_555
H9 C4 1_555 1_555
C5 C3 1_555 1_555
C6 N1 1_555 1_555
C7 H10 1_555 1_555
C8 C7 1_555 1_555
H11 C8 1_555 1_555
C9 C8 1_555 1_555
H12 C9 1_555 1_555
C10 C9 1_555 1_555
H13 C10 1_555 1_555
C11 H14 1_555 1_555
C12 C11 1_555 1_555
H15 C12 1_555 1_555
C13 C12 1_555 1_555
H16 C13 1_555 1_555
C14 C13 1_555 1_555
H17 C14 1_555 1_555
C15 C7 1_555 1_555
C16 C10 1_555 1_555
C17 H18 1_555 1_555
C18 C17 1_555 1_555
H19 C18 1_555 1_555
C19 C18 1_555 1_555
H20 C19 1_555 1_555
C20 C19 1_555 1_555
H21 C20 1_555 1_555
C21 C17 1_555 1_555
C4B C5 1_555 1_555
C1B C4B 1_555 1_555
S1B C1B 1_555 1_555
O1B S1B 1_555 1_555
O2B S1B 1_555 1_555
O3B S1B 1_555 1_555
C2B C1B 1_555 1_555
H7B C2B 1_555 1_555
C3B C2B 1_555 1_555
H8B C3B 1_555 1_555
C5B C4 1_555 1_555
H9B C4B 1_555 1_555
C21B C20 1_555 1_555
C17B C21B 1_555 1_555
H18B C17B 1_555 1_555
C18B C17B 1_555 1_555
H19B C18B 1_555 1_555
C19B C18B 1_555 1_555
H20B C19B 1_555 1_555
C20B C21 1_555 1_555
H21B C20B 1_555 1_555
N2 C6 1_555 1_555
N3 C6 1_555 1_555
C5 C5B 1_555 1_555
C11 C16 1_555 1_555
C14 C15 1_555 1_555
C15 C16 1_555 1_555
C21 C21B 1_555 1_555
C3B C5B 1_555 1_555
C19B C20B 1_555 1_555

#END
