
#######################################################################
#
#                 Cambridge Crystallographic Data Centre
#                                CCDC 
#
#######################################################################
#
# If this CIF has been generated from an entry in the Cambridge 
# Structural Database, then it will include bibliographic, chemical, 
# crystal, experimental, refinement or atomic coordinate data resulting 
# from the CCDC's data processing and validation procedures.
#
#######################################################################

data_MAYBAP01
_chemical_formula_moiety         '2(C1 H6 N3 1+),C14 H8 O6 S2 2-,3(C14 H10)'
_chemical_name_systematic        
'bis(Guanidinium) 2,6-anthracenedisulfonate anthracene clathrate'
_symmetry_cell_setting           monoclinic
_symmetry_space_group_name_H-M   'P 21/n'
_symmetry_Int_Tables_number      14
_space_group_name_Hall           '-P 2yn'
loop_
_symmetry_equiv_pos_site_id
_symmetry_equiv_pos_as_xyz
1 x,y,z
2 1/2+x,1/2-y,1/2+z
3 -x,-y,-z
4 1/2-x,1/2+y,1/2-z
_cell_length_a                   7.5866(9)
_cell_length_b                   26.728(3)
_cell_length_c                   11.8709(15)
_cell_angle_alpha                90
_cell_angle_beta                 91.612(3)
_cell_angle_gamma                90
_cell_volume                     2406.16
_exptl_crystal_colour            'pale yellow'
_exptl_crystal_description       needles
_chemical_melting_point          'above 573K(dec.)'
_cell_formula_units_Z            2
loop_
_atom_site_label
_atom_site_type_symbol
_atom_site_fract_x
_atom_site_fract_y
_atom_site_fract_z
S1 S 0.58098(9) 0.20136(3) -0.00164(6)
O1 O 0.5769(2) 0.20793(7) 0.11995(15)
C1 C 0.5744(3) 0.13641(10) -0.0293(2)
O2 O 0.4251(2) 0.22277(7) -0.05927(16)
C2 C 0.6342(4) 0.11919(10) -0.1351(2)
H5 H 0.6778 0.1422 -0.1887
O3 O 0.7437(2) 0.21978(6) -0.04945(16)
C3 C 0.6282(4) 0.06956(10) -0.1583(2)
H8 H 0.6683 0.0582 -0.2289
C4 C 0.5639(3) 0.03371(10) -0.0803(2)
C5 C 0.5014(3) 0.05185(10) 0.0249(2)
C6 C 0.5090(3) 0.10423(10) 0.0477(2)
H9 H 0.4681 0.1167 0.1172
C7 C 0.5636(3) -0.01727(10) -0.1023(2)
H10 H 0.6085 -0.0290 -0.1713
C7B C 0.4364(3) 0.01727(10) 0.1023(2)
C4B C 0.4361(3) -0.03371(10) 0.0803(2)
C3B C 0.3718(4) -0.06956(10) 0.1583(2)
C2B C 0.3658(4) -0.11919(10) 0.1351(2)
C1B C 0.4256(3) -0.13641(10) 0.0293(2)
S1B S 0.41902(9) -0.20136(3) 0.00164(6)
O1B O 0.4231(2) -0.20793(7) -0.11995(15)
O2B O 0.5749(2) -0.22277(7) 0.05927(16)
O3B O 0.2563(2) -0.21978(6) 0.04945(16)
C6B C 0.4910(3) -0.10423(10) -0.0477(2)
C5B C 0.4986(3) -0.05185(10) -0.0249(2)
H9B H 0.5319 -0.1167 -0.1172
H5B H 0.3222 -0.1422 0.1887
H8B H 0.3317 -0.0582 0.2289
H10B H 0.3915 0.0290 0.1713
N1 N 0.2405(3) 0.23996(8) 0.2200(2)
H1 H 0.3422 0.2355 0.1875
H2 H 0.2381 0.2482 0.2917
N2 N 0.0934(3) 0.22175(8) 0.0532(2)
H3 H 0.1944 0.2172 0.0199
H4 H -0.0066 0.2180 0.0147
N3 N -0.0612(3) 0.24009(9) 0.2110(2)
H6 H -0.0633 0.2478 0.2830
H7 H -0.1606 0.2363 0.1719
C29 C 0.0919(4) 0.23419(10) 0.1612(3)
C8 C 1.0459(4) 0.01633(10) 0.2988(2)
C9 C 1.1056(4) 0.06527(11) 0.3300(3)
H11 H 1.1619 0.0704 0.4016
C10 C 1.0829(4) 0.10446(12) 0.2587(3)
H12 H 1.1234 0.1367 0.2810
C11 C 0.9992(4) 0.09798(12) 0.1511(3)
H13 H 0.9845 0.1258 0.1018
C12 C 0.9406(4) 0.05241(11) 0.1188(3)
H14 H 0.8845 0.0487 0.0467
C13 C 0.9602(4) 0.00970(11) 0.1896(2)
C14 C 0.9023(4) -0.03780(11) 0.1578(2)
H15 H 0.8431 -0.0420 0.0869
C15 C 0.9285(4) -0.07930(11) 0.2268(3)
C16 C 0.8742(4) -0.12861(11) 0.1938(3)
H16 H 0.8145 -0.1335 0.1233
C17 C 0.9068(4) -0.16812(12) 0.2618(3)
H17 H 0.8714 -0.2006 0.2380
C18 C 0.9931(4) -0.16190(12) 0.3681(3)
H18 H 1.0149 -0.1902 0.4149
C19 C 1.0449(4) -0.11573(11) 0.4037(3)
H19 H 1.1021 -0.1121 0.4755
C20 C 1.0149(4) -0.07284(11) 0.3351(3)
C21 C 1.0690(4) -0.02544(11) 0.3677(2)
H20 H 1.1241 -0.0212 0.4400
C22 C 0.4670(4) 0.05045(11) 0.5298(2)
C23 C 0.4344(4) 0.10161(11) 0.5562(3)
H21 H 0.3778 0.1099 0.6241
C24 C 0.4836(4) 0.13863(12) 0.4853(3)
H22 H 0.4588 0.1725 0.5034
C25 C 0.5715(4) 0.12736(12) 0.3843(3)
H23 H 0.6053 0.1537 0.3357
C26 C 0.6077(4) 0.07924(12) 0.3570(3)
H24 H 0.6686 0.0723 0.2899
C27 C 0.5553(4) 0.03887(11) 0.4276(2)
C28 C 0.4146(4) 0.01127(11) 0.5988(2)
H25 H 0.3562 0.0190 0.6664
C27B C 0.4447(4) -0.03887(11) 0.5724(2)
C22B C 0.5330(4) -0.05045(11) 0.4702(2)
C23B C 0.5656(4) -0.10161(11) 0.4438(3)
H21B H 0.6222 -0.1099 0.3759
C24B C 0.5164(4) -0.13863(12) 0.5147(3)
H22B H 0.5412 -0.1725 0.4966
C25B C 0.4285(4) -0.12736(12) 0.6157(3)
H23B H 0.3947 -0.1537 0.6643
C26B C 0.3923(4) -0.07924(12) 0.6430(3)
H24B H 0.3314 -0.0723 0.7101
C28B C 0.5854(4) -0.01127(11) 0.4012(2)
H25B H 0.6438 -0.0190 0.3336
loop_
_geom_bond_atom_site_label_1
_geom_bond_atom_site_label_2
_geom_bond_site_symmetry_1
_geom_bond_site_symmetry_2
S1 O1 1_555 1_555
N1 H1 1_555 1_555
H2 N1 1_555 1_555
C1 S1 1_555 1_555
O2 S1 1_555 1_555
N2 H3 1_555 1_555
H4 N2 1_555 1_555
C2 C1 1_555 1_555
H5 C2 1_555 1_555
O3 S1 1_555 1_555
N3 H6 1_555 1_555
H7 N3 1_555 1_555
C3 C2 1_555 1_555
H8 C3 1_555 1_555
C4 C3 1_555 1_555
C5 C4 1_555 1_555
C6 C1 1_555 1_555
H9 C6 1_555 1_555
C7 C4 1_555 1_555
H10 C7 1_555 1_555
C8 C9 1_555 1_555
C9 H11 1_555 1_555
C10 C9 1_555 1_555
H12 C10 1_555 1_555
C11 C10 1_555 1_555
H13 C11 1_555 1_555
C12 C11 1_555 1_555
H14 C12 1_555 1_555
C13 C8 1_555 1_555
C14 C13 1_555 1_555
H15 C14 1_555 1_555
C15 C14 1_555 1_555
C16 C15 1_555 1_555
H16 C16 1_555 1_555
C17 C16 1_555 1_555
H17 C17 1_555 1_555
C18 C17 1_555 1_555
H18 C18 1_555 1_555
C19 C18 1_555 1_555
H19 C19 1_555 1_555
C20 C15 1_555 1_555
C21 C8 1_555 1_555
H20 C21 1_555 1_555
C22 C23 1_555 1_555
C23 H21 1_555 1_555
C24 C23 1_555 1_555
H22 C24 1_555 1_555
C25 C24 1_555 1_555
H23 C25 1_555 1_555
C26 C25 1_555 1_555
H24 C26 1_555 1_555
C27 C22 1_555 1_555
C28 C22 1_555 1_555
H25 C28 1_555 1_555
C29 N1 1_555 1_555
C7B C5 1_555 1_555
C4B C7B 1_555 1_555
C3B C4B 1_555 1_555
C2B C3B 1_555 1_555
C1B C2B 1_555 1_555
S1B C1B 1_555 1_555
O1B S1B 1_555 1_555
O2B S1B 1_555 1_555
O3B S1B 1_555 1_555
C6B C1B 1_555 1_555
C5B C7 1_555 1_555
H9B C6B 1_555 1_555
H5B C2B 1_555 1_555
H8B C3B 1_555 1_555
H10B C7B 1_555 1_555
C27B C28 1_555 1_555
C22B C27B 1_555 1_555
C23B C22B 1_555 1_555
H21B C23B 1_555 1_555
C24B C23B 1_555 1_555
H22B C24B 1_555 1_555
C25B C24B 1_555 1_555
H23B C25B 1_555 1_555
C26B C27B 1_555 1_555
H24B C26B 1_555 1_555
C28B C27 1_555 1_555
H25B C28B 1_555 1_555
N2 C29 1_555 1_555
N3 C29 1_555 1_555
C5 C6 1_555 1_555
C12 C13 1_555 1_555
C19 C20 1_555 1_555
C20 C21 1_555 1_555
C26 C27 1_555 1_555
C4B C5B 1_555 1_555
C6B C5B 1_555 1_555
C22B C28B 1_555 1_555
C25B C26B 1_555 1_555

#END
