
#######################################################################
#
#                 Cambridge Crystallographic Data Centre
#                                CCDC 
#
#######################################################################
#
# If this CIF has been generated from an entry in the Cambridge 
# Structural Database, then it will include bibliographic, chemical, 
# crystal, experimental, refinement or atomic coordinate data resulting 
# from the CCDC's data processing and validation procedures.
#
#######################################################################

data_MAYCOH
_chemical_formula_moiety         'C13 H13 F3 N2 O2'
_chemical_name_systematic        
'ethyl 1-amino-2-methyl-5-(trifluoromethyl)-1H-indole-3-carboxylate'
_symmetry_cell_setting           triclinic
_symmetry_space_group_name_H-M   'P -1'
_symmetry_Int_Tables_number      2
_space_group_name_Hall           '-P 1'
loop_
_symmetry_equiv_pos_site_id
_symmetry_equiv_pos_as_xyz
1 x,y,z
2 -x,-y,-z
_cell_length_a                   7.8773(3)
_cell_length_b                   7.9192(3)
_cell_length_c                   10.3429(3)
_cell_angle_alpha                87.6860(10)
_cell_angle_beta                 89.8890(10)
_cell_angle_gamma                85.0280(10)
_cell_volume                     642.257
_exptl_crystal_colour            colorless
_exptl_crystal_description       plate
_cell_formula_units_Z            2
loop_
_atom_site_label
_atom_site_type_symbol
_atom_site_fract_x
_atom_site_fract_y
_atom_site_fract_z
F1 F 0.4866(5) 0.7111(3) 0.0285(2)
F2 F 0.5661(3) 0.5517(3) 0.1891(3)
F3 F 0.3121(3) 0.5670(3) 0.1302(2)
O1 O 0.1055(2) 0.6437(2) 0.58073(18)
O2 O 0.0787(2) 0.8174(2) 0.74738(17)
N1 N 0.2796(3) 1.1724(2) 0.49222(19)
N2 N 0.3029(3) 1.3460(3) 0.4841(2)
H1 H 0.2644 1.4121 0.5460
H2 H 0.3560 1.3888 0.4171
C1 C 0.4152(3) 1.1000(3) 0.2802(2)
H3 H 0.4479 1.2103 0.2585
C2 C 0.4491(3) 0.9677(3) 0.1989(2)
H4 H 0.5060 0.9864 0.1192
C3 C 0.4002(3) 0.8049(3) 0.2329(2)
C4 C 0.3182(3) 0.7708(3) 0.3481(2)
H5 H 0.2873 0.6599 0.3699
C5 C 0.2819(3) 0.9035(3) 0.4320(2)
C6 C 0.1994(3) 0.9186(3) 0.5558(2)
C7 C 0.2001(3) 1.0865(3) 0.5896(2)
C8 C 0.3310(3) 1.0652(3) 0.3954(2)
C9 C 0.4399(4) 0.6627(3) 0.1440(3)
C10 C 0.1253(3) 0.7802(3) 0.6259(2)
C11 C 0.0015(4) 0.6848(3) 0.8217(3)
H6 H 0.0840 0.5840 0.8348
H7 H -0.0995 0.6508 0.7758
C12 C -0.0500(4) 0.7569(4) 0.9499(3)
H8 H -0.1036 0.6712 1.0031
H9 H -0.1310 0.8570 0.9355
H10 H 0.0512 0.7894 0.9945
C13 C 0.1289(3) 1.1777(3) 0.7033(2)
H11 H 0.1539 1.2968 0.6956
H12 H 0.1808 1.1250 0.7828
H13 H 0.0053 1.1714 0.7065
loop_
_geom_bond_atom_site_label_1
_geom_bond_atom_site_label_2
_geom_bond_site_symmetry_1
_geom_bond_site_symmetry_2
F1 C9 1_555 1_555
F2 C9 1_555 1_555
F3 C9 1_555 1_555
O1 C10 1_555 1_555
O2 C10 1_555 1_555
N1 N2 1_555 1_555
N2 H1 1_555 1_555
H2 N2 1_555 1_555
C1 H3 1_555 1_555
C2 C1 1_555 1_555
H4 C2 1_555 1_555
C3 C2 1_555 1_555
C4 C3 1_555 1_555
H5 C4 1_555 1_555
C5 C4 1_555 1_555
C6 C5 1_555 1_555
C7 N1 1_555 1_555
C8 N1 1_555 1_555
C9 C3 1_555 1_555
C10 C6 1_555 1_555
C11 O2 1_555 1_555
H6 C11 1_555 1_555
H7 C11 1_555 1_555
C12 C11 1_555 1_555
H8 C12 1_555 1_555
H9 C12 1_555 1_555
H10 C12 1_555 1_555
C13 C7 1_555 1_555
H11 C13 1_555 1_555
H12 C13 1_555 1_555
H13 C13 1_555 1_555
C1 C8 1_555 1_555
C5 C8 1_555 1_555
C6 C7 1_555 1_555

#END
