
#######################################################################
#
#                 Cambridge Crystallographic Data Centre
#                                CCDC 
#
#######################################################################
#
# If this CIF has been generated from an entry in the Cambridge 
# Structural Database, then it will include bibliographic, chemical, 
# crystal, experimental, refinement or atomic coordinate data resulting 
# from the CCDC's data processing and validation procedures.
#
#######################################################################

data_MAYCIB
_chemical_formula_moiety         'C17 H14 N2 O3'
_chemical_name_systematic        
'methyl 2-amino-3-oxo-1-phenyl-2,3-dihydroisoquinoline-4-carboxylate'
_symmetry_cell_setting           monoclinic
_symmetry_space_group_name_H-M   'P 21/n'
_symmetry_Int_Tables_number      14
_space_group_name_Hall           '-P 2yn'
loop_
_symmetry_equiv_pos_site_id
_symmetry_equiv_pos_as_xyz
1 x,y,z
2 1/2-x,1/2+y,1/2-z
3 -x,-y,-z
4 1/2+x,1/2-y,1/2+z
_cell_length_a                   5.5929(3)
_cell_length_b                   11.3901(3)
_cell_length_c                   22.1102(4)
_cell_angle_alpha                90
_cell_angle_beta                 93.835(3)
_cell_angle_gamma                90
_cell_volume                     1405.35
_exptl_crystal_colour            yellow
_exptl_crystal_description       plate
_cell_formula_units_Z            4
loop_
_atom_site_label
_atom_site_type_symbol
_atom_site_fract_x
_atom_site_fract_y
_atom_site_fract_z
O1 O 0.21838(17) 0.52144(9) 0.06109(4)
O2 O 0.4885(3) 0.61006(13) 0.21112(5)
O3 O 0.6163(2) 0.45377(9) 0.16299(4)
N1 N 0.40276(18) 0.65791(9) 0.00389(4)
N2 N 0.2253(2) 0.63232(10) -0.04227(5)
H1 H 0.299(3) 0.6100(15) -0.0763(8)
H2 H 0.135(3) 0.5733(16) -0.0269(8)
C1 C 0.3821(2) 0.59494(11) 0.05942(6)
C2 C 0.5555(2) 0.62521(11) 0.10590(6)
C3 C 0.7370(2) 0.70772(11) 0.09802(6)
C4 C 0.9227(2) 0.73310(12) 0.14369(6)
H3 H 0.9241 0.6941 0.1817
C5 C 1.0976(2) 0.81229(13) 0.13350(6)
H4 H 1.2218 0.8261 0.1641
C6 C 1.0975(2) 0.87463(12) 0.07801(6)
H5 H 1.2178 0.9316 0.0720
C7 C 0.9242(2) 0.85250(12) 0.03333(6)
H6 H 0.9243 0.8945 -0.0038
C8 C 0.7425(2) 0.76727(11) 0.04130(6)
C9 C 0.5688(2) 0.74005(11) -0.00554(5)
C10 C 0.5642(2) 0.79891(11) -0.06594(5)
C11 C 0.3876(2) 0.88028(13) -0.08284(6)
H7 H 0.2634 0.8959 -0.0567
C12 C 0.3916(3) 0.93899(13) -0.13781(7)
H8 H 0.2701 0.9945 -0.1491
C13 C 0.5723(2) 0.91675(13) -0.17614(6)
H9 H 0.5747 0.9567 -0.2138
C14 C 0.7491(2) 0.83618(13) -0.15930(6)
H10 H 0.8740 0.8213 -0.1854
C15 C 0.7455(2) 0.77674(13) -0.10452(6)
H11 H 0.8669 0.7210 -0.0934
C16 C 0.5429(3) 0.56457(13) 0.16537(6)
C17 C 0.6159(4) 0.38709(16) 0.21870(7)
H12 H 0.6734 0.3073 0.2117
H13 H 0.4526 0.3837 0.2321
H14 H 0.7215 0.4251 0.2500
loop_
_geom_bond_atom_site_label_1
_geom_bond_atom_site_label_2
_geom_bond_site_symmetry_1
_geom_bond_site_symmetry_2
O1 C1 1_555 1_555
O2 C16 1_555 1_555
O3 C16 1_555 1_555
N1 N2 1_555 1_555
N2 H1 1_555 1_555
H2 N2 1_555 1_555
C1 N1 1_555 1_555
C2 C1 1_555 1_555
C3 C2 1_555 1_555
C4 C3 1_555 1_555
H3 C4 1_555 1_555
C5 C4 1_555 1_555
H4 C5 1_555 1_555
C6 C5 1_555 1_555
H5 C6 1_555 1_555
C7 C6 1_555 1_555
H6 C7 1_555 1_555
C8 C3 1_555 1_555
C9 N1 1_555 1_555
C10 C9 1_555 1_555
C11 C10 1_555 1_555
H7 C11 1_555 1_555
C12 C11 1_555 1_555
H8 C12 1_555 1_555
C13 C12 1_555 1_555
H9 C13 1_555 1_555
C14 C13 1_555 1_555
H10 C14 1_555 1_555
C15 C10 1_555 1_555
H11 C15 1_555 1_555
C16 C2 1_555 1_555
C17 O3 1_555 1_555
H12 C17 1_555 1_555
H13 C17 1_555 1_555
H14 C17 1_555 1_555
C7 C8 1_555 1_555
C8 C9 1_555 1_555
C14 C15 1_555 1_555

#END
