
#######################################################################
#
#                 Cambridge Crystallographic Data Centre
#                                CCDC 
#
#######################################################################
#
# If this CIF has been generated from an entry in the Cambridge 
# Structural Database, then it will include bibliographic, chemical, 
# crystal, experimental, refinement or atomic coordinate data resulting 
# from the CCDC's data processing and validation procedures.
#
#######################################################################

data_MAYDIC
_chemical_formula_moiety         'C34 H28 N2 O3 S1'
_chemical_name_systematic        
4-methyl-N-[4-(8-methylquinolin-2-yl)-5-oxo-1,5-diphenylpenta-1,3-dien-3-yl]benzene-1-sulfonamide
_symmetry_cell_setting           monoclinic
_symmetry_space_group_name_H-M   'P 21/c'
_symmetry_Int_Tables_number      14
_space_group_name_Hall           '-P 2ybc'
loop_
_symmetry_equiv_pos_site_id
_symmetry_equiv_pos_as_xyz
1 x,y,z
2 -x,1/2+y,1/2-z
3 -x,-y,-z
4 x,1/2-y,1/2+z
_cell_length_a                   15.1604(6)
_cell_length_b                   10.5654(5)
_cell_length_c                   17.7445(7)
_cell_angle_alpha                90
_cell_angle_beta                 100.3960(10)
_cell_angle_gamma                90
_cell_volume                     2795.58
_exptl_crystal_colour            colorless
_exptl_crystal_description       block
_cell_formula_units_Z            4
loop_
_atom_site_label
_atom_site_type_symbol
_atom_site_fract_x
_atom_site_fract_y
_atom_site_fract_z
C1 C 0.03291(9) 0.06986(13) 0.34488(7)
H1 H -0.0135 0.0241 0.3097
H2 H 0.0826 0.0907 0.3186
H3 H 0.0075 0.1480 0.3617
C2 C 0.06685(8) -0.01175(12) 0.41336(7)
C3 C 0.03886(8) -0.13489(13) 0.41837(8)
H4 H -0.0026 -0.1699 0.3771
C4 C 0.07019(9) -0.21052(12) 0.48322(8)
H5 H 0.0498 -0.2954 0.4848
C5 C 0.12959(9) -0.16297(12) 0.54392(7)
H6 H 0.1507 -0.2148 0.5872
C6 C 0.15946(8) -0.03637(12) 0.54202(7)
C7 C 0.12840(7) 0.03935(11) 0.47641(6)
C8 C 0.21884(9) 0.02103(12) 0.60309(7)
H7 H 0.2413 -0.0266 0.6479
C9 C 0.24408(9) 0.14421(12) 0.59823(7)
H8 H 0.2839 0.1826 0.6394
C10 C 0.21010(7) 0.21468(11) 0.53081(6)
C11 C 0.23454(7) 0.34899(11) 0.52438(6)
C12 C 0.27859(8) 0.41538(11) 0.59710(7)
C13 C 0.21939(8) 0.49322(11) 0.63747(6)
C14 C 0.12644(9) 0.48627(14) 0.61851(8)
H9 H 0.0990 0.4326 0.5781
C15 C 0.07364(11) 0.55807(17) 0.65887(9)
H10 H 0.0102 0.5523 0.6463
C16 C 0.11278(13) 0.63729(16) 0.71691(9)
H11 H 0.0763 0.6866 0.7439
C17 C 0.20494(12) 0.64534(14) 0.73599(8)
H12 H 0.2319 0.7005 0.7758
C18 C 0.25812(10) 0.57290(13) 0.69701(7)
H13 H 0.3216 0.5775 0.7109
C19 C 0.21525(7) 0.42073(11) 0.46000(7)
C20 C 0.24698(8) 0.55161(11) 0.45527(7)
H14 H 0.2043 0.6168 0.4400
C21 C 0.33386(8) 0.58153(12) 0.47185(7)
H15 H 0.3739 0.5173 0.4945
C22 C 0.37318(8) 0.70411(12) 0.45838(7)
C23 C 0.46358(10) 0.70890(15) 0.45189(11)
H16 H 0.4988 0.6341 0.4599
C24 C 0.50254(11) 0.82042(18) 0.43409(13)
H17 H 0.5638 0.8217 0.4290
C25 C 0.45247(11) 0.92978(16) 0.42373(11)
H18 H 0.4795 1.0070 0.4125
C26 C 0.36255(11) 0.92707(15) 0.42978(10)
H19 H 0.3279 1.0025 0.4223
C27 C 0.32316(9) 0.81534(13) 0.44662(8)
H20 H 0.2614 0.8142 0.4502
C28 C 0.28896(8) 0.35093(12) 0.30454(7)
C29 C 0.30340(9) 0.22215(13) 0.29732(7)
H21 H 0.2548 0.1643 0.2927
C30 C 0.38940(10) 0.17911(14) 0.29698(8)
H22 H 0.3992 0.0912 0.2909
C31 C 0.46192(10) 0.26166(15) 0.30540(9)
C32 C 0.55528(12) 0.2117(2) 0.30600(15)
H23 H 0.5553 0.1194 0.3111
H24 H 0.5966 0.2486 0.3493
H25 H 0.5745 0.2348 0.2580
C33 C 0.44599(11) 0.39052(15) 0.31261(10)
H26 H 0.4948 0.4482 0.3183
C34 C 0.35996(10) 0.43592(13) 0.31160(8)
H27 H 0.3497 0.5241 0.3157
N1 N 0.15456(6) 0.16252(9) 0.47219(5)
N2 N 0.16117(7) 0.37274(10) 0.39331(5)
H28 H 0.1458 0.2934 0.3991
O1 O 0.35837(6) 0.40398(10) 0.62244(5)
O2 O 0.11688(6) 0.32377(9) 0.25774(5)
O3 O 0.17669(7) 0.53782(9) 0.29421(5)
S1 S 0.17925(2) 0.40377(3) 0.306204(16)
loop_
_geom_bond_atom_site_label_1
_geom_bond_atom_site_label_2
_geom_bond_site_symmetry_1
_geom_bond_site_symmetry_2
C1 H1 1_555 1_555
H2 C1 1_555 1_555
H3 C1 1_555 1_555
C2 C1 1_555 1_555
C3 C2 1_555 1_555
H4 C3 1_555 1_555
C4 C3 1_555 1_555
H5 C4 1_555 1_555
C5 C4 1_555 1_555
H6 C5 1_555 1_555
C6 C5 1_555 1_555
C7 C2 1_555 1_555
C8 C6 1_555 1_555
H7 C8 1_555 1_555
C9 C8 1_555 1_555
H8 C9 1_555 1_555
C10 C9 1_555 1_555
C11 C10 1_555 1_555
C12 C11 1_555 1_555
C13 C12 1_555 1_555
C14 C13 1_555 1_555
H9 C14 1_555 1_555
C15 C14 1_555 1_555
H10 C15 1_555 1_555
C16 C15 1_555 1_555
H11 C16 1_555 1_555
C17 C16 1_555 1_555
H12 C17 1_555 1_555
C18 C13 1_555 1_555
H13 C18 1_555 1_555
C19 C11 1_555 1_555
C20 C19 1_555 1_555
H14 C20 1_555 1_555
C21 C20 1_555 1_555
H15 C21 1_555 1_555
C22 C21 1_555 1_555
C23 C22 1_555 1_555
H16 C23 1_555 1_555
C24 C23 1_555 1_555
H17 C24 1_555 1_555
C25 C24 1_555 1_555
H18 C25 1_555 1_555
C26 C25 1_555 1_555
H19 C26 1_555 1_555
C27 C22 1_555 1_555
H20 C27 1_555 1_555
C28 C29 1_555 1_555
C29 H21 1_555 1_555
C30 C29 1_555 1_555
H22 C30 1_555 1_555
C31 C30 1_555 1_555
C32 C31 1_555 1_555
H23 C32 1_555 1_555
H24 C32 1_555 1_555
H25 C32 1_555 1_555
C33 C31 1_555 1_555
H26 C33 1_555 1_555
C34 C28 1_555 1_555
H27 C34 1_555 1_555
N1 C7 1_555 1_555
N2 C19 1_555 1_555
H28 N2 1_555 1_555
O1 C12 1_555 1_555
O2 S1 1_555 1_555
O3 S1 1_555 1_555
S1 C28 1_555 1_555
C6 C7 1_555 1_555
C10 N1 1_555 1_555
C17 C18 1_555 1_555
C26 C27 1_555 1_555
C33 C34 1_555 1_555
N2 S1 1_555 1_555

#END
