
#######################################################################
#
#                 Cambridge Crystallographic Data Centre
#                                CCDC 
#
#######################################################################
#
# If this CIF has been generated from an entry in the Cambridge 
# Structural Database, then it will include bibliographic, chemical, 
# crystal, experimental, refinement or atomic coordinate data resulting 
# from the CCDC's data processing and validation procedures.
#
#######################################################################

data_MAYFEA
_chemical_formula_moiety         'C18 H14 O4'
_chemical_name_systematic        
3a-hydroxy-1-phenyl-3a,4,5,9b-tetrahydro-1,5-epoxynaphtho[1,2-c]furan-3(1H)-one
_symmetry_cell_setting           orthorhombic
_symmetry_space_group_name_H-M   'P 21 21 21'
_symmetry_Int_Tables_number      19
_space_group_name_Hall           'P 2ac 2ab'
loop_
_symmetry_equiv_pos_site_id
_symmetry_equiv_pos_as_xyz
1 x,y,z
2 1/2-x,-y,1/2+z
3 1/2+x,1/2-y,-z
4 -x,1/2+y,1/2-z
_cell_length_a                   5.8945(2)
_cell_length_b                   15.2788(6)
_cell_length_c                   15.3848(6)
_cell_angle_alpha                90
_cell_angle_beta                 90
_cell_angle_gamma                90
_cell_volume                     1385.57
_exptl_crystal_colour            'light colorless'
_exptl_crystal_description       block
_cell_formula_units_Z            4
loop_
_atom_site_label
_atom_site_type_symbol
_atom_site_fract_x
_atom_site_fract_y
_atom_site_fract_z
O1 O -0.2696(3) -0.02631(13) -0.58836(12)
O2 O -0.0684(3) -0.09762(12) -0.47878(12)
O3 O 0.0714(3) -0.23360(13) -0.48325(13)
O4 O 0.2870(3) -0.18463(14) -0.64382(12)
H1 H 0.3585 -0.2069 -0.6038
C1 C -0.2303(5) -0.06163(18) -0.67600(18)
H2 H -0.3743 -0.0684 -0.7071
C2 C -0.1101(5) -0.14932(18) -0.66808(18)
H3 H -0.0653 -0.1700 -0.7252
H4 H -0.2115 -0.1922 -0.6426
C3 C 0.1016(5) -0.13777(18) -0.61002(17)
C4 C 0.0364(4) -0.16465(18) -0.51859(19)
C5 C -0.0701(5) -0.02098(19) -0.53873(18)
C6 C 0.1399(5) -0.03782(17) -0.59631(17)
H5 H 0.2813 -0.0262 -0.5649
C7 C 0.1252(5) 0.01459(17) -0.67831(17)
C8 C -0.0792(5) 0.00234(18) -0.72229(18)
C9 C -0.1249(6) 0.04807(19) -0.79781(19)
H6 H -0.2624 0.0403 -0.8265
C10 C 0.0354(5) 0.1054(2) -0.8304(2)
H7 H 0.0067 0.1359 -0.8816
C11 C 0.2387(6) 0.11745(19) -0.7870(2)
H8 H 0.3457 0.1562 -0.8091
C12 C 0.2844(5) 0.07218(17) -0.71053(19)
H9 H 0.4209 0.0807 -0.6814
C13 C -0.0703(5) 0.05938(19) -0.48264(18)
C14 C 0.1039(6) 0.0713(2) -0.4232(2)
H10 H 0.2202 0.0304 -0.4195
C15 C 0.1055(7) 0.1438(2) -0.3693(2)
H11 H 0.2226 0.1513 -0.3295
C16 C -0.0637(8) 0.2041(2) -0.3743(3)
H12 H -0.0632 0.2523 -0.3374
C17 C -0.2342(8) 0.1939(2) -0.4336(3)
H13 H -0.3481 0.2358 -0.4375
C18 C -0.2386(6) 0.1215(2) -0.4881(2)
H14 H -0.3554 0.1150 -0.5282
loop_
_geom_bond_atom_site_label_1
_geom_bond_atom_site_label_2
_geom_bond_site_symmetry_1
_geom_bond_site_symmetry_2
O1 C1 1_555 1_555
O2 C4 1_555 1_555
O3 C4 1_555 1_555
O4 H1 1_555 1_555
C1 H2 1_555 1_555
C2 C1 1_555 1_555
H3 C2 1_555 1_555
H4 C2 1_555 1_555
C3 O4 1_555 1_555
C4 C3 1_555 1_555
C5 O1 1_555 1_555
C6 C3 1_555 1_555
H5 C6 1_555 1_555
C7 C6 1_555 1_555
C8 C1 1_555 1_555
C9 C8 1_555 1_555
H6 C9 1_555 1_555
C10 C9 1_555 1_555
H7 C10 1_555 1_555
C11 C10 1_555 1_555
H8 C11 1_555 1_555
C12 C7 1_555 1_555
H9 C12 1_555 1_555
C13 C5 1_555 1_555
C14 C13 1_555 1_555
H10 C14 1_555 1_555
C15 C14 1_555 1_555
H11 C15 1_555 1_555
C16 C15 1_555 1_555
H12 C16 1_555 1_555
C17 C16 1_555 1_555
H13 C17 1_555 1_555
C18 C13 1_555 1_555
H14 C18 1_555 1_555
O2 C5 1_555 1_555
C2 C3 1_555 1_555
C5 C6 1_555 1_555
C7 C8 1_555 1_555
C11 C12 1_555 1_555
C17 C18 1_555 1_555

#END
