
#######################################################################
#
#                 Cambridge Crystallographic Data Centre
#                                CCDC 
#
#######################################################################
#
# If this CIF has been generated from an entry in the Cambridge 
# Structural Database, then it will include bibliographic, chemical, 
# crystal, experimental, refinement or atomic coordinate data resulting 
# from the CCDC's data processing and validation procedures.
#
#######################################################################

data_MAYFUQ
_chemical_formula_moiety         'C36 H20 F14 N2 O4 Si1'
_chemical_name_systematic        
5,5-diethyl-2,8-bis(2,2,3,3,4,4,4-heptafluorobutyl)-1H-2,8-diaza-5-siladibenzo[cd,lm]cyclopenta[ghi]perylene-1,3,7,9(2H,5H,8H)-tetrone
_symmetry_cell_setting           monoclinic
_symmetry_space_group_name_H-M   'P 21/c'
_symmetry_Int_Tables_number      14
_space_group_name_Hall           '-P 2ybc'
loop_
_symmetry_equiv_pos_site_id
_symmetry_equiv_pos_as_xyz
1 x,y,z
2 -x,1/2+y,1/2-z
3 -x,-y,-z
4 x,1/2-y,1/2+z
_cell_length_a                   16.491(11)
_cell_length_b                   16.508(11)
_cell_length_c                   13.190(9)
_cell_angle_alpha                90
_cell_angle_beta                 102.583(13)
_cell_angle_gamma                90
_cell_volume                     3504.51
_exptl_crystal_colour            red
_exptl_crystal_description       needle
_cell_formula_units_Z            4
loop_
_atom_site_label
_atom_site_type_symbol
_atom_site_fract_x
_atom_site_fract_y
_atom_site_fract_z
Si1 Si 0.69550(11) 0.49199(10) 0.54866(14)
F1 F 1.0124(3) 0.8360(3) 0.2977(4)
F2 F 1.0281(3) 0.7107(3) 0.2576(4)
F3 F 1.0151(4) 0.7630(4) 0.0510(5)
F4 F 1.1238(3) 0.7935(3) 0.1710(5)
F5 F 1.0740(4) 0.9096(4) 0.0264(6)
F6 F 1.0686(5) 0.9442(4) 0.1765(7)
F7 F 0.9565(3) 0.9176(4) 0.0690(5)
F8 F 0.3367(2) 0.5667(2) 0.8706(3)
F9 F 0.3281(2) 0.6983(2) 0.8566(3)
F10 F 0.3231(3) 0.7033(3) 1.0694(4)
F11 F 0.3201(3) 0.5710(3) 1.0658(3)
F12 F 0.1815(3) 0.5837(3) 0.8995(4)
F13 F 0.1681(3) 0.6317(4) 1.0440(4)
F14 F 0.1830(3) 0.7124(3) 0.9228(5)
O1 O 0.8437(3) 0.8993(3) 0.2715(4)
O2 O 0.8611(3) 0.6238(3) 0.2435(4)
O3 O 0.4860(3) 0.7962(3) 0.9180(4)
O4 O 0.5093(3) 0.5236(3) 0.8697(4)
N1 N 0.8575(3) 0.7616(3) 0.2629(4)
N2 N 0.4938(3) 0.6599(3) 0.8891(4)
C1 C 0.8301(4) 0.8326(4) 0.3053(5)
C2 C 0.7843(4) 0.8213(4) 0.3889(5)
C3 C 0.7582(4) 0.8874(4) 0.4373(5)
H1 H 0.7705 0.9391 0.4173
C4 C 0.7138(4) 0.8787(4) 0.5153(5)
H2 H 0.6981 0.9246 0.5473
C5 C 0.6925(4) 0.8016(4) 0.5464(5)
C6 C 0.6440(4) 0.7893(3) 0.6281(5)
C7 C 0.6137(4) 0.8519(4) 0.6798(5)
H3 H 0.6230 0.9053 0.6630
C8 C 0.5691(4) 0.8356(4) 0.7571(5)
H4 H 0.5488 0.8786 0.7900
C9 C 0.5547(4) 0.7570(4) 0.7853(5)
C10 C 0.5085(4) 0.7417(4) 0.8685(5)
C11 C 0.5231(4) 0.5915(4) 0.8424(5)
C12 C 0.5700(4) 0.6092(4) 0.7604(5)
C13 C 0.6000(4) 0.5449(4) 0.7105(5)
H5 H 0.5905 0.4919 0.7290
C14 C 0.6442(4) 0.5591(4) 0.6329(5)
C15 C 0.6572(4) 0.6403(4) 0.6078(5)
C16 C 0.7030(4) 0.6526(4) 0.5262(5)
C17 C 0.7303(4) 0.5833(4) 0.4824(5)
C18 C 0.7759(4) 0.5944(4) 0.4046(5)
H6 H 0.7949 0.5495 0.3741
C19 C 0.7930(4) 0.6724(4) 0.3728(5)
C20 C 0.8405(4) 0.6813(4) 0.2890(5)
C21 C 0.7661(4) 0.7422(4) 0.4183(5)
C22 C 0.7194(4) 0.7326(4) 0.4974(5)
C23 C 0.6276(4) 0.7072(4) 0.6563(4)
C24 C 0.5833(4) 0.6912(4) 0.7332(5)
C25 C 0.9009(4) 0.7728(4) 0.1783(5)
H7 H 0.8795 0.8209 0.1392
H8 H 0.8898 0.7268 0.1317
C26 C 0.9949(4) 0.7817(5) 0.2180(6)
C27 C 1.0424(5) 0.8087(5) 0.1363(7)
C28 C 1.0350(6) 0.8962(7) 0.1008(9)
C29 C 0.4470(4) 0.6442(4) 0.9693(5)
H9 H 0.4570 0.6878 1.0199
H10 H 0.4666 0.5943 1.0050
C30 C 0.3553(4) 0.6376(4) 0.9248(5)
C31 C 0.3016(4) 0.6396(4) 1.0070(5)
C32 C 0.2068(5) 0.6421(5) 0.9663(7)
C33 C 0.7833(4) 0.4300(4) 0.6244(5)
H11 H 0.8026 0.3929 0.5777
H12 H 0.8291 0.4656 0.6542
C34 C 0.7583(6) 0.3820(5) 0.7109(7)
H13 H 0.7121 0.3476 0.6820
H14 H 0.7426 0.4186 0.7598
H15 H 0.8042 0.3494 0.7455
C35 C 0.6173(4) 0.4295(4) 0.4572(5)
H16 H 0.5980 0.3861 0.4955
H17 H 0.5699 0.4631 0.4270
C36 C 0.6540(5) 0.3933(5) 0.3702(6)
H18 H 0.6650 0.4359 0.3254
H19 H 0.6152 0.3556 0.3308
H20 H 0.7049 0.3657 0.3998
loop_
_geom_bond_atom_site_label_1
_geom_bond_atom_site_label_2
_geom_bond_site_symmetry_1
_geom_bond_site_symmetry_2
Si1 C14 1_555 1_555
F1 C26 1_555 1_555
F2 C26 1_555 1_555
F3 C27 1_555 1_555
F4 C27 1_555 1_555
F5 C28 1_555 1_555
F6 C28 1_555 1_555
F7 C28 1_555 1_555
F8 C30 1_555 1_555
F9 C30 1_555 1_555
F10 C31 1_555 1_555
F11 C31 1_555 1_555
F12 C32 1_555 1_555
F13 C32 1_555 1_555
F14 C32 1_555 1_555
O1 C1 1_555 1_555
O2 C20 1_555 1_555
O3 C10 1_555 1_555
O4 C11 1_555 1_555
N1 C1 1_555 1_555
N2 C10 1_555 1_555
C1 C2 1_555 1_555
C2 C3 1_555 1_555
C3 H1 1_555 1_555
C4 C3 1_555 1_555
H2 C4 1_555 1_555
C5 C4 1_555 1_555
C6 C5 1_555 1_555
C7 C6 1_555 1_555
H3 C7 1_555 1_555
C8 C7 1_555 1_555
H4 C8 1_555 1_555
C9 C8 1_555 1_555
C10 C9 1_555 1_555
C11 N2 1_555 1_555
C12 C11 1_555 1_555
C13 C12 1_555 1_555
H5 C13 1_555 1_555
C14 C13 1_555 1_555
C15 C14 1_555 1_555
C16 C15 1_555 1_555
C17 Si1 1_555 1_555
C18 C17 1_555 1_555
H6 C18 1_555 1_555
C19 C18 1_555 1_555
C20 N1 1_555 1_555
C21 C2 1_555 1_555
C22 C5 1_555 1_555
C23 C6 1_555 1_555
C24 C9 1_555 1_555
C25 N1 1_555 1_555
H7 C25 1_555 1_555
H8 C25 1_555 1_555
C26 C25 1_555 1_555
C27 C26 1_555 1_555
C28 C27 1_555 1_555
C29 N2 1_555 1_555
H9 C29 1_555 1_555
H10 C29 1_555 1_555
C30 C29 1_555 1_555
C31 C30 1_555 1_555
C32 C31 1_555 1_555
C33 Si1 1_555 1_555
H11 C33 1_555 1_555
H12 C33 1_555 1_555
C34 C33 1_555 1_555
H13 C34 1_555 1_555
H14 C34 1_555 1_555
H15 C34 1_555 1_555
C35 Si1 1_555 1_555
H16 C35 1_555 1_555
H17 C35 1_555 1_555
C36 C35 1_555 1_555
H18 C36 1_555 1_555
H19 C36 1_555 1_555
H20 C36 1_555 1_555
C12 C24 1_555 1_555
C15 C23 1_555 1_555
C16 C17 1_555 1_555
C16 C22 1_555 1_555
C19 C20 1_555 1_555
C19 C21 1_555 1_555
C21 C22 1_555 1_555
C23 C24 1_555 1_555

#END
