
#######################################################################
#
#                 Cambridge Crystallographic Data Centre
#                                CCDC 
#
#######################################################################
#
# If this CIF has been generated from an entry in the Cambridge 
# Structural Database, then it will include bibliographic, chemical, 
# crystal, experimental, refinement or atomic coordinate data resulting 
# from the CCDC's data processing and validation procedures.
#
#######################################################################

data_MAYGAX
_chemical_formula_moiety         'C40 H28 F14 N2 O4 Si2'
_chemical_name_systematic        
5,5,11,11-tetraethyl-2,8-bis(2,2,3,3,4,4,4-heptafluorobutyl)-5,11-dihydro-2,8-diaza-5,11-disiladibenzo[cd,lm]dicyclopenta[ghi,pqr]perylene-1,3,7,9(2H,8H)-tetrone
_symmetry_cell_setting           monoclinic
_symmetry_space_group_name_H-M   'C 2/c'
_symmetry_Int_Tables_number      15
_space_group_name_Hall           '-C 2yn'
loop_
_symmetry_equiv_pos_site_id
_symmetry_equiv_pos_as_xyz
1 x,y,z
2 -x,y,1/2-z
3 1/2+x,1/2+y,z
4 1/2-x,1/2+y,1/2-z
5 -x,-y,-z
6 x,-y,1/2+z
7 1/2-x,1/2-y,-z
8 1/2+x,1/2-y,1/2+z
_cell_length_a                   28.533(8)
_cell_length_b                   6.3805(18)
_cell_length_c                   21.155(6)
_cell_angle_alpha                90
_cell_angle_beta                 99.386(4)
_cell_angle_gamma                90
_cell_volume                     3799.81
_exptl_crystal_colour            red
_exptl_crystal_description       needle
_cell_formula_units_Z            4
loop_
_atom_site_label
_atom_site_type_symbol
_atom_site_fract_x
_atom_site_fract_y
_atom_site_fract_z
Si1 Si 0.67405(2) -0.31301(9) 0.33600(3)
F1 F 0.60018(6) 0.5955(4) 0.65226(7)
F2 F 0.55830(6) 0.4528(3) 0.56986(10)
F3 F 0.57202(8) 0.9875(3) 0.59173(14)
F4 F 0.52106(8) 0.8030(4) 0.52745(11)
F5 F 0.53707(9) 0.8612(6) 0.69227(14)
F6 F 0.47972(9) 0.9503(5) 0.61804(19)
F7 F 0.49417(7) 0.6287(5) 0.63939(12)
O1 O 0.69905(6) 0.5385(3) 0.63531(8)
O2 O 0.59864(7) 0.4262(3) 0.44823(8)
N1 N 0.64836(6) 0.4740(3) 0.54254(8)
C1 C 0.68785(7) 0.4243(3) 0.58936(10)
C2 C 0.71365(7) 0.2301(3) 0.57859(9)
C3 C 0.75158(7) 0.1618(3) 0.62393(10)
H1 H 0.7603 0.2394 0.6612
C4 C 0.77711(7) -0.0222(3) 0.61466(9)
C5 C 0.76271(7) -0.1306(3) 0.55738(9)
C6 C 0.72442(7) -0.0661(3) 0.51063(9)
C7 C 0.71107(7) -0.1810(3) 0.45337(9)
C8 C 0.67359(7) -0.1219(3) 0.40573(9)
C9 C 0.64769(7) 0.0582(3) 0.41786(10)
H2 H 0.6220 0.1005 0.3878
C10 C 0.65993(7) 0.1742(3) 0.47413(10)
C11 C 0.63268(8) 0.3632(4) 0.48534(10)
C12 C 0.69886(7) 0.1158(3) 0.52124(9)
C13 C 0.62250(8) 0.6667(3) 0.55201(11)
H3 H 0.6094 0.7255 0.5106
H4 H 0.6444 0.7683 0.5746
C14 C 0.58272(8) 0.6265(4) 0.58984(11)
C15 C 0.54733(10) 0.8076(5) 0.58555(16)
C16 C 0.51381(12) 0.8113(7) 0.6349(2)
C17 C 0.69917(8) -0.1843(4) 0.26929(10)
H5 H 0.7302 -0.1286 0.2866
H6 H 0.7037 -0.2909 0.2382
C18 C 0.66948(11) -0.0079(5) 0.23441(14)
H7 H 0.6874 0.0617 0.2060
H8 H 0.6613 0.0907 0.2651
H9 H 0.6410 -0.0651 0.2101
C19 C 0.61701(8) -0.4494(4) 0.30690(11)
H10 H 0.6206 -0.5306 0.2692
H11 H 0.6107 -0.5470 0.3397
C20 C 0.57448(11) -0.3075(6) 0.2902(2)
H12 H 0.5807 -0.2062 0.2591
H13 H 0.5685 -0.2365 0.3281
H14 H 0.5472 -0.3896 0.2729
Si1F Si 0.82595(2) -0.18699(9) 0.66400(3)
F1F F 0.89982(6) -1.0955(4) 0.34774(7)
F2F F 0.94170(6) -0.9528(3) 0.43014(10)
F3F F 0.92798(8) -1.4875(3) 0.40827(14)
F4F F 0.97894(8) -1.3030(4) 0.47255(11)
F5F F 0.96293(9) -1.3612(6) 0.30773(14)
F6F F 1.02028(9) -1.4503(5) 0.38196(19)
F7F F 1.00583(7) -1.1287(5) 0.36061(12)
O1F O 0.80095(6) -1.0385(3) 0.36469(8)
O2F O 0.90136(7) -0.9262(3) 0.55177(8)
N1F N 0.85164(6) -0.9740(3) 0.45746(8)
C1F C 0.81215(7) -0.9243(3) 0.41064(10)
C2F C 0.78635(7) -0.7301(3) 0.42141(9)
C3F C 0.74842(7) -0.6618(3) 0.37607(10)
H1F H 0.7397 -0.7394 0.3388
C4F C 0.72289(7) -0.4778(3) 0.38534(9)
C5F C 0.73729(7) -0.3694(3) 0.44262(9)
C6F C 0.77558(7) -0.4339(3) 0.48937(9)
C7F C 0.78893(7) -0.3190(3) 0.54663(9)
C8F C 0.82641(7) -0.3781(3) 0.59427(9)
C9F C 0.85231(7) -0.5582(3) 0.58214(10)
H2F H 0.8780 -0.6005 0.6122
C10F C 0.84007(7) -0.6742(3) 0.52587(10)
C11F C 0.86732(8) -0.8632(4) 0.51466(10)
C12F C 0.80114(7) -0.6158(3) 0.47876(9)
C13F C 0.87750(8) -1.1667(3) 0.44799(11)
H3F H 0.8906 -1.2255 0.4894
H4F H 0.8556 -1.2683 0.4254
C14F C 0.91728(8) -1.1265(4) 0.41016(11)
C15F C 0.95267(10) -1.3076(5) 0.41445(16)
C16F C 0.98619(12) -1.3113(7) 0.3651(2)
C17F C 0.80083(8) -0.3157(4) 0.73071(10)
H5F H 0.7698 -0.3714 0.7134
H6F H 0.7963 -0.2091 0.7618
C18F C 0.83052(11) -0.4921(5) 0.76559(14)
H7F H 0.8126 -0.5617 0.7940
H8F H 0.8387 -0.5907 0.7349
H9F H 0.8590 -0.4349 0.7899
C19F C 0.88299(8) -0.0506(4) 0.69310(11)
H10F H 0.8794 0.0306 0.7308
H11F H 0.8893 0.0470 0.6603
C20F C 0.92552(11) -0.1925(6) 0.7098(2)
H12F H 0.9193 -0.2938 0.7409
H13F H 0.9315 -0.2635 0.6719
H14F H 0.9528 -0.1104 0.7271
loop_
_geom_bond_atom_site_label_1
_geom_bond_atom_site_label_2
_geom_bond_site_symmetry_1
_geom_bond_site_symmetry_2
Si1 C8 1_555 1_555
F1 C14 1_555 1_555
F2 C14 1_555 1_555
F3 C15 1_555 1_555
F4 C15 1_555 1_555
F5 C16 1_555 1_555
F6 C16 1_555 1_555
F7 C16 1_555 1_555
O1 C1 1_555 1_555
O2 C11 1_555 1_555
N1 C1 1_555 1_555
C1 C2 1_555 1_555
C2 C3 1_555 1_555
C3 H1 1_555 1_555
C4 C3 1_555 1_555
C5 C4 1_555 1_555
C6 C5 1_555 1_555
C7 C6 1_555 1_555
C8 C7 1_555 1_555
C9 C8 1_555 1_555
H2 C9 1_555 1_555
C10 C9 1_555 1_555
C11 N1 1_555 1_555
C12 C2 1_555 1_555
C13 N1 1_555 1_555
H3 C13 1_555 1_555
H4 C13 1_555 1_555
C14 C13 1_555 1_555
C15 C14 1_555 1_555
C16 C15 1_555 1_555
C17 Si1 1_555 1_555
H5 C17 1_555 1_555
H6 C17 1_555 1_555
C18 C17 1_555 1_555
H7 C18 1_555 1_555
H8 C18 1_555 1_555
H9 C18 1_555 1_555
C19 Si1 1_555 1_555
H10 C19 1_555 1_555
H11 C19 1_555 1_555
C20 C19 1_555 1_555
H12 C20 1_555 1_555
H13 C20 1_555 1_555
H14 C20 1_555 1_555
Si1F C4 1_555 1_555
F1F C14F 1_555 1_555
F2F C14F 1_555 1_555
F3F C15F 1_555 1_555
F4F C15F 1_555 1_555
F5F C16F 1_555 1_555
F6F C16F 1_555 1_555
F7F C16F 1_555 1_555
O1F C1F 1_555 1_555
O2F C11F 1_555 1_555
N1F C1F 1_555 1_555
C1F C2F 1_555 1_555
C2F C3F 1_555 1_555
C3F H1F 1_555 1_555
C4F Si1 1_555 1_555
C5F C7 1_555 1_555
C6F C5F 1_555 1_555
C7F C5 1_555 1_555
C8F Si1F 1_555 1_555
C9F C8F 1_555 1_555
H2F C9F 1_555 1_555
C10F C9F 1_555 1_555
C11F N1F 1_555 1_555
C12F C2F 1_555 1_555
C13F N1F 1_555 1_555
H3F C13F 1_555 1_555
H4F C13F 1_555 1_555
C14F C13F 1_555 1_555
C15F C14F 1_555 1_555
C16F C15F 1_555 1_555
C17F Si1F 1_555 1_555
H5F C17F 1_555 1_555
H6F C17F 1_555 1_555
C18F C17F 1_555 1_555
H7F C18F 1_555 1_555
H8F C18F 1_555 1_555
H9F C18F 1_555 1_555
C19F Si1F 1_555 1_555
H10F C19F 1_555 1_555
H11F C19F 1_555 1_555
C20F C19F 1_555 1_555
H12F C20F 1_555 1_555
H13F C20F 1_555 1_555
H14F C20F 1_555 1_555
C6 C12 1_555 1_555
C10 C11 1_555 1_555
C10 C12 1_555 1_555
C3F C4F 1_555 1_555
C4F C5F 1_555 1_555
C6F C7F 1_555 1_555
C6F C12F 1_555 1_555
C7F C8F 1_555 1_555
C10F C11F 1_555 1_555
C10F C12F 1_555 1_555

#END
