
#######################################################################
#
#                 Cambridge Crystallographic Data Centre
#                                CCDC 
#
#######################################################################
#
# If this CIF has been generated from an entry in the Cambridge 
# Structural Database, then it will include bibliographic, chemical, 
# crystal, experimental, refinement or atomic coordinate data resulting 
# from the CCDC's data processing and validation procedures.
#
#######################################################################

data_MAYJII
_chemical_formula_moiety         'C30 H24 O6'
_chemical_name_systematic        
8,9a-dihydroxy-12-phenyl-7-(3-phenylacryloyl)-9,9a-dihydro-4a,9-(epoxyethano)xanthen-3(4H)-one
_symmetry_cell_setting           monoclinic
_symmetry_space_group_name_H-M   'P 21'
_symmetry_Int_Tables_number      4
_space_group_name_Hall           'P 2yb'
loop_
_symmetry_equiv_pos_site_id
_symmetry_equiv_pos_as_xyz
1 x,y,z
2 -x,1/2+y,-z
_cell_length_a                   11.7456(4)
_cell_length_b                   16.9831(6)
_cell_length_c                   12.0924(4)
_cell_angle_alpha                90
_cell_angle_beta                 94.1930(10)
_cell_angle_gamma                90
_cell_volume                     2405.7
_exptl_crystal_colour            yellow
_exptl_crystal_description       prism
_cell_formula_units_Z            4
loop_
_atom_site_label
_atom_site_type_symbol
_atom_site_fract_x
_atom_site_fract_y
_atom_site_fract_z
O1 O 0.45445(17) 0.62743(13) 0.66703(17)
O2 O 0.46483(17) 0.62501(13) 0.47536(17)
O3 O 0.67839(18) 0.68582(13) 0.69833(17)
H1 H 0.692(3) 0.732(3) 0.698(3)
O4 O 0.4820(2) 0.84159(16) 0.4248(2)
O5 O 0.77283(18) 0.44430(13) 0.49093(17)
H2 H 0.8005 0.4079 0.4542
O6 O 0.7938(2) 0.35610(15) 0.32473(18)
C1 C 0.3446(4) 0.4731(3) 0.9904(4)
H3 H 0.3156 0.4566 1.0580
C2 C 0.3478(3) 0.4209(3) 0.9023(4)
H4 H 0.3203 0.3687 0.9093
C3 C 0.3914(3) 0.4451(2) 0.8039(3)
H5 H 0.3946 0.4091 0.7441
C4 C 0.4302(3) 0.52147(19) 0.7928(3)
C5 C 0.4815(2) 0.54452(17) 0.6869(3)
H6 H 0.4448 0.5126 0.6246
C6 C 0.6100(2) 0.52929(18) 0.6944(2)
H7 H 0.6240 0.4718 0.6948
H8 H 0.6447 0.5512 0.7649
C7 C 0.6668(2) 0.56694(18) 0.5963(2)
H9 H 0.7514 0.5596 0.6062
C8 C 0.6217(3) 0.53280(18) 0.4866(2)
C9 C 0.6787(2) 0.47141(17) 0.4365(2)
C10 C 0.6370(3) 0.44189(18) 0.3315(3)
C11 C 0.7030(3) 0.38066(18) 0.2787(2)
C12 C 0.6628(3) 0.34935(19) 0.1686(3)
H10 H 0.5931 0.3678 0.1330
C13 C 0.7239(3) 0.2953(2) 0.1188(3)
H11 H 0.7902 0.2756 0.1593
C14 C 0.6978(3) 0.2637(2) 0.0071(3)
C15 C 0.5938(4) 0.2741(2) -0.0522(3)
H12 H 0.5327 0.2983 -0.0176
C16 C 0.5777(4) 0.2500(3) -0.1610(3)
H13 H 0.5062 0.2584 -0.2012
C17 C 0.6659(4) 0.2132(2) -0.2123(3)
H14 H 0.6546 0.1968 -0.2874
C18 C 0.3837(4) 0.5491(3) 0.9795(3)
H15 H 0.3810 0.5850 1.0394
C19 C 0.4271(3) 0.5732(2) 0.8811(3)
H16 H 0.4547 0.6254 0.8744
C20 C 0.5079(2) 0.66199(18) 0.5788(2)
C21 C 0.5234(3) 0.56331(18) 0.4328(3)
C22 C 0.6385(2) 0.65406(18) 0.5944(2)
C23 C 0.6907(2) 0.69618(19) 0.5004(2)
H17 H 0.7624 0.6785 0.4785
C24 C 0.6409(3) 0.7569(2) 0.4471(3)
H18 H 0.6786 0.7815 0.3894
C25 C 0.5277(3) 0.7875(2) 0.4751(3)
C26 C 0.4729(2) 0.74754(18) 0.5697(2)
H19 H 0.4961 0.7749 0.6401
H20 H 0.3888 0.7511 0.5574
C27 C 0.5355(3) 0.4742(2) 0.2819(3)
H21 H 0.5057 0.4542 0.2123
C28 C 0.4780(3) 0.5338(2) 0.3306(3)
H22 H 0.4092 0.5544 0.2959
C29 C 0.7677(4) 0.2008(3) -0.1550(3)
H23 H 0.8273 0.1753 -0.1901
C30 C 0.7858(3) 0.2252(2) -0.0448(3)
H24 H 0.8573 0.2159 -0.0050
O7 O 0.7376(2) 0.84093(15) 0.69285(19)
O8 O 0.73645(19) 0.92926(14) 0.52570(18)
H25 H 0.7131 0.8936 0.5665
O9 O 1.02451(18) 1.11657(13) 0.31740(17)
O10 O 1.03140(16) 1.11798(13) 0.51064(17)
O11 O 0.9980(2) 1.34001(14) 0.54214(19)
O12 O 0.79891(19) 1.17207(14) 0.30529(18)
H26 H 0.738(4) 1.166(3) 0.302(3)
C31 C 0.8681(3) 0.7260(2) 1.2414(3)
H27 H 0.8776 0.7113 1.3173
C32 C 0.7870(4) 0.6887(2) 1.1712(3)
H28 H 0.7392 0.6494 1.1993
C33 C 0.7753(3) 0.7086(2) 1.0596(3)
H29 H 0.7215 0.6815 1.0109
C34 C 0.8424(3) 0.7682(2) 1.0185(3)
C35 C 0.8193(3) 0.7914(2) 0.9022(2)
H30 H 0.7651 0.7606 0.8590
C36 C 0.8666(3) 0.85130(19) 0.8508(3)
H31 H 0.9274 0.8800 0.8880
C37 C 0.8253(3) 0.87340(19) 0.7368(3)
C38 C 0.8815(3) 0.93495(18) 0.6776(3)
C39 C 0.8320(3) 0.96041(18) 0.5733(2)
C40 C 0.8821(2) 1.02095(18) 0.5161(2)
C41 C 0.8269(2) 1.05024(19) 0.4074(2)
H32 H 0.7430 1.0395 0.4039
C42 C 0.8788(3) 1.01218(19) 0.3075(2)
H33 H 0.8699 0.9543 0.3114
H34 H 0.8369 1.0307 0.2383
C43 C 1.0046(3) 1.03232(19) 0.3042(2)
H35 H 1.0488 1.0038 0.3657
C44 C 1.0533(3) 1.0120(2) 0.1962(3)
C45 C 1.0152(4) 1.0509(2) 0.1003(3)
H36 H 0.9555 1.0884 0.1023
C46 C 1.0633(4) 1.0357(3) 0.0007(3)
H37 H 1.0366 1.0627 -0.0650
C47 C 1.1506(4) 0.9808(3) -0.0016(3)
H38 H 1.1851 0.9710 -0.0689
C48 C 0.9355(3) 0.7849(2) 1.2012(3)
H39 H 0.9904 0.8109 1.2498
C49 C 0.9230(3) 0.8059(2) 1.0901(3)
H40 H 0.9696 0.8462 1.0629
C50 C 0.9766(2) 1.15083(18) 0.4077(2)
C51 C 0.9806(2) 1.05622(18) 0.5609(2)
C52 C 1.0347(3) 1.03056(19) 0.6620(3)
H41 H 1.1041 1.0539 0.6910
C53 C 0.9847(3) 0.97070(19) 0.7181(3)
H42 H 1.0209 0.9529 0.7863
C54 C 1.0055(2) 1.23761(17) 0.4085(2)
H43 H 1.0895 1.2440 0.4147
H44 H 0.9756 1.2615 0.3376
C55 C 0.9557(3) 1.28005(18) 0.5033(2)
C56 C 0.8515(3) 1.2458(2) 0.5465(2)
H45 H 0.8183 1.2713 0.6063
C57 C 0.8029(3) 1.18049(19) 0.5040(2)
H46 H 0.7382 1.1596 0.5366
C58 C 0.8475(2) 1.13855(18) 0.4055(2)
C59 C 1.1877(3) 0.9404(3) 0.0933(4)
H47 H 1.2465 0.9021 0.0910
C60 C 1.1384(3) 0.9558(2) 0.1930(3)
H48 H 1.1634 0.9279 0.2584
loop_
_geom_bond_atom_site_label_1
_geom_bond_atom_site_label_2
_geom_bond_site_symmetry_1
_geom_bond_site_symmetry_2
O1 C5 1_555 1_555
O2 C20 1_555 1_555
O3 H1 1_555 1_555
O4 C25 1_555 1_555
O5 H2 1_555 1_555
O6 C11 1_555 1_555
C1 H3 1_555 1_555
C2 C1 1_555 1_555
H4 C2 1_555 1_555
C3 C2 1_555 1_555
H5 C3 1_555 1_555
C4 C3 1_555 1_555
C5 C4 1_555 1_555
H6 C5 1_555 1_555
C6 C5 1_555 1_555
H7 C6 1_555 1_555
H8 C6 1_555 1_555
C7 C6 1_555 1_555
H9 C7 1_555 1_555
C8 C7 1_555 1_555
C9 O5 1_555 1_555
C10 C9 1_555 1_555
C11 C10 1_555 1_555
C12 C11 1_555 1_555
H10 C12 1_555 1_555
C13 C12 1_555 1_555
H11 C13 1_555 1_555
C14 C13 1_555 1_555
C15 C14 1_555 1_555
H12 C15 1_555 1_555
C16 C15 1_555 1_555
H13 C16 1_555 1_555
C17 C16 1_555 1_555
H14 C17 1_555 1_555
C18 C1 1_555 1_555
H15 C18 1_555 1_555
C19 C4 1_555 1_555
H16 C19 1_555 1_555
C20 O1 1_555 1_555
C21 O2 1_555 1_555
C22 O3 1_555 1_555
C23 C22 1_555 1_555
H17 C23 1_555 1_555
C24 C23 1_555 1_555
H18 C24 1_555 1_555
C25 C24 1_555 1_555
C26 C20 1_555 1_555
H19 C26 1_555 1_555
H20 C26 1_555 1_555
C27 C10 1_555 1_555
H21 C27 1_555 1_555
C28 C21 1_555 1_555
H22 C28 1_555 1_555
C29 C17 1_555 1_555
H23 C29 1_555 1_555
C30 C14 1_555 1_555
H24 C30 1_555 1_555
O7 C37 1_555 1_555
O8 H25 1_555 1_555
O9 C43 1_555 1_555
O10 C50 1_555 1_555
O11 C55 1_555 1_555
O12 H26 1_555 1_555
C31 H27 1_555 1_555
C32 C31 1_555 1_555
H28 C32 1_555 1_555
C33 C32 1_555 1_555
H29 C33 1_555 1_555
C34 C33 1_555 1_555
C35 C34 1_555 1_555
H30 C35 1_555 1_555
C36 C35 1_555 1_555
H31 C36 1_555 1_555
C37 C36 1_555 1_555
C38 C37 1_555 1_555
C39 O8 1_555 1_555
C40 C39 1_555 1_555
C41 C40 1_555 1_555
H32 C41 1_555 1_555
C42 C41 1_555 1_555
H33 C42 1_555 1_555
H34 C42 1_555 1_555
C43 C42 1_555 1_555
H35 C43 1_555 1_555
C44 C43 1_555 1_555
C45 C44 1_555 1_555
H36 C45 1_555 1_555
C46 C45 1_555 1_555
H37 C46 1_555 1_555
C47 C46 1_555 1_555
H38 C47 1_555 1_555
C48 C31 1_555 1_555
H39 C48 1_555 1_555
C49 C34 1_555 1_555
H40 C49 1_555 1_555
C50 O9 1_555 1_555
C51 O10 1_555 1_555
C52 C51 1_555 1_555
H41 C52 1_555 1_555
C53 C38 1_555 1_555
H42 C53 1_555 1_555
C54 C50 1_555 1_555
H43 C54 1_555 1_555
H44 C54 1_555 1_555
C55 C54 1_555 1_555
C56 C55 1_555 1_555
H45 C56 1_555 1_555
C57 C56 1_555 1_555
H46 C57 1_555 1_555
C58 O12 1_555 1_555
C59 C47 1_555 1_555
H47 C59 1_555 1_555
C60 C44 1_555 1_555
H48 C60 1_555 1_555
C7 C22 1_555 1_555
C8 C9 1_555 1_555
C8 C21 1_555 1_555
C18 C19 1_555 1_555
C20 C22 1_555 1_555
C25 C26 1_555 1_555
C27 C28 1_555 1_555
C29 C30 1_555 1_555
C38 C39 1_555 1_555
C40 C51 1_555 1_555
C41 C58 1_555 1_555
C48 C49 1_555 1_555
C50 C58 1_555 1_555
C52 C53 1_555 1_555
C57 C58 1_555 1_555
C59 C60 1_555 1_555

#END
