
#######################################################################
#
#                 Cambridge Crystallographic Data Centre
#                                CCDC 
#
#######################################################################
#
# If this CIF has been generated from an entry in the Cambridge 
# Structural Database, then it will include bibliographic, chemical, 
# crystal, experimental, refinement or atomic coordinate data resulting 
# from the CCDC's data processing and validation procedures.
#
#######################################################################

data_MAYLEE
_chemical_formula_moiety         'C22 H26 Cl1 N1 O3 S2'
_chemical_name_systematic        
N-((2S)-2-(2-Chlorophenylsulfanyl)-2-methylpenta-3,4-dienoyl)-2,10-camphorsultam
_symmetry_cell_setting           monoclinic
_symmetry_space_group_name_H-M   'P 21'
_symmetry_Int_Tables_number      4
_space_group_name_Hall           'P 2yb'
loop_
_symmetry_equiv_pos_site_id
_symmetry_equiv_pos_as_xyz
1 x,y,z
2 -x,1/2+y,-z
_cell_length_a                   7.5875(15)
_cell_length_b                   28.279(6)
_cell_length_c                   10.105(2)
_cell_angle_alpha                90.00
_cell_angle_beta                 91.42(3)
_cell_angle_gamma                90.00
_cell_volume                     2167.53
_cell_formula_units_Z            4
loop_
_atom_site_label
_atom_site_type_symbol
_atom_site_fract_x
_atom_site_fract_y
_atom_site_fract_z
Cl1 Cl 0.46171(10) 0.39609(3) 1.13747(8)
S1 S 0.48688(10) 0.30068(3) 0.95399(7)
S2 S 0.35820(10) 0.33041(3) 0.46227(7)
O1 O 0.1974(3) 0.28187(7) 0.7941(2)
O2 O 0.3393(3) 0.37862(9) 0.4978(2)
O3 O 0.5267(3) 0.31415(9) 0.4235(2)
N1 N 0.2816(3) 0.29476(8) 0.5856(2)
C1 C 0.6638(3) 0.37251(11) 1.0927(3)
C2 C 0.8130(4) 0.39643(11) 1.1368(3)
H1 H 0.8025 0.4238 1.1905
C3 C 0.9759(4) 0.38040(12) 1.1024(3)
H2 H 1.0785 0.3971 1.1312
C4 C 0.9922(4) 0.34046(12) 1.0269(3)
H3 H 1.1057 0.3294 1.0038
C5 C 0.8428(4) 0.31624(11) 0.9847(3)
H4 H 0.8553 0.2881 0.9345
C6 C 0.6748(4) 0.33218(11) 1.0139(3)
C7 C 0.4632(4) 0.32682(10) 0.7821(3)
C8 C 0.6277(4) 0.31685(11) 0.7095(3)
H5 H 0.6493 0.2852 0.6829
C9 C 0.7449(4) 0.34925(12) 0.6800(3)
C10 C 0.8607(5) 0.38025(14) 0.6464(4)
C11 C 0.4193(4) 0.37942(11) 0.7953(3)
H6 H 0.5155 0.3955 0.8436
H7 H 0.3098 0.3830 0.8436
H8 H 0.4046 0.3934 0.7069
C12 C 0.3044(4) 0.29996(10) 0.7232(3)
C13 C 0.1172(4) 0.27021(10) 0.5430(3)
H9 H 0.0133 0.2877 0.5773
C14 C 0.1039(4) 0.21769(10) 0.5815(3)
H10 H 0.2175 0.2057 0.6184
H11 H 0.0106 0.2125 0.6466
C15 C 0.0567(4) 0.19414(11) 0.4481(3)
H12 H 0.0683 0.1589 0.4480
C16 C -0.1265(4) 0.21244(13) 0.4039(3)
H13 H -0.2087 0.2122 0.4785
H14 H -0.1768 0.1929 0.3308
C17 C -0.0910(4) 0.26401(13) 0.3564(3)
H15 H -0.1154 0.2675 0.2603
H16 H -0.1623 0.2872 0.4052
C18 C 0.1070(3) 0.26936(10) 0.3903(3)
C19 C 0.1960(4) 0.31370(10) 0.3424(3)
H17 H 0.1083 0.3393 0.3302
H18 H 0.2516 0.3077 0.2563
C20 C 0.1798(4) 0.21975(11) 0.3529(3)
C21 C 0.1479(5) 0.20697(14) 0.2060(3)
H19 H 0.1872 0.1745 0.1904
H20 H 0.2142 0.2287 0.1505
H21 H 0.0218 0.2096 0.1837
C22 C 0.3755(4) 0.21129(12) 0.3828(3)
H22 H 0.4051 0.2222 0.4727
H23 H 0.4458 0.2288 0.3191
H24 H 0.4013 0.1774 0.3758
H51 H 0.9930 0.3781 0.7003
H52 H 0.8441 0.3990 0.5384
Cl2 Cl 0.91750(9) -0.02552(3) 0.13971(7)
S3 S 0.94446(10) 0.06760(3) 0.33036(7)
S4 S 0.84791(9) 0.03581(3) 0.81780(7)
O4 O 0.6643(3) 0.08261(7) 0.48496(19)
O5 O 1.0182(2) 0.05240(9) 0.8566(2)
O6 O 0.8284(3) -0.01277(7) 0.7826(2)
N2 N 0.7625(3) 0.07077(8) 0.6937(2)
C23 C 1.1319(3) 0.03928(10) 0.2659(2)
C24 C 1.2990(4) 0.05731(11) 0.2941(3)
H25 H 1.3109 0.0848 0.3474
C25 C 1.4474(4) 0.03614(11) 0.2463(3)
H26 H 1.5606 0.0489 0.2670
C26 C 1.4316(4) -0.00362(11) 0.1686(3)
H27 H 1.5345 -0.0187 0.1375
C27 C 1.2683(4) -0.02165(10) 0.1355(3)
H28 H 1.2575 -0.0486 0.0797
C28 C 1.1195(3) -0.00008(10) 0.1846(3)
C29 C 0.9300(3) 0.03739(11) 0.4971(3)
C30 C 1.1027(4) 0.04385(12) 0.5696(3)
H29 H 1.1235 0.0729 0.6147
C31 C 1.2271(4) 0.01147(13) 0.5741(3)
C32 C 1.3550(5) -0.01832(14) 0.5730(4)
C33 C 0.8766(4) -0.01446(10) 0.4765(3)
H30 H 0.8625 -0.0297 0.5627
H31 H 0.9683 -0.0309 0.4277
H32 H 0.7648 -0.0159 0.4259
C34 C 0.7768(4) 0.06456(10) 0.5569(3)
C35 C 0.5979(3) 0.09498(10) 0.7341(3)
H33 H 0.4931 0.0768 0.7003
C36 C 0.5799(4) 0.14713(11) 0.6926(3)
H34 H 0.6909 0.1594 0.6562
H35 H 0.4829 0.1516 0.6265
C37 C 0.5384(4) 0.17093(12) 0.8244(3)
H36 H 0.5477 0.2062 0.8228
C38 C 0.3602(4) 0.15239(13) 0.8710(3)
H37 H 0.2718 0.1520 0.7973
H38 H 0.3152 0.1721 0.9438
C39 C 0.4014(4) 0.10160(13) 0.9198(3)
H39 H 0.3841 0.0985 1.0162
H40 H 0.3276 0.0779 0.8722
C40 C 0.5975(4) 0.09658(10) 0.8854(3)
C41 C 0.6890(4) 0.05256(11) 0.9368(3)
H41 H 0.6024 0.0268 0.9484
H42 H 0.7480 0.0590 1.0234
C42 C 0.6710(4) 0.14653(12) 0.9218(3)
C43 C 0.8637(4) 0.15604(12) 0.8906(3)
H43 H 0.9402 0.1396 0.9552
H44 H 0.8866 0.1901 0.8950
H45 H 0.8879 0.1445 0.8014
C44 C 0.6468(4) 0.15998(13) 1.0677(3)
H46 H 0.7267 0.1410 1.1239
H47 H 0.5246 0.1538 1.0920
H48 H 0.6734 0.1936 1.0801
H49 H 1.3848 -0.0432 0.6500
H50 H 1.4526 -0.0238 0.4827
loop_
_geom_bond_atom_site_label_1
_geom_bond_atom_site_label_2
_geom_bond_site_symmetry_1
_geom_bond_site_symmetry_2
Cl1 C1 1_555 1_555
Cl2 C28 1_555 1_555
S1 C6 1_555 1_555
S2 O2 1_555 1_555
S3 C23 1_555 1_555
S4 O5 1_555 1_555
O1 C12 1_555 1_555
O3 S2 1_555 1_555
O4 C34 1_555 1_555
O6 S4 1_555 1_555
N1 S2 1_555 1_555
N2 S4 1_555 1_555
C1 C2 1_555 1_555
C2 H1 1_555 1_555
C3 C2 1_555 1_555
H2 C3 1_555 1_555
C4 C3 1_555 1_555
H3 C4 1_555 1_555
C5 C4 1_555 1_555
H4 C5 1_555 1_555
C6 C1 1_555 1_555
C7 S1 1_555 1_555
C8 C7 1_555 1_555
H5 C8 1_555 1_555
C9 C8 1_555 1_555
C10 C9 1_555 1_555
C11 C7 1_555 1_555
H6 C11 1_555 1_555
H7 C11 1_555 1_555
H8 C11 1_555 1_555
C12 N1 1_555 1_555
C13 N1 1_555 1_555
H9 C13 1_555 1_555
C14 C13 1_555 1_555
H10 C14 1_555 1_555
H11 C14 1_555 1_555
C15 C14 1_555 1_555
H12 C15 1_555 1_555
C16 C15 1_555 1_555
H13 C16 1_555 1_555
H14 C16 1_555 1_555
C17 C16 1_555 1_555
H15 C17 1_555 1_555
H16 C17 1_555 1_555
C18 C13 1_555 1_555
C19 S2 1_555 1_555
H17 C19 1_555 1_555
H18 C19 1_555 1_555
C20 C15 1_555 1_555
C21 C20 1_555 1_555
H19 C21 1_555 1_555
H20 C21 1_555 1_555
H21 C21 1_555 1_555
C22 C20 1_555 1_555
H22 C22 1_555 1_555
H23 C22 1_555 1_555
H24 C22 1_555 1_555
C23 C24 1_555 1_555
C24 H25 1_555 1_555
C25 C24 1_555 1_555
H26 C25 1_555 1_555
C26 C25 1_555 1_555
H27 C26 1_555 1_555
C27 C26 1_555 1_555
H28 C27 1_555 1_555
C28 C23 1_555 1_555
C29 S3 1_555 1_555
C30 C29 1_555 1_555
H29 C30 1_555 1_555
C31 C30 1_555 1_555
C32 C31 1_555 1_555
C33 C29 1_555 1_555
H30 C33 1_555 1_555
H31 C33 1_555 1_555
H32 C33 1_555 1_555
C34 N2 1_555 1_555
C35 N2 1_555 1_555
H33 C35 1_555 1_555
C36 C35 1_555 1_555
H34 C36 1_555 1_555
H35 C36 1_555 1_555
C37 C36 1_555 1_555
H36 C37 1_555 1_555
C38 C37 1_555 1_555
H37 C38 1_555 1_555
H38 C38 1_555 1_555
C39 C38 1_555 1_555
H39 C39 1_555 1_555
H40 C39 1_555 1_555
C40 C35 1_555 1_555
C41 S4 1_555 1_555
H41 C41 1_555 1_555
H42 C41 1_555 1_555
C42 C37 1_555 1_555
C43 C42 1_555 1_555
H43 C43 1_555 1_555
H44 C43 1_555 1_555
H45 C43 1_555 1_555
C44 C42 1_555 1_555
H46 C44 1_555 1_555
H47 C44 1_555 1_555
H48 C44 1_555 1_555
H49 C32 1_555 1_555
H50 C32 1_555 1_555
H51 C10 1_555 1_555
H52 C10 1_555 1_555
C5 C6 1_555 1_555
C7 C12 1_555 1_555
C17 C18 1_555 1_555
C18 C19 1_555 1_555
C18 C20 1_555 1_555
C27 C28 1_555 1_555
C29 C34 1_555 1_555
C39 C40 1_555 1_555
C40 C41 1_555 1_555
C40 C42 1_555 1_555

#END
