
#######################################################################
#
#                 Cambridge Crystallographic Data Centre
#                                CCDC 
#
#######################################################################
#
# If this CIF has been generated from an entry in the Cambridge 
# Structural Database, then it will include bibliographic, chemical, 
# crystal, experimental, refinement or atomic coordinate data resulting 
# from the CCDC's data processing and validation procedures.
#
#######################################################################

data_MAYNUY
_chemical_formula_moiety         'C15 H18 O3'
_chemical_name_systematic        
8-hydroxy-3,5,8a-trimethyl-7,8,8a,9-tetrahydronaphtho[2,3-b]furan-4(4aH)-one
_symmetry_cell_setting           monoclinic
_symmetry_space_group_name_H-M   'P 21'
_symmetry_Int_Tables_number      4
_space_group_name_Hall           'P 2yb'
loop_
_symmetry_equiv_pos_site_id
_symmetry_equiv_pos_as_xyz
1 x,y,z
2 -x,1/2+y,-z
_cell_length_a                   7.53880(9)
_cell_length_b                   7.70864(9)
_cell_length_c                   11.05327(14)
_cell_angle_alpha                90
_cell_angle_beta                 98.8332(12)
_cell_angle_gamma                90
_cell_volume                     634.73
_cell_formula_units_Z            2
loop_
_atom_site_label
_atom_site_type_symbol
_atom_site_fract_x
_atom_site_fract_y
_atom_site_fract_z
O1 O -0.46515(12) -0.11928(11) -0.58567(7)
O2 O 0.00200(11) 0.04097(14) -0.29491(8)
O3 O -0.65074(11) 0.08608(11) -0.16725(8)
C1 C -0.43052(15) -0.09566(15) -0.24686(10)
C2 C -0.55694(16) -0.07566(16) -0.15152(11)
C3 C -0.33092(18) -0.26924(16) -0.22510(11)
C4 C -0.45163(18) -0.08008(17) -0.02244(11)
C5 C -0.54155(16) -0.09403(16) -0.37650(10)
C6 C -0.29248(16) 0.03891(16) -0.01060(11)
C7 C -0.41717(16) -0.07176(15) -0.46708(10)
C8 C -0.17646(17) -0.02967(16) -0.56165(11)
C9 C -0.16045(15) 0.03052(16) -0.32244(10)
C10 C -0.29656(15) 0.06013(15) -0.23477(10)
C11 C -0.07737(18) 0.24280(19) -0.08127(12)
C12 C -0.21977(15) 0.10408(15) -0.10319(11)
C13 C -0.24508(16) -0.01592(15) -0.44654(11)
C14 C 0.00725(19) 0.0135(2) -0.58726(12)
C15 C -0.31454(17) -0.09057(16) -0.64136(11)
H1 H -0.7543(6) 0.0690(2) -0.2002(13)
H2 H -0.64415(16) -0.17084(16) -0.16104(11)
H3 H -0.2431(9) -0.2613(4) -0.1526(5)
H4 H -0.4152(2) -0.3595(3) -0.2151(9)
H5 H -0.2722(11) -0.2955(6) -0.2941(4)
H6 H -0.52945(18) -0.04563(17) 0.03554(11)
H7 H -0.41115(18) -0.19761(17) -0.00277(11)
H8 H -0.60711(16) -0.20211(16) -0.39158(10)
H9 H -0.62747(16) 0.00049(16) -0.38364(10)
H10 H -0.24012(16) 0.06980(16) 0.06816(11)
H11 H -0.36737(15) 0.16140(15) -0.26658(10)
H12 H -0.0692(11) 0.2851(10) 0.0011(3)
H13 H 0.0362(3) 0.1950(4) -0.0933(10)
H14 H -0.1084(8) 0.3366(7) -0.1376(7)
H15 H 0.0372(7) 0.1300(6) -0.5610(10)
H16 H 0.0926(3) -0.0655(10) -0.5437(9)
H17 H 0.0100(5) 0.0037(16) -0.67354(19)
H18 H -0.31007(17) -0.11107(16) -0.72375(11)
loop_
_geom_bond_atom_site_label_1
_geom_bond_atom_site_label_2
_geom_bond_site_symmetry_1
_geom_bond_site_symmetry_2
O1 C7 1_555 1_555
O2 C9 1_555 1_555
O3 C2 1_555 1_555
C1 C2 1_555 1_555
C2 C4 1_555 1_555
C3 C1 1_555 1_555
C4 C6 1_555 1_555
C5 C1 1_555 1_555
C6 C12 1_555 1_555
C7 C5 1_555 1_555
C8 C13 1_555 1_555
C9 C10 1_555 1_555
C10 C1 1_555 1_555
C11 C12 1_555 1_555
C12 C10 1_555 1_555
C13 C7 1_555 1_555
C14 C8 1_555 1_555
C15 O1 1_555 1_555
H1 O3 1_555 1_555
H2 C2 1_555 1_555
H3 C3 1_555 1_555
H4 C3 1_555 1_555
H5 C3 1_555 1_555
H6 C4 1_555 1_555
H7 C4 1_555 1_555
H8 C5 1_555 1_555
H9 C5 1_555 1_555
H10 C6 1_555 1_555
H11 C10 1_555 1_555
H12 C11 1_555 1_555
H13 C11 1_555 1_555
H14 C11 1_555 1_555
H15 C14 1_555 1_555
H16 C14 1_555 1_555
H17 C14 1_555 1_555
H18 C15 1_555 1_555
C8 C15 1_555 1_555
C9 C13 1_555 1_555

#END
