
#######################################################################
#
#                 Cambridge Crystallographic Data Centre
#                                CCDC 
#
#######################################################################
#
# If this CIF has been generated from an entry in the Cambridge 
# Structural Database, then it will include bibliographic, chemical, 
# crystal, experimental, refinement or atomic coordinate data resulting 
# from the CCDC's data processing and validation procedures.
#
#######################################################################

data_MAYVIS
_chemical_formula_moiety         'C13 H11 F2 N3 O2 S1'
_chemical_name_systematic        
6,7-Difluoro-8-phenylsulfonyl-1,2,3,4-tetrahydropyrido(2,3-b)pyrazine
_symmetry_cell_setting           monoclinic
_symmetry_space_group_name_H-M   'P 21/c'
_symmetry_Int_Tables_number      14
_space_group_name_Hall           '-P 2ybc'
loop_
_symmetry_equiv_pos_site_id
_symmetry_equiv_pos_as_xyz
1 x,y,z
2 -x,1/2+y,1/2-z
3 -x,-y,-z
4 x,1/2-y,1/2+z
_cell_length_a                   14.4972(4)
_cell_length_b                   8.1056(2)
_cell_length_c                   10.8247(3)
_cell_angle_alpha                90
_cell_angle_beta                 95.1420(10)
_cell_angle_gamma                90
_cell_volume                     1266.88
_exptl_crystal_colour            yellow
_exptl_crystal_description       plate
_chemical_melting_point          '177.5-178.5 deg.C'
_cell_formula_units_Z            4
_exptl_crystal_recrystallization_method dichloromethane
loop_
_atom_site_label
_atom_site_type_symbol
_atom_site_fract_x
_atom_site_fract_y
_atom_site_fract_z
S1 S 0.79147(2) 0.14585(4) 0.43805(3)
F1 F 0.51482(6) 0.37876(10) 0.17618(8)
F2 F 0.64765(6) 0.39246(9) 0.37237(7)
O1 O 0.75128(8) 0.15811(12) 0.55437(9)
O2 O 0.85787(7) 0.01601(12) 0.42318(10)
N1 N 0.74541(8) -0.15210(13) 0.24636(11)
N2 N 0.59589(9) -0.14225(14) 0.07242(11)
N3 N 0.55820(8) 0.12086(13) 0.12878(10)
C1 C 0.70040(10) -0.30761(17) 0.20648(13)
C2 C 0.65522(10) -0.28607(17) 0.07597(13)
C3 C 0.57196(9) 0.24976(15) 0.20266(12)
C4 C 0.63913(9) 0.25859(15) 0.29803(11)
C5 C 0.70191(9) 0.12611(15) 0.31717(11)
C6 C 0.68993(9) -0.01325(15) 0.24135(11)
C7 C 0.61360(9) -0.00991(15) 0.14690(11)
C8 C 0.84607(9) 0.33559(15) 0.41010(12)
C9 C 0.84169(10) 0.46287(16) 0.49531(12)
C10 C 0.88664(10) 0.61051(17) 0.47477(14)
C11 C 0.93372(10) 0.62949(17) 0.36968(15)
C12 C 0.93703(10) 0.50202(18) 0.28434(14)
C13 C 0.89318(10) 0.35310(16) 0.30433(13)
H1 H 0.7888(13) -0.156(2) 0.3091(18)
H2 H 0.5499(13) -0.132(2) 0.0146(19)
H3 H 0.6518(13) -0.340(2) 0.2622(17)
H4 H 0.7475(12) -0.391(2) 0.2089(16)
H5 H 0.6197(12) -0.385(2) 0.0535(17)
H6 H 0.7037(12) -0.270(2) 0.0157(16)
H7 H 0.8084(12) 0.453(2) 0.5679(16)
H8 H 0.8861(12) 0.701(2) 0.5346(18)
H9 H 0.9620(12) 0.731(2) 0.3568(16)
H10 H 0.9684(13) 0.517(2) 0.2089(17)
H11 H 0.8945(12) 0.266(2) 0.2437(16)
loop_
_geom_bond_atom_site_label_1
_geom_bond_atom_site_label_2
_geom_bond_site_symmetry_1
_geom_bond_site_symmetry_2
S1 O1 1_555 1_555
F1 C3 1_555 1_555
F2 C4 1_555 1_555
O2 S1 1_555 1_555
N1 C1 1_555 1_555
N2 C2 1_555 1_555
N3 C3 1_555 1_555
C1 C2 1_555 1_555
C2 H5 1_555 1_555
C3 C4 1_555 1_555
C4 C5 1_555 1_555
C5 S1 1_555 1_555
C6 N1 1_555 1_555
C7 N2 1_555 1_555
C8 S1 1_555 1_555
C9 C8 1_555 1_555
C10 C9 1_555 1_555
C11 C10 1_555 1_555
C12 C11 1_555 1_555
C13 C8 1_555 1_555
H1 N1 1_555 1_555
H2 N2 1_555 1_555
H3 C1 1_555 1_555
H4 C1 1_555 1_555
H6 C2 1_555 1_555
H7 C9 1_555 1_555
H8 C10 1_555 1_555
H9 C11 1_555 1_555
H10 C12 1_555 1_555
H11 C13 1_555 1_555
N3 C7 1_555 1_555
C5 C6 1_555 1_555
C6 C7 1_555 1_555
C12 C13 1_555 1_555

#END
