
#######################################################################
#
#                 Cambridge Crystallographic Data Centre
#                                CCDC 
#
#######################################################################
#
# If this CIF has been generated from an entry in the Cambridge 
# Structural Database, then it will include bibliographic, chemical, 
# crystal, experimental, refinement or atomic coordinate data resulting 
# from the CCDC's data processing and validation procedures.
#
#######################################################################

data_MAYVUE
_chemical_formula_moiety         'C14 H13 F2 N3 O2 S1'
_chemical_name_systematic        
6,7-Difluoro-8-phenylsulfonyl-4-methyl-1,2,3,4-tetrahydropyrido(2,3-b)pyrazine
_symmetry_cell_setting           triclinic
_symmetry_space_group_name_H-M   'P -1'
_symmetry_Int_Tables_number      2
_space_group_name_Hall           '-P 1'
loop_
_symmetry_equiv_pos_site_id
_symmetry_equiv_pos_as_xyz
1 x,y,z
2 -x,-y,-z
_cell_length_a                   7.7158(1)
_cell_length_b                   9.1000(1)
_cell_length_c                   10.1603(2)
_cell_angle_alpha                94.951(1)
_cell_angle_beta                 99.041(1)
_cell_angle_gamma                97.375(1)
_cell_volume                     694.56
_exptl_crystal_colour            'light yellow'
_exptl_crystal_description       prism
_chemical_melting_point          '148.0-150.0 deg.C'
_cell_formula_units_Z            2
_exptl_crystal_recrystallization_method toluene
loop_
_atom_site_label
_atom_site_type_symbol
_atom_site_fract_x
_atom_site_fract_y
_atom_site_fract_z
S1 S 0.35986(4) 0.74607(3) 0.83218(3)
F1 F 0.10585(11) 0.69734(9) 0.33490(7)
F2 F 0.18977(11) 0.57885(8) 0.56519(7)
O1 O 0.40741(12) 0.60085(9) 0.80291(9)
O2 O 0.48755(11) 0.85475(9) 0.92157(8)
N1 N 0.39252(15) 1.08456(11) 0.77742(10)
N2 N 0.32384(15) 1.17332(12) 0.52179(10)
N3 N 0.21270(14) 0.93125(12) 0.43283(10)
C1 C 0.47041(17) 1.23208(13) 0.75367(12)
C2 C 0.35418(19) 1.28447(14) 0.63838(13)
C3 C 0.18440(16) 0.78801(14) 0.44667(11)
C4 C 0.22722(15) 0.72754(13) 0.56322(12)
C5 C 0.30553(15) 0.82387(12) 0.67948(11)
C6 C 0.33317(15) 0.97785(12) 0.67137(11)
C7 C 0.28731(15) 1.02594(13) 0.53936(11)
C8 C 0.16110(16) 0.72750(13) 0.89773(11)
C9 C 0.02883(17) 0.61040(15) 0.84161(13)
C10 C -0.12959(19) 0.59708(19) 0.89130(15)
C11 C -0.15140(19) 0.6975(2) 0.99582(16)
C12 C -0.0187(2) 0.81256(18) 1.05153(15)
C13 C 0.14020(19) 0.83009(15) 1.00154(13)
C14 C 0.2542(2) 1.22208(17) 0.39351(14)
H1 H 0.433(2) 1.059(2) 0.854(2)
H2 H 0.591(2) 1.2292(18) 0.7373(17)
H3 H 0.476(2) 1.3009(17) 0.8343(15)
H4 H 0.417(2) 1.378(2) 0.6147(18)
H5 H 0.239(2) 1.3041(19) 0.6643(17)
H6 H 0.283(2) 1.161(2) 0.3196(19)
H7 H 0.128(3) 1.216(2) 0.382(2)
H8 H 0.313(3) 1.322(2) 0.387(2)
H9 H 0.049(2) 0.5427(19) 0.7705(18)
H10 H -0.221(3) 0.516(2) 0.8540(19)
H11 H -0.255(3) 0.687(2) 1.028(2)
H12 H -0.033(3) 0.877(2) 1.125(2)
H13 H 0.228(2) 0.913(2) 1.0400(17)
loop_
_geom_bond_atom_site_label_1
_geom_bond_atom_site_label_2
_geom_bond_site_symmetry_1
_geom_bond_site_symmetry_2
S1 O1 1_555 1_555
F1 C3 1_555 1_555
F2 C4 1_555 1_555
O2 S1 1_555 1_555
N1 C1 1_555 1_555
N2 C2 1_555 1_555
N3 C3 1_555 1_555
C1 C2 1_555 1_555
C2 H4 1_555 1_555
C3 C4 1_555 1_555
C4 C5 1_555 1_555
C5 S1 1_555 1_555
C6 N1 1_555 1_555
C7 N2 1_555 1_555
C8 S1 1_555 1_555
C9 C8 1_555 1_555
C10 C9 1_555 1_555
C11 C10 1_555 1_555
C12 C11 1_555 1_555
C13 C8 1_555 1_555
C14 N2 1_555 1_555
H1 N1 1_555 1_555
H2 C1 1_555 1_555
H3 C1 1_555 1_555
H5 C2 1_555 1_555
H6 C14 1_555 1_555
H7 C14 1_555 1_555
H8 C14 1_555 1_555
H9 C9 1_555 1_555
H10 C10 1_555 1_555
H11 C11 1_555 1_555
H12 C12 1_555 1_555
H13 C13 1_555 1_555
N3 C7 1_555 1_555
C5 C6 1_555 1_555
C6 C7 1_555 1_555
C12 C13 1_555 1_555

#END
