
#######################################################################
#
#                 Cambridge Crystallographic Data Centre
#                                CCDC 
#
#######################################################################
#
# If this CIF has been generated from an entry in the Cambridge 
# Structural Database, then it will include bibliographic, chemical, 
# crystal, experimental, refinement or atomic coordinate data resulting 
# from the CCDC's data processing and validation procedures.
#
#######################################################################

data_MAYWEP
_chemical_formula_moiety         'C14 H13 F2 N3 O2 S1'
_chemical_name_systematic        
6,7-Difluoro-8-phenylsulfonyl-2-methyl-1,2,3,4-tetrahydropyrido(2,3-b)pyrazine
_symmetry_cell_setting           triclinic
_symmetry_space_group_name_H-M   'P -1'
_symmetry_Int_Tables_number      2
_space_group_name_Hall           '-P 1'
loop_
_symmetry_equiv_pos_site_id
_symmetry_equiv_pos_as_xyz
1 x,y,z
2 -x,-y,-z
_cell_length_a                   10.1943(5)
_cell_length_b                   10.5803(6)
_cell_length_c                   14.7937(8)
_cell_angle_alpha                105.942(2)
_cell_angle_beta                 103.247(2)
_cell_angle_gamma                105.640(2)
_cell_volume                     1396
_exptl_crystal_colour            yellow
_exptl_crystal_description       plate
_chemical_melting_point          '179.0-181.0 deg.C'
_cell_formula_units_Z            4
_exptl_crystal_recrystallization_method toluene
loop_
_atom_site_label
_atom_site_type_symbol
_atom_site_fract_x
_atom_site_fract_y
_atom_site_fract_z
S1 S 0.83699(5) 0.64592(5) 0.32880(3)
F1 F 0.54390(13) 0.84620(12) 0.12003(9)
F2 F 0.78235(12) 0.87233(11) 0.25944(8)
O1 O 0.96263(13) 0.74858(15) 0.33039(10)
O2 O 0.83975(14) 0.50725(14) 0.31849(10)
N1 N 0.56062(18) 0.37393(17) 0.19585(13)
H1 H 0.638(3) 0.375(2) 0.2366(17)
N2 N 0.33004(18) 0.38064(17) 0.06190(12)
H2 H 0.2563 0.3828 0.0184
N3 N 0.44436(17) 0.61482(17) 0.09135(11)
C2 C 0.4657(4) 0.2465(4) 0.1263(3)
H4 H 0.5087 0.2201 0.0728
C3 C 0.3208(2) 0.2515(2) 0.07757(19)
H5 H 0.2991 0.2788 0.1384
H7 H 0.232(2) 0.182(2) 0.0460(17)
C4 C 0.5562(2) 0.7324(2) 0.14090(14)
C5 C 0.67662(19) 0.74561(19) 0.21033(13)
C6 C 0.68544(18) 0.62610(19) 0.23219(13)
C7 C 0.56965(19) 0.49924(19) 0.18209(13)
C8 C 0.4473(2) 0.4997(2) 0.11106(13)
C9 C 0.79595(18) 0.71319(19) 0.43800(13)
C10 C 0.8874(2) 0.8411(2) 0.50832(15)
H8 H 0.9724 0.8918 0.4990
C11 C 0.8542(3) 0.8959(2) 0.59347(16)
H9 H 0.9161 0.9845 0.6426
C12 C 0.7319(2) 0.8214(2) 0.60601(14)
H10 H 0.7083 0.8597 0.6635
C13 C 0.6424(2) 0.6915(2) 0.53650(15)
H11 H 0.5588 0.6400 0.5469
C14 C 0.6739(2) 0.6360(2) 0.45171(14)
H12 H 0.6128 0.5463 0.4035
C15 C 0.4450(3) 0.1296(2) 0.17078(19)
H26 H 0.489(2) 0.138(2) 0.2330(18)
H27 H 0.363(3) 0.054(3) 0.1478(17)
H28 H 0.483(3) 0.092(3) 0.1311(17)
S2 S 0.32112(5) 0.64197(5) 0.31849(3)
F3 F 0.01989(13) 0.84105(12) 0.11447(9)
F4 F 0.26327(12) 0.86703(11) 0.24930(9)
O3 O 0.44566(14) 0.74128(15) 0.31563(10)
O4 O 0.32187(14) 0.50418(14) 0.31331(10)
N4 N 0.04672(18) 0.36738(17) 0.18413(13)
H13 H 0.125(2) 0.372(2) 0.2306(17)
N5 N -0.18665(18) 0.37355(17) 0.05299(12)
H14 H -0.2610 0.3751 0.0097
N6 N -0.07689(17) 0.60879(17) 0.08490(11)
C17 C -0.0504(5) 0.2398(5) 0.1190(3)
H16 H -0.0088 0.2122 0.0649
C18 C -0.1936(2) 0.2449(2) 0.0681(2)
H17 H -0.2146 0.2729 0.1291
H19 H -0.274(2) 0.177(2) 0.0412(17)
C19 C 0.0350(2) 0.7269(2) 0.13363(14)
C20 C 0.1573(2) 0.73963(19) 0.20059(14)
C21 C 0.16780(19) 0.6198(2) 0.22128(13)
C22 C 0.05278(19) 0.49242(19) 0.17190(13)
C23 C -0.0711(2) 0.4929(2) 0.10228(13)
C24 C 0.28488(18) 0.7170(2) 0.42779(13)
C25 C 0.3349(2) 0.8620(2) 0.47156(15)
H20 H 0.3854 0.9196 0.4423
C26 C 0.3097(2) 0.9219(2) 0.55948(16)
H21 H 0.3448 1.0212 0.5916
C27 C 0.2331(2) 0.8358(2) 0.59947(15)
H22 H 0.2172 0.8764 0.6599
C28 C 0.1797(2) 0.6919(2) 0.55274(15)
H23 H 0.1246 0.6343 0.5799
C29 C 0.2057(2) 0.6306(2) 0.46627(14)
H24 H 0.1698 0.5313 0.4341
C30 C -0.0688(3) 0.1228(2) 0.16042(19)
H25 H -0.005(2) 0.136(2) 0.2227(18)
H29 H -0.154(3) 0.052(2) 0.1430(17)
H30 H 0.000(2) 0.101(2) 0.1298(16)
C1? C 0.4146(4) 0.2612(4) 0.1685(3)
H3? H 0.3721 0.2896 0.2219
H6? H 0.3740 0.2214 0.0357
C16? C -0.0993(4) 0.2551(3) 0.1579(2)
H15? H -0.1408 0.2844 0.2118
H18? H -0.1420 0.2142 0.0250
loop_
_geom_bond_atom_site_label_1
_geom_bond_atom_site_label_2
_geom_bond_site_symmetry_1
_geom_bond_site_symmetry_2
S1 O1 1_555 1_555
F1 C4 1_555 1_555
F2 C5 1_555 1_555
O2 S1 1_555 1_555
N1 H1 1_555 1_555
N2 H2 1_555 1_555
N3 C4 1_555 1_555
C2 N1 1_555 1_555
H4 C2 1_555 1_555
C3 N2 1_555 1_555
H5 C3 1_555 1_555
H7 C3 1_555 1_555
C4 C5 1_555 1_555
C5 C6 1_555 1_555
C6 S1 1_555 1_555
C7 N1 1_555 1_555
C8 N2 1_555 1_555
C9 S1 1_555 1_555
C10 C9 1_555 1_555
H8 C10 1_555 1_555
C11 C10 1_555 1_555
H9 C11 1_555 1_555
C12 C11 1_555 1_555
H10 C12 1_555 1_555
C13 C12 1_555 1_555
H11 C13 1_555 1_555
C14 C9 1_555 1_555
H12 C14 1_555 1_555
C15 C2 1_555 1_555
S2 O3 1_555 1_555
F3 C19 1_555 1_555
F4 C20 1_555 1_555
O4 S2 1_555 1_555
N4 H13 1_555 1_555
N5 H14 1_555 1_555
N6 C19 1_555 1_555
C17 N4 1_555 1_555
H16 C17 1_555 1_555
C18 N5 1_555 1_555
H17 C18 1_555 1_555
H19 C18 1_555 1_555
C19 C20 1_555 1_555
C20 C21 1_555 1_555
C21 S2 1_555 1_555
C22 N4 1_555 1_555
C23 N5 1_555 1_555
C24 S2 1_555 1_555
C25 C24 1_555 1_555
H20 C25 1_555 1_555
C26 C25 1_555 1_555
H21 C26 1_555 1_555
C27 C26 1_555 1_555
H22 C27 1_555 1_555
C28 C27 1_555 1_555
H23 C28 1_555 1_555
C29 C24 1_555 1_555
H24 C29 1_555 1_555
C30 C17 1_555 1_555
H25 C30 1_555 1_555
H26 C15 1_555 1_555
H27 C15 1_555 1_555
H28 C15 1_555 1_555
H29 C30 1_555 1_555
H30 C30 1_555 1_555
N3 C8 1_555 1_555
C2 C3 1_555 1_555
C6 C7 1_555 1_555
C7 C8 1_555 1_555
C13 C14 1_555 1_555
N6 C23 1_555 1_555
C17 C18 1_555 1_555
C21 C22 1_555 1_555
C22 C23 1_555 1_555
C28 C29 1_555 1_555

#END
