
#######################################################################
#
#                 Cambridge Crystallographic Data Centre
#                                CCDC 
#
#######################################################################
#
# If this CIF has been generated from an entry in the Cambridge 
# Structural Database, then it will include bibliographic, chemical, 
# crystal, experimental, refinement or atomic coordinate data resulting 
# from the CCDC's data processing and validation procedures.
#
#######################################################################

data_MAZBIA
_chemical_compound_source        'Ehretia longiflora roots'
_chemical_name_common            ehretiquinone
_chemical_formula_moiety         'C22 H20 O4'
_chemical_name_systematic        
6-Hydroxy-16-methyl-10-(3-methylbuta-1,3-dien-1-yl)-2-oxatetracyclo[7.5.3.0^1,10^.0^3,8^]heptadeca-3,5,7,12,15-pentaene-11,14-dione
_chemical_properties_biological  
'anti-inflammatory activity, antitubercular activity'
_symmetry_cell_setting           triclinic
_symmetry_space_group_name_H-M   'P -1'
_symmetry_Int_Tables_number      2
_space_group_name_Hall           '-P 1'
loop_
_symmetry_equiv_pos_site_id
_symmetry_equiv_pos_as_xyz
1 x,y,z
2 -x,-y,-z
_cell_length_a                   9.0997(5)
_cell_length_b                   13.4867(7)
_cell_length_c                   15.4748(8)
_cell_angle_alpha                110.6280(10)
_cell_angle_beta                 92.1250(10)
_cell_angle_gamma                95.9710(10)
_cell_volume                     1762.19
_exptl_crystal_colour            red
_exptl_crystal_description       plate
_cell_formula_units_Z            4
_exptl_crystal_recrystallization_method dichloromethane
loop_
_atom_site_label
_atom_site_type_symbol
_atom_site_fract_x
_atom_site_fract_y
_atom_site_fract_z
O1 O 0.9483(2) 0.52996(14) 0.63783(13)
O2 O 0.78373(19) 0.11948(13) 0.57982(13)
O3 O 0.1689(2) 0.07710(15) 0.56155(14)
H1 H 0.1774 0.0227 0.5175
O4 O 0.63933(18) 0.39314(13) 0.61596(12)
C1 C 0.5264(3) 0.30909(19) 0.59925(17)
C2 C 0.5191(3) 0.21447(19) 0.52325(17)
C3 C 0.3998(3) 0.1352(2) 0.51075(17)
H2 H 0.3946 0.0709 0.4610
C4 C 0.2893(3) 0.1517(2) 0.57177(18)
C5 C 0.2999(3) 0.2465(2) 0.64809(18)
H3 H 0.2267 0.2572 0.6897
C6 C 0.4184(3) 0.3247(2) 0.66232(18)
H4 H 0.4259 0.3875 0.7138
C7 C 0.6417(3) 0.2016(2) 0.45794(17)
H5 H 0.6510 0.1257 0.4273
C8 C 0.6111(3) 0.2506(2) 0.38569(18)
H6 H 0.6529 0.2079 0.3299
H7 H 0.5045 0.2393 0.3719
C9 C 0.6544(3) 0.3520(2) 0.39758(18)
C10 C 0.7436(3) 0.4267(2) 0.48478(18)
H8 H 0.7822 0.4961 0.4923
C11 C 0.6212(3) 0.4008(2) 0.3272(2)
H9 H 0.5766 0.3461 0.2712
H10 H 0.7115 0.4349 0.3145
H11 H 0.5541 0.4528 0.3506
C12 C 0.8199(3) 0.2135(2) 0.59170(17)
C13 C 0.7867(3) 0.25968(19) 0.51678(17)
C14 C 0.7650(3) 0.37860(19) 0.55926(17)
C15 C 0.8923(3) 0.44163(19) 0.63166(17)
C16 C 0.9416(3) 0.3895(2) 0.69521(18)
H12 H 0.9991 0.4307 0.7494
C17 C 0.9063(3) 0.2852(2) 0.67752(18)
H13 H 0.9372 0.2568 0.7208
C18 C 0.9232(3) 0.2478(2) 0.46109(17)
H14 H 0.9874 0.3088 0.4676
C19 C 0.9543(3) 0.1542(2) 0.40383(18)
H15 H 0.8868 0.0948 0.3970
C20 C 1.0841(3) 0.1356(2) 0.35067(19)
C21 C 1.0995(4) 0.0350(3) 0.2975(2)
H16 H 1.0283 -0.0208 0.2952
H17 H 1.1814 0.0210 0.2629
C22 C 1.1965(3) 0.2293(3) 0.3597(3)
H18 H 1.2735 0.2056 0.3194
H19 H 1.2386 0.2611 0.4226
H20 H 1.1491 0.2811 0.3430
O5 O 0.69358(19) -0.01671(14) 1.02800(14)
O6 O 0.88043(18) 0.39885(13) 1.13082(12)
O7 O 1.25902(18) 0.43061(14) 0.87584(13)
H21 H 1.2146 0.4799 0.8742
O8 O 0.89174(18) 0.11220(13) 0.93666(12)
C23 C 0.9778(3) 0.19588(18) 0.92203(17)
C24 C 0.9223(3) 0.28873(18) 0.92550(16)
C25 C 1.0162(3) 0.36890(18) 0.91081(16)
H22 H 0.9812 0.4325 0.9143
C26 C 1.1618(3) 0.35421(19) 0.89102(16)
C27 C 1.2147(3) 0.25936(19) 0.88571(17)
H23 H 1.3116 0.2490 0.8711
C28 C 1.1230(3) 0.18018(19) 0.90218(17)
H24 H 1.1584 0.1172 0.8999
C29 C 0.7603(3) 0.29716(18) 0.94416(17)
H25 H 0.7435 0.3723 0.9675
C30 C 0.6616(3) 0.23665(19) 0.85611(17)
H26 H 0.5791 0.2771 0.8575
H27 H 0.7178 0.2407 0.8052
C31 C 0.6035(3) 0.1349(2) 0.83273(17)
C32 C 0.6273(3) 0.07240(19) 0.89475(18)
H28 H 0.5741 0.0065 0.8861
C33 C 0.5075(3) 0.0758(2) 0.74489(19)
H29 H 0.5000 0.1215 0.7097
H30 H 0.4105 0.0545 0.7596
H31 H 0.5506 0.0136 0.7091
C34 C 0.8349(2) 0.30358(19) 1.10565(17)
C35 C 0.7285(3) 0.24765(18) 1.01848(17)
C36 C 0.7476(3) 0.12832(18) 0.97297(17)
C37 C 0.7531(3) 0.07415(19) 1.04484(19)
C38 C 0.8363(3) 0.1359(2) 1.13470(19)
H32 H 0.8642 0.0999 1.1729
C39 C 0.8731(3) 0.2416(2) 1.16326(19)
H33 H 0.9241 0.2770 1.2210
C40 C 0.5748(3) 0.25878(19) 1.05482(17)
H34 H 0.5257 0.2016 1.0668
C41 C 0.5073(3) 0.34561(19) 1.07027(17)
H35 H 0.5539 0.3994 1.0526
C42 C 0.3666(3) 0.3646(2) 1.11255(17)
C43 C 0.3193(3) 0.4590(3) 1.1293(2)
H36 H 0.3752 0.5115 1.1142
H37 H 0.2302 0.4726 1.1561
C44 C 0.2830(3) 0.2778(3) 1.1377(2)
H38 H 0.1935 0.3015 1.1643
H39 H 0.3434 0.2614 1.1819
H40 H 0.2588 0.2151 1.0831
loop_
_geom_bond_atom_site_label_1
_geom_bond_atom_site_label_2
_geom_bond_site_symmetry_1
_geom_bond_site_symmetry_2
O1 C15 1_555 1_555
O2 C12 1_555 1_555
O3 H1 1_555 1_555
O4 C1 1_555 1_555
C1 C2 1_555 1_555
C2 C3 1_555 1_555
C3 H2 1_555 1_555
C4 O3 1_555 1_555
C5 C4 1_555 1_555
H3 C5 1_555 1_555
C6 C1 1_555 1_555
H4 C6 1_555 1_555
C7 C2 1_555 1_555
H5 C7 1_555 1_555
C8 C7 1_555 1_555
H6 C8 1_555 1_555
H7 C8 1_555 1_555
C9 C8 1_555 1_555
C10 C9 1_555 1_555
H8 C10 1_555 1_555
C11 C9 1_555 1_555
H9 C11 1_555 1_555
H10 C11 1_555 1_555
H11 C11 1_555 1_555
C12 C13 1_555 1_555
C13 C7 1_555 1_555
C14 O4 1_555 1_555
C15 C14 1_555 1_555
C16 C15 1_555 1_555
H12 C16 1_555 1_555
C17 C12 1_555 1_555
H13 C17 1_555 1_555
C18 C13 1_555 1_555
H14 C18 1_555 1_555
C19 C18 1_555 1_555
H15 C19 1_555 1_555
C20 C19 1_555 1_555
C21 C20 1_555 1_555
H16 C21 1_555 1_555
H17 C21 1_555 1_555
C22 C20 1_555 1_555
H18 C22 1_555 1_555
H19 C22 1_555 1_555
H20 C22 1_555 1_555
O5 C37 1_555 1_555
O6 C34 1_555 1_555
O7 H21 1_555 1_555
O8 C23 1_555 1_555
C23 C24 1_555 1_555
C24 C25 1_555 1_555
C25 H22 1_555 1_555
C26 O7 1_555 1_555
C27 C26 1_555 1_555
H23 C27 1_555 1_555
C28 C23 1_555 1_555
H24 C28 1_555 1_555
C29 C24 1_555 1_555
H25 C29 1_555 1_555
C30 C29 1_555 1_555
H26 C30 1_555 1_555
H27 C30 1_555 1_555
C31 C30 1_555 1_555
C32 C31 1_555 1_555
H28 C32 1_555 1_555
C33 C31 1_555 1_555
H29 C33 1_555 1_555
H30 C33 1_555 1_555
H31 C33 1_555 1_555
C34 C35 1_555 1_555
C35 C29 1_555 1_555
C36 O8 1_555 1_555
C37 C36 1_555 1_555
C38 C37 1_555 1_555
H32 C38 1_555 1_555
C39 C34 1_555 1_555
H33 C39 1_555 1_555
C40 C35 1_555 1_555
H34 C40 1_555 1_555
C41 C40 1_555 1_555
H35 C41 1_555 1_555
C42 C41 1_555 1_555
C43 C42 1_555 1_555
H36 C43 1_555 1_555
H37 C43 1_555 1_555
C44 C42 1_555 1_555
H38 C44 1_555 1_555
H39 C44 1_555 1_555
H40 C44 1_555 1_555
C3 C4 1_555 1_555
C5 C6 1_555 1_555
C10 C14 1_555 1_555
C13 C14 1_555 1_555
C16 C17 1_555 1_555
C25 C26 1_555 1_555
C27 C28 1_555 1_555
C32 C36 1_555 1_555
C35 C36 1_555 1_555
C38 C39 1_555 1_555

#END
