
#######################################################################
#
#                 Cambridge Crystallographic Data Centre
#                                CCDC 
#
#######################################################################
#
# If this CIF has been generated from an entry in the Cambridge 
# Structural Database, then it will include bibliographic, chemical, 
# crystal, experimental, refinement or atomic coordinate data resulting 
# from the CCDC's data processing and validation procedures.
#
#######################################################################

data_MAZDAU
_chemical_compound_source        'Dracocephalum heterophyllum'
_chemical_name_common            Drahebenine
_chemical_formula_moiety         'C13 H16 N2 O2'
_chemical_name_systematic        
2-Methoxy-4-(2,2,5-trimethyl-2H-imidazol-4-yl)phenol
_symmetry_cell_setting           orthorhombic
_symmetry_space_group_name_H-M   'A m a 2'
_symmetry_Int_Tables_number      40
_space_group_name_Hall           'A 2 -2a'
loop_
_symmetry_equiv_pos_site_id
_symmetry_equiv_pos_as_xyz
1 x,y,z
2 -x,-y,z
3 1/2-x,y,z
4 1/2+x,-y,z
5 x,1/2+y,1/2+z
6 -x,1/2-y,1/2+z
7 1/2-x,1/2+y,1/2+z
8 1/2+x,1/2-y,1/2+z
_cell_length_a                   7.1166(14)
_cell_length_b                   18.108(4)
_cell_length_c                   9.1690(18)
_cell_angle_alpha                90
_cell_angle_beta                 90
_cell_angle_gamma                90
_cell_volume                     1181.59
_exptl_crystal_colour            colorless
_exptl_crystal_description       prism
_cell_formula_units_Z            4
_exptl_crystal_recrystallization_method methanol
loop_
_atom_site_label
_atom_site_type_symbol
_atom_site_fract_x
_atom_site_fract_y
_atom_site_fract_z
C1 C 0.2500 0.73374(13) 0.3426(3)
H1 H 0.2500 0.7820 0.3319
H2 H 0.1393 0.7138 0.2939
C2 C 0.2500 0.64384(11) 0.5324(2)
C3 C 0.2500 0.63072(12) 0.6830(3)
C4 C 0.2500 0.55837(13) 0.7310(2)
H3 H 0.2500 0.5487 0.8306
C5 C 0.2500 0.49996(12) 0.6334(3)
H4 H 0.2500 0.4517 0.6683
C6 C 0.2500 0.51258(12) 0.4840(3)
C7 C 0.2500 0.58592(12) 0.4362(2)
H5 H 0.2500 0.5956 0.3366
C8 C 0.2500 0.45423(11) 0.3709(2)
C9 C 0.2500 0.37166(11) 0.3885(3)
C10 C 0.2500 0.32774(12) 0.5265(3)
H6 H 0.1367 0.3380 0.5839
H7 H 0.2500 0.2712 0.4953
C11 C 0.2500 0.40038(12) 0.1534(3)
C12 C 0.0723(2) 0.39527(8) 0.0609(2)
H8 H -0.0345 0.4092 0.1187
H9 H 0.0565 0.3455 0.0271
H10 H 0.0829 0.4279 -0.0212
N1 N 0.2500 0.47033(10) 0.2347(2)
N2 N 0.2500 0.34104(9) 0.2634(2)
O1 O 0.2500 0.71710(9) 0.4943(2)
O2 O 0.2500 0.68617(9) 0.78140(18)
H11 H 0.2500 0.7367 0.7670
H2B H 0.3607 0.7138 0.2939
H6B H 0.3633 0.3380 0.5839
C12B C 0.4277(2) 0.39527(8) 0.0609(2)
H8B H 0.5345 0.4092 0.1187
H9B H 0.4435 0.3455 0.0271
H10B H 0.4171 0.4279 -0.0212
loop_
_geom_bond_atom_site_label_1
_geom_bond_atom_site_label_2
_geom_bond_site_symmetry_1
_geom_bond_site_symmetry_2
C1 H1 1_555 1_555
H2 C1 1_555 1_555
C2 C3 1_555 1_555
C3 C4 1_555 1_555
C4 H3 1_555 1_555
C5 C4 1_555 1_555
H4 C5 1_555 1_555
C6 C5 1_555 1_555
C7 C2 1_555 1_555
H5 C7 1_555 1_555
C8 C6 1_555 1_555
C9 C8 1_555 1_555
C10 C9 1_555 1_555
H6 C10 1_555 1_555
H7 C10 1_555 1_555
C11 C12 1_555 1_555
C12 H8 1_555 1_555
H9 C12 1_555 1_555
H10 C12 1_555 1_555
N1 C8 1_555 1_555
N2 C9 1_555 1_555
O1 C1 1_555 1_555
O2 C3 1_555 1_555
H11 O2 1_555 1_555
H2B C1 1_555 1_555
H6B C10 1_555 1_555
C12B C11 1_555 1_555
H8B C12B 1_555 1_555
H9B C12B 1_555 1_555
H10B C12B 1_555 1_555
C2 O1 1_555 1_555
C6 C7 1_555 1_555
C11 N1 1_555 1_555
C11 N2 1_555 1_555

#END
