
#######################################################################
#
#                 Cambridge Crystallographic Data Centre
#                                CCDC 
#
#######################################################################
#
# If this CIF has been generated from an entry in the Cambridge 
# Structural Database, then it will include bibliographic, chemical, 
# crystal, experimental, refinement or atomic coordinate data resulting 
# from the CCDC's data processing and validation procedures.
#
#######################################################################

data_MAZFEA
_chemical_formula_moiety         'C11 H12 Br2 O3 S1'
_chemical_name_systematic        
'3,4-Dibromobut-3-en-1-yl 4-methylbenzenesulfonate'
_symmetry_cell_setting           orthorhombic
_symmetry_space_group_name_H-M   'P n a 21'
_symmetry_Int_Tables_number      33
_space_group_name_Hall           'P 2c -2n'
loop_
_symmetry_equiv_pos_site_id
_symmetry_equiv_pos_as_xyz
1 x,y,z
2 -x,-y,1/2+z
3 1/2-x,1/2+y,1/2+z
4 1/2+x,1/2-y,z
_cell_length_a                   25.2886(1)
_cell_length_b                   9.3091(3)
_cell_length_c                   5.8133(8)
_cell_angle_alpha                90
_cell_angle_beta                 90
_cell_angle_gamma                90
_cell_volume                     1368.53
_exptl_crystal_colour            colorless
_exptl_crystal_description       needle
_cell_formula_units_Z            4
loop_
_atom_site_label
_atom_site_type_symbol
_atom_site_fract_x
_atom_site_fract_y
_atom_site_fract_z
Br1 Br 0.885059(19) 1.03300(5) 0.27702(9)
Br2 Br 0.804126(16) 1.13746(4) -0.15887(12)
S1 S 0.64668(4) 1.02997(11) 0.14647(19)
O1 O 0.69525(10) 0.9282(3) 0.0965(6)
O2 O 0.64567(12) 1.0409(4) 0.3911(5)
O3 O 0.65097(12) 1.1569(3) 0.0107(6)
C1 C 0.83557(18) 0.9119(5) 0.1342(9)
H1 H 0.8334 0.8155 0.1872
C2 C 0.80368(16) 0.9502(4) -0.0335(8)
C3 C 0.76553(15) 0.8473(4) -0.1465(10)
H2 H 0.7669 0.7540 -0.0649
H3 H 0.7768 0.8307 -0.3074
C4 C 0.70872(16) 0.9018(5) -0.1460(9)
H4 H 0.7058 0.9916 -0.2365
H5 H 0.6847 0.8292 -0.2133
C5 C 0.59205(16) 0.9308(4) 0.0503(8)
C6 C 0.57104(17) 0.8230(4) 0.1877(8)
H6 H 0.5859 0.8025 0.3342
C7 C 0.52803(18) 0.7460(5) 0.1070(9)
H7 H 0.5133 0.6724 0.2004
C8 C 0.50589(16) 0.7738(5) -0.1078(8)
C9 C 0.52704(17) 0.8835(4) -0.2402(9)
H8 H 0.5120 0.9043 -0.3862
C10 C 0.56972(15) 0.9633(4) -0.1633(8)
H9 H 0.5836 1.0391 -0.2545
C11 C 0.45943(18) 0.6862(5) -0.1919(11)
H10 H 0.4646 0.5852 -0.1502
H11 H 0.4567 0.6948 -0.3595
H12 H 0.4269 0.7219 -0.1205
loop_
_geom_bond_atom_site_label_1
_geom_bond_atom_site_label_2
_geom_bond_site_symmetry_1
_geom_bond_site_symmetry_2
Br1 C1 1_555 1_555
Br2 C2 1_555 1_555
S1 O1 1_555 1_555
O1 C4 1_555 1_555
O2 S1 1_555 1_555
O3 S1 1_555 1_555
C1 H1 1_555 1_555
C2 C1 1_555 1_555
C3 C2 1_555 1_555
H2 C3 1_555 1_555
H3 C3 1_555 1_555
C4 C3 1_555 1_555
H4 C4 1_555 1_555
H5 C4 1_555 1_555
C5 S1 1_555 1_555
C6 C5 1_555 1_555
H6 C6 1_555 1_555
C7 C6 1_555 1_555
H7 C7 1_555 1_555
C8 C7 1_555 1_555
C9 C8 1_555 1_555
H8 C9 1_555 1_555
C10 C5 1_555 1_555
H9 C10 1_555 1_555
C11 C8 1_555 1_555
H10 C11 1_555 1_555
H11 C11 1_555 1_555
H12 C11 1_555 1_555
C9 C10 1_555 1_555

#END
