
#######################################################################
#
#                 Cambridge Crystallographic Data Centre
#                                CCDC 
#
#######################################################################
#
# If this CIF has been generated from an entry in the Cambridge 
# Structural Database, then it will include bibliographic, chemical, 
# crystal, experimental, refinement or atomic coordinate data resulting 
# from the CCDC's data processing and validation procedures.
#
#######################################################################

data_MAZSIR
_chemical_formula_moiety         'C10 H13 N1 O5'
_chemical_name_systematic        (R)-1-(2,6-Dimethoxyphenyl)-2-nitroethanol
_symmetry_cell_setting           monoclinic
_symmetry_space_group_name_H-M   'P 21'
_symmetry_Int_Tables_number      4
_space_group_name_Hall           'P 2yb'
loop_
_symmetry_equiv_pos_site_id
_symmetry_equiv_pos_as_xyz
1 x,y,z
2 -x,1/2+y,-z
_cell_length_a                   10.1078(6)
_cell_length_b                   9.9926(7)
_cell_length_c                   10.7845(8)
_cell_angle_alpha                90
_cell_angle_beta                 93.599(5)
_cell_angle_gamma                90
_cell_volume                     1087.12
_cell_formula_units_Z            4
loop_
_atom_site_label
_atom_site_type_symbol
_atom_site_fract_x
_atom_site_fract_y
_atom_site_fract_z
N1 N 1.2737(5) 0.2068(6) 0.5851(5)
O1 O 1.5081(4) 0.1158(5) 0.2899(4)
C1 C 1.8597(7) 0.1572(8) 0.3868(8)
H1 H 1.9432 0.1271 0.3684
O2 O 1.7057(4) 0.3760(4) 0.6107(4)
C2 C 1.7490(8) 0.1088(8) 0.3187(7)
H2 H 1.7572 0.0496 0.2531
O3 O 1.4011(4) 0.3500(5) 0.3863(4)
H3 H 1.3227 0.3292 0.3876
C3 C 1.6244(6) 0.1523(6) 0.3525(6)
O4 O 1.2772(5) 0.2635(7) 0.6821(6)
C4 C 1.6117(5) 0.2390(6) 0.4500(5)
O5 O 1.1731(5) 0.1769(9) 0.5276(7)
C5 C 1.7263(5) 0.2853(6) 0.5156(6)
C6 C 1.8486(7) 0.2511(8) 0.4833(8)
H4 H 1.9238 0.2886 0.5236
C7 C 1.5100(8) 0.0236(7) 0.1887(6)
H5 H 1.4210 0.0075 0.1559
H6 H 1.5493 -0.0591 0.2175
H7 H 1.5611 0.0606 0.1249
C8 C 1.8191(7) 0.4230(8) 0.6826(7)
H9 H 1.7918 0.4838 0.7450
H10 H 1.8773 0.4684 0.6294
H11 H 1.8649 0.3486 0.7218
C9 C 1.4754(5) 0.2835(6) 0.4849(5)
H12 H 1.4888 0.3480 0.5530
C10 C 1.3997(5) 0.1659(6) 0.5345(5)
H13 H 1.3815 0.1019 0.4680
H14 H 1.4546 0.1219 0.5993
N2 N 1.2468(4) 0.2786(5) 1.0305(5)
O6 O 0.9570(3) 0.0362(4) 0.8148(3)
O7 O 0.8171(3) 0.3415(4) 1.1082(3)
O8 O 1.0710(3) 0.0495(4) 1.0468(3)
H8 H 1.1451 0.0539 1.0822
O9 O 1.3394(5) 0.2982(10) 0.9729(6)
O10 O 1.2548(4) 0.2692(5) 1.1423(5)
C11 C 1.1137(5) 0.2674(5) 0.9613(5)
H15 H 1.1247 0.2295 0.8798
H16 H 1.0758 0.3560 0.9499
C12 C 0.6522(5) 0.2525(7) 0.9570(5)
H17 H 0.5854 0.3036 0.9889
C13 C 0.6256(5) 0.1704(6) 0.8561(5)
H18 H 0.5391 0.1641 0.8219
C14 C 0.7235(5) 0.0975(6) 0.8047(5)
H19 H 0.7043 0.0443 0.7351
C15 C 0.8505(5) 0.1045(5) 0.8580(5)
C16 C 0.8812(4) 0.1811(5) 0.9642(5)
C17 C 0.7811(5) 0.2577(5) 1.0102(5)
C18 C 0.9355(6) -0.0351(6) 0.6999(5)
H20 H 1.0162 -0.0785 0.6800
H21 H 0.9085 0.0265 0.6349
H22 H 0.8675 -0.1010 0.7080
C19 C 0.7162(6) 0.4198(6) 1.1595(6)
H23 H 0.7546 0.4737 1.2261
H24 H 0.6504 0.3617 1.1907
H25 H 0.6757 0.4767 1.0962
C20 C 1.0187(5) 0.1797(6) 1.0305(5)
H26 H 1.0112 0.2187 1.1131
loop_
_geom_bond_atom_site_label_1
_geom_bond_atom_site_label_2
_geom_bond_site_symmetry_1
_geom_bond_site_symmetry_2
N1 O4 1_555 1_555
O1 C3 1_555 1_555
C1 H1 1_555 1_555
N2 O9 1_555 1_555
O2 C5 1_555 1_555
C2 C1 1_555 1_555
H2 C2 1_555 1_555
O3 H3 1_555 1_555
C3 C2 1_555 1_555
C4 C3 1_555 1_555
O5 N1 1_555 1_555
C5 C4 1_555 1_555
O6 C15 1_555 1_555
C6 C1 1_555 1_555
H4 C6 1_555 1_555
O7 C17 1_555 1_555
C7 O1 1_555 1_555
H5 C7 1_555 1_555
H6 C7 1_555 1_555
H7 C7 1_555 1_555
O8 H8 1_555 1_555
C8 O2 1_555 1_555
H9 C8 1_555 1_555
H10 C8 1_555 1_555
H11 C8 1_555 1_555
C9 O3 1_555 1_555
H12 C9 1_555 1_555
O10 N2 1_555 1_555
C10 N1 1_555 1_555
H13 C10 1_555 1_555
H14 C10 1_555 1_555
C11 N2 1_555 1_555
H15 C11 1_555 1_555
H16 C11 1_555 1_555
C12 H17 1_555 1_555
C13 C12 1_555 1_555
H18 C13 1_555 1_555
C14 C13 1_555 1_555
H19 C14 1_555 1_555
C15 C14 1_555 1_555
C16 C15 1_555 1_555
C17 C12 1_555 1_555
C18 O6 1_555 1_555
H20 C18 1_555 1_555
H21 C18 1_555 1_555
H22 C18 1_555 1_555
C19 O7 1_555 1_555
H23 C19 1_555 1_555
H24 C19 1_555 1_555
H25 C19 1_555 1_555
C20 O8 1_555 1_555
H26 C20 1_555 1_555
C4 C9 1_555 1_555
C5 C6 1_555 1_555
C9 C10 1_555 1_555
C11 C20 1_555 1_555
C16 C17 1_555 1_555
C16 C20 1_555 1_555

#END
