
#######################################################################
#
#                 Cambridge Crystallographic Data Centre
#                                CCDC 
#
#######################################################################
#
# If this CIF has been generated from an entry in the Cambridge 
# Structural Database, then it will include bibliographic, chemical, 
# crystal, experimental, refinement or atomic coordinate data resulting 
# from the CCDC's data processing and validation procedures.
#
#######################################################################

data_MAZWIU
_chemical_formula_moiety         'C14 H10 N2 O5'
_chemical_name_systematic        '2-(3-Nitrophenylaminocarbonyl)benzoic acid'
_symmetry_cell_setting           monoclinic
_symmetry_space_group_name_H-M   'P 21'
_symmetry_Int_Tables_number      4
_space_group_name_Hall           'P 2yb'
loop_
_symmetry_equiv_pos_site_id
_symmetry_equiv_pos_as_xyz
1 x,y,z
2 -x,1/2+y,-z
_cell_length_a                   4.0511(9)
_cell_length_b                   12.076(3)
_cell_length_c                   12.771(3)
_cell_angle_alpha                90
_cell_angle_beta                 90.287(12)
_cell_angle_gamma                90
_cell_volume                     624.763
_exptl_crystal_colour            colorless
_exptl_crystal_description       plate
_chemical_melting_point          440-442K
_cell_formula_units_Z            2
_exptl_crystal_recrystallization_method ethanol
loop_
_atom_site_label
_atom_site_type_symbol
_atom_site_fract_x
_atom_site_fract_y
_atom_site_fract_z
O1 O 0.7629(10) 0.9904(4) 0.4509(3)
O2 O 0.8329(10) 0.6256(4) 0.6456(3)
O3 O 0.8956(9) 0.7250(3) 0.4985(3)
O4 O 0.8557(18) 1.0909(5) 0.1112(4)
O5 O 0.8928(14) 0.9815(5) -0.0220(4)
N1 N 0.3916(12) 0.8572(5) 0.4009(4)
N2 N 0.8164(14) 1.0005(5) 0.0701(4)
C1 C 0.4754(13) 0.8968(5) 0.5867(5)
C2 C 0.5731(14) 0.7993(5) 0.6402(5)
C3 C 0.4897(14) 0.7868(6) 0.7445(4)
C4 C 0.3134(15) 0.8679(6) 0.7953(5)
C5 C 0.2226(15) 0.9644(5) 0.7441(4)
C6 C 0.3040(14) 0.9783(6) 0.6415(4)
C7 C 0.4610(14) 0.8472(5) 0.2941(5)
C8 C 0.5986(14) 0.9313(6) 0.2359(4)
C9 C 0.6678(15) 0.9111(6) 0.1324(5)
C10 C 0.6006(18) 0.8113(6) 0.0833(5)
C11 C 0.4543(18) 0.7291(7) 0.1443(5)
C12 C 0.3852(15) 0.7470(6) 0.2479(5)
C13 C 0.5601(14) 0.9181(6) 0.4725(5)
C14 C 0.7805(14) 0.7158(5) 0.5869(5)
H1 H 0.2201 0.8199 0.4240
H2 H 0.5545 0.7219 0.7812
H3 H 0.2532 0.8575 0.8664
H4 H 0.1044 1.0205 0.7802
H5 H 0.2428 1.0447 0.6067
H6 H 0.6445 1.0013 0.2666
H7 H 0.6515 0.7994 0.0116
H8 H 0.4018 0.6596 0.1136
H9 H 0.2846 0.6902 0.2881
H10 H 1.0037 0.5930 0.6248
loop_
_geom_bond_atom_site_label_1
_geom_bond_atom_site_label_2
_geom_bond_site_symmetry_1
_geom_bond_site_symmetry_2
O1 C13 1_555 1_555
O2 C14 1_555 1_555
O3 C14 1_555 1_555
O4 N2 1_555 1_555
O5 N2 1_555 1_555
N1 C7 1_555 1_555
N2 C9 1_555 1_555
C1 C2 1_555 1_555
C2 C3 1_555 1_555
C3 C4 1_555 1_555
C4 C5 1_555 1_555
C5 C6 1_555 1_555
C6 C1 1_555 1_555
C7 C8 1_555 1_555
C8 C9 1_555 1_555
C9 C10 1_555 1_555
C10 C11 1_555 1_555
C11 C12 1_555 1_555
C12 C7 1_555 1_555
C13 N1 1_555 1_555
C14 C2 1_555 1_555
H1 N1 1_555 1_555
H2 C3 1_555 1_555
H3 C4 1_555 1_555
H4 C5 1_555 1_555
H5 C6 1_555 1_555
H6 C8 1_555 1_555
H7 C10 1_555 1_555
H8 C11 1_555 1_555
H9 C12 1_555 1_555
H10 O2 1_555 1_555
C1 C13 1_555 1_555

#END
