
#######################################################################
#
#                 Cambridge Crystallographic Data Centre
#                                CCDC 
#
#######################################################################
#
# If this CIF has been generated from an entry in the Cambridge 
# Structural Database, then it will include bibliographic, chemical, 
# crystal, experimental, refinement or atomic coordinate data resulting 
# from the CCDC's data processing and validation procedures.
#
#######################################################################

data_MAZWUF
_chemical_formula_moiety         'C29 H20 O2'
_chemical_name_systematic        
(+,-)-2,8-Diphenyldibenzo(b,f)bicyclo(3.3.1)nona-5a,6a-diene-6,12-dione
_symmetry_cell_setting           monoclinic
_symmetry_space_group_name_H-M   'P 21/c'
_symmetry_Int_Tables_number      14
_space_group_name_Hall           '-P 2ybc'
loop_
_symmetry_equiv_pos_site_id
_symmetry_equiv_pos_as_xyz
1 x,y,z
2 x,1/2-y,1/2+z
3 -x,-y,-z
4 -x,1/2+y,1/2-z
_cell_length_a                   17.1992(10)
_cell_length_b                   11.0779(6)
_cell_length_c                   10.6606(6)
_cell_angle_alpha                90
_cell_angle_beta                 97.5260(10)
_cell_angle_gamma                90
_cell_volume                     2013.68
_exptl_crystal_colour            colorless
_exptl_crystal_description       blade
_chemical_melting_point          259-261deg.C
_cell_formula_units_Z            4
loop_
_atom_site_label
_atom_site_type_symbol
_atom_site_fract_x
_atom_site_fract_y
_atom_site_fract_z
O1 O 0.88597(9) 0.91201(13) 0.40252(14)
O2 O 0.68956(9) 0.48283(14) 0.47825(17)
C1 C 0.86259(11) 0.59442(18) 0.47171(18)
C2 C 0.89625(12) 0.50719(19) 0.55494(19)
H1 H 0.8746 0.4302 0.5531
C3 C 0.96154(11) 0.53307(19) 0.64063(19)
H2 H 0.9830 0.4728 0.6953
C4 C 0.99621(11) 0.64730(18) 0.64736(17)
C5 C 0.96071(11) 0.73543(18) 0.56704(18)
H3 H 0.9815 0.8130 0.5712
C6 C 0.89465(11) 0.71103(17) 0.48022(18)
C7 C 0.85851(11) 0.81060(19) 0.39872(18)
C8 C 0.78357(12) 0.77960(19) 0.31275(19)
H4 H 0.7767 0.8361 0.2414
C9 C 0.71572(11) 0.79398(18) 0.38987(18)
C10 C 0.68325(12) 0.90663(19) 0.4063(2)
H5 H 0.7019 0.9735 0.3667
C11 C 0.62377(12) 0.92140(19) 0.4804(2)
H6 H 0.6034 0.9981 0.4901
C12 C 0.59376(11) 0.82365(18) 0.54075(19)
C13 C 0.62534(11) 0.71084(18) 0.52372(19)
H7 H 0.6057 0.6441 0.5620
C14 C 0.68602(11) 0.69511(17) 0.45039(18)
C15 C 0.71912(11) 0.57207(19) 0.43792(19)
C16 C 0.79264(11) 0.56412(19) 0.37425(19)
H8 H 0.7983 0.4816 0.3436
C17 C 0.78745(13) 0.6514(2) 0.26258(19)
H9 H 0.8331 0.6424 0.2187
H10 H 0.7410 0.6342 0.2034
C18 C 1.07106(11) 0.67108(18) 0.73063(18)
C19 C 1.12281(12) 0.7586(2) 0.6990(2)
H11 H 1.1087 0.8062 0.6278
C20 C 1.19465(13) 0.7767(2) 0.7706(2)
H12 H 1.2280 0.8364 0.7474
C21 C 1.21722(13) 0.7074(2) 0.8754(2)
H13 H 1.2661 0.7186 0.9228
C22 C 1.16661(13) 0.6212(2) 0.9097(2)
H14 H 1.1814 0.5740 0.9810
C23 C 1.09397(13) 0.60344(19) 0.83944(19)
H15 H 1.0601 0.5458 0.8651
C24 C 0.53108(11) 0.83858(18) 0.62348(19)
C25 C 0.46708(12) 0.76081(19) 0.6140(2)
H16 H 0.4627 0.7001 0.5532
C26 C 0.41005(13) 0.7719(2) 0.6929(2)
H17 H 0.3676 0.7191 0.6849
C27 C 0.41587(14) 0.8608(2) 0.7833(2)
H18 H 0.3777 0.8684 0.8371
C28 C 0.47856(15) 0.9387(2) 0.7938(2)
H19 H 0.4827 0.9989 0.8551
C29 C 0.53556(13) 0.9284(2) 0.7141(2)
H20 H 0.5773 0.9825 0.7216
loop_
_geom_bond_atom_site_label_1
_geom_bond_atom_site_label_2
_geom_bond_site_symmetry_1
_geom_bond_site_symmetry_2
O1 C7 1_555 1_555
O2 C15 1_555 1_555
C1 C2 1_555 1_555
C2 H1 1_555 1_555
C3 C2 1_555 1_555
H2 C3 1_555 1_555
C4 C3 1_555 1_555
C5 C4 1_555 1_555
H3 C5 1_555 1_555
C6 C1 1_555 1_555
C7 C6 1_555 1_555
C8 C7 1_555 1_555
H4 C8 1_555 1_555
C9 C8 1_555 1_555
C10 C9 1_555 1_555
H5 C10 1_555 1_555
C11 C10 1_555 1_555
H6 C11 1_555 1_555
C12 C11 1_555 1_555
C13 C12 1_555 1_555
H7 C13 1_555 1_555
C14 C9 1_555 1_555
C15 C14 1_555 1_555
C16 C1 1_555 1_555
H8 C16 1_555 1_555
C17 C8 1_555 1_555
H9 C17 1_555 1_555
H10 C17 1_555 1_555
C18 C4 1_555 1_555
C19 C18 1_555 1_555
H11 C19 1_555 1_555
C20 C19 1_555 1_555
H12 C20 1_555 1_555
C21 C20 1_555 1_555
H13 C21 1_555 1_555
C22 C21 1_555 1_555
H14 C22 1_555 1_555
C23 C18 1_555 1_555
H15 C23 1_555 1_555
C24 C12 1_555 1_555
C25 C24 1_555 1_555
H16 C25 1_555 1_555
C26 C25 1_555 1_555
H17 C26 1_555 1_555
C27 C26 1_555 1_555
H18 C27 1_555 1_555
C28 C27 1_555 1_555
H19 C28 1_555 1_555
C29 C24 1_555 1_555
H20 C29 1_555 1_555
C5 C6 1_555 1_555
C13 C14 1_555 1_555
C15 C16 1_555 1_555
C16 C17 1_555 1_555
C22 C23 1_555 1_555
C28 C29 1_555 1_555

#END
