
#######################################################################
#
#                 Cambridge Crystallographic Data Centre
#                                CCDC 
#
#######################################################################
#
# If this CIF has been generated from an entry in the Cambridge 
# Structural Database, then it will include bibliographic, chemical, 
# crystal, experimental, refinement or atomic coordinate data resulting 
# from the CCDC's data processing and validation procedures.
#
#######################################################################

data_MAZWAO
_chemical_formula_moiety         'C28 H44 P2'
_chemical_name_systematic        
(ethane-1,2-diyl)bis[t-butyl(2,4,6-trimethylphenyl)phosphane]
_symmetry_cell_setting           triclinic
_symmetry_space_group_name_H-M   'P -1'
_symmetry_Int_Tables_number      2
_space_group_name_Hall           '-P 1'
loop_
_symmetry_equiv_pos_site_id
_symmetry_equiv_pos_as_xyz
1 x,y,z
2 -x,-y,-z
_cell_length_a                   7.994(3)
_cell_length_b                   8.768(4)
_cell_length_c                   10.539(3)
_cell_angle_alpha                69.97(2)
_cell_angle_beta                 77.62(2)
_cell_angle_gamma                87.20(3)
_cell_volume                     677.631
_exptl_crystal_colour            colorless
_exptl_crystal_description       block
_cell_formula_units_Z            1
loop_
_atom_site_label
_atom_site_type_symbol
_atom_site_fract_x
_atom_site_fract_y
_atom_site_fract_z
P1 P 0.62961(6) 0.71136(5) 0.82207(4)
C1 C 0.5302(2) 0.50793(19) 0.92380(16)
H1 H 0.433297 0.491609 0.887568
H2 H 0.612671 0.425093 0.915826
C2 C 0.6820(3) 0.7122(2) 0.63867(19)
C3 C 0.5317(3) 0.6824(3) 0.5820(2)
H3 H 0.480345 0.577379 0.636950
H4 H 0.571476 0.686738 0.488155
H5 H 0.448286 0.764370 0.585152
C4 C 0.8145(3) 0.5800(3) 0.6346(2)
H6 H 0.906450 0.595051 0.674973
H7 H 0.858926 0.587400 0.540444
H8 H 0.760790 0.475028 0.685725
C5 C 0.7663(4) 0.8784(3) 0.5484(2)
H9 H 0.685704 0.962129 0.553154
H10 H 0.801328 0.881826 0.454470
H11 H 0.864600 0.895215 0.581241
C6 C 0.4598(2) 0.86283(19) 0.82556(16)
C7 C 0.2815(2) 0.8425(2) 0.83822(17)
C8 C 0.1743(2) 0.9724(2) 0.83993(18)
H12 H 0.057420 0.956959 0.849237
C9 C 0.2340(2) 1.1235(2) 0.82837(18)
C10 C 0.4072(2) 1.1421(2) 0.81736(18)
H13 H 0.450081 1.242253 0.809768
C11 C 0.5204(2) 1.0165(2) 0.81717(17)
C12 C 0.7053(2) 1.0551(2) 0.8098(2)
H14 H 0.711126 1.148420 0.836850
H15 H 0.769328 1.077488 0.716964
H16 H 0.752863 0.963926 0.870983
C13 C 0.1157(3) 1.2635(2) 0.8265(2)
H17 H 0.135665 1.310946 0.891823
H18 H -0.001089 1.224827 0.850879
H19 H 0.137416 1.343826 0.735656
C14 C 0.1934(2) 0.6868(2) 0.8519(2)
H20 H 0.192255 0.608422 0.941787
H21 H 0.254192 0.644789 0.782490
H22 H 0.077822 0.708688 0.839952
P1A P 0.37039(6) 0.28864(5) 1.17793(4)
C1A C 0.4698(2) 0.49207(19) 1.07620(16)
H1A H 0.566703 0.508391 1.112432
H2A H 0.387329 0.574907 1.084174
C2A C 0.3180(3) 0.2878(2) 1.36133(19)
C3A C 0.4683(3) 0.3176(3) 1.4180(2)
H3A H 0.519655 0.422621 1.363050
H4A H 0.428524 0.313262 1.511845
H5A H 0.551714 0.235630 1.414848
C4A C 0.1855(3) 0.4200(3) 1.3654(2)
H6A H 0.093550 0.404949 1.325027
H7A H 0.141074 0.412600 1.459556
H8A H 0.239210 0.524972 1.314275
C5A C 0.2337(4) 0.1216(3) 1.4516(2)
H9A H 0.314296 0.037871 1.446846
H10A H 0.198672 0.118174 1.545530
H11A H 0.135400 0.104785 1.418759
C6A C 0.5402(2) 0.13717(19) 1.17444(16)
C7A C 0.7185(2) 0.1575(2) 1.16178(17)
C8A C 0.8257(2) 0.0276(2) 1.16007(18)
H12A H 0.942580 0.043041 1.150763
C9A C 0.7660(2) -0.1235(2) 1.17163(18)
C10A C 0.5928(2) -0.1421(2) 1.18264(18)
H13A H 0.549919 -0.242253 1.190232
C11A C 0.4796(2) -0.0165(2) 1.18283(17)
C12A C 0.2947(2) -0.0551(2) 1.1902(2)
H14A H 0.288874 -0.148420 1.163150
H15A H 0.230672 -0.077488 1.283036
H16A H 0.247137 0.036074 1.129017
C13A C 0.8843(3) -0.2635(2) 1.1735(2)
H17A H 0.864335 -0.310946 1.108177
H18A H 1.001089 -0.224827 1.149121
H19A H 0.862584 -0.343826 1.264344
C14A C 0.8066(2) 0.3132(2) 1.1481(2)
H20A H 0.807745 0.391578 1.058213
H21A H 0.745808 0.355211 1.217510
H22A H 0.922178 0.291312 1.160048
loop_
_geom_bond_atom_site_label_1
_geom_bond_atom_site_label_2
_geom_bond_site_symmetry_1
_geom_bond_site_symmetry_2
P1 C1 1_555 1_555
C1 H1 1_555 1_555
H2 C1 1_555 1_555
C2 P1 1_555 1_555
C3 C2 1_555 1_555
H3 C3 1_555 1_555
H4 C3 1_555 1_555
H5 C3 1_555 1_555
C4 C2 1_555 1_555
H6 C4 1_555 1_555
H7 C4 1_555 1_555
H8 C4 1_555 1_555
C5 C2 1_555 1_555
H9 C5 1_555 1_555
H10 C5 1_555 1_555
H11 C5 1_555 1_555
C6 P1 1_555 1_555
C7 C6 1_555 1_555
C8 C7 1_555 1_555
H12 C8 1_555 1_555
C9 C8 1_555 1_555
C10 C9 1_555 1_555
H13 C10 1_555 1_555
C11 C6 1_555 1_555
C12 C11 1_555 1_555
H14 C12 1_555 1_555
H15 C12 1_555 1_555
H16 C12 1_555 1_555
C13 C9 1_555 1_555
H17 C13 1_555 1_555
H18 C13 1_555 1_555
H19 C13 1_555 1_555
C14 C7 1_555 1_555
H20 C14 1_555 1_555
H21 C14 1_555 1_555
H22 C14 1_555 1_555
P1A C1A 1_555 1_555
C1A C1 1_555 1_555
H1A C1A 1_555 1_555
H2A C1A 1_555 1_555
C2A P1A 1_555 1_555
C3A C2A 1_555 1_555
H3A C3A 1_555 1_555
H4A C3A 1_555 1_555
H5A C3A 1_555 1_555
C4A C2A 1_555 1_555
H6A C4A 1_555 1_555
H7A C4A 1_555 1_555
H8A C4A 1_555 1_555
C5A C2A 1_555 1_555
H9A C5A 1_555 1_555
H10A C5A 1_555 1_555
H11A C5A 1_555 1_555
C6A P1A 1_555 1_555
C7A C6A 1_555 1_555
C8A C7A 1_555 1_555
H12A C8A 1_555 1_555
C9A C8A 1_555 1_555
C10A C9A 1_555 1_555
H13A C10A 1_555 1_555
C11A C6A 1_555 1_555
C12A C11A 1_555 1_555
H14A C12A 1_555 1_555
H15A C12A 1_555 1_555
H16A C12A 1_555 1_555
C13A C9A 1_555 1_555
H17A C13A 1_555 1_555
H18A C13A 1_555 1_555
H19A C13A 1_555 1_555
C14A C7A 1_555 1_555
H20A C14A 1_555 1_555
H21A C14A 1_555 1_555
H22A C14A 1_555 1_555
C10 C11 1_555 1_555
C10A C11A 1_555 1_555

#END
