
#######################################################################
#
#                 Cambridge Crystallographic Data Centre
#                                CCDC 
#
#######################################################################
#
# If this CIF has been generated from an entry in the Cambridge 
# Structural Database, then it will include bibliographic, chemical, 
# crystal, experimental, refinement or atomic coordinate data resulting 
# from the CCDC's data processing and validation procedures.
#
#######################################################################

data_MAZWUG
_chemical_formula_moiety         'C17 H20 N2 O7'
_chemical_name_systematic        
'Diethyl 2,6-dimethyl-4-(5-nitro-2-furyl)-1,4-dihydropyridine-3,5-dicarboxylate'
_symmetry_cell_setting           monoclinic
_symmetry_space_group_name_H-M   'P 21/c'
_symmetry_Int_Tables_number      14
_space_group_name_Hall           '-P 2ybc'
loop_
_symmetry_equiv_pos_site_id
_symmetry_equiv_pos_as_xyz
1 x,y,z
2 -x,1/2+y,1/2-z
3 -x,-y,-z
4 x,1/2-y,1/2+z
_cell_length_a                   8.0511(2)
_cell_length_b                   15.173(4)
_cell_length_c                   14.470(4)
_cell_angle_alpha                90
_cell_angle_beta                 105.760(2)
_cell_angle_gamma                90
_cell_volume                     1701.2
_exptl_crystal_colour            yellow
_exptl_crystal_description       plate
_cell_formula_units_Z            4
_exptl_crystal_recrystallization_method ethanol
loop_
_atom_site_label
_atom_site_type_symbol
_atom_site_fract_x
_atom_site_fract_y
_atom_site_fract_z
O1 O 0.51174(15) 0.19208(8) 0.39397(8)
O2 O 0.38877(15) 0.11796(7) 0.49219(8)
O3 O 0.80303(15) 0.31933(7) 0.39983(8)
O4 O 0.90638(17) 0.34441(8) 0.24520(9)
O5 O 1.11994(18) 0.25194(9) 0.29460(10)
O6 O 0.77729(19) 0.55027(8) 0.61859(9)
O7 O 0.73600(15) 0.48699(7) 0.47419(8)
N1 N 0.60132(19) 0.30689(9) 0.70679(10)
N2 N 0.99410(19) 0.29324(10) 0.30501(10)
C1 C 0.5338(2) 0.24179(10) 0.64101(11)
C2 C 0.5438(2) 0.25016(10) 0.54904(11)
C3 C 0.6314(2) 0.32908(10) 0.51643(11)
C4 C 0.6769(2) 0.40033(10) 0.59366(11)
C5 C 0.6669(2) 0.38535(11) 0.68400(12)
C6 C 0.4572(2) 0.16731(11) 0.68472(12)
C7 C 0.4822(2) 0.18551(10) 0.47192(11)
C8 C 0.3187(2) 0.05729(11) 0.41336(12)
C9 C 0.2033(2) -0.00630(12) 0.44639(13)
C10 C 0.7893(2) 0.29747(10) 0.48935(11)
C11 C 0.9483(2) 0.27909(11) 0.39198(12)
C12 C 1.0287(2) 0.23332(11) 0.47184(12)
C13 C 0.9246(2) 0.24588(10) 0.53550(12)
C14 C 0.7346(2) 0.48642(11) 0.56723(12)
C15 C 0.8006(2) 0.56725(11) 0.44191(12)
C16 C 0.7937(3) 0.55517(12) 0.33795(13)
C17 C 0.7228(3) 0.44752(12) 0.76791(12)
H1 H 0.6024 0.2981 0.7657
H2 H 0.3331 0.1636 0.6537
H3 H 0.4761 0.1781 0.7536
H4 H 0.5127 0.1118 0.6754
H5 H 0.4133 0.0252 0.3963
H6 H 0.2520 0.0900 0.3561
H7 H 0.5495 0.3549 0.4580
H8 H 0.2712 -0.0389 0.5025
H9 H 0.1526 -0.0478 0.3945
H10 H 0.1111 0.0263 0.4637
H11 H 1.1322 0.2000 0.4828
H12 H 0.9454 0.2226 0.5986
H13 H 0.9208 0.5784 0.4801
H14 H 0.7286 0.6181 0.4497
H15 H 0.8662 0.5050 0.3312
H16 H 0.8362 0.6086 0.3139
H17 H 0.6743 0.5440 0.3009
H18 H 0.8443 0.4633 0.7773
H19 H 0.7086 0.4188 0.8260
H20 H 0.6518 0.5009 0.7550
loop_
_geom_bond_atom_site_label_1
_geom_bond_atom_site_label_2
_geom_bond_site_symmetry_1
_geom_bond_site_symmetry_2
O1 C7 1_555 1_555
O2 C7 1_555 1_555
O3 C10 1_555 1_555
O4 N2 1_555 1_555
O5 N2 1_555 1_555
O6 C14 1_555 1_555
O7 C14 1_555 1_555
N1 C1 1_555 1_555
N2 C11 1_555 1_555
C1 C2 1_555 1_555
C2 C3 1_555 1_555
C3 C4 1_555 1_555
C4 C5 1_555 1_555
C5 N1 1_555 1_555
C6 C1 1_555 1_555
C7 C2 1_555 1_555
C8 O2 1_555 1_555
C9 C8 1_555 1_555
C10 C3 1_555 1_555
C11 O3 1_555 1_555
C12 C11 1_555 1_555
C13 C10 1_555 1_555
C14 C4 1_555 1_555
C15 O7 1_555 1_555
C16 C15 1_555 1_555
C17 C5 1_555 1_555
H1 N1 1_555 1_555
H2 C6 1_555 1_555
H3 C6 1_555 1_555
H4 C6 1_555 1_555
H5 C8 1_555 1_555
H6 C8 1_555 1_555
H7 C3 1_555 1_555
H8 C9 1_555 1_555
H9 C9 1_555 1_555
H10 C9 1_555 1_555
H11 C12 1_555 1_555
H12 C13 1_555 1_555
H13 C15 1_555 1_555
H14 C15 1_555 1_555
H15 C16 1_555 1_555
H16 C16 1_555 1_555
H17 C16 1_555 1_555
H18 C17 1_555 1_555
H19 C17 1_555 1_555
H20 C17 1_555 1_555
C12 C13 1_555 1_555

#END
