
#######################################################################
#
#                 Cambridge Crystallographic Data Centre
#                                CCDC 
#
#######################################################################
#
# If this CIF has been generated from an entry in the Cambridge 
# Structural Database, then it will include bibliographic, chemical, 
# crystal, experimental, refinement or atomic coordinate data resulting 
# from the CCDC's data processing and validation procedures.
#
#######################################################################

data_MAZXAM
_chemical_formula_moiety         'C31 H24 O4'
_chemical_name_systematic        
(+,-)-2,8-bis(p-Methoxyphenyl)dibenzo(b,f)bicyclo(3.3.1)nona-5a,6a-diene-6,12-dione
_symmetry_cell_setting           orthorhombic
_symmetry_space_group_name_H-M   'P b c n'
_symmetry_Int_Tables_number      60
_space_group_name_Hall           '-P 2n 2ab'
loop_
_symmetry_equiv_pos_site_id
_symmetry_equiv_pos_as_xyz
1 x,y,z
2 1/2+x,1/2+y,1/2-z
3 1/2-x,1/2+y,z
4 x,-y,1/2+z
5 -x,-y,-z
6 1/2-x,1/2-y,1/2+z
7 1/2+x,1/2-y,-z
8 -x,y,1/2-z
_cell_length_a                   8.2666(7)
_cell_length_b                   8.8080(10)
_cell_length_c                   32.6910(10)
_cell_angle_alpha                90
_cell_angle_beta                 90
_cell_angle_gamma                90
_cell_volume                     2380.3
_exptl_crystal_colour            colorless
_exptl_crystal_description       prism
_chemical_melting_point          248-250deg.C
_cell_formula_units_Z            4
_exptl_crystal_recrystallization_method dichloromethane
loop_
_atom_site_label
_atom_site_type_symbol
_atom_site_fract_x
_atom_site_fract_y
_atom_site_fract_z
O1 O 0.18580(11) 0.17378(13) 0.20634(3)
O2 O 0.48230(13) 0.80503(13) 0.01869(3)
C1 C 0.62336(15) 0.15916(14) 0.20768(4)
C2 C 0.75390(16) 0.21314(15) 0.18536(4)
H1 H 0.8578 0.1808 0.1919
C3 C 0.73210(17) 0.31415(15) 0.15355(4)
H2 H 0.8217 0.3485 0.1391
C4 C 0.57784(16) 0.36597(16) 0.14261(4)
C5 C 0.44695(16) 0.30912(15) 0.16439(4)
H3 H 0.3430 0.3397 0.1573
C6 C 0.46719(15) 0.20739(14) 0.19663(4)
C7 C 0.32212(15) 0.14782(15) 0.21843(4)
C8 C 0.35216(15) 0.05332(14) 0.25642(4)
H4 H 0.2574 -0.0107 0.2616
C9 C 0.5000 -0.0479(2) 0.2500
H5 H 0.5161 -0.1124 0.2737
H6 H 0.4839 -0.1124 0.2263
C10 C 0.55516(16) 0.47857(15) 0.10921(4)
C11 C 0.65694(17) 0.48439(16) 0.07553(4)
H7 H 0.7414 0.4150 0.0736
C12 C 0.63690(18) 0.58994(16) 0.04466(4)
H8 H 0.7064 0.5902 0.0223
C13 C 0.51305(16) 0.69511(16) 0.04717(4)
C14 C 0.41185(18) 0.69300(18) 0.08097(5)
H9 H 0.3296 0.7645 0.0832
C15 C 0.43172(17) 0.58653(18) 0.11118(4)
H10 H 0.3616 0.5863 0.1334
C16 C 0.5810(2) 0.8080(2) -0.01698(5)
H11 H 0.6911 0.8278 -0.0093
H12 H 0.5437 0.8864 -0.0351
H13 H 0.5747 0.7116 -0.0306
C8G C 0.64784(15) 0.05332(14) 0.24358(4)
C7G C 0.67788(15) 0.14782(15) 0.28157(4)
O1G O 0.81420(11) 0.17378(13) 0.29366(3)
C6G C 0.53281(15) 0.20739(14) 0.30337(4)
C1G C 0.37664(15) 0.15916(14) 0.29232(4)
C2G C 0.24610(16) 0.21314(15) 0.31464(4)
H1G H 0.1422 0.1808 0.3081
C3G C 0.26790(17) 0.31415(15) 0.34645(4)
H2G H 0.1783 0.3485 0.3609
C4G C 0.42216(16) 0.36597(16) 0.35739(4)
C5G C 0.55305(16) 0.30912(15) 0.33561(4)
H3G H 0.6570 0.3397 0.3427
C10G C 0.44484(16) 0.47857(15) 0.39079(4)
C11G C 0.34306(17) 0.48439(16) 0.42447(4)
H7G H 0.2586 0.4150 0.4264
C12G C 0.36310(18) 0.58994(16) 0.45534(4)
H8G H 0.2936 0.5902 0.4777
C13G C 0.48695(16) 0.69511(16) 0.45283(4)
O2G O 0.51770(13) 0.80503(13) 0.48131(3)
C16G C 0.4190(2) 0.8080(2) 0.51698(5)
H11G H 0.3089 0.8278 0.5093
H12G H 0.4563 0.8864 0.5351
H13G H 0.4253 0.7116 0.5306
C14G C 0.58815(18) 0.69300(18) 0.41903(5)
H9G H 0.6704 0.7645 0.4168
C15G C 0.56828(17) 0.58653(18) 0.38882(4)
H10G H 0.6384 0.5863 0.3666
H4G H 0.7426 -0.0107 0.2384
loop_
_geom_bond_atom_site_label_1
_geom_bond_atom_site_label_2
_geom_bond_site_symmetry_1
_geom_bond_site_symmetry_2
O1 C7 1_555 1_555
O2 C13 1_555 1_555
C1 C2 1_555 1_555
C2 H1 1_555 1_555
C3 C2 1_555 1_555
H2 C3 1_555 1_555
C4 C3 1_555 1_555
C5 C4 1_555 1_555
H3 C5 1_555 1_555
C6 C1 1_555 1_555
C7 C6 1_555 1_555
C8 C7 1_555 1_555
H4 C8 1_555 1_555
C9 C8 1_555 1_555
H5 C9 1_555 1_555
H6 C9 1_555 1_555
C10 C4 1_555 1_555
C11 C10 1_555 1_555
H7 C11 1_555 1_555
C12 C11 1_555 1_555
H8 C12 1_555 1_555
C13 C12 1_555 1_555
C14 C13 1_555 1_555
H9 C14 1_555 1_555
C15 C10 1_555 1_555
H10 C15 1_555 1_555
C16 O2 1_555 1_555
H11 C16 1_555 1_555
H12 C16 1_555 1_555
H13 C16 1_555 1_555
C8G C1 1_555 1_555
C7G C8G 1_555 1_555
O1G C7G 1_555 1_555
C6G C7G 1_555 1_555
C1G C8 1_555 1_555
C2G C1G 1_555 1_555
H1G C2G 1_555 1_555
C3G C2G 1_555 1_555
H2G C3G 1_555 1_555
C4G C3G 1_555 1_555
C5G C6G 1_555 1_555
H3G C5G 1_555 1_555
C10G C4G 1_555 1_555
C11G C10G 1_555 1_555
H7G C11G 1_555 1_555
C12G C11G 1_555 1_555
H8G C12G 1_555 1_555
C13G C12G 1_555 1_555
O2G C13G 1_555 1_555
C16G O2G 1_555 1_555
H11G C16G 1_555 1_555
H12G C16G 1_555 1_555
H13G C16G 1_555 1_555
C14G C13G 1_555 1_555
H9G C14G 1_555 1_555
C15G C10G 1_555 1_555
H10G C15G 1_555 1_555
H4G C8G 1_555 1_555
C5 C6 1_555 1_555
C9 C8G 1_555 1_555
C14 C15 1_555 1_555
C6G C1G 1_555 1_555
C4G C5G 1_555 1_555
C14G C15G 1_555 1_555

#END
