
#######################################################################
#
#                 Cambridge Crystallographic Data Centre
#                                CCDC 
#
#######################################################################
#
# If this CIF has been generated from an entry in the Cambridge 
# Structural Database, then it will include bibliographic, chemical, 
# crystal, experimental, refinement or atomic coordinate data resulting 
# from the CCDC's data processing and validation procedures.
#
#######################################################################

data_MAZXOB01
_chemical_formula_moiety         'C8 H15 N2 1+,F6 P1 1-'
_chemical_name_systematic        
'1-n-Butyl-3-methylimidazolium hexafluorophosphate'
_symmetry_cell_setting           triclinic
_symmetry_space_group_name_H-M   'P -1'
_symmetry_Int_Tables_number      2
_space_group_name_Hall           '-P 1'
loop_
_symmetry_equiv_pos_site_id
_symmetry_equiv_pos_as_xyz
1 x,y,z
2 -x,-y,-z
_cell_length_a                   8.774(5)
_cell_length_b                   8.944(10)
_cell_length_c                   9.032(6)
_cell_angle_alpha                95.949(16)
_cell_angle_beta                 114.930(13)
_cell_angle_gamma                103.01(3)
_cell_volume                     610.228
_exptl_crystal_colour            colorless
_exptl_crystal_description       rod
_chemical_melting_point          '274.9 K'
_cell_formula_units_Z            2
_exptl_crystal_recrystallization_method 'from the melt'
loop_
_atom_site_label
_atom_site_type_symbol
_atom_site_fract_x
_atom_site_fract_y
_atom_site_fract_z
P1 P 0.68491(7) 0.29426(5) 0.44906(5)
F1 F 0.6304(2) 0.28245(19) 0.59432(16)
F2 F 0.51532(19) 0.15102(15) 0.32373(17)
F3 F 0.7412(2) 0.30998(18) 0.30282(16)
F4 F 0.79731(19) 0.17495(15) 0.50805(17)
F5 F 0.85531(18) 0.43871(14) 0.57104(16)
F6 F 0.57435(19) 0.41403(15) 0.38784(17)
N1 N 1.2889(2) 0.33711(17) 0.89335(18)
C1 C 1.2091(3) 0.3325(2) 0.7305(2)
H1 H 1.1319 0.3931 0.679
N2 N 1.2525(2) 0.22960(17) 0.65074(17)
C2 C 1.3648(3) 0.1665(2) 0.7667(2)
H2 H 1.4207 0.0921 0.7449
C3 C 1.3861(3) 0.2325(2) 0.9176(2)
H3 H 1.4534 0.2086 1.0227
C4 C 1.2654(3) 0.4288(2) 1.0229(2)
H4 H 1.2164 0.5106 0.9817
H5 H 1.3791 0.4773 1.1174
C5 C 1.1495(3) 0.3243(2) 1.0815(2)
H6 H 1.1399 0.3864 1.1686
H7 H 1.2036 0.2468 1.1279
C6 C 0.9661(3) 0.2398(2) 0.9446(2)
H8 H 0.9741 0.1723 0.8601
H9 H 0.9129 0.3163 0.8941
C7 C 0.8512(3) 0.1406(3) 1.0087(3)
H10 H 0.9029 0.0628 1.0575
H11 H 0.7366 0.0893 0.9166
H12 H 0.8408 0.2081 1.0916
C8 C 1.1927(3) 0.1936(3) 0.4691(2)
H13 H 1.092 0.2296 0.4146
H14 H 1.1606 0.0818 0.4297
H15 H 1.2847 0.245 0.4442
loop_
_geom_bond_atom_site_label_1
_geom_bond_atom_site_label_2
_geom_bond_site_symmetry_1
_geom_bond_site_symmetry_2
P1 F1 1_555 1_555
F2 P1 1_555 1_555
F3 P1 1_555 1_555
F4 P1 1_555 1_555
F5 P1 1_555 1_555
F6 P1 1_555 1_555
N1 C1 1_555 1_555
C1 H1 1_555 1_555
N2 C1 1_555 1_555
C2 N2 1_555 1_555
H2 C2 1_555 1_555
C3 N1 1_555 1_555
H3 C3 1_555 1_555
C4 N1 1_555 1_555
H4 C4 1_555 1_555
H5 C4 1_555 1_555
C5 C4 1_555 1_555
H6 C5 1_555 1_555
H7 C5 1_555 1_555
C6 C5 1_555 1_555
H8 C6 1_555 1_555
H9 C6 1_555 1_555
C7 C6 1_555 1_555
H10 C7 1_555 1_555
H11 C7 1_555 1_555
H12 C7 1_555 1_555
C8 N2 1_555 1_555
H13 C8 1_555 1_555
H14 C8 1_555 1_555
H15 C8 1_555 1_555
C2 C3 1_555 1_555

#END
