
#######################################################################
#
#                 Cambridge Crystallographic Data Centre
#                                CCDC 
#
#######################################################################
#
# If this CIF has been generated from an entry in the Cambridge 
# Structural Database, then it will include bibliographic, chemical, 
# crystal, experimental, refinement or atomic coordinate data resulting 
# from the CCDC's data processing and validation procedures.
#
#######################################################################

data_MAZYUI
_chemical_formula_moiety         'C14 H10 O4,C12 H8 N4 O1'
_chemical_name_systematic        
"4,4'-Biphenyldicarboxylic acid 2,5-bis(4-pyridyl)-1,3,4-oxadiazole"
_symmetry_cell_setting           monoclinic
_symmetry_space_group_name_H-M   'C 2/c'
_symmetry_Int_Tables_number      15
_space_group_name_Hall           '-C 2yn'
loop_
_symmetry_equiv_pos_site_id
_symmetry_equiv_pos_as_xyz
1 x,y,z
2 1/2+x,1/2+y,z
3 -x,y,1/2-z
4 1/2-x,1/2+y,1/2-z
5 -x,-y,-z
6 1/2-x,1/2-y,-z
7 x,-y,1/2+z
8 1/2+x,1/2-y,1/2+z
_cell_length_a                   21.131(4)
_cell_length_b                   6.8459(11)
_cell_length_c                   15.376(3)
_cell_angle_alpha                90
_cell_angle_beta                 103.135(2)
_cell_angle_gamma                90
_cell_volume                     2166.11
_exptl_crystal_colour            colorless
_exptl_crystal_description       Block
_cell_formula_units_Z            4
loop_
_atom_site_label
_atom_site_type_symbol
_atom_site_fract_x
_atom_site_fract_y
_atom_site_fract_z
O1 O 0.0000 0.2611(2) 0.2500
N1 N 0.20794(6) 0.3562(2) 0.14557(10)
N2 N 0.02878(7) -0.0437(2) 0.23506(11)
C1 C 0.11067(7) 0.4143(2) 0.19541(10)
H2 H 0.0818 0.5037 0.2106
C2 C 0.16522(8) 0.4765(3) 0.16876(12)
H3 H 0.1726 0.6102 0.1669
C3 C 0.19701(8) 0.1671(3) 0.14924(12)
H4 H 0.2264 0.0812 0.1329
C4 C 0.14419(8) 0.0904(2) 0.17612(12)
H5 H 0.1386 -0.0440 0.1787
C5 C 0.09982(7) 0.2170(2) 0.19909(10)
C6 C 0.04364(7) 0.1373(3) 0.22744(10)
N1B N -0.20794(6) 0.3562(2) 0.35443(10)
N2B N -0.02878(7) -0.0437(2) 0.26494(11)
C1B C -0.11067(7) 0.4143(2) 0.30459(10)
H2B H -0.0818 0.5037 0.2894
C2B C -0.16522(8) 0.4765(3) 0.33124(12)
H3B H -0.1726 0.6102 0.3331
C3B C -0.19701(8) 0.1671(3) 0.35076(12)
H4B H -0.2264 0.0812 0.3671
C4B C -0.14419(8) 0.0904(2) 0.32388(12)
H5B H -0.1386 -0.0440 0.3213
C5B C -0.09982(7) 0.2170(2) 0.30091(10)
C6B C -0.04364(7) 0.1373(3) 0.27256(10)
O2 O 0.30793(5) 0.49216(17) 0.08614(9)
H1 H 0.2766 0.4507 0.1037
O3 O 0.26823(5) 0.77931(17) 0.11535(8)
C7 C 0.30894(7) 0.6832(3) 0.09055(10)
C8 C 0.36560(7) 0.7745(2) 0.06369(10)
C9 C 0.37652(8) 0.9713(3) 0.07459(12)
H6 H 0.3480 1.0474 0.0981
C10 C 0.42903(8) 1.0579(3) 0.05131(12)
H7 H 0.4358 1.1911 0.0612
C11 C 0.47218(7) 0.9529(2) 0.01357(10)
C12 C 0.46031(8) 0.7547(2) 0.00286(13)
H8 H 0.4882 0.6783 -0.0218
C13 C 0.40856(7) 0.6672(3) 0.02756(12)
H9 H 0.4024 0.5332 0.0198
O2D O 0.69207(5) 1.50784(17) -0.08614(9)
H1D H 0.7234 1.5493 -0.1037
O3D O 0.73177(5) 1.22069(17) -0.11535(8)
C7D C 0.69106(7) 1.3168(3) -0.09055(10)
C8D C 0.63440(7) 1.2255(2) -0.06369(10)
C9D C 0.62348(8) 1.0287(3) -0.07459(12)
H6D H 0.6520 0.9526 -0.0981
C10D C 0.57097(8) 0.9421(3) -0.05131(12)
H7D H 0.5642 0.8089 -0.0612
C11D C 0.52782(7) 1.0471(2) -0.01357(10)
C12D C 0.53969(8) 1.2453(2) -0.00286(13)
H8D H 0.5118 1.3217 0.0218
C13D C 0.59144(7) 1.3328(3) -0.02756(12)
H9D H 0.5976 1.4668 -0.0198
loop_
_geom_bond_atom_site_label_1
_geom_bond_atom_site_label_2
_geom_bond_site_symmetry_1
_geom_bond_site_symmetry_2
O1 C6 1_555 1_555
O2 H1 1_555 1_555
O3 C7 1_555 1_555
N1 C2 1_555 1_555
N2 C6 1_555 1_555
C1 H2 1_555 1_555
C2 C1 1_555 1_555
H3 C2 1_555 1_555
C3 N1 1_555 1_555
H4 C3 1_555 1_555
C4 C3 1_555 1_555
H5 C4 1_555 1_555
C5 C1 1_555 1_555
C6 C5 1_555 1_555
C7 O2 1_555 1_555
C8 C7 1_555 1_555
C9 C8 1_555 1_555
H6 C9 1_555 1_555
C10 C9 1_555 1_555
H7 C10 1_555 1_555
C11 C10 1_555 1_555
C12 C11 1_555 1_555
H8 C12 1_555 1_555
C13 C8 1_555 1_555
H9 C13 1_555 1_555
O2D H1D 1_555 1_555
O3D C7D 1_555 1_555
N1B C2B 1_555 1_555
N2B N2 1_555 1_555
C1B H2B 1_555 1_555
C2B C1B 1_555 1_555
H3B C2B 1_555 1_555
C3B N1B 1_555 1_555
H4B C3B 1_555 1_555
C4B C3B 1_555 1_555
H5B C4B 1_555 1_555
C5B C1B 1_555 1_555
C6B O1 1_555 1_555
C7D O2D 1_555 1_555
C8D C7D 1_555 1_555
C9D C8D 1_555 1_555
H6D C9D 1_555 1_555
C10D C9D 1_555 1_555
H7D C10D 1_555 1_555
C11D C11 1_555 1_555
C12D C11D 1_555 1_555
H8D C12D 1_555 1_555
C13D C8D 1_555 1_555
H9D C13D 1_555 1_555
C4 C5 1_555 1_555
C12 C13 1_555 1_555
N2B C6B 1_555 1_555
C4B C5B 1_555 1_555
C5B C6B 1_555 1_555
C10D C11D 1_555 1_555
C12D C13D 1_555 1_555

#END
