
#######################################################################
#
#                 Cambridge Crystallographic Data Centre
#                                CCDC 
#
#######################################################################
#
# If this CIF has been generated from an entry in the Cambridge 
# Structural Database, then it will include bibliographic, chemical, 
# crystal, experimental, refinement or atomic coordinate data resulting 
# from the CCDC's data processing and validation procedures.
#
#######################################################################

data_MAZZOD
_chemical_formula_moiety         'C10 H10 N2 O5'
_chemical_name_systematic        '3-(3-Nitrophenylaminocarbonyl)propionic acid'
_symmetry_cell_setting           monoclinic
_symmetry_space_group_name_H-M   'P 21/c'
_symmetry_Int_Tables_number      14
_space_group_name_Hall           '-P 2ybc'
loop_
_symmetry_equiv_pos_site_id
_symmetry_equiv_pos_as_xyz
1 x,y,z
2 -x,1/2+y,1/2-z
3 -x,-y,-z
4 x,1/2-y,1/2+z
_cell_length_a                   6.6765(4)
_cell_length_b                   19.7961(13)
_cell_length_c                   9.0675(5)
_cell_angle_alpha                90
_cell_angle_beta                 113.595(4)
_cell_angle_gamma                90
_cell_volume                     1098.25
_exptl_crystal_colour            colorless
_exptl_crystal_description       plate
_chemical_melting_point          455-457K
_cell_formula_units_Z            4
_exptl_crystal_recrystallization_method ethanol
loop_
_atom_site_label
_atom_site_type_symbol
_atom_site_fract_x
_atom_site_fract_y
_atom_site_fract_z
O1 O 0.6360(2) 0.29810(6) 0.56794(13)
O2 O 0.0969(3) 0.19919(8) 0.6589(2)
O3 O -0.0117(2) 0.09628(8) 0.6223(2)
O4 O 0.7815(2) 0.47720(7) 0.61217(16)
O5 O 0.5264(2) 0.43856(6) 0.38524(15)
N1 N 0.5794(2) 0.22718(7) 0.35833(16)
N2 N 0.0921(2) 0.14318(8) 0.60141(19)
C1 C 0.6608(3) 0.28337(8) 0.44555(19)
C2 C 0.7889(3) 0.32755(8) 0.3793(2)
C3 C 0.8823(3) 0.38893(9) 0.4831(2)
C4 C 0.7125(3) 0.43650(8) 0.4891(2)
C5 C 0.4565(3) 0.17529(8) 0.39002(18)
C6 C 0.3293(2) 0.18641(8) 0.47620(19)
C7 C 0.2191(2) 0.13195(8) 0.50369(19)
C8 C 0.2248(3) 0.06807(9) 0.4459(2)
C9 C 0.3478(3) 0.05859(9) 0.3576(2)
C10 C 0.4634(3) 0.11115(9) 0.3298(2)
H1 H 0.6095 0.2191 0.2727
H2 H 0.6943 0.3421 0.2716
H3 H 0.9073 0.3014 0.3716
H4 H 0.9720 0.3741 0.5917
H5 H 0.9763 0.4128 0.4423
H6 H 0.3183 0.2292 0.5146
H7 H 0.1479 0.0326 0.4660
H8 H 0.3534 0.0160 0.3159
H9 H 0.5468 0.1037 0.2702
H10 H 0.6813 0.5022 0.6082
loop_
_geom_bond_atom_site_label_1
_geom_bond_atom_site_label_2
_geom_bond_site_symmetry_1
_geom_bond_site_symmetry_2
O1 C1 1_555 1_555
O2 N2 1_555 1_555
O3 N2 1_555 1_555
O4 C4 1_555 1_555
O5 C4 1_555 1_555
N1 C1 1_555 1_555
N2 C7 1_555 1_555
C1 C2 1_555 1_555
C2 C3 1_555 1_555
C3 C4 1_555 1_555
C5 N1 1_555 1_555
C6 C5 1_555 1_555
C7 C6 1_555 1_555
C8 C7 1_555 1_555
C9 C8 1_555 1_555
C10 C5 1_555 1_555
H1 N1 1_555 1_555
H2 C2 1_555 1_555
H3 C2 1_555 1_555
H4 C3 1_555 1_555
H5 C3 1_555 1_555
H6 C6 1_555 1_555
H7 C8 1_555 1_555
H8 C9 1_555 1_555
H9 C10 1_555 1_555
H10 O4 1_555 1_555
C9 C10 1_555 1_555

#END
