
#######################################################################
#
#                 Cambridge Crystallographic Data Centre
#                                CCDC 
#
#######################################################################
#
# If this CIF has been generated from an entry in the Cambridge 
# Structural Database, then it will include bibliographic, chemical, 
# crystal, experimental, refinement or atomic coordinate data resulting 
# from the CCDC's data processing and validation procedures.
#
#######################################################################

data_MBCPAZ
_chemical_formula_moiety         'C5 H6 Br1 N3 O1'
_chemical_name_systematic        3-Methyl-4-bromo-5-carboxamide-pyrazole
_symmetry_cell_setting           orthorhombic
_symmetry_space_group_name_H-M   'P b c a'
_symmetry_Int_Tables_number      61
_space_group_name_Hall           '-P 2ac 2ab'
loop_
_symmetry_equiv_pos_site_id
_symmetry_equiv_pos_as_xyz
1 x,y,z
2 1/2-x,1/2+y,z
3 x,1/2-y,1/2+z
4 1/2-x,-y,1/2+z
5 -x,-y,-z
6 1/2+x,1/2-y,-z
7 -x,1/2+y,1/2-z
8 1/2+x,y,1/2-z
_cell_length_a                   14.149(9)
_cell_length_b                   13.426(5)
_cell_length_c                   7.807
_cell_angle_alpha                90
_cell_angle_beta                 90
_cell_angle_gamma                90
_cell_volume                     1483.05
_chemical_melting_point          204deg.C
_cell_formula_units_Z            8
loop_
_atom_site_label
_atom_site_type_symbol
_atom_site_fract_x
_atom_site_fract_y
_atom_site_fract_z
Br1 Br 0.14270 0.31750 -0.39750
C1 C -0.04250 0.36320 -0.52820
C2 C -0.10060 0.31600 -0.38860
C3 C 0.05410 0.36740 -0.54870
C4 C 0.07080 0.41920 -0.70070
C5 C 0.15910 0.44460 -0.79530
N1 N -0.01390 0.44590 -0.78060
N2 N -0.08040 0.41060 -0.66670
N3 N 0.15150 0.48960 -0.94750
O1 O 0.23480 0.43310 -0.71980
loop_
_geom_bond_atom_site_label_1
_geom_bond_atom_site_label_2
_geom_bond_site_symmetry_1
_geom_bond_site_symmetry_2
Br1 C3 1_555 1_555
C1 C2 1_555 1_555
C3 C1 1_555 1_555
C4 C3 1_555 1_555
C5 C4 1_555 1_555
N1 C4 1_555 1_555
N2 C1 1_555 1_555
N3 C5 1_555 1_555
O1 C5 1_555 1_555
N1 N2 1_555 1_555

#END
