
#######################################################################
#
#                 Cambridge Crystallographic Data Centre
#                                CCDC 
#
#######################################################################
#
# If this CIF has been generated from an entry in the Cambridge 
# Structural Database, then it will include bibliographic, chemical, 
# crystal, experimental, refinement or atomic coordinate data resulting 
# from the CCDC's data processing and validation procedures.
#
#######################################################################

data_MBCTPT02
_chemical_formula_moiety         'C17 H12 S3'
_chemical_name_systematic        2,4-Diphenyl-6a-thiathiophthene
_symmetry_cell_setting           triclinic
_symmetry_space_group_name_H-M   'P -1'
_symmetry_Int_Tables_number      2
_space_group_name_Hall           '-P 1'
loop_
_symmetry_equiv_pos_site_id
_symmetry_equiv_pos_as_xyz
1 x,y,z
2 -x,-y,-z
_cell_length_a                   10.111(1)
_cell_length_b                   8.397(1)
_cell_length_c                   9.5779(6)
_cell_angle_alpha                111.179(6)
_cell_angle_beta                 75.679(6)
_cell_angle_gamma                100.429(8)
_cell_volume                     730.905
_exptl_crystal_colour            deep-red
_cell_formula_units_Z            2
loop_
_atom_site_label
_atom_site_type_symbol
_atom_site_fract_x
_atom_site_fract_y
_atom_site_fract_z
S1 S 0.32936(4) 0.40604(4) 0.23883(4)
S2 S 0.12964(3) 0.31706(4) 0.41979(4)
S3 S -0.04466(4) 0.24289(5) 0.58351(5)
C1 C 0.3806(1) 0.5757(1) 0.3842(1)
C2 C 0.3050(1) 0.5989(1) 0.5309(1)
C3 C 0.1891(1) 0.4887(1) 0.5660(1)
C4 C 0.1127(1) 0.5142(1) 0.7188(1)
C5 C -0.0029(1) 0.4036(2) 0.7384(2)
C6 C 0.5013(1) 0.6978(1) 0.3563(1)
C7 C 0.5721(1) 0.7963(2) 0.4739(1)
C8 C 0.6820(1) 0.9160(2) 0.4495(2)
C9 C 0.7247(1) 0.9379(2) 0.3072(2)
C10 C 0.6578(2) 0.8377(2) 0.1879(2)
C11 C 0.5474(2) 0.7177(2) 0.2123(1)
C12 C 0.1554(1) 0.6553(1) 0.8521(1)
C13 C 0.0615(1) 0.7695(2) 0.9548(1)
C14 C 0.1013(2) 0.9017(2) 1.0809(3)
C15 C 0.2338(2) 0.9219(2) 1.1054(1)
C16 C 0.3281(2) 0.8091(2) 1.0036(2)
C17 C 0.2889(1) 0.6758(2) 0.8787(1)
H1 H 0.331 0.709 0.626
H2 H -0.068 0.414 0.849
H3 H 0.539 0.782 0.586
H4 H 0.734 0.990 0.543
H5 H 0.809 1.034 0.290
H6 H 0.695 0.847 0.074
H7 H 0.492 0.643 0.122
H8 H -0.040 0.755 0.932
H9 H 0.026 0.986 1.160
H10 H 0.265 1.024 1.203
H11 H 0.433 0.821 1.019
H12 H 0.362 0.588 0.801
loop_
_geom_bond_atom_site_label_1
_geom_bond_atom_site_label_2
_geom_bond_site_symmetry_1
_geom_bond_site_symmetry_2
S1 S2 1_555 1_555
S2 S3 1_555 1_555
S3 C5 1_555 1_555
C1 S1 1_555 1_555
C2 C1 1_555 1_555
C3 S2 1_555 1_555
C4 C3 1_555 1_555
C5 C4 1_555 1_555
C6 C1 1_555 1_555
C7 C6 1_555 1_555
C8 C7 1_555 1_555
C9 C8 1_555 1_555
C10 C9 1_555 1_555
C11 C6 1_555 1_555
C12 C4 1_555 1_555
C13 C12 1_555 1_555
C14 C13 1_555 1_555
C15 C14 1_555 1_555
C16 C15 1_555 1_555
C17 C12 1_555 1_555
H1 C2 1_555 1_555
H2 C5 1_555 1_555
H3 C7 1_555 1_555
H4 C8 1_555 1_555
H5 C9 1_555 1_555
H6 C10 1_555 1_555
H7 C11 1_555 1_555
H8 C13 1_555 1_555
H9 C14 1_555 1_555
H10 C15 1_555 1_555
H11 C16 1_555 1_555
H12 C17 1_555 1_555
C2 C3 1_555 1_555
C10 C11 1_555 1_555
C16 C17 1_555 1_555

#END
