
#######################################################################
#
#                 Cambridge Crystallographic Data Centre
#                                CCDC 
#
#######################################################################
#
# If this CIF has been generated from an entry in the Cambridge 
# Structural Database, then it will include bibliographic, chemical, 
# crystal, experimental, refinement or atomic coordinate data resulting 
# from the CCDC's data processing and validation procedures.
#
#######################################################################

data_MBCTPT11
_chemical_formula_moiety         'C17 H12 S3'
_chemical_name_systematic        2,4-Diphenyl-6a-thiathiophthene
_symmetry_cell_setting           triclinic
_symmetry_space_group_name_H-M   'P -1'
_symmetry_Int_Tables_number      2
_space_group_name_Hall           '-P 1'
loop_
_symmetry_equiv_pos_site_id
_symmetry_equiv_pos_as_xyz
1 x,y,z
2 -x,-y,-z
_cell_length_a                   10.111(1)
_cell_length_b                   8.397(1)
_cell_length_c                   9.5779(6)
_cell_angle_alpha                111.179(6)
_cell_angle_beta                 75.679(6)
_cell_angle_gamma                100.429(8)
_cell_volume                     730.905
_cell_formula_units_Z            2
loop_
_atom_site_label
_atom_site_type_symbol
_atom_site_fract_x
_atom_site_fract_y
_atom_site_fract_z
S1 S 0.32935(2) 0.40612(2) 0.23883(2)
S2 S 0.12967(1) 0.31705(2) 0.41983(2)
S3 S -0.04463(2) 0.24283(2) 0.58347(2)
C1 C 0.38069(6) 0.57569(8) 0.38412(7)
C2 C 0.30491(7) 0.59868(8) 0.53091(7)
C3 C 0.18907(6) 0.48869(8) 0.56590(7)
C4 C 0.11280(7) 0.51434(8) 0.71883(8)
C5 C -0.00278(8) 0.40397(9) 0.73846(9)
C6 C 0.50161(5) 0.69763(6) 0.35618(6)
C7 C 0.57177(5) 0.79643(7) 0.47398(6)
C8 C 0.68223(5) 0.91544(7) 0.44906(7)
C9 C 0.72480(6) 0.93758(7) 0.30685(7)
C10 C 0.65771(6) 0.83771(8) 0.18830(7)
C11 C 0.54714(6) 0.71819(7) 0.21251(6)
C12 C 0.15525(6) 0.65564(6) 0.85222(6)
C13 C 0.06149(5) 0.76928(7) 0.95470(6)
C14 C 0.10120(6) 0.90120(7) 1.08051(6)
C15 C 0.23421(7) 0.92151(7) 1.10496(6)
C16 C 0.32807(6) 0.80873(7) 1.00353(7)
C17 C 0.28866(6) 0.67559(7) 0.87885(6)
H1 H 0.328 0.695 0.614
H2 H -0.059 0.412 0.835
H3 H 0.541 0.782 0.579
H4 H 0.728 0.982 0.532
H5 H 0.799 1.023 0.292
H6 H 0.690 0.845 0.088
H7 H 0.499 0.652 0.132
H8 H -0.028 0.757 0.935
H9 H 0.033 0.978 1.154
H10 H 0.260 1.008 1.189
H11 H 0.418 0.819 1.016
H12 H 0.354 0.598 0.809
loop_
_geom_bond_atom_site_label_1
_geom_bond_atom_site_label_2
_geom_bond_site_symmetry_1
_geom_bond_site_symmetry_2
S1 S2 1_555 1_555
S2 S3 1_555 1_555
S3 C5 1_555 1_555
C1 S1 1_555 1_555
C2 C1 1_555 1_555
C3 S2 1_555 1_555
C4 C3 1_555 1_555
C5 C4 1_555 1_555
C6 C1 1_555 1_555
C7 C6 1_555 1_555
C8 C7 1_555 1_555
C9 C8 1_555 1_555
C10 C9 1_555 1_555
C11 C6 1_555 1_555
C12 C4 1_555 1_555
C13 C12 1_555 1_555
C14 C13 1_555 1_555
C15 C14 1_555 1_555
C16 C15 1_555 1_555
C17 C12 1_555 1_555
H1 C2 1_555 1_555
H2 C5 1_555 1_555
H3 C7 1_555 1_555
H4 C8 1_555 1_555
H5 C9 1_555 1_555
H6 C10 1_555 1_555
H7 C11 1_555 1_555
H8 C13 1_555 1_555
H9 C14 1_555 1_555
H10 C15 1_555 1_555
H11 C16 1_555 1_555
H12 C17 1_555 1_555
C2 C3 1_555 1_555
C10 C11 1_555 1_555
C16 C17 1_555 1_555

#END
