
#######################################################################
#
#                 Cambridge Crystallographic Data Centre
#                                CCDC 
#
#######################################################################
#
# If this CIF has been generated from an entry in the Cambridge 
# Structural Database, then it will include bibliographic, chemical, 
# crystal, experimental, refinement or atomic coordinate data resulting 
# from the CCDC's data processing and validation procedures.
#
#######################################################################

data_MBTHDO
_chemical_formula_moiety         'C11 H13 N1 O5 S1'
_chemical_name_systematic        
N-Methyl-4H-6,7-dimethoxy-benzo-1,2-thiazin-3-one-1,1-dioxide
_symmetry_cell_setting           monoclinic
_symmetry_space_group_name_H-M   'P 21/c'
_symmetry_Int_Tables_number      14
_space_group_name_Hall           '-P 2ybc'
loop_
_symmetry_equiv_pos_site_id
_symmetry_equiv_pos_as_xyz
1 x,y,z
2 -x,1/2+y,1/2-z
3 -x,-y,-z
4 x,1/2-y,1/2+z
_cell_length_a                   9.630(2)
_cell_length_b                   8.781(2)
_cell_length_c                   15.180(4)
_cell_angle_alpha                90
_cell_angle_beta                 108.14(2)
_cell_angle_gamma                90
_cell_volume                     1219.84
_cell_formula_units_Z            4
loop_
_atom_site_label
_atom_site_type_symbol
_atom_site_fract_x
_atom_site_fract_y
_atom_site_fract_z
C13 C 0.34540 -0.02180 0.69680
O3 O 0.29950 0.01060 0.60110
C14 C 0.23470 0.15150 0.34200
O4 O 0.25010 0.09690 0.43330
C3 C 0.18000 0.10110 0.56710
C4 C 0.15210 0.14870 0.47430
C5 C 0.03300 0.23810 0.43270
C6 C -0.06180 0.28450 0.47970
C1 C -0.03330 0.23660 0.57030
C2 C 0.08580 0.14450 0.61420
C7 C -0.18930 0.38430 0.43530
C8 C -0.32650 0.34270 0.45780
O8 O -0.44720 0.35340 0.40150
N1 N -0.31030 0.29240 0.54690
C15 C -0.43650 0.24140 0.57110
S1 S -0.14970 0.30120 0.62910
O11 O -0.11720 0.45720 0.65450
O12 O -0.15420 0.19810 0.70070
H131 H 0.35900 0.07500 0.73600
H132 H 0.42900 -0.09400 0.70900
H133 H 0.27600 -0.07700 0.71300
H141 H 0.13900 0.10800 0.29400
H142 H 0.31600 0.10900 0.32600
H143 H 0.22500 0.26400 0.33900
H151 H -0.50300 0.21200 0.52600
H152 H -0.48300 0.31200 0.58900
H153 H -0.40600 0.21000 0.63500
H2 H 0.09800 0.11300 0.67700
H5 H 0.01300 0.27300 0.37400
H71 H -0.22800 0.41900 0.36200
H72 H -0.18900 0.49900 0.43500
loop_
_geom_bond_atom_site_label_1
_geom_bond_atom_site_label_2
_geom_bond_site_symmetry_1
_geom_bond_site_symmetry_2
C13 O3 1_555 1_555
O3 C3 1_555 1_555
C14 O4 1_555 1_555
O4 C4 1_555 1_555
C3 C4 1_555 1_555
C4 C5 1_555 1_555
C5 C6 1_555 1_555
C6 C1 1_555 1_555
C1 C2 1_555 1_555
C2 C3 1_555 1_555
C7 C6 1_555 1_555
C8 C7 1_555 1_555
O8 C8 1_555 1_555
N1 C8 1_555 1_555
C15 N1 1_555 1_555
S1 C1 1_555 1_555
O11 S1 1_555 1_555
O12 S1 1_555 1_555
H131 C13 1_555 1_555
H132 C13 1_555 1_555
H133 C13 1_555 1_555
H141 C14 1_555 1_555
H142 C14 1_555 1_555
H143 C14 1_555 1_555
H151 C15 1_555 1_555
H152 C15 1_555 1_555
H153 C15 1_555 1_555
H2 C2 1_555 1_555
H5 C5 1_555 1_555
H71 C7 1_555 1_555
H72 C7 1_555 1_555
N1 S1 1_555 1_555

#END
