
#######################################################################
#
#                 Cambridge Crystallographic Data Centre
#                                CCDC 
#
#######################################################################
#
# If this CIF has been generated from an entry in the Cambridge 
# Structural Database, then it will include bibliographic, chemical, 
# crystal, experimental, refinement or atomic coordinate data resulting 
# from the CCDC's data processing and validation procedures.
#
#######################################################################

data_MEBBOL
_chemical_formula_moiety         'C16 H6 F12'
_chemical_name_systematic        2,2',5,5'-tetrakis(trifluoromethyl)biphenyl
_symmetry_cell_setting           triclinic
_symmetry_space_group_name_H-M   'P -1'
_symmetry_Int_Tables_number      2
_space_group_name_Hall           '-P 1'
loop_
_symmetry_equiv_pos_site_id
_symmetry_equiv_pos_as_xyz
1 x,y,z
2 -x,-y,-z
_cell_length_a                   7.4296(2)
_cell_length_b                   14.3048(4)
_cell_length_c                   15.1315(4)
_cell_angle_alpha                79.730(10)
_cell_angle_beta                 77.210(10)
_cell_angle_gamma                76.390(10)
_cell_volume                     1510.65
_exptl_crystal_colour            colorless
_exptl_crystal_description       block
_cell_formula_units_Z            4
loop_
_atom_site_label
_atom_site_type_symbol
_atom_site_fract_x
_atom_site_fract_y
_atom_site_fract_z
F1 F 1.10437(15) 0.71425(8) 0.07710(9)
F2 F 0.94316(17) 0.77359(9) -0.02873(8)
F3 F 0.84579(15) 0.81778(8) 0.10442(9)
F4 F 0.38913(16) 0.43902(8) 0.11119(8)
F5 F 0.5047(2) 0.38635(9) 0.23298(8)
F6 F 0.65920(18) 0.34254(8) 0.10462(11)
F7 F 0.32362(15) 0.86682(7) 0.29303(7)
F8 F 0.31604(16) 0.72235(8) 0.27430(7)
F9 F 0.58185(14) 0.76499(8) 0.25602(7)
F10 F 0.41727(18) 0.85770(8) -0.19164(7)
F11 F 0.4192(2) 1.00196(9) -0.17434(8)
F12 F 0.15851(16) 0.95277(11) -0.14289(8)
C1 C 0.6279(2) 0.67624(10) 0.09371(10)
C2 C 0.8238(2) 0.65870(11) 0.08771(10)
C3 C 0.9269(2) 0.56457(12) 0.10235(11)
C4 C 0.8380(2) 0.48609(12) 0.12217(11)
C5 C 0.6450(2) 0.50273(11) 0.12671(10)
C6 C 0.5400(2) 0.59670(11) 0.11386(10)
C7 C 0.9284(2) 0.74106(12) 0.06075(11)
C8 C 0.5487(2) 0.41801(12) 0.14445(12)
C9 C 0.5066(2) 0.77423(10) 0.07366(10)
C10 C 0.3977(2) 0.82988(10) 0.14128(10)
C11 C 0.2750(2) 0.91651(11) 0.11829(11)
C12 C 0.2583(2) 0.94814(11) 0.02764(11)
C13 C 0.3652(2) 0.89272(11) -0.03962(10)
C14 C 0.4896(2) 0.80703(11) -0.01743(10)
C15 C 0.4058(2) 0.79644(11) 0.24083(10)
C16 C 0.3403(2) 0.92585(12) -0.13717(11)
H1 H 1.055(3) 0.5554(16) 0.0990(15)
H2 H 0.906(3) 0.4240(17) 0.1318(15)
H3 H 0.409(3) 0.6068(15) 0.1194(14)
H4 H 0.206(3) 0.9520(16) 0.1636(16)
H5 H 0.175(3) 1.0073(16) 0.0137(14)
H6 H 0.562(3) 0.7703(15) -0.0652(15)
F13 F 0.18170(16) 0.27611(8) 0.22043(7)
F14 F 0.16117(17) 0.13289(8) 0.20441(7)
F15 F -0.09013(15) 0.23801(8) 0.24520(7)
F16 F 0.1072(4) 0.13992(18) 0.68768(16)
F17 F 0.3588(4) 0.0570(3) 0.63625(19)
F18 F 0.0686(5) 0.0009(2) 0.6733(2)
F19 F -0.60254(15) 0.31200(9) 0.44845(10)
F20 F -0.41380(18) 0.24118(10) 0.53853(8)
F21 F -0.36502(19) 0.20147(9) 0.40477(10)
F22 F 0.10254(19) 0.58030(9) 0.40298(8)
F23 F 0.16418(19) 0.55415(9) 0.26486(9)
F24 F -0.07548(19) 0.66232(8) 0.31026(12)
C17 C 0.0055(2) 0.22761(10) 0.42391(10)
C18 C 0.1031(2) 0.16977(11) 0.35574(10)
C19 C 0.2186(2) 0.08049(12) 0.37777(11)
C20 C 0.2397(2) 0.04787(12) 0.46767(11)
C21 C 0.1442(2) 0.10517(11) 0.53520(10)
C22 C 0.0276(2) 0.19384(11) 0.51427(10)
C23 C 0.0878(2) 0.20360(11) 0.25687(11)
C24 C 0.1760(2) 0.07114(12) 0.63168(11)
C25 C -0.1060(2) 0.32824(11) 0.40372(10)
C26 C -0.3034(2) 0.35338(11) 0.41677(10)
C27 C -0.3950(2) 0.44957(12) 0.40006(11)
C28 C -0.2927(2) 0.52315(12) 0.37192(11)
C29 C -0.0974(2) 0.49846(11) 0.36024(10)
C30 C -0.0051(2) 0.40239(11) 0.37479(10)
C31 C -0.4206(2) 0.27667(12) 0.45118(12)
C32 C 0.0198(2) 0.57498(12) 0.33458(12)
H7 H 0.279(4) 0.0440(19) 0.3322(18)
H8 H 0.322(3) -0.0114(17) 0.4790(15)
H9 H -0.036(3) 0.2320(16) 0.5626(15)
H10 H -0.526(3) 0.4667(18) 0.4048(16)
H11 H -0.353(3) 0.5905(16) 0.3605(15)
H12 H 0.130(3) 0.3863(15) 0.3643(14)
F25? F 0.0625(4) 0.12488(19) 0.69245(17)
F26? F 0.3549(6) 0.0895(4) 0.6347(3)
F27? F 0.1285(8) -0.0147(3) 0.6646(2)
F28? F 0.3470(6) 0.0249(3) 0.6370(3)
F29? F 0.1969(8) -0.0233(3) 0.6535(3)
loop_
_geom_bond_atom_site_label_1
_geom_bond_atom_site_label_2
_geom_bond_site_symmetry_1
_geom_bond_site_symmetry_2
F1 C7 1_555 1_555
F2 C7 1_555 1_555
F3 C7 1_555 1_555
F4 C8 1_555 1_555
F5 C8 1_555 1_555
F6 C8 1_555 1_555
F7 C15 1_555 1_555
F8 C15 1_555 1_555
F9 C15 1_555 1_555
F10 C16 1_555 1_555
F11 C16 1_555 1_555
F12 C16 1_555 1_555
C1 C2 1_555 1_555
C2 C3 1_555 1_555
C3 C4 1_555 1_555
C4 C5 1_555 1_555
C5 C6 1_555 1_555
C6 C1 1_555 1_555
C7 C2 1_555 1_555
C8 C5 1_555 1_555
C9 C1 1_555 1_555
C10 C9 1_555 1_555
C11 C10 1_555 1_555
C12 C11 1_555 1_555
C13 C12 1_555 1_555
C14 C9 1_555 1_555
C15 C10 1_555 1_555
C16 C13 1_555 1_555
H1 C3 1_555 1_555
H2 C4 1_555 1_555
H3 C6 1_555 1_555
H4 C11 1_555 1_555
H5 C12 1_555 1_555
H6 C14 1_555 1_555
F13 C23 1_555 1_555
F14 C23 1_555 1_555
F15 C23 1_555 1_555
F16 C24 1_555 1_555
F17 C24 1_555 1_555
F18 C24 1_555 1_555
F19 C31 1_555 1_555
F20 C31 1_555 1_555
F21 C31 1_555 1_555
F22 C32 1_555 1_555
F23 C32 1_555 1_555
F24 C32 1_555 1_555
C17 C18 1_555 1_555
C18 C19 1_555 1_555
C19 C20 1_555 1_555
C20 C21 1_555 1_555
C21 C22 1_555 1_555
C22 C17 1_555 1_555
C23 C18 1_555 1_555
C24 C21 1_555 1_555
C25 C17 1_555 1_555
C26 C25 1_555 1_555
C27 C26 1_555 1_555
C28 C27 1_555 1_555
C29 C28 1_555 1_555
C30 C25 1_555 1_555
C31 C26 1_555 1_555
C32 C29 1_555 1_555
H7 C19 1_555 1_555
H8 C20 1_555 1_555
H9 C22 1_555 1_555
H10 C27 1_555 1_555
H11 C28 1_555 1_555
H12 C30 1_555 1_555
C13 C14 1_555 1_555
C29 C30 1_555 1_555

#END
