
#######################################################################
#
#                 Cambridge Crystallographic Data Centre
#                                CCDC 
#
#######################################################################
#
# If this CIF has been generated from an entry in the Cambridge 
# Structural Database, then it will include bibliographic, chemical, 
# crystal, experimental, refinement or atomic coordinate data resulting 
# from the CCDC's data processing and validation procedures.
#
#######################################################################

data_MEBBEB
_chemical_compound_source        'Cryptocarya costata Bl'
_chemical_name_common            2',4'-Dihydroxy-5',6'-dimethoxychalcone
_chemical_formula_moiety         'C17 H16 O5'
_chemical_name_systematic        
(E)-1-(4,6-dihydroxy-2,3-dimethoxyphenyl)-3-phenylprop-2-en-1-one
_symmetry_cell_setting           orthorhombic
_symmetry_space_group_name_H-M   'P b c a'
_symmetry_Int_Tables_number      61
_space_group_name_Hall           '-P 2ac 2ab'
loop_
_symmetry_equiv_pos_site_id
_symmetry_equiv_pos_as_xyz
1 x,y,z
2 1/2-x,-y,1/2+z
3 -x,1/2+y,1/2-z
4 1/2+x,1/2-y,-z
5 -x,-y,-z
6 1/2+x,y,1/2-z
7 x,1/2-y,1/2+z
8 1/2-x,1/2+y,z
_cell_length_a                   12.360(2)
_cell_length_b                   7.1688(14)
_cell_length_c                   33.275(6)
_cell_angle_alpha                90
_cell_angle_beta                 90
_cell_angle_gamma                90
_cell_volume                     2948.38
_exptl_crystal_colour            yellow
_exptl_crystal_description       block
_chemical_melting_point          '440-442 K'
_cell_formula_units_Z            8
_exptl_crystal_recrystallization_method methanol
loop_
_atom_site_label
_atom_site_type_symbol
_atom_site_fract_x
_atom_site_fract_y
_atom_site_fract_z
O1 O 0.18787(12) 0.0964(3) 0.36742(5)
O2 O 0.52405(11) 0.1270(2) 0.38143(4)
O3 O 0.60992(11) 0.2219(3) 0.45505(4)
O4 O 0.47337(12) 0.2885(3) 0.51833(4)
H1 H 0.5396 0.2830 0.5175
O5 O 0.16773(11) 0.1899(2) 0.43929(5)
H2 H 0.1488 0.1546 0.4169
C1 C 0.30111(18) -0.0632(3) 0.22705(7)
H3 H 0.2350 -0.1197 0.2325
C2 C 0.3440(2) -0.0750(4) 0.18884(7)
H4 H 0.3075 -0.1414 0.1690
C3 C 0.4400(2) 0.0106(3) 0.18010(7)
H5 H 0.4685 0.0039 0.1543
C4 C 0.49407(19) 0.1066(3) 0.20968(7)
H6 H 0.5592 0.1654 0.2037
C5 C 0.45255(17) 0.1165(3) 0.24799(7)
H7 H 0.4904 0.1809 0.2678
C6 C 0.35465(16) 0.0314(3) 0.25750(6)
C7 C 0.30642(17) 0.0404(3) 0.29747(6)
H8 H 0.2397 -0.0178 0.3005
C8 C 0.34651(17) 0.1216(3) 0.32986(6)
H9 H 0.4138 0.1794 0.3283
C9 C 0.28749(16) 0.1230(3) 0.36831(6)
C10 C 0.34106(16) 0.1603(3) 0.40662(6)
C11 C 0.45453(15) 0.1668(3) 0.41239(6)
C12 C 0.49921(16) 0.2141(3) 0.44887(6)
C13 C 0.43233(17) 0.2486(3) 0.48180(6)
C14 C 0.32199(16) 0.2408(4) 0.47744(6)
H10 H 0.2775 0.2660 0.4993
C15 C 0.27679(16) 0.1961(3) 0.44104(6)
C16 C 0.66396(19) 0.3645(5) 0.43294(7)
H11 H 0.7400 0.3608 0.4388
H12 H 0.6353 0.4840 0.4404
H13 H 0.6530 0.3447 0.4047
C17 C 0.5553(2) -0.0645(5) 0.37975(9)
H14 H 0.6037 -0.0833 0.3576
H15 H 0.4921 -0.1409 0.3762
H16 H 0.5909 -0.0983 0.4043
loop_
_geom_bond_atom_site_label_1
_geom_bond_atom_site_label_2
_geom_bond_site_symmetry_1
_geom_bond_site_symmetry_2
O1 C9 1_555 1_555
O2 C11 1_555 1_555
O3 C12 1_555 1_555
O4 H1 1_555 1_555
O5 H2 1_555 1_555
C1 H3 1_555 1_555
C2 C1 1_555 1_555
H4 C2 1_555 1_555
C3 C2 1_555 1_555
H5 C3 1_555 1_555
C4 C3 1_555 1_555
H6 C4 1_555 1_555
C5 C4 1_555 1_555
H7 C5 1_555 1_555
C6 C1 1_555 1_555
C7 C6 1_555 1_555
H8 C7 1_555 1_555
C8 C7 1_555 1_555
H9 C8 1_555 1_555
C9 C8 1_555 1_555
C10 C9 1_555 1_555
C11 C10 1_555 1_555
C12 C11 1_555 1_555
C13 O4 1_555 1_555
C14 C13 1_555 1_555
H10 C14 1_555 1_555
C15 O5 1_555 1_555
C16 O3 1_555 1_555
H11 C16 1_555 1_555
H12 C16 1_555 1_555
H13 C16 1_555 1_555
C17 O2 1_555 1_555
H14 C17 1_555 1_555
H15 C17 1_555 1_555
H16 C17 1_555 1_555
C5 C6 1_555 1_555
C10 C15 1_555 1_555
C12 C13 1_555 1_555
C14 C15 1_555 1_555

#END
