
#######################################################################
#
#                 Cambridge Crystallographic Data Centre
#                                CCDC 
#
#######################################################################
#
# If this CIF has been generated from an entry in the Cambridge 
# Structural Database, then it will include bibliographic, chemical, 
# crystal, experimental, refinement or atomic coordinate data resulting 
# from the CCDC's data processing and validation procedures.
#
#######################################################################

data_MEBCAY
_chemical_formula_moiety         'C14 H12 Cl2 O4'
_chemical_name_systematic        
1-Acetyl-2a,8b-dichloro-1-methoxy-1,2,2a,8b-tetrahydro-3H-cyclobuta(c)chromen-3-one
_symmetry_cell_setting           monoclinic
_symmetry_space_group_name_H-M   'P 21/n'
_symmetry_Int_Tables_number      14
_space_group_name_Hall           '-P 2yn'
loop_
_symmetry_equiv_pos_site_id
_symmetry_equiv_pos_as_xyz
1 x,y,z
2 1/2-x,1/2+y,1/2-z
3 -x,-y,-z
4 1/2+x,1/2-y,1/2+z
_cell_length_a                   12.678(3)
_cell_length_b                   8.7360(17)
_cell_length_c                   13.185(3)
_cell_angle_alpha                90
_cell_angle_beta                 107.09(3)
_cell_angle_gamma                90
_cell_volume                     1395.82
_exptl_crystal_colour            colorless
_exptl_crystal_description       block
_chemical_melting_point          '467.2 K'
_cell_formula_units_Z            4
_exptl_crystal_recrystallization_method 'ethyl acetate/petroleum ether'
loop_
_atom_site_label
_atom_site_type_symbol
_atom_site_fract_x
_atom_site_fract_y
_atom_site_fract_z
Cl1 Cl 0.74570(8) 0.19543(11) 0.72000(7)
Cl2 Cl 0.61485(7) 0.08808(10) 0.48364(7)
O1 O 0.8303(3) -0.0642(3) 0.3948(2)
O2 O 0.86173(17) 0.3151(2) 0.43481(17)
O3 O 0.9417(2) 0.4089(3) 0.7044(2)
O4 O 0.80183(17) 0.5250(3) 0.59365(16)
C1 C 0.7267(3) 0.1100(5) 0.2647(3)
H1 H 0.7192 0.0250 0.2170
H2 H 0.7640 0.1924 0.2413
H3 H 0.6550 0.1436 0.2658
C2 C 0.7925(3) 0.0617(4) 0.3741(3)
C3 C 0.8132(2) 0.1812(3) 0.4620(2)
C4 C 0.9707(3) 0.2937(5) 0.4253(4)
H4 H 0.9979 0.3892 0.4071
H5 H 0.9683 0.2197 0.3709
H6 H 1.0188 0.2577 0.4916
C5 C 0.8686(3) 0.1284(4) 0.5770(3)
H7 H 0.8542 0.0224 0.5903
H8 H 0.9467 0.1516 0.6030
C6 C 0.7951(2) 0.2427(4) 0.6114(2)
C7 C 0.8527(3) 0.3969(4) 0.6395(2)
C8 C 0.7041(2) 0.5234(3) 0.5087(2)
C9 C 0.6598(3) 0.6645(4) 0.4769(3)
H9 H 0.6944 0.7523 0.5108
C10 C 0.5633(3) 0.6762(4) 0.3939(3)
H10 H 0.5321 0.7715 0.3721
C11 C 0.5140(3) 0.5446(4) 0.3441(3)
H11 H 0.4492 0.5516 0.2883
C12 C 0.5594(3) 0.4026(4) 0.3760(3)
H12 H 0.5249 0.3150 0.3418
C13 C 0.6570(2) 0.3899(3) 0.4592(2)
C14 C 0.7121(2) 0.2407(3) 0.4981(2)
loop_
_geom_bond_atom_site_label_1
_geom_bond_atom_site_label_2
_geom_bond_site_symmetry_1
_geom_bond_site_symmetry_2
Cl1 C6 1_555 1_555
Cl2 C14 1_555 1_555
O1 C2 1_555 1_555
O2 C3 1_555 1_555
O3 C7 1_555 1_555
O4 C7 1_555 1_555
C1 H1 1_555 1_555
H2 C1 1_555 1_555
H3 C1 1_555 1_555
C2 C1 1_555 1_555
C3 C2 1_555 1_555
C4 O2 1_555 1_555
H4 C4 1_555 1_555
H5 C4 1_555 1_555
H6 C4 1_555 1_555
C5 C3 1_555 1_555
H7 C5 1_555 1_555
H8 C5 1_555 1_555
C6 C5 1_555 1_555
C7 C6 1_555 1_555
C8 O4 1_555 1_555
C9 C8 1_555 1_555
H9 C9 1_555 1_555
C10 C9 1_555 1_555
H10 C10 1_555 1_555
C11 C10 1_555 1_555
H11 C11 1_555 1_555
C12 C11 1_555 1_555
H12 C12 1_555 1_555
C13 C8 1_555 1_555
C14 C3 1_555 1_555
C6 C14 1_555 1_555
C12 C13 1_555 1_555
C13 C14 1_555 1_555

#END
