
#######################################################################
#
#                 Cambridge Crystallographic Data Centre
#                                CCDC 
#
#######################################################################
#
# If this CIF has been generated from an entry in the Cambridge 
# Structural Database, then it will include bibliographic, chemical, 
# crystal, experimental, refinement or atomic coordinate data resulting 
# from the CCDC's data processing and validation procedures.
#
#######################################################################

data_MEBGUW
_chemical_formula_moiety         'C25 H20 Cl2 O2'
_chemical_name_systematic        
2-(1-(3,4-Dichlorophenyl)-3-oxo-3-phenylpropyl)-3,4-dihydro-2H-naphthalen-1-one
_symmetry_cell_setting           monoclinic
_symmetry_space_group_name_H-M   'P 21/n'
_symmetry_Int_Tables_number      14
_space_group_name_Hall           '-P 2yn'
loop_
_symmetry_equiv_pos_site_id
_symmetry_equiv_pos_as_xyz
1 x,y,z
2 1/2-x,1/2+y,1/2-z
3 -x,-y,-z
4 1/2+x,1/2-y,1/2+z
_cell_length_a                   9.9826(19)
_cell_length_b                   17.858(3)
_cell_length_c                   11.703(2)
_cell_angle_alpha                90
_cell_angle_beta                 91.667(3)
_cell_angle_gamma                90
_cell_volume                     2085.4
_exptl_crystal_colour            colorless
_exptl_crystal_description       Block
_chemical_melting_point          '469-470 K'
_cell_formula_units_Z            4
_exptl_crystal_recrystallization_method ethanol
loop_
_atom_site_label
_atom_site_type_symbol
_atom_site_fract_x
_atom_site_fract_y
_atom_site_fract_z
Cl1 Cl 0.60289(12) 0.94496(7) -0.09359(14)
Cl2 Cl 0.86756(12) 1.00483(5) -0.19962(8)
O1 O 0.8679(2) 0.65171(12) -0.07565(18)
O2 O 0.7770(2) 0.65610(12) 0.30267(16)
C1 C 0.8762(3) 0.73942(16) 0.1209(2)
C2 C 0.9834(3) 0.68126(18) 0.0988(3)
C3 C 0.9667(3) 0.64200(16) -0.0155(2)
C4 C 1.0748(3) 0.58997(15) -0.0512(2)
C5 C 1.1766(4) 0.56655(19) 0.0213(3)
C6 C 1.2723(4) 0.5164(2) -0.0160(4)
C7 C 1.2677(5) 0.4908(2) -0.1250(4)
C8 C 1.1680(5) 0.5146(2) -0.1987(4)
C9 C 1.0726(4) 0.5633(2) -0.1621(3)
C10 C 0.8753(3) 0.80494(16) 0.0377(2)
C11 C 0.7566(4) 0.84144(18) 0.0114(3)
C12 C 0.7534(3) 0.90283(18) -0.0610(3)
C13 C 0.8703(4) 0.92844(16) -0.1086(2)
C14 C 0.9871(4) 0.89229(19) -0.0846(3)
C15 C 0.9897(4) 0.8315(2) -0.0130(3)
C16 C 0.8851(3) 0.76833(17) 0.2450(2)
C17 C 0.8430(3) 0.71060(16) 0.3308(2)
C18 C 0.8804(3) 0.72456(16) 0.4529(2)
C19 C 0.8354(3) 0.67466(19) 0.5357(3)
C20 C 0.8583(4) 0.6883(2) 0.6488(3)
C21 C 0.9271(4) 0.7509(3) 0.6826(3)
C22 C 0.9760(4) 0.7997(2) 0.6031(3)
C23 C 0.9549(3) 0.78684(16) 0.4863(2)
C24 C 1.0121(5) 0.8382(2) 0.3985(3)
C25 C 1.0214(3) 0.8009(2) 0.2830(3)
H1 H 0.790(3) 0.7166(13) 0.114(2)
H2 H 0.980(2) 0.6412(16) 0.156(2)
H3 H 1.074(3) 0.7036(15) 0.101(2)
H4 H 1.185(3) 0.5857(16) 0.094(2)
H5 H 1.341(4) 0.5037(18) 0.041(3)
H6 H 1.338(3) 0.4534(18) -0.156(3)
H7 H 1.168(4) 0.501(2) -0.2777(18)
H8 H 1.001(3) 0.5799(17) -0.208(3)
H9 H 0.679(3) 0.8232(16) 0.040(2)
H10 H 1.0628(16) 0.9183(13) -0.115(2)
H11 H 1.070(4) 0.8055(18) 0.009(3)
H12 H 0.821(3) 0.8110(16) 0.250(2)
H13 H 0.792(3) 0.6279(15) 0.508(2)
H14 H 0.826(3) 0.6590(17) 0.702(3)
H15 H 0.943(3) 0.7639(17) 0.760(3)
H16 H 1.021(3) 0.8432(18) 0.619(3)
H17 H 0.949(3) 0.8800(17) 0.386(2)
H18 H 1.095(3) 0.8524(17) 0.423(3)
H19 H 1.053(3) 0.8372(16) 0.223(2)
H20 H 1.094(3) 0.7599(18) 0.286(2)
loop_
_geom_bond_atom_site_label_1
_geom_bond_atom_site_label_2
_geom_bond_site_symmetry_1
_geom_bond_site_symmetry_2
Cl1 C12 1_555 1_555
Cl2 C13 1_555 1_555
O1 C3 1_555 1_555
O2 C17 1_555 1_555
C1 C2 1_555 1_555
C2 C3 1_555 1_555
C3 C4 1_555 1_555
C4 C5 1_555 1_555
C5 C6 1_555 1_555
C6 C7 1_555 1_555
C7 C8 1_555 1_555
C8 C9 1_555 1_555
C9 C4 1_555 1_555
C10 C1 1_555 1_555
C11 C10 1_555 1_555
C12 C11 1_555 1_555
C13 C12 1_555 1_555
C14 C13 1_555 1_555
C15 C10 1_555 1_555
C16 C1 1_555 1_555
C17 C16 1_555 1_555
C18 C17 1_555 1_555
C19 C18 1_555 1_555
C20 C19 1_555 1_555
C21 C20 1_555 1_555
C22 C21 1_555 1_555
C23 C18 1_555 1_555
C24 C23 1_555 1_555
C25 C16 1_555 1_555
H1 C1 1_555 1_555
H2 C2 1_555 1_555
H3 C2 1_555 1_555
H4 C5 1_555 1_555
H5 C6 1_555 1_555
H6 C7 1_555 1_555
H7 C8 1_555 1_555
H8 C9 1_555 1_555
H9 C11 1_555 1_555
H10 C14 1_555 1_555
H11 C15 1_555 1_555
H12 C16 1_555 1_555
H13 C19 1_555 1_555
H14 C20 1_555 1_555
H15 C21 1_555 1_555
H16 C22 1_555 1_555
H17 C24 1_555 1_555
H18 C24 1_555 1_555
H19 C25 1_555 1_555
H20 C25 1_555 1_555
C14 C15 1_555 1_555
C22 C23 1_555 1_555
C24 C25 1_555 1_555

#END
