
#######################################################################
#
#                 Cambridge Crystallographic Data Centre
#                                CCDC 
#
#######################################################################
#
# If this CIF has been generated from an entry in the Cambridge 
# Structural Database, then it will include bibliographic, chemical, 
# crystal, experimental, refinement or atomic coordinate data resulting 
# from the CCDC's data processing and validation procedures.
#
#######################################################################

data_MEBGIK
_chemical_formula_moiety         'C18 H16 N2 O1'
_chemical_name_systematic        
5-(1H-Indol-3-yl)-3-(4-methylphenyl)-4,5-dihydroisoxazoline
_symmetry_cell_setting           orthorhombic
_symmetry_space_group_name_H-M   'P 21 21 21'
_symmetry_Int_Tables_number      19
_space_group_name_Hall           'P 2ac 2ab'
loop_
_symmetry_equiv_pos_site_id
_symmetry_equiv_pos_as_xyz
1 x,y,z
2 1/2-x,-y,1/2+z
3 -x,1/2+y,1/2-z
4 1/2+x,1/2-y,-z
_cell_length_a                   8.1881(19)
_cell_length_b                   12.713(3)
_cell_length_c                   14.239(3)
_cell_angle_alpha                90
_cell_angle_beta                 90
_cell_angle_gamma                90
_cell_volume                     1482.21
_exptl_crystal_colour            purple
_exptl_crystal_description       Block
_chemical_melting_point          '440-442 K'
_cell_formula_units_Z            4
_exptl_crystal_recrystallization_method methanol
loop_
_atom_site_label
_atom_site_type_symbol
_atom_site_fract_x
_atom_site_fract_y
_atom_site_fract_z
O1 O 1.0214(3) -0.03619(14) 0.58725(13)
N1 N 0.7346(4) -0.2791(2) 0.4315(2)
H1 H 0.686(6) -0.335(3) 0.424(3)
N2 N 1.0613(3) 0.06924(18) 0.61107(15)
C1 C 0.8258(4) -0.1266(2) 0.4900(2)
C2 C 0.8890(3) -0.1382(2) 0.39596(19)
C3 C 0.9899(4) -0.0790(3) 0.3374(2)
H2 H 1.0326 -0.0151 0.3577
C4 C 1.0255(5) -0.1167(3) 0.2486(2)
H3 H 1.0924 -0.0774 0.2092
C5 C 0.9634(5) -0.2120(4) 0.2172(3)
H4 H 0.9896 -0.2352 0.1571
C6 C 0.8643(5) -0.2726(3) 0.2727(3)
H5 H 0.8230 -0.3366 0.2517
C7 C 0.8282(4) -0.2347(2) 0.3618(2)
C8 C 0.7342(4) -0.2139(2) 0.5070(3)
H6 H 0.6787 -0.2270 0.5628
C9 C 0.8496(4) -0.0396(2) 0.5576(2)
H7 H 0.7820 -0.0536 0.6130
C10 C 0.8191(4) 0.0732(2) 0.5261(2)
H8 H 0.8329 0.0812 0.4588
H9 H 0.7110 0.0973 0.5439
C11 C 0.9497(4) 0.1296(2) 0.57947(17)
C12 C 0.9562(4) 0.2435(2) 0.59429(17)
C13 C 1.0595(4) 0.2882(2) 0.66125(19)
H10 H 1.1280 0.2452 0.6965
C14 C 1.0607(4) 0.3958(2) 0.67571(19)
H11 H 1.1309 0.4240 0.7204
C15 C 0.9599(4) 0.4624(2) 0.62517(19)
C16 C 0.8611(4) 0.4184(2) 0.5577(2)
H12 H 0.7948 0.4617 0.5214
C17 C 0.8587(4) 0.3108(2) 0.54274(19)
H13 H 0.7899 0.2832 0.4970
C18 C 0.9587(4) 0.5789(2) 0.6439(2)
H14 H 0.9517 0.6162 0.5854
H15 H 1.0574 0.5984 0.6758
H16 H 0.8663 0.5963 0.6823
loop_
_geom_bond_atom_site_label_1
_geom_bond_atom_site_label_2
_geom_bond_site_symmetry_1
_geom_bond_site_symmetry_2
O1 N2 1_555 1_555
N1 H1 1_555 1_555
N2 C11 1_555 1_555
C1 C2 1_555 1_555
C2 C3 1_555 1_555
C3 H2 1_555 1_555
C4 C3 1_555 1_555
H3 C4 1_555 1_555
C5 C4 1_555 1_555
H4 C5 1_555 1_555
C6 C5 1_555 1_555
H5 C6 1_555 1_555
C7 N1 1_555 1_555
C8 N1 1_555 1_555
H6 C8 1_555 1_555
C9 O1 1_555 1_555
H7 C9 1_555 1_555
C10 C9 1_555 1_555
H8 C10 1_555 1_555
H9 C10 1_555 1_555
C11 C10 1_555 1_555
C12 C11 1_555 1_555
C13 C12 1_555 1_555
H10 C13 1_555 1_555
C14 C13 1_555 1_555
H11 C14 1_555 1_555
C15 C14 1_555 1_555
C16 C15 1_555 1_555
H12 C16 1_555 1_555
C17 C12 1_555 1_555
H13 C17 1_555 1_555
C18 C15 1_555 1_555
H14 C18 1_555 1_555
H15 C18 1_555 1_555
H16 C18 1_555 1_555
C1 C8 1_555 1_555
C1 C9 1_555 1_555
C2 C7 1_555 1_555
C6 C7 1_555 1_555
C16 C17 1_555 1_555

#END
