
#######################################################################
#
#                 Cambridge Crystallographic Data Centre
#                                CCDC 
#
#######################################################################
#
# If this CIF has been generated from an entry in the Cambridge 
# Structural Database, then it will include bibliographic, chemical, 
# crystal, experimental, refinement or atomic coordinate data resulting 
# from the CCDC's data processing and validation procedures.
#
#######################################################################

data_MEBHAD
_chemical_formula_moiety         'C14 H11 N5 O1,C3 H7 N1 O1'
_chemical_name_systematic        
'2,6-diamino-4-(4-methoxyphenyl)-3,5-dicyano-pyridine N,N-dimethylformamide solvate'
_symmetry_cell_setting           triclinic
_symmetry_space_group_name_H-M   'P -1'
_symmetry_Int_Tables_number      2
_space_group_name_Hall           '-P 1'
loop_
_symmetry_equiv_pos_site_id
_symmetry_equiv_pos_as_xyz
1 x,y,z
2 -x,-y,-z
_cell_length_a                   6.9580(13)
_cell_length_b                   9.5297(18)
_cell_length_c                   14.695(3)
_cell_angle_alpha                99.900(3)
_cell_angle_beta                 102.505(3)
_cell_angle_gamma                106.527(3)
_cell_volume                     883.132
_exptl_crystal_colour            colorless
_exptl_crystal_description       Plate
_chemical_melting_point          '573 K'
_cell_formula_units_Z            2
_exptl_crystal_recrystallization_method ethanol/N,N-dimethylformamide
loop_
_atom_site_label
_atom_site_type_symbol
_atom_site_fract_x
_atom_site_fract_y
_atom_site_fract_z
O1 O 0.3300(3) 0.6323(2) 0.02945(13)
N1 N 0.7128(4) 0.1842(3) 0.20947(17)
N2 N 0.0778(4) 0.5285(3) 0.40879(17)
N3 N 0.6437(4) 0.0727(3) 0.41777(19)
H1 H 0.720(4) 0.060(3) 0.3788(18)
H2 H 0.625(4) 0.004(3) 0.462(2)
N4 N 0.4111(3) 0.1686(2) 0.47051(14)
N5 N 0.1843(4) 0.2641(3) 0.52935(17)
H3 H 0.105(4) 0.309(3) 0.5283(18)
H4 H 0.177(4) 0.196(3) 0.572(2)
C1 C 0.5031(5) 0.7464(4) 0.0204(2)
H5 H 0.4579 0.7857 -0.0333
H6 H 0.6086 0.7039 0.0100
H7 H 0.5596 0.8265 0.0782
C2 C 0.3621(4) 0.5651(3) 0.10424(17)
C3 C 0.5542(4) 0.5881(3) 0.16546(18)
H8 H 0.6744 0.6534 0.1580
C4 C 0.5676(4) 0.5134(3) 0.23843(18)
H9 H 0.6981 0.5273 0.2788
C5 C 0.3914(4) 0.4189(3) 0.25239(16)
C6 C 0.1973(4) 0.3956(3) 0.18910(17)
H10 H 0.0767 0.3314 0.1969
C7 C 0.1833(4) 0.4669(3) 0.11536(18)
H11 H 0.0538 0.4493 0.0728
C8 C 0.4045(4) 0.3381(3) 0.33046(17)
C9 C 0.5266(4) 0.2443(3) 0.33681(17)
C10 C 0.6311(4) 0.2156(3) 0.26592(19)
C11 C 0.5274(4) 0.1622(3) 0.40903(18)
C12 C 0.2956(4) 0.2603(3) 0.46574(17)
C13 C 0.2917(4) 0.3494(3) 0.39772(16)
C14 C 0.1733(4) 0.4497(3) 0.40111(17)
O2 O -0.0935(3) 0.9432(2) 0.33440(16)
N6 N 0.0956(4) 0.8865(3) 0.23461(17)
C15 C 0.1577(7) 0.9060(5) 0.1486(3)
H12 H 0.1242 0.9896 0.1294
H13 H 0.0846 0.8157 0.0978
H14 H 0.3054 0.9258 0.1614
C16 C 0.1581(6) 0.7810(4) 0.2847(3)
H15 H 0.1450 0.8022 0.3489
H16 H 0.3007 0.7914 0.2873
H17 H 0.0699 0.6797 0.2509
C17 C -0.0247(5) 0.9590(3) 0.2657(2)
H18 H -0.0589 1.0273 0.2325
loop_
_geom_bond_atom_site_label_1
_geom_bond_atom_site_label_2
_geom_bond_site_symmetry_1
_geom_bond_site_symmetry_2
O1 C1 1_555 1_555
N1 C10 1_555 1_555
N2 C14 1_555 1_555
N3 H1 1_555 1_555
H2 N3 1_555 1_555
N4 C11 1_555 1_555
N5 H3 1_555 1_555
H4 N5 1_555 1_555
C1 H5 1_555 1_555
H6 C1 1_555 1_555
H7 C1 1_555 1_555
C2 O1 1_555 1_555
C3 C2 1_555 1_555
H8 C3 1_555 1_555
C4 C3 1_555 1_555
H9 C4 1_555 1_555
C5 C4 1_555 1_555
C6 C5 1_555 1_555
H10 C6 1_555 1_555
C7 C2 1_555 1_555
H11 C7 1_555 1_555
C8 C5 1_555 1_555
C9 C8 1_555 1_555
C10 C9 1_555 1_555
C11 N3 1_555 1_555
C12 N4 1_555 1_555
C13 C8 1_555 1_555
C14 C13 1_555 1_555
O2 C17 1_555 1_555
N6 C15 1_555 1_555
C15 H12 1_555 1_555
H13 C15 1_555 1_555
H14 C15 1_555 1_555
C16 N6 1_555 1_555
H15 C16 1_555 1_555
H16 C16 1_555 1_555
H17 C16 1_555 1_555
C17 N6 1_555 1_555
H18 C17 1_555 1_555
N5 C12 1_555 1_555
C6 C7 1_555 1_555
C9 C11 1_555 1_555
C12 C13 1_555 1_555

#END
