
#######################################################################
#
#                 Cambridge Crystallographic Data Centre
#                                CCDC 
#
#######################################################################
#
# If this CIF has been generated from an entry in the Cambridge 
# Structural Database, then it will include bibliographic, chemical, 
# crystal, experimental, refinement or atomic coordinate data resulting 
# from the CCDC's data processing and validation procedures.
#
#######################################################################

data_MEBJEJ
_chemical_formula_moiety         'C22 H22 F1 N1 O4'
_chemical_name_systematic        
'4-Cyano-3-fluorophenyl (2E)-3-(3-methoxy-4-pentyloxyphenyl)acrylate'
_symmetry_cell_setting           triclinic
_symmetry_space_group_name_H-M   'P -1'
_symmetry_Int_Tables_number      2
_space_group_name_Hall           '-P 1'
loop_
_symmetry_equiv_pos_site_id
_symmetry_equiv_pos_as_xyz
1 x,y,z
2 -x,-y,-z
_cell_length_a                   12.193(4)
_cell_length_b                   12.506(4)
_cell_length_c                   14.449(5)
_cell_angle_alpha                82.348(7)
_cell_angle_beta                 68.816(6)
_cell_angle_gamma                83.036(7)
_cell_volume                     2029.7
_exptl_crystal_colour            colorless
_exptl_crystal_description       Plate
_cell_formula_units_Z            4
_exptl_crystal_recrystallization_method ethanol/tetrahydrofuran
loop_
_atom_site_label
_atom_site_type_symbol
_atom_site_fract_x
_atom_site_fract_y
_atom_site_fract_z
F1 F -0.52447(19) 0.7156(2) 0.48049(19)
O1 O -0.14351(17) 0.68708(14) 0.24252(14)
O2 O -0.14778(18) 0.83171(16) 0.13515(15)
O3 O 0.39423(16) 0.32152(14) -0.15097(14)
O4 O 0.33680(15) 0.50914(14) -0.22390(13)
N1 N -0.5416(3) 0.9028(3) 0.6432(2)
C1 C -0.4744(3) 0.8693(3) 0.5734(3)
C2 C -0.3888(3) 0.8262(2) 0.4865(2)
C3 C -0.4164(3) 0.7495(3) 0.4403(2)
C4 C -0.3375(3) 0.7051(2) 0.3581(2)
H2 H -0.3589 0.6533 0.3286
C5 C -0.2264(2) 0.7390(2) 0.3207(2)
C6 C -0.1935(3) 0.8152(2) 0.3630(2)
H3 H -0.1174 0.8378 0.3366
C7 C -0.2755(3) 0.8575(3) 0.4453(3)
H4 H -0.2537 0.9093 0.4745
C8 C -0.1052(2) 0.7432(2) 0.1501(2)
C9 C -0.0117(2) 0.6812(2) 0.0793(2)
H5 H 0.0206 0.7134 0.0145
C10 C 0.0312(2) 0.5828(2) 0.09986(19)
H6 H -0.0039 0.5519 0.1648
C11 C 0.1264(2) 0.5158(2) 0.0343(2)
C12 C 0.1855(2) 0.5483(2) -0.0660(2)
H7 H 0.1643 0.6158 -0.0931
C13 C 0.2742(2) 0.4830(2) -0.1254(2)
C14 C 0.3070(2) 0.3811(2) -0.0857(2)
C15 C 0.2496(2) 0.3486(2) 0.0127(2)
H8 H 0.2709 0.2811 0.0397
C16 C 0.1602(2) 0.4152(2) 0.0724(2)
H9 H 0.1223 0.3918 0.1391
C17 C 0.4311(2) 0.2164(2) -0.1142(2)
H10 H 0.3644 0.1723 -0.0866
H11 H 0.4612 0.2230 -0.0618
C18 C 0.5247(3) 0.1642(2) -0.1974(2)
H12 H 0.5892 0.2108 -0.2267
H13 H 0.4930 0.1564 -0.2486
C19 C 0.5718(2) 0.0543(2) -0.1640(2)
H14 H 0.5077 0.0071 -0.1374
H15 H 0.5996 0.0620 -0.1104
C20 C 0.6712(3) 0.0012(3) -0.2459(3)
H16 H 0.6449 -0.0029 -0.3011
H17 H 0.7372 0.0463 -0.2699
C21 C 0.7124(3) -0.1093(3) -0.2136(4)
H18 H 0.7754 -0.1384 -0.2686
H19 H 0.6482 -0.1551 -0.1914
H20 H 0.7402 -0.1058 -0.1599
C22 C 0.3033(3) 0.6103(2) -0.2692(2)
H21 H 0.3533 0.6192 -0.3381
H22 H 0.3115 0.6682 -0.2353
H23 H 0.2227 0.6113 -0.2648
F2 F 0.94123(17) 0.62599(18) -0.52135(16)
O5 O 0.58363(16) 0.63792(14) -0.25299(14)
O6 O 0.60108(18) 0.49287(16) -0.14967(14)
O7 O 0.04807(14) 0.96600(13) 0.17973(13)
O8 O 0.12322(15) 0.77764(13) 0.23663(13)
N2 N 0.9559(2) 0.4219(2) -0.66425(19)
C23 C 0.8910(3) 0.4571(2) -0.5942(2)
C24 C 0.8103(2) 0.5010(2) -0.50500(18)
C25 C 0.8389(2) 0.5862(2) -0.4692(2)
C26 C 0.7662(2) 0.6297(2) -0.3852(2)
H25 H 0.7879 0.6873 -0.3626
C27 C 0.6603(2) 0.5870(2) -0.33438(19)
C28 C 0.6282(2) 0.5011(2) -0.3659(2)
H26 H 0.5564 0.4722 -0.3301
C29 C 0.7032(2) 0.4584(3) -0.4510(2)
H27 H 0.6820 0.4000 -0.4727
C30 C 0.5550(2) 0.5810(2) -0.1603(2)
C31 C 0.4653(2) 0.6389(2) -0.0839(2)
H28 H 0.4415 0.6058 -0.0189
C32 C 0.4146(2) 0.7361(2) -0.10010(18)
H29 H 0.4424 0.7692 -0.1649
C33 C 0.3200(2) 0.79674(19) -0.02741(18)
C34 C 0.26920(19) 0.75488(18) 0.07238(18)
H30 H 0.2970 0.6870 0.0935
C35 C 0.1793(2) 0.81224(19) 0.13930(18)
C36 C 0.1371(2) 0.91545(19) 0.1079(2)
C37 C 0.1868(2) 0.9575(2) 0.0103(2)
H31 H 0.1601 1.0259 -0.0108
C38 C 0.2768(2) 0.8977(2) -0.05636(19)
H32 H 0.3090 0.9264 -0.1224
C39 C -0.0018(2) 1.0693(2) 0.1512(2)
H33 H -0.0302 1.0635 0.0975
H34 H 0.0572 1.1216 0.1283
C40 C -0.1019(3) 1.1042(2) 0.2411(3)
H35 H -0.1604 1.0514 0.2618
H36 H -0.1389 1.1727 0.2227
C41 C -0.0657(3) 1.1170(3) 0.3290(3)
H37 H -0.0297 1.0481 0.3478
H38 H -0.0062 1.1688 0.3077
C42 C -0.1646(4) 1.1536(3) 0.4192(3)
H39 H -0.2268 1.1047 0.4387
H40 H -0.1970 1.2252 0.4025
C43 C -0.1239(5) 1.1571(4) 0.5065(3)
H41 H -0.1893 1.1815 0.5624
H42 H -0.0629 1.2061 0.4877
H43 H -0.0937 1.0860 0.5245
C44 C 0.1620(2) 0.6734(2) 0.2716(2)
H44 H 0.1165 0.6580 0.3410
H45 H 0.2439 0.6720 0.2633
H46 H 0.1517 0.6198 0.2342
F3? F -0.2424(11) 0.9091(10) 0.5023(9)
F4? F 0.6731(8) 0.3841(7) -0.4855(7)
H1? H -0.4925 0.7269 0.4661
H24? H 0.9110 0.6152 -0.5040
loop_
_geom_bond_atom_site_label_1
_geom_bond_atom_site_label_2
_geom_bond_site_symmetry_1
_geom_bond_site_symmetry_2
F1 C3 1_555 1_555
F2 C25 1_555 1_555
O1 C5 1_555 1_555
O2 C8 1_555 1_555
O3 C14 1_555 1_555
O4 C13 1_555 1_555
O5 C27 1_555 1_555
O6 C30 1_555 1_555
O7 C36 1_555 1_555
O8 C35 1_555 1_555
N1 C1 1_555 1_555
N2 C23 1_555 1_555
C1 C2 1_555 1_555
C2 C3 1_555 1_555
C3 C4 1_555 1_555
C4 H2 1_555 1_555
C5 C4 1_555 1_555
C6 C5 1_555 1_555
H3 C6 1_555 1_555
C7 C2 1_555 1_555
H4 C7 1_555 1_555
C8 O1 1_555 1_555
C9 C8 1_555 1_555
H5 C9 1_555 1_555
C10 C9 1_555 1_555
H6 C10 1_555 1_555
C11 C10 1_555 1_555
C12 C11 1_555 1_555
H7 C12 1_555 1_555
C13 C12 1_555 1_555
C14 C13 1_555 1_555
C15 C14 1_555 1_555
H8 C15 1_555 1_555
C16 C11 1_555 1_555
H9 C16 1_555 1_555
C17 O3 1_555 1_555
H10 C17 1_555 1_555
H11 C17 1_555 1_555
C18 C17 1_555 1_555
H12 C18 1_555 1_555
H13 C18 1_555 1_555
C19 C18 1_555 1_555
H14 C19 1_555 1_555
H15 C19 1_555 1_555
C20 C19 1_555 1_555
H16 C20 1_555 1_555
H17 C20 1_555 1_555
C21 C20 1_555 1_555
H18 C21 1_555 1_555
H19 C21 1_555 1_555
H20 C21 1_555 1_555
C22 O4 1_555 1_555
H21 C22 1_555 1_555
H22 C22 1_555 1_555
H23 C22 1_555 1_555
C23 C24 1_555 1_555
C24 C25 1_555 1_555
C25 C26 1_555 1_555
C26 H25 1_555 1_555
C27 C26 1_555 1_555
C28 C27 1_555 1_555
H26 C28 1_555 1_555
C29 C24 1_555 1_555
H27 C29 1_555 1_555
C30 O5 1_555 1_555
C31 C30 1_555 1_555
H28 C31 1_555 1_555
C32 C31 1_555 1_555
H29 C32 1_555 1_555
C33 C32 1_555 1_555
C34 C33 1_555 1_555
H30 C34 1_555 1_555
C35 C34 1_555 1_555
C36 C35 1_555 1_555
C37 C36 1_555 1_555
H31 C37 1_555 1_555
C38 C33 1_555 1_555
H32 C38 1_555 1_555
C39 O7 1_555 1_555
H33 C39 1_555 1_555
H34 C39 1_555 1_555
C40 C39 1_555 1_555
H35 C40 1_555 1_555
H36 C40 1_555 1_555
C41 C40 1_555 1_555
H37 C41 1_555 1_555
H38 C41 1_555 1_555
C42 C41 1_555 1_555
H39 C42 1_555 1_555
H40 C42 1_555 1_555
C43 C42 1_555 1_555
H41 C43 1_555 1_555
H42 C43 1_555 1_555
H43 C43 1_555 1_555
C44 O8 1_555 1_555
H44 C44 1_555 1_555
H45 C44 1_555 1_555
H46 C44 1_555 1_555
C6 C7 1_555 1_555
C15 C16 1_555 1_555
C28 C29 1_555 1_555
C37 C38 1_555 1_555

#END
