
#######################################################################
#
#                 Cambridge Crystallographic Data Centre
#                                CCDC 
#
#######################################################################
#
# If this CIF has been generated from an entry in the Cambridge 
# Structural Database, then it will include bibliographic, chemical, 
# crystal, experimental, refinement or atomic coordinate data resulting 
# from the CCDC's data processing and validation procedures.
#
#######################################################################

data_MEBKAF
_chemical_formula_moiety         'C23 H23 N1 O3'
_chemical_name_systematic        
N-((2S)-2-(6-Methoxynaphth-2-yl)propionyl)-(3S)-2,3-dihydro-3-methyl-4H-1,4-benzoxazine
_symmetry_cell_setting           orthorhombic
_symmetry_space_group_name_H-M   'P 21 21 21'
_symmetry_Int_Tables_number      19
_space_group_name_Hall           'P 2ac 2ab'
loop_
_symmetry_equiv_pos_site_id
_symmetry_equiv_pos_as_xyz
1 x,y,z
2 1/2-x,-y,1/2+z
3 -x,1/2+y,1/2-z
4 1/2+x,1/2-y,-z
_cell_length_a                   8.060(4)
_cell_length_b                   12.534(4)
_cell_length_c                   18.703(5)
_cell_angle_alpha                90
_cell_angle_beta                 90
_cell_angle_gamma                90
_cell_volume                     1889.45
_exptl_crystal_colour            colorless
_chemical_melting_point          79-81deg.C
_cell_formula_units_Z            4
loop_
_atom_site_label
_atom_site_type_symbol
_atom_site_fract_x
_atom_site_fract_y
_atom_site_fract_z
O1 O -0.5127(4) 0.6702(2) 0.25792(14)
O2 O -0.4811(4) 0.7796(2) 0.02468(14)
O3 O 0.1717(4) 0.2366(2) 0.0841(2)
N1 N -0.6289(4) 0.7294(2) 0.1215(2)
C1 C -0.4288(6) 0.7485(3) 0.2149(2)
H1 H -0.3472(6) 0.7132(3) 0.1859(2)
H2 H -0.3722(6) 0.7981(3) 0.2455(2)
C2 C -0.5455(5) 0.8096(3) 0.1666(2)
H3 H -0.4826(5) 0.8552(3) 0.1355(2)
C3 C -0.7174(5) 0.6534(3) 0.1636(2)
C4 C -0.8706(5) 0.6130(3) 0.1432(2)
H4 H -0.9198(5) 0.6377(3) 0.0995(2)
C5 C -0.9512(6) 0.5382(4) 0.1849(2)
H5 H -1.0540(6) 0.5074(4) 0.1692(2)
C6 C -0.8811(7) 0.5064(4) 0.2489(2)
H6 H -0.9359(7) 0.4549(4) 0.2786(2)
C7 C -0.7334(6) 0.5516(3) 0.2720(2)
H7 H -0.6848(6) 0.5304(3) 0.3166(2)
C8 C -0.6532(5) 0.6257(3) 0.2294(2)
C9 C -0.6694(6) 0.8794(3) 0.2053(2)
H8 H -0.7404(6) 0.9145(3) 0.1715(2)
H9 H -0.7349(6) 0.8347(3) 0.2360(2)
H10 H -0.6124(6) 0.9318(3) 0.2335(2)
C10 C -0.5686(5) 0.7128(3) 0.0533(2)
C11 C -0.6062(5) 0.6078(3) 0.0158(2)
H11 H -0.7124(5) 0.5826(3) 0.0317(2)
C12 C -0.6131(6) 0.6250(4) -0.0649(2)
H12 H -0.6385(6) 0.5593(4) -0.0889(2)
H13 H -0.6966(6) 0.6771(4) -0.0760(2)
H14 H -0.5068(6) 0.6505(4) -0.0806(2)
C13 C -0.4752(5) 0.5264(3) 0.0376(2)
C14 C -0.5163(5) 0.4404(3) 0.0835(2)
H15 H -0.6270(5) 0.4350(3) 0.1020(2)
C15 C -0.4029(5) 0.3646(3) 0.1010(2)
H16 H -0.4321(5) 0.3068(3) 0.1322(2)
C16 C -0.2384(5) 0.3692(3) 0.0750(2)
C17 C -0.1164(6) 0.2926(3) 0.0947(2)
H17 H -0.1457(6) 0.2359(3) 0.1268(2)
C18 C 0.0406(6) 0.3000(3) 0.0670(2)
C19 C 0.0794(5) 0.3795(3) 0.0160(2)
H18 H 0.1860(5) 0.3783(3) -0.0069(2)
C20 C -0.0342(5) 0.4550(3) -0.0017(2)
H19 H -0.0049(5) 0.5123(3) -0.0333(2)
C21 C -0.1965(5) 0.4531(3) 0.0279(2)
C22 C -0.3160(5) 0.5316(3) 0.0113(2)
H20 H -0.2852(5) 0.5908(3) -0.0184(2)
C23 C 0.1435(6) 0.1571(4) 0.1364(3)
H21 H 0.2429(6) 0.1166(4) 0.1443(3)
H22 H 0.1111(6) 0.1915(4) 0.1800(3)
H23 H 0.0564(6) 0.1102(4) 0.1209(3)
loop_
_geom_bond_atom_site_label_1
_geom_bond_atom_site_label_2
_geom_bond_site_symmetry_1
_geom_bond_site_symmetry_2
O1 C1 1_555 1_555
O2 C10 1_555 1_555
O3 C18 1_555 1_555
N1 C2 1_555 1_555
C1 H1 1_555 1_555
H2 C1 1_555 1_555
C2 C1 1_555 1_555
H3 C2 1_555 1_555
C3 N1 1_555 1_555
C4 C3 1_555 1_555
H4 C4 1_555 1_555
C5 C4 1_555 1_555
H5 C5 1_555 1_555
C6 C5 1_555 1_555
H6 C6 1_555 1_555
C7 C6 1_555 1_555
H7 C7 1_555 1_555
C8 O1 1_555 1_555
C9 C2 1_555 1_555
H8 C9 1_555 1_555
H9 C9 1_555 1_555
H10 C9 1_555 1_555
C10 N1 1_555 1_555
C11 C10 1_555 1_555
H11 C11 1_555 1_555
C12 C11 1_555 1_555
H12 C12 1_555 1_555
H13 C12 1_555 1_555
H14 C12 1_555 1_555
C13 C11 1_555 1_555
C14 C13 1_555 1_555
H15 C14 1_555 1_555
C15 C14 1_555 1_555
H16 C15 1_555 1_555
C16 C15 1_555 1_555
C17 C16 1_555 1_555
H17 C17 1_555 1_555
C18 C17 1_555 1_555
C19 C18 1_555 1_555
H18 C19 1_555 1_555
C20 C19 1_555 1_555
H19 C20 1_555 1_555
C21 C16 1_555 1_555
C22 C13 1_555 1_555
H20 C22 1_555 1_555
C23 O3 1_555 1_555
H21 C23 1_555 1_555
H22 C23 1_555 1_555
H23 C23 1_555 1_555
C3 C8 1_555 1_555
C7 C8 1_555 1_555
C20 C21 1_555 1_555
C21 C22 1_555 1_555

#END
