
#######################################################################
#
#                 Cambridge Crystallographic Data Centre
#                                CCDC 
#
#######################################################################
#
# If this CIF has been generated from an entry in the Cambridge 
# Structural Database, then it will include bibliographic, chemical, 
# crystal, experimental, refinement or atomic coordinate data resulting 
# from the CCDC's data processing and validation procedures.
#
#######################################################################

data_MEBNOZ
_chemical_compound_source        'aerial parts of Baeckea frutescens'
_chemical_name_common            '(-)-Frutescone N'
_chemical_formula_moiety         'C24 H36 O3'
_chemical_name_systematic        
4',5-diisopropyl-7'-methoxy-6',6',8'-trimethyl-4',6'-dihydrospiro[bicyclo[3.1.0]hexane-2,2'-chromen]-5'(3'H)-one
_chemical_properties_biological  
'inhibitory activity on LPS-Activated NO production in RAW 264.7 cells'
_symmetry_cell_setting           orthorhombic
_symmetry_space_group_name_H-M   'P 21 21 21'
_symmetry_Int_Tables_number      19
_space_group_name_Hall           'P 2ac 2ab'
loop_
_symmetry_equiv_pos_site_id
_symmetry_equiv_pos_as_xyz
1 x,y,z
2 1/2-x,-y,1/2+z
3 1/2+x,1/2-y,-z
4 -x,1/2+y,1/2-z
_cell_length_a                   6.22190(10)
_cell_length_b                   12.66200(10)
_cell_length_c                   28.7249(3)
_cell_angle_alpha                90
_cell_angle_beta                 90
_cell_angle_gamma                90
_cell_volume                     2263
_exptl_crystal_colour            colorless
_exptl_crystal_description       block
_cell_formula_units_Z            4
loop_
_atom_site_label
_atom_site_type_symbol
_atom_site_fract_x
_atom_site_fract_y
_atom_site_fract_z
O1 O 1.1195(3) 0.97985(11) 0.83870(5)
O2 O 1.4611(3) 1.25742(15) 0.75817(6)
O3 O 1.0811(4) 1.32395(14) 0.89871(7)
C1 C 1.1242(4) 1.14659(16) 0.87710(7)
C2 C 1.0285(4) 1.10535(17) 0.92195(7)
H1 H 0.8824 1.1336 0.9247
C3 C 1.3021(4) 1.29954(17) 0.83188(8)
C4 C 1.1690(3) 1.08388(15) 0.84032(7)
C5 C 1.2771(3) 1.11751(18) 0.79744(7)
C6 C 1.0127(4) 0.98467(17) 0.91999(7)
H2 H 1.1478 0.9549 0.9306
H3 H 0.9016 0.9618 0.9414
C7 C 1.3469(4) 1.21768(17) 0.79558(7)
C8 C 1.1585(4) 1.25950(17) 0.87166(8)
C9 C 0.7543(4) 0.77738(18) 0.87577(9)
C10 C 1.1577(5) 1.14201(18) 0.96517(8)
H4 H 1.1535 1.2194 0.9654
C11 C 1.2993(5) 1.0396(2) 0.75834(8)
H5 H 1.3487 1.0754 0.7309
H6 H 1.1624 1.0075 0.7522
H7 H 1.4011 0.9860 0.7669
C12 C 0.8886(5) 0.7602(2) 0.83281(10)
H8 H 0.9456 0.6900 0.8274
H9 H 0.8498 0.7989 0.8049
C13 C 0.9774(4) 0.82191(17) 0.87307(8)
H10 H 1.0899 0.7893 0.8921
C14 C 0.9628(4) 0.94065(16) 0.87218(8)
C15 C 1.1916(6) 1.3956(2) 0.80964(10)
H11 H 1.1631 1.4476 0.8332
H12 H 1.0588 1.3738 0.7956
H13 H 1.2839 1.4253 0.7863
C16 C 0.7337(4) 0.96315(19) 0.85489(10)
H14 H 0.6805 1.0292 0.8675
H15 H 0.7297 0.9668 0.8212
C17 C 0.6003(4) 0.8698(2) 0.87263(11)
H16 H 0.5396 0.8856 0.9029
H17 H 0.4840 0.8541 0.8512
C18 C 1.0484(7) 1.1048(3) 1.01021(9)
H18 H 0.9006 1.1266 1.0101
H19 H 1.1204 1.1352 1.0365
H20 H 1.0558 1.0292 1.0121
C19 C 1.5159(5) 1.3334(3) 0.85435(10)
H21 H 1.4886 1.3860 0.8777
H22 H 1.6091 1.3622 0.8309
H23 H 1.5833 1.2732 0.8685
C20 C 1.3919(5) 1.1104(3) 0.96433(10)
H24 H 1.4564 1.1341 0.9358
H25 H 1.4032 1.0349 0.9664
H26 H 1.4650 1.1420 0.9903
C21 C 1.6688(6) 1.2138(3) 0.75004(13)
H27 H 1.6546 1.1475 0.7341
H28 H 1.7404 1.2029 0.7793
H29 H 1.7514 1.2616 0.7313
C22 C 0.6969(6) 0.6851(2) 0.90733(12)
H30 H 0.8133 0.6340 0.9027
C23 C 0.7144(18) 0.7165(6) 0.9563(3)
H31 H 0.8632 0.7235 0.9646
H32 H 0.6487 0.6636 0.9756
H33 H 0.6427 0.7828 0.9609
C24 C 0.4975(9) 0.6289(4) 0.8905(2)
H34 H 0.3765 0.6757 0.8926
H35 H 0.4721 0.5677 0.9094
H36 H 0.5171 0.6076 0.8587
H37? H 0.5738 0.6526 0.8916
C25? C 0.600(2) 0.7261(10) 0.9531(5)
H38? H 0.7040 0.7687 0.9690
H39? H 0.5599 0.6674 0.9723
H40? H 0.4748 0.7679 0.9463
C26? C 0.862(3) 0.5971(11) 0.9083(6)
H41? H 0.9035 0.5797 0.8770
H42? H 0.8015 0.5360 0.9230
H43? H 0.9863 0.6200 0.9254
loop_
_geom_bond_atom_site_label_1
_geom_bond_atom_site_label_2
_geom_bond_site_symmetry_1
_geom_bond_site_symmetry_2
O1 C4 1_555 1_555
O2 C7 1_555 1_555
O3 C8 1_555 1_555
C1 C2 1_555 1_555
C2 H1 1_555 1_555
C3 C7 1_555 1_555
C4 C1 1_555 1_555
C5 C4 1_555 1_555
C6 C2 1_555 1_555
H2 C6 1_555 1_555
H3 C6 1_555 1_555
C7 C5 1_555 1_555
C8 C1 1_555 1_555
C9 C12 1_555 1_555
C10 C2 1_555 1_555
H4 C10 1_555 1_555
C11 C5 1_555 1_555
H5 C11 1_555 1_555
H6 C11 1_555 1_555
H7 C11 1_555 1_555
C12 H8 1_555 1_555
H9 C12 1_555 1_555
C13 C9 1_555 1_555
H10 C13 1_555 1_555
C14 O1 1_555 1_555
C15 C3 1_555 1_555
H11 C15 1_555 1_555
H12 C15 1_555 1_555
H13 C15 1_555 1_555
C16 C14 1_555 1_555
H14 C16 1_555 1_555
H15 C16 1_555 1_555
C17 C9 1_555 1_555
H16 C17 1_555 1_555
H17 C17 1_555 1_555
C18 C10 1_555 1_555
H18 C18 1_555 1_555
H19 C18 1_555 1_555
H20 C18 1_555 1_555
C19 C3 1_555 1_555
H21 C19 1_555 1_555
H22 C19 1_555 1_555
H23 C19 1_555 1_555
C20 C10 1_555 1_555
H24 C20 1_555 1_555
H25 C20 1_555 1_555
H26 C20 1_555 1_555
C21 O2 1_555 1_555
H27 C21 1_555 1_555
H28 C21 1_555 1_555
H29 C21 1_555 1_555
C22 C9 1_555 1_555
H30 C22 1_555 1_555
C23 C22 1_555 1_555
H31 C23 1_555 1_555
H32 C23 1_555 1_555
H33 C23 1_555 1_555
C24 C22 1_555 1_555
H34 C24 1_555 1_555
H35 C24 1_555 1_555
H36 C24 1_555 1_555
C3 C8 1_555 1_555
C6 C14 1_555 1_555
C12 C13 1_555 1_555
C13 C14 1_555 1_555
C16 C17 1_555 1_555

#END
