
#######################################################################
#
#                 Cambridge Crystallographic Data Centre
#                                CCDC 
#
#######################################################################
#
# If this CIF has been generated from an entry in the Cambridge 
# Structural Database, then it will include bibliographic, chemical, 
# crystal, experimental, refinement or atomic coordinate data resulting 
# from the CCDC's data processing and validation procedures.
#
#######################################################################

data_MEBQOB
_chemical_formula_moiety         'C23 H19 N1 O1'
_chemical_name_systematic        
3-(2,2-Diphenylvinyl)-2-methylisoindolin-1-one
_symmetry_cell_setting           monoclinic
_symmetry_space_group_name_H-M   'C c'
_symmetry_Int_Tables_number      9
_space_group_name_Hall           'C -2yc'
loop_
_symmetry_equiv_pos_site_id
_symmetry_equiv_pos_as_xyz
1 x,y,z
2 x,-y,1/2+z
3 1/2+x,1/2+y,z
4 1/2+x,1/2-y,1/2+z
_cell_length_a                   17.373(11)
_cell_length_b                   17.241(11)
_cell_length_c                   24.421(16)
_cell_angle_alpha                90
_cell_angle_beta                 91.219(9)
_cell_angle_gamma                90
_cell_volume                     7313.12
_exptl_crystal_colour            colorless
_exptl_crystal_description       block
_cell_formula_units_Z            16
loop_
_atom_site_label
_atom_site_type_symbol
_atom_site_fract_x
_atom_site_fract_y
_atom_site_fract_z
C1 C 0.6221(5) 0.7172(6) -0.0279(4)
C2 C 0.6617(5) 0.7746(5) -0.0621(3)
C3 C 0.7138(5) 0.7630(7) -0.1027(4)
H1 H 0.7286 0.7130 -0.1122
C4 C 0.7435(6) 0.8250(9) -0.1286(4)
H2 H 0.7803 0.8175 -0.1552
C5 C 0.7200(6) 0.8994(9) -0.1162(4)
H3 H 0.7395 0.9411 -0.1357
C6 C 0.6664(5) 0.9133(6) -0.0743(4)
H4 H 0.6513 0.9632 -0.0648
C7 C 0.6376(4) 0.8476(5) -0.0478(3)
C8 C 0.5791(5) 0.8431(5) -0.0031(3)
H5 H 0.5990 0.8690 0.0300
C9 C 0.5015(5) 0.8719(5) -0.0170(4)
H6 H 0.4801 0.8552 -0.0502
C10 C 0.4580(6) 0.9198(6) 0.0130(4)
C11 C 0.4913(6) 0.9594(6) 0.0638(4)
C12 C 0.5420(7) 1.0195(7) 0.0599(5)
H7 H 0.5585 1.0352 0.0256
C13 C 0.5696(7) 1.0577(7) 0.1070(5)
H8 H 0.6045 1.0983 0.1039
C14 C 0.5454(7) 1.0356(8) 0.1572(5)
H9 H 0.5631 1.0613 0.1885
C15 C 0.4938(8) 0.9738(7) 0.1613(5)
H10 H 0.4779 0.9577 0.1956
C16 C 0.4662(7) 0.9367(7) 0.1152(4)
H11 H 0.4309 0.8964 0.1182
C17 C 0.3773(4) 0.9397(5) -0.0019(3)
C18 C 0.3455(5) 1.0081(6) 0.0138(4)
H12 H 0.3743 1.0420 0.0356
C19 C 0.2729(8) 1.0278(8) -0.0017(6)
H13 H 0.2540 1.0761 0.0084
C20 C 0.2267(6) 0.9793(7) -0.0316(4)
H14 H 0.1761 0.9925 -0.0405
C21 C 0.2576(5) 0.9104(7) -0.0479(4)
H15 H 0.2280 0.8773 -0.0698
C22 C 0.3323(5) 0.8885(5) -0.0327(3)
H16 H 0.3516 0.8405 -0.0430
C23 C 0.5316(6) 0.7243(5) 0.0476(4)
H17 H 0.5006 0.6834 0.0322
H18 H 0.4988 0.7631 0.0630
H19 H 0.5650 0.7036 0.0758
N1 N 0.5768(5) 0.7585(5) 0.0056(3)
O1 O 0.6271(4) 0.6463(4) -0.0295(3)
C24 C 0.6880(5) 0.5348(6) 0.7632(4)
C25 C 0.6475(4) 0.4815(5) 0.7997(3)
C26 C 0.5963(5) 0.4995(6) 0.8403(4)
H20 H 0.5830 0.5505 0.8481
C27 C 0.5654(6) 0.4370(8) 0.8691(4)
H21 H 0.5299 0.4461 0.8963
C28 C 0.5870(5) 0.3627(8) 0.8576(4)
H22 H 0.5655 0.3222 0.8771
C29 C 0.6402(5) 0.3458(6) 0.8176(3)
H23 H 0.6553 0.2950 0.8108
C30 C 0.6698(4) 0.4069(5) 0.7882(3)
C31 C 0.7257(5) 0.4076(5) 0.7412(3)
H24 H 0.7047 0.3791 0.7095
C32 C 0.8051(5) 0.3765(5) 0.7584(4)
H25 H 0.8251 0.3912 0.7924
C33 C 0.8474(5) 0.3298(5) 0.7278(4)
C34 C 0.8210(6) 0.2951(5) 0.6758(4)
C35 C 0.7639(6) 0.2383(7) 0.6750(5)
H26 H 0.7418 0.2222 0.7074
C36 C 0.7406(7) 0.2063(7) 0.6253(6)
H27 H 0.7018 0.1692 0.6247
C37 C 0.7734(9) 0.2279(9) 0.5768(5)
H28 H 0.7568 0.2060 0.5439
C38 C 0.8316(10) 0.2831(9) 0.5780(5)
H29 H 0.8549 0.2981 0.5458
C39 C 0.8541(7) 0.3149(7) 0.6267(5)
H30 H 0.8934 0.3515 0.6270
C40 C 0.9626(6) 0.2412(6) 0.7296(4)
H31 H 0.9350 0.2072 0.7071
C41 C 1.0377(6) 0.2224(8) 0.7463(5)
H32 H 1.0598 0.1763 0.7346
C42 C 1.0782(6) 0.2709(7) 0.7793(4)
H33 H 1.1278 0.2576 0.7909
C43 C 1.0463(6) 0.3400(7) 0.7959(4)
H34 H 1.0747 0.3735 0.8183
C44 C 0.9720(5) 0.3597(5) 0.7792(3)
H35 H 0.9513 0.4067 0.7905
C45 C 0.9282(5) 0.3111(5) 0.7463(3)
C46 C 0.7772(5) 0.5210(6) 0.6856(4)
H36 H 0.7528 0.5091 0.6510
H37 H 0.8273 0.4975 0.6874
H38 H 0.7823 0.5762 0.6894
N2 N 0.7311(4) 0.4913(5) 0.7294(3)
O2 O 0.6833(4) 0.6060(4) 0.7609(3)
C47 C 0.5584(6) 0.1612(5) 0.7731(4)
C48 C 0.5015(5) 0.1191(5) 0.8067(3)
C49 C 0.5157(7) 0.0636(6) 0.8465(4)
H39 H 0.5654 0.0474 0.8555
C50 C 0.4534(10) 0.0339(6) 0.8721(4)
H40 H 0.4610 -0.0027 0.8996
C51 C 0.3784(9) 0.0566(7) 0.8583(4)
H41 H 0.3373 0.0342 0.8762
C52 C 0.3643(6) 0.1125(5) 0.8179(4)
H42 H 0.3145 0.1279 0.8083
C53 C 0.4281(5) 0.1438(4) 0.7927(3)
C54 C 0.4312(5) 0.2031(5) 0.7481(3)
H43 H 0.4054 0.1832 0.7149
C55 C 0.4000(5) 0.2821(5) 0.7618(3)
H44 H 0.4152 0.3033 0.7953
C56 C 0.3529(5) 0.3242(6) 0.7302(4)
C57 C 0.3183(6) 0.2927(5) 0.6793(4)
C58 C 0.2542(6) 0.2446(7) 0.6803(5)
H45 H 0.2325 0.2317 0.7136
C59 C 0.2225(7) 0.2161(7) 0.6322(6)
H46 H 0.1794 0.1842 0.6335
C60 C 0.2527(8) 0.2333(7) 0.5833(5)
H47 H 0.2300 0.2141 0.5513
C61 C 0.3155(9) 0.2781(8) 0.5810(5)
H48 H 0.3375 0.2887 0.5475
C62 C 0.3481(7) 0.3091(7) 0.6293(4)
H49 H 0.3907 0.3414 0.6272
C63 C 0.2633(5) 0.4383(6) 0.7265(4)
H50 H 0.2308 0.4102 0.7031
C64 C 0.2432(8) 0.5127(7) 0.7427(6)
H51 H 0.1968 0.5340 0.7302
C65 C 0.2896(8) 0.5545(6) 0.7762(5)
H52 H 0.2755 0.6042 0.7868
C66 C 0.3570(7) 0.5237(6) 0.7944(4)
H53 H 0.3893 0.5531 0.8171
C67 C 0.3790(6) 0.4498(5) 0.7801(4)
H54 H 0.4251 0.4294 0.7936
C68 C 0.3324(5) 0.4060(5) 0.7456(3)
C69 C 0.5479(6) 0.2553(6) 0.6979(4)
H55 H 0.5260 0.3063 0.6997
H56 H 0.5365 0.2329 0.6626
H57 H 0.6027 0.2585 0.7033
N3 N 0.5160(5) 0.2076(5) 0.7397(3)
O3 O 0.6284(4) 0.1562(4) 0.7741(3)
C70 C 0.2472(5) 0.5920(5) -0.0260(4)
C71 C 0.3005(5) 0.6320(5) -0.0611(3)
C72 C 0.2840(6) 0.6868(6) -0.1030(4)
H58 H 0.2337 0.7013 -0.1117
C73 C 0.3445(8) 0.7176(6) -0.1301(4)
H59 H 0.3352 0.7540 -0.1575
C74 C 0.4187(8) 0.6961(6) -0.1179(4)
H60 H 0.4589 0.7180 -0.1371
C75 C 0.4351(6) 0.6411(6) -0.0766(4)
H61 H 0.4855 0.6261 -0.0683
C76 C 0.3739(5) 0.6102(5) -0.0488(3)
C77 C 0.3725(5) 0.5504(5) -0.0039(3)
H62 H 0.3998 0.5699 0.0288
C78 C 0.4029(5) 0.4730(5) -0.0192(3)
H63 H 0.3880 0.4539 -0.0534
C79 C 0.4494(6) 0.4282(5) 0.0112(4)
C80 C 0.4723(5) 0.3496(5) -0.0062(4)
C81 C 0.4262(5) 0.3053(5) -0.0413(3)
H64 H 0.3798 0.3261 -0.0540
C82 C 0.4466(6) 0.2310(6) -0.0581(4)
H65 H 0.4151 0.2026 -0.0819
C83 C 0.5164(7) 0.2009(6) -0.0377(4)
H66 H 0.5322 0.1518 -0.0486
C84 C 0.5613(8) 0.2427(7) -0.0023(5)
H67 H 0.6077 0.2225 0.0110
C85 C 0.5374(6) 0.3151(6) 0.0136(4)
H68 H 0.5674 0.3419 0.0393
C86 C 0.4822(6) 0.4574(5) 0.0645(4)
C87 C 0.5421(7) 0.5075(7) 0.0673(5)
H69 H 0.5659 0.5227 0.0353
C88 C 0.5688(8) 0.5371(8) 0.1180(6)
H70 H 0.6088 0.5729 0.1189
C89 C 0.5369(10) 0.5141(9) 0.1651(6)
H71 H 0.5546 0.5333 0.1987
C90 C 0.4778(10) 0.4614(8) 0.1623(5)
H72 H 0.4551 0.4452 0.1945
C91 C 0.4511(7) 0.4319(7) 0.1130(4)
H73 H 0.4121 0.3950 0.1124
C92 C 0.2607(5) 0.5007(5) 0.0516(4)
H74 H 0.2063 0.5096 0.0536
H75 H 0.2854 0.5168 0.0852
H76 H 0.2701 0.4465 0.0458
N4 N 0.2917(4) 0.5454(4) 0.0060(3)
O4 O 0.1761(4) 0.5966(3) -0.0252(3)
loop_
_geom_bond_atom_site_label_1
_geom_bond_atom_site_label_2
_geom_bond_site_symmetry_1
_geom_bond_site_symmetry_2
C1 C2 1_555 1_555
C2 C3 1_555 1_555
C3 H1 1_555 1_555
C4 C3 1_555 1_555
H2 C4 1_555 1_555
C5 C4 1_555 1_555
H3 C5 1_555 1_555
C6 C5 1_555 1_555
H4 C6 1_555 1_555
C7 C2 1_555 1_555
C8 C7 1_555 1_555
H5 C8 1_555 1_555
C9 C8 1_555 1_555
H6 C9 1_555 1_555
C10 C9 1_555 1_555
C11 C10 1_555 1_555
C12 C11 1_555 1_555
H7 C12 1_555 1_555
C13 C12 1_555 1_555
H8 C13 1_555 1_555
C14 C13 1_555 1_555
H9 C14 1_555 1_555
C15 C14 1_555 1_555
H10 C15 1_555 1_555
C16 C11 1_555 1_555
H11 C16 1_555 1_555
C17 C10 1_555 1_555
C18 C17 1_555 1_555
H12 C18 1_555 1_555
C19 C18 1_555 1_555
H13 C19 1_555 1_555
C20 C19 1_555 1_555
H14 C20 1_555 1_555
C21 C20 1_555 1_555
H15 C21 1_555 1_555
C22 C17 1_555 1_555
H16 C22 1_555 1_555
C23 H17 1_555 1_555
H18 C23 1_555 1_555
H19 C23 1_555 1_555
C24 C25 1_555 1_555
C25 C26 1_555 1_555
C26 H20 1_555 1_555
C27 C26 1_555 1_555
H21 C27 1_555 1_555
C28 C27 1_555 1_555
H22 C28 1_555 1_555
C29 C28 1_555 1_555
H23 C29 1_555 1_555
C30 C25 1_555 1_555
C31 C30 1_555 1_555
H24 C31 1_555 1_555
C32 C31 1_555 1_555
H25 C32 1_555 1_555
C33 C32 1_555 1_555
C34 C33 1_555 1_555
C35 C34 1_555 1_555
H26 C35 1_555 1_555
C36 C35 1_555 1_555
H27 C36 1_555 1_555
C37 C36 1_555 1_555
H28 C37 1_555 1_555
C38 C37 1_555 1_555
H29 C38 1_555 1_555
C39 C34 1_555 1_555
H30 C39 1_555 1_555
C40 H31 1_555 1_555
C41 C40 1_555 1_555
H32 C41 1_555 1_555
C42 C41 1_555 1_555
H33 C42 1_555 1_555
C43 C42 1_555 1_555
H34 C43 1_555 1_555
C44 C43 1_555 1_555
H35 C44 1_555 1_555
C45 C33 1_555 1_555
C46 H36 1_555 1_555
H37 C46 1_555 1_555
H38 C46 1_555 1_555
C47 C48 1_555 1_555
C48 C49 1_555 1_555
C49 H39 1_555 1_555
C50 C49 1_555 1_555
H40 C50 1_555 1_555
C51 C50 1_555 1_555
H41 C51 1_555 1_555
C52 C51 1_555 1_555
H42 C52 1_555 1_555
C53 C48 1_555 1_555
C54 C53 1_555 1_555
H43 C54 1_555 1_555
C55 C54 1_555 1_555
H44 C55 1_555 1_555
C56 C55 1_555 1_555
C57 C56 1_555 1_555
C58 C57 1_555 1_555
H45 C58 1_555 1_555
C59 C58 1_555 1_555
H46 C59 1_555 1_555
C60 C59 1_555 1_555
H47 C60 1_555 1_555
C61 C60 1_555 1_555
H48 C61 1_555 1_555
C62 C57 1_555 1_555
H49 C62 1_555 1_555
C63 H50 1_555 1_555
C64 C63 1_555 1_555
H51 C64 1_555 1_555
C65 C64 1_555 1_555
H52 C65 1_555 1_555
C66 C65 1_555 1_555
H53 C66 1_555 1_555
C67 C66 1_555 1_555
H54 C67 1_555 1_555
C68 C56 1_555 1_555
C69 H55 1_555 1_555
H56 C69 1_555 1_555
H57 C69 1_555 1_555
C70 C71 1_555 1_555
C71 C72 1_555 1_555
C72 H58 1_555 1_555
C73 C72 1_555 1_555
H59 C73 1_555 1_555
C74 C73 1_555 1_555
H60 C74 1_555 1_555
C75 C74 1_555 1_555
H61 C75 1_555 1_555
C76 C71 1_555 1_555
C77 C76 1_555 1_555
H62 C77 1_555 1_555
C78 C77 1_555 1_555
H63 C78 1_555 1_555
C79 C78 1_555 1_555
C80 C79 1_555 1_555
C81 C80 1_555 1_555
H64 C81 1_555 1_555
C82 C81 1_555 1_555
H65 C82 1_555 1_555
C83 C82 1_555 1_555
H66 C83 1_555 1_555
C84 C83 1_555 1_555
H67 C84 1_555 1_555
C85 C80 1_555 1_555
H68 C85 1_555 1_555
C86 C79 1_555 1_555
C87 C86 1_555 1_555
H69 C87 1_555 1_555
C88 C87 1_555 1_555
H70 C88 1_555 1_555
C89 C88 1_555 1_555
H71 C89 1_555 1_555
C90 C89 1_555 1_555
H72 C90 1_555 1_555
C91 C86 1_555 1_555
H73 C91 1_555 1_555
C92 H74 1_555 1_555
H75 C92 1_555 1_555
H76 C92 1_555 1_555
N1 C1 1_555 1_555
N2 C24 1_555 1_555
N3 C47 1_555 1_555
N4 C70 1_555 1_555
O1 C1 1_555 1_555
O2 C24 1_555 1_555
O3 C47 1_555 1_555
O4 C70 1_555 1_555
C6 C7 1_555 1_555
C8 N1 1_555 1_555
C15 C16 1_555 1_555
C21 C22 1_555 1_555
C23 N1 1_555 1_555
C29 C30 1_555 1_555
C31 N2 1_555 1_555
C38 C39 1_555 1_555
C40 C45 1_555 1_555
C44 C45 1_555 1_555
C46 N2 1_555 1_555
C52 C53 1_555 1_555
C54 N3 1_555 1_555
C61 C62 1_555 1_555
C63 C68 1_555 1_555
C67 C68 1_555 1_555
C69 N3 1_555 1_555
C75 C76 1_555 1_555
C77 N4 1_555 1_555
C84 C85 1_555 1_555
C90 C91 1_555 1_555
C92 N4 1_555 1_555

#END
