
#######################################################################
#
#                 Cambridge Crystallographic Data Centre
#                                CCDC 
#
#######################################################################
#
# If this CIF has been generated from an entry in the Cambridge 
# Structural Database, then it will include bibliographic, chemical, 
# crystal, experimental, refinement or atomic coordinate data resulting 
# from the CCDC's data processing and validation procedures.
#
#######################################################################

data_MEBRUH
_chemical_formula_moiety         'C12 H8 N4 O1,C6 H8 O7'
_chemical_name_systematic        
'2,5-bis(4-Pyridyl)-1,3,4-oxadiazole citric acid'
_symmetry_cell_setting           orthorhombic
_symmetry_space_group_name_H-M   'P 21 21 21'
_symmetry_Int_Tables_number      19
_space_group_name_Hall           'P 2ac 2ab'
loop_
_symmetry_equiv_pos_site_id
_symmetry_equiv_pos_as_xyz
1 x,y,z
2 1/2-x,-y,1/2+z
3 -x,1/2+y,1/2-z
4 1/2+x,1/2-y,-z
_cell_length_a                   5.3972(8)
_cell_length_b                   17.449(3)
_cell_length_c                   19.711(3)
_cell_angle_alpha                90
_cell_angle_beta                 90
_cell_angle_gamma                90
_cell_volume                     1856.3
_exptl_crystal_colour            colorless
_exptl_crystal_description       prism
_chemical_melting_point          '177 deg.C'
_cell_formula_units_Z            4
loop_
_atom_site_label
_atom_site_type_symbol
_atom_site_fract_x
_atom_site_fract_y
_atom_site_fract_z
O1 O 0.5084(3) 0.42012(9) 0.86248(8)
N1 N 0.3920(4) 0.13742(12) 0.90533(11)
N2 N 0.8318(4) 0.39650(12) 0.92767(11)
N3 N 0.8357(4) 0.47392(12) 0.90808(10)
N4 N 0.3639(5) 0.68658(13) 0.78072(11)
C1 C 0.6825(5) 0.23398(15) 0.93599(12)
H5 H 0.8275 0.2472 0.9586
C2 C 0.5994(5) 0.15959(15) 0.93651(13)
H6 H 0.6920 0.1230 0.9596
C3 C 0.2621(5) 0.19083(17) 0.87313(14)
H7 H 0.1163 0.1761 0.8516
C4 C 0.3309(5) 0.26736(15) 0.86973(13)
H8 H 0.2337 0.3029 0.8468
C5 C 0.5477(5) 0.28910(15) 0.90144(12)
C6 C 0.6373(5) 0.36783(14) 0.89933(12)
C7 C 0.6457(5) 0.48457(14) 0.86996(12)
C8 C 0.5568(5) 0.55405(15) 0.83754(12)
C9 C 0.3578(6) 0.55071(16) 0.79288(13)
H9 H 0.2853 0.5040 0.7818
C10 C 0.2708(6) 0.61768(19) 0.76554(15)
H10 H 0.1403 0.6151 0.7348
C11 C 0.5580(5) 0.68864(16) 0.82253(14)
H11 H 0.6270 0.7361 0.8326
C12 C 0.6625(5) 0.62448(15) 0.85176(14)
H12 H 0.7996 0.6284 0.8801
O2 O 0.7427(4) 0.96579(10) 1.01859(10)
H1 H 0.6209 0.9767 1.0415
O3 O 0.6100(4) 0.84711(12) 1.03694(12)
O4 O 1.1862(5) 0.81520(11) 0.73228(9)
H2 H 1.2303 0.7763 0.7523
O5 O 1.0893(5) 0.93338(13) 0.75810(10)
O6 O 0.8860(3) 1.02969(11) 0.87482(9)
O7 O 1.2632(4) 0.99086(10) 0.90753(12)
H3 H 1.2960 1.0366 0.9045
O8 O 0.7102(3) 0.88766(11) 0.86926(10)
H4 H 0.6407 0.9294 0.8705
C13 C 0.7553(5) 0.89018(17) 1.01108(13)
C14 C 0.9671(5) 0.86513(16) 0.96746(13)
H13 H 0.9704 0.8096 0.9662
H14 H 1.1205 0.8823 0.9881
C15 C 0.9565(4) 0.89538(15) 0.89425(12)
C16 C 1.0305(5) 0.97950(15) 0.89025(13)
C17 C 1.1223(4) 0.84560(14) 0.85018(11)
H15 H 1.2895 0.8473 0.8682
H16 H 1.0654 0.7930 0.8531
C18 C 1.1295(5) 0.86878(17) 0.77687(13)
loop_
_geom_bond_atom_site_label_1
_geom_bond_atom_site_label_2
_geom_bond_site_symmetry_1
_geom_bond_site_symmetry_2
O1 C6 1_555 1_555
O2 H1 1_555 1_555
O3 C13 1_555 1_555
O4 H2 1_555 1_555
O5 C18 1_555 1_555
O6 C16 1_555 1_555
O7 H3 1_555 1_555
O8 H4 1_555 1_555
N1 C2 1_555 1_555
N2 N3 1_555 1_555
N3 C7 1_555 1_555
N4 C10 1_555 1_555
C1 H5 1_555 1_555
C2 C1 1_555 1_555
H6 C2 1_555 1_555
C3 N1 1_555 1_555
H7 C3 1_555 1_555
C4 C3 1_555 1_555
H8 C4 1_555 1_555
C5 C1 1_555 1_555
C6 N2 1_555 1_555
C7 O1 1_555 1_555
C8 C7 1_555 1_555
C9 C8 1_555 1_555
H9 C9 1_555 1_555
C10 C9 1_555 1_555
H10 C10 1_555 1_555
C11 N4 1_555 1_555
H11 C11 1_555 1_555
C12 C8 1_555 1_555
H12 C12 1_555 1_555
C13 O2 1_555 1_555
C14 C13 1_555 1_555
H13 C14 1_555 1_555
H14 C14 1_555 1_555
C15 O8 1_555 1_555
C16 O7 1_555 1_555
C17 C15 1_555 1_555
H15 C17 1_555 1_555
H16 C17 1_555 1_555
C18 O4 1_555 1_555
C4 C5 1_555 1_555
C5 C6 1_555 1_555
C11 C12 1_555 1_555
C14 C15 1_555 1_555
C15 C16 1_555 1_555
C17 C18 1_555 1_555

#END
