
#######################################################################
#
#                 Cambridge Crystallographic Data Centre
#                                CCDC 
#
#######################################################################
#
# If this CIF has been generated from an entry in the Cambridge 
# Structural Database, then it will include bibliographic, chemical, 
# crystal, experimental, refinement or atomic coordinate data resulting 
# from the CCDC's data processing and validation procedures.
#
#######################################################################

data_MEBRAM
_chemical_formula_moiety         'C12 H18 N2 O1'
_chemical_name_systematic        
7-exo-Cyano-7-endo-morpholinobicyclo(4.1.0)heptane
_symmetry_cell_setting           orthorhombic
_symmetry_space_group_name_H-M   'P 21 21 21'
_symmetry_Int_Tables_number      19
_space_group_name_Hall           'P 2ac 2ab'
loop_
_symmetry_equiv_pos_site_id
_symmetry_equiv_pos_as_xyz
1 x,y,z
2 1/2-x,-y,1/2+z
3 1/2+x,1/2-y,-z
4 -x,1/2+y,1/2-z
_cell_length_a                   11.227(3)
_cell_length_b                   15.842(3)
_cell_length_c                   6.440(4)
_cell_angle_alpha                90
_cell_angle_beta                 90
_cell_angle_gamma                90
_cell_volume                     1145.41
_exptl_crystal_colour            colorless
_exptl_crystal_description       prismatic
_chemical_melting_point          '103-105 deg.C'
_cell_formula_units_Z            4
loop_
_atom_site_label
_atom_site_type_symbol
_atom_site_fract_x
_atom_site_fract_y
_atom_site_fract_z
O1 O 0.5451(3) 0.1055(2) 1.0026(4)
N1 N 0.5709(3) 0.2791(2) 0.9062(5)
N2 N 0.7969(3) 0.3261(2) 0.5607(6)
C1 C 0.6208(3) 0.3536(2) 0.8133(6)
C2 C 0.5380(3) 0.4268(2) 0.7496(6)
C3 C 0.6227(4) 0.4371(2) 0.9298(7)
C4 C 0.5751(4) 0.4473(3) 1.1493(7)
C5 C 0.4424(4) 0.4253(3) 1.1730(7)
C6 C 0.3701(4) 0.4606(2) 0.9969(7)
C7 C 0.4052(3) 0.4199(2) 0.7915(6)
C8 C 0.5297(3) 0.2187(2) 0.7509(6)
C9 C 0.4663(4) 0.1461(2) 0.8588(7)
C10 C 0.5875(4) 0.1644(3) 1.1532(7)
C11 C 0.6516(3) 0.2374(2) 1.0522(6)
C12 C 0.7204(3) 0.3387(2) 0.6732(6)
H1 H 0.5832 0.4569 0.6143
H2 H 0.6993 0.4751 0.9140
H3 H 0.6350 0.4154 1.2691
H4 H 0.5796 0.5133 1.1834
H5 H 0.4397 0.3586 1.2041
H6 H 0.4150 0.4545 1.2970
H7 H 0.2749 0.4457 1.0088
H8 H 0.3820 0.5303 0.9994
H9 H 0.3617 0.4540 0.6594
H10 H 0.3757 0.3528 0.7916
H11 H 0.7344 0.2084 0.9469
H12 H 0.6967 0.2741 1.1665
H13 H 0.6478 0.1272 1.2441
H14 H 0.5224 0.1863 1.2519
H15 H 0.4385 0.0971 0.7394
H16 H 0.3852 0.1763 0.9466
H17 H 0.5913 0.1913 0.6421
H18 H 0.4731 0.2492 0.6482
loop_
_geom_bond_atom_site_label_1
_geom_bond_atom_site_label_2
_geom_bond_site_symmetry_1
_geom_bond_site_symmetry_2
O1 C9 1_555 1_555
N1 C1 1_555 1_555
N2 C12 1_555 1_555
C1 C2 1_555 1_555
C2 C3 1_555 1_555
C3 C1 1_555 1_555
C4 C3 1_555 1_555
C5 C4 1_555 1_555
C6 C5 1_555 1_555
C7 C2 1_555 1_555
C8 N1 1_555 1_555
C9 C8 1_555 1_555
C10 O1 1_555 1_555
C11 N1 1_555 1_555
C12 C1 1_555 1_555
H1 C2 1_555 1_555
H2 C3 1_555 1_555
H3 C4 1_555 1_555
H4 C4 1_555 1_555
H5 C5 1_555 1_555
H6 C5 1_555 1_555
H7 C6 1_555 1_555
H8 C6 1_555 1_555
H9 C7 1_555 1_555
H10 C7 1_555 1_555
H11 C11 1_555 1_555
H12 C11 1_555 1_555
H13 C10 1_555 1_555
H14 C10 1_555 1_555
H15 C9 1_555 1_555
H16 C9 1_555 1_555
H17 C8 1_555 1_555
H18 C8 1_555 1_555
C6 C7 1_555 1_555
C10 C11 1_555 1_555

#END
