
#######################################################################
#
#                 Cambridge Crystallographic Data Centre
#                                CCDC 
#
#######################################################################
#
# If this CIF has been generated from an entry in the Cambridge 
# Structural Database, then it will include bibliographic, chemical, 
# crystal, experimental, refinement or atomic coordinate data resulting 
# from the CCDC's data processing and validation procedures.
#
#######################################################################

data_MEBVEX
_chemical_compound_source        'whole plant of Ligularia fischeri'
_chemical_name_common            'Fischericin A methanol solvate'
_chemical_formula_moiety         'C18 H30 O2,C1 H4 O1'
_chemical_name_systematic        
'4b,7,10a-trimethyl-1-methylenetetradecahydrophenanthrene-2,7-diol methanol solvate'
_symmetry_cell_setting           monoclinic
_symmetry_space_group_name_H-M   'P 21'
_symmetry_Int_Tables_number      4
_space_group_name_Hall           'P 2yb'
loop_
_symmetry_equiv_pos_site_id
_symmetry_equiv_pos_as_xyz
1 x,y,z
2 -x,1/2+y,-z
_cell_length_a                   10.4703(8)
_cell_length_b                   8.0849(10)
_cell_length_c                   33.511(2)
_cell_angle_alpha                90
_cell_angle_beta                 92.726(6)
_cell_angle_gamma                90
_cell_volume                     2833.54
_exptl_crystal_colour            colorless
_exptl_crystal_description       block
_chemical_melting_point          '135-136 deg.C'
_cell_formula_units_Z            6
loop_
_atom_site_label
_atom_site_type_symbol
_atom_site_fract_x
_atom_site_fract_y
_atom_site_fract_z
O1 O 0.7870(5) 0.2487(8) 1.12305(16)
H1 H 0.777(6) 0.336(9) 1.142(2)
O2 O 0.7992(5) 0.4758(8) 0.85009(15)
H2 H 0.8706 0.5142 0.8552
C1 C 0.7799(6) 0.1701(10) 1.0358(2)
H3 H 0.8639 0.1940 1.0479
H4 H 0.7897 0.0852 1.0157
C2 C 0.6933(7) 0.1061(10) 1.0676(2)
H5 H 0.6118 0.0731 1.0551
H6 H 0.7320 0.0093 1.0803
C3 C 0.6712(7) 0.2355(11) 1.0989(2)
H7 H 0.6033 0.1967 1.1157
C4 C 0.6304(7) 0.4006(12) 1.0805(2)
C5 C 0.7114(7) 0.4666(10) 1.0474(2)
C6 C 0.6438(8) 0.6155(10) 1.0257(2)
H8 H 0.5558 0.5857 1.0187
H9 H 0.6426 0.7088 1.0439
C7 C 0.7097(8) 0.6683(11) 0.9876(2)
H10 H 0.6634 0.7599 0.9750
H11 H 0.7962 0.7049 0.9945
C8 C 0.7132(7) 0.5223(10) 0.9584(2)
H12 H 0.6245 0.4848 0.9543
C9 C 0.7884(6) 0.3734(10) 0.9763(2)
C10 C 0.7260(6) 0.3250(9) 1.0160(2)
H13 H 0.6379 0.2954 1.0077
C11 C 0.7684(6) 0.2304(9) 0.9461(2)
H14 H 0.8194 0.1364 0.9552
H15 H 0.6793 0.1971 0.9453
C12 C 0.8049(7) 0.2771(10) 0.9035(2)
H16 H 0.8968 0.2921 0.9036
H17 H 0.7830 0.1855 0.8858
C13 C 0.7405(7) 0.4330(12) 0.8868(2)
C14 C 0.7562(7) 0.5717(10) 0.9173(2)
H18 H 0.8454 0.6044 0.9196
H19 H 0.7068 0.6667 0.9079
C15 C 0.6001(7) 0.4035(12) 0.8743(2)
H20 H 0.5935 0.3114 0.8562
H21 H 0.5657 0.5006 0.8612
H22 H 0.5530 0.3802 0.8975
C16 C 0.5286(7) 0.4711(14) 1.0932(2)
H23 H 0.4829 0.4208 1.1130
H24 H 0.5014 0.5720 1.0825
C17 C 0.8400(7) 0.5326(10) 1.0670(2)
H25 H 0.8932 0.4409 1.0753
H26 H 0.8225 0.5992 1.0899
H27 H 0.8833 0.5983 1.0480
C18 C 0.9329(6) 0.4080(10) 0.9818(2)
H28 H 0.9720 0.3248 0.9988
H29 H 0.9459 0.5148 0.9938
H30 H 0.9707 0.4058 0.9563
O3 O 0.7901(5) 0.2495(8) 0.78983(16)
H31 H 0.7808 0.3162 0.8079
O4 O 0.7973(5) 0.4787(8) 0.51688(15)
H32 H 0.8744 0.4924 0.5210
C19 C 0.7830(6) 0.1693(9) 0.7027(2)
H33 H 0.7929 0.0842 0.6827
H34 H 0.8667 0.1931 0.7150
C20 C 0.6956(7) 0.1063(10) 0.7344(2)
H35 H 0.6141 0.0743 0.7218
H36 H 0.7335 0.0091 0.7471
C21 C 0.6739(7) 0.2372(11) 0.7658(2)
H37 H 0.6056 0.1997 0.7827
C22 C 0.6349(6) 0.4001(12) 0.7469(2)
C23 C 0.7152(6) 0.4706(10) 0.7136(2)
C24 C 0.6456(8) 0.6141(11) 0.6924(2)
H38 H 0.5581 0.5812 0.6857
H39 H 0.6431 0.7073 0.7106
C25 C 0.7081(7) 0.6685(10) 0.6545(2)
H40 H 0.7940 0.7083 0.6611
H41 H 0.6595 0.7585 0.6421
C26 C 0.7140(7) 0.5235(9) 0.6251(2)
H42 H 0.6255 0.4852 0.6210
C27 C 0.7886(6) 0.3743(9) 0.6430(2)
C28 C 0.7287(5) 0.3259(8) 0.6826(2)
H43 H 0.6403 0.2966 0.6747
C29 C 0.7711(6) 0.2317(9) 0.6130(2)
H44 H 0.8241 0.1396 0.6222
H45 H 0.6828 0.1955 0.6126
C30 C 0.8048(7) 0.2750(9) 0.5707(2)
H46 H 0.7812 0.1827 0.5534
H47 H 0.8967 0.2885 0.5702
C31 C 0.7409(7) 0.4313(11) 0.5536(2)
C32 C 0.7555(7) 0.5744(9) 0.5839(2)
H48 H 0.8442 0.6096 0.5859
H49 H 0.7043 0.6676 0.5744
C33 C 0.6009(7) 0.4023(11) 0.5413(2)
H50 H 0.5932 0.3037 0.5254
H51 H 0.5688 0.4949 0.5260
H52 H 0.5525 0.3899 0.5647
C34 C 0.5296(7) 0.4697(12) 0.7602(2)
H53 H 0.4850 0.4178 0.7800
H54 H 0.5008 0.5701 0.7497
C35 C 0.8427(6) 0.5323(9) 0.7336(2)
H55 H 0.8885 0.5953 0.7146
H56 H 0.8934 0.4392 0.7424
H57 H 0.8253 0.6008 0.7561
C36 C 0.9330(5) 0.4100(9) 0.6490(2)
H58 H 0.9700 0.3356 0.6687
H59 H 0.9454 0.5219 0.6579
H60 H 0.9736 0.3945 0.6242
O5 O 0.7874(5) 0.2513(7) 0.45645(16)
H61 H 0.7770 0.3167 0.4747
O6 O 0.7954(5) 0.4771(8) 0.18330(17)
H62 H 0.875(7) 0.494(12) 0.190(2)
C37 C 0.7806(6) 0.1712(9) 0.3693(2)
H63 H 0.8642 0.1960 0.3815
H64 H 0.7909 0.0860 0.3493
C38 C 0.6927(7) 0.1079(9) 0.4012(2)
H65 H 0.6111 0.0758 0.3886
H66 H 0.7306 0.0108 0.4139
C39 C 0.6715(7) 0.2378(10) 0.4322(2)
H67 H 0.6034 0.1999 0.4490
C40 C 0.6316(6) 0.4003(10) 0.4137(2)
C41 C 0.7120(6) 0.4673(10) 0.3802(2)
C42 C 0.6447(7) 0.6155(10) 0.3594(2)
H68 H 0.5558 0.5873 0.3534
H69 H 0.6467 0.7087 0.3776
C43 C 0.7056(7) 0.6673(9) 0.3207(2)
H70 H 0.6562 0.7567 0.3084
H71 H 0.7914 0.7079 0.3269
C44 C 0.7111(6) 0.5240(9) 0.2918(2)
H72 H 0.6226 0.4858 0.2878
C45 C 0.7859(6) 0.3740(9) 0.3096(2)
C46 C 0.7248(6) 0.3267(8) 0.3492(2)
H73 H 0.6365 0.2967 0.3413
C47 C 0.7658(6) 0.2314(9) 0.2797(2)
H74 H 0.6767 0.1985 0.2790
H75 H 0.8165 0.1374 0.2890
C48 C 0.8027(7) 0.2753(10) 0.2368(2)
H76 H 0.8945 0.2911 0.2367
H77 H 0.7809 0.1829 0.2193
C49 C 0.7362(7) 0.4315(11) 0.2200(2)
C50 C 0.7530(7) 0.5705(10) 0.2503(2)
H78 H 0.7039 0.6655 0.2408
H79 H 0.8424 0.6026 0.2522
C51 C 0.5973(6) 0.4024(12) 0.2076(2)
H80 H 0.5907 0.3116 0.1892
H81 H 0.5623 0.5002 0.1951
H82 H 0.5505 0.3769 0.2308
C52 C 0.5293(7) 0.4718(12) 0.4274(2)
H83 H 0.4853 0.4216 0.4476
H84 H 0.5011 0.5725 0.4168
C53 C 0.8391(6) 0.5313(9) 0.4001(2)
H85 H 0.8816 0.6007 0.3816
H86 H 0.8930 0.4391 0.4074
H87 H 0.8214 0.5937 0.4236
C54 C 0.9306(5) 0.4092(10) 0.3149(2)
H88 H 0.9726 0.3164 0.3276
H89 H 0.9441 0.5061 0.3311
H90 H 0.9650 0.4272 0.2892
O7 O 0.0574(6) 0.4908(9) 0.8601(2)
H91 H 0.1060 0.5672 0.8662
C55 C 0.1198(9) 0.3775(15) 0.8375(3)
H92 H 0.2102 0.3848 0.8435
H93 H 0.1022 0.4004 0.8097
H94 H 0.0906 0.2682 0.8435
O8 O 0.0548(6) 0.4921(10) 0.1932(3)
H95 H 0.0969 0.5774 0.1953
C56 C 0.1201(9) 0.3774(13) 0.1715(3)
H96 H 0.0933 0.3858 0.1438
H97 H 0.1022 0.2682 0.1810
H98 H 0.2103 0.3984 0.1746
O9 O 0.0569(6) 0.4933(9) 0.5265(2)
H99 H 0.112(7) 0.581(11) 0.533(2)
C57 C 0.1212(9) 0.3764(13) 0.5039(3)
H100 H 0.2084 0.3678 0.5139
H101 H 0.1190 0.4105 0.4764
H102 H 0.0801 0.2707 0.5059
loop_
_geom_bond_atom_site_label_1
_geom_bond_atom_site_label_2
_geom_bond_site_symmetry_1
_geom_bond_site_symmetry_2
O1 H1 1_555 1_555
O2 H2 1_555 1_555
C1 H3 1_555 1_555
H4 C1 1_555 1_555
C2 C1 1_555 1_555
H5 C2 1_555 1_555
H6 C2 1_555 1_555
C3 O1 1_555 1_555
H7 C3 1_555 1_555
C4 C3 1_555 1_555
C5 C4 1_555 1_555
C6 C5 1_555 1_555
H8 C6 1_555 1_555
H9 C6 1_555 1_555
C7 C6 1_555 1_555
H10 C7 1_555 1_555
H11 C7 1_555 1_555
C8 C7 1_555 1_555
H12 C8 1_555 1_555
C9 C8 1_555 1_555
C10 C1 1_555 1_555
H13 C10 1_555 1_555
C11 C9 1_555 1_555
H14 C11 1_555 1_555
H15 C11 1_555 1_555
C12 C11 1_555 1_555
H16 C12 1_555 1_555
H17 C12 1_555 1_555
C13 O2 1_555 1_555
C14 C8 1_555 1_555
H18 C14 1_555 1_555
H19 C14 1_555 1_555
C15 C13 1_555 1_555
H20 C15 1_555 1_555
H21 C15 1_555 1_555
H22 C15 1_555 1_555
C16 C4 1_555 1_555
H23 C16 1_555 1_555
H24 C16 1_555 1_555
C17 C5 1_555 1_555
H25 C17 1_555 1_555
H26 C17 1_555 1_555
H27 C17 1_555 1_555
C18 C9 1_555 1_555
H28 C18 1_555 1_555
H29 C18 1_555 1_555
H30 C18 1_555 1_555
O3 H31 1_555 1_555
O4 H32 1_555 1_555
C19 H33 1_555 1_555
H34 C19 1_555 1_555
C20 C19 1_555 1_555
H35 C20 1_555 1_555
H36 C20 1_555 1_555
C21 O3 1_555 1_555
H37 C21 1_555 1_555
C22 C21 1_555 1_555
C23 C22 1_555 1_555
C24 C23 1_555 1_555
H38 C24 1_555 1_555
H39 C24 1_555 1_555
C25 C24 1_555 1_555
H40 C25 1_555 1_555
H41 C25 1_555 1_555
C26 C25 1_555 1_555
H42 C26 1_555 1_555
C27 C26 1_555 1_555
C28 C19 1_555 1_555
H43 C28 1_555 1_555
C29 C27 1_555 1_555
H44 C29 1_555 1_555
H45 C29 1_555 1_555
C30 C29 1_555 1_555
H46 C30 1_555 1_555
H47 C30 1_555 1_555
C31 O4 1_555 1_555
C32 C26 1_555 1_555
H48 C32 1_555 1_555
H49 C32 1_555 1_555
C33 C31 1_555 1_555
H50 C33 1_555 1_555
H51 C33 1_555 1_555
H52 C33 1_555 1_555
C34 C22 1_555 1_555
H53 C34 1_555 1_555
H54 C34 1_555 1_555
C35 C23 1_555 1_555
H55 C35 1_555 1_555
H56 C35 1_555 1_555
H57 C35 1_555 1_555
C36 C27 1_555 1_555
H58 C36 1_555 1_555
H59 C36 1_555 1_555
H60 C36 1_555 1_555
O5 H61 1_555 1_555
O6 H62 1_555 1_555
C37 H63 1_555 1_555
H64 C37 1_555 1_555
C38 C37 1_555 1_555
H65 C38 1_555 1_555
H66 C38 1_555 1_555
C39 O5 1_555 1_555
H67 C39 1_555 1_555
C40 C39 1_555 1_555
C41 C40 1_555 1_555
C42 C41 1_555 1_555
H68 C42 1_555 1_555
H69 C42 1_555 1_555
C43 C42 1_555 1_555
H70 C43 1_555 1_555
H71 C43 1_555 1_555
C44 C43 1_555 1_555
H72 C44 1_555 1_555
C45 C44 1_555 1_555
C46 C37 1_555 1_555
H73 C46 1_555 1_555
C47 C45 1_555 1_555
H74 C47 1_555 1_555
H75 C47 1_555 1_555
C48 C47 1_555 1_555
H76 C48 1_555 1_555
H77 C48 1_555 1_555
C49 O6 1_555 1_555
C50 C44 1_555 1_555
H78 C50 1_555 1_555
H79 C50 1_555 1_555
C51 C49 1_555 1_555
H80 C51 1_555 1_555
H81 C51 1_555 1_555
H82 C51 1_555 1_555
C52 C40 1_555 1_555
H83 C52 1_555 1_555
H84 C52 1_555 1_555
C53 C41 1_555 1_555
H85 C53 1_555 1_555
H86 C53 1_555 1_555
H87 C53 1_555 1_555
C54 C45 1_555 1_555
H88 C54 1_555 1_555
H89 C54 1_555 1_555
H90 C54 1_555 1_555
O7 H91 1_555 1_555
C55 O7 1_555 1_555
H92 C55 1_555 1_555
H93 C55 1_555 1_555
H94 C55 1_555 1_555
O8 H95 1_555 1_555
C56 O8 1_555 1_555
H96 C56 1_555 1_555
H97 C56 1_555 1_555
H98 C56 1_555 1_555
O9 H99 1_555 1_555
C57 O9 1_555 1_555
H100 C57 1_555 1_555
H101 C57 1_555 1_555
H102 C57 1_555 1_555
C2 C3 1_555 1_555
C5 C10 1_555 1_555
C9 C10 1_555 1_555
C12 C13 1_555 1_555
C13 C14 1_555 1_555
C20 C21 1_555 1_555
C23 C28 1_555 1_555
C27 C28 1_555 1_555
C30 C31 1_555 1_555
C31 C32 1_555 1_555
C38 C39 1_555 1_555
C41 C46 1_555 1_555
C45 C46 1_555 1_555
C48 C49 1_555 1_555
C49 C50 1_555 1_555

#END
