
#######################################################################
#
#                 Cambridge Crystallographic Data Centre
#                                CCDC 
#
#######################################################################
#
# If this CIF has been generated from an entry in the Cambridge 
# Structural Database, then it will include bibliographic, chemical, 
# crystal, experimental, refinement or atomic coordinate data resulting 
# from the CCDC's data processing and validation procedures.
#
#######################################################################

data_MEBYOI
_chemical_formula_moiety         'C19 H18 O2'
_chemical_name_systematic        1-(Benzyloxy)-2-methoxy-8-methylnaphthalene
_symmetry_cell_setting           orthorhombic
_symmetry_space_group_name_H-M   'P 21 21 21'
_symmetry_Int_Tables_number      19
_space_group_name_Hall           'P 2ac 2ab'
loop_
_symmetry_equiv_pos_site_id
_symmetry_equiv_pos_as_xyz
1 x,y,z
2 1/2-x,-y,1/2+z
3 1/2+x,1/2-y,-z
4 -x,1/2+y,1/2-z
_cell_length_a                   5.148(2)
_cell_length_b                   9.910(2)
_cell_length_c                   28.892(2)
_cell_angle_alpha                90
_cell_angle_beta                 90
_cell_angle_gamma                90
_cell_volume                     1473.97
_exptl_crystal_colour            colorless
_exptl_crystal_description       plate
_chemical_melting_point          '67-68 deg.C'
_cell_formula_units_Z            4
_exptl_crystal_recrystallization_method 'ethyl acetate'
loop_
_atom_site_label
_atom_site_type_symbol
_atom_site_fract_x
_atom_site_fract_y
_atom_site_fract_z
O1 O 0.4270(6) 0.7185(3) 0.12330(9)
O2 O 0.0747(7) 0.8535(3) 0.0749(1)
C1 C 0.2608(8) 0.6460(4) 0.0949(1)
C2 C 0.0776(9) 0.7155(4) 0.0696(1)
C3 C -0.094(1) 0.6462(5) 0.0402(1)
C4 C -0.070(1) 0.5111(5) 0.0354(1)
C5 C 0.132(1) 0.2943(5) 0.0540(2)
C6 C 0.310(1) 0.2215(5) 0.0777(2)
C7 C 0.478(1) 0.2883(5) 0.1086(2)
C8 C 0.4740(9) 0.4238(5) 0.1161(1)
C9 C 0.2885(8) 0.5040(4) 0.0913(1)
C10 C 0.1167(9) 0.4362(4) 0.0598(1)
C11 C 0.668(1) 0.4804(6) 0.1505(2)
C12 C 0.3100(9) 0.7638(5) 0.1663(1)
C13 C 0.5090(9) 0.8378(4) 0.1929(2)
C14 C 0.617(1) 0.9565(5) 0.1750(2)
C15 C 0.814(1) 1.0236(6) 0.1986(2)
C16 C 0.899(1) 0.9773(6) 0.2403(2)
C17 C 0.796(1) 0.8633(6) 0.2587(2)
C18 C 0.603(1) 0.7912(5) 0.2346(2)
C19 C -0.136(1) 0.9236(5) 0.0548(2)
H1 H -0.2248 0.6938 0.0238
H2 H -0.1834 0.4652 0.0149
H3 H 0.0158 0.2501 0.0334
H4 H 0.3217 0.1266 0.0736
H5 H 0.6013 0.2357 0.1251
H6 H 0.6409 0.4404 0.1799
H7 H 0.8397 0.4609 0.1402
H8 H 0.6466 0.5753 0.1528
H9 H 0.1674 0.8217 0.1598
H10 H 0.2510 0.6883 0.1836
H11 H 0.5553 0.9917 0.1465
H12 H 0.8900 1.1022 0.1856
H13 H 1.0308 1.0249 0.2565
H14 H 0.8542 0.8320 0.2879
H15 H 0.5363 0.7097 0.2473
H16 H -0.1166 1.0175 0.0604
H17 H -0.1380 0.9076 0.0224
H18 H -0.2937 0.8929 0.0681
loop_
_geom_bond_atom_site_label_1
_geom_bond_atom_site_label_2
_geom_bond_site_symmetry_1
_geom_bond_site_symmetry_2
O1 C1 1_555 1_555
O2 C2 1_555 1_555
C1 C2 1_555 1_555
C2 C3 1_555 1_555
C3 C4 1_555 1_555
C4 C10 1_555 1_555
C5 C6 1_555 1_555
C6 C7 1_555 1_555
C7 C8 1_555 1_555
C8 C9 1_555 1_555
C9 C1 1_555 1_555
C10 C5 1_555 1_555
C11 C8 1_555 1_555
C12 O1 1_555 1_555
C13 C12 1_555 1_555
C14 C13 1_555 1_555
C15 C14 1_555 1_555
C16 C15 1_555 1_555
C17 C16 1_555 1_555
C18 C13 1_555 1_555
C19 O2 1_555 1_555
H1 C3 1_555 1_555
H2 C4 1_555 1_555
H3 C5 1_555 1_555
H4 C6 1_555 1_555
H5 C7 1_555 1_555
H6 C11 1_555 1_555
H7 C11 1_555 1_555
H8 C11 1_555 1_555
H9 C12 1_555 1_555
H10 C12 1_555 1_555
H11 C14 1_555 1_555
H12 C15 1_555 1_555
H13 C16 1_555 1_555
H14 C17 1_555 1_555
H15 C18 1_555 1_555
H16 C19 1_555 1_555
H17 C19 1_555 1_555
H18 C19 1_555 1_555
C9 C10 1_555 1_555
C17 C18 1_555 1_555

#END
