
#######################################################################
#
#                 Cambridge Crystallographic Data Centre
#                                CCDC 
#
#######################################################################
#
# If this CIF has been generated from an entry in the Cambridge 
# Structural Database, then it will include bibliographic, chemical, 
# crystal, experimental, refinement or atomic coordinate data resulting 
# from the CCDC's data processing and validation procedures.
#
#######################################################################

data_MEBZID
_chemical_formula_moiety         'C44 H22 F12'
_chemical_name_systematic        
1,3,6,8-tetrakis(4-Trifluoromethylphenyl)pyrene
_symmetry_cell_setting           monoclinic
_symmetry_space_group_name_H-M   'C 2/c'
_symmetry_Int_Tables_number      15
_space_group_name_Hall           '-C 2yn'
loop_
_symmetry_equiv_pos_site_id
_symmetry_equiv_pos_as_xyz
1 x,y,z
2 1/2+x,1/2+y,z
3 -x,y,1/2-z
4 1/2-x,1/2+y,1/2-z
5 -x,-y,-z
6 1/2-x,1/2-y,-z
7 x,-y,1/2+z
8 1/2+x,1/2-y,1/2+z
_cell_length_a                   20.664(4)
_cell_length_b                   12.130(2)
_cell_length_c                   14.363(3)
_cell_angle_alpha                90
_cell_angle_beta                 92.894(3)
_cell_angle_gamma                90
_cell_volume                     3595.56
_chemical_melting_point          231deg.C
_cell_formula_units_Z            4
_exptl_crystal_recrystallization_method dichloromethane
_exptl_crystal_preparation       fluorescent
loop_
_atom_site_label
_atom_site_type_symbol
_atom_site_fract_x
_atom_site_fract_y
_atom_site_fract_z
C1 C 1.01789(16) 0.6472(3) 0.0349(2)
C2 C 0.99606(16) 0.7267(3) 0.0984(2)
C3 C 0.94673(16) 0.6965(4) 0.1563(2)
H1 H 0.9310 0.7497 0.1959
C4 C 0.92004(15) 0.5924(4) 0.1580(2)
C5 C 0.94080(15) 0.5123(3) 0.0955(2)
C6 C 0.98977(16) 0.5408(3) 0.0328(2)
C7 C 1.06636(16) 0.6714(3) -0.0304(2)
H2 H 1.0848 0.7413 -0.0305
C8 C 0.91425(17) 0.4046(4) 0.0915(2)
H3 H 0.8825 0.3858 0.1324
C9 C 1.02358(18) 0.8398(4) 0.1089(2)
C10 C 1.0894(2) 0.8576(4) 0.1246(3)
H4 H 1.1177 0.7980 0.1246
C11 C 1.1135(2) 0.9618(5) 0.1401(3)
H5 H 1.1578 0.9729 0.1500
C12 C 1.0715(2) 1.0499(4) 0.1409(2)
C13 C 1.0056(2) 1.0333(4) 0.1267(2)
H6 H 0.9773 1.0927 0.1280
C14 C 0.98217(19) 0.9289(4) 0.1106(2)
H7 H 0.9378 0.9180 0.1008
C15 C 0.87171(15) 0.5699(3) 0.2293(2)
C16 C 0.81667(16) 0.6343(4) 0.2332(2)
H8 H 0.8082 0.6885 0.1884
C17 C 0.77404(17) 0.6187(5) 0.3034(3)
H9 H 0.7374 0.6628 0.3057
C18 C 0.78565(18) 0.5386(5) 0.3693(3)
C19 C 0.84024(19) 0.4754(4) 0.3668(2)
H10 H 0.8486 0.4215 0.4119
C20 C 0.88323(17) 0.4916(4) 0.2970(2)
H11 H 0.9205 0.4487 0.2961
C21 C 1.0969(3) 1.1608(5) 0.1583(3)
C22 C 0.7380(2) 0.5205(5) 0.4446(4)
F1 F 1.0626(4) 1.2452(5) 0.1287(6)
F2 F 1.1101(3) 1.1799(6) 0.2505(3)
F3 F 1.1589(3) 1.1788(4) 0.1283(5)
F7 F 0.7530(7) 0.5954(14) 0.5151(9)
F8 F 0.6771(4) 0.5344(15) 0.4181(10)
F9 F 0.7462(9) 0.4152(10) 0.4829(14)
C1D C 0.98211(16) 0.3528(3) -0.0349(2)
C2D C 1.00394(16) 0.2733(3) -0.0984(2)
C3D C 1.05327(16) 0.3035(4) -0.1563(2)
H1D H 1.0690 0.2503 -0.1959
C4D C 1.07996(15) 0.4076(4) -0.1580(2)
C5D C 1.05920(15) 0.4877(3) -0.0955(2)
C6D C 1.01023(16) 0.4592(3) -0.0328(2)
C7D C 0.93364(16) 0.3286(3) 0.0304(2)
H2D H 0.9152 0.2587 0.0305
C8D C 1.08575(17) 0.5954(4) -0.0915(2)
H3D H 1.1175 0.6142 -0.1324
C9D C 0.97642(18) 0.1602(4) -0.1089(2)
C10D C 0.9106(2) 0.1424(4) -0.1246(3)
H4D H 0.8823 0.2020 -0.1246
C11D C 0.8865(2) 0.0382(5) -0.1401(3)
H5D H 0.8422 0.0271 -0.1500
C12D C 0.9285(2) -0.0499(4) -0.1409(2)
C13D C 0.9944(2) -0.0333(4) -0.1267(2)
H6D H 1.0227 -0.0927 -0.1280
C14D C 1.01783(19) 0.0711(4) -0.1106(2)
H7D H 1.0622 0.0820 -0.1008
C15D C 1.12829(15) 0.4301(3) -0.2293(2)
C16D C 1.18333(16) 0.3657(4) -0.2332(2)
H8D H 1.1918 0.3115 -0.1884
C17D C 1.22596(17) 0.3813(5) -0.3034(3)
H9D H 1.2626 0.3372 -0.3057
C18D C 1.21435(18) 0.4614(5) -0.3693(3)
C19D C 1.15976(19) 0.5246(4) -0.3668(2)
H10D H 1.1514 0.5785 -0.4119
C20D C 1.11677(17) 0.5084(4) -0.2970(2)
H11D H 1.0795 0.5513 -0.2961
C21D C 0.9031(3) -0.1608(5) -0.1583(3)
C22D C 1.2620(2) 0.4795(5) -0.4446(4)
F1D F 0.9374(4) -0.2452(5) -0.1287(6)
F2D F 0.8899(3) -0.1799(6) -0.2505(3)
F3D F 0.8411(3) -0.1788(4) -0.1283(5)
F7D F 1.2470(7) 0.4046(14) -0.5151(9)
F8D F 1.3229(4) 0.4656(15) -0.4181(10)
F9D F 1.2538(9) 0.5848(10) -0.4829(14)
F4? F 1.0459(5) 1.2247(10) 0.1856(9)
F5? F 1.1414(7) 1.1797(15) 0.2198(10)
F6? F 1.1116(7) 1.2091(9) 0.0785(6)
F10? F 0.7623(7) 0.4600(13) 0.5162(8)
F11? F 0.7212(10) 0.6261(8) 0.4788(13)
F12? F 0.6846(6) 0.4708(15) 0.4103(10)
F13? F 0.7626(6) 0.5175(15) 0.5287(7)
F14? F 0.6885(6) 0.5968(13) 0.4361(10)
F15? F 0.7052(8) 0.4183(10) 0.4258(11)
loop_
_geom_bond_atom_site_label_1
_geom_bond_atom_site_label_2
_geom_bond_site_symmetry_1
_geom_bond_site_symmetry_2
C1 C2 1_555 1_555
C2 C3 1_555 1_555
C3 H1 1_555 1_555
C4 C3 1_555 1_555
C5 C4 1_555 1_555
C6 C1 1_555 1_555
C7 C1 1_555 1_555
H2 C7 1_555 1_555
C8 C5 1_555 1_555
H3 C8 1_555 1_555
C9 C2 1_555 1_555
C10 C9 1_555 1_555
H4 C10 1_555 1_555
C11 C10 1_555 1_555
H5 C11 1_555 1_555
C12 C11 1_555 1_555
C13 C12 1_555 1_555
H6 C13 1_555 1_555
C14 C9 1_555 1_555
H7 C14 1_555 1_555
C15 C4 1_555 1_555
C16 C15 1_555 1_555
H8 C16 1_555 1_555
C17 C16 1_555 1_555
H9 C17 1_555 1_555
C18 C17 1_555 1_555
C19 C18 1_555 1_555
H10 C19 1_555 1_555
C20 C15 1_555 1_555
H11 C20 1_555 1_555
C21 C12 1_555 1_555
C22 C18 1_555 1_555
F1 C21 1_555 1_555
F2 C21 1_555 1_555
F3 C21 1_555 1_555
F7 C22 1_555 1_555
F8 C22 1_555 1_555
F9 C22 1_555 1_555
C1D C2D 1_555 1_555
C2D C3D 1_555 1_555
C3D H1D 1_555 1_555
C4D C3D 1_555 1_555
C5D C4D 1_555 1_555
C6D C6 1_555 1_555
C7D C8 1_555 1_555
H2D C7D 1_555 1_555
C8D C7 1_555 1_555
H3D C8D 1_555 1_555
C9D C2D 1_555 1_555
C10D C9D 1_555 1_555
H4D C10D 1_555 1_555
C11D C10D 1_555 1_555
H5D C11D 1_555 1_555
C12D C11D 1_555 1_555
C13D C12D 1_555 1_555
H6D C13D 1_555 1_555
C14D C9D 1_555 1_555
H7D C14D 1_555 1_555
C15D C4D 1_555 1_555
C16D C15D 1_555 1_555
H8D C16D 1_555 1_555
C17D C16D 1_555 1_555
H9D C17D 1_555 1_555
C18D C17D 1_555 1_555
C19D C18D 1_555 1_555
H10D C19D 1_555 1_555
C20D C15D 1_555 1_555
H11D C20D 1_555 1_555
C21D C12D 1_555 1_555
C22D C18D 1_555 1_555
F1D C21D 1_555 1_555
F2D C21D 1_555 1_555
F3D C21D 1_555 1_555
F7D C22D 1_555 1_555
F8D C22D 1_555 1_555
F9D C22D 1_555 1_555
C5 C6 1_555 1_555
C13 C14 1_555 1_555
C19 C20 1_555 1_555
C1D C6D 1_555 1_555
C1D C7D 1_555 1_555
C5D C6D 1_555 1_555
C5D C8D 1_555 1_555
C13D C14D 1_555 1_555
C19D C20D 1_555 1_555

#END
