
#######################################################################
#
#                 Cambridge Crystallographic Data Centre
#                                CCDC 
#
#######################################################################
#
# If this CIF has been generated from an entry in the Cambridge 
# Structural Database, then it will include bibliographic, chemical, 
# crystal, experimental, refinement or atomic coordinate data resulting 
# from the CCDC's data processing and validation procedures.
#
#######################################################################

data_MEBZOJ
_chemical_formula_moiety         'C32 H18 S4'
_chemical_name_systematic        1,3,6,8-tetrakis(2-Thienyl)pyrene
_symmetry_cell_setting           monoclinic
_symmetry_space_group_name_H-M   'P 21/c'
_symmetry_Int_Tables_number      14
_space_group_name_Hall           '-P 2ybc'
loop_
_symmetry_equiv_pos_site_id
_symmetry_equiv_pos_as_xyz
1 x,y,z
2 -x,1/2+y,1/2-z
3 -x,-y,-z
4 x,1/2-y,1/2+z
_cell_length_a                   13.794(5)
_cell_length_b                   8.637(5)
_cell_length_c                   11.009(5)
_cell_angle_alpha                90
_cell_angle_beta                 112.400(5)
_cell_angle_gamma                90
_cell_volume                     1212.63
_exptl_crystal_description       plate
_chemical_melting_point          308deg.C
_cell_formula_units_Z            2
_exptl_crystal_recrystallization_method dichloromethane
_exptl_crystal_preparation       fluorescent
loop_
_atom_site_label
_atom_site_type_symbol
_atom_site_fract_x
_atom_site_fract_y
_atom_site_fract_z
S1 S 0.28617(9) 0.31822(14) 0.27079(11)
S2 S 0.37583(11) 0.59122(18) 0.84919(12)
C1 C 0.3855(2) 0.8119(4) 0.6838(3)
H1 H 0.3747 0.8716 0.6094
C2 C 0.0498(3) 0.5103(4) 0.4946(3)
C3 C 0.0659(2) 0.4604(4) 0.3811(3)
C4 C -0.0187(3) 0.3819(4) 0.2804(3)
H2 H -0.0081 0.3420 0.2080
C5 C 0.2442(3) 0.5567(4) 0.4773(3)
H3 H 0.3086 0.5732 0.4704
C6 C 0.1842(3) 0.4398(4) 0.2537(3)
C7 C 0.1335(3) 0.5825(4) 0.6009(3)
C8 C 0.1308(3) 0.4811(5) 0.1220(3)
H4 H 0.0737 0.5479 0.0919
C9 C 0.1636(3) 0.4875(4) 0.3712(3)
C10 C 0.2326(3) 0.6015(4) 0.5916(3)
C11 C 0.3229(3) 0.6700(4) 0.6977(3)
C12 C -0.1124(3) 0.3647(4) 0.2885(3)
H5 H -0.1659 0.3167 0.2196
C13 C 0.1754(3) 0.4074(5) 0.0403(4)
H6 H 0.1490 0.4191 -0.0505
C14 C 0.2589(4) 0.3193(5) 0.1060(4)
H7 H 0.2975 0.2652 0.0666
C15 C 0.4681(3) 0.7234(6) 0.9040(4)
H8 H 0.5176 0.7239 0.9897
C16 C 0.4659(4) 0.8300(6) 0.8154(5)
H9 H 0.5133 0.9118 0.8364
S1B S -0.28617(9) 0.68178(14) 0.72921(11)
S2B S -0.37583(11) 0.40878(18) 0.15081(12)
C1B C -0.3855(2) 0.1881(4) 0.3162(3)
H1B H -0.3747 0.1284 0.3906
C2B C -0.0498(3) 0.4897(4) 0.5054(3)
C3B C -0.0659(2) 0.5396(4) 0.6189(3)
C4B C 0.0187(3) 0.6181(4) 0.7196(3)
H2B H 0.0081 0.6580 0.7920
C5B C -0.2442(3) 0.4433(4) 0.5227(3)
H3B H -0.3086 0.4268 0.5296
C6B C -0.1842(3) 0.5602(4) 0.7463(3)
C7B C -0.1335(3) 0.4175(4) 0.3991(3)
C8B C -0.1308(3) 0.5189(5) 0.8780(3)
H4B H -0.0737 0.4521 0.9081
C9B C -0.1636(3) 0.5125(4) 0.6288(3)
C10B C -0.2326(3) 0.3985(4) 0.4084(3)
C11B C -0.3229(3) 0.3300(4) 0.3023(3)
C12B C 0.1124(3) 0.6353(4) 0.7115(3)
H5B H 0.1659 0.6833 0.7804
C13B C -0.1754(3) 0.5926(5) 0.9597(4)
H6B H -0.1490 0.5809 1.0505
C14B C -0.2589(4) 0.6807(5) 0.8940(4)
H7B H -0.2975 0.7348 0.9334
C15B C -0.4681(3) 0.2766(6) 0.0960(4)
H8B H -0.5176 0.2761 0.0103
C16B C -0.4659(4) 0.1700(6) 0.1846(5)
H9B H -0.5133 0.0882 0.1636
loop_
_geom_bond_atom_site_label_1
_geom_bond_atom_site_label_2
_geom_bond_site_symmetry_1
_geom_bond_site_symmetry_2
S1 C6 1_555 1_555
S2 C11 1_555 1_555
C1 H1 1_555 1_555
C2 C3 1_555 1_555
C3 C4 1_555 1_555
C4 H2 1_555 1_555
C5 H3 1_555 1_555
C6 C8 1_555 1_555
C7 C2 1_555 1_555
C8 H4 1_555 1_555
C9 C3 1_555 1_555
C10 C5 1_555 1_555
C11 C1 1_555 1_555
C12 C4 1_555 1_555
H5 C12 1_555 1_555
C13 C8 1_555 1_555
H6 C13 1_555 1_555
C14 S1 1_555 1_555
H7 C14 1_555 1_555
C15 S2 1_555 1_555
H8 C15 1_555 1_555
C16 C1 1_555 1_555
H9 C16 1_555 1_555
S1B C6B 1_555 1_555
S2B C11B 1_555 1_555
C1B H1B 1_555 1_555
C2B C2 1_555 1_555
C3B C2B 1_555 1_555
C4B C3B 1_555 1_555
H2B C4B 1_555 1_555
C5B H3B 1_555 1_555
C6B C8B 1_555 1_555
C7B C12 1_555 1_555
C8B H4B 1_555 1_555
C9B C3B 1_555 1_555
C10B C5B 1_555 1_555
C11B C1B 1_555 1_555
C12B C7 1_555 1_555
H5B C12B 1_555 1_555
C13B C8B 1_555 1_555
H6B C13B 1_555 1_555
C14B S1B 1_555 1_555
H7B C14B 1_555 1_555
C15B S2B 1_555 1_555
H8B C15B 1_555 1_555
C16B C1B 1_555 1_555
H9B C16B 1_555 1_555
C5 C9 1_555 1_555
C6 C9 1_555 1_555
C7 C10 1_555 1_555
C10 C11 1_555 1_555
C13 C14 1_555 1_555
C15 C16 1_555 1_555
C2B C7B 1_555 1_555
C4B C12B 1_555 1_555
C5B C9B 1_555 1_555
C6B C9B 1_555 1_555
C7B C10B 1_555 1_555
C10B C11B 1_555 1_555
C13B C14B 1_555 1_555
C15B C16B 1_555 1_555

#END
