
#######################################################################
#
#                 Cambridge Crystallographic Data Centre
#                                CCDC 
#
#######################################################################
#
# If this CIF has been generated from an entry in the Cambridge 
# Structural Database, then it will include bibliographic, chemical, 
# crystal, experimental, refinement or atomic coordinate data resulting 
# from the CCDC's data processing and validation procedures.
#
#######################################################################

data_MECBOL
_chemical_formula_moiety         'C13 H26 N4 O3'
_chemical_name_systematic        
1,5-Dimethyl-1,5,8,14-tetra-aza-11-oxacyclohexadecane-7,15-dione
_symmetry_cell_setting           monoclinic
_symmetry_space_group_name_H-M   'P 21/c'
_symmetry_Int_Tables_number      14
_space_group_name_Hall           '-P 2ybc'
loop_
_symmetry_equiv_pos_site_id
_symmetry_equiv_pos_as_xyz
1 x,y,z
2 -x,1/2+y,1/2-z
3 -x,-y,-z
4 x,1/2-y,1/2+z
_cell_length_a                   8.9409(13)
_cell_length_b                   19.248(3)
_cell_length_c                   9.9784(11)
_cell_angle_alpha                90
_cell_angle_beta                 107.907(10)
_cell_angle_gamma                90
_cell_volume                     1634.04
_exptl_crystal_colour            white
_chemical_melting_point          '84-85 deg.C'
_cell_formula_units_Z            4
_exptl_crystal_recrystallization_method 'ethyl acetate'
loop_
_atom_site_label
_atom_site_type_symbol
_atom_site_fract_x
_atom_site_fract_y
_atom_site_fract_z
O1 O 0.3214(2) 0.6073(1) 0.2659(2)
C1 C 0.3898(3) 0.5488(1) 0.3471(3)
C2 C 0.3442(3) 0.4854(1) 0.2579(3)
N1 N 0.1809(2) 0.4662(1) 0.2308(2)
C3 C 0.1366(3) 0.4198(1) 0.3112(2)
O2 O 0.2300(2) 0.3881(1) 0.4072(2)
C4 C -0.0376(3) 0.4061(1) 0.2719(3)
N2 N -0.1353(2) 0.4646(1) 0.2032(2)
C5 C -0.2934(3) 0.4398(1) 0.1288(3)
C6 C -0.1358(3) 0.5174(1) 0.3090(2)
C7 C -0.2183(3) 0.5846(1) 0.2512(2)
C8 C -0.1625(3) 0.6169(1) 0.1366(2)
N3 N -0.1884(2) 0.6921(1) 0.1252(2)
C9 C -0.3539(3) 0.7105(2) 0.0995(3)
C10 C -0.1301(3) 0.7212(1) 0.0165(2)
C11 C 0.0461(3) 0.7250(1) 0.0571(2)
O3 O 0.1124(2) 0.7266(1) -0.0349(2)
N4 N 0.1218(2) 0.7281(1) 0.1927(2)
C12 C 0.2913(3) 0.7303(1) 0.2508(3)
C13 C 0.3549(3) 0.6695(1) 0.3454(2)
H1 H 0.3532(3) 0.5451(1) 0.4288(3)
H2 H 0.5033(3) 0.5535(1) 0.3796(3)
H3 H 0.3638(3) 0.4933(1) 0.1687(3)
H4 H 0.4101(3) 0.4469(1) 0.3043(3)
H5 H 0.0921(2) 0.4886(1) 0.1421(2)
H6 H -0.0626(3) 0.3662(1) 0.2094(3)
H7 H -0.0637(3) 0.3942(1) 0.3564(3)
H8 H -0.3577(3) 0.4782(1) 0.0837(3)
H9 H -0.3382(3) 0.4186(1) 0.1948(3)
H10 H -0.2883(3) 0.4062(1) 0.0592(3)
H11 H -0.0278(3) 0.5279(1) 0.3623(2)
H12 H -0.1859(3) 0.4978(1) 0.3740(2)
H13 H -0.2020(3) 0.6177(1) 0.3278(2)
H14 H -0.3303(3) 0.5759(1) 0.2138(2)
H15 H -0.0512(3) 0.6075(1) 0.1562(2)
H16 H -0.2177(3) 0.5954(1) 0.0472(2)
H17 H -0.3906(3) 0.6909(2) 0.1722(3)
H18 H -0.4153(3) 0.6925(2) 0.0097(3)
H19 H -0.3643(3) 0.7601(2) 0.0998(3)
H20 H -0.1726(3) 0.7677(1) -0.0058(2)
H21 H -0.1685(3) 0.6932(1) -0.0680(2)
H22 H 0.0623(2) 0.7269(1) 0.2594(2)
H23 H 0.3219(3) 0.7730(1) 0.3038(3)
H24 H 0.3371(3) 0.7305(1) 0.1744(3)
H25 H 0.4676(3) 0.6745(1) 0.3876(2)
H26 H 0.3072(3) 0.6680(1) 0.4205(2)
loop_
_geom_bond_atom_site_label_1
_geom_bond_atom_site_label_2
_geom_bond_site_symmetry_1
_geom_bond_site_symmetry_2
O1 C1 1_555 1_555
C1 C2 1_555 1_555
C2 N1 1_555 1_555
N1 C3 1_555 1_555
C3 O2 1_555 1_555
C4 C3 1_555 1_555
N2 C4 1_555 1_555
C5 N2 1_555 1_555
C6 N2 1_555 1_555
C7 C6 1_555 1_555
C8 C7 1_555 1_555
N3 C8 1_555 1_555
C9 N3 1_555 1_555
C10 N3 1_555 1_555
C11 C10 1_555 1_555
O3 C11 1_555 1_555
N4 C11 1_555 1_555
C12 N4 1_555 1_555
C13 O1 1_555 1_555
H1 C1 1_555 1_555
H2 C1 1_555 1_555
H3 C2 1_555 1_555
H4 C2 1_555 1_555
H5 N1 1_555 1_555
H6 C4 1_555 1_555
H7 C4 1_555 1_555
H8 C5 1_555 1_555
H9 C5 1_555 1_555
H10 C5 1_555 1_555
H11 C6 1_555 1_555
H12 C6 1_555 1_555
H13 C7 1_555 1_555
H14 C7 1_555 1_555
H15 C8 1_555 1_555
H16 C8 1_555 1_555
H17 C9 1_555 1_555
H18 C9 1_555 1_555
H19 C9 1_555 1_555
H20 C10 1_555 1_555
H21 C10 1_555 1_555
H22 N4 1_555 1_555
H23 C12 1_555 1_555
H24 C12 1_555 1_555
H25 C13 1_555 1_555
H26 C13 1_555 1_555
C12 C13 1_555 1_555

#END
