
#######################################################################
#
#                 Cambridge Crystallographic Data Centre
#                                CCDC 
#
#######################################################################
#
# If this CIF has been generated from an entry in the Cambridge 
# Structural Database, then it will include bibliographic, chemical, 
# crystal, experimental, refinement or atomic coordinate data resulting 
# from the CCDC's data processing and validation procedures.
#
#######################################################################

data_MECBUR
_chemical_formula_moiety         'C12 H24 N4 O2 S1'
_chemical_name_systematic        
1,4-Dimethyl-1,4,7,13-tetra-aza-10-thiacyclopentadecane-6,14-dione
_symmetry_cell_setting           monoclinic
_symmetry_space_group_name_H-M   'P 21/n'
_symmetry_Int_Tables_number      14
_space_group_name_Hall           '-P 2yn'
loop_
_symmetry_equiv_pos_site_id
_symmetry_equiv_pos_as_xyz
1 x,y,z
2 1/2-x,1/2+y,1/2-z
3 -x,-y,-z
4 1/2+x,1/2-y,1/2+z
_cell_length_a                   5.1382(14)
_cell_length_b                   17.097(4)
_cell_length_c                   17.894(4)
_cell_angle_alpha                90
_cell_angle_beta                 91.66(2)
_cell_angle_gamma                90
_cell_volume                     1571.29
_exptl_crystal_colour            white
_chemical_melting_point          '151-152 deg.C'
_cell_formula_units_Z            4
_exptl_crystal_recrystallization_method 'ethyl acetate'
loop_
_atom_site_label
_atom_site_type_symbol
_atom_site_fract_x
_atom_site_fract_y
_atom_site_fract_z
S1 S 0.1543(3) 0.2880(1) 0.4198(1)
C1 C -0.0705(13) 0.2131(3) 0.4532(3)
C2 C -0.0307(12) 0.1378(3) 0.4188(3)
N1 N -0.0636(8) 0.1381(2) 0.3381(2)
C3 C -0.2920(9) 0.1325(3) 0.3016(3)
O1 O -0.4966(6) 0.1224(2) 0.3345(2)
C4 C -0.2855(9) 0.1348(3) 0.2183(3)
N2 N -0.0679(7) 0.1794(2) 0.1894(2)
C5 C -0.0067(13) 0.1541(4) 0.1141(3)
C6 C -0.1234(9) 0.2632(3) 0.1914(3)
C7 C 0.1208(9) 0.3123(3) 0.1885(3)
N3 N 0.0648(7) 0.3960(2) 0.1812(2)
C8 C -0.0090(12) 0.4161(3) 0.1040(3)
C9 C 0.2860(9) 0.4420(3) 0.2080(3)
C10 C 0.3135(9) 0.4454(3) 0.2917(3)
O2 O 0.5272(6) 0.4528(2) 0.3229(2)
N4 N 0.0913(7) 0.4428(2) 0.3278(2)
C11 C 0.0777(9) 0.4450(3) 0.4085(3)
C12 C -0.0400(10) 0.3721(3) 0.4408(3)
H1 H -0.0474(13) 0.2079(3) 0.5070(3)
H2 H -0.2481(13) 0.2300(3) 0.4427(3)
H3 H -0.1524(12) 0.1007(3) 0.4393(3)
H4 H 0.1438(12) 0.1198(3) 0.4318(3)
H5 H 0.1083(8) 0.1480(2) 0.3208(2)
H6 H -0.2760(9) 0.0816(3) 0.1997(3)
H7 H -0.4470(9) 0.1574(3) 0.1990(3)
H8 H 0.0227(79) 0.0987(5) 0.1137(28)
H9 H -0.1480(59) 0.1667(25) 0.0799(23)
H10 H 0.1479(46) 0.1807(22) 0.0991(27)
H11 H -0.2138(9) 0.2753(3) 0.2368(3)
H12 H -0.2378(9) 0.2767(3) 0.1492(3)
H13 H 0.2252(9) 0.3036(3) 0.2338(3)
H14 H 0.2221(9) 0.2956(3) 0.1465(3)
H15 H -0.0486(75) 0.4709(6) 0.1025(27)
H16 H 0.1311(57) 0.4053(23) 0.0712(22)
H17 H -0.1601(45) 0.3867(21) 0.0881(26)
H18 H 0.2686(9) 0.4948(3) 0.1887(3)
H19 H 0.4437(9) 0.4198(3) 0.1882(3)
H20 H -0.0879(7) 0.4402(2) 0.2995(2)
H21 H -0.0253(9) 0.4898(3) 0.4227(3)
H22 H 0.2519(9) 0.4518(3) 0.4298(3)
H23 H -0.2150(10) 0.3650(3) 0.4201(3)
H24 H -0.0509(10) 0.3777(3) 0.4945(3)
loop_
_geom_bond_atom_site_label_1
_geom_bond_atom_site_label_2
_geom_bond_site_symmetry_1
_geom_bond_site_symmetry_2
S1 C1 1_555 1_555
C1 C2 1_555 1_555
C2 N1 1_555 1_555
N1 C3 1_555 1_555
C3 O1 1_555 1_555
C4 C3 1_555 1_555
N2 C4 1_555 1_555
C5 N2 1_555 1_555
C6 N2 1_555 1_555
C7 C6 1_555 1_555
N3 C7 1_555 1_555
C8 N3 1_555 1_555
C9 N3 1_555 1_555
C10 C9 1_555 1_555
O2 C10 1_555 1_555
N4 C10 1_555 1_555
C11 N4 1_555 1_555
C12 S1 1_555 1_555
H1 C1 1_555 1_555
H2 C1 1_555 1_555
H3 C2 1_555 1_555
H4 C2 1_555 1_555
H5 N1 1_555 1_555
H6 C4 1_555 1_555
H7 C4 1_555 1_555
H8 C5 1_555 1_555
H9 C5 1_555 1_555
H10 C5 1_555 1_555
H11 C6 1_555 1_555
H12 C6 1_555 1_555
H13 C7 1_555 1_555
H14 C7 1_555 1_555
H15 C8 1_555 1_555
H16 C8 1_555 1_555
H17 C8 1_555 1_555
H18 C9 1_555 1_555
H19 C9 1_555 1_555
H20 N4 1_555 1_555
H21 C11 1_555 1_555
H22 C11 1_555 1_555
H23 C12 1_555 1_555
H24 C12 1_555 1_555
C11 C12 1_555 1_555

#END
