
#######################################################################
#
#                 Cambridge Crystallographic Data Centre
#                                CCDC 
#
#######################################################################
#
# If this CIF has been generated from an entry in the Cambridge 
# Structural Database, then it will include bibliographic, chemical, 
# crystal, experimental, refinement or atomic coordinate data resulting 
# from the CCDC's data processing and validation procedures.
#
#######################################################################

data_MECJEL
_chemical_formula_moiety         
'C50 H64 O20,C14 H12 N2 2+,2(C2 H3 N1),2(F6 P1 1-)'
_chemical_name_systematic        
'(2)-(bis(5-(3,4,5-Trimethoxybenzoatomethyl)-m-phenylene)-32-crown-10)-(3a,5a-diaza-4,5-dihydropyrenium)-pseudorotaxane bis(hexafluorophosphate) acetonitrile solvate'
_symmetry_cell_setting           monoclinic
_symmetry_space_group_name_H-M   'C c'
_symmetry_Int_Tables_number      9
_space_group_name_Hall           'C -2yc'
loop_
_symmetry_equiv_pos_site_id
_symmetry_equiv_pos_as_xyz
1 x,y,z
2 x,-y,1/2+z
3 1/2+x,1/2+y,z
4 1/2+x,1/2-y,1/2+z
_cell_length_a                   17.9964(10)
_cell_length_b                   13.7356(6)
_cell_length_c                   32.6891(15)
_cell_angle_alpha                90
_cell_angle_beta                 102.548(5)
_cell_angle_gamma                90
_cell_volume                     7887.46
_exptl_crystal_colour            yellow
_exptl_crystal_description       platelet
_cell_formula_units_Z            4
loop_
_atom_site_label
_atom_site_type_symbol
_atom_site_fract_x
_atom_site_fract_y
_atom_site_fract_z
P1 P 0.07939(17) 0.6963(3) 0.05602(8)
F1 F 0.0633(5) 0.6003(6) 0.0791(3)
F2 F 0.1162(5) 0.7434(7) 0.1002(2)
F3 F -0.0028(4) 0.7328(7) 0.0587(2)
F4 F 0.0424(6) 0.6441(11) 0.0131(3)
F5 F 0.1624(4) 0.6572(5) 0.0543(2)
F6 F 0.0931(6) 0.7869(7) 0.0309(3)
P2 P 0.02102(16) 0.3052(2) -0.12520(9)
F7 F 0.0052(5) 0.2056(5) -0.1013(3)
F8 F 0.0533(5) 0.3585(8) -0.0834(3)
F9 F -0.0604(4) 0.3430(5) -0.1217(2)
F10 F -0.0120(5) 0.2515(7) -0.1674(3)
F11 F 0.1046(4) 0.2660(6) -0.1273(2)
F12 F 0.0321(5) 0.3966(6) -0.1516(3)
O1 O -0.0349(5) 0.8369(9) 0.1839(2)
O2 O -0.1091(5) 0.9555(7) 0.2273(2)
O3 O -0.2415(4) 1.0350(5) 0.1940(2)
O4 O -0.2032(4) 0.8318(4) 0.03573(19)
O5 O -0.2923(4) 0.9444(4) 0.04122(18)
O6 O -0.1246(4) 1.1816(5) -0.0062(2)
O7 O 0.0082(4) 1.2712(5) 0.0394(2)
O8 O 0.1381(5) 1.2462(6) 0.1096(2)
O9 O 0.2652(4) 1.1330(6) 0.1173(2)
O10 O 0.3100(5) 1.0099(5) 0.05848(19)
O11 O 0.3940(4) 1.0574(5) -0.11091(19)
O12 O 0.3050(4) 1.1673(5) -0.10483(19)
O13 O 0.1353(5) 1.1610(8) -0.2526(2)
O14 O 0.2079(5) 1.0489(7) -0.2979(2)
O15 O 0.3421(5) 0.9681(6) -0.2632(2)
O16 O 0.2247(4) 0.8177(5) -0.06359(19)
O17 O 0.0885(4) 0.7337(5) -0.1096(2)
O18 O -0.0379(4) 0.7513(6) -0.1784(2)
O19 O -0.1627(5) 0.8675(6) -0.1853(2)
O20 O -0.2105(4) 0.9919(5) -0.12860(19)
C1 C 0.0140(8) 0.7911(13) 0.1576(4)
H1 H 0.0273 0.8399 0.1386
H2 H -0.0138 0.7376 0.1413
H3 H 0.0606 0.7658 0.1758
C2 C -0.1285(11) 0.8901(10) 0.2572(4)
H4 H -0.1163 0.8233 0.2503
H5 H -0.1830 0.8951 0.2565
H6 H -0.0993 0.9068 0.2852
C3 C -0.3011(9) 1.0915(10) 0.1741(3)
H7 H -0.2836 1.1365 0.1549
H8 H -0.3212 1.1288 0.1949
H9 H -0.3414 1.0497 0.1582
C4 C -0.2387(6) 0.9674(7) 0.1250(3)
H10 H -0.2845 0.9995 0.1122
C5 C -0.2085(6) 0.9782(7) 0.1680(2)
C6 C -0.1416(6) 0.9344(8) 0.1862(3)
C7 C -0.1012(6) 0.8788(10) 0.1629(3)
C8 C -0.1304(6) 0.8635(8) 0.1200(3)
H11 H -0.1042 0.8241 0.1038
C9 C -0.2011(6) 0.9094(7) 0.1014(3)
C10 C -0.2325(6) 0.8908(6) 0.0561(3)
C11 C -0.3187(6) 0.9424(6) -0.0043(2)
H12 H -0.3261 0.8739 -0.0137
H13 H -0.3686 0.9757 -0.0120
C12 C -0.2657(5) 0.9891(7) -0.0259(3)
C13 C -0.2179(6) 1.0646(7) -0.0065(3)
H14 H -0.2196 1.0848 0.0211
C14 C -0.1671(6) 1.1104(6) -0.0283(3)
C15 C -0.1654(5) 1.0858(6) -0.0699(3)
H15 H -0.1332 1.1180 -0.0851
C16 C -0.2155(7) 1.0092(7) -0.0877(3)
C17 C -0.2637(5) 0.9651(6) -0.0684(2)
H16 H -0.2972 0.9169 -0.0829
C18 C -0.0706(5) 1.2285(7) -0.0271(3)
H17 H -0.0970 1.2564 -0.0543
H18 H -0.0318 1.1815 -0.0320
C19 C -0.0330(6) 1.3109(7) 0.0037(3)
H19 H 0.0005 1.3512 -0.0098
H20 H -0.0730 1.3535 0.0105
C20 C 0.0405(7) 1.3439(8) 0.0677(4)
H21 H 0.0013 1.3933 0.0698
H22 H 0.0819 1.3768 0.0576
C21 C 0.0723(7) 1.2991(9) 0.1114(4)
H23 H 0.0847 1.3513 0.1327
H24 H 0.0339 1.2556 0.1193
C22 C 0.1687(8) 1.2015(9) 0.1485(4)
H25 H 0.1395 1.1415 0.1509
H26 H 0.1624 1.2460 0.1713
C23 C 0.2494(6) 1.1765(7) 0.1540(3)
H27 H 0.2805 1.2362 0.1608
H28 H 0.2639 1.1309 0.1779
C24 C 0.3396(6) 1.0922(9) 0.1229(3)
H29 H 0.3404 1.0266 0.1355
H30 H 0.3766 1.1336 0.1421
C25 C 0.3614(7) 1.0852(8) 0.0825(3)
H31 H 0.4153 1.0652 0.0862
H32 H 0.3544 1.1485 0.0677
C26 C 0.3173(5) 0.9872(7) 0.0192(2)
C27 C 0.2688(6) 0.9171(8) -0.0023(3)
H33 H 0.2339 0.8864 0.0116
C28 C 0.2689(5) 0.8903(6) -0.0419(3)
C29 C 0.3170(5) 0.9391(7) -0.0627(3)
H34 H 0.3165 0.9233 -0.0911
C30 C 0.3648(5) 1.0091(6) -0.0430(3)
C31 C 0.3664(6) 1.0398(7) -0.0038(3)
H35 H 0.3975 1.0926 0.0084
C32 C 0.4216(5) 1.0602(8) -0.0663(3)
H36 H 0.4288 1.1287 -0.0570
H37 H 0.4716 1.0272 -0.0589
C33 C 0.3318(5) 1.1131(7) -0.1273(3)
C34 C 0.3013(6) 1.0957(6) -0.1715(3)
C35 C 0.2347(6) 1.1377(7) -0.1896(3)
H38 H 0.2094 1.1776 -0.1732
C36 C 0.2028(7) 1.1237(8) -0.2314(3)
C37 C 0.2393(7) 1.0642(8) -0.2561(2)
C38 C 0.3097(6) 1.0201(8) -0.2361(3)
C39 C 0.3409(6) 1.0350(7) -0.1948(3)
H39 H 0.3879 1.0056 -0.1818
C40 C 0.0880(8) 1.1991(11) -0.2277(3)
H40 H 0.0364 1.2077 -0.2447
H41 H 0.1079 1.2622 -0.2163
H42 H 0.0865 1.1542 -0.2046
C41 C 0.2380(10) 1.1197(13) -0.3239(4)
H43 H 0.2265 1.0977 -0.3531
H44 H 0.2933 1.1253 -0.3139
H45 H 0.2143 1.1833 -0.3220
C42 C 0.4079(8) 0.9066(12) -0.2457(4)
H46 H 0.4146 0.8578 -0.2665
H47 H 0.3995 0.8739 -0.2205
H48 H 0.4537 0.9472 -0.2385
C43 C 0.1714(7) 0.7703(7) -0.0454(4)
H49 H 0.1336 0.8185 -0.0402
H50 H 0.1977 0.7434 -0.0180
C44 C 0.1327(7) 0.6939(7) -0.0703(3)
H51 H 0.0983 0.6604 -0.0550
H52 H 0.1699 0.6458 -0.0762
C45 C 0.0608(8) 0.6558(9) -0.1393(4)
H53 H 0.1034 0.6121 -0.1417
H54 H 0.0221 0.6169 -0.1292
C46 C 0.0280(8) 0.6967(10) -0.1794(4)
H55 H 0.0659 0.7393 -0.1883
H56 H 0.0148 0.6437 -0.2002
C47 C -0.0676(8) 0.8024(11) -0.2162(3)
H57 H -0.0327 0.8568 -0.2185
H58 H -0.0678 0.7578 -0.2400
C48 C -0.1388(9) 0.8391(11) -0.2201(4)
H59 H -0.1434 0.8960 -0.2391
H60 H -0.1751 0.7893 -0.2345
C49 C -0.2379(7) 0.9027(9) -0.1921(3)
H61 H -0.2736 0.8554 -0.2088
H62 H -0.2424 0.9653 -0.2075
C50 C -0.2562(7) 0.9168(8) -0.1493(3)
H63 H -0.3106 0.9336 -0.1524
H64 H -0.2461 0.8558 -0.1328
N1 N 0.1208(5) 1.0561(6) -0.0629(3)
N2 N -0.0073(5) 0.9268(6) -0.0777(3)
C51 C -0.0625(6) 0.8586(7) -0.0856(3)
H65 H -0.0770 0.8290 -0.1124
C52 C -0.0982(6) 0.8328(8) -0.0528(3)
H66 H -0.1379 0.7859 -0.0577
C53 C -0.0755(6) 0.8758(7) -0.0129(3)
H67 H -0.1006 0.8602 0.0090
C54 C -0.0148(5) 0.9423(6) -0.0065(3)
C55 C 0.0068(7) 0.9933(9) 0.0333(3)
H68 H -0.0264 0.9951 0.0522
C56 C 0.0742(8) 1.0374(9) 0.0426(3)
H69 H 0.1009 1.0444 0.0709
C57 C 0.1055(5) 1.0740(6) 0.0089(2)
C58 C 0.1662(6) 1.1393(7) 0.0143(3)
H70 H 0.1853 1.1658 0.0414
C59 C 0.1991(6) 1.1664(7) -0.0171(3)
H71 H 0.2375 1.2151 -0.0131
C60 C 0.1758(6) 1.1224(8) -0.0543(3)
H72 H 0.2005 1.1399 -0.0762
C61 C 0.0807(5) 1.0361(6) -0.0313(3)
C62 C 0.0185(5) 0.9690(7) -0.0392(3)
C63 C 0.0281(8) 0.9571(10) -0.1116(3)
H73 H 0.0341 0.8982 -0.1280
H74 H -0.0084 1.0002 -0.1302
C64 C 0.0993(6) 1.0055(8) -0.1025(3)
H75 H 0.0995 1.0533 -0.1252
H76 H 0.1392 0.9568 -0.1038
N3 N 0.1920(6) 0.7527(12) -0.2398(3)
C65 C 0.2527(6) 0.7685(10) -0.1637(2)
H77 H 0.2489 0.8367 -0.1556
H78 H 0.3064 0.7494 -0.1586
H79 H 0.2262 0.7272 -0.1470
C66 C 0.2195(5) 0.7573(8) -0.2059(3)
N4 N 0.1010(9) 0.9498(9) -0.1958(3)
C67 C 0.0802(6) 0.9465(7) -0.2329(3)
C68 C 0.0614(12) 0.9340(7) -0.2806(5)
H80 H 0.1047 0.9559 -0.2919
H81 H 0.0164 0.9729 -0.2928
H82 H 0.0512 0.8652 -0.2876
loop_
_geom_bond_atom_site_label_1
_geom_bond_atom_site_label_2
_geom_bond_site_symmetry_1
_geom_bond_site_symmetry_2
P1 F1 1_555 1_555
F2 P1 1_555 1_555
F3 P1 1_555 1_555
F4 P1 1_555 1_555
F5 P1 1_555 1_555
F6 P1 1_555 1_555
P2 F7 1_555 1_555
F8 P2 1_555 1_555
F9 P2 1_555 1_555
F10 P2 1_555 1_555
F11 P2 1_555 1_555
F12 P2 1_555 1_555
O1 C1 1_555 1_555
O2 C2 1_555 1_555
O3 C3 1_555 1_555
O4 C10 1_555 1_555
O5 C10 1_555 1_555
O6 C14 1_555 1_555
O7 C19 1_555 1_555
O8 C21 1_555 1_555
O9 C23 1_555 1_555
O10 C25 1_555 1_555
O11 C32 1_555 1_555
O12 C33 1_555 1_555
O13 C36 1_555 1_555
O14 C37 1_555 1_555
O15 C38 1_555 1_555
O16 C28 1_555 1_555
O17 C44 1_555 1_555
O18 C46 1_555 1_555
O19 C48 1_555 1_555
O20 C16 1_555 1_555
C1 H1 1_555 1_555
H2 C1 1_555 1_555
H3 C1 1_555 1_555
C2 H4 1_555 1_555
H5 C2 1_555 1_555
H6 C2 1_555 1_555
C3 H7 1_555 1_555
H8 C3 1_555 1_555
H9 C3 1_555 1_555
C4 H10 1_555 1_555
C5 O3 1_555 1_555
C6 O2 1_555 1_555
C7 O1 1_555 1_555
C8 C7 1_555 1_555
H11 C8 1_555 1_555
C9 C4 1_555 1_555
C10 C9 1_555 1_555
C11 O5 1_555 1_555
H12 C11 1_555 1_555
H13 C11 1_555 1_555
C12 C11 1_555 1_555
C13 C12 1_555 1_555
H14 C13 1_555 1_555
C14 C13 1_555 1_555
C15 C14 1_555 1_555
H15 C15 1_555 1_555
C16 C15 1_555 1_555
C17 C12 1_555 1_555
H16 C17 1_555 1_555
C18 O6 1_555 1_555
H17 C18 1_555 1_555
H18 C18 1_555 1_555
C19 C18 1_555 1_555
H19 C19 1_555 1_555
H20 C19 1_555 1_555
C20 O7 1_555 1_555
H21 C20 1_555 1_555
H22 C20 1_555 1_555
C21 C20 1_555 1_555
H23 C21 1_555 1_555
H24 C21 1_555 1_555
C22 O8 1_555 1_555
H25 C22 1_555 1_555
H26 C22 1_555 1_555
C23 C22 1_555 1_555
H27 C23 1_555 1_555
H28 C23 1_555 1_555
C24 O9 1_555 1_555
H29 C24 1_555 1_555
H30 C24 1_555 1_555
C25 C24 1_555 1_555
H31 C25 1_555 1_555
H32 C25 1_555 1_555
C26 O10 1_555 1_555
C27 C26 1_555 1_555
H33 C27 1_555 1_555
C28 C27 1_555 1_555
C29 C28 1_555 1_555
H34 C29 1_555 1_555
C30 C29 1_555 1_555
C31 C26 1_555 1_555
H35 C31 1_555 1_555
C32 C30 1_555 1_555
H36 C32 1_555 1_555
H37 C32 1_555 1_555
C33 O11 1_555 1_555
C34 C33 1_555 1_555
C35 C34 1_555 1_555
H38 C35 1_555 1_555
C36 C35 1_555 1_555
C37 C36 1_555 1_555
C38 C37 1_555 1_555
C39 C34 1_555 1_555
H39 C39 1_555 1_555
C40 O13 1_555 1_555
H40 C40 1_555 1_555
H41 C40 1_555 1_555
H42 C40 1_555 1_555
C41 O14 1_555 1_555
H43 C41 1_555 1_555
H44 C41 1_555 1_555
H45 C41 1_555 1_555
C42 O15 1_555 1_555
H46 C42 1_555 1_555
H47 C42 1_555 1_555
H48 C42 1_555 1_555
C43 O16 1_555 1_555
H49 C43 1_555 1_555
H50 C43 1_555 1_555
C44 C43 1_555 1_555
H51 C44 1_555 1_555
H52 C44 1_555 1_555
C45 O17 1_555 1_555
H53 C45 1_555 1_555
H54 C45 1_555 1_555
C46 C45 1_555 1_555
H55 C46 1_555 1_555
H56 C46 1_555 1_555
C47 O18 1_555 1_555
H57 C47 1_555 1_555
H58 C47 1_555 1_555
C48 C47 1_555 1_555
H59 C48 1_555 1_555
H60 C48 1_555 1_555
C49 O19 1_555 1_555
H61 C49 1_555 1_555
H62 C49 1_555 1_555
C50 O20 1_555 1_555
H63 C50 1_555 1_555
H64 C50 1_555 1_555
N1 C60 1_555 1_555
N2 C51 1_555 1_555
C51 H65 1_555 1_555
C52 C51 1_555 1_555
H66 C52 1_555 1_555
C53 C52 1_555 1_555
H67 C53 1_555 1_555
C54 C53 1_555 1_555
C55 C54 1_555 1_555
H68 C55 1_555 1_555
C56 C55 1_555 1_555
H69 C56 1_555 1_555
C57 C56 1_555 1_555
C58 C57 1_555 1_555
H70 C58 1_555 1_555
C59 C58 1_555 1_555
H71 C59 1_555 1_555
C60 C59 1_555 1_555
H72 C60 1_555 1_555
C61 N1 1_555 1_555
C62 N2 1_555 1_555
C63 N2 1_555 1_555
H73 C63 1_555 1_555
H74 C63 1_555 1_555
C64 N1 1_555 1_555
H75 C64 1_555 1_555
H76 C64 1_555 1_555
N3 C66 1_555 1_555
C65 H77 1_555 1_555
H78 C65 1_555 1_555
H79 C65 1_555 1_555
C66 C65 1_555 1_555
N4 C67 1_555 1_555
C67 C68 1_555 1_555
C68 H80 1_555 1_555
H81 C68 1_555 1_555
H82 C68 1_555 1_555
C4 C5 1_555 1_555
C5 C6 1_555 1_555
C6 C7 1_555 1_555
C8 C9 1_555 1_555
C16 C17 1_555 1_555
C30 C31 1_555 1_555
C38 C39 1_555 1_555
C49 C50 1_555 1_555
C54 C62 1_555 1_555
C57 C61 1_555 1_555
C61 C62 1_555 1_555
C63 C64 1_555 1_555

#END
