
#######################################################################
#
#                 Cambridge Crystallographic Data Centre
#                                CCDC 
#
#######################################################################
#
# If this CIF has been generated from an entry in the Cambridge 
# Structural Database, then it will include bibliographic, chemical, 
# crystal, experimental, refinement or atomic coordinate data resulting 
# from the CCDC's data processing and validation procedures.
#
#######################################################################

data_MECXUN
_chemical_name_common            R-(+)-F!8$BINOL
_chemical_formula_moiety         'C20 H6 F8 O2'
_chemical_name_systematic        
R-(+)-5,5',6,6',7,7',8,8'-Octafluoro-2,2'-dihydroxy-1,1'-binaphthyl
_symmetry_cell_setting           orthorhombic
_symmetry_space_group_name_H-M   'C 2 2 21'
_symmetry_Int_Tables_number      20
_space_group_name_Hall           'C 2n 2'
loop_
_symmetry_equiv_pos_site_id
_symmetry_equiv_pos_as_xyz
1 x,y,z
2 -x,-y,1/2+z
3 -x,y,1/2-z
4 x,-y,-z
5 1/2+x,1/2+y,z
6 1/2-x,1/2-y,1/2+z
7 1/2-x,1/2+y,1/2-z
8 1/2+x,1/2-y,-z
_cell_length_a                   7.9676(2)
_cell_length_b                   13.3257(4)
_cell_length_c                   29.0028(7)
_cell_angle_alpha                90
_cell_angle_beta                 90
_cell_angle_gamma                90
_cell_volume                     3079.34
_exptl_crystal_colour            colorless
_exptl_crystal_description       needle
_cell_formula_units_Z            8
loop_
_atom_site_label
_atom_site_type_symbol
_atom_site_fract_x
_atom_site_fract_y
_atom_site_fract_z
F1 F -0.51109(16) 0.41170(9) 0.53351(4)
F2 F -0.19693(17) 0.42719(10) 0.56999(4)
F3 F 0.07294(15) 0.37995(9) 0.51810(4)
F4 F 0.03911(14) 0.30315(9) 0.43387(4)
F5 F 0.29972(14) 0.20552(9) 0.25361(4)
F6 F 0.30801(15) 0.40877(9) 0.24743(4)
F7 F 0.08955(17) 0.52077(9) 0.29685(4)
F8 F -0.13218(15) 0.43600(8) 0.35421(4)
O1 O -0.4899(2) 0.23302(12) 0.33268(5)
H1 H -0.4017 0.2155 0.3190
O2 O -0.25930(19) 0.06041(11) 0.39189(5)
H2 H -0.3253 0.0989 0.4059
C1 C -0.2874(3) 0.27182(15) 0.39211(6)
C2 C -0.4502(2) 0.27076(16) 0.37498(7)
C3 C -0.5880(3) 0.30842(16) 0.40003(7)
H3 H -0.6969 0.3078 0.3867
C4 C -0.5651(3) 0.34573(16) 0.44340(7)
H4 H -0.6585 0.3697 0.4605
C5 C -0.4022(3) 0.34877(14) 0.46291(7)
C6 C -0.3765(3) 0.38383(15) 0.50809(7)
C7 C -0.2211(3) 0.39237(17) 0.52695(7)
C8 C -0.0824(3) 0.36604(15) 0.50028(7)
C9 C -0.1019(3) 0.32744(15) 0.45719(7)
C10 C -0.2617(3) 0.31501(15) 0.43676(7)
C11 C -0.1544(2) 0.21978(15) 0.36462(7)
C12 C -0.1502(3) 0.11590(16) 0.36612(7)
C13 C -0.0318(3) 0.05967(16) 0.34079(7)
H5 H -0.0309 -0.0114 0.3433
C14 C 0.0807(3) 0.10599(16) 0.31296(7)
H6 H 0.1593 0.0673 0.2959
C15 C 0.0815(3) 0.21242(16) 0.30923(7)
C16 C 0.1941(3) 0.26122(17) 0.27986(6)
C17 C 0.1995(3) 0.36248(17) 0.27620(7)
C18 C 0.0870(3) 0.42033(15) 0.30199(7)
C19 C -0.0255(3) 0.37565(16) 0.33052(7)
C20 C -0.0356(3) 0.26995(15) 0.33552(6)
loop_
_geom_bond_atom_site_label_1
_geom_bond_atom_site_label_2
_geom_bond_site_symmetry_1
_geom_bond_site_symmetry_2
F1 C6 1_555 1_555
F2 C7 1_555 1_555
F3 C8 1_555 1_555
F4 C9 1_555 1_555
F5 C16 1_555 1_555
F6 C17 1_555 1_555
F7 C18 1_555 1_555
F8 C19 1_555 1_555
O1 H1 1_555 1_555
O2 H2 1_555 1_555
C1 C2 1_555 1_555
C2 O1 1_555 1_555
C3 C2 1_555 1_555
H3 C3 1_555 1_555
C4 C3 1_555 1_555
H4 C4 1_555 1_555
C5 C4 1_555 1_555
C6 C5 1_555 1_555
C7 C6 1_555 1_555
C8 C7 1_555 1_555
C9 C8 1_555 1_555
C10 C1 1_555 1_555
C11 C1 1_555 1_555
C12 O2 1_555 1_555
C13 C12 1_555 1_555
H5 C13 1_555 1_555
C14 C13 1_555 1_555
H6 C14 1_555 1_555
C15 C14 1_555 1_555
C16 C15 1_555 1_555
C17 C16 1_555 1_555
C18 C17 1_555 1_555
C19 C18 1_555 1_555
C20 C11 1_555 1_555
C5 C10 1_555 1_555
C9 C10 1_555 1_555
C11 C12 1_555 1_555
C15 C20 1_555 1_555
C19 C20 1_555 1_555

#END
