
#######################################################################
#
#                 Cambridge Crystallographic Data Centre
#                                CCDC 
#
#######################################################################
#
# If this CIF has been generated from an entry in the Cambridge 
# Structural Database, then it will include bibliographic, chemical, 
# crystal, experimental, refinement or atomic coordinate data resulting 
# from the CCDC's data processing and validation procedures.
#
#######################################################################

data_MECZUP
_chemical_formula_moiety         'C28 H38 O4'
_chemical_name_systematic        
exo-trans-exo-(13R,24R)-14,23-Dioxaoctacyclo(25.3.0.0^2,5^.0^3,29^.0^4,8^.0^6,10^.0^9,13^.0^24,28^)triacontane-15,22-dione
_symmetry_cell_setting           monoclinic
_symmetry_space_group_name_H-M   'P 21'
_symmetry_Int_Tables_number      4
_space_group_name_Hall           'P 2yb'
loop_
_symmetry_equiv_pos_site_id
_symmetry_equiv_pos_as_xyz
1 x,y,z
2 -x,1/2+y,-z
_cell_length_a                   7.765(1)
_cell_length_b                   17.781(2)
_cell_length_c                   24.799(3)
_cell_angle_alpha                90
_cell_angle_beta                 90.376(9)
_cell_angle_gamma                90
_cell_volume                     3423.91
_exptl_crystal_colour            colorless
_exptl_crystal_description       'striated thin sword'
_chemical_melting_point          529-530K
_cell_formula_units_Z            6
loop_
_atom_site_label
_atom_site_type_symbol
_atom_site_fract_x
_atom_site_fract_y
_atom_site_fract_z
O1 O -0.3071(6) 0.1706(3) 0.21352(17)
C1 C -0.3451(8) 0.1499(4) 0.1576(2)
H1 H -0.3989 0.1001 0.1577
C2 C -0.4713(8) 0.2045(5) 0.1333(2)
H2 H -0.4453 0.2557 0.1441
H3 H -0.5884 0.1925 0.1436
C3 C -0.4457(9) 0.1937(5) 0.0726(3)
H4 H -0.5201 0.1540 0.0592
H5 H -0.4729 0.2397 0.0533
C4 C -0.2576(9) 0.1728(4) 0.0645(3)
H6 H -0.2495 0.1312 0.0388
C5 C -0.1887(8) 0.1464(4) 0.1215(2)
H7 H -0.1483 0.0943 0.1191
C6 C -0.0352(8) 0.1984(4) 0.1316(2)
H8 H 0.0462 0.1796 0.1588
C7 C 0.0398(8) 0.2023(5) 0.0741(3)
H9 H 0.0688 0.1532 0.0597
H10 H 0.1375 0.2360 0.0714
C8 C -0.1270(8) 0.2354(4) 0.0491(3)
H11 H -0.1202 0.2454 0.0103
C9 C -0.1575(8) 0.3044(4) 0.0831(2)
H12 H -0.2754 0.3240 0.0817
C10 C -0.0931(7) 0.2800(4) 0.1411(2)
H13 H -0.1779 0.2865 0.1698
C11 C 0.0488(8) 0.3407(4) 0.1396(2)
H14 H 0.1668 0.3213 0.1413
C12 C -0.0135(8) 0.3658(4) 0.0817(3)
H15 H 0.0719 0.3589 0.0532
C13 C -0.0704(8) 0.4465(4) 0.0900(3)
H16 H -0.1496 0.4654 0.0622
C14 C -0.1472(8) 0.4442(4) 0.1472(3)
H17 H -0.1760 0.4937 0.1609
H18 H -0.2456 0.4108 0.1499
C15 C 0.0170(8) 0.4113(4) 0.1736(3)
H19 H 0.0071 0.4017 0.2124
C16 C 0.1475(8) 0.4738(4) 0.1588(3)
H20 H 0.1325 0.5167 0.1831
C17 C 0.0901(8) 0.4968(5) 0.0998(3)
H21 H 0.0549 0.5497 0.0997
C18 C 0.2474(8) 0.4874(5) 0.0646(3)
H22 H 0.2994 0.5359 0.0573
H23 H 0.2158 0.4642 0.0306
C19 C 0.3740(9) 0.4369(5) 0.0958(3)
H24 H 0.3531 0.3842 0.0881
H25 H 0.4923 0.4489 0.0869
C20 C 0.3359(8) 0.4552(4) 0.1546(3)
H26 H 0.4016 0.5003 0.1644
O2 O 0.3989(5) 0.3930(3) 0.18747(18)
C21 C 0.3941(11) 0.4031(5) 0.2419(3)
C22 C 0.4660(11) 0.3364(5) 0.2710(3)
H27 H 0.4847 0.3494 0.3086
H28 H 0.5767 0.3234 0.2556
C23 C 0.3484(10) 0.2689(6) 0.2677(3)
H29 H 0.3291 0.2570 0.2300
H30 H 0.4070 0.2264 0.2840
C24 C 0.1758(10) 0.2778(5) 0.2945(3)
H31 H 0.1122 0.3177 0.2766
H32 H 0.1934 0.2925 0.3318
C25 C 0.0671(10) 0.2043(6) 0.2927(3)
H33 H 0.0683 0.1848 0.2561
H34 H 0.1217 0.1672 0.3158
C26 C -0.1141(11) 0.2134(6) 0.3096(3)
H35 H -0.1672 0.2532 0.2885
H36 H -0.1165 0.2285 0.3472
C27 C -0.2186(11) 0.1412(6) 0.3026(3)
H37 H -0.1638 0.1013 0.3231
H38 H -0.3327 0.1489 0.3173
C28 C -0.2354(10) 0.1170(6) 0.2447(3)
O3 O -0.1990(8) 0.0560(3) 0.2280(2)
O4 O 0.3321(9) 0.4582(4) 0.2624(2)
O5 O 0.0837(5) 0.2526(3) 0.81924(18)
C29 C 0.1417(9) 0.1902(4) 0.8527(3)
H39 H 0.0741 0.1452 0.8439
C30 C 0.1125(8) 0.2113(5) 0.9115(3)
H40 H -0.0054 0.2016 0.9221
H41 H 0.1389 0.2639 0.9179
C31 C 0.2388(9) 0.1598(5) 0.9422(3)
H42 H 0.1847 0.1120 0.9504
H43 H 0.2749 0.1832 0.9758
C32 C 0.3941(9) 0.1482(4) 0.9049(3)
H44 H 0.4277 0.0951 0.9048
C33 C 0.3329(9) 0.1724(4) 0.8472(2)
H45 H 0.3463 0.1297 0.8226
C34 C 0.4632(8) 0.2343(4) 0.8315(3)
H46 H 0.4701 0.2442 0.7927
C35 C 0.6270(8) 0.2006(4) 0.8563(3)
H47 H 0.7263 0.2334 0.8529
H48 H 0.6532 0.1510 0.8424
C36 C 0.5551(8) 0.1986(4) 0.9142(3)
H49 H 0.6362 0.1787 0.9411
C37 C 0.5028(8) 0.2808(4) 0.9238(3)
H50 H 0.4211 0.2887 0.9533
C38 C 0.4359(8) 0.3046(4) 0.8662(2)
H51 H 0.3187 0.3250 0.8653
C39 C 0.5807(8) 0.3641(4) 0.8636(2)
H52 H 0.6624 0.3569 0.8341
C40 C 0.6491(8) 0.3385(4) 0.9206(2)
H53 H 0.7656 0.3173 0.9210
C41 C 0.6254(8) 0.4104(4) 0.9545(3)
H54 H 0.6220 0.4015 0.9935
C42 C 0.4583(8) 0.4437(4) 0.9309(2)
H55 H 0.3600 0.4106 0.9350
H56 H 0.4323 0.4932 0.9451
C43 C 0.5257(7) 0.4460(4) 0.8728(2)
H57 H 0.4424 0.4651 0.8463
C44 C 0.6851(8) 0.4966(4) 0.8810(2)
H58 H 0.6483 0.5492 0.8836
C45 C 0.7579(8) 0.4699(4) 0.9371(3)
H59 H 0.7527 0.5122 0.9624
C46 C 0.9470(8) 0.4490(5) 0.9285(3)
H60 H 0.9762 0.4038 0.9485
H61 H 1.0219 0.4895 0.9404
C47 C 0.9661(8) 0.4356(5) 0.8672(3)
H62 H 1.0827 0.4460 0.8555
H63 H 0.9367 0.3842 0.8577
C48 C 0.8389(8) 0.4910(4) 0.8423(3)
H64 H 0.8939 0.5404 0.8392
O6 O 0.7889(5) 0.4647(3) 0.78867(17)
C49 C 0.6993(9) 0.5116(5) 0.7581(3)
C50 C 0.6311(10) 0.4740(5) 0.7072(3)
H65 H 0.7236 0.4472 0.6894
H66 H 0.5870 0.5118 0.6825
C51 C 0.4862(10) 0.4186(6) 0.7219(3)
H67 H 0.5368 0.3749 0.7393
H68 H 0.4104 0.4425 0.7477
C52 C 0.3806(10) 0.3928(6) 0.6737(3)
H69 H 0.4571 0.3714 0.6471
H70 H 0.3246 0.4361 0.6576
C53 C 0.2409(11) 0.3334(6) 0.6885(3)
H71 H 0.1817 0.3178 0.6559
H72 H 0.2972 0.2895 0.7038
C54 C 0.1137(11) 0.3617(6) 0.7271(3)
H73 H 0.0623 0.4072 0.7127
H74 H 0.1724 0.3748 0.7605
C55 C -0.0287(10) 0.3058(5) 0.7395(3)
H75 H -0.1161 0.3316 0.7603
H76 H -0.0815 0.2906 0.7057
C56 C 0.0224(10) 0.2368(5) 0.7694(3)
O7 O 0.0140(10) 0.1731(4) 0.7542(2)
O8 O 0.6663(7) 0.5755(4) 0.7711(2)
O9 O 0.6990(5) 0.2011(3) 0.55029(19)
C57 C 0.6395(8) 0.2585(4) 0.5137(3)
H77 H 0.7085 0.3039 0.5199
C58 C 0.6666(9) 0.2331(5) 0.4554(3)
H78 H 0.7845 0.2415 0.4443
H79 H 0.6391 0.1802 0.4511
C59 C 0.5421(9) 0.2821(5) 0.4232(3)
H80 H 0.5051 0.2564 0.3907
H81 H 0.5968 0.3291 0.4132
C60 C 0.3882(9) 0.2969(5) 0.4601(3)
H82 H 0.3563 0.3502 0.4577
C61 C 0.4511(9) 0.2793(4) 0.5189(3)
H83 H 0.4400 0.3244 0.5413
C62 C 0.3210(8) 0.2188(4) 0.5378(3)
H84 H 0.3164 0.2125 0.5770
C63 C 0.1544(8) 0.2510(4) 0.5126(3)
H85 H 0.1294 0.3018 0.5246
H86 H 0.0553 0.2188 0.5179
C64 C 0.2238(8) 0.2482(5) 0.4543(3)
H87 H 0.1422 0.2664 0.4269
C65 C 0.2736(8) 0.1663(5) 0.4480(3)
H88 H 0.3552 0.1564 0.4189
C66 C 0.3421(8) 0.1449(4) 0.5064(2)
H89 H 0.4590 0.1242 0.5072
C67 C 0.1996(8) 0.0865(4) 0.5120(3)
H90 H 0.1182 0.0963 0.5412
C68 C 0.1304(8) 0.1062(4) 0.4541(3)
H91 H 0.0132 0.1265 0.4534
C69 C 0.1513(9) 0.0329(5) 0.4233(3)
H92 H 0.1526 0.0388 0.3840
C70 C 0.3172(9) 0.0010(5) 0.4471(3)
H93 H 0.4163 0.0330 0.4408
H94 H 0.3406 -0.0499 0.4351
C71 C 0.2524(9) 0.0045(4) 0.5060(3)
H95 H 0.3374 -0.0122 0.5328
C72 C 0.0944(9) -0.0466(5) 0.5014(3)
H96 H 0.1316 -0.0993 0.5015
C73 C 0.0203(10) -0.0258(5) 0.4438(3)
H97 H 0.0248 -0.0704 0.4206
C74 C -0.1707(9) -0.0039(6) 0.4530(3)
H98 H -0.2020 0.0391 0.4310
H99 H -0.2463 -0.0455 0.4439
C75 C -0.1837(9) 0.0152(5) 0.5124(3)
H100 H -0.1517 0.0671 0.5189
H101 H -0.2998 0.0070 0.5254
C76 C -0.0591(9) -0.0375(5) 0.5390(3)
H102 H -0.1146 -0.0865 0.5440
O10 O -0.0109(6) -0.0063(3) 0.5923(2)
C77 C 0.0743(11) -0.0517(7) 0.6281(5)
C78 C 0.1372(16) -0.0048(9) 0.6783(4)
H103 H 0.1722 -0.0381 0.7073
H104 H 0.0453 0.0274 0.6911
C79 C 0.2987(18) 0.0455(9) 0.6586(4)
H105 H 0.3819 0.0128 0.6414
H106 H 0.2586 0.0814 0.6319
C80 C 0.385(2) 0.0863(12) 0.7024(5)
H107 H 0.3021 0.1158 0.7225
H108 H 0.4411 0.0515 0.7269
C81 C 0.5105(19) 0.1350(10) 0.6770(5)
H109 H 0.5630 0.1650 0.7054
H110 H 0.4475 0.1695 0.6539
C82 C 0.6544(13) 0.1027(7) 0.6441(4)
H111 H 0.7011 0.0591 0.6626
H112 H 0.6082 0.0858 0.6097
C83 C 0.7944(13) 0.1565(6) 0.6341(3)
H113 H 0.8871 0.1306 0.6158
H114 H 0.8390 0.1741 0.6685
C84 C 0.7407(11) 0.2227(5) 0.6012(3)
O11 O 0.7357(11) 0.2871(4) 0.6146(3)
O12 O 0.1019(10) -0.1168(4) 0.6165(3)
loop_
_geom_bond_atom_site_label_1
_geom_bond_atom_site_label_2
_geom_bond_site_symmetry_1
_geom_bond_site_symmetry_2
O1 C1 1_555 1_555
C1 H1 1_555 1_555
C2 C1 1_555 1_555
H2 C2 1_555 1_555
H3 C2 1_555 1_555
C3 C2 1_555 1_555
H4 C3 1_555 1_555
H5 C3 1_555 1_555
C4 C3 1_555 1_555
H6 C4 1_555 1_555
C5 C1 1_555 1_555
H7 C5 1_555 1_555
C6 C5 1_555 1_555
H8 C6 1_555 1_555
C7 C6 1_555 1_555
H9 C7 1_555 1_555
H10 C7 1_555 1_555
C8 C4 1_555 1_555
H11 C8 1_555 1_555
C9 C8 1_555 1_555
H12 C9 1_555 1_555
C10 C6 1_555 1_555
H13 C10 1_555 1_555
C11 C10 1_555 1_555
H14 C11 1_555 1_555
C12 C9 1_555 1_555
H15 C12 1_555 1_555
C13 C12 1_555 1_555
H16 C13 1_555 1_555
C14 C13 1_555 1_555
H17 C14 1_555 1_555
H18 C14 1_555 1_555
C15 C11 1_555 1_555
H19 C15 1_555 1_555
C16 C15 1_555 1_555
H20 C16 1_555 1_555
C17 C13 1_555 1_555
H21 C17 1_555 1_555
C18 C17 1_555 1_555
H22 C18 1_555 1_555
H23 C18 1_555 1_555
C19 C18 1_555 1_555
H24 C19 1_555 1_555
H25 C19 1_555 1_555
C20 C16 1_555 1_555
H26 C20 1_555 1_555
O2 C20 1_555 1_555
C21 O2 1_555 1_555
C22 C21 1_555 1_555
H27 C22 1_555 1_555
H28 C22 1_555 1_555
C23 C22 1_555 1_555
H29 C23 1_555 1_555
H30 C23 1_555 1_555
C24 C23 1_555 1_555
H31 C24 1_555 1_555
H32 C24 1_555 1_555
C25 C24 1_555 1_555
H33 C25 1_555 1_555
H34 C25 1_555 1_555
C26 C25 1_555 1_555
H35 C26 1_555 1_555
H36 C26 1_555 1_555
C27 C26 1_555 1_555
H37 C27 1_555 1_555
H38 C27 1_555 1_555
C28 O1 1_555 1_555
O3 C28 1_555 1_555
O4 C21 1_555 1_555
O5 C29 1_555 1_555
C29 H39 1_555 1_555
C30 C29 1_555 1_555
H40 C30 1_555 1_555
H41 C30 1_555 1_555
C31 C30 1_555 1_555
H42 C31 1_555 1_555
H43 C31 1_555 1_555
C32 C31 1_555 1_555
H44 C32 1_555 1_555
C33 C29 1_555 1_555
H45 C33 1_555 1_555
C34 C33 1_555 1_555
H46 C34 1_555 1_555
C35 C34 1_555 1_555
H47 C35 1_555 1_555
H48 C35 1_555 1_555
C36 C32 1_555 1_555
H49 C36 1_555 1_555
C37 C36 1_555 1_555
H50 C37 1_555 1_555
C38 C34 1_555 1_555
H51 C38 1_555 1_555
C39 C38 1_555 1_555
H52 C39 1_555 1_555
C40 C37 1_555 1_555
H53 C40 1_555 1_555
C41 C40 1_555 1_555
H54 C41 1_555 1_555
C42 C41 1_555 1_555
H55 C42 1_555 1_555
H56 C42 1_555 1_555
C43 C39 1_555 1_555
H57 C43 1_555 1_555
C44 C43 1_555 1_555
H58 C44 1_555 1_555
C45 C41 1_555 1_555
H59 C45 1_555 1_555
C46 C45 1_555 1_555
H60 C46 1_555 1_555
H61 C46 1_555 1_555
C47 C46 1_555 1_555
H62 C47 1_555 1_555
H63 C47 1_555 1_555
C48 C44 1_555 1_555
H64 C48 1_555 1_555
O6 C48 1_555 1_555
C49 O6 1_555 1_555
C50 C49 1_555 1_555
H65 C50 1_555 1_555
H66 C50 1_555 1_555
C51 C50 1_555 1_555
H67 C51 1_555 1_555
H68 C51 1_555 1_555
C52 C51 1_555 1_555
H69 C52 1_555 1_555
H70 C52 1_555 1_555
C53 C52 1_555 1_555
H71 C53 1_555 1_555
H72 C53 1_555 1_555
C54 C53 1_555 1_555
H73 C54 1_555 1_555
H74 C54 1_555 1_555
C55 C54 1_555 1_555
H75 C55 1_555 1_555
H76 C55 1_555 1_555
C56 O5 1_555 1_555
O7 C56 1_555 1_555
O8 C49 1_555 1_555
O9 C57 1_555 1_555
C57 H77 1_555 1_555
C58 C57 1_555 1_555
H78 C58 1_555 1_555
H79 C58 1_555 1_555
C59 C58 1_555 1_555
H80 C59 1_555 1_555
H81 C59 1_555 1_555
C60 C59 1_555 1_555
H82 C60 1_555 1_555
C61 C57 1_555 1_555
H83 C61 1_555 1_555
C62 C61 1_555 1_555
H84 C62 1_555 1_555
C63 C62 1_555 1_555
H85 C63 1_555 1_555
H86 C63 1_555 1_555
C64 C60 1_555 1_555
H87 C64 1_555 1_555
C65 C64 1_555 1_555
H88 C65 1_555 1_555
C66 C62 1_555 1_555
H89 C66 1_555 1_555
C67 C66 1_555 1_555
H90 C67 1_555 1_555
C68 C65 1_555 1_555
H91 C68 1_555 1_555
C69 C68 1_555 1_555
H92 C69 1_555 1_555
C70 C69 1_555 1_555
H93 C70 1_555 1_555
H94 C70 1_555 1_555
C71 C67 1_555 1_555
H95 C71 1_555 1_555
C72 C71 1_555 1_555
H96 C72 1_555 1_555
C73 C69 1_555 1_555
H97 C73 1_555 1_555
C74 C73 1_555 1_555
H98 C74 1_555 1_555
H99 C74 1_555 1_555
C75 C74 1_555 1_555
H100 C75 1_555 1_555
H101 C75 1_555 1_555
C76 C72 1_555 1_555
H102 C76 1_555 1_555
O10 C76 1_555 1_555
C77 O10 1_555 1_555
C78 C77 1_555 1_555
H103 C78 1_555 1_555
H104 C78 1_555 1_555
C79 C78 1_555 1_555
H105 C79 1_555 1_555
H106 C79 1_555 1_555
C80 C79 1_555 1_555
H107 C80 1_555 1_555
H108 C80 1_555 1_555
C81 C80 1_555 1_555
H109 C81 1_555 1_555
H110 C81 1_555 1_555
C82 C81 1_555 1_555
H111 C82 1_555 1_555
H112 C82 1_555 1_555
C83 C82 1_555 1_555
H113 C83 1_555 1_555
H114 C83 1_555 1_555
C84 O9 1_555 1_555
O11 C84 1_555 1_555
O12 C77 1_555 1_555
C4 C5 1_555 1_555
C7 C8 1_555 1_555
C9 C10 1_555 1_555
C11 C12 1_555 1_555
C14 C15 1_555 1_555
C16 C17 1_555 1_555
C19 C20 1_555 1_555
C27 C28 1_555 1_555
C32 C33 1_555 1_555
C35 C36 1_555 1_555
C37 C38 1_555 1_555
C39 C40 1_555 1_555
C42 C43 1_555 1_555
C44 C45 1_555 1_555
C47 C48 1_555 1_555
C55 C56 1_555 1_555
C60 C61 1_555 1_555
C63 C64 1_555 1_555
C65 C66 1_555 1_555
C67 C68 1_555 1_555
C70 C71 1_555 1_555
C72 C73 1_555 1_555
C75 C76 1_555 1_555
C83 C84 1_555 1_555

#END
