
#######################################################################
#
#                 Cambridge Crystallographic Data Centre
#                                CCDC 
#
#######################################################################
#
# If this CIF has been generated from an entry in the Cambridge 
# Structural Database, then it will include bibliographic, chemical, 
# crystal, experimental, refinement or atomic coordinate data resulting 
# from the CCDC's data processing and validation procedures.
#
#######################################################################

data_MEDBEC
_chemical_formula_moiety         'C28 H32 N2 O9 S2'
_chemical_name_systematic        
'bis(2-(5,5-Dimethyl-2-oxo-3-(p-tosyl)-1,3-oxazol-4-ylidene)ethyl) ether'
_symmetry_cell_setting           monoclinic
_symmetry_space_group_name_H-M   'C 2/c'
_symmetry_Int_Tables_number      15
_space_group_name_Hall           '-C 2yn'
loop_
_symmetry_equiv_pos_site_id
_symmetry_equiv_pos_as_xyz
1 x,y,z
2 x,-y,1/2+z
3 1/2+x,1/2+y,z
4 1/2+x,1/2-y,1/2+z
5 -x,-y,-z
6 -x,y,1/2-z
7 1/2-x,1/2-y,-z
8 1/2-x,1/2+y,1/2-z
_cell_length_a                   30.483(2)
_cell_length_b                   8.613(1)
_cell_length_c                   11.711(1)
_cell_angle_alpha                90
_cell_angle_beta                 101.298(9)
_cell_angle_gamma                90
_cell_volume                     3015.14
_exptl_crystal_colour            colorless
_exptl_crystal_description       prismatic
_cell_formula_units_Z            4
_exptl_crystal_recrystallization_method dichloromethane/hexane
loop_
_atom_site_label
_atom_site_type_symbol
_atom_site_fract_x
_atom_site_fract_y
_atom_site_fract_z
S1 S 0.10201(2) 0.23140(7) 0.00255(6)
O1 O 0.12590(6) 0.6565(2) -0.0493(2)
O2 O 0.15767(6) 0.4467(2) -0.1102(2)
O3 O 0.0000 0.5313(3) 0.2500
O4 O 0.10412(7) 0.1733(2) -0.1096(2)
O5 O 0.06567(6) 0.1893(2) 0.0558(2)
N1 N 0.09995(7) 0.4269(2) -0.0075(2)
C1 C 0.13074(9) 0.5043(3) -0.0615(2)
C2 C 0.09029(8) 0.6941(3) 0.0147(2)
C3 C 0.07632(8) 0.5353(3) 0.0517(2)
C4 C 0.04844(8) 0.5035(3) 0.1209(2)
C5 C 0.0240(1) 0.6176(3) 0.1819(3)
C6 C 0.1117(1) 0.7959(4) 0.1153(3)
C7 C 0.0537(1) 0.7751(4) -0.0706(3)
C8 C 0.15254(8) 0.1929(3) 0.0980(2)
C9 C 0.19007(10) 0.1505(4) 0.0549(3)
C10 C 0.2287(1) 0.1140(4) 0.1332(3)
C11 C 0.23095(10) 0.1218(4) 0.2513(3)
C12 C 0.1933(1) 0.1656(4) 0.2915(3)
C13 C 0.1539(1) 0.2006(3) 0.2159(2)
C14 C 0.2735(1) 0.0817(5) 0.3356(3)
H1 H 0.0430(7) 0.402(3) 0.137(2)
H2 H 0.003(1) 0.683(3) 0.128(3)
H3 H 0.0429(10) 0.681(4) 0.235(3)
H4 H 0.132(1) 0.738(4) 0.174(3)
H5 H 0.1308(9) 0.871(3) 0.084(2)
H6 H 0.090(1) 0.847(4) 0.147(3)
H7 H 0.0658(9) 0.867(4) -0.102(2)
H8 H 0.0424(10) 0.704(4) -0.140(3)
H9 H 0.030(1) 0.803(3) -0.035(2)
H10 H 0.1882(9) 0.155(3) -0.027(3)
H11 H 0.254(1) 0.087(4) 0.106(3)
H12 H 0.194(1) 0.169(4) 0.376(3)
H13 H 0.1275(9) 0.227(3) 0.243(2)
H14 H 0.2680 -0.0052 0.3846
H15 H 0.2968 0.0549 0.2983
H16 H 0.2827 0.1674 0.3881
C5E C -0.0240(1) 0.6176(3) 0.3181(3)
C4E C -0.04844(8) 0.5035(3) 0.3791(2)
C3E C -0.07632(8) 0.5353(3) 0.4483(2)
N1E N -0.09995(7) 0.4269(2) 0.5075(2)
S1E S -0.10201(2) 0.23140(7) 0.49745(6)
O4E O -0.10412(7) 0.1733(2) 0.6096(2)
O5E O -0.06567(6) 0.1893(2) 0.4442(2)
C8E C -0.15254(8) 0.1929(3) 0.4020(2)
C9E C -0.19007(10) 0.1505(4) 0.4451(3)
C10E C -0.2287(1) 0.1140(4) 0.3668(3)
C11E C -0.23095(10) 0.1218(4) 0.2487(3)
C12E C -0.1933(1) 0.1656(4) 0.2085(3)
C13E C -0.1539(1) 0.2006(3) 0.2841(2)
H13E H -0.1275(9) 0.227(3) 0.257(2)
H12E H -0.194(1) 0.169(4) 0.124(3)
C14E C -0.2735(1) 0.0817(5) 0.1644(3)
H14E H -0.2680 -0.0052 0.1154
H15E H -0.2968 0.0549 0.2017
H16E H -0.2827 0.1674 0.1119
H11E H -0.254(1) 0.087(4) 0.394(3)
H10E H -0.1882(9) 0.155(3) 0.527(3)
C1E C -0.13074(9) 0.5043(3) 0.5615(2)
O1E O -0.12590(6) 0.6565(2) 0.5493(2)
C2E C -0.09029(8) 0.6941(3) 0.4853(2)
C6E C -0.1117(1) 0.7959(4) 0.3847(3)
H4E H -0.132(1) 0.738(4) 0.326(3)
H5E H -0.1308(9) 0.871(3) 0.416(2)
H6E H -0.090(1) 0.847(4) 0.353(3)
C7E C -0.0537(1) 0.7751(4) 0.5706(3)
H7E H -0.0658(9) 0.867(4) 0.602(2)
H8E H -0.0424(10) 0.704(4) 0.640(3)
H9E H -0.030(1) 0.803(3) 0.535(2)
O2E O -0.15767(6) 0.4467(2) 0.6102(2)
H1E H -0.0430(7) 0.402(3) 0.363(2)
H2E H -0.003(1) 0.683(3) 0.372(3)
H3E H -0.0429(10) 0.681(4) 0.265(3)
loop_
_geom_bond_atom_site_label_1
_geom_bond_atom_site_label_2
_geom_bond_site_symmetry_1
_geom_bond_site_symmetry_2
S1 O4 1_555 1_555
O1 C1 1_555 1_555
O2 C1 1_555 1_555
O3 C5 1_555 1_555
O5 S1 1_555 1_555
N1 S1 1_555 1_555
C1 N1 1_555 1_555
C2 O1 1_555 1_555
C3 N1 1_555 1_555
C4 C3 1_555 1_555
C5 C4 1_555 1_555
C6 C2 1_555 1_555
C7 C2 1_555 1_555
C8 S1 1_555 1_555
C9 C8 1_555 1_555
C10 C9 1_555 1_555
C11 C10 1_555 1_555
C12 C11 1_555 1_555
C13 C8 1_555 1_555
C14 C11 1_555 1_555
H1 C4 1_555 1_555
H2 C5 1_555 1_555
H3 C5 1_555 1_555
H4 C6 1_555 1_555
H5 C6 1_555 1_555
H6 C6 1_555 1_555
H7 C7 1_555 1_555
H8 C7 1_555 1_555
H9 C7 1_555 1_555
H10 C9 1_555 1_555
H11 C10 1_555 1_555
H12 C12 1_555 1_555
H13 C13 1_555 1_555
H14 C14 1_555 1_555
H15 C14 1_555 1_555
H16 C14 1_555 1_555
C5E O3 1_555 1_555
C4E C5E 1_555 1_555
C3E C4E 1_555 1_555
N1E C3E 1_555 1_555
S1E N1E 1_555 1_555
O4E S1E 1_555 1_555
O5E S1E 1_555 1_555
C8E S1E 1_555 1_555
C9E C8E 1_555 1_555
C10E C9E 1_555 1_555
C11E C10E 1_555 1_555
C12E C11E 1_555 1_555
C13E C8E 1_555 1_555
H13E C13E 1_555 1_555
H12E C12E 1_555 1_555
C14E C11E 1_555 1_555
H14E C14E 1_555 1_555
H15E C14E 1_555 1_555
H16E C14E 1_555 1_555
H11E C10E 1_555 1_555
H10E C9E 1_555 1_555
C1E N1E 1_555 1_555
O1E C1E 1_555 1_555
C2E C3E 1_555 1_555
C6E C2E 1_555 1_555
H4E C6E 1_555 1_555
H5E C6E 1_555 1_555
H6E C6E 1_555 1_555
C7E C2E 1_555 1_555
H7E C7E 1_555 1_555
H8E C7E 1_555 1_555
H9E C7E 1_555 1_555
O2E C1E 1_555 1_555
H1E C4E 1_555 1_555
H2E C5E 1_555 1_555
H3E C5E 1_555 1_555
C2 C3 1_555 1_555
C12 C13 1_555 1_555
C12E C13E 1_555 1_555
O1E C2E 1_555 1_555

#END
