
#######################################################################
#
#                 Cambridge Crystallographic Data Centre
#                                CCDC 
#
#######################################################################
#
# If this CIF has been generated from an entry in the Cambridge 
# Structural Database, then it will include bibliographic, chemical, 
# crystal, experimental, refinement or atomic coordinate data resulting 
# from the CCDC's data processing and validation procedures.
#
#######################################################################

data_MEDHEL
_chemical_formula_moiety         'C50 H64 K2 N2 O5 P2 Se2'
_chemical_name_systematic        
"(\m-\h^2^-N,N'-1,2-phenylenebis(P,P-diphenyl(phosphinoselenoic amide)))-pentakis(tetrahydrofuran)-di-potassium"
_symmetry_cell_setting           monoclinic
_symmetry_space_group_name_H-M   'P c'
_symmetry_Int_Tables_number      7
_space_group_name_Hall           'P -2yc'
loop_
_symmetry_equiv_pos_site_id
_symmetry_equiv_pos_as_xyz
1 x,y,z
2 x,-y,1/2+z
_cell_length_a                   12.1201(4)
_cell_length_b                   17.7626(6)
_cell_length_c                   15.1791(6)
_cell_angle_alpha                90
_cell_angle_beta                 127.118(2)
_cell_angle_gamma                90
_cell_volume                     2605.75
_exptl_crystal_colour            colorless
_exptl_crystal_description       plates
_cell_formula_units_Z            2
loop_
_atom_site_label
_atom_site_type_symbol
_atom_site_fract_x
_atom_site_fract_y
_atom_site_fract_z
K1 K 0.21502(15) -0.73435(8) 0.45472(11)
K2 K 0.16881(16) -0.70882(9) 0.75635(12)
Se1 Se -0.11923(7) -0.81191(5) 0.59674(6)
Se2 Se 0.47484(6) -0.61734(4) 0.90539(5)
P1 P -0.04315(16) -0.81943(10) 0.50039(13)
P2 P 0.45485(14) -0.64991(8) 0.75964(11)
N1 N 0.1156(5) -0.7983(3) 0.5590(4)
N2 N 0.3518(5) -0.7171(3) 0.6850(4)
O1 O 0.0834(6) -0.8050(3) 0.2510(4)
O2 O 0.3973(7) -0.8464(4) 0.5086(5)
O3 O 0.3340(8) -0.6581(4) 0.3749(6)
O4 O 0.0464(8) -0.5757(4) 0.7031(11)
O5 O 0.2178(6) -0.7620(3) 0.9462(5)
C1 C 0.2285(6) -0.8320(4) 0.6558(5)
C2 C 0.2269(7) -0.9033(4) 0.6915(5)
H1 H 0.1456 -0.9311 0.6496
C3 C 0.3423(8) -0.9352(4) 0.7876(5)
H2 H 0.3386 -0.9837 0.8087
C4 C 0.4634(8) -0.8928(4) 0.8515(6)
H3 H 0.5417 -0.9131 0.9158
C5 C 0.4672(6) -0.8211(4) 0.8196(5)
H4 H 0.5479 -0.7930 0.8642
C6 C 0.3530(6) -0.7890(3) 0.7220(5)
C7 C -0.1347(7) -0.7513(5) 0.3858(5)
C8 C -0.1189(9) -0.6765(5) 0.4113(7)
H5 H -0.0636 -0.6615 0.4849
C9 C -0.1847(10) -0.6228(6) 0.3284(8)
H6 H -0.1754 -0.5720 0.3466
C10 C -0.2636(9) -0.6443(7) 0.2197(7)
H7 H -0.3061 -0.6082 0.1641
C11 C -0.2792(9) -0.7186(7) 0.1936(7)
H8 H -0.3328 -0.7329 0.1197
C12 C -0.2157(8) -0.7746(6) 0.2764(6)
H9 H -0.2278 -0.8255 0.2582
C13 C -0.0909(7) -0.9110(4) 0.4301(5)
C14 C -0.2042(9) -0.9513(5) 0.4080(6)
H10 H -0.2562 -0.9327 0.4296
C15 C -0.2375(11) -1.0201(6) 0.3528(7)
H11 H -0.3115 -1.0479 0.3390
C16 C -0.1630(11) -1.0472(5) 0.3187(7)
H12 H -0.1869 -1.0929 0.2812
C17 C -0.0518(10) -1.0063(5) 0.3405(7)
H13 H -0.0015 -1.0237 0.3167
C18 C -0.0165(10) -0.9395(5) 0.3978(7)
H14 H 0.0605 -0.9132 0.4148
C19 C 0.6277(7) -0.6629(4) 0.7957(6)
C20 C 0.7452(8) -0.6275(5) 0.8889(7)
H15 H 0.7369 -0.5978 0.9352
C21 C 0.8728(8) -0.6375(6) 0.9107(9)
H16 H 0.9497 -0.6125 0.9701
C22 C 0.8877(10) -0.6837(6) 0.8461(12)
H17 H 0.9744 -0.6906 0.8626
C23 C 0.7735(12) -0.7197(7) 0.7567(12)
H18 H 0.7832 -0.7513 0.7128
C24 C 0.6447(9) -0.7089(5) 0.7322(8)
H19 H 0.5682 -0.7334 0.6716
C25 C 0.3810(7) -0.5711(3) 0.6629(5)
C26 C 0.4621(8) -0.5117(4) 0.6717(6)
H20 H 0.5574 -0.5133 0.7256
C27 C 0.4030(9) -0.4504(4) 0.6014(6)
H21 H 0.4586 -0.4114 0.6077
C28 C 0.2599(8) -0.4472(4) 0.5210(6)
H22 H 0.2193 -0.4059 0.4740
C29 C 0.1794(8) -0.5057(4) 0.5121(6)
H23 H 0.0839 -0.5040 0.4585
C30 C 0.2391(7) -0.5673(4) 0.5822(5)
H24 H 0.1833 -0.6065 0.5750
C31 C 0.1074(13) -0.8784(6) 0.2282(8)
H25 H 0.1365 -0.9121 0.2889
H26 H 0.1796 -0.8768 0.2186
C32 C -0.0224(17) -0.9050(7) 0.1266(9)
H27 H -0.0662 -0.9419 0.1434
H28 H -0.0055 -0.9278 0.0777
C33 C -0.1133(13) -0.8357(8) 0.0733(11)
H29 H -0.1422 -0.8287 -0.0013
H30 H -0.1948 -0.8394 0.0711
C34 C -0.0207(10) -0.7724(6) 0.1476(8)
H31 H 0.0202 -0.7473 0.1169
H32 H -0.0732 -0.7356 0.1559
C35 C 0.4358(12) -0.9061(6) 0.5847(8)
H33 H 0.3564 -0.9232 0.5801
H34 H 0.5069 -0.8895 0.6597
C36 C 0.4891(9) -0.9679(5) 0.5531(7)
H35 H 0.4144 -0.9991 0.4951
H36 H 0.5550 -0.9992 0.6161
C37 C 0.5587(9) -0.9242(5) 0.5121(8)
H37 H 0.5477 -0.9500 0.4510
H38 H 0.6566 -0.9173 0.5709
C38 C 0.4827(11) -0.8487(6) 0.4751(9)
H39 H 0.5487 -0.8076 0.5084
H40 H 0.4274 -0.8439 0.3954
C39 C 0.3367(11) -0.6786(7) 0.2861(8)
H41 H 0.2813 -0.6439 0.2249
H42 H 0.3004 -0.7290 0.2607
C40 C 0.4866(11) -0.6750(6) 0.3301(8)
H43 H 0.5299 -0.7242 0.3548
H44 H 0.4950 -0.6565 0.2743
C41 C 0.5495(15) -0.6220(9) 0.4238(12)
H45 H 0.6313 -0.6441 0.4896
H46 H 0.5763 -0.5759 0.4070
C42 C 0.4463(15) -0.6060(6) 0.4415(10)
H47 H 0.4861 -0.6122 0.5189
H48 H 0.4133 -0.5547 0.4200
C43 C 0.1032(12) -0.5035(5) 0.7304(10)
H49 H 0.1396 -0.4909 0.6902
H50 H 0.1771 -0.4995 0.8090
C44 C -0.0128(14) -0.4537(6) 0.6977(10)
H51 H -0.0282 -0.4162 0.6450
H52 H 0.0041 -0.4285 0.7615
C45 C -0.1353(15) -0.5070(8) 0.646(2)
H53 H -0.1641 -0.5115 0.6928
H54 H -0.2126 -0.4876 0.5746
C46 C -0.1009(13) -0.5680(7) 0.6341(19)
H55 H -0.1373 -0.5744 0.5575
H56 H -0.1400 -0.6072 0.6522
C47 C 0.3542(14) -0.7605(7) 1.0401(9)
H57 H 0.3668 -0.7213 1.0899
H58 H 0.4152 -0.7502 1.0202
C48 C 0.3872(16) -0.8357(7) 1.0950(13)
H59 H 0.4568 -0.8616 1.0940
H60 H 0.4203 -0.8305 1.1710
C49 C 0.2532(16) -0.8768(7) 1.0279(16)
H61 H 0.2629 -0.9230 0.9992
H62 H 0.2240 -0.8895 1.0731
C50 C 0.1545(15) -0.8293(8) 0.9401(12)
H63 H 0.1162 -0.8539 0.8701
H64 H 0.0795 -0.8193 0.9448
loop_
_geom_bond_atom_site_label_1
_geom_bond_atom_site_label_2
_geom_bond_site_symmetry_1
_geom_bond_site_symmetry_2
K1 N1 1_555 1_555
K2 Se1 1_555 1_555
Se1 P1 1_555 1_555
Se2 K2 1_555 1_555
P1 N1 1_555 1_555
P2 Se2 1_555 1_555
N1 K2 1_555 1_555
N2 K1 1_555 1_555
O1 K1 1_555 1_555
O2 K1 1_555 1_555
O3 K1 1_555 1_555
O4 K2 1_555 1_555
O5 K2 1_555 1_555
C1 K2 1_555 1_555
C2 C1 1_555 1_555
H1 C2 1_555 1_555
C3 C2 1_555 1_555
H2 C3 1_555 1_555
C4 C3 1_555 1_555
H3 C4 1_555 1_555
C5 C4 1_555 1_555
H4 C5 1_555 1_555
C6 K2 1_555 1_555
C7 P1 1_555 1_555
C8 C7 1_555 1_555
H5 C8 1_555 1_555
C9 C8 1_555 1_555
H6 C9 1_555 1_555
C10 C9 1_555 1_555
H7 C10 1_555 1_555
C11 C10 1_555 1_555
H8 C11 1_555 1_555
C12 C7 1_555 1_555
H9 C12 1_555 1_555
C13 P1 1_555 1_555
C14 C13 1_555 1_555
H10 C14 1_555 1_555
C15 C14 1_555 1_555
H11 C15 1_555 1_555
C16 C15 1_555 1_555
H12 C16 1_555 1_555
C17 C16 1_555 1_555
H13 C17 1_555 1_555
C18 C13 1_555 1_555
H14 C18 1_555 1_555
C19 P2 1_555 1_555
C20 C19 1_555 1_555
H15 C20 1_555 1_555
C21 C20 1_555 1_555
H16 C21 1_555 1_555
C22 C21 1_555 1_555
H17 C22 1_555 1_555
C23 C22 1_555 1_555
H18 C23 1_555 1_555
C24 C19 1_555 1_555
H19 C24 1_555 1_555
C25 P2 1_555 1_555
C26 C25 1_555 1_555
H20 C26 1_555 1_555
C27 C26 1_555 1_555
H21 C27 1_555 1_555
C28 C27 1_555 1_555
H22 C28 1_555 1_555
C29 C28 1_555 1_555
H23 C29 1_555 1_555
C30 C25 1_555 1_555
H24 C30 1_555 1_555
C31 O1 1_555 1_555
H25 C31 1_555 1_555
H26 C31 1_555 1_555
C32 C31 1_555 1_555
H27 C32 1_555 1_555
H28 C32 1_555 1_555
C33 C32 1_555 1_555
H29 C33 1_555 1_555
H30 C33 1_555 1_555
C34 O1 1_555 1_555
H31 C34 1_555 1_555
H32 C34 1_555 1_555
C35 O2 1_555 1_555
H33 C35 1_555 1_555
H34 C35 1_555 1_555
C36 C35 1_555 1_555
H35 C36 1_555 1_555
H36 C36 1_555 1_555
C37 C36 1_555 1_555
H37 C37 1_555 1_555
H38 C37 1_555 1_555
C38 O2 1_555 1_555
H39 C38 1_555 1_555
H40 C38 1_555 1_555
C39 O3 1_555 1_555
H41 C39 1_555 1_555
H42 C39 1_555 1_555
C40 C39 1_555 1_555
H43 C40 1_555 1_555
H44 C40 1_555 1_555
C41 C40 1_555 1_555
H45 C41 1_555 1_555
H46 C41 1_555 1_555
C42 O3 1_555 1_555
H47 C42 1_555 1_555
H48 C42 1_555 1_555
C43 O4 1_555 1_555
H49 C43 1_555 1_555
H50 C43 1_555 1_555
C44 C43 1_555 1_555
H51 C44 1_555 1_555
H52 C44 1_555 1_555
C45 C44 1_555 1_555
H53 C45 1_555 1_555
H54 C45 1_555 1_555
C46 O4 1_555 1_555
H55 C46 1_555 1_555
H56 C46 1_555 1_555
C47 O5 1_555 1_555
H57 C47 1_555 1_555
H58 C47 1_555 1_555
C48 C47 1_555 1_555
H59 C48 1_555 1_555
H60 C48 1_555 1_555
C49 C48 1_555 1_555
H61 C49 1_555 1_555
H62 C49 1_555 1_555
C50 O5 1_555 1_555
H63 C50 1_555 1_555
H64 C50 1_555 1_555
K2 N2 1_555 1_555
P2 N2 1_555 1_555
N1 C1 1_555 1_555
N2 C6 1_555 1_555
C1 C6 1_555 1_555
C5 C6 1_555 1_555
C11 C12 1_555 1_555
C17 C18 1_555 1_555
C23 C24 1_555 1_555
C29 C30 1_555 1_555
C33 C34 1_555 1_555
C37 C38 1_555 1_555
C41 C42 1_555 1_555
C45 C46 1_555 1_555
C49 C50 1_555 1_555

#END
