
#######################################################################
#
#                 Cambridge Crystallographic Data Centre
#                                CCDC 
#
#######################################################################
#
# If this CIF has been generated from an entry in the Cambridge 
# Structural Database, then it will include bibliographic, chemical, 
# crystal, experimental, refinement or atomic coordinate data resulting 
# from the CCDC's data processing and validation procedures.
#
#######################################################################

data_MEDJUD
_chemical_formula_moiety         'C42 H48 Ca1 N2 O3 P2 S2,0.5(C4 H8 O1)'
_chemical_name_systematic        
"(N,N'-1,2-phenylenebis(P,P-diphenyl(phosphinothioic amide)))-tris(tetrahydrofuran)-calcium tetrahydrofuran solvate"
_symmetry_cell_setting           triclinic
_symmetry_space_group_name_H-M   'P -1'
_symmetry_Int_Tables_number      2
_space_group_name_Hall           '-P 1'
loop_
_symmetry_equiv_pos_site_id
_symmetry_equiv_pos_as_xyz
1 x,y,z
2 -x,-y,-z
_cell_length_a                   9.2949(3)
_cell_length_b                   13.6468(5)
_cell_length_c                   17.1404(5)
_cell_angle_alpha                78.675(3)
_cell_angle_beta                 82.400(2)
_cell_angle_gamma                82.407(3)
_cell_volume                     2100.48
_exptl_crystal_colour            colorless
_exptl_crystal_description       needle
_cell_formula_units_Z            2
loop_
_atom_site_label
_atom_site_type_symbol
_atom_site_fract_x
_atom_site_fract_y
_atom_site_fract_z
Ca1 Ca 0.68785(4) 0.21101(3) 0.66101(2)
S1 S 0.66063(5) 0.43689(3) 0.61522(3)
P1 P 0.75646(5) 0.41810(3) 0.71524(3)
S2 S 0.67923(5) -0.00964(3) 0.67244(3)
P2 P 0.77833(5) -0.01009(3) 0.76875(3)
O1 O 0.44040(14) 0.20884(10) 0.72005(8)
O2 O 0.57844(15) 0.22138(10) 0.53582(8)
O3 O 0.90242(15) 0.19354(11) 0.56714(8)
N1 N 0.80147(16) 0.10406(10) 0.77072(9)
N2 N 0.75475(16) 0.30194(11) 0.75617(9)
C1 C 0.6685(2) -0.06755(13) 0.85810(11)
C2 C 0.9469(2) -0.09468(13) 0.76581(11)
C3 C 0.9421(2) 0.45396(13) 0.69231(12)
C4 C 0.6043(3) 0.67046(17) 0.81084(16)
H1 H 0.618643 0.738178 0.800150
C5 C 0.8365(2) 0.29362(14) 0.89046(11)
H2 H 0.822660 0.363204 0.885677
C6 C 0.3873(2) 0.24273(16) 0.79430(12)
H3 H 0.379858 0.315479 0.786773
H4 H 0.452272 0.214490 0.834857
C7 C 0.80904(19) 0.25037(13) 0.82688(10)
C8 C 0.8787(2) 0.08711(14) 0.90659(11)
H5 H 0.893414 0.017409 0.912590
C9 C 0.6298(2) -0.18436(16) 0.98215(12)
H6 H 0.666094 -0.236715 1.020391
C10 C 0.5224(2) -0.02957(15) 0.86817(12)
H7 H 0.485315 0.022363 0.829857
C11 C 1.1669(2) 0.48487(15) 0.73579(15)
H8 H 1.217543 0.495467 0.776174
C12 C 0.4314(2) -0.06815(17) 0.93459(13)
H9 H 0.334108 -0.041452 0.941046
C13 C 0.66196(19) 0.50476(14) 0.77854(11)
C14 C 0.83034(18) 0.14345(13) 0.83557(10)
C15 C 0.5047(3) 0.6349(2) 0.87338(16)
H10 H 0.452533 0.678427 0.905137
C16 C 1.0195(2) 0.47076(14) 0.75192(13)
H11 H 0.972126 0.472571 0.803012
C17 C 1.0147(2) 0.45408(16) 0.61577(13)
H12 H 0.964337 0.444261 0.575035
C18 C 1.0744(2) -0.07102(17) 0.78741(13)
H13 H 1.076714 -0.008862 0.801504
C19 C 0.9054(2) 0.13248(15) 0.96848(11)
H14 H 0.937574 0.093286 1.015010
C20 C 0.5606(2) 0.46934(16) 0.84137(13)
H15 H 0.544823 0.401889 0.851733
C21 C 0.3223(2) 0.17359(18) 0.68981(13)
H16 H 0.335288 0.100857 0.696179
H17 H 0.318801 0.201852 0.633476
C22 C 0.9463(2) -0.18690(15) 0.74237(15)
H18 H 0.862011 -0.202685 0.726079
C23 C 0.4850(2) -0.14648(16) 0.99148(12)
H19 H 0.423605 -0.173280 1.035661
C24 C 0.6835(2) 0.60592(15) 0.76368(13)
H20 H 0.751340 0.630424 0.721883
C25 C 0.5172(3) 0.31071(17) 0.48477(13)
H21 H 0.562811 0.368998 0.489342
H22 H 0.412890 0.323199 0.499373
C26 C 0.2379(2) 0.20601(19) 0.81866(13)
H23 H 0.174107 0.250556 0.849121
H24 H 0.245086 0.138520 0.850056
C27 C 0.8840(2) 0.23545(15) 0.96058(12)
H25 H 0.901204 0.266144 1.001838
C28 C 0.1839(2) 0.20807(16) 0.73832(13)
H26 H 0.110300 0.162369 0.743137
H27 H 0.144337 0.275282 0.715109
C29 C 1.0707(3) -0.25500(17) 0.74327(16)
H28 H 1.069701 -0.316409 0.727650
C30 C 0.7222(2) -0.14507(15) 0.91611(12)
H29 H 0.820087 -0.170651 0.910706
C31 C 1.2381(2) 0.48317(16) 0.65998(16)
H30 H 1.336851 0.491668 0.649408
C32 C 0.5890(3) 0.13714(17) 0.49473(13)
H31 H 0.525137 0.088094 0.523485
H32 H 0.688346 0.104703 0.490896
C33 C 1.1615(2) 0.46871(17) 0.59963(14)
H33 H 1.208676 0.468827 0.548264
C34 C 1.0172(2) 0.11078(18) 0.57457(15)
H34 H 0.980834 0.049390 0.568894
H35 H 1.052901 0.100489 0.626557
C35 C 1.1965(3) -0.23194(19) 0.76733(14)
H36 H 1.279094 -0.278581 0.769429
C36 C 1.1994(3) -0.1396(2) 0.78822(14)
H37 H 1.284808 -0.123231 0.802839
C37 C 0.4824(3) 0.5345(2) 0.88889(15)
H38 H 0.415120 0.510346 0.931133
C38 C 0.9325(3) 0.2581(2) 0.49116(14)
H39 H 0.893675 0.327089 0.493650
H40 H 0.890122 0.236397 0.449498
C39 C 0.5433(3) 0.1790(2) 0.41210(14)
H41 H 0.610220 0.151103 0.371582
H42 H 0.445573 0.163823 0.408544
C40 C 0.5480(3) 0.2896(2) 0.40172(14)
H43 H 0.474471 0.326120 0.368491
H44 H 0.643254 0.308129 0.377534
C41 C 1.0957(3) 0.2485(2) 0.47563(18)
H45 H 1.136835 0.291743 0.503428
H46 H 1.127551 0.264614 0.418830
C42 C 1.1377(3) 0.1381(2) 0.50893(15)
H47 H 1.143085 0.097562 0.467847
H48 H 1.231331 0.128580 0.530118
C43? C 1.056(2) 0.4235(16) 1.0579(12)
C44? C 1.077(2) 0.497(2) 0.9377(13)
O4? O 0.9249(10) 0.4591(5) 1.0601(6)
C45? C 1.0886(16) 0.4478(18) 1.026(2)
C46? C 1.1166(12) 0.4374(15) 0.9694(10)
loop_
_geom_bond_atom_site_label_1
_geom_bond_atom_site_label_2
_geom_bond_site_symmetry_1
_geom_bond_site_symmetry_2
Ca1 S1 1_555 1_555
S1 P1 1_555 1_555
P1 N2 1_555 1_555
S2 Ca1 1_555 1_555
P2 S2 1_555 1_555
O1 Ca1 1_555 1_555
O2 Ca1 1_555 1_555
O3 Ca1 1_555 1_555
N1 Ca1 1_555 1_555
N2 Ca1 1_555 1_555
C1 P2 1_555 1_555
C2 P2 1_555 1_555
C3 P1 1_555 1_555
C4 H1 1_555 1_555
C5 H2 1_555 1_555
C6 O1 1_555 1_555
H3 C6 1_555 1_555
H4 C6 1_555 1_555
C7 N2 1_555 1_555
C8 H5 1_555 1_555
C9 H6 1_555 1_555
C10 C1 1_555 1_555
H7 C10 1_555 1_555
C11 H8 1_555 1_555
C12 C10 1_555 1_555
H9 C12 1_555 1_555
C13 P1 1_555 1_555
C14 N1 1_555 1_555
C15 C4 1_555 1_555
H10 C15 1_555 1_555
C16 C3 1_555 1_555
H11 C16 1_555 1_555
C17 C3 1_555 1_555
H12 C17 1_555 1_555
C18 C2 1_555 1_555
H13 C18 1_555 1_555
C19 C8 1_555 1_555
H14 C19 1_555 1_555
C20 C13 1_555 1_555
H15 C20 1_555 1_555
C21 O1 1_555 1_555
H16 C21 1_555 1_555
H17 C21 1_555 1_555
C22 C2 1_555 1_555
H18 C22 1_555 1_555
C23 C9 1_555 1_555
H19 C23 1_555 1_555
C24 C4 1_555 1_555
H20 C24 1_555 1_555
C25 O2 1_555 1_555
H21 C25 1_555 1_555
H22 C25 1_555 1_555
C26 C6 1_555 1_555
H23 C26 1_555 1_555
H24 C26 1_555 1_555
C27 C5 1_555 1_555
H25 C27 1_555 1_555
C28 C21 1_555 1_555
H26 C28 1_555 1_555
H27 C28 1_555 1_555
C29 C22 1_555 1_555
H28 C29 1_555 1_555
C30 C1 1_555 1_555
H29 C30 1_555 1_555
C31 C11 1_555 1_555
H30 C31 1_555 1_555
C32 O2 1_555 1_555
H31 C32 1_555 1_555
H32 C32 1_555 1_555
C33 C17 1_555 1_555
H33 C33 1_555 1_555
C34 O3 1_555 1_555
H34 C34 1_555 1_555
H35 C34 1_555 1_555
C35 C29 1_555 1_555
H36 C35 1_555 1_555
C36 C18 1_555 1_555
H37 C36 1_555 1_555
C37 C15 1_555 1_555
H38 C37 1_555 1_555
C38 O3 1_555 1_555
H39 C38 1_555 1_555
H40 C38 1_555 1_555
C39 C32 1_555 1_555
H41 C39 1_555 1_555
H42 C39 1_555 1_555
C40 C25 1_555 1_555
H43 C40 1_555 1_555
H44 C40 1_555 1_555
C41 C38 1_555 1_555
H45 C41 1_555 1_555
H46 C41 1_555 1_555
C42 C34 1_555 1_555
H47 C42 1_555 1_555
H48 C42 1_555 1_555
P2 N1 1_555 1_555
C5 C7 1_555 1_555
C7 C14 1_555 1_555
C8 C14 1_555 1_555
C9 C30 1_555 1_555
C11 C16 1_555 1_555
C12 C23 1_555 1_555
C13 C24 1_555 1_555
C19 C27 1_555 1_555
C20 C37 1_555 1_555
C26 C28 1_555 1_555
C31 C33 1_555 1_555
C35 C36 1_555 1_555
C39 C40 1_555 1_555
C41 C42 1_555 1_555

#END
