
#######################################################################
#
#                 Cambridge Crystallographic Data Centre
#                                CCDC 
#
#######################################################################
#
# If this CIF has been generated from an entry in the Cambridge 
# Structural Database, then it will include bibliographic, chemical, 
# crystal, experimental, refinement or atomic coordinate data resulting 
# from the CCDC's data processing and validation procedures.
#
#######################################################################

data_MEDKAK
_chemical_formula_moiety         'C42 H48 Ca1 N2 O3 P2 Se2,0.5(C4 H8 O1)'
_chemical_name_systematic        
"(N,N'-1,2-phenylenebis(P,P-diphenyl(phosphinoselenoic amide)))-tris(tetrahydrofuran)-calcium tetrahydrofuran solvate"
_symmetry_cell_setting           triclinic
_symmetry_space_group_name_H-M   'P -1'
_symmetry_Int_Tables_number      2
_space_group_name_Hall           '-P 1'
loop_
_symmetry_equiv_pos_site_id
_symmetry_equiv_pos_as_xyz
1 x,y,z
2 -x,-y,-z
_cell_length_a                   9.5501(3)
_cell_length_b                   13.5711(6)
_cell_length_c                   17.2775(7)
_cell_angle_alpha                77.697(4)
_cell_angle_beta                 81.024(3)
_cell_angle_gamma                81.803(3)
_cell_volume                     2147.13
_exptl_crystal_colour            colorless
_exptl_crystal_description       plates
_cell_formula_units_Z            2
loop_
_atom_site_label
_atom_site_type_symbol
_atom_site_fract_x
_atom_site_fract_y
_atom_site_fract_z
Se1 Se 0.64080(2) 0.93715(2) 0.11015(2)
Se2 Se 0.68926(3) 0.46803(2) 0.17409(2)
Ca1 Ca 0.68738(4) 0.70150(3) 0.16164(2)
P1 P 0.75229(5) 0.91411(3) 0.21215(3)
P2 P 0.78200(5) 0.47739(4) 0.27722(3)
O1 O 0.44627(15) 0.70043(12) 0.22343(9)
O2 O 0.58046(16) 0.70975(11) 0.03746(9)
O3 O 0.89720(16) 0.69441(13) 0.06537(9)
N1 N 0.79595(18) 0.59534(12) 0.27293(10)
N2 N 0.75391(17) 0.79576(12) 0.25255(9)
C1 C 0.5742(4) 0.6682(2) -0.08786(16)
H1 H 0.492279 0.645902 -0.103189
H2 H 0.659037 0.646422 -0.121568
C2 C 0.4855(15) 0.7654(6) -0.0856(5)
H3 H 0.385293 0.756929 -0.081363
H4 H 0.510304 0.814924 -0.133487
C3 C 0.9090(2) 0.63002(16) 0.46297(12)
H5 H 0.940045 0.591668 0.509792
C4 C 0.8282(2) 0.63727(14) 0.33450(11)
C5 C 1.0102(2) 0.97644(16) 0.23556(14)
H6 H 0.965396 0.986075 0.285610
C6 C 0.8952(2) 0.73399(17) 0.45040(13)
H7 H 0.917787 0.766328 0.488428
C7 C 0.8471(2) 0.79122(15) 0.38024(13)
H8 H 0.838892 0.861681 0.372005
C8 C 0.6691(2) 0.42220(15) 0.36654(12)
C9 C 0.6631(2) 0.99976(15) 0.27757(12)
C10 C 0.9509(2) 0.39589(15) 0.27902(12)
C11 C 0.81108(19) 0.74516(14) 0.32222(11)
C12 C 0.9335(2) 0.94937(14) 0.18259(12)
C13 C 0.6795(2) 1.10271(16) 0.26068(14)
H9 H 0.742115 1.128833 0.216707
C14 C 0.7140(2) 0.34145(16) 0.42451(13)
H10 H 0.808835 0.313102 0.420158
C15 C 0.5689(2) 0.96142(17) 0.34341(13)
H11 H 0.556577 0.892832 0.354940
C16 C 0.5270(2) 0.46511(18) 0.37553(14)
H12 H 0.495689 0.519909 0.337447
C17 C 0.6179(3) 0.30262(17) 0.48921(14)
H13 H 0.648652 0.247886 0.527528
C18 C 1.0748(2) 0.43196(18) 0.28776(15)
H14 H 1.072348 0.499008 0.292992
C19 C 0.8764(2) 0.58204(15) 0.40552(12)
H15 H 0.886828 0.511498 0.414468
C20 C 1.0020(2) 0.93715(17) 0.10731(13)
H16 H 0.951504 0.919389 0.071424
C21 C 0.4770(3) 0.34485(18) 0.49694(14)
H17 H 0.412688 0.318166 0.539845
C22 C 0.6027(3) 1.16669(18) 0.30916(16)
H18 H 0.612995 1.235617 0.297201
C23 C 0.5878(3) 0.62448(18) -0.00124(14)
H19 H 0.510886 0.583612 0.022597
H20 H 0.677960 0.582128 0.003893
C24 C 0.1948(2) 0.70718(19) 0.24514(16)
H21 H 0.157444 0.772904 0.216737
H22 H 0.121542 0.661525 0.256046
C25 C 0.9578(3) 0.29595(19) 0.27058(18)
H23 H 0.875718 0.270603 0.264180
C26 C 1.1455(2) 0.95135(19) 0.08542(15)
H24 H 1.190476 0.943210 0.035040
C27 C 0.3282(2) 0.6646(2) 0.19894(17)
H25 H 0.336951 0.590964 0.210722
H26 H 0.325792 0.687769 0.141986
C28 C 1.2210(2) 0.97749(17) 0.13849(16)
H27 H 1.316628 0.987310 0.123796
C29 C 0.5108(3) 1.1277(2) 0.37531(16)
H28 H 0.461020 1.170320 0.408419
C30 C 0.3951(2) 0.7482(2) 0.29125(14)
H29 H 0.390721 0.821445 0.275480
H30 H 0.457111 0.725235 0.332542
C31 C 1.1544(2) 0.98908(17) 0.21351(17)
H31 H 1.206000 1.005424 0.249510
C32 C 0.4928(3) 1.0262(2) 0.39222(15)
H32 H 0.429890 1.000620 0.436251
C33 C 0.5158(3) 0.7989(2) -0.01296(15)
H33 H 0.552602 0.859762 -0.007410
H34 H 0.412917 0.806673 0.000751
C34 C 0.2473(3) 0.7160(2) 0.32071(16)
H35 H 0.251627 0.651480 0.357995
H36 H 0.186519 0.766659 0.346310
C35 C 1.0770(3) 0.7401(3) -0.0413(2)
H37 H 1.113068 0.800749 -0.034743
H38 H 1.102436 0.731922 -0.096306
C36 C 1.0856(3) 0.2336(2) 0.2716(2)
H39 H 1.088810 0.166645 0.266047
C37 C 1.2030(3) 0.3688(2) 0.28880(17)
H40 H 1.285588 0.393568 0.294975
C38 C 1.0233(3) 0.6260(3) 0.0816(2)
H41 H 1.003213 0.556353 0.088465
H42 H 1.054233 0.634558 0.130405
C39 C 0.4327(3) 0.4270(2) 0.44035(15)
H43 H 0.338713 0.456826 0.445968
C40 C 0.9187(3) 0.7447(2) -0.01716(15)
H44 H 0.875802 0.814689 -0.023320
H45 H 0.875909 0.710668 -0.050024
C41 C 1.1334(4) 0.6478(4) 0.0156(2)
H46 H 1.158219 0.590467 -0.011107
H47 H 1.218213 0.660875 0.034446
C42 C 1.2077(3) 0.2700(2) 0.28074(17)
H48 H 1.293414 0.227756 0.281455
C43? C 0.556(2) 0.7796(8) -0.0965(5)
H49? H 0.482148 0.810220 -0.129443
H50? H 0.644752 0.807335 -0.120775
C44? C 1.122(4) 0.944(3) 0.4666(18)
C45? C 0.863(4) 1.021(3) 0.466(2)
O4? O 0.9886(7) 1.0052(5) 0.4176(3)
C46? C 1.0884(7) 0.9870(7) 0.4459(4)
C47? C 0.9095(10) 1.0445(7) 0.4647(4)
loop_
_geom_bond_atom_site_label_1
_geom_bond_atom_site_label_2
_geom_bond_site_symmetry_1
_geom_bond_site_symmetry_2
Se1 Ca1 1_555 1_555
Se2 Ca1 1_555 1_555
Ca1 O1 1_555 1_555
P1 Se1 1_555 1_555
P2 Se2 1_555 1_555
O1 C27 1_555 1_555
O2 Ca1 1_555 1_555
O3 Ca1 1_555 1_555
N1 Ca1 1_555 1_555
N2 Ca1 1_555 1_555
C1 H1 1_555 1_555
H2 C1 1_555 1_555
C2 C1 1_555 1_555
H3 C2 1_555 1_555
H4 C2 1_555 1_555
C3 H5 1_555 1_555
C4 N1 1_555 1_555
C5 H6 1_555 1_555
C6 C3 1_555 1_555
H7 C6 1_555 1_555
C7 C6 1_555 1_555
H8 C7 1_555 1_555
C8 P2 1_555 1_555
C9 P1 1_555 1_555
C10 P2 1_555 1_555
C11 N2 1_555 1_555
C12 P1 1_555 1_555
C13 C9 1_555 1_555
H9 C13 1_555 1_555
C14 C8 1_555 1_555
H10 C14 1_555 1_555
C15 C9 1_555 1_555
H11 C15 1_555 1_555
C16 C8 1_555 1_555
H12 C16 1_555 1_555
C17 C14 1_555 1_555
H13 C17 1_555 1_555
C18 C10 1_555 1_555
H14 C18 1_555 1_555
C19 C3 1_555 1_555
H15 C19 1_555 1_555
C20 C12 1_555 1_555
H16 C20 1_555 1_555
C21 C17 1_555 1_555
H17 C21 1_555 1_555
C22 C13 1_555 1_555
H18 C22 1_555 1_555
C23 O2 1_555 1_555
H19 C23 1_555 1_555
H20 C23 1_555 1_555
C24 H21 1_555 1_555
H22 C24 1_555 1_555
C25 C10 1_555 1_555
H23 C25 1_555 1_555
C26 C20 1_555 1_555
H24 C26 1_555 1_555
C27 C24 1_555 1_555
H25 C27 1_555 1_555
H26 C27 1_555 1_555
C28 C26 1_555 1_555
H27 C28 1_555 1_555
C29 C22 1_555 1_555
H28 C29 1_555 1_555
C30 O1 1_555 1_555
H29 C30 1_555 1_555
H30 C30 1_555 1_555
C31 C5 1_555 1_555
H31 C31 1_555 1_555
C32 C15 1_555 1_555
H32 C32 1_555 1_555
C33 O2 1_555 1_555
H33 C33 1_555 1_555
H34 C33 1_555 1_555
C34 C24 1_555 1_555
H35 C34 1_555 1_555
H36 C34 1_555 1_555
C35 H37 1_555 1_555
H38 C35 1_555 1_555
C36 C25 1_555 1_555
H39 C36 1_555 1_555
C37 C18 1_555 1_555
H40 C37 1_555 1_555
C38 O3 1_555 1_555
H41 C38 1_555 1_555
H42 C38 1_555 1_555
C39 C16 1_555 1_555
H43 C39 1_555 1_555
C40 O3 1_555 1_555
H44 C40 1_555 1_555
H45 C40 1_555 1_555
C41 C35 1_555 1_555
H46 C41 1_555 1_555
H47 C41 1_555 1_555
C42 C36 1_555 1_555
H48 C42 1_555 1_555
P1 N2 1_555 1_555
P2 N1 1_555 1_555
C1 C23 1_555 1_555
C2 C33 1_555 1_555
C4 C11 1_555 1_555
C4 C19 1_555 1_555
C5 C12 1_555 1_555
C7 C11 1_555 1_555
C21 C39 1_555 1_555
C28 C31 1_555 1_555
C29 C32 1_555 1_555
C30 C34 1_555 1_555
C35 C40 1_555 1_555
C37 C42 1_555 1_555
C38 C41 1_555 1_555

#END
