
#######################################################################
#
#                 Cambridge Crystallographic Data Centre
#                                CCDC 
#
#######################################################################
#
# If this CIF has been generated from an entry in the Cambridge 
# Structural Database, then it will include bibliographic, chemical, 
# crystal, experimental, refinement or atomic coordinate data resulting 
# from the CCDC's data processing and validation procedures.
#
#######################################################################

data_MEDLOZ
_chemical_formula_moiety         'C128 H168 O12,C6 H11 F1,C2 H3 N1'
_chemical_name_systematic        
"(M)-2,8,14,20-tetrahexyl-5,11,17,23-tetrakis(3,5-di-t-butyl-8-hydroxy-8-methylnona-3,4-diene-1,6-diyn-1-yl)-4,24:6,10:12,16:18,22-O,O'-tetramethylenecalix[4]resorcinarene fluorocyclohexane acetonitrile solvate"
_symmetry_cell_setting           orthorhombic
_symmetry_space_group_name_H-M   'P 21 21 21'
_symmetry_Int_Tables_number      19
_space_group_name_Hall           'P 2ac 2ab'
loop_
_symmetry_equiv_pos_site_id
_symmetry_equiv_pos_as_xyz
1 x,y,z
2 1/2-x,-y,1/2+z
3 -x,1/2+y,1/2-z
4 1/2+x,1/2-y,-z
_cell_length_a                   15.4705(3)
_cell_length_b                   18.2782(3)
_cell_length_c                   46.1154(10)
_cell_angle_alpha                90
_cell_angle_beta                 90
_cell_angle_gamma                90
_cell_volume                     13040.2
_exptl_crystal_colour            colorless
_exptl_crystal_description       plate
_cell_formula_units_Z            4
_exptl_crystal_recrystallization_method water/acetonitrile
loop_
_atom_site_label
_atom_site_type_symbol
_atom_site_fract_x
_atom_site_fract_y
_atom_site_fract_z
O1 O 0.6913(2) 0.5469(2) 0.52131(10)
H1 H 0.673(5) 0.500(2) 0.5168(16)
O2 O 0.6672(2) 0.39985(19) 0.52622(9)
H2 H 0.723(2) 0.392(4) 0.5333(15)
O3 O 0.8207(2) 0.3777(2) 0.55436(8)
H3 H 0.836(5) 0.4252(19) 0.5503(15)
O4 O 0.8556(2) 0.5265(2) 0.54152(9)
H4 H 0.799(2) 0.535(4) 0.5367(15)
O5 O 0.71861(19) 0.67731(16) 0.70344(7)
O6 O 0.81999(19) 0.58894(17) 0.71900(7)
O7 O 0.8207(2) 0.32837(17) 0.72299(8)
O8 O 0.7204(2) 0.23907(17) 0.70817(7)
O9 O 0.4414(2) 0.23975(17) 0.66506(7)
O10 O 0.3421(2) 0.32862(16) 0.64941(7)
O11 O 0.33381(18) 0.58876(16) 0.65113(7)
O12 O 0.4345(2) 0.67780(16) 0.66486(7)
C1 C 0.6668(3) 0.3210(2) 0.75763(11)
H5 H 0.7138 0.2834 0.7579
C2 C 0.6041(3) 0.2988(2) 0.73375(11)
C3 C 0.5162(3) 0.3151(2) 0.73432(10)
H6 H 0.4938 0.3394 0.7509
C4 C 0.4590(3) 0.2977(2) 0.71192(10)
C5 C 0.3651(3) 0.3177(2) 0.71133(11)
H7 H 0.3356 0.2802 0.6990
C6 C 0.3558(3) 0.3909(2) 0.69545(10)
C7 C 0.3609(3) 0.4568(2) 0.71017(10)
H8 H 0.3692 0.4558 0.7306
C8 C 0.3545(3) 0.5246(2) 0.69644(10)
C9 C 0.3638(3) 0.5969(2) 0.71291(10)
H9 H 0.3297 0.6347 0.7022
C10 C 0.4585(3) 0.6189(2) 0.71137(10)
C11 C 0.5177(3) 0.6032(2) 0.73328(10)
H10 H 0.4973 0.5793 0.7502
C12 C 0.6044(3) 0.6207(2) 0.73160(10)
C13 C 0.6689(3) 0.6000(2) 0.75508(10)
H11 H 0.7163 0.6372 0.7544
C14 C 0.7091(3) 0.5268(2) 0.74658(10)
C15 C 0.6737(3) 0.4609(2) 0.75583(10)
H12 H 0.6237 0.4621 0.7678
C16 C 0.7085(3) 0.3932(2) 0.74827(10)
C17 C 0.7808(3) 0.3935(2) 0.73062(11)
C18 C 0.8180(3) 0.4587(3) 0.72015(10)
C19 C 0.7802(3) 0.5247(2) 0.72867(10)
C20 C 0.7801(3) 0.6234(3) 0.69509(11)
H13 H 0.7509 0.5859 0.6831
H14 H 0.8252 0.6468 0.6830
C21 C 0.6341(3) 0.6545(2) 0.70616(10)
C22 C 0.5768(3) 0.6715(2) 0.68346(10)
C23 C 0.4899(3) 0.6546(2) 0.68666(10)
C24 C 0.4101(3) 0.6261(2) 0.64346(10)
H15 H 0.4012 0.6515 0.6247
H16 H 0.4574 0.5902 0.6408
C25 C 0.3447(3) 0.5236(2) 0.66633(10)
C26 C 0.3429(2) 0.4587(3) 0.65055(9)
C27 C 0.3482(3) 0.3929(2) 0.66552(10)
C28 C 0.4210(3) 0.2924(3) 0.64360(11)
H17 H 0.4681 0.3289 0.6426
H18 H 0.4172 0.2679 0.6245
C29 C 0.4949(3) 0.2623(2) 0.68768(10)
C30 C 0.5811(3) 0.2447(2) 0.68613(11)
C31 C 0.6357(3) 0.2624(2) 0.70940(11)
C32 C 0.7840(3) 0.2897(3) 0.69916(11)
H19 H 0.7576 0.3252 0.6855
H20 H 0.8303 0.2634 0.6887
C33 C 0.6156(3) 0.2089(3) 0.66115(12)
C34 C 0.6411(3) 0.1806(3) 0.63944(11)
C35 C 0.6760(3) 0.1454(3) 0.61382(12)
C36 C 0.7542(3) 0.0957(3) 0.61851(12)
C37 C 0.7804(4) 0.0609(3) 0.58974(13)
H21 H 0.7333 0.0299 0.5826
H22 H 0.8324 0.0311 0.5926
H23 H 0.7925 0.0994 0.5755
C38 C 0.8283(4) 0.1412(3) 0.63061(14)
H24 H 0.8446 0.1787 0.6165
H25 H 0.8780 0.1094 0.6345
H26 H 0.8100 0.1647 0.6487
C39 C 0.7285(4) 0.0361(3) 0.64009(12)
H27 H 0.7090 0.0588 0.6582
H28 H 0.7785 0.0047 0.6440
H29 H 0.6816 0.0066 0.6319
C40 C 0.6378(3) 0.1567(2) 0.58916(11)
C41 C 0.5925(3) 0.1644(3) 0.56502(11)
C42 C 0.5233(3) 0.1093(3) 0.55638(13)
C43 C 0.5117(4) 0.0511(3) 0.58008(15)
H30 H 0.5672 0.0268 0.5837
H31 H 0.4691 0.0148 0.5737
H32 H 0.4916 0.0745 0.5980
C44 C 0.5514(4) 0.0730(3) 0.52797(15)
H33 H 0.5587 0.1105 0.5130
H34 H 0.5072 0.0379 0.5218
H35 H 0.6064 0.0474 0.5310
C45 C 0.4367(4) 0.1506(3) 0.55231(13)
H36 H 0.4183 0.1713 0.5709
H37 H 0.3925 0.1165 0.5453
H38 H 0.4444 0.1901 0.5382
C46 C 0.6072(3) 0.2254(3) 0.54585(12)
C47 C 0.6142(3) 0.2771(3) 0.53036(11)
C48 C 0.6232(3) 0.3420(3) 0.51099(12)
C49 C 0.6735(4) 0.3225(4) 0.48383(14)
H39 H 0.6742 0.3646 0.4706
H40 H 0.6460 0.2808 0.4742
H41 H 0.7330 0.3096 0.4891
C50 C 0.5344(3) 0.3728(3) 0.50392(14)
H42 H 0.5057 0.3880 0.5219
H43 H 0.4996 0.3352 0.4943
H44 H 0.5406 0.4152 0.4911
C51 C 0.3365(2) 0.4606(3) 0.61946(10)
C52 C 0.3316(3) 0.4617(3) 0.59341(10)
C53 C 0.3260(2) 0.4608(3) 0.56235(9)
C54 C 0.2813(3) 0.3950(3) 0.54821(11)
C55 C 0.3242(3) 0.3241(3) 0.55937(12)
H45 H 0.3847 0.3229 0.5531
H46 H 0.2936 0.2816 0.5515
H47 H 0.3215 0.3229 0.5806
C56 C 0.1860(3) 0.3962(3) 0.55698(12)
H48 H 0.1814 0.3981 0.5782
H49 H 0.1574 0.3519 0.5498
H50 H 0.1580 0.4394 0.5486
C57 C 0.2876(3) 0.3991(3) 0.51516(11)
H51 H 0.2573 0.4429 0.5083
H52 H 0.2610 0.3555 0.5066
H53 H 0.3485 0.4016 0.5094
C58 C 0.3558(3) 0.5161(3) 0.54758(10)
C59 C 0.3818(3) 0.5725(3) 0.53216(11)
C60 C 0.3213(3) 0.6349(3) 0.52319(13)
C61 C 0.2293(3) 0.6201(4) 0.53393(15)
H54 H 0.2095 0.5727 0.5265
H55 H 0.1907 0.6588 0.5270
H56 H 0.2288 0.6193 0.5552
C62 C 0.3542(4) 0.7068(3) 0.53550(16)
H57 H 0.3557 0.7038 0.5567
H58 H 0.3155 0.7466 0.5296
H59 H 0.4125 0.7163 0.5282
C63 C 0.3203(4) 0.6399(4) 0.49009(14)
H60 H 0.3793 0.6476 0.4830
H61 H 0.2837 0.6810 0.4841
H62 H 0.2972 0.5943 0.4820
C64 C 0.4713(3) 0.5776(3) 0.52293(11)
C65 C 0.5443(3) 0.5845(3) 0.51582(12)
C66 C 0.6352(3) 0.5949(3) 0.50586(13)
C67 C 0.6401(4) 0.5790(5) 0.47373(17)
H63 H 0.7000 0.5844 0.4671
H64 H 0.6030 0.6133 0.4632
H65 H 0.6206 0.5288 0.4701
C68 C 0.6648(4) 0.6712(3) 0.51332(19)
H66 H 0.6603 0.6787 0.5343
H67 H 0.6283 0.7069 0.5032
H68 H 0.7251 0.6775 0.5073
C69 C 0.6074(3) 0.7061(2) 0.65749(11)
C70 C 0.6334(3) 0.7330(3) 0.63557(12)
C71 C 0.6611(3) 0.7682(3) 0.60938(11)
C72 C 0.5937(3) 0.8116(3) 0.59200(12)
C73 C 0.5512(4) 0.8683(4) 0.61136(15)
H69 H 0.5262 0.8441 0.6284
H70 H 0.5054 0.8934 0.6006
H71 H 0.5945 0.9041 0.6177
C74 C 0.5225(4) 0.7592(4) 0.58180(16)
H72 H 0.5472 0.7232 0.5684
H73 H 0.4771 0.7870 0.5719
H74 H 0.4979 0.7337 0.5986
C75 C 0.6347(4) 0.8493(3) 0.56601(13)
H75 H 0.6798 0.8830 0.5727
H76 H 0.5905 0.8768 0.5554
H77 H 0.6604 0.8126 0.5532
C76 C 0.7425(3) 0.7611(3) 0.60152(11)
C77 C 0.8253(3) 0.7544(3) 0.59517(11)
C78 C 0.8943(3) 0.8073(3) 0.60698(11)
C79 C 0.8523(4) 0.8629(3) 0.62747(14)
H78 H 0.8053 0.8882 0.6173
H79 H 0.8957 0.8987 0.6337
H80 H 0.8291 0.8374 0.6445
C80 C 0.9357(4) 0.8474(3) 0.58196(14)
H81 H 0.9616 0.8120 0.5686
H82 H 0.9807 0.8803 0.5893
H83 H 0.8917 0.8761 0.5717
C81 C 0.9620(4) 0.7632(3) 0.62351(14)
H84 H 0.9343 0.7374 0.6396
H85 H 1.0064 0.7963 0.6311
H86 H 0.9888 0.7276 0.6104
C82 C 0.8528(3) 0.6950(3) 0.57678(11)
C83 C 0.8794(3) 0.6449(3) 0.56246(12)
C84 C 0.9164(3) 0.5854(3) 0.54435(13)
C85 C 0.9389(5) 0.6159(4) 0.51469(15)
H87 H 0.9642 0.5772 0.5027
H88 H 0.9807 0.6559 0.5169
H89 H 0.8864 0.6345 0.5054
C86 C 0.9938(4) 0.5534(4) 0.55933(16)
H90 H 0.9778 0.5384 0.5790
H91 H 1.0398 0.5902 0.5603
H92 H 1.0144 0.5107 0.5484
C87 C 0.8882(3) 0.4566(3) 0.70041(11)
C88 C 0.9439(3) 0.4546(3) 0.68251(11)
C89 C 1.0096(3) 0.4536(3) 0.66057(11)
C90 C 1.0662(3) 0.5218(3) 0.65685(12)
C91 C 1.0084(4) 0.5892(4) 0.65266(15)
H93 H 0.9707 0.5816 0.6359
H94 H 1.0446 0.6324 0.6494
H95 H 0.9730 0.5966 0.6700
C92 C 1.1258(3) 0.5132(4) 0.63102(13)
H96 H 1.1567 0.4665 0.6325
H97 H 1.1676 0.5535 0.6307
H98 H 1.0917 0.5139 0.6131
C93 C 1.1197(3) 0.5320(3) 0.68426(13)
H99 H 1.0813 0.5339 0.7011
H100 H 1.1524 0.5778 0.6829
H101 H 1.1599 0.4909 0.6864
C94 C 1.0195(3) 0.3934(3) 0.64514(11)
C95 C 1.0292(3) 0.3349(3) 0.62970(11)
C96 C 1.0883(3) 0.2708(3) 0.63841(12)
C97 C 1.0344(4) 0.2019(4) 0.64019(17)
H102 H 0.9909 0.2073 0.6555
H103 H 1.0719 0.1602 0.6447
H104 H 1.0056 0.1935 0.6216
C98 C 1.1292(4) 0.2861(4) 0.66811(13)
H105 H 1.1611 0.3324 0.6673
H106 H 1.1689 0.2463 0.6731
H107 H 1.0837 0.2894 0.6828
C99 C 1.1596(3) 0.2620(4) 0.61565(14)
H108 H 1.1334 0.2538 0.5966
H109 H 1.1961 0.2201 0.6207
H110 H 1.1949 0.3065 0.6151
C100 C 0.9796(3) 0.3292(3) 0.60332(12)
C101 C 0.9369(3) 0.3271(3) 0.58160(12)
C102 C 0.8873(3) 0.3231(3) 0.55455(11)
C103 C 0.8405(4) 0.2497(3) 0.55253(14)
H111 H 0.7988 0.2456 0.5685
H112 H 0.8827 0.2099 0.5539
H113 H 0.8100 0.2466 0.5340
C104 C 0.9471(4) 0.3349(4) 0.52911(13)
H114 H 0.9136 0.3343 0.5111
H115 H 0.9904 0.2957 0.5286
H116 H 0.9763 0.3822 0.5311
C105 C 0.7933(7) 0.5353(6) 0.9108(2)
H117 H 0.8278 0.4959 0.9022
H118 H 0.7704 0.5192 0.9295
H119 H 0.8298 0.5785 0.9136
C106 C 0.7177(6) 0.5546(5) 0.89036(15)
H120 H 0.6719 0.5171 0.8923
H121 H 0.6929 0.6023 0.8962
C107 C 0.7453(4) 0.5585(3) 0.85972(14)
H122 H 0.7711 0.5109 0.8542
H123 H 0.7910 0.5962 0.8579
C108 C 0.6733(4) 0.5765(3) 0.83849(12)
H124 H 0.6306 0.5362 0.8386
H125 H 0.6435 0.6215 0.8451
C109 C 0.7043(3) 0.5878(3) 0.80811(11)
H126 H 0.7380 0.5443 0.8022
H127 H 0.7440 0.6303 0.8079
C110 C 0.6329(3) 0.6008(3) 0.78576(10)
H128 H 0.5883 0.5622 0.7877
H129 H 0.6050 0.6486 0.7896
C111 C 0.6662(5) 0.3383(4) 0.84135(13)
H130 H 0.6169 0.3053 0.8453
H131 H 0.6478 0.3895 0.8448
C112 C 0.6982(4) 0.3289(3) 0.81139(12)
H132 H 0.7339 0.2839 0.8107
H133 H 0.7364 0.3707 0.8067
C113 C 0.6286(3) 0.3234(3) 0.78800(10)
H134 H 0.5938 0.2787 0.7913
H135 H 0.5894 0.3660 0.7896
C114 C 0.1732(4) 0.3237(4) 0.76606(13)
H136 H 0.1747 0.3751 0.7729
H137 H 0.2022 0.2930 0.7808
C115 C 0.2210(4) 0.3179(3) 0.73789(13)
H138 H 0.2048 0.3600 0.7255
H139 H 0.2022 0.2728 0.7278
C116 C 0.3196(3) 0.3164(3) 0.74092(11)
H140 H 0.3368 0.2716 0.7515
H141 H 0.3385 0.3591 0.7524
C117 C 0.1038(4) 0.5528(4) 0.77821(18)
H142 H 0.0877 0.5193 0.7622
H143 H 0.0908 0.5275 0.7967
C118 C 0.1995(4) 0.5669(3) 0.77671(13)
H144 H 0.2305 0.5245 0.7851
H145 H 0.2134 0.6104 0.7886
C119 C 0.2319(3) 0.5794(3) 0.74591(11)
H146 H 0.2008 0.6217 0.7375
H147 H 0.2179 0.5359 0.7340
C120 C 0.3289(3) 0.5937(2) 0.74425(10)
H148 H 0.3596 0.5545 0.7549
H149 H 0.3418 0.6406 0.7541
C121 C 0.7970(10) 0.3007(10) 0.9126(3)
H150 H 0.8104 0.2485 0.9107
H151 H 0.7812 0.3116 0.9327
H152 H 0.8477 0.3296 0.9071
C122 C 0.7221(7) 0.3197(7) 0.8928(2)
H153 H 0.6743 0.2847 0.8962
H154 H 0.7007 0.3692 0.8977
C123 C 0.7468(7) 0.3178(8) 0.8611(2)
H155 H 0.7676 0.2682 0.8560
H156 H 0.7944 0.3528 0.8575
C124 C -0.0586(10) 0.2734(12) 0.7889(3)
H157 H -0.0964 0.2821 0.8056
H158 H -0.0891 0.2865 0.7710
H159 H -0.0425 0.2215 0.7882
C125 C 0.0287(8) 0.3235(10) 0.7920(3)
H160 H 0.0155 0.3764 0.7920
H161 H 0.0626 0.3107 0.8095
C126 C 0.0760(7) 0.2985(10) 0.7628(3)
H162 H 0.0726 0.2447 0.7604
H163 H 0.0490 0.3220 0.7457
C127 C -0.0430(7) 0.5970(12) 0.7806(3)
H164 H -0.0521 0.5460 0.7748
H165 H -0.0793 0.6291 0.7687
H166 H -0.0584 0.6031 0.8011
C128 C 0.0508(7) 0.6170(7) 0.7763(3)
H167 H 0.0585 0.6403 0.7571
H168 H 0.0686 0.6526 0.7914
F1 F 0.6896(16) 0.4336(14) 0.6579(4)
C137 C 0.6246(9) 0.5222(9) 0.5994(3)
H194 H 0.5804 0.5613 0.5998
H195 H 0.6489 0.5202 0.5795
C138 C 0.6956(11) 0.5411(9) 0.6203(3)
H196 H 0.6706 0.5496 0.6398
H197 H 0.7244 0.5868 0.6140
C139 C 0.5829(10) 0.4512(10) 0.6061(4)
H198 H 0.5394 0.4402 0.5910
H199 H 0.5522 0.4555 0.6249
C140 C 0.7613(12) 0.4803(12) 0.6220(5)
H200 H 0.7914 0.4761 0.6031
H201 H 0.8050 0.4925 0.6369
C141 C 0.7210(18) 0.4088(13) 0.6293(5)
H202 H 0.7646 0.3686 0.6309
C142 C 0.6452(14) 0.3890(11) 0.6079(5)
H203 H 0.6690 0.3786 0.5884
H204 H 0.6150 0.3446 0.6148
N1 N 0.0488(3) 0.5388(3) 0.29030(12)
C149 C 0.1632(6) 0.6182(4) 0.31706(15)
H216 H 0.1472 0.6245 0.3375
H217 H 0.1668 0.6662 0.3077
H218 H 0.2193 0.5936 0.3158
C150 C 0.0964(5) 0.5731(3) 0.30220(15)
H169? H 0.6323 0.2935 0.8453
H170? H 0.6234 0.3784 0.8400
H171? H 0.1970 0.3665 0.7766
H172? H 0.1879 0.2799 0.7776
H173? H 0.0766 0.5960 0.7691
H174? H 0.0933 0.5114 0.7648
C129? C 0.8150(15) 0.2783(18) 0.9018(4)
H175? H 0.8685 0.2525 0.8968
H176? H 0.7863 0.2531 0.9179
H177? H 0.8286 0.3286 0.9075
C130? C 0.7551(10) 0.2794(9) 0.8754(3)
H178? H 0.7886 0.2639 0.8582
H179? H 0.7088 0.2428 0.8784
C131? C 0.7135(12) 0.3528(9) 0.8689(3)
H180? H 0.6733 0.3675 0.8845
H181? H 0.7576 0.3914 0.8663
C132? C -0.0634(13) 0.3282(17) 0.7908(6)
H182? H -0.1017 0.3058 0.8052
H183? H -0.0541 0.3798 0.7956
H184? H -0.0900 0.3246 0.7715
C133? C 0.0265(12) 0.2867(13) 0.7906(5)
H185? H 0.0560 0.2903 0.8096
H186? H 0.0198 0.2346 0.7853
C134? C 0.0758(10) 0.3311(13) 0.7664(5)
H187? H 0.0534 0.3154 0.7473
H188? H 0.0613 0.3835 0.7688
C135? C -0.0452(9) 0.5286(18) 0.7995(5)
H189? H -0.0716 0.5160 0.8182
H190? H -0.0567 0.4895 0.7855
H191? H -0.0698 0.5746 0.7924
C136? C 0.0517(8) 0.5373(12) 0.8034(3)
H192? H 0.0613 0.5771 0.8176
H193? H 0.0739 0.4917 0.8122
F2? F 0.5467(8) 0.4537(9) 0.6349(3)
C143? C 0.591(2) 0.4250(16) 0.6088(7)
H205? H 0.5530 0.3901 0.5981
C144? C 0.745(2) 0.5121(15) 0.6158(6)
H206? H 0.7737 0.5034 0.5970
H207? H 0.7809 0.5468 0.6269
C145? C 0.7413(17) 0.4418(16) 0.6319(5)
H208? H 0.7246 0.4514 0.6522
H209? H 0.7995 0.4192 0.6319
C146? C 0.660(2) 0.5476(16) 0.6100(8)
H210? H 0.6689 0.5910 0.5975
H211? H 0.6348 0.5648 0.6286
C147? C 0.675(2) 0.3878(15) 0.6180(7)
H212? H 0.7022 0.3648 0.6007
H213? H 0.6621 0.3485 0.6321
C148? C 0.593(2) 0.4950(16) 0.5948(7)
H214? H 0.5345 0.5171 0.5954
H215? H 0.6091 0.4885 0.5742
loop_
_geom_bond_atom_site_label_1
_geom_bond_atom_site_label_2
_geom_bond_site_symmetry_1
_geom_bond_site_symmetry_2
O1 H1 1_555 1_555
O2 H2 1_555 1_555
O3 H3 1_555 1_555
O4 H4 1_555 1_555
O5 C20 1_555 1_555
O6 C19 1_555 1_555
O7 C17 1_555 1_555
O8 C31 1_555 1_555
O9 C28 1_555 1_555
O10 C27 1_555 1_555
O11 C24 1_555 1_555
O12 C23 1_555 1_555
C1 H5 1_555 1_555
C2 C1 1_555 1_555
C3 C2 1_555 1_555
H6 C3 1_555 1_555
C4 C3 1_555 1_555
C5 C4 1_555 1_555
H7 C5 1_555 1_555
C6 C5 1_555 1_555
C7 C6 1_555 1_555
H8 C7 1_555 1_555
C8 C7 1_555 1_555
C9 C8 1_555 1_555
H9 C9 1_555 1_555
C10 C9 1_555 1_555
C11 C10 1_555 1_555
H10 C11 1_555 1_555
C12 C11 1_555 1_555
C13 C12 1_555 1_555
H11 C13 1_555 1_555
C14 C13 1_555 1_555
C15 C14 1_555 1_555
H12 C15 1_555 1_555
C16 C1 1_555 1_555
C17 C16 1_555 1_555
C18 C17 1_555 1_555
C19 C14 1_555 1_555
C20 O6 1_555 1_555
H13 C20 1_555 1_555
H14 C20 1_555 1_555
C21 O5 1_555 1_555
C22 C21 1_555 1_555
C23 C10 1_555 1_555
C24 O12 1_555 1_555
H15 C24 1_555 1_555
H16 C24 1_555 1_555
C25 O11 1_555 1_555
C26 C25 1_555 1_555
C27 C6 1_555 1_555
C28 O10 1_555 1_555
H17 C28 1_555 1_555
H18 C28 1_555 1_555
C29 O9 1_555 1_555
C30 C29 1_555 1_555
C31 C2 1_555 1_555
C32 O7 1_555 1_555
H19 C32 1_555 1_555
H20 C32 1_555 1_555
C33 C30 1_555 1_555
C34 C33 1_555 1_555
C35 C34 1_555 1_555
C36 C35 1_555 1_555
C37 C36 1_555 1_555
H21 C37 1_555 1_555
H22 C37 1_555 1_555
H23 C37 1_555 1_555
C38 C36 1_555 1_555
H24 C38 1_555 1_555
H25 C38 1_555 1_555
H26 C38 1_555 1_555
C39 C36 1_555 1_555
H27 C39 1_555 1_555
H28 C39 1_555 1_555
H29 C39 1_555 1_555
C40 C35 1_555 1_555
C41 C40 1_555 1_555
C42 C41 1_555 1_555
C43 C42 1_555 1_555
H30 C43 1_555 1_555
H31 C43 1_555 1_555
H32 C43 1_555 1_555
C44 C42 1_555 1_555
H33 C44 1_555 1_555
H34 C44 1_555 1_555
H35 C44 1_555 1_555
C45 C42 1_555 1_555
H36 C45 1_555 1_555
H37 C45 1_555 1_555
H38 C45 1_555 1_555
C46 C41 1_555 1_555
C47 C46 1_555 1_555
C48 O2 1_555 1_555
C49 C48 1_555 1_555
H39 C49 1_555 1_555
H40 C49 1_555 1_555
H41 C49 1_555 1_555
C50 C48 1_555 1_555
H42 C50 1_555 1_555
H43 C50 1_555 1_555
H44 C50 1_555 1_555
C51 C26 1_555 1_555
C52 C51 1_555 1_555
C53 C52 1_555 1_555
C54 C53 1_555 1_555
C55 C54 1_555 1_555
H45 C55 1_555 1_555
H46 C55 1_555 1_555
H47 C55 1_555 1_555
C56 C54 1_555 1_555
H48 C56 1_555 1_555
H49 C56 1_555 1_555
H50 C56 1_555 1_555
C57 C54 1_555 1_555
H51 C57 1_555 1_555
H52 C57 1_555 1_555
H53 C57 1_555 1_555
C58 C53 1_555 1_555
C59 C58 1_555 1_555
C60 C59 1_555 1_555
C61 C60 1_555 1_555
H54 C61 1_555 1_555
H55 C61 1_555 1_555
H56 C61 1_555 1_555
C62 C60 1_555 1_555
H57 C62 1_555 1_555
H58 C62 1_555 1_555
H59 C62 1_555 1_555
C63 C60 1_555 1_555
H60 C63 1_555 1_555
H61 C63 1_555 1_555
H62 C63 1_555 1_555
C64 C59 1_555 1_555
C65 C64 1_555 1_555
C66 O1 1_555 1_555
C67 C66 1_555 1_555
H63 C67 1_555 1_555
H64 C67 1_555 1_555
H65 C67 1_555 1_555
C68 C66 1_555 1_555
H66 C68 1_555 1_555
H67 C68 1_555 1_555
H68 C68 1_555 1_555
C69 C22 1_555 1_555
C70 C69 1_555 1_555
C71 C70 1_555 1_555
C72 C71 1_555 1_555
C73 C72 1_555 1_555
H69 C73 1_555 1_555
H70 C73 1_555 1_555
H71 C73 1_555 1_555
C74 C72 1_555 1_555
H72 C74 1_555 1_555
H73 C74 1_555 1_555
H74 C74 1_555 1_555
C75 C72 1_555 1_555
H75 C75 1_555 1_555
H76 C75 1_555 1_555
H77 C75 1_555 1_555
C76 C71 1_555 1_555
C77 C76 1_555 1_555
C78 C77 1_555 1_555
C79 C78 1_555 1_555
H78 C79 1_555 1_555
H79 C79 1_555 1_555
H80 C79 1_555 1_555
C80 C78 1_555 1_555
H81 C80 1_555 1_555
H82 C80 1_555 1_555
H83 C80 1_555 1_555
C81 C78 1_555 1_555
H84 C81 1_555 1_555
H85 C81 1_555 1_555
H86 C81 1_555 1_555
C82 C77 1_555 1_555
C83 C82 1_555 1_555
C84 O4 1_555 1_555
C85 C84 1_555 1_555
H87 C85 1_555 1_555
H88 C85 1_555 1_555
H89 C85 1_555 1_555
C86 C84 1_555 1_555
H90 C86 1_555 1_555
H91 C86 1_555 1_555
H92 C86 1_555 1_555
C87 C18 1_555 1_555
C88 C87 1_555 1_555
C89 C88 1_555 1_555
C90 C89 1_555 1_555
C91 C90 1_555 1_555
H93 C91 1_555 1_555
H94 C91 1_555 1_555
H95 C91 1_555 1_555
C92 C90 1_555 1_555
H96 C92 1_555 1_555
H97 C92 1_555 1_555
H98 C92 1_555 1_555
C93 C90 1_555 1_555
H99 C93 1_555 1_555
H100 C93 1_555 1_555
H101 C93 1_555 1_555
C94 C89 1_555 1_555
C95 C94 1_555 1_555
C96 C95 1_555 1_555
C97 C96 1_555 1_555
H102 C97 1_555 1_555
H103 C97 1_555 1_555
H104 C97 1_555 1_555
C98 C96 1_555 1_555
H105 C98 1_555 1_555
H106 C98 1_555 1_555
H107 C98 1_555 1_555
C99 C96 1_555 1_555
H108 C99 1_555 1_555
H109 C99 1_555 1_555
H110 C99 1_555 1_555
C100 C95 1_555 1_555
C101 C100 1_555 1_555
C102 O3 1_555 1_555
C103 C102 1_555 1_555
H111 C103 1_555 1_555
H112 C103 1_555 1_555
H113 C103 1_555 1_555
C104 C102 1_555 1_555
H114 C104 1_555 1_555
H115 C104 1_555 1_555
H116 C104 1_555 1_555
C105 H117 1_555 1_555
H118 C105 1_555 1_555
H119 C105 1_555 1_555
C106 C105 1_555 1_555
H120 C106 1_555 1_555
H121 C106 1_555 1_555
C107 C106 1_555 1_555
H122 C107 1_555 1_555
H123 C107 1_555 1_555
C108 C107 1_555 1_555
H124 C108 1_555 1_555
H125 C108 1_555 1_555
C109 C108 1_555 1_555
H126 C109 1_555 1_555
H127 C109 1_555 1_555
C110 C13 1_555 1_555
H128 C110 1_555 1_555
H129 C110 1_555 1_555
C111 H130 1_555 1_555
H131 C111 1_555 1_555
C112 C111 1_555 1_555
H132 C112 1_555 1_555
H133 C112 1_555 1_555
C113 C1 1_555 1_555
H134 C113 1_555 1_555
H135 C113 1_555 1_555
C114 H136 1_555 1_555
H137 C114 1_555 1_555
C115 C114 1_555 1_555
H138 C115 1_555 1_555
H139 C115 1_555 1_555
C116 C5 1_555 1_555
H140 C116 1_555 1_555
H141 C116 1_555 1_555
C117 H142 1_555 1_555
H143 C117 1_555 1_555
C118 C117 1_555 1_555
H144 C118 1_555 1_555
H145 C118 1_555 1_555
C119 C118 1_555 1_555
H146 C119 1_555 1_555
H147 C119 1_555 1_555
C120 C9 1_555 1_555
H148 C120 1_555 1_555
H149 C120 1_555 1_555
C121 H150 1_555 1_555
H151 C121 1_555 1_555
H152 C121 1_555 1_555
C122 C121 1_555 1_555
H153 C122 1_555 1_555
H154 C122 1_555 1_555
C123 C111 1_555 1_555
H155 C123 1_555 1_555
H156 C123 1_555 1_555
C124 H157 1_555 1_555
H158 C124 1_555 1_555
H159 C124 1_555 1_555
C125 C124 1_555 1_555
H160 C125 1_555 1_555
H161 C125 1_555 1_555
C126 C114 1_555 1_555
H162 C126 1_555 1_555
H163 C126 1_555 1_555
C127 H164 1_555 1_555
H165 C127 1_555 1_555
H166 C127 1_555 1_555
C128 C117 1_555 1_555
H167 C128 1_555 1_555
H168 C128 1_555 1_555
F1 C141 1_555 1_555
C137 H194 1_555 1_555
H195 C137 1_555 1_555
C138 C137 1_555 1_555
H196 C138 1_555 1_555
H197 C138 1_555 1_555
C139 C137 1_555 1_555
H198 C139 1_555 1_555
H199 C139 1_555 1_555
C140 C138 1_555 1_555
H200 C140 1_555 1_555
H201 C140 1_555 1_555
C141 C140 1_555 1_555
H202 C141 1_555 1_555
C142 C139 1_555 1_555
H203 C142 1_555 1_555
H204 C142 1_555 1_555
N1 C150 1_555 1_555
C149 H216 1_555 1_555
H217 C149 1_555 1_555
H218 C149 1_555 1_555
C150 C149 1_555 1_555
O8 C32 1_555 1_555
C4 C29 1_555 1_555
C8 C25 1_555 1_555
C12 C21 1_555 1_555
C15 C16 1_555 1_555
C18 C19 1_555 1_555
C22 C23 1_555 1_555
C26 C27 1_555 1_555
C30 C31 1_555 1_555
C47 C48 1_555 1_555
C65 C66 1_555 1_555
C83 C84 1_555 1_555
C101 C102 1_555 1_555
C109 C110 1_555 1_555
C112 C113 1_555 1_555
C115 C116 1_555 1_555
C119 C120 1_555 1_555
C122 C123 1_555 1_555
C125 C126 1_555 1_555
C127 C128 1_555 1_555
C141 C142 1_555 1_555

#END
