
#######################################################################
#
#                 Cambridge Crystallographic Data Centre
#                                CCDC 
#
#######################################################################
#
# If this CIF has been generated from an entry in the Cambridge 
# Structural Database, then it will include bibliographic, chemical, 
# crystal, experimental, refinement or atomic coordinate data resulting 
# from the CCDC's data processing and validation procedures.
#
#######################################################################

data_MEDLUF
_chemical_formula_moiety         'C128 H168 O12,C6 H10 Cl2,C2 H3 N1'
_chemical_name_systematic        
"(M)-2,8,14,20-tetrahexyl-5,11,17,23-tetrakis(3,5-di-t-butyl-8-hydroxy-8-methylnona-3,4-diene-1,6-diyn-1-yl)-4,24:6,10:12,16:18,22-O,O'-tetramethylenecalix[4]resorcinarene (trans)-1,2-dichlorocyclohexane acetonitrile solvate"
_symmetry_cell_setting           orthorhombic
_symmetry_space_group_name_H-M   'P 21 21 21'
_symmetry_Int_Tables_number      19
_space_group_name_Hall           'P 2ac 2ab'
loop_
_symmetry_equiv_pos_site_id
_symmetry_equiv_pos_as_xyz
1 x,y,z
2 1/2-x,-y,1/2+z
3 -x,1/2+y,1/2-z
4 1/2+x,1/2-y,-z
_cell_length_a                   46.4365(4)
_cell_length_b                   18.25356(12)
_cell_length_c                   15.48278(10)
_cell_angle_alpha                90
_cell_angle_beta                 90
_cell_angle_gamma                90
_cell_volume                     13123.7
_exptl_crystal_colour            colorless
_exptl_crystal_description       block
_cell_formula_units_Z            4
_exptl_crystal_recrystallization_method water/acetonitrile
loop_
_atom_site_label
_atom_site_type_symbol
_atom_site_fract_x
_atom_site_fract_y
_atom_site_fract_z
O1 O 0.27055(10) 0.70375(19) 0.5516(2)
H1 H 0.2650 0.7459 0.5591
O2 O 0.27200(10) 0.85305(18) 0.5728(2)
H2 H 0.2826 0.8706 0.5359
O3 O 0.30654(9) 0.8733(2) 0.4298(2)
H3 H 0.2981 0.8360 0.4145
O4 O 0.29221(9) 0.7219(2) 0.3885(2)
H4 H 0.2844 0.7075 0.4329
O5 O 0.45723(7) 1.01030(14) 0.53144(18)
O6 O 0.47214(7) 0.92226(15) 0.43027(18)
O7 O 0.46966(7) 0.66097(15) 0.42803(18)
O8 O 0.45409(7) 0.57229(14) 0.52857(17)
O9 O 0.41546(6) 0.56989(14) 0.81280(18)
O10 O 0.40177(6) 0.65770(14) 0.91536(17)
O11 O 0.39971(6) 0.91827(14) 0.90940(18)
O12 O 0.41517(6) 1.00880(14) 0.81199(19)
C1 C 0.52723(17) 0.6949(4) 1.1453(4)
H5 H 0.5448 0.7216 1.1579
H6 H 0.5111 0.7259 1.1616
C2 C 0.52580(12) 0.6809(3) 1.0505(3)
H7 H 0.5378 0.6389 1.0370
H8 H 0.5337 0.7229 1.0203
C3 C 0.49541(11) 0.6667(2) 1.0168(3)
H9 H 0.4834 0.7085 1.0309
H10 H 0.4876 0.6243 1.0462
C4 C 0.49407(9) 0.6536(2) 0.9194(3)
H11 H 0.5036 0.6077 0.9063
H12 H 0.5045 0.6924 0.8902
C5 C 0.51578(12) 0.9242(3) 1.0782(3)
H13 H 0.5254 0.8797 1.0595
H14 H 0.5278 0.9651 1.0612
C6 C 0.48771(12) 0.9302(3) 1.0300(3)
H15 H 0.4780 0.9746 1.0482
H16 H 0.4756 0.8891 1.0462
C7 C 0.49059(10) 0.9313(2) 0.9320(3)
H17 H 0.5017 0.8892 0.9135
H18 H 0.5009 0.9751 0.9147
C8 C 0.6605(2) 0.9505(5) 0.4565(6)
H19 H 0.6598 0.9133 0.4126
H20 H 0.6800 0.9571 0.4751
H21 H 0.6532 0.9957 0.4334
C9 C 0.64216(15) 0.9272(5) 0.5324(5)
H22 H 0.6473 0.8779 0.5499
H23 H 0.6455 0.9598 0.5809
C10 C 0.61182(15) 0.9298(4) 0.5073(5)
H24 H 0.6087 0.8951 0.4609
H25 H 0.6076 0.9783 0.4849
C11 C 0.59008(11) 0.9125(3) 0.5820(4)
H26 H 0.5927 0.8624 0.6014
H27 H 0.5937 0.9448 0.6305
C12 C 0.55971(11) 0.9228(3) 0.5503(3)
H28 H 0.5549 0.8826 0.5119
H29 H 0.5588 0.9676 0.5168
C13 C 0.53684(9) 0.9267(2) 0.6226(3)
H30 H 0.5386 0.8842 0.6598
H31 H 0.5401 0.9701 0.6574
C14 C 0.66132(17) 0.7139(5) 0.4616(7)
H32 H 0.6634 0.6724 0.4239
H33 H 0.6798 0.7266 0.4852
H34 H 0.6538 0.7547 0.4295
C15 C 0.64049(14) 0.6946(4) 0.5352(5)
H35 H 0.6456 0.6471 0.5585
H36 H 0.6426 0.7304 0.5811
C16 C 0.60992(12) 0.6930(3) 0.5069(4)
H37 H 0.6080 0.6573 0.4608
H38 H 0.6050 0.7406 0.4831
C17 C 0.58830(11) 0.6743(3) 0.5779(3)
H39 H 0.5944 0.6296 0.6065
H40 H 0.5884 0.7132 0.6206
C18 C 0.55791(10) 0.6642(3) 0.5445(3)
H41 H 0.5577 0.6236 0.5039
H42 H 0.5523 0.7079 0.5132
C19 C 0.53568(9) 0.6492(2) 0.6152(3)
H43 H 0.5396 0.6020 0.6414
H44 H 0.5373 0.6863 0.6598
C20 C 0.46026(8) 0.7904(2) 0.8887(2)
H45 H 0.4801 0.7916 0.8806
C21 C 0.41579(9) 0.85457(19) 0.9024(2)
C22 C 0.40090(8) 0.7876(2) 0.9064(2)
C23 C 0.41673(9) 0.72277(19) 0.9045(2)
C24 C 0.44551(9) 0.85668(19) 0.8947(2)
C25 C 0.36993(9) 0.7860(2) 0.9118(2)
C26 C 0.34411(9) 0.7846(2) 0.9146(2)
C27 C 0.39421(9) 0.6207(2) 0.8387(3)
H46 H 0.3914 0.6563 0.7930
H47 H 0.3761 0.5952 0.8474
C28 C 0.44681(9) 0.72282(19) 0.8942(2)
C29 C 0.45670(10) 0.59459(19) 0.6137(3)
C30 C 0.50660(9) 0.9291(2) 0.5841(3)
H48 H 0.5068 0.9663 0.5384
C31 C 0.31322(9) 0.7864(2) 0.9192(2)
C32 C 0.43756(9) 0.98597(19) 0.7578(3)
C33 C 0.48004(9) 0.8571(2) 0.4698(3)
C34 C 0.41047(9) 1.0398(2) 0.6383(3)
C35 C 0.48175(9) 0.62831(19) 0.6432(3)
C36 C 0.41053(10) 0.7974(3) 0.2406(2)
C37 C 0.43391(9) 0.57751(18) 0.6701(2)
C38 C 0.46148(9) 0.95079(19) 0.7918(3)
C39 C 0.29814(9) 0.7321(2) 0.8881(2)
C40 C 0.43699(9) 0.59416(18) 0.7580(2)
C41 C 0.49771(9) 0.8569(2) 0.5421(3)
C42 C 0.48388(9) 0.9335(2) 0.7356(3)
H49 H 0.5001 0.9098 0.7573
C43 C 0.38875(10) 1.0671(2) 0.6115(3)
C44 C 0.48285(9) 0.95063(19) 0.6478(3)
C45 C 0.27330(10) 0.6724(2) 0.7729(3)
C46 C 0.46166(9) 0.62907(19) 0.7893(2)
C47 C 0.49663(9) 0.7228(2) 0.5398(2)
C48 C 0.45866(9) 0.98646(19) 0.6166(2)
C49 C 0.29462(10) 1.0250(2) 0.6381(3)
C50 C 0.50525(8) 0.7893(2) 0.5765(2)
H50 H 0.5165 0.7882 0.6261
C51 C 0.47876(9) 0.7252(2) 0.4682(3)
C52 C 0.35265(10) 0.4891(2) 0.5012(3)
C53 C 0.29919(10) 0.8536(2) 0.9634(3)
C54 C 0.28231(9) 0.6769(2) 0.8618(3)
C55 C 0.46105(9) 0.9300(2) 0.8870(3)
H51 H 0.4490 0.9664 0.9164
C56 C 0.38592(10) 0.5190(2) 0.6115(3)
C57 C 0.39534(10) 0.8577(3) 0.2298(3)
C58 C 0.44577(10) 0.6254(2) 0.4669(3)
H52 H 0.4337 0.6618 0.4947
H53 H 0.4344 0.6018 0.4222
C59 C 0.47007(9) 0.7917(2) 0.4320(2)
C60 C 0.37983(10) 0.9171(3) 0.2202(3)
C61 C 0.43554(9) 1.00419(19) 0.6704(3)
C62 C 0.35773(10) 0.4400(2) 0.3503(3)
C63 C 0.34620(10) 0.4940(2) 0.4185(3)
C64 C 0.36002(10) 0.4836(2) 0.5826(3)
C65 C 0.44865(10) 0.9593(2) 0.4685(3)
H54 H 0.4379 0.9845 0.4238
H55 H 0.4359 0.9236 0.4949
C66 C 0.43236(10) 0.7962(2) 0.3061(3)
C67 C 0.26598(11) 0.6662(2) 0.6983(3)
C68 C 0.27854(11) 0.9737(2) 0.6302(3)
C69 C 0.36371(10) 1.1021(2) 0.5764(3)
C70 C 0.40661(11) 0.7295(3) 0.1845(3)
C71 C 0.40788(10) 0.5450(2) 0.6385(3)
C72 C 0.32764(11) 0.5525(3) 0.3887(3)
C73 C 0.31421(10) 1.0850(2) 0.6550(3)
C74 C 0.33854(10) 1.0915(2) 0.6127(3)
C75 C 0.27277(11) 0.6146(3) 0.9227(3)
C76 C 0.33192(11) 0.9241(3) 0.3112(3)
C77 C 0.35354(10) 0.9217(3) 0.2691(3)
C78 C 0.45030(10) 0.7937(2) 0.3614(2)
C79 C 0.30788(11) 0.8516(3) 1.0594(3)
H56 H 0.3012 0.8068 1.0850
H57 H 0.2994 0.8925 1.0889
H58 H 0.3285 0.8544 1.0641
C80 C 0.39379(9) 0.9559(2) 0.8321(3)
H59 H 0.3753 0.9802 0.8372
H60 H 0.3925 0.9209 0.7852
C81 C 0.31275(12) 0.6023(3) 0.3630(3)
C82 C 0.36883(10) 1.1527(2) 0.4982(3)
C83 C 0.25577(13) 0.6563(3) 0.6088(3)
C84 C 0.30532(11) 0.9265(3) 0.3623(3)
C85 C 0.26652(11) 0.8501(3) 0.9561(3)
H61 H 0.2611 0.8490 0.8963
H62 H 0.2582 0.8924 0.9832
H63 H 0.2596 0.8066 0.9843
C86 C 0.38848(11) 0.9805(3) 0.1606(3)
C87 C 0.34223(11) 0.4418(3) 0.6503(3)
C88 C 0.25882(11) 0.9104(2) 0.6204(3)
C89 C 0.30504(11) 1.1408(2) 0.7241(3)
C90 C 0.37849(13) 0.3857(3) 0.3940(4)
H64 H 0.3947 0.4119 0.4168
H65 H 0.3850 0.3505 0.3524
H66 H 0.3687 0.3610 0.4402
C91 C 0.31094(11) 0.9229(2) 0.9211(3)
H67 H 0.3315 0.9240 0.9268
H68 H 0.3028 0.9652 0.9489
H69 H 0.3059 0.9232 0.8610
C92 C 0.36572(12) 0.9896(3) 0.0902(3)
H70 H 0.3653 0.9464 0.0548
H71 H 0.3704 1.0313 0.0551
H72 H 0.3472 0.9968 0.1164
C93 C 0.38108(13) 0.7383(3) 0.1242(3)
H73 H 0.3638 0.7444 0.1575
H74 H 0.3793 0.6954 0.0886
H75 H 0.3839 0.7805 0.0882
C94 C 0.29422(13) 0.6621(3) 0.3277(3)
C95 C 0.30076(12) 1.1001(3) 0.8094(3)
H76 H 0.2865 1.0625 0.8019
H77 H 0.2944 1.1340 0.8529
H78 H 0.3186 1.0784 0.8270
C96 C 0.34063(12) 1.1876(3) 0.4692(3)
H79 H 0.3269 1.1499 0.4565
H80 H 0.3440 1.2165 0.4183
H81 H 0.3333 1.2184 0.5143
C97 C 0.43415(12) 0.7191(3) 0.1306(3)
H82 H 0.4379 0.7627 0.0979
H83 H 0.4317 0.6785 0.0919
H84 H 0.4501 0.7095 0.1684
C98 C 0.31659(12) 0.4037(3) 0.6076(4)
H85 H 0.3053 0.4392 0.5768
H86 H 0.3049 0.3809 0.6511
H87 H 0.3234 0.3671 0.5681
C99 C 0.38144(13) 1.1071(3) 0.4249(3)
H88 H 0.3988 1.0836 0.4443
H89 H 0.3858 1.1384 0.3768
H90 H 0.3677 1.0707 0.4075
C100 C 0.33273(13) 0.3985(3) 0.3111(3)
H91 H 0.3222 0.3741 0.3560
H92 H 0.3399 0.3629 0.2708
H93 H 0.3202 0.4321 0.2816
C101 C 0.39053(11) 1.2116(3) 0.5245(3)
H94 H 0.3826 1.2409 0.5702
H95 H 0.3947 1.2422 0.4757
H96 H 0.4079 1.1887 0.5442
C102 C 0.28371(15) 0.6273(3) 1.0139(3)
H97 H 0.3043 0.6316 1.0131
H98 H 0.2783 0.5868 1.0498
H99 H 0.2755 0.6716 1.0365
C103 C 0.40257(15) 0.6626(3) 0.2423(3)
H100 H 0.4202 0.6525 0.2724
H101 H 0.3974 0.6210 0.2075
H102 H 0.3875 0.6720 0.2833
C104 C 0.32827(13) 1.1997(3) 0.7366(4)
H103 H 0.3452 1.1777 0.7608
H104 H 0.3212 1.2369 0.7751
H105 H 0.3329 1.2213 0.6818
C105 C 0.28471(15) 0.5423(3) 0.8892(4)
H106 H 0.2772 0.5329 0.8326
H107 H 0.2791 0.5034 0.9275
H108 H 0.3053 0.5449 0.8866
C106 C 0.36071(13) 0.3860(3) 0.6954(4)
H109 H 0.3687 0.3530 0.6535
H110 H 0.3492 0.3590 0.7358
H111 H 0.3760 0.4105 0.7255
C107 C 0.41813(12) 0.9658(3) 0.1208(3)
H112 H 0.4320 0.9585 0.1661
H113 H 0.4238 1.0069 0.0862
H114 H 0.4172 0.9227 0.0853
C108 C 0.27702(13) 1.1775(3) 0.6944(4)
H115 H 0.2806 1.2051 0.6427
H116 H 0.2702 1.2099 0.7389
H117 H 0.2628 1.1407 0.6831
C109 C 0.25272(14) 0.8792(3) 0.7097(3)
H118 H 0.2411 0.8361 0.7044
H119 H 0.2427 0.9151 0.7437
H120 H 0.2706 0.8669 0.7375
C110 C 0.37393(13) 0.4827(3) 0.2811(4)
H121 H 0.3607 0.5137 0.2505
H122 H 0.3827 0.4491 0.2414
H123 H 0.3885 0.5123 0.3078
C111 C 0.30253(13) 1.0007(3) 0.4062(4)
H124 H 0.2845 1.0033 0.4361
H125 H 0.3034 1.0388 0.3634
H126 H 0.3180 1.0070 0.4466
C112 C 0.26555(16) 0.6317(4) 0.3070(5)
H127 H 0.2574 0.6099 0.3579
H128 H 0.2674 0.5953 0.2627
H129 H 0.2532 0.6703 0.2871
C113 C 0.23979(14) 0.6121(4) 0.9232(4)
H130 H 0.2324 0.6582 0.9431
H131 H 0.2334 0.5737 0.9609
H132 H 0.2329 0.6028 0.8657
C114 C 0.28001(12) 0.9110(3) 0.3052(4)
H133 H 0.2818 0.8628 0.2811
H134 H 0.2794 0.9464 0.2594
H135 H 0.2626 0.9140 0.3385
C115 C 0.39003(15) 1.0506(3) 0.2151(3)
H136 H 0.3720 1.0581 0.2441
H137 H 0.3940 1.0917 0.1782
H138 H 0.4051 1.0460 0.2571
C116 C 0.30886(17) 0.6959(4) 0.2499(4)
H139 H 0.2985 0.7389 0.2323
H140 H 0.3091 0.6611 0.2034
H141 H 0.3282 0.7091 0.2647
C117 C 0.23165(14) 0.9341(3) 0.5755(4)
H142 H 0.2362 0.9517 0.5187
H143 H 0.2227 0.9726 0.6080
H144 H 0.2187 0.8933 0.5712
C118 C 0.22391(17) 0.6730(5) 0.6054(5)
H145 H 0.2211 0.7251 0.6072
H146 H 0.2145 0.6508 0.6540
H147 H 0.2159 0.6538 0.5529
C119 C 0.33117(15) 0.4959(4) 0.7188(4)
H148 H 0.3472 0.5180 0.7478
H149 H 0.3195 0.4702 0.7601
H150 H 0.3199 0.5333 0.6913
C120 C 0.2630(2) 0.5802(3) 0.5781(4)
H151 H 0.2616 0.5783 0.5163
H152 H 0.2497 0.5458 0.6030
H153 H 0.2822 0.5679 0.5955
C121 C 0.46312(9) 0.6508(2) 0.8844(2)
H154 H 0.4527 0.6135 0.9174
C122 C 0.50532(9) 0.6495(2) 0.5795(3)
H155 H 0.5048 0.6132 0.5329
C123 C 0.48347(9) 0.64551(18) 0.7310(2)
H156 H 0.4999 0.6690 0.7512
C124 C 0.5301(4) 0.6421(14) 1.2920(8)
H157 H 0.5236 0.6907 1.3055
H158 H 0.5500 0.6374 1.3073
H159 H 0.5190 0.6071 1.3240
C125 C 0.5266(4) 0.6284(8) 1.1981(8)
H160 H 0.5418 0.5959 1.1790
H161 H 0.5084 0.6036 1.1887
C126 C 0.5400(5) 0.925(2) 1.3184(10)
H162 H 0.5304 0.9705 1.3320
H163 H 0.5588 0.9250 1.3441
H164 H 0.5289 0.8850 1.3406
C127 C 0.5428(5) 0.9179(16) 1.2199(10)
H165 H 0.5554 0.9561 1.1985
H166 H 0.5516 0.8711 1.2064
C128 C 0.5143(4) 0.9231(12) 1.1748(8)
H167 H 0.5025 0.8817 1.1923
H168 H 0.5046 0.9673 1.1940
C134 C 0.35435(17) 0.7286(4) 0.6531(5)
H185 H 0.3383 0.7192 0.6916
H186 H 0.3688 0.6913 0.6635
C135 C 0.36665(18) 0.8016(4) 0.6726(5)
H187 H 0.3758 0.7991 0.7297
C136 C 0.3673(2) 0.7455(6) 0.4960(7)
H188 H 0.3826 0.7094 0.4986
H189 H 0.3595 0.7450 0.4378
C137 C 0.3796(2) 0.8184(6) 0.5134(6)
H190 H 0.3654 0.8555 0.4989
H191 H 0.3962 0.8257 0.4762
C138 C 0.3438(2) 0.7231(6) 0.5578(6)
H192 H 0.3379 0.6732 0.5455
H193 H 0.3272 0.7547 0.5497
Cl1 Cl 0.33887(5) 0.87079(14) 0.67684(16)
Cl2 Cl 0.42206(5) 0.77685(18) 0.6269(2)
C139 C 0.38897(18) 0.8287(5) 0.6088(5)
H194 H 0.3927 0.8808 0.6195
N1 N 0.46026(11) 0.2875(3) 0.7002(3)
C145 C 0.43340(13) 0.3682(4) 0.5876(7)
H205 H 0.4474 0.3943 0.5540
H206 H 0.4210 0.4025 0.6161
H207 H 0.4222 0.3374 0.5502
C146 C 0.44838(12) 0.3221(3) 0.6534(4)
H169? H 0.5141 0.7354 1.1552
H170? H 0.5183 0.6524 1.1717
H171? H 0.5305 0.9519 1.0480
H172? H 0.5218 0.8733 1.0800
C129? C 0.5495(4) 0.7181(14) 1.2919(7)
H173? H 0.5352 0.7540 1.3063
H174? H 0.5679 0.7334 1.3139
H175? H 0.5443 0.6719 1.3172
C130? C 0.5512(2) 0.7103(9) 1.1972(6)
H176? H 0.5595 0.7554 1.1754
H177? H 0.5652 0.6720 1.1859
C131? C 0.5379(5) 0.985(2) 1.3126(10)
H178? H 0.5313 1.0351 1.3086
H179? H 0.5564 0.9845 1.3407
H180? H 0.5244 0.9571 1.3455
C132? C 0.5408(3) 0.9530(14) 1.2219(8)
H181? H 0.5551 0.9806 1.1898
H182? H 0.5475 0.9029 1.2264
C133? C 0.5128(3) 0.9540(14) 1.1728(8)
H183? H 0.5056 1.0039 1.1707
H184? H 0.4988 0.9246 1.2036
H195? H 0.3445 0.6817 0.6524
H196? H 0.3618 0.7358 0.7110
Cl3? Cl 0.3632(2) 0.6896(5) 0.4938(7)
Cl4? Cl 0.41969(16) 0.8087(5) 0.6540(6)
C140? C 0.3805(5) 0.7246(11) 0.5886(14)
H197? H 0.3948 0.6893 0.6095
C141? C 0.3956(5) 0.7962(12) 0.5610(15)
H198? H 0.4063 0.7904 0.5069
C142? C 0.3745(6) 0.8580(13) 0.557(2)
H199? H 0.3657 0.8532 0.4999
H200? H 0.3863 0.9017 0.5537
C143? C 0.3490(7) 0.8794(15) 0.618(2)
H201? H 0.3354 0.9120 0.5895
H202? H 0.3557 0.9014 0.6709
C144? C 0.3334(7) 0.7856(18) 0.636(3)
H203? H 0.3200 0.7881 0.6837
H204? H 0.3224 0.7719 0.5847
loop_
_geom_bond_atom_site_label_1
_geom_bond_atom_site_label_2
_geom_bond_site_symmetry_1
_geom_bond_site_symmetry_2
O1 H1 1_555 1_555
O2 H2 1_555 1_555
O3 H3 1_555 1_555
O4 H4 1_555 1_555
O5 C48 1_555 1_555
O6 C33 1_555 1_555
O7 C51 1_555 1_555
O8 C29 1_555 1_555
O9 C27 1_555 1_555
O10 C23 1_555 1_555
O11 C21 1_555 1_555
O12 C32 1_555 1_555
C1 H5 1_555 1_555
H6 C1 1_555 1_555
C2 C1 1_555 1_555
H7 C2 1_555 1_555
H8 C2 1_555 1_555
C3 C2 1_555 1_555
H9 C3 1_555 1_555
H10 C3 1_555 1_555
C4 C3 1_555 1_555
H11 C4 1_555 1_555
H12 C4 1_555 1_555
C5 H13 1_555 1_555
H14 C5 1_555 1_555
C6 C5 1_555 1_555
H15 C6 1_555 1_555
H16 C6 1_555 1_555
C7 C6 1_555 1_555
H17 C7 1_555 1_555
H18 C7 1_555 1_555
C8 H19 1_555 1_555
H20 C8 1_555 1_555
H21 C8 1_555 1_555
C9 C8 1_555 1_555
H22 C9 1_555 1_555
H23 C9 1_555 1_555
C10 C9 1_555 1_555
H24 C10 1_555 1_555
H25 C10 1_555 1_555
C11 C10 1_555 1_555
H26 C11 1_555 1_555
H27 C11 1_555 1_555
C12 C11 1_555 1_555
H28 C12 1_555 1_555
H29 C12 1_555 1_555
C13 C12 1_555 1_555
H30 C13 1_555 1_555
H31 C13 1_555 1_555
C14 H32 1_555 1_555
H33 C14 1_555 1_555
H34 C14 1_555 1_555
C15 C14 1_555 1_555
H35 C15 1_555 1_555
H36 C15 1_555 1_555
C16 C15 1_555 1_555
H37 C16 1_555 1_555
H38 C16 1_555 1_555
C17 C16 1_555 1_555
H39 C17 1_555 1_555
H40 C17 1_555 1_555
C18 C17 1_555 1_555
H41 C18 1_555 1_555
H42 C18 1_555 1_555
C19 C18 1_555 1_555
H43 C19 1_555 1_555
H44 C19 1_555 1_555
C20 H45 1_555 1_555
C21 C22 1_555 1_555
C22 C23 1_555 1_555
C23 C28 1_555 1_555
C24 C20 1_555 1_555
C25 C22 1_555 1_555
C26 C25 1_555 1_555
C27 O10 1_555 1_555
H46 C27 1_555 1_555
H47 C27 1_555 1_555
C28 C20 1_555 1_555
C29 C35 1_555 1_555
C30 C13 1_555 1_555
H48 C30 1_555 1_555
C31 C26 1_555 1_555
C32 C38 1_555 1_555
C33 C41 1_555 1_555
C34 C43 1_555 1_555
C35 C122 1_555 1_555
C36 C57 1_555 1_555
C37 C29 1_555 1_555
C38 C42 1_555 1_555
C39 C31 1_555 1_555
C40 O9 1_555 1_555
C41 C30 1_555 1_555
C42 H49 1_555 1_555
C43 C69 1_555 1_555
C44 C30 1_555 1_555
C45 C54 1_555 1_555
C46 C40 1_555 1_555
C47 C50 1_555 1_555
C48 C44 1_555 1_555
C49 C68 1_555 1_555
C50 C41 1_555 1_555
H50 C50 1_555 1_555
C51 C47 1_555 1_555
C52 C63 1_555 1_555
C53 C31 1_555 1_555
C54 C39 1_555 1_555
C55 C7 1_555 1_555
H51 C55 1_555 1_555
C56 C64 1_555 1_555
C57 C60 1_555 1_555
C58 O7 1_555 1_555
H52 C58 1_555 1_555
H53 C58 1_555 1_555
C59 C33 1_555 1_555
C60 C77 1_555 1_555
C61 C32 1_555 1_555
C62 C63 1_555 1_555
C63 C72 1_555 1_555
C64 C52 1_555 1_555
C65 O5 1_555 1_555
H54 C65 1_555 1_555
H55 C65 1_555 1_555
C66 C36 1_555 1_555
C67 C45 1_555 1_555
C68 C88 1_555 1_555
C69 C74 1_555 1_555
C70 C36 1_555 1_555
C71 C37 1_555 1_555
C72 C81 1_555 1_555
C73 C49 1_555 1_555
C74 C73 1_555 1_555
C75 C54 1_555 1_555
C76 C77 1_555 1_555
C78 C59 1_555 1_555
C79 C53 1_555 1_555
H56 C79 1_555 1_555
H57 C79 1_555 1_555
H58 C79 1_555 1_555
C80 O11 1_555 1_555
H59 C80 1_555 1_555
H60 C80 1_555 1_555
C81 C94 1_555 1_555
C82 C69 1_555 1_555
C83 O1 1_555 1_555
C84 O3 1_555 1_555
C85 C53 1_555 1_555
H61 C85 1_555 1_555
H62 C85 1_555 1_555
H63 C85 1_555 1_555
C86 C60 1_555 1_555
C87 C64 1_555 1_555
C88 O2 1_555 1_555
C89 C73 1_555 1_555
C90 C62 1_555 1_555
H64 C90 1_555 1_555
H65 C90 1_555 1_555
H66 C90 1_555 1_555
C91 C53 1_555 1_555
H67 C91 1_555 1_555
H68 C91 1_555 1_555
H69 C91 1_555 1_555
C92 C86 1_555 1_555
H70 C92 1_555 1_555
H71 C92 1_555 1_555
H72 C92 1_555 1_555
C93 C70 1_555 1_555
H73 C93 1_555 1_555
H74 C93 1_555 1_555
H75 C93 1_555 1_555
C94 O4 1_555 1_555
C95 C89 1_555 1_555
H76 C95 1_555 1_555
H77 C95 1_555 1_555
H78 C95 1_555 1_555
C96 C82 1_555 1_555
H79 C96 1_555 1_555
H80 C96 1_555 1_555
H81 C96 1_555 1_555
C97 C70 1_555 1_555
H82 C97 1_555 1_555
H83 C97 1_555 1_555
H84 C97 1_555 1_555
C98 C87 1_555 1_555
H85 C98 1_555 1_555
H86 C98 1_555 1_555
H87 C98 1_555 1_555
C99 C82 1_555 1_555
H88 C99 1_555 1_555
H89 C99 1_555 1_555
H90 C99 1_555 1_555
C100 C62 1_555 1_555
H91 C100 1_555 1_555
H92 C100 1_555 1_555
H93 C100 1_555 1_555
C101 C82 1_555 1_555
H94 C101 1_555 1_555
H95 C101 1_555 1_555
H96 C101 1_555 1_555
C102 C75 1_555 1_555
H97 C102 1_555 1_555
H98 C102 1_555 1_555
H99 C102 1_555 1_555
C103 C70 1_555 1_555
H100 C103 1_555 1_555
H101 C103 1_555 1_555
H102 C103 1_555 1_555
C104 C89 1_555 1_555
H103 C104 1_555 1_555
H104 C104 1_555 1_555
H105 C104 1_555 1_555
C105 C75 1_555 1_555
H106 C105 1_555 1_555
H107 C105 1_555 1_555
H108 C105 1_555 1_555
C106 C87 1_555 1_555
H109 C106 1_555 1_555
H110 C106 1_555 1_555
H111 C106 1_555 1_555
C107 C86 1_555 1_555
H112 C107 1_555 1_555
H113 C107 1_555 1_555
H114 C107 1_555 1_555
C108 C89 1_555 1_555
H115 C108 1_555 1_555
H116 C108 1_555 1_555
H117 C108 1_555 1_555
C109 C88 1_555 1_555
H118 C109 1_555 1_555
H119 C109 1_555 1_555
H120 C109 1_555 1_555
C110 C62 1_555 1_555
H121 C110 1_555 1_555
H122 C110 1_555 1_555
H123 C110 1_555 1_555
C111 C84 1_555 1_555
H124 C111 1_555 1_555
H125 C111 1_555 1_555
H126 C111 1_555 1_555
C112 C94 1_555 1_555
H127 C112 1_555 1_555
H128 C112 1_555 1_555
H129 C112 1_555 1_555
C113 C75 1_555 1_555
H130 C113 1_555 1_555
H131 C113 1_555 1_555
H132 C113 1_555 1_555
C114 C84 1_555 1_555
H133 C114 1_555 1_555
H134 C114 1_555 1_555
H135 C114 1_555 1_555
C115 C86 1_555 1_555
H136 C115 1_555 1_555
H137 C115 1_555 1_555
H138 C115 1_555 1_555
C116 C94 1_555 1_555
H139 C116 1_555 1_555
H140 C116 1_555 1_555
H141 C116 1_555 1_555
C117 C88 1_555 1_555
H142 C117 1_555 1_555
H143 C117 1_555 1_555
H144 C117 1_555 1_555
C118 C83 1_555 1_555
H145 C118 1_555 1_555
H146 C118 1_555 1_555
H147 C118 1_555 1_555
C119 C87 1_555 1_555
H148 C119 1_555 1_555
H149 C119 1_555 1_555
H150 C119 1_555 1_555
C120 C83 1_555 1_555
H151 C120 1_555 1_555
H152 C120 1_555 1_555
H153 C120 1_555 1_555
C121 C4 1_555 1_555
H154 C121 1_555 1_555
C122 C19 1_555 1_555
H155 C122 1_555 1_555
C123 C35 1_555 1_555
H156 C123 1_555 1_555
C124 H157 1_555 1_555
H158 C124 1_555 1_555
H159 C124 1_555 1_555
C125 C1 1_555 1_555
H160 C125 1_555 1_555
H161 C125 1_555 1_555
C126 H162 1_555 1_555
H163 C126 1_555 1_555
H164 C126 1_555 1_555
C127 C126 1_555 1_555
H165 C127 1_555 1_555
H166 C127 1_555 1_555
C128 C5 1_555 1_555
H167 C128 1_555 1_555
H168 C128 1_555 1_555
C134 H185 1_555 1_555
H186 C134 1_555 1_555
C135 C134 1_555 1_555
H187 C135 1_555 1_555
C136 H188 1_555 1_555
H189 C136 1_555 1_555
C137 C136 1_555 1_555
H190 C137 1_555 1_555
H191 C137 1_555 1_555
C138 C134 1_555 1_555
H192 C138 1_555 1_555
H193 C138 1_555 1_555
Cl1 C135 1_555 1_555
Cl2 C139 1_555 1_555
C139 C135 1_555 1_555
H194 C139 1_555 1_555
N1 C146 1_555 1_555
C145 H205 1_555 1_555
H206 C145 1_555 1_555
H207 C145 1_555 1_555
C146 C145 1_555 1_555
O6 C65 1_555 1_555
O8 C58 1_555 1_555
O12 C80 1_555 1_555
C21 C24 1_555 1_555
C24 C55 1_555 1_555
C28 C121 1_555 1_555
C34 C61 1_555 1_555
C37 C40 1_555 1_555
C38 C55 1_555 1_555
C42 C44 1_555 1_555
C46 C121 1_555 1_555
C46 C123 1_555 1_555
C47 C122 1_555 1_555
C48 C61 1_555 1_555
C51 C59 1_555 1_555
C56 C71 1_555 1_555
C66 C78 1_555 1_555
C67 C83 1_555 1_555
C76 C84 1_555 1_555
C124 C125 1_555 1_555
C127 C128 1_555 1_555
C136 C138 1_555 1_555
C137 C139 1_555 1_555

#END
