
#######################################################################
#
#                 Cambridge Crystallographic Data Centre
#                                CCDC 
#
#######################################################################
#
# If this CIF has been generated from an entry in the Cambridge 
# Structural Database, then it will include bibliographic, chemical, 
# crystal, experimental, refinement or atomic coordinate data resulting 
# from the CCDC's data processing and validation procedures.
#
#######################################################################

data_MEDNOA
_chemical_name_common            
'N-(1-Hydroxyethylidene)-2-(6-methoxy-1-naphthyl)ethanaminium bromide monohydrate'
_chemical_formula_moiety         'C15 H18 N1 O2 1+,Br1 1-,H2 O1'
_chemical_name_systematic        
'(1-([2-(6-Methoxynaphthalen-1-yl)ethyl]amino)ethylidene)oxidaniumbromide monohydrate'
_symmetry_cell_setting           monoclinic
_symmetry_space_group_name_H-M   'P 21/c'
_symmetry_Int_Tables_number      14
_space_group_name_Hall           '-P 2ybc'
loop_
_symmetry_equiv_pos_site_id
_symmetry_equiv_pos_as_xyz
1 x,y,z
2 -x,1/2+y,1/2-z
3 -x,-y,-z
4 x,1/2-y,1/2+z
_cell_length_a                   11.93760(10)
_cell_length_b                   7.37610(10)
_cell_length_c                   18.1618(2)
_cell_angle_alpha                90
_cell_angle_beta                 102.9790(10)
_cell_angle_gamma                90
_cell_volume                     1558.34
_exptl_crystal_colour            colorless
_exptl_crystal_description       block
_cell_formula_units_Z            4
loop_
_atom_site_label
_atom_site_type_symbol
_atom_site_fract_x
_atom_site_fract_y
_atom_site_fract_z
Br1 Br 0.047030(18) 0.82862(3) 0.374825(12)
C1 C 0.18049(16) 0.6564(2) 0.59156(11)
N1 N 0.23448(14) 0.7093(2) 0.54133(9)
H1 H 0.1960(19) 0.755(3) 0.5004(9)
C2 C 0.36006(15) 0.7004(3) 0.55098(11)
H2 H 0.3867 0.5776 0.5633
H3 H 0.3971 0.7795 0.5919
C3 C 0.38986(15) 0.7593(3) 0.47803(11)
H4 H 0.3548 0.6751 0.4386
H5 H 0.3559 0.8775 0.4643
O1 O 0.24057(12) 0.5884(2) 0.65337(8)
H6 H 0.198(2) 0.558(4) 0.6812(15)
C4 C 0.05402(18) 0.6761(3) 0.57906(14)
H7 H 0.0211 0.5633 0.5901
H8 H 0.0227 0.7087 0.5274
H9 H 0.0363 0.7691 0.6117
C5 C 0.51665(15) 0.7706(2) 0.47987(10)
C6 C 0.59920(17) 0.7316(3) 0.54357(11)
H10 H 0.5770 0.6948 0.5872
C7 C 0.71684(17) 0.7463(3) 0.54415(11)
H11 H 0.7712 0.7217 0.5883
C8 C 0.75204(16) 0.7961(3) 0.48073(12)
H12 H 0.8302 0.8033 0.4818
C9 C 0.67075(16) 0.8371(2) 0.41334(11)
C10 C 0.70719(16) 0.8917(3) 0.34784(11)
H13 H 0.7852 0.8970 0.3485
C11 C 0.62818(16) 0.9367(3) 0.28367(10)
C12 C 0.50984(17) 0.9290(3) 0.28244(11)
H14 H 0.4564 0.9610 0.2387
C13 C 0.47317(16) 0.8753(3) 0.34453(11)
H15 H 0.3947 0.8702 0.3423
C14 C 0.55160(15) 0.8264(2) 0.41291(10)
O2 O 0.65468(12) 0.9909(2) 0.21755(8)
C15 C 0.77221(19) 1.0213(3) 0.21896(12)
H16 H 0.7795 1.0691 0.1711
H17 H 0.8135 0.9090 0.2285
H18 H 0.8033 1.1065 0.2582
O3 O 0.12755(17) 0.4503(3) 0.74000(11)
H19 H 0.076(2) 0.382(4) 0.7181(18)
H20 H 0.102(2) 0.514(4) 0.7696(15)
loop_
_geom_bond_atom_site_label_1
_geom_bond_atom_site_label_2
_geom_bond_site_symmetry_1
_geom_bond_site_symmetry_2
C1 N1 1_555 1_555
N1 H1 1_555 1_555
C2 N1 1_555 1_555
H2 C2 1_555 1_555
H3 C2 1_555 1_555
C3 C2 1_555 1_555
H4 C3 1_555 1_555
H5 C3 1_555 1_555
O1 C1 1_555 1_555
H6 O1 1_555 1_555
C4 C1 1_555 1_555
H7 C4 1_555 1_555
H8 C4 1_555 1_555
H9 C4 1_555 1_555
C5 C3 1_555 1_555
C6 C5 1_555 1_555
H10 C6 1_555 1_555
C7 C6 1_555 1_555
H11 C7 1_555 1_555
C8 C7 1_555 1_555
H12 C8 1_555 1_555
C9 C8 1_555 1_555
C10 C9 1_555 1_555
H13 C10 1_555 1_555
C11 C10 1_555 1_555
C12 C11 1_555 1_555
H14 C12 1_555 1_555
C13 C12 1_555 1_555
H15 C13 1_555 1_555
C14 C5 1_555 1_555
O2 C11 1_555 1_555
C15 O2 1_555 1_555
H16 C15 1_555 1_555
H17 C15 1_555 1_555
H18 C15 1_555 1_555
O3 H19 1_555 1_555
H20 O3 1_555 1_555
C9 C14 1_555 1_555
C13 C14 1_555 1_555

#END
