
#######################################################################
#
#                 Cambridge Crystallographic Data Centre
#                                CCDC 
#
#######################################################################
#
# If this CIF has been generated from an entry in the Cambridge 
# Structural Database, then it will include bibliographic, chemical, 
# crystal, experimental, refinement or atomic coordinate data resulting 
# from the CCDC's data processing and validation procedures.
#
#######################################################################

data_MEDNAN
_chemical_formula_moiety         'C128 H168 O12,C6 H10 Br2,C2 H3 N1'
_chemical_name_systematic        
"(M)-2,8,14,20-tetrahexyl-5,11,17,23-tetrakis(3,5-di-t-butyl-8-hydroxy-8-methylnona-3,4-diene-1,6-diyn-1-yl)-4,24:6,10:12,16:18,22-O,O'-tetramethylenecalix[4]resorcinarene (trans)-1,2-dibromocyclohexane acetonitrile solvate"
_symmetry_cell_setting           orthorhombic
_symmetry_space_group_name_H-M   'P 21 21 21'
_symmetry_Int_Tables_number      19
_space_group_name_Hall           'P 2ac 2ab'
loop_
_symmetry_equiv_pos_site_id
_symmetry_equiv_pos_as_xyz
1 x,y,z
2 1/2-x,-y,1/2+z
3 -x,1/2+y,1/2-z
4 1/2+x,1/2-y,-z
_cell_length_a                   15.46290(10)
_cell_length_b                   18.22110(10)
_cell_length_c                   46.7056(3)
_cell_angle_alpha                90
_cell_angle_beta                 90
_cell_angle_gamma                90
_cell_volume                     13159.4
_exptl_crystal_colour            colorless
_exptl_crystal_description       plate
_cell_formula_units_Z            4
_exptl_crystal_recrystallization_method water/acetonitrile
loop_
_atom_site_label
_atom_site_type_symbol
_atom_site_fract_x
_atom_site_fract_y
_atom_site_fract_z
O1 O 0.13650(17) 0.53032(15) 0.54337(7)
H1 H 0.1799 0.5447 0.5350
O2 O 0.17994(17) 0.38031(15) 0.55643(6)
H2 H 0.1593 0.4217 0.5553
O3 O 0.31749(19) 0.39572(14) 0.51902(7)
H3 H 0.2843 0.3790 0.5311
O4 O 0.29985(17) 0.54550(15) 0.52053(7)
H4 H 0.3183 0.5034 0.5194
O5 O 0.56109(14) 0.68496(12) 0.66600(5)
O6 O 0.66409(14) 0.59742(12) 0.65246(5)
O7 O 0.65959(14) 0.33643(12) 0.65002(5)
O8 O 0.56213(14) 0.24527(11) 0.66539(5)
O9 O 0.28116(14) 0.24387(12) 0.70670(5)
O10 O 0.17977(14) 0.33189(12) 0.72189(5)
O11 O 0.17657(15) 0.59373(13) 0.72005(5)
O12 O 0.27681(14) 0.68284(12) 0.70461(5)
C1 C 0.8952(3) 0.5599(3) 0.77716(13)
H5 H 0.9052 0.5186 0.7645
H6 H 0.9215 0.6019 0.7679
C2 C 0.7994(3) 0.5738(2) 0.77571(9)
H7 H 0.7858 0.6159 0.7876
H8 H 0.7693 0.5317 0.7837
C3 C 0.7659(2) 0.5876(2) 0.74567(8)
H9 H 0.7798 0.5456 0.7338
H10 H 0.7957 0.6299 0.7378
C4 C 0.6688(2) 0.60129(18) 0.74414(7)
H11 H 0.6559 0.6474 0.7536
H12 H 0.6392 0.5626 0.7545
C5 C 0.8283(2) 0.3307(3) 0.76566(9)
H13 H 0.7988 0.3021 0.7802
H14 H 0.8284 0.3816 0.7718
C6 C 0.7800(2) 0.3241(2) 0.73753(8)
H15 H 0.7981 0.2793 0.7281
H16 H 0.7963 0.3650 0.7253
C7 C 0.6820(2) 0.32328(18) 0.74037(7)
H17 H 0.6637 0.3657 0.7514
H18 H 0.6645 0.2796 0.7507
C8 C 0.2106(4) 0.3023(4) 0.91088(13)
H19 H 0.1915 0.2539 0.9059
H20 H 0.1635 0.3362 0.9088
H21 H 0.2304 0.3026 0.9304
C9 C 0.2834(4) 0.3248(3) 0.89140(11)
H22 H 0.3014 0.3743 0.8962
H23 H 0.3323 0.2924 0.8944
C10 C 0.2571(3) 0.3220(3) 0.86090(10)
H24 H 0.2097 0.3560 0.8580
H25 H 0.2358 0.2731 0.8567
C11 C 0.3310(3) 0.3410(2) 0.83917(8)
H26 H 0.3489 0.3916 0.8419
H27 H 0.3806 0.3097 0.8427
C12 C 0.3007(2) 0.3305(2) 0.80905(8)
H28 H 0.2620 0.3705 0.8042
H29 H 0.2675 0.2853 0.8081
C13 C 0.3724(2) 0.32693(18) 0.78639(7)
H30 H 0.4098 0.3694 0.7883
H31 H 0.4072 0.2833 0.7894
C14 C 0.2102(5) 0.5382(4) 0.91072(12)
H32 H 0.1841 0.4928 0.9048
H33 H 0.1675 0.5765 0.9104
H34 H 0.2326 0.5331 0.9298
C15 C 0.2843(4) 0.5578(3) 0.89010(10)
H35 H 0.3077 0.6053 0.8954
H36 H 0.3301 0.5218 0.8921
C16 C 0.2555(3) 0.5602(2) 0.85938(9)
H37 H 0.2090 0.5956 0.8576
H38 H 0.2324 0.5125 0.8542
C17 C 0.3271(3) 0.5804(2) 0.83821(8)
H39 H 0.3540 0.6258 0.8443
H40 H 0.3709 0.5423 0.8385
C18 C 0.2938(2) 0.5896(2) 0.80781(8)
H41 H 0.2525 0.6296 0.8075
H42 H 0.2634 0.5452 0.8023
C19 C 0.3642(2) 0.60508(18) 0.78581(7)
H43 H 0.4089 0.5679 0.7873
H44 H 0.3904 0.6523 0.7899
C20 C 0.65195(18) 0.39989(17) 0.66624(7)
C21 C 0.3337(2) 0.32506(17) 0.75621(7)
H45 H 0.2879 0.2879 0.7564
C22 C 0.5420(2) 0.30311(16) 0.71142(7)
C23 C 0.63813(18) 0.46403(17) 0.71051(7)
H46 H 0.6302 0.4629 0.7302
C24 C 0.64440(19) 0.39777(17) 0.69583(7)
C25 C 0.4851(2) 0.32084(16) 0.73381(7)
H47 H 0.5066 0.3449 0.7499
C26 C 0.3973(2) 0.30339(16) 0.73265(7)
C27 C 0.65558(18) 0.46700(18) 0.65134(6)
C28 C 0.5083(2) 0.26790(16) 0.68754(7)
C29 C 0.6333(2) 0.60417(17) 0.71352(7)
H48 H 0.6663 0.6417 0.7032
C30 C 0.65313(18) 0.53217(17) 0.66737(7)
C31 C 0.5877(2) 0.63407(18) 0.64498(7)
H49 H 0.5421 0.5983 0.6421
H50 H 0.5965 0.6597 0.6270
C32 C 0.4182(2) 0.67713(16) 0.68446(7)
C33 C 0.4799(2) 0.60937(16) 0.73374(7)
H51 H 0.5003 0.5858 0.7500
C34 C 0.66330(18) 0.46938(18) 0.59500(7)
C35 C 0.28871(19) 0.53209(18) 0.74685(7)
C36 C 0.3878(2) 0.21503(17) 0.66037(7)
C37 C 0.2169(2) 0.52927(18) 0.72914(7)
C38 C 0.66069(18) 0.46877(18) 0.62075(7)
C39 C -0.0206(2) 0.3974(2) 0.64553(8)
C40 C 0.3623(2) 0.18813(18) 0.63846(8)
C41 C 0.2916(2) 0.39758(17) 0.74744(7)
C42 C 0.3624(2) 0.66053(16) 0.70716(7)
C43 C 0.66799(18) 0.46630(19) 0.56421(7)
C44 C 0.3280(2) 0.60536(17) 0.75546(7)
H52 H 0.2813 0.6417 0.7550
C45 C 0.32583(19) 0.46519(18) 0.75517(6)
H53 H 0.3756 0.4662 0.7664
C46 C 0.5064(2) 0.66061(16) 0.68755(7)
C47 C 0.5383(2) 0.62610(17) 0.71196(7)
C48 C 0.3875(2) 0.22641(19) 0.54413(7)
C49 C 0.1664(2) 0.7585(2) 0.59641(8)
C50 C 0.2188(2) 0.39721(17) 0.72996(7)
C51 C 0.3267(2) 0.15242(18) 0.61366(7)
C52 C 0.4205(2) 0.24976(16) 0.68554(7)
C53 C 0.6374(2) 0.32434(17) 0.71129(7)
H54 H 0.6673 0.2882 0.6993
C54 C 0.6365(2) 0.52082(19) 0.54901(7)
C55 C 0.7118(2) 0.39940(19) 0.55058(7)
C56 C 0.3919(2) 0.62650(16) 0.73216(7)
C57 C 0.2491(3) 0.76278(19) 0.60324(8)
C58 C 0.3662(2) 0.26769(16) 0.70833(7)
C59 C 0.64319(18) 0.53217(17) 0.69694(7)
C60 C 0.18109(19) 0.46258(19) 0.72013(7)
C61 C 0.3304(2) 0.76848(19) 0.61026(8)
C62 C 0.6098(2) 0.5756(2) 0.53288(7)
C63 C 0.0554(2) 0.4588(2) 0.68252(7)
C64 C -0.0298(2) 0.3376(2) 0.63020(8)
C65 C 0.3630(2) 0.16298(18) 0.58851(7)
C66 C 0.1369(2) 0.6992(2) 0.57831(8)
C67 C -0.0105(2) 0.4572(2) 0.66086(7)
C68 C 0.2176(2) 0.29578(19) 0.69837(8)
H55 H 0.2439 0.3319 0.6859
H56 H 0.1727 0.2709 0.6876
C69 C -0.0671(2) 0.5251(2) 0.65724(8)
C70 C 0.3869(2) 0.70923(17) 0.65849(8)
C71 C 0.4045(2) 0.16784(19) 0.56395(7)
C72 C 0.3596(2) 0.73457(18) 0.63662(8)
C73 C 0.0614(2) 0.3303(2) 0.58229(8)
C74 C 0.4468(2) 0.5848(2) 0.51641(8)
C75 C 0.5207(2) 0.5794(2) 0.52393(8)
C76 C 0.1110(2) 0.46109(19) 0.70047(7)
C77 C 0.3773(2) 0.27658(19) 0.52762(8)
C78 C 0.1113(2) 0.3269(2) 0.55572(8)
C79 C 0.2151(2) 0.62907(19) 0.69640(8)
H57 H 0.1702 0.6523 0.6851
H58 H 0.2432 0.5926 0.6845
C80 C 0.0187(2) 0.3329(2) 0.60399(8)
C81 C 0.3574(2) 0.5941(2) 0.50614(10)
C82 C -0.0887(2) 0.2739(2) 0.63891(8)
C83 C 0.6705(2) 0.6372(2) 0.52281(8)
C84 C 0.4739(2) 0.1113(2) 0.55542(8)
C85 C 0.7039(3) 0.4014(2) 0.51804(8)
H59 H 0.6440 0.4036 0.5128
H60 H 0.7296 0.3580 0.5101
H61 H 0.7333 0.4440 0.5108
C86 C 0.3670(2) 0.3376(2) 0.50687(8)
C87 C 0.2488(2) 0.10191(19) 0.61883(8)
C88 C 0.1115(2) 0.6492(2) 0.56368(9)
C89 C 0.0987(2) 0.8133(2) 0.60737(8)
C90 C -0.1198(2) 0.5353(2) 0.68462(9)
H62 H -0.1568 0.4936 0.6874
H63 H -0.1544 0.5789 0.6831
H64 H -0.0814 0.5399 0.7007
C91 C 0.8081(2) 0.4023(2) 0.55868(9)
H65 H 0.8343 0.4447 0.5500
H66 H 0.8365 0.3588 0.5519
H67 H 0.8136 0.4054 0.5791
C92 C 0.0759(3) 0.5891(2) 0.54567(9)
C93 C -0.1600(2) 0.2646(2) 0.61636(9)
H68 H -0.1946 0.3084 0.6156
H69 H -0.1959 0.2236 0.6214
H70 H -0.1343 0.2562 0.5980
C94 C 0.2197(3) 0.0666(2) 0.59075(9)
H71 H 0.2052 0.1043 0.5772
H72 H 0.1699 0.0364 0.5942
H73 H 0.2657 0.0370 0.5832
C95 C 0.3988(2) 0.8095(2) 0.59240(8)
C96 C 0.5593(3) 0.1525(2) 0.55065(9)
H74 H 0.5507 0.1907 0.5368
H75 H 0.6024 0.1189 0.5438
H76 H 0.5782 0.1738 0.5684
C97 C 0.4861(3) 0.0545(2) 0.57888(10)
H77 H 0.5038 0.0785 0.5962
H78 H 0.5297 0.0200 0.5732
H79 H 0.4326 0.0291 0.5821
C98 C 0.2752(3) 0.0429(2) 0.64037(8)
H80 H 0.3203 0.0131 0.6323
H81 H 0.2262 0.0127 0.6448
H82 H 0.2959 0.0659 0.6576
C99 C 0.6701(2) 0.3296(2) 0.56248(9)
H83 H 0.6776 0.3280 0.5829
H84 H 0.6970 0.2874 0.5540
H85 H 0.6095 0.3296 0.5580
C100 C 0.1754(2) 0.1472(2) 0.63144(10)
H86 H 0.1938 0.1684 0.6493
H87 H 0.1262 0.1163 0.6347
H88 H 0.1601 0.1857 0.6183
C101 C -0.1278(2) 0.5160(3) 0.63196(9)
H89 H -0.0947 0.5110 0.6147
H90 H -0.1646 0.5582 0.6305
H91 H -0.1626 0.4729 0.6347
C102 C 0.0533(3) 0.3427(3) 0.53025(9)
H92 H 0.0270 0.3901 0.5326
H93 H 0.0091 0.3058 0.5291
H94 H 0.0871 0.3422 0.5130
C103 C 0.6360(3) 0.7105(2) 0.53433(11)
H95 H 0.5786 0.7186 0.5272
H96 H 0.6731 0.7497 0.5282
H97 H 0.6347 0.7090 0.5549
C104 C 0.4437(3) 0.0735(2) 0.52772(9)
H98 H 0.3917 0.0463 0.5314
H99 H 0.4880 0.0407 0.5211
H100 H 0.4326 0.1099 0.5133
C105 C -0.1293(3) 0.2889(3) 0.66817(9)
H101 H -0.0845 0.2953 0.6822
H102 H -0.1652 0.2481 0.6736
H103 H -0.1638 0.3326 0.6672
C106 C -0.0094(3) 0.5926(3) 0.65294(11)
H104 H 0.0244 0.6008 0.6699
H105 H -0.0449 0.6348 0.6493
H106 H 0.0285 0.5845 0.6370
C107 C -0.0343(3) 0.2039(2) 0.64035(11)
H107 H -0.0071 0.1956 0.6222
H108 H -0.0710 0.1630 0.6449
H109 H 0.0091 0.2091 0.6549
C108 C 0.4558(3) 0.3701(2) 0.50028(10)
H110 H 0.4497 0.4095 0.4868
H111 H 0.4924 0.3328 0.4923
H112 H 0.4812 0.3885 0.5176
C109 C 0.0591(3) 0.8539(2) 0.58212(9)
H113 H 0.1032 0.8814 0.5724
H114 H 0.0151 0.8868 0.5889
H115 H 0.0339 0.8191 0.5691
C110 C 0.7625(2) 0.6248(3) 0.53371(11)
H116 H 0.7617 0.6205 0.5542
H117 H 0.7982 0.6656 0.5283
H118 H 0.7853 0.5806 0.5255
C111 C 0.0288(3) 0.7718(2) 0.62363(10)
H119 H 0.0008 0.7378 0.6110
H120 H -0.0131 0.8060 0.6309
H121 H 0.0545 0.7456 0.6393
C112 C 0.0540(3) 0.6188(3) 0.51634(11)
H122 H 0.1058 0.6361 0.5072
H123 H 0.0137 0.6586 0.5182
H124 H 0.0287 0.5806 0.5050
C113 C 0.1556(3) 0.2525(2) 0.55302(10)
H125 H 0.1833 0.2490 0.5347
H126 H 0.1132 0.2142 0.5548
H127 H 0.1980 0.2474 0.5679
C114 C 0.3220(3) 0.3101(3) 0.48019(10)
H128 H 0.2657 0.2919 0.4851
H129 H 0.3554 0.2712 0.4718
H130 H 0.3163 0.3495 0.4667
C115 C 0.6696(3) 0.6392(3) 0.49009(10)
H131 H 0.6870 0.5923 0.4827
H132 H 0.7088 0.6763 0.4835
H133 H 0.6122 0.6503 0.4835
C116 C 0.3542(3) 0.5794(4) 0.47415(11)
H134 H 0.3768 0.5313 0.4703
H135 H 0.3885 0.6154 0.4643
H136 H 0.2955 0.5823 0.4676
C117 C 0.4659(3) 0.7539(3) 0.58178(11)
H137 H 0.4938 0.7314 0.5979
H138 H 0.5082 0.7787 0.5703
H139 H 0.4377 0.7169 0.5705
C118 C -0.0027(3) 0.5567(3) 0.56031(13)
H140 H -0.0256 0.5175 0.5488
H141 H -0.0459 0.5940 0.5626
H142 H 0.0136 0.5380 0.5788
C119 C 0.3249(3) 0.6701(2) 0.51357(14)
H143 H 0.2669 0.6759 0.5066
H144 H 0.3616 0.7062 0.5048
H145 H 0.3256 0.6764 0.5340
C120 C 0.1416(3) 0.8685(2) 0.62767(10)
H146 H 0.1629 0.8432 0.6443
H147 H 0.1000 0.9047 0.6334
H148 H 0.1888 0.8921 0.6180
C121 C 0.3557(3) 0.8471(3) 0.56698(9)
H149 H 0.3262 0.8112 0.5556
H150 H 0.3989 0.8711 0.5556
H151 H 0.3149 0.8828 0.5738
C122 C 0.4448(3) 0.8663(3) 0.61081(10)
H152 H 0.4040 0.9027 0.6170
H153 H 0.4895 0.8895 0.5998
H154 H 0.4699 0.8427 0.6272
C123 C 0.5819(2) 0.29819(17) 0.64411(7)
H155 H 0.5871 0.2739 0.6257
H156 H 0.5348 0.3331 0.6428
C124 C 1.0434(6) 0.5351(11) 0.7984(3)
H157 H 1.0555 0.4981 0.7843
H158 H 1.0657 0.5198 0.8166
H159 H 1.0705 0.5804 0.7928
C125 C 0.9462(6) 0.5464(7) 0.8006(2)
H160 H 0.9229 0.5030 0.8098
H161 H 0.9373 0.5869 0.8138
C126 C 1.0631(10) 0.2696(14) 0.7882(4)
H162 H 1.0928 0.2930 0.7726
H163 H 1.0596 0.2177 0.7846
H164 H 1.0941 0.2781 0.8057
C127 C 0.9720(9) 0.3011(10) 0.7908(3)
H165 H 0.9395 0.2719 0.8044
H166 H 0.9759 0.3506 0.7983
C128 C 0.9234(6) 0.3033(11) 0.7629(3)
H167 H 0.9230 0.2544 0.7547
H168 H 0.9540 0.3352 0.7497
C134 C 0.4023(3) 0.5255(3) 0.60454(10)
H185 H 0.4400 0.5342 0.5883
H186 H 0.4152 0.5625 0.6188
Br1 Br 0.42293(4) 0.37898(4) 0.58529(2)
Br2 Br 0.38591(6) 0.47579(5) 0.67498(2)
C135 C 0.4220(3) 0.4531(3) 0.61650(11)
H187 H 0.4796 0.4547 0.6253
C136 C 0.3581(3) 0.4236(3) 0.63835(11)
H188 H 0.3675 0.3708 0.6409
C137 C 0.2632(4) 0.4372(4) 0.63016(13)
H189 H 0.2464 0.4021 0.6156
H190 H 0.2271 0.4288 0.6468
C138 C 0.2470(4) 0.5129(4) 0.61922(14)
H191 H 0.2544 0.5475 0.6348
H192 H 0.1875 0.5163 0.6128
C139 C 0.3066(4) 0.5348(4) 0.59472(12)
H193 H 0.2959 0.5854 0.5894
H194 H 0.2954 0.5040 0.5782
N1 N 0.4505(2) 0.9677(2) 0.71031(9)
C145 C 0.3406(4) 0.8867(3) 0.68320(10)
H205 H 0.3570 0.8822 0.6635
H206 H 0.2845 0.9091 0.6844
H207 H 0.3387 0.8389 0.6918
C146 C 0.4038(3) 0.9323(2) 0.69825(9)
H169? H 0.9077 0.5334 0.7947
H170? H 0.9113 0.5284 0.7613
H171? H 0.8094 0.3752 0.7752
H172? H 0.8122 0.2896 0.7777
C129? C 1.0424(6) 0.6066(11) 0.7808(3)
H173? H 1.0766 0.6482 0.7752
H174? H 1.0582 0.5649 0.7695
H175? H 1.0524 0.5960 0.8007
C130? C 0.9476(6) 0.6238(7) 0.7763(3)
H176? H 0.9284 0.6576 0.7910
H177? H 0.9404 0.6477 0.7579
C131? C 1.0667(8) 0.3278(18) 0.7905(4)
H178? H 1.0890 0.3684 0.7797
H179? H 1.0810 0.2827 0.7809
H180? H 1.0916 0.3279 0.8093
C132? C 0.9693(8) 0.3345(11) 0.7928(4)
H181? H 0.9549 0.3803 0.8023
H182? H 0.9471 0.2946 0.8044
C133? C 0.9258(7) 0.3325(11) 0.7633(4)
H183? H 0.9430 0.3755 0.7525
H184? H 0.9454 0.2894 0.7530
H195? H 0.4609 0.5277 0.6120
H196? H 0.3939 0.5676 0.5921
Br3? Br 0.23583(19) 0.56461(14) 0.60918(6)
Br4? Br 0.41015(17) 0.44583(16) 0.67220(5)
C140? C 0.3423(10) 0.5297(9) 0.6280(3)
H197? H 0.3623 0.5668 0.6417
C141? C 0.3169(12) 0.4591(10) 0.6444(4)
H198? H 0.2631 0.4685 0.6549
C142? C 0.3029(13) 0.3926(10) 0.6247(4)
H199? H 0.2959 0.3493 0.6365
H200? H 0.2492 0.3997 0.6143
C143? C 0.3751(13) 0.3774(11) 0.6028(4)
H201? H 0.3571 0.3404 0.5891
H202? H 0.4271 0.3606 0.6124
C144? C 0.3917(14) 0.4553(10) 0.5870(4)
H203? H 0.4434 0.4498 0.5754
H204? H 0.3439 0.4631 0.5739
loop_
_geom_bond_atom_site_label_1
_geom_bond_atom_site_label_2
_geom_bond_site_symmetry_1
_geom_bond_site_symmetry_2
O1 H1 1_555 1_555
O2 H2 1_555 1_555
O3 H3 1_555 1_555
O4 H4 1_555 1_555
O5 C31 1_555 1_555
O6 C30 1_555 1_555
O7 C20 1_555 1_555
O8 C28 1_555 1_555
O9 C58 1_555 1_555
O10 C50 1_555 1_555
O11 C37 1_555 1_555
O12 C42 1_555 1_555
C1 H5 1_555 1_555
H6 C1 1_555 1_555
C2 C1 1_555 1_555
H7 C2 1_555 1_555
H8 C2 1_555 1_555
C3 C2 1_555 1_555
H9 C3 1_555 1_555
H10 C3 1_555 1_555
C4 C3 1_555 1_555
H11 C4 1_555 1_555
H12 C4 1_555 1_555
C5 H13 1_555 1_555
H14 C5 1_555 1_555
C6 C5 1_555 1_555
H15 C6 1_555 1_555
H16 C6 1_555 1_555
C7 C6 1_555 1_555
H17 C7 1_555 1_555
H18 C7 1_555 1_555
C8 H19 1_555 1_555
H20 C8 1_555 1_555
H21 C8 1_555 1_555
C9 C8 1_555 1_555
H22 C9 1_555 1_555
H23 C9 1_555 1_555
C10 C9 1_555 1_555
H24 C10 1_555 1_555
H25 C10 1_555 1_555
C11 C10 1_555 1_555
H26 C11 1_555 1_555
H27 C11 1_555 1_555
C12 C11 1_555 1_555
H28 C12 1_555 1_555
H29 C12 1_555 1_555
C13 C12 1_555 1_555
H30 C13 1_555 1_555
H31 C13 1_555 1_555
C14 H32 1_555 1_555
H33 C14 1_555 1_555
H34 C14 1_555 1_555
C15 C14 1_555 1_555
H35 C15 1_555 1_555
H36 C15 1_555 1_555
C16 C15 1_555 1_555
H37 C16 1_555 1_555
H38 C16 1_555 1_555
C17 C16 1_555 1_555
H39 C17 1_555 1_555
H40 C17 1_555 1_555
C18 C17 1_555 1_555
H41 C18 1_555 1_555
H42 C18 1_555 1_555
C19 C18 1_555 1_555
H43 C19 1_555 1_555
H44 C19 1_555 1_555
C20 C24 1_555 1_555
C21 C13 1_555 1_555
H45 C21 1_555 1_555
C22 C25 1_555 1_555
C23 H46 1_555 1_555
C24 C23 1_555 1_555
C25 H47 1_555 1_555
C26 C21 1_555 1_555
C27 C20 1_555 1_555
C28 C22 1_555 1_555
C29 C4 1_555 1_555
H48 C29 1_555 1_555
C30 C27 1_555 1_555
C31 O6 1_555 1_555
H49 C31 1_555 1_555
H50 C31 1_555 1_555
C32 C42 1_555 1_555
C33 H51 1_555 1_555
C34 C38 1_555 1_555
C35 C37 1_555 1_555
C36 C40 1_555 1_555
C37 C60 1_555 1_555
C38 C27 1_555 1_555
C39 C64 1_555 1_555
C40 C51 1_555 1_555
C41 C21 1_555 1_555
C42 C56 1_555 1_555
C43 C34 1_555 1_555
C44 C19 1_555 1_555
H52 C44 1_555 1_555
C45 C35 1_555 1_555
H53 C45 1_555 1_555
C46 O5 1_555 1_555
C47 C29 1_555 1_555
C48 C71 1_555 1_555
C49 C57 1_555 1_555
C50 C41 1_555 1_555
C51 C65 1_555 1_555
C52 C28 1_555 1_555
C53 C7 1_555 1_555
H54 C53 1_555 1_555
C54 C43 1_555 1_555
C55 C43 1_555 1_555
C56 C33 1_555 1_555
C57 C61 1_555 1_555
C58 C26 1_555 1_555
C59 C23 1_555 1_555
C60 C50 1_555 1_555
C61 C72 1_555 1_555
C62 C54 1_555 1_555
C63 C67 1_555 1_555
C64 C80 1_555 1_555
C65 C71 1_555 1_555
C66 C49 1_555 1_555
C67 C39 1_555 1_555
C68 O9 1_555 1_555
H55 C68 1_555 1_555
H56 C68 1_555 1_555
C69 C67 1_555 1_555
C70 C32 1_555 1_555
C71 C84 1_555 1_555
C72 C70 1_555 1_555
C73 C78 1_555 1_555
C74 C75 1_555 1_555
C75 C62 1_555 1_555
C76 C60 1_555 1_555
C77 C48 1_555 1_555
C78 O2 1_555 1_555
C79 O11 1_555 1_555
H57 C79 1_555 1_555
H58 C79 1_555 1_555
C80 C73 1_555 1_555
C81 O4 1_555 1_555
C82 C64 1_555 1_555
C83 C62 1_555 1_555
C84 C96 1_555 1_555
C85 C55 1_555 1_555
H59 C85 1_555 1_555
H60 C85 1_555 1_555
H61 C85 1_555 1_555
C86 O3 1_555 1_555
C87 C51 1_555 1_555
C88 C66 1_555 1_555
C89 C49 1_555 1_555
C90 C69 1_555 1_555
H62 C90 1_555 1_555
H63 C90 1_555 1_555
H64 C90 1_555 1_555
C91 C55 1_555 1_555
H65 C91 1_555 1_555
H66 C91 1_555 1_555
H67 C91 1_555 1_555
C92 O1 1_555 1_555
C93 C82 1_555 1_555
H68 C93 1_555 1_555
H69 C93 1_555 1_555
H70 C93 1_555 1_555
C94 C87 1_555 1_555
H71 C94 1_555 1_555
H72 C94 1_555 1_555
H73 C94 1_555 1_555
C95 C61 1_555 1_555
C96 H74 1_555 1_555
H75 C96 1_555 1_555
H76 C96 1_555 1_555
C97 C84 1_555 1_555
H77 C97 1_555 1_555
H78 C97 1_555 1_555
H79 C97 1_555 1_555
C98 C87 1_555 1_555
H80 C98 1_555 1_555
H81 C98 1_555 1_555
H82 C98 1_555 1_555
C99 C55 1_555 1_555
H83 C99 1_555 1_555
H84 C99 1_555 1_555
H85 C99 1_555 1_555
C100 C87 1_555 1_555
H86 C100 1_555 1_555
H87 C100 1_555 1_555
H88 C100 1_555 1_555
C101 C69 1_555 1_555
H89 C101 1_555 1_555
H90 C101 1_555 1_555
H91 C101 1_555 1_555
C102 C78 1_555 1_555
H92 C102 1_555 1_555
H93 C102 1_555 1_555
H94 C102 1_555 1_555
C103 C83 1_555 1_555
H95 C103 1_555 1_555
H96 C103 1_555 1_555
H97 C103 1_555 1_555
C104 C84 1_555 1_555
H98 C104 1_555 1_555
H99 C104 1_555 1_555
H100 C104 1_555 1_555
C105 C82 1_555 1_555
H101 C105 1_555 1_555
H102 C105 1_555 1_555
H103 C105 1_555 1_555
C106 C69 1_555 1_555
H104 C106 1_555 1_555
H105 C106 1_555 1_555
H106 C106 1_555 1_555
C107 C82 1_555 1_555
H107 C107 1_555 1_555
H108 C107 1_555 1_555
H109 C107 1_555 1_555
C108 C86 1_555 1_555
H110 C108 1_555 1_555
H111 C108 1_555 1_555
H112 C108 1_555 1_555
C109 C89 1_555 1_555
H113 C109 1_555 1_555
H114 C109 1_555 1_555
H115 C109 1_555 1_555
C110 C83 1_555 1_555
H116 C110 1_555 1_555
H117 C110 1_555 1_555
H118 C110 1_555 1_555
C111 C89 1_555 1_555
H119 C111 1_555 1_555
H120 C111 1_555 1_555
H121 C111 1_555 1_555
C112 C92 1_555 1_555
H122 C112 1_555 1_555
H123 C112 1_555 1_555
H124 C112 1_555 1_555
C113 C78 1_555 1_555
H125 C113 1_555 1_555
H126 C113 1_555 1_555
H127 C113 1_555 1_555
C114 C86 1_555 1_555
H128 C114 1_555 1_555
H129 C114 1_555 1_555
H130 C114 1_555 1_555
C115 C83 1_555 1_555
H131 C115 1_555 1_555
H132 C115 1_555 1_555
H133 C115 1_555 1_555
C116 C81 1_555 1_555
H134 C116 1_555 1_555
H135 C116 1_555 1_555
H136 C116 1_555 1_555
C117 C95 1_555 1_555
H137 C117 1_555 1_555
H138 C117 1_555 1_555
H139 C117 1_555 1_555
C118 C92 1_555 1_555
H140 C118 1_555 1_555
H141 C118 1_555 1_555
H142 C118 1_555 1_555
C119 C81 1_555 1_555
H143 C119 1_555 1_555
H144 C119 1_555 1_555
H145 C119 1_555 1_555
C120 C89 1_555 1_555
H146 C120 1_555 1_555
H147 C120 1_555 1_555
H148 C120 1_555 1_555
C121 C95 1_555 1_555
H149 C121 1_555 1_555
H150 C121 1_555 1_555
H151 C121 1_555 1_555
C122 C95 1_555 1_555
H152 C122 1_555 1_555
H153 C122 1_555 1_555
H154 C122 1_555 1_555
C123 O7 1_555 1_555
H155 C123 1_555 1_555
H156 C123 1_555 1_555
C124 H157 1_555 1_555
H158 C124 1_555 1_555
H159 C124 1_555 1_555
C125 C1 1_555 1_555
H160 C125 1_555 1_555
H161 C125 1_555 1_555
C126 H162 1_555 1_555
H163 C126 1_555 1_555
H164 C126 1_555 1_555
C127 C126 1_555 1_555
H165 C127 1_555 1_555
H166 C127 1_555 1_555
C128 C5 1_555 1_555
H167 C128 1_555 1_555
H168 C128 1_555 1_555
C134 H185 1_555 1_555
H186 C134 1_555 1_555
Br1 C135 1_555 1_555
Br2 C136 1_555 1_555
C135 C134 1_555 1_555
H187 C135 1_555 1_555
C136 C135 1_555 1_555
H188 C136 1_555 1_555
C137 C136 1_555 1_555
H189 C137 1_555 1_555
H190 C137 1_555 1_555
C138 C137 1_555 1_555
H191 C138 1_555 1_555
H192 C138 1_555 1_555
C139 C134 1_555 1_555
H193 C139 1_555 1_555
H194 C139 1_555 1_555
N1 C146 1_555 1_555
C145 H205 1_555 1_555
H206 C145 1_555 1_555
H207 C145 1_555 1_555
C146 C145 1_555 1_555
O8 C123 1_555 1_555
O10 C68 1_555 1_555
O12 C79 1_555 1_555
C22 C53 1_555 1_555
C24 C53 1_555 1_555
C25 C26 1_555 1_555
C29 C59 1_555 1_555
C30 C59 1_555 1_555
C32 C46 1_555 1_555
C33 C47 1_555 1_555
C35 C44 1_555 1_555
C36 C52 1_555 1_555
C41 C45 1_555 1_555
C44 C56 1_555 1_555
C46 C47 1_555 1_555
C52 C58 1_555 1_555
C63 C76 1_555 1_555
C74 C81 1_555 1_555
C77 C86 1_555 1_555
C88 C92 1_555 1_555
C124 C125 1_555 1_555
C127 C128 1_555 1_555
C138 C139 1_555 1_555

#END
