
#######################################################################
#
#                 Cambridge Crystallographic Data Centre
#                                CCDC 
#
#######################################################################
#
# If this CIF has been generated from an entry in the Cambridge 
# Structural Database, then it will include bibliographic, chemical, 
# crystal, experimental, refinement or atomic coordinate data resulting 
# from the CCDC's data processing and validation procedures.
#
#######################################################################

data_MEDRAQ
_chemical_formula_moiety         'C17 H20 O3'
_chemical_name_systematic        
10b-Hydroxy-5a,7a-dimethyl-3,5a,6,7,7a,8,9,10b-octahydro-2H-1-oxabenzo[cd]cyclopenta[h]azulen-2-one
_symmetry_cell_setting           triclinic
_symmetry_space_group_name_H-M   'P -1'
_symmetry_Int_Tables_number      2
_space_group_name_Hall           '-P 1'
loop_
_symmetry_equiv_pos_site_id
_symmetry_equiv_pos_as_xyz
1 x,y,z
2 -x,-y,-z
_cell_length_a                   6.7244(13)
_cell_length_b                   8.0417(16)
_cell_length_c                   13.879(3)
_cell_angle_alpha                76.24(3)
_cell_angle_beta                 89.16(3)
_cell_angle_gamma                83.32(3)
_cell_volume                     723.961
_exptl_crystal_colour            colorless
_exptl_crystal_description       block
_cell_formula_units_Z            2
loop_
_atom_site_label
_atom_site_type_symbol
_atom_site_fract_x
_atom_site_fract_y
_atom_site_fract_z
O1 O 0.54983(16) 0.13260(14) 0.27869(8)
H1 H 0.630(3) 0.083(2) 0.3294(13)
O2 O 0.30874(16) 0.15343(12) 0.39931(7)
O3 O 0.21194(16) 0.04480(14) 0.55402(7)
C1 C 0.3436(2) -0.10282(18) 0.34411(10)
C2 C 0.3591(2) 0.08954(18) 0.30960(10)
C3 C 0.2065(2) 0.17811(19) 0.22983(10)
C4 C 0.0405(2) 0.2775(2) 0.24269(12)
H2 H 0.0062 0.3057 0.3025
C5 C -0.0852(3) 0.3389(3) 0.14946(13)
H3 H -0.0685 0.4570 0.1166
H4 H -0.2260 0.3295 0.1629
C6 C 0.0020(3) 0.2124(3) 0.08801(13)
H5 H -0.0073 0.2670 0.0177
H6 H -0.0693 0.1114 0.1007
C7 C 0.2265(3) 0.1615(2) 0.12227(11)
C8 C 0.3133(3) -0.0176(3) 0.10859(12)
H7 H 0.2728 -0.0259 0.0433
H8 H 0.4581 -0.0226 0.1089
C9 C 0.2572(3) -0.1762(2) 0.18336(12)
H9 H 0.2693 -0.2718 0.1514
H10 H 0.1175 -0.1546 0.1999
C10 C 0.3822(3) -0.2336(2) 0.28232(11)
C11 C 0.3184(3) -0.4040(2) 0.34165(14)
H11 H 0.3223 -0.4930 0.3092
C12 C 0.2583(3) -0.4372(2) 0.43434(14)
H12 H 0.2271 -0.5479 0.4625
C13 C 0.2369(3) -0.31002(19) 0.49688(11)
H13 H 0.3280 -0.3488 0.5534
H14 H 0.1014 -0.3005 0.5216
C14 C 0.2823(2) -0.13793(18) 0.43756(10)
C15 C 0.2609(2) 0.02124(19) 0.47320(10)
C16 C 0.3542(3) 0.2978(3) 0.06349(12)
H15 H 0.3653 0.2870 -0.0039
H16 H 0.4853 0.2803 0.0933
H17 H 0.2915 0.4109 0.0645
C17 C 0.6092(3) -0.2664(3) 0.26220(14)
H18 H 0.6310 -0.3501 0.2229
H19 H 0.6809 -0.3089 0.3241
H20 H 0.6562 -0.1606 0.2272
loop_
_geom_bond_atom_site_label_1
_geom_bond_atom_site_label_2
_geom_bond_site_symmetry_1
_geom_bond_site_symmetry_2
O1 H1 1_555 1_555
O2 C2 1_555 1_555
O3 C15 1_555 1_555
C1 C2 1_555 1_555
C2 O1 1_555 1_555
C3 C2 1_555 1_555
C4 C3 1_555 1_555
H2 C4 1_555 1_555
C5 C4 1_555 1_555
H3 C5 1_555 1_555
H4 C5 1_555 1_555
C6 C5 1_555 1_555
H5 C6 1_555 1_555
H6 C6 1_555 1_555
C7 C3 1_555 1_555
C8 C7 1_555 1_555
H7 C8 1_555 1_555
H8 C8 1_555 1_555
C9 C8 1_555 1_555
H9 C9 1_555 1_555
H10 C9 1_555 1_555
C10 C1 1_555 1_555
C11 C10 1_555 1_555
H11 C11 1_555 1_555
C12 C11 1_555 1_555
H12 C12 1_555 1_555
C13 C12 1_555 1_555
H13 C13 1_555 1_555
H14 C13 1_555 1_555
C14 C1 1_555 1_555
C15 O2 1_555 1_555
C16 C7 1_555 1_555
H15 C16 1_555 1_555
H16 C16 1_555 1_555
H17 C16 1_555 1_555
C17 C10 1_555 1_555
H18 C17 1_555 1_555
H19 C17 1_555 1_555
H20 C17 1_555 1_555
C6 C7 1_555 1_555
C9 C10 1_555 1_555
C13 C14 1_555 1_555
C14 C15 1_555 1_555

#END
