
#######################################################################
#
#                 Cambridge Crystallographic Data Centre
#                                CCDC 
#
#######################################################################
#
# If this CIF has been generated from an entry in the Cambridge 
# Structural Database, then it will include bibliographic, chemical, 
# crystal, experimental, refinement or atomic coordinate data resulting 
# from the CCDC's data processing and validation procedures.
#
#######################################################################

data_MEDRAR
_chemical_formula_moiety         'C29 H27 N1 O4 S1'
_chemical_name_systematic        
N-{1-(2-methylphenyl)-2-[(4-methylphenyl)sulfonyl]ethoxy}-N-phenylbenzamide
_symmetry_cell_setting           monoclinic
_symmetry_space_group_name_H-M   'P 21/c'
_symmetry_Int_Tables_number      14
_space_group_name_Hall           '-P 2ybc'
loop_
_symmetry_equiv_pos_site_id
_symmetry_equiv_pos_as_xyz
1 x,y,z
2 -x,1/2+y,1/2-z
3 -x,-y,-z
4 x,1/2-y,1/2+z
_cell_length_a                   13.060(3)
_cell_length_b                   10.500(2)
_cell_length_c                   19.260(4)
_cell_angle_alpha                90
_cell_angle_beta                 109.173(3)
_cell_angle_gamma                90
_cell_volume                     2494.62
_exptl_crystal_colour            colorless
_exptl_crystal_description       diamond
_cell_formula_units_Z            4
loop_
_atom_site_label
_atom_site_type_symbol
_atom_site_fract_x
_atom_site_fract_y
_atom_site_fract_z
S1 S 0.49040(3) -0.24124(3) 0.37292(2)
N1 N 0.25330(9) 0.12002(11) 0.41383(6)
O1 O 0.40390(9) -0.32165(10) 0.37794(6)
O2 O 0.60041(9) -0.27502(12) 0.41432(6)
O3 O 0.35728(7) 0.07960(9) 0.41366(5)
O4 O 0.28381(9) 0.00620(11) 0.51938(6)
C1 C 0.46941(10) -0.08452(13) 0.40168(7)
H1 H 0.5034 -0.0786 0.4551
H2 H 0.5057 -0.0233 0.3792
C2 C 0.35053(10) -0.04743(12) 0.38174(7)
H3 H 0.3144 -0.1055 0.4069
C3 C 0.22860(11) 0.08257(13) 0.47515(8)
C4 C 0.48039(11) -0.22809(13) 0.27973(7)
C5 C 0.39697(11) -0.29031(15) 0.22654(8)
H4 H 0.3474 -0.3414 0.2400
C6 C 0.38816(13) -0.27555(17) 0.15326(8)
H5 H 0.3334 -0.3194 0.1170
C7 C 0.45872(13) -0.19728(17) 0.13247(8)
C8 C 0.54283(13) -0.13745(17) 0.18680(9)
H6 H 0.5920 -0.0857 0.1734
C9 C 0.55458(12) -0.15367(15) 0.26056(8)
H7 H 0.6123 -0.1146 0.2971
C10 C 0.44447(18) -0.1756(3) 0.05242(10)
H8 H 0.3881 -0.2315 0.0224
H9 H 0.5121 -0.1938 0.0437
H10 H 0.4241 -0.0877 0.0397
C11 C 0.28703(10) -0.04519(12) 0.30051(7)
C12 C 0.18638(11) -0.10659(14) 0.27333(8)
C13 C 0.12943(13) -0.09639(17) 0.19802(9)
H11 H 0.0618 -0.1368 0.1786
C14 C 0.17019(15) -0.02848(19) 0.15158(9)
H12 H 0.1300 -0.0229 0.1013
C15 C 0.26969(14) 0.03130(17) 0.17846(9)
H13 H 0.2979 0.0766 0.1467
C16 C 0.32720(12) 0.02349(14) 0.25288(8)
H14 H 0.3944 0.0651 0.2717
C17 C 0.13930(13) -0.18183(16) 0.32241(10)
H15 H 0.1909 -0.2461 0.3486
H16 H 0.0728 -0.2228 0.2927
H17 H 0.1239 -0.1250 0.3574
C18 C 0.22308(11) 0.24026(13) 0.37704(8)
C19 C 0.17634(12) 0.24329(14) 0.30105(9)
H18 H 0.1609 0.1670 0.2741
C20 C 0.15261(13) 0.35944(16) 0.26531(9)
H19 H 0.1218 0.3619 0.2138
C21 C 0.17394(15) 0.47159(16) 0.30489(10)
H20 H 0.1580 0.5502 0.2803
C22 C 0.21867(15) 0.46841(15) 0.38064(10)
H21 H 0.2315 0.5448 0.4075
C23 C 0.24479(12) 0.35268(14) 0.41718(8)
H22 H 0.2769 0.3505 0.4686
C24 C 0.12403(11) 0.13377(14) 0.47964(8)
C25 C 0.12438(14) 0.19537(17) 0.54382(10)
H23 H 0.1899 0.2079 0.5824
C26 C 0.02752(16) 0.23822(18) 0.55062(12)
H24 H 0.0278 0.2822 0.5932
C27 C -0.06946(15) 0.2163(2) 0.49475(12)
H25 H -0.1351 0.2440 0.4998
C28 C -0.06983(14) 0.1538(2) 0.43180(11)
H26 H -0.1358 0.1381 0.3943
C29 C 0.02671(12) 0.11397(17) 0.42351(10)
H27 H 0.0262 0.0735 0.3799
loop_
_geom_bond_atom_site_label_1
_geom_bond_atom_site_label_2
_geom_bond_site_symmetry_1
_geom_bond_site_symmetry_2
S1 O1 1_555 1_555
N1 O3 1_555 1_555
O2 S1 1_555 1_555
O3 C2 1_555 1_555
O4 C3 1_555 1_555
C1 S1 1_555 1_555
H1 C1 1_555 1_555
H2 C1 1_555 1_555
C2 C1 1_555 1_555
H3 C2 1_555 1_555
C3 N1 1_555 1_555
C4 S1 1_555 1_555
C5 C4 1_555 1_555
H4 C5 1_555 1_555
C6 C5 1_555 1_555
H5 C6 1_555 1_555
C7 C6 1_555 1_555
C8 C7 1_555 1_555
H6 C8 1_555 1_555
C9 C4 1_555 1_555
H7 C9 1_555 1_555
C10 C7 1_555 1_555
H8 C10 1_555 1_555
H9 C10 1_555 1_555
H10 C10 1_555 1_555
C11 C2 1_555 1_555
C12 C11 1_555 1_555
C13 C12 1_555 1_555
H11 C13 1_555 1_555
C14 C13 1_555 1_555
H12 C14 1_555 1_555
C15 C14 1_555 1_555
H13 C15 1_555 1_555
C16 C11 1_555 1_555
H14 C16 1_555 1_555
C17 C12 1_555 1_555
H15 C17 1_555 1_555
H16 C17 1_555 1_555
H17 C17 1_555 1_555
C18 N1 1_555 1_555
C19 C18 1_555 1_555
H18 C19 1_555 1_555
C20 C19 1_555 1_555
H19 C20 1_555 1_555
C21 C20 1_555 1_555
H20 C21 1_555 1_555
C22 C21 1_555 1_555
H21 C22 1_555 1_555
C23 C18 1_555 1_555
H22 C23 1_555 1_555
C24 C3 1_555 1_555
C25 C24 1_555 1_555
H23 C25 1_555 1_555
C26 C25 1_555 1_555
H24 C26 1_555 1_555
C27 C26 1_555 1_555
H25 C27 1_555 1_555
C28 C27 1_555 1_555
H26 C28 1_555 1_555
C29 C24 1_555 1_555
H27 C29 1_555 1_555
C8 C9 1_555 1_555
C15 C16 1_555 1_555
C22 C23 1_555 1_555
C28 C29 1_555 1_555

#END
