
#######################################################################
#
#                 Cambridge Crystallographic Data Centre
#                                CCDC 
#
#######################################################################
#
# If this CIF has been generated from an entry in the Cambridge 
# Structural Database, then it will include bibliographic, chemical, 
# crystal, experimental, refinement or atomic coordinate data resulting 
# from the CCDC's data processing and validation procedures.
#
#######################################################################

data_MEDVAT
_chemical_formula_moiety         'C29 H29 N5 O8'
_chemical_name_systematic        
5-Cyano-2,3,7,8,12,13,17,18-octamethoxyporphyrin
_symmetry_cell_setting           monoclinic
_symmetry_space_group_name_H-M   'P 21/c'
_symmetry_Int_Tables_number      14
_space_group_name_Hall           '-P 2ybc'
loop_
_symmetry_equiv_pos_site_id
_symmetry_equiv_pos_as_xyz
1 x,y,z
2 -x,1/2+y,1/2-z
3 -x,-y,-z
4 x,1/2-y,1/2+z
_cell_length_a                   9.0759(6)
_cell_length_b                   13.3631(7)
_cell_length_c                   23.3001(15)
_cell_angle_alpha                90
_cell_angle_beta                 100.871(2)
_cell_angle_gamma                90
_cell_volume                     2775.17
_exptl_crystal_colour            'blue purple'
_cell_formula_units_Z            4
_exptl_crystal_recrystallization_method chloroform/toluene
loop_
_atom_site_label
_atom_site_type_symbol
_atom_site_fract_x
_atom_site_fract_y
_atom_site_fract_z
C1 C 0.6472(8) 0.2446(7) 0.2685(3)
H1 H 0.7225(8) 0.2731(7) 0.2986(3)
H2 H 0.6201(8) 0.1795(7) 0.2806(3)
H3 H 0.5603(8) 0.2870(7) 0.2619(3)
O1 O 0.7029(4) 0.2362(3) 0.2178(2)
C2 C 0.6059(6) 0.1964(4) 0.1713(2)
C3 C 0.5156(6) 0.2461(4) 0.1280(2)
C4 C 0.5086(13) 0.4114(5) 0.1598(4)
H4 H 0.4788(13) 0.4763(5) 0.1441(4)
H5 H 0.6136(13) 0.4122(5) 0.1768(4)
H6 H 0.4519(13) 0.3946(5) 0.1893(4)
O2 O 0.4831(4) 0.3433(3) 0.1170(2)
C5 C 0.4436(5) 0.1724(4) 0.0874(2)
C6 C 0.5931(5) 0.0916(4) 0.1582(2)
C7 C 0.6700(5) 0.0117(4) 0.1892(2)
C8 C 0.7739(7) 0.0345(4) 0.2415(3)
N1 N 0.8585(8) 0.0522(4) 0.2836(3)
C9 C 0.6523(5) -0.0887(4) 0.1743(2)
C10 C 0.7244(5) -0.1737(4) 0.2060(2)
C11 C 0.9729(7) -0.1732(5) 0.2593(3)
H7 H 1.0280(7) -0.1696(5) 0.2987(3)
H8 H 1.0002(7) -0.1179(5) 0.2372(3)
H9 H 0.9960(7) -0.2349(5) 0.2418(3)
O3 O 0.8184(4) -0.1693(3) 0.2596(2)
C12 C 0.7576(9) -0.3883(5) 0.2410(4)
H10 H 0.7683(9) -0.4598(5) 0.2413(4)
H11 H 0.6929(9) -0.3692(5) 0.2673(4)
H12 H 0.8543(9) -0.3579(5) 0.2532(4)
O4 O 0.6954(5) -0.3563(3) 0.1844(2)
C13 C 0.6717(6) -0.2568(5) 0.1754(2)
C14 C 0.5639(5) -0.2250(4) 0.1244(2)
C15 C 0.4836(6) -0.2887(4) 0.0852(2)
H13 H 0.5036(6) -0.3564(4) 0.0921(2)
C16 C 0.3751(6) -0.2668(4) 0.0358(2)
C17 C 0.2839(10) -0.5072(5) -0.0313(4)
H14 H 0.3039(10) -0.5726(5) -0.0145(4)
H15 H 0.3487(10) -0.4950(5) -0.0587(4)
H16 H 0.1812(10) -0.5035(5) -0.0510(4)
O5 O 0.3088(6) -0.4392(3) 0.0106(2)
C18 C 0.2878(7) -0.3389(4) -0.0023(2)
C19 C 0.1981(6) -0.2890(4) -0.0453(2)
C20 C -0.0384(8) -0.3509(8) -0.0829(3)
H17 H -0.0982(8) -0.3746(8) -0.1187(3)
H18 H -0.0862(8) -0.2939(8) -0.0692(3)
H19 H -0.0284(8) -0.4031(8) -0.0540(3)
O6 O 0.0998(5) -0.3243(3) -0.0923(2)
C21 C 0.2250(6) -0.1847(3) -0.0338(2)
C22 C 0.1521(5) -0.1058(3) -0.0658(2)
H20 H 0.0832(5) -0.1215(3) -0.0994(2)
C23 C 0.1732(5) -0.0060(4) -0.0518(2)
C24 C 0.0919(5) 0.0790(4) -0.0815(2)
C25 C -0.1598(6) 0.0380(4) -0.1221(2)
H21 H -0.2274(6) 0.0327(4) -0.1590(2)
H22 H -0.1975(6) 0.0865(4) -0.0981(2)
H23 H -0.1515(6) -0.0258(4) -0.1028(2)
O7 O -0.0146(4) 0.0688(2) -0.13156(13)
C26 C 0.1457(5) 0.1615(4) -0.0520(2)
C27 C -0.0085(6) 0.2902(4) -0.1008(3)
H24 H -0.0164(6) 0.3618(4) -0.1007(3)
H25 H -0.0984(6) 0.2614(4) -0.0918(3)
H26 H 0.0045(6) 0.2679(4) -0.1387(3)
O8 O 0.1151(4) 0.2603(2) -0.0587(2)
C28 C 0.2615(5) 0.1305(4) -0.0038(2)
C29 C 0.3400(5) 0.1952(3) 0.0380(2)
H27 H 0.3195(5) 0.2629(3) 0.0316(2)
N2 N 0.3304(4) -0.1747(3) 0.0150(2)
H28 H 0.3640(4) -0.1188(3) 0.0305(2)
N3 N 0.2762(4) 0.0291(3) -0.0046(2)
N4 N 0.4944(4) 0.0801(3) 0.1071(2)
H29 H 0.4681(4) 0.0241(3) 0.0901(2)
N5 N 0.5553(4) -0.1227(3) 0.1248(2)
loop_
_geom_bond_atom_site_label_1
_geom_bond_atom_site_label_2
_geom_bond_site_symmetry_1
_geom_bond_site_symmetry_2
C1 H1 1_555 1_555
H2 C1 1_555 1_555
H3 C1 1_555 1_555
O1 C1 1_555 1_555
C2 O1 1_555 1_555
C3 C2 1_555 1_555
C4 H4 1_555 1_555
H5 C4 1_555 1_555
H6 C4 1_555 1_555
O2 C3 1_555 1_555
C5 C3 1_555 1_555
C6 C2 1_555 1_555
C7 C6 1_555 1_555
C8 C7 1_555 1_555
N1 C8 1_555 1_555
C9 C7 1_555 1_555
C10 C9 1_555 1_555
C11 H7 1_555 1_555
H8 C11 1_555 1_555
H9 C11 1_555 1_555
O3 C10 1_555 1_555
C12 H10 1_555 1_555
H11 C12 1_555 1_555
H12 C12 1_555 1_555
O4 C12 1_555 1_555
C13 C10 1_555 1_555
C14 C13 1_555 1_555
C15 C14 1_555 1_555
H13 C15 1_555 1_555
C16 C15 1_555 1_555
C17 H14 1_555 1_555
H15 C17 1_555 1_555
H16 C17 1_555 1_555
O5 C17 1_555 1_555
C18 C16 1_555 1_555
C19 C18 1_555 1_555
C20 H17 1_555 1_555
H18 C20 1_555 1_555
H19 C20 1_555 1_555
O6 C19 1_555 1_555
C21 C19 1_555 1_555
C22 C21 1_555 1_555
H20 C22 1_555 1_555
C23 C22 1_555 1_555
C24 C23 1_555 1_555
C25 H21 1_555 1_555
H22 C25 1_555 1_555
H23 C25 1_555 1_555
O7 C24 1_555 1_555
C26 C24 1_555 1_555
C27 H24 1_555 1_555
H25 C27 1_555 1_555
H26 C27 1_555 1_555
O8 C26 1_555 1_555
C28 C26 1_555 1_555
C29 C5 1_555 1_555
H27 C29 1_555 1_555
N2 C16 1_555 1_555
H28 N2 1_555 1_555
N3 C23 1_555 1_555
N4 C5 1_555 1_555
H29 N4 1_555 1_555
N5 C9 1_555 1_555
C4 O2 1_555 1_555
C6 N4 1_555 1_555
C11 O3 1_555 1_555
O4 C13 1_555 1_555
C14 N5 1_555 1_555
O5 C18 1_555 1_555
C20 O6 1_555 1_555
C21 N2 1_555 1_555
C25 O7 1_555 1_555
C27 O8 1_555 1_555
C28 C29 1_555 1_555
C28 N3 1_555 1_555

#END
