
#######################################################################
#
#                 Cambridge Crystallographic Data Centre
#                                CCDC 
#
#######################################################################
#
# If this CIF has been generated from an entry in the Cambridge 
# Structural Database, then it will include bibliographic, chemical, 
# crystal, experimental, refinement or atomic coordinate data resulting 
# from the CCDC's data processing and validation procedures.
#
#######################################################################

data_MEDXAW
_chemical_formula_moiety         'C15 H14 N6 O6'
_chemical_name_systematic        
4-((2,4-Dinitrophenyl)diazenyl)-N-isopropyl-2-nitroaniline
_symmetry_cell_setting           monoclinic
_symmetry_space_group_name_H-M   'C 2'
_symmetry_Int_Tables_number      5
_space_group_name_Hall           'C 2y'
loop_
_symmetry_equiv_pos_site_id
_symmetry_equiv_pos_as_xyz
1 x,y,z
2 -x,y,-z
3 1/2+x,1/2+y,z
4 1/2-x,1/2+y,-z
_cell_length_a                   13.8296(5)
_cell_length_b                   6.6323(2)
_cell_length_c                   35.6388(12)
_cell_angle_alpha                90
_cell_angle_beta                 90.160(3)
_cell_angle_gamma                90
_cell_volume                     3268.85
_exptl_crystal_colour            red
_exptl_crystal_description       needle
_cell_formula_units_Z            8
loop_
_atom_site_label
_atom_site_type_symbol
_atom_site_fract_x
_atom_site_fract_y
_atom_site_fract_z
C1 C 0.63923(14) 0.4907(3) 0.95344(5)
H1 H 0.5982 0.4108 0.9366
C2 C 0.65136(16) 0.3763(4) 0.99005(6)
H2 H 0.6808 0.2479 0.9852
H3 H 0.5892 0.3560 1.0013
H4 H 0.6917 0.4526 1.0068
C3 C 0.59311(15) 0.6956(4) 0.95870(6)
H5 H 0.5872 0.7614 0.9348
H6 H 0.6327 0.7759 0.9750
H7 H 0.5301 0.6795 0.9696
C4 C 0.75264(13) 0.5318(3) 0.89945(5)
C5 C 0.84786(12) 0.5595(3) 0.88395(5)
C6 C 0.86253(12) 0.5709(3) 0.84557(5)
H8 H 0.9249 0.5888 0.8364
C7 C 0.78628(12) 0.5560(3) 0.82064(4)
C8 C 0.69150(13) 0.5315(3) 0.83496(5)
H9 H 0.6395 0.5218 0.8185
C9 C 0.67582(12) 0.5222(3) 0.87264(5)
H10 H 0.6127 0.5089 0.8812
C10 C 0.77164(12) 0.5554(3) 0.72192(5)
C11 C 0.86772(12) 0.5694(3) 0.70982(5)
H11 H 0.9176 0.5783 0.7273
C12 C 0.88826(12) 0.5700(3) 0.67190(5)
H12 H 0.9518 0.5823 0.6637
C13 C 0.81343(12) 0.5522(3) 0.64607(5)
C14 C 0.71757(12) 0.5361(3) 0.65685(5)
H13 H 0.6680 0.5226 0.6393
C15 C 0.69924(12) 0.5411(3) 0.69496(5)
N1 N 0.73525(12) 0.5126(3) 0.93614(4)
N2 N 0.93287(10) 0.5773(3) 0.90738(4)
N3 N 0.81138(10) 0.5685(3) 0.78257(4)
N4 N 0.74171(10) 0.5462(3) 0.76018(4)
N5 N 0.83556(11) 0.5489(3) 0.60573(4)
N6 N 0.59736(11) 0.5318(3) 0.70681(4)
O1 O 0.92437(9) 0.5654(3) 0.94189(3)
O2 O 1.01182(9) 0.6053(3) 0.89222(4)
O3 O 0.92054(9) 0.5629(3) 0.59636(3)
O4 O 0.76859(10) 0.5319(3) 0.58371(3)
O5 O 0.56385(11) 0.6760(3) 0.72299(5)
O6 O 0.55208(10) 0.3791(2) 0.69888(4)
H14 H 0.7813(17) 0.523(4) 0.9497(6)
C16 C 0.63943(14) 0.9904(3) 0.54663(5)
H15 H 0.5986 0.9104 0.5634
C17 C 0.65128(16) 0.8760(4) 0.51001(6)
H16 H 0.6809 0.7477 0.5149
H17 H 0.6915 0.9524 0.4933
H18 H 0.5890 0.8556 0.4987
C18 C 0.59304(15) 1.1960(4) 0.54138(6)
H19 H 0.5873 1.2616 0.5653
H20 H 0.5300 1.1799 0.5305
H21 H 0.6325 1.2765 0.5251
C19 C 0.75283(13) 1.0318(3) 0.60044(5)
C20 C 0.84762(12) 1.0591(3) 0.61603(5)
C21 C 0.86274(12) 1.0710(3) 0.65444(5)
H22 H 0.9251 1.0893 0.6636
C22 C 0.78631(12) 1.0559(3) 0.67943(5)
C23 C 0.69159(13) 1.0318(3) 0.66500(5)
H23 H 0.6397 1.0224 0.6814
C24 C 0.67558(12) 1.0222(3) 0.62743(5)
H24 H 0.6124 1.0090 0.6188
C25 C 0.77171(12) 1.0553(3) 0.77800(5)
C26 C 0.86766(13) 1.0696(3) 0.79022(5)
H25 H 0.9174 1.0786 0.7728
C27 C 0.88849(12) 1.0703(3) 0.82806(5)
H26 H 0.9521 1.0824 0.8363
C28 C 0.81319(13) 1.0525(3) 0.85392(5)
C29 C 0.71777(13) 1.0361(3) 0.84310(5)
H27 H 0.6683 1.0225 0.8606
C30 C 0.69934(12) 1.0408(3) 0.80516(5)
N7 N 0.73517(12) 1.0121(3) 0.56392(4)
N8 N 0.93302(11) 1.0775(3) 0.59260(4)
N9 N 0.81142(10) 1.0689(3) 0.71735(4)
N10 N 0.74174(10) 1.0457(3) 0.73995(4)
N11 N 0.83560(11) 1.0491(3) 0.89426(4)
N12 N 0.59736(11) 1.0313(3) 0.79314(4)
O7 O 0.92445(9) 1.0653(3) 0.55814(3)
O8 O 1.01176(9) 1.1052(3) 0.60776(4)
O9 O 0.92055(9) 1.0631(3) 0.90362(3)
O10 O 0.76857(10) 1.0319(3) 0.91628(3)
O11 O 0.55211(10) 0.8792(2) 0.80110(4)
O12 O 0.56380(11) 1.1763(3) 0.77700(5)
H28 H 0.7797(18) 1.013(4) 0.5496(6)
loop_
_geom_bond_atom_site_label_1
_geom_bond_atom_site_label_2
_geom_bond_site_symmetry_1
_geom_bond_site_symmetry_2
C1 H1 1_555 1_555
C2 C1 1_555 1_555
H2 C2 1_555 1_555
H3 C2 1_555 1_555
H4 C2 1_555 1_555
C3 C1 1_555 1_555
H5 C3 1_555 1_555
H6 C3 1_555 1_555
H7 C3 1_555 1_555
C4 C5 1_555 1_555
C5 C6 1_555 1_555
C6 H8 1_555 1_555
C7 C6 1_555 1_555
C8 C7 1_555 1_555
H9 C8 1_555 1_555
C9 C4 1_555 1_555
H10 C9 1_555 1_555
C10 C11 1_555 1_555
C11 H11 1_555 1_555
C12 C11 1_555 1_555
H12 C12 1_555 1_555
C13 C12 1_555 1_555
C14 C13 1_555 1_555
H13 C14 1_555 1_555
C15 C10 1_555 1_555
N1 C1 1_555 1_555
N2 C5 1_555 1_555
N3 C7 1_555 1_555
N4 C10 1_555 1_555
N5 C13 1_555 1_555
N6 C15 1_555 1_555
O1 N2 1_555 1_555
O2 N2 1_555 1_555
O3 N5 1_555 1_555
O4 N5 1_555 1_555
O5 N6 1_555 1_555
O6 N6 1_555 1_555
H14 N1 1_555 1_555
C16 H15 1_555 1_555
C17 C16 1_555 1_555
H16 C17 1_555 1_555
H17 C17 1_555 1_555
H18 C17 1_555 1_555
C18 C16 1_555 1_555
H19 C18 1_555 1_555
H20 C18 1_555 1_555
H21 C18 1_555 1_555
C19 C20 1_555 1_555
C20 C21 1_555 1_555
C21 H22 1_555 1_555
C22 C21 1_555 1_555
C23 C22 1_555 1_555
H23 C23 1_555 1_555
C24 C19 1_555 1_555
H24 C24 1_555 1_555
C25 C26 1_555 1_555
C26 H25 1_555 1_555
C27 C26 1_555 1_555
H26 C27 1_555 1_555
C28 C27 1_555 1_555
C29 C28 1_555 1_555
H27 C29 1_555 1_555
C30 C25 1_555 1_555
N7 C16 1_555 1_555
N8 C20 1_555 1_555
N9 C22 1_555 1_555
N10 C25 1_555 1_555
N11 C28 1_555 1_555
N12 C30 1_555 1_555
O7 N8 1_555 1_555
O8 N8 1_555 1_555
O9 N11 1_555 1_555
O10 N11 1_555 1_555
O11 N12 1_555 1_555
O12 N12 1_555 1_555
H28 N7 1_555 1_555
C4 N1 1_555 1_555
C8 C9 1_555 1_555
C14 C15 1_555 1_555
N3 N4 1_555 1_555
C19 N7 1_555 1_555
C23 C24 1_555 1_555
C29 C30 1_555 1_555
N9 N10 1_555 1_555

#END
