
#######################################################################
#
#                 Cambridge Crystallographic Data Centre
#                                CCDC 
#
#######################################################################
#
# If this CIF has been generated from an entry in the Cambridge 
# Structural Database, then it will include bibliographic, chemical, 
# crystal, experimental, refinement or atomic coordinate data resulting 
# from the CCDC's data processing and validation procedures.
#
#######################################################################

data_MEFHAH
_chemical_formula_moiety         'C21 H15 N1 O2 S1'
_chemical_name_systematic        
(+-)-trans-2-Phenylthioazeto(1,2-d)dibenzo(b,f)oxazepin-1-one
_symmetry_cell_setting           monoclinic
_symmetry_space_group_name_H-M   'P 21/n'
_symmetry_Int_Tables_number      14
_space_group_name_Hall           '-P 2yn'
loop_
_symmetry_equiv_pos_site_id
_symmetry_equiv_pos_as_xyz
1 x,y,z
2 1/2-x,1/2+y,1/2-z
3 -x,-y,-z
4 1/2+x,1/2-y,1/2+z
_cell_length_a                   10.680(2)
_cell_length_b                   10.227(2)
_cell_length_c                   15.384(3)
_cell_angle_alpha                90
_cell_angle_beta                 92.17(3)
_cell_angle_gamma                90
_cell_volume                     1679.1
_exptl_crystal_colour            colorless
_exptl_crystal_description       block
_chemical_melting_point          '390-391 K'
_cell_formula_units_Z            4
_exptl_crystal_recrystallization_method ethanol
loop_
_atom_site_label
_atom_site_type_symbol
_atom_site_fract_x
_atom_site_fract_y
_atom_site_fract_z
S1 S 0.60973(5) 0.03197(6) 0.77508(3)
O1 O 0.92354(11) -0.28414(12) 0.96718(8)
O2 O 0.64121(13) 0.12690(12) 0.99998(9)
N1 N 0.76348(14) -0.05941(13) 0.97117(9)
C1 C 0.80843(18) -0.34758(18) 0.95168(12)
C2 C 0.8016(2) -0.47947(19) 0.96819(12)
H1 H 0.8700 -0.5234 0.9934
C3 C 0.6924(2) -0.5459(2) 0.94697(14)
H2 H 0.6870 -0.6352 0.9577
C4 C 0.5914(2) -0.4803(2) 0.90990(14)
H3 H 0.5179 -0.5255 0.8955
C5 C 0.59861(19) -0.34814(19) 0.89407(13)
H4 H 0.5292 -0.3042 0.8702
C6 C 0.70799(17) -0.27999(17) 0.91329(11)
C7 C 0.72700(17) -0.13841(16) 0.89373(12)
H5 H 0.7871 -0.1271 0.8477
C8 C 0.61366(17) -0.04358(17) 0.88039(11)
H6 H 0.5340 -0.0863 0.8925
C9 C 0.66820(18) 0.02947(19) 0.95977(13)
C10 C 0.93301(17) -0.19141(17) 1.03406(12)
C11 C 1.02623(17) -0.2100(2) 1.09725(13)
H7 H 1.0763 -0.2844 1.0959
C12 C 1.04570(18) -0.1190(2) 1.16244(13)
H8 H 1.1091 -0.1316 1.2047
C13 C 0.97133(18) -0.0098(2) 1.16486(13)
H9 H 0.9835 0.0508 1.2094
C14 C 0.87855(17) 0.01035(18) 1.10152(12)
H10 H 0.8290 0.0850 1.1032
C15 C 0.85873(16) -0.08005(17) 1.03537(12)
C16 C 0.46395(17) 0.11511(18) 0.77190(13)
C17 C 0.42734(19) 0.19850(19) 0.83710(13)
H11 H 0.4775 0.2081 0.8874
C18 C 0.3165(2) 0.2674(2) 0.82749(14)
H12 H 0.2922 0.3229 0.8716
C19 C 0.2415(2) 0.2546(2) 0.75304(16)
H13 H 0.1676 0.3021 0.7464
C20 C 0.2773(2) 0.1712(2) 0.68912(15)
H14 H 0.2266 0.1615 0.6390
C21 C 0.3877(2) 0.1011(2) 0.69789(13)
H15 H 0.4106 0.0445 0.6540
loop_
_geom_bond_atom_site_label_1
_geom_bond_atom_site_label_2
_geom_bond_site_symmetry_1
_geom_bond_site_symmetry_2
S1 C8 1_555 1_555
O1 C1 1_555 1_555
O2 C9 1_555 1_555
N1 C7 1_555 1_555
C1 C2 1_555 1_555
C2 H1 1_555 1_555
C3 C2 1_555 1_555
H2 C3 1_555 1_555
C4 C3 1_555 1_555
H3 C4 1_555 1_555
C5 C4 1_555 1_555
H4 C5 1_555 1_555
C6 C1 1_555 1_555
C7 C6 1_555 1_555
H5 C7 1_555 1_555
C8 C7 1_555 1_555
H6 C8 1_555 1_555
C9 N1 1_555 1_555
C10 O1 1_555 1_555
C11 C10 1_555 1_555
H7 C11 1_555 1_555
C12 C11 1_555 1_555
H8 C12 1_555 1_555
C13 C12 1_555 1_555
H9 C13 1_555 1_555
C14 C13 1_555 1_555
H10 C14 1_555 1_555
C15 N1 1_555 1_555
C16 S1 1_555 1_555
C17 C16 1_555 1_555
H11 C17 1_555 1_555
C18 C17 1_555 1_555
H12 C18 1_555 1_555
C19 C18 1_555 1_555
H13 C19 1_555 1_555
C20 C19 1_555 1_555
H14 C20 1_555 1_555
C21 C16 1_555 1_555
H15 C21 1_555 1_555
C5 C6 1_555 1_555
C8 C9 1_555 1_555
C10 C15 1_555 1_555
C14 C15 1_555 1_555
C20 C21 1_555 1_555

#END
