
#######################################################################
#
#                 Cambridge Crystallographic Data Centre
#                                CCDC 
#
#######################################################################
#
# If this CIF has been generated from an entry in the Cambridge 
# Structural Database, then it will include bibliographic, chemical, 
# crystal, experimental, refinement or atomic coordinate data resulting 
# from the CCDC's data processing and validation procedures.
#
#######################################################################

data_MEFHOV
_chemical_formula_moiety         'C22 H21 N1 O3 S1'
_chemical_name_systematic        
(E)-4-Ethylidene-6-phenyl-N-(toluene-4-sulfonyl)-2,3,3a,4-tetrahydro-1H-cyclopenta(c)pyrrol-5-one
_symmetry_cell_setting           triclinic
_symmetry_space_group_name_H-M   'P -1'
_symmetry_Int_Tables_number      2
_space_group_name_Hall           '-P 1'
loop_
_symmetry_equiv_pos_site_id
_symmetry_equiv_pos_as_xyz
1 x,y,z
2 -x,-y,-z
_cell_length_a                   6.5446(3)
_cell_length_b                   11.3786(9)
_cell_length_c                   13.9632(13)
_cell_angle_alpha                105.233(3)
_cell_angle_beta                 99.165(5)
_cell_angle_gamma                101.332(4)
_cell_volume                     958.968
_exptl_crystal_colour            yellow
_exptl_crystal_description       'diamond-shaped plank'
_cell_formula_units_Z            2
loop_
_atom_site_label
_atom_site_type_symbol
_atom_site_fract_x
_atom_site_fract_y
_atom_site_fract_z
S1 S 1.01440(10) -0.07052(6) 0.29287(5)
N1 N 1.0148(3) 0.07183(18) 0.35367(16)
O1 O 0.9313(3) -0.14910(17) 0.34920(15)
O2 O 1.2226(2) -0.06511(17) 0.27279(15)
O3 O 0.7294(3) 0.50548(17) 0.40043(15)
C1 C 1.1146(3) 0.1771(2) 0.3186(2)
H1 H 1.0776 0.1559 0.2450
H2 H 1.2689 0.2004 0.3418
C2 C 1.0185(3) 0.2796(2) 0.36776(18)
C3 C 0.9085(3) 0.2419(2) 0.44522(18)
H3 H 1.0132 0.2616 0.5094
C4 C 0.8306(4) 0.0997(2) 0.3980(2)
H4 H 0.8080 0.0578 0.4490
H5 H 0.7001 0.0762 0.3459
C5 C 0.7578(3) 0.3263(2) 0.45882(19)
C6 C 0.6065(4) 0.3259(2) 0.5111(2)
H6 H 0.5288 0.3860 0.5102
C7 C 0.5476(4) 0.2398(3) 0.5712(2)
H7 H 0.6453 0.1869 0.5717
H8 H 0.4049 0.1884 0.5411
H9 H 0.5544 0.2881 0.6398
C8 C 0.8114(4) 0.4181(2) 0.40236(19)
C9 C 0.9752(3) 0.3812(2) 0.34503(18)
C10 C 1.0551(4) 0.4398(2) 0.27172(19)
C11 C 1.2373(4) 0.4180(3) 0.2388(2)
H10 H 1.3144 0.3703 0.2673
C12 C 1.3072(5) 0.4650(3) 0.1652(3)
H11 H 1.4282 0.4475 0.1436
C13 C 1.1980(6) 0.5377(3) 0.1238(3)
H12 H 1.2428 0.5683 0.0731
C14 C 1.0226(6) 0.5649(3) 0.1578(3)
H13 H 0.9508 0.6161 0.1310
C15 C 0.9506(5) 0.5175(3) 0.2311(2)
H14 H 0.8318 0.5375 0.2536
C16 C 0.8324(4) -0.1119(2) 0.17462(19)
C17 C 0.6149(4) -0.1491(2) 0.1671(2)
H15 H 0.5624 -0.1579 0.2236
C18 C 0.4769(4) -0.1730(3) 0.0749(3)
H16 H 0.3306 -0.1967 0.0707
C19 C 0.5468(5) -0.1632(3) -0.0110(2)
C20 C 0.7645(5) -0.1297(3) -0.0020(2)
H17 H 0.8169 -0.1247 -0.0593
C21 C 0.9067(4) -0.1035(3) 0.0892(2)
H18 H 1.0529 -0.0801 0.0931
C22 C 0.3922(6) -0.1877(3) -0.1109(3)
H19 H 0.4044 -0.1113 -0.1290
H20 H 0.2489 -0.2171 -0.1041
H21 H 0.4249 -0.2504 -0.1630
loop_
_geom_bond_atom_site_label_1
_geom_bond_atom_site_label_2
_geom_bond_site_symmetry_1
_geom_bond_site_symmetry_2
S1 N1 1_555 1_555
N1 C1 1_555 1_555
O1 S1 1_555 1_555
O2 S1 1_555 1_555
O3 C8 1_555 1_555
C1 H1 1_555 1_555
H2 C1 1_555 1_555
C2 C1 1_555 1_555
C3 C2 1_555 1_555
H3 C3 1_555 1_555
C4 N1 1_555 1_555
H4 C4 1_555 1_555
H5 C4 1_555 1_555
C5 C3 1_555 1_555
C6 C5 1_555 1_555
H6 C6 1_555 1_555
C7 C6 1_555 1_555
H7 C7 1_555 1_555
H8 C7 1_555 1_555
H9 C7 1_555 1_555
C8 C5 1_555 1_555
C9 C2 1_555 1_555
C10 C9 1_555 1_555
C11 C10 1_555 1_555
H10 C11 1_555 1_555
C12 C11 1_555 1_555
H11 C12 1_555 1_555
C13 C12 1_555 1_555
H12 C13 1_555 1_555
C14 C13 1_555 1_555
H13 C14 1_555 1_555
C15 C10 1_555 1_555
H14 C15 1_555 1_555
C16 S1 1_555 1_555
C17 C16 1_555 1_555
H15 C17 1_555 1_555
C18 C17 1_555 1_555
H16 C18 1_555 1_555
C19 C18 1_555 1_555
C20 C19 1_555 1_555
H17 C20 1_555 1_555
C21 C16 1_555 1_555
H18 C21 1_555 1_555
C22 C19 1_555 1_555
H19 C22 1_555 1_555
H20 C22 1_555 1_555
H21 C22 1_555 1_555
C3 C4 1_555 1_555
C8 C9 1_555 1_555
C14 C15 1_555 1_555
C20 C21 1_555 1_555

#END
