
#######################################################################
#
#                 Cambridge Crystallographic Data Centre
#                                CCDC 
#
#######################################################################
#
# If this CIF has been generated from an entry in the Cambridge 
# Structural Database, then it will include bibliographic, chemical, 
# crystal, experimental, refinement or atomic coordinate data resulting 
# from the CCDC's data processing and validation procedures.
#
#######################################################################

data_MEFMUH
_chemical_formula_moiety         'C15 H20 B1 Br1 O2'
_chemical_name_systematic        
2-(1-(4-Bromophenyl)prop-1-en-2-yl)-4,4,5,5-tetramethyl-1,3,2-dioxaborolane
_symmetry_cell_setting           monoclinic
_symmetry_space_group_name_H-M   'P 21/c'
_symmetry_Int_Tables_number      14
_space_group_name_Hall           '-P 2ybc'
loop_
_symmetry_equiv_pos_site_id
_symmetry_equiv_pos_as_xyz
1 x,y,z
2 -x,1/2+y,1/2-z
3 -x,-y,-z
4 x,1/2-y,1/2+z
_cell_length_a                   10.0397(8)
_cell_length_b                   7.5575(6)
_cell_length_c                   20.5113(15)
_cell_angle_alpha                90
_cell_angle_beta                 97.104(2)
_cell_angle_gamma                90
_cell_volume                     1544.35
_exptl_crystal_colour            colorless
_exptl_crystal_description       block
_cell_formula_units_Z            4
loop_
_atom_site_label
_atom_site_type_symbol
_atom_site_fract_x
_atom_site_fract_y
_atom_site_fract_z
Br1 Br 0.48730(4) 0.78503(6) 0.092434(17)
B1 B 1.1302(3) 0.7308(4) -0.14542(15)
O1 O 1.25911(18) 0.6748(3) -0.14601(9)
O2 O 1.07195(18) 0.7848(3) -0.20580(9)
C1 C 0.6249(3) 0.7776(4) 0.03683(14)
C2 C 0.5928(3) 0.7339(5) -0.02801(15)
H1 H 0.5049 0.7063 -0.0448
C3 C 0.6935(3) 0.7321(5) -0.06762(14)
H2 H 0.6718 0.7037 -0.1118
C4 C 0.8263(3) 0.7706(4) -0.04469(13)
C5 C 0.8540(3) 0.8160(4) 0.02082(14)
H3 H 0.9414 0.8454 0.0378
C6 C 0.7541(3) 0.8185(5) 0.06173(15)
H4 H 0.7747 0.8478 0.1059
C7 C 0.9257(3) 0.7651(4) -0.09136(13)
H5 H 0.8908 0.7886 -0.1346
C8 C 1.0579(3) 0.7322(3) -0.08271(12)
C9 C 1.1759(3) 0.7895(4) -0.24942(13)
C10 C 1.2833(3) 0.6615(4) -0.21427(13)
C11 C 1.2246(3) 0.9803(4) -0.25077(16)
H6 H 1.1546 1.0531 -0.2728
H7 H 1.3021 0.9861 -0.2738
H8 H 1.2477 1.0219 -0.2066
C12 C 1.1138(3) 0.7310(5) -0.31736(14)
H9 H 1.0490 0.8171 -0.3352
H10 H 1.0705 0.6187 -0.3142
H11 H 1.1829 0.7203 -0.3456
C13 C 1.2576(3) 0.4692(4) -0.23499(16)
H12 H 1.3261 0.3952 -0.2123
H13 H 1.2593 0.4586 -0.2815
H14 H 1.1714 0.4329 -0.2242
C14 C 1.4275(3) 0.7126(5) -0.21827(16)
H15 H 1.4861 0.6262 -0.1955
H16 H 1.4451 0.8265 -0.1984
H17 H 1.4430 0.7174 -0.2635
C15 C 1.1396(3) 0.6896(4) -0.01773(14)
H18 H 1.0830 0.6953 0.0167
H19 H 1.2112 0.7737 -0.0091
H20 H 1.1764 0.5727 -0.0194
loop_
_geom_bond_atom_site_label_1
_geom_bond_atom_site_label_2
_geom_bond_site_symmetry_1
_geom_bond_site_symmetry_2
Br1 C1 1_555 1_555
B1 O1 1_555 1_555
O1 C10 1_555 1_555
O2 B1 1_555 1_555
C1 C2 1_555 1_555
C2 H1 1_555 1_555
C3 C2 1_555 1_555
H2 C3 1_555 1_555
C4 C3 1_555 1_555
C5 C4 1_555 1_555
H3 C5 1_555 1_555
C6 C1 1_555 1_555
H4 C6 1_555 1_555
C7 C4 1_555 1_555
H5 C7 1_555 1_555
C8 B1 1_555 1_555
C9 O2 1_555 1_555
C10 C9 1_555 1_555
C11 C9 1_555 1_555
H6 C11 1_555 1_555
H7 C11 1_555 1_555
H8 C11 1_555 1_555
C12 C9 1_555 1_555
H9 C12 1_555 1_555
H10 C12 1_555 1_555
H11 C12 1_555 1_555
C13 C10 1_555 1_555
H12 C13 1_555 1_555
H13 C13 1_555 1_555
H14 C13 1_555 1_555
C14 C10 1_555 1_555
H15 C14 1_555 1_555
H16 C14 1_555 1_555
H17 C14 1_555 1_555
C15 C8 1_555 1_555
H18 C15 1_555 1_555
H19 C15 1_555 1_555
H20 C15 1_555 1_555
C5 C6 1_555 1_555
C7 C8 1_555 1_555

#END
