
#######################################################################
#
#                 Cambridge Crystallographic Data Centre
#                                CCDC 
#
#######################################################################
#
# If this CIF has been generated from an entry in the Cambridge 
# Structural Database, then it will include bibliographic, chemical, 
# crystal, experimental, refinement or atomic coordinate data resulting 
# from the CCDC's data processing and validation procedures.
#
#######################################################################

data_MEFNAO
_chemical_formula_moiety         'C19 H29 B1 O2'
_chemical_name_systematic        
2-(3,3-Dimethyl-1-(4-methylphenyl)but-1-en-1-yl)-4,4,5,5-tetramethyl-1,3,2-dioxaborolane
_symmetry_cell_setting           monoclinic
_symmetry_space_group_name_H-M   'P 21/c'
_symmetry_Int_Tables_number      14
_space_group_name_Hall           '-P 2ybc'
loop_
_symmetry_equiv_pos_site_id
_symmetry_equiv_pos_as_xyz
1 x,y,z
2 -x,1/2+y,1/2-z
3 -x,-y,-z
4 x,1/2-y,1/2+z
_cell_length_a                   12.1475(11)
_cell_length_b                   6.0763(6)
_cell_length_c                   24.653(2)
_cell_angle_alpha                90
_cell_angle_beta                 90.380(3)
_cell_angle_gamma                90
_cell_volume                     1819.64
_exptl_crystal_colour            colorless
_exptl_crystal_description       block
_cell_formula_units_Z            4
loop_
_atom_site_label
_atom_site_type_symbol
_atom_site_fract_x
_atom_site_fract_y
_atom_site_fract_z
O1 O 0.16605(10) 0.5106(2) 0.03541(5)
O2 O 0.34078(10) 0.3999(2) 0.01617(5)
B1 B 0.25395(15) 0.3856(3) 0.05113(8)
C1 C 0.14847(13) 0.2039(3) 0.13124(7)
C2 C 0.09549(15) 0.3691(3) 0.15977(8)
H1 H 0.1286 0.5103 0.1625
C3 C -0.00524(15) 0.3315(3) 0.18452(8)
H2 H -0.0388 0.4462 0.2047
C4 C -0.05737(15) 0.1299(3) 0.18024(8)
C5 C -0.00499(15) -0.0342(3) 0.15152(8)
H3 H -0.0390 -0.1744 0.1483
C6 C 0.09629(14) 0.0012(3) 0.12721(8)
H4 H 0.1303 -0.1146 0.1076
C7 C -0.16979(17) 0.0921(4) 0.20483(10)
H5 H -0.1931 -0.0597 0.1979
H6 H -0.2230 0.1940 0.1885
H7 H -0.1659 0.1175 0.2440
C8 C 0.25595(13) 0.2436(3) 0.10356(7)
C9 C 0.35353(14) 0.1649(3) 0.12050(7)
H8 H 0.4126 0.1958 0.0966
C10 C 0.38715(14) 0.0360(3) 0.17053(8)
C11 C 0.50930(16) 0.0832(4) 0.18125(9)
H9 H 0.5522 0.0425 0.1493
H10 H 0.5345 -0.0030 0.2126
H11 H 0.5193 0.2403 0.1888
C12 C 0.37389(19) -0.2106(3) 0.15986(9)
H12 H 0.2961 -0.2441 0.1531
H13 H 0.3997 -0.2934 0.1916
H14 H 0.4173 -0.2522 0.1281
C13 C 0.32272(17) 0.1010(4) 0.22096(8)
H15 H 0.2443 0.0707 0.2150
H16 H 0.3330 0.2583 0.2281
H17 H 0.3494 0.0157 0.2521
C14 C 0.18735(14) 0.5884(3) -0.01948(7)
C15 C 0.31570(14) 0.5714(3) -0.02323(7)
C16 C 0.14184(18) 0.8187(4) -0.02536(9)
H18 H 0.0614 0.8146 -0.0226
H19 H 0.1625 0.8786 -0.0608
H20 H 0.1721 0.9125 0.0034
C17 C 0.12761(17) 0.4334(4) -0.05775(9)
H21 H 0.0480 0.4515 -0.0535
H22 H 0.1482 0.2813 -0.0493
H23 H 0.1480 0.4673 -0.0952
C18 C 0.37482(17) 0.7778(4) -0.00462(9)
H24 H 0.4545 0.7568 -0.0080
H25 H 0.3567 0.8076 0.0333
H26 H 0.3516 0.9024 -0.0272
C19 C 0.35878(18) 0.4988(4) -0.07765(8)
H27 H 0.4394 0.4933 -0.0764
H28 H 0.3351 0.6036 -0.1056
H29 H 0.3298 0.3524 -0.0863
loop_
_geom_bond_atom_site_label_1
_geom_bond_atom_site_label_2
_geom_bond_site_symmetry_1
_geom_bond_site_symmetry_2
O1 B1 1_555 1_555
O2 B1 1_555 1_555
B1 C8 1_555 1_555
C1 C2 1_555 1_555
C2 H1 1_555 1_555
C3 C2 1_555 1_555
H2 C3 1_555 1_555
C4 C3 1_555 1_555
C5 C4 1_555 1_555
H3 C5 1_555 1_555
C6 C1 1_555 1_555
H4 C6 1_555 1_555
C7 C4 1_555 1_555
H5 C7 1_555 1_555
H6 C7 1_555 1_555
H7 C7 1_555 1_555
C8 C1 1_555 1_555
C9 C8 1_555 1_555
H8 C9 1_555 1_555
C10 C9 1_555 1_555
C11 C10 1_555 1_555
H9 C11 1_555 1_555
H10 C11 1_555 1_555
H11 C11 1_555 1_555
C12 C10 1_555 1_555
H12 C12 1_555 1_555
H13 C12 1_555 1_555
H14 C12 1_555 1_555
C13 C10 1_555 1_555
H15 C13 1_555 1_555
H16 C13 1_555 1_555
H17 C13 1_555 1_555
C14 O1 1_555 1_555
C15 O2 1_555 1_555
C16 C14 1_555 1_555
H18 C16 1_555 1_555
H19 C16 1_555 1_555
H20 C16 1_555 1_555
C17 C14 1_555 1_555
H21 C17 1_555 1_555
H22 C17 1_555 1_555
H23 C17 1_555 1_555
C18 C15 1_555 1_555
H24 C18 1_555 1_555
H25 C18 1_555 1_555
H26 C18 1_555 1_555
C19 C15 1_555 1_555
H27 C19 1_555 1_555
H28 C19 1_555 1_555
H29 C19 1_555 1_555
C5 C6 1_555 1_555
C14 C15 1_555 1_555

#END
