
#######################################################################
#
#                 Cambridge Crystallographic Data Centre
#                                CCDC 
#
#######################################################################
#
# If this CIF has been generated from an entry in the Cambridge 
# Structural Database, then it will include bibliographic, chemical, 
# crystal, experimental, refinement or atomic coordinate data resulting 
# from the CCDC's data processing and validation procedures.
#
#######################################################################

data_MEFQIZ
_chemical_formula_moiety         'C31 H26 Br1 N1 O3 S1'
_chemical_name_systematic        
N-((3-Bromophenyl)(5-oxo-4,4-diphenylcyclopent-1-en-1-yl)methyl)-4-methylbenzenesulfonamide
_symmetry_cell_setting           monoclinic
_symmetry_space_group_name_H-M   'P 21/n'
_symmetry_Int_Tables_number      14
_space_group_name_Hall           '-P 2yn'
loop_
_symmetry_equiv_pos_site_id
_symmetry_equiv_pos_as_xyz
1 x,y,z
2 1/2-x,1/2+y,1/2-z
3 -x,-y,-z
4 1/2+x,1/2-y,1/2+z
_cell_length_a                   13.424(2)
_cell_length_b                   9.9313(18)
_cell_length_c                   20.607(4)
_cell_angle_alpha                90
_cell_angle_beta                 92.308(4)
_cell_angle_gamma                90
_cell_volume                     2745.05
_exptl_crystal_colour            colorless
_exptl_crystal_description       prismatic
_cell_formula_units_Z            4
loop_
_atom_site_label
_atom_site_type_symbol
_atom_site_fract_x
_atom_site_fract_y
_atom_site_fract_z
Br1 Br 0.49643(9) 0.32676(14) 0.01565(6)
S1 S 0.21189(14) 0.1631(3) 0.28260(10)
N1 N 0.3066(4) 0.2186(7) 0.2435(3)
H1 H 0.2977 0.2850 0.2171
O1 O 0.5491(3) 0.0332(5) 0.3436(2)
O2 O 0.1378(4) 0.2561(7) 0.2575(3)
O3 O 0.1929(4) 0.0234(6) 0.2758(3)
C1 C 0.5451(5) 0.1556(8) 0.3391(3)
C2 C 0.6173(4) 0.2556(6) 0.3726(3)
C3 C 0.5669(5) 0.3935(7) 0.3586(3)
H2 H 0.5401 0.4307 0.3977
H3 H 0.6141 0.4569 0.3415
C4 C 0.4847(5) 0.3628(7) 0.3089(3)
H4 H 0.4463 0.4285 0.2877
C5 C 0.4729(4) 0.2308(7) 0.2986(3)
C6 C 0.4010(5) 0.1632(9) 0.2510(3)
H5 H 0.3893 0.0749 0.2705
C7 C 0.4497(5) 0.1303(8) 0.1886(3)
C8 C 0.4947(6) 0.0089(9) 0.1787(4)
H6 H 0.4935 -0.0566 0.2109
C9 C 0.5420(7) -0.0182(10) 0.1216(5)
H7 H 0.5740 -0.1004 0.1165
C10 C 0.5419(6) 0.0735(10) 0.0736(4)
H8 H 0.5709 0.0538 0.0344
C11 C 0.4981(6) 0.1973(9) 0.0833(4)
C12 C 0.4514(5) 0.2271(8) 0.1408(4)
H9 H 0.4220 0.3107 0.1468
C13 C 0.6278(5) 0.2377(6) 0.4463(3)
C14 C 0.5519(5) 0.1810(8) 0.4801(4)
H10 H 0.4975 0.1447 0.4568
C15 C 0.5535(7) 0.1758(9) 0.5463(4)
H11 H 0.5011 0.1367 0.5678
C16 C 0.6338(8) 0.2296(9) 0.5806(4)
H12 H 0.6362 0.2255 0.6257
C17 C 0.7102(7) 0.2890(8) 0.5494(4)
H13 H 0.7633 0.3280 0.5728
C18 C 0.7070(5) 0.2902(7) 0.4816(3)
H14 H 0.7600 0.3274 0.4601
C19 C 0.7148(5) 0.2354(7) 0.3384(3)
C20 C 0.7809(6) 0.1333(8) 0.3592(4)
H15 H 0.7665 0.0815 0.3952
C21 C 0.8673(6) 0.1086(9) 0.3267(5)
H16 H 0.9110 0.0417 0.3416
C22 C 0.8888(7) 0.1814(13) 0.2731(5)
H17 H 0.9474 0.1651 0.2518
C23 C 0.8242(8) 0.2782(12) 0.2506(5)
H18 H 0.8379 0.3258 0.2131
C24 C 0.7393(6) 0.3060(9) 0.2828(4)
H19 H 0.6969 0.3737 0.2672
C25 C 0.2350(4) 0.1930(7) 0.3667(3)
C26 C 0.2486(6) 0.0897(8) 0.4078(5)
H20 H 0.2439 0.0015 0.3928
C27 C 0.2695(7) 0.1158(10) 0.4717(5)
H21 H 0.2815 0.0434 0.4996
C28 C 0.2738(6) 0.2414(11) 0.4966(4)
C29 C 0.2624(6) 0.3463(9) 0.4538(4)
H22 H 0.2689 0.4345 0.4686
C30 C 0.2412(6) 0.3212(7) 0.3883(4)
H23 H 0.2313 0.3925 0.3595
C31 C 0.2939(7) 0.2698(12) 0.5688(4)
H24 H 0.2412 0.2320 0.5932
H25 H 0.2968 0.3653 0.5759
H26 H 0.3562 0.2298 0.5828
H27? H 0.3401 -0.0167 0.2776
H28? H 0.3484 0.2271 0.2460
N2? N 0.3304(15) 0.0680(18) 0.2714(8)
loop_
_geom_bond_atom_site_label_1
_geom_bond_atom_site_label_2
_geom_bond_site_symmetry_1
_geom_bond_site_symmetry_2
Br1 C11 1_555 1_555
S1 N1 1_555 1_555
N1 H1 1_555 1_555
O1 C1 1_555 1_555
O2 S1 1_555 1_555
O3 S1 1_555 1_555
C1 C2 1_555 1_555
C2 C3 1_555 1_555
C3 H2 1_555 1_555
H3 C3 1_555 1_555
C4 C3 1_555 1_555
H4 C4 1_555 1_555
C5 C1 1_555 1_555
C6 N1 1_555 1_555
H5 C6 1_555 1_555
C7 C6 1_555 1_555
C8 C7 1_555 1_555
H6 C8 1_555 1_555
C9 C8 1_555 1_555
H7 C9 1_555 1_555
C10 C9 1_555 1_555
H8 C10 1_555 1_555
C11 C10 1_555 1_555
C12 C7 1_555 1_555
H9 C12 1_555 1_555
C13 C2 1_555 1_555
C14 C13 1_555 1_555
H10 C14 1_555 1_555
C15 C14 1_555 1_555
H11 C15 1_555 1_555
C16 C15 1_555 1_555
H12 C16 1_555 1_555
C17 C16 1_555 1_555
H13 C17 1_555 1_555
C18 C13 1_555 1_555
H14 C18 1_555 1_555
C19 C2 1_555 1_555
C20 C19 1_555 1_555
H15 C20 1_555 1_555
C21 C20 1_555 1_555
H16 C21 1_555 1_555
C22 C21 1_555 1_555
H17 C22 1_555 1_555
C23 C22 1_555 1_555
H18 C23 1_555 1_555
C24 C19 1_555 1_555
H19 C24 1_555 1_555
C25 S1 1_555 1_555
C26 C25 1_555 1_555
H20 C26 1_555 1_555
C27 C26 1_555 1_555
H21 C27 1_555 1_555
C28 C27 1_555 1_555
C29 C28 1_555 1_555
H22 C29 1_555 1_555
C30 C25 1_555 1_555
H23 C30 1_555 1_555
C31 C28 1_555 1_555
H24 C31 1_555 1_555
H25 C31 1_555 1_555
H26 C31 1_555 1_555
C4 C5 1_555 1_555
C5 C6 1_555 1_555
C11 C12 1_555 1_555
C17 C18 1_555 1_555
C23 C24 1_555 1_555
C29 C30 1_555 1_555

#END
