
#######################################################################
#
#                 Cambridge Crystallographic Data Centre
#                                CCDC 
#
#######################################################################
#
# If this CIF has been generated from an entry in the Cambridge 
# Structural Database, then it will include bibliographic, chemical, 
# crystal, experimental, refinement or atomic coordinate data resulting 
# from the CCDC's data processing and validation procedures.
#
#######################################################################

data_MEFQEV
_chemical_formula_moiety         'C33 H30 Cl2 N2 O5 S2'
_chemical_name_systematic        
2,5-bis((4-chlorophenyl)(4-methylbenzenesulfonylamino)methyl)cyclopent-2-en-1-one
_symmetry_cell_setting           triclinic
_symmetry_space_group_name_H-M   'P -1'
_symmetry_Int_Tables_number      2
_space_group_name_Hall           '-P 1'
loop_
_symmetry_equiv_pos_site_id
_symmetry_equiv_pos_as_xyz
1 x,y,z
2 -x,-y,-z
_cell_length_a                   9.0943(10)
_cell_length_b                   11.3949(12)
_cell_length_c                   16.0640(18)
_cell_angle_alpha                90.442(2)
_cell_angle_beta                 97.860(2)
_cell_angle_gamma                94.117(2)
_cell_volume                     1644.54
_exptl_crystal_colour            colorless
_exptl_crystal_description       prismatic
_cell_formula_units_Z            2
loop_
_atom_site_label
_atom_site_type_symbol
_atom_site_fract_x
_atom_site_fract_y
_atom_site_fract_z
S1 S 1.13076(7) 0.33949(6) 0.50160(4)
S2 S 1.08377(9) 0.31183(8) 1.00063(5)
Cl1 Cl 0.41773(10) 0.02858(9) 0.32633(7)
Cl2 Cl 1.68504(10) 0.65013(11) 0.73753(8)
N1 N 0.9992(2) 0.3353(2) 0.56062(14)
N2 N 1.1319(3) 0.4066(3) 0.9309(2)
H1 H 1.1316 0.4813 0.9389
O1 O 1.1212(3) 0.1588(2) 0.73679(16)
O2 O 1.2403(2) 0.26439(18) 0.53740(13)
O3 O 1.17249(19) 0.46265(16) 0.49367(13)
O4 O 1.1843(3) 0.2270(2) 1.01969(16)
O5 O 1.0586(3) 0.3932(2) 1.06492(15)
C1 C 0.9253(3) 0.2220(2) 0.58171(17)
H2 H 1.0000 0.1639 0.5828
C2 C 0.8878(3) 0.2312(3) 0.67177(18)
H3 H 0.8238 0.1614 0.6823
C3 C 0.8132(3) 0.3410(3) 0.69529(18)
H4 H 0.7983 0.3932 0.6480
H5 H 0.7179 0.3197 0.7138
C4 C 0.9209(4) 0.3973(3) 0.76527(18)
H6 H 0.9056 0.4672 0.7919
C5 C 1.0410(3) 0.3377(3) 0.78589(17)
C6 C 1.0304(3) 0.2325(3) 0.73316(18)
C7 C 1.1766(6) 0.3553(5) 0.8521(3)
H7 H 1.2168 0.2789 0.8648
C8 C 1.2987(3) 0.4396(3) 0.82425(18)
C9 C 1.3923(3) 0.5142(3) 0.8795(2)
H8 H 1.3751 0.5209 0.9350
C10 C 1.5117(3) 0.5792(3) 0.8527(2)
H9 H 1.5742 0.6296 0.8899
C11 C 1.5364(3) 0.5684(3) 0.7710(2)
C12 C 1.4452(4) 0.4964(3) 0.7160(2)
H10 H 1.4620 0.4907 0.6603
C13 C 1.3275(4) 0.4314(3) 0.7429(2)
H11 H 1.2663 0.3811 0.7051
C14 C 0.7951(3) 0.1764(2) 0.51753(16)
C15 C 0.7967(3) 0.0691(3) 0.4806(2)
H12 H 0.8785 0.0253 0.4950
C16 C 0.6808(3) 0.0226(3) 0.4222(2)
H13 H 0.6844 -0.0515 0.3982
C17 C 0.5629(3) 0.0861(3) 0.40076(18)
C18 C 0.5570(4) 0.1949(3) 0.4358(2)
H14 H 0.4751 0.2383 0.4205
C19 C 0.6729(4) 0.2400(3) 0.4938(2)
H15 H 0.6689 0.3143 0.5175
C20 C 1.0530(3) 0.2821(2) 0.40254(17)
C21 C 1.0999(3) 0.1787(2) 0.3735(2)
H16 H 1.1758 0.1412 0.4051
C22 C 1.0334(4) 0.1318(3) 0.2978(2)
H17 H 1.0661 0.0627 0.2780
C23 C 0.9198(4) 0.1841(3) 0.25021(19)
C24 C 0.8748(4) 0.2875(3) 0.2803(2)
H18 H 0.7981 0.3243 0.2490
C25 C 0.9410(4) 0.3374(3) 0.3556(2)
H19 H 0.9104 0.4077 0.3746
C26 C 0.8471(5) 0.1290(4) 0.1678(2)
H20 H 0.9143 0.1385 0.1267
H21 H 0.7577 0.1667 0.1489
H22 H 0.8229 0.0467 0.1753
C27 C 0.9112(3) 0.2406(3) 0.95974(17)
C28 C 0.8970(4) 0.1240(3) 0.9372(2)
H23 H 0.9806 0.0809 0.9401
C29 C 0.7560(5) 0.0703(3) 0.9097(3)
H24 H 0.7459 -0.0095 0.8954
C30 C 0.6315(4) 0.1333(4) 0.9032(3)
C31 C 0.6502(4) 0.2502(4) 0.9231(3)
H25 H 0.5672 0.2942 0.9180
C32 C 0.7878(4) 0.3049(3) 0.9504(2)
H26 H 0.7976 0.3853 0.9625
C33 C 0.4787(5) 0.0700(6) 0.8771(4)
H27 H 0.4893 -0.0123 0.8686
H28 H 0.4332 0.1024 0.8257
H29 H 0.4174 0.0800 0.9204
H30 H 0.947(3) 0.386(2) 0.5517(15)
C34? C 1.1475(15) 0.4028(12) 0.8601(10)
H31? H 1.2551 0.2707 0.9081
H32? H 1.1040 0.4683 0.8854
N3? N 1.1872(11) 0.3174(13) 0.9145(8)
loop_
_geom_bond_atom_site_label_1
_geom_bond_atom_site_label_2
_geom_bond_site_symmetry_1
_geom_bond_site_symmetry_2
S1 N1 1_555 1_555
S2 N2 1_555 1_555
Cl1 C17 1_555 1_555
Cl2 C11 1_555 1_555
N1 C1 1_555 1_555
N2 H1 1_555 1_555
O1 C6 1_555 1_555
O2 S1 1_555 1_555
O3 S1 1_555 1_555
O4 S2 1_555 1_555
O5 S2 1_555 1_555
C1 H2 1_555 1_555
C2 C1 1_555 1_555
H3 C2 1_555 1_555
C3 C2 1_555 1_555
H4 C3 1_555 1_555
H5 C3 1_555 1_555
C4 C3 1_555 1_555
H6 C4 1_555 1_555
C5 C4 1_555 1_555
C6 C2 1_555 1_555
C7 N2 1_555 1_555
H7 C7 1_555 1_555
C8 C7 1_555 1_555
C9 C8 1_555 1_555
H8 C9 1_555 1_555
C10 C9 1_555 1_555
H9 C10 1_555 1_555
C11 C10 1_555 1_555
C12 C11 1_555 1_555
H10 C12 1_555 1_555
C13 C8 1_555 1_555
H11 C13 1_555 1_555
C14 C1 1_555 1_555
C15 C14 1_555 1_555
H12 C15 1_555 1_555
C16 C15 1_555 1_555
H13 C16 1_555 1_555
C17 C16 1_555 1_555
C18 C17 1_555 1_555
H14 C18 1_555 1_555
C19 C14 1_555 1_555
H15 C19 1_555 1_555
C20 S1 1_555 1_555
C21 C20 1_555 1_555
H16 C21 1_555 1_555
C22 C21 1_555 1_555
H17 C22 1_555 1_555
C23 C22 1_555 1_555
C24 C23 1_555 1_555
H18 C24 1_555 1_555
C25 C20 1_555 1_555
H19 C25 1_555 1_555
C26 C23 1_555 1_555
H20 C26 1_555 1_555
H21 C26 1_555 1_555
H22 C26 1_555 1_555
C27 S2 1_555 1_555
C28 C27 1_555 1_555
H23 C28 1_555 1_555
C29 C28 1_555 1_555
H24 C29 1_555 1_555
C30 C29 1_555 1_555
C31 C30 1_555 1_555
H25 C31 1_555 1_555
C32 C27 1_555 1_555
H26 C32 1_555 1_555
C33 C30 1_555 1_555
H27 C33 1_555 1_555
H28 C33 1_555 1_555
H29 C33 1_555 1_555
H30 N1 1_555 1_555
C5 C6 1_555 1_555
C5 C7 1_555 1_555
C12 C13 1_555 1_555
C18 C19 1_555 1_555
C24 C25 1_555 1_555
C31 C32 1_555 1_555

#END
