
#######################################################################
#
#                 Cambridge Crystallographic Data Centre
#                                CCDC 
#
#######################################################################
#
# If this CIF has been generated from an entry in the Cambridge 
# Structural Database, then it will include bibliographic, chemical, 
# crystal, experimental, refinement or atomic coordinate data resulting 
# from the CCDC's data processing and validation procedures.
#
#######################################################################

data_MEFSOG
_chemical_formula_moiety         'C18 H23 N2 O1 1+,I1 1-,0.5(C2 H3 N1),H2 O1'
_chemical_name_systematic        
'trans-4-(4-(N,N-Diethylamino)-2-hydroxystyryl)-N-methylpyridinium iodide acetonitrile solvate monohydrate'
_symmetry_cell_setting           monoclinic
_symmetry_space_group_name_H-M   'C 2/c'
_symmetry_Int_Tables_number      15
_space_group_name_Hall           '-C 2yn'
loop_
_symmetry_equiv_pos_site_id
_symmetry_equiv_pos_as_xyz
1 x,y,z
2 1/2+x,1/2+y,z
3 -x,y,1/2-z
4 1/2-x,1/2+y,1/2-z
5 -x,-y,-z
6 1/2-x,1/2-y,-z
7 x,-y,1/2+z
8 1/2+x,1/2-y,1/2+z
_cell_length_a                   35.970(4)
_cell_length_b                   11.6270(15)
_cell_length_c                   22.081(3)
_cell_angle_alpha                90
_cell_angle_beta                 114.341(7)
_cell_angle_gamma                90
_cell_volume                     8413.89
_exptl_crystal_colour            red
_exptl_crystal_description       plate
_cell_formula_units_Z            16
loop_
_atom_site_label
_atom_site_type_symbol
_atom_site_fract_x
_atom_site_fract_y
_atom_site_fract_z
I1 I 0.2500 0.2500 0.0000
I2 I 0.094566(15) 0.34692(5) 0.03218(2)
O1 O 0.11947(14) 0.3313(4) 0.4000(2)
H1 H 0.1017 0.3790 0.3956
N1 N 0.30783(14) 0.1465(4) 0.3818(2)
N2 N 0.06585(17) 0.1675(5) 0.5478(3)
C1 C 0.33912(18) 0.1553(6) 0.3550(3)
H2 H 0.3439 0.2349 0.3490
H3 H 0.3298 0.1163 0.3130
H4 H 0.3640 0.1205 0.3855
C2 C 0.2748(2) 0.2139(6) 0.3584(3)
H5 H 0.2720 0.2668 0.3252
C3 C 0.24537(19) 0.2077(5) 0.3816(3)
H6 H 0.2229 0.2563 0.3643
C4 C 0.31175(19) 0.0696(6) 0.4286(3)
H7 H 0.3344 0.0215 0.4441
C5 C 0.28344(18) 0.0592(5) 0.4547(3)
H8 H 0.2874 0.0059 0.4882
C6 C 0.24860(18) 0.1284(5) 0.4313(3)
C7 C 0.21838(18) 0.1188(5) 0.4581(3)
H9 H 0.2224 0.0610 0.4893
C8 C 0.18513(18) 0.1842(5) 0.4428(3)
H10 H 0.1815 0.2420 0.4117
C9 C 0.15438(18) 0.1766(5) 0.4682(3)
C10 C 0.12118(18) 0.2528(5) 0.4471(3)
C11 C 0.09192(17) 0.2504(5) 0.4724(3)
H11 H 0.0705 0.3030 0.4573
C12 C 0.15563(19) 0.0959(5) 0.5162(3)
H12 H 0.1769 0.0428 0.5310
C13 C 0.12712(19) 0.0913(5) 0.5423(3)
H13 H 0.1296 0.0366 0.5744
C14 C 0.09428(19) 0.1685(5) 0.5210(3)
C15 C 0.0296(2) 0.2395(6) 0.5228(3)
H14 H 0.0075 0.1985 0.5276
H15 H 0.0216 0.2531 0.4758
C16 C 0.0352(2) 0.3521(6) 0.5572(4)
H16 H 0.0099 0.3935 0.5400
H17 H 0.0556 0.3960 0.5497
H18 H 0.0438 0.3397 0.6040
C17 C 0.0723(2) 0.0959(6) 0.6078(4)
H19 H 0.1011 0.0928 0.6367
H20 H 0.0582 0.1310 0.6324
C18 C 0.0565(2) -0.0231(7) 0.5879(4)
H21 H 0.0605 -0.0672 0.6269
H22 H 0.0709 -0.0587 0.5647
H23 H 0.0279 -0.0200 0.5593
O2 O 0.31411(13) 0.5733(4) 0.3205(2)
H24 H 0.3102 0.6111 0.3486
N3 N 0.42782(16) 0.4444(5) 0.1300(3)
N4 N 0.17908(14) 0.4455(4) 0.2824(2)
C19 C 0.46136(19) 0.4371(7) 0.1077(3)
H25 H 0.4517 0.3994 0.0653
H26 H 0.4836 0.3941 0.1396
H27 H 0.4705 0.5132 0.1038
C20 C 0.3938(2) 0.3863(6) 0.0984(3)
H28 H 0.3907 0.3427 0.0613
C21 C 0.3630(2) 0.3897(7) 0.1198(5)
H29 H 0.3391 0.3486 0.0965
C22 C 0.4326(2) 0.5065(6) 0.1834(3)
H30 H 0.4565 0.5480 0.2055
C23 C 0.4026(3) 0.5095(7) 0.2057(4)
H31 H 0.4068 0.5522 0.2436
C24 C 0.3664(3) 0.4520(8) 0.1744(5)
C25 C 0.3434(6) 0.4786(12) 0.2182(7)
H32 H 0.3542 0.5246 0.2560
C26 C 0.3069(6) 0.4305(13) 0.1976(9)
H33 H 0.2981 0.3845 0.1598
C27 C 0.2798(2) 0.4458(6) 0.2309(3)
C28 C 0.2442(2) 0.3846(5) 0.1955(3)
H34 H 0.2425 0.3425 0.1586
C29 C 0.21158(19) 0.3832(5) 0.2121(3)
H35 H 0.1887 0.3397 0.1870
C30 C 0.21226(18) 0.4466(5) 0.2666(3)
C31 C 0.28027(19) 0.5112(5) 0.2847(3)
C32 C 0.24740(17) 0.5110(5) 0.3029(3)
H36 H 0.2488 0.5539 0.3394
C33 C 0.13913(19) 0.3990(6) 0.2361(3)
H37 H 0.1362 0.4103 0.1908
H38 H 0.1176 0.4417 0.2416
C34 C 0.1342(2) 0.2744(6) 0.2467(4)
H39 H 0.1078 0.2492 0.2160
H40 H 0.1370 0.2626 0.2914
H41 H 0.1549 0.2312 0.2397
C35 C 0.1796(2) 0.5018(6) 0.3418(3)
H42 H 0.2075 0.5043 0.3752
H43 H 0.1638 0.4561 0.3595
C36 C 0.1629(3) 0.6214(7) 0.3297(4)
H44 H 0.1641 0.6535 0.3705
H45 H 0.1351 0.6197 0.2975
H46 H 0.1788 0.6679 0.3133
N5 N 0.0145(3) 0.1931(8) 0.1841(5)
C37 C 0.0185(3) 0.2832(10) 0.1766(6)
C38 C 0.0249(3) 0.4015(9) 0.1599(7)
H47 H 0.0345 0.4478 0.1994
H48 H -0.0004 0.4322 0.1281
H49 H 0.0447 0.4018 0.1412
O3 O 0.18213(14) 0.1837(4) 0.0721(2)
H50 H 0.2003 0.2072 0.0613
H51 H 0.1645 0.2345 0.0571
O4 O 0.06887(16) 0.5120(5) 0.3787(2)
H52 H 0.0613 0.5538 0.3453
H53 H 0.0765 0.5593 0.4096
I3? I -0.0089(3) 0.69620(10) 0.2574(3)
C39? C 0.3240(6) 0.4239(15) 0.1733(11)
H54? H 0.3037 0.3825 0.1399
C40? C 0.3207(8) 0.4667(18) 0.2263(11)
H55? H 0.3418 0.5071 0.2588
loop_
_geom_bond_atom_site_label_1
_geom_bond_atom_site_label_2
_geom_bond_site_symmetry_1
_geom_bond_site_symmetry_2
O1 H1 1_555 1_555
N1 C1 1_555 1_555
N2 C14 1_555 1_555
C1 H2 1_555 1_555
H3 C1 1_555 1_555
H4 C1 1_555 1_555
C2 N1 1_555 1_555
H5 C2 1_555 1_555
C3 C2 1_555 1_555
H6 C3 1_555 1_555
C4 N1 1_555 1_555
H7 C4 1_555 1_555
C5 C4 1_555 1_555
H8 C5 1_555 1_555
C6 C3 1_555 1_555
C7 C6 1_555 1_555
H9 C7 1_555 1_555
C8 C7 1_555 1_555
H10 C8 1_555 1_555
C9 C8 1_555 1_555
C10 O1 1_555 1_555
C11 C10 1_555 1_555
H11 C11 1_555 1_555
C12 C9 1_555 1_555
H12 C12 1_555 1_555
C13 C12 1_555 1_555
H13 C13 1_555 1_555
C14 C11 1_555 1_555
C15 N2 1_555 1_555
H14 C15 1_555 1_555
H15 C15 1_555 1_555
C16 C15 1_555 1_555
H16 C16 1_555 1_555
H17 C16 1_555 1_555
H18 C16 1_555 1_555
C17 N2 1_555 1_555
H19 C17 1_555 1_555
H20 C17 1_555 1_555
C18 C17 1_555 1_555
H21 C18 1_555 1_555
H22 C18 1_555 1_555
H23 C18 1_555 1_555
O2 H24 1_555 1_555
N3 C19 1_555 1_555
N4 C30 1_555 1_555
C19 H25 1_555 1_555
H26 C19 1_555 1_555
H27 C19 1_555 1_555
C20 N3 1_555 1_555
H28 C20 1_555 1_555
C21 C20 1_555 1_555
H29 C21 1_555 1_555
C22 N3 1_555 1_555
H30 C22 1_555 1_555
C23 C22 1_555 1_555
H31 C23 1_555 1_555
C24 C21 1_555 1_555
C25 C24 1_555 1_555
H32 C25 1_555 1_555
C26 C25 1_555 1_555
H33 C26 1_555 1_555
C27 C26 1_555 1_555
C28 C27 1_555 1_555
H34 C28 1_555 1_555
C29 C28 1_555 1_555
H35 C29 1_555 1_555
C30 C29 1_555 1_555
C31 O2 1_555 1_555
C32 C30 1_555 1_555
H36 C32 1_555 1_555
C33 N4 1_555 1_555
H37 C33 1_555 1_555
H38 C33 1_555 1_555
C34 C33 1_555 1_555
H39 C34 1_555 1_555
H40 C34 1_555 1_555
H41 C34 1_555 1_555
C35 N4 1_555 1_555
H42 C35 1_555 1_555
H43 C35 1_555 1_555
C36 C35 1_555 1_555
H44 C36 1_555 1_555
H45 C36 1_555 1_555
H46 C36 1_555 1_555
N5 C37 1_555 1_555
C37 C38 1_555 1_555
C38 H47 1_555 1_555
H48 C38 1_555 1_555
H49 C38 1_555 1_555
O3 H50 1_555 1_555
H51 O3 1_555 1_555
O4 H52 1_555 1_555
H53 O4 1_555 1_555
C5 C6 1_555 1_555
C9 C10 1_555 1_555
C13 C14 1_555 1_555
C23 C24 1_555 1_555
C27 C31 1_555 1_555
C31 C32 1_555 1_555

#END
