
#######################################################################
#
#                 Cambridge Crystallographic Data Centre
#                                CCDC 
#
#######################################################################
#
# If this CIF has been generated from an entry in the Cambridge 
# Structural Database, then it will include bibliographic, chemical, 
# crystal, experimental, refinement or atomic coordinate data resulting 
# from the CCDC's data processing and validation procedures.
#
#######################################################################

data_MEFZUT
_chemical_formula_moiety         'C23 H23 N1 O4,0.5(C4 H8 O2)'
_chemical_name_systematic        
't-Butyl 4-((E)-4-(1,3-dioxo-1,3-dihydro-2H-isoindol-2-yl)-1-butenyl)benzoate ethyl acetate solvate'
_symmetry_cell_setting           monoclinic
_symmetry_space_group_name_H-M   'C 2/c'
_symmetry_Int_Tables_number      15
_space_group_name_Hall           '-C 2yn'
loop_
_symmetry_equiv_pos_site_id
_symmetry_equiv_pos_as_xyz
1 x,y,z
2 1/2+x,1/2+y,z
3 -x,y,1/2-z
4 1/2-x,1/2+y,1/2-z
5 -x,-y,-z
6 1/2-x,1/2-y,-z
7 x,-y,1/2+z
8 1/2+x,1/2-y,1/2+z
_cell_length_a                   14.875(3)
_cell_length_b                   8.9796(13)
_cell_length_c                   34.736(6)
_cell_angle_alpha                90
_cell_angle_beta                 95.981(4)
_cell_angle_gamma                90
_cell_volume                     4614.48
_exptl_crystal_colour            colorless
_cell_formula_units_Z            8
loop_
_atom_site_label
_atom_site_type_symbol
_atom_site_fract_x
_atom_site_fract_y
_atom_site_fract_z
N1 N 0.36958(16) 0.1370(3) 0.56430(7)
O1 O 0.24698(16) 0.0611(3) 0.52217(7)
O2 O 0.50917(16) 0.1472(3) 0.59964(7)
O3 O 0.09772(19) 1.2036(3) 0.64477(8)
O4 O 0.21944(14) 1.2391(2) 0.68797(6)
C1 C 0.3244(2) 0.0438(3) 0.53655(8)
C2 C 0.39015(19) -0.0752(3) 0.52904(8)
C3 C 0.3812(2) -0.1953(3) 0.50403(9)
H1 H 0.3280 -0.2121 0.4881
C4 C 0.4556(3) -0.2905(4) 0.50366(11)
H2 H 0.4521 -0.3717 0.4869
C5 C 0.5331(3) -0.2662(4) 0.52744(11)
H3 H 0.5815 -0.3314 0.5266
C6 C 0.5415(2) -0.1461(4) 0.55290(10)
H4 H 0.5942 -0.1307 0.5693
C7 C 0.4690(2) -0.0512(3) 0.55283(8)
C8 C 0.4569(2) 0.0860(3) 0.57588(9)
C9 C 0.3295(2) 0.2683(3) 0.58083(9)
H5 H 0.3404 0.2635 0.6088
H6 H 0.2647 0.2667 0.5739
C10 C 0.3672(2) 0.4138(3) 0.56710(9)
H7 H 0.4308 0.4210 0.5764
H8 H 0.3619 0.4151 0.5390
C11 C 0.3178(2) 0.5444(3) 0.58141(8)
H9 H 0.2561 0.5504 0.5738
C12 C 0.3538(2) 0.6519(3) 0.60391(8)
H10 H 0.4155 0.6449 0.6116
C13 C 0.3065(2) 0.7820(3) 0.61807(8)
C14 C 0.2164(2) 0.8152(4) 0.60568(9)
H11 H 0.1838 0.7525 0.5880
C15 C 0.1748(2) 0.9393(4) 0.61917(9)
H12 H 0.1150 0.9597 0.6102
C16 C 0.2210(2) 1.0343(3) 0.64603(8)
C17 C 0.3100(2) 1.0019(3) 0.65904(8)
H13 H 0.3417 1.0630 0.6773
C18 C 0.3522(2) 0.8780(3) 0.64480(9)
H14 H 0.4124 0.8589 0.6534
C19 C 0.1719(2) 1.1676(4) 0.65894(9)
C20 C 0.1821(2) 1.3733(4) 0.70611(10)
C21 C 0.2577(3) 1.4106(5) 0.73822(13)
H15 H 0.2689 1.3260 0.7549
H16 H 0.2397 1.4939 0.7530
H17 H 0.3119 1.4354 0.7268
C22 C 0.0984(3) 1.3311(5) 0.72425(12)
H18 H 0.0513 1.3054 0.7043
H19 H 0.0793 1.4137 0.7389
H20 H 0.1112 1.2473 0.7411
C23 C 0.1674(4) 1.4953(4) 0.67676(13)
H21 H 0.2222 1.5122 0.6651
H22 H 0.1504 1.5850 0.6892
H23 H 0.1201 1.4671 0.6572
O5? O 0.4652(6) 0.1739(7) 0.7304(2)
O6? O 0.4923(11) 0.3985(6) 0.7557(2)
C24? C 0.4976(10) 0.3597(12) 0.6861(2)
H24? H 0.4913 0.2800 0.6675
H25? H 0.4525 0.4342 0.6791
H26? H 0.5566 0.4031 0.6863
C25? C 0.4857(6) 0.3009(9) 0.7250(2)
C26? C 0.4809(10) 0.3384(15) 0.7920(2)
H27? H 0.5027 0.2377 0.7935
H28? H 0.4179 0.3374 0.7958
C27? C 0.5312(10) 0.4289(17) 0.8222(3)
H29? H 0.5235 0.3879 0.8472
H30? H 0.5942 0.4287 0.8184
H31? H 0.5087 0.5292 0.8208
loop_
_geom_bond_atom_site_label_1
_geom_bond_atom_site_label_2
_geom_bond_site_symmetry_1
_geom_bond_site_symmetry_2
N1 C1 1_555 1_555
O1 C1 1_555 1_555
O2 C8 1_555 1_555
O3 C19 1_555 1_555
O4 C19 1_555 1_555
C1 C2 1_555 1_555
C2 C3 1_555 1_555
C3 H1 1_555 1_555
C4 C3 1_555 1_555
H2 C4 1_555 1_555
C5 C4 1_555 1_555
H3 C5 1_555 1_555
C6 C5 1_555 1_555
H4 C6 1_555 1_555
C7 C2 1_555 1_555
C8 N1 1_555 1_555
C9 N1 1_555 1_555
H5 C9 1_555 1_555
H6 C9 1_555 1_555
C10 C9 1_555 1_555
H7 C10 1_555 1_555
H8 C10 1_555 1_555
C11 C10 1_555 1_555
H9 C11 1_555 1_555
C12 C11 1_555 1_555
H10 C12 1_555 1_555
C13 C12 1_555 1_555
C14 C13 1_555 1_555
H11 C14 1_555 1_555
C15 C14 1_555 1_555
H12 C15 1_555 1_555
C16 C15 1_555 1_555
C17 C16 1_555 1_555
H13 C17 1_555 1_555
C18 C13 1_555 1_555
H14 C18 1_555 1_555
C19 C16 1_555 1_555
C20 O4 1_555 1_555
C21 C20 1_555 1_555
H15 C21 1_555 1_555
H16 C21 1_555 1_555
H17 C21 1_555 1_555
C22 C20 1_555 1_555
H18 C22 1_555 1_555
H19 C22 1_555 1_555
H20 C22 1_555 1_555
C23 C20 1_555 1_555
H21 C23 1_555 1_555
H22 C23 1_555 1_555
H23 C23 1_555 1_555
C6 C7 1_555 1_555
C7 C8 1_555 1_555
C17 C18 1_555 1_555

#END
