
#######################################################################
#
#                 Cambridge Crystallographic Data Centre
#                                CCDC 
#
#######################################################################
#
# If this CIF has been generated from an entry in the Cambridge 
# Structural Database, then it will include bibliographic, chemical, 
# crystal, experimental, refinement or atomic coordinate data resulting 
# from the CCDC's data processing and validation procedures.
#
#######################################################################

data_MEGDEK
_chemical_formula_moiety         'C18 H22 O2'
_chemical_name_systematic        
(5R,7R,9R)-9-allyl-7-methyl-9-phenyl-1-oxaspiro[4.4]nonan-6-one
_symmetry_cell_setting           monoclinic
_symmetry_space_group_name_H-M   'P 21'
_symmetry_Int_Tables_number      4
_space_group_name_Hall           'P 2yb'
loop_
_symmetry_equiv_pos_site_id
_symmetry_equiv_pos_as_xyz
1 x,y,z
2 -x,1/2+y,-z
_cell_length_a                   15.9373(6)
_cell_length_b                   6.0706(2)
_cell_length_c                   16.2408(6)
_cell_angle_alpha                90
_cell_angle_beta                 105.336(2)
_cell_angle_gamma                90
_cell_volume                     1515.33
_exptl_crystal_colour            colorless
_exptl_crystal_description       needle
_cell_formula_units_Z            4
loop_
_atom_site_label
_atom_site_type_symbol
_atom_site_fract_x
_atom_site_fract_y
_atom_site_fract_z
O1 O 0.06915(9) 0.4237(3) 0.38657(9)
O2 O 0.16437(10) 0.6150(2) 0.54463(9)
C1 C 0.43781(14) 0.4393(4) 0.42208(15)
H1 H 0.3982 0.4622 0.3677
H2 H 0.4965 0.4005 0.4261
C2 C 0.41139(12) 0.4613(4) 0.49180(13)
H3 H 0.4530 0.4370 0.5449
C3 C 0.32063(12) 0.5218(3) 0.49406(12)
H4 H 0.2853 0.5521 0.4352
H5 H 0.3227 0.6583 0.5279
C4 C 0.27620(11) 0.3367(3) 0.53354(11)
C5 C 0.26612(11) 0.1262(3) 0.47797(11)
H6 H 0.3211 0.0922 0.4631
H7 H 0.2501 -0.0013 0.5087
C6 C 0.19312(11) 0.1782(3) 0.39721(11)
H8 H 0.2194 0.2529 0.3551
C7 C 0.13689(12) 0.3446(3) 0.42832(11)
C8 C 0.17881(12) 0.3945(3) 0.52303(12)
C9 C 0.13403(13) 0.2435(4) 0.57613(13)
H9 H 0.1039 0.1175 0.5421
H10 H 0.1759 0.1881 0.6284
C10 C 0.0693(4) 0.4087(9) 0.5969(5)
H11 H 0.0151 0.4148 0.5500
H12 H 0.0545 0.3671 0.6504
C11 C 0.1165(5) 0.6305(11) 0.6071(5)
H13 H 0.0748 0.7548 0.5949
H14 H 0.1557 0.6479 0.6652
C12 C 0.14207(13) -0.0214(4) 0.35414(13)
H15 H 0.1803 -0.1170 0.3316
H16 H 0.0933 0.0276 0.3072
H17 H 0.1198 -0.1033 0.3959
C13 C 0.32607(12) 0.3052(3) 0.62668(11)
C14 C 0.36803(12) 0.1084(3) 0.65696(12)
H18 H 0.3659 -0.0111 0.6187
C15 C 0.41297(13) 0.0844(4) 0.74244(13)
H19 H 0.4415 -0.0506 0.7619
C16 C 0.41629(14) 0.2558(4) 0.79912(13)
H20 H 0.4465 0.2388 0.8576
C17 C 0.37528(14) 0.4522(4) 0.76994(13)
H21 H 0.3772 0.5706 0.8087
C18 C 0.33133(13) 0.4778(3) 0.68459(12)
H22 H 0.3044 0.6148 0.6653
O3 O 0.24939(10) 0.5648(3) 0.26281(9)
O4 O 0.15160(9) 0.4592(3) 0.09528(10)
C21 C 0.45825(13) 0.3720(4) 0.04470(14)
H29 H 0.4689 0.2972 0.0979
H30 H 0.5029 0.3821 0.0160
C22 C 0.38158(13) 0.4617(3) 0.01080(12)
H31 H 0.3734 0.5350 -0.0424
C23 C 0.30662(12) 0.4565(3) 0.04993(12)
H32 H 0.3271 0.3976 0.1087
H33 H 0.2621 0.3538 0.0168
C24 C 0.26351(11) 0.6840(3) 0.05363(11)
C25 C 0.32994(12) 0.8500(3) 0.10634(11)
H34 H 0.3846 0.8466 0.0884
H35 H 0.3061 1.0014 0.0986
C26 C 0.34655(12) 0.7777(3) 0.19985(12)
H36 H 0.3958 0.6702 0.2126
C27 C 0.26407(12) 0.6548(3) 0.20149(12)
C28 C 0.20091(12) 0.6567(3) 0.11204(12)
C29 C 0.13494(14) 0.8471(4) 0.10885(13)
H37 H 0.1520 0.9379 0.1613
H38 H 0.1312 0.9427 0.0586
C30 C 0.36886(15) 0.9636(4) 0.26553(13)
H39 H 0.4240 1.0318 0.2635
H40 H 0.3743 0.9036 0.3227
H41 H 0.3225 1.0745 0.2525
C31 C 0.21939(12) 0.7617(3) -0.03664(12)
C32 C 0.24921(14) 0.9445(4) -0.07300(12)
H42 H 0.2998 1.0199 -0.0416
C33 C 0.20614(17) 1.0182(4) -0.15441(14)
H43 H 0.2270 1.1437 -0.1778
C34 C 0.13311(16) 0.9087(4) -0.20109(14)
H44 H 0.1024 0.9611 -0.2559
C35 C 0.10501(15) 0.7224(5) -0.16753(14)
H45 H 0.0559 0.6442 -0.2004
C36 C 0.14758(13) 0.6477(4) -0.08643(13)
H46 H 0.1278 0.5182 -0.0646
C37 C 0.0501(5) 0.7327(12) 0.1023(6)
H47 H 0.0119 0.7413 0.0434
H48 H 0.0195 0.7985 0.1420
C38 C 0.0762(6) 0.4921(13) 0.1271(6)
H49 H 0.0908 0.4718 0.1898
H50 H 0.0289 0.3891 0.0997
H23? H 0.0845 0.1640 0.5381
H24? H 0.1759 0.1339 0.6087
C19? C 0.0893(6) 0.6025(14) 0.5827(5)
H25? H 0.0338 0.5959 0.5374
H26? H 0.0881 0.7328 0.6191
C20? C 0.1027(5) 0.3919(9) 0.6361(5)
H27? H 0.1471 0.4110 0.6912
H28? H 0.0477 0.3385 0.6466
H51? H 0.1601 0.9660 0.1496
H52? H 0.1142 0.9095 0.0507
C39? C 0.0614(6) 0.7223(14) 0.1359(7)
H53? H 0.0725 0.7200 0.1988
H54? H 0.0042 0.7922 0.1108
C40? C 0.0641(9) 0.4896(18) 0.1008(9)
H55? H 0.0493 0.3794 0.1397
H56? H 0.0224 0.4750 0.0439
loop_
_geom_bond_atom_site_label_1
_geom_bond_atom_site_label_2
_geom_bond_site_symmetry_1
_geom_bond_site_symmetry_2
O1 C7 1_555 1_555
O2 C8 1_555 1_555
C1 H1 1_555 1_555
H2 C1 1_555 1_555
C2 C1 1_555 1_555
H3 C2 1_555 1_555
C3 C2 1_555 1_555
H4 C3 1_555 1_555
H5 C3 1_555 1_555
C4 C3 1_555 1_555
C5 C4 1_555 1_555
H6 C5 1_555 1_555
H7 C5 1_555 1_555
C6 C5 1_555 1_555
H8 C6 1_555 1_555
C7 C6 1_555 1_555
C8 C4 1_555 1_555
C9 C8 1_555 1_555
H9 C9 1_555 1_555
H10 C9 1_555 1_555
C10 C9 1_555 1_555
H11 C10 1_555 1_555
H12 C10 1_555 1_555
C11 O2 1_555 1_555
H13 C11 1_555 1_555
H14 C11 1_555 1_555
C12 C6 1_555 1_555
H15 C12 1_555 1_555
H16 C12 1_555 1_555
H17 C12 1_555 1_555
C13 C4 1_555 1_555
C14 C13 1_555 1_555
H18 C14 1_555 1_555
C15 C14 1_555 1_555
H19 C15 1_555 1_555
C16 C15 1_555 1_555
H20 C16 1_555 1_555
C17 C16 1_555 1_555
H21 C17 1_555 1_555
C18 C13 1_555 1_555
H22 C18 1_555 1_555
O3 C27 1_555 1_555
O4 C28 1_555 1_555
C21 H29 1_555 1_555
H30 C21 1_555 1_555
C22 C21 1_555 1_555
H31 C22 1_555 1_555
C23 C22 1_555 1_555
H32 C23 1_555 1_555
H33 C23 1_555 1_555
C24 C23 1_555 1_555
C25 C24 1_555 1_555
H34 C25 1_555 1_555
H35 C25 1_555 1_555
C26 C25 1_555 1_555
H36 C26 1_555 1_555
C27 C26 1_555 1_555
C28 C24 1_555 1_555
C29 C28 1_555 1_555
H37 C29 1_555 1_555
H38 C29 1_555 1_555
C30 C26 1_555 1_555
H39 C30 1_555 1_555
H40 C30 1_555 1_555
H41 C30 1_555 1_555
C31 C24 1_555 1_555
C32 C31 1_555 1_555
H42 C32 1_555 1_555
C33 C32 1_555 1_555
H43 C33 1_555 1_555
C34 C33 1_555 1_555
H44 C34 1_555 1_555
C35 C34 1_555 1_555
H45 C35 1_555 1_555
C36 C31 1_555 1_555
H46 C36 1_555 1_555
C37 C29 1_555 1_555
H47 C37 1_555 1_555
H48 C37 1_555 1_555
C38 O4 1_555 1_555
H49 C38 1_555 1_555
H50 C38 1_555 1_555
C7 C8 1_555 1_555
C10 C11 1_555 1_555
C17 C18 1_555 1_555
C27 C28 1_555 1_555
C35 C36 1_555 1_555
C37 C38 1_555 1_555

#END
