
#######################################################################
#
#                 Cambridge Crystallographic Data Centre
#                                CCDC 
#
#######################################################################
#
# If this CIF has been generated from an entry in the Cambridge 
# Structural Database, then it will include bibliographic, chemical, 
# crystal, experimental, refinement or atomic coordinate data resulting 
# from the CCDC's data processing and validation procedures.
#
#######################################################################

data_MEGNAP
_chemical_formula_moiety         'C60 H90 Si4'
_chemical_name_systematic        
(Pyrene-1,3,6,8-tetrayltetraethyne-2,1-diyl)tetrakis(triisopropylsilane)
_symmetry_cell_setting           triclinic
_symmetry_space_group_name_H-M   'P -1'
_symmetry_Int_Tables_number      2
_space_group_name_Hall           '-P 1'
loop_
_symmetry_equiv_pos_site_id
_symmetry_equiv_pos_as_xyz
1 x,y,z
2 -x,-y,-z
_cell_length_a                   11.1306(3)
_cell_length_b                   11.7481(3)
_cell_length_c                   12.8102(3)
_cell_angle_alpha                77.772(2)
_cell_angle_beta                 75.612(2)
_cell_angle_gamma                65.072(2)
_cell_volume                     1460.43
_exptl_crystal_colour            yellow
_exptl_crystal_description       block
_cell_formula_units_Z            1
loop_
_atom_site_label
_atom_site_type_symbol
_atom_site_fract_x
_atom_site_fract_y
_atom_site_fract_z
Si1 Si 0.14606(7) 0.70150(6) 0.41976(5)
Si2 Si 0.41922(9) -0.13081(7) 0.85659(9)
C1 C 0.1224(3) 0.4954(2) 0.7554(2)
C2 C 0.1955(2) 0.3647(2) 0.76289(18)
H1 H 0.2489 0.3281 0.6989
C3 C 0.1926(3) 0.2859(3) 0.8614(2)
C4 C 0.1136(2) 0.33926(19) 0.95867(17)
C5 C 0.0400(2) 0.4721(2) 0.95145(17)
C6 C 0.0425(2) 0.5518(2) 0.85069(17)
C7 C -0.0343(3) 0.6842(2) 0.8487(2)
H2 H -0.0330 0.7370 0.7814
C8 C -0.1084(4) 0.7365(3) 0.9388(3)
H3 H -0.1580 0.8254 0.9344
C9 C 0.1277(3) 0.5688(2) 0.65125(19)
C10 C 0.1333(3) 0.6251(3) 0.5612(2)
C11 C 0.2680(2) 0.1525(2) 0.86263(19)
C12 C 0.3306(3) 0.0408(2) 0.8619(2)
C13 C 0.3167(3) 0.7081(3) 0.3785(2)
H4 H 0.3172 0.7629 0.3072
C14 C 0.3418(5) 0.7721(4) 0.4584(3)
H5 H 0.2715 0.8573 0.4631
H6 H 0.4300 0.7775 0.4331
H7 H 0.3398 0.7224 0.5301
C15 C 0.4324(4) 0.5803(4) 0.3608(4)
H8 H 0.4286 0.5201 0.4263
H9 H 0.5184 0.5901 0.3457
H10 H 0.4242 0.5485 0.2992
C16 C 0.1151(3) 0.6023(2) 0.3393(2)
H11 H 0.0161 0.6227 0.3574
C17 C 0.1465(4) 0.6390(4) 0.2172(2)
H12 H 0.2432 0.6200 0.1947
H13 H 0.0956 0.7297 0.1995
H14 H 0.1211 0.5909 0.1790
C18 C 0.1834(4) 0.4600(3) 0.3704(3)
H15 H 0.1556 0.4153 0.3306
H16 H 0.1571 0.4392 0.4487
H17 H 0.2814 0.4342 0.3520
C19 C 0.0113(4) 0.8667(3) 0.4155(2)
H18 H 0.0094 0.9012 0.4811
C20 C 0.0369(5) 0.9590(3) 0.3179(3)
H19 H 0.1255 0.9603 0.3132
H20 H -0.0328 1.0439 0.3265
H21 H 0.0343 0.9320 0.2514
C21 C -0.1295(4) 0.8666(3) 0.4269(4)
H22 H -0.1376 0.8456 0.3596
H23 H -0.1980 0.9505 0.4412
H24 H -0.1426 0.8036 0.4873
C22 C 0.5055(3) -0.2025(3) 0.9791(2)
H25 H 0.5763 -0.1676 0.9677
C23 C 0.5813(5) -0.3455(3) 0.9849(4)
H26 H 0.5170 -0.3857 0.9969
H27 H 0.6315 -0.3759 1.0449
H28 H 0.6442 -0.3667 0.9165
C24 C 0.4137(4) -0.1600(5) 1.0853(3)
H29 H 0.3697 -0.0675 1.0774
H30 H 0.4671 -0.1889 1.1432
H31 H 0.3452 -0.1962 1.1038
C25 C 0.2861(4) -0.1845(3) 0.8475(3)
H32 H 0.2521 -0.1349 0.7797
C26 C 0.3405(6) -0.3223(4) 0.8269(6)
H33 H 0.3521 -0.3775 0.8959
H34 H 0.4276 -0.3432 0.7775
H35 H 0.2768 -0.3347 0.7942
C27 C 0.1629(5) -0.1460(6) 0.9371(4)
H36 H 0.0867 -0.1498 0.9148
H37 H 0.1403 -0.0595 0.9503
H38 H 0.1823 -0.2038 1.0037
C28 C 0.5527(3) -0.1547(3) 0.7313(2)
H39 H 0.6071 -0.2477 0.7328
C29 C 0.4948(5) -0.1101(6) 0.6269(3)
H40 H 0.4406 -0.1572 0.6254
H41 H 0.5685 -0.1249 0.5642
H42 H 0.4379 -0.0196 0.6239
C30 C 0.6484(4) -0.0923(4) 0.7283(3)
H43 H 0.7177 -0.1094 0.6626
H44 H 0.6913 -0.1264 0.7926
H45 H 0.5981 -0.0008 0.7277
Si1A Si -0.14606(7) 0.29850(6) 1.58024(5)
Si2A Si -0.41922(9) 1.13081(7) 1.14341(9)
C1A C -0.1224(3) 0.5046(2) 1.2446(2)
C2A C -0.1955(2) 0.6353(2) 1.23711(18)
H1A H -0.2489 0.6719 1.3011
C3A C -0.1926(3) 0.7141(3) 1.1386(2)
C4A C -0.1136(2) 0.66074(19) 1.04133(17)
C5A C -0.0400(2) 0.5279(2) 1.04855(17)
C6A C -0.0425(2) 0.4482(2) 1.14931(17)
C7A C 0.0343(3) 0.3158(2) 1.1513(2)
H2A H 0.0330 0.2630 1.2186
C8A C 0.1084(4) 0.2635(3) 1.0612(3)
H3A H 0.1580 0.1746 1.0656
C9A C -0.1277(3) 0.4312(2) 1.34875(19)
C10A C -0.1333(3) 0.3749(3) 1.4388(2)
C11A C -0.2680(2) 0.8475(2) 1.13737(19)
C12A C -0.3306(3) 0.9592(2) 1.1381(2)
C13A C -0.3167(3) 0.2919(3) 1.6215(2)
H4A H -0.3172 0.2371 1.6928
C14A C -0.3418(5) 0.2279(4) 1.5416(3)
H5A H -0.2715 0.1427 1.5369
H6A H -0.4300 0.2225 1.5669
H7A H -0.3398 0.2776 1.4699
C15A C -0.4324(4) 0.4197(4) 1.6392(4)
H8A H -0.4286 0.4799 1.5737
H9A H -0.5184 0.4099 1.6543
H10A H -0.4242 0.4515 1.7008
C16A C -0.1151(3) 0.3977(2) 1.6607(2)
H11A H -0.0161 0.3773 1.6426
C17A C -0.1465(4) 0.3610(4) 1.7828(2)
H12A H -0.2432 0.3800 1.8053
H13A H -0.0956 0.2703 1.8005
H14A H -0.1211 0.4091 1.8210
C18A C -0.1834(4) 0.5400(3) 1.6296(3)
H15A H -0.1556 0.5847 1.6694
H16A H -0.1571 0.5608 1.5513
H17A H -0.2814 0.5658 1.6480
C19A C -0.0113(4) 0.1333(3) 1.5845(2)
H18A H -0.0094 0.0988 1.5189
C20A C -0.0369(5) 0.0410(3) 1.6821(3)
H19A H -0.1255 0.0397 1.6868
H20A H 0.0328 -0.0439 1.6735
H21A H -0.0343 0.0680 1.7486
C21A C 0.1295(4) 0.1334(3) 1.5731(4)
H22A H 0.1376 0.1544 1.6404
H23A H 0.1980 0.0495 1.5588
H24A H 0.1426 0.1964 1.5127
C22A C -0.5055(3) 1.2025(3) 1.0209(2)
H25A H -0.5763 1.1676 1.0323
C23A C -0.5813(5) 1.3455(3) 1.0151(4)
H26A H -0.5170 1.3857 1.0031
H27A H -0.6315 1.3759 0.9551
H28A H -0.6442 1.3667 1.0835
C24A C -0.4137(4) 1.1600(5) 0.9147(3)
H29A H -0.3697 1.0675 0.9226
H30A H -0.4671 1.1889 0.8568
H31A H -0.3452 1.1962 0.8962
C25A C -0.2861(4) 1.1845(3) 1.1525(3)
H32A H -0.2521 1.1349 1.2203
C26A C -0.3405(6) 1.3223(4) 1.1731(6)
H33A H -0.3521 1.3775 1.1041
H34A H -0.4276 1.3432 1.2225
H35A H -0.2768 1.3347 1.2058
C27A C -0.1629(5) 1.1460(6) 1.0629(4)
H36A H -0.0867 1.1498 1.0852
H37A H -0.1403 1.0595 1.0497
H38A H -0.1823 1.2038 0.9963
C28A C -0.5527(3) 1.1547(3) 1.2687(2)
H39A H -0.6071 1.2477 1.2672
C29A C -0.4948(5) 1.1101(6) 1.3731(3)
H40A H -0.4406 1.1572 1.3746
H41A H -0.5685 1.1249 1.4358
H42A H -0.4379 1.0196 1.3761
C30A C -0.6484(4) 1.0923(4) 1.2717(3)
H43A H -0.7177 1.1094 1.3374
H44A H -0.6913 1.1264 1.2074
H45A H -0.5981 1.0008 1.2723
C31? C -0.010(3) 0.6851(18) 0.797(2)
C32? C -0.095(3) 0.798(3) 0.840(3)
H46? H -0.1248 0.8807 0.8027
C33? C 0.128(7) 0.244(3) 1.038(2)
C34? C -0.006(4) 0.545(3) 0.9607(14)
C35? C 0.126(3) 0.4653(16) 0.7928(17)
H47? H 0.1588 0.4830 0.7180
C36? C 0.168(4) 0.3329(15) 0.8518(15)
H48? H 0.2240 0.2576 0.8195
C37? C 0.040(4) 0.694(4) 0.672(3)
C38? C 0.086(4) 0.688(4) 0.577(3)
C39? C 0.301(4) -0.002(4) 0.967(4)
C40? C 0.232(4) 0.097(3) 1.003(3)
Si3? Si 0.4066(11) -0.1477(11) 0.8973(9)
loop_
_geom_bond_atom_site_label_1
_geom_bond_atom_site_label_2
_geom_bond_site_symmetry_1
_geom_bond_site_symmetry_2
Si1 C10 1_555 1_555
Si2 C12 1_555 1_555
C1 C2 1_555 1_555
C2 H1 1_555 1_555
C3 C2 1_555 1_555
C4 C3 1_555 1_555
C5 C4 1_555 1_555
C6 C1 1_555 1_555
C7 C6 1_555 1_555
H2 C7 1_555 1_555
C8 C7 1_555 1_555
H3 C8 1_555 1_555
C9 C1 1_555 1_555
C10 C9 1_555 1_555
C11 C3 1_555 1_555
C12 C11 1_555 1_555
C13 Si1 1_555 1_555
H4 C13 1_555 1_555
C14 C13 1_555 1_555
H5 C14 1_555 1_555
H6 C14 1_555 1_555
H7 C14 1_555 1_555
C15 C13 1_555 1_555
H8 C15 1_555 1_555
H9 C15 1_555 1_555
H10 C15 1_555 1_555
C16 Si1 1_555 1_555
H11 C16 1_555 1_555
C17 C16 1_555 1_555
H12 C17 1_555 1_555
H13 C17 1_555 1_555
H14 C17 1_555 1_555
C18 C16 1_555 1_555
H15 C18 1_555 1_555
H16 C18 1_555 1_555
H17 C18 1_555 1_555
C19 Si1 1_555 1_555
H18 C19 1_555 1_555
C20 C19 1_555 1_555
H19 C20 1_555 1_555
H20 C20 1_555 1_555
H21 C20 1_555 1_555
C21 C19 1_555 1_555
H22 C21 1_555 1_555
H23 C21 1_555 1_555
H24 C21 1_555 1_555
C22 Si2 1_555 1_555
H25 C22 1_555 1_555
C23 C22 1_555 1_555
H26 C23 1_555 1_555
H27 C23 1_555 1_555
H28 C23 1_555 1_555
C24 C22 1_555 1_555
H29 C24 1_555 1_555
H30 C24 1_555 1_555
H31 C24 1_555 1_555
C25 Si2 1_555 1_555
H32 C25 1_555 1_555
C26 C25 1_555 1_555
H33 C26 1_555 1_555
H34 C26 1_555 1_555
H35 C26 1_555 1_555
C27 C25 1_555 1_555
H36 C27 1_555 1_555
H37 C27 1_555 1_555
H38 C27 1_555 1_555
C28 Si2 1_555 1_555
H39 C28 1_555 1_555
C29 C28 1_555 1_555
H40 C29 1_555 1_555
H41 C29 1_555 1_555
H42 C29 1_555 1_555
C30 C28 1_555 1_555
H43 C30 1_555 1_555
H44 C30 1_555 1_555
H45 C30 1_555 1_555
Si1A C10A 1_555 1_555
Si2A C12A 1_555 1_555
C1A C2A 1_555 1_555
C2A H1A 1_555 1_555
C3A C2A 1_555 1_555
C4A C8 1_555 1_555
C5A C5 1_555 1_555
C6A C1A 1_555 1_555
C7A C6A 1_555 1_555
H2A C7A 1_555 1_555
C8A C4 1_555 1_555
H3A C8A 1_555 1_555
C9A C1A 1_555 1_555
C10A C9A 1_555 1_555
C11A C3A 1_555 1_555
C12A C11A 1_555 1_555
C13A Si1A 1_555 1_555
H4A C13A 1_555 1_555
C14A C13A 1_555 1_555
H5A C14A 1_555 1_555
H6A C14A 1_555 1_555
H7A C14A 1_555 1_555
C15A C13A 1_555 1_555
H8A C15A 1_555 1_555
H9A C15A 1_555 1_555
H10A C15A 1_555 1_555
C16A Si1A 1_555 1_555
H11A C16A 1_555 1_555
C17A C16A 1_555 1_555
H12A C17A 1_555 1_555
H13A C17A 1_555 1_555
H14A C17A 1_555 1_555
C18A C16A 1_555 1_555
H15A C18A 1_555 1_555
H16A C18A 1_555 1_555
H17A C18A 1_555 1_555
C19A Si1A 1_555 1_555
H18A C19A 1_555 1_555
C20A C19A 1_555 1_555
H19A C20A 1_555 1_555
H20A C20A 1_555 1_555
H21A C20A 1_555 1_555
C21A C19A 1_555 1_555
H22A C21A 1_555 1_555
H23A C21A 1_555 1_555
H24A C21A 1_555 1_555
C22A Si2A 1_555 1_555
H25A C22A 1_555 1_555
C23A C22A 1_555 1_555
H26A C23A 1_555 1_555
H27A C23A 1_555 1_555
H28A C23A 1_555 1_555
C24A C22A 1_555 1_555
H29A C24A 1_555 1_555
H30A C24A 1_555 1_555
H31A C24A 1_555 1_555
C25A Si2A 1_555 1_555
H32A C25A 1_555 1_555
C26A C25A 1_555 1_555
H33A C26A 1_555 1_555
H34A C26A 1_555 1_555
H35A C26A 1_555 1_555
C27A C25A 1_555 1_555
H36A C27A 1_555 1_555
H37A C27A 1_555 1_555
H38A C27A 1_555 1_555
C28A Si2A 1_555 1_555
H39A C28A 1_555 1_555
C29A C28A 1_555 1_555
H40A C29A 1_555 1_555
H41A C29A 1_555 1_555
H42A C29A 1_555 1_555
C30A C28A 1_555 1_555
H43A C30A 1_555 1_555
H44A C30A 1_555 1_555
H45A C30A 1_555 1_555
C5 C6 1_555 1_555
C3A C4A 1_555 1_555
C4A C5A 1_555 1_555
C5A C6A 1_555 1_555
C7A C8A 1_555 1_555

#END
