
#######################################################################
#
#                 Cambridge Crystallographic Data Centre
#                                CCDC 
#
#######################################################################
#
# If this CIF has been generated from an entry in the Cambridge 
# Structural Database, then it will include bibliographic, chemical, 
# crystal, experimental, refinement or atomic coordinate data resulting 
# from the CCDC's data processing and validation procedures.
#
#######################################################################

data_MEGNET
_chemical_formula_moiety         'C24 H20 Be1 N2 O2'
_chemical_name_systematic        
bis(2-(4-methylpyridin-2-yl)phenolato)-beryllium
_symmetry_cell_setting           monoclinic
_symmetry_space_group_name_H-M   'C 2/c'
_symmetry_Int_Tables_number      15
_space_group_name_Hall           '-C 2yn'
loop_
_symmetry_equiv_pos_site_id
_symmetry_equiv_pos_as_xyz
1 x,y,z
2 -x,y,1/2-z
3 1/2+x,1/2+y,z
4 1/2-x,1/2+y,1/2-z
5 -x,-y,-z
6 x,-y,1/2+z
7 1/2-x,1/2-y,-z
8 1/2+x,1/2-y,1/2+z
_cell_length_a                   13.7153(11)
_cell_length_b                   12.0337(10)
_cell_length_c                   12.8137(8)
_cell_angle_alpha                90
_cell_angle_beta                 116.234(4)
_cell_angle_gamma                90
_cell_volume                     1897.01
_exptl_crystal_colour            colorless
_exptl_crystal_description       block
_cell_formula_units_Z            4
loop_
_atom_site_label
_atom_site_type_symbol
_atom_site_fract_x
_atom_site_fract_y
_atom_site_fract_z
O1 O 0.10825(8) 0.56297(8) 0.28764(9)
N1 N -0.00573(8) 0.40858(9) 0.13951(9)
C1 C -0.09252(11) 0.34027(12) 0.09356(12)
H1 H -0.1454 0.3446 0.1224
C2 C -0.10811(11) 0.26515(12) 0.00767(12)
H2 H -0.1693 0.2170 -0.0206
C3 C -0.03282(11) 0.26013(12) -0.03798(12)
C4 C 0.05480(11) 0.33146(11) 0.00743(12)
H3 H 0.1062 0.3308 -0.0236
C5 C 0.06987(10) 0.40467(11) 0.09800(11)
C6 C -0.04746(15) 0.18021(15) -0.13356(15)
H4 H 0.0239 0.1571 -0.1259
H5 H -0.0882 0.2164 -0.2091
H6 H -0.0876 0.1149 -0.1281
C7 C 0.16553(10) 0.47792(11) 0.15233(12)
C8 C 0.24653(12) 0.47618(12) 0.11294(13)
H7 H 0.2378 0.4277 0.0509
C9 C 0.33799(12) 0.54214(13) 0.16092(14)
H8 H 0.3914 0.5390 0.1327
C10 C 0.35064(12) 0.61350(13) 0.25159(14)
H9 H 0.4134 0.6593 0.2858
C11 C 0.27368(12) 0.61827(13) 0.29176(13)
H10 H 0.2841 0.6678 0.3536
C12 C 0.17884(11) 0.55175(12) 0.24427(12)
Be1 Be 0.0000 0.4967(2) 0.2500
O1A O -0.10825(8) 0.56297(8) 0.21236(9)
N1A N 0.00573(8) 0.40858(9) 0.36049(9)
C1A C 0.09252(11) 0.34027(12) 0.40644(12)
H1A H 0.1454 0.3446 0.3776
C2A C 0.10811(11) 0.26515(12) 0.49233(12)
H2A H 0.1693 0.2170 0.5206
C3A C 0.03282(11) 0.26013(12) 0.53798(12)
C4A C -0.05480(11) 0.33146(11) 0.49257(12)
H3A H -0.1062 0.3308 0.5236
C5A C -0.06987(10) 0.40467(11) 0.40200(11)
C6A C 0.04746(15) 0.18021(15) 0.63356(15)
H4A H -0.0239 0.1571 0.6259
H5A H 0.0882 0.2164 0.7091
H6A H 0.0876 0.1149 0.6281
C7A C -0.16553(10) 0.47792(11) 0.34767(12)
C8A C -0.24653(12) 0.47618(12) 0.38706(13)
H7A H -0.2378 0.4277 0.4491
C9A C -0.33799(12) 0.54214(13) 0.33908(14)
H8A H -0.3914 0.5390 0.3673
C10A C -0.35064(12) 0.61350(13) 0.24841(14)
H9A H -0.4134 0.6593 0.2142
C11A C -0.27368(12) 0.61827(13) 0.20824(13)
H10A H -0.2841 0.6678 0.1464
C12A C -0.17884(11) 0.55175(12) 0.25573(12)
loop_
_geom_bond_atom_site_label_1
_geom_bond_atom_site_label_2
_geom_bond_site_symmetry_1
_geom_bond_site_symmetry_2
O1 C12 1_555 1_555
N1 C1 1_555 1_555
C1 H1 1_555 1_555
C2 C1 1_555 1_555
H2 C2 1_555 1_555
C3 C2 1_555 1_555
C4 C3 1_555 1_555
H3 C4 1_555 1_555
C5 N1 1_555 1_555
C6 C3 1_555 1_555
H4 C6 1_555 1_555
H5 C6 1_555 1_555
H6 C6 1_555 1_555
C7 C5 1_555 1_555
C8 C7 1_555 1_555
H7 C8 1_555 1_555
C9 C8 1_555 1_555
H8 C9 1_555 1_555
C10 C9 1_555 1_555
H9 C10 1_555 1_555
C11 C10 1_555 1_555
H10 C11 1_555 1_555
C12 C7 1_555 1_555
Be1 O1 1_555 1_555
O1A Be1 1_555 1_555
N1A Be1 1_555 1_555
C1A N1A 1_555 1_555
H1A C1A 1_555 1_555
C2A C1A 1_555 1_555
H2A C2A 1_555 1_555
C3A C2A 1_555 1_555
C4A C3A 1_555 1_555
H3A C4A 1_555 1_555
C5A N1A 1_555 1_555
C6A C3A 1_555 1_555
H4A C6A 1_555 1_555
H5A C6A 1_555 1_555
H6A C6A 1_555 1_555
C7A C5A 1_555 1_555
C8A C7A 1_555 1_555
H7A C8A 1_555 1_555
C9A C8A 1_555 1_555
H8A C9A 1_555 1_555
C10A C9A 1_555 1_555
H9A C10A 1_555 1_555
C11A C10A 1_555 1_555
H10A C11A 1_555 1_555
C12A O1A 1_555 1_555
N1 Be1 1_555 1_555
C4 C5 1_555 1_555
C11 C12 1_555 1_555
C4A C5A 1_555 1_555
C7A C12A 1_555 1_555
C11A C12A 1_555 1_555

#END
