
#######################################################################
#
#                 Cambridge Crystallographic Data Centre
#                                CCDC 
#
#######################################################################
#
# If this CIF has been generated from an entry in the Cambridge 
# Structural Database, then it will include bibliographic, chemical, 
# crystal, experimental, refinement or atomic coordinate data resulting 
# from the CCDC's data processing and validation procedures.
#
#######################################################################

data_MEGPAS
_chemical_formula_moiety         'C21 H36 O3 Si1'
_chemical_name_systematic        
(3aS,5aS,8R,9bS)-8-((t-butyl(dimethyl)silyl)oxy)-5a,9-dimethyl-3-methylenedecahydronaphtho[1,2-b]furan-2(3H)-one
_symmetry_cell_setting           monoclinic
_symmetry_space_group_name_H-M   'P 21'
_symmetry_Int_Tables_number      4
_space_group_name_Hall           'P 2yb'
loop_
_symmetry_equiv_pos_site_id
_symmetry_equiv_pos_as_xyz
1 x,y,z
2 -x,1/2+y,-z
_cell_length_a                   14.9864(4)
_cell_length_b                   6.4987(2)
_cell_length_c                   22.3479(5)
_cell_angle_alpha                90
_cell_angle_beta                 93.357(2)
_cell_angle_gamma                90
_cell_volume                     2172.77
_exptl_crystal_colour            colorless
_cell_formula_units_Z            4
loop_
_atom_site_label
_atom_site_type_symbol
_atom_site_fract_x
_atom_site_fract_y
_atom_site_fract_z
O1 O 0.7170(3) 0.6492(7) 0.19501(14)
O2 O 0.73286(19) 0.7346(6) 0.43182(12)
O3 O 0.6824(2) 0.7394(6) 0.52444(14)
C1 C 0.9482(3) 0.6770(12) 0.2700(2)
H1 H 0.9576 0.5282 0.2775
H2 H 1.0043 0.7340 0.2556
C2 C 0.8726(4) 0.7049(12) 0.2209(2)
H3 H 0.8657 0.8530 0.2112
H4 H 0.8885 0.6321 0.1841
C3 C 0.7851(3) 0.6217(10) 0.2411(2)
H5 H 0.7924 0.4708 0.2488
C4 C 0.7569(3) 0.7241(8) 0.29890(17)
H6 H 0.7065 0.6398 0.3131
C5 C 0.8348(3) 0.6989(9) 0.34642(17)
H7 H 0.8429 0.5472 0.3520
C6 C 0.8200(3) 0.7845(8) 0.40802(17)
H8 H 0.8270 0.9375 0.4069
C7 C 0.8884(3) 0.6966(9) 0.45430(17)
H9 H 0.8901 0.5441 0.4483
C8 C 0.9806(3) 0.7813(10) 0.4419(2)
H10 H 1.0265 0.7247 0.4711
H11 H 0.9810 0.9332 0.4454
C9 C 1.0000(3) 0.7160(11) 0.3781(2)
H12 H 1.0056 0.5642 0.3771
H13 H 1.0582 0.7747 0.3682
C10 C 0.9280(3) 0.7829(9) 0.3288(2)
C11 C 0.8420(3) 0.7370(8) 0.51101(18)
C12 C 0.7446(3) 0.7386(8) 0.49266(18)
C13 C 0.8744(4) 0.7664(9) 0.5669(2)
H14 H 0.8349 0.7902 0.5979
H15 H 0.9372 0.7637 0.5759
C14 C 0.7201(3) 0.9422(9) 0.28925(19)
H16 H 0.6713 0.9399 0.2581
H17 H 0.7678 1.0329 0.2768
H18 H 0.6976 0.9934 0.3268
C15 C 0.9336(3) 1.0178(10) 0.3215(2)
H19 H 0.9939 1.0558 0.3107
H20 H 0.9207 1.0847 0.3593
H21 H 0.8899 1.0627 0.2898
Si1 Si 0.67296(9) 0.4680(3) 0.15053(5)
C16 C 0.5815(5) 0.3339(12) 0.1875(4)
H22 H 0.5362 0.4343 0.1980
H23 H 0.6059 0.2655 0.2240
H24 H 0.5542 0.2311 0.1601
C17 C 0.7591(4) 0.2748(11) 0.1303(3)
H25 H 0.8073 0.3449 0.1106
H26 H 0.7314 0.1722 0.1029
H27 H 0.7836 0.2064 0.1667
C18 C 0.6273(4) 0.6133(11) 0.0834(2)
C19 C 0.7086(7) 0.6977(16) 0.0492(3)
H28 H 0.6862 0.7740 0.0136
H29 H 0.7455 0.5823 0.0370
H30 H 0.7446 0.7894 0.0757
C20 C 0.5696(6) 0.4751(16) 0.0419(3)
H31 H 0.5470 0.5544 0.0069
H32 H 0.5191 0.4226 0.0634
H33 H 0.6055 0.3595 0.0287
C21 C 0.5719(5) 0.7969(13) 0.1045(3)
H34 H 0.5479 0.8743 0.0696
H35 H 0.6102 0.8869 0.1301
H36 H 0.5225 0.7459 0.1273
O4 O 0.2199(2) 0.6406(7) 0.19440(13)
O5 O 0.23430(19) 0.7269(6) 0.43109(12)
O6 O 0.1842(2) 0.7149(6) 0.52387(13)
C22 C 0.4507(3) 0.7294(12) 0.2690(2)
H37 H 0.4665 0.5832 0.2760
H38 H 0.5040 0.8002 0.2549
C23 C 0.3738(3) 0.7428(11) 0.21961(18)
H39 H 0.3601 0.8891 0.2107
H40 H 0.3930 0.6776 0.1824
C24 C 0.2907(3) 0.6363(10) 0.23925(19)
H41 H 0.3062 0.4888 0.2473
C25 C 0.2573(3) 0.7289(9) 0.29769(17)
H42 H 0.2107 0.6328 0.3116
C26 C 0.3364(3) 0.7203(9) 0.34524(17)
H43 H 0.3510 0.5710 0.3504
C27 C 0.3184(3) 0.7981(8) 0.40713(17)
H44 H 0.3187 0.9520 0.4066
C28 C 0.3903(3) 0.7240(9) 0.45307(17)
H45 H 0.3983 0.5728 0.4469
C29 C 0.4784(3) 0.8286(10) 0.4410(2)
H46 H 0.5265 0.7798 0.4698
H47 H 0.4728 0.9797 0.4452
C30 C 0.4998(3) 0.7727(11) 0.3768(2)
H48 H 0.5118 0.6230 0.3751
H49 H 0.5554 0.8448 0.3671
C31 C 0.4257(3) 0.8261(9) 0.3279(2)
C32 C 0.3436(3) 0.7521(8) 0.51008(18)
C33 C 0.2462(3) 0.7305(8) 0.49191(18)
C34 C 0.3742(3) 0.7886(9) 0.5657(2)
H50 H 0.3337 0.8027 0.5966
H51 H 0.4367 0.8009 0.5748
C35 C 0.2119(3) 0.9384(9) 0.28801(18)
H52 H 0.1630 0.9258 0.2571
H53 H 0.2556 1.0388 0.2751
H54 H 0.1879 0.9845 0.3256
C36 C 0.4227(3) 1.0605(10) 0.3217(2)
H55 H 0.4813 1.1110 0.3110
H56 H 0.4075 1.1218 0.3599
H57 H 0.3774 1.0988 0.2903
Si2 Si 0.22050(11) 0.5183(4) 0.12878(6)
C37 C 0.2647(5) 0.6907(14) 0.0704(3)
H58 H 0.3278 0.7215 0.0807
H59 H 0.2304 0.8191 0.0685
H60 H 0.2593 0.6219 0.0313
C38 C 0.2907(5) 0.2788(18) 0.1351(5)
H61 H 0.3531 0.3163 0.1453
H62 H 0.2867 0.2052 0.0968
H63 H 0.2689 0.1899 0.1665
C39 C 0.0992(5) 0.4586(15) 0.1092(2)
C40 C 0.0467(5) 0.6676(18) 0.1041(3)
H64 H -0.0167 0.6400 0.0940
H65 H 0.0710 0.7527 0.0728
H66 H 0.0530 0.7405 0.1425
C41 C 0.0897(6) 0.3507(19) 0.0477(3)
H67 H 0.0265 0.3199 0.0377
H68 H 0.1241 0.2224 0.0493
H69 H 0.1123 0.4413 0.0170
C42 C 0.0618(5) 0.3203(16) 0.1579(4)
H70 H -0.0012 0.2898 0.1474
H71 H 0.0671 0.3917 0.1966
H72 H 0.0959 0.1916 0.1607
Si3? Si 0.1776(6) 0.464(2) 0.1506(3)
C43? C 0.1221(17) 0.562(4) 0.0826(7)
H73? H 0.1636 0.6487 0.0615
H74? H 0.0700 0.6431 0.0925
H75? H 0.1028 0.4463 0.0568
C44? C 0.264(3) 0.287(7) 0.136(2)
H76? H 0.2887 0.2276 0.1740
H77? H 0.3122 0.3584 0.1163
H78? H 0.2403 0.1763 0.1100
C45? C 0.1160(13) 0.345(3) 0.2063(7)
C46? C 0.104(2) 0.479(6) 0.2619(9)
C47? C 0.0213(14) 0.282(6) 0.1862(14)
H79? H -0.0042 0.1996 0.2177
H80? H 0.0224 0.2008 0.1493
H81? H -0.0153 0.4055 0.1786
C48? C 0.158(2) 0.148(4) 0.2325(13)
loop_
_geom_bond_atom_site_label_1
_geom_bond_atom_site_label_2
_geom_bond_site_symmetry_1
_geom_bond_site_symmetry_2
O1 C3 1_555 1_555
O2 C6 1_555 1_555
O3 C12 1_555 1_555
C1 H1 1_555 1_555
H2 C1 1_555 1_555
C2 C1 1_555 1_555
H3 C2 1_555 1_555
H4 C2 1_555 1_555
C3 C2 1_555 1_555
H5 C3 1_555 1_555
C4 C3 1_555 1_555
H6 C4 1_555 1_555
C5 C4 1_555 1_555
H7 C5 1_555 1_555
C6 C5 1_555 1_555
H8 C6 1_555 1_555
C7 C6 1_555 1_555
H9 C7 1_555 1_555
C8 C7 1_555 1_555
H10 C8 1_555 1_555
H11 C8 1_555 1_555
C9 C8 1_555 1_555
H12 C9 1_555 1_555
H13 C9 1_555 1_555
C10 C1 1_555 1_555
C11 C7 1_555 1_555
C12 O2 1_555 1_555
C13 C11 1_555 1_555
H14 C13 1_555 1_555
H15 C13 1_555 1_555
C14 C4 1_555 1_555
H16 C14 1_555 1_555
H17 C14 1_555 1_555
H18 C14 1_555 1_555
C15 C10 1_555 1_555
H19 C15 1_555 1_555
H20 C15 1_555 1_555
H21 C15 1_555 1_555
Si1 O1 1_555 1_555
C16 Si1 1_555 1_555
H22 C16 1_555 1_555
H23 C16 1_555 1_555
H24 C16 1_555 1_555
C17 Si1 1_555 1_555
H25 C17 1_555 1_555
H26 C17 1_555 1_555
H27 C17 1_555 1_555
C18 Si1 1_555 1_555
C19 C18 1_555 1_555
H28 C19 1_555 1_555
H29 C19 1_555 1_555
H30 C19 1_555 1_555
C20 C18 1_555 1_555
H31 C20 1_555 1_555
H32 C20 1_555 1_555
H33 C20 1_555 1_555
C21 C18 1_555 1_555
H34 C21 1_555 1_555
H35 C21 1_555 1_555
H36 C21 1_555 1_555
O4 C24 1_555 1_555
O5 C27 1_555 1_555
O6 C33 1_555 1_555
C22 H37 1_555 1_555
H38 C22 1_555 1_555
C23 C22 1_555 1_555
H39 C23 1_555 1_555
H40 C23 1_555 1_555
C24 C23 1_555 1_555
H41 C24 1_555 1_555
C25 C24 1_555 1_555
H42 C25 1_555 1_555
C26 C25 1_555 1_555
H43 C26 1_555 1_555
C27 C26 1_555 1_555
H44 C27 1_555 1_555
C28 C27 1_555 1_555
H45 C28 1_555 1_555
C29 C28 1_555 1_555
H46 C29 1_555 1_555
H47 C29 1_555 1_555
C30 C29 1_555 1_555
H48 C30 1_555 1_555
H49 C30 1_555 1_555
C31 C22 1_555 1_555
C32 C28 1_555 1_555
C33 O5 1_555 1_555
C34 C32 1_555 1_555
H50 C34 1_555 1_555
H51 C34 1_555 1_555
C35 C25 1_555 1_555
H52 C35 1_555 1_555
H53 C35 1_555 1_555
H54 C35 1_555 1_555
C36 C31 1_555 1_555
H55 C36 1_555 1_555
H56 C36 1_555 1_555
H57 C36 1_555 1_555
Si2 O4 1_555 1_555
C37 Si2 1_555 1_555
H58 C37 1_555 1_555
H59 C37 1_555 1_555
H60 C37 1_555 1_555
C38 Si2 1_555 1_555
H61 C38 1_555 1_555
H62 C38 1_555 1_555
H63 C38 1_555 1_555
C39 Si2 1_555 1_555
C40 C39 1_555 1_555
H64 C40 1_555 1_555
H65 C40 1_555 1_555
H66 C40 1_555 1_555
C41 C39 1_555 1_555
H67 C41 1_555 1_555
H68 C41 1_555 1_555
H69 C41 1_555 1_555
C42 C39 1_555 1_555
H70 C42 1_555 1_555
H71 C42 1_555 1_555
H72 C42 1_555 1_555
C5 C10 1_555 1_555
C9 C10 1_555 1_555
C11 C12 1_555 1_555
C26 C31 1_555 1_555
C30 C31 1_555 1_555
C32 C33 1_555 1_555

#END
