
#######################################################################
#
#                 Cambridge Crystallographic Data Centre
#                                CCDC 
#
#######################################################################
#
# If this CIF has been generated from an entry in the Cambridge 
# Structural Database, then it will include bibliographic, chemical, 
# crystal, experimental, refinement or atomic coordinate data resulting 
# from the CCDC's data processing and validation procedures.
#
#######################################################################

data_MEGSAS
_chemical_formula_moiety         'C62 H70 N2 O4 S4,2(C1 H2 Cl2)'
_chemical_name_systematic        
'5,11,17,23-Tetra-t-butyl-25,27-dihydroxy-26,28-bis(2-benzothiazolyl)thioethoxycalix(4)arene dichloromethane solvate'
_symmetry_cell_setting           triclinic
_symmetry_space_group_name_H-M   'P -1'
_symmetry_Int_Tables_number      2
_space_group_name_Hall           '-P 1'
loop_
_symmetry_equiv_pos_site_id
_symmetry_equiv_pos_as_xyz
1 x,y,z
2 -x,-y,-z
_cell_length_a                   12.259(4)
_cell_length_b                   15.370(5)
_cell_length_c                   18.155(6)
_cell_angle_alpha                95.357(6)
_cell_angle_beta                 102.246(6)
_cell_angle_gamma                101.896(6)
_cell_volume                     3237.36
_exptl_crystal_colour            colorless
_exptl_crystal_description       prism
_cell_formula_units_Z            2
_exptl_crystal_recrystallization_method dichloromethane/methanol
loop_
_atom_site_label
_atom_site_type_symbol
_atom_site_fract_x
_atom_site_fract_y
_atom_site_fract_z
S1 S 0.51404(11) 0.70021(8) 1.08734(6)
S2 S 0.21821(12) 0.83214(8) 1.10503(6)
S3 S 0.04525(13) 0.68446(10) 1.13829(7)
S4 S 0.41377(14) 0.68232(10) 1.22326(8)
N1 N 0.0563(3) 0.7062(2) 1.00047(18)
N2 N 0.6269(3) 0.7631(2) 1.23507(18)
O1 O 0.6011(2) 0.72073(17) 0.94414(12)
O2 O 0.3140(2) 0.85381(17) 0.90934(12)
O3 O 0.3597(2) 0.68388(15) 0.89948(13)
H1 H 0.3385 0.7308 0.8957
O4 O 0.5596(2) 0.90104(17) 0.92809(14)
H2 H 0.4896 0.8881 0.9217
C1 C 0.6971(3) 0.7495(2) 0.84321(19)
C2 C 0.7483(3) 0.8472(3) 0.8799(2)
H3 H 0.7466 0.8531 0.9332
H4 H 0.8278 0.8643 0.8768
C3 C 0.6816(3) 0.9098(2) 0.84005(18)
C4 C 0.7085(3) 0.9424(2) 0.77541(19)
H5 H 0.7698 0.9270 0.7589
C5 C 0.6482(3) 0.9969(2) 0.73415(18)
C6 C 0.5569(3) 1.0183(2) 0.76100(19)
H6 H 0.5159 1.0556 0.7355
C7 C 0.5250(3) 0.98633(19) 0.82417(18)
C8 C 0.4165(3) 1.0051(2) 0.8447(2)
H7 H 0.4235 1.0054 0.8990
H8 H 0.4079 1.0639 0.8328
C9 C 0.3119(3) 0.9348(2) 0.80142(19)
C10 C 0.2611(3) 0.9393(2) 0.7250(2)
H9 H 0.2886 0.9894 0.7035
C11 C 0.1722(3) 0.8721(2) 0.6808(2)
C12 C 0.1339(3) 0.7975(2) 0.71425(19)
H10 H 0.0748 0.7512 0.6851
C13 C 0.1802(3) 0.7892(2) 0.78957(17)
C14 C 0.1376(3) 0.7019(2) 0.82010(19)
H11 H 0.1536 0.7139 0.8752
H12 H 0.0550 0.6823 0.8010
C15 C 0.1925(3) 0.62657(19) 0.79769(17)
C16 C 0.1341(3) 0.5594(2) 0.73684(19)
H13 H 0.0621 0.5625 0.7096
C17 C 0.1795(4) 0.4878(2) 0.7153(2)
C18 C 0.2883(3) 0.4853(2) 0.7577(2)
H14 H 0.3203 0.4380 0.7445
C19 C 0.3499(3) 0.5502(2) 0.81827(18)
C20 C 0.4685(3) 0.5465(2) 0.8624(2)
H15 H 0.4770 0.4851 0.8563
H16 H 0.4766 0.5656 0.9161
C21 C 0.5622(3) 0.6066(2) 0.83475(18)
C22 C 0.5885(3) 0.5793(2) 0.76646(19)
H17 H 0.5505 0.5226 0.7402
C23 C 0.6688(3) 0.6326(2) 0.73567(19)
C24 C 0.7207(3) 0.7186(2) 0.7752(2)
H18 H 0.7729 0.7566 0.7553
C25 C 0.6215(3) 0.6916(2) 0.87377(17)
C26 C 0.3009(3) 0.62171(19) 0.83794(17)
C27 C 0.2654(3) 0.8595(2) 0.83295(17)
C28 C 0.5877(3) 0.9318(2) 0.86389(18)
C29 C 0.6984(4) 0.5977(3) 0.6620(2)
C30 C 0.5934(7) 0.5512(8) 0.6029(4)
H19 H 0.5475 0.5934 0.5888
H20 H 0.5499 0.5035 0.6228
H21 H 0.6149 0.5268 0.5589
C31 C 0.7644(9) 0.5239(7) 0.6816(5)
H22 H 0.7849 0.5002 0.6370
H23 H 0.7165 0.4765 0.6991
H24 H 0.8327 0.5494 0.7209
C32 C 0.7675(14) 0.6691(7) 0.6311(6)
H25 H 0.7255 0.7144 0.6197
H26 H 0.7839 0.6439 0.5853
H27 H 0.8382 0.6955 0.6679
C33 C 0.1165(4) 0.8802(3) 0.5978(2)
C34 C 0.0363(13) 0.8007(8) 0.5581(5)
H28 H 0.0055 0.8098 0.5070
H29 H -0.0249 0.7867 0.5836
H30 H 0.0741 0.7519 0.5569
C35 C 0.0399(15) 0.9405(14) 0.6016(6)
H31 H 0.0038 0.9478 0.5509
H32 H 0.0830 0.9978 0.6292
H33 H -0.0178 0.9154 0.6270
C36 C 0.2059(10) 0.9229(11) 0.5604(4)
H34 H 0.1709 0.9275 0.5088
H35 H 0.2614 0.8870 0.5607
H36 H 0.2432 0.9818 0.5874
C37 C 0.1144(4) 0.4123(3) 0.6488(3)
C38 C 0.0920(7) 0.3226(4) 0.6824(4)
H37 H 0.0447 0.3267 0.7179
H38 H 0.1638 0.3117 0.7081
H39 H 0.0537 0.2742 0.6420
C39 C 0.0068(9) 0.4326(7) 0.6056(6)
H40 H -0.0422 0.4397 0.6394
H41 H -0.0320 0.3840 0.5654
H42 H 0.0255 0.4870 0.5843
C40 C 0.1910(7) 0.4005(4) 0.5940(3)
H43 H 0.2059 0.4538 0.5705
H44 H 0.1529 0.3500 0.5554
H45 H 0.2621 0.3904 0.6216
C41 C 0.6797(4) 1.0316(3) 0.6630(2)
C42 C 0.7489(7) 1.1285(5) 0.6842(3)
H46 H 0.8175 1.1313 0.7224
H47 H 0.7038 1.1651 0.7037
H48 H 0.7692 1.1501 0.6399
C43 C 0.5713(6) 1.0336(7) 0.6035(3)
H49 H 0.5250 0.9737 0.5873
H50 H 0.5927 1.0581 0.5605
H51 H 0.5285 1.0703 0.6254
C44 C 0.7473(10) 0.9731(6) 0.6291(4)
H52 H 0.8153 0.9724 0.6666
H53 H 0.7684 0.9968 0.5858
H54 H 0.7010 0.9130 0.6136
C45 C 0.6807(4) 0.7013(3) 1.0082(2)
H55 H 0.7591 0.7255 1.0054
H56 H 0.6694 0.6368 1.0077
C46 C 0.6588(4) 0.7437(4) 1.0796(2)
H57 H 0.6719 0.8082 1.0799
H58 H 0.7122 0.7325 1.1233
C47 C 0.2493(3) 0.8730(2) 0.9636(2)
H59 H 0.1679 0.8482 0.9427
H60 H 0.2621 0.9373 0.9783
C48 C 0.2938(4) 0.8285(3) 1.0304(2)
H61 H 0.3741 0.8574 1.0516
H62 H 0.2894 0.7662 1.0123
C49 C 0.5314(4) 0.7212(3) 1.1863(2)
C50 C 0.1036(4) 0.7379(3) 1.0699(2)
C51 C 0.4989(5) 0.7245(3) 1.3132(3)
C52 C 0.6087(5) 0.7656(3) 1.3087(2)
C53 C 0.6928(6) 0.8056(4) 1.3748(3)
H63 H 0.7667 0.8334 1.3725
C54 C 0.6622(8) 0.8022(5) 1.4434(3)
H64 H 0.7169 0.8282 1.4881
C55 C 0.5538(9) 0.7617(5) 1.4478(3)
H65 H 0.5369 0.7618 1.4953
C56 C 0.4707(7) 0.7218(4) 1.3855(3)
H66 H 0.3978 0.6935 1.3894
C57 C -0.0539(4) 0.6093(3) 1.0649(2)
C58 C -0.0343(4) 0.6316(3) 0.9953(2)
C59 C -0.1044(5) 0.5809(3) 0.9285(3)
H67 H -0.0940 0.5948 0.8813
C60 C -0.1897(4) 0.5093(3) 0.9335(4)
H68 H -0.2366 0.4744 0.8890
C61 C -0.2075(4) 0.4880(3) 1.0026(4)
H69 H -0.2651 0.4387 1.0039
C62 C -0.1411(4) 0.5385(3) 1.0696(3)
H70 H -0.1544 0.5255 1.1164
C63 C 0.3529(6) 0.6808(5) 0.6489(4)
H71 H 0.2867 0.6862 0.6687
H72 H 0.3855 0.6349 0.6725
Cl1 Cl 0.3094(2) 0.64842(16) 0.55095(12)
Cl2 Cl 0.45407(18) 0.78272(13) 0.67241(14)
Cl3 Cl 0.9117(6) 0.8843(4) 0.2205(4)
Cl4 Cl 0.9320(6) 0.9404(6) 0.0709(4)
C64 C 0.8495(13) 0.9326(10) 0.1407(7)
Cl5? Cl 0.9626(7) 1.0269(10) 0.1809(5)
loop_
_geom_bond_atom_site_label_1
_geom_bond_atom_site_label_2
_geom_bond_site_symmetry_1
_geom_bond_site_symmetry_2
S1 C46 1_555 1_555
S2 C48 1_555 1_555
S3 C50 1_555 1_555
S4 C49 1_555 1_555
N1 C50 1_555 1_555
N2 C49 1_555 1_555
O1 C25 1_555 1_555
O2 C27 1_555 1_555
O3 H1 1_555 1_555
O4 H2 1_555 1_555
C1 C2 1_555 1_555
C2 H3 1_555 1_555
H4 C2 1_555 1_555
C3 C2 1_555 1_555
C4 C3 1_555 1_555
H5 C4 1_555 1_555
C5 C4 1_555 1_555
C6 C5 1_555 1_555
H6 C6 1_555 1_555
C7 C6 1_555 1_555
C8 C7 1_555 1_555
H7 C8 1_555 1_555
H8 C8 1_555 1_555
C9 C8 1_555 1_555
C10 C9 1_555 1_555
H9 C10 1_555 1_555
C11 C10 1_555 1_555
C12 C11 1_555 1_555
H10 C12 1_555 1_555
C13 C12 1_555 1_555
C14 C13 1_555 1_555
H11 C14 1_555 1_555
H12 C14 1_555 1_555
C15 C14 1_555 1_555
C16 C15 1_555 1_555
H13 C16 1_555 1_555
C17 C16 1_555 1_555
C18 C17 1_555 1_555
H14 C18 1_555 1_555
C19 C18 1_555 1_555
C20 C19 1_555 1_555
H15 C20 1_555 1_555
H16 C20 1_555 1_555
C21 C20 1_555 1_555
C22 C21 1_555 1_555
H17 C22 1_555 1_555
C23 C22 1_555 1_555
C24 C1 1_555 1_555
H18 C24 1_555 1_555
C25 C1 1_555 1_555
C26 O3 1_555 1_555
C27 C9 1_555 1_555
C28 O4 1_555 1_555
C29 C23 1_555 1_555
C30 C29 1_555 1_555
H19 C30 1_555 1_555
H20 C30 1_555 1_555
H21 C30 1_555 1_555
C31 C29 1_555 1_555
H22 C31 1_555 1_555
H23 C31 1_555 1_555
H24 C31 1_555 1_555
C32 C29 1_555 1_555
H25 C32 1_555 1_555
H26 C32 1_555 1_555
H27 C32 1_555 1_555
C33 C11 1_555 1_555
C34 C33 1_555 1_555
H28 C34 1_555 1_555
H29 C34 1_555 1_555
H30 C34 1_555 1_555
C35 C33 1_555 1_555
H31 C35 1_555 1_555
H32 C35 1_555 1_555
H33 C35 1_555 1_555
C36 C33 1_555 1_555
H34 C36 1_555 1_555
H35 C36 1_555 1_555
H36 C36 1_555 1_555
C37 C17 1_555 1_555
C38 C37 1_555 1_555
H37 C38 1_555 1_555
H38 C38 1_555 1_555
H39 C38 1_555 1_555
C39 C37 1_555 1_555
H40 C39 1_555 1_555
H41 C39 1_555 1_555
H42 C39 1_555 1_555
C40 C37 1_555 1_555
H43 C40 1_555 1_555
H44 C40 1_555 1_555
H45 C40 1_555 1_555
C41 C5 1_555 1_555
C42 C41 1_555 1_555
H46 C42 1_555 1_555
H47 C42 1_555 1_555
H48 C42 1_555 1_555
C43 C41 1_555 1_555
H49 C43 1_555 1_555
H50 C43 1_555 1_555
H51 C43 1_555 1_555
C44 C41 1_555 1_555
H52 C44 1_555 1_555
H53 C44 1_555 1_555
H54 C44 1_555 1_555
C45 O1 1_555 1_555
H55 C45 1_555 1_555
H56 C45 1_555 1_555
C46 C45 1_555 1_555
H57 C46 1_555 1_555
H58 C46 1_555 1_555
C47 O2 1_555 1_555
H59 C47 1_555 1_555
H60 C47 1_555 1_555
C48 C47 1_555 1_555
H61 C48 1_555 1_555
H62 C48 1_555 1_555
C49 S1 1_555 1_555
C50 S2 1_555 1_555
C51 S4 1_555 1_555
C52 N2 1_555 1_555
C53 C52 1_555 1_555
H63 C53 1_555 1_555
C54 C53 1_555 1_555
H64 C54 1_555 1_555
C55 C54 1_555 1_555
H65 C55 1_555 1_555
C56 C51 1_555 1_555
H66 C56 1_555 1_555
C57 S3 1_555 1_555
C58 N1 1_555 1_555
C59 C58 1_555 1_555
H67 C59 1_555 1_555
C60 C59 1_555 1_555
H68 C60 1_555 1_555
C61 C60 1_555 1_555
H69 C61 1_555 1_555
C62 C57 1_555 1_555
H70 C62 1_555 1_555
C63 H71 1_555 1_555
H72 C63 1_555 1_555
Cl1 C63 1_555 1_555
Cl2 C63 1_555 1_555
Cl3 C64 1_555 1_555
Cl4 C64 1_555 1_555
C3 C28 1_555 1_555
C7 C28 1_555 1_555
C13 C27 1_555 1_555
C15 C26 1_555 1_555
C19 C26 1_555 1_555
C21 C25 1_555 1_555
C23 C24 1_555 1_555
C51 C52 1_555 1_555
C55 C56 1_555 1_555
C57 C58 1_555 1_555
C61 C62 1_555 1_555

#END
