
#######################################################################
#
#                 Cambridge Crystallographic Data Centre
#                                CCDC 
#
#######################################################################
#
# If this CIF has been generated from an entry in the Cambridge 
# Structural Database, then it will include bibliographic, chemical, 
# crystal, experimental, refinement or atomic coordinate data resulting 
# from the CCDC's data processing and validation procedures.
#
#######################################################################

data_MEGWIH
_chemical_formula_moiety         'C36 H34 N4 O1'
_chemical_name_systematic        
{2,6-bis[2-(1-butyl-1H-indol-3-yl)ethenyl]-4H-pyran-4-ylidene}propanedinitrile
_symmetry_cell_setting           triclinic
_symmetry_space_group_name_H-M   'P -1'
_symmetry_Int_Tables_number      2
_space_group_name_Hall           '-P 1'
loop_
_symmetry_equiv_pos_site_id
_symmetry_equiv_pos_as_xyz
1 x,y,z
2 -x,-y,-z
_cell_length_a                   8.3257(12)
_cell_length_b                   12.1141(17)
_cell_length_c                   15.672(2)
_cell_angle_alpha                100.531(3)
_cell_angle_beta                 90.188(4)
_cell_angle_gamma                103.883(3)
_cell_volume                     1506.79
_exptl_crystal_colour            red
_exptl_crystal_description       prismatic
_cell_formula_units_Z            2
loop_
_atom_site_label
_atom_site_type_symbol
_atom_site_fract_x
_atom_site_fract_y
_atom_site_fract_z
N1 N -0.3072(4) 0.6062(3) -0.00863(18)
N2 N 0.2613(6) 0.8125(3) 0.5401(2)
N3 N 0.0868(5) -0.0920(3) 0.0648(2)
N4 N 0.2607(5) -0.0250(3) 0.3365(2)
O1 O 0.0282(3) 0.3686(2) 0.24534(14)
C1 C -0.3125(4) 0.5141(3) -0.0754(2)
C2 C -0.3698(5) 0.4978(4) -0.1608(2)
H1 H -0.4153 0.5524 -0.1801
C3 C -0.3574(5) 0.3987(4) -0.2161(2)
H2 H -0.3985 0.3843 -0.2734
C4 C -0.2838(5) 0.3197(3) -0.1871(2)
H3 H -0.2726 0.2547 -0.2263
C5 C -0.2273(5) 0.3351(3) -0.1024(2)
H4 H -0.1806 0.2805 -0.0840
C6 C -0.2411(4) 0.4339(3) -0.0442(2)
C7 C -0.1964(4) 0.4811(3) 0.0460(2)
C8 C -0.2383(4) 0.5850(3) 0.0625(2)
H5 H -0.2213 0.6348 0.1162
C9 C -0.1237(4) 0.4366(3) 0.1110(2)
H6 H -0.0974 0.4852 0.1650
C10 C -0.0893(5) 0.3330(3) 0.1029(2)
H7 H -0.1182 0.2830 0.0497
C11 C -0.0122(4) 0.2918(3) 0.1683(2)
C12 C 0.0232(5) 0.1881(3) 0.1571(2)
H8 H -0.0035 0.1382 0.1037
C13 C 0.0999(5) 0.1523(3) 0.2243(2)
C14 C 0.1393(5) 0.2359(3) 0.3022(2)
H9 H 0.1901 0.2177 0.3489
C15 C 0.1060(5) 0.3400(3) 0.3109(2)
C16 C 0.1545(5) 0.4298(3) 0.3853(2)
H10 H 0.2023 0.4112 0.4328
C17 C 0.1382(5) 0.5377(3) 0.3936(2)
H11 H 0.0840 0.5545 0.3474
C18 C 0.1946(5) 0.6312(3) 0.4658(2)
C19 C 0.1946(6) 0.7426(4) 0.4645(2)
H12 H 0.1544 0.7677 0.4180
C20 C 0.3036(5) 0.7461(4) 0.5941(2)
C21 C 0.2661(5) 0.6323(3) 0.5497(2)
C22 C 0.3004(6) 0.5494(4) 0.5923(3)
H13 H 0.2771 0.4721 0.5649
C23 C 0.3694(6) 0.5828(4) 0.6756(3)
H14 H 0.3938 0.5272 0.7038
C24 C 0.4031(6) 0.6956(4) 0.7181(3)
H15 H 0.4465 0.7148 0.7751
C25 C 0.3741(6) 0.7800(4) 0.6781(3)
H16 H 0.4004 0.8572 0.7058
C26 C 0.1381(5) 0.0443(3) 0.2129(2)
C27 C 0.1093(5) -0.0323(3) 0.1316(3)
C28 C 0.2070(5) 0.0065(3) 0.2814(3)
C29 C -0.3663(5) 0.7081(3) -0.0182(2)
H17 H -0.4806 0.6828 -0.0405
H18 H -0.3016 0.7459 -0.0608
C30 C -0.3557(5) 0.7943(3) 0.0648(2)
H19 H -0.2411 0.8218 0.0864
H20 H -0.4186 0.7567 0.1079
C31 C -0.4221(6) 0.8968(3) 0.0521(3)
H21 H -0.3574 0.9356 0.0100
H22 H -0.5358 0.8691 0.0289
C32 C -0.4159(6) 0.9824(4) 0.1358(3)
H23 H -0.4796 0.9443 0.1777
H24 H -0.4611 1.0448 0.1252
H25 H -0.3030 1.0125 0.1577
C33 C 0.3098(17) 0.9467(9) 0.5583(9)
H26 H 0.4188 0.9745 0.5875
H27 H 0.3143 0.9741 0.5038
C34 C 0.1966(13) 0.9893(7) 0.6092(7)
H28 H 0.1800 0.9539 0.6603
H29 H 0.0911 0.9720 0.5770
C35 C 0.2684(13) 1.1292(8) 0.6380(7)
H30 H 0.1948 1.1587 0.6791
H31 H 0.3756 1.1440 0.6681
C36 C 0.2861(19) 1.1915(10) 0.5705(8)
H32 H 0.3583 1.1632 0.5290
H33 H 0.3326 1.2720 0.5935
H34 H 0.1796 1.1821 0.5425
C37? C 0.318(3) 0.9414(12) 0.5576(13)
H35? H 0.3649 0.9702 0.5070
H36? H 0.3981 0.9699 0.6065
C38? C 0.154(4) 0.973(3) 0.578(5)
H37? H 0.1089 0.9430 0.6290
H38? H 0.0737 0.9402 0.5297
C39? C 0.193(4) 1.113(3) 0.5970(19)
H39? H 0.3067 1.1374 0.5808
H40? H 0.1254 1.1307 0.5535
C40? C 0.180(3) 1.1992(18) 0.6810(14)
H41? H 0.1048 1.1603 0.7184
H42? H 0.1405 1.2618 0.6665
H43? H 0.2876 1.2292 0.7104
loop_
_geom_bond_atom_site_label_1
_geom_bond_atom_site_label_2
_geom_bond_site_symmetry_1
_geom_bond_site_symmetry_2
N1 C1 1_555 1_555
N2 C19 1_555 1_555
N3 C27 1_555 1_555
N4 C28 1_555 1_555
O1 C11 1_555 1_555
C1 C2 1_555 1_555
C2 H1 1_555 1_555
C3 C2 1_555 1_555
H2 C3 1_555 1_555
C4 C3 1_555 1_555
H3 C4 1_555 1_555
C5 C4 1_555 1_555
H4 C5 1_555 1_555
C6 C1 1_555 1_555
C7 C6 1_555 1_555
C8 N1 1_555 1_555
H5 C8 1_555 1_555
C9 C7 1_555 1_555
H6 C9 1_555 1_555
C10 C9 1_555 1_555
H7 C10 1_555 1_555
C11 C10 1_555 1_555
C12 C11 1_555 1_555
H8 C12 1_555 1_555
C13 C12 1_555 1_555
C14 C13 1_555 1_555
H9 C14 1_555 1_555
C15 O1 1_555 1_555
C16 C15 1_555 1_555
H10 C16 1_555 1_555
C17 C16 1_555 1_555
H11 C17 1_555 1_555
C18 C17 1_555 1_555
C19 C18 1_555 1_555
H12 C19 1_555 1_555
C20 N2 1_555 1_555
C21 C18 1_555 1_555
C22 C21 1_555 1_555
H13 C22 1_555 1_555
C23 C22 1_555 1_555
H14 C23 1_555 1_555
C24 C23 1_555 1_555
H15 C24 1_555 1_555
C25 C20 1_555 1_555
H16 C25 1_555 1_555
C26 C13 1_555 1_555
C27 C26 1_555 1_555
C28 C26 1_555 1_555
C29 N1 1_555 1_555
H17 C29 1_555 1_555
H18 C29 1_555 1_555
C30 C29 1_555 1_555
H19 C30 1_555 1_555
H20 C30 1_555 1_555
C31 C30 1_555 1_555
H21 C31 1_555 1_555
H22 C31 1_555 1_555
C32 C31 1_555 1_555
H23 C32 1_555 1_555
H24 C32 1_555 1_555
H25 C32 1_555 1_555
C33 N2 1_555 1_555
H26 C33 1_555 1_555
H27 C33 1_555 1_555
C34 C33 1_555 1_555
H28 C34 1_555 1_555
H29 C34 1_555 1_555
C35 C34 1_555 1_555
H30 C35 1_555 1_555
H31 C35 1_555 1_555
C36 C35 1_555 1_555
H32 C36 1_555 1_555
H33 C36 1_555 1_555
H34 C36 1_555 1_555
C5 C6 1_555 1_555
C7 C8 1_555 1_555
C14 C15 1_555 1_555
C20 C21 1_555 1_555
C24 C25 1_555 1_555

#END
