
#######################################################################
#
#                 Cambridge Crystallographic Data Centre
#                                CCDC 
#
#######################################################################
#
# If this CIF has been generated from an entry in the Cambridge 
# Structural Database, then it will include bibliographic, chemical, 
# crystal, experimental, refinement or atomic coordinate data resulting 
# from the CCDC's data processing and validation procedures.
#
#######################################################################

data_MEGWAX
_chemical_formula_moiety         'C23 H25 Cl2 N1 O2'
_chemical_name_systematic        
9-(3,4-Dichlorophenyl)-3,3,6,6-tetramethyl-1,2,3,4,5,6,7,8,9,10-decahydroacridine-1,8-dione
_symmetry_cell_setting           orthorhombic
_symmetry_space_group_name_H-M   'P n a 21'
_symmetry_Int_Tables_number      33
_space_group_name_Hall           'P 2c -2n'
loop_
_symmetry_equiv_pos_site_id
_symmetry_equiv_pos_as_xyz
1 x,y,z
2 -x,-y,1/2+z
3 1/2+x,1/2-y,z
4 1/2-x,1/2+y,1/2+z
_cell_length_a                   14.155(3)
_cell_length_b                   14.352(3)
_cell_length_c                   10.704(3)
_cell_angle_alpha                90
_cell_angle_beta                 90
_cell_angle_gamma                90
_cell_volume                     2174.55
_exptl_crystal_colour            colorless
_exptl_crystal_description       block
_chemical_melting_point          '573 K'
_cell_formula_units_Z            4
_exptl_crystal_recrystallization_method ethanol
loop_
_atom_site_label
_atom_site_type_symbol
_atom_site_fract_x
_atom_site_fract_y
_atom_site_fract_z
Cl1 Cl 0.60043(17) 0.71529(19) -0.3314(3)
Cl2 Cl 0.71783(17) 0.88098(16) -0.4403(2)
N1 N 1.0556(3) 0.6949(3) 0.0807(5)
H1 H 1.1117 0.7129 0.1003
O1 O 0.7301(3) 0.7382(3) 0.1328(4)
O2 O 0.8733(3) 0.4889(3) -0.1644(4)
C1 C 0.9795(4) 0.7415(4) 0.1290(5)
C2 C 1.0029(4) 0.8109(4) 0.2277(6)
H2 H 1.0622 0.8410 0.2066
H3 H 1.0116 0.7786 0.3065
C3 C 0.9258(5) 0.8859(4) 0.2436(6)
C4 C 0.8315(5) 0.8318(5) 0.2552(7)
H4 H 0.8304 0.8009 0.3357
H5 H 0.7801 0.8766 0.2544
C5 C 0.8131(5) 0.7617(4) 0.1578(6)
C6 C 0.8902(4) 0.7189(4) 0.0951(6)
C7 C 0.8705(4) 0.6512(4) -0.0107(6)
H6 H 0.8220 0.6072 0.0172
C8 C 0.9590(4) 0.5964(4) -0.0443(5)
C9 C 0.9519(4) 0.5168(4) -0.1291(6)
C10 C 1.0414(5) 0.4727(5) -0.1737(7)
H7 H 1.0636 0.5060 -0.2469
H8 H 1.0283 0.4090 -0.1985
C11 C 1.1188(4) 0.4723(4) -0.0763(6)
C12 C 1.1351(4) 0.5711(4) -0.0282(7)
H9 H 1.1739 0.5685 0.0464
H10 H 1.1692 0.6065 -0.0908
C13 C 1.0448(4) 0.6202(4) 0.0017(5)
C14 C 0.9472(5) 0.9404(5) 0.3585(7)
H11 H 0.9506 0.8990 0.4288
H12 H 0.8981 0.9854 0.3723
H13 H 1.0065 0.9718 0.3485
C15 C 0.9193(6) 0.9502(4) 0.1317(7)
H14 H 0.9056 0.9143 0.0583
H15 H 0.9784 0.9821 0.1209
H16 H 0.8699 0.9949 0.1451
C16 C 1.0937(5) 0.4082(5) 0.0330(6)
H17 H 1.0839 0.3460 0.0025
H18 H 1.0371 0.4301 0.0725
H19 H 1.1445 0.4081 0.0924
C17 C 1.2127(5) 0.4374(5) -0.1317(8)
H20 H 1.2048 0.3750 -0.1621
H21 H 1.2606 0.4382 -0.0682
H22 H 1.2313 0.4773 -0.1993
C18 C 0.8317(4) 0.7053(4) -0.1238(6)
C19 C 0.7440(5) 0.6862(5) -0.1745(7)
H23 H 0.7074 0.6384 -0.1413
C20 C 0.7097(5) 0.7385(6) -0.2758(7)
C21 C 0.7627(6) 0.8109(6) -0.3217(7)
C22 C 0.8464(7) 0.8287(7) -0.2733(8)
H24 H 0.8824 0.8771 -0.3060
C23 C 0.8822(6) 0.7759(5) -0.1729(6)
H25 H 0.9414 0.7900 -0.1403
loop_
_geom_bond_atom_site_label_1
_geom_bond_atom_site_label_2
_geom_bond_site_symmetry_1
_geom_bond_site_symmetry_2
Cl1 C20 1_555 1_555
Cl2 C21 1_555 1_555
N1 H1 1_555 1_555
O1 C5 1_555 1_555
O2 C9 1_555 1_555
C1 N1 1_555 1_555
C2 C1 1_555 1_555
H2 C2 1_555 1_555
H3 C2 1_555 1_555
C3 C2 1_555 1_555
C4 C3 1_555 1_555
H4 C4 1_555 1_555
H5 C4 1_555 1_555
C5 C4 1_555 1_555
C6 C1 1_555 1_555
C7 C6 1_555 1_555
H6 C7 1_555 1_555
C8 C7 1_555 1_555
C9 C8 1_555 1_555
C10 C9 1_555 1_555
H7 C10 1_555 1_555
H8 C10 1_555 1_555
C11 C10 1_555 1_555
C12 C11 1_555 1_555
H9 C12 1_555 1_555
H10 C12 1_555 1_555
C13 N1 1_555 1_555
C14 C3 1_555 1_555
H11 C14 1_555 1_555
H12 C14 1_555 1_555
H13 C14 1_555 1_555
C15 C3 1_555 1_555
H14 C15 1_555 1_555
H15 C15 1_555 1_555
H16 C15 1_555 1_555
C16 C11 1_555 1_555
H17 C16 1_555 1_555
H18 C16 1_555 1_555
H19 C16 1_555 1_555
C17 C11 1_555 1_555
H20 C17 1_555 1_555
H21 C17 1_555 1_555
H22 C17 1_555 1_555
C18 C7 1_555 1_555
C19 C18 1_555 1_555
H23 C19 1_555 1_555
C20 C19 1_555 1_555
C21 C20 1_555 1_555
C22 C21 1_555 1_555
H24 C22 1_555 1_555
C23 C18 1_555 1_555
H25 C23 1_555 1_555
C5 C6 1_555 1_555
C8 C13 1_555 1_555
C12 C13 1_555 1_555
C22 C23 1_555 1_555

#END
