
#######################################################################
#
#                 Cambridge Crystallographic Data Centre
#                                CCDC 
#
#######################################################################
#
# If this CIF has been generated from an entry in the Cambridge 
# Structural Database, then it will include bibliographic, chemical, 
# crystal, experimental, refinement or atomic coordinate data resulting 
# from the CCDC's data processing and validation procedures.
#
#######################################################################

data_MEGYIH
_chemical_formula_moiety         'C17 H15 Br1 N2 O2'
_chemical_name_systematic        
3-(4-Bromobenzoyl)-4-methyl-N-phenyl-1,3-oxazolidin-2-imine
_symmetry_cell_setting           triclinic
_symmetry_space_group_name_H-M   'P -1'
_symmetry_Int_Tables_number      2
_space_group_name_Hall           '-P 1'
loop_
_symmetry_equiv_pos_site_id
_symmetry_equiv_pos_as_xyz
1 x,y,z
2 -x,-y,-z
_cell_length_a                   5.8670(10)
_cell_length_b                   10.638(2)
_cell_length_c                   13.982(3)
_cell_angle_alpha                69.44(3)
_cell_angle_beta                 78.09(3)
_cell_angle_gamma                86.28(3)
_cell_volume                     799.46
_exptl_crystal_colour            colorless
_exptl_crystal_description       plate
_chemical_melting_point          '393-395 K'
_cell_formula_units_Z            2
_exptl_crystal_recrystallization_method hexane
loop_
_atom_site_label
_atom_site_type_symbol
_atom_site_fract_x
_atom_site_fract_y
_atom_site_fract_z
Br1 Br 0.63171(13) 0.77555(8) 0.51242(6)
O1 O 0.2226(9) 1.0005(5) 0.0660(4)
O2 O -0.1085(7) 1.3644(4) 0.1195(3)
N1 N 0.0684(8) 1.1756(4) 0.1102(3)
N2 N 0.1949(8) 1.2898(4) 0.2081(4)
C1 C 0.4982(10) 0.8684(6) 0.3943(5)
C2 C 0.2774(11) 0.9219(6) 0.4090(5)
H1 H 0.1956 0.9128 0.4755
C3 C 0.1808(10) 0.9896(6) 0.3219(4)
H2 H 0.0334 1.0269 0.3302
C4 C 0.3025(9) 1.0016(5) 0.2236(4)
C5 C 0.5226(10) 0.9453(5) 0.2104(5)
H3 H 0.6027 0.9520 0.1440
C6 C 0.6216(10) 0.8797(6) 0.2959(5)
H4 H 0.7698 0.8434 0.2876
C7 C 0.1997(10) 1.0590(5) 0.1277(4)
C8 C -0.0520(10) 1.2220(6) 0.0214(4)
H5 H -0.1321 1.1469 0.0167
C9 C -0.2259(11) 1.3151(7) 0.0574(5)
H6 H -0.2639 1.3885 -0.0016
H7 H -0.3681 1.2671 0.0990
C10 C 0.0611(9) 1.2766(5) 0.1529(4)
C11 C 0.1602(9) 1.3907(5) 0.2535(4)
C12 C 0.3452(10) 1.4748(6) 0.2388(5)
H8 H 0.4870 1.4661 0.1974
C13 C 0.3202(12) 1.5709(6) 0.2850(6)
H9 H 0.4454 1.6272 0.2737
C14 C 0.1154(13) 1.5854(7) 0.3472(5)
H10 H 0.1001 1.6512 0.3776
C15 C -0.0686(12) 1.5007(7) 0.3641(5)
H11 H -0.2079 1.5080 0.4078
C16 C -0.0480(10) 1.4056(6) 0.3170(4)
H12 H -0.1747 1.3507 0.3278
C17 C 0.1112(14) 1.2914(7) -0.0796(5)
H13 H 0.2316 1.2306 -0.0926
H14 H 0.1800 1.3683 -0.0753
H15 H 0.0264 1.3199 -0.1353
loop_
_geom_bond_atom_site_label_1
_geom_bond_atom_site_label_2
_geom_bond_site_symmetry_1
_geom_bond_site_symmetry_2
Br1 C1 1_555 1_555
O1 C7 1_555 1_555
O2 C9 1_555 1_555
N1 C7 1_555 1_555
N2 C10 1_555 1_555
C1 C2 1_555 1_555
C2 H1 1_555 1_555
C3 C2 1_555 1_555
H2 C3 1_555 1_555
C4 C3 1_555 1_555
C5 C4 1_555 1_555
H3 C5 1_555 1_555
C6 C1 1_555 1_555
H4 C6 1_555 1_555
C7 C4 1_555 1_555
C8 N1 1_555 1_555
H5 C8 1_555 1_555
C9 C8 1_555 1_555
H6 C9 1_555 1_555
H7 C9 1_555 1_555
C10 O2 1_555 1_555
C11 N2 1_555 1_555
C12 C11 1_555 1_555
H8 C12 1_555 1_555
C13 C12 1_555 1_555
H9 C13 1_555 1_555
C14 C13 1_555 1_555
H10 C14 1_555 1_555
C15 C14 1_555 1_555
H11 C15 1_555 1_555
C16 C11 1_555 1_555
H12 C16 1_555 1_555
C17 C8 1_555 1_555
H13 C17 1_555 1_555
H14 C17 1_555 1_555
H15 C17 1_555 1_555
N1 C10 1_555 1_555
C5 C6 1_555 1_555
C15 C16 1_555 1_555

#END
