
#######################################################################
#
#                 Cambridge Crystallographic Data Centre
#                                CCDC 
#
#######################################################################
#
# If this CIF has been generated from an entry in the Cambridge 
# Structural Database, then it will include bibliographic, chemical, 
# crystal, experimental, refinement or atomic coordinate data resulting 
# from the CCDC's data processing and validation procedures.
#
#######################################################################

data_MEHCUY
_chemical_formula_moiety         'C24 H26 O8'
_chemical_name_systematic        'Diethyl 2,3-bis(4-methoxybenzoyl)succinate'
_symmetry_cell_setting           monoclinic
_symmetry_space_group_name_H-M   'P 21/c'
_symmetry_Int_Tables_number      14
_space_group_name_Hall           '-P 2ybc'
loop_
_symmetry_equiv_pos_site_id
_symmetry_equiv_pos_as_xyz
1 x,y,z
2 -x,1/2+y,1/2-z
3 -x,-y,-z
4 x,1/2-y,1/2+z
_cell_length_a                   13.079(5)
_cell_length_b                   9.611(4)
_cell_length_c                   18.572(7)
_cell_angle_alpha                90
_cell_angle_beta                 102.757(8)
_cell_angle_gamma                90
_cell_volume                     2276.92
_exptl_crystal_colour            colorless
_exptl_crystal_description       block
_cell_formula_units_Z            4
_exptl_crystal_recrystallization_method 'methanol/ethyl acetate'
loop_
_atom_site_label
_atom_site_type_symbol
_atom_site_fract_x
_atom_site_fract_y
_atom_site_fract_z
O1 O 0.03170(13) 1.03031(17) 0.16072(9)
O2 O 0.06485(13) 0.81502(16) 0.20665(9)
C1 C 0.19751(18) 0.9257(2) 0.15966(12)
H1 H 0.2358 0.8464 0.1858
C2 C 0.08850(18) 0.9316(2) 0.17553(12)
C3 C 0.33873(19) 0.8862(2) -0.16144(13)
C4 C 0.19075(17) 0.9101(2) 0.07662(12)
H2 H 0.1567 0.9925 0.0509
O3 O 0.37502(14) 0.8799(2) 0.11128(10)
C5 C 0.42385(18) 0.8711(2) -0.10266(14)
H3 H 0.4909 0.8592 -0.1110
O4 O 0.34350(15) 0.8830(2) -0.23365(10)
C6 C 0.30998(17) 0.8937(2) -0.01715(12)
C7 C 0.28530(17) 1.0799(2) 0.27008(12)
C8 C 0.23949(18) 0.9044(2) -0.14802(13)
H4 H 0.1821 0.9135 -0.1875
C9 C 0.30009(19) 0.8944(3) 0.06080(13)
O5 O 0.38119(16) 1.1544(2) 0.49433(10)
C10 C 0.40823(17) 0.8738(2) -0.03203(13)
H5 H 0.4655 0.8619 0.0072
O6 O 0.02833(13) 0.81519(19) 0.01861(10)
C11 C 0.32019(18) 1.2100(2) 0.29862(13)
H6 H 0.3225 1.2836 0.2665
C12 C 0.1268(2) 0.7823(3) 0.04813(13)
C13 C 0.25359(18) 1.0614(2) 0.18916(13)
C14 C 0.22496(18) 0.9091(2) -0.07695(13)
H7 H 0.1581 0.9226 -0.0687
O7 O 0.26765(17) 1.1515(2) 0.14673(10)
C15 C 0.34838(18) 1.1222(3) 0.42204(13)
C16 C 0.28176(19) 0.9732(2) 0.31999(13)
H8 H 0.2576 0.8861 0.3022
C17 C -0.0374(2) 0.8116(3) 0.22593(16)
H9 H -0.0598 0.7157 0.2280
H10 H -0.0884 0.8590 0.1880
C18 C 0.35094(19) 1.2309(3) 0.37287(14)
H11 H 0.3738 1.3184 0.3908
C19 C 0.31304(19) 0.9929(3) 0.39517(13)
H12 H 0.3104 0.9197 0.4275
O8 O 0.16110(16) 0.6671(2) 0.05251(13)
C20 C 0.4439(3) 0.8662(4) -0.25103(18)
H13 H 0.4879 0.9434 -0.2316
H14 H 0.4357 0.8625 -0.3036
H15 H 0.4754 0.7814 -0.2295
C21 C 0.3825(3) 1.0475(4) 0.54831(16)
H16 H 0.3126 1.0133 0.5448
H17 H 0.4090 1.0849 0.5968
H18 H 0.4268 0.9726 0.5395
C22 C -0.0443(3) 0.7045(4) -0.0111(2)
H19 H -0.0894 0.7349 -0.0571
H20 H -0.0054 0.6238 -0.0214
C23 C -0.0332(3) 0.8794(4) 0.29816(17)
H21 H 0.0196 0.8353 0.3353
H22 H -0.1001 0.8708 0.3110
H23 H -0.0163 0.9761 0.2950
C24 C -0.1048(4) 0.6686(5) 0.0380(3)
H24 H -0.0603 0.6368 0.0832
H25 H -0.1524 0.5957 0.0172
H26 H -0.1438 0.7482 0.0478
loop_
_geom_bond_atom_site_label_1
_geom_bond_atom_site_label_2
_geom_bond_site_symmetry_1
_geom_bond_site_symmetry_2
O1 C2 1_555 1_555
O2 C2 1_555 1_555
C1 H1 1_555 1_555
C2 C1 1_555 1_555
C3 C5 1_555 1_555
C4 C1 1_555 1_555
H2 C4 1_555 1_555
O3 C9 1_555 1_555
C5 H3 1_555 1_555
O4 C3 1_555 1_555
C6 C9 1_555 1_555
C7 C11 1_555 1_555
C8 C3 1_555 1_555
H4 C8 1_555 1_555
C9 C4 1_555 1_555
O5 C15 1_555 1_555
C10 C5 1_555 1_555
H5 C10 1_555 1_555
O6 C12 1_555 1_555
C11 H6 1_555 1_555
C12 C4 1_555 1_555
C13 C1 1_555 1_555
C14 C6 1_555 1_555
H7 C14 1_555 1_555
O7 C13 1_555 1_555
C15 C18 1_555 1_555
C16 C7 1_555 1_555
H8 C16 1_555 1_555
C17 O2 1_555 1_555
H9 C17 1_555 1_555
H10 C17 1_555 1_555
C18 C11 1_555 1_555
H11 C18 1_555 1_555
C19 C15 1_555 1_555
H12 C19 1_555 1_555
O8 C12 1_555 1_555
C20 O4 1_555 1_555
H13 C20 1_555 1_555
H14 C20 1_555 1_555
H15 C20 1_555 1_555
C21 O5 1_555 1_555
H16 C21 1_555 1_555
H17 C21 1_555 1_555
H18 C21 1_555 1_555
C22 O6 1_555 1_555
H19 C22 1_555 1_555
H20 C22 1_555 1_555
C23 C17 1_555 1_555
H21 C23 1_555 1_555
H22 C23 1_555 1_555
H23 C23 1_555 1_555
C24 C22 1_555 1_555
H24 C24 1_555 1_555
H25 C24 1_555 1_555
H26 C24 1_555 1_555
C6 C10 1_555 1_555
C7 C13 1_555 1_555
C8 C14 1_555 1_555
C16 C19 1_555 1_555

#END
