
#######################################################################
#
#                 Cambridge Crystallographic Data Centre
#                                CCDC 
#
#######################################################################
#
# If this CIF has been generated from an entry in the Cambridge 
# Structural Database, then it will include bibliographic, chemical, 
# crystal, experimental, refinement or atomic coordinate data resulting 
# from the CCDC's data processing and validation procedures.
#
#######################################################################

data_MEHDUB
_chemical_formula_moiety         'C56 H67 N1 O2,C6 H6'
_chemical_name_systematic        
"4,4'-(1-octyl-1H-phenanthro[1,10,9,8-cdefg]carbazole-3,10-diyl)bis(2,6-di-t-butylphenol) benzene solvate"
_symmetry_cell_setting           monoclinic
_symmetry_space_group_name_H-M   'C 2/m'
_symmetry_Int_Tables_number      12
_space_group_name_Hall           '-C 2y'
loop_
_symmetry_equiv_pos_site_id
_symmetry_equiv_pos_as_xyz
1 x,y,z
2 -x,y,-z
3 1/2+x,1/2+y,z
4 1/2-x,1/2+y,-z
5 -x,-y,-z
6 x,-y,z
7 1/2-x,1/2-y,-z
8 1/2+x,1/2-y,z
_cell_length_a                   18.367(8)
_cell_length_b                   24.544(8)
_cell_length_c                   11.404(4)
_cell_angle_alpha                90
_cell_angle_beta                 90
_cell_angle_gamma                90
_cell_volume                     5140.92
_exptl_crystal_colour            black
_exptl_crystal_description       block
_cell_formula_units_Z            4
loop_
_atom_site_label
_atom_site_type_symbol
_atom_site_fract_x
_atom_site_fract_y
_atom_site_fract_z
O1 O 0.8524(6) 0.14487(19) 0.6274(6)
N1 N 0.8823(3) 0.500000 0.4856(5)
C1 C 0.9089(2) 0.45370(15) 0.5459(4)
C2 C 0.9492(2) 0.47195(15) 0.6393(4)
C3 C 0.9863(2) 0.44150(14) 0.7250(4)
C4 C 1.0273(3) 0.46954(17) 0.8119(4)
C5 C 1.0662(3) 0.4375(2) 0.8901(5)
H1 H 1.094136 0.454036 0.950532
C6 C 1.0641(3) 0.3802(2) 0.8795(6)
H2 H 1.091767 0.358586 0.932298
C7 C 1.0231(3) 0.35515(18) 0.7949(5)
H3 H 1.024110 0.316506 0.790320
C8 C 0.9796(3) 0.38398(15) 0.7145(4)
C9 C 0.9320(3) 0.36297(16) 0.6220(4)
C10 C 0.8996(3) 0.39687(16) 0.5352(4)
H4 H 0.872574 0.381723 0.472093
C11 C 0.9138(3) 0.30495(16) 0.6204(5)
C12 C 0.9009(4) 0.27667(17) 0.5166(5)
H5 H 0.906550 0.295345 0.444187
C13 C 0.8801(5) 0.2221(2) 0.5146(6)
C14 C 0.8686(5) 0.1944(2) 0.6245(7)
C15 C 0.8773(4) 0.22392(19) 0.7343(6)
C16 C 0.9005(4) 0.27730(17) 0.7286(5)
H6 H 0.908044 0.296550 0.799879
C17 C 0.8606(6) 0.1962(2) 0.8483(7)
C18 C 0.8759(8) 0.2351(3) 0.9551(6)
H7 H 0.923435 0.252694 0.944719
H8 H 0.876107 0.213924 1.027899
H9 H 0.837886 0.263060 0.959201
C19 C 0.7828(9) 0.1775(4) 0.8536(11)
H10 H 0.752310 0.206878 0.885043
H11 H 0.779139 0.145515 0.904650
H12 H 0.766096 0.167992 0.774613
C20 C 0.9168(10) 0.1494(3) 0.8670(11)
H13 H 0.909356 0.121162 0.807367
H14 H 0.910106 0.133520 0.945143
H15 H 0.966273 0.163984 0.860234
C21 C 0.8648(5) 0.1917(2) 0.4009(7)
C22 C 0.8811(6) 0.2267(3) 0.2930(7)
H16 H 0.850028 0.259202 0.294013
H17 H 0.871303 0.205612 0.221792
H18 H 0.932334 0.237812 0.294093
C23 C 0.7822(8) 0.1761(6) 0.3895(12)
H19 H 0.768814 0.174158 0.306409
H20 H 0.752324 0.203764 0.428581
H21 H 0.773785 0.140577 0.426426
C24 C 0.9143(8) 0.1416(3) 0.3906(9)
H22 H 0.965118 0.152716 0.400837
H23 H 0.908064 0.125049 0.313073
H24 H 0.901202 0.115122 0.451321
C25 C 0.8295(4) 0.500000 0.3923(6)
H25 H 0.837942 0.467474 0.342763
C26 C 0.7512(4) 0.500000 0.4311(6)
H26 H 0.742403 0.467436 0.480324
C27 C 0.6986(4) 0.500000 0.3335(6)
H27 H 0.708427 0.467534 0.284448
C28 C 0.6181(4) 0.500000 0.3642(7)
H28 H 0.608013 0.467503 0.412980
C29 C 0.5658(4) 0.500000 0.2628(7)
H29 H 0.575654 0.532517 0.213939
C30 C 0.4869(5) 0.500000 0.2948(9)
H30 H 0.477296 0.467516 0.343850
C31 C 0.4339(6) 0.500000 0.1967(12)
C32 C 0.4351(9) 0.4624(6) 0.1038(14)
H31 H 0.484103 0.461131 0.069798
H32 H 0.400155 0.473608 0.043528
H33 H 0.421966 0.426189 0.133209
O1E O 0.8524(6) 0.85513(19) 0.6274(6)
C1E C 0.9089(2) 0.54630(15) 0.5459(4)
C2E C 0.9492(2) 0.52805(15) 0.6393(4)
C3E C 0.9863(2) 0.55850(14) 0.7250(4)
C4E C 1.0273(3) 0.53046(17) 0.8119(4)
C5E C 1.0662(3) 0.5625(2) 0.8901(5)
H1E H 1.094136 0.545964 0.950532
C6E C 1.0641(3) 0.6198(2) 0.8795(6)
H2E H 1.091767 0.641414 0.932298
C7E C 1.0231(3) 0.64485(18) 0.7949(5)
H3E H 1.024110 0.683494 0.790320
C8E C 0.9796(3) 0.61602(15) 0.7145(4)
C9E C 0.9320(3) 0.63703(16) 0.6220(4)
C10E C 0.8996(3) 0.60313(16) 0.5352(4)
H4E H 0.872574 0.618277 0.472093
C11E C 0.9138(3) 0.69505(16) 0.6204(5)
C12E C 0.9009(4) 0.72333(17) 0.5166(5)
H5E H 0.906550 0.704655 0.444187
C13E C 0.8801(5) 0.7779(2) 0.5146(6)
C14E C 0.8686(5) 0.8056(2) 0.6245(7)
C15E C 0.8773(4) 0.77608(19) 0.7343(6)
C16E C 0.9005(4) 0.72270(17) 0.7286(5)
H6E H 0.908044 0.703450 0.799879
C17E C 0.8606(6) 0.8038(2) 0.8483(7)
C18E C 0.8759(8) 0.7649(3) 0.9551(6)
H7E H 0.923435 0.747306 0.944719
H8E H 0.876107 0.786076 1.027899
H9E H 0.837886 0.736940 0.959201
C19E C 0.7828(9) 0.8225(4) 0.8536(11)
H10E H 0.752310 0.793122 0.885043
H11E H 0.779139 0.854485 0.904650
H12E H 0.766096 0.832008 0.774613
C20E C 0.9168(10) 0.8506(3) 0.8670(11)
H13E H 0.909356 0.878838 0.807367
H14E H 0.910106 0.866480 0.945143
H15E H 0.966273 0.836016 0.860234
C21E C 0.8648(5) 0.8083(2) 0.4009(7)
C22E C 0.8811(6) 0.7733(3) 0.2930(7)
H16E H 0.850028 0.740798 0.294013
H17E H 0.871303 0.794388 0.221792
H18E H 0.932334 0.762188 0.294093
C23E C 0.7822(8) 0.8239(6) 0.3895(12)
H19E H 0.768814 0.825842 0.306409
H20E H 0.752324 0.796236 0.428581
H21E H 0.773785 0.859423 0.426426
C24E C 0.9143(8) 0.8584(3) 0.3906(9)
H22E H 0.965118 0.847284 0.400837
H23E H 0.908064 0.874951 0.313073
H24E H 0.901202 0.884878 0.451321
H25E H 0.837942 0.532526 0.342763
H26E H 0.742403 0.532564 0.480324
H27E H 0.708427 0.532466 0.284448
H28E H 0.608013 0.532497 0.412980
H29E H 0.575654 0.467483 0.213939
H30E H 0.477296 0.532484 0.343850
C32E C 0.4351(9) 0.5376(6) 0.1038(14)
H31E H 0.484103 0.538869 0.069798
H32E H 0.400155 0.526392 0.043528
H33E H 0.421966 0.573811 0.133209
H34? H 0.837942 0.467474 0.342763
H35? H 0.742403 0.467436 0.480324
H36? H 0.708427 0.467534 0.284448
H37? H 0.608013 0.467503 0.412980
H38? H 0.575654 0.532517 0.213939
H39? H 0.477296 0.467516 0.343850
H40? H 0.386739 0.500000 0.231996
H41? H 0.435389 0.535580 0.161766
C33? C 0.7108(5) 0.000000 0.2147(8)
H42? H 0.699130 -0.014000 0.291001
C34? C 0.7177(8) 0.0529(6) 0.2014(16)
H43? H 0.714072 0.071948 0.274701
C35? C 0.7265(9) 0.0860(6) 0.1159(12)
H44? H 0.721301 0.124920 0.116312
C36? C 0.7503(13) 0.0450(7) 0.005(2)
H45? H 0.766518 0.060864 -0.066981
C37? C 0.7433(9) -0.0164(5) 0.0154(13)
H46? H 0.755646 -0.039887 -0.048911
C38? C 0.7217(7) -0.0385(5) 0.1177(11)
H47? H 0.713454 -0.076876 0.127166
loop_
_geom_bond_atom_site_label_1
_geom_bond_atom_site_label_2
_geom_bond_site_symmetry_1
_geom_bond_site_symmetry_2
O1 C14 1_555 1_555
N1 C1 1_555 1_555
C1 C2 1_555 1_555
C2 C3 1_555 1_555
C3 C4 1_555 1_555
C4 C5 1_555 1_555
C5 H1 1_555 1_555
C6 C5 1_555 1_555
H2 C6 1_555 1_555
C7 C6 1_555 1_555
H3 C7 1_555 1_555
C8 C3 1_555 1_555
C9 C8 1_555 1_555
C10 C1 1_555 1_555
H4 C10 1_555 1_555
C11 C9 1_555 1_555
C12 C11 1_555 1_555
H5 C12 1_555 1_555
C13 C12 1_555 1_555
C14 C13 1_555 1_555
C15 C14 1_555 1_555
C16 C11 1_555 1_555
H6 C16 1_555 1_555
C17 C15 1_555 1_555
C18 C17 1_555 1_555
H7 C18 1_555 1_555
H8 C18 1_555 1_555
H9 C18 1_555 1_555
C19 C17 1_555 1_555
H10 C19 1_555 1_555
H11 C19 1_555 1_555
H12 C19 1_555 1_555
C20 C17 1_555 1_555
H13 C20 1_555 1_555
H14 C20 1_555 1_555
H15 C20 1_555 1_555
C21 C13 1_555 1_555
C22 C21 1_555 1_555
H16 C22 1_555 1_555
H17 C22 1_555 1_555
H18 C22 1_555 1_555
C23 C21 1_555 1_555
H19 C23 1_555 1_555
H20 C23 1_555 1_555
H21 C23 1_555 1_555
C24 C21 1_555 1_555
H22 C24 1_555 1_555
H23 C24 1_555 1_555
H24 C24 1_555 1_555
C25 N1 1_555 1_555
H25 C25 1_555 1_555
C26 C25 1_555 1_555
H26 C26 1_555 1_555
C27 C26 1_555 1_555
H27 C27 1_555 1_555
C28 C27 1_555 1_555
H28 C28 1_555 1_555
C29 C28 1_555 1_555
H29 C29 1_555 1_555
C30 C29 1_555 1_555
H30 C30 1_555 1_555
C31 C30 1_555 1_555
C32 C31 1_555 1_555
H31 C32 1_555 1_555
H32 C32 1_555 1_555
H33 C32 1_555 1_555
O1E C14E 1_555 1_555
C1E N1 1_555 1_555
C2E C2 1_555 1_555
C3E C2E 1_555 1_555
C4E C4 1_555 1_555
C5E C4E 1_555 1_555
H1E C5E 1_555 1_555
C6E C5E 1_555 1_555
H2E C6E 1_555 1_555
C7E C6E 1_555 1_555
H3E C7E 1_555 1_555
C8E C3E 1_555 1_555
C9E C8E 1_555 1_555
C10E C1E 1_555 1_555
H4E C10E 1_555 1_555
C11E C9E 1_555 1_555
C12E C11E 1_555 1_555
H5E C12E 1_555 1_555
C13E C12E 1_555 1_555
C14E C13E 1_555 1_555
C15E C14E 1_555 1_555
C16E C11E 1_555 1_555
H6E C16E 1_555 1_555
C17E C15E 1_555 1_555
C18E C17E 1_555 1_555
H7E C18E 1_555 1_555
H8E C18E 1_555 1_555
H9E C18E 1_555 1_555
C19E C17E 1_555 1_555
H10E C19E 1_555 1_555
H11E C19E 1_555 1_555
H12E C19E 1_555 1_555
C20E C17E 1_555 1_555
H13E C20E 1_555 1_555
H14E C20E 1_555 1_555
H15E C20E 1_555 1_555
C21E C13E 1_555 1_555
C22E C21E 1_555 1_555
H16E C22E 1_555 1_555
H17E C22E 1_555 1_555
H18E C22E 1_555 1_555
C23E C21E 1_555 1_555
H19E C23E 1_555 1_555
H20E C23E 1_555 1_555
H21E C23E 1_555 1_555
C24E C21E 1_555 1_555
H22E C24E 1_555 1_555
H23E C24E 1_555 1_555
H24E C24E 1_555 1_555
H25E C25 1_555 1_555
H26E C26 1_555 1_555
H27E C27 1_555 1_555
H28E C28 1_555 1_555
H29E C29 1_555 1_555
H30E C30 1_555 1_555
C32E C31 1_555 1_555
H31E C32E 1_555 1_555
H32E C32E 1_555 1_555
H33E C32E 1_555 1_555
C7 C8 1_555 1_555
C9 C10 1_555 1_555
C15 C16 1_555 1_555
C1E C2E 1_555 1_555
C3E C4E 1_555 1_555
C7E C8E 1_555 1_555
C9E C10E 1_555 1_555
C15E C16E 1_555 1_555

#END
