
#######################################################################
#
#                 Cambridge Crystallographic Data Centre
#                                CCDC 
#
#######################################################################
#
# If this CIF has been generated from an entry in the Cambridge 
# Structural Database, then it will include bibliographic, chemical, 
# crystal, experimental, refinement or atomic coordinate data resulting 
# from the CCDC's data processing and validation procedures.
#
#######################################################################

data_MEHFOV
_chemical_name_common            'PDB Chemical Component code: NTM'
_chemical_formula_moiety         'C12 H8 N4 O1,C7 H5 N1 O4'
_chemical_name_systematic        
'2,5-bis(4-Pyridyl)-1,3,4-oxadiazole pyridine-2,3-dicarboxylic acid'
_symmetry_cell_setting           monoclinic
_symmetry_space_group_name_H-M   'C 2/c'
_symmetry_Int_Tables_number      15
_space_group_name_Hall           '-C 2yn'
loop_
_symmetry_equiv_pos_site_id
_symmetry_equiv_pos_as_xyz
1 x,y,z
2 1/2+x,1/2+y,z
3 -x,y,1/2-z
4 1/2-x,1/2+y,1/2-z
5 -x,-y,-z
6 1/2-x,1/2-y,-z
7 x,-y,1/2+z
8 1/2+x,1/2-y,1/2+z
_cell_length_a                   17.576(3)
_cell_length_b                   10.5434(18)
_cell_length_c                   20.834(4)
_cell_angle_alpha                90
_cell_angle_beta                 111.674(3)
_cell_angle_gamma                90
_cell_volume                     3587.81
_exptl_crystal_colour            colorless
_exptl_crystal_description       block
_cell_formula_units_Z            8
loop_
_atom_site_label
_atom_site_type_symbol
_atom_site_fract_x
_atom_site_fract_y
_atom_site_fract_z
N1 N -0.11980(9) 0.76640(15) 0.08942(7)
N2 N 0.06775(9) 0.61144(16) -0.03326(8)
N3 N 0.14800(9) 0.58866(15) -0.02815(8)
N4 N 0.45252(9) 0.61120(17) 0.12593(8)
O1 O 0.15101(6) 0.66180(10) 0.07157(5)
C1 C -0.04339(11) 0.75758(19) 0.13412(9)
C2 C 0.02142(11) 0.72172(18) 0.11644(9)
H1 H 0.0774(14) 0.7143(19) 0.1517(11)
C3 C 0.00690(10) 0.69347(15) 0.04839(8)
C4 C -0.07188(12) 0.7044(2) 0.00149(10)
H2 H -0.0825(17) 0.683(3) -0.0453(15)
C5 C -0.13226(12) 0.7402(2) 0.02391(10)
H3 H -0.1876(15) 0.747(2) -0.0079(12)
C6 C 0.07274(10) 0.65406(16) 0.02609(8)
C7 C 0.19442(10) 0.62002(15) 0.03355(8)
C8 C 0.28304(10) 0.61864(15) 0.06539(8)
C9 C 0.32313(12) 0.6544(2) 0.13341(9)
H4 H 0.2928(13) 0.681(2) 0.1606(11)
C10 C 0.40634(13) 0.6490(2) 0.16088(11)
H5 H 0.4370(14) 0.664(2) 0.2102(13)
C11 C 0.41330(12) 0.57854(18) 0.05992(10)
H6 H 0.4459(14) 0.549(2) 0.0342(11)
C12 C 0.33012(12) 0.58117(17) 0.02785(10)
H7 H 0.3049(12) 0.5577(19) -0.0186(11)
H8 H -0.0363(13) 0.7788(19) 0.1810(11)
N5 N -0.29307(12) 1.01558(19) 0.32583(10)
O2 O -0.11540(9) 0.98275(17) 0.39976(7)
O3 O -0.11280(9) 1.08170(15) 0.30728(7)
H9 H -0.054(2) 1.088(3) 0.3318(15)
O4 O -0.13161(8) 0.83814(15) 0.24145(6)
O5 O -0.23165(8) 0.84996(14) 0.13856(6)
H10 H -0.1916(15) 0.819(2) 0.1230(11)
C13 C -0.20060(10) 0.86491(16) 0.20634(8)
C14 C -0.26060(10) 0.91707(15) 0.23468(8)
C15 C -0.34321(11) 0.8950(2) 0.20015(11)
H11 H -0.3608(13) 0.850(2) 0.1569(11)
C16 C -0.40031(13) 0.9332(2) 0.22715(13)
H12 H -0.4570(15) 0.914(2) 0.2019(11)
C17 C -0.37472(13) 0.9930(2) 0.29000(13)
H13 H -0.4139(18) 1.016(3) 0.3076(14)
C18 C -0.23497(10) 0.97980(15) 0.29840(8)
C19 C -0.14810(10) 1.01273(16) 0.33994(8)
loop_
_geom_bond_atom_site_label_1
_geom_bond_atom_site_label_2
_geom_bond_site_symmetry_1
_geom_bond_site_symmetry_2
N1 C1 1_555 1_555
N2 N3 1_555 1_555
N3 C7 1_555 1_555
N4 C10 1_555 1_555
O1 C6 1_555 1_555
C1 C2 1_555 1_555
C2 H1 1_555 1_555
C3 C2 1_555 1_555
C4 C3 1_555 1_555
H2 C4 1_555 1_555
C5 N1 1_555 1_555
H3 C5 1_555 1_555
C6 N2 1_555 1_555
C7 O1 1_555 1_555
C8 C7 1_555 1_555
C9 C8 1_555 1_555
H4 C9 1_555 1_555
C10 C9 1_555 1_555
H5 C10 1_555 1_555
C11 N4 1_555 1_555
H6 C11 1_555 1_555
C12 C8 1_555 1_555
H7 C12 1_555 1_555
H8 C1 1_555 1_555
N5 C17 1_555 1_555
O2 C19 1_555 1_555
O3 H9 1_555 1_555
O4 C13 1_555 1_555
O5 H10 1_555 1_555
C13 O5 1_555 1_555
C14 C13 1_555 1_555
C15 C14 1_555 1_555
H11 C15 1_555 1_555
C16 C15 1_555 1_555
H12 C16 1_555 1_555
C17 C16 1_555 1_555
H13 C17 1_555 1_555
C18 N5 1_555 1_555
C19 O3 1_555 1_555
C3 C6 1_555 1_555
C4 C5 1_555 1_555
C11 C12 1_555 1_555
C14 C18 1_555 1_555
C18 C19 1_555 1_555

#END
