
#######################################################################
#
#                 Cambridge Crystallographic Data Centre
#                                CCDC 
#
#######################################################################
#
# If this CIF has been generated from an entry in the Cambridge 
# Structural Database, then it will include bibliographic, chemical, 
# crystal, experimental, refinement or atomic coordinate data resulting 
# from the CCDC's data processing and validation procedures.
#
#######################################################################

data_MEHGUC
_chemical_name_common            'Dicatharanthinium (2R,3R)-tartrate trihydrate'
_chemical_formula_moiety         '2(C21 H25 N2 O2 1+),C4 H4 O6 2-,3(H2 O1)'
_chemical_name_systematic        
'bis(Methyl 3,4-didehydroibogamin-6-ium-18-carboxylate) (2R,3R)-tartrate trihydrate'
_symmetry_cell_setting           orthorhombic
_symmetry_space_group_name_H-M   'P 21 21 21'
_symmetry_Int_Tables_number      19
_space_group_name_Hall           'P 2ac 2ab'
loop_
_symmetry_equiv_pos_site_id
_symmetry_equiv_pos_as_xyz
1 x,y,z
2 1/2-x,-y,1/2+z
3 -x,1/2+y,1/2-z
4 1/2+x,1/2-y,-z
_cell_length_a                   10.1147(4)
_cell_length_b                   18.8215(8)
_cell_length_c                   23.4907(9)
_cell_angle_alpha                90
_cell_angle_beta                 90
_cell_angle_gamma                90
_cell_volume                     4472.01
_exptl_crystal_colour            colorless
_exptl_crystal_description       Block
_cell_formula_units_Z            4
loop_
_atom_site_label
_atom_site_type_symbol
_atom_site_fract_x
_atom_site_fract_y
_atom_site_fract_z
O1 O 0.3682(3) 0.45885(16) 0.76909(14)
O2 O 0.5866(4) 0.45307(19) 0.77919(16)
N1 N 0.4561(3) 0.58769(17) 0.70097(13)
H9 H 0.4769 0.5453 0.6907
N2 N 0.3528(4) 0.63147(19) 0.88301(14)
H10 H 0.2927 0.6234 0.9111
C1 C 0.4288(4) 0.6429(2) 0.66484(17)
C2 C 0.4235(5) 0.6457(3) 0.60557(19)
H13 H 0.4383 0.6056 0.5834
C3 C 0.3958(6) 0.7100(3) 0.5814(2)
H14 H 0.3938 0.7133 0.5419
C4 C 0.3707(6) 0.7696(3) 0.6130(2)
H15 H 0.3531 0.8123 0.5945
C5 C 0.3712(5) 0.7675(3) 0.6718(2)
H16 H 0.3525 0.8079 0.6931
C6 C 0.4006(4) 0.7026(2) 0.69840(18)
C7 C 0.4102(4) 0.6807(2) 0.75691(17)
C8 C 0.4451(4) 0.6110(2) 0.75638(15)
C9 C 0.4720(4) 0.5612(2) 0.80615(16)
C10 C 0.3576(4) 0.5617(2) 0.85065(17)
H17 H 0.2727 0.5526 0.8319
C11 C 0.2992(5) 0.6951(2) 0.85246(19)
H18 H 0.2796 0.7314 0.8805
H19 H 0.2163 0.6817 0.8347
C12 C 0.3867(6) 0.7274(2) 0.80754(19)
H20 H 0.3469 0.7714 0.7947
H21 H 0.4713 0.7390 0.8246
C13 C 0.6008(4) 0.5812(3) 0.83906(18)
H22 H 0.6696 0.5469 0.8307
H23 H 0.6314 0.6277 0.8270
C14 C 0.5724(5) 0.5820(3) 0.90313(19)
H24 H 0.6547 0.5873 0.9248
C15 C 0.4803(5) 0.6440(3) 0.91459(18)
H25 H 0.4631 0.6478 0.9551
H26 H 0.5207 0.6879 0.9018
C16 C 0.5003(5) 0.5158(3) 0.92071(18)
H27 H 0.5339 0.4847 0.9478
C17 C 0.3854(5) 0.5049(2) 0.89492(18)
C18 C 0.2846(6) 0.4481(3) 0.9060(2)
H28 H 0.1990 0.4705 0.9109
H29 H 0.2791 0.4178 0.8727
C19 C 0.3118(9) 0.4025(4) 0.9569(3)
H30 H 0.3011 0.4302 0.9910
H31 H 0.4007 0.3848 0.9550
H32 H 0.2510 0.3633 0.9575
C20 C 0.4856(5) 0.4848(2) 0.78370(17)
C21 C 0.3698(7) 0.3861(3) 0.7489(3)
H33 H 0.3927 0.3549 0.7797
H34 H 0.4339 0.3814 0.7190
H35 H 0.2839 0.3737 0.7346
O3 O 0.6744(3) 0.35034(15) 0.24612(14)
O4 O 0.4609(4) 0.32414(19) 0.24807(17)
N3 N 0.5565(4) 0.4658(2) 0.32544(15)
H11 H 0.5599 0.4217 0.3347
N4 N 0.6074(3) 0.52817(19) 0.14354(15)
H12 H 0.6681 0.5295 0.1150
C22 C 0.5660(5) 0.5221(3) 0.36256(19)
C23 C 0.5883(5) 0.5219(3) 0.4209(2)
H36 H 0.6010 0.4800 0.4412
C24 C 0.5906(6) 0.5877(4) 0.4471(2)
H37 H 0.6044 0.5899 0.4862
C25 C 0.5729(6) 0.6504(3) 0.4171(2)
H38 H 0.5731 0.6933 0.4366
C26 C 0.5554(5) 0.6503(3) 0.3598(2)
H39 H 0.5458 0.6927 0.3399
C27 C 0.5521(5) 0.5845(2) 0.33090(19)
C28 C 0.5382(5) 0.5640(2) 0.27290(19)
C29 C 0.5405(4) 0.4917(2) 0.27130(17)
C30 C 0.5272(4) 0.4432(2) 0.22010(17)
C31 C 0.6341(4) 0.4578(2) 0.17369(17)
H40 H 0.7228 0.4578 0.1905
C32 C 0.6326(5) 0.5950(2) 0.17673(18)
H41 H 0.6360 0.6343 0.1501
H42 H 0.7193 0.5911 0.1942
C33 C 0.5341(5) 0.6133(2) 0.22282(19)
H43 H 0.5511 0.6613 0.2359
H44 H 0.4458 0.6125 0.2067
C34 C 0.3900(4) 0.4495(3) 0.19057(19)
H45 H 0.3367 0.4081 0.1994
H46 H 0.3442 0.4913 0.2044
C35 C 0.4100(4) 0.4549(3) 0.1258(2)
H47 H 0.3251 0.4510 0.1059
C36 C 0.4750(5) 0.5261(3) 0.1129(2)
H48 H 0.4882 0.5312 0.0722
H49 H 0.4191 0.5647 0.1259
C37 C 0.5031(5) 0.3985(3) 0.10604(19)
H50 H 0.4784 0.3638 0.0799
C38 C 0.6232(4) 0.4013(2) 0.12833(17)
C39 C 0.7423(5) 0.3585(3) 0.1123(2)
H51 H 0.7779 0.3368 0.1465
H52 H 0.8091 0.3905 0.0975
C40 C 0.7186(7) 0.3008(3) 0.0690(3)
H53 H 0.6774 0.3209 0.0359
H54 H 0.6619 0.2652 0.0851
H55 H 0.8015 0.2797 0.0585
C41 C 0.5465(5) 0.3657(2) 0.23959(17)
C42 C 0.7054(6) 0.2780(2) 0.2601(3)
H56 H 0.6647 0.2469 0.2329
H57 H 0.6727 0.2673 0.2975
H58 H 0.7995 0.2715 0.2592
O5 O 0.5745(3) 0.47244(19) 0.64360(14)
O6 O 0.6957(3) 0.44833(18) 0.56744(13)
O7 O 0.3487(3) 0.4562(2) 0.59025(16)
H1 H 0.3650 0.4544 0.6244
O8 O 0.4447(6) 0.3184(2) 0.58989(19)
H2 H 0.3717 0.2994 0.5900
O9 O 0.2565(4) 0.30656(19) 0.51319(16)
O10 O 0.3480(4) 0.3837(2) 0.45464(14)
C43 C 0.5877(5) 0.4544(2) 0.59328(19)
C44 C 0.4625(5) 0.4389(2) 0.55925(18)
H59 H 0.4641 0.4682 0.5248
C45 C 0.4570(5) 0.3613(2) 0.54129(19)
H60 H 0.5401 0.3492 0.5221
C46 C 0.3437(5) 0.3497(2) 0.4996(2)
O11 O 0.5807(5) 0.3453(2) 0.39256(18)
H3 H 0.5162 0.3571 0.4137
H4 H 0.5862 0.2997 0.3924
O12 O 0.5626(5) 0.2019(2) 0.40689(19)
H5 H 0.6302 0.1933 0.4276
H6 H 0.4954 0.2059 0.4292
O13 O 0.3322(5) 0.1732(2) 0.46546(18)
H7 H 0.2796 0.1412 0.4566
H8 H 0.2956 0.2081 0.4808
loop_
_geom_bond_atom_site_label_1
_geom_bond_atom_site_label_2
_geom_bond_site_symmetry_1
_geom_bond_site_symmetry_2
O1 C20 1_555 1_555
O2 C20 1_555 1_555
O3 C41 1_555 1_555
O4 C41 1_555 1_555
O5 C43 1_555 1_555
O6 C43 1_555 1_555
O7 H1 1_555 1_555
O8 H2 1_555 1_555
O9 C46 1_555 1_555
O10 C46 1_555 1_555
O11 H3 1_555 1_555
H4 O11 1_555 1_555
O12 H5 1_555 1_555
H6 O12 1_555 1_555
O13 H7 1_555 1_555
H8 O13 1_555 1_555
N1 H9 1_555 1_555
N2 H10 1_555 1_555
N3 H11 1_555 1_555
N4 H12 1_555 1_555
C1 N1 1_555 1_555
C2 C1 1_555 1_555
H13 C2 1_555 1_555
C3 C2 1_555 1_555
H14 C3 1_555 1_555
C4 C3 1_555 1_555
H15 C4 1_555 1_555
C5 C4 1_555 1_555
H16 C5 1_555 1_555
C6 C1 1_555 1_555
C7 C6 1_555 1_555
C8 N1 1_555 1_555
C9 C8 1_555 1_555
C10 N2 1_555 1_555
H17 C10 1_555 1_555
C11 N2 1_555 1_555
H18 C11 1_555 1_555
H19 C11 1_555 1_555
C12 C7 1_555 1_555
H20 C12 1_555 1_555
H21 C12 1_555 1_555
C13 C9 1_555 1_555
H22 C13 1_555 1_555
H23 C13 1_555 1_555
C14 C13 1_555 1_555
H24 C14 1_555 1_555
C15 N2 1_555 1_555
H25 C15 1_555 1_555
H26 C15 1_555 1_555
C16 C14 1_555 1_555
H27 C16 1_555 1_555
C17 C10 1_555 1_555
C18 C17 1_555 1_555
H28 C18 1_555 1_555
H29 C18 1_555 1_555
C19 C18 1_555 1_555
H30 C19 1_555 1_555
H31 C19 1_555 1_555
H32 C19 1_555 1_555
C20 C9 1_555 1_555
C21 O1 1_555 1_555
H33 C21 1_555 1_555
H34 C21 1_555 1_555
H35 C21 1_555 1_555
C22 N3 1_555 1_555
C23 C22 1_555 1_555
H36 C23 1_555 1_555
C24 C23 1_555 1_555
H37 C24 1_555 1_555
C25 C24 1_555 1_555
H38 C25 1_555 1_555
C26 C25 1_555 1_555
H39 C26 1_555 1_555
C27 C22 1_555 1_555
C28 C27 1_555 1_555
C29 N3 1_555 1_555
C30 C29 1_555 1_555
C31 N4 1_555 1_555
H40 C31 1_555 1_555
C32 N4 1_555 1_555
H41 C32 1_555 1_555
H42 C32 1_555 1_555
C33 C28 1_555 1_555
H43 C33 1_555 1_555
H44 C33 1_555 1_555
C34 C30 1_555 1_555
H45 C34 1_555 1_555
H46 C34 1_555 1_555
C35 C34 1_555 1_555
H47 C35 1_555 1_555
C36 N4 1_555 1_555
H48 C36 1_555 1_555
H49 C36 1_555 1_555
C37 C35 1_555 1_555
H50 C37 1_555 1_555
C38 C31 1_555 1_555
C39 C38 1_555 1_555
H51 C39 1_555 1_555
H52 C39 1_555 1_555
C40 C39 1_555 1_555
H53 C40 1_555 1_555
H54 C40 1_555 1_555
H55 C40 1_555 1_555
C41 C30 1_555 1_555
C42 O3 1_555 1_555
H56 C42 1_555 1_555
H57 C42 1_555 1_555
H58 C42 1_555 1_555
C43 C44 1_555 1_555
C44 O7 1_555 1_555
H59 C44 1_555 1_555
C45 O8 1_555 1_555
H60 C45 1_555 1_555
C46 C45 1_555 1_555
C5 C6 1_555 1_555
C7 C8 1_555 1_555
C9 C10 1_555 1_555
C11 C12 1_555 1_555
C14 C15 1_555 1_555
C16 C17 1_555 1_555
C26 C27 1_555 1_555
C28 C29 1_555 1_555
C30 C31 1_555 1_555
C32 C33 1_555 1_555
C35 C36 1_555 1_555
C37 C38 1_555 1_555
C44 C45 1_555 1_555

#END
