
#######################################################################
#
#                 Cambridge Crystallographic Data Centre
#                                CCDC 
#
#######################################################################
#
# If this CIF has been generated from an entry in the Cambridge 
# Structural Database, then it will include bibliographic, chemical, 
# crystal, experimental, refinement or atomic coordinate data resulting 
# from the CCDC's data processing and validation procedures.
#
#######################################################################

data_MEHLOB
_chemical_formula_moiety         'C6 H4 Br1 N1 O1'
_chemical_name_systematic        6-Bromopyridine-2-carbaldehyde
_symmetry_cell_setting           monoclinic
_symmetry_space_group_name_H-M   'P 21/a'
_symmetry_Int_Tables_number      14
_space_group_name_Hall           '-P 2yab'
loop_
_symmetry_equiv_pos_site_id
_symmetry_equiv_pos_as_xyz
1 x,y,z
2 1/2-x,1/2+y,-z
3 -x,-y,-z
4 1/2+x,1/2-y,z
_cell_length_a                   6.908(2)
_cell_length_b                   6.290(4)
_cell_length_c                   15.060(6)
_cell_angle_alpha                90
_cell_angle_beta                 95.57(3)
_cell_angle_gamma                90
_cell_volume                     651.287
_exptl_crystal_colour            yellow
_exptl_crystal_description       block
_cell_formula_units_Z            4
_exptl_crystal_recrystallization_method 'ethyl acetate'
loop_
_atom_site_label
_atom_site_type_symbol
_atom_site_fract_x
_atom_site_fract_y
_atom_site_fract_z
Br1 Br 0.82162(10) 0.08760(10) 0.58233(3)
O1 O 0.8667(6) 0.2360(7) 0.9935(2)
N1 N 0.8400(6) 0.1588(6) 0.7622(3)
C1 C 0.8355(7) 0.2589(9) 0.6868(3)
C2 C 0.8413(9) 0.4787(8) 0.6781(4)
C3 C 0.8510(9) 0.5974(8) 0.7545(4)
C4 C 0.8564(8) 0.4960(8) 0.8347(3)
C5 C 0.8496(7) 0.2775(7) 0.8364(3)
C6 C 0.8541(9) 0.1550(8) 0.9205(4)
H1 H 0.850(7) 0.542(8) 0.625(3)
H2 H 0.852(7) 0.760(9) 0.746(3)
H3 H 0.867(8) 0.586(8) 0.893(2)
H4 H 0.851(8) -0.008(10) 0.906(4)
loop_
_geom_bond_atom_site_label_1
_geom_bond_atom_site_label_2
_geom_bond_site_symmetry_1
_geom_bond_site_symmetry_2
Br1 C1 1_555 1_555
O1 C6 1_555 1_555
N1 C1 1_555 1_555
C1 C2 1_555 1_555
C2 C3 1_555 1_555
C3 C4 1_555 1_555
C4 C5 1_555 1_555
C5 N1 1_555 1_555
C6 C5 1_555 1_555
H1 C2 1_555 1_555
H2 C3 1_555 1_555
H3 C4 1_555 1_555
H4 C6 1_555 1_555

#END
