
#######################################################################
#
#                 Cambridge Crystallographic Data Centre
#                                CCDC 
#
#######################################################################
#
# If this CIF has been generated from an entry in the Cambridge 
# Structural Database, then it will include bibliographic, chemical, 
# crystal, experimental, refinement or atomic coordinate data resulting 
# from the CCDC's data processing and validation procedures.
#
#######################################################################

data_MEHLUH
_chemical_formula_moiety         'C8 H8 N4 O3 S1'
_chemical_name_systematic        '4-(Acetylamino)benzenesulfonyl azide'
_symmetry_cell_setting           monoclinic
_symmetry_space_group_name_H-M   'P 21'
_symmetry_Int_Tables_number      4
_space_group_name_Hall           'P 2yb'
loop_
_symmetry_equiv_pos_site_id
_symmetry_equiv_pos_as_xyz
1 x,y,z
2 -x,1/2+y,-z
_cell_length_a                   8.0529(5)
_cell_length_b                   22.9880(10)
_cell_length_c                   8.3123(5)
_cell_angle_alpha                90
_cell_angle_beta                 93.5340(10)
_cell_angle_gamma                90
_cell_volume                     1535.85
_exptl_crystal_colour            colorless
_exptl_crystal_description       block
_cell_formula_units_Z            6
loop_
_atom_site_label
_atom_site_type_symbol
_atom_site_fract_x
_atom_site_fract_y
_atom_site_fract_z
C1 C 0.3370(3) 0.31132(8) 0.5921(2)
C2 C 0.5081(3) 0.31502(10) 0.6216(2)
H1 H 0.5546 0.3210 0.7281
C3 C 0.6107(3) 0.30992(9) 0.4949(2)
H2 H 0.7281 0.3120 0.5137
C4 C 0.5397(3) 0.30171(8) 0.3389(2)
C5 C 0.3682(3) 0.29655(9) 0.3112(2)
H3 H 0.3214 0.2896 0.2052
C6 C 0.2655(3) 0.30150(9) 0.4384(2)
H4 H 0.1483 0.2982 0.4206
C7 C 0.7833(3) 0.32513(10) 0.1856(3)
C8 C 0.8579(3) 0.31486(12) 0.0270(3)
H5 H 0.8401 0.3492 -0.0417
H6 H 0.8048 0.2810 -0.0261
H7 H 0.9775 0.3077 0.0453
N1 N 0.6380(2) 0.29638(8) 0.2051(2)
H22 H 0.6025 0.2725 0.1278
N2 N 0.1472(2) 0.38905(8) 0.7433(2)
N3 N 0.0025(3) 0.39598(8) 0.6851(2)
N4 N -0.1280(3) 0.40705(10) 0.6390(3)
O1 O 0.8469(2) 0.35857(7) 0.2876(2)
O2 O 0.3014(2) 0.31341(8) 0.90065(18)
O3 O 0.0612(2) 0.28276(7) 0.7193(2)
S1 S 0.20593(6) 0.31786(2) 0.75080(6)
C9 C 0.3907(2) 0.48812(9) 0.0297(2)
C10 C 0.3381(3) 0.43565(9) 0.0934(3)
H8 H 0.4003 0.4010 0.0807
C11 C 0.1943(3) 0.43488(9) 0.1750(3)
H9 H 0.1571 0.3993 0.2187
C12 C 0.1024(2) 0.48576(9) 0.1942(2)
C13 C 0.1593(3) 0.53834(9) 0.1359(3)
H10 H 0.1006 0.5734 0.1534
C14 C 0.3036(3) 0.53906(9) 0.0514(3)
H11 H 0.3420 0.5746 0.0086
C15 C -0.1563(3) 0.52171(9) 0.3099(2)
C16 C -0.3134(3) 0.49950(11) 0.3806(3)
H12 H -0.3062 0.5060 0.4974
H13 H -0.3255 0.4578 0.3587
H14 H -0.4099 0.5203 0.3316
N5 N -0.0471(2) 0.47950(8) 0.2718(2)
H23 H -0.0732 0.4438 0.2990
N6 N 0.5014(2) 0.45126(9) -0.2554(2)
N7 N 0.4002(2) 0.47963(10) -0.3445(2)
N8 N 0.3078(3) 0.50072(13) -0.4341(3)
O4 O -0.1314(2) 0.57361(7) 0.2926(2)
O5 O 0.6906(2) 0.45011(9) -0.0149(2)
O6 O 0.6056(2) 0.54647(8) -0.1286(2)
S2 S 0.56587(6) 0.48809(2) -0.08468(6)
C17 C 0.2330(2) 0.66284(9) 0.5771(2)
C18 C 0.1854(3) 0.67538(9) 0.4179(2)
H15 H 0.0732 0.6854 0.3885
C19 C 0.3013(3) 0.67338(9) 0.3012(2)
H16 H 0.2689 0.6816 0.1917
C20 C 0.4670(3) 0.65910(8) 0.3472(2)
C21 C 0.5135(3) 0.64594(9) 0.5082(3)
H17 H 0.6254 0.6357 0.5382
C22 C 0.3967(3) 0.64786(10) 0.6241(2)
H18 H 0.4277 0.6391 0.7335
C23 C 0.5923(3) 0.68068(9) 0.0876(2)
C24 C 0.7509(3) 0.67167(10) 0.0028(3)
H19 H 0.7267 0.6738 -0.1140
H20 H 0.7976 0.6334 0.0312
H21 H 0.8313 0.7020 0.0362
N9 N 0.5929(2) 0.65573(8) 0.2372(2)
H24 H 0.6817 0.6354 0.2681
N10 N -0.0633(3) 0.62023(11) 0.6648(2)
N11 N -0.0303(3) 0.56989(11) 0.7122(3)
N12 N -0.0145(4) 0.52391(13) 0.7518(5)
O7 O 0.4759(2) 0.70885(8) 0.0289(2)
O8 O 0.1595(2) 0.65156(7) 0.87722(18)
O9 O 0.0018(3) 0.72287(8) 0.7077(2)
S3 S 0.08692(6) 0.66879(2) 0.72344(6)
loop_
_geom_bond_atom_site_label_1
_geom_bond_atom_site_label_2
_geom_bond_site_symmetry_1
_geom_bond_site_symmetry_2
C1 C2 1_555 1_555
C2 H1 1_555 1_555
C3 C2 1_555 1_555
H2 C3 1_555 1_555
C4 C3 1_555 1_555
C5 C4 1_555 1_555
H3 C5 1_555 1_555
C6 C1 1_555 1_555
H4 C6 1_555 1_555
C7 C8 1_555 1_555
C8 H5 1_555 1_555
H6 C8 1_555 1_555
H7 C8 1_555 1_555
C9 C10 1_555 1_555
C10 H8 1_555 1_555
C11 C10 1_555 1_555
H9 C11 1_555 1_555
C12 C11 1_555 1_555
C13 C12 1_555 1_555
H10 C13 1_555 1_555
C14 C9 1_555 1_555
H11 C14 1_555 1_555
C15 C16 1_555 1_555
C16 H12 1_555 1_555
H13 C16 1_555 1_555
H14 C16 1_555 1_555
C17 C18 1_555 1_555
C18 H15 1_555 1_555
C19 C18 1_555 1_555
H16 C19 1_555 1_555
C20 C19 1_555 1_555
C21 C20 1_555 1_555
H17 C21 1_555 1_555
C22 C17 1_555 1_555
H18 C22 1_555 1_555
C23 C24 1_555 1_555
C24 H19 1_555 1_555
H20 C24 1_555 1_555
H21 C24 1_555 1_555
N1 C4 1_555 1_555
H22 N1 1_555 1_555
N2 N3 1_555 1_555
N3 N4 1_555 1_555
N5 C12 1_555 1_555
H23 N5 1_555 1_555
N6 N7 1_555 1_555
N7 N8 1_555 1_555
N9 C20 1_555 1_555
H24 N9 1_555 1_555
N10 N11 1_555 1_555
N11 N12 1_555 1_555
O1 C7 1_555 1_555
O2 S1 1_555 1_555
O3 S1 1_555 1_555
O4 C15 1_555 1_555
O5 S2 1_555 1_555
O6 S2 1_555 1_555
O7 C23 1_555 1_555
O8 S3 1_555 1_555
O9 S3 1_555 1_555
S1 C1 1_555 1_555
S2 C9 1_555 1_555
S3 C17 1_555 1_555
C5 C6 1_555 1_555
C7 N1 1_555 1_555
C13 C14 1_555 1_555
C15 N5 1_555 1_555
C21 C22 1_555 1_555
C23 N9 1_555 1_555
N2 S1 1_555 1_555
N6 S2 1_555 1_555
N10 S3 1_555 1_555

#END
