
#######################################################################
#
#                 Cambridge Crystallographic Data Centre
#                                CCDC 
#
#######################################################################
#
# If this CIF has been generated from an entry in the Cambridge 
# Structural Database, then it will include bibliographic, chemical, 
# crystal, experimental, refinement or atomic coordinate data resulting 
# from the CCDC's data processing and validation procedures.
#
#######################################################################

data_MEHMUI
_chemical_formula_moiety         'C16 H16 O4'
_chemical_name_systematic        'Diethyl naphthalene-1,8-dicarboxylate'
_symmetry_cell_setting           monoclinic
_symmetry_space_group_name_H-M   'P 21/c'
_symmetry_Int_Tables_number      14
_space_group_name_Hall           '-P 2ybc'
loop_
_symmetry_equiv_pos_site_id
_symmetry_equiv_pos_as_xyz
1 x,y,z
2 -x,1/2+y,1/2-z
3 -x,-y,-z
4 x,1/2-y,1/2+z
_cell_length_a                   10.210(2)
_cell_length_b                   9.6720(10)
_cell_length_c                   29.163(4)
_cell_angle_alpha                90
_cell_angle_beta                 90.150(10)
_cell_angle_gamma                90
_cell_volume                     2879.87
_exptl_crystal_colour            colorless
_exptl_crystal_description       block
_cell_formula_units_Z            8
_exptl_crystal_recrystallization_method ethanol
loop_
_atom_site_label
_atom_site_type_symbol
_atom_site_fract_x
_atom_site_fract_y
_atom_site_fract_z
O1 O 0.75532(13) 0.35111(14) 0.07430(5)
O2 O 0.64765(16) 0.18191(17) 0.03821(5)
O3 O 0.64319(13) 0.18601(14) 0.14723(5)
O4 O 0.78707(16) 0.32191(16) 0.18406(5)
C1 C 0.52801(19) 0.3643(2) 0.07341(8)
C2 C 0.4373(2) 0.3763(2) 0.03929(8)
H1 H 0.4463 0.3228 0.0130
C3 C 0.3314(3) 0.4666(3) 0.04279(11)
H2 H 0.2695 0.4713 0.0194
C4 C 0.3192(2) 0.5466(3) 0.08002(11)
H3 H 0.2514 0.6106 0.0815
C5 C 0.3963(3) 0.6212(3) 0.15555(12)
H4 H 0.3307 0.6878 0.1558
C6 C 0.4763(3) 0.6107(3) 0.19197(10)
H5 H 0.4683 0.6714 0.2165
C7 C 0.5726(2) 0.5067(2) 0.19241(8)
H6 H 0.6259 0.4965 0.2181
C8 C 0.5891(2) 0.4202(2) 0.15580(8)
C9 C 0.51134(19) 0.4373(2) 0.11554(8)
C10 C 0.4082(2) 0.5353(2) 0.11722(9)
C11 C 0.6474(2) 0.2854(2) 0.06095(8)
C12 C 0.6858(2) 0.3075(2) 0.16341(7)
C13 C 0.7293(2) 0.0673(2) 0.15400(8)
H7 H 0.8191 0.0988 0.1572
H8 H 0.7246 0.0072 0.1274
C14 C 0.6907(3) -0.0100(3) 0.19529(9)
H9 H 0.6966 0.0493 0.2216
H10 H 0.7480 -0.0877 0.1993
H11 H 0.6022 -0.0420 0.1919
C29 C 0.8740(6) 0.2863(12) 0.0537(4)
H23 H 0.8664 0.2804 0.0206
H24 H 0.8890 0.1945 0.0661
C30 C 0.9814(7) 0.3848(9) 0.0677(5)
H25 H 0.9704 0.4710 0.0518
H26 H 1.0649 0.3457 0.0601
H27 H 0.9772 0.4006 0.1002
O5 O 0.15196(14) 1.09045(15) 0.15898(6)
O6 O 0.30660(16) 0.96680(18) 0.19536(5)
O7 O 0.26066(13) 0.92182(14) 0.08610(5)
O8 O 0.13836(15) 1.08258(17) 0.05099(5)
C15 C 0.10945(19) 0.8563(2) 0.17235(8)
C16 C 0.1011(2) 0.7757(3) 0.21054(8)
H12 H 0.1572 0.7931 0.2350
C17 C 0.0109(3) 0.6679(3) 0.21409(10)
H13 H 0.0098 0.6119 0.2400
C18 C -0.0746(3) 0.6459(3) 0.17957(11)
H14 H -0.1371 0.5765 0.1824
C19 C -0.1640(2) 0.7041(3) 0.10390(11)
H15 H -0.2287 0.6374 0.1077
C20 C -0.1604(3) 0.7783(3) 0.06498(11)
H16 H -0.2249 0.7667 0.0427
C21 C -0.0594(2) 0.8727(3) 0.05822(8)
H17 H -0.0559 0.9213 0.0307
C22 C 0.03450(19) 0.8963(2) 0.09048(8)
C23 C 0.02696(18) 0.8292(2) 0.13410(8)
C24 C -0.0709(2) 0.7259(2) 0.13931(9)
C25 C 0.2017(2) 0.9741(3) 0.17646(8)
C26 C 0.1475(2) 0.9805(2) 0.07430(7)
C27 C 0.3787(2) 0.9882(2) 0.06782(9)
H18 H 0.3657 1.0117 0.0358
H19 H 0.3970 1.0726 0.0846
C28 C 0.4862(2) 0.8940(3) 0.07239(9)
H20 H 0.5019 0.8758 0.1043
H21 H 0.5632 0.9341 0.0590
H22 H 0.4656 0.8091 0.0569
C35 C 0.2309(10) 1.2187(8) 0.1542(3)
H38 H 0.2018 1.2723 0.1279
H39 H 0.3230 1.1968 0.1505
C36 C 0.2083(12) 1.2963(11) 0.1979(3)
H40 H 0.1189 1.3268 0.1991
H41 H 0.2655 1.3751 0.1990
H42 H 0.2261 1.2369 0.2235
C31? C 0.8890(10) 0.2897(18) 0.0739(4)
H28? H 0.8856 0.1911 0.0679
H29? H 0.9339 0.3054 0.1027
C32? C 0.9554(14) 0.3661(13) 0.0350(6)
H30? H 0.9197 0.3356 0.0063
H31? H 1.0478 0.3475 0.0358
H32? H 0.9409 0.4636 0.0384
C33? C 0.2390(15) 1.2040(11) 0.1747(8)
H33? H 0.3096 1.2192 0.1531
H34? H 0.2762 1.1834 0.2045
C34? C 0.1496(12) 1.3295(11) 0.1771(6)
H35? H 0.1134 1.3476 0.1473
H36? H 0.1989 1.4084 0.1871
H37? H 0.0799 1.3118 0.1983
loop_
_geom_bond_atom_site_label_1
_geom_bond_atom_site_label_2
_geom_bond_site_symmetry_1
_geom_bond_site_symmetry_2
O1 C11 1_555 1_555
O2 C11 1_555 1_555
O3 C12 1_555 1_555
O4 C12 1_555 1_555
C1 C2 1_555 1_555
C2 H1 1_555 1_555
C3 C2 1_555 1_555
H2 C3 1_555 1_555
C4 C3 1_555 1_555
H3 C4 1_555 1_555
C5 H4 1_555 1_555
C6 C5 1_555 1_555
H5 C6 1_555 1_555
C7 C6 1_555 1_555
H6 C7 1_555 1_555
C8 C7 1_555 1_555
C9 C1 1_555 1_555
C10 C4 1_555 1_555
C11 C1 1_555 1_555
C12 C8 1_555 1_555
C13 O3 1_555 1_555
H7 C13 1_555 1_555
H8 C13 1_555 1_555
C14 C13 1_555 1_555
H9 C14 1_555 1_555
H10 C14 1_555 1_555
H11 C14 1_555 1_555
O5 C25 1_555 1_555
O6 C25 1_555 1_555
O7 C26 1_555 1_555
O8 C26 1_555 1_555
C15 C16 1_555 1_555
C16 H12 1_555 1_555
C17 C16 1_555 1_555
H13 C17 1_555 1_555
C18 C17 1_555 1_555
H14 C18 1_555 1_555
C19 H15 1_555 1_555
C20 C19 1_555 1_555
H16 C20 1_555 1_555
C21 C20 1_555 1_555
H17 C21 1_555 1_555
C22 C21 1_555 1_555
C23 C15 1_555 1_555
C24 C18 1_555 1_555
C25 C15 1_555 1_555
C26 C22 1_555 1_555
C27 O7 1_555 1_555
H18 C27 1_555 1_555
H19 C27 1_555 1_555
C28 C27 1_555 1_555
H20 C28 1_555 1_555
H21 C28 1_555 1_555
H22 C28 1_555 1_555
C29 O1 1_555 1_555
H23 C29 1_555 1_555
H24 C29 1_555 1_555
C30 C29 1_555 1_555
H25 C30 1_555 1_555
H26 C30 1_555 1_555
H27 C30 1_555 1_555
C35 O5 1_555 1_555
H38 C35 1_555 1_555
H39 C35 1_555 1_555
C36 C35 1_555 1_555
H40 C36 1_555 1_555
H41 C36 1_555 1_555
H42 C36 1_555 1_555
C5 C10 1_555 1_555
C8 C9 1_555 1_555
C9 C10 1_555 1_555
C19 C24 1_555 1_555
C22 C23 1_555 1_555
C23 C24 1_555 1_555

#END
