
#######################################################################
#
#                 Cambridge Crystallographic Data Centre
#                                CCDC 
#
#######################################################################
#
# If this CIF has been generated from an entry in the Cambridge 
# Structural Database, then it will include bibliographic, chemical, 
# crystal, experimental, refinement or atomic coordinate data resulting 
# from the CCDC's data processing and validation procedures.
#
#######################################################################

data_MEHNIY
_chemical_formula_moiety         'C6 F1 N2 O1 S4'
_chemical_name_systematic        
'8-Fluoro-4-oxo-3H,4H-[1,2,3]dithiazolo[4,5-f][1,2,3]benzodithiazol-3-yl radical'
_symmetry_cell_setting           orthorhombic
_symmetry_space_group_name_H-M   'C m c 21'
_symmetry_Int_Tables_number      36
_space_group_name_Hall           'C 2n -2'
loop_
_symmetry_equiv_pos_site_id
_symmetry_equiv_pos_as_xyz
1 x,y,z
2 -x,-y,1/2+z
3 x,-y,1/2+z
4 -x,y,z
5 1/2+x,1/2+y,z
6 1/2-x,1/2-y,1/2+z
7 1/2+x,1/2-y,1/2+z
8 1/2-x,1/2+y,z
_cell_length_a                   6.3010(13)
_cell_length_b                   7.9210(16)
_cell_length_c                   15.916(3)
_cell_angle_alpha                90
_cell_angle_beta                 90
_cell_angle_gamma                90
_cell_volume                     794.371
_exptl_crystal_colour            black
_exptl_crystal_description       plate
_cell_formula_units_Z            4
loop_
_atom_site_label
_atom_site_type_symbol
_atom_site_fract_x
_atom_site_fract_y
_atom_site_fract_z
S1 S 1.0000 -0.13026(18) 0.42020(8)
S2 S 1.0000 0.50078(17) 0.07296(7)
F1 F 1.0000 0.4743(4) 0.37394(16)
O1 O 1.0000 -0.0382(5) 0.1453(2)
N1 N 1.0000 -0.1088(5) 0.3182(3)
N2 N 1.0000 0.2994(7) 0.0919(2)
C1 C 1.0000 0.0457(6) 0.2892(3)
C2 C 1.0000 0.3860(6) 0.2341(3)
C3 C 1.0000 0.3458(5) 0.3186(3)
C4 C 1.0000 0.2577(6) 0.1727(3)
C5 C 1.0000 0.1825(6) 0.3477(2)
S3 S 1.0000 0.12627(19) 0.45346(7)
S4 S 1.0000 0.59215(14) 0.19716(7)
C6 C 1.0000 0.0750(5) 0.1965(3)
loop_
_geom_bond_atom_site_label_1
_geom_bond_atom_site_label_2
_geom_bond_site_symmetry_1
_geom_bond_site_symmetry_2
S1 N1 1_555 1_555
S2 N2 1_555 1_555
F1 C3 1_555 1_555
O1 C6 1_555 1_555
N1 C1 1_555 1_555
N2 C4 1_555 1_555
C1 C5 1_555 1_555
C2 C3 1_555 1_555
C3 C5 1_555 1_555
C4 C2 1_555 1_555
C5 S3 1_555 1_555
S3 S1 1_555 1_555
S4 S2 1_555 1_555
C6 C1 1_555 1_555
C2 S4 1_555 1_555
C4 C6 1_555 1_555

#END
