
#######################################################################
#
#                 Cambridge Crystallographic Data Centre
#                                CCDC 
#
#######################################################################
#
# If this CIF has been generated from an entry in the Cambridge 
# Structural Database, then it will include bibliographic, chemical, 
# crystal, experimental, refinement or atomic coordinate data resulting 
# from the CCDC's data processing and validation procedures.
#
#######################################################################

data_MEHNAP
_chemical_formula_moiety         'C18 H18 N2 O3'
_chemical_name_systematic        
3-Acetyl-4-furyl-1-methylspiro(pyrrolidine-2,3'-indol)-2'(3'H)-one
_symmetry_cell_setting           orthorhombic
_symmetry_space_group_name_H-M   'P 21 21 21'
_symmetry_Int_Tables_number      19
_space_group_name_Hall           'P 2ac 2ab'
loop_
_symmetry_equiv_pos_site_id
_symmetry_equiv_pos_as_xyz
1 x,y,z
2 1/2-x,-y,1/2+z
3 -x,1/2+y,1/2-z
4 1/2+x,1/2-y,-z
_cell_length_a                   7.7404(6)
_cell_length_b                   10.0227(7)
_cell_length_c                   20.5622(16)
_cell_angle_alpha                90
_cell_angle_beta                 90
_cell_angle_gamma                90
_cell_volume                     1595.21
_exptl_crystal_colour            colorless
_exptl_crystal_description       block
_cell_formula_units_Z            4
_exptl_crystal_recrystallization_method methanol
loop_
_atom_site_label
_atom_site_type_symbol
_atom_site_fract_x
_atom_site_fract_y
_atom_site_fract_z
N1 N 0.5627(3) 0.1941(2) 0.32760(10)
C1 C 0.4679(3) 0.0711(2) 0.34527(11)
C2 C 0.2975(3) 0.1307(3) 0.37211(12)
H1 H 0.2231 0.1513 0.3349
C3 C 0.3504(4) 0.2646(3) 0.40388(11)
H2 H 0.3489 0.2544 0.4513
C4 C 0.5369(3) 0.2877(3) 0.38145(12)
H3 H 0.5527 0.3790 0.3669
H4 H 0.6175 0.2697 0.4165
C5 C 0.1978(4) 0.0378(3) 0.41680(16)
C6 C 0.1225(5) -0.0848(4) 0.3855(2)
H5 H 0.0395 -0.1245 0.4142
H6 H 0.2132 -0.1477 0.3767
H7 H 0.0669 -0.0605 0.3454
O1 O 0.1784(4) 0.0612(3) 0.47331(12)
C7 C 0.2296(4) 0.3737(3) 0.38513(13)
O2 O 0.0628(3) 0.3543(2) 0.40360(12)
C8 C -0.0288(4) 0.4608(3) 0.3801(2)
H8 H -0.1470 0.4730 0.3855
C9 C 0.0738(5) 0.5433(3) 0.34897(17)
H9 H 0.0420 0.6225 0.3287
C10 C 0.2432(5) 0.4883(3) 0.35225(15)
H10 H 0.3436 0.5249 0.3349
C11 C 0.5588(3) -0.0280(3) 0.38886(11)
C12 C 0.6179(4) -0.0192(3) 0.45236(12)
H11 H 0.6040 0.0590 0.4761
C13 C 0.6982(4) -0.1296(3) 0.47969(12)
H12 H 0.7397 -0.1248 0.5221
C14 C 0.7174(4) -0.2454(3) 0.44525(13)
H13 H 0.7705 -0.3184 0.4648
C15 C 0.6590(4) -0.2559(3) 0.38188(12)
H14 H 0.6720 -0.3348 0.3585
C16 C 0.5811(3) -0.1463(3) 0.35445(11)
N2 N 0.5101(3) -0.1335(2) 0.29204(9)
H15 H 0.5114 -0.1956 0.2632
C17 C 0.4394(3) -0.0117(2) 0.28269(11)
O3 O 0.3673(3) 0.0283(2) 0.23413(9)
C18 C 0.7448(4) 0.1747(3) 0.31204(14)
H16 H 0.7552 0.1128 0.2766
H17 H 0.8040 0.1400 0.3494
H18 H 0.7952 0.2586 0.2998
loop_
_geom_bond_atom_site_label_1
_geom_bond_atom_site_label_2
_geom_bond_site_symmetry_1
_geom_bond_site_symmetry_2
N1 C1 1_555 1_555
C1 C2 1_555 1_555
C2 H1 1_555 1_555
C3 C2 1_555 1_555
H2 C3 1_555 1_555
C4 N1 1_555 1_555
H3 C4 1_555 1_555
H4 C4 1_555 1_555
C5 C2 1_555 1_555
C6 C5 1_555 1_555
H5 C6 1_555 1_555
H6 C6 1_555 1_555
H7 C6 1_555 1_555
O1 C5 1_555 1_555
C7 C3 1_555 1_555
O2 C7 1_555 1_555
C8 O2 1_555 1_555
H8 C8 1_555 1_555
C9 C8 1_555 1_555
H9 C9 1_555 1_555
C10 C7 1_555 1_555
H10 C10 1_555 1_555
C11 C1 1_555 1_555
C12 C11 1_555 1_555
H11 C12 1_555 1_555
C13 C12 1_555 1_555
H12 C13 1_555 1_555
C14 C13 1_555 1_555
H13 C14 1_555 1_555
C15 C14 1_555 1_555
H14 C15 1_555 1_555
C16 C11 1_555 1_555
N2 C16 1_555 1_555
H15 N2 1_555 1_555
C17 C1 1_555 1_555
O3 C17 1_555 1_555
C18 N1 1_555 1_555
H16 C18 1_555 1_555
H17 C18 1_555 1_555
H18 C18 1_555 1_555
C3 C4 1_555 1_555
C9 C10 1_555 1_555
C15 C16 1_555 1_555
N2 C17 1_555 1_555

#END
