
#######################################################################
#
#                 Cambridge Crystallographic Data Centre
#                                CCDC 
#
#######################################################################
#
# If this CIF has been generated from an entry in the Cambridge 
# Structural Database, then it will include bibliographic, chemical, 
# crystal, experimental, refinement or atomic coordinate data resulting 
# from the CCDC's data processing and validation procedures.
#
#######################################################################

data_MEHPAR
_chemical_formula_moiety         'C9 H8 N2 O1'
_chemical_name_systematic        1-(1H-Benzimidazol-2-yl)ethanone
_symmetry_cell_setting           triclinic
_symmetry_space_group_name_H-M   'P -1'
_symmetry_Int_Tables_number      2
_space_group_name_Hall           '-P 1'
loop_
_symmetry_equiv_pos_site_id
_symmetry_equiv_pos_as_xyz
1 x,y,z
2 -x,-y,-z
_cell_length_a                   5.7270(16)
_cell_length_b                   7.102(2)
_cell_length_c                   10.322(3)
_cell_angle_alpha                95.493(4)
_cell_angle_beta                 94.159(4)
_cell_angle_gamma                108.960(4)
_cell_volume                     392.826
_exptl_crystal_colour            colorless
_exptl_crystal_description       plate
_cell_formula_units_Z            2
_exptl_crystal_recrystallization_method toluene
loop_
_atom_site_label
_atom_site_type_symbol
_atom_site_fract_x
_atom_site_fract_y
_atom_site_fract_z
O1 O 0.5617(3) 0.3248(2) 0.11628(14)
N1 N 0.2748(3) 0.5778(2) 0.13256(14)
H1 H 0.3266 0.5748 0.0565
N2 N 0.2149(3) 0.5080(2) 0.33716(15)
C1 C -0.0451(4) 0.7286(3) 0.38080(19)
H2 H -0.0698 0.7013 0.4660
C2 C -0.1457(4) 0.8540(3) 0.3242(2)
H3 H -0.2404 0.9134 0.3722
C3 C -0.1110(4) 0.8965(3) 0.1962(2)
H4 H -0.1843 0.9823 0.1611
C4 C 0.0287(4) 0.8146(3) 0.1206(2)
H5 H 0.0527 0.8434 0.0356
C5 C 0.1322(3) 0.6868(3) 0.17810(18)
C6 C 0.0972(3) 0.6420(3) 0.30580(18)
C7 C 0.3180(3) 0.4756(3) 0.23110(17)
C8 C 0.4727(4) 0.3449(3) 0.21827(19)
C9 C 0.5127(4) 0.2435(3) 0.3333(2)
H6 H 0.6569 0.2041 0.3262
H7 H 0.3701 0.1268 0.3357
H8 H 0.5368 0.3342 0.4121
loop_
_geom_bond_atom_site_label_1
_geom_bond_atom_site_label_2
_geom_bond_site_symmetry_1
_geom_bond_site_symmetry_2
O1 C8 1_555 1_555
N1 H1 1_555 1_555
N2 C6 1_555 1_555
C1 H2 1_555 1_555
C2 C1 1_555 1_555
H3 C2 1_555 1_555
C3 C2 1_555 1_555
H4 C3 1_555 1_555
C4 C3 1_555 1_555
H5 C4 1_555 1_555
C5 N1 1_555 1_555
C6 C1 1_555 1_555
C7 N1 1_555 1_555
C8 C7 1_555 1_555
C9 C8 1_555 1_555
H6 C9 1_555 1_555
H7 C9 1_555 1_555
H8 C9 1_555 1_555
N2 C7 1_555 1_555
C4 C5 1_555 1_555
C5 C6 1_555 1_555

#END
