
#######################################################################
#
#                 Cambridge Crystallographic Data Centre
#                                CCDC 
#
#######################################################################
#
# If this CIF has been generated from an entry in the Cambridge 
# Structural Database, then it will include bibliographic, chemical, 
# crystal, experimental, refinement or atomic coordinate data resulting 
# from the CCDC's data processing and validation procedures.
#
#######################################################################

data_MEHQOH
_chemical_formula_moiety         'C54 H77 B1 N4'
_chemical_name_systematic        
(1,3-bis(2,6-Di-isopropylphenyl)-1,3-dihydro-2H-imidazol-2-ylidene)(1,3-bis(2,6-di-isopropylphenyl)imidazolidin-4-yl)dihydridoborate
_symmetry_cell_setting           monoclinic
_symmetry_space_group_name_H-M   'P 21/n'
_symmetry_Int_Tables_number      14
_space_group_name_Hall           '-P 2yn'
loop_
_symmetry_equiv_pos_site_id
_symmetry_equiv_pos_as_xyz
1 x,y,z
2 1/2-x,1/2+y,1/2-z
3 -x,-y,-z
4 1/2+x,1/2-y,1/2+z
_cell_length_a                   12.4807(7)
_cell_length_b                   23.1679(12)
_cell_length_c                   17.7375(10)
_cell_angle_alpha                90
_cell_angle_beta                 91.100(1)
_cell_angle_gamma                90
_cell_volume                     5127.88
_exptl_crystal_colour            colorless
_exptl_crystal_description       plate
_cell_formula_units_Z            4
loop_
_atom_site_label
_atom_site_type_symbol
_atom_site_fract_x
_atom_site_fract_y
_atom_site_fract_z
B1 B 0.99102(13) 0.16548(8) 0.73399(9)
H1 H 0.9690(13) 0.2103(6) 0.7125(9)
H2 H 0.9768(12) 0.1315(6) 0.6868(8)
N1 N 0.87187(9) 0.18391(5) 0.85574(6)
N2 N 0.85330(9) 0.09974(5) 0.80796(7)
N3 N 1.18805(8) 0.18146(4) 0.69863(6)
N4 N 1.27474(9) 0.11126(5) 0.76627(7)
C1 C 0.90894(10) 0.14957(6) 0.80017(7)
C2 C 0.79456(13) 0.15597(7) 0.89660(9)
H3 H 0.7578 0.1709 0.9373
C3 C 0.78261(13) 0.10380(7) 0.86674(9)
H4 H 0.7355 0.0753 0.8824
C4 C 0.85649(13) 0.04995(7) 0.75865(9)
C5 C 0.91274(15) 0.00125(7) 0.78256(10)
C6 C 0.9113(2) -0.04610(9) 0.73424(14)
H5 H 0.9483 -0.0795 0.7479
C7 C 0.8562(3) -0.04421(12) 0.66684(16)
H6 H 0.8566 -0.0762 0.6352
C8 C 0.8009(2) 0.00377(12) 0.64563(13)
H7 H 0.7639 0.0038 0.5996
C9 C 0.79811(16) 0.05270(9) 0.69055(10)
C10 C 0.7363(9) 0.1061(6) 0.6666(7)
H8 H 0.7707 0.1398 0.6900
C11 C 0.6214(10) 0.1024(8) 0.6940(10)
H9 H 0.5824 0.1360 0.6779
H10 H 0.6219 0.1002 0.7481
H11 H 0.5876 0.0685 0.6733
C12 C 0.7426(12) 0.1123(7) 0.5809(6)
H12 H 0.7003 0.1447 0.5647
H13 H 0.7156 0.0778 0.5572
H14 H 0.8158 0.1181 0.5671
C13 C 0.96909(16) -0.00329(8) 0.85889(11)
H15 H 0.9807 0.0360 0.8779
C14 C 1.0781(2) -0.03322(9) 0.85649(15)
H16 H 1.1095 -0.0342 0.9063
H17 H 1.1243 -0.0123 0.8235
H18 H 1.0690 -0.0719 0.8381
C15 C 0.8968(2) -0.03477(11) 0.91443(14)
H19 H 0.9325 -0.0373 0.9627
H20 H 0.8816 -0.0729 0.8960
H21 H 0.8309 -0.0138 0.9194
C16 C 0.90230(11) 0.24305(6) 0.87228(8)
C17 C 0.96328(12) 0.25335(6) 0.93757(8)
C18 C 0.98226(14) 0.31078(7) 0.95670(9)
H22 H 1.0220 0.3193 1.0002
C19 C 0.94375(14) 0.35494(7) 0.91285(10)
H23 H 0.9575 0.3930 0.9268
C20 C 0.88499(13) 0.34355(7) 0.84837(10)
H24 H 0.8604 0.3741 0.8188
C21 C 0.86142(12) 0.28729(6) 0.82630(8)
C22 C 0.79108(13) 0.27583(8) 0.75739(10)
H25 H 0.8043 0.2360 0.7417
C23 C 0.8187(2) 0.31486(11) 0.69104(13)
H26 H 0.7725 0.3059 0.6487
H27 H 0.8919 0.3087 0.6775
H28 H 0.8090 0.3545 0.7052
C24 C 0.67283(16) 0.28011(12) 0.77741(15)
H29 H 0.6293 0.2726 0.7333
H30 H 0.6579 0.3182 0.7959
H31 H 0.6570 0.2522 0.8157
C25 C 1.00778(15) 0.20543(8) 0.98796(9)
H32 H 0.9837 0.1685 0.9667
C26 C 1.12983(17) 0.20525(10) 0.98983(12)
H33 H 1.1552 0.1746 1.0218
H34 H 1.1556 0.2415 1.0091
H35 H 1.1556 0.1996 0.9397
C27 C 0.9645(2) 0.20990(11) 1.06763(11)
H36 H 0.8875 0.2100 1.0654
H37 H 0.9896 0.2450 1.0907
H38 H 0.9890 0.1775 1.0969
C28 C 1.29367(11) 0.15659(6) 0.71192(9)
H39 H 1.3492(13) 0.1848(7) 0.7339(8)
H40 H 1.3244(11) 0.1428(6) 0.6638(8)
C29 C 1.11545(11) 0.16461(6) 0.76042(7)
H41 H 1.1291(11) 0.1897(6) 0.8069(8)
C30 C 1.15992(12) 0.10566(7) 0.77861(9)
H42 H 1.1479(13) 0.0947(7) 0.8326(10)
H43 H 1.1260(13) 0.0757(7) 0.7440(9)
C31 C 1.33820(12) 0.05986(6) 0.76584(8)
C32 C 1.39589(14) 0.04737(8) 0.83237(10)
C33 C 1.45864(17) -0.00197(10) 0.83497(13)
H44 H 1.4974 -0.0107 0.8788
C34 C 1.4646(2) -0.03806(9) 0.77438(15)
H45 H 1.5079 -0.0707 0.7769
C35 C 1.40675(18) -0.02607(8) 0.70996(13)
H46 H 1.4112 -0.0510 0.6690
C36 C 1.34140(14) 0.02249(7) 0.70411(9)
C37 C 1.27571(17) 0.03222(8) 0.63220(10)
H47 H 1.2363 0.0685 0.6381
C38 C 1.3475(2) 0.03893(11) 0.56417(12)
H48 H 1.3975 0.0698 0.5732
H49 H 1.3043 0.0476 0.5203
H50 H 1.3860 0.0036 0.5562
C39 C 1.1932(2) -0.01565(11) 0.61897(15)
H51 H 1.1529 -0.0079 0.5735
H52 H 1.1455 -0.0171 0.6608
H53 H 1.2293 -0.0520 0.6144
C40 C 1.3946(8) 0.0896(4) 0.8994(4)
H54 H 1.3209 0.1041 0.8970
C41 C 1.4601(4) 0.1447(3) 0.8870(3)
H55 H 1.4547 0.1693 0.9303
H56 H 1.4327 0.1646 0.8433
H57 H 1.5338 0.1347 0.8796
C42 C 1.4020(9) 0.0658(4) 0.9775(3)
H58 H 1.3975 0.0968 1.0132
H59 H 1.4691 0.0461 0.9845
H60 H 1.3442 0.0392 0.9851
C43 C 1.18188(10) 0.23845(6) 0.66786(8)
C44 C 1.22031(11) 0.28719(6) 0.70680(8)
C45 C 1.21050(14) 0.34113(7) 0.67227(11)
H61 H 1.2358 0.3737 0.6976
C46 C 1.16451(16) 0.34726(8) 0.60212(12)
H62 H 1.1585 0.3836 0.5801
C47 C 1.12742(15) 0.29957(8) 0.56457(10)
H63 H 1.0964 0.3041 0.5168
C48 C 1.13466(12) 0.24451(7) 0.59553(8)
C49 C 1.09573(15) 0.19264(8) 0.55164(9)
H64 H 1.0841 0.1615 0.5880
C50 C 1.1823(2) 0.17246(12) 0.49870(14)
H65 H 1.2479 0.1666 0.5268
H66 H 1.1931 0.2012 0.4606
H67 H 1.1605 0.1369 0.4753
C51 C 0.9901(2) 0.20265(13) 0.50984(17)
H68 H 0.9695 0.1681 0.4835
H69 H 0.9982 0.2336 0.4744
H70 H 0.9359 0.2126 0.5452
C52 C 1.27082(12) 0.28422(7) 0.78518(8)
H71 H 1.2715 0.2437 0.8008
C53 C 1.38641(16) 0.30546(11) 0.78560(12)
H72 H 1.4163 0.3026 0.8357
H73 H 1.3882 0.3450 0.7693
H74 H 1.4276 0.2822 0.7520
C54 C 1.20447(19) 0.31770(8) 0.84148(11)
H75 H 1.1322 0.3034 0.8404
H76 H 1.2044 0.3579 0.8284
H77 H 1.2349 0.3129 0.8912
C55? C 0.7280(15) 0.1030(10) 0.6683(13)
C56? C 0.6088(16) 0.0886(13) 0.6686(17)
C57? C 0.7482(17) 0.1354(14) 0.5946(16)
C58? C 1.3800(9) 0.0843(5) 0.9010(7)
C59? C 1.4937(7) 0.1041(6) 0.9240(6)
C60? C 1.3321(8) 0.0507(5) 0.9622(5)
H78? H 0.7387 0.1317 0.7084
H79? H 0.5679 0.1226 0.6567
H80? H 0.5899 0.0747 0.7175
H81? H 0.5936 0.0593 0.6316
H82? H 0.7100 0.1713 0.5947
H83? H 0.7238 0.1123 0.5527
H84? H 0.8235 0.1427 0.5903
H85? H 1.3349 0.1177 0.8883
H86? H 1.5209 0.1295 0.8861
H87? H 1.5397 0.0711 0.9291
H88? H 1.4914 0.1242 0.9713
H89? H 1.3193 0.0756 1.0044
H90? H 1.3803 0.0204 0.9775
H91? H 1.2656 0.0342 0.9448
loop_
_geom_bond_atom_site_label_1
_geom_bond_atom_site_label_2
_geom_bond_site_symmetry_1
_geom_bond_site_symmetry_2
B1 H1 1_555 1_555
H2 B1 1_555 1_555
N1 C1 1_555 1_555
N2 C1 1_555 1_555
N3 C28 1_555 1_555
N4 C28 1_555 1_555
C1 B1 1_555 1_555
C2 N1 1_555 1_555
H3 C2 1_555 1_555
C3 N2 1_555 1_555
H4 C3 1_555 1_555
C4 N2 1_555 1_555
C5 C4 1_555 1_555
C6 C5 1_555 1_555
H5 C6 1_555 1_555
C7 C6 1_555 1_555
H6 C7 1_555 1_555
C8 C7 1_555 1_555
H7 C8 1_555 1_555
C9 C4 1_555 1_555
C10 C9 1_555 1_555
H8 C10 1_555 1_555
C11 C10 1_555 1_555
H9 C11 1_555 1_555
H10 C11 1_555 1_555
H11 C11 1_555 1_555
C12 C10 1_555 1_555
H12 C12 1_555 1_555
H13 C12 1_555 1_555
H14 C12 1_555 1_555
C13 C5 1_555 1_555
H15 C13 1_555 1_555
C14 C13 1_555 1_555
H16 C14 1_555 1_555
H17 C14 1_555 1_555
H18 C14 1_555 1_555
C15 C13 1_555 1_555
H19 C15 1_555 1_555
H20 C15 1_555 1_555
H21 C15 1_555 1_555
C16 N1 1_555 1_555
C17 C16 1_555 1_555
C18 C17 1_555 1_555
H22 C18 1_555 1_555
C19 C18 1_555 1_555
H23 C19 1_555 1_555
C20 C19 1_555 1_555
H24 C20 1_555 1_555
C21 C16 1_555 1_555
C22 C21 1_555 1_555
H25 C22 1_555 1_555
C23 C22 1_555 1_555
H26 C23 1_555 1_555
H27 C23 1_555 1_555
H28 C23 1_555 1_555
C24 C22 1_555 1_555
H29 C24 1_555 1_555
H30 C24 1_555 1_555
H31 C24 1_555 1_555
C25 C17 1_555 1_555
H32 C25 1_555 1_555
C26 C25 1_555 1_555
H33 C26 1_555 1_555
H34 C26 1_555 1_555
H35 C26 1_555 1_555
C27 C25 1_555 1_555
H36 C27 1_555 1_555
H37 C27 1_555 1_555
H38 C27 1_555 1_555
C28 H39 1_555 1_555
H40 C28 1_555 1_555
C29 B1 1_555 1_555
H41 C29 1_555 1_555
C30 N4 1_555 1_555
H42 C30 1_555 1_555
H43 C30 1_555 1_555
C31 N4 1_555 1_555
C32 C31 1_555 1_555
C33 C32 1_555 1_555
H44 C33 1_555 1_555
C34 C33 1_555 1_555
H45 C34 1_555 1_555
C35 C34 1_555 1_555
H46 C35 1_555 1_555
C36 C31 1_555 1_555
C37 C36 1_555 1_555
H47 C37 1_555 1_555
C38 C37 1_555 1_555
H48 C38 1_555 1_555
H49 C38 1_555 1_555
H50 C38 1_555 1_555
C39 C37 1_555 1_555
H51 C39 1_555 1_555
H52 C39 1_555 1_555
H53 C39 1_555 1_555
C40 C32 1_555 1_555
H54 C40 1_555 1_555
C41 C40 1_555 1_555
H55 C41 1_555 1_555
H56 C41 1_555 1_555
H57 C41 1_555 1_555
C42 C40 1_555 1_555
H58 C42 1_555 1_555
H59 C42 1_555 1_555
H60 C42 1_555 1_555
C43 N3 1_555 1_555
C44 C43 1_555 1_555
C45 C44 1_555 1_555
H61 C45 1_555 1_555
C46 C45 1_555 1_555
H62 C46 1_555 1_555
C47 C46 1_555 1_555
H63 C47 1_555 1_555
C48 C43 1_555 1_555
C49 C48 1_555 1_555
H64 C49 1_555 1_555
C50 C49 1_555 1_555
H65 C50 1_555 1_555
H66 C50 1_555 1_555
H67 C50 1_555 1_555
C51 C49 1_555 1_555
H68 C51 1_555 1_555
H69 C51 1_555 1_555
H70 C51 1_555 1_555
C52 C44 1_555 1_555
H71 C52 1_555 1_555
C53 C52 1_555 1_555
H72 C53 1_555 1_555
H73 C53 1_555 1_555
H74 C53 1_555 1_555
C54 C52 1_555 1_555
H75 C54 1_555 1_555
H76 C54 1_555 1_555
H77 C54 1_555 1_555
N3 C29 1_555 1_555
C2 C3 1_555 1_555
C8 C9 1_555 1_555
C20 C21 1_555 1_555
C29 C30 1_555 1_555
C35 C36 1_555 1_555
C47 C48 1_555 1_555

#END
