
#######################################################################
#
#                 Cambridge Crystallographic Data Centre
#                                CCDC 
#
#######################################################################
#
# If this CIF has been generated from an entry in the Cambridge 
# Structural Database, then it will include bibliographic, chemical, 
# crystal, experimental, refinement or atomic coordinate data resulting 
# from the CCDC's data processing and validation procedures.
#
#######################################################################

data_MEHROH02
_chemical_name_common            N-Benzylindole-2,3-dione
_chemical_formula_moiety         'C15 H11 N1 O2'
_chemical_name_systematic        1-Benzyl-1H-indole-2,3-dione
_symmetry_cell_setting           monoclinic
_symmetry_space_group_name_H-M   'P 21'
_symmetry_Int_Tables_number      4
_space_group_name_Hall           'P 2yb'
loop_
_symmetry_equiv_pos_site_id
_symmetry_equiv_pos_as_xyz
1 x,y,z
2 -x,1/2+y,-z
_cell_length_a                   6.592(4)
_cell_length_b                   4.916(3)
_cell_length_c                   18.359(10)
_cell_angle_alpha                90
_cell_angle_beta                 98.768(7)
_cell_angle_gamma                90
_cell_volume                     587.994
_cell_formula_units_Z            2
loop_
_atom_site_label
_atom_site_type_symbol
_atom_site_fract_x
_atom_site_fract_y
_atom_site_fract_z
C1 C 0.8131(4) 0.7354(6) 0.16612(13)
C2 C 0.9516(5) 0.8122(7) 0.12012(15)
H1 H 1.0814 0.7337 0.1257
C3 C 0.8972(6) 1.0042(9) 0.06623(17)
H2 H 0.9903 1.0549 0.0354
C4 C 0.7062(7) 1.1213(8) 0.05761(18)
H3 H 0.6694 1.2488 0.0205
C5 C 0.5704(6) 1.0506(8) 0.1034(2)
H4 H 0.4421 1.1331 0.0983
C6 C 0.6235(4) 0.8563(8) 0.15744(17)
H5 H 0.5297 0.8072 0.1882
C7 C 0.8710(4) 0.5198(6) 0.22377(13)
H6 H 0.7572 0.4931 0.2508
H7 H 0.8934 0.3498 0.1994
C8 C 1.2373(4) 0.4493(7) 0.27967(15)
C9 C 1.3780(4) 0.5722(7) 0.34659(14)
C10 C 1.2573(3) 0.7748(6) 0.37641(13)
C11 C 1.0635(3) 0.7791(5) 0.33236(12)
C12 C 0.9143(4) 0.9562(6) 0.34741(13)
H8 H 0.7857 0.9598 0.3184
C13 C 0.9613(4) 1.1294(6) 0.40714(15)
H9 H 0.8623 1.2516 0.4179
C14 C 1.1517(4) 1.1256(6) 0.45135(14)
H10 H 1.1781 1.2426 0.4915
C15 C 1.3012(4) 0.9496(6) 0.43605(14)
H11 H 1.4297 0.9475 0.4651
N1 N 1.0543(3) 0.5847(5) 0.27587(10)
O1 O 1.2794(3) 0.2688(6) 0.24002(12)
O2 O 1.5538(3) 0.4995(6) 0.36587(13)
loop_
_geom_bond_atom_site_label_1
_geom_bond_atom_site_label_2
_geom_bond_site_symmetry_1
_geom_bond_site_symmetry_2
C1 C2 1_555 1_555
C2 H1 1_555 1_555
C3 C2 1_555 1_555
H2 C3 1_555 1_555
C4 C3 1_555 1_555
H3 C4 1_555 1_555
C5 C4 1_555 1_555
H4 C5 1_555 1_555
C6 C1 1_555 1_555
H5 C6 1_555 1_555
C7 C1 1_555 1_555
H6 C7 1_555 1_555
H7 C7 1_555 1_555
C8 C9 1_555 1_555
C9 C10 1_555 1_555
C10 C11 1_555 1_555
C11 C12 1_555 1_555
C12 H8 1_555 1_555
C13 C12 1_555 1_555
H9 C13 1_555 1_555
C14 C13 1_555 1_555
H10 C14 1_555 1_555
C15 C10 1_555 1_555
H11 C15 1_555 1_555
N1 C7 1_555 1_555
O1 C8 1_555 1_555
O2 C9 1_555 1_555
C5 C6 1_555 1_555
C8 N1 1_555 1_555
C11 N1 1_555 1_555
C14 C15 1_555 1_555

#END
