
#######################################################################
#
#                 Cambridge Crystallographic Data Centre
#                                CCDC 
#
#######################################################################
#
# If this CIF has been generated from an entry in the Cambridge 
# Structural Database, then it will include bibliographic, chemical, 
# crystal, experimental, refinement or atomic coordinate data resulting 
# from the CCDC's data processing and validation procedures.
#
#######################################################################

data_MEHROI
_chemical_formula_moiety         'C38 H44 N2 P2 Si2'
_chemical_name_systematic        
5-Benzylidene-2,2,8,8-tetramethyl-4,4,6,6-tetraphenyl-3,7-diaza-4,6-diphospha-2,8-disilanona-3,6-diene
_symmetry_cell_setting           triclinic
_symmetry_space_group_name_H-M   'P -1'
_symmetry_Int_Tables_number      2
_space_group_name_Hall           '-P 1'
loop_
_symmetry_equiv_pos_site_id
_symmetry_equiv_pos_as_xyz
1 x,y,z
2 -x,-y,-z
_cell_length_a                   9.8882(2)
_cell_length_b                   11.5087(3)
_cell_length_c                   16.2479(4)
_cell_angle_alpha                88.2809(18)
_cell_angle_beta                 83.0033(19)
_cell_angle_gamma                79.295(2)
_cell_volume                     1803.26
_exptl_crystal_colour            colorless
_exptl_crystal_description       block
_cell_formula_units_Z            2
loop_
_atom_site_label
_atom_site_type_symbol
_atom_site_fract_x
_atom_site_fract_y
_atom_site_fract_z
C1 C 0.78246(12) 0.91592(10) 0.23034(7)
P1 P 0.81843(3) 0.75863(2) 0.256528(17)
C2 C 0.68879(12) 0.73956(10) 0.34238(7)
C3 C 0.72483(14) 0.66269(11) 0.40719(8)
H1 H 0.8179 0.6227 0.4075
C4 C 0.62462(16) 0.64452(13) 0.47145(9)
H2 H 0.6493 0.5912 0.5152
C5 C 0.48890(15) 0.70364(13) 0.47223(8)
H3 H 0.4209 0.6910 0.5165
C6 C 0.45250(13) 0.78127(12) 0.40823(8)
H4 H 0.3597 0.8222 0.4087
C7 C 0.55180(13) 0.79891(11) 0.34365(8)
H5 H 0.5266 0.8519 0.2998
C8 C 0.77087(13) 0.68298(10) 0.17010(7)
C9 C 0.86279(13) 0.67262(11) 0.09686(8)
H6 H 0.9440 0.7063 0.0935
C10 C 0.83609(14) 0.61345(11) 0.02907(8)
H7 H 0.8984 0.6075 -0.0206
C11 C 0.71816(14) 0.56298(11) 0.03410(8)
H8 H 0.6996 0.5228 -0.0123
C12 C 0.62771(14) 0.57108(11) 0.10659(8)
H9 H 0.5479 0.5353 0.1101
C13 C 0.65325(13) 0.63150(10) 0.17451(8)
H10 H 0.5903 0.6376 0.2239
N1 N 0.97099(11) 0.71887(9) 0.27214(6)
Si1 Si 1.09099(3) 0.59441(3) 0.27589(2)
C14 C 1.02069(18) 0.45578(13) 0.26726(14)
H11 H 0.9811 0.4566 0.2148
H12 H 0.9485 0.4509 0.3136
H13 H 1.0957 0.3871 0.2689
C15 C 1.16656(17) 0.58497(16) 0.37611(10)
H14 H 1.2164 0.6505 0.3795
H15 H 1.2310 0.5096 0.3793
H16 H 1.0921 0.5899 0.4222
C16 C 1.23570(16) 0.59327(15) 0.19022(10)
H17 H 1.1981 0.6021 0.1368
H18 H 1.3013 0.5182 0.1914
H19 H 1.2836 0.6589 0.1975
P2 P 0.85063(3) 1.01560(2) 0.294621(17)
C17 C 0.84836(13) 0.95157(10) 0.39818(7)
C18 C 0.97345(13) 0.89120(11) 0.42222(8)
H20 H 1.0554 0.8820 0.3840
C19 C 0.97845(15) 0.84461(12) 0.50187(8)
H21 H 1.0638 0.8034 0.5179
C20 C 0.85951(16) 0.85794(12) 0.55794(8)
H22 H 0.8633 0.8260 0.6124
C21 C 0.73491(15) 0.91789(12) 0.53464(8)
H23 H 0.6533 0.9266 0.5731
C22 C 0.72909(13) 0.96532(11) 0.45521(8)
H24 H 0.6437 1.0072 0.4397
C23 C 0.71685(12) 1.14865(10) 0.30574(7)
C24 C 0.76292(13) 1.25563(11) 0.30966(7)
H25 H 0.8587 1.2558 0.3109
C25 C 0.66890(14) 1.36213(11) 0.31183(8)
H26 H 0.7005 1.4348 0.3149
C26 C 0.52938(14) 1.36227(12) 0.30949(8)
H27 H 0.4657 1.4351 0.3097
C27 C 0.48241(14) 1.25633(12) 0.30681(8)
H28 H 0.3864 1.2566 0.3061
C28 C 0.57575(13) 1.14956(11) 0.30520(7)
H29 H 0.5432 1.0771 0.3037
N2 N 0.99288(10) 1.04569(9) 0.26164(6)
Si2 Si 1.12681(3) 1.01626(3) 0.18596(2)
C29 C 1.16035(16) 1.15737(13) 0.13436(10)
H30 H 1.0750 1.2002 0.1146
H31 H 1.2327 1.1395 0.0873
H32 H 1.1909 1.2063 0.1742
C30 C 1.28680(14) 0.94564(14) 0.23194(9)
H33 H 1.2716 0.8718 0.2601
H34 H 1.3082 0.9995 0.2720
H35 H 1.3645 0.9285 0.1878
C31 C 1.09856(14) 0.91571(13) 0.10433(8)
H36 H 1.0168 0.9519 0.0779
H37 H 1.0839 0.8400 0.1297
H38 H 1.1801 0.9024 0.0626
C32 C 0.71829(12) 0.94849(10) 0.16222(7)
H39 H 0.6886 0.8856 0.1371
C33 C 0.68574(12) 1.06313(10) 0.11958(7)
C34 C 0.76534(12) 1.15174(10) 0.11820(7)
H40 H 0.8460 1.1395 0.1460
C35 C 0.72739(13) 1.25731(11) 0.07649(8)
H41 H 0.7816 1.3174 0.0763
C36 C 0.61039(14) 1.27575(11) 0.03499(8)
H42 H 0.5841 1.3487 0.0071
C37 C 0.53201(13) 1.18775(11) 0.03425(8)
H43 H 0.4524 1.2000 0.0055
C38 C 0.57022(13) 1.08167(11) 0.07562(8)
H44 H 0.5174 1.0209 0.0741
loop_
_geom_bond_atom_site_label_1
_geom_bond_atom_site_label_2
_geom_bond_site_symmetry_1
_geom_bond_site_symmetry_2
C1 P1 1_555 1_555
P1 C2 1_555 1_555
C2 C3 1_555 1_555
C3 H1 1_555 1_555
C4 C3 1_555 1_555
H2 C4 1_555 1_555
C5 C4 1_555 1_555
H3 C5 1_555 1_555
C6 C5 1_555 1_555
H4 C6 1_555 1_555
C7 C2 1_555 1_555
H5 C7 1_555 1_555
C8 P1 1_555 1_555
C9 C8 1_555 1_555
H6 C9 1_555 1_555
C10 C9 1_555 1_555
H7 C10 1_555 1_555
C11 C10 1_555 1_555
H8 C11 1_555 1_555
C12 C11 1_555 1_555
H9 C12 1_555 1_555
C13 C8 1_555 1_555
H10 C13 1_555 1_555
N1 P1 1_555 1_555
Si1 N1 1_555 1_555
C14 Si1 1_555 1_555
H11 C14 1_555 1_555
H12 C14 1_555 1_555
H13 C14 1_555 1_555
C15 Si1 1_555 1_555
H14 C15 1_555 1_555
H15 C15 1_555 1_555
H16 C15 1_555 1_555
C16 Si1 1_555 1_555
H17 C16 1_555 1_555
H18 C16 1_555 1_555
H19 C16 1_555 1_555
P2 C1 1_555 1_555
C17 P2 1_555 1_555
C18 C17 1_555 1_555
H20 C18 1_555 1_555
C19 C18 1_555 1_555
H21 C19 1_555 1_555
C20 C19 1_555 1_555
H22 C20 1_555 1_555
C21 C20 1_555 1_555
H23 C21 1_555 1_555
C22 C17 1_555 1_555
H24 C22 1_555 1_555
C23 P2 1_555 1_555
C24 C23 1_555 1_555
H25 C24 1_555 1_555
C25 C24 1_555 1_555
H26 C25 1_555 1_555
C26 C25 1_555 1_555
H27 C26 1_555 1_555
C27 C26 1_555 1_555
H28 C27 1_555 1_555
C28 C23 1_555 1_555
H29 C28 1_555 1_555
N2 P2 1_555 1_555
Si2 N2 1_555 1_555
C29 Si2 1_555 1_555
H30 C29 1_555 1_555
H31 C29 1_555 1_555
H32 C29 1_555 1_555
C30 Si2 1_555 1_555
H33 C30 1_555 1_555
H34 C30 1_555 1_555
H35 C30 1_555 1_555
C31 Si2 1_555 1_555
H36 C31 1_555 1_555
H37 C31 1_555 1_555
H38 C31 1_555 1_555
C32 C1 1_555 1_555
H39 C32 1_555 1_555
C33 C32 1_555 1_555
C34 C33 1_555 1_555
H40 C34 1_555 1_555
C35 C34 1_555 1_555
H41 C35 1_555 1_555
C36 C35 1_555 1_555
H42 C36 1_555 1_555
C37 C36 1_555 1_555
H43 C37 1_555 1_555
C38 C33 1_555 1_555
H44 C38 1_555 1_555
C6 C7 1_555 1_555
C12 C13 1_555 1_555
C21 C22 1_555 1_555
C27 C28 1_555 1_555
C37 C38 1_555 1_555

#END
