
#######################################################################
#
#                 Cambridge Crystallographic Data Centre
#                                CCDC 
#
#######################################################################
#
# If this CIF has been generated from an entry in the Cambridge 
# Structural Database, then it will include bibliographic, chemical, 
# crystal, experimental, refinement or atomic coordinate data resulting 
# from the CCDC's data processing and validation procedures.
#
#######################################################################

data_MEHVUT
_chemical_name_common            Si-Sumanene
_chemical_formula_moiety         'C24 H24 Si3'
_chemical_name_systematic        
1,1,4,4,7,7-hexamethyl-4,7-dihydro-1H-triphenyleno[1,12-bcd:4,5-b'c'd':8,9-b''c''d'']trissilole
_symmetry_cell_setting           monoclinic
_symmetry_space_group_name_H-M   'P 21/c'
_symmetry_Int_Tables_number      14
_space_group_name_Hall           '-P 2ybc'
loop_
_symmetry_equiv_pos_site_id
_symmetry_equiv_pos_as_xyz
1 x,y,z
2 -x,1/2+y,1/2-z
3 -x,-y,-z
4 x,1/2-y,1/2+z
_cell_length_a                   12.0400(14)
_cell_length_b                   20.685(2)
_cell_length_c                   18.893(2)
_cell_angle_alpha                90
_cell_angle_beta                 93.345(2)
_cell_angle_gamma                90
_cell_volume                     4697.24
_exptl_crystal_colour            colorless
_exptl_crystal_description       block
_cell_formula_units_Z            8
_exptl_crystal_recrystallization_method hexane
_exptl_crystal_preparation       ', Luminescent,Luminescent'
loop_
_atom_site_label
_atom_site_type_symbol
_atom_site_fract_x
_atom_site_fract_y
_atom_site_fract_z
C1 C -0.1104(3) 0.45540(18) 0.7580(2)
H1 H -0.0747 0.4915 0.7779
C2 C -0.1981(3) 0.46427(19) 0.7059(2)
H2 H -0.2194 0.5062 0.6936
C3 C -0.2540(3) 0.41277(18) 0.6724(2)
C4 C -0.2176(3) 0.35096(17) 0.69502(18)
C5 C -0.1334(3) 0.34197(16) 0.74735(17)
C6 C -0.0760(3) 0.39407(18) 0.78061(18)
C7 C -0.0983(3) 0.27707(16) 0.76700(17)
C8 C -0.1472(3) 0.22412(16) 0.73385(17)
C9 C -0.2363(3) 0.23334(17) 0.67945(18)
C10 C -0.2707(3) 0.29530(17) 0.66101(18)
C11 C -0.3551(3) 0.3072(2) 0.6076(2)
C12 C -0.4019(3) 0.2527(2) 0.5761(2)
H3 H -0.4595 0.2578 0.5415
C13 C -0.3665(3) 0.1896(2) 0.5940(2)
H4 H -0.3999 0.1546 0.5702
C14 C -0.2822(3) 0.17825(18) 0.6466(2)
C15 C -0.1132(3) 0.16029(16) 0.74922(18)
C16 C -0.0263(3) 0.15421(18) 0.80060(19)
H5 H -0.0003 0.1131 0.8127
C17 C 0.0237(3) 0.20791(19) 0.83481(19)
H6 H 0.0812 0.2013 0.8691
C18 C 0.1767(4) 0.3748(2) 0.8263(3)
H7 H 0.2269 0.3545 0.8609
H8 H 0.1878 0.4208 0.8277
H9 H 0.1908 0.3589 0.7800
C19 C 0.0058(5) 0.3729(2) 0.9407(2)
H10 H 0.0626 0.3526 0.9708
H11 H -0.0656 0.3561 0.9513
H12 H 0.0072 0.4188 0.9487
C20 C -0.0102(3) 0.27075(17) 0.81885(18)
C21 C -0.3528(4) 0.4305(2) 0.5129(3)
H13 H -0.4168 0.4205 0.4822
H14 H -0.2879 0.4112 0.4946
H15 H -0.3432 0.4766 0.5155
C22 C -0.5090(4) 0.4256(3) 0.6350(4)
H16 H -0.5669 0.4173 0.5990
H17 H -0.5056 0.4712 0.6448
H18 H -0.5246 0.4026 0.6774
C23 C -0.2869(4) 0.0472(2) 0.7349(3)
H19 H -0.2397 0.0130 0.7534
H20 H -0.3433 0.0296 0.7025
H21 H -0.3213 0.0683 0.7732
C24 C -0.1190(4) 0.0658(2) 0.6211(2)
H22 H -0.0794 0.0301 0.6431
H23 H -0.0669 0.0958 0.6029
H24 H -0.1678 0.0501 0.5829
Si1 Si 0.03156(9) 0.35609(5) 0.84632(6)
Si2 Si -0.37292(9) 0.39797(6) 0.60335(7)
Si3 Si -0.20197(9) 0.10697(5) 0.68741(6)
C25 C 0.2353(3) 0.35300(19) 0.10148(19)
C26 C 0.1582(3) 0.3294(2) 0.1473(2)
H25 H 0.1342 0.3562 0.1829
C27 C 0.1156(3) 0.2663(2) 0.1413(2)
H26 H 0.0641 0.2531 0.1731
C28 C 0.1469(3) 0.2226(2) 0.0898(2)
C29 C 0.2255(3) 0.24686(17) 0.04385(18)
C30 C 0.2672(3) 0.30913(17) 0.04991(17)
C31 C 0.3453(3) 0.33182(16) 0.00001(17)
C32 C 0.3792(3) 0.29091(15) -0.05265(17)
C33 C 0.3375(3) 0.22578(15) -0.05832(17)
C34 C 0.2609(3) 0.20397(16) -0.01087(17)
C35 C 0.2145(3) 0.14190(17) -0.0155(2)
C36 C 0.2505(3) 0.10279(19) -0.0692(2)
H27 H 0.2216 0.0613 -0.0746
C37 C 0.3305(4) 0.12465(18) -0.1164(2)
H28 H 0.3536 0.0965 -0.1510
C38 C 0.3755(3) 0.18675(17) -0.11253(19)
C39 C 0.4540(3) 0.31121(17) -0.10324(19)
C40 C 0.4908(3) 0.37469(17) -0.0967(2)
H29 H 0.5403 0.3903 -0.1286
C41 C 0.4556(3) 0.41613(18) -0.0433(2)
H30 H 0.4818 0.4584 -0.0416
C42 C 0.3831(3) 0.39609(17) 0.00683(18)
C43 C 0.4152(4) 0.4468(2) 0.1633(2)
H31 H 0.3761 0.4637 0.2021
H32 H 0.4690 0.4778 0.1494
H33 H 0.4524 0.4075 0.1778
C44 C 0.2263(4) 0.5016(2) 0.0660(2)
H34 H 0.1944 0.5169 0.1083
H35 H 0.1679 0.4899 0.0317
H36 H 0.2708 0.5352 0.0470
C45 C -0.0346(4) 0.1314(3) 0.0206(3)
H37 H -0.0486 0.0880 0.0045
H38 H -0.0466 0.1608 -0.0185
H39 H -0.0841 0.1420 0.0569
C46 C 0.1442(5) 0.0725(3) 0.1224(3)
H40 H 0.1238 0.0315 0.1016
H41 H 0.1032 0.0794 0.1638
H42 H 0.2224 0.0727 0.1354
C47 C 0.6232(4) 0.2087(3) -0.1483(3)
H43 H 0.6333 0.1717 -0.1779
H44 H 0.6382 0.1969 -0.0996
H45 H 0.6733 0.2424 -0.1608
C48 C 0.4340(5) 0.2507(2) -0.2559(2)
H46 H 0.4474 0.2120 -0.2820
H47 H 0.4762 0.2856 -0.2743
H48 H 0.3562 0.2611 -0.2605
Si4 Si 0.11132(10) 0.13823(6) 0.05685(6)
Si5 Si 0.31489(9) 0.42993(5) 0.08744(5)
Si6 Si 0.47649(10) 0.23817(5) -0.16142(6)
loop_
_geom_bond_atom_site_label_1
_geom_bond_atom_site_label_2
_geom_bond_site_symmetry_1
_geom_bond_site_symmetry_2
C1 H1 1_555 1_555
C2 C1 1_555 1_555
H2 C2 1_555 1_555
C3 C2 1_555 1_555
C4 C3 1_555 1_555
C5 C4 1_555 1_555
C6 C1 1_555 1_555
C7 C5 1_555 1_555
C8 C7 1_555 1_555
C9 C8 1_555 1_555
C10 C4 1_555 1_555
C11 C10 1_555 1_555
C12 C11 1_555 1_555
H3 C12 1_555 1_555
C13 C12 1_555 1_555
H4 C13 1_555 1_555
C14 C9 1_555 1_555
C15 C8 1_555 1_555
C16 C15 1_555 1_555
H5 C16 1_555 1_555
C17 C16 1_555 1_555
H6 C17 1_555 1_555
C18 H7 1_555 1_555
H8 C18 1_555 1_555
H9 C18 1_555 1_555
C19 H10 1_555 1_555
H11 C19 1_555 1_555
H12 C19 1_555 1_555
C20 C7 1_555 1_555
C21 H13 1_555 1_555
H14 C21 1_555 1_555
H15 C21 1_555 1_555
C22 H16 1_555 1_555
H17 C22 1_555 1_555
H18 C22 1_555 1_555
C23 H19 1_555 1_555
H20 C23 1_555 1_555
H21 C23 1_555 1_555
C24 H22 1_555 1_555
H23 C24 1_555 1_555
H24 C24 1_555 1_555
Si1 C6 1_555 1_555
Si2 C3 1_555 1_555
Si3 C14 1_555 1_555
C25 C26 1_555 1_555
C26 H25 1_555 1_555
C27 C26 1_555 1_555
H26 C27 1_555 1_555
C28 C27 1_555 1_555
C29 C28 1_555 1_555
C30 C25 1_555 1_555
C31 C30 1_555 1_555
C32 C31 1_555 1_555
C33 C32 1_555 1_555
C34 C29 1_555 1_555
C35 C34 1_555 1_555
C36 C35 1_555 1_555
H27 C36 1_555 1_555
C37 C36 1_555 1_555
H28 C37 1_555 1_555
C38 C33 1_555 1_555
C39 C32 1_555 1_555
C40 C39 1_555 1_555
H29 C40 1_555 1_555
C41 C40 1_555 1_555
H30 C41 1_555 1_555
C42 C31 1_555 1_555
C43 H31 1_555 1_555
H32 C43 1_555 1_555
H33 C43 1_555 1_555
C44 H34 1_555 1_555
H35 C44 1_555 1_555
H36 C44 1_555 1_555
C45 H37 1_555 1_555
H38 C45 1_555 1_555
H39 C45 1_555 1_555
C46 H40 1_555 1_555
H41 C46 1_555 1_555
H42 C46 1_555 1_555
C47 H43 1_555 1_555
H44 C47 1_555 1_555
H45 C47 1_555 1_555
C48 H46 1_555 1_555
H47 C48 1_555 1_555
H48 C48 1_555 1_555
Si4 C28 1_555 1_555
Si5 C25 1_555 1_555
Si6 C38 1_555 1_555
C5 C6 1_555 1_555
C9 C10 1_555 1_555
C11 Si2 1_555 1_555
C13 C14 1_555 1_555
C15 Si3 1_555 1_555
C17 C20 1_555 1_555
C18 Si1 1_555 1_555
C19 Si1 1_555 1_555
C20 Si1 1_555 1_555
C21 Si2 1_555 1_555
C22 Si2 1_555 1_555
C23 Si3 1_555 1_555
C24 Si3 1_555 1_555
C29 C30 1_555 1_555
C33 C34 1_555 1_555
C35 Si4 1_555 1_555
C37 C38 1_555 1_555
C39 Si6 1_555 1_555
C41 C42 1_555 1_555
C42 Si5 1_555 1_555
C43 Si5 1_555 1_555
C44 Si5 1_555 1_555
C45 Si4 1_555 1_555
C46 Si4 1_555 1_555
C47 Si6 1_555 1_555
C48 Si6 1_555 1_555

#END
