
#######################################################################
#
#                 Cambridge Crystallographic Data Centre
#                                CCDC 
#
#######################################################################
#
# If this CIF has been generated from an entry in the Cambridge 
# Structural Database, then it will include bibliographic, chemical, 
# crystal, experimental, refinement or atomic coordinate data resulting 
# from the CCDC's data processing and validation procedures.
#
#######################################################################

data_MEHXOO
_chemical_formula_moiety         'C41 H37 N5 O8'
_chemical_name_systematic        
"Tetramethyl 3,3'-pyridine-2,6-diylbis(4-methyl-1-(pyridin-2-yl)-5,7-dihydro-6H-cyclopenta[c]pyridine-6,6-dicarboxylate)"
_symmetry_cell_setting           triclinic
_symmetry_space_group_name_H-M   'P -1'
_symmetry_Int_Tables_number      2
_space_group_name_Hall           '-P 1'
loop_
_symmetry_equiv_pos_site_id
_symmetry_equiv_pos_as_xyz
1 x,y,z
2 -x,-y,-z
_cell_length_a                   10.9994(13)
_cell_length_b                   11.0376(13)
_cell_length_c                   15.942(3)
_cell_angle_alpha                94.613(2)
_cell_angle_beta                 93.838(2)
_cell_angle_gamma                114.6410(10)
_cell_volume                     1742.71
_exptl_crystal_colour            white
_exptl_crystal_description       block
_cell_formula_units_Z            2
_exptl_crystal_recrystallization_method dichloromethane/hexane
loop_
_atom_site_label
_atom_site_type_symbol
_atom_site_fract_x
_atom_site_fract_y
_atom_site_fract_z
O1 O 0.5593(3) 0.6149(3) 0.37175(18)
N1 N 0.9984(3) 1.2441(3) 0.5247(2)
O2 O 0.6622(3) 0.5937(3) 0.49163(19)
N2 N 1.1222(3) 1.3117(3) 0.7406(2)
O3 O 0.4317(3) 0.7276(3) 0.51149(19)
N3 N 1.2408(3) 1.4607(3) 0.9498(2)
O4 O 0.4826(3) 0.8768(3) 0.4178(2)
O5 O 1.4333(3) 1.1000(3) 1.20511(19)
C1 C 0.9289(4) 1.1492(4) 0.4591(2)
C2 C 1.2713(4) 1.5267(4) 1.0998(3)
C3 C 0.9607(4) 1.1873(4) 0.3748(2)
O6 O 1.5767(3) 1.1268(3) 1.1071(2)
C4 C 1.2872(4) 1.4444(4) 1.0260(3)
C5 C 1.1925(4) 1.4172(4) 0.8003(3)
C6 C 0.9853(4) 1.2161(4) 0.6052(3)
C7 C 1.0677(4) 1.3346(4) 0.6701(3)
C8 C 0.8215(3) 0.9970(4) 0.5589(2)
C9 C 1.3504(4) 1.2784(4) 0.9622(3)
C10 C 0.8365(4) 1.0223(4) 0.4751(3)
C11 C 0.8984(4) 1.0915(4) 0.6275(3)
C12 C 0.8815(4) 1.0559(4) 0.7155(3)
H1 H 0.9488 1.0242 0.7338
H2 H 0.7911 0.9848 0.7170
H3 H 0.8934 1.1353 0.7535
C13 C 0.5132(4) 0.8094(4) 0.4629(3)
C14 C 0.9065(4) 1.1417(4) 0.2304(3)
H4 H 0.8466 1.0871 0.1828
C15 C 0.7462(4) 0.8998(4) 0.4149(3)
H5 H 0.7991 0.8577 0.3870
H6 H 0.6945 0.9233 0.3709
C16 C 1.3799(4) 1.1698(4) 1.0775(3)
C17 C 0.6260(4) 0.6596(4) 0.4485(3)
C18 C 1.2481(4) 1.3882(4) 0.8803(2)
C19 C 1.0830(4) 1.4626(4) 0.6534(3)
H7 H 1.0456 1.4762 0.6014
C20 C 1.1064(4) 1.3321(4) 0.2846(3)
H8 H 1.1858 1.4080 0.2767
C21 C 1.3419(4) 1.3523(4) 1.0348(2)
C22 C 1.4110(4) 1.1844(4) 0.9860(3)
H9 H 1.5091 1.2240 0.9822
H10 H 1.3677 1.0971 0.9498
C23 C 1.1558(4) 1.5700(4) 0.7165(3)
H11 H 1.1682 1.6585 0.7083
C24 C 1.3044(4) 1.2948(4) 0.8819(3)
C25 C 0.6506(4) 0.8046(4) 0.4730(3)
C26 C 1.1477(4) 1.6358(4) 1.1654(3)
H12 H 1.0709 1.6545 1.1664
C27 C 1.3525(4) 1.6482(4) 1.2301(3)
H13 H 1.4198 1.6804 1.2772
C28 C 1.3152(4) 1.2161(4) 0.8036(3)
H14 H 1.3756 1.1741 0.8176
H15 H 1.3511 1.2766 0.7606
H16 H 1.2259 1.1465 0.7816
C29 C 1.2471(4) 1.6845(4) 1.2315(3)
H17 H 1.2437 1.7425 1.2778
C30 C 1.3907(4) 1.3095(4) 1.1117(3)
H18 H 1.3327 1.3031 1.1576
H19 H 1.4847 1.3720 1.1328
C31 C 1.2092(4) 1.5456(4) 0.7908(3)
H20 H 1.2569 1.6169 0.8348
C32 C 1.0207(4) 1.2504(4) 0.2161(3)
H21 H 1.0398 1.2686 0.1600
C33 C 0.5289(4) 0.4766(4) 0.3409(3)
H22 H 0.6121 0.4640 0.3441
H23 H 0.4881 0.4565 0.2819
H24 H 0.4659 0.4161 0.3758
C34 C 1.4746(4) 1.1282(4) 1.1299(3)
C35 C 0.7179(4) 0.8564(4) 0.5643(3)
H25 H 0.6514 0.8572 0.6029
H26 H 0.7611 0.7999 0.5847
C36 C 1.5151(5) 1.0582(5) 1.2602(3)
H27 H 1.5226 0.9802 1.2314
H28 H 1.4730 1.0342 1.3123
H29 H 1.6050 1.1320 1.2742
C37 C 0.2952(4) 0.7169(6) 0.5059(4)
H30 H 0.2967 0.8032 0.5276
H31 H 0.2412 0.6474 0.5396
H32 H 0.2556 0.6930 0.4466
C38 C 1.2342(4) 1.0653(4) 1.0779(3)
O7 O 1.1440(3) 1.0897(3) 1.1001(2)
O8 O 1.2189(3) 0.9442(3) 1.0447(2)
C39 C 1.0802(4) 0.8421(5) 1.0305(3)
H33 H 1.0413 0.8307 1.0845
H34 H 1.0786 0.7568 1.0065
H35 H 1.0276 0.8703 0.9911
N4 N 1.3654(3) 1.5694(3) 1.1655(2)
N5 N 0.8754(3) 1.1089(3) 0.3075(2)
C40 C 1.1610(4) 1.5585(4) 1.0968(3)
H36 H 1.0960 1.5276 1.0485
C41 C 1.0754(4) 1.3022(4) 0.3652(3)
H37 H 1.1315 1.3591 0.4134
loop_
_geom_bond_atom_site_label_1
_geom_bond_atom_site_label_2
_geom_bond_site_symmetry_1
_geom_bond_site_symmetry_2
O1 C17 1_555 1_555
N1 C1 1_555 1_555
O2 C17 1_555 1_555
N2 C5 1_555 1_555
O3 C13 1_555 1_555
N3 C4 1_555 1_555
O4 C13 1_555 1_555
O5 C34 1_555 1_555
C1 C3 1_555 1_555
C2 C4 1_555 1_555
C3 N5 1_555 1_555
O6 C34 1_555 1_555
C4 C21 1_555 1_555
C5 C18 1_555 1_555
C6 N1 1_555 1_555
C7 N2 1_555 1_555
C8 C10 1_555 1_555
C9 C21 1_555 1_555
C10 C1 1_555 1_555
C11 C6 1_555 1_555
C12 C11 1_555 1_555
H1 C12 1_555 1_555
H2 C12 1_555 1_555
H3 C12 1_555 1_555
C13 C25 1_555 1_555
C14 H4 1_555 1_555
C15 C10 1_555 1_555
H5 C15 1_555 1_555
H6 C15 1_555 1_555
C16 C22 1_555 1_555
C17 C25 1_555 1_555
C18 N3 1_555 1_555
C19 C7 1_555 1_555
H7 C19 1_555 1_555
C20 H8 1_555 1_555
C21 C30 1_555 1_555
C22 C9 1_555 1_555
H9 C22 1_555 1_555
H10 C22 1_555 1_555
C23 C19 1_555 1_555
H11 C23 1_555 1_555
C24 C9 1_555 1_555
C25 C15 1_555 1_555
C26 H12 1_555 1_555
C27 H13 1_555 1_555
C28 C24 1_555 1_555
H14 C28 1_555 1_555
H15 C28 1_555 1_555
H16 C28 1_555 1_555
C29 C26 1_555 1_555
H17 C29 1_555 1_555
C30 C16 1_555 1_555
H18 C30 1_555 1_555
H19 C30 1_555 1_555
C31 C5 1_555 1_555
H20 C31 1_555 1_555
C32 C14 1_555 1_555
H21 C32 1_555 1_555
C33 O1 1_555 1_555
H22 C33 1_555 1_555
H23 C33 1_555 1_555
H24 C33 1_555 1_555
C34 C16 1_555 1_555
C35 C8 1_555 1_555
H25 C35 1_555 1_555
H26 C35 1_555 1_555
C36 O5 1_555 1_555
H27 C36 1_555 1_555
H28 C36 1_555 1_555
H29 C36 1_555 1_555
C37 O3 1_555 1_555
H30 C37 1_555 1_555
H31 C37 1_555 1_555
H32 C37 1_555 1_555
C38 C16 1_555 1_555
O7 C38 1_555 1_555
O8 C38 1_555 1_555
C39 O8 1_555 1_555
H33 C39 1_555 1_555
H34 C39 1_555 1_555
H35 C39 1_555 1_555
N4 C2 1_555 1_555
N5 C14 1_555 1_555
C40 C2 1_555 1_555
H36 C40 1_555 1_555
C41 C3 1_555 1_555
H37 C41 1_555 1_555
C6 C7 1_555 1_555
C8 C11 1_555 1_555
C18 C24 1_555 1_555
C20 C32 1_555 1_555
C20 C41 1_555 1_555
C23 C31 1_555 1_555
C25 C35 1_555 1_555
C26 C40 1_555 1_555
C27 C29 1_555 1_555
C27 N4 1_555 1_555

#END
