
#######################################################################
#
#                 Cambridge Crystallographic Data Centre
#                                CCDC 
#
#######################################################################
#
# If this CIF has been generated from an entry in the Cambridge 
# Structural Database, then it will include bibliographic, chemical, 
# crystal, experimental, refinement or atomic coordinate data resulting 
# from the CCDC's data processing and validation procedures.
#
#######################################################################

data_MEJFUE
_chemical_formula_moiety         'C18 H28 B2 O4'
_chemical_name_systematic        
2,2'-(1,2-Phenylene)bis(4,4,5,5-tetramethyl-1,3,2-dioxaborolane)
_symmetry_cell_setting           monoclinic
_symmetry_space_group_name_H-M   'C 2/c'
_symmetry_Int_Tables_number      15
_space_group_name_Hall           '-C 2yn'
loop_
_symmetry_equiv_pos_site_id
_symmetry_equiv_pos_as_xyz
1 x,y,z
2 -x,y,1/2-z
3 1/2+x,1/2+y,z
4 1/2-x,1/2+y,1/2-z
5 -x,-y,-z
6 x,-y,1/2+z
7 1/2-x,1/2-y,-z
8 1/2+x,1/2-y,1/2+z
_cell_length_a                   27.935(3)
_cell_length_b                   13.9229(10)
_cell_length_c                   20.423(2)
_cell_angle_alpha                90
_cell_angle_beta                 132.504(6)
_cell_angle_gamma                90
_cell_volume                     5856
_exptl_crystal_colour            colorless
_exptl_crystal_description       block
_cell_formula_units_Z            12
loop_
_atom_site_label
_atom_site_type_symbol
_atom_site_fract_x
_atom_site_fract_y
_atom_site_fract_z
C1 C 0.24704(18) 0.2692(2) 0.3535(2)
C2 C 0.19874(18) 0.2870(3) 0.2613(2)
C3 C 0.1461(2) 0.3439(3) 0.2304(3)
H1 H 0.1139 0.3583 0.1688
C4 C 0.1392(2) 0.3802(3) 0.2871(3)
H2 H 0.1024 0.4181 0.2639
C5 C 0.1859(2) 0.3614(3) 0.3772(3)
H3 H 0.1812 0.3854 0.4162
C6 C 0.2392(2) 0.3074(3) 0.4095(3)
H4 H 0.2717 0.2955 0.4716
B1 B 0.3118(2) 0.2127(3) 0.3994(3)
O1 O 0.34336(16) 0.1658(3) 0.4773(2)
C7 C 0.3990(2) 0.1187(4) 0.5003(4)
C8 C 0.4066(2) 0.1672(5) 0.4411(3)
O2 O 0.34375(15) 0.2106(3) 0.3711(2)
C9 C 0.3707(7) 0.0141(9) 0.4443(11)
H5 H 0.3320 0.0263 0.3818
H6 H 0.3592 -0.0285 0.4701
H7 H 0.4042 -0.0164 0.4483
C10 C 0.4526(6) 0.1026(11) 0.5896(8)
H8 H 0.4387 0.0706 0.6171
H9 H 0.4731 0.1641 0.6194
H10 H 0.4838 0.0617 0.5954
C11 C 0.4368(6) 0.1309(9) 0.4106(8)
H11 H 0.4333 0.1789 0.3725
H12 H 0.4149 0.0717 0.3768
H13 H 0.4826 0.1173 0.4618
C12 C 0.4511(5) 0.2649(7) 0.4949(7)
H14 H 0.4370 0.2963 0.5223
H15 H 0.4457 0.3092 0.4529
H16 H 0.4970 0.2468 0.5410
B2 B 0.1976(2) 0.2407(3) 0.1904(3)
O3 O 0.17849(16) 0.2900(2) 0.11827(19)
C13 C 0.1647(2) 0.2187(3) 0.0543(3)
C14 C 0.2051(2) 0.1306(3) 0.1152(3)
O4 O 0.20832(15) 0.1462(2) 0.18923(19)
C15 C 0.0921(2) 0.2014(5) -0.0107(3)
H17 H 0.0801 0.1751 0.0210
H18 H 0.0801 0.1558 -0.0563
H19 H 0.0693 0.2623 -0.0390
C16 C 0.1859(3) 0.2592(4) 0.0085(3)
H20 H 0.2330 0.2701 0.0524
H21 H 0.1635 0.3202 -0.0201
H22 H 0.1750 0.2137 -0.0364
C17 C 0.1748(3) 0.0337(4) 0.0752(4)
H23 H 0.1301 0.0336 0.0504
H24 H 0.1999 -0.0158 0.1213
H25 H 0.1746 0.0202 0.0279
C18 C 0.2744(3) 0.1308(4) 0.1538(4)
H26 H 0.2939 0.1940 0.1794
H27 H 0.2743 0.1169 0.1066
H28 H 0.2997 0.0817 0.2002
C19 C 0.47137(18) 0.2827(3) 0.2421(2)
C20 C 0.4434(2) 0.1944(3) 0.2332(3)
H29 H 0.4042 0.1937 0.2214
C21 C 0.4717(2) 0.1082(3) 0.2412(4)
H30 H 0.4517 0.0492 0.2346
B3 B 0.4371(2) 0.3750(3) 0.2370(3)
O6 O 0.4598(3) 0.4590(5) 0.2655(5)
C22 C 0.4180(3) 0.5166(4) 0.2696(5)
C23 C 0.3549(3) 0.4673(5) 0.2026(4)
O8 O 0.3706(3) 0.3653(4) 0.1987(4)
C28 C 0.4444(7) 0.5134(11) 0.3677(9)
H43 H 0.4439 0.4469 0.3831
H44 H 0.4164 0.5530 0.3699
H45 H 0.4888 0.5382 0.4101
C29 C 0.4182(7) 0.6158(10) 0.2465(10)
H46 H 0.4611 0.6443 0.2937
H47 H 0.3853 0.6528 0.2399
H48 H 0.4083 0.6170 0.1905
C30 C 0.3012(8) 0.4992(12) 0.1084(11)
H49 H 0.2645 0.4546 0.0783
H50 H 0.3168 0.5000 0.0775
H51 H 0.2871 0.5639 0.1079
C31 C 0.3124(7) 0.4517(9) 0.2274(9)
H52 H 0.2719 0.4189 0.1783
H53 H 0.3023 0.5142 0.2378
H54 H 0.3367 0.4125 0.2813
C19A C 0.52863(18) 0.2827(3) 0.2579(2)
C20A C 0.5566(2) 0.1944(3) 0.2668(3)
H29A H 0.5958 0.1937 0.2786
C21A C 0.5283(2) 0.1082(3) 0.2588(4)
H30A H 0.5483 0.0492 0.2654
B3A B 0.5629(2) 0.3750(3) 0.2630(3)
O6A O 0.5402(3) 0.4590(5) 0.2345(5)
C22A C 0.5820(3) 0.5166(4) 0.2304(5)
C23A C 0.6451(3) 0.4673(5) 0.2974(4)
O8A O 0.6294(3) 0.3653(4) 0.3013(4)
C28A C 0.5556(7) 0.5134(11) 0.1323(9)
H43A H 0.5561 0.4469 0.1169
H44A H 0.5836 0.5530 0.1301
H45A H 0.5112 0.5382 0.0899
C29A C 0.5818(7) 0.6158(10) 0.2535(10)
H46A H 0.5389 0.6443 0.2063
H47A H 0.6147 0.6528 0.2601
H48A H 0.5917 0.6170 0.3095
C30A C 0.6988(8) 0.4992(12) 0.3916(11)
H49A H 0.7355 0.4546 0.4217
H50A H 0.6832 0.5000 0.4225
H51A H 0.7129 0.5639 0.3921
C31A C 0.6876(7) 0.4517(9) 0.2726(9)
H52A H 0.7281 0.4189 0.3217
H53A H 0.6977 0.5142 0.2622
H54A H 0.6633 0.4125 0.2187
O5? O 0.4697(4) 0.4438(5) 0.3059(6)
O7? O 0.3782(4) 0.4018(6) 0.1694(6)
C24? C 0.4361(7) 0.5707(12) 0.3457(10)
H31? H 0.4799 0.5971 0.3809
H32? H 0.4352 0.5277 0.3829
H33? H 0.4053 0.6234 0.3239
C25? C 0.4171(11) 0.6003(16) 0.1986(16)
H34? H 0.4047 0.5654 0.1474
H35? H 0.4604 0.6281 0.2329
H36? H 0.3857 0.6517 0.1779
C26? C 0.3086(10) 0.5316(15) 0.1180(13)
H37? H 0.2670 0.4986 0.0736
H38? H 0.3284 0.5438 0.0935
H39? H 0.3014 0.5928 0.1339
C27? C 0.3391(9) 0.4306(13) 0.2559(12)
H40? H 0.2976 0.3963 0.2166
H41? H 0.3361 0.4850 0.2835
H42? H 0.3735 0.3869 0.3023
C32? C 0.3818(7) 0.0152(10) 0.4898(11)
C33? C 0.4584(9) 0.1429(17) 0.6033(13)
C34? C 0.4158(10) 0.0832(16) 0.3941(13)
C35? C 0.4570(12) 0.2131(19) 0.4661(17)
H55? H 0.3793 -0.0028 0.5338
H56? H 0.4152 -0.0236 0.4989
H57? H 0.3397 0.0039 0.4299
H58? H 0.4694 0.2112 0.6098
H59? H 0.4962 0.1040 0.6260
H60? H 0.4459 0.1284 0.6370
H61? H 0.3841 0.0319 0.3724
H62? H 0.4599 0.0568 0.4376
H63? H 0.4090 0.1107 0.3442
H64? H 0.4503 0.2302 0.4138
H65? H 0.4955 0.1721 0.5056
H66? H 0.4633 0.2717 0.4978
loop_
_geom_bond_atom_site_label_1
_geom_bond_atom_site_label_2
_geom_bond_site_symmetry_1
_geom_bond_site_symmetry_2
C1 C2 1_555 1_555
C2 C3 1_555 1_555
C3 H1 1_555 1_555
C4 C3 1_555 1_555
H2 C4 1_555 1_555
C5 C4 1_555 1_555
H3 C5 1_555 1_555
C6 C1 1_555 1_555
H4 C6 1_555 1_555
B1 C1 1_555 1_555
O1 B1 1_555 1_555
C7 O1 1_555 1_555
C8 C7 1_555 1_555
O2 B1 1_555 1_555
C9 C7 1_555 1_555
H5 C9 1_555 1_555
H6 C9 1_555 1_555
H7 C9 1_555 1_555
C10 C7 1_555 1_555
H8 C10 1_555 1_555
H9 C10 1_555 1_555
H10 C10 1_555 1_555
C11 C8 1_555 1_555
H11 C11 1_555 1_555
H12 C11 1_555 1_555
H13 C11 1_555 1_555
C12 C8 1_555 1_555
H14 C12 1_555 1_555
H15 C12 1_555 1_555
H16 C12 1_555 1_555
B2 C2 1_555 1_555
O3 B2 1_555 1_555
C13 O3 1_555 1_555
C14 C13 1_555 1_555
O4 B2 1_555 1_555
C15 C13 1_555 1_555
H17 C15 1_555 1_555
H18 C15 1_555 1_555
H19 C15 1_555 1_555
C16 C13 1_555 1_555
H20 C16 1_555 1_555
H21 C16 1_555 1_555
H22 C16 1_555 1_555
C17 C14 1_555 1_555
H23 C17 1_555 1_555
H24 C17 1_555 1_555
H25 C17 1_555 1_555
C18 C14 1_555 1_555
H26 C18 1_555 1_555
H27 C18 1_555 1_555
H28 C18 1_555 1_555
C19 C20 1_555 1_555
C20 H29 1_555 1_555
C21 C20 1_555 1_555
H30 C21 1_555 1_555
B3 C19 1_555 1_555
O6 B3 1_555 1_555
C22 O6 1_555 1_555
C23 C22 1_555 1_555
O8 B3 1_555 1_555
C28 C22 1_555 1_555
H43 C28 1_555 1_555
H44 C28 1_555 1_555
H45 C28 1_555 1_555
C29 C22 1_555 1_555
H46 C29 1_555 1_555
H47 C29 1_555 1_555
H48 C29 1_555 1_555
C30 C23 1_555 1_555
H49 C30 1_555 1_555
H50 C30 1_555 1_555
H51 C30 1_555 1_555
C31 C23 1_555 1_555
H52 C31 1_555 1_555
H53 C31 1_555 1_555
H54 C31 1_555 1_555
C19A C19 1_555 1_555
C20A C19A 1_555 1_555
H29A C20A 1_555 1_555
C21A C21 1_555 1_555
H30A C21A 1_555 1_555
B3A C19A 1_555 1_555
O6A B3A 1_555 1_555
C22A O6A 1_555 1_555
C23A C22A 1_555 1_555
O8A B3A 1_555 1_555
C28A C22A 1_555 1_555
H43A C28A 1_555 1_555
H44A C28A 1_555 1_555
H45A C28A 1_555 1_555
C29A C22A 1_555 1_555
H46A C29A 1_555 1_555
H47A C29A 1_555 1_555
H48A C29A 1_555 1_555
C30A C23A 1_555 1_555
H49A C30A 1_555 1_555
H50A C30A 1_555 1_555
H51A C30A 1_555 1_555
C31A C23A 1_555 1_555
H52A C31A 1_555 1_555
H53A C31A 1_555 1_555
H54A C31A 1_555 1_555
C5 C6 1_555 1_555
C8 O2 1_555 1_555
C14 O4 1_555 1_555
C23 O8 1_555 1_555
C20A C21A 1_555 1_555
C23A O8A 1_555 1_555

#END
