
#######################################################################
#
#                 Cambridge Crystallographic Data Centre
#                                CCDC 
#
#######################################################################
#
# If this CIF has been generated from an entry in the Cambridge 
# Structural Database, then it will include bibliographic, chemical, 
# crystal, experimental, refinement or atomic coordinate data resulting 
# from the CCDC's data processing and validation procedures.
#
#######################################################################

data_MEJGAK
_chemical_formula_moiety         'C36 H36 N3 O4 P1'
_chemical_name_systematic        
(S,S,R,R)-(N,N-dimethyl-5,17-dibenzoyl-1,2,3,4,4a,5,5a,16b,17,17a-decahydrodibenzo(4,5:8,9)(1,3,2)dioxaphosphonino(6,7-b)quinoxalin-11-amine)
_symmetry_cell_setting           tetragonal
_symmetry_space_group_name_H-M   'P 43 21 2'
_symmetry_Int_Tables_number      96
_space_group_name_Hall           'P 4nw 2abw'
loop_
_symmetry_equiv_pos_site_id
_symmetry_equiv_pos_as_xyz
1 x,y,z
2 -x,-y,1/2+z
3 1/2-y,1/2+x,3/4+z
4 1/2+y,1/2-x,1/4+z
5 1/2-x,1/2+y,3/4-z
6 1/2+x,1/2-y,1/4-z
7 y,x,-z
8 -y,-x,1/2-z
_cell_length_a                   10.0918(7)
_cell_length_b                   10.0918(7)
_cell_length_c                   31.024(3)
_cell_angle_alpha                90
_cell_angle_beta                 90
_cell_angle_gamma                90
_cell_volume                     3159.62
_exptl_crystal_colour            colorless
_cell_formula_units_Z            4
loop_
_atom_site_label
_atom_site_type_symbol
_atom_site_fract_x
_atom_site_fract_y
_atom_site_fract_z
P1 P 0.61841(15) 0.66902(15) 0.01548(5)
O1 O 0.08860(18) 0.49702(19) 0.05496(7)
O2 O 0.6776(2) 0.5410(2) 0.02542(9)
N1 N 0.28592(19) 0.4006(2) 0.03892(6)
N2 N 0.7560(2) 0.7560(2) 0.0000
C1 C 0.4209(2) 0.4344(3) 0.02463(8)
C2 C 0.5345(2) 0.3644(2) 0.04726(8)
C3 C 0.5222(3) 0.2466(3) 0.06957(9)
H1 H 0.4397 0.2064 0.0720
C4 C 0.6324(3) 0.1879(3) 0.08844(10)
H2 H 0.6233 0.1088 0.1035
C5 C 0.7538(3) 0.2463(3) 0.08485(10)
H3 H 0.8280 0.2054 0.0967
C6 C 0.7664(3) 0.3644(3) 0.06397(10)
H4 H 0.8489 0.4053 0.0624
C7 C 0.6582(3) 0.4233(3) 0.04536(9)
C8 C 0.2122(3) 0.2985(3) 0.01423(9)
C9 C 0.1333(3) 0.2066(3) 0.04398(9)
H5 H 0.1938 0.1525 0.0608
H6 H 0.0806 0.2590 0.0638
C10 C 0.0425(3) 0.1172(3) 0.01727(10)
H7 H -0.0008 0.0542 0.0362
H8 H -0.0257 0.1709 0.0038
C11 C 0.2099(3) 0.4993(3) 0.05669(9)
C12 C 0.2795(3) 0.6112(3) 0.07876(10)
C13 C 0.3703(3) 0.5906(3) 0.11148(10)
H9 H 0.3920 0.5046 0.1196
C14 C 0.4284(4) 0.6958(5) 0.13204(12)
H10 H 0.4899 0.6814 0.1539
C15 C 0.3955(5) 0.8220(5) 0.12026(17)
H11 H 0.4335 0.8936 0.1345
C16 C 0.3100(5) 0.8429(4) 0.08880(19)
H12 H 0.2895 0.9293 0.0809
C17 C 0.2504(4) 0.7385(4) 0.06736(14)
H13 H 0.1905 0.7550 0.0452
C18 C 0.7260(4) 0.8814(4) 0.01475(15)
H14 H 0.8016 0.9179 0.0293
H15 H 0.6528 0.8766 0.0344
H16 H 0.7026 0.9370 -0.0092
H17 H 0.4310(16) 0.5315(18) 0.0290(6)
H18 H 0.147(2) 0.347(2) -0.0036(7)
P1F P 0.66902(15) 0.61841(15) -0.01548(5)
O1F O 0.49702(19) 0.08860(18) -0.05496(7)
O2F O 0.5410(2) 0.6776(2) -0.02542(9)
N1F N 0.4006(2) 0.28592(19) -0.03892(6)
C1F C 0.4344(3) 0.4209(2) -0.02463(8)
C2F C 0.3644(2) 0.5345(2) -0.04726(8)
C3F C 0.2466(3) 0.5222(3) -0.06957(9)
H1F H 0.2064 0.4397 -0.0720
C4F C 0.1879(3) 0.6324(3) -0.08844(10)
H2F H 0.1088 0.6233 -0.1035
C5F C 0.2463(3) 0.7538(3) -0.08485(10)
H3F H 0.2054 0.8280 -0.0967
C6F C 0.3644(3) 0.7664(3) -0.06397(10)
H4F H 0.4053 0.8489 -0.0624
C7F C 0.4233(3) 0.6582(3) -0.04536(9)
C8F C 0.2985(3) 0.2122(3) -0.01423(9)
C9F C 0.2066(3) 0.1333(3) -0.04398(9)
H5F H 0.1525 0.1938 -0.0608
H6F H 0.2590 0.0806 -0.0638
C10F C 0.1172(3) 0.0425(3) -0.01727(10)
H7F H 0.0542 -0.0008 -0.0362
H8F H 0.1709 -0.0257 -0.0038
C11F C 0.4993(3) 0.2099(3) -0.05669(9)
C12F C 0.6112(3) 0.2795(3) -0.07876(10)
C13F C 0.5906(3) 0.3703(3) -0.11148(10)
H9F H 0.5046 0.3920 -0.1196
C14F C 0.6958(5) 0.4284(4) -0.13204(12)
H10F H 0.6814 0.4899 -0.1539
C15F C 0.8220(5) 0.3955(5) -0.12026(17)
H11F H 0.8936 0.4335 -0.1345
C16F C 0.8429(4) 0.3100(5) -0.08880(19)
H12F H 0.9293 0.2895 -0.0809
C17F C 0.7385(4) 0.2504(4) -0.06736(14)
H13F H 0.7550 0.1905 -0.0452
C18F C 0.8814(4) 0.7260(4) -0.01475(15)
H14F H 0.9179 0.8016 -0.0293
H15F H 0.8766 0.6528 -0.0344
H16F H 0.9370 0.7026 0.0092
H17F H 0.5315(18) 0.4310(16) -0.0290(6)
H18F H 0.347(2) 0.147(2) 0.0036(7)
loop_
_geom_bond_atom_site_label_1
_geom_bond_atom_site_label_2
_geom_bond_site_symmetry_1
_geom_bond_site_symmetry_2
P1 O2 1_555 1_555
O1 C11 1_555 1_555
O2 C7 1_555 1_555
N1 C1 1_555 1_555
N2 P1 1_555 1_555
C1 C2 1_555 1_555
C2 C3 1_555 1_555
C3 H1 1_555 1_555
C4 C3 1_555 1_555
H2 C4 1_555 1_555
C5 C4 1_555 1_555
H3 C5 1_555 1_555
C6 C5 1_555 1_555
H4 C6 1_555 1_555
C7 C2 1_555 1_555
C8 N1 1_555 1_555
C9 C8 1_555 1_555
H5 C9 1_555 1_555
H6 C9 1_555 1_555
C10 C9 1_555 1_555
H7 C10 1_555 1_555
H8 C10 1_555 1_555
C11 N1 1_555 1_555
C12 C11 1_555 1_555
C13 C12 1_555 1_555
H9 C13 1_555 1_555
C14 C13 1_555 1_555
H10 C14 1_555 1_555
C15 C14 1_555 1_555
H11 C15 1_555 1_555
C16 C15 1_555 1_555
H12 C16 1_555 1_555
C17 C12 1_555 1_555
H13 C17 1_555 1_555
C18 N2 1_555 1_555
H14 C18 1_555 1_555
H15 C18 1_555 1_555
H16 C18 1_555 1_555
H17 C1 1_555 1_555
H18 C8 1_555 1_555
P1F P1 1_555 1_555
O1F C11F 1_555 1_555
O2F P1 1_555 1_555
N1F C1F 1_555 1_555
C1F C1 1_555 1_555
C2F C1F 1_555 1_555
C3F C2F 1_555 1_555
H1F C3F 1_555 1_555
C4F C3F 1_555 1_555
H2F C4F 1_555 1_555
C5F C4F 1_555 1_555
H3F C5F 1_555 1_555
C6F C5F 1_555 1_555
H4F C6F 1_555 1_555
C7F O2F 1_555 1_555
C8F C8 1_555 1_555
C9F C8F 1_555 1_555
H5F C9F 1_555 1_555
H6F C9F 1_555 1_555
C10F C10 1_555 1_555
H7F C10F 1_555 1_555
H8F C10F 1_555 1_555
C11F N1F 1_555 1_555
C12F C11F 1_555 1_555
C13F C12F 1_555 1_555
H9F C13F 1_555 1_555
C14F C13F 1_555 1_555
H10F C14F 1_555 1_555
C15F C14F 1_555 1_555
H11F C15F 1_555 1_555
C16F C15F 1_555 1_555
H12F C16F 1_555 1_555
C17F C12F 1_555 1_555
H13F C17F 1_555 1_555
C18F N2 1_555 1_555
H14F C18F 1_555 1_555
H15F C18F 1_555 1_555
H16F C18F 1_555 1_555
H17F C1F 1_555 1_555
H18F C8F 1_555 1_555
O2 P1F 1_555 1_555
N2 P1F 1_555 1_555
C6 C7 1_555 1_555
C16 C17 1_555 1_555
P1F O2F 1_555 1_555
N1F C8F 1_555 1_555
C2F C7F 1_555 1_555
C6F C7F 1_555 1_555
C9F C10F 1_555 1_555
C16F C17F 1_555 1_555

#END
