
#######################################################################
#
#                 Cambridge Crystallographic Data Centre
#                                CCDC 
#
#######################################################################
#
# If this CIF has been generated from an entry in the Cambridge 
# Structural Database, then it will include bibliographic, chemical, 
# crystal, experimental, refinement or atomic coordinate data resulting 
# from the CCDC's data processing and validation procedures.
#
#######################################################################

data_MEJGOZ
_chemical_formula_moiety         'C30 H48 B2 N4 Si2,C6 D6'
_chemical_name_systematic        
'1,8-bis(3,3-Dimethylbut-1-en-1-yl)-11,16-bis(trimethylsilyl)-9\l^5^,13,14\l^5^,18-tetraaza-1\l^5^,8\l^5^-diborapentacyclo[6.5.5.0^2,7^.0^9,13^.0^14,18^]octadeca-2,4,6,9,11,14,16-heptaene deuterobenzene solvate'
_symmetry_cell_setting           triclinic
_symmetry_space_group_name_H-M   'P -1'
_symmetry_Int_Tables_number      2
_space_group_name_Hall           '-P 1'
loop_
_symmetry_equiv_pos_site_id
_symmetry_equiv_pos_as_xyz
1 x,y,z
2 -x,-y,-z
_cell_length_a                   11.4424(16)
_cell_length_b                   12.6599(15)
_cell_length_c                   14.4400(18)
_cell_angle_alpha                102.223(10)
_cell_angle_beta                 101.605(11)
_cell_angle_gamma                98.407(11)
_cell_volume                     1963.24
_exptl_crystal_colour            colorless
_exptl_crystal_description       needle
_cell_formula_units_Z            2
loop_
_atom_site_label
_atom_site_type_symbol
_atom_site_fract_x
_atom_site_fract_y
_atom_site_fract_z
B1 B 0.2366(4) 0.7226(4) 0.3364(3)
B2 B 0.0888(4) 0.5318(4) 0.3397(3)
Si1 Si 0.46422(11) 0.62181(10) 0.67882(8)
Si2 Si 0.21275(12) 0.42944(10) -0.01975(8)
N1 N 0.2823(3) 0.6698(2) 0.4250(2)
N2 N 0.2096(3) 0.5751(2) 0.4255(2)
C1 C 0.2571(3) 0.5457(3) 0.5064(2)
H1 H 0.2227 0.4829 0.5252
C2 C 0.3642(4) 0.6198(3) 0.5596(2)
C3 C 0.3728(4) 0.6972(3) 0.5041(2)
H2 H 0.4354 0.7610 0.5209
C4 C 0.4086(5) 0.6972(4) 0.7799(3)
H3 H 0.4618 0.6977 0.8423
H4 H 0.3255 0.6606 0.7763
H5 H 0.4087 0.7731 0.7746
C5 C 0.4639(5) 0.4774(4) 0.6868(4)
H6 H 0.4938 0.4383 0.6329
H7 H 0.3809 0.4405 0.6826
H8 H 0.5170 0.4771 0.7491
C6 C 0.6195(5) 0.6910(5) 0.6827(4)
H9 H 0.6481 0.6502 0.6288
H10 H 0.6743 0.6929 0.7450
H11 H 0.6186 0.7664 0.6765
N3 N 0.2209(3) 0.6188(2) 0.2470(2)
N4 N 0.1461(3) 0.5244(3) 0.2476(2)
C7 C 0.1327(4) 0.4511(3) 0.1634(2)
H12 H 0.0838 0.3791 0.1451
C8 C 0.2015(4) 0.4957(3) 0.1057(3)
C9 C 0.2530(4) 0.6018(3) 0.1619(2)
H13 H 0.3041 0.6549 0.1425
C10 C 0.0756(5) 0.3215(4) -0.0780(3)
H14 H 0.0799 0.2856 -0.1441
H15 H 0.0032 0.3547 -0.0815
H16 H 0.0707 0.2666 -0.0395
C11 C 0.2262(6) 0.5386(5) -0.0869(3)
H17 H 0.3004 0.5939 -0.0539
H18 H 0.1552 0.5737 -0.0885
H19 H 0.2302 0.5058 -0.1538
C12 C 0.3501(6) 0.3679(5) -0.0111(4)
H20 H 0.4225 0.4260 0.0201
H21 H 0.3556 0.3316 -0.0767
H22 H 0.3452 0.3136 0.0280
C13 C 0.3317(4) 0.8237(3) 0.3318(2)
H23 H 0.3033 0.8901 0.3295
C14 C 0.4478(4) 0.8251(3) 0.3309(3)
H24 H 0.4744 0.7578 0.3331
C15 C 0.5440(4) 0.9194(3) 0.3269(3)
C16 C 0.6441(5) 0.9467(4) 0.4201(3)
H25 H 0.7070 1.0077 0.4191
H26 H 0.6802 0.8818 0.4247
H27 H 0.6098 0.9682 0.4766
C17 C 0.4921(5) 1.0206(4) 0.3158(3)
H28 H 0.5568 1.0791 0.3132
H29 H 0.4579 1.0461 0.3716
H30 H 0.4279 1.0022 0.2554
C18 C 0.5976(5) 0.8796(4) 0.2398(3)
H31 H 0.6594 0.9394 0.2353
H32 H 0.5327 0.8575 0.1796
H33 H 0.6349 0.8164 0.2486
C19 C 0.0156(4) 0.4173(3) 0.3440(3)
H34 H -0.0615 0.4170 0.3590
C20 C 0.0530(4) 0.3206(3) 0.3282(3)
H35 H 0.1321 0.3240 0.3166
C21 C -0.0123(4) 0.2082(3) 0.3264(3)
C22 C 0.0805(6) 0.1517(5) 0.3763(6)
H36 H 0.0406 0.0778 0.3765
H37 H 0.1158 0.1948 0.4436
H38 H 0.1450 0.1458 0.3411
C23 C -0.1148(5) 0.2129(4) 0.3782(4)
H39 H -0.1545 0.1379 0.3752
H40 H -0.1743 0.2503 0.3463
H41 H -0.0819 0.2537 0.4465
C24 C -0.0634(9) 0.1438(7) 0.2225(5)
H42 H -0.1060 0.0702 0.2211
H43 H 0.0030 0.1368 0.1894
H44 H -0.1205 0.1821 0.1891
C25 C 0.0996(4) 0.7339(3) 0.3420(2)
C26 C 0.0245(4) 0.6365(3) 0.3417(2)
C27 C -0.0968(4) 0.6362(3) 0.3426(3)
H45 H -0.1488 0.5698 0.3413
C28 C -0.1429(5) 0.7325(4) 0.3455(3)
H46 H -0.2256 0.7321 0.3467
C29 C -0.0677(5) 0.8281(4) 0.3466(3)
H47 H -0.0987 0.8941 0.3494
C30 C 0.0527(4) 0.8297(3) 0.3435(3)
H48 H 0.1032 0.8959 0.3425
C31 C 0.3358(8) 0.9595(9) -0.0180(6)
D1 D 0.3962 0.9578 -0.0545
C32 C 0.2847(10) 1.0489(7) -0.0002(7)
D2 D 0.3088 1.1097 -0.0256
C33 C 0.2007(11) 1.0517(7) 0.0546(7)
D3 D 0.1671 1.1161 0.0681
C34 C 0.1652(8) 0.9630(8) 0.0905(6)
D4 D 0.1063 0.9649 0.1285
C35 C 0.2156(8) 0.8719(7) 0.0700(6)
D5 D 0.1932 0.8094 0.0939
C36 C 0.2991(8) 0.8715(7) 0.0151(6)
D6 D 0.3331 0.8078 -0.0006
loop_
_geom_bond_atom_site_label_1
_geom_bond_atom_site_label_2
_geom_bond_site_symmetry_1
_geom_bond_site_symmetry_2
B1 N1 1_555 1_555
B2 N2 1_555 1_555
Si1 C2 1_555 1_555
Si2 C8 1_555 1_555
N1 N2 1_555 1_555
N2 C1 1_555 1_555
C1 H1 1_555 1_555
C2 C1 1_555 1_555
C3 N1 1_555 1_555
H2 C3 1_555 1_555
C4 Si1 1_555 1_555
H3 C4 1_555 1_555
H4 C4 1_555 1_555
H5 C4 1_555 1_555
C5 Si1 1_555 1_555
H6 C5 1_555 1_555
H7 C5 1_555 1_555
H8 C5 1_555 1_555
C6 Si1 1_555 1_555
H9 C6 1_555 1_555
H10 C6 1_555 1_555
H11 C6 1_555 1_555
N3 B1 1_555 1_555
N4 B2 1_555 1_555
C7 N4 1_555 1_555
H12 C7 1_555 1_555
C8 C7 1_555 1_555
C9 N3 1_555 1_555
H13 C9 1_555 1_555
C10 Si2 1_555 1_555
H14 C10 1_555 1_555
H15 C10 1_555 1_555
H16 C10 1_555 1_555
C11 Si2 1_555 1_555
H17 C11 1_555 1_555
H18 C11 1_555 1_555
H19 C11 1_555 1_555
C12 Si2 1_555 1_555
H20 C12 1_555 1_555
H21 C12 1_555 1_555
H22 C12 1_555 1_555
C13 B1 1_555 1_555
H23 C13 1_555 1_555
C14 C13 1_555 1_555
H24 C14 1_555 1_555
C15 C14 1_555 1_555
C16 C15 1_555 1_555
H25 C16 1_555 1_555
H26 C16 1_555 1_555
H27 C16 1_555 1_555
C17 C15 1_555 1_555
H28 C17 1_555 1_555
H29 C17 1_555 1_555
H30 C17 1_555 1_555
C18 C15 1_555 1_555
H31 C18 1_555 1_555
H32 C18 1_555 1_555
H33 C18 1_555 1_555
C19 B2 1_555 1_555
H34 C19 1_555 1_555
C20 C19 1_555 1_555
H35 C20 1_555 1_555
C21 C20 1_555 1_555
C22 C21 1_555 1_555
H36 C22 1_555 1_555
H37 C22 1_555 1_555
H38 C22 1_555 1_555
C23 C21 1_555 1_555
H39 C23 1_555 1_555
H40 C23 1_555 1_555
H41 C23 1_555 1_555
C24 C21 1_555 1_555
H42 C24 1_555 1_555
H43 C24 1_555 1_555
H44 C24 1_555 1_555
C25 B1 1_555 1_555
C26 B2 1_555 1_555
C27 C26 1_555 1_555
H45 C27 1_555 1_555
C28 C27 1_555 1_555
H46 C28 1_555 1_555
C29 C28 1_555 1_555
H47 C29 1_555 1_555
C30 C25 1_555 1_555
H48 C30 1_555 1_555
C31 D1 1_555 1_555
C32 C31 1_555 1_555
D2 C32 1_555 1_555
C33 C32 1_555 1_555
D3 C33 1_555 1_555
C34 C33 1_555 1_555
D4 C34 1_555 1_555
C35 C34 1_555 1_555
D5 C35 1_555 1_555
C36 C31 1_555 1_555
D6 C36 1_555 1_555
C2 C3 1_555 1_555
N3 N4 1_555 1_555
C8 C9 1_555 1_555
C25 C26 1_555 1_555
C29 C30 1_555 1_555
C35 C36 1_555 1_555

#END
