
#######################################################################
#
#                 Cambridge Crystallographic Data Centre
#                                CCDC 
#
#######################################################################
#
# If this CIF has been generated from an entry in the Cambridge 
# Structural Database, then it will include bibliographic, chemical, 
# crystal, experimental, refinement or atomic coordinate data resulting 
# from the CCDC's data processing and validation procedures.
#
#######################################################################

data_MEJGEP
_chemical_formula_moiety         'C28 H32 B4 S2'
_chemical_name_systematic        
bis(\m~2~-Hydrido)-bis(10-(dimethylsulfonio)-10-hydridoboranthren-5-yl)
_symmetry_cell_setting           triclinic
_symmetry_space_group_name_H-M   'P -1'
_symmetry_Int_Tables_number      2
_space_group_name_Hall           '-P 1'
loop_
_symmetry_equiv_pos_site_id
_symmetry_equiv_pos_as_xyz
1 x,y,z
2 -x,-y,-z
_cell_length_a                   6.9647(4)
_cell_length_b                   9.5417(6)
_cell_length_c                   12.0420(7)
_cell_angle_alpha                107.517(5)
_cell_angle_beta                 97.549(4)
_cell_angle_gamma                111.210(5)
_cell_volume                     684.973
_exptl_crystal_colour            colorless
_exptl_crystal_description       block
_cell_formula_units_Z            1
loop_
_atom_site_label
_atom_site_type_symbol
_atom_site_fract_x
_atom_site_fract_y
_atom_site_fract_z
S1 S 0.74899(4) 0.38438(3) 0.24189(2)
B1 B 0.45111(17) 0.35244(14) 0.17626(9)
H1 H 0.429(2) 0.3060(17) 0.0761(13)
B2 B 0.42215(18) 0.46360(14) 0.42229(10)
H2 H 0.383(2) 0.5070(16) 0.5212(12)
C1 C 0.30339(15) 0.22387(12) 0.22426(9)
C2 C 0.28701(16) 0.27710(12) 0.34436(9)
C3 C 0.14688(18) 0.16730(14) 0.38366(10)
H3 H 0.1366 0.2033 0.4644
C4 C 0.02230(18) 0.00656(14) 0.30703(11)
H4 H -0.0736 -0.0662 0.3348
C5 C 0.03921(18) -0.04663(13) 0.18971(11)
H5 H -0.0452 -0.1563 0.1367
C6 C 0.17943(17) 0.06041(13) 0.14965(9)
H6 H 0.1916 0.0218 0.0696
C7 C 0.7460(2) 0.19282(17) 0.16180(15)
H7 H 0.6809 0.1584 0.0753
H8 H 0.6627 0.1122 0.1919
H9 H 0.8929 0.2025 0.1741
C8 C 0.9013(2) 0.50525(19) 0.16920(14)
H10 H 1.0460 0.5105 0.1834
H11 H 0.9094 0.6151 0.2022
H12 H 0.8322 0.4565 0.0821
C9 C 0.45379(15) 0.52831(12) 0.23405(9)
C10 C 0.43501(16) 0.58209(12) 0.35342(9)
C11 C 0.41983(18) 0.72962(13) 0.40082(10)
H13 H 0.4067 0.7654 0.4809
C12 C 0.42366(19) 0.82492(13) 0.33274(11)
H14 H 0.4100 0.9236 0.3654
C13 C 0.44762(18) 0.77469(14) 0.21701(11)
H15 H 0.4529 0.8400 0.1705
C14 C 0.46388(17) 0.62906(13) 0.16876(10)
H16 H 0.4823 0.5969 0.0897
S1A S 0.25101(4) 0.61562(3) 0.75811(2)
B1A B 0.54889(17) 0.64756(14) 0.82374(9)
H1A H 0.571(2) 0.6940(17) 0.9239(13)
B2A B 0.57785(18) 0.53640(14) 0.57771(10)
H2A H 0.617(2) 0.4930(16) 0.4788(12)
C1A C 0.69661(15) 0.77613(12) 0.77574(9)
C2A C 0.71299(16) 0.72290(12) 0.65564(9)
C3A C 0.85312(18) 0.83270(14) 0.61634(10)
H3A H 0.8634 0.7967 0.5356
C4A C 0.97770(18) 0.99344(14) 0.69297(11)
H4A H 1.0736 1.0662 0.6652
C5A C 0.96079(18) 1.04663(13) 0.81029(11)
H5A H 1.0452 1.1563 0.8633
C6A C 0.82057(17) 0.93959(13) 0.85035(9)
H6A H 0.8084 0.9782 0.9304
C7A C 0.2540(2) 0.80718(17) 0.83820(15)
H7A H 0.3191 0.8416 0.9247
H8A H 0.3373 0.8878 0.8081
H9A H 0.1071 0.7975 0.8259
C8A C 0.0987(2) 0.49475(19) 0.83080(14)
H10A H -0.0460 0.4895 0.8166
H11A H 0.0906 0.3849 0.7978
H12A H 0.1678 0.5435 0.9179
C9A C 0.54621(15) 0.47169(12) 0.76595(9)
C10A C 0.56499(16) 0.41791(12) 0.64658(9)
C11A C 0.58017(18) 0.27038(13) 0.59918(10)
H13A H 0.5933 0.2346 0.5191
C12A C 0.57634(19) 0.17508(13) 0.66726(11)
H14A H 0.5900 0.0764 0.6346
C13A C 0.55238(18) 0.22531(14) 0.78299(11)
H15A H 0.5471 0.1600 0.8295
C14A C 0.53612(17) 0.37094(13) 0.83124(10)
H16A H 0.5177 0.4031 0.9103
loop_
_geom_bond_atom_site_label_1
_geom_bond_atom_site_label_2
_geom_bond_site_symmetry_1
_geom_bond_site_symmetry_2
S1 B1 1_555 1_555
B1 H1 1_555 1_555
B2 H2 1_555 1_555
H2 B2A 1_555 1_555
C1 B1 1_555 1_555
C2 B2 1_555 1_555
C3 C2 1_555 1_555
H3 C3 1_555 1_555
C4 C3 1_555 1_555
H4 C4 1_555 1_555
C5 C4 1_555 1_555
H5 C5 1_555 1_555
C6 C1 1_555 1_555
H6 C6 1_555 1_555
C7 S1 1_555 1_555
H7 C7 1_555 1_555
H8 C7 1_555 1_555
H9 C7 1_555 1_555
C8 S1 1_555 1_555
H10 C8 1_555 1_555
H11 C8 1_555 1_555
H12 C8 1_555 1_555
C9 B1 1_555 1_555
C10 B2 1_555 1_555
C11 C10 1_555 1_555
H13 C11 1_555 1_555
C12 C11 1_555 1_555
H14 C12 1_555 1_555
C13 C12 1_555 1_555
H15 C13 1_555 1_555
C14 C9 1_555 1_555
H16 C14 1_555 1_555
S1A B1A 1_555 1_555
B1A H1A 1_555 1_555
B2A H2A 1_555 1_555
H2A B2 1_555 1_555
C1A B1A 1_555 1_555
C2A B2A 1_555 1_555
C3A C2A 1_555 1_555
H3A C3A 1_555 1_555
C4A C3A 1_555 1_555
H4A C4A 1_555 1_555
C5A C4A 1_555 1_555
H5A C5A 1_555 1_555
C6A C1A 1_555 1_555
H6A C6A 1_555 1_555
C7A S1A 1_555 1_555
H7A C7A 1_555 1_555
H8A C7A 1_555 1_555
H9A C7A 1_555 1_555
C8A S1A 1_555 1_555
H10A C8A 1_555 1_555
H11A C8A 1_555 1_555
H12A C8A 1_555 1_555
C9A B1A 1_555 1_555
C10A B2A 1_555 1_555
C11A C10A 1_555 1_555
H13A C11A 1_555 1_555
C12A C11A 1_555 1_555
H14A C12A 1_555 1_555
C13A C12A 1_555 1_555
H15A C13A 1_555 1_555
C14A C9A 1_555 1_555
H16A C14A 1_555 1_555
C1 C2 1_555 1_555
C5 C6 1_555 1_555
C9 C10 1_555 1_555
C13 C14 1_555 1_555
C1A C2A 1_555 1_555
C5A C6A 1_555 1_555
C9A C10A 1_555 1_555
C13A C14A 1_555 1_555

#END
