
#######################################################################
#
#                 Cambridge Crystallographic Data Centre
#                                CCDC 
#
#######################################################################
#
# If this CIF has been generated from an entry in the Cambridge 
# Structural Database, then it will include bibliographic, chemical, 
# crystal, experimental, refinement or atomic coordinate data resulting 
# from the CCDC's data processing and validation procedures.
#
#######################################################################

data_MEJHER
_chemical_name_common            'beta-cyclodextrin cyclobenzaprine hydrate'
_chemical_formula_moiety         'C42 H70 O35,C20 H21 N1,15.1(H2 O1)'
_chemical_name_systematic        
'3-(5H-dibenzo[a,d][7]annulen-5-ylidene)-N,N-dimethylpropan-1-amine \b-cyclodextrin hydrate'
_chemical_properties_biological  'Cyclobenzaprine is a is a muscle relaxant.'
_symmetry_cell_setting           orthorhombic
_symmetry_space_group_name_H-M   'P 21 21 21'
_symmetry_Int_Tables_number      19
_space_group_name_Hall           'P 2ac 2ab'
loop_
_symmetry_equiv_pos_site_id
_symmetry_equiv_pos_as_xyz
1 x,y,z
2 1/2-x,-y,1/2+z
3 1/2+x,1/2-y,-z
4 -x,1/2+y,1/2-z
_cell_length_a                   15.361(12)
_cell_length_b                   17.609(12)
_cell_length_c                   27.316(16)
_cell_angle_alpha                90
_cell_angle_beta                 90
_cell_angle_gamma                90
_cell_volume                     7388.76
_exptl_crystal_colour            colorless
_exptl_crystal_description       block
_cell_formula_units_Z            4
loop_
_atom_site_label
_atom_site_type_symbol
_atom_site_fract_x
_atom_site_fract_y
_atom_site_fract_z
C1 C 0.2520(5) 0.0983(5) 0.7759(3)
H1 H 0.3100 0.1186 0.7687
C2 C 0.2584(5) 0.0359(5) 0.8079(3)
H2 H 0.2916 0.0520 0.8367
O1 O 0.3036(4) -0.0217(4) 0.7854(2)
H3 H 0.3158 -0.0545 0.8056
C3 C 0.1677(5) 0.0127(4) 0.8248(3)
H4 H 0.1373 -0.0110 0.7972
O2 O 0.1806(4) -0.0411(4) 0.8601(2)
H5 H 0.1359 -0.0461 0.8762
C4 C 0.1167(5) 0.0754(5) 0.8419(3)
H6 H 0.1446 0.0972 0.8710
O3 O 0.0310(3) 0.0504(3) 0.85465(17)
C5 C 0.1116(6) 0.1322(5) 0.8046(3)
H7 H 0.0866 0.1088 0.7752
O4 O 0.1998(4) 0.1542(3) 0.79383(19)
C6 C 0.0590(8) 0.1983(5) 0.8174(4)
H8 H 0.0626 0.2357 0.7914
H9 H -0.0015 0.1833 0.8209
O5 O 0.0875(6) 0.2290(5) 0.8596(3)
H10 H 0.1392 0.2398 0.8570
C7 C 0.2555(5) 0.0940(5) 0.5981(3)
H11 H 0.2820 0.1000 0.5656
C8 C 0.2912(6) 0.0275(5) 0.6205(3)
H12 H 0.3543 0.0323 0.6245
O6 O 0.2712(4) -0.0349(4) 0.5935(2)
H13 H 0.3113 -0.0443 0.5746
C9 C 0.2501(5) 0.0185(4) 0.6663(3)
H14 H 0.1877 0.0092 0.6619
O7 O 0.2881(4) -0.0421(3) 0.6893(2)
H15 H 0.2863 -0.0357 0.7190
C10 C 0.2634(5) 0.0854(4) 0.6944(2)
H16 H 0.3248 0.0906 0.7035
O8 O 0.2134(3) 0.0748(3) 0.73448(18)
C11 C 0.2333(5) 0.1523(4) 0.6687(3)
H17 H 0.1703 0.1492 0.6637
O9 O 0.2742(3) 0.1557(3) 0.62499(18)
C12 C 0.2545(6) 0.2225(5) 0.6918(3)
H18 H 0.2234 0.2263 0.7226
H19 H 0.2360 0.2642 0.6711
O10 O 0.3462(4) 0.2285(3) 0.7008(2)
H20 H 0.3546 0.2549 0.7250
C13 C -0.0447(5) 0.1043(5) 0.5066(3)
H21 H -0.0799 0.1139 0.4774
C14 C 0.0194(6) 0.0439(5) 0.4944(3)
H22 H 0.0518 0.0586 0.4650
O11 O -0.0283(4) -0.0203(3) 0.4847(2)
H23 H 0.0028 -0.0518 0.4713
C15 C 0.0807(6) 0.0320(5) 0.5350(3)
H24 H 0.0481 0.0138 0.5635
O12 O 0.1434(5) -0.0213(4) 0.5234(2)
H25 H 0.1775 -0.0303 0.5459
C16 C 0.1255(5) 0.1015(4) 0.5485(3)
H26 H 0.1684 0.1162 0.5237
O13 O 0.1640(4) 0.0859(3) 0.59212(17)
C17 C 0.0582(6) 0.1611(5) 0.5551(3)
H27 H 0.0257 0.1515 0.5854
O14 O 0.0006(4) 0.1673(3) 0.51630(17)
C18 C 0.1009(7) 0.2351(5) 0.5582(4)
H28 H 0.1451 0.2344 0.5836
H29 H 0.1286 0.2474 0.5273
O15 O 0.0391(6) 0.2870(4) 0.5689(3)
H30 H 0.0153 0.3201 0.5878
C19 C -0.3654(6) 0.0787(6) 0.5757(3)
H31 H -0.4277 0.0888 0.5719
C20 C -0.3355(6) 0.0289(6) 0.5382(3)
H32 H -0.3503 0.0527 0.5068
O16 O -0.3784(5) -0.0362(5) 0.5402(3)
H33 H -0.4252 -0.0297 0.5539
C21 C -0.2360(6) 0.0205(5) 0.5394(3)
H34 H -0.2200 -0.0053 0.5699
O17 O -0.2099(4) -0.0231(4) 0.5016(2)
H35 H -0.1570 -0.0194 0.4982
O18 O -0.0987(3) 0.0813(3) 0.54262(17)
C22 C -0.1924(5) 0.0937(5) 0.5385(3)
H36 H -0.2048 0.1189 0.5072
C23 C -0.2255(6) 0.1394(6) 0.5776(3)
H37 H -0.2102 0.1146 0.6086
O19 O -0.3187(4) 0.1457(4) 0.5756(2)
C24 C -0.1916(7) 0.2139(5) 0.5787(4)
H38 H -0.2085 0.2386 0.6090
H39 H -0.1286 0.2119 0.5776
O20 O -0.2218(5) 0.2540(4) 0.5404(3)
H40 H -0.1890 0.2898 0.5350
C25 C -0.5011(5) -0.0098(5) 0.7297(3)
H41 H -0.5520 -0.0215 0.7499
C26 C -0.4903(6) -0.0669(5) 0.6935(3)
H42 H -0.5425 -0.0689 0.6729
O21 O -0.4779(5) -0.1358(3) 0.7148(3)
H43 H -0.5234 -0.1498 0.7277
C27 C -0.4134(6) -0.0492(5) 0.6624(3)
H44 H -0.3608 -0.0505 0.6827
O22 O -0.4068(6) -0.1016(4) 0.6273(3)
H45 H -0.4324 -0.0869 0.6027
C28 C -0.4254(5) 0.0267(5) 0.6434(3)
H46 H -0.4761 0.0283 0.6217
O23 O -0.3499(4) 0.0430(4) 0.61722(18)
C29 C -0.4360(6) 0.0797(5) 0.6831(3)
H47 H -0.3847 0.0783 0.7044
O24 O -0.5103(4) 0.0591(3) 0.70983(17)
C30 C -0.4526(6) 0.1563(6) 0.6677(3)
H48 H -0.4589 0.1886 0.6963
H49 H -0.4036 0.1748 0.6487
O25 O -0.5293(5) 0.1604(4) 0.6390(2)
H50 H -0.5317 0.2018 0.6254
C31 C -0.3387(5) -0.0001(4) 0.8884(3)
H51 H -0.3337 0.0032 0.9241
C32 C -0.3813(6) -0.0712(5) 0.8756(3)
H52 H -0.4385 -0.0740 0.8913
O26 O -0.3283(4) -0.1276(3) 0.8933(2)
H53 H -0.3582 -0.1611 0.9057
C33 C -0.3904(5) -0.0750(4) 0.8256(3)
H54 H -0.3328 -0.0776 0.8102
O27 O -0.4392(4) -0.1390(3) 0.8123(2)
H55 H -0.4066 -0.1755 0.8088
C34 C -0.4380(5) -0.0098(4) 0.8063(2)
H56 H -0.5000 -0.0126 0.8146
O28 O -0.4256(4) -0.0123(3) 0.75843(17)
C35 C -0.3995(6) 0.0604(5) 0.8235(3)
H57 H -0.3421 0.0670 0.8084
O29 O -0.3908(4) 0.0580(3) 0.87194(18)
C36 C -0.4533(6) 0.1261(5) 0.8127(3)
H58 H -0.4264 0.1708 0.8269
H59 H -0.4556 0.1331 0.7776
O30 O -0.5394(4) 0.1196(4) 0.8309(3)
H60 H -0.5692 0.1543 0.8200
C37 C 0.0018(5) 0.0639(4) 0.8983(3)
H61 H 0.0496 0.0826 0.9188
C38 C -0.0324(5) -0.0057(5) 0.9193(3)
H62 H -0.0461 0.0041 0.9538
O31 O 0.0329(4) -0.0601(4) 0.9177(2)
H63 H 0.0682 -0.0545 0.9398
C39 C -0.1139(5) -0.0302(4) 0.8944(3)
H64 H -0.0998 -0.0427 0.8603
O32 O -0.1485(4) -0.0934(3) 0.9159(2)
H65 H -0.1105 -0.1258 0.9190
C40 C -0.1814(5) 0.0282(4) 0.8943(3)
H66 H -0.1990 0.0389 0.9281
O33 O -0.2544(3) 0.0026(3) 0.86758(17)
C41 C -0.1416(5) 0.0961(4) 0.8731(3)
H67 H -0.1266 0.0856 0.8389
O34 O -0.0654(4) 0.1172(3) 0.8983(2)
C42 C -0.2041(6) 0.1616(5) 0.8746(4)
H68 H -0.2543 0.1518 0.8540
H69 H -0.2238 0.1710 0.9078
O35 O -0.1568(5) 0.2222(4) 0.8572(3)
H70 H -0.1900 0.2572 0.8503
O36 O -0.5477(5) 0.2709(4) 0.5781(2)
O37 O -0.5792(6) 0.1843(6) 0.5006(3)
O38 O 0.2936(6) -0.1857(4) 0.6622(3)
O39 O -0.3758(6) -0.2576(5) 0.7046(3)
O40 O -0.3672(6) 0.3254(5) 0.5781(3)
O41 O 0.3719(7) -0.1423(6) 0.8286(4)
O42 O 0.299(3) -0.169(3) 0.8258(16)
O43 O 0.0740(9) -0.0971(9) 0.4239(4)
O44 O 0.3696(9) -0.2185(7) 0.7449(4)
O45 O 0.2570(8) 0.2973(8) 0.8675(6)
O46 O -0.5756(6) 0.0153(6) 0.5232(3)
O47 O -0.5673(8) -0.0689(8) 0.5331(5)
O48 O 0.2037(12) 0.0341(10) 0.4271(6)
O49 O 0.292(3) -0.094(3) 0.4654(18)
O50 O 0.333(4) -0.125(4) 0.495(2)
O51 O 0.2519(15) -0.3305(7) 0.4933(7)
O52 O -0.1042(14) -0.1784(10) 0.4418(6)
O53 O 0.442(2) -0.2015(17) 0.6032(9)
N1 N 0.0371(9) -0.2195(6) 0.5687(4)
C43 C -0.0112(10) -0.1551(7) 0.5833(4)
H71 H -0.0707 -0.1689 0.5911
H72 H -0.0118 -0.1171 0.5576
C44 C 0.0337(12) -0.1269(9) 0.6264(5)
H73 H 0.0339 -0.1655 0.6517
H74 H 0.0936 -0.1147 0.6182
C45 C -0.0078(9) -0.0639(7) 0.6426(6)
H75 H -0.0231 -0.0272 0.6198
C46 C -0.0285(8) -0.0512(7) 0.6901(4)
C47 C -0.0693(8) 0.0205(7) 0.6987(4)
C48 C -0.0297(9) 0.0821(8) 0.6805(5)
H76 H 0.0224 0.0779 0.6633
C49 C -0.0678(13) 0.1511(9) 0.6878(7)
H77 H -0.0415 0.1953 0.6765
C50 C -0.1427(11) 0.1537(9) 0.7113(6)
H78 H -0.1684 0.2010 0.7158
C51 C -0.1832(9) 0.0946(7) 0.7285(5)
H79 H -0.2367 0.0993 0.7442
C52 C -0.1449(7) 0.0257(7) 0.7228(4)
C53 C -0.1920(8) -0.0360(7) 0.7438(4)
H80 H -0.2523 -0.0324 0.7457
C54 C -0.1545(8) -0.0977(8) 0.7606(4)
H81 H -0.1907 -0.1351 0.7733
C55 C -0.0621(8) -0.1127(6) 0.7611(5)
C56 C -0.0354(10) -0.1519(7) 0.8006(6)
H82 H -0.0742 -0.1671 0.8249
C57 C 0.0526(16) -0.1686(7) 0.8037(8)
H83 H 0.0701 -0.1966 0.8308
C58 C 0.1164(9) -0.1488(7) 0.7715(7)
H84 H 0.1750 -0.1597 0.7766
C59 C 0.0868(10) -0.1119(8) 0.7317(7)
H85 H 0.1255 -0.0974 0.7073
C60 C 0.0014(6) -0.0959(5) 0.7272(5)
C61 C -0.0151(14) -0.2624(8) 0.5364(5)
H86 H -0.0704 -0.2725 0.5515
H87 H 0.0134 -0.3095 0.5290
H88 H -0.0240 -0.2343 0.5067
C62 C 0.1220(13) -0.2035(9) 0.5493(6)
H89 H 0.1540 -0.1732 0.5724
H90 H 0.1164 -0.1763 0.5191
H91 H 0.1524 -0.2503 0.5437
O54? O -0.6508(15) 0.0525(13) 0.4857(8)
O55? O 0.234(3) -0.038(2) 0.4436(15)
O56? O 0.412(2) -0.1601(19) 0.5906(12)
O57? O 0.273(3) 0.192(5) 0.9396(14)
O58? O 0.317(3) 0.219(3) 0.9357(18)
O59? O -0.577(2) 0.1385(18) 0.5028(11)
loop_
_geom_bond_atom_site_label_1
_geom_bond_atom_site_label_2
_geom_bond_site_symmetry_1
_geom_bond_site_symmetry_2
C1 H1 1_555 1_555
C2 C1 1_555 1_555
H2 C2 1_555 1_555
O1 C2 1_555 1_555
H3 O1 1_555 1_555
C3 C2 1_555 1_555
H4 C3 1_555 1_555
O2 C3 1_555 1_555
H5 O2 1_555 1_555
C4 C3 1_555 1_555
H6 C4 1_555 1_555
O3 C4 1_555 1_555
C5 C4 1_555 1_555
H7 C5 1_555 1_555
O4 C1 1_555 1_555
C6 C5 1_555 1_555
H8 C6 1_555 1_555
H9 C6 1_555 1_555
O5 C6 1_555 1_555
H10 O5 1_555 1_555
C7 H11 1_555 1_555
C8 C7 1_555 1_555
H12 C8 1_555 1_555
O6 C8 1_555 1_555
H13 O6 1_555 1_555
C9 C8 1_555 1_555
H14 C9 1_555 1_555
O7 C9 1_555 1_555
H15 O7 1_555 1_555
C10 C9 1_555 1_555
H16 C10 1_555 1_555
O8 C1 1_555 1_555
C11 C10 1_555 1_555
H17 C11 1_555 1_555
O9 C7 1_555 1_555
C12 C11 1_555 1_555
H18 C12 1_555 1_555
H19 C12 1_555 1_555
O10 C12 1_555 1_555
H20 O10 1_555 1_555
C13 H21 1_555 1_555
C14 C13 1_555 1_555
H22 C14 1_555 1_555
O11 C14 1_555 1_555
H23 O11 1_555 1_555
C15 C14 1_555 1_555
H24 C15 1_555 1_555
O12 C15 1_555 1_555
H25 O12 1_555 1_555
C16 C15 1_555 1_555
H26 C16 1_555 1_555
O13 C7 1_555 1_555
C17 C16 1_555 1_555
H27 C17 1_555 1_555
O14 C13 1_555 1_555
C18 C17 1_555 1_555
H28 C18 1_555 1_555
H29 C18 1_555 1_555
O15 C18 1_555 1_555
H30 O15 1_555 1_555
C19 H31 1_555 1_555
C20 C19 1_555 1_555
H32 C20 1_555 1_555
O16 C20 1_555 1_555
H33 O16 1_555 1_555
C21 C20 1_555 1_555
H34 C21 1_555 1_555
O17 C21 1_555 1_555
H35 O17 1_555 1_555
O18 C13 1_555 1_555
C22 C21 1_555 1_555
H36 C22 1_555 1_555
C23 C22 1_555 1_555
H37 C23 1_555 1_555
O19 C19 1_555 1_555
C24 C23 1_555 1_555
H38 C24 1_555 1_555
H39 C24 1_555 1_555
O20 C24 1_555 1_555
H40 O20 1_555 1_555
C25 H41 1_555 1_555
C26 C25 1_555 1_555
H42 C26 1_555 1_555
O21 C26 1_555 1_555
H43 O21 1_555 1_555
C27 C26 1_555 1_555
H44 C27 1_555 1_555
O22 C27 1_555 1_555
H45 O22 1_555 1_555
C28 C27 1_555 1_555
H46 C28 1_555 1_555
O23 C19 1_555 1_555
C29 C28 1_555 1_555
H47 C29 1_555 1_555
O24 C25 1_555 1_555
C30 C29 1_555 1_555
H48 C30 1_555 1_555
H49 C30 1_555 1_555
O25 C30 1_555 1_555
H50 O25 1_555 1_555
C31 H51 1_555 1_555
C32 C31 1_555 1_555
H52 C32 1_555 1_555
O26 C32 1_555 1_555
H53 O26 1_555 1_555
C33 C32 1_555 1_555
H54 C33 1_555 1_555
O27 C33 1_555 1_555
H55 O27 1_555 1_555
C34 C33 1_555 1_555
H56 C34 1_555 1_555
O28 C25 1_555 1_555
C35 C34 1_555 1_555
H57 C35 1_555 1_555
O29 C31 1_555 1_555
C36 C35 1_555 1_555
H58 C36 1_555 1_555
H59 C36 1_555 1_555
O30 C36 1_555 1_555
H60 O30 1_555 1_555
C37 O3 1_555 1_555
H61 C37 1_555 1_555
C38 C37 1_555 1_555
H62 C38 1_555 1_555
O31 C38 1_555 1_555
H63 O31 1_555 1_555
C39 C38 1_555 1_555
H64 C39 1_555 1_555
O32 C39 1_555 1_555
H65 O32 1_555 1_555
C40 C39 1_555 1_555
H66 C40 1_555 1_555
O33 C31 1_555 1_555
C41 C40 1_555 1_555
H67 C41 1_555 1_555
O34 C37 1_555 1_555
C42 C41 1_555 1_555
H68 C42 1_555 1_555
H69 C42 1_555 1_555
O35 C42 1_555 1_555
H70 O35 1_555 1_555
N1 C43 1_555 1_555
C43 H71 1_555 1_555
H72 C43 1_555 1_555
C44 C43 1_555 1_555
H73 C44 1_555 1_555
H74 C44 1_555 1_555
C45 C44 1_555 1_555
H75 C45 1_555 1_555
C46 C45 1_555 1_555
C47 C46 1_555 1_555
C48 C47 1_555 1_555
H76 C48 1_555 1_555
C49 C48 1_555 1_555
H77 C49 1_555 1_555
C50 C49 1_555 1_555
H78 C50 1_555 1_555
C51 C50 1_555 1_555
H79 C51 1_555 1_555
C52 C47 1_555 1_555
C53 C52 1_555 1_555
H80 C53 1_555 1_555
C54 C53 1_555 1_555
H81 C54 1_555 1_555
C55 C54 1_555 1_555
C56 C55 1_555 1_555
H82 C56 1_555 1_555
C57 C56 1_555 1_555
H83 C57 1_555 1_555
C58 C57 1_555 1_555
H84 C58 1_555 1_555
C59 C58 1_555 1_555
H85 C59 1_555 1_555
C60 C46 1_555 1_555
C61 N1 1_555 1_555
H86 C61 1_555 1_555
H87 C61 1_555 1_555
H88 C61 1_555 1_555
C62 N1 1_555 1_555
H89 C62 1_555 1_555
H90 C62 1_555 1_555
H91 C62 1_555 1_555
C5 O4 1_555 1_555
C10 O8 1_555 1_555
C11 O9 1_555 1_555
C16 O13 1_555 1_555
C17 O14 1_555 1_555
O18 C22 1_555 1_555
C23 O19 1_555 1_555
C28 O23 1_555 1_555
C29 O24 1_555 1_555
C34 O28 1_555 1_555
C35 O29 1_555 1_555
C40 O33 1_555 1_555
C41 O34 1_555 1_555
C51 C52 1_555 1_555
C55 C60 1_555 1_555
C59 C60 1_555 1_555

#END
