
#######################################################################
#
#                 Cambridge Crystallographic Data Centre
#                                CCDC 
#
#######################################################################
#
# If this CIF has been generated from an entry in the Cambridge 
# Structural Database, then it will include bibliographic, chemical, 
# crystal, experimental, refinement or atomic coordinate data resulting 
# from the CCDC's data processing and validation procedures.
#
#######################################################################

data_MEJHEP
_chemical_formula_moiety         'C8 H12 O2'
_chemical_name_systematic        
cis-6-Hydroxy-4-methylcyclohex-1-enecarbaldehyde
_symmetry_cell_setting           monoclinic
_symmetry_space_group_name_H-M   'P 21'
_symmetry_Int_Tables_number      4
_space_group_name_Hall           'P 2yb'
loop_
_symmetry_equiv_pos_site_id
_symmetry_equiv_pos_as_xyz
1 x,y,z
2 -x,1/2+y,-z
_cell_length_a                   7.773(2)
_cell_length_b                   6.401(2)
_cell_length_c                   8.075(3)
_cell_angle_alpha                90
_cell_angle_beta                 103.792(5)
_cell_angle_gamma                90
_cell_volume                     390.187
_chemical_melting_point          55-56deg.C
_cell_formula_units_Z            2
loop_
_atom_site_label
_atom_site_type_symbol
_atom_site_fract_x
_atom_site_fract_y
_atom_site_fract_z
O1 O 0.43067(18) 0.1288(3) 0.9925(2)
O2 O 0.2182(2) -0.2260(2) 0.8146(2)
C1 C 0.1405(2) 0.1419(3) 0.8149(2)
C2 C 0.0237(3) 0.2759(3) 0.7247(2)
H1 H 0.0636 0.4081 0.7039
C3 C -0.1680(2) 0.2257(4) 0.6549(3)
H2 H -0.1900 0.2077 0.5323
H3 H -0.2393 0.3423 0.6765
C4 C -0.2252(2) 0.0288(4) 0.7331(2)
H4 H -0.2346 0.0619 0.8491
C5 C -0.0860(3) -0.1406(3) 0.7440(2)
H5 H -0.1254 -0.2656 0.7922
H6 H -0.0754 -0.1743 0.6298
C6 C 0.0947(2) -0.0786(3) 0.8514(2)
H7 H 0.0937 -0.0900 0.9722
C7 C 0.3181(3) 0.2224(4) 0.8902(3)
H8 H 0.3464 0.3547 0.8570
C8 C -0.4055(3) -0.0459(4) 0.6316(3)
H9 H -0.3994 -0.0766 0.5167
H10 H -0.4920 0.0614 0.6305
H11 H -0.4387 -0.1697 0.6835
H12 H 0.312(4) -0.200(6) 0.882(4)
loop_
_geom_bond_atom_site_label_1
_geom_bond_atom_site_label_2
_geom_bond_site_symmetry_1
_geom_bond_site_symmetry_2
O1 C7 1_555 1_555
O2 C6 1_555 1_555
C1 C2 1_555 1_555
C2 H1 1_555 1_555
C3 C2 1_555 1_555
H2 C3 1_555 1_555
H3 C3 1_555 1_555
C4 C3 1_555 1_555
H4 C4 1_555 1_555
C5 C4 1_555 1_555
H5 C5 1_555 1_555
H6 C5 1_555 1_555
C6 C1 1_555 1_555
H7 C6 1_555 1_555
C7 C1 1_555 1_555
H8 C7 1_555 1_555
C8 C4 1_555 1_555
H9 C8 1_555 1_555
H10 C8 1_555 1_555
H11 C8 1_555 1_555
H12 O2 1_555 1_555
C5 C6 1_555 1_555

#END
