
#######################################################################
#
#                 Cambridge Crystallographic Data Centre
#                                CCDC 
#
#######################################################################
#
# If this CIF has been generated from an entry in the Cambridge 
# Structural Database, then it will include bibliographic, chemical, 
# crystal, experimental, refinement or atomic coordinate data resulting 
# from the CCDC's data processing and validation procedures.
#
#######################################################################

data_MEJKEU
_chemical_formula_moiety         'C26 H20 N4 O1'
_chemical_name_systematic        
(quinolin-2-yl)[(2-{[(quinolin-2-yl)methylidene]amino}phenyl)amino]methanol
_symmetry_cell_setting           monoclinic
_symmetry_space_group_name_H-M   'P 21/c'
_symmetry_Int_Tables_number      14
_space_group_name_Hall           '-P 2ybc'
loop_
_symmetry_equiv_pos_site_id
_symmetry_equiv_pos_as_xyz
1 x,y,z
2 -x,1/2+y,1/2-z
3 -x,-y,-z
4 x,1/2-y,1/2+z
_cell_length_a                   12.5599(13)
_cell_length_b                   8.3899(9)
_cell_length_c                   18.5549(18)
_cell_angle_alpha                90
_cell_angle_beta                 98.565(3)
_cell_angle_gamma                90
_cell_volume                     1933.44
_exptl_crystal_description       block
_cell_formula_units_Z            4
loop_
_atom_site_label
_atom_site_type_symbol
_atom_site_fract_x
_atom_site_fract_y
_atom_site_fract_z
O1 O 0.9792(2) 0.6287(3) 0.06578(15)
H1 H 1.0264 0.6014 0.0406
N1 N 0.7496(3) 0.5395(4) -0.06230(17)
N2 N 0.4418(3) 0.0646(4) 0.08485(17)
N3 N 0.8302(3) 0.4761(4) 0.07383(17)
H2 H 0.7700 0.4439 0.0473
N4 N 0.6682(3) 0.3184(4) 0.11680(17)
C1 C 0.8408(3) 0.6132(5) -0.0376(2)
C2 C 0.8895(4) 0.7290(5) -0.0763(2)
H3 H 0.9556 0.7769 -0.0559
C3 C 0.8398(4) 0.7712(5) -0.1437(2)
H4 H 0.8711 0.8498 -0.1709
C4 C 0.7427(3) 0.6987(5) -0.1731(2)
C5 C 0.7001(3) 0.5811(4) -0.1304(2)
C6 C 0.6844(4) 0.7380(5) -0.2421(2)
H5 H 0.7117 0.8170 -0.2711
C7 C 0.5896(4) 0.6642(5) -0.2674(2)
H6 H 0.5521 0.6909 -0.3141
C8 C 0.5471(4) 0.5495(5) -0.2250(2)
H7 H 0.4804 0.4998 -0.2428
C9 C 0.6014(3) 0.5083(5) -0.1579(2)
H8 H 0.5720 0.4297 -0.1297
C10 C 0.8926(3) 0.5727(5) 0.0393(2)
C11 C 0.5055(3) 0.1816(5) 0.0696(2)
C12 C 0.4839(3) 0.2805(5) 0.0071(2)
H9 H 0.5322 0.3630 -0.0015
C13 C 0.3919(3) 0.2538(5) -0.0404(2)
H10 H 0.3755 0.3186 -0.0826
C14 C 0.3210(3) 0.1301(4) -0.0271(2)
C15 C 0.3486(3) 0.0396(5) 0.0379(2)
C16 C 0.2245(3) 0.0935(5) -0.0728(2)
H11 H 0.2053 0.1524 -0.1166
C17 C 0.1582(4) -0.0243(5) -0.0559(2)
H12 H 0.0932 -0.0464 -0.0875
C18 C 0.1857(4) -0.1137(5) 0.0085(2)
H13 H 0.1389 -0.1953 0.0205
C19 C 0.2793(3) -0.0829(5) 0.0537(2)
H14 H 0.2980 -0.1451 0.0965
C20 C 0.6044(3) 0.2017(5) 0.1212(2)
H15 H 0.6216 0.1258 0.1592
C21 C 0.8477(3) 0.4195(5) 0.1462(2)
C22 C 0.7631(3) 0.3342(5) 0.1690(2)
C23 C 0.7748(4) 0.2724(5) 0.2388(2)
H16 H 0.7169 0.2157 0.2546
C24 C 0.8697(4) 0.2925(6) 0.2858(2)
H17 H 0.8777 0.2488 0.3336
C25 C 0.9535(4) 0.3768(5) 0.2628(2)
H18 H 1.0191 0.3898 0.2951
C26 C 0.9433(3) 0.4427(5) 0.1935(2)
H19 H 1.0006 0.5023 0.1786
loop_
_geom_bond_atom_site_label_1
_geom_bond_atom_site_label_2
_geom_bond_site_symmetry_1
_geom_bond_site_symmetry_2
O1 H1 1_555 1_555
N1 C1 1_555 1_555
N2 C11 1_555 1_555
N3 H2 1_555 1_555
N4 C20 1_555 1_555
C1 C2 1_555 1_555
C2 H3 1_555 1_555
C3 C2 1_555 1_555
H4 C3 1_555 1_555
C4 C3 1_555 1_555
C5 N1 1_555 1_555
C6 C4 1_555 1_555
H5 C6 1_555 1_555
C7 C6 1_555 1_555
H6 C7 1_555 1_555
C8 C7 1_555 1_555
H7 C8 1_555 1_555
C9 C5 1_555 1_555
H8 C9 1_555 1_555
C10 O1 1_555 1_555
C11 C12 1_555 1_555
C12 H9 1_555 1_555
C13 C12 1_555 1_555
H10 C13 1_555 1_555
C14 C13 1_555 1_555
C15 N2 1_555 1_555
C16 C14 1_555 1_555
H11 C16 1_555 1_555
C17 C16 1_555 1_555
H12 C17 1_555 1_555
C18 C17 1_555 1_555
H13 C18 1_555 1_555
C19 C15 1_555 1_555
H14 C19 1_555 1_555
C20 C11 1_555 1_555
H15 C20 1_555 1_555
C21 N3 1_555 1_555
C22 N4 1_555 1_555
C23 C22 1_555 1_555
H16 C23 1_555 1_555
C24 C23 1_555 1_555
H17 C24 1_555 1_555
C25 C24 1_555 1_555
H18 C25 1_555 1_555
C26 C21 1_555 1_555
H19 C26 1_555 1_555
N3 C10 1_555 1_555
C1 C10 1_555 1_555
C4 C5 1_555 1_555
C8 C9 1_555 1_555
C14 C15 1_555 1_555
C18 C19 1_555 1_555
C21 C22 1_555 1_555
C25 C26 1_555 1_555

#END
