
#######################################################################
#
#                 Cambridge Crystallographic Data Centre
#                                CCDC 
#
#######################################################################
#
# If this CIF has been generated from an entry in the Cambridge 
# Structural Database, then it will include bibliographic, chemical, 
# crystal, experimental, refinement or atomic coordinate data resulting 
# from the CCDC's data processing and validation procedures.
#
#######################################################################

data_MEJKOC
_chemical_formula_moiety         'C19 H12 O3'
_chemical_name_systematic        
4,8-Diphenyl-2-oxabicyclo(3.3.0)octa-1(8),4-diene-3,6-dione
_symmetry_cell_setting           orthorhombic
_symmetry_space_group_name_H-M   'P c a 21'
_symmetry_Int_Tables_number      29
_space_group_name_Hall           'P 2c -2ac'
loop_
_symmetry_equiv_pos_site_id
_symmetry_equiv_pos_as_xyz
1 x,y,z
2 -x,-y,1/2+z
3 1/2+x,-y,z
4 1/2-x,y,1/2+z
_cell_length_a                   11.7937(4)
_cell_length_b                   12.9224(5)
_cell_length_c                   18.4121(6)
_cell_angle_alpha                90
_cell_angle_beta                 90
_cell_angle_gamma                90
_cell_volume                     2806.06
_exptl_crystal_description       prismatic
_cell_formula_units_Z            8
_exptl_crystal_recrystallization_method chloroform
loop_
_atom_site_label
_atom_site_type_symbol
_atom_site_fract_x
_atom_site_fract_y
_atom_site_fract_z
O1 O 0.1408(4) 0.6267(3) 0.4442(2)
O2 O 0.0078(4) 0.7194(3) 0.5016(3)
O3 O 0.0782(5) 0.2781(4) 0.4962(3)
C1 C 0.0461(5) 0.6346(5) 0.4896(3)
C2 C 0.0091(6) 0.5289(6) 0.5124(3)
C3 C 0.0861(5) 0.4647(5) 0.4795(3)
C4 C 0.1193(6) 0.3548(5) 0.4694(4)
C5 C 0.2217(5) 0.3556(4) 0.4198(3)
H1 H 0.2060 0.3175 0.3755
H2 H 0.2865 0.3242 0.4437
C6 C 0.2456(5) 0.4699(5) 0.4026(3)
C7 C 0.1644(6) 0.5220(5) 0.4389(4)
C8 C 0.3379(7) 0.5049(4) 0.3570(4)
C9 C 0.3579(5) 0.6093(5) 0.3451(3)
H3 H 0.3082 0.6584 0.3639
C10 C 0.4508(5) 0.6406(5) 0.3056(4)
H4 H 0.4640 0.7108 0.2983
C11 C 0.5245(7) 0.5684(7) 0.2767(4)
H5 H 0.5874 0.5904 0.2504
C12 C 0.5057(7) 0.4642(7) 0.2866(4)
H6 H 0.5550 0.4155 0.2670
C13 C 0.4119(6) 0.4334(5) 0.3263(4)
H7 H 0.3980 0.3631 0.3325
C14 C -0.0879(8) 0.5091(6) 0.5596(4)
C15 C -0.1180(7) 0.4065(7) 0.5743(4)
H8 H -0.0761 0.3528 0.5541
C16 C -0.2093(7) 0.3841(7) 0.6186(5)
H9 H -0.2285 0.3158 0.6288
C17 C -0.2713(7) 0.4644(8) 0.6476(5)
H10 H -0.3333 0.4494 0.6769
C18 C -0.2447(8) 0.5648(7) 0.6345(5)
H11 H -0.2880 0.6175 0.6548
C19 C -0.1519(6) 0.5888(7) 0.5903(4)
H12 H -0.1329 0.6575 0.5814
O4 O 0.1064(3) 0.1246(3) 0.3134(3)
O5 O 0.2398(5) 0.2174(4) 0.2549(3)
O6 O 0.1743(5) -0.2244(4) 0.2629(3)
C20 C 0.2016(5) 0.1330(5) 0.2678(3)
C21 C 0.2378(6) 0.0277(6) 0.2453(3)
C22 C 0.1630(5) -0.0373(5) 0.2782(3)
C23 C 0.1285(6) -0.1468(5) 0.2876(4)
C24 C 0.0270(5) -0.1469(4) 0.3365(3)
H13 H 0.0424 -0.1855 0.3806
H14 H -0.0378 -0.1777 0.3123
C25 C 0.0045(5) -0.0342(5) 0.3537(3)
C26 C 0.0838(6) 0.0205(5) 0.3192(4)
C27 C -0.0884(7) 0.0007(4) 0.3993(5)
C28 C -0.1674(5) -0.0704(5) 0.4273(3)
H15 H -0.1589 -0.1405 0.4173
C29 C -0.2567(7) -0.0381(7) 0.4691(4)
H16 H -0.3076 -0.0867 0.4872
C30 C -0.2722(7) 0.0648(6) 0.4848(4)
H17 H -0.3345 0.0865 0.5118
C31 C -0.1935(5) 0.1357(5) 0.4596(4)
H18 H -0.2016 0.2053 0.4713
C32 C -0.1042(5) 0.1051(5) 0.4178(3)
H19 H -0.0528 0.1543 0.4012
C33 C 0.3344(7) 0.0075(5) 0.1981(4)
C34 C 0.3902(6) 0.0867(7) 0.1602(4)
H20 H 0.3642 0.1544 0.1639
C35 C 0.4819(7) 0.0653(8) 0.1181(5)
H21 H 0.5178 0.1190 0.0935
C36 C 0.5234(7) -0.0348(10) 0.1108(5)
H22 H 0.5861 -0.0487 0.0818
C37 C 0.4696(6) -0.1119(7) 0.1473(4)
H23 H 0.4967 -0.1792 0.1432
C38 C 0.3751(6) -0.0933(6) 0.1908(4)
H24 H 0.3395 -0.1477 0.2148
loop_
_geom_bond_atom_site_label_1
_geom_bond_atom_site_label_2
_geom_bond_site_symmetry_1
_geom_bond_site_symmetry_2
O1 C1 1_555 1_555
O2 C1 1_555 1_555
O3 C4 1_555 1_555
C1 C2 1_555 1_555
C2 C3 1_555 1_555
C3 C4 1_555 1_555
C4 C5 1_555 1_555
C5 H1 1_555 1_555
H2 C5 1_555 1_555
C6 C5 1_555 1_555
C7 O1 1_555 1_555
C8 C6 1_555 1_555
C9 C8 1_555 1_555
H3 C9 1_555 1_555
C10 C9 1_555 1_555
H4 C10 1_555 1_555
C11 C10 1_555 1_555
H5 C11 1_555 1_555
C12 C11 1_555 1_555
H6 C12 1_555 1_555
C13 C8 1_555 1_555
H7 C13 1_555 1_555
C14 C2 1_555 1_555
C15 C14 1_555 1_555
H8 C15 1_555 1_555
C16 C15 1_555 1_555
H9 C16 1_555 1_555
C17 C16 1_555 1_555
H10 C17 1_555 1_555
C18 C17 1_555 1_555
H11 C18 1_555 1_555
C19 C14 1_555 1_555
H12 C19 1_555 1_555
O4 C20 1_555 1_555
O5 C20 1_555 1_555
O6 C23 1_555 1_555
C20 C21 1_555 1_555
C21 C22 1_555 1_555
C22 C23 1_555 1_555
C23 C24 1_555 1_555
C24 H13 1_555 1_555
H14 C24 1_555 1_555
C25 C24 1_555 1_555
C26 O4 1_555 1_555
C27 C25 1_555 1_555
C28 C27 1_555 1_555
H15 C28 1_555 1_555
C29 C28 1_555 1_555
H16 C29 1_555 1_555
C30 C29 1_555 1_555
H17 C30 1_555 1_555
C31 C30 1_555 1_555
H18 C31 1_555 1_555
C32 C27 1_555 1_555
H19 C32 1_555 1_555
C33 C21 1_555 1_555
C34 C33 1_555 1_555
H20 C34 1_555 1_555
C35 C34 1_555 1_555
H21 C35 1_555 1_555
C36 C35 1_555 1_555
H22 C36 1_555 1_555
C37 C36 1_555 1_555
H23 C37 1_555 1_555
C38 C33 1_555 1_555
H24 C38 1_555 1_555
C3 C7 1_555 1_555
C6 C7 1_555 1_555
C12 C13 1_555 1_555
C18 C19 1_555 1_555
C22 C26 1_555 1_555
C25 C26 1_555 1_555
C31 C32 1_555 1_555
C37 C38 1_555 1_555

#END
