
#######################################################################
#
#                 Cambridge Crystallographic Data Centre
#                                CCDC 
#
#######################################################################
#
# If this CIF has been generated from an entry in the Cambridge 
# Structural Database, then it will include bibliographic, chemical, 
# crystal, experimental, refinement or atomic coordinate data resulting 
# from the CCDC's data processing and validation procedures.
#
#######################################################################

data_MEJPUN
_chemical_formula_moiety         'C10 H11 F1 N2 O4'
_chemical_name_systematic        syn-1,3-Dinitro-2-(4-fluorophenyl)butane
_symmetry_cell_setting           monoclinic
_symmetry_space_group_name_H-M   'P 21'
_symmetry_Int_Tables_number      4
_space_group_name_Hall           'P 2yb'
loop_
_symmetry_equiv_pos_site_id
_symmetry_equiv_pos_as_xyz
1 x,y,z
2 -x,1/2+y,-z
_cell_length_a                   7.5315(15)
_cell_length_b                   19.034(4)
_cell_length_c                   8.1740(16)
_cell_angle_alpha                90
_cell_angle_beta                 104.27(3)
_cell_angle_gamma                90
_cell_volume                     1135.62
_exptl_crystal_colour            colorless
_exptl_crystal_description       block
_chemical_melting_point          129-131deg.C
_cell_formula_units_Z            4
loop_
_atom_site_label
_atom_site_type_symbol
_atom_site_fract_x
_atom_site_fract_y
_atom_site_fract_z
F1 F 0.5290(5) 0.3519(3) 0.6936(4)
O1 O -0.2651(6) 0.4079(3) 0.3306(6)
O2 O -0.2134(6) 0.5056(2) 0.2239(5)
O3 O 0.3453(5) 0.4527(2) -0.0496(5)
O4 O 0.3795(5) 0.3401(2) -0.0059(5)
N1 N -0.2223(5) 0.4426(3) 0.2186(5)
N2 N 0.2868(5) 0.3931(3) -0.0396(5)
C1 C 0.2646(7) 0.4552(3) 0.3453(6)
H1 H 0.2540 0.5015 0.3077
C2 C 0.3915(7) 0.4376(4) 0.4971(7)
H2 H 0.4669 0.4715 0.5608
C3 C 0.4001(8) 0.3699(4) 0.5471(7)
C4 C 0.2998(8) 0.3191(4) 0.4650(7)
H3 H 0.3132 0.2733 0.5055
C5 C 0.1708(7) 0.3356(3) 0.3133(6)
H4 H 0.0955 0.3005 0.2542
C6 C 0.1556(6) 0.4034(2) 0.2521(5)
C7 C 0.0281(6) 0.4226(3) 0.0828(5)
H5 H 0.0374 0.4732 0.0651
C8 C -0.1717(6) 0.4049(3) 0.0797(5)
H6 H -0.2516 0.4190 -0.0274
H7 H -0.1850 0.3547 0.0929
C9 C 0.0801(6) 0.3834(2) -0.0649(5)
H8 H 0.0515 0.3334 -0.0603
C10 C -0.0123(7) 0.4127(3) -0.2374(6)
H9 H 0.0240 0.3858 -0.3229
H10 H 0.0234 0.4608 -0.2441
H11 H -0.1429 0.4101 -0.2542
F2 F 1.0655(5) 0.1961(3) 1.6911(4)
O5 O 0.2656(7) 0.1711(4) 1.2668(8)
O6 O 0.2825(10) 0.0670(5) 1.2989(11)
O7 O 0.8273(7) 0.2270(3) 0.9571(5)
O8 O 0.9211(7) 0.1202(4) 0.9618(7)
N3 N 0.3091(7) 0.1147(3) 1.2269(10)
N4 N 0.8014(7) 0.1678(3) 0.9566(5)
C11 C 0.6924(7) 0.2317(3) 1.3294(6)
H12 H 0.6160 0.2687 1.2824
C12 C 0.8241(9) 0.2405(4) 1.4789(7)
H13 H 0.8409 0.2841 1.5319
C13 C 0.9282(7) 0.1850(4) 1.5473(7)
C14 C 0.9168(8) 0.1210(4) 1.4761(7)
H14 H 0.9940 0.0846 1.5254
C15 C 0.7827(7) 0.1113(3) 1.3233(7)
H15 H 0.7664 0.0674 1.2719
C16 C 0.6764(6) 0.1671(3) 1.2512(6)
C17 C 0.5396(7) 0.1597(3) 1.0809(6)
H16 H 0.4816 0.2056 1.0500
C18 C 0.3847(10) 0.1050(8) 1.0907(9)
H17 H 0.2880 0.1081 0.9876
H18 H 0.4358 0.0580 1.0965
C19 C 0.6227(8) 0.1356(3) 0.9386(6)
H19 H 0.6423 0.0848 0.9517
C20 C 0.5098(8) 0.1481(3) 0.7602(7)
H20 H 0.5730 0.1292 0.6815
H21 H 0.4919 0.1977 0.7412
H22 H 0.3930 0.1254 0.7450
loop_
_geom_bond_atom_site_label_1
_geom_bond_atom_site_label_2
_geom_bond_site_symmetry_1
_geom_bond_site_symmetry_2
F1 C3 1_555 1_555
F2 C13 1_555 1_555
O1 N1 1_555 1_555
O2 N1 1_555 1_555
O3 N2 1_555 1_555
O4 N2 1_555 1_555
O5 N3 1_555 1_555
O6 N3 1_555 1_555
O7 N4 1_555 1_555
O8 N4 1_555 1_555
N1 C8 1_555 1_555
N2 C9 1_555 1_555
N3 C18 1_555 1_555
N4 C19 1_555 1_555
C1 H1 1_555 1_555
C2 C1 1_555 1_555
H2 C2 1_555 1_555
C3 C2 1_555 1_555
C4 C3 1_555 1_555
H3 C4 1_555 1_555
C5 C4 1_555 1_555
H4 C5 1_555 1_555
C6 C1 1_555 1_555
C7 C6 1_555 1_555
H5 C7 1_555 1_555
C8 C7 1_555 1_555
H6 C8 1_555 1_555
H7 C8 1_555 1_555
C9 C7 1_555 1_555
H8 C9 1_555 1_555
C10 C9 1_555 1_555
H9 C10 1_555 1_555
H10 C10 1_555 1_555
H11 C10 1_555 1_555
C11 H12 1_555 1_555
C12 C11 1_555 1_555
H13 C12 1_555 1_555
C13 C12 1_555 1_555
C14 C13 1_555 1_555
H14 C14 1_555 1_555
C15 C14 1_555 1_555
H15 C15 1_555 1_555
C16 C11 1_555 1_555
C17 C16 1_555 1_555
H16 C17 1_555 1_555
C18 C17 1_555 1_555
H17 C18 1_555 1_555
H18 C18 1_555 1_555
C19 C17 1_555 1_555
H19 C19 1_555 1_555
C20 C19 1_555 1_555
H20 C20 1_555 1_555
H21 C20 1_555 1_555
H22 C20 1_555 1_555
C5 C6 1_555 1_555
C15 C16 1_555 1_555

#END
