
#######################################################################
#
#                 Cambridge Crystallographic Data Centre
#                                CCDC 
#
#######################################################################
#
# If this CIF has been generated from an entry in the Cambridge 
# Structural Database, then it will include bibliographic, chemical, 
# crystal, experimental, refinement or atomic coordinate data resulting 
# from the CCDC's data processing and validation procedures.
#
#######################################################################

data_MEJPEX
_chemical_formula_moiety         'C9 H10 Cl1 N1 O2'
_chemical_name_systematic        N-(2-Chloro-5-methoxyphenyl)acetamide
_symmetry_cell_setting           monoclinic
_symmetry_space_group_name_H-M   'P 21/c'
_symmetry_Int_Tables_number      14
_space_group_name_Hall           '-P 2ybc'
loop_
_symmetry_equiv_pos_site_id
_symmetry_equiv_pos_as_xyz
1 x,y,z
2 -x,1/2+y,1/2-z
3 -x,-y,-z
4 x,1/2-y,1/2+z
_cell_length_a                   9.3602(19)
_cell_length_b                   12.290(3)
_cell_length_c                   8.5900(17)
_cell_angle_alpha                90
_cell_angle_beta                 105.34(3)
_cell_angle_gamma                90
_cell_volume                     952.961
_exptl_crystal_colour            colorless
_exptl_crystal_description       block
_cell_formula_units_Z            4
loop_
_atom_site_label
_atom_site_type_symbol
_atom_site_fract_x
_atom_site_fract_y
_atom_site_fract_z
Cl1 Cl 0.84359(10) 0.97888(7) 0.10327(11)
O1 O 0.8111(3) 1.34763(16) 0.2310(2)
O2 O 0.3382(3) 1.19953(18) 0.2469(3)
N1 N 0.7633(3) 1.2137(2) 0.0458(3)
H1 H 0.778(4) 1.186(2) -0.032(3)
C1 C 0.6908(3) 1.0416(2) 0.1440(3)
C2 C 0.6681(3) 1.1523(2) 0.1140(3)
C3 C 0.5464(4) 1.2003(2) 0.1498(3)
H2 H 0.5273 1.2737 0.1271
C4 C 0.4534(4) 1.1417(2) 0.2182(4)
C5 C 0.4781(4) 1.0318(3) 0.2475(4)
H3 H 0.4152 0.9915 0.2930
C6 C 0.5958(4) 0.9822(3) 0.2093(4)
H4 H 0.6116 0.9081 0.2276
C7 C 0.8308(3) 1.3067(2) 0.1083(3)
C8 C 0.9307(4) 1.3557(2) 0.0168(4)
H5 H 0.9302 1.3111 -0.0750
H6 H 1.0296 1.3601 0.0858
H7 H 0.8962 1.4274 -0.0189
C9 C 0.2387(5) 1.1455(3) 0.3202(5)
H8 H 0.1640 1.1957 0.3330
H9 H 0.2921 1.1184 0.4241
H10 H 0.1926 1.0860 0.2532
loop_
_geom_bond_atom_site_label_1
_geom_bond_atom_site_label_2
_geom_bond_site_symmetry_1
_geom_bond_site_symmetry_2
Cl1 C1 1_555 1_555
O1 C7 1_555 1_555
O2 C4 1_555 1_555
N1 H1 1_555 1_555
C1 C2 1_555 1_555
C2 N1 1_555 1_555
C3 C2 1_555 1_555
H2 C3 1_555 1_555
C4 C3 1_555 1_555
C5 C4 1_555 1_555
H3 C5 1_555 1_555
C6 C1 1_555 1_555
H4 C6 1_555 1_555
C7 N1 1_555 1_555
C8 C7 1_555 1_555
H5 C8 1_555 1_555
H6 C8 1_555 1_555
H7 C8 1_555 1_555
C9 O2 1_555 1_555
H8 C9 1_555 1_555
H9 C9 1_555 1_555
H10 C9 1_555 1_555
C5 C6 1_555 1_555

#END
