
#######################################################################
#
#                 Cambridge Crystallographic Data Centre
#                                CCDC 
#
#######################################################################
#
# If this CIF has been generated from an entry in the Cambridge 
# Structural Database, then it will include bibliographic, chemical, 
# crystal, experimental, refinement or atomic coordinate data resulting 
# from the CCDC's data processing and validation procedures.
#
#######################################################################

data_MEJQAU
_chemical_formula_moiety         'C10 H11 Cl1 N2 O4'
_chemical_name_systematic        syn-1,3-Dinitro-2-(4-chlorophenyl)butane
_symmetry_cell_setting           orthorhombic
_symmetry_space_group_name_H-M   'P 21 21 21'
_symmetry_Int_Tables_number      19
_space_group_name_Hall           'P 2ac 2ab'
loop_
_symmetry_equiv_pos_site_id
_symmetry_equiv_pos_as_xyz
1 x,y,z
2 1/2-x,-y,1/2+z
3 -x,1/2+y,1/2-z
4 1/2+x,1/2-y,-z
_cell_length_a                   5.9181(12)
_cell_length_b                   7.2067(14)
_cell_length_c                   28.153(6)
_cell_angle_alpha                90
_cell_angle_beta                 90
_cell_angle_gamma                90
_cell_volume                     1200.72
_exptl_crystal_colour            colorless
_exptl_crystal_description       needle
_chemical_melting_point          98-100deg.C
_cell_formula_units_Z            4
loop_
_atom_site_label
_atom_site_type_symbol
_atom_site_fract_x
_atom_site_fract_y
_atom_site_fract_z
Cl1 Cl 0.53963(18) 0.59091(14) 0.75655(3)
O1 O 0.9640(4) 0.6426(3) 0.97767(7)
O2 O 1.2425(4) 0.7071(3) 0.93281(7)
O3 O 0.6364(5) 1.2341(4) 0.95785(9)
O4 O 0.5739(4) 1.2777(4) 0.88385(9)
N1 N 1.0767(5) 0.7502(4) 0.95515(8)
N2 N 0.6992(6) 1.2540(5) 0.91720(12)
C1 C 0.9946(5) 0.8984(4) 0.82413(9)
H1 H 1.1340 0.9518 0.8174
C2 C 0.8870(6) 0.7971(5) 0.78961(10)
H2 H 0.9537 0.7813 0.7600
C3 C 0.6796(6) 0.7191(5) 0.79915(11)
C4 C 0.5808(5) 0.7390(4) 0.84266(10)
H3 H 0.4417 0.6843 0.8489
C5 C 0.6894(5) 0.8412(4) 0.87722(10)
H4 H 0.6207 0.8559 0.9067
C6 C 0.9006(5) 0.9234(4) 0.86908(10)
C7 C 1.0221(5) 1.0370(3) 0.90620(8)
H5 H 1.1824 1.0349 0.8975
C8 C 1.0071(5) 0.9509(4) 0.95591(8)
H6 H 1.1044 1.0189 0.9775
H7 H 0.8532 0.9608 0.9675
C9 C 0.9527(5) 1.2440(4) 0.90784(10)
H8 H 1.0321 1.3039 0.9343
C10 C 1.0066(6) 1.3478(4) 0.86273(10)
H9 H 0.9583 1.4744 0.8658
H10 H 0.9292 1.2908 0.8366
H11 H 1.1665 1.3443 0.8571
loop_
_geom_bond_atom_site_label_1
_geom_bond_atom_site_label_2
_geom_bond_site_symmetry_1
_geom_bond_site_symmetry_2
Cl1 C3 1_555 1_555
O1 N1 1_555 1_555
O2 N1 1_555 1_555
O3 N2 1_555 1_555
O4 N2 1_555 1_555
N1 C8 1_555 1_555
N2 C9 1_555 1_555
C1 H1 1_555 1_555
C2 C1 1_555 1_555
H2 C2 1_555 1_555
C3 C2 1_555 1_555
C4 C3 1_555 1_555
H3 C4 1_555 1_555
C5 C4 1_555 1_555
H4 C5 1_555 1_555
C6 C1 1_555 1_555
C7 C6 1_555 1_555
H5 C7 1_555 1_555
C8 C7 1_555 1_555
H6 C8 1_555 1_555
H7 C8 1_555 1_555
C9 C7 1_555 1_555
H8 C9 1_555 1_555
C10 C9 1_555 1_555
H9 C10 1_555 1_555
H10 C10 1_555 1_555
H11 C10 1_555 1_555
C5 C6 1_555 1_555

#END
