
#######################################################################
#
#                 Cambridge Crystallographic Data Centre
#                                CCDC 
#
#######################################################################
#
# If this CIF has been generated from an entry in the Cambridge 
# Structural Database, then it will include bibliographic, chemical, 
# crystal, experimental, refinement or atomic coordinate data resulting 
# from the CCDC's data processing and validation procedures.
#
#######################################################################

data_MEJWII
_chemical_compound_source        'Euphorbia wallichil'
_chemical_formula_moiety         'C20 H28 O3'
_chemical_name_systematic        'ent-Trachylobane-3-one-17-oic acid'
_chemical_properties_biological  'potentially blocks osteoclastogenesis'
_symmetry_cell_setting           orthorhombic
_symmetry_space_group_name_H-M   'P 21 21 21'
_symmetry_Int_Tables_number      19
_space_group_name_Hall           'P 2ac 2ab'
loop_
_symmetry_equiv_pos_site_id
_symmetry_equiv_pos_as_xyz
1 x,y,z
2 1/2-x,-y,1/2+z
3 -x,1/2+y,1/2-z
4 1/2+x,1/2-y,-z
_cell_length_a                   9.697(2)
_cell_length_b                   11.333(3)
_cell_length_c                   31.449(9)
_cell_angle_alpha                90
_cell_angle_beta                 90
_cell_angle_gamma                90
_cell_volume                     3456.12
_exptl_crystal_colour            colorless
_exptl_crystal_description       prisms
_chemical_melting_point          218-219deg.C
_cell_formula_units_Z            8
loop_
_atom_site_label
_atom_site_type_symbol
_atom_site_fract_x
_atom_site_fract_y
_atom_site_fract_z
O1 O 0.5770(3) 0.0318(5) 0.74824(12)
O2 O -0.3735(3) -0.0230(3) 0.60298(10)
H1 H -0.439(3) -0.029(4) 0.5862(10)
O3 O -0.3624(3) 0.1604(2) 0.57880(8)
C1 C 0.3404(3) 0.1176(4) 0.66919(10)
H2 H 0.3426 0.0356 0.6605
H3 H 0.3401 0.1658 0.6437
C2 C 0.4705(4) 0.1450(5) 0.69492(13)
H4 H 0.5510 0.1226 0.6785
H5 H 0.4754 0.2293 0.7001
C3 C 0.4723(4) 0.0811(5) 0.73647(14)
C4 C 0.3466(4) 0.0858(4) 0.76438(11)
C5 C 0.2154(3) 0.0678(3) 0.73603(10)
H6 H 0.2224 -0.0141 0.7263
C6 C 0.0810(3) 0.0717(4) 0.76040(10)
H7 H 0.0583 0.1528 0.7673
H8 H 0.0906 0.0283 0.7868
C7 C -0.0343(4) 0.0179(4) 0.73398(11)
H9 H -0.1195 0.0218 0.7501
H10 H -0.0136 -0.0646 0.7290
C8 C -0.0555(3) 0.0793(3) 0.69117(10)
C9 C 0.0842(3) 0.0896(3) 0.66820(9)
H11 H 0.1108 0.0080 0.6620
C10 C 0.2074(3) 0.1407(3) 0.69426(10)
C11 C 0.0632(4) 0.1473(4) 0.62404(11)
H12 H 0.1207 0.2172 0.6222
H13 H 0.0939 0.0927 0.6023
C12 C -0.0848(4) 0.1817(3) 0.61504(11)
H14 H -0.1004 0.2194 0.5874
C13 C -0.1777(4) 0.2203(3) 0.64925(11)
H15 H -0.2451 0.2829 0.6438
C14 C -0.1293(3) 0.1971(3) 0.69433(11)
H16 H -0.2069 0.1924 0.7137
H17 H -0.0671 0.2586 0.7039
C15 C -0.1537(3) 0.0086(3) 0.66220(10)
H18 H -0.1062 -0.0570 0.6489
H19 H -0.2321 -0.0212 0.6781
C16 C -0.1984(3) 0.0986(3) 0.62955(10)
C17 C -0.3172(4) 0.0789(3) 0.60188(11)
C18 C 0.3558(5) -0.0147(4) 0.79688(13)
H20 H 0.3449 -0.0890 0.7826
H21 H 0.2842 -0.0056 0.8177
H22 H 0.4441 -0.0124 0.8107
C19 C 0.3486(5) 0.2023(4) 0.78898(13)
H23 H 0.4232 0.2015 0.8090
H24 H 0.2629 0.2118 0.8039
H25 H 0.3608 0.2666 0.7695
C20 C 0.1925(4) 0.2742(3) 0.70209(12)
H26 H 0.2823 0.3087 0.7054
H27 H 0.1395 0.2872 0.7274
H28 H 0.1466 0.3099 0.6783
O4 O 0.9018(3) 0.3605(2) 0.46015(10)
H29 H 0.976(3) 0.355(6) 0.4475(17)
O5 O 0.9063(3) 0.5512(2) 0.44635(8)
C21 C 0.1976(3) 0.5119(4) 0.53063(12)
H30 H 0.1993 0.5697 0.5079
H31 H 0.1974 0.4343 0.5176
C22 C 0.1914(4) 0.6523(3) 0.61255(11)
C23 C 0.3186(3) 0.6425(3) 0.58214(10)
H32 H 0.3041 0.7036 0.5606
C24 C 0.4545(4) 0.6746(3) 0.60338(11)
H33 H 0.4798 0.6132 0.6234
H34 H 0.4435 0.7477 0.6191
C25 C 0.5691(4) 0.6892(3) 0.57060(12)
H35 H 0.6545 0.7084 0.5851
H36 H 0.5465 0.7545 0.5519
C26 C 0.5903(3) 0.5776(3) 0.54389(10)
C27 C 0.4520(3) 0.5370(3) 0.52541(10)
H37 H 0.4247 0.6003 0.5059
C28 C 0.3289(3) 0.5251(3) 0.55685(10)
C29 C 0.4742(3) 0.4280(3) 0.49640(11)
H38 H 0.4180 0.3635 0.5069
H39 H 0.4427 0.4470 0.4679
C30 C 0.6218(3) 0.3879(3) 0.49412(10)
H40 H 0.6379 0.3183 0.4763
C31 C 0.7158(4) 0.4001(3) 0.53065(10)
H41 H 0.7837 0.3380 0.5363
C32 C 0.6665(4) 0.4772(3) 0.56688(10)
H42 H 0.7435 0.5073 0.5833
H43 H 0.6049 0.4342 0.5856
C33 C 0.6882(3) 0.6015(3) 0.50612(10)
H44 H 0.6400 0.6410 0.4831
H45 H 0.7658 0.6497 0.5149
C34 C 0.7355(3) 0.4805(3) 0.49265(10)
C35 C 0.8536(3) 0.4650(3) 0.46478(10)
C36 C 0.1531(6) 0.7811(4) 0.61875(17)
H46 H 0.1401 0.8177 0.5915
H47 H 0.2258 0.8207 0.6338
H48 H 0.0692 0.7863 0.6349
C37 C 0.2150(6) 0.6039(4) 0.65694(14)
H49 H 0.2387 0.5218 0.6552
H50 H 0.1324 0.6129 0.6735
H51 H 0.2889 0.6464 0.6703
C38 C 0.3427(4) 0.4179(3) 0.58666(12)
H55 H 0.2536 0.3975 0.5978
H56 H 0.4037 0.4371 0.6097
H57 H 0.3794 0.3522 0.5711
O6 O -0.0087(6) 0.5267(8) 0.62541(19)
C39 C 0.0644(7) 0.5271(15) 0.5555(3)
H58 H 0.0086 0.5858 0.5411
H59 H 0.0143 0.4531 0.5545
C40 C 0.0775(9) 0.5623(12) 0.6004(3)
H52? H 0.2013 0.6656 0.6774
H53? H 0.3076 0.5745 0.6592
H54? H 0.1511 0.5410 0.6623
O7? O -0.0387(10) 0.6920(10) 0.5862(4)
C41? C 0.0658(11) 0.5286(16) 0.5561(6)
H60? H -0.0120 0.5288 0.5367
H61? H 0.0547 0.4620 0.5752
C42? C 0.0636(12) 0.6382(13) 0.5812(5)
loop_
_geom_bond_atom_site_label_1
_geom_bond_atom_site_label_2
_geom_bond_site_symmetry_1
_geom_bond_site_symmetry_2
O1 C3 1_555 1_555
O2 H1 1_555 1_555
O3 C17 1_555 1_555
C1 H2 1_555 1_555
H3 C1 1_555 1_555
C2 C1 1_555 1_555
H4 C2 1_555 1_555
H5 C2 1_555 1_555
C3 C2 1_555 1_555
C4 C3 1_555 1_555
C5 C4 1_555 1_555
H6 C5 1_555 1_555
C6 C5 1_555 1_555
H7 C6 1_555 1_555
H8 C6 1_555 1_555
C7 C6 1_555 1_555
H9 C7 1_555 1_555
H10 C7 1_555 1_555
C8 C7 1_555 1_555
C9 C8 1_555 1_555
H11 C9 1_555 1_555
C10 C1 1_555 1_555
C11 C9 1_555 1_555
H12 C11 1_555 1_555
H13 C11 1_555 1_555
C12 C11 1_555 1_555
H14 C12 1_555 1_555
C13 C12 1_555 1_555
H15 C13 1_555 1_555
C14 C8 1_555 1_555
H16 C14 1_555 1_555
H17 C14 1_555 1_555
C15 C8 1_555 1_555
H18 C15 1_555 1_555
H19 C15 1_555 1_555
C16 C12 1_555 1_555
C17 O2 1_555 1_555
C18 C4 1_555 1_555
H20 C18 1_555 1_555
H21 C18 1_555 1_555
H22 C18 1_555 1_555
C19 C4 1_555 1_555
H23 C19 1_555 1_555
H24 C19 1_555 1_555
H25 C19 1_555 1_555
C20 C10 1_555 1_555
H26 C20 1_555 1_555
H27 C20 1_555 1_555
H28 C20 1_555 1_555
O4 H29 1_555 1_555
O5 C35 1_555 1_555
C21 H30 1_555 1_555
H31 C21 1_555 1_555
C22 C23 1_555 1_555
C23 H32 1_555 1_555
C24 C23 1_555 1_555
H33 C24 1_555 1_555
H34 C24 1_555 1_555
C25 C24 1_555 1_555
H35 C25 1_555 1_555
H36 C25 1_555 1_555
C26 C25 1_555 1_555
C27 C26 1_555 1_555
H37 C27 1_555 1_555
C28 C21 1_555 1_555
C29 C27 1_555 1_555
H38 C29 1_555 1_555
H39 C29 1_555 1_555
C30 C29 1_555 1_555
H40 C30 1_555 1_555
C31 C30 1_555 1_555
H41 C31 1_555 1_555
C32 C26 1_555 1_555
H42 C32 1_555 1_555
H43 C32 1_555 1_555
C33 C26 1_555 1_555
H44 C33 1_555 1_555
H45 C33 1_555 1_555
C34 C30 1_555 1_555
C35 O4 1_555 1_555
C36 C22 1_555 1_555
H46 C36 1_555 1_555
H47 C36 1_555 1_555
H48 C36 1_555 1_555
C37 C22 1_555 1_555
H49 C37 1_555 1_555
H50 C37 1_555 1_555
H51 C37 1_555 1_555
C38 C28 1_555 1_555
H55 C38 1_555 1_555
H56 C38 1_555 1_555
H57 C38 1_555 1_555
O6 C40 1_555 1_555
C39 C21 1_555 1_555
H58 C39 1_555 1_555
H59 C39 1_555 1_555
C40 C22 1_555 1_555
C5 C10 1_555 1_555
C9 C10 1_555 1_555
C13 C14 1_555 1_555
C13 C16 1_555 1_555
C15 C16 1_555 1_555
C16 C17 1_555 1_555
C23 C28 1_555 1_555
C27 C28 1_555 1_555
C31 C32 1_555 1_555
C31 C34 1_555 1_555
C33 C34 1_555 1_555
C34 C35 1_555 1_555
C39 C40 1_555 1_555

#END
