
#######################################################################
#
#                 Cambridge Crystallographic Data Centre
#                                CCDC 
#
#######################################################################
#
# If this CIF has been generated from an entry in the Cambridge 
# Structural Database, then it will include bibliographic, chemical, 
# crystal, experimental, refinement or atomic coordinate data resulting 
# from the CCDC's data processing and validation procedures.
#
#######################################################################

data_MEJYIM
_chemical_formula_moiety         'C12 H14 N2 2+,C6 Cl2 O4 2-'
_chemical_name_systematic        
"5,5'-dimethyl-2,2'-bipyridin-1-ium 2,5-dichloro-3,6-dioxocyclohexa-1,4-diene-1,4-diolate"
_symmetry_cell_setting           triclinic
_symmetry_space_group_name_H-M   'P -1'
_symmetry_Int_Tables_number      2
_space_group_name_Hall           '-P 1'
loop_
_symmetry_equiv_pos_site_id
_symmetry_equiv_pos_as_xyz
1 x,y,z
2 -x,-y,-z
_cell_length_a                   4.816(1)
_cell_length_b                   8.078(1)
_cell_length_c                   11.794(2)
_cell_angle_alpha                70.666(6)
_cell_angle_beta                 83.50(1)
_cell_angle_gamma                83.34(1)
_cell_volume                     428.66
_exptl_crystal_colour            'reddish brown'
_exptl_crystal_description       plate
_cell_formula_units_Z            1
loop_
_atom_site_label
_atom_site_type_symbol
_atom_site_fract_x
_atom_site_fract_y
_atom_site_fract_z
Cl1 Cl 0.1222(2) 0.2453(1) 0.94411(7)
O1 O 0.2669(5) 0.6069(3) 0.7892(2)
O2 O 0.4196(5) 0.1778(3) 1.1631(2)
C1 C 0.3286(6) 0.3840(4) 0.9749(2)
C2 C 0.4506(6) 0.3298(3) 1.0823(2)
C3 C 0.3700(7) 0.5512(4) 0.8884(2)
Cl1A Cl 0.8778(2) 0.7547(1) 1.05589(7)
O1A O 0.7331(5) 0.3931(3) 1.2108(2)
O2A O 0.5804(5) 0.8222(3) 0.8369(2)
C1A C 0.6714(6) 0.6160(4) 1.0251(2)
C2A C 0.5494(6) 0.6702(3) 0.9177(2)
C3A C 0.6300(7) 0.4488(4) 1.1116(2)
N1 N 0.3010(6) -0.0093(3) 0.6414(2)
C4 C 0.3772(6) 0.0481(3) 0.5225(2)
C5 C 0.2252(7) 0.1906(3) 0.4487(2)
C6 C -0.0746(6) 0.2163(3) 0.6209(2)
C7 C 0.0839(7) 0.0719(4) 0.6878(3)
C8 C 0.0001(7) 0.2742(4) 0.4980(3)
C9 C -0.314(1) 0.3044(6) 0.6794(4)
H1 H 0.284(6) 0.233(4) 0.361(3)
H2 H -0.108(7) 0.364(4) 0.447(3)
H3 H 0.048(6) 0.029(4) 0.768(3)
H4 H -0.241(9) 0.376(6) 0.711(4)
H5 H -0.45(1) 0.374(6) 0.626(4)
H6 H -0.39(1) 0.219(6) 0.759(5)
H7 H 0.392(7) -0.099(4) 0.693(3)
N1A N 0.6990(6) 0.0093(3) 0.3586(2)
C4A C 0.6228(6) -0.0481(3) 0.4775(2)
C5A C 0.7748(7) -0.1906(3) 0.5513(2)
C6A C 1.0746(6) -0.2163(3) 0.3791(2)
C7A C 0.9161(7) -0.0719(4) 0.3122(3)
C8A C 0.9999(7) -0.2742(4) 0.5020(3)
C9A C 1.314(1) -0.3044(6) 0.3206(4)
H1A H 0.716(6) -0.233(4) 0.639(3)
H2A H 1.108(7) -0.364(4) 0.553(3)
H3A H 0.952(6) -0.029(4) 0.232(3)
H4A H 1.241(9) -0.376(6) 0.289(4)
H5A H 1.45(1) -0.374(6) 0.374(4)
H6A H 1.39(1) -0.219(6) 0.241(5)
H7A H 0.608(7) 0.099(4) 0.307(3)
loop_
_geom_bond_atom_site_label_1
_geom_bond_atom_site_label_2
_geom_bond_site_symmetry_1
_geom_bond_site_symmetry_2
Cl1 C1 1_555 1_555
O1 C3 1_555 1_555
O2 C2 1_555 1_555
C1 C2 1_555 1_555
C2 C3A 1_555 1_555
C3 C1 1_555 1_555
N1 C4 1_555 1_555
C4 C5 1_555 1_555
C5 C8 1_555 1_555
C6 C7 1_555 1_555
C7 N1 1_555 1_555
C8 C6 1_555 1_555
C9 C6 1_555 1_555
H1 C5 1_555 1_555
H2 C8 1_555 1_555
H3 C7 1_555 1_555
H4 C9 1_555 1_555
H5 C9 1_555 1_555
H6 C9 1_555 1_555
H7 N1 1_555 1_555
Cl1A C1A 1_555 1_555
O1A C3A 1_555 1_555
O2A C2A 1_555 1_555
C1A C2A 1_555 1_555
C2A C3 1_555 1_555
C3A C1A 1_555 1_555
N1A C4A 1_555 1_555
C4A C4 1_555 1_555
C5A C4A 1_555 1_555
C6A C7A 1_555 1_555
C7A N1A 1_555 1_555
C8A C5A 1_555 1_555
C9A C6A 1_555 1_555
H1A C5A 1_555 1_555
H2A C8A 1_555 1_555
H3A C7A 1_555 1_555
H4A C9A 1_555 1_555
H5A C9A 1_555 1_555
H6A C9A 1_555 1_555
H7A N1A 1_555 1_555
C6A C8A 1_555 1_555

#END
