
#######################################################################
#
#                 Cambridge Crystallographic Data Centre
#                                CCDC 
#
#######################################################################
#
# If this CIF has been generated from an entry in the Cambridge 
# Structural Database, then it will include bibliographic, chemical, 
# crystal, experimental, refinement or atomic coordinate data resulting 
# from the CCDC's data processing and validation procedures.
#
#######################################################################

data_MEKJOC
_chemical_formula_moiety         'C30 H33 B1 F2 N4'
_chemical_name_systematic        
(3-Methyl-5-(4-(dimethylamino)styryl)-2-((4-(dimethylamino)phenyl)(3,5-dimethylpyrrol-2-ylidene)methyl)-1H-pyrrolato-N,N')-difluoro-boron
_symmetry_cell_setting           monoclinic
_symmetry_space_group_name_H-M   'P 21/c'
_symmetry_Int_Tables_number      14
_space_group_name_Hall           '-P 2ybc'
loop_
_symmetry_equiv_pos_site_id
_symmetry_equiv_pos_as_xyz
1 x,y,z
2 -x,1/2+y,1/2-z
3 -x,-y,-z
4 x,1/2-y,1/2+z
_cell_length_a                   19.299(4)
_cell_length_b                   6.5714(14)
_cell_length_c                   21.040(5)
_cell_angle_alpha                90
_cell_angle_beta                 97.179(5)
_cell_angle_gamma                90
_cell_volume                     2647.41
_exptl_crystal_colour            brown
_exptl_crystal_description       needle
_chemical_melting_point          'above 250 deg.C'
_cell_formula_units_Z            4
_exptl_crystal_recrystallization_method chloroform/methanol
loop_
_atom_site_label
_atom_site_type_symbol
_atom_site_fract_x
_atom_site_fract_y
_atom_site_fract_z
B1 B 0.79060(15) -0.1264(5) 0.46710(13)
C1 C 0.80110(13) -0.3803(4) 0.55249(11)
C2 C 0.77757(13) -0.4333(4) 0.61317(12)
H1 H 0.7939 -0.5374 0.6410
C3 C 0.72530(13) -0.2943(4) 0.62033(12)
C4 C 0.72512(13) -0.1640(4) 0.56394(12)
C5 C 0.68204(14) 0.0064(4) 0.54753(12)
C6 C 0.69584(13) 0.1149(4) 0.49156(11)
C7 C 0.65882(13) 0.2971(4) 0.46627(12)
C8 C 0.69050(13) 0.3420(4) 0.41264(12)
H2 H 0.6805 0.4499 0.3844
C9 C 0.74302(13) 0.1837(4) 0.40993(12)
C10 C 0.62288(13) 0.0612(4) 0.58298(12)
C11 C 0.55920(13) -0.0395(4) 0.57024(12)
H3 H 0.5547 -0.1462 0.5410
C12 C 0.50200(14) 0.0172(4) 0.60078(12)
H4 H 0.4601 -0.0531 0.5914
C13 C 0.50602(14) 0.1843(4) 0.64708(12)
C14 C 0.57162(14) 0.2732(4) 0.66052(12)
H5 H 0.5778 0.3747 0.6915
C15 C 0.62868(14) 0.2155(4) 0.62999(12)
H6 H 0.6714 0.2800 0.6408
C16 C 0.78938(13) 0.1719(4) 0.35870(11)
H7 H 0.8182 0.0583 0.3595
C17 C 0.79439(13) 0.3051(4) 0.31179(11)
H8 H 0.7635 0.4143 0.3094
C18 C 0.84196(13) 0.2996(4) 0.26445(12)
C19 C 0.84282(14) 0.4505(4) 0.21885(12)
H9 H 0.8096 0.5534 0.2181
C20 C 0.88981(13) 0.4590(4) 0.17415(12)
H10 H 0.8865 0.5634 0.1441
C21 C 0.94302(13) 0.3090(4) 0.17393(12)
C22 C 0.94035(13) 0.1407(4) 0.21875(11)
H11 H 0.9716 0.0330 0.2187
C23 C 0.89031(12) 0.1423(4) 0.26262(11)
H12 H 0.8896 0.0347 0.2912
C24 C 0.59974(13) 0.4207(4) 0.48643(12)
H13 H 0.6175 0.5117 0.5203
H14 H 0.5658 0.3315 0.5013
H15 H 0.5782 0.4980 0.4506
C25 C 0.68317(13) -0.2765(4) 0.67539(12)
H16 H 0.6807 -0.4068 0.6956
H17 H 0.6369 -0.2310 0.6599
H18 H 0.7050 -0.1802 0.7059
C26 C 0.86035(12) -0.5074(4) 0.52906(11)
H19 H 0.8415 -0.6321 0.5105
H20 H 0.8950 -0.5375 0.5646
H21 H 0.8814 -0.4315 0.4975
C27 C 0.38646(13) 0.1324(4) 0.66140(12)
H22 H 0.3787 0.0945 0.6170
H23 H 0.3496 0.2209 0.6710
H24 H 0.3871 0.0125 0.6875
C28 C 0.45499(13) 0.4008(4) 0.71422(11)
H25 H 0.4828 0.3663 0.7538
H26 H 0.4092 0.4412 0.7227
H27 H 0.4766 0.5110 0.6941
C29 C 1.04108(13) 0.1557(4) 0.13180(12)
H28 H 1.0751 0.1648 0.1691
H29 H 1.0637 0.1725 0.0940
H30 H 1.0188 0.0250 0.1308
C30 C 0.99264(14) 0.4705(4) 0.09108(12)
H31 H 0.9606 0.4437 0.0533
H32 H 1.0390 0.4844 0.0796
H33 H 0.9794 0.5940 0.1107
F1 F 0.85852(7) -0.0683(2) 0.47587(6)
F2 F 0.78049(7) -0.2539(2) 0.41639(6)
N1 N 0.77224(11) -0.2242(3) 0.52563(10)
N2 N 0.74457(10) 0.0540(3) 0.45575(9)
N3 N 0.44964(11) 0.2321(3) 0.67376(10)
N4 N 0.99096(11) 0.3091(3) 0.13418(10)
loop_
_geom_bond_atom_site_label_1
_geom_bond_atom_site_label_2
_geom_bond_site_symmetry_1
_geom_bond_site_symmetry_2
B1 F1 1_555 1_555
C1 C2 1_555 1_555
C2 H1 1_555 1_555
C3 C2 1_555 1_555
C4 C3 1_555 1_555
C5 C4 1_555 1_555
C6 C5 1_555 1_555
C7 C6 1_555 1_555
C8 C7 1_555 1_555
H2 C8 1_555 1_555
C9 C8 1_555 1_555
C10 C5 1_555 1_555
C11 C10 1_555 1_555
H3 C11 1_555 1_555
C12 C11 1_555 1_555
H4 C12 1_555 1_555
C13 C12 1_555 1_555
C14 C13 1_555 1_555
H5 C14 1_555 1_555
C15 C10 1_555 1_555
H6 C15 1_555 1_555
C16 C9 1_555 1_555
H7 C16 1_555 1_555
C17 C16 1_555 1_555
H8 C17 1_555 1_555
C18 C17 1_555 1_555
C19 C18 1_555 1_555
H9 C19 1_555 1_555
C20 C19 1_555 1_555
H10 C20 1_555 1_555
C21 C20 1_555 1_555
C22 C21 1_555 1_555
H11 C22 1_555 1_555
C23 C18 1_555 1_555
H12 C23 1_555 1_555
C24 C7 1_555 1_555
H13 C24 1_555 1_555
H14 C24 1_555 1_555
H15 C24 1_555 1_555
C25 C3 1_555 1_555
H16 C25 1_555 1_555
H17 C25 1_555 1_555
H18 C25 1_555 1_555
C26 C1 1_555 1_555
H19 C26 1_555 1_555
H20 C26 1_555 1_555
H21 C26 1_555 1_555
C27 H22 1_555 1_555
H23 C27 1_555 1_555
H24 C27 1_555 1_555
C28 H25 1_555 1_555
H26 C28 1_555 1_555
H27 C28 1_555 1_555
C29 H28 1_555 1_555
H29 C29 1_555 1_555
H30 C29 1_555 1_555
C30 H31 1_555 1_555
H32 C30 1_555 1_555
H33 C30 1_555 1_555
F2 B1 1_555 1_555
N1 B1 1_555 1_555
N2 B1 1_555 1_555
N3 C13 1_555 1_555
N4 C21 1_555 1_555
C1 N1 1_555 1_555
C4 N1 1_555 1_555
C6 N2 1_555 1_555
C9 N2 1_555 1_555
C14 C15 1_555 1_555
C22 C23 1_555 1_555
C27 N3 1_555 1_555
C28 N3 1_555 1_555
C29 N4 1_555 1_555
C30 N4 1_555 1_555

#END
