
#######################################################################
#
#                 Cambridge Crystallographic Data Centre
#                                CCDC 
#
#######################################################################
#
# If this CIF has been generated from an entry in the Cambridge 
# Structural Database, then it will include bibliographic, chemical, 
# crystal, experimental, refinement or atomic coordinate data resulting 
# from the CCDC's data processing and validation procedures.
#
#######################################################################

data_MEKJUJ
_chemical_formula_moiety         'C15 H13 N5 O5'
_chemical_name_systematic        
(Z)-5-(2-(4-Methoxy-2-nitrophenyl)hydrazono)-1,4-dimethyl-2,6-dioxo-1,2,5,6-tetrahydropyridine-3-carbonitrile
_symmetry_cell_setting           orthorhombic
_symmetry_space_group_name_H-M   'P c a 21'
_symmetry_Int_Tables_number      29
_space_group_name_Hall           'P 2c -2ac'
loop_
_symmetry_equiv_pos_site_id
_symmetry_equiv_pos_as_xyz
1 x,y,z
2 -x,-y,1/2+z
3 1/2+x,-y,z
4 1/2-x,y,1/2+z
_cell_length_a                   16.8753(14)
_cell_length_b                   8.0175(7)
_cell_length_c                   11.2187(9)
_cell_angle_alpha                90
_cell_angle_beta                 90
_cell_angle_gamma                90
_cell_volume                     1517.86
_exptl_crystal_colour            red
_exptl_crystal_description       block
_chemical_melting_point          'above 250 deg.C'
_cell_formula_units_Z            4
_exptl_crystal_recrystallization_method N,N-dimethylformamide
loop_
_atom_site_label
_atom_site_type_symbol
_atom_site_fract_x
_atom_site_fract_y
_atom_site_fract_z
C1 C 0.36085(19) 0.7300(4) 0.4244(3)
C2 C 0.37482(19) 0.8971(4) 0.6065(3)
C3 C 0.28834(19) 0.9137(4) 0.6099(3)
C4 C 0.23957(17) 0.8400(4) 0.5300(3)
C5 C 0.27386(17) 0.7398(4) 0.4381(3)
C6 C 0.49303(16) 0.7953(5) 0.4990(4)
H1 H 0.5085 0.8080 0.4153
H2 H 0.5103 0.6859 0.5281
H3 H 0.5181 0.8832 0.5466
C7 C 0.2572(2) 1.0124(4) 0.7052(3)
C8 C 0.15095(18) 0.8612(4) 0.5340(3)
H4 H 0.1367 0.9343 0.6006
H5 H 0.1258 0.7521 0.5447
H6 H 0.1327 0.9111 0.4591
C9 C 0.19633(18) 0.4852(4) 0.2060(3)
C10 C 0.21891(17) 0.3997(4) 0.1026(3)
C11 C 0.16437(16) 0.3273(4) 0.0252(3)
H7 H 0.1814 0.2706 -0.0446
C12 C 0.08429(19) 0.3400(4) 0.0528(3)
C13 C 0.06078(18) 0.4162(4) 0.1580(3)
H8 H 0.0061 0.4192 0.1783
C14 C 0.11500(19) 0.4870(4) 0.2330(3)
H9 H 0.0974 0.5383 0.3046
C15 C 0.0472(2) 0.2139(5) -0.1314(3)
H10 H 0.0833 0.1194 -0.1203
H11 H 0.0736 0.3004 -0.1785
H12 H -0.0006 0.1761 -0.1732
N1 N 0.40603(13) 0.8087(3) 0.5095(3)
N2 N 0.23019(18) 1.0905(4) 0.7814(3)
N3 N 0.22372(15) 0.6597(3) 0.3675(2)
N4 N 0.25042(15) 0.5657(3) 0.2804(2)
H13 H 0.3017 0.5536 0.2691
N5 N 0.30235(16) 0.3776(4) 0.0696(3)
O1 O 0.39259(12) 0.6538(3) 0.3423(2)
O2 O 0.41772(14) 0.9588(3) 0.6813(2)
O3 O 0.35396(13) 0.4495(3) 0.1293(2)
O4 O 0.31844(12) 0.2888(3) -0.0140(3)
O5 O 0.02545(12) 0.2808(3) -0.0170(2)
loop_
_geom_bond_atom_site_label_1
_geom_bond_atom_site_label_2
_geom_bond_site_symmetry_1
_geom_bond_site_symmetry_2
C1 C5 1_555 1_555
C2 C3 1_555 1_555
C3 C4 1_555 1_555
C4 C5 1_555 1_555
C5 N3 1_555 1_555
C6 H1 1_555 1_555
H2 C6 1_555 1_555
H3 C6 1_555 1_555
C7 C3 1_555 1_555
C8 C4 1_555 1_555
H4 C8 1_555 1_555
H5 C8 1_555 1_555
H6 C8 1_555 1_555
C9 C10 1_555 1_555
C10 C11 1_555 1_555
C11 H7 1_555 1_555
C12 C11 1_555 1_555
C13 C12 1_555 1_555
H8 C13 1_555 1_555
C14 C9 1_555 1_555
H9 C14 1_555 1_555
C15 H10 1_555 1_555
H11 C15 1_555 1_555
H12 C15 1_555 1_555
N1 C1 1_555 1_555
N2 C7 1_555 1_555
N3 N4 1_555 1_555
N4 C9 1_555 1_555
H13 N4 1_555 1_555
N5 C10 1_555 1_555
O1 C1 1_555 1_555
O2 C2 1_555 1_555
O3 N5 1_555 1_555
O4 N5 1_555 1_555
O5 C12 1_555 1_555
C2 N1 1_555 1_555
C6 N1 1_555 1_555
C13 C14 1_555 1_555
C15 O5 1_555 1_555

#END
