
#######################################################################
#
#                 Cambridge Crystallographic Data Centre
#                                CCDC 
#
#######################################################################
#
# If this CIF has been generated from an entry in the Cambridge 
# Structural Database, then it will include bibliographic, chemical, 
# crystal, experimental, refinement or atomic coordinate data resulting 
# from the CCDC's data processing and validation procedures.
#
#######################################################################

data_MEKKAQ
_chemical_formula_moiety         'C16 H15 N5 O5'
_chemical_name_systematic        
(Z)-1-Ethyl-5-(2-(4-methoxy-2-nitrophenyl)hydrazono)-4-methyl-2,6-dioxo-1,2,5,6-tetrahydropyridine-3-carbonitrile
_symmetry_cell_setting           monoclinic
_symmetry_space_group_name_H-M   'P 21/c'
_symmetry_Int_Tables_number      14
_space_group_name_Hall           '-P 2ybc'
loop_
_symmetry_equiv_pos_site_id
_symmetry_equiv_pos_as_xyz
1 x,y,z
2 -x,1/2+y,1/2-z
3 -x,-y,-z
4 x,1/2-y,1/2+z
_cell_length_a                   6.4252(5)
_cell_length_b                   13.5443(11)
_cell_length_c                   19.5352(16)
_cell_angle_alpha                90
_cell_angle_beta                 105.3640(10)
_cell_angle_gamma                90
_cell_volume                     1639.29
_exptl_crystal_colour            red
_exptl_crystal_description       block
_chemical_melting_point          'above 250 deg.C'
_cell_formula_units_Z            4
_exptl_crystal_recrystallization_method N,N-dimethylformamide
loop_
_atom_site_label
_atom_site_type_symbol
_atom_site_fract_x
_atom_site_fract_y
_atom_site_fract_z
C1 C 0.1308(2) 0.37381(10) 0.36873(7)
C2 C -0.1820(2) 0.48193(12) 0.32587(8)
C3 C -0.3096(2) 0.39472(11) 0.29710(7)
C4 C -0.2291(2) 0.30187(10) 0.30124(7)
C5 C -0.0042(2) 0.28876(10) 0.33862(7)
C6 C 0.3330(2) 0.07852(10) 0.38642(7)
C7 C 0.1823(2) 0.00323(11) 0.36303(7)
H1 H 0.0362 0.0198 0.3411
C8 C 0.2415(2) -0.09391(11) 0.37123(7)
H2 H 0.1357 -0.1437 0.3551
C9 C 0.4544(2) -0.12112(10) 0.40277(7)
C10 C 0.6080(2) -0.04874(10) 0.42614(7)
H3 H 0.7540 -0.0661 0.4476
C11 C 0.5469(2) 0.04972(10) 0.41790(6)
C12 C 0.7132(3) -0.25158(12) 0.43264(9)
H4 H 0.7990 -0.2233 0.4028
H5 H 0.7195 -0.3238 0.4309
H6 H 0.7713 -0.2293 0.4817
C13 C -0.3621(2) 0.21513(11) 0.26800(8)
H7 H -0.5148 0.2286 0.2639
H8 H -0.3169 0.1566 0.2977
H9 H -0.3418 0.2034 0.2207
C14 C -0.5334(2) 0.41362(12) 0.26154(8)
C15 C 0.1757(3) 0.55302(11) 0.38536(9)
H10 H 0.1109 0.6122 0.3582
H11 H 0.3189 0.5421 0.3767
C16 C 0.2046(3) 0.57182(13) 0.46328(10)
H12 H 0.0636 0.5840 0.4721
H13 H 0.2975 0.6296 0.4780
H14 H 0.2717 0.5140 0.4906
N1 N 0.03629(19) 0.46626(8) 0.35933(6)
N2 N -0.7107(2) 0.42574(12) 0.23291(7)
N3 N 0.06642(17) 0.19664(8) 0.34423(6)
N4 N 0.26743(17) 0.17716(8) 0.37813(6)
H15 H 0.3588 0.2251 0.3952
N5 N 0.71792(17) 0.12199(9) 0.44391(6)
O1 O 0.32168(15) 0.36488(7) 0.40137(5)
O2 O -0.2588(2) 0.56457(8) 0.32072(7)
O3 O 0.67239(16) 0.21014(7) 0.44437(6)
O4 O 0.90451(15) 0.09250(8) 0.46364(6)
O5 O 0.49418(17) -0.21995(7) 0.40717(6)
loop_
_geom_bond_atom_site_label_1
_geom_bond_atom_site_label_2
_geom_bond_site_symmetry_1
_geom_bond_site_symmetry_2
C1 C5 1_555 1_555
C2 C3 1_555 1_555
C3 C4 1_555 1_555
C4 C5 1_555 1_555
C5 N3 1_555 1_555
C6 C7 1_555 1_555
C7 H1 1_555 1_555
C8 C7 1_555 1_555
H2 C8 1_555 1_555
C9 C8 1_555 1_555
C10 C9 1_555 1_555
H3 C10 1_555 1_555
C11 C6 1_555 1_555
C12 H4 1_555 1_555
H5 C12 1_555 1_555
H6 C12 1_555 1_555
C13 C4 1_555 1_555
H7 C13 1_555 1_555
H8 C13 1_555 1_555
H9 C13 1_555 1_555
C14 C3 1_555 1_555
C15 H10 1_555 1_555
H11 C15 1_555 1_555
C16 C15 1_555 1_555
H12 C16 1_555 1_555
H13 C16 1_555 1_555
H14 C16 1_555 1_555
N1 C1 1_555 1_555
N2 C14 1_555 1_555
N3 N4 1_555 1_555
N4 C6 1_555 1_555
H15 N4 1_555 1_555
N5 C11 1_555 1_555
O1 C1 1_555 1_555
O2 C2 1_555 1_555
O3 N5 1_555 1_555
O4 N5 1_555 1_555
O5 C9 1_555 1_555
C2 N1 1_555 1_555
C10 C11 1_555 1_555
C12 O5 1_555 1_555
C15 N1 1_555 1_555

#END
