
#######################################################################
#
#                 Cambridge Crystallographic Data Centre
#                                CCDC 
#
#######################################################################
#
# If this CIF has been generated from an entry in the Cambridge 
# Structural Database, then it will include bibliographic, chemical, 
# crystal, experimental, refinement or atomic coordinate data resulting 
# from the CCDC's data processing and validation procedures.
#
#######################################################################

data_MEKKAR
_chemical_formula_moiety         'C46 H40 N2'
_chemical_name_systematic        
N,N,N',N'-tetrakis(1-naphthylmethyl)ethane-1,2-diamine
_symmetry_cell_setting           triclinic
_symmetry_space_group_name_H-M   'P -1'
_symmetry_Int_Tables_number      2
_space_group_name_Hall           '-P 1'
loop_
_symmetry_equiv_pos_site_id
_symmetry_equiv_pos_as_xyz
1 x,y,z
2 -x,-y,-z
_cell_length_a                   7.6068(4)
_cell_length_b                   10.3412(5)
_cell_length_c                   11.5818(5)
_cell_angle_alpha                89.597(3)
_cell_angle_beta                 85.005(3)
_cell_angle_gamma                68.973(3)
_cell_volume                     846.881
_exptl_crystal_colour            colorless
_exptl_crystal_description       block
_cell_formula_units_Z            1
_exptl_crystal_recrystallization_method methanol
_exptl_crystal_preparation       Luminescent
loop_
_atom_site_label
_atom_site_type_symbol
_atom_site_fract_x
_atom_site_fract_y
_atom_site_fract_z
C1 C 1.0552(3) -0.1479(2) 0.60475(18)
C2 C 0.5787(3) 0.3886(3) 0.85854(17)
N1 N 0.8469(2) 0.07076(17) 0.87786(14)
C3 C 1.0186(3) -0.0426(2) 0.69134(17)
C4 C 1.2305(4) -0.1927(3) 0.53502(19)
C5 C 0.5352(3) 0.2652(3) 0.87145(18)
C6 C 0.8350(3) 0.0059(3) 0.76827(18)
H1 H 0.7378 0.0719 0.7266
H2 H 0.7969 -0.0728 0.7850
C7 C 0.7396(4) 0.4033(3) 0.9021(2)
H3 H 0.8234 0.3297 0.9392
C8 C 0.4543(4) 0.5033(3) 0.8018(2)
C9 C 0.9245(4) -0.2129(2) 0.58392(19)
H4 H 0.8077 -0.1853 0.6272
C10 C 1.3226(4) -0.0271(3) 0.6328(2)
H5 H 1.4103 0.0147 0.6424
C11 C 1.1508(4) 0.0171(3) 0.7027(2)
H6 H 1.1261 0.0880 0.7577
C12 C 0.6569(3) 0.1445(3) 0.93490(19)
H7 H 0.6698 0.1770 1.0109
H8 H 0.5924 0.0791 0.9463
C13 C 0.9687(4) -0.3147(3) 0.5015(2)
H9 H 0.8807 -0.3553 0.4892
C14 C 1.2697(4) -0.3011(3) 0.4519(2)
H10 H 1.3861 -0.3325 0.4081
C15 C 0.3766(4) 0.2620(3) 0.8286(2)
H11 H 0.3475 0.1823 0.8378
C16 C 0.2553(4) 0.3726(5) 0.7714(3)
H12 H 0.1492 0.3651 0.7421
C17 C 0.7720(4) 0.5230(4) 0.8903(2)
H13 H 0.8772 0.5315 0.9199
C18 C 0.4929(6) 0.6236(4) 0.7902(2)
H14 H 0.4118 0.6978 0.7523
C19 C 1.1410(5) -0.3599(3) 0.4349(2)
H15 H 1.1680 -0.4302 0.3791
C20 C 1.3627(4) -0.1290(3) 0.5522(2)
H16 H 1.4782 -0.1578 0.5074
C21 C 0.6469(7) 0.6356(4) 0.8331(3)
H17 H 0.6703 0.7176 0.8249
C22 C 0.2914(4) 0.4895(4) 0.7587(2)
H18 H 0.2088 0.5632 0.7211
C23 C 0.9604(3) -0.0321(2) 0.95525(18)
H19 H 1.0639 -0.1013 0.9095
H20 H 0.8826 -0.0786 0.9944
C1A C 0.9448(3) 0.1479(2) 1.39525(18)
C2A C 1.4213(3) -0.3886(3) 1.14146(17)
N1A N 1.1531(2) -0.07076(17) 1.12214(14)
C3A C 0.9814(3) 0.0426(2) 1.30866(17)
C4A C 0.7695(4) 0.1927(3) 1.46498(19)
C5A C 1.4648(3) -0.2652(3) 1.12855(18)
C6A C 1.1650(3) -0.0059(3) 1.23173(18)
H1A H 1.2622 -0.0719 1.2734
H2A H 1.2031 0.0728 1.2150
C7A C 1.2604(4) -0.4033(3) 1.0979(2)
H3A H 1.1766 -0.3297 1.0608
C8A C 1.5457(4) -0.5033(3) 1.1982(2)
C9A C 1.0755(4) 0.2129(2) 1.41608(19)
H4A H 1.1923 0.1853 1.3728
C10A C 0.6774(4) 0.0271(3) 1.3672(2)
H5A H 0.5897 -0.0147 1.3576
C11A C 0.8492(4) -0.0171(3) 1.2973(2)
H6A H 0.8739 -0.0880 1.2423
C12A C 1.3431(3) -0.1445(3) 1.06510(19)
H7A H 1.3302 -0.1770 0.9891
H8A H 1.4076 -0.0791 1.0537
C13A C 1.0313(4) 0.3147(3) 1.4985(2)
H9A H 1.1193 0.3553 1.5108
C14A C 0.7303(4) 0.3011(3) 1.5481(2)
H10A H 0.6139 0.3325 1.5919
C15A C 1.6234(4) -0.2620(3) 1.1714(2)
H11A H 1.6525 -0.1823 1.1622
C16A C 1.7447(4) -0.3726(5) 1.2286(3)
H12A H 1.8508 -0.3651 1.2579
C17A C 1.2280(4) -0.5230(4) 1.1097(2)
H13A H 1.1228 -0.5315 1.0801
C18A C 1.5071(6) -0.6236(4) 1.2098(2)
H14A H 1.5882 -0.6978 1.2477
C19A C 0.8590(5) 0.3599(3) 1.5651(2)
H15A H 0.8320 0.4302 1.6209
C20A C 0.6373(4) 0.1290(3) 1.4478(2)
H16A H 0.5218 0.1578 1.4926
C21A C 1.3531(7) -0.6356(4) 1.1669(3)
H17A H 1.3297 -0.7176 1.1751
C22A C 1.7086(4) -0.4895(4) 1.2413(2)
H18A H 1.7912 -0.5632 1.2789
C23A C 1.0396(3) 0.0321(2) 1.04475(18)
H19A H 0.9361 0.1013 1.0905
H20A H 1.1174 0.0786 1.0056
loop_
_geom_bond_atom_site_label_1
_geom_bond_atom_site_label_2
_geom_bond_site_symmetry_1
_geom_bond_site_symmetry_2
C1 C3 1_555 1_555
C2 C5 1_555 1_555
N1 C6 1_555 1_555
C3 C6 1_555 1_555
C4 C1 1_555 1_555
C5 C12 1_555 1_555
C6 H1 1_555 1_555
H2 C6 1_555 1_555
C7 C2 1_555 1_555
H3 C7 1_555 1_555
C8 C2 1_555 1_555
C9 C1 1_555 1_555
H4 C9 1_555 1_555
C10 H5 1_555 1_555
C11 C3 1_555 1_555
H6 C11 1_555 1_555
C12 N1 1_555 1_555
H7 C12 1_555 1_555
H8 C12 1_555 1_555
C13 C9 1_555 1_555
H9 C13 1_555 1_555
C14 C4 1_555 1_555
H10 C14 1_555 1_555
C15 C5 1_555 1_555
H11 C15 1_555 1_555
C16 C15 1_555 1_555
H12 C16 1_555 1_555
C17 C7 1_555 1_555
H13 C17 1_555 1_555
C18 C8 1_555 1_555
H14 C18 1_555 1_555
C19 C13 1_555 1_555
H15 C19 1_555 1_555
C20 C4 1_555 1_555
H16 C20 1_555 1_555
C21 C17 1_555 1_555
H17 C21 1_555 1_555
C22 C8 1_555 1_555
H18 C22 1_555 1_555
C23 N1 1_555 1_555
H19 C23 1_555 1_555
H20 C23 1_555 1_555
C1A C3A 1_555 1_555
C2A C5A 1_555 1_555
N1A C6A 1_555 1_555
C3A C6A 1_555 1_555
C4A C1A 1_555 1_555
C5A C12A 1_555 1_555
C6A H1A 1_555 1_555
H2A C6A 1_555 1_555
C7A C2A 1_555 1_555
H3A C7A 1_555 1_555
C8A C2A 1_555 1_555
C9A C1A 1_555 1_555
H4A C9A 1_555 1_555
C10A H5A 1_555 1_555
C11A C3A 1_555 1_555
H6A C11A 1_555 1_555
C12A N1A 1_555 1_555
H7A C12A 1_555 1_555
H8A C12A 1_555 1_555
C13A C9A 1_555 1_555
H9A C13A 1_555 1_555
C14A C4A 1_555 1_555
H10A C14A 1_555 1_555
C15A C5A 1_555 1_555
H11A C15A 1_555 1_555
C16A C15A 1_555 1_555
H12A C16A 1_555 1_555
C17A C7A 1_555 1_555
H13A C17A 1_555 1_555
C18A C8A 1_555 1_555
H14A C18A 1_555 1_555
C19A C13A 1_555 1_555
H15A C19A 1_555 1_555
C20A C4A 1_555 1_555
H16A C20A 1_555 1_555
C21A C17A 1_555 1_555
H17A C21A 1_555 1_555
C22A C8A 1_555 1_555
H18A C22A 1_555 1_555
C23A C23 1_555 1_555
H19A C23A 1_555 1_555
H20A C23A 1_555 1_555
C10 C11 1_555 1_555
C10 C20 1_555 1_555
C14 C19 1_555 1_555
C16 C22 1_555 1_555
C18 C21 1_555 1_555
N1A C23A 1_555 1_555
C10A C11A 1_555 1_555
C10A C20A 1_555 1_555
C14A C19A 1_555 1_555
C16A C22A 1_555 1_555
C18A C21A 1_555 1_555

#END
