
#######################################################################
#
#                 Cambridge Crystallographic Data Centre
#                                CCDC 
#
#######################################################################
#
# If this CIF has been generated from an entry in the Cambridge 
# Structural Database, then it will include bibliographic, chemical, 
# crystal, experimental, refinement or atomic coordinate data resulting 
# from the CCDC's data processing and validation procedures.
#
#######################################################################

data_MEKKIW
_chemical_formula_moiety         '3(C12 H24 N1 1+),C9 H3 O6 3-,2.5(C3 H8 O1)'
_chemical_name_systematic        
'tris(Dicyclohexylammonium) trimesate isopropanol clathrate'
_symmetry_cell_setting           triclinic
_symmetry_space_group_name_H-M   'P -1'
_symmetry_Int_Tables_number      2
_space_group_name_Hall           '-P 1'
loop_
_symmetry_equiv_pos_site_id
_symmetry_equiv_pos_as_xyz
1 x,y,z
2 -x,-y,-z
_cell_length_a                   10.5401(6)
_cell_length_b                   15.815(1)
_cell_length_c                   18.711(1)
_cell_angle_alpha                107.648(1)
_cell_angle_beta                 105.627(1)
_cell_angle_gamma                97.211(1)
_cell_volume                     2788.41
_exptl_crystal_colour            colorless
_exptl_crystal_description       block
_cell_formula_units_Z            2
_exptl_crystal_recrystallization_method acetone/isopropanol
loop_
_atom_site_label
_atom_site_type_symbol
_atom_site_fract_x
_atom_site_fract_y
_atom_site_fract_z
O1 O 0.8627(2) 0.63987(11) 0.01292(10)
O2 O 0.9785(2) 0.62242(13) 0.12432(11)
O3 O 0.9632(2) 0.81230(13) 0.38276(10)
O4 O 0.8584(2) 0.92651(12) 0.39066(10)
O5 O 0.5689(2) 0.95105(13) 0.14349(11)
O6 O 0.5950(2) 0.87741(13) 0.02876(11)
C1 C 0.8569(2) 0.7389(2) 0.13532(14)
C2 C 0.8978(2) 0.7646(2) 0.21779(14)
H7 H 0.9580(2) 0.7349(2) 0.24347(14)
C3 C 0.8509(2) 0.8334(2) 0.26265(14)
C4 C 0.7624(2) 0.8758(2) 0.22452(14)
H8 H 0.7295(2) 0.9223(2) 0.25496(14)
C5 C 0.7211(2) 0.8517(2) 0.14298(14)
C6 C 0.7695(2) 0.78379(15) 0.09845(14)
H9 H 0.7429(2) 0.76783(15) 0.04249(14)
C7 C 0.9034(3) 0.6611(2) 0.0867(2)
C8 C 0.8944(3) 0.8599(2) 0.35184(15)
C9 C 0.6206(2) 0.8971(2) 0.10173(15)
N1 N 0.8399(2) 0.47831(13) -0.09900(11)
H1 H 0.9141(2) 0.45298(13) -0.09700(11)
H2 H 0.8642(2) 0.52980(13) -0.05435(11)
C10 C 0.8116(3) 0.5080(2) -0.16949(15)
H10 H 0.7394(3) 0.5433(2) -0.16810(15)
C11 C 0.7631(3) 0.4284(2) -0.2465(2)
H11 H 0.6780(3) 0.3898(2) -0.2507(2)
H12 H 0.8315(3) 0.3910(2) -0.2483(2)
C12 C 0.7393(4) 0.4630(3) -0.3156(2)
H13 H 0.6675(4) 0.4978(3) -0.3152(2)
H14 H 0.7082(4) 0.4106(3) -0.3662(2)
C13 C 0.8696(4) 0.5245(3) -0.3099(2)
H15 H 0.9396(4) 0.4887(3) -0.3142(2)
H16 H 0.8513(4) 0.5478(3) -0.3543(2)
C14 C 0.9206(3) 0.6036(2) -0.2319(2)
H17 H 0.8554(3) 0.6435(2) -0.2307(2)
H18 H 1.0081(3) 0.6399(2) -0.2272(2)
C15 C 0.9392(3) 0.5708(2) -0.1619(2)
H19 H 1.0137(3) 0.5382(2) -0.1588(2)
H20 H 0.9651(3) 0.6240(2) -0.1122(2)
C16 C 0.7318(2) 0.4127(2) -0.09334(15)
H21 H 0.7079(2) 0.3548(2) -0.13988(15)
C17 C 0.7896(3) 0.3927(2) -0.0179(2)
H22 H 0.8684(3) 0.3654(2) -0.0210(2)
H23 H 0.8213(3) 0.4504(2) 0.0282(2)
C18 C 0.6848(3) 0.3280(2) -0.0059(2)
H24 H 0.6602(3) 0.2680(2) -0.0491(2)
H25 H 0.7240(3) 0.3190(2) 0.0449(2)
C19 C 0.5589(3) 0.3647(2) -0.0051(2)
H26 H 0.5817(3) 0.4215(2) 0.0413(2)
H27 H 0.4906(3) 0.3197(2) -0.0002(2)
C20 C 0.5004(3) 0.3839(2) -0.0806(2)
H28 H 0.4211(3) 0.4107(2) -0.0775(2)
H29 H 0.4690(3) 0.3259(2) -0.1264(2)
C21 C 0.6044(3) 0.4493(2) -0.0935(2)
H30 H 0.5649(3) 0.4570(2) -0.1449(2)
H31 H 0.6282(3) 0.5096(2) -0.0510(2)
N2 N 1.08793(15) 0.88870(10) 0.54349(8)
H3 H 1.03881(15) 0.86918(10) 0.49042(8)
H4 H 1.09931(15) 0.95096(10) 0.56327(8)
C22 C 1.0047(3) 0.8486(2) 0.5838(2)
H32 H 0.9776(3) 0.7810(2) 0.5558(2)
C23 C 1.0829(3) 0.8679(2) 0.6698(2)
H33 H 1.1142(3) 0.9346(2) 0.6981(2)
H34 H 1.1635(3) 0.8413(2) 0.6732(2)
C24 C 0.9937(4) 0.8273(3) 0.7093(2)
H35 H 0.9697(4) 0.7601(3) 0.6841(2)
H36 H 1.0450(4) 0.8430(3) 0.7661(2)
C25 C 0.8670(4) 0.8624(3) 0.7019(2)
H37 H 0.8907(4) 0.9287(3) 0.7324(2)
H38 H 0.8091(4) 0.8321(3) 0.7249(2)
C26 C 0.7897(4) 0.8455(3) 0.6166(3)
H39 H 0.7103(4) 0.8733(3) 0.6143(3)
H40 H 0.7563(4) 0.7791(3) 0.5877(3)
C27 C 0.8776(3) 0.8852(3) 0.5759(2)
H41 H 0.8258(3) 0.8688(3) 0.5190(2)
H42 H 0.9023(3) 0.9525(3) 0.6004(2)
C28 C 1.2245(3) 0.8681(2) 0.5505(2)
H43 H 1.2821(3) 0.8948(2) 0.6076(2)
C29 C 1.2148(3) 0.7656(2) 0.5212(2)
H44 H 1.1772(3) 0.7383(2) 0.5543(2)
H45 H 1.1527(3) 0.7377(2) 0.4658(2)
C30 C 1.3528(3) 0.7455(2) 0.5248(2)
H46 H 1.4123(3) 0.7686(2) 0.5808(2)
H47 H 1.3437(3) 0.6787(2) 0.5035(2)
C31 C 1.4166(3) 0.7893(2) 0.4777(2)
H48 H 1.3616(3) 0.7621(2) 0.4209(2)
H49 H 1.5082(3) 0.7776(2) 0.4832(2)
C32 C 1.4261(3) 0.8911(2) 0.5067(2)
H50 H 1.4639(3) 0.9181(2) 0.4735(2)
H51 H 1.4885(3) 0.9189(2) 0.5620(2)
C33 C 1.2889(3) 0.9127(2) 0.5035(2)
H52 H 1.2292(3) 0.8905(2) 0.4477(2)
H53 H 1.2995(3) 0.9795(2) 0.5256(2)
N3 N 0.40135(15) 1.04949(10) 0.08435(8)
H5 H 0.42054(15) 1.06652(10) 0.04487(8)
H6 H 0.45446(15) 1.00968(10) 0.09415(8)
C34 C 0.4444(3) 1.1334(2) 0.15821(15)
H54 H 0.4373(3) 1.1147(2) 0.20372(15)
C35 C 0.3561(3) 1.2011(2) 0.1497(2)
H55 H 0.2617(3) 1.1733(2) 0.1421(2)
H56 H 0.3570(3) 1.2170(2) 0.1025(2)
C36 C 0.4090(4) 1.2873(2) 0.2241(2)
H57 H 0.3537(4) 1.3322(2) 0.2172(2)
H58 H 0.4003(4) 1.2720(2) 0.2704(2)
C37 C 0.5563(4) 1.3290(2) 0.2397(3)
H59 H 0.5638(4) 1.3491(2) 0.1955(3)
H60 H 0.5889(4) 1.3832(2) 0.2890(3)
C38 C 0.6430(3) 1.2619(2) 0.2477(2)
H61 H 0.6423(3) 1.2462(2) 0.2950(2)
H62 H 0.7374(3) 1.2898(2) 0.2554(2)
C39 C 0.5919(3) 1.1756(2) 0.1743(2)
H63 H 0.6013(3) 1.1903(2) 0.1279(2)
H64 H 0.6476(3) 1.1311(2) 0.1821(2)
C40 C 0.2575(2) 0.9986(2) 0.05249(14)
H65 H 0.1991(2) 1.0394(2) 0.03661(14)
C41 C 0.2407(3) 0.9173(2) -0.0209(2)
H66 H 0.3044(3) 0.8795(2) -0.0068(2)
H67 H 0.2633(3) 0.9392(2) -0.0612(2)
C42 C 0.0966(3) 0.8594(2) -0.0557(2)
H68 H 0.0344(3) 0.8946(2) -0.0767(2)
H69 H 0.0913(3) 0.8045(2) -0.1005(2)
C43 C 0.0522(3) 0.8307(2) 0.0057(2)
H70 H -0.0440(3) 0.7979(2) -0.0177(2)
H71 H 0.1063(3) 0.7884(2) 0.0213(2)
C44 C 0.0696(3) 0.9118(2) 0.0783(2)
H72 H 0.0454(3) 0.8905(2) 0.1185(2)
H73 H 0.0074(3) 0.9504(2) 0.0639(2)
C45 C 0.2152(3) 0.9686(2) 0.1140(2)
H74 H 0.2221(3) 1.0229(2) 0.1597(2)
H75 H 0.2767(3) 0.9321(2) 0.1333(2)
O7 O 0.4728(3) 0.9691(2) 0.2736(2)
H76 H 0.5018(43) 0.9644(7) 0.2352(15)
C46 C 0.3988(3) 0.8820(2) 0.2639(3)
C47 C 0.4905(4) 0.8302(3) 0.3011(2)
H77 H 0.5467(20) 0.8088(16) 0.2683(9)
H78 H 0.4358(4) 0.7779(11) 0.3049(15)
H79 H 0.5488(19) 0.8704(6) 0.3543(7)
C48 C 0.2724(5) 0.8887(5) 0.2862(4)
H80 H 0.2970(6) 0.9263(25) 0.3424(8)
H81 H 0.2229(23) 0.8276(5) 0.2772(25)
H82 H 0.2150(23) 0.9165(30) 0.2537(20)
O8 O 0.8892(3) 0.6361(2) 0.3763(2)
H83 H 0.9148(29) 0.6757(33) 0.3587(25)
C49 C 0.7558(3) 0.5855(3) 0.3268(3)
C50 C 0.7530(4) 0.5493(4) 0.2419(3)
H84 H 0.7989(32) 0.5981(7) 0.2293(7)
H85 H 0.6590(4) 0.5275(23) 0.2066(3)
H86 H 0.7995(32) 0.4990(16) 0.2345(6)
C51 C 0.6541(6) 0.6432(5) 0.3378(5)
H87 H 0.6752(43) 0.6778(37) 0.3944(6)
H88 H 0.5632(10) 0.6039(6) 0.3171(39)
H89 H 0.6580(51) 0.6855(33) 0.3091(35)
loop_
_geom_bond_atom_site_label_1
_geom_bond_atom_site_label_2
_geom_bond_site_symmetry_1
_geom_bond_site_symmetry_2
O1 C7 1_555 1_555
O2 C7 1_555 1_555
O3 C8 1_555 1_555
O4 C8 1_555 1_555
O5 C9 1_555 1_555
O6 C9 1_555 1_555
N1 H1 1_555 1_555
H2 N1 1_555 1_555
N2 H3 1_555 1_555
H4 N2 1_555 1_555
N3 H5 1_555 1_555
H6 N3 1_555 1_555
C1 C2 1_555 1_555
C2 H7 1_555 1_555
C3 C2 1_555 1_555
C4 C3 1_555 1_555
H8 C4 1_555 1_555
C5 C4 1_555 1_555
C6 C1 1_555 1_555
H9 C6 1_555 1_555
C7 C1 1_555 1_555
C8 C3 1_555 1_555
C9 C5 1_555 1_555
C10 N1 1_555 1_555
H10 C10 1_555 1_555
C11 C10 1_555 1_555
H11 C11 1_555 1_555
H12 C11 1_555 1_555
C12 C11 1_555 1_555
H13 C12 1_555 1_555
H14 C12 1_555 1_555
C13 C12 1_555 1_555
H15 C13 1_555 1_555
H16 C13 1_555 1_555
C14 C13 1_555 1_555
H17 C14 1_555 1_555
H18 C14 1_555 1_555
C15 C10 1_555 1_555
H19 C15 1_555 1_555
H20 C15 1_555 1_555
C16 N1 1_555 1_555
H21 C16 1_555 1_555
C17 C16 1_555 1_555
H22 C17 1_555 1_555
H23 C17 1_555 1_555
C18 C17 1_555 1_555
H24 C18 1_555 1_555
H25 C18 1_555 1_555
C19 C18 1_555 1_555
H26 C19 1_555 1_555
H27 C19 1_555 1_555
C20 C19 1_555 1_555
H28 C20 1_555 1_555
H29 C20 1_555 1_555
C21 C16 1_555 1_555
H30 C21 1_555 1_555
H31 C21 1_555 1_555
C22 N2 1_555 1_555
H32 C22 1_555 1_555
C23 C22 1_555 1_555
H33 C23 1_555 1_555
H34 C23 1_555 1_555
C24 C23 1_555 1_555
H35 C24 1_555 1_555
H36 C24 1_555 1_555
C25 C24 1_555 1_555
H37 C25 1_555 1_555
H38 C25 1_555 1_555
C26 C25 1_555 1_555
H39 C26 1_555 1_555
H40 C26 1_555 1_555
C27 C22 1_555 1_555
H41 C27 1_555 1_555
H42 C27 1_555 1_555
C28 N2 1_555 1_555
H43 C28 1_555 1_555
C29 C28 1_555 1_555
H44 C29 1_555 1_555
H45 C29 1_555 1_555
C30 C29 1_555 1_555
H46 C30 1_555 1_555
H47 C30 1_555 1_555
C31 C30 1_555 1_555
H48 C31 1_555 1_555
H49 C31 1_555 1_555
C32 C31 1_555 1_555
H50 C32 1_555 1_555
H51 C32 1_555 1_555
C33 C28 1_555 1_555
H52 C33 1_555 1_555
H53 C33 1_555 1_555
C34 N3 1_555 1_555
H54 C34 1_555 1_555
C35 C34 1_555 1_555
H55 C35 1_555 1_555
H56 C35 1_555 1_555
C36 C35 1_555 1_555
H57 C36 1_555 1_555
H58 C36 1_555 1_555
C37 C36 1_555 1_555
H59 C37 1_555 1_555
H60 C37 1_555 1_555
C38 C37 1_555 1_555
H61 C38 1_555 1_555
H62 C38 1_555 1_555
C39 C34 1_555 1_555
H63 C39 1_555 1_555
H64 C39 1_555 1_555
C40 N3 1_555 1_555
H65 C40 1_555 1_555
C41 C40 1_555 1_555
H66 C41 1_555 1_555
H67 C41 1_555 1_555
C42 C41 1_555 1_555
H68 C42 1_555 1_555
H69 C42 1_555 1_555
C43 C42 1_555 1_555
H70 C43 1_555 1_555
H71 C43 1_555 1_555
C44 C43 1_555 1_555
H72 C44 1_555 1_555
H73 C44 1_555 1_555
C45 C40 1_555 1_555
H74 C45 1_555 1_555
H75 C45 1_555 1_555
O7 H76 1_555 1_555
C46 O7 1_555 1_555
C47 C46 1_555 1_555
H77 C47 1_555 1_555
H78 C47 1_555 1_555
H79 C47 1_555 1_555
C48 C46 1_555 1_555
H80 C48 1_555 1_555
H81 C48 1_555 1_555
H82 C48 1_555 1_555
O8 H83 1_555 1_555
C49 O8 1_555 1_555
C50 C49 1_555 1_555
H84 C50 1_555 1_555
H85 C50 1_555 1_555
H86 C50 1_555 1_555
C51 C49 1_555 1_555
H87 C51 1_555 1_555
H88 C51 1_555 1_555
H89 C51 1_555 1_555
C5 C6 1_555 1_555
C14 C15 1_555 1_555
C20 C21 1_555 1_555
C26 C27 1_555 1_555
C32 C33 1_555 1_555
C38 C39 1_555 1_555
C44 C45 1_555 1_555

#END
