
#######################################################################
#
#                 Cambridge Crystallographic Data Centre
#                                CCDC 
#
#######################################################################
#
# If this CIF has been generated from an entry in the Cambridge 
# Structural Database, then it will include bibliographic, chemical, 
# crystal, experimental, refinement or atomic coordinate data resulting 
# from the CCDC's data processing and validation procedures.
#
#######################################################################

data_MEKVEE
_chemical_formula_moiety         'C28 H32 O2,0.17(C6 H12)'
_chemical_name_systematic        
"(E)-(3R,3'R,4R,4'R,5R,5'R,6R,6'R,7R,7'R,8S,8'S)-(8'-Hydroxymethyl-(1,1')bi(pentaspiro(2.0.0.0.0.2^7^.1^6^.1^5^.1^4^.1^3^)tridecylidene)-8-yl)methanol cyclohexane solvate"
_symmetry_cell_setting           monoclinic
_symmetry_space_group_name_H-M   'P 21'
_symmetry_Int_Tables_number      4
_space_group_name_Hall           'P 2yb'
loop_
_symmetry_equiv_pos_site_id
_symmetry_equiv_pos_as_xyz
1 x,y,z
2 -x,1/2+y,-z
_cell_length_a                   9.870(2)
_cell_length_b                   40.010(8)
_cell_length_c                   11.097(2)
_cell_angle_alpha                90
_cell_angle_beta                 115.51(3)
_cell_angle_gamma                90
_cell_volume                     3954.97
_exptl_crystal_colour            colorless
_exptl_crystal_description       flake
_chemical_melting_point          '445-446 K'
_cell_formula_units_Z            6
_exptl_crystal_recrystallization_method 'cyclohexane/diethyl ether'
loop_
_atom_site_label
_atom_site_type_symbol
_atom_site_fract_x
_atom_site_fract_y
_atom_site_fract_z
O1 O 0.2367(11) 0.2802(3) 0.1935(10)
H1 H 0.1822 0.2835 0.2331
O2 O 0.2545(11) 0.7501(3) 0.5160(10)
H2 H 0.2036 0.7484 0.4331
C1 C 0.4143(16) 0.3236(4) 0.3279(18)
H3 H 0.3805 0.3408 0.2553
C2 C 0.4075(16) 0.3340(4) 0.4498(15)
C3 C 0.3320(14) 0.3590(4) 0.4849(14)
C4 C 0.3645(13) 0.3923(4) 0.5353(15)
C5 C 0.4052(15) 0.4121(4) 0.6611(19)
C6 C 0.3405(16) 0.4373(3) 0.7193(13)
C7 C 0.3362(13) 0.4717(4) 0.7331(12)
C8 C 0.4018(16) 0.4998(4) 0.7532(14)
C9 C 0.4090(15) 0.5358(4) 0.7644(15)
C10 C 0.3247(15) 0.5660(4) 0.7098(15)
C11 C 0.3092(16) 0.5942(4) 0.6256(16)
C12 C 0.3650(17) 0.6288(4) 0.6328(16)
C13 C 0.3170(17) 0.6630(4) 0.6337(16)
C14 C 0.2569(15) 0.6906(4) 0.5418(16)
H4 H 0.1983 0.6843 0.4459
C15 C 0.1888(16) 0.6809(4) 0.6320(16)
H5 H 0.2053 0.6958 0.7083
H6 H 0.0900 0.6696 0.5924
C16 C 0.4674(17) 0.6517(4) 0.7258(15)
H7 H 0.5533 0.6595 0.7095
H8 H 0.4891 0.6491 0.8211
C17 C 0.3663(19) 0.6046(4) 0.5308(19)
H9 H 0.2928 0.6081 0.4369
H10 H 0.4645 0.5956 0.5425
C18 C 0.1710(16) 0.5763(4) 0.6140(16)
H11 H 0.1066 0.5874 0.6501
H12 H 0.1171 0.5621 0.5344
C19 C 0.3900(14) 0.5591(4) 0.8611(15)
H13 H 0.4781 0.5724 0.9210
H14 H 0.3198 0.5527 0.8992
C20 C 0.5398(16) 0.5185(4) 0.7719(14)
H15 H 0.6276 0.5170 0.8600
H16 H 0.5646 0.5202 0.6946
C21 C 0.1951(17) 0.4531(4) 0.6908(14)
H17 H 0.1204 0.4549 0.5964
H18 H 0.1526 0.4500 0.7562
C22 C 0.4260(18) 0.4073(4) 0.8009(18)
H19 H 0.5273 0.4112 0.8737
H20 H 0.3675 0.3894 0.8182
C23 C 0.5006(18) 0.4168(4) 0.5817(17)
H21 H 0.6029 0.4071 0.6194
H22 H 0.4883 0.4378 0.5309
C24 C 0.2228(16) 0.3865(4) 0.4106(15)
H23 H 0.2196 0.3942 0.3246
H24 H 0.1260 0.3874 0.4172
C25 C 0.3362(16) 0.3243(4) 0.5351(18)
H25 H 0.4013 0.3198 0.6305
H26 H 0.2432 0.3108 0.4953
C26 C 0.5581(16) 0.3311(5) 0.4435(16)
H27 H 0.6109 0.3520 0.4416
H28 H 0.6241 0.3121 0.4903
C27 C 0.3907(16) 0.2885(5) 0.2816(17)
H29 H 0.4541 0.2839 0.2345
H30 H 0.4251 0.2736 0.3606
C28 C 0.3420(19) 0.7210(4) 0.5651(16)
H31 H 0.4033 0.7236 0.6624
H32 H 0.4119 0.7190 0.5229
O3 O 0.0620(11) 0.2847(3) -0.0748(10)
H33 H 0.0983 0.2825 0.0085
O4 O 0.2088(13) 0.7643(3) 0.2618(10)
H34 H 0.1212 0.7582 0.2108
C29 C 0.0070(16) 0.3434(4) -0.0632(16)
H35 H 0.0446 0.3457 0.0358
C30 C -0.0455(17) 0.3743(4) -0.1403(14)
C31 C -0.0070(17) 0.4089(4) -0.1268(15)
C32 C -0.0621(14) 0.4417(4) -0.1167(14)
C33 C -0.1376(15) 0.4696(4) -0.2058(15)
C34 C -0.1024(16) 0.5015(4) -0.2601(14)
C35 C -0.0920(15) 0.5379(4) -0.2408(14)
C36 C -0.1391(14) 0.5655(4) -0.2266(14)
C37 C -0.1219(16) 0.6003(4) -0.2050(15)
C38 C -0.0006(18) 0.6245(4) -0.1384(16)
C39 C 0.0730(15) 0.6436(4) -0.0147(17)
C40 C 0.0810(14) 0.6778(3) 0.0357(15)
C41 C 0.1779(17) 0.7053(4) 0.0548(16)
C42 C 0.3055(17) 0.7219(5) 0.1685(19)
H36 H 0.3593 0.7075 0.2486
C43 C 0.3262(18) 0.7117(5) 0.0417(19)
H37 H 0.3272 0.7296 -0.0194
H38 H 0.3912 0.6922 0.0485
C44 C 0.0173(17) 0.7107(4) -0.0220(17)
H39 H -0.0217 0.7136 -0.1198
H40 H -0.0365 0.7235 0.0204
C45 C 0.0629(17) 0.6516(4) 0.1104(19)
H41 H -0.0362 0.6492 0.1118
H42 H 0.1497 0.6458 0.1952
C46 C 0.1661(15) 0.6219(4) -0.0610(16)
H43 H 0.2299 0.6330 -0.0976
H44 H 0.2076 0.6009 -0.0117
C47 C -0.1104(16) 0.6318(4) -0.2805(16)
H45 H -0.0757 0.6289 -0.3513
H46 H -0.1848 0.6498 -0.2964
C48 C -0.2458(14) 0.5838(3) -0.1865(14)
H47 H -0.3497 0.5875 -0.2551
H48 H -0.2350 0.5808 -0.0942
C49 C 0.0341(18) 0.5188(4) -0.2563(17)
H49 H 0.0432 0.5213 -0.3413
H50 H 0.1301 0.5158 -0.1760
C50 C -0.2122(15) 0.4761(4) -0.3520(14)
H51 H -0.3202 0.4819 -0.3923
H52 H -0.1800 0.4626 -0.4098
C51 C -0.1861(15) 0.4601(4) -0.1009(14)
H53 H -0.2839 0.4486 -0.1293
H54 H -0.1586 0.4751 -0.0230
C52 C 0.0916(17) 0.4332(4) -0.0305(17)
H55 H 0.1184 0.4293 0.0652
H56 H 0.1715 0.4436 -0.0492
C53 C 0.0001(16) 0.3889(4) -0.2427(16)
H57 H -0.0791 0.3929 -0.3340
H58 H 0.1001 0.3830 -0.2371
C54 C -0.1586(16) 0.3511(4) -0.1454(15)
H59 H -0.2129 0.3384 -0.2291
H60 H -0.2193 0.3570 -0.0970
C55 C 0.0772(18) 0.3187(4) -0.1068(16)
H61 H 0.1857 0.3240 -0.0691
H62 H 0.0373 0.3205 -0.2051
C56 C 0.3082(18) 0.7582(4) 0.1967(16)
H63 H 0.4117 0.7654 0.2559
H64 H 0.2732 0.7711 0.1125
O5 O 1.0381(11) 0.2627(3) 0.2863(11)
H65 H 1.0517 0.2610 0.3662
O6 O 0.9578(11) 0.7465(3) 0.4793(11)
H66 H 1.0463 0.7427 0.4909
C57 C 0.947(2) 0.3198(4) 0.2747(16)
H67 H 1.0441 0.3302 0.2863
C58 C 0.8226(18) 0.3439(4) 0.2516(16)
C59 C 0.7775(16) 0.3757(4) 0.1981(15)
C60 C 0.7815(19) 0.4098(4) 0.2391(15)
C61 C 0.6922(17) 0.4339(4) 0.2639(16)
C62 C 0.6057(17) 0.4637(4) 0.2115(15)
C63 C 0.6022(18) 0.5004(4) 0.2127(16)
C64 C 0.6348(17) 0.5273(4) 0.2739(14)
C65 C 0.6301(16) 0.5642(4) 0.2849(15)
C66 C 0.6594(18) 0.5952(4) 0.2281(15)
C67 C 0.7709(16) 0.6218(5) 0.2644(16)
C68 C 0.7987(17) 0.6550(4) 0.3186(15)
C69 C 0.7764(17) 0.6876(4) 0.2721(15)
C70 C 0.8648(19) 0.7167(4) 0.2680(17)
H68 H 0.9610 0.7115 0.2624
C71 C 0.7239(16) 0.7074(4) 0.1469(18)
H69 H 0.6343 0.7217 0.1233
H70 H 0.7348 0.6974 0.0699
C72 C 0.7198(18) 0.6777(4) 0.3721(16)
H71 H 0.7748 0.6858 0.4650
H72 H 0.6102 0.6748 0.3409
C73 C 0.9204(16) 0.6295(4) 0.3717(13)
H73 H 1.0055 0.6316 0.3475
H74 H 0.9462 0.6203 0.4617
C74 C 0.7127(18) 0.6056(4) 0.1258(16)
H75 H 0.6433 0.6187 0.0480
H76 H 0.7807 0.5903 0.1079
C75 C 0.5130(16) 0.5897(4) 0.2301(15)
H77 H 0.4894 0.6030 0.2938
H78 H 0.4259 0.5849 0.1442
C76 C 0.7009(18) 0.5445(4) 0.4103(15)
H79 H 0.6457 0.5424 0.4663
H80 H 0.8116 0.5453 0.4604
C77 C 0.5336(17) 0.4833(3) 0.0879(16)
H81 H 0.5846 0.4843 0.0282
H82 H 0.4226 0.4831 0.0414
C78 C 0.545(2) 0.4356(4) 0.2642(19)
H83 H 0.5410 0.4390 0.3509
H84 H 0.4636 0.4218 0.1989
C79 C 0.8498(16) 0.4271(4) 0.3701(17)
H85 H 0.9283 0.4441 0.3845
H86 H 0.8612 0.4144 0.4505
C80 C 0.8341(16) 0.4022(4) 0.1314(17)
H87 H 0.9431 0.4032 0.1561
H88 H 0.7679 0.4087 0.0383
C81 C 0.6580(15) 0.3480(4) 0.1472(15)
H89 H 0.6291 0.3390 0.0563
H90 H 0.5781 0.3478 0.1786
C82 C 0.8978(16) 0.3278(4) 0.3870(15)
H91 H 0.8413 0.3104 0.4099
H92 H 0.9653 0.3417 0.4628
C83 C 0.9194(19) 0.2862(4) 0.2179(17)
H93 H 0.8257 0.2776 0.2186
H94 H 0.9031 0.2876 0.1236
C84 C 0.8644(18) 0.7492(4) 0.3418(17)
H95 H 0.8994 0.7679 0.3041
H96 H 0.7606 0.7543 0.3284
C86 C 0.182(3) 0.5218(8) 0.143(3)
H99 H 0.2548 0.5299 0.1090
H100 H 0.1200 0.5035 0.0838
C87 C 0.092(4) 0.5481(8) 0.162(3)
H101 H 0.0284 0.5570 0.0739
H102 H 0.1641 0.5653 0.2160
C88 C 0.008(3) 0.5339(8) 0.229(3)
H103 H -0.0923 0.5279 0.1583
H104 H -0.0081 0.5520 0.2820
C89 C 0.064(4) 0.5049(9) 0.316(4)
H105 H 0.0847 0.5134 0.4066
H106 H -0.0244 0.4900 0.2909
C90 C 0.168(6) 0.4863(13) 0.334(5)
H107 H 0.1875 0.4700 0.4112
C91 C 0.234(5) 0.4949(13) 0.265(5)
C85? C 0.303(5) 0.5070(11) 0.377(5)
H97? H 0.3964 0.4950 0.4043
H98? H 0.3033 0.5249 0.4368
H108? H 0.1604 0.4725 0.2577
C92? C 0.202(7) 0.5354(16) 0.213(7)
loop_
_geom_bond_atom_site_label_1
_geom_bond_atom_site_label_2
_geom_bond_site_symmetry_1
_geom_bond_site_symmetry_2
O1 H1 1_555 1_555
O2 H2 1_555 1_555
C1 H3 1_555 1_555
C2 C1 1_555 1_555
C3 C2 1_555 1_555
C4 C3 1_555 1_555
C5 C4 1_555 1_555
C6 C5 1_555 1_555
C7 C6 1_555 1_555
C8 C7 1_555 1_555
C9 C8 1_555 1_555
C10 C9 1_555 1_555
C11 C10 1_555 1_555
C12 C11 1_555 1_555
C13 C12 1_555 1_555
C14 C13 1_555 1_555
H4 C14 1_555 1_555
C15 C13 1_555 1_555
H5 C15 1_555 1_555
H6 C15 1_555 1_555
C16 C12 1_555 1_555
H7 C16 1_555 1_555
H8 C16 1_555 1_555
C17 C11 1_555 1_555
H9 C17 1_555 1_555
H10 C17 1_555 1_555
C18 C10 1_555 1_555
H11 C18 1_555 1_555
H12 C18 1_555 1_555
C19 C9 1_555 1_555
H13 C19 1_555 1_555
H14 C19 1_555 1_555
C20 C8 1_555 1_555
H15 C20 1_555 1_555
H16 C20 1_555 1_555
C21 C6 1_555 1_555
H17 C21 1_555 1_555
H18 C21 1_555 1_555
C22 C5 1_555 1_555
H19 C22 1_555 1_555
H20 C22 1_555 1_555
C23 C4 1_555 1_555
H21 C23 1_555 1_555
H22 C23 1_555 1_555
C24 C3 1_555 1_555
H23 C24 1_555 1_555
H24 C24 1_555 1_555
C25 C2 1_555 1_555
H25 C25 1_555 1_555
H26 C25 1_555 1_555
C26 C1 1_555 1_555
H27 C26 1_555 1_555
H28 C26 1_555 1_555
C27 O1 1_555 1_555
H29 C27 1_555 1_555
H30 C27 1_555 1_555
C28 O2 1_555 1_555
H31 C28 1_555 1_555
H32 C28 1_555 1_555
O3 H33 1_555 1_555
O4 H34 1_555 1_555
C29 H35 1_555 1_555
C30 C29 1_555 1_555
C31 C30 1_555 1_555
C32 C31 1_555 1_555
C33 C32 1_555 1_555
C34 C33 1_555 1_555
C35 C34 1_555 1_555
C36 C35 1_555 1_555
C37 C36 1_555 1_555
C38 C37 1_555 1_555
C39 C38 1_555 1_555
C40 C39 1_555 1_555
C41 C40 1_555 1_555
C42 C41 1_555 1_555
H36 C42 1_555 1_555
C43 C41 1_555 1_555
H37 C43 1_555 1_555
H38 C43 1_555 1_555
C44 C40 1_555 1_555
H39 C44 1_555 1_555
H40 C44 1_555 1_555
C45 C39 1_555 1_555
H41 C45 1_555 1_555
H42 C45 1_555 1_555
C46 C38 1_555 1_555
H43 C46 1_555 1_555
H44 C46 1_555 1_555
C47 C37 1_555 1_555
H45 C47 1_555 1_555
H46 C47 1_555 1_555
C48 C36 1_555 1_555
H47 C48 1_555 1_555
H48 C48 1_555 1_555
C49 C34 1_555 1_555
H49 C49 1_555 1_555
H50 C49 1_555 1_555
C50 C33 1_555 1_555
H51 C50 1_555 1_555
H52 C50 1_555 1_555
C51 C32 1_555 1_555
H53 C51 1_555 1_555
H54 C51 1_555 1_555
C52 C31 1_555 1_555
H55 C52 1_555 1_555
H56 C52 1_555 1_555
C53 C30 1_555 1_555
H57 C53 1_555 1_555
H58 C53 1_555 1_555
C54 C29 1_555 1_555
H59 C54 1_555 1_555
H60 C54 1_555 1_555
C55 O3 1_555 1_555
H61 C55 1_555 1_555
H62 C55 1_555 1_555
C56 O4 1_555 1_555
H63 C56 1_555 1_555
H64 C56 1_555 1_555
O5 H65 1_555 1_555
O6 H66 1_555 1_555
C57 H67 1_555 1_555
C58 C57 1_555 1_555
C59 C58 1_555 1_555
C60 C59 1_555 1_555
C61 C60 1_555 1_555
C62 C61 1_555 1_555
C63 C62 1_555 1_555
C64 C63 1_555 1_555
C65 C64 1_555 1_555
C66 C65 1_555 1_555
C67 C66 1_555 1_555
C68 C67 1_555 1_555
C69 C68 1_555 1_555
C70 C69 1_555 1_555
H68 C70 1_555 1_555
C71 C69 1_555 1_555
H69 C71 1_555 1_555
H70 C71 1_555 1_555
C72 C68 1_555 1_555
H71 C72 1_555 1_555
H72 C72 1_555 1_555
C73 C67 1_555 1_555
H73 C73 1_555 1_555
H74 C73 1_555 1_555
C74 C66 1_555 1_555
H75 C74 1_555 1_555
H76 C74 1_555 1_555
C75 C65 1_555 1_555
H77 C75 1_555 1_555
H78 C75 1_555 1_555
C76 C64 1_555 1_555
H79 C76 1_555 1_555
H80 C76 1_555 1_555
C77 C62 1_555 1_555
H81 C77 1_555 1_555
H82 C77 1_555 1_555
C78 C61 1_555 1_555
H83 C78 1_555 1_555
H84 C78 1_555 1_555
C79 C60 1_555 1_555
H85 C79 1_555 1_555
H86 C79 1_555 1_555
C80 C59 1_555 1_555
H87 C80 1_555 1_555
H88 C80 1_555 1_555
C81 C58 1_555 1_555
H89 C81 1_555 1_555
H90 C81 1_555 1_555
C82 C57 1_555 1_555
H91 C82 1_555 1_555
H92 C82 1_555 1_555
C83 O5 1_555 1_555
H93 C83 1_555 1_555
H94 C83 1_555 1_555
C84 O6 1_555 1_555
H95 C84 1_555 1_555
H96 C84 1_555 1_555
C86 H99 1_555 1_555
H100 C86 1_555 1_555
C87 C86 1_555 1_555
H101 C87 1_555 1_555
H102 C87 1_555 1_555
C88 C87 1_555 1_555
H103 C88 1_555 1_555
H104 C88 1_555 1_555
C89 C88 1_555 1_555
H105 C89 1_555 1_555
H106 C89 1_555 1_555
C90 C89 1_555 1_555
H107 C90 1_555 1_555
C91 C86 1_555 1_555
C1 C27 1_555 1_555
C2 C26 1_555 1_555
C3 C25 1_555 1_555
C4 C24 1_555 1_555
C5 C23 1_555 1_555
C6 C22 1_555 1_555
C7 C21 1_555 1_555
C9 C20 1_555 1_555
C10 C19 1_555 1_555
C11 C18 1_555 1_555
C12 C17 1_555 1_555
C13 C16 1_555 1_555
C14 C15 1_555 1_555
C14 C28 1_555 1_555
C29 C55 1_555 1_555
C30 C54 1_555 1_555
C31 C53 1_555 1_555
C32 C52 1_555 1_555
C33 C51 1_555 1_555
C34 C50 1_555 1_555
C35 C49 1_555 1_555
C37 C48 1_555 1_555
C38 C47 1_555 1_555
C39 C46 1_555 1_555
C40 C45 1_555 1_555
C41 C44 1_555 1_555
C42 C43 1_555 1_555
C42 C56 1_555 1_555
C57 C83 1_555 1_555
C58 C82 1_555 1_555
C59 C81 1_555 1_555
C60 C80 1_555 1_555
C61 C79 1_555 1_555
C62 C78 1_555 1_555
C63 C77 1_555 1_555
C65 C76 1_555 1_555
C66 C75 1_555 1_555
C67 C74 1_555 1_555
C68 C73 1_555 1_555
C69 C72 1_555 1_555
C70 C71 1_555 1_555
C70 C84 1_555 1_555
C90 C91 1_555 1_555

#END
