
#######################################################################
#
#                 Cambridge Crystallographic Data Centre
#                                CCDC 
#
#######################################################################
#
# If this CIF has been generated from an entry in the Cambridge 
# Structural Database, then it will include bibliographic, chemical, 
# crystal, experimental, refinement or atomic coordinate data resulting 
# from the CCDC's data processing and validation procedures.
#
#######################################################################

data_MEKWOP
_chemical_formula_moiety         'C12 H16 O2'
_chemical_name_systematic        
"(E)-(3R,3'R,4S,4'S)-(4'-Hydroxymethyl-(1,1')bi (spiro(2.2)pentylidene)-4-yl)methanol"
_symmetry_cell_setting           orthorhombic
_symmetry_space_group_name_H-M   'P 21 21 21'
_symmetry_Int_Tables_number      19
_space_group_name_Hall           'P 2ac 2ab'
loop_
_symmetry_equiv_pos_site_id
_symmetry_equiv_pos_as_xyz
1 x,y,z
2 1/2-x,-y,1/2+z
3 -x,1/2+y,1/2-z
4 1/2+x,1/2-y,-z
_cell_length_a                   9.6596(5)
_cell_length_b                   16.004(1)
_cell_length_c                   20.295(1)
_cell_angle_alpha                90
_cell_angle_beta                 90
_cell_angle_gamma                90
_cell_volume                     3137.45
_exptl_crystal_colour            colorless
_exptl_crystal_description       flake
_chemical_melting_point          '402-403 K'
_cell_formula_units_Z            12
_exptl_crystal_recrystallization_method tetrahydrofuran/octane
loop_
_atom_site_label
_atom_site_type_symbol
_atom_site_fract_x
_atom_site_fract_y
_atom_site_fract_z
O1 O 1.11131(15) 0.58368(9) 0.45531(7)
O2 O 0.49315(15) 0.57136(10) -0.00541(7)
C1 C 0.93953(19) 0.58265(13) 0.37107(9)
H1 H 0.9386 0.5214 0.3614
C2 C 0.84480(19) 0.63477(13) 0.33067(10)
C3 C 0.77976(19) 0.63589(13) 0.26637(11)
C4 C 0.70228(19) 0.59883(13) 0.22268(10)
C5 C 0.6186(2) 0.59754(13) 0.16325(10)
C6 C 0.6190(2) 0.61555(12) 0.09115(10)
H2 H 0.6873 0.6580 0.0754
C7 C 0.5033(2) 0.64713(13) 0.13435(9)
H3 H 0.5003 0.7077 0.1441
H4 H 0.4117 0.6199 0.1303
C8 C 0.6220(2) 0.52172(12) 0.20693(10)
H5 H 0.5389 0.5093 0.2338
H6 H 0.6737 0.4721 0.1913
C9 C 0.8573(2) 0.71145(14) 0.28788(10)
H7 H 0.8034 0.7616 0.3004
H8 H 0.9479 0.7229 0.2669
C10 C 0.8080(2) 0.61802(14) 0.40046(10)
H9 H 0.7308 0.5789 0.4093
H10 H 0.8167 0.6646 0.4323
C11 C 1.07598(19) 0.61818(13) 0.39267(10)
H11 H 1.1485 0.6043 0.3600
H12 H 1.0694 0.6798 0.3960
C12 C 0.58754(19) 0.54464(13) 0.04502(10)
H13 H 0.6744 0.5246 0.0245
H14 H 0.5462 0.4977 0.0700
H43 H 1.178(3) 0.6112(19) 0.4692(16)
H44 H 0.457(3) 0.5293(17) -0.0191(14)
O3 O 1.10139(14) 0.27462(10) 0.45119(7)
O4 O 0.62895(15) 0.14440(10) 0.02144(8)
C13 C 0.9331(2) 0.25464(13) 0.36367(9)
H15 H 0.9249 0.1925 0.3605
C14 C 0.8458(2) 0.30354(13) 0.31680(10)
C15 C 0.7813(2) 0.29821(14) 0.25255(10)
C16 C 0.6972(2) 0.26161(13) 0.21194(10)
C17 C 0.6101(2) 0.26347(13) 0.15351(10)
C18 C 0.6118(2) 0.27471(13) 0.08093(10)
H16 H 0.6930 0.3045 0.0614
C19 C 0.5143(2) 0.32523(14) 0.12382(10)
H17 H 0.5352 0.3852 0.1302
H18 H 0.4146 0.3111 0.1225
C20 C 0.5950(2) 0.19250(13) 0.20200(10)
H19 H 0.5117 0.1915 0.2304
H20 H 0.6309 0.1369 0.1891
C21 C 0.8722(2) 0.37191(13) 0.26762(10)
H21 H 0.8272 0.4267 0.2750
H22 H 0.9645 0.3744 0.2465
C22 C 0.8058(2) 0.30022(15) 0.38771(11)
H23 H 0.7238 0.2664 0.3998
H24 H 0.8195 0.3512 0.4145
C23 C 1.07299(19) 0.28754(13) 0.38289(10)
H25 H 1.1449 0.2592 0.3562
H26 H 1.0774 0.3481 0.3731
C24 C 0.53965(19) 0.21147(12) 0.03868(10)
H27 H 0.4584 0.1892 0.0627
H28 H 0.5059 0.2389 -0.0020
H45 H 1.072(2) 0.3147(15) 0.4751(12)
H46 H 0.578(3) 0.1130(17) -0.0006(14)
O5 O 0.43111(14) 0.03967(11) -0.03346(7)
O6 O 1.00891(17) 0.12212(10) -0.50520(8)
C25 C 0.58573(18) 0.06444(13) -0.12586(9)
H29 H 0.5977 0.1265 -0.1279
C26 C 0.66678(19) 0.01555(13) -0.17499(10)
C27 C 0.72727(19) 0.02463(13) -0.23941(11)
C28 C 0.80759(19) 0.06580(13) -0.27983(10)
C29 C 0.88851(19) 0.07352(13) -0.33930(10)
C30 C 0.8810(2) 0.07066(13) -0.41291(10)
H30 H 0.8039 0.0372 -0.4325
C31 C 0.9918(2) 0.02246(13) -0.37605(9)
H31 H 0.9829 -0.0391 -0.3740
H32 H 1.0881 0.0435 -0.3784
C32 C 0.8992(2) 0.14012(13) -0.28769(10)
H33 H 0.9848 0.1426 -0.2610
H34 H 0.8551 0.1948 -0.2967
C33 C 0.6387(2) -0.04989(13) -0.22634(9)
H35 H 0.6848 -0.1048 -0.2215
H36 H 0.5455 -0.0516 -0.2465
C34 C 0.71261(19) 0.01516(14) -0.10486(10)
H37 H 0.7973 0.0468 -0.0934
H38 H 0.6979 -0.0365 -0.0790
C35 C 0.44553(19) 0.03438(14) -0.10356(10)
H39 H 0.3727 0.0686 -0.1248
H40 H 0.4325 -0.0243 -0.1177
C36 C 0.9263(2) 0.14648(13) -0.45024(10)
H41 H 0.8442 0.1778 -0.4658
H42 H 0.9806 0.1836 -0.4210
H47 H 0.448(3) -0.0055(18) -0.0222(16)
H48 H 1.035(3) 0.1708(17) -0.5250(13)
loop_
_geom_bond_atom_site_label_1
_geom_bond_atom_site_label_2
_geom_bond_site_symmetry_1
_geom_bond_site_symmetry_2
O1 C11 1_555 1_555
O2 C12 1_555 1_555
O3 C23 1_555 1_555
O4 C24 1_555 1_555
O5 C35 1_555 1_555
O6 C36 1_555 1_555
C1 H1 1_555 1_555
C2 C1 1_555 1_555
C3 C2 1_555 1_555
C4 C3 1_555 1_555
C5 C4 1_555 1_555
C6 C5 1_555 1_555
H2 C6 1_555 1_555
C7 C5 1_555 1_555
H3 C7 1_555 1_555
H4 C7 1_555 1_555
C8 C4 1_555 1_555
H5 C8 1_555 1_555
H6 C8 1_555 1_555
C9 C2 1_555 1_555
H7 C9 1_555 1_555
H8 C9 1_555 1_555
C10 C1 1_555 1_555
H9 C10 1_555 1_555
H10 C10 1_555 1_555
C11 C1 1_555 1_555
H11 C11 1_555 1_555
H12 C11 1_555 1_555
C12 C6 1_555 1_555
H13 C12 1_555 1_555
H14 C12 1_555 1_555
C13 H15 1_555 1_555
C14 C13 1_555 1_555
C15 C14 1_555 1_555
C16 C15 1_555 1_555
C17 C16 1_555 1_555
C18 C17 1_555 1_555
H16 C18 1_555 1_555
C19 C17 1_555 1_555
H17 C19 1_555 1_555
H18 C19 1_555 1_555
C20 C16 1_555 1_555
H19 C20 1_555 1_555
H20 C20 1_555 1_555
C21 C14 1_555 1_555
H21 C21 1_555 1_555
H22 C21 1_555 1_555
C22 C13 1_555 1_555
H23 C22 1_555 1_555
H24 C22 1_555 1_555
C23 C13 1_555 1_555
H25 C23 1_555 1_555
H26 C23 1_555 1_555
C24 C18 1_555 1_555
H27 C24 1_555 1_555
H28 C24 1_555 1_555
C25 H29 1_555 1_555
C26 C25 1_555 1_555
C27 C26 1_555 1_555
C28 C27 1_555 1_555
C29 C28 1_555 1_555
C30 C29 1_555 1_555
H30 C30 1_555 1_555
C31 C29 1_555 1_555
H31 C31 1_555 1_555
H32 C31 1_555 1_555
C32 C28 1_555 1_555
H33 C32 1_555 1_555
H34 C32 1_555 1_555
C33 C26 1_555 1_555
H35 C33 1_555 1_555
H36 C33 1_555 1_555
C34 C25 1_555 1_555
H37 C34 1_555 1_555
H38 C34 1_555 1_555
C35 C25 1_555 1_555
H39 C35 1_555 1_555
H40 C35 1_555 1_555
C36 C30 1_555 1_555
H41 C36 1_555 1_555
H42 C36 1_555 1_555
H43 O1 1_555 1_555
H44 O2 1_555 1_555
H45 O3 1_555 1_555
H46 O4 1_555 1_555
H47 O5 1_555 1_555
H48 O6 1_555 1_555
C2 C10 1_555 1_555
C3 C9 1_555 1_555
C5 C8 1_555 1_555
C6 C7 1_555 1_555
C14 C22 1_555 1_555
C15 C21 1_555 1_555
C17 C20 1_555 1_555
C18 C19 1_555 1_555
C26 C34 1_555 1_555
C27 C33 1_555 1_555
C29 C32 1_555 1_555
C30 C31 1_555 1_555

#END
