
#######################################################################
#
#                 Cambridge Crystallographic Data Centre
#                                CCDC 
#
#######################################################################
#
# If this CIF has been generated from an entry in the Cambridge 
# Structural Database, then it will include bibliographic, chemical, 
# crystal, experimental, refinement or atomic coordinate data resulting 
# from the CCDC's data processing and validation procedures.
#
#######################################################################

data_MEKZEI
_chemical_formula_moiety         'C20 H18 F4'
_chemical_name_systematic        1,2,3,4-tetrafluoro-9,10-dipropylphenanthrene
_symmetry_cell_setting           monoclinic
_symmetry_space_group_name_H-M   'P 21/c'
_symmetry_Int_Tables_number      14
_space_group_name_Hall           '-P 2ybc'
loop_
_symmetry_equiv_pos_site_id
_symmetry_equiv_pos_as_xyz
1 x,y,z
2 -x,1/2+y,1/2-z
3 -x,-y,-z
4 x,1/2-y,1/2+z
_cell_length_a                   9.980(2)
_cell_length_b                   16.279(3)
_cell_length_c                   10.137(2)
_cell_angle_alpha                90
_cell_angle_beta                 98.00(3)
_cell_angle_gamma                90
_cell_volume                     1630.87
_exptl_crystal_colour            colorless
_exptl_crystal_description       Block
_cell_formula_units_Z            4
loop_
_atom_site_label
_atom_site_type_symbol
_atom_site_fract_x
_atom_site_fract_y
_atom_site_fract_z
F1 F -0.0268(2) 0.13283(13) -0.2349(2)
F2 F -0.1207(2) 0.02560(16) -0.4185(2)
F3 F -0.0357(3) -0.13181(15) -0.4048(2)
F4 F 0.1384(3) -0.18294(14) -0.2072(2)
C1 C 0.1174(3) 0.0325(2) -0.1086(3)
C2 C 0.0178(3) 0.0555(2) -0.2179(3)
C3 C -0.0282(4) 0.0004(3) -0.3146(4)
C4 C 0.0133(4) -0.0770(3) -0.3085(4)
C5 C 0.1035(4) -0.1025(2) -0.2049(4)
C6 C 0.1594(4) -0.0505(2) -0.1016(4)
C7 C 0.2573(4) -0.0794(2) 0.0095(4)
C8 C 0.3002(3) -0.0249(2) 0.1110(3)
C9 C 0.2570(3) 0.0594(2) 0.1056(3)
C10 C 0.1696(3) 0.0898(2) -0.0030(3)
C11 C 0.1317(4) 0.1726(2) -0.0030(4)
H1 H 0.0719 0.1926 -0.0743
C12 C 0.1799(4) 0.2254(2) 0.0988(4)
H2 H 0.1555 0.2806 0.0953
C13 C 0.2670(5) 0.1938(2) 0.2083(4)
H3 H 0.2978 0.2279 0.2798
C14 C 0.3059(4) 0.1146(2) 0.2101(4)
H4 H 0.3665 0.0955 0.2815
C15 C 0.3334(5) -0.1562(3) -0.0042(5)
H5 H 0.4259 -0.1498 0.0390
H6 H 0.3358 -0.1677 -0.0977
C16 C 0.2672(5) -0.2272(3) 0.0586(5)
H7 H 0.1772 -0.2365 0.0110
H8 H 0.2588 -0.2143 0.1505
C17 C 0.3556(5) -0.3068(3) 0.0528(5)
H9 H 0.3137 -0.3518 0.0926
H10 H 0.4442 -0.2974 0.1007
H11 H 0.3629 -0.3196 -0.0383
C18 C 0.3999(3) -0.0545(2) 0.2326(4)
H12 H 0.3725 -0.0313 0.3128
H13 H 0.3937 -0.1138 0.2389
C19 C 0.5466(4) -0.0310(3) 0.2264(4)
H14 H 0.5525 0.0277 0.2122
H15 H 0.5778 -0.0587 0.1515
C20 C 0.6357(4) -0.0539(3) 0.3517(4)
H16 H 0.7273 -0.0384 0.3449
H17 H 0.6313 -0.1122 0.3650
H18 H 0.6058 -0.0260 0.4257
loop_
_geom_bond_atom_site_label_1
_geom_bond_atom_site_label_2
_geom_bond_site_symmetry_1
_geom_bond_site_symmetry_2
F1 C2 1_555 1_555
F2 C3 1_555 1_555
F3 C4 1_555 1_555
F4 C5 1_555 1_555
C1 C2 1_555 1_555
C2 C3 1_555 1_555
C3 C4 1_555 1_555
C4 C5 1_555 1_555
C5 C6 1_555 1_555
C6 C1 1_555 1_555
C7 C6 1_555 1_555
C8 C7 1_555 1_555
C9 C8 1_555 1_555
C10 C1 1_555 1_555
C11 C10 1_555 1_555
H1 C11 1_555 1_555
C12 C11 1_555 1_555
H2 C12 1_555 1_555
C13 C12 1_555 1_555
H3 C13 1_555 1_555
C14 C9 1_555 1_555
H4 C14 1_555 1_555
C15 C7 1_555 1_555
H5 C15 1_555 1_555
H6 C15 1_555 1_555
C16 C15 1_555 1_555
H7 C16 1_555 1_555
H8 C16 1_555 1_555
C17 C16 1_555 1_555
H9 C17 1_555 1_555
H10 C17 1_555 1_555
H11 C17 1_555 1_555
C18 C8 1_555 1_555
H12 C18 1_555 1_555
H13 C18 1_555 1_555
C19 C18 1_555 1_555
H14 C19 1_555 1_555
H15 C19 1_555 1_555
C20 C19 1_555 1_555
H16 C20 1_555 1_555
H17 C20 1_555 1_555
H18 C20 1_555 1_555
C9 C10 1_555 1_555
C13 C14 1_555 1_555

#END
