
#######################################################################
#
#                 Cambridge Crystallographic Data Centre
#                                CCDC 
#
#######################################################################
#
# If this CIF has been generated from an entry in the Cambridge 
# Structural Database, then it will include bibliographic, chemical, 
# crystal, experimental, refinement or atomic coordinate data resulting 
# from the CCDC's data processing and validation procedures.
#
#######################################################################

data_MEKZAE
_chemical_formula_moiety         'C18 H20 F4'
_chemical_name_systematic        
1,2,3,4-tetraethyl-5,6,7,8-tetrafluoronaphthalene
_symmetry_cell_setting           monoclinic
_symmetry_space_group_name_H-M   'C 2/c'
_symmetry_Int_Tables_number      15
_space_group_name_Hall           '-C 2yn'
loop_
_symmetry_equiv_pos_site_id
_symmetry_equiv_pos_as_xyz
1 x,y,z
2 1/2+x,1/2+y,z
3 -x,y,1/2-z
4 1/2-x,1/2+y,1/2-z
5 -x,-y,-z
6 1/2-x,1/2-y,-z
7 x,-y,1/2+z
8 1/2+x,1/2-y,1/2+z
_cell_length_a                   14.496(3)
_cell_length_b                   14.406(3)
_cell_length_c                   8.0678(16)
_cell_angle_alpha                90
_cell_angle_beta                 103.90(3)
_cell_angle_gamma                90
_cell_volume                     1635.46
_exptl_crystal_colour            colorless
_exptl_crystal_description       Block
_chemical_melting_point          '75-76 deg.C'
_cell_formula_units_Z            4
loop_
_atom_site_label
_atom_site_type_symbol
_atom_site_fract_x
_atom_site_fract_y
_atom_site_fract_z
F1 F 0.08649(10) -0.18508(8) 0.20861(19)
F2 F 0.17342(8) -0.02768(8) 0.16741(18)
C1 C 0.04380(13) -0.10174(12) 0.2286(3)
C2 C 0.08661(12) -0.01940(13) 0.2081(2)
C3 C 0.04641(10) 0.07100(11) 0.2280(2)
C4 C 0.09175(10) 0.15918(12) 0.20815(19)
C5 C 0.04686(10) 0.24329(11) 0.23080(19)
C6 C 0.09440(12) 0.33747(13) 0.2118(2)
H1 H 0.0728 0.3830 0.2827
H2 H 0.1626 0.3309 0.2543
C7 C 0.07368(13) 0.37456(15) 0.0270(3)
H3 H 0.1051 0.4331 0.0255
H4 H 0.0064 0.3827 -0.0157
H5 H 0.0966 0.3310 -0.0438
C8 C 0.19114(10) 0.16070(14) 0.1683(2)
H6 H 0.1936 0.1139 0.0830
H7 H 0.2015 0.2208 0.1215
C9 C 0.26940(11) 0.14218(15) 0.3279(2)
H8 H 0.3300 0.1434 0.2994
H9 H 0.2598 0.0823 0.3733
H10 H 0.2678 0.1891 0.4116
F1B F -0.08649(10) -0.18508(8) 0.29139(19)
F2B F -0.17342(8) -0.02768(8) 0.33259(18)
C1B C -0.04380(13) -0.10174(12) 0.2714(3)
C2B C -0.08661(12) -0.01940(13) 0.2919(2)
C3B C -0.04641(10) 0.07100(11) 0.2720(2)
C4B C -0.09175(10) 0.15918(12) 0.29185(19)
C5B C -0.04686(10) 0.24329(11) 0.26920(19)
C6B C -0.09440(12) 0.33747(13) 0.2882(2)
H1B H -0.0728 0.3830 0.2173
H2B H -0.1626 0.3309 0.2457
C7B C -0.07368(13) 0.37456(15) 0.4730(3)
H3B H -0.1051 0.4331 0.4745
H4B H -0.0064 0.3827 0.5157
H5B H -0.0966 0.3310 0.5438
C8B C -0.19114(10) 0.16070(14) 0.3317(2)
H6B H -0.1936 0.1139 0.4170
H7B H -0.2015 0.2208 0.3785
C9B C -0.26940(11) 0.14218(15) 0.1721(2)
H8B H -0.3300 0.1434 0.2006
H9B H -0.2598 0.0823 0.1267
H10B H -0.2678 0.1891 0.0884
loop_
_geom_bond_atom_site_label_1
_geom_bond_atom_site_label_2
_geom_bond_site_symmetry_1
_geom_bond_site_symmetry_2
F1 C1 1_555 1_555
F2 C2 1_555 1_555
C1 C2 1_555 1_555
C2 C3 1_555 1_555
C3 C4 1_555 1_555
C4 C5 1_555 1_555
C5 C6 1_555 1_555
C6 H1 1_555 1_555
H2 C6 1_555 1_555
C7 C6 1_555 1_555
H3 C7 1_555 1_555
H4 C7 1_555 1_555
H5 C7 1_555 1_555
C8 C4 1_555 1_555
H6 C8 1_555 1_555
H7 C8 1_555 1_555
C9 C8 1_555 1_555
H8 C9 1_555 1_555
H9 C9 1_555 1_555
H10 C9 1_555 1_555
F1B C1B 1_555 1_555
F2B C2B 1_555 1_555
C1B C1 1_555 1_555
C2B C1B 1_555 1_555
C3B C3 1_555 1_555
C4B C3B 1_555 1_555
C5B C5 1_555 1_555
C6B C5B 1_555 1_555
H1B C6B 1_555 1_555
H2B C6B 1_555 1_555
C7B C6B 1_555 1_555
H3B C7B 1_555 1_555
H4B C7B 1_555 1_555
H5B C7B 1_555 1_555
C8B C4B 1_555 1_555
H6B C8B 1_555 1_555
H7B C8B 1_555 1_555
C9B C8B 1_555 1_555
H8B C9B 1_555 1_555
H9B C9B 1_555 1_555
H10B C9B 1_555 1_555
C2B C3B 1_555 1_555
C4B C5B 1_555 1_555

#END
