
#######################################################################
#
#                 Cambridge Crystallographic Data Centre
#                                CCDC 
#
#######################################################################
#
# If this CIF has been generated from an entry in the Cambridge 
# Structural Database, then it will include bibliographic, chemical, 
# crystal, experimental, refinement or atomic coordinate data resulting 
# from the CCDC's data processing and validation procedures.
#
#######################################################################

data_MELFIT18
_chemical_name_common            Aripiprazole
_chemical_formula_moiety         'C23 H27 Cl2 N3 O2'
_chemical_name_systematic        
7-(4-(4-(2,3-dichlorophenyl)piperazin-1-yl)butoxy)-3,4-dihydroquinolin-2(1H)-one
_symmetry_cell_setting           orthorhombic
_symmetry_space_group_name_H-M   'P n a 21'
_symmetry_Int_Tables_number      33
_space_group_name_Hall           'P 2c -2n'
loop_
_symmetry_equiv_pos_site_id
_symmetry_equiv_pos_as_xyz
1 x,y,z
2 -x,-y,1/2+z
3 1/2-x,1/2+y,1/2+z
4 1/2+x,1/2-y,z
_cell_length_a                   21.627(4)
_cell_length_b                   12.9438(19)
_cell_length_c                   7.6207(13)
_cell_angle_alpha                90
_cell_angle_beta                 90
_cell_angle_gamma                90
_cell_volume                     2133.3
_exptl_crystal_colour            colorless
_exptl_crystal_description       rod
_cell_formula_units_Z            4
loop_
_atom_site_label
_atom_site_type_symbol
_atom_site_fract_x
_atom_site_fract_y
_atom_site_fract_z
Cl1 Cl -0.02249(3) 0.21972(5) -0.46381(8)
Cl2 Cl -0.14658(3) 0.33403(5) -0.53291(9)
O1 O 0.26344(7) -0.09647(12) 0.4894(2)
O2 O 0.50801(8) -0.00224(12) 1.0718(2)
N1 N 0.00809(9) 0.18544(15) -0.0872(2)
N2 N 0.10720(8) 0.05655(14) 0.0281(3)
N3 N 0.43451(10) -0.05768(16) 0.8855(3)
H1 H 0.4582 -0.0411 0.7959
C1 C -0.06884(12) 0.25531(19) -0.2867(3)
C2 C -0.12366(12) 0.30661(19) -0.3189(3)
C3 C -0.16112(12) 0.3389(2) -0.1828(3)
H2 H -0.1993 0.3726 -0.2054
C4 C -0.14159(11) 0.32098(17) -0.0133(4)
H3 H -0.1664 0.3439 0.0820
C5 C -0.08665(11) 0.27037(19) 0.0206(4)
H4 H -0.0743 0.2590 0.1387
C6 C -0.04900(11) 0.23571(18) -0.1156(3)
C7 C 0.03796(11) 0.20338(19) 0.0820(3)
H5 H 0.0155 0.1657 0.1754
H6 H 0.0370 0.2780 0.1105
C8 C 0.10447(11) 0.16614(18) 0.0733(3)
H7 H 0.1273 0.2067 -0.0158
H8 H 0.1247 0.1773 0.1883
C9 C 0.07521(12) 0.0389(2) -0.1384(4)
H9 H 0.0762 -0.0356 -0.1671
H10 H 0.0968 0.0767 -0.2333
C10 C 0.00885(12) 0.07506(17) -0.1279(3)
H11 H -0.0122 0.0625 -0.2412
H12 H -0.0133 0.0362 -0.0355
C11 C 0.17159(11) 0.0213(2) 0.0137(4)
H13 H 0.1933 0.0652 -0.0731
H14 H 0.1717 -0.0504 -0.0318
C12 C 0.20749(12) 0.0238(2) 0.1850(3)
H15 H 0.2489 -0.0069 0.1661
H16 H 0.2133 0.0965 0.2218
C13 C 0.17471(12) -0.0348(2) 0.3299(4)
H17 H 0.1333 -0.0037 0.3475
H18 H 0.1684 -0.1070 0.2909
C14 C 0.20783(11) -0.03623(19) 0.5030(3)
H19 H 0.2183 0.0353 0.5384
H20 H 0.1806 -0.0662 0.5941
C15 C 0.29054(12) -0.11691(19) 0.6520(4)
C16 C 0.25863(12) -0.1726(2) 0.7783(3)
H21 H 0.2187 -0.1994 0.7535
C17 C 0.28537(11) -0.18884(18) 0.9399(3)
H22 H 0.2632 -0.2268 1.0260
C18 C 0.34367(11) -0.15135(18) 0.9806(4)
C19 C 0.37533(12) -0.09781(18) 0.8498(3)
C20 C 0.34901(12) -0.08098(18) 0.6843(3)
H23 H 0.3714 -0.0452 0.5958
C21 C 0.37386(11) -0.1654(2) 1.1551(3)
H24 H 0.3987 -0.2296 1.1542
H25 H 0.3417 -0.1723 1.2468
C22 C 0.41566(12) -0.0736(2) 1.1988(3)
H26 H 0.3896 -0.0138 1.2313
H27 H 0.4415 -0.0914 1.3017
C23 C 0.45722(12) -0.04300(19) 1.0492(4)
loop_
_geom_bond_atom_site_label_1
_geom_bond_atom_site_label_2
_geom_bond_site_symmetry_1
_geom_bond_site_symmetry_2
Cl1 C1 1_555 1_555
Cl2 C2 1_555 1_555
O1 C14 1_555 1_555
O2 C23 1_555 1_555
N1 C6 1_555 1_555
N2 C8 1_555 1_555
N3 H1 1_555 1_555
C1 C2 1_555 1_555
C2 C3 1_555 1_555
C3 H2 1_555 1_555
C4 C3 1_555 1_555
H3 C4 1_555 1_555
C5 C4 1_555 1_555
H4 C5 1_555 1_555
C6 C1 1_555 1_555
C7 N1 1_555 1_555
H5 C7 1_555 1_555
H6 C7 1_555 1_555
C8 C7 1_555 1_555
H7 C8 1_555 1_555
H8 C8 1_555 1_555
C9 N2 1_555 1_555
H9 C9 1_555 1_555
H10 C9 1_555 1_555
C10 N1 1_555 1_555
H11 C10 1_555 1_555
H12 C10 1_555 1_555
C11 N2 1_555 1_555
H13 C11 1_555 1_555
H14 C11 1_555 1_555
C12 C11 1_555 1_555
H15 C12 1_555 1_555
H16 C12 1_555 1_555
C13 C12 1_555 1_555
H17 C13 1_555 1_555
H18 C13 1_555 1_555
C14 C13 1_555 1_555
H19 C14 1_555 1_555
H20 C14 1_555 1_555
C15 O1 1_555 1_555
C16 C15 1_555 1_555
H21 C16 1_555 1_555
C17 C16 1_555 1_555
H22 C17 1_555 1_555
C18 C17 1_555 1_555
C19 N3 1_555 1_555
C20 C15 1_555 1_555
H23 C20 1_555 1_555
C21 C18 1_555 1_555
H24 C21 1_555 1_555
H25 C21 1_555 1_555
C22 C21 1_555 1_555
H26 C22 1_555 1_555
H27 C22 1_555 1_555
C23 N3 1_555 1_555
C5 C6 1_555 1_555
C9 C10 1_555 1_555
C18 C19 1_555 1_555
C19 C20 1_555 1_555
C22 C23 1_555 1_555

#END
