
#######################################################################
#
#                 Cambridge Crystallographic Data Centre
#                                CCDC 
#
#######################################################################
#
# If this CIF has been generated from an entry in the Cambridge 
# Structural Database, then it will include bibliographic, chemical, 
# crystal, experimental, refinement or atomic coordinate data resulting 
# from the CCDC's data processing and validation procedures.
#
#######################################################################

data_MELFIT10
_chemical_name_common            Aripiprazole
_chemical_formula_moiety         'C23 H27 Cl2 N3 O2'
_chemical_name_systematic        
7-(4-(4-(2,3-dichlorophenyl)piperazin-1-yl)butoxy)-3,4-dihydroquinolin-2(1H)-one
_symmetry_cell_setting           orthorhombic
_symmetry_space_group_name_H-M   'P n a 21'
_symmetry_Int_Tables_number      33
_space_group_name_Hall           'P 2c -2n'
loop_
_symmetry_equiv_pos_site_id
_symmetry_equiv_pos_as_xyz
1 x,y,z
2 -x,-y,1/2+z
3 1/2-x,1/2+y,1/2+z
4 1/2+x,1/2-y,z
_cell_length_a                   21.6616(18)
_cell_length_b                   13.1149(11)
_cell_length_c                   7.6397(6)
_cell_angle_alpha                90
_cell_angle_beta                 90
_cell_angle_gamma                90
_cell_volume                     2170.36
_exptl_crystal_colour            colorless
_exptl_crystal_description       rod
_cell_formula_units_Z            4
loop_
_atom_site_label
_atom_site_type_symbol
_atom_site_fract_x
_atom_site_fract_y
_atom_site_fract_z
Cl1 Cl 0.64618(3) 0.66884(6) -0.03552(11)
Cl2 Cl 0.52211(3) 0.78157(6) 0.03431(10)
O1 O 0.23627(8) 1.09293(16) 0.9867(3)
O2 O -0.00778(8) 1.00238(19) 1.5666(3)
N1 N 0.49126(10) 0.81344(18) 0.4100(3)
N2 N 0.39139(9) 0.93864(18) 0.5265(3)
N3 N 0.06556(9) 1.05624(18) 1.3813(3)
H1 H 0.0415 1.0406 1.2925
C1 C 0.62336(12) 0.6953(2) 0.1772(4)
C2 C 0.66074(13) 0.6627(2) 0.3127(4)
H2 H 0.6980 0.6298 0.2903
C3 C 0.64132(13) 0.6802(2) 0.4826(5)
H3 H 0.6658 0.6586 0.5754
C4 C 0.56811(11) 0.7454(2) 0.2077(4)
C5 C 0.58601(12) 0.7294(2) 0.5166(4)
H4 H 0.5737 0.7392 0.6320
C6 C 0.54869(12) 0.7643(2) 0.3815(4)
C7 C 0.46180(13) 0.7953(2) 0.5790(4)
H5 H 0.4835 0.8325 0.6699
H6 H 0.4633 0.7233 0.6073
C8 C 0.49010(12) 0.9231(2) 0.3710(4)
H7 H 0.5106 0.9361 0.2604
H8 H 0.5117 0.9604 0.4619
C9 C 0.39502(13) 0.8307(2) 0.5698(4)
H9 H 0.3732 0.7914 0.4817
H10 H 0.3751 0.8188 0.6816
C10 C 0.42356(13) 0.9579(2) 0.3614(4)
H11 H 0.4223 1.0302 0.3352
H12 H 0.4027 0.9220 0.2674
C11 C 0.32727(13) 0.9738(3) 0.5126(4)
H13 H 0.3057 0.9309 0.4292
H14 H 0.3271 1.0428 0.4671
C12 C 0.29235(12) 0.9722(3) 0.6856(4)
H15 H 0.2511 0.9990 0.6676
H16 H 0.2885 0.9023 0.7257
C13 C 0.32475(13) 1.0346(3) 0.8246(5)
H17 H 0.3661 1.0076 0.8402
H18 H 0.3288 1.1041 0.7824
C14 C 0.29332(13) 1.0371(3) 0.9997(5)
H19 H 0.2851 0.9681 1.0388
H20 H 0.3201 1.0695 1.0850
C15 C 0.21030(11) 1.1134(2) 1.1479(4)
C16 C 0.24194(12) 1.1686(2) 1.2736(4)
H21 H 0.2810 1.1947 1.2496
C17 C 0.21481(11) 1.1846(2) 1.4360(4)
H22 H 0.2364 1.2211 1.5206
C18 C 0.15110(11) 1.0778(2) 1.1812(4)
H23 H 0.1292 1.0429 1.0953
C19 C 0.12492(10) 1.0951(2) 1.3448(4)
C20 C 0.15663(10) 1.1477(2) 1.4754(4)
C21 C 0.12630(12) 1.1627(2) 1.6501(4)
H24 H 0.1022 1.2249 1.6485
H25 H 0.1577 1.1694 1.7399
C22 C 0.08443(12) 1.0726(2) 1.6933(4)
H26 H 0.1098 1.0147 1.7261
H27 H 0.0589 1.0901 1.7932
C23 C 0.04345(11) 1.0422(2) 1.5442(4)
loop_
_geom_bond_atom_site_label_1
_geom_bond_atom_site_label_2
_geom_bond_site_symmetry_1
_geom_bond_site_symmetry_2
Cl1 C1 1_555 1_555
Cl2 C4 1_555 1_555
O1 C14 1_555 1_555
O2 C23 1_555 1_555
N1 C6 1_555 1_555
N2 C9 1_555 1_555
N3 H1 1_555 1_555
C1 C2 1_555 1_555
C2 H2 1_555 1_555
C3 C2 1_555 1_555
H3 C3 1_555 1_555
C4 C1 1_555 1_555
C5 C3 1_555 1_555
H4 C5 1_555 1_555
C6 C4 1_555 1_555
C7 N1 1_555 1_555
H5 C7 1_555 1_555
H6 C7 1_555 1_555
C8 N1 1_555 1_555
H7 C8 1_555 1_555
H8 C8 1_555 1_555
C9 C7 1_555 1_555
H9 C9 1_555 1_555
H10 C9 1_555 1_555
C10 N2 1_555 1_555
H11 C10 1_555 1_555
H12 C10 1_555 1_555
C11 N2 1_555 1_555
H13 C11 1_555 1_555
H14 C11 1_555 1_555
C12 C11 1_555 1_555
H15 C12 1_555 1_555
H16 C12 1_555 1_555
C13 C12 1_555 1_555
H17 C13 1_555 1_555
H18 C13 1_555 1_555
C14 C13 1_555 1_555
H19 C14 1_555 1_555
H20 C14 1_555 1_555
C15 O1 1_555 1_555
C16 C15 1_555 1_555
H21 C16 1_555 1_555
C17 C16 1_555 1_555
H22 C17 1_555 1_555
C18 C15 1_555 1_555
H23 C18 1_555 1_555
C19 N3 1_555 1_555
C20 C17 1_555 1_555
C21 C20 1_555 1_555
H24 C21 1_555 1_555
H25 C21 1_555 1_555
C22 C21 1_555 1_555
H26 C22 1_555 1_555
H27 C22 1_555 1_555
C23 N3 1_555 1_555
C5 C6 1_555 1_555
C8 C10 1_555 1_555
C18 C19 1_555 1_555
C19 C20 1_555 1_555
C22 C23 1_555 1_555

#END
