
#######################################################################
#
#                 Cambridge Crystallographic Data Centre
#                                CCDC 
#
#######################################################################
#
# If this CIF has been generated from an entry in the Cambridge 
# Structural Database, then it will include bibliographic, chemical, 
# crystal, experimental, refinement or atomic coordinate data resulting 
# from the CCDC's data processing and validation procedures.
#
#######################################################################

data_MELHUJ
_chemical_compound_source        'dried leaves of Artemisia annua L.'
_chemical_name_common            'arteannoide A methanol solvate hemihydrate'
_chemical_formula_moiety         'C30 H40 O6,1.5(C1 H4 O1),0.5(H2 O1)'
_chemical_name_systematic        
'2-(3-(2-acetyl-7-methyl-3a,4,5,6,7,7a-hexahydro-1H-inden-4-yl)-8-methyl-2-oxododecahydro-2H-3,11b-epoxynaphtho[1,2-b]oxepin-11-yl)prop-2-enoic acid methanol solvate hemihydrate'
_symmetry_cell_setting           orthorhombic
_symmetry_space_group_name_H-M   'P 21 21 21'
_symmetry_Int_Tables_number      19
_space_group_name_Hall           'P 2ac 2ab'
loop_
_symmetry_equiv_pos_site_id
_symmetry_equiv_pos_as_xyz
1 x,y,z
2 1/2-x,-y,1/2+z
3 1/2+x,1/2-y,-z
4 -x,1/2+y,1/2-z
_cell_length_a                   8.2387(2)
_cell_length_b                   18.5727(3)
_cell_length_c                   39.5015(8)
_cell_angle_alpha                90
_cell_angle_beta                 90
_cell_angle_gamma                90
_cell_volume                     6044.32
_exptl_crystal_colour            colorless
_exptl_crystal_description       block
_chemical_melting_point          '237.5-239.0 deg.C'
_cell_formula_units_Z            8
loop_
_atom_site_label
_atom_site_type_symbol
_atom_site_fract_x
_atom_site_fract_y
_atom_site_fract_z
O1 O 1.1325(3) 0.52461(11) 0.61201(5)
O2 O 1.2597(3) 0.55530(12) 0.66073(6)
O3 O 1.2109(3) 0.67429(12) 0.66086(6)
O4 O 1.3381(4) 0.44262(14) 0.55508(6)
O5 O 1.3629(5) 0.55528(15) 0.53671(7)
H1 H 1.3592 0.5372 0.5178
O6 O 0.8471(5) 0.47749(19) 0.46609(8)
C1 C 1.1826(4) 0.61590(18) 0.64945(8)
C2 C 1.0595(4) 0.59212(16) 0.62232(8)
C3 C 1.0500(4) 0.64097(18) 0.59125(8)
H2 H 1.1593 0.6449 0.5816
C4 C 0.9373(4) 0.61107(18) 0.56366(8)
H3 H 0.8263 0.6150 0.5723
C5 C 1.4563(4) 0.53065(18) 0.59170(8)
C6 C 1.1926(4) 0.49376(17) 0.64239(8)
C7 C 1.3802(5) 0.50399(19) 0.55965(9)
C8 C 1.3262(4) 0.44083(17) 0.63469(8)
H4 H 1.2852 0.4078 0.6173
C9 C 0.9543(5) 0.53673(19) 0.54910(9)
H5 H 0.9909 0.4968 0.5611
C10 C 1.4811(4) 0.47703(18) 0.62029(9)
H6 H 1.5302 0.5039 0.6390
C11 C 0.9017(4) 0.57539(18) 0.64063(8)
H7 H 0.8264 0.5529 0.6250
H8 H 0.8531 0.6199 0.6485
C12 C 1.4949(4) 0.33562(17) 0.65545(9)
H9 H 1.4432 0.3056 0.6381
C13 C 1.3725(4) 0.39462(17) 0.66610(8)
H10 H 1.4273 0.4263 0.6823
C14 C 1.5023(4) 0.59867(18) 0.59438(9)
H11 H 1.4873 0.6301 0.5763
H12 H 1.5495 0.6151 0.6143
C15 C 1.0483(4) 0.46361(17) 0.66225(8)
H13 H 0.9910 0.4298 0.6474
C16 C 1.6052(4) 0.41874(18) 0.60997(9)
H14 H 1.5611 0.3901 0.5916
H15 H 1.7038 0.4416 0.6020
C17 C 0.9300(4) 0.52519(18) 0.67081(8)
H16 H 0.8270 0.5049 0.6779
H17 H 0.9733 0.5529 0.6896
C18 C 1.1028(5) 0.42212(19) 0.69332(9)
H18 H 1.1532 0.4549 0.7093
H19 H 1.0093 0.4005 0.7042
C19 C 0.9898(5) 0.71770(19) 0.59936(9)
H20 H 0.8826 0.7149 0.6094
H21 H 1.0621 0.7396 0.6158
C20 C 0.9460(5) 0.6579(2) 0.53154(9)
H22 H 1.0606 0.6620 0.5252
C21 C 1.2228(5) 0.36375(18) 0.68358(9)
H23 H 1.1701 0.3297 0.6685
H24 H 1.2561 0.3379 0.7038
C22 C 0.9100(5) 0.5359(2) 0.51672(10)
C23 C 1.6447(4) 0.36981(18) 0.63990(10)
H25 H 1.7177 0.3321 0.6324
H26 H 1.7006 0.3977 0.6571
C24 C 0.8631(6) 0.6109(2) 0.50481(10)
H27 H 0.7463 0.6175 0.5049
H28 H 0.9047 0.6207 0.4823
C25 C 0.8834(5) 0.7339(2) 0.53832(10)
H29 H 0.7697 0.7306 0.5455
C26 C 1.5413(5) 0.2873(2) 0.68514(10)
H30 H 1.5729 0.3165 0.7041
H31 H 1.6302 0.2568 0.6787
H32 H 1.4500 0.2580 0.6914
C27 C 0.9824(5) 0.7652(2) 0.56764(10)
H33 H 0.9362 0.8114 0.5738
H34 H 1.0923 0.7738 0.5598
C28 C 0.8975(6) 0.4721(2) 0.49512(11)
C29 C 0.8923(6) 0.7820(2) 0.50692(11)
H35 H 1.0033 0.7868 0.4999
H36 H 0.8488 0.8286 0.5122
H37 H 0.8303 0.7606 0.4889
C30 C 0.9479(8) 0.4002(3) 0.50920(13)
H38 H 0.8644 0.3823 0.5239
H39 H 1.0471 0.4056 0.5217
H40 H 0.9643 0.3669 0.4909
O7 O 0.6376(3) 0.57117(11) 0.79365(5)
O8 O 0.7518(3) 0.53942(12) 0.74352(6)
O9 O 0.7189(3) 0.41983(12) 0.74538(6)
O10 O 0.8431(4) 0.67790(14) 0.84335(7)
O11 O 0.3110(5) 0.60580(16) 0.94116(8)
O12 O 0.8750(6) 0.57014(18) 0.86782(8)
H41 H 0.8706 0.5925 0.8857
C31 C 0.6889(4) 0.47782(18) 0.75698(9)
C32 C 0.6822(4) 0.60048(17) 0.76183(8)
C33 C 0.5749(4) 0.50069(17) 0.78599(8)
C34 C 0.8124(4) 0.65818(17) 0.76564(8)
H42 H 0.7727 0.6935 0.7821
C35 C 0.5856(4) 0.45464(17) 0.81800(8)
H43 H 0.6952 0.4601 0.8273
C36 C 0.9626(4) 0.76095(17) 0.73751(8)
H44 H 0.9162 0.7931 0.7546
C37 C 0.9932(5) 0.80569(19) 0.70558(9)
H45 H 1.0321 0.7749 0.6878
H46 H 1.0729 0.8420 0.7103
H47 H 0.8938 0.8282 0.6986
C38 C 0.8415(4) 0.69836(18) 0.73200(8)
H48 H 0.8926 0.6643 0.7164
C39 C 0.9732(4) 0.62728(18) 0.77947(9)
H49 H 1.0169 0.5956 0.7618
C40 C 0.4651(5) 0.35427(19) 0.87318(9)
H50 H 0.3519 0.3464 0.8665
C41 C 1.1216(4) 0.73155(18) 0.75151(9)
H51 H 1.1949 0.7713 0.7560
H52 H 1.1719 0.7008 0.7347
C42 C 1.0958(4) 0.68863(19) 0.78402(9)
H53 H 1.0575 0.7208 0.8016
H54 H 1.1988 0.6687 0.7913
C43 C 0.5754(5) 0.32982(18) 0.84428(9)
H55 H 0.6874 0.3330 0.8517
H56 H 0.5527 0.2797 0.8393
C44 C 0.5555(5) 0.37369(17) 0.81196(9)
H57 H 0.4465 0.3670 0.8032
H58 H 0.6313 0.3562 0.7950
C45 C 0.4063(4) 0.51075(18) 0.77049(9)
H59 H 0.3347 0.5324 0.7871
H60 H 0.3619 0.4641 0.7644
C46 C 0.5273(4) 0.62373(19) 0.74355(9)
H61 H 0.4714 0.6587 0.7580
C47 C 0.4139(4) 0.55871(18) 0.73899(9)
H62 H 0.3056 0.5759 0.7338
H63 H 0.4513 0.5302 0.7199
C48 C 0.8872(5) 0.6163(2) 0.84208(9)
C49 C 0.4640(5) 0.47715(18) 0.84555(9)
H64 H 0.3560 0.4638 0.8373
C50 C 0.9602(4) 0.58257(19) 0.81122(10)
C51 C 0.5658(4) 0.66083(19) 0.71014(9)
H65 H 0.6137 0.6264 0.6946
H66 H 0.4664 0.6788 0.7001
C52 C 0.6827(5) 0.72285(19) 0.71578(9)
H67 H 0.6315 0.7584 0.7303
H68 H 0.7061 0.7456 0.6942
C53 C 1.0153(4) 0.5147(2) 0.81239(11)
H69 H 1.0082 0.4885 0.8324
H70 H 1.0606 0.4938 0.7932
C54 C 0.4917(5) 0.43469(18) 0.87825(9)
H71 H 0.6056 0.4413 0.8847
C55 C 0.4507(5) 0.5528(2) 0.85905(10)
H72 H 0.4728 0.5943 0.8467
C56 C 0.3888(6) 0.4745(2) 0.90438(10)
H73 H 0.2773 0.4578 0.9043
H74 H 0.4335 0.4700 0.9270
C57 C 0.4026(6) 0.5513(2) 0.89116(10)
C58 C 0.3605(8) 0.6144(2) 0.91253(11)
C59 C 0.4988(7) 0.3114(2) 0.90556(10)
H75 H 0.4880 0.2609 0.9010
H76 H 0.4224 0.3251 0.9227
H77 H 0.6070 0.3213 0.9133
C60 C 0.3772(11) 0.6876(2) 0.89741(14)
H78 H 0.3189 0.6895 0.8764
H79 H 0.4898 0.6977 0.8934
H80 H 0.3336 0.7227 0.9127
O13 O 0.3145(5) 0.51275(18) 0.47450(8)
H81 H 0.2590 0.4805 0.4663
C61 C 0.4704(8) 0.5076(4) 0.46238(17)
H82 H 0.4691 0.5108 0.4381
H83 H 0.5163 0.4623 0.4691
H84 H 0.5346 0.5461 0.4715
O14 O 0.7573(8) 0.3712(2) 0.42178(10)
H85 H 0.7636 0.3952 0.4400
H86 H 0.7234 0.3290 0.4261
C62 C 0.581(2) 0.2064(5) 0.4144(3)
H87 H 0.5734 0.1623 0.4270
H88 H 0.6759 0.2056 0.4005
H89 H 0.4861 0.2115 0.4004
O15 O 0.589(3) 0.2643(10) 0.4368(4)
H90 H 0.5929 0.2491 0.4563
O16 O 0.3112(13) 0.2792(5) 0.4808(3)
H91 H 0.2767 0.3134 0.4698
C63 C 0.427(2) 0.3059(7) 0.5072(3)
H92 H 0.5201 0.2750 0.5079
H93 H 0.3740 0.3057 0.5289
H94 H 0.4600 0.3540 0.5017
loop_
_geom_bond_atom_site_label_1
_geom_bond_atom_site_label_2
_geom_bond_site_symmetry_1
_geom_bond_site_symmetry_2
O1 C2 1_555 1_555
O2 C1 1_555 1_555
O3 C1 1_555 1_555
O4 C7 1_555 1_555
O5 H1 1_555 1_555
O6 C28 1_555 1_555
C1 C2 1_555 1_555
C2 C3 1_555 1_555
C3 H2 1_555 1_555
C4 C3 1_555 1_555
H3 C4 1_555 1_555
C5 C7 1_555 1_555
C6 O1 1_555 1_555
C7 O5 1_555 1_555
C8 C6 1_555 1_555
H4 C8 1_555 1_555
C9 C4 1_555 1_555
H5 C9 1_555 1_555
C10 C5 1_555 1_555
H6 C10 1_555 1_555
C11 C2 1_555 1_555
H7 C11 1_555 1_555
H8 C11 1_555 1_555
C12 H9 1_555 1_555
C13 C8 1_555 1_555
H10 C13 1_555 1_555
C14 C5 1_555 1_555
H11 C14 1_555 1_555
H12 C14 1_555 1_555
C15 C6 1_555 1_555
H13 C15 1_555 1_555
C16 C10 1_555 1_555
H14 C16 1_555 1_555
H15 C16 1_555 1_555
C17 C11 1_555 1_555
H16 C17 1_555 1_555
H17 C17 1_555 1_555
C18 C15 1_555 1_555
H18 C18 1_555 1_555
H19 C18 1_555 1_555
C19 C3 1_555 1_555
H20 C19 1_555 1_555
H21 C19 1_555 1_555
C20 C4 1_555 1_555
H22 C20 1_555 1_555
C21 C13 1_555 1_555
H23 C21 1_555 1_555
H24 C21 1_555 1_555
C22 C9 1_555 1_555
C23 C12 1_555 1_555
H25 C23 1_555 1_555
H26 C23 1_555 1_555
C24 C20 1_555 1_555
H27 C24 1_555 1_555
H28 C24 1_555 1_555
C25 C20 1_555 1_555
H29 C25 1_555 1_555
C26 C12 1_555 1_555
H30 C26 1_555 1_555
H31 C26 1_555 1_555
H32 C26 1_555 1_555
C27 C19 1_555 1_555
H33 C27 1_555 1_555
H34 C27 1_555 1_555
C28 C22 1_555 1_555
C29 C25 1_555 1_555
H35 C29 1_555 1_555
H36 C29 1_555 1_555
H37 C29 1_555 1_555
C30 C28 1_555 1_555
H38 C30 1_555 1_555
H39 C30 1_555 1_555
H40 C30 1_555 1_555
O7 C32 1_555 1_555
O8 C31 1_555 1_555
O9 C31 1_555 1_555
O10 C48 1_555 1_555
O11 C58 1_555 1_555
O12 H41 1_555 1_555
C31 C33 1_555 1_555
C32 O8 1_555 1_555
C33 O7 1_555 1_555
C34 C32 1_555 1_555
H42 C34 1_555 1_555
C35 C33 1_555 1_555
H43 C35 1_555 1_555
C36 H44 1_555 1_555
C37 C36 1_555 1_555
H45 C37 1_555 1_555
H46 C37 1_555 1_555
H47 C37 1_555 1_555
C38 C34 1_555 1_555
H48 C38 1_555 1_555
C39 C34 1_555 1_555
H49 C39 1_555 1_555
C40 H50 1_555 1_555
C41 C36 1_555 1_555
H51 C41 1_555 1_555
H52 C41 1_555 1_555
C42 C39 1_555 1_555
H53 C42 1_555 1_555
H54 C42 1_555 1_555
C43 C40 1_555 1_555
H55 C43 1_555 1_555
H56 C43 1_555 1_555
C44 C35 1_555 1_555
H57 C44 1_555 1_555
H58 C44 1_555 1_555
C45 C33 1_555 1_555
H59 C45 1_555 1_555
H60 C45 1_555 1_555
C46 C32 1_555 1_555
H61 C46 1_555 1_555
C47 C45 1_555 1_555
H62 C47 1_555 1_555
H63 C47 1_555 1_555
C48 O12 1_555 1_555
C49 C35 1_555 1_555
H64 C49 1_555 1_555
C50 C39 1_555 1_555
C51 C46 1_555 1_555
H65 C51 1_555 1_555
H66 C51 1_555 1_555
C52 C38 1_555 1_555
H67 C52 1_555 1_555
H68 C52 1_555 1_555
C53 C50 1_555 1_555
H69 C53 1_555 1_555
H70 C53 1_555 1_555
C54 C40 1_555 1_555
H71 C54 1_555 1_555
C55 C49 1_555 1_555
H72 C55 1_555 1_555
C56 C54 1_555 1_555
H73 C56 1_555 1_555
H74 C56 1_555 1_555
C57 C55 1_555 1_555
C58 C57 1_555 1_555
C59 C40 1_555 1_555
H75 C59 1_555 1_555
H76 C59 1_555 1_555
H77 C59 1_555 1_555
C60 C58 1_555 1_555
H78 C60 1_555 1_555
H79 C60 1_555 1_555
H80 C60 1_555 1_555
O13 H81 1_555 1_555
C61 O13 1_555 1_555
H82 C61 1_555 1_555
H83 C61 1_555 1_555
H84 C61 1_555 1_555
O14 H85 1_555 1_555
H86 O14 1_555 1_555
C62 H87 1_555 1_555
H88 C62 1_555 1_555
H89 C62 1_555 1_555
O15 C62 1_555 1_555
H90 O15 1_555 1_555
O16 H91 1_555 1_555
C63 O16 1_555 1_555
H92 C63 1_555 1_555
H93 C63 1_555 1_555
H94 C63 1_555 1_555
O2 C6 1_555 1_555
C8 C10 1_555 1_555
C12 C13 1_555 1_555
C15 C17 1_555 1_555
C16 C23 1_555 1_555
C18 C21 1_555 1_555
C22 C24 1_555 1_555
C25 C27 1_555 1_555
C36 C38 1_555 1_555
C41 C42 1_555 1_555
C43 C44 1_555 1_555
C46 C47 1_555 1_555
C48 C50 1_555 1_555
C49 C54 1_555 1_555
C51 C52 1_555 1_555
C56 C57 1_555 1_555

#END
