
#######################################################################
#
#                 Cambridge Crystallographic Data Centre
#                                CCDC 
#
#######################################################################
#
# If this CIF has been generated from an entry in the Cambridge 
# Structural Database, then it will include bibliographic, chemical, 
# crystal, experimental, refinement or atomic coordinate data resulting 
# from the CCDC's data processing and validation procedures.
#
#######################################################################

data_MELJAR
_chemical_formula_moiety         'C18 H14 Br1 N1 O3'
_chemical_name_systematic        
'ethyl 3-(4-bromophenyl)-1-formylindolizine-2-carboxylate'
_symmetry_cell_setting           monoclinic
_symmetry_space_group_name_H-M   'P 21/c'
_symmetry_Int_Tables_number      14
_space_group_name_Hall           '-P 2ybc'
loop_
_symmetry_equiv_pos_site_id
_symmetry_equiv_pos_as_xyz
1 x,y,z
2 -x,1/2+y,1/2-z
3 -x,-y,-z
4 x,1/2-y,1/2+z
_cell_length_a                   14.028(3)
_cell_length_b                   17.025(4)
_cell_length_c                   6.8975(16)
_cell_angle_alpha                90
_cell_angle_beta                 94.671(3)
_cell_angle_gamma                90
_cell_volume                     1641.84
_exptl_crystal_colour            colorless
_exptl_crystal_description       block
_cell_formula_units_Z            4
loop_
_atom_site_label
_atom_site_type_symbol
_atom_site_fract_x
_atom_site_fract_y
_atom_site_fract_z
Br1 Br 0.63862(4) 0.68583(2) 0.17359(8)
C1 C 1.0081(2) 0.42074(19) 0.1884(5)
H1 H 0.9886 0.4730 0.1876
C2 C 1.0999(3) 0.4025(2) 0.1703(5)
H2 H 1.1443 0.4422 0.1560
C3 C 1.1296(3) 0.3230(2) 0.1731(6)
H3 H 1.1936 0.3110 0.1613
C4 C 1.0661(3) 0.2645(2) 0.1926(5)
H4 H 1.0864 0.2125 0.1949
C5 C 0.9694(2) 0.28226(18) 0.2096(4)
C6 C 0.8865(3) 0.23804(17) 0.2275(4)
C7 C 0.8832(3) 0.1527(2) 0.2215(5)
H5 H 0.8237 0.1288 0.2256
C8 C 0.8096(2) 0.29201(17) 0.2380(4)
C9 C 0.8450(2) 0.36753(17) 0.2241(4)
C10 C 0.7967(2) 0.44486(17) 0.2141(5)
C11 C 0.7257(2) 0.45949(19) 0.0653(5)
H6 H 0.7099 0.4209 -0.0273
C12 C 0.6786(3) 0.5307(2) 0.0541(5)
H7 H 0.6310 0.5401 -0.0451
C13 C 0.7026(3) 0.58758(19) 0.1907(5)
C14 C 0.7729(3) 0.57517(19) 0.3372(5)
H8 H 0.7887 0.6144 0.4280
C15 C 0.8204(3) 0.50329(18) 0.3490(5)
H9 H 0.8682 0.4945 0.4480
C16 C 0.7103(3) 0.27164(19) 0.2741(5)
C17 C 0.5596(3) 0.3239(3) 0.3433(7)
C18 C 0.5238(4) 0.3991(4) 0.4103(10)
H10 H 0.4565 0.3948 0.4251
H11 H 0.5345 0.4392 0.3166
H12 H 0.5569 0.4125 0.5331
N1 N 0.94279(19) 0.36137(14) 0.2082(4)
O1 O 0.9521(2) 0.11012(14) 0.2117(4)
O2 O 0.6790(2) 0.20603(15) 0.2780(5)
O3 O 0.65851(19) 0.33450(14) 0.3078(4)
H13? H 0.5247 0.2776 0.3267
loop_
_geom_bond_atom_site_label_1
_geom_bond_atom_site_label_2
_geom_bond_site_symmetry_1
_geom_bond_site_symmetry_2
Br1 C13 1_555 1_555
C1 H1 1_555 1_555
C2 C1 1_555 1_555
H2 C2 1_555 1_555
C3 C2 1_555 1_555
H3 C3 1_555 1_555
C4 C3 1_555 1_555
H4 C4 1_555 1_555
C5 C4 1_555 1_555
C6 C5 1_555 1_555
C7 C6 1_555 1_555
H5 C7 1_555 1_555
C8 C6 1_555 1_555
C9 C8 1_555 1_555
C10 C9 1_555 1_555
C11 C10 1_555 1_555
H6 C11 1_555 1_555
C12 C11 1_555 1_555
H7 C12 1_555 1_555
C13 C12 1_555 1_555
C14 C13 1_555 1_555
H8 C14 1_555 1_555
C15 C10 1_555 1_555
H9 C15 1_555 1_555
C16 C8 1_555 1_555
C17 C18 1_555 1_555
C18 H10 1_555 1_555
H11 C18 1_555 1_555
H12 C18 1_555 1_555
N1 C1 1_555 1_555
O1 C7 1_555 1_555
O2 C16 1_555 1_555
O3 C16 1_555 1_555
C5 N1 1_555 1_555
C9 N1 1_555 1_555
C14 C15 1_555 1_555
C17 O3 1_555 1_555

#END
