
#######################################################################
#
#                 Cambridge Crystallographic Data Centre
#                                CCDC 
#
#######################################################################
#
# If this CIF has been generated from an entry in the Cambridge 
# Structural Database, then it will include bibliographic, chemical, 
# crystal, experimental, refinement or atomic coordinate data resulting 
# from the CCDC's data processing and validation procedures.
#
#######################################################################

data_MELNID
_chemical_formula_moiety         'C23 H22 Cl1 N3'
_chemical_name_systematic        
7-(4-chlorophenyl)-2-(1,2,3,4-tetrahydroquinolin-6-yl)-1,2,3,4-tetrahydro-1,8-naphthyridine
_symmetry_cell_setting           monoclinic
_symmetry_space_group_name_H-M   'C 2/c'
_symmetry_Int_Tables_number      15
_space_group_name_Hall           '-C 2yn'
loop_
_symmetry_equiv_pos_site_id
_symmetry_equiv_pos_as_xyz
1 x,y,z
2 -x,y,1/2-z
3 1/2+x,1/2+y,z
4 1/2-x,1/2+y,1/2-z
5 -x,-y,-z
6 x,-y,1/2+z
7 1/2-x,1/2-y,-z
8 1/2+x,1/2-y,1/2+z
_cell_length_a                   33.350(13)
_cell_length_b                   5.917(2)
_cell_length_c                   21.754(10)
_cell_angle_alpha                90
_cell_angle_beta                 119.191(9)
_cell_angle_gamma                90
_cell_volume                     3747.57
_exptl_crystal_colour            yellow
_exptl_crystal_description       block
_cell_formula_units_Z            8
loop_
_atom_site_label
_atom_site_type_symbol
_atom_site_fract_x
_atom_site_fract_y
_atom_site_fract_z
Cl1 Cl 0.11560(4) 0.3426(2) 0.47878(6)
N1 N 0.09829(8) -0.3999(5) 0.23513(13)
C1 C 0.06536(10) -0.2646(6) 0.23177(17)
C2 C 0.07841(10) -0.1068(6) 0.29202(17)
C3 C 0.08749(10) -0.5488(6) 0.18284(17)
N2 N 0.12269(9) -0.6794(5) 0.18837(14)
H1 H 0.1458 -0.7095 0.2289
C4 C 0.01053(11) -0.4269(7) 0.12286(17)
H2 H -0.0192 -0.4336 0.0852
C5 C 0.04317(11) -0.5716(6) 0.12513(17)
C6 C 0.23702(11) -1.1585(7) 0.16029(17)
C7 C 0.05866(11) 0.1058(6) 0.28302(17)
H3 H 0.0375 0.1556 0.2382
C8 C 0.10923(12) -0.1757(6) 0.35960(18)
H4 H 0.1225 -0.3182 0.3664
C9 C 0.02118(11) -0.2707(7) 0.17591(17)
H5 H -0.0010 -0.1715 0.1740
C10 C 0.07029(12) 0.2432(6) 0.34041(19)
H6 H 0.0574 0.3864 0.3344
C11 C 0.10100(12) 0.1674(7) 0.40641(19)
C12 C 0.12078(13) -0.0395(7) 0.41691(19)
H7 H 0.1417 -0.0881 0.4620
C13 C 0.21260(13) -1.2382(7) 0.1905(2)
H8 H 0.2228 -1.3668 0.2186
C14 C 0.03329(13) -0.7514(7) 0.07039(19)
H9 H 0.0138 -0.8664 0.0740
H10 H 0.0167 -0.6842 0.0239
C15 C 0.22275(13) -0.9636(7) 0.1212(2)
C16 C 0.15894(14) -0.9376(9) 0.1435(2)
N3 N 0.27719(12) -1.2670(9) 0.1717(2)
H11 H 0.2842(17) -1.405(9) 0.205(3)
C17 C 0.18519(15) -0.8543(7) 0.1138(2)
H12 H 0.1764 -0.7201 0.0883
C18 C 0.17427(13) -1.1362(9) 0.1809(2)
H13 H 0.1574 -1.2010 0.2001
C19 C 0.07475(14) -0.8563(9) 0.0784(3)
H14 H 0.0717 -0.8641 0.0317
H15 H 0.0747 -1.0109 0.0932
C20 C 0.2484(2) -0.8790(14) 0.0857(4)
H16 H 0.2276 -0.8679 0.0354
H17 H 0.2603 -0.7292 0.1031
C21 C 0.2959(2) -1.2396(4) 0.1291(3)
H18 H 0.2839 -1.3544 0.0926
H19 H 0.3289 -1.2591 0.1563
C22 C 0.2863(2) -1.0301(7) 0.0985(3)
H20 H 0.2842 -1.0516 0.0528
H21 H 0.3139 -0.9418 0.1260
C23 C 0.1204(2) -0.7657(12) 0.1250(3)
H22 H 0.1255 -0.6389 0.1007
H23? H 0.1507 -0.6455 0.2178
H24? H 0.0661 -1.0040 0.0564
H25? H 0.0847 -0.7680 0.0507
C24? C 0.1114(2) -0.8862(13) 0.1414(4)
H26? H 0.1049 -1.0117 0.1646
loop_
_geom_bond_atom_site_label_1
_geom_bond_atom_site_label_2
_geom_bond_site_symmetry_1
_geom_bond_site_symmetry_2
Cl1 C11 1_555 1_555
N1 C1 1_555 1_555
C1 C2 1_555 1_555
C2 C7 1_555 1_555
C3 N1 1_555 1_555
N2 C3 1_555 1_555
H1 N2 1_555 1_555
C4 H2 1_555 1_555
C5 C3 1_555 1_555
C6 C13 1_555 1_555
C7 H3 1_555 1_555
C8 C2 1_555 1_555
H4 C8 1_555 1_555
C9 C1 1_555 1_555
H5 C9 1_555 1_555
C10 C7 1_555 1_555
H6 C10 1_555 1_555
C11 C10 1_555 1_555
C12 C8 1_555 1_555
H7 C12 1_555 1_555
C13 H8 1_555 1_555
C14 C5 1_555 1_555
H9 C14 1_555 1_555
H10 C14 1_555 1_555
C15 C6 1_555 1_555
C16 C17 1_555 1_555
N3 C6 1_555 1_555
H11 N3 1_555 1_555
C17 C15 1_555 1_555
H12 C17 1_555 1_555
C18 C13 1_555 1_555
H13 C18 1_555 1_555
C19 C14 1_555 1_555
H14 C19 1_555 1_555
H15 C19 1_555 1_555
C20 C15 1_555 1_555
H16 C20 1_555 1_555
H17 C20 1_555 1_555
C21 N3 1_555 1_555
H18 C21 1_555 1_555
H19 C21 1_555 1_555
C22 C20 1_555 1_555
H20 C22 1_555 1_555
H21 C22 1_555 1_555
C23 N2 1_555 1_555
H22 C23 1_555 1_555
C4 C5 1_555 1_555
C4 C9 1_555 1_555
C11 C12 1_555 1_555
C16 C18 1_555 1_555
C16 C23 1_555 1_555
C19 C23 1_555 1_555
C21 C22 1_555 1_555

#END
