
#######################################################################
#
#                 Cambridge Crystallographic Data Centre
#                                CCDC 
#
#######################################################################
#
# If this CIF has been generated from an entry in the Cambridge 
# Structural Database, then it will include bibliographic, chemical, 
# crystal, experimental, refinement or atomic coordinate data resulting 
# from the CCDC's data processing and validation procedures.
#
#######################################################################

data_MELNAV
_chemical_formula_moiety         'C72 H54,2(C1 H2 Cl2)'
_chemical_name_systematic        
'11,12-bis(anthracen-9-yl)-2,7-di-t-butyl-9,14-diphenyldibenzo[de,qr]tetracene dichloromethane solvate'
_symmetry_cell_setting           monoclinic
_symmetry_space_group_name_H-M   'C 2/c'
_symmetry_Int_Tables_number      15
_space_group_name_Hall           '-C 2yn'
loop_
_symmetry_equiv_pos_site_id
_symmetry_equiv_pos_as_xyz
1 x,y,z
2 -x,y,1/2-z
3 1/2+x,1/2+y,z
4 1/2-x,1/2+y,1/2-z
5 -x,-y,-z
6 x,-y,1/2+z
7 1/2-x,1/2-y,-z
8 1/2+x,1/2-y,1/2+z
_cell_length_a                   28.394(3)
_cell_length_b                   15.2468(12)
_cell_length_c                   15.8076(13)
_cell_angle_alpha                90
_cell_angle_beta                 121.315(2)
_cell_angle_gamma                90
_cell_volume                     5846.46
_exptl_crystal_colour            colorless
_exptl_crystal_description       block
_cell_formula_units_Z            4
loop_
_atom_site_label
_atom_site_type_symbol
_atom_site_fract_x
_atom_site_fract_y
_atom_site_fract_z
Cl3 Cl 0.1836(5) 0.2298(7) 1.0307(7)
Cl4 Cl 0.1326(5) 0.3861(6) 0.9978(5)
C1 C 0.1194(6) 0.2715(11) 0.9952(8)
H1 H 0.108202 0.255890 1.041697
H2 H 0.091540 0.251974 0.929331
C2 C 0.01323(16) 0.8717(2) 0.2222(3)
C3 C 0.02769(17) 0.7930(3) 0.1998(3)
H5 H 0.045653 0.793429 0.164593
C4 C 0.01633(16) 0.7112(2) 0.2281(3)
C5 C 0.03820(16) 0.6309(2) 0.2173(3)
C6 C 0.02301(15) 0.5526(2) 0.2428(3)
C7 C 0.05351(16) 0.4688(2) 0.2609(3)
C8 C 0.02751(15) 0.3899(2) 0.2597(3)
C9 C 0.05595(18) 0.3097(3) 0.2761(3)
C10 C 0.11087(18) 0.3104(3) 0.3021(3)
H6 H 0.129523 0.257473 0.313510
C11 C 0.13836(17) 0.3879(3) 0.3113(3)
C12 C 0.10830(17) 0.4658(3) 0.2889(3)
H7 H 0.126098 0.518207 0.292965
C13 C 0.02669(17) 0.2298(3) 0.2641(3)
H8 H 0.045177 0.176671 0.276319
C14 C 0.02485(18) 0.9539(2) 0.1841(3)
C15 C -0.01975(19) 1.0044(3) 0.1131(3)
C16 C -0.0750(2) 0.9802(3) 0.0738(3)
H9 H -0.082682 0.927503 0.093929
C17 C -0.1177(2) 1.0307(4) 0.0076(4)
H10 H -0.153680 1.012540 -0.016080
C18 C -0.1079(3) 1.1095(4) -0.0251(4)
H11 H -0.137391 1.144543 -0.069100
C19 C -0.0565(3) 1.1346(3) 0.0066(4)
H12 H -0.050614 1.186926 -0.016822
C20 C -0.0101(2) 1.0835(3) 0.0756(4)
C21 C 0.0433(3) 1.1063(3) 0.1077(4)
H13 H 0.049684 1.157405 0.083023
C22 C 0.0881(2) 1.0569(3) 0.1750(4)
C23 C 0.1431(3) 1.0811(4) 0.2079(5)
H14 H 0.149242 1.132379 0.183258
C24 C 0.1868(3) 1.0333(5) 0.2731(5)
H15 H 0.222337 1.051515 0.293096
C25 C 0.1781(2) 0.9548(4) 0.3111(4)
H16 H 0.208091 0.920859 0.355544
C26 C 0.1263(2) 0.9290(3) 0.2830(4)
H17 H 0.121471 0.877621 0.309135
C27 C 0.07922(19) 0.9784(3) 0.2145(3)
C28 C 0.07387(19) 0.6336(3) 0.1741(3)
C29 C 0.1247(2) 0.6755(3) 0.2204(4)
H18 H 0.137980 0.701143 0.282179
C30 C 0.1558(3) 0.6799(4) 0.1763(7)
H19 H 0.189797 0.708101 0.208411
C31 C 0.1364(4) 0.6426(5) 0.0855(8)
H20 H 0.157512 0.644415 0.056071
C32 C 0.0864(4) 0.6031(5) 0.0383(5)
H21 H 0.072875 0.579729 -0.024575
C33 C 0.0552(2) 0.5969(3) 0.0822(4)
H22 H 0.021483 0.567851 0.049640
C34 C 0.20004(18) 0.3900(3) 0.3487(4)
C35 C 0.2141(3) 0.4563(6) 0.2966(7)
H23 H 0.208972 0.514051 0.314648
H24 H 0.190663 0.448661 0.226367
H25 H 0.251918 0.449100 0.315157
C36 C 0.2304(3) 0.4083(7) 0.4590(5)
H26 H 0.269348 0.402359 0.486267
H27 H 0.218723 0.367179 0.490463
H28 H 0.222329 0.466820 0.469995
C37 C 0.2208(3) 0.3011(6) 0.3349(9)
H29 H 0.203319 0.288189 0.265584
H30 H 0.211949 0.255984 0.366887
H31 H 0.259992 0.303517 0.363803
C2A C -0.01323(16) 0.8717(2) 0.2778(3)
C3A C -0.02769(17) 0.7930(3) 0.3002(3)
H5A H -0.045653 0.793429 0.335407
C4A C -0.01633(16) 0.7112(2) 0.2719(3)
C5A C -0.03820(16) 0.6309(2) 0.2827(3)
C6A C -0.02301(15) 0.5526(2) 0.2572(3)
C7A C -0.05351(16) 0.4688(2) 0.2391(3)
C8A C -0.02751(15) 0.3899(2) 0.2403(3)
C9A C -0.05595(18) 0.3097(3) 0.2239(3)
C10A C -0.11087(18) 0.3104(3) 0.1979(3)
H6A H -0.129523 0.257473 0.186490
C11A C -0.13836(17) 0.3879(3) 0.1887(3)
C12A C -0.10830(17) 0.4658(3) 0.2111(3)
H7A H -0.126098 0.518207 0.207035
C13A C -0.02669(17) 0.2298(3) 0.2359(3)
H8A H -0.045177 0.176671 0.223681
C14A C -0.02485(18) 0.9539(2) 0.3159(3)
C15A C 0.01975(19) 1.0044(3) 0.3869(3)
C16A C 0.0750(2) 0.9802(3) 0.4262(3)
H9A H 0.082682 0.927503 0.406071
C17A C 0.1177(2) 1.0307(4) 0.4924(4)
H10A H 0.153680 1.012540 0.516080
C18A C 0.1079(3) 1.1095(4) 0.5251(4)
H11A H 0.137391 1.144543 0.569100
C19A C 0.0565(3) 1.1346(3) 0.4934(4)
H12A H 0.050614 1.186926 0.516822
C20A C 0.0101(2) 1.0835(3) 0.4244(4)
C21A C -0.0433(3) 1.1063(3) 0.3923(4)
H13A H -0.049684 1.157405 0.416977
C22A C -0.0881(2) 1.0569(3) 0.3250(4)
C23A C -0.1431(3) 1.0811(4) 0.2921(5)
H14A H -0.149242 1.132379 0.316742
C24A C -0.1868(3) 1.0333(5) 0.2269(5)
H15A H -0.222337 1.051515 0.206904
C25A C -0.1781(2) 0.9548(4) 0.1889(4)
H16A H -0.208091 0.920859 0.144456
C26A C -0.1263(2) 0.9290(3) 0.2170(4)
H17A H -0.121471 0.877621 0.190865
C27A C -0.07922(19) 0.9784(3) 0.2855(3)
C28A C -0.07387(19) 0.6336(3) 0.3259(3)
C29A C -0.1247(2) 0.6755(3) 0.2796(4)
H18A H -0.137980 0.701143 0.217821
C30A C -0.1558(3) 0.6799(4) 0.3237(7)
H19A H -0.189797 0.708101 0.291589
C31A C -0.1364(4) 0.6426(5) 0.4145(8)
H20A H -0.157512 0.644415 0.443929
C32A C -0.0864(4) 0.6031(5) 0.4617(5)
H21A H -0.072875 0.579729 0.524575
C33A C -0.0552(2) 0.5969(3) 0.4178(4)
H22A H -0.021483 0.567851 0.450360
C34A C -0.20004(18) 0.3900(3) 0.1513(4)
C35A C -0.2141(3) 0.4563(6) 0.2034(7)
H23A H -0.208972 0.514051 0.185352
H24A H -0.190663 0.448661 0.273633
H25A H -0.251918 0.449100 0.184843
C36A C -0.2304(3) 0.4083(7) 0.0410(5)
H26A H -0.269348 0.402359 0.013733
H27A H -0.218723 0.367179 0.009537
H28A H -0.222329 0.466820 0.030005
C37A C -0.2208(3) 0.3011(6) 0.1651(9)
H29A H -0.203319 0.288189 0.234416
H30A H -0.211949 0.255984 0.133113
H31A H -0.259992 0.303517 0.136197
Cl1? Cl 0.0943(3) 0.3352(4) 1.0537(5)
Cl2? Cl 0.1800(7) 0.3147(16) 1.0084(10)
H3? H 0.091570 0.267290 0.925281
H4? H 0.126594 0.212731 1.022678
C38? C 0.2306(17) 0.332(4) 0.428(3)
H32? H 0.261652 0.310251 0.425592
H33? H 0.207597 0.283286 0.422849
H34? H 0.243256 0.361768 0.489467
C39? C 0.2099(18) 0.353(4) 0.269(5)
H35? H 0.201091 0.397470 0.219127
H36? H 0.186931 0.302921 0.238258
H37? H 0.247916 0.336800 0.298159
C40? C 0.2225(18) 0.493(3) 0.365(4)
H38? H 0.261360 0.492620 0.389328
H39? H 0.215897 0.521145 0.411776
H40? H 0.203375 0.523177 0.302812
loop_
_geom_bond_atom_site_label_1
_geom_bond_atom_site_label_2
_geom_bond_site_symmetry_1
_geom_bond_site_symmetry_2
Cl3 C1 1_555 1_555
Cl4 C1 1_555 1_555
C1 H1 1_555 1_555
H2 C1 1_555 1_555
C2 C3 1_555 1_555
C3 H5 1_555 1_555
C4 C3 1_555 1_555
C5 C4 1_555 1_555
C6 C5 1_555 1_555
C7 C6 1_555 1_555
C8 C7 1_555 1_555
C9 C8 1_555 1_555
C10 C9 1_555 1_555
H6 C10 1_555 1_555
C11 C10 1_555 1_555
C12 C7 1_555 1_555
H7 C12 1_555 1_555
C13 C9 1_555 1_555
H8 C13 1_555 1_555
C14 C2 1_555 1_555
C15 C14 1_555 1_555
C16 C15 1_555 1_555
H9 C16 1_555 1_555
C17 C16 1_555 1_555
H10 C17 1_555 1_555
C18 C17 1_555 1_555
H11 C18 1_555 1_555
C19 C18 1_555 1_555
H12 C19 1_555 1_555
C20 C15 1_555 1_555
C21 C20 1_555 1_555
H13 C21 1_555 1_555
C22 C21 1_555 1_555
C23 C22 1_555 1_555
H14 C23 1_555 1_555
C24 C23 1_555 1_555
H15 C24 1_555 1_555
C25 C24 1_555 1_555
H16 C25 1_555 1_555
C26 C25 1_555 1_555
H17 C26 1_555 1_555
C27 C14 1_555 1_555
C28 C5 1_555 1_555
C29 C28 1_555 1_555
H18 C29 1_555 1_555
C30 C29 1_555 1_555
H19 C30 1_555 1_555
C31 C30 1_555 1_555
H20 C31 1_555 1_555
C32 C31 1_555 1_555
H21 C32 1_555 1_555
C33 C28 1_555 1_555
H22 C33 1_555 1_555
C34 C11 1_555 1_555
C35 C34 1_555 1_555
H23 C35 1_555 1_555
H24 C35 1_555 1_555
H25 C35 1_555 1_555
C36 C34 1_555 1_555
H26 C36 1_555 1_555
H27 C36 1_555 1_555
H28 C36 1_555 1_555
C37 C34 1_555 1_555
H29 C37 1_555 1_555
H30 C37 1_555 1_555
H31 C37 1_555 1_555
C2A C2 1_555 1_555
C3A C2A 1_555 1_555
H5A C3A 1_555 1_555
C4A C4 1_555 1_555
C5A C4A 1_555 1_555
C6A C6 1_555 1_555
C7A C6A 1_555 1_555
C8A C8 1_555 1_555
C9A C8A 1_555 1_555
C10A C9A 1_555 1_555
H6A C10A 1_555 1_555
C11A C10A 1_555 1_555
C12A C7A 1_555 1_555
H7A C12A 1_555 1_555
C13A C13 1_555 1_555
H8A C13A 1_555 1_555
C14A C2A 1_555 1_555
C15A C14A 1_555 1_555
C16A C15A 1_555 1_555
H9A C16A 1_555 1_555
C17A C16A 1_555 1_555
H10A C17A 1_555 1_555
C18A C17A 1_555 1_555
H11A C18A 1_555 1_555
C19A C18A 1_555 1_555
H12A C19A 1_555 1_555
C20A C15A 1_555 1_555
C21A C20A 1_555 1_555
H13A C21A 1_555 1_555
C22A C21A 1_555 1_555
C23A C22A 1_555 1_555
H14A C23A 1_555 1_555
C24A C23A 1_555 1_555
H15A C24A 1_555 1_555
C25A C24A 1_555 1_555
H16A C25A 1_555 1_555
C26A C25A 1_555 1_555
H17A C26A 1_555 1_555
C27A C14A 1_555 1_555
C28A C5A 1_555 1_555
C29A C28A 1_555 1_555
H18A C29A 1_555 1_555
C30A C29A 1_555 1_555
H19A C30A 1_555 1_555
C31A C30A 1_555 1_555
H20A C31A 1_555 1_555
C32A C31A 1_555 1_555
H21A C32A 1_555 1_555
C33A C28A 1_555 1_555
H22A C33A 1_555 1_555
C34A C11A 1_555 1_555
C35A C34A 1_555 1_555
H23A C35A 1_555 1_555
H24A C35A 1_555 1_555
H25A C35A 1_555 1_555
C36A C34A 1_555 1_555
H26A C36A 1_555 1_555
H27A C36A 1_555 1_555
H28A C36A 1_555 1_555
C37A C34A 1_555 1_555
H29A C37A 1_555 1_555
H30A C37A 1_555 1_555
H31A C37A 1_555 1_555
C11 C12 1_555 1_555
C19 C20 1_555 1_555
C22 C27 1_555 1_555
C26 C27 1_555 1_555
C32 C33 1_555 1_555
C3A C4A 1_555 1_555
C5A C6A 1_555 1_555
C7A C8A 1_555 1_555
C9A C13A 1_555 1_555
C11A C12A 1_555 1_555
C19A C20A 1_555 1_555
C22A C27A 1_555 1_555
C26A C27A 1_555 1_555
C32A C33A 1_555 1_555

#END
