
#######################################################################
#
#                 Cambridge Crystallographic Data Centre
#                                CCDC 
#
#######################################################################
#
# If this CIF has been generated from an entry in the Cambridge 
# Structural Database, then it will include bibliographic, chemical, 
# crystal, experimental, refinement or atomic coordinate data resulting 
# from the CCDC's data processing and validation procedures.
#
#######################################################################

data_MELTUV
_chemical_formula_moiety         'C22 H25 N1 O4'
_chemical_name_systematic        
(E)-N-(1,2-bis(4-methoxyphenyl)-3-oxoprop-1-en-1-yl)-3-methylbutanamide
_symmetry_cell_setting           monoclinic
_symmetry_space_group_name_H-M   'P 21/c'
_symmetry_Int_Tables_number      14
_space_group_name_Hall           '-P 2ybc'
loop_
_symmetry_equiv_pos_site_id
_symmetry_equiv_pos_as_xyz
1 x,y,z
2 -x,1/2+y,1/2-z
3 -x,-y,-z
4 x,1/2-y,1/2+z
_cell_length_a                   9.2101(3)
_cell_length_b                   20.2873(7)
_cell_length_c                   21.2870(11)
_cell_angle_alpha                90
_cell_angle_beta                 96.731(4)
_cell_angle_gamma                90
_cell_volume                     3950.02
_exptl_crystal_colour            colorless
_exptl_crystal_description       plate
_cell_formula_units_Z            8
_exptl_crystal_recrystallization_method acetone
loop_
_atom_site_label
_atom_site_type_symbol
_atom_site_fract_x
_atom_site_fract_y
_atom_site_fract_z
O1 O 0.56300(12) 0.67057(6) 0.78039(6)
C1 C 0.43694(17) 0.66108(8) 0.79099(9)
N1 N 0.32002(15) 0.68645(7) 0.75268(7)
H1 H 0.237(2) 0.6798(8) 0.7650(9)
C2 C 0.20592(19) 0.80599(9) 0.62257(10)
H2 H 0.2682(19) 0.7871(9) 0.5907(9)
O2 O 0.12577(13) 0.85271(6) 0.60890(7)
C3 C 0.22101(18) 0.77341(8) 0.68442(9)
O3 O -0.19129(13) 0.84247(6) 0.84953(7)
O4 O 0.72551(14) 0.67870(6) 0.52397(7)
C4 C 0.32657(17) 0.72665(8) 0.69934(9)
C5 C 0.40235(19) 0.62278(8) 0.84757(9)
H3 H 0.4435 0.5789 0.8459
H4 H 0.2971 0.6183 0.8459
C6 C 0.46147(19) 0.65509(9) 0.91019(9)
H5 H 0.5660 0.6634 0.9093
C7 C 0.4450(2) 0.60840(11) 0.96501(11)
H6 H 0.3431 0.6002 0.9674
H7 H 0.4879 0.6280 1.0038
H8 H 0.4935 0.5676 0.9583
C8 C 0.3878(2) 0.72083(10) 0.91980(11)
H9 H 0.4007 0.7497 0.8851
H10 H 0.4308 0.7404 0.9586
H11 H 0.2853 0.7139 0.9217
C9 C 0.11118(18) 0.79086(8) 0.72756(9)
C10 C -0.03767(18) 0.78420(8) 0.70791(10)
H12 H -0.0677 0.7684 0.6675
C11 C -0.14227(19) 0.80053(8) 0.74716(10)
H13 H -0.2411 0.7950 0.7334
C12 C -0.09836(19) 0.82504(8) 0.80696(10)
C13 C 0.04938(19) 0.83321(8) 0.82681(9)
H14 H 0.0791 0.8502 0.8668
C14 C 0.15274(18) 0.81632(8) 0.78764(9)
H15 H 0.2514 0.8220 0.8016
C15 C -0.3422(2) 0.82571(9) 0.83419(12)
H16 H -0.3817 0.8494 0.7970
H17 H -0.3951 0.8373 0.8689
H18 H -0.3510 0.7792 0.8264
C16 C 0.44175(17) 0.71256(8) 0.65838(9)
C17 C 0.46216(18) 0.64860(8) 0.63788(9)
H19 H 0.4118 0.6142 0.6544
C18 C 0.55605(18) 0.63514(9) 0.59325(9)
H20 H 0.5669 0.5921 0.5795
C19 C 0.63361(19) 0.68578(9) 0.56922(9)
C20 C 0.62023(18) 0.74977(9) 0.59202(9)
H21 H 0.6759 0.7837 0.5777
C21 C 0.52476(18) 0.76274(8) 0.63561(9)
H22 H 0.5155 0.8056 0.6501
C22 C 0.7329(2) 0.61494(11) 0.49597(10)
H23 H 0.7966 0.6165 0.4634
H24 H 0.6369 0.6017 0.4780
H25 H 0.7701 0.5837 0.5278
O5 O 1.06129(13) 0.60108(7) 0.78705(7)
C23 C 0.93643(18) 0.61415(8) 0.79674(9)
N2 N 0.81673(15) 0.58730(7) 0.76209(7)
H26 H 0.7353(19) 0.5973(8) 0.7742(9)
C24 C 0.69040(19) 0.46513(9) 0.63759(10)
H27 H 0.7518(19) 0.4813(9) 0.6052(9)
O6 O 0.60233(13) 0.42117(6) 0.62344(7)
O7 O 0.32434(14) 0.43117(6) 0.87705(7)
C25 C 0.70973(17) 0.49825(8) 0.69882(9)
O8 O 1.22172(13) 0.57855(7) 0.53413(7)
C26 C 0.81786(17) 0.54435(8) 0.71080(9)
C27 C 0.90494(19) 0.65971(8) 0.84935(9)
H28 H 0.8000 0.6659 0.8472
H29 H 0.9485 0.7023 0.8428
C28 C 0.9617(2) 0.63513(10) 0.91478(10)
H30 H 1.0669 0.6271 0.9160
C29 C 0.8888(3) 0.57095(11) 0.93041(12)
H31 H 0.7853 0.5777 0.9290
H32 H 0.9276 0.5567 0.9720
H33 H 0.9075 0.5379 0.9001
C30 C 0.9389(3) 0.68838(12) 0.96329(12)
H34 H 0.9884 0.7280 0.9531
H35 H 0.9778 0.6735 1.0047
H36 H 0.8363 0.6971 0.9626
C31 C 0.60540(18) 0.48239(7) 0.74492(9)
C32 C 0.45488(18) 0.48652(8) 0.72885(9)
H37 H 0.4187 0.5005 0.6884
C33 C 0.35676(19) 0.47036(8) 0.77131(10)
H38 H 0.2566 0.4742 0.7596
C34 C 0.4098(2) 0.44842(8) 0.83118(10)
C35 C 0.5597(2) 0.44307(8) 0.84791(10)
H39 H 0.5956 0.4282 0.8881
C36 C 0.65536(19) 0.45965(8) 0.80540(9)
H40 H 0.7554 0.4556 0.8173
C37 C 0.1711(2) 0.44441(10) 0.86523(12)
H41 H 0.1295 0.4192 0.8294
H42 H 0.1562 0.4905 0.8567
H43 H 0.1248 0.4324 0.9017
C38 C 0.93265(17) 0.55526(8) 0.66843(9)
C39 C 1.02003(18) 0.50391(8) 0.65120(10)
H44 H 1.0129 0.4625 0.6694
C40 C 1.11689(19) 0.51365(9) 0.60753(10)
H45 H 1.1749 0.4789 0.5966
C41 C 1.12840(18) 0.57496(9) 0.57972(9)
C42 C 1.04663(18) 0.62733(9) 0.59831(9)
H46 H 1.0562 0.6690 0.5810
C43 C 0.95070(18) 0.61717(8) 0.64280(9)
H47 H 0.8973 0.6525 0.6557
C44 C 1.2261(2) 0.63952(11) 0.50068(10)
H48 H 1.2903 0.6353 0.4685
H49 H 1.2613 0.6738 0.5297
H50 H 1.1296 0.6504 0.4814
loop_
_geom_bond_atom_site_label_1
_geom_bond_atom_site_label_2
_geom_bond_site_symmetry_1
_geom_bond_site_symmetry_2
O1 C1 1_555 1_555
C1 N1 1_555 1_555
N1 H1 1_555 1_555
C2 H2 1_555 1_555
O2 C2 1_555 1_555
C3 C2 1_555 1_555
O3 C12 1_555 1_555
O4 C19 1_555 1_555
C4 N1 1_555 1_555
C5 C1 1_555 1_555
H3 C5 1_555 1_555
H4 C5 1_555 1_555
C6 C5 1_555 1_555
H5 C6 1_555 1_555
C7 C6 1_555 1_555
H6 C7 1_555 1_555
H7 C7 1_555 1_555
H8 C7 1_555 1_555
C8 C6 1_555 1_555
H9 C8 1_555 1_555
H10 C8 1_555 1_555
H11 C8 1_555 1_555
C9 C3 1_555 1_555
C10 C9 1_555 1_555
H12 C10 1_555 1_555
C11 C10 1_555 1_555
H13 C11 1_555 1_555
C12 C11 1_555 1_555
C13 C12 1_555 1_555
H14 C13 1_555 1_555
C14 C9 1_555 1_555
H15 C14 1_555 1_555
C15 O3 1_555 1_555
H16 C15 1_555 1_555
H17 C15 1_555 1_555
H18 C15 1_555 1_555
C16 C4 1_555 1_555
C17 C16 1_555 1_555
H19 C17 1_555 1_555
C18 C17 1_555 1_555
H20 C18 1_555 1_555
C19 C18 1_555 1_555
C20 C19 1_555 1_555
H21 C20 1_555 1_555
C21 C16 1_555 1_555
H22 C21 1_555 1_555
C22 O4 1_555 1_555
H23 C22 1_555 1_555
H24 C22 1_555 1_555
H25 C22 1_555 1_555
O5 C23 1_555 1_555
C23 N2 1_555 1_555
N2 H26 1_555 1_555
C24 H27 1_555 1_555
O6 C24 1_555 1_555
O7 C34 1_555 1_555
C25 C24 1_555 1_555
O8 C41 1_555 1_555
C26 N2 1_555 1_555
C27 C23 1_555 1_555
H28 C27 1_555 1_555
H29 C27 1_555 1_555
C28 C27 1_555 1_555
H30 C28 1_555 1_555
C29 C28 1_555 1_555
H31 C29 1_555 1_555
H32 C29 1_555 1_555
H33 C29 1_555 1_555
C30 C28 1_555 1_555
H34 C30 1_555 1_555
H35 C30 1_555 1_555
H36 C30 1_555 1_555
C31 C25 1_555 1_555
C32 C31 1_555 1_555
H37 C32 1_555 1_555
C33 C32 1_555 1_555
H38 C33 1_555 1_555
C34 C33 1_555 1_555
C35 C34 1_555 1_555
H39 C35 1_555 1_555
C36 C31 1_555 1_555
H40 C36 1_555 1_555
C37 O7 1_555 1_555
H41 C37 1_555 1_555
H42 C37 1_555 1_555
H43 C37 1_555 1_555
C38 C26 1_555 1_555
C39 C38 1_555 1_555
H44 C39 1_555 1_555
C40 C39 1_555 1_555
H45 C40 1_555 1_555
C41 C40 1_555 1_555
C42 C41 1_555 1_555
H46 C42 1_555 1_555
C43 C38 1_555 1_555
H47 C43 1_555 1_555
C44 O8 1_555 1_555
H48 C44 1_555 1_555
H49 C44 1_555 1_555
H50 C44 1_555 1_555
C3 C4 1_555 1_555
C13 C14 1_555 1_555
C20 C21 1_555 1_555
C25 C26 1_555 1_555
C35 C36 1_555 1_555
C42 C43 1_555 1_555

#END
