
#######################################################################
#
#                 Cambridge Crystallographic Data Centre
#                                CCDC 
#
#######################################################################
#
# If this CIF has been generated from an entry in the Cambridge 
# Structural Database, then it will include bibliographic, chemical, 
# crystal, experimental, refinement or atomic coordinate data resulting 
# from the CCDC's data processing and validation procedures.
#
#######################################################################

data_MELTAB
_chemical_formula_moiety         'C14 H14 O2'
_chemical_name_systematic        
3,3-dimethyl-3,4-dihydrodibenzo[b,d]furan-1(2H)-one
_symmetry_cell_setting           monoclinic
_symmetry_space_group_name_H-M   'P 21/n'
_symmetry_Int_Tables_number      14
_space_group_name_Hall           '-P 2yn'
loop_
_symmetry_equiv_pos_site_id
_symmetry_equiv_pos_as_xyz
1 x,y,z
2 1/2-x,1/2+y,1/2-z
3 -x,-y,-z
4 1/2+x,1/2-y,1/2+z
_cell_length_a                   9.4379(9)
_cell_length_b                   12.1544(11)
_cell_length_c                   9.8277(9)
_cell_angle_alpha                90
_cell_angle_beta                 96.8610(10)
_cell_angle_gamma                90
_cell_volume                     1119.28
_exptl_crystal_colour            colorless
_exptl_crystal_description       block
_cell_formula_units_Z            4
loop_
_atom_site_label
_atom_site_type_symbol
_atom_site_fract_x
_atom_site_fract_y
_atom_site_fract_z
C1 C 0.78859(13) 0.48855(10) 0.61062(13)
C2 C 0.87686(15) 0.54898(12) 0.70486(14)
H1 H 0.9518 0.5910 0.6796
C3 C 0.84692(17) 0.54311(13) 0.83927(15)
H2 H 0.9034 0.5822 0.9067
C4 C 0.73477(17) 0.48031(12) 0.87562(14)
H3 H 0.7183 0.4781 0.9670
C5 C 0.64677(15) 0.42096(11) 0.77988(13)
H4 H 0.5714 0.3795 0.8053
C6 C 0.67476(13) 0.42521(10) 0.64358(12)
C7 C 0.61490(12) 0.37612(10) 0.51574(12)
C8 C 0.49614(13) 0.30102(11) 0.48032(13)
C9 C 0.46514(13) 0.27484(11) 0.32975(13)
H5 H 0.3987 0.3292 0.2875
H6 H 0.4182 0.2038 0.3201
C10 C 0.59671(13) 0.27200(10) 0.25033(12)
C11 C 0.67907(13) 0.38144(10) 0.27188(12)
H7 H 0.7724 0.3739 0.2409
H8 H 0.6277 0.4391 0.2185
C12 C 0.69531(12) 0.41140(10) 0.41890(12)
C13 C 0.69359(14) 0.17593(11) 0.30146(14)
H9 H 0.7283 0.1870 0.3963
H10 H 0.7728 0.1721 0.2488
H11 H 0.6405 0.1085 0.2913
C14 C 0.54844(17) 0.25717(13) 0.09751(14)
H12 H 0.4976 0.1890 0.0830
H13 H 0.6304 0.2562 0.0483
H14 H 0.4870 0.3170 0.0652
O1 O 0.80207(9) 0.48040(7) 0.47210(8)
O2 O 0.42580(11) 0.26328(9) 0.56586(11)
loop_
_geom_bond_atom_site_label_1
_geom_bond_atom_site_label_2
_geom_bond_site_symmetry_1
_geom_bond_site_symmetry_2
C1 C2 1_555 1_555
C2 H1 1_555 1_555
C3 C2 1_555 1_555
H2 C3 1_555 1_555
C4 C3 1_555 1_555
H3 C4 1_555 1_555
C5 C4 1_555 1_555
H4 C5 1_555 1_555
C6 C1 1_555 1_555
C7 C6 1_555 1_555
C8 C7 1_555 1_555
C9 C8 1_555 1_555
H5 C9 1_555 1_555
H6 C9 1_555 1_555
C10 C9 1_555 1_555
C11 C10 1_555 1_555
H7 C11 1_555 1_555
H8 C11 1_555 1_555
C12 C7 1_555 1_555
C13 C10 1_555 1_555
H9 C13 1_555 1_555
H10 C13 1_555 1_555
H11 C13 1_555 1_555
C14 C10 1_555 1_555
H12 C14 1_555 1_555
H13 C14 1_555 1_555
H14 C14 1_555 1_555
O1 C1 1_555 1_555
O2 C8 1_555 1_555
C5 C6 1_555 1_555
C11 C12 1_555 1_555
C12 O1 1_555 1_555

#END
