
#######################################################################
#
#                 Cambridge Crystallographic Data Centre
#                                CCDC 
#
#######################################################################
#
# If this CIF has been generated from an entry in the Cambridge 
# Structural Database, then it will include bibliographic, chemical, 
# crystal, experimental, refinement or atomic coordinate data resulting 
# from the CCDC's data processing and validation procedures.
#
#######################################################################

data_MELVAD
_chemical_name_common            
2-Isobutyl-2-methoxy-4,5-bis(4-methoxyphenyl)-1,2-dihydro-3H-pyrrol-3-one
_chemical_formula_moiety         'C23 H27 N1 O4'
_chemical_name_systematic        
2-methoxy-4,5-bis(4-methoxyphenyl)-2-(2-methylpropyl)-1,2-dihydro-3H-pyrrol-3-one
_symmetry_cell_setting           monoclinic
_symmetry_space_group_name_H-M   'C 2/c'
_symmetry_Int_Tables_number      15
_space_group_name_Hall           '-C 2yn'
loop_
_symmetry_equiv_pos_site_id
_symmetry_equiv_pos_as_xyz
1 x,y,z
2 -x,y,1/2-z
3 1/2+x,1/2+y,z
4 1/2-x,1/2+y,1/2-z
5 -x,-y,-z
6 x,-y,1/2+z
7 1/2-x,1/2-y,-z
8 1/2+x,1/2-y,1/2+z
_cell_length_a                   21.8292(3)
_cell_length_b                   15.8674(2)
_cell_length_c                   12.3179(2)
_cell_angle_alpha                90
_cell_angle_beta                 91.0990(10)
_cell_angle_gamma                90
_cell_volume                     4265.8
_exptl_crystal_colour            yellow
_exptl_crystal_description       plate
_cell_formula_units_Z            8
_exptl_crystal_recrystallization_method 'ethyl acetate'
loop_
_atom_site_label
_atom_site_type_symbol
_atom_site_fract_x
_atom_site_fract_y
_atom_site_fract_z
O1 O 0.78433(4) 0.50339(5) 0.34242(6)
N1 N 0.73866(4) 0.48759(6) 0.61465(7)
H1 H 0.7494(6) 0.4852(9) 0.6868(13)
C1 C 0.78125(5) 0.45936(7) 0.53251(8)
O2 O 0.77393(4) 0.37227(5) 0.50887(6)
C2 C 0.76192(5) 0.51386(7) 0.43277(8)
O3 O 0.56714(4) 0.76356(6) 0.17975(7)
C3 C 0.71397(5) 0.56912(7) 0.46656(8)
O4 O 0.54918(5) 0.72236(7) 0.86132(7)
C4 C 0.70448(5) 0.55269(7) 0.57561(8)
C5 C 0.84807(5) 0.46961(7) 0.56870(9)
H2 H 0.8734 0.4533 0.5083
H3 H 0.8561 0.4295 0.6267
C6 C 0.87015(5) 0.55618(8) 0.60825(9)
H4 H 0.8411 0.5774 0.6614
C7 C 0.87533(8) 0.62074(10) 0.51755(13)
H5 H 0.9020 0.5995 0.4629
H6 H 0.8918 0.6723 0.5465
H7 H 0.8355 0.6311 0.4860
C8 C 0.93251(7) 0.54539(10) 0.66460(14)
H8 H 0.9285 0.5088 0.7261
H9 H 0.9474 0.5994 0.6885
H10 H 0.9608 0.5213 0.6147
C9 C 0.67728(5) 0.62318(6) 0.39334(8)
C10 C 0.70451(5) 0.67056(7) 0.31210(8)
H11 H 0.7469 0.6700 0.3064
C11 C 0.66969(5) 0.71894(7) 0.23898(8)
H12 H 0.6888 0.7505 0.1857
C12 C 0.60623(5) 0.71950(7) 0.24660(8)
C13 C 0.57804(5) 0.67225(7) 0.32731(9)
H13 H 0.5356 0.6727 0.3327
C14 C 0.61318(5) 0.62494(7) 0.39898(8)
H14 H 0.5939 0.5935 0.4522
C15 C 0.66266(5) 0.59602(7) 0.64950(8)
C16 C 0.62855(5) 0.54963(8) 0.72329(9)
H15 H 0.6320 0.4912 0.7249
C17 C 0.58944(5) 0.58975(8) 0.79447(9)
H16 H 0.5662 0.5583 0.8423
C18 C 0.58525(5) 0.67710(8) 0.79379(9)
C19 C 0.61944(6) 0.72404(8) 0.72047(9)
H17 H 0.6167 0.7825 0.7202
C20 C 0.65725(5) 0.68375(7) 0.64847(9)
H18 H 0.6793 0.7152 0.5989
C21 C 0.71539(5) 0.35114(8) 0.46226(10)
H19 H 0.7119 0.3746 0.3905
H20 H 0.6836 0.3737 0.5066
H21 H 0.7114 0.2910 0.4584
C22 C 0.59420(6) 0.81995(8) 0.10426(10)
H22 H 0.6172 0.7884 0.0525
H23 H 0.6210 0.8582 0.1424
H24 H 0.5626 0.8513 0.0670
C23 C 0.51490(7) 0.67822(12) 0.93957(11)
H25 H 0.4882 0.6386 0.9036
H26 H 0.4909 0.7175 0.9801
H27 H 0.5423 0.6487 0.9881
loop_
_geom_bond_atom_site_label_1
_geom_bond_atom_site_label_2
_geom_bond_site_symmetry_1
_geom_bond_site_symmetry_2
O1 C2 1_555 1_555
N1 H1 1_555 1_555
C1 N1 1_555 1_555
O2 C1 1_555 1_555
C2 C1 1_555 1_555
O3 C12 1_555 1_555
C3 C2 1_555 1_555
O4 C18 1_555 1_555
C4 N1 1_555 1_555
C5 C1 1_555 1_555
H2 C5 1_555 1_555
H3 C5 1_555 1_555
C6 C5 1_555 1_555
H4 C6 1_555 1_555
C7 C6 1_555 1_555
H5 C7 1_555 1_555
H6 C7 1_555 1_555
H7 C7 1_555 1_555
C8 C6 1_555 1_555
H8 C8 1_555 1_555
H9 C8 1_555 1_555
H10 C8 1_555 1_555
C9 C3 1_555 1_555
C10 C9 1_555 1_555
H11 C10 1_555 1_555
C11 C10 1_555 1_555
H12 C11 1_555 1_555
C12 C11 1_555 1_555
C13 C12 1_555 1_555
H13 C13 1_555 1_555
C14 C9 1_555 1_555
H14 C14 1_555 1_555
C15 C4 1_555 1_555
C16 C15 1_555 1_555
H15 C16 1_555 1_555
C17 C16 1_555 1_555
H16 C17 1_555 1_555
C18 C17 1_555 1_555
C19 C18 1_555 1_555
H17 C19 1_555 1_555
C20 C15 1_555 1_555
H18 C20 1_555 1_555
C21 O2 1_555 1_555
H19 C21 1_555 1_555
H20 C21 1_555 1_555
H21 C21 1_555 1_555
C22 O3 1_555 1_555
H22 C22 1_555 1_555
H23 C22 1_555 1_555
H24 C22 1_555 1_555
C23 O4 1_555 1_555
H25 C23 1_555 1_555
H26 C23 1_555 1_555
H27 C23 1_555 1_555
C3 C4 1_555 1_555
C13 C14 1_555 1_555
C19 C20 1_555 1_555

#END
