
#######################################################################
#
#                 Cambridge Crystallographic Data Centre
#                                CCDC 
#
#######################################################################
#
# If this CIF has been generated from an entry in the Cambridge 
# Structural Database, then it will include bibliographic, chemical, 
# crystal, experimental, refinement or atomic coordinate data resulting 
# from the CCDC's data processing and validation procedures.
#
#######################################################################

data_MELVEH
_chemical_formula_moiety         'C22 H25 N1 O4'
_chemical_name_systematic        
(Z)-N-(1,2-bis(4-methoxyphenyl)-3-oxoprop-1-en-1-yl)-3-methylbutanamide
_symmetry_cell_setting           monoclinic
_symmetry_space_group_name_H-M   'P 21/c'
_symmetry_Int_Tables_number      14
_space_group_name_Hall           '-P 2ybc'
loop_
_symmetry_equiv_pos_site_id
_symmetry_equiv_pos_as_xyz
1 x,y,z
2 -x,1/2+y,1/2-z
3 -x,-y,-z
4 x,1/2-y,1/2+z
_cell_length_a                   12.43710(10)
_cell_length_b                   14.48440(10)
_cell_length_c                   22.3921(2)
_cell_angle_alpha                90
_cell_angle_beta                 98.1460(10)
_cell_angle_gamma                90
_cell_volume                     3993.1
_exptl_crystal_colour            yellow
_exptl_crystal_description       block
_cell_formula_units_Z            8
_exptl_crystal_recrystallization_method acetone
loop_
_atom_site_label
_atom_site_type_symbol
_atom_site_fract_x
_atom_site_fract_y
_atom_site_fract_z
O1 O 0.20308(7) 0.52074(6) 0.57788(4)
N1 N 0.32109(8) 0.63982(7) 0.60424(5)
H1 H 0.3867(13) 0.6581(11) 0.6015(7)
C1 C 0.29458(10) 0.55264(8) 0.58191(5)
C2 C 0.16390(10) 0.60605(9) 0.68001(6)
H2 H 0.2361(13) 0.5766(11) 0.6879(7)
O2 O 0.08593(8) 0.57499(7) 0.70103(4)
O3 O -0.21683(9) 0.90829(8) 0.63809(6)
C3 C 0.16172(9) 0.69108(8) 0.64437(5)
O4 O 0.35929(18) 1.03962(15) 0.50226(12)
C4 C 0.24627(9) 0.70952(8) 0.61365(5)
C5 C 0.38839(10) 0.49976(9) 0.56226(6)
H3 H 0.4557 0.5318 0.5764
H4 H 0.3799 0.4980 0.5185
C6 C 0.39545(12) 0.40130(10) 0.58657(7)
H5 H 0.3274 0.3694 0.5717
C7 C 0.48862(14) 0.35011(11) 0.56332(8)
H6 H 0.4747 0.3465 0.5201
H7 H 0.4943 0.2889 0.5800
H8 H 0.5554 0.3828 0.5753
C8 C 0.4101(2) 0.40084(17) 0.65469(9)
H9 H 0.4757 0.4332 0.6700
H10 H 0.4148 0.3383 0.6690
H11 H 0.3493 0.4308 0.6684
C9 C 0.06479(9) 0.75110(8) 0.64371(5)
C10 C 0.02810(10) 0.77754(9) 0.69708(5)
H12 H 0.0671 0.7592 0.7337
C11 C -0.06497(10) 0.83043(9) 0.69736(6)
H13 H -0.0872 0.8480 0.7337
C12 C -0.12431(10) 0.85676(9) 0.64304(6)
C13 C -0.08971(11) 0.83032(9) 0.58901(6)
H14 H -0.1297 0.8476 0.5525
C14 C 0.00365(10) 0.77855(9) 0.58952(5)
H15 H 0.0261 0.7617 0.5532
C15 C -0.25672(15) 0.93297(14) 0.69265(10)
H16 H -0.3210 0.9699 0.6833
H17 H -0.2023 0.9676 0.7179
H18 H -0.2737 0.8780 0.7134
C16 C 0.3110(5) 0.7977(2) 0.5288(2)
H19 H 0.3198 0.7417 0.5099
C17 C 0.2682(6) 0.7998(3) 0.5829(2)
C18 C 0.2552(5) 0.8837(3) 0.61118(18)
H20 H 0.2265 0.8851 0.6473
C19 C 0.2850(4) 0.9654(2) 0.58545(13)
H21 H 0.2762 1.0215 0.6044
C20 C 0.3278(3) 0.9633(2) 0.53141(12)
C21 C 0.3409(4) 0.8795(3) 0.50309(14)
H22 H 0.3695 0.8781 0.4669
C22 C 0.3518(2) 1.1276(2) 0.52912(14)
H23 H 0.3773 1.1740 0.5040
H24 H 0.3955 1.1284 0.5681
H25 H 0.2775 1.1399 0.5335
O6 O 0.70189(8) 0.52685(8) 0.59775(5)
N2 N 0.83028(8) 0.61098(7) 0.65824(5)
H33 H 0.8999(13) 0.6168(11) 0.6678(7)
C30 C 0.79650(10) 0.55062(9) 0.61116(6)
O7 O 0.53883(7) 0.70784(7) 0.59505(4)
C31 C 0.63102(10) 0.69448(9) 0.62050(6)
H34 H 0.6942(13) 0.7087(11) 0.5980(7)
C32 C 0.66004(10) 0.66543(9) 0.68339(6)
O8 O 0.35478(9) 0.65196(9) 0.84827(5)
C33 C 0.76520(10) 0.63867(8) 0.70130(5)
O9 O 0.97697(8) 0.63485(7) 0.94145(4)
C34 C 0.88492(11) 0.51557(9) 0.57781(5)
H35 H 0.9536 0.5432 0.5947
H36 H 0.8695 0.5336 0.5358
C35 C 0.89413(11) 0.40986(9) 0.58214(6)
H37 H 0.8224 0.3830 0.5687
C36 C 0.97223(13) 0.37563(10) 0.54113(6)
H38 H 0.9462 0.3931 0.5003
H39 H 0.9776 0.3096 0.5438
H40 H 1.0425 0.4025 0.5532
C37 C 0.93113(14) 0.38019(10) 0.64731(6)
H41 H 0.9990 0.4095 0.6620
H42 H 0.9402 0.3144 0.6489
H43 H 0.8774 0.3981 0.6720
C38 C 0.57591(10) 0.66362(9) 0.72428(6)
C39 C 0.49584(11) 0.73074(10) 0.72266(6)
H44 H 0.4935 0.7783 0.6946
C40 C 0.41832(11) 0.72823(11) 0.76257(6)
H45 H 0.3644 0.7730 0.7604
C41 C 0.42282(11) 0.65894(11) 0.80496(6)
C42 C 0.50031(11) 0.58970(11) 0.80650(7)
H46 H 0.5023 0.5423 0.8347
C43 C 0.57440(10) 0.59145(10) 0.76602(6)
H47 H 0.6245 0.5437 0.7664
C44 C 0.26998(14) 0.71743(17) 0.84622(8)
H48 H 0.2238 0.7130 0.8082
H49 H 0.3003 0.7784 0.8508
H50 H 0.2283 0.7054 0.8783
C45 C 0.81963(9) 0.63427(8) 0.76440(5)
C46 C 0.79679(10) 0.69983(8) 0.80712(6)
H51 H 0.7447 0.7450 0.7959
C47 C 0.85025(10) 0.69842(9) 0.86532(6)
H52 H 0.8340 0.7422 0.8930
C48 C 0.92895(10) 0.63119(9) 0.88273(5)
C49 C 0.95364(10) 0.56614(9) 0.84121(6)
H53 H 1.0064 0.5215 0.8525
C50 C 0.89893(10) 0.56825(9) 0.78265(6)
H54 H 0.9157 0.5245 0.7550
C51 C 1.06857(13) 0.57643(12) 0.95811(7)
H55 H 1.1222 0.5883 0.9322
H56 H 1.0462 0.5130 0.9542
H57 H 1.0990 0.5886 0.9992
O5? O 0.3423(3) 1.0637(2) 0.53492(17)
C23? C 0.2509(8) 0.8801(5) 0.6252(3)
H26? H 0.2195 0.8743 0.6603
C24? C 0.2736(9) 0.8018(4) 0.5933(3)
C25? C 0.3205(7) 0.8105(3) 0.5408(3)
H27? H 0.3357 0.7581 0.5195
C26? C 0.3446(5) 0.8975(4) 0.5202(2)
H28? H 0.3760 0.9033 0.4850
C27? C 0.3219(5) 0.9758(3) 0.5520(2)
C28? C 0.2750(6) 0.9671(4) 0.6045(2)
H29? H 0.2598 1.0195 0.6258
C29? C 0.3902(3) 1.0770(3) 0.4810(2)
H30? H 0.3405 1.0567 0.4468
H31? H 0.4562 1.0419 0.4835
H32? H 0.4061 1.1413 0.4766
loop_
_geom_bond_atom_site_label_1
_geom_bond_atom_site_label_2
_geom_bond_site_symmetry_1
_geom_bond_site_symmetry_2
O1 C1 1_555 1_555
N1 H1 1_555 1_555
C1 N1 1_555 1_555
C2 H2 1_555 1_555
O2 C2 1_555 1_555
O3 C12 1_555 1_555
C3 C2 1_555 1_555
O4 C20 1_555 1_555
C4 N1 1_555 1_555
C5 C1 1_555 1_555
H3 C5 1_555 1_555
H4 C5 1_555 1_555
C6 C5 1_555 1_555
H5 C6 1_555 1_555
C7 C6 1_555 1_555
H6 C7 1_555 1_555
H7 C7 1_555 1_555
H8 C7 1_555 1_555
C8 C6 1_555 1_555
H9 C8 1_555 1_555
H10 C8 1_555 1_555
H11 C8 1_555 1_555
C9 C3 1_555 1_555
C10 C9 1_555 1_555
H12 C10 1_555 1_555
C11 C10 1_555 1_555
H13 C11 1_555 1_555
C12 C11 1_555 1_555
C13 C12 1_555 1_555
H14 C13 1_555 1_555
C14 C9 1_555 1_555
H15 C14 1_555 1_555
C15 O3 1_555 1_555
H16 C15 1_555 1_555
H17 C15 1_555 1_555
H18 C15 1_555 1_555
C16 H19 1_555 1_555
C17 C4 1_555 1_555
C18 C17 1_555 1_555
H20 C18 1_555 1_555
C19 C18 1_555 1_555
H21 C19 1_555 1_555
C20 C19 1_555 1_555
C21 C16 1_555 1_555
H22 C21 1_555 1_555
C22 O4 1_555 1_555
H23 C22 1_555 1_555
H24 C22 1_555 1_555
H25 C22 1_555 1_555
O6 C30 1_555 1_555
N2 H33 1_555 1_555
C30 N2 1_555 1_555
O7 C31 1_555 1_555
C31 H34 1_555 1_555
C32 C31 1_555 1_555
O8 C41 1_555 1_555
C33 N2 1_555 1_555
O9 C48 1_555 1_555
C34 C30 1_555 1_555
H35 C34 1_555 1_555
H36 C34 1_555 1_555
C35 C34 1_555 1_555
H37 C35 1_555 1_555
C36 C35 1_555 1_555
H38 C36 1_555 1_555
H39 C36 1_555 1_555
H40 C36 1_555 1_555
C37 C35 1_555 1_555
H41 C37 1_555 1_555
H42 C37 1_555 1_555
H43 C37 1_555 1_555
C38 C32 1_555 1_555
C39 C38 1_555 1_555
H44 C39 1_555 1_555
C40 C39 1_555 1_555
H45 C40 1_555 1_555
C41 C40 1_555 1_555
C42 C41 1_555 1_555
H46 C42 1_555 1_555
C43 C38 1_555 1_555
H47 C43 1_555 1_555
C44 O8 1_555 1_555
H48 C44 1_555 1_555
H49 C44 1_555 1_555
H50 C44 1_555 1_555
C45 C33 1_555 1_555
C46 C45 1_555 1_555
H51 C46 1_555 1_555
C47 C46 1_555 1_555
H52 C47 1_555 1_555
C48 C47 1_555 1_555
C49 C48 1_555 1_555
H53 C49 1_555 1_555
C50 C45 1_555 1_555
H54 C50 1_555 1_555
C51 O9 1_555 1_555
H55 C51 1_555 1_555
H56 C51 1_555 1_555
H57 C51 1_555 1_555
C3 C4 1_555 1_555
C13 C14 1_555 1_555
C16 C17 1_555 1_555
C20 C21 1_555 1_555
C32 C33 1_555 1_555
C42 C43 1_555 1_555
C49 C50 1_555 1_555

#END
