
#######################################################################
#
#                 Cambridge Crystallographic Data Centre
#                                CCDC 
#
#######################################################################
#
# If this CIF has been generated from an entry in the Cambridge 
# Structural Database, then it will include bibliographic, chemical, 
# crystal, experimental, refinement or atomic coordinate data resulting 
# from the CCDC's data processing and validation procedures.
#
#######################################################################

data_MELWIK01
_chemical_name_common            
N'-(4-chlorobenzylidene)pyrazine-2-carbohydrazide
_chemical_formula_moiety         'C12 H9 Cl1 N4 O1'
_chemical_name_systematic        
'4-Chlorobenzaldehyde (pyrazin-2-ylcarbonyl)hydrazone'
_symmetry_cell_setting           triclinic
_symmetry_space_group_name_H-M   'P -1'
_symmetry_Int_Tables_number      2
_space_group_name_Hall           '-P 1'
loop_
_symmetry_equiv_pos_site_id
_symmetry_equiv_pos_as_xyz
1 x,y,z
2 -x,-y,-z
_cell_length_a                   5.8558(4)
_cell_length_b                   7.7375(5)
_cell_length_c                   13.2349(10)
_cell_angle_alpha                86.602(4)
_cell_angle_beta                 80.851(3)
_cell_angle_gamma                74.115(4)
_cell_volume                     569.348
_exptl_crystal_colour            colorless
_exptl_crystal_description       plate
_cell_formula_units_Z            2
loop_
_atom_site_label
_atom_site_type_symbol
_atom_site_fract_x
_atom_site_fract_y
_atom_site_fract_z
Cl1 Cl 0.87074(8) -0.25830(6) 0.98474(3)
O1 O 0.0401(2) 0.30662(17) 0.47078(10)
N1 N 0.0719(3) 0.6020(2) 0.19719(12)
N2 N 0.4787(2) 0.44774(18) 0.29238(11)
N3 N 0.4359(3) 0.28465(19) 0.47658(11)
H1 H 0.5667 0.3103 0.4448
N4 N 0.4424(3) 0.19192(19) 0.56912(11)
C1 C 0.2585(3) 0.4380(2) 0.33438(13)
C2 C 0.0565(3) 0.5157(2) 0.28769(14)
H2 H -0.0963 0.5072 0.3210
C3 C 0.2920(3) 0.6096(2) 0.15491(14)
H3 H 0.3118 0.6682 0.0902
C4 C 0.4930(3) 0.5348(2) 0.20218(14)
H4 H 0.6451 0.5458 0.1695
C5 C 0.2320(3) 0.3366(2) 0.43410(13)
C6 C 0.6527(3) 0.1385(2) 0.59479(13)
H5 H 0.7844 0.1615 0.5494
C7 C 0.6969(3) 0.0433(2) 0.69143(13)
C8 C 0.5114(3) 0.0238(2) 0.76881(13)
H6 H 0.3488 0.0744 0.7595
C9 C 0.5639(3) -0.0689(2) 0.85879(14)
H7 H 0.4381 -0.0825 0.9110
C10 C 0.8029(3) -0.1420(2) 0.87191(14)
C11 C 0.9887(3) -0.1223(2) 0.79717(14)
H8 H 1.1510 -0.1719 0.8072
C12 C 0.9346(3) -0.0291(2) 0.70753(14)
H9 H 1.0613 -0.0144 0.6562
loop_
_geom_bond_atom_site_label_1
_geom_bond_atom_site_label_2
_geom_bond_site_symmetry_1
_geom_bond_site_symmetry_2
Cl1 C10 1_555 1_555
O1 C5 1_555 1_555
N1 C2 1_555 1_555
N2 C1 1_555 1_555
N3 H1 1_555 1_555
N4 N3 1_555 1_555
C1 C2 1_555 1_555
C2 H2 1_555 1_555
C3 N1 1_555 1_555
H3 C3 1_555 1_555
C4 N2 1_555 1_555
H4 C4 1_555 1_555
C5 N3 1_555 1_555
C6 N4 1_555 1_555
H5 C6 1_555 1_555
C7 C6 1_555 1_555
C8 C7 1_555 1_555
H6 C8 1_555 1_555
C9 C8 1_555 1_555
H7 C9 1_555 1_555
C10 C9 1_555 1_555
C11 C10 1_555 1_555
H8 C11 1_555 1_555
C12 C7 1_555 1_555
H9 C12 1_555 1_555
C1 C5 1_555 1_555
C3 C4 1_555 1_555
C11 C12 1_555 1_555

#END
