
#######################################################################
#
#                 Cambridge Crystallographic Data Centre
#                                CCDC 
#
#######################################################################
#
# If this CIF has been generated from an entry in the Cambridge 
# Structural Database, then it will include bibliographic, chemical, 
# crystal, experimental, refinement or atomic coordinate data resulting 
# from the CCDC's data processing and validation procedures.
#
#######################################################################

data_MELXEJ
_chemical_formula_moiety         'C25 H20 Br1 N1 O3 S1,0.5(C4 H10 O1)'
_chemical_name_systematic        
"6'-(benzenecarbonyl)-4-bromo-5'-hydroxy-3'-phenylspiro[indole-3,2'-thian]-2(1H)-one diethyl ether solvate"
_symmetry_cell_setting           triclinic
_symmetry_space_group_name_H-M   'P -1'
_symmetry_Int_Tables_number      2
_space_group_name_Hall           '-P 1'
loop_
_symmetry_equiv_pos_site_id
_symmetry_equiv_pos_as_xyz
1 x,y,z
2 -x,-y,-z
_cell_length_a                   12.813(2)
_cell_length_b                   14.490(2)
_cell_length_c                   16.225(4)
_cell_angle_alpha                108.147(3)
_cell_angle_beta                 98.120(4)
_cell_angle_gamma                116.118(2)
_cell_volume                     2429.59
_exptl_crystal_colour            colorless
_exptl_crystal_description       prism
_cell_formula_units_Z            4
loop_
_atom_site_label
_atom_site_type_symbol
_atom_site_fract_x
_atom_site_fract_y
_atom_site_fract_z
Br1 Br 0.28383(5) 0.32776(5) 0.22679(4)
S1 S 0.15821(12) 0.51323(10) 0.30490(8)
N1 N -0.1411(4) 0.2761(4) 0.2252(3)
H1 H -0.2142 0.2510 0.2303
O1 O -0.1274(4) 0.4195(3) 0.1891(3)
O2 O 0.2852(3) 0.6369(3) 0.1884(2)
H2 H 0.2891 0.5859 0.1502
O3 O 0.3274(4) 0.7389(3) 0.4002(3)
C1 C -0.0843(4) 0.3648(4) 0.2041(3)
C2 C 0.0440(4) 0.3830(4) 0.2030(3)
C3 C 0.0411(5) 0.2866(4) 0.2246(3)
C4 C 0.1241(5) 0.2514(4) 0.2362(3)
C5 C 0.0979(7) 0.1621(5) 0.2590(4)
H3 H 0.1554 0.1391 0.2664
C6 C -0.0139(7) 0.1063(6) 0.2710(5)
H4 H -0.0319 0.0448 0.2863
C7 C -0.1010(6) 0.1382(5) 0.2611(4)
H5 H -0.1771 0.1006 0.2696
C8 C -0.0681(5) 0.2291(4) 0.2379(4)
C9 C 0.1465(4) 0.6178(4) 0.2708(3)
H6 H 0.0656 0.6101 0.2700
C10 C 0.1589(4) 0.6038(4) 0.1760(3)
H7 H 0.1451 0.6592 0.1603
C11 C 0.0711(4) 0.4879(4) 0.0993(3)
H8 H 0.0899 0.4877 0.0427
H9 H -0.0126 0.4742 0.0898
C12 C 0.0737(5) 0.3891(4) 0.1146(3)
H10 H 0.1588 0.4046 0.1238
C13 C 0.2450(5) 0.7305(4) 0.3436(3)
C14 C 0.2487(5) 0.8372(4) 0.3485(4)
C15 C 0.3554(6) 0.9390(5) 0.3971(4)
H11 H 0.4274 0.9407 0.4220
C16 C 0.3595(8) 1.0386(6) 0.4103(5)
H12 H 0.4340 1.1079 0.4432
C17 C 0.2541(9) 1.0372(6) 0.3752(5)
H13 H 0.2561 1.1055 0.3854
C18 C 0.1473(7) 0.9366(6) 0.3256(5)
H14 H 0.0759 0.9359 0.3010
C19 C 0.1421(6) 0.8343(5) 0.3109(4)
H15 H 0.0681 0.7648 0.2762
C20 C -0.0095(5) 0.2759(4) 0.0324(3)
C21 C 0.0295(6) 0.2014(6) 0.0041(4)
H16 H 0.1097 0.2228 0.0354
C22 C -0.0435(7) 0.0959(6) -0.0686(4)
H17 H -0.0135 0.0466 -0.0856
C23 C -0.1596(6) 0.0640(6) -0.1156(4)
H18 H -0.2110 -0.0080 -0.1646
C24 C -0.2002(6) 0.1377(6) -0.0906(4)
H19 H -0.2789 0.1172 -0.1245
C25 C -0.1286(5) 0.2416(5) -0.0168(4)
H20 H -0.1598 0.2898 0.0006
Br2 Br 0.87962(6) 0.65251(8) 0.42009(5)
S2 S 0.63598(12) 0.47744(12) 0.19895(9)
N2 N 0.4660(4) 0.6066(4) 0.2778(3)
H21 H 0.3956 0.6034 0.2702
O4 O 0.4726(3) 0.5755(3) 0.1310(2)
O5 O 0.8677(3) 0.5978(4) 0.1459(3)
H22 H 0.8720 0.5413 0.1191
O6 O 0.7040(4) 0.3692(4) -0.0104(3)
C26 C 0.5189(4) 0.5956(4) 0.2101(3)
C27 C 0.6439(4) 0.6119(4) 0.2531(3)
C28 C 0.6462(4) 0.6292(4) 0.3508(3)
C29 C 0.7275(5) 0.6416(5) 0.4239(4)
C30 C 0.7032(6) 0.6492(5) 0.5053(4)
H23 H 0.7600 0.6586 0.5553
C31 C 0.5937(6) 0.6426(5) 0.5118(4)
H24 H 0.5768 0.6473 0.5670
C32 C 0.5075(5) 0.6291(5) 0.4388(4)
H25 H 0.4331 0.6241 0.4433
C33 C 0.5378(5) 0.6235(4) 0.3600(3)
C34 C 0.6416(5) 0.4792(4) 0.0871(3)
H26 H 0.5697 0.4823 0.0598
C35 C 0.7577(5) 0.5850(5) 0.0970(4)
H27 H 0.7600 0.5796 0.0350
C36 C 0.7530(5) 0.6904(5) 0.1478(4)
H28 H 0.6790 0.6834 0.1126
H29 H 0.8242 0.7562 0.1488
C37 C 0.7523(5) 0.7138(5) 0.2464(3)
H30 H 0.8295 0.7237 0.2809
C38 C 0.6276(5) 0.3694(5) 0.0251(4)
C39 C 0.5143(5) 0.2590(5) 0.0044(3)
C40 C 0.5156(7) 0.1604(6) -0.0340(5)
H31 H 0.5868 0.1641 -0.0458
C41 C 0.4142(8) 0.0560(7) -0.0556(5)
H32 H 0.4173 -0.0101 -0.0814
C42 C 0.3104(7) 0.0485(6) -0.0397(5)
H33 H 0.2417 -0.0228 -0.0548
C43 C 0.3049(6) 0.1468(5) -0.0007(4)
H34 H 0.2329 0.1420 0.0100
C44 C 0.4072(5) 0.2505(5) 0.0215(4)
H35 H 0.4049 0.3168 0.0487
C45 C 0.7522(6) 0.8217(5) 0.2953(4)
C46 C 0.8299(7) 0.8966(6) 0.3833(5)
H36 H 0.8894 0.8845 0.4110
C47 C 0.8224(11) 0.9898(8) 0.4321(6)
H37 H 0.8767 1.0406 0.4920
C48 C 0.7351(13) 1.0068(8) 0.3920(9)
H38 H 0.7286 1.0688 0.4254
C49 C 0.6584(9) 0.9362(7) 0.3056(7)
H39 H 0.5993 0.9495 0.2792
C50 C 0.6661(7) 0.8431(6) 0.2549(5)
H40 H 0.6138 0.7951 0.1939
C51 C 0.4918(10) 0.8271(10) 0.7921(8)
H41 H 0.4337 0.8333 0.8225
H42 H 0.5481 0.9004 0.7944
H43 H 0.5378 0.8023 0.8228
C52 C 0.4257(8) 0.7453(9) 0.6970(7)
H44 H 0.4740 0.7691 0.6580
H45 H 0.4120 0.6710 0.6905
C53 C 0.2518(9) 0.6626(9) 0.5750(6)
H46 H 0.3028 0.6903 0.5387
H47 H 0.2382 0.5875 0.5657
C54 C 0.1373(9) 0.6543(9) 0.5451(6)
H48 H 0.0781 0.6052 0.5659
H49 H 0.1080 0.6230 0.4786
H50 H 0.1475 0.7290 0.5704
O7 O 0.3142(4) 0.7384(5) 0.6701(4)
loop_
_geom_bond_atom_site_label_1
_geom_bond_atom_site_label_2
_geom_bond_site_symmetry_1
_geom_bond_site_symmetry_2
Br1 C4 1_555 1_555
S1 C2 1_555 1_555
N1 H1 1_555 1_555
O1 C1 1_555 1_555
O2 H2 1_555 1_555
O3 C13 1_555 1_555
C1 N1 1_555 1_555
C2 C1 1_555 1_555
C3 C2 1_555 1_555
C4 C3 1_555 1_555
C5 C4 1_555 1_555
H3 C5 1_555 1_555
C6 C5 1_555 1_555
H4 C6 1_555 1_555
C7 C6 1_555 1_555
H5 C7 1_555 1_555
C8 N1 1_555 1_555
C9 S1 1_555 1_555
H6 C9 1_555 1_555
C10 O2 1_555 1_555
H7 C10 1_555 1_555
C11 C10 1_555 1_555
H8 C11 1_555 1_555
H9 C11 1_555 1_555
C12 C2 1_555 1_555
H10 C12 1_555 1_555
C13 C9 1_555 1_555
C14 C13 1_555 1_555
C15 C14 1_555 1_555
H11 C15 1_555 1_555
C16 C15 1_555 1_555
H12 C16 1_555 1_555
C17 C16 1_555 1_555
H13 C17 1_555 1_555
C18 C17 1_555 1_555
H14 C18 1_555 1_555
C19 C14 1_555 1_555
H15 C19 1_555 1_555
C20 C12 1_555 1_555
C21 C20 1_555 1_555
H16 C21 1_555 1_555
C22 C21 1_555 1_555
H17 C22 1_555 1_555
C23 C22 1_555 1_555
H18 C23 1_555 1_555
C24 C23 1_555 1_555
H19 C24 1_555 1_555
C25 C20 1_555 1_555
H20 C25 1_555 1_555
Br2 C29 1_555 1_555
S2 C27 1_555 1_555
N2 H21 1_555 1_555
O4 C26 1_555 1_555
O5 H22 1_555 1_555
O6 C38 1_555 1_555
C26 N2 1_555 1_555
C27 C26 1_555 1_555
C28 C27 1_555 1_555
C29 C28 1_555 1_555
C30 C29 1_555 1_555
H23 C30 1_555 1_555
C31 C30 1_555 1_555
H24 C31 1_555 1_555
C32 C31 1_555 1_555
H25 C32 1_555 1_555
C33 N2 1_555 1_555
C34 S2 1_555 1_555
H26 C34 1_555 1_555
C35 O5 1_555 1_555
H27 C35 1_555 1_555
C36 C35 1_555 1_555
H28 C36 1_555 1_555
H29 C36 1_555 1_555
C37 C27 1_555 1_555
H30 C37 1_555 1_555
C38 C34 1_555 1_555
C39 C38 1_555 1_555
C40 C39 1_555 1_555
H31 C40 1_555 1_555
C41 C40 1_555 1_555
H32 C41 1_555 1_555
C42 C41 1_555 1_555
H33 C42 1_555 1_555
C43 C42 1_555 1_555
H34 C43 1_555 1_555
C44 C39 1_555 1_555
H35 C44 1_555 1_555
C45 C37 1_555 1_555
C46 C45 1_555 1_555
H36 C46 1_555 1_555
C47 C46 1_555 1_555
H37 C47 1_555 1_555
C48 C47 1_555 1_555
H38 C48 1_555 1_555
C49 C48 1_555 1_555
H39 C49 1_555 1_555
C50 C45 1_555 1_555
H40 C50 1_555 1_555
C51 H41 1_555 1_555
H42 C51 1_555 1_555
H43 C51 1_555 1_555
C52 C51 1_555 1_555
H44 C52 1_555 1_555
H45 C52 1_555 1_555
C53 H46 1_555 1_555
H47 C53 1_555 1_555
C54 C53 1_555 1_555
H48 C54 1_555 1_555
H49 C54 1_555 1_555
H50 C54 1_555 1_555
O7 C52 1_555 1_555
C3 C8 1_555 1_555
C7 C8 1_555 1_555
C9 C10 1_555 1_555
C11 C12 1_555 1_555
C18 C19 1_555 1_555
C24 C25 1_555 1_555
C28 C33 1_555 1_555
C32 C33 1_555 1_555
C34 C35 1_555 1_555
C36 C37 1_555 1_555
C43 C44 1_555 1_555
C49 C50 1_555 1_555
C53 O7 1_555 1_555

#END
