
#######################################################################
#
#                 Cambridge Crystallographic Data Centre
#                                CCDC 
#
#######################################################################
#
# If this CIF has been generated from an entry in the Cambridge 
# Structural Database, then it will include bibliographic, chemical, 
# crystal, experimental, refinement or atomic coordinate data resulting 
# from the CCDC's data processing and validation procedures.
#
#######################################################################

data_MEMANP12
_chemical_name_common            methyl-alpha-D-Mannopyranoside
_chemical_formula_moiety         'C7 H14 O6'
_chemical_name_systematic        
2-(hydroxymethyl)-6-methoxytetrahydro-2H-pyran-3,4,5-triol
_symmetry_cell_setting           orthorhombic
_symmetry_space_group_name_H-M   'P 21 21 21'
_symmetry_Int_Tables_number      19
_space_group_name_Hall           'P 2ac 2ab'
loop_
_symmetry_equiv_pos_site_id
_symmetry_equiv_pos_as_xyz
1 x,y,z
2 1/2+x,1/2-y,-z
3 -x,1/2+y,1/2-z
4 1/2-x,-y,1/2+z
_cell_length_a                   9.2633(2)
_cell_length_b                   9.3690(2)
_cell_length_c                   9.9779(2)
_cell_angle_alpha                90
_cell_angle_beta                 90
_cell_angle_gamma                90
_cell_volume                     865.961
_exptl_crystal_colour            colorless
_exptl_crystal_description       block
_cell_formula_units_Z            4
_exptl_crystal_recrystallization_method water
loop_
_atom_site_label
_atom_site_type_symbol
_atom_site_fract_x
_atom_site_fract_y
_atom_site_fract_z
O1 O 0.37379(8) 0.37090(8) 0.25770(8)
O2 O 0.58710(9) 0.23721(9) 0.42440(9)
H1 H 0.6168(18) 0.3227(11) 0.4254(17)
O3 O 0.34066(9) -0.01760(8) 0.29198(8)
H2 H 0.4084(18) -0.0701(17) 0.2891(15)
O4 O 0.34747(8) 0.02114(9) 0.00635(8)
H3 H 0.2871(14) 0.0205(17) -0.0586(12)
O5 O 0.47239(8) 0.29584(9) 0.00014(9)
H4 H 0.4985(18) 0.2275(17) -0.0469(18)
O6 O 0.14273(8) 0.38815(8) 0.16272(8)
C1 C 0.43623(14) 0.23525(13) 0.44992(11)
H5 H 0.4103 0.3197 0.5045
H6 H 0.4122 0.1490 0.5027
C2 C 0.34718(11) 0.23578(12) 0.32251(11)
H7 H 0.2427 0.2301 0.3470
C3 C 0.38307(11) 0.11270(12) 0.22767(11)
H8 H 0.4891 0.1111 0.2090
C4 C 0.30001(11) 0.12890(12) 0.09737(11)
H9 H 0.1946 0.1160 0.1153
C5 C 0.32518(12) 0.27650(12) 0.03656(11)
H10 H 0.2623 0.2892 -0.0440
C6 C 0.29236(11) 0.39227(11) 0.13858(11)
H11 H 0.3180 0.4872 0.0994
C7 C 0.09493(14) 0.49483(13) 0.25608(12)
H12 H -0.0106 0.5020 0.2528
H13 H 0.1376 0.5872 0.2324
H14 H 0.1251 0.4681 0.3468
loop_
_geom_bond_atom_site_label_1
_geom_bond_atom_site_label_2
_geom_bond_site_symmetry_1
_geom_bond_site_symmetry_2
O1 C2 1_555 1_555
O2 H1 1_555 1_555
O3 H2 1_555 1_555
O4 H3 1_555 1_555
O5 H4 1_555 1_555
O6 C6 1_555 1_555
C1 O2 1_555 1_555
H5 C1 1_555 1_555
H6 C1 1_555 1_555
C2 C1 1_555 1_555
H7 C2 1_555 1_555
C3 O3 1_555 1_555
H8 C3 1_555 1_555
C4 O4 1_555 1_555
H9 C4 1_555 1_555
C5 O5 1_555 1_555
H10 C5 1_555 1_555
C6 O1 1_555 1_555
H11 C6 1_555 1_555
C7 O6 1_555 1_555
H12 C7 1_555 1_555
H13 C7 1_555 1_555
H14 C7 1_555 1_555
C2 C3 1_555 1_555
C3 C4 1_555 1_555
C4 C5 1_555 1_555
C5 C6 1_555 1_555

#END
