
#######################################################################
#
#                 Cambridge Crystallographic Data Centre
#                                CCDC 
#
#######################################################################
#
# If this CIF has been generated from an entry in the Cambridge 
# Structural Database, then it will include bibliographic, chemical, 
# crystal, experimental, refinement or atomic coordinate data resulting 
# from the CCDC's data processing and validation procedures.
#
#######################################################################

data_MEMBOV01
_chemical_formula_moiety         'C14 H10 N2 O1 S1'
_chemical_name_systematic        N-(1,3-Benzothiazol-2-yl)benzamide
_symmetry_cell_setting           monoclinic
_symmetry_space_group_name_H-M   'P 21/n'
_symmetry_Int_Tables_number      14
_space_group_name_Hall           '-P 2yn'
loop_
_symmetry_equiv_pos_site_id
_symmetry_equiv_pos_as_xyz
1 x,y,z
2 1/2-x,1/2+y,1/2-z
3 -x,-y,-z
4 1/2+x,1/2-y,1/2+z
_cell_length_a                   5.933(3)
_cell_length_b                   16.807(7)
_cell_length_c                   11.898(5)
_cell_angle_alpha                90
_cell_angle_beta                 102.406(6)
_cell_angle_gamma                90
_cell_volume                     1158.72
_cell_formula_units_Z            4
loop_
_atom_site_label
_atom_site_type_symbol
_atom_site_fract_x
_atom_site_fract_y
_atom_site_fract_z
C1 C 0.2792(6) 0.47093(17) 0.3111(3)
C2 C 0.2694(6) 0.43855(19) 0.4175(2)
H1 H 0.1448 0.4499 0.4507
C3 C 0.4455(6) 0.38928(19) 0.4742(3)
H2 H 0.4397 0.3681 0.5457
C4 C 0.6300(6) 0.3716(2) 0.4240(3)
H3 H 0.7470 0.3382 0.4617
C5 C 0.6408(6) 0.40382(19) 0.3173(2)
H4 H 0.7653 0.3924 0.2840
C6 C 0.4647(6) 0.45306(17) 0.2610(3)
C7 C 0.2914(5) 0.52882(17) 0.1295(2)
C8 C 0.0891(5) 0.62727(16) -0.0041(2)
C9 C 0.1174(5) 0.68501(16) -0.0947(2)
C10 C -0.0806(5) 0.70836(17) -0.1759(2)
H5 H -0.2235 0.6861 -0.1747
C11 C -0.0600(6) 0.76397(18) -0.2559(3)
H6 H -0.1902 0.7792 -0.3101
C12 C 0.1505(5) 0.79840(18) -0.2584(2)
H7 H 0.1626 0.8359 -0.3143
C13 C 0.3409(5) 0.77641(19) -0.1773(3)
H8 H 0.4815 0.8010 -0.1768
C14 C 0.3294(5) 0.71922(17) -0.0972(2)
H9 H 0.4619 0.7034 -0.0450
N1 N 0.4566(5) 0.48609(15) 0.1584(2)
N2 N 0.2629(4) 0.57439(13) 0.0270(2)
H10 H 0.3595 0.5681 -0.0168
O1 O -0.0779(4) 0.62880(13) 0.04112(18)
S1 S 0.11435(13) 0.53137(4) 0.21999(6)
loop_
_geom_bond_atom_site_label_1
_geom_bond_atom_site_label_2
_geom_bond_site_symmetry_1
_geom_bond_site_symmetry_2
C1 C2 1_555 1_555
C2 H1 1_555 1_555
C3 C2 1_555 1_555
H2 C3 1_555 1_555
C4 C3 1_555 1_555
H3 C4 1_555 1_555
C5 C4 1_555 1_555
H4 C5 1_555 1_555
C6 C1 1_555 1_555
C7 N1 1_555 1_555
C8 C9 1_555 1_555
C9 C10 1_555 1_555
C10 H5 1_555 1_555
C11 C10 1_555 1_555
H6 C11 1_555 1_555
C12 C11 1_555 1_555
H7 C12 1_555 1_555
C13 C12 1_555 1_555
H8 C13 1_555 1_555
C14 C9 1_555 1_555
H9 C14 1_555 1_555
N1 C6 1_555 1_555
N2 C7 1_555 1_555
H10 N2 1_555 1_555
O1 C8 1_555 1_555
S1 C1 1_555 1_555
C5 C6 1_555 1_555
C7 S1 1_555 1_555
C8 N2 1_555 1_555
C13 C14 1_555 1_555

#END
