
#######################################################################
#
#                 Cambridge Crystallographic Data Centre
#                                CCDC 
#
#######################################################################
#
# If this CIF has been generated from an entry in the Cambridge 
# Structural Database, then it will include bibliographic, chemical, 
# crystal, experimental, refinement or atomic coordinate data resulting 
# from the CCDC's data processing and validation procedures.
#
#######################################################################

data_MEMFES
_chemical_compound_source        
'Isolated from the adnascent Chinese liverwort, Radula sumatrana.'
_chemical_name_common            'rac-rasumatranin A'
_chemical_formula_moiety         'C24 H30 O4'
_chemical_name_systematic        
12-(2-hydroxypropan-2-yl)-9-methyl-3-(2-phenylethyl)-8-oxatricyclo[7.3.1.0^2,7^]trideca-2,4,6-triene-5,13-diol
_symmetry_cell_setting           monoclinic
_symmetry_space_group_name_H-M   'C 2/c'
_symmetry_Int_Tables_number      15
_space_group_name_Hall           '-C 2yn'
loop_
_symmetry_equiv_pos_site_id
_symmetry_equiv_pos_as_xyz
1 x,y,z
2 -x,y,1/2-z
3 1/2+x,1/2+y,z
4 1/2-x,1/2+y,1/2-z
5 -x,-y,-z
6 x,-y,1/2+z
7 1/2-x,1/2-y,-z
8 1/2+x,1/2-y,1/2+z
_cell_length_a                   16.1803(7)
_cell_length_b                   16.2266(6)
_cell_length_c                   16.6650(6)
_cell_angle_alpha                90
_cell_angle_beta                 106.243(2)
_cell_angle_gamma                90
_cell_volume                     4200.77
_exptl_crystal_colour            pink
_exptl_crystal_description       block
_cell_formula_units_Z            8
loop_
_atom_site_label
_atom_site_type_symbol
_atom_site_fract_x
_atom_site_fract_y
_atom_site_fract_z
O1 O 0.19199(10) 0.47855(9) 0.72203(10)
O2 O 0.26532(11) 0.32360(10) 0.45561(10)
H1 H 0.2524 0.2798 0.4735
O3 O 0.17506(12) 0.25733(9) 0.66893(10)
H2 H 0.1994 0.2312 0.6401
O4 O 0.41335(11) 0.66970(10) 0.73888(12)
C1 C 0.29890(13) 0.44526(12) 0.64908(12)
C2 C 0.25041(13) 0.36626(12) 0.61720(12)
H3 H 0.2914 0.3253 0.6082
H4 H 0.388(3) 0.697(3) 0.774(3)
C3 C 0.26407(13) 0.49703(12) 0.69800(13)
C4 C 0.30133(14) 0.57203(13) 0.72805(14)
H5 H 0.2763 0.6059 0.7597
C5 C 0.37850(14) 0.46751(13) 0.63696(13)
C6 C 0.17437(14) 0.37301(12) 0.53615(12)
H6 H 0.1456 0.3193 0.5308
C7 C 0.37587(14) 0.59524(13) 0.71017(14)
C8 C 0.14929(15) 0.39904(13) 0.70144(14)
C9 C 0.21501(15) 0.33631(12) 0.68812(13)
H7 H 0.2625 0.3320 0.7395
C10 C 0.19931(16) 0.38397(14) 0.45371(13)
C11 C 0.41503(14) 0.54296(14) 0.66604(14)
H8 H 0.4664 0.5587 0.6558
C12 C 0.10711(16) 0.43491(15) 0.54798(15)
H9 H 0.1323 0.4896 0.5568
H10 H 0.0588 0.4364 0.4980
C13 C 0.23453(19) 0.46914(15) 0.44251(15)
H11 H 0.2522 0.4700 0.3921
H12 H 0.2831 0.4812 0.4894
H13 H 0.1905 0.5098 0.4390
C14 C 0.07560(16) 0.41049(16) 0.62289(16)
H14 H 0.0372 0.4528 0.6326
H15 H 0.0432 0.3595 0.6103
C15 C 0.42809(16) 0.40975(18) 0.59578(18)
H16 H 0.4022 0.3555 0.5930
H17 H 0.4198 0.4283 0.5387
C16 C 0.11933(19) 0.37804(16) 0.77757(17)
H18 H 0.0873 0.4235 0.7905
H19 H 0.1684 0.3673 0.8243
H20 H 0.0833 0.3300 0.7661
C17 C 0.5634(2) 0.3331(2) 0.6004(2)
C18 C 0.1226(2) 0.3645(2) 0.37874(16)
H21 H 0.1409 0.3645 0.3287
H22 H 0.0788 0.4055 0.3743
H23 H 0.0999 0.3112 0.3862
C19 C 0.5803(2) 0.2590(3) 0.6411(2)
H24 H 0.5650 0.2514 0.6904
C20 C 0.6193(3) 0.1959(2) 0.6109(3)
H25 H 0.6303 0.1463 0.6398
C21 C 0.5190(3) 0.4009(3) 0.6337(3)
H26 H 0.5283 0.3918 0.6931
H27 H 0.5465 0.4527 0.6273
C22 C 0.6416(3) 0.2055(3) 0.5395(4)
H28 H 0.6679 0.1626 0.5188
C23 C 0.5877(4) 0.3420(3) 0.5294(3)
H29 H 0.5790 0.3920 0.5011
C24 C 0.6257(4) 0.2771(3) 0.4985(4)
H30 H 0.6402 0.2836 0.4487
loop_
_geom_bond_atom_site_label_1
_geom_bond_atom_site_label_2
_geom_bond_site_symmetry_1
_geom_bond_site_symmetry_2
O1 C3 1_555 1_555
O2 H1 1_555 1_555
O3 H2 1_555 1_555
O4 H4 1_555 1_555
C1 C2 1_555 1_555
C2 H3 1_555 1_555
C3 C1 1_555 1_555
C4 C3 1_555 1_555
H5 C4 1_555 1_555
C5 C1 1_555 1_555
C6 C2 1_555 1_555
H6 C6 1_555 1_555
C7 O4 1_555 1_555
C8 O1 1_555 1_555
C9 O3 1_555 1_555
H7 C9 1_555 1_555
C10 O2 1_555 1_555
C11 C5 1_555 1_555
H8 C11 1_555 1_555
C12 C6 1_555 1_555
H9 C12 1_555 1_555
H10 C12 1_555 1_555
C13 C10 1_555 1_555
H11 C13 1_555 1_555
H12 C13 1_555 1_555
H13 C13 1_555 1_555
C14 C8 1_555 1_555
H14 C14 1_555 1_555
H15 C14 1_555 1_555
C15 C5 1_555 1_555
H16 C15 1_555 1_555
H17 C15 1_555 1_555
C16 C8 1_555 1_555
H18 C16 1_555 1_555
H19 C16 1_555 1_555
H20 C16 1_555 1_555
C17 C19 1_555 1_555
C18 C10 1_555 1_555
H21 C18 1_555 1_555
H22 C18 1_555 1_555
H23 C18 1_555 1_555
C19 H24 1_555 1_555
C20 C19 1_555 1_555
H25 C20 1_555 1_555
C21 C15 1_555 1_555
H26 C21 1_555 1_555
H27 C21 1_555 1_555
C22 C20 1_555 1_555
H28 C22 1_555 1_555
C23 C17 1_555 1_555
H29 C23 1_555 1_555
C24 C22 1_555 1_555
H30 C24 1_555 1_555
C2 C9 1_555 1_555
C4 C7 1_555 1_555
C6 C10 1_555 1_555
C7 C11 1_555 1_555
C8 C9 1_555 1_555
C12 C14 1_555 1_555
C17 C21 1_555 1_555
C23 C24 1_555 1_555

#END
