
#######################################################################
#
#                 Cambridge Crystallographic Data Centre
#                                CCDC 
#
#######################################################################
#
# If this CIF has been generated from an entry in the Cambridge 
# Structural Database, then it will include bibliographic, chemical, 
# crystal, experimental, refinement or atomic coordinate data resulting 
# from the CCDC's data processing and validation procedures.
#
#######################################################################

data_MEMKEX
_chemical_formula_moiety         'C28 H25 Cl1 N2 O3'
_chemical_name_systematic        
't-butyl [1-benzyl-6-chloro-2-oxo-3-(phenylethynyl)-2,3-dihydro-1H-indol-3-yl]carbamate'
_symmetry_cell_setting           orthorhombic
_symmetry_space_group_name_H-M   'P 21 21 21'
_symmetry_Int_Tables_number      19
_space_group_name_Hall           'P 2ac 2ab'
loop_
_symmetry_equiv_pos_site_id
_symmetry_equiv_pos_as_xyz
1 x,y,z
2 1/2-x,-y,1/2+z
3 -x,1/2+y,1/2-z
4 1/2+x,1/2-y,-z
_cell_length_a                   11.5916(2)
_cell_length_b                   14.4910(4)
_cell_length_c                   14.7866(3)
_cell_angle_alpha                90
_cell_angle_beta                 90
_cell_angle_gamma                90
_cell_volume                     2483.76
_exptl_crystal_colour            colorless
_exptl_crystal_description       block
_cell_formula_units_Z            4
loop_
_atom_site_label
_atom_site_type_symbol
_atom_site_fract_x
_atom_site_fract_y
_atom_site_fract_z
Cl1 Cl 0.10348(6) 0.16265(5) 0.65731(6)
O1 O 0.41921(16) 0.51167(14) 0.38983(13)
O2 O 0.19536(16) 0.57104(13) 0.49840(13)
O3 O 0.24432(19) 0.69720(15) 0.58149(14)
N1 N 0.32483(16) 0.38280(15) 0.44268(13)
N2 N 0.36173(17) 0.57843(15) 0.57730(14)
H1 H 0.4079 0.6131 0.6101
C1 C 0.32093(18) 0.40960(17) 0.59528(16)
C2 C 0.74189(19) 0.46065(16) 0.60206(17)
C3 C 0.6194(2) 0.46627(17) 0.58873(16)
C4 C 0.38146(19) 0.46521(16) 0.45057(16)
C5 C 0.2593(2) 0.61274(18) 0.54778(17)
C6 C 0.5183(2) 0.47247(18) 0.57601(17)
C7 C 0.28438(19) 0.35108(17) 0.52633(15)
C8 C 0.39505(19) 0.48492(16) 0.55481(16)
C9 C 0.2158(2) 0.27486(18) 0.54304(18)
H2 H 0.1905 0.2351 0.4960
C10 C 0.1142(2) 0.42337(19) 0.33839(15)
H3 H 0.1487 0.4756 0.3662
C11 C 0.7897(2) 0.47262(19) 0.68793(18)
H4 H 0.7407 0.4834 0.7384
C12 C 0.2881(2) 0.39370(19) 0.68346(16)
H5 H 0.3119 0.4341 0.7305
C13 C 0.2193(2) 0.3172(2) 0.70243(18)
H6 H 0.1956 0.3049 0.7627
C14 C 0.9083(2) 0.46889(19) 0.69989(19)
H7 H 0.9406 0.4772 0.7584
C15 C 0.1766(2) 0.34261(19) 0.32814(15)
C16 C 0.1861(2) 0.2600(2) 0.63336(18)
C17 C 0.0009(2) 0.4278(2) 0.30793(18)
H8 H -0.0416 0.4835 0.3143
C18 C 0.8146(2) 0.4440(2) 0.52927(19)
H9 H 0.7834 0.4357 0.4704
C19 C 0.3021(2) 0.3379(2) 0.35639(16)
H10 H 0.3257 0.2724 0.3605
H11 H 0.3500 0.3675 0.3091
C20 C 0.9791(2) 0.4531(2) 0.6270(2)
H12 H 1.0604 0.4515 0.6350
C21 C 0.1250(3) 0.2663(2) 0.28868(18)
H13 H 0.1674 0.2107 0.2815
C22 C 0.1499(3) 0.7568(2) 0.54934(19)
C23 C 0.0112(3) 0.2712(2) 0.2597(2)
H14 H -0.0244 0.2185 0.2336
C24 C -0.0502(2) 0.3518(2) 0.26852(19)
H15 H -0.1276 0.3551 0.2476
C25 C 0.9326(3) 0.4396(3) 0.5425(2)
H16 H 0.9820 0.4272 0.4927
C26 C 0.1627(4) 0.7727(3) 0.4500(2)
H17 H 0.2397 0.7975 0.4374
H18 H 0.1041 0.8168 0.4297
H19 H 0.1526 0.7142 0.4178
C27 C 0.1729(5) 0.8453(3) 0.5999(3)
H20 H 0.1515 0.8375 0.6636
H21 H 0.1271 0.8953 0.5733
H22 H 0.2551 0.8607 0.5957
C28 C 0.0352(4) 0.7161(4) 0.5742(4)
H23 H 0.0203 0.6616 0.5367
H24 H -0.0256 0.7620 0.5640
H25 H 0.0358 0.6982 0.6381
loop_
_geom_bond_atom_site_label_1
_geom_bond_atom_site_label_2
_geom_bond_site_symmetry_1
_geom_bond_site_symmetry_2
Cl1 C16 1_555 1_555
O1 C4 1_555 1_555
O2 C5 1_555 1_555
O3 C5 1_555 1_555
N1 C4 1_555 1_555
N2 H1 1_555 1_555
C1 C7 1_555 1_555
C2 C3 1_555 1_555
C3 C6 1_555 1_555
C4 C8 1_555 1_555
C5 N2 1_555 1_555
C6 C8 1_555 1_555
C7 N1 1_555 1_555
C8 N2 1_555 1_555
C9 C7 1_555 1_555
H2 C9 1_555 1_555
C10 H3 1_555 1_555
C11 C2 1_555 1_555
H4 C11 1_555 1_555
C12 C1 1_555 1_555
H5 C12 1_555 1_555
C13 C12 1_555 1_555
H6 C13 1_555 1_555
C14 C11 1_555 1_555
H7 C14 1_555 1_555
C15 C10 1_555 1_555
C16 C9 1_555 1_555
C17 C10 1_555 1_555
H8 C17 1_555 1_555
C18 C2 1_555 1_555
H9 C18 1_555 1_555
C19 N1 1_555 1_555
H10 C19 1_555 1_555
H11 C19 1_555 1_555
C20 C14 1_555 1_555
H12 C20 1_555 1_555
C21 C15 1_555 1_555
H13 C21 1_555 1_555
C22 O3 1_555 1_555
C23 C21 1_555 1_555
H14 C23 1_555 1_555
C24 C17 1_555 1_555
H15 C24 1_555 1_555
C25 C18 1_555 1_555
H16 C25 1_555 1_555
C26 C22 1_555 1_555
H17 C26 1_555 1_555
H18 C26 1_555 1_555
H19 C26 1_555 1_555
C27 C22 1_555 1_555
H20 C27 1_555 1_555
H21 C27 1_555 1_555
H22 C27 1_555 1_555
C28 C22 1_555 1_555
H23 C28 1_555 1_555
H24 C28 1_555 1_555
H25 C28 1_555 1_555
C1 C8 1_555 1_555
C13 C16 1_555 1_555
C15 C19 1_555 1_555
C20 C25 1_555 1_555
C23 C24 1_555 1_555

#END
