
#######################################################################
#
#                 Cambridge Crystallographic Data Centre
#                                CCDC 
#
#######################################################################
#
# If this CIF has been generated from an entry in the Cambridge 
# Structural Database, then it will include bibliographic, chemical, 
# crystal, experimental, refinement or atomic coordinate data resulting 
# from the CCDC's data processing and validation procedures.
#
#######################################################################

data_MEMTUW
_chemical_formula_moiety         'C28 H28 O5 S1'
_chemical_name_systematic        
9,10-dimethoxy-4-(4-methylphenyl)-5-[(4-methylphenyl)sulfonyl]-1,6-dihydro-2H-2,6-methano-3-benzoxocine
_symmetry_cell_setting           monoclinic
_symmetry_space_group_name_H-M   'P 21'
_symmetry_Int_Tables_number      4
_space_group_name_Hall           'P 2yb'
loop_
_symmetry_equiv_pos_site_id
_symmetry_equiv_pos_as_xyz
1 x,y,z
2 -x,1/2+y,-z
_cell_length_a                   11.0102(3)
_cell_length_b                   9.1251(2)
_cell_length_c                   11.4970(3)
_cell_angle_alpha                90
_cell_angle_beta                 91.296(2)
_cell_angle_gamma                90
_cell_volume                     1154.8
_exptl_crystal_colour            colorless
_cell_formula_units_Z            2
loop_
_atom_site_label
_atom_site_type_symbol
_atom_site_fract_x
_atom_site_fract_y
_atom_site_fract_z
S1 S -0.13854(6) 0.43266(7) 0.72222(6)
O1 O 0.38839(17) 0.0516(2) 0.89037(17)
O2 O 0.15390(17) 0.6929(2) 0.70280(17)
O3 O -0.15987(17) 0.3129(2) 0.64176(17)
O4 O -0.14262(17) 0.4018(2) 0.84510(16)
O5 O 0.45993(16) 0.3253(2) 0.83530(16)
C1 C 0.3461(2) -0.0878(3) 0.9281(2)
H1 H 0.2705 -0.0751 0.9704
H2 H 0.4076 -0.1330 0.9796
H3 H 0.3311 -0.1510 0.8604
C2 C 0.3109(3) 0.1316(3) 0.8201(2)
C3 C 0.3500(2) 0.2739(3) 0.7920(2)
C4 C 0.2776(2) 0.3662(3) 0.7237(2)
C5 C 0.3239(2) 0.5182(3) 0.6932(2)
H4 H 0.3984 0.5074 0.6473
H5 H 0.3467 0.5699 0.7661
C6 C 0.2334(2) 0.6128(3) 0.6244(2)
H6 H 0.2806 0.6865 0.5796
C7 C 0.0427(2) 0.6368(3) 0.7279(2)
C8 C -0.0270(2) 0.7427(3) 0.7990(2)
C9 C -0.0714(2) 0.8688(3) 0.7452(2)
H7 H -0.0557 0.8856 0.6653
C10 C -0.1381(2) 0.9701(3) 0.8064(2)
H8 H -0.1688 1.0550 0.7681
C11 C -0.1605(2) 0.9483(3) 0.9238(2)
C12 C -0.2362(3) 1.0566(3) 0.9898(3)
H9 H -0.3225 1.0324 0.9789
H10 H -0.2213 1.1557 0.9605
H11 H -0.2141 1.0520 1.0727
C13 C -0.5108(3) 0.9010(3) 0.6041(3)
H12 H -0.4673 0.9941 0.5966
H13 H -0.5706 0.9094 0.6655
H14 H -0.5524 0.8775 0.5302
C14 C -0.4219(2) 0.7814(3) 0.6346(3)
C15 C -0.3594(2) 0.7097(3) 0.5476(3)
H15 H -0.3767 0.7336 0.4685
C16 C -0.2724(2) 0.6039(3) 0.5738(2)
H16 H -0.2296 0.5565 0.5136
C17 C -0.2490(2) 0.5688(3) 0.6902(2)
C18 C 0.0041(2) 0.5071(3) 0.6860(2)
C19 C 0.1648(2) 0.3147(3) 0.6815(2)
C20 C 0.0837(2) 0.4156(3) 0.6082(2)
H17 H 0.0315 0.3559 0.5540
C21 C 0.1595(2) 0.5231(3) 0.5385(2)
H18 H 0.2138 0.4693 0.4859
H19 H 0.1059 0.5876 0.4908
C22 C 0.1280(2) 0.1738(3) 0.7082(2)
H20 H 0.0520 0.1393 0.6787
C23 C 0.1994(2) 0.0816(3) 0.7772(2)
H21 H 0.1725 -0.0146 0.7948
C24 C 0.5627(2) 0.2635(3) 0.7776(3)
H22 H 0.5595 0.1564 0.7827
H23 H 0.6379 0.2989 0.8152
H24 H 0.5606 0.2932 0.6957
C25 C -0.1127(2) 0.8242(3) 0.9781(2)
H25 H -0.1249 0.8098 1.0588
C26 C -0.0475(2) 0.7208(3) 0.9167(2)
H26 H -0.0170 0.6356 0.9549
C27 C -0.3114(2) 0.6370(3) 0.7786(2)
H27 H -0.2958 0.6113 0.8576
C28 C -0.3969(2) 0.7433(3) 0.7499(2)
H28 H -0.4394 0.7911 0.8101
loop_
_geom_bond_atom_site_label_1
_geom_bond_atom_site_label_2
_geom_bond_site_symmetry_1
_geom_bond_site_symmetry_2
S1 O3 1_555 1_555
O1 C1 1_555 1_555
O2 C6 1_555 1_555
O4 S1 1_555 1_555
O5 C3 1_555 1_555
C1 H1 1_555 1_555
H2 C1 1_555 1_555
H3 C1 1_555 1_555
C2 O1 1_555 1_555
C3 C2 1_555 1_555
C4 C3 1_555 1_555
C5 C4 1_555 1_555
H4 C5 1_555 1_555
H5 C5 1_555 1_555
C6 C5 1_555 1_555
H6 C6 1_555 1_555
C7 O2 1_555 1_555
C8 C7 1_555 1_555
C9 C8 1_555 1_555
H7 C9 1_555 1_555
C10 C9 1_555 1_555
H8 C10 1_555 1_555
C11 C10 1_555 1_555
C12 C11 1_555 1_555
H9 C12 1_555 1_555
H10 C12 1_555 1_555
H11 C12 1_555 1_555
C13 H12 1_555 1_555
H13 C13 1_555 1_555
H14 C13 1_555 1_555
C14 C13 1_555 1_555
C15 C14 1_555 1_555
H15 C15 1_555 1_555
C16 C15 1_555 1_555
H16 C16 1_555 1_555
C17 S1 1_555 1_555
C18 S1 1_555 1_555
C19 C4 1_555 1_555
C20 C18 1_555 1_555
H17 C20 1_555 1_555
C21 C6 1_555 1_555
H18 C21 1_555 1_555
H19 C21 1_555 1_555
C22 C19 1_555 1_555
H20 C22 1_555 1_555
C23 C2 1_555 1_555
H21 C23 1_555 1_555
C24 O5 1_555 1_555
H22 C24 1_555 1_555
H23 C24 1_555 1_555
H24 C24 1_555 1_555
C25 C11 1_555 1_555
H25 C25 1_555 1_555
C26 C8 1_555 1_555
H26 C26 1_555 1_555
C27 C17 1_555 1_555
H27 C27 1_555 1_555
C28 C14 1_555 1_555
H28 C28 1_555 1_555
C7 C18 1_555 1_555
C16 C17 1_555 1_555
C19 C20 1_555 1_555
C20 C21 1_555 1_555
C22 C23 1_555 1_555
C25 C26 1_555 1_555
C27 C28 1_555 1_555

#END
