
#######################################################################
#
#                 Cambridge Crystallographic Data Centre
#                                CCDC 
#
#######################################################################
#
# If this CIF has been generated from an entry in the Cambridge 
# Structural Database, then it will include bibliographic, chemical, 
# crystal, experimental, refinement or atomic coordinate data resulting 
# from the CCDC's data processing and validation procedures.
#
#######################################################################

data_MEMVIM
_chemical_formula_moiety         'C33 H30 O5 S1'
_chemical_name_systematic        
6,7-dimethoxy-4-[(4-methylphenyl)sulfonyl]-1,3-diphenyl-1,4a,9,9a-tetrahydroindeno[2,1-c]pyran
_symmetry_cell_setting           monoclinic
_symmetry_space_group_name_H-M   'C 2/c'
_symmetry_Int_Tables_number      15
_space_group_name_Hall           '-C 2yn'
loop_
_symmetry_equiv_pos_site_id
_symmetry_equiv_pos_as_xyz
1 x,y,z
2 -x,y,1/2-z
3 1/2+x,1/2+y,z
4 1/2-x,1/2+y,1/2-z
5 -x,-y,-z
6 x,-y,1/2+z
7 1/2-x,1/2-y,-z
8 1/2+x,1/2-y,1/2+z
_cell_length_a                   21.8205(14)
_cell_length_b                   11.6934(6)
_cell_length_c                   22.0291(15)
_cell_angle_alpha                90
_cell_angle_beta                 95.383(2)
_cell_angle_gamma                90
_cell_volume                     5596.06
_exptl_crystal_colour            colorless
_cell_formula_units_Z            8
loop_
_atom_site_label
_atom_site_type_symbol
_atom_site_fract_x
_atom_site_fract_y
_atom_site_fract_z
C1 C 0.68209(7) 0.20312(12) 0.54683(7)
C2 C 0.67691(7) 0.31080(13) 0.57468(7)
C3 C 0.64803(7) 0.40109(13) 0.54283(7)
H1 H 0.6455 0.4741 0.5613
C4 C 0.62261(7) 0.38273(12) 0.48292(6)
C5 C 0.58611(7) 0.46466(12) 0.43958(6)
H2 H 0.5429 0.4675 0.4512
C6 C 0.60884(7) 0.58600(12) 0.43486(6)
C7 C 0.63332(7) 0.62671(12) 0.38516(6)
C8 C 0.64226(7) 0.43546(12) 0.34656(6)
H3 H 0.6794 0.4123 0.3739
C9 C 0.58543(7) 0.40209(12) 0.37738(6)
H4 H 0.5469 0.4192 0.3507
C10 C 0.58950(7) 0.27432(13) 0.39433(7)
H5 H 0.5480 0.2409 0.3963
H6 H 0.6116 0.2306 0.3647
C11 C 0.62535(7) 0.27573(13) 0.45662(7)
C12 C 0.65604(7) 0.18546(12) 0.48768(7)
H7 H 0.6591 0.1130 0.4686
C13 C 0.71575(8) 0.00944(13) 0.55844(7)
H8 H 0.6744 -0.0189 0.5449
H9 H 0.7353 -0.0420 0.5896
H10 H 0.7405 0.0124 0.5236
C14 C 0.67478(8) 0.39957(14) 0.67200(7)
H11 H 0.6881 0.4764 0.6613
H12 H 0.6882 0.3840 0.7149
H13 H 0.6298 0.3948 0.6655
C15 C 0.64705(7) 0.38187(12) 0.28494(6)
C16 C 0.59886(7) 0.38835(14) 0.23871(7)
H14 H 0.5618 0.4266 0.2459
C17 C 0.60480(8) 0.33925(14) 0.18229(7)
H15 H 0.5719 0.3440 0.1510
C18 C 0.65847(8) 0.28337(14) 0.17145(7)
H16 H 0.6625 0.2500 0.1327
C19 C 0.70620(8) 0.27611(14) 0.21698(7)
H17 H 0.7430 0.2374 0.2095
C20 C 0.70065(8) 0.32523(13) 0.27383(7)
H18 H 0.7337 0.3199 0.3050
C21 C 0.54150(7) 0.78588(12) 0.45413(6)
C22 C 0.55914(8) 0.89962(13) 0.45707(7)
H19 H 0.5967 0.9214 0.4794
C23 C 0.52168(8) 0.98121(14) 0.42732(8)
H20 H 0.5333 1.0595 0.4301
C24 C 0.46704(8) 0.95045(14) 0.39332(7)
C25 C 0.45037(8) 0.83585(14) 0.39083(7)
H21 H 0.4133 0.8137 0.3677
C26 C 0.48678(7) 0.75313(13) 0.42141(7)
H22 H 0.4745 0.6752 0.4200
C27 C 0.42720(9) 1.04110(16) 0.36107(9)
H23 H 0.4476 1.0710 0.3266
H24 H 0.4207 1.1035 0.3895
H25 H 0.3874 1.0079 0.3462
C28 C 0.64806(7) 0.74750(12) 0.37107(7)
C29 C 0.69536(8) 0.80693(14) 0.40442(7)
H26 H 0.7189 0.7708 0.4375
C30 C 0.70782(9) 0.91904(15) 0.38911(8)
H27 H 0.7399 0.9597 0.4119
C31 C 0.67378(9) 0.97218(15) 0.34089(9)
H28 H 0.6822 1.0493 0.3310
C32 C 0.62763(9) 0.91303(15) 0.30724(9)
H29 H 0.6045 0.9494 0.2740
C33 C 0.61480(8) 0.80076(14) 0.32173(7)
H30 H 0.5833 0.7600 0.2981
O1 O 0.71132(5) 0.12100(9) 0.58344(5)
O2 O 0.70140(6) 0.31717(9) 0.63443(5)
O3 O 0.55252(5) 0.61693(9) 0.53116(5)
O4 O 0.64335(5) 0.73853(9) 0.52036(5)
O5 O 0.64510(5) 0.55893(8) 0.33728(4)
S1 S 0.58934(2) 0.68156(3) 0.49212(2)
loop_
_geom_bond_atom_site_label_1
_geom_bond_atom_site_label_2
_geom_bond_site_symmetry_1
_geom_bond_site_symmetry_2
C1 C2 1_555 1_555
C2 C3 1_555 1_555
C3 H1 1_555 1_555
C4 C3 1_555 1_555
C5 C4 1_555 1_555
H2 C5 1_555 1_555
C6 C5 1_555 1_555
C7 C6 1_555 1_555
C8 H3 1_555 1_555
C9 C5 1_555 1_555
H4 C9 1_555 1_555
C10 C9 1_555 1_555
H5 C10 1_555 1_555
H6 C10 1_555 1_555
C11 C4 1_555 1_555
C12 C1 1_555 1_555
H7 C12 1_555 1_555
C13 H8 1_555 1_555
H9 C13 1_555 1_555
H10 C13 1_555 1_555
C14 H11 1_555 1_555
H12 C14 1_555 1_555
H13 C14 1_555 1_555
C15 C8 1_555 1_555
C16 C15 1_555 1_555
H14 C16 1_555 1_555
C17 C16 1_555 1_555
H15 C17 1_555 1_555
C18 C17 1_555 1_555
H16 C18 1_555 1_555
C19 C18 1_555 1_555
H17 C19 1_555 1_555
C20 C15 1_555 1_555
H18 C20 1_555 1_555
C21 C22 1_555 1_555
C22 H19 1_555 1_555
C23 C22 1_555 1_555
H20 C23 1_555 1_555
C24 C23 1_555 1_555
C25 C24 1_555 1_555
H21 C25 1_555 1_555
C26 C21 1_555 1_555
H22 C26 1_555 1_555
C27 C24 1_555 1_555
H23 C27 1_555 1_555
H24 C27 1_555 1_555
H25 C27 1_555 1_555
C28 C7 1_555 1_555
C29 C28 1_555 1_555
H26 C29 1_555 1_555
C30 C29 1_555 1_555
H27 C30 1_555 1_555
C31 C30 1_555 1_555
H28 C31 1_555 1_555
C32 C31 1_555 1_555
H29 C32 1_555 1_555
C33 C28 1_555 1_555
H30 C33 1_555 1_555
O1 C1 1_555 1_555
O2 C2 1_555 1_555
O3 S1 1_555 1_555
O4 S1 1_555 1_555
O5 C7 1_555 1_555
S1 C6 1_555 1_555
C8 C9 1_555 1_555
C8 O5 1_555 1_555
C10 C11 1_555 1_555
C11 C12 1_555 1_555
C13 O1 1_555 1_555
C14 O2 1_555 1_555
C19 C20 1_555 1_555
C21 S1 1_555 1_555
C25 C26 1_555 1_555
C32 C33 1_555 1_555

#END
