
#######################################################################
#
#                 Cambridge Crystallographic Data Centre
#                                CCDC 
#
#######################################################################
#
# If this CIF has been generated from an entry in the Cambridge 
# Structural Database, then it will include bibliographic, chemical, 
# crystal, experimental, refinement or atomic coordinate data resulting 
# from the CCDC's data processing and validation procedures.
#
#######################################################################

data_MEMVAE
_chemical_formula_moiety         'C28 H28 O5 S1'
_chemical_name_systematic        
9,10-dimethoxy-1-methyl-5-[(4-methylphenyl)sulfonyl]-4-phenyl-1,6-dihydro-2H-2,6-methano-3-benzoxocine
_symmetry_cell_setting           monoclinic
_symmetry_space_group_name_H-M   'P 21/n'
_symmetry_Int_Tables_number      14
_space_group_name_Hall           '-P 2yn'
loop_
_symmetry_equiv_pos_site_id
_symmetry_equiv_pos_as_xyz
1 x,y,z
2 1/2-x,1/2+y,1/2-z
3 -x,-y,-z
4 1/2+x,1/2-y,1/2+z
_cell_length_a                   12.0995(7)
_cell_length_b                   11.0442(6)
_cell_length_c                   18.1654(10)
_cell_angle_alpha                90
_cell_angle_beta                 100.641(2)
_cell_angle_gamma                90
_cell_volume                     2385.69
_exptl_crystal_colour            colorless
_cell_formula_units_Z            4
loop_
_atom_site_label
_atom_site_type_symbol
_atom_site_fract_x
_atom_site_fract_y
_atom_site_fract_z
S1 S 0.73735(3) 0.34772(4) 0.10623(2)
O1 O 0.17688(10) 0.34046(11) 0.08719(7)
O2 O 0.69960(10) 0.46897(10) 0.11821(7)
O3 O 0.85562(9) 0.33047(11) 0.10709(7)
O4 O 0.65273(9) 0.06084(10) 0.21763(6)
O5 O 0.25834(10) 0.13831(11) 0.16546(7)
C1 C 0.14996(16) 0.42236(18) 0.02509(11)
H1 H 0.1494 0.5056 0.0438
H2 H 0.0756 0.4024 -0.0039
H3 H 0.2065 0.4151 -0.0070
C2 C 0.28462(14) 0.34527(15) 0.12730(10)
C3 C 0.35485(14) 0.44455(15) 0.12884(10)
H4 H 0.3274 0.5176 0.1045
C4 C 0.46546(14) 0.43666(15) 0.16610(10)
H5 H 0.5133 0.5050 0.1667
C5 C 0.50803(13) 0.33172(14) 0.20247(9)
C6 C 0.63325(13) 0.31739(15) 0.23210(9)
H6 H 0.6683 0.3983 0.2456
C7 C 0.68973(13) 0.25611(15) 0.17338(9)
C8 C 0.66334(14) 0.29991(14) 0.01792(9)
C9 C 0.71712(15) 0.23828(15) -0.03200(10)
H7 H 0.7945 0.2178 -0.0185
C10 C 0.65636(15) 0.20694(15) -0.10197(10)
H8 H 0.6929 0.1647 -0.1363
C11 C 0.54302(15) 0.23623(15) -0.12273(10)
C12 C 0.47708(16) 0.20717(16) -0.19942(10)
H9 H 0.5270 0.1702 -0.2298
H10 H 0.4450 0.2818 -0.2236
H11 H 0.4163 0.1506 -0.1947
C13 C 0.69598(13) 0.13471(15) 0.17056(9)
C14 C 0.60057(14) 0.11288(16) 0.27660(10)
H12 H 0.6160 0.0573 0.3207
C15 C 0.65314(14) 0.23396(16) 0.30069(9)
H13 H 0.7348 0.2243 0.3197
H14 H 0.6183 0.2688 0.3411
C16 C 0.32404(14) 0.24111(15) 0.16809(10)
C17 C 0.15558(15) 0.1505(2) 0.19265(11)
H15 H 0.1699 0.1925 0.2410
H16 H 0.1244 0.0701 0.1989
H17 H 0.1018 0.1973 0.1567
C18 C 0.43510(14) 0.23395(15) 0.20620(9)
C19 C 0.47306(14) 0.11966(16) 0.25069(10)
H18 H 0.4491 0.0483 0.2177
C20 C 0.41801(16) 0.1092(2) 0.32007(11)
H19 H 0.4394 0.1791 0.3528
H20 H 0.4434 0.0346 0.3472
H21 H 0.3360 0.1072 0.3045
C21 C 0.74524(14) 0.05944(14) 0.11687(9)
C22 C 0.86073(14) 0.05805(15) 0.11851(10)
H22 H 0.9090 0.1072 0.1535
C23 C 0.90547(16) -0.01505(16) 0.06906(10)
H23 H 0.9843 -0.0162 0.0704
C24 C 0.83522(17) -0.08613(16) 0.01782(10)
H24 H 0.8657 -0.1349 -0.0166
C25 C 0.72063(17) -0.08625(16) 0.01667(10)
H25 H 0.6726 -0.1355 -0.0184
C26 C 0.67555(15) -0.01503(15) 0.06640(10)
H26 H 0.5970 -0.0169 0.0661
C27 C 0.54947(14) 0.32826(15) -0.00111(10)
H27 H 0.5127 0.3693 0.0335
C28 C 0.49071(14) 0.29618(15) -0.07076(10)
H28 H 0.4130 0.3153 -0.0837
loop_
_geom_bond_atom_site_label_1
_geom_bond_atom_site_label_2
_geom_bond_site_symmetry_1
_geom_bond_site_symmetry_2
S1 O2 1_555 1_555
O1 C1 1_555 1_555
O3 S1 1_555 1_555
O4 C13 1_555 1_555
O5 C16 1_555 1_555
C1 H1 1_555 1_555
H2 C1 1_555 1_555
H3 C1 1_555 1_555
C2 O1 1_555 1_555
C3 C2 1_555 1_555
H4 C3 1_555 1_555
C4 C3 1_555 1_555
H5 C4 1_555 1_555
C5 C4 1_555 1_555
C6 C5 1_555 1_555
H6 C6 1_555 1_555
C7 S1 1_555 1_555
C8 S1 1_555 1_555
C9 C8 1_555 1_555
H7 C9 1_555 1_555
C10 C9 1_555 1_555
H8 C10 1_555 1_555
C11 C10 1_555 1_555
C12 C11 1_555 1_555
H9 C12 1_555 1_555
H10 C12 1_555 1_555
H11 C12 1_555 1_555
C13 C7 1_555 1_555
C14 O4 1_555 1_555
H12 C14 1_555 1_555
C15 C6 1_555 1_555
H13 C15 1_555 1_555
H14 C15 1_555 1_555
C16 C2 1_555 1_555
C17 O5 1_555 1_555
H15 C17 1_555 1_555
H16 C17 1_555 1_555
H17 C17 1_555 1_555
C18 C5 1_555 1_555
C19 C14 1_555 1_555
H18 C19 1_555 1_555
C20 C19 1_555 1_555
H19 C20 1_555 1_555
H20 C20 1_555 1_555
H21 C20 1_555 1_555
C21 C13 1_555 1_555
C22 C21 1_555 1_555
H22 C22 1_555 1_555
C23 C22 1_555 1_555
H23 C23 1_555 1_555
C24 C23 1_555 1_555
H24 C24 1_555 1_555
C25 C24 1_555 1_555
H25 C25 1_555 1_555
C26 C21 1_555 1_555
H26 C26 1_555 1_555
C27 C8 1_555 1_555
H27 C27 1_555 1_555
C28 C11 1_555 1_555
H28 C28 1_555 1_555
C6 C7 1_555 1_555
C14 C15 1_555 1_555
C16 C18 1_555 1_555
C18 C19 1_555 1_555
C25 C26 1_555 1_555
C27 C28 1_555 1_555

#END
