
#######################################################################
#
#                 Cambridge Crystallographic Data Centre
#                                CCDC 
#
#######################################################################
#
# If this CIF has been generated from an entry in the Cambridge 
# Structural Database, then it will include bibliographic, chemical, 
# crystal, experimental, refinement or atomic coordinate data resulting 
# from the CCDC's data processing and validation procedures.
#
#######################################################################

data_MEMXOU
_chemical_formula_moiety         'C20 H17 Br1 F1 N1 O3'
_chemical_name_systematic        
'methyl 3-(4-bromophenyl)-2-[(3-fluoro-1-methyl-2-oxo-2,3-dihydro-1H-indol-3-yl)methyl]prop-2-enoate'
_symmetry_cell_setting           monoclinic
_symmetry_space_group_name_H-M   'P 21/c'
_symmetry_Int_Tables_number      14
_space_group_name_Hall           '-P 2ybc'
loop_
_symmetry_equiv_pos_site_id
_symmetry_equiv_pos_as_xyz
1 x,y,z
2 -x,1/2+y,1/2-z
3 -x,-y,-z
4 x,1/2-y,1/2+z
_cell_length_a                   13.7712(14)
_cell_length_b                   7.5501(8)
_cell_length_c                   17.8422(19)
_cell_angle_alpha                90
_cell_angle_beta                 103.906(2)
_cell_angle_gamma                90
_cell_volume                     1800.75
_cell_formula_units_Z            4
loop_
_atom_site_label
_atom_site_type_symbol
_atom_site_fract_x
_atom_site_fract_y
_atom_site_fract_z
Br1 Br 0.75563(3) 0.11196(5) 0.28738(2)
C1 C 0.7983(2) 0.3067(5) 0.35504(19)
C2 C 0.7859(3) 0.4766(5) 0.3255(2)
H1 H 0.7573 0.4962 0.2734
C3 C 0.8174(3) 0.6179(5) 0.3757(2)
H2 H 0.8116 0.7328 0.3564
C4 C 0.8576(2) 0.5898(4) 0.4547(2)
C5 C 0.8687(2) 0.4171(5) 0.4819(2)
H3 H 0.8959 0.3963 0.5341
C6 C 0.8396(2) 0.2742(5) 0.43206(19)
H4 H 0.8480 0.1587 0.4506
C7 C 0.8921(2) 0.7430(5) 0.50550(19)
H5 H 0.9369 0.8189 0.4902
C8 C 0.8665(2) 0.7853(4) 0.57083(18)
C9 C 0.7864(2) 0.6948(4) 0.60233(19)
H6 H 0.8123 0.6711 0.6569
H7 H 0.7695 0.5822 0.5763
C10 C 0.6923(2) 0.8084(4) 0.59116(18)
C11 C 0.6222(3) 0.7386(5) 0.6407(2)
C12 C 0.5297(2) 0.7509(4) 0.51572(18)
C13 C 0.4520(3) 0.7426(5) 0.4521(2)
H8 H 0.3894 0.7021 0.4554
C14 C 0.4696(3) 0.7971(5) 0.3821(2)
H9 H 0.4177 0.7907 0.3378
C15 C 0.5597(3) 0.8590(5) 0.3761(2)
H10 H 0.5685 0.8944 0.3283
C16 C 0.6411(3) 0.8703(5) 0.4424(2)
H11 H 0.7031 0.9137 0.4390
C17 C 0.6247(2) 0.8148(5) 0.51167(19)
C18 C 0.9199(2) 0.9386(5) 0.61462(19)
C19 C 0.9794(3) 1.0678(5) 0.7365(2)
H12 H 1.0425 1.0894 0.7242
H13 H 0.9902 1.0393 0.7903
H14 H 0.9384 1.1719 0.7253
C20 C 0.4457(3) 0.6471(6) 0.6197(3)
H15 H 0.4657 0.6231 0.6740
H16 H 0.4192 0.5412 0.5926
H17 H 0.3954 0.7379 0.6101
F1 F 0.72161(13) 0.9798(3) 0.61825(11)
N1 N 0.5311(2) 0.7058(4) 0.59306(16)
O1 O 0.64654(19) 0.7182(4) 0.71050(14)
O2 O 0.95337(19) 1.0625(4) 0.58597(15)
O3 O 0.92961(17) 0.9216(3) 0.69067(13)
loop_
_geom_bond_atom_site_label_1
_geom_bond_atom_site_label_2
_geom_bond_site_symmetry_1
_geom_bond_site_symmetry_2
Br1 C1 1_555 1_555
C1 C2 1_555 1_555
C2 H1 1_555 1_555
C3 C2 1_555 1_555
H2 C3 1_555 1_555
C4 C3 1_555 1_555
C5 C4 1_555 1_555
H3 C5 1_555 1_555
C6 C1 1_555 1_555
H4 C6 1_555 1_555
C7 C4 1_555 1_555
H5 C7 1_555 1_555
C8 C7 1_555 1_555
C9 C8 1_555 1_555
H6 C9 1_555 1_555
H7 C9 1_555 1_555
C10 C9 1_555 1_555
C11 C10 1_555 1_555
C12 C13 1_555 1_555
C13 H8 1_555 1_555
C14 C13 1_555 1_555
H9 C14 1_555 1_555
C15 C14 1_555 1_555
H10 C15 1_555 1_555
C16 C15 1_555 1_555
H11 C16 1_555 1_555
C17 C10 1_555 1_555
C18 C8 1_555 1_555
C19 H12 1_555 1_555
H13 C19 1_555 1_555
H14 C19 1_555 1_555
C20 H15 1_555 1_555
H16 C20 1_555 1_555
H17 C20 1_555 1_555
F1 C10 1_555 1_555
N1 C11 1_555 1_555
O1 C11 1_555 1_555
O2 C18 1_555 1_555
O3 C18 1_555 1_555
C5 C6 1_555 1_555
C12 C17 1_555 1_555
C12 N1 1_555 1_555
C16 C17 1_555 1_555
C19 O3 1_555 1_555
C20 N1 1_555 1_555

#END
