
#######################################################################
#
#                 Cambridge Crystallographic Data Centre
#                                CCDC 
#
#######################################################################
#
# If this CIF has been generated from an entry in the Cambridge 
# Structural Database, then it will include bibliographic, chemical, 
# crystal, experimental, refinement or atomic coordinate data resulting 
# from the CCDC's data processing and validation procedures.
#
#######################################################################

data_MEMYEJ
_chemical_formula_moiety         'C24 H18 F3 N3 O2'
_chemical_name_systematic        
(4Z)-3-Methyl-1-phenyl-4-((phenyl)(4-(trifluoromethoxy)anilino)methylene)-1H-pyrazol-5(4H)-one
_symmetry_cell_setting           triclinic
_symmetry_space_group_name_H-M   'P -1'
_symmetry_Int_Tables_number      2
_space_group_name_Hall           '-P 1'
loop_
_symmetry_equiv_pos_site_id
_symmetry_equiv_pos_as_xyz
1 x,y,z
2 -x,-y,-z
_cell_length_a                   8.0696(9)
_cell_length_b                   11.0945(12)
_cell_length_c                   13.1253(14)
_cell_angle_alpha                106.698(4)
_cell_angle_beta                 99.688(5)
_cell_angle_gamma                108.459(9)
_cell_volume                     1023.24
_exptl_crystal_colour            yellow
_exptl_crystal_description       platelet
_cell_formula_units_Z            2
_exptl_crystal_recrystallization_method ethanol
loop_
_atom_site_label
_atom_site_type_symbol
_atom_site_fract_x
_atom_site_fract_y
_atom_site_fract_z
O1 O 0.75299(16) 0.61087(13) 0.75314(11)
N1 N 1.0507(2) 0.76483(16) 0.85706(12)
N2 N 1.1526(2) 0.90516(16) 0.89128(13)
N3 N 0.5576(2) 0.74522(17) 0.68609(13)
C1 C 0.8722(2) 0.72936(19) 0.79899(15)
C2 C 0.8595(2) 0.85739(19) 0.80125(15)
C3 C 1.0399(2) 0.9593(2) 0.85964(15)
C4 C 1.1115(3) 1.10967(19) 0.88521(17)
H1 H 1.2444 1.1481 0.9159
H2 H 1.0578 1.1523 0.9395
H3 H 1.0794 1.1272 0.8170
C5 C 1.1405(2) 0.67718(19) 0.87229(15)
C6 C 1.3272(2) 0.7184(2) 0.88455(15)
H4 H 1.3951 0.8056 0.8843
C7 C 1.4128(3) 0.6309(2) 0.89710(16)
H5 H 1.5396 0.6581 0.9045
C8 C 1.3152(3) 0.5043(2) 0.89891(16)
H6 H 1.3747 0.4448 0.9072
C9 C 1.1305(3) 0.4651(2) 0.88854(16)
H7 H 1.0634 0.3786 0.8903
C10 C 1.0423(3) 0.5514(2) 0.87561(16)
H8 H 0.9158 0.5244 0.8691
C11 C 0.7013(2) 0.86304(19) 0.74477(15)
C12 C 0.6887(2) 0.99317(19) 0.74178(15)
C13 C 0.6850(2) 1.0887(2) 0.83605(16)
H9 H 0.6937 1.0727 0.9037
C14 C 0.6686(2) 1.2076(2) 0.83042(16)
H10 H 0.6647 1.2727 0.8944
C15 C 0.6576(2) 1.2319(2) 0.73190(17)
H11 H 0.6480 1.3140 0.7288
C16 C 0.6608(2) 1.1359(2) 0.63806(16)
H12 H 0.6526 1.1521 0.5705
C17 C 0.6759(2) 1.0167(2) 0.64273(16)
H13 H 0.6775 0.9509 0.5783
C18 C 0.3868(2) 0.72462(19) 0.61816(15)
C19 C 0.2873(2) 0.8028(2) 0.65143(15)
H14 H 0.3344 0.8746 0.7220
C20 C 0.1192(2) 0.7767(2) 0.58221(16)
H15 H 0.0507 0.8299 0.6048
C21 C 0.0539(2) 0.6720(2) 0.48025(15)
C22 C 0.1491(2) 0.5916(2) 0.44563(16)
H16 H 0.1007 0.5191 0.3755
C23 C 0.3160(2) 0.61886(19) 0.51503(15)
H17 H 0.3834 0.5648 0.4921
O2 O -0.11392(18) 0.63400(15) 0.40217(12)
F1 F -0.26439(18) 0.7258(2) 0.50398(12)
F2 F -0.1170(2) 0.83808(19) 0.41867(18)
F3 F -0.3549(3) 0.6536(3) 0.3282(2)
C24 C -0.2077(3) 0.7120(3) 0.4127(2)
H18 H 0.581(3) 0.671(3) 0.6833(19)
C25? C -0.187(2) 0.7195(14) 0.3866(15)
F4? F -0.195(3) 0.807(2) 0.4780(17)
F5? F -0.081(3) 0.7895(19) 0.3384(17)
F6? F -0.356(2) 0.653(3) 0.318(2)
loop_
_geom_bond_atom_site_label_1
_geom_bond_atom_site_label_2
_geom_bond_site_symmetry_1
_geom_bond_site_symmetry_2
O1 C1 1_555 1_555
N1 N2 1_555 1_555
N2 C3 1_555 1_555
N3 C11 1_555 1_555
C1 N1 1_555 1_555
C2 C1 1_555 1_555
C3 C2 1_555 1_555
C4 C3 1_555 1_555
H1 C4 1_555 1_555
H2 C4 1_555 1_555
H3 C4 1_555 1_555
C5 N1 1_555 1_555
C6 C5 1_555 1_555
H4 C6 1_555 1_555
C7 C6 1_555 1_555
H5 C7 1_555 1_555
C8 C7 1_555 1_555
H6 C8 1_555 1_555
C9 C8 1_555 1_555
H7 C9 1_555 1_555
C10 C5 1_555 1_555
H8 C10 1_555 1_555
C11 C2 1_555 1_555
C12 C11 1_555 1_555
C13 C12 1_555 1_555
H9 C13 1_555 1_555
C14 C13 1_555 1_555
H10 C14 1_555 1_555
C15 C14 1_555 1_555
H11 C15 1_555 1_555
C16 C15 1_555 1_555
H12 C16 1_555 1_555
C17 C12 1_555 1_555
H13 C17 1_555 1_555
C18 N3 1_555 1_555
C19 C18 1_555 1_555
H14 C19 1_555 1_555
C20 C19 1_555 1_555
H15 C20 1_555 1_555
C21 C20 1_555 1_555
C22 C21 1_555 1_555
H16 C22 1_555 1_555
C23 C18 1_555 1_555
H17 C23 1_555 1_555
O2 C21 1_555 1_555
F1 C24 1_555 1_555
F2 C24 1_555 1_555
F3 C24 1_555 1_555
C24 O2 1_555 1_555
H18 N3 1_555 1_555
C9 C10 1_555 1_555
C16 C17 1_555 1_555
C22 C23 1_555 1_555

#END
