
#######################################################################
#
#                 Cambridge Crystallographic Data Centre
#                                CCDC 
#
#######################################################################
#
# If this CIF has been generated from an entry in the Cambridge 
# Structural Database, then it will include bibliographic, chemical, 
# crystal, experimental, refinement or atomic coordinate data resulting 
# from the CCDC's data processing and validation procedures.
#
#######################################################################

data_MENBIT
_chemical_formula_moiety         'C24 H20 N2 O2'
_chemical_name_systematic        
'(1,2-diphenyl-1H-imidazol-5-yl)(phenyl)methyl acetate'
_symmetry_cell_setting           monoclinic
_symmetry_space_group_name_H-M   'P 21/c'
_symmetry_Int_Tables_number      14
_space_group_name_Hall           '-P 2ybc'
loop_
_symmetry_equiv_pos_site_id
_symmetry_equiv_pos_as_xyz
1 x,y,z
2 -x,1/2+y,1/2-z
3 -x,-y,-z
4 x,1/2-y,1/2+z
_cell_length_a                   18.9318(7)
_cell_length_b                   9.1249(3)
_cell_length_c                   11.0844(4)
_cell_angle_alpha                90
_cell_angle_beta                 93.622(3)
_cell_angle_gamma                90
_cell_volume                     1911.01
_exptl_crystal_colour            colorless
_exptl_crystal_description       block
_cell_formula_units_Z            4
loop_
_atom_site_label
_atom_site_type_symbol
_atom_site_fract_x
_atom_site_fract_y
_atom_site_fract_z
O1 O 0.1498(2) 0.4854(4) 0.4172(4)
N1 N 0.2874(2) 0.3884(5) 0.5243(4)
N2 N 0.2948(2) 0.1735(5) 0.6197(4)
O2 O 0.1625(3) 0.6014(6) 0.2402(5)
C1 C 0.2334(3) 0.3014(6) 0.4717(5)
C2 C 0.2394(3) 0.1718(6) 0.5317(5)
H1 H 0.209843 0.091736 0.515814
C3 C 0.2994(3) 0.5426(6) 0.4990(5)
C4 C 0.3840(3) 0.3575(6) 0.6905(5)
C5 C 0.1268(3) 0.2400(6) 0.3386(5)
C6 C 0.3227(3) 0.3069(6) 0.6130(5)
C7 C 0.1830(3) 0.3538(6) 0.3725(5)
H2 H 0.208922 0.378124 0.301381
C8 C 0.3441(3) 0.7293(7) 0.3744(6)
H3 H 0.365622 0.757737 0.304986
C9 C 0.2820(3) 0.6452(6) 0.5836(5)
H4 H 0.261358 0.616232 0.653737
C10 C 0.3904(3) 0.3120(6) 0.8097(5)
H5 H 0.354662 0.255777 0.840440
C11 C 0.0236(3) 0.0332(7) 0.2721(6)
H6 H -0.010902 -0.036034 0.250047
C12 C 0.3289(3) 0.5832(6) 0.3931(5)
H7 H 0.338408 0.513250 0.335336
C13 C 0.3272(3) 0.8331(6) 0.4586(6)
H8 H 0.337237 0.931296 0.445248
C14 C 0.2956(3) 0.7923(7) 0.5626(6)
H9 H 0.283625 0.862944 0.618237
C15 C 0.4368(3) 0.4451(7) 0.6466(6)
H10 H 0.432689 0.478410 0.567117
C16 C 0.0674(3) 0.2254(7) 0.4045(6)
H11 H 0.061944 0.285008 0.471295
C17 C 0.0160(3) 0.1222(7) 0.3710(7)
H12 H -0.023769 0.112978 0.415551
C18 C 0.4494(3) 0.3492(7) 0.8839(6)
H13 H 0.453536 0.316833 0.963582
C19 C 0.1456(3) 0.6032(7) 0.3425(6)
C20 C 0.1341(4) 0.1510(7) 0.2399(6)
H14 H 0.173888 0.160194 0.195339
C21 C 0.5023(3) 0.4347(8) 0.8390(6)
H15 H 0.542170 0.459188 0.888272
C22 C 0.4957(3) 0.4829(8) 0.7217(6)
H16 H 0.530873 0.541383 0.692028
C23 C 0.0825(4) 0.0472(7) 0.2059(6)
H17 H 0.087839 -0.012232 0.138906
C24 C 0.1167(4) 0.7328(7) 0.4071(8)
H18 H 0.065959 0.733176 0.395999
H19 H 0.135075 0.821554 0.374658
H20 H 0.130463 0.726574 0.491750
loop_
_geom_bond_atom_site_label_1
_geom_bond_atom_site_label_2
_geom_bond_site_symmetry_1
_geom_bond_site_symmetry_2
O1 C7 1_555 1_555
N1 C1 1_555 1_555
N2 C2 1_555 1_555
O2 C19 1_555 1_555
C1 C2 1_555 1_555
C2 H1 1_555 1_555
C3 N1 1_555 1_555
C4 C6 1_555 1_555
C5 C7 1_555 1_555
C6 N1 1_555 1_555
C7 C1 1_555 1_555
H2 C7 1_555 1_555
C8 H3 1_555 1_555
C9 C3 1_555 1_555
H4 C9 1_555 1_555
C10 C4 1_555 1_555
H5 C10 1_555 1_555
C11 H6 1_555 1_555
C12 C3 1_555 1_555
H7 C12 1_555 1_555
C13 C8 1_555 1_555
H8 C13 1_555 1_555
C14 C9 1_555 1_555
H9 C14 1_555 1_555
C15 C4 1_555 1_555
H10 C15 1_555 1_555
C16 C5 1_555 1_555
H11 C16 1_555 1_555
C17 C11 1_555 1_555
H12 C17 1_555 1_555
C18 C10 1_555 1_555
H13 C18 1_555 1_555
C19 O1 1_555 1_555
C20 C5 1_555 1_555
H14 C20 1_555 1_555
C21 C18 1_555 1_555
H15 C21 1_555 1_555
C22 C15 1_555 1_555
H16 C22 1_555 1_555
C23 C11 1_555 1_555
H17 C23 1_555 1_555
C24 C19 1_555 1_555
H18 C24 1_555 1_555
H19 C24 1_555 1_555
H20 C24 1_555 1_555
N2 C6 1_555 1_555
C8 C12 1_555 1_555
C13 C14 1_555 1_555
C16 C17 1_555 1_555
C20 C23 1_555 1_555
C21 C22 1_555 1_555

#END
