
#######################################################################
#
#                 Cambridge Crystallographic Data Centre
#                                CCDC 
#
#######################################################################
#
# If this CIF has been generated from an entry in the Cambridge 
# Structural Database, then it will include bibliographic, chemical, 
# crystal, experimental, refinement or atomic coordinate data resulting 
# from the CCDC's data processing and validation procedures.
#
#######################################################################

data_MENDEP
_chemical_formula_moiety         'C21 H15 F2 N1 O3'
_chemical_name_systematic        
"Methyl 2-amino-4-(2',6'-difluorophenyl)-4H-benzo(f)chromene-3-carboxylate"
_symmetry_cell_setting           monoclinic
_symmetry_space_group_name_H-M   'C c'
_symmetry_Int_Tables_number      9
_space_group_name_Hall           'C -2yc'
loop_
_symmetry_equiv_pos_site_id
_symmetry_equiv_pos_as_xyz
1 x,y,z
2 x,-y,1/2+z
3 1/2+x,1/2+y,z
4 1/2+x,1/2-y,1/2+z
_cell_length_a                   13.930(3)
_cell_length_b                   13.499(3)
_cell_length_c                   8.9040(18)
_cell_angle_alpha                90
_cell_angle_beta                 96.95(3)
_cell_angle_gamma                90
_cell_volume                     1662.02
_exptl_crystal_colour            colorless
_exptl_crystal_description       block
_chemical_melting_point          '475-477 K'
_cell_formula_units_Z            4
_exptl_crystal_recrystallization_method ethanol
loop_
_atom_site_label
_atom_site_type_symbol
_atom_site_fract_x
_atom_site_fract_y
_atom_site_fract_z
F1 F 0.5742(5) 0.0268(4) 0.9827(7)
F2 F 0.5380(6) 0.2850(5) 0.6409(9)
O1 O 0.7015(3) 0.3877(3) 0.7505(4)
O2 O 0.6164(3) 0.2127(3) 1.1697(4)
O3 O 0.6259(3) 0.3773(3) 1.1896(4)
N1 N 0.6570(3) 0.4784(3) 0.9373(5)
H1 H 0.6380 0.4885 1.0244
H2 H 0.6677 0.5277 0.8806
C1 C 0.7319(3) 0.2119(3) 0.7614(5)
C2 C 0.7809(3) 0.1292(4) 0.7035(5)
C3 C 0.7648(4) 0.0301(4) 0.7459(6)
H3 H 0.7195 0.0171 0.8118
C4 C 0.8142(4) -0.0464(4) 0.6923(6)
H4 H 0.8012 -0.1111 0.7195
C5 C 0.8853(4) -0.0277(5) 0.5956(7)
H5 H 0.9211 -0.0801 0.5635
C6 C 0.9020(4) 0.0655(5) 0.5490(7)
H6 H 0.9482 0.0766 0.4837
C7 C 0.8492(4) 0.1462(4) 0.5994(6)
C8 C 0.8620(4) 0.2445(5) 0.5467(6)
H7 H 0.9057 0.2559 0.4774
C9 C 0.8120(4) 0.3210(4) 0.5954(6)
H8 H 0.8190 0.3845 0.5577
C10 C 0.7482(4) 0.3029(3) 0.7057(5)
C11 C 0.6644(3) 0.2008(3) 0.8810(5)
H9 H 0.6936 0.1529 0.9557
C12 C 0.5653(3) 0.1611(3) 0.8180(5)
C13 C 0.5085(4) 0.2082(4) 0.7003(6)
C14 C 0.4170(4) 0.1752(5) 0.6455(7)
H10 H 0.3805 0.2101 0.5685
C15 C 0.3798(4) 0.0926(5) 0.7029(8)
H11 H 0.3189 0.0696 0.6639
C16 C 0.4343(4) 0.0423(4) 0.8215(8)
H12 H 0.4098 -0.0140 0.8635
C17 C 0.5250(4) 0.0777(4) 0.8751(6)
C18 C 0.6570(3) 0.2998(3) 0.9625(5)
C19 C 0.6699(3) 0.3864(3) 0.8903(5)
C20 C 0.6315(3) 0.3035(4) 1.1156(5)
C21 C 0.5897(6) 0.2087(5) 1.3230(7)
H13 H 0.6389 0.2406 1.3912
H14 H 0.5837 0.1409 1.3526
H15 H 0.5292 0.2421 1.3260
loop_
_geom_bond_atom_site_label_1
_geom_bond_atom_site_label_2
_geom_bond_site_symmetry_1
_geom_bond_site_symmetry_2
F1 C17 1_555 1_555
F2 C13 1_555 1_555
O1 C10 1_555 1_555
O2 C20 1_555 1_555
O3 C20 1_555 1_555
N1 H1 1_555 1_555
H2 N1 1_555 1_555
C1 C2 1_555 1_555
C2 C3 1_555 1_555
C3 H3 1_555 1_555
C4 C3 1_555 1_555
H4 C4 1_555 1_555
C5 C4 1_555 1_555
H5 C5 1_555 1_555
C6 C5 1_555 1_555
H6 C6 1_555 1_555
C7 C2 1_555 1_555
C8 C7 1_555 1_555
H7 C8 1_555 1_555
C9 C8 1_555 1_555
H8 C9 1_555 1_555
C10 C1 1_555 1_555
C11 C1 1_555 1_555
H9 C11 1_555 1_555
C12 C11 1_555 1_555
C13 C12 1_555 1_555
C14 C13 1_555 1_555
H10 C14 1_555 1_555
C15 C14 1_555 1_555
H11 C15 1_555 1_555
C16 C15 1_555 1_555
H12 C16 1_555 1_555
C17 C12 1_555 1_555
C18 C11 1_555 1_555
C19 O1 1_555 1_555
C20 C18 1_555 1_555
C21 O2 1_555 1_555
H13 C21 1_555 1_555
H14 C21 1_555 1_555
H15 C21 1_555 1_555
N1 C19 1_555 1_555
C6 C7 1_555 1_555
C9 C10 1_555 1_555
C16 C17 1_555 1_555
C18 C19 1_555 1_555

#END
