
#######################################################################
#
#                 Cambridge Crystallographic Data Centre
#                                CCDC 
#
#######################################################################
#
# If this CIF has been generated from an entry in the Cambridge 
# Structural Database, then it will include bibliographic, chemical, 
# crystal, experimental, refinement or atomic coordinate data resulting 
# from the CCDC's data processing and validation procedures.
#
#######################################################################

data_MENDIT
_chemical_formula_moiety         'C15 H12 Cl1 N3 O1'
_chemical_name_systematic        
3-(1H-Benzotriazol-1-yl)-1-(4-chlorophenyl)propan-1-one
_symmetry_cell_setting           monoclinic
_symmetry_space_group_name_H-M   'C 2/c'
_symmetry_Int_Tables_number      15
_space_group_name_Hall           '-C 2yn'
loop_
_symmetry_equiv_pos_site_id
_symmetry_equiv_pos_as_xyz
1 x,y,z
2 1/2+x,1/2+y,z
3 -x,y,1/2-z
4 1/2-x,1/2+y,1/2-z
5 -x,-y,-z
6 1/2-x,1/2-y,-z
7 x,-y,1/2+z
8 1/2+x,1/2-y,1/2+z
_cell_length_a                   22.183(7)
_cell_length_b                   10.444(3)
_cell_length_c                   12.326(4)
_cell_angle_alpha                90
_cell_angle_beta                 106.705(5)
_cell_angle_gamma                90
_cell_volume                     2735.16
_exptl_crystal_colour            colorless
_exptl_crystal_description       plate
_cell_formula_units_Z            8
_exptl_crystal_recrystallization_method dichloromethane/cyclohexane
loop_
_atom_site_label
_atom_site_type_symbol
_atom_site_fract_x
_atom_site_fract_y
_atom_site_fract_z
Cl1 Cl 0.39704(3) 0.57924(7) 0.76194(5)
O1 O 0.23967(8) 0.29607(15) 0.28099(14)
N1 N 0.11542(8) 0.51589(16) 0.04037(13)
N2 N 0.12757(9) 0.5246(2) -0.06127(15)
N3 N 0.08987(9) 0.6092(2) -0.12391(15)
C1 C 0.30917(10) 0.3668(2) 0.49752(19)
H1 H 0.3050 0.2801 0.4797
C2 C 0.34505(10) 0.4039(2) 0.60331(19)
H2 H 0.3647 0.3431 0.6570
C3 C 0.35145(9) 0.5320(2) 0.62852(17)
C4 C 0.32295(10) 0.6224(2) 0.55013(18)
H3 H 0.3281 0.7090 0.5679
C5 C 0.28659(9) 0.58393(19) 0.44449(18)
H4 H 0.2669 0.6451 0.3912
C6 C 0.27910(9) 0.45572(18) 0.41702(16)
C7 C 0.23949(9) 0.4089(2) 0.30502(17)
C8 C 0.19881(9) 0.50084(18) 0.22248(16)
H5 H 0.2251 0.5552 0.1912
H6 H 0.1764 0.5551 0.2617
C9 C 0.15190(10) 0.4309(2) 0.12722(18)
H7 H 0.1743 0.3706 0.0931
H8 H 0.1235 0.3823 0.1584
C10 C 0.06817(9) 0.59735(18) 0.04265(14)
C11 C 0.03666(9) 0.6226(2) 0.12346(15)
H9 H 0.0465 0.5801 0.1926
C12 C -0.00922(10) 0.7131(2) 0.09512(17)
H10 H -0.0316 0.7324 0.1463
C13 C -0.02406(10) 0.7786(2) -0.00867(18)
H11 H -0.0549 0.8417 -0.0234
C14 C 0.00579(10) 0.7514(2) -0.08815(17)
H12 H -0.0047 0.7938 -0.1574
C15 C 0.05253(9) 0.6580(2) -0.06210(15)
loop_
_geom_bond_atom_site_label_1
_geom_bond_atom_site_label_2
_geom_bond_site_symmetry_1
_geom_bond_site_symmetry_2
Cl1 C3 1_555 1_555
O1 C7 1_555 1_555
N1 N2 1_555 1_555
N2 N3 1_555 1_555
N3 C15 1_555 1_555
C1 H1 1_555 1_555
C2 C1 1_555 1_555
H2 C2 1_555 1_555
C3 C2 1_555 1_555
C4 C3 1_555 1_555
H3 C4 1_555 1_555
C5 C4 1_555 1_555
H4 C5 1_555 1_555
C6 C1 1_555 1_555
C7 C6 1_555 1_555
C8 C7 1_555 1_555
H5 C8 1_555 1_555
H6 C8 1_555 1_555
C9 N1 1_555 1_555
H7 C9 1_555 1_555
H8 C9 1_555 1_555
C10 N1 1_555 1_555
C11 C10 1_555 1_555
H9 C11 1_555 1_555
C12 C11 1_555 1_555
H10 C12 1_555 1_555
C13 C12 1_555 1_555
H11 C13 1_555 1_555
C14 C13 1_555 1_555
H12 C14 1_555 1_555
C15 C10 1_555 1_555
C5 C6 1_555 1_555
C8 C9 1_555 1_555
C14 C15 1_555 1_555

#END
