
#######################################################################
#
#                 Cambridge Crystallographic Data Centre
#                                CCDC 
#
#######################################################################
#
# If this CIF has been generated from an entry in the Cambridge 
# Structural Database, then it will include bibliographic, chemical, 
# crystal, experimental, refinement or atomic coordinate data resulting 
# from the CCDC's data processing and validation procedures.
#
#######################################################################

data_MENGIY
_chemical_formula_moiety         'C27 H21 N3 O1'
_chemical_name_systematic        
(11-methyl-1-phenyl-6,11-dihydro-5H-imidazo[1',5':1,2]pyrido[3,4-b]indol-3-yl)(phenyl)methanone
_symmetry_cell_setting           monoclinic
_symmetry_space_group_name_H-M   'P 21/c'
_symmetry_Int_Tables_number      14
_space_group_name_Hall           '-P 2ybc'
loop_
_symmetry_equiv_pos_site_id
_symmetry_equiv_pos_as_xyz
1 x,y,z
2 -x,1/2+y,1/2-z
3 -x,-y,-z
4 x,1/2-y,1/2+z
_cell_length_a                   11.307(3)
_cell_length_b                   18.799(5)
_cell_length_c                   10.720(3)
_cell_angle_alpha                90
_cell_angle_beta                 115.779(7)
_cell_angle_gamma                90
_cell_volume                     2051.87
_exptl_crystal_colour            colorless
_exptl_crystal_description       block
_cell_formula_units_Z            4
loop_
_atom_site_label
_atom_site_type_symbol
_atom_site_fract_x
_atom_site_fract_y
_atom_site_fract_z
C1 C 0.0890(2) 0.52669(15) 0.2261(3)
H1 H 0.1290 0.5698 0.2640
C2 C -0.0458(3) 0.52106(18) 0.1679(3)
H2 H -0.0965 0.5597 0.1695
C3 C -0.1051(3) 0.45836(19) 0.1076(3)
H3 H -0.1962 0.4550 0.0659
C4 C -0.0309(3) 0.40049(17) 0.1082(3)
H4 H -0.0721 0.3583 0.0664
C5 C 0.1042(2) 0.40432(15) 0.1703(3)
H5 H 0.1541 0.3645 0.1732
C6 C 0.1658(2) 0.46827(14) 0.2287(2)
C7 C 0.3099(2) 0.48013(14) 0.2847(3)
C8 C 0.4010(2) 0.42085(13) 0.3489(2)
C9 C 0.4790(2) 0.31899(13) 0.4396(2)
C10 C 0.5841(2) 0.35883(13) 0.4445(2)
C11 C 0.7231(2) 0.34970(13) 0.4892(2)
C12 C 0.7886(2) 0.38921(13) 0.4328(2)
C13 C 0.7179(2) 0.44474(14) 0.3271(2)
H6 H 0.6776 0.4234 0.2357
H7 H 0.7795 0.4807 0.3274
C14 C 0.6132(2) 0.47870(14) 0.3598(3)
H8 H 0.6543 0.5082 0.4418
H9 H 0.5575 0.5088 0.2833
C15 C 0.9223(2) 0.36722(13) 0.4982(2)
C16 C 0.9324(2) 0.31545(13) 0.5976(2)
C17 C 1.0515(2) 0.28487(14) 0.6846(3)
H10 H 1.0576 0.2517 0.7515
C18 C 1.1603(2) 0.30568(16) 0.6678(3)
H11 H 1.2415 0.2859 0.7243
C19 C 1.1515(2) 0.35584(15) 0.5679(3)
H12 H 1.2268 0.3680 0.5581
C20 C 1.0345(2) 0.38742(14) 0.4841(3)
H13 H 1.0300 0.4215 0.4193
C21 C 0.7859(2) 0.26891(16) 0.6994(3)
H14 H 0.7925 0.2184 0.6914
H15 H 0.6997 0.2807 0.6897
H16 H 0.8503 0.2843 0.7885
C22 C 0.4714(2) 0.24281(13) 0.4657(2)
C23 C 0.5356(2) 0.19294(14) 0.4221(3)
H17 H 0.5918 0.2083 0.3851
C24 C 0.5180(3) 0.12143(15) 0.4326(3)
H18 H 0.5630 0.0889 0.4038
C25 C 0.4342(3) 0.09768(16) 0.4853(3)
H19 H 0.4200 0.0492 0.4900
C26 C 0.3716(3) 0.14639(16) 0.5310(3)
H20 H 0.3161 0.1306 0.5686
C27 C 0.3896(2) 0.21809(14) 0.5221(3)
H21 H 0.3466 0.2503 0.5542
N1 N 0.36704(18) 0.35867(11) 0.3823(2)
N2 N 0.53243(17) 0.42306(10) 0.38368(19)
N3 N 0.80890(18) 0.30429(10) 0.59117(19)
O1 O 0.35179(17) 0.53937(10) 0.2787(2)
loop_
_geom_bond_atom_site_label_1
_geom_bond_atom_site_label_2
_geom_bond_site_symmetry_1
_geom_bond_site_symmetry_2
C1 H1 1_555 1_555
C2 C1 1_555 1_555
H2 C2 1_555 1_555
C3 C2 1_555 1_555
H3 C3 1_555 1_555
C4 C3 1_555 1_555
H4 C4 1_555 1_555
C5 C4 1_555 1_555
H5 C5 1_555 1_555
C6 C1 1_555 1_555
C7 C6 1_555 1_555
C8 C7 1_555 1_555
C9 C10 1_555 1_555
C10 C11 1_555 1_555
C11 C12 1_555 1_555
C12 C13 1_555 1_555
C13 H6 1_555 1_555
H7 C13 1_555 1_555
C14 C13 1_555 1_555
H8 C14 1_555 1_555
H9 C14 1_555 1_555
C15 C12 1_555 1_555
C16 C15 1_555 1_555
C17 C16 1_555 1_555
H10 C17 1_555 1_555
C18 C17 1_555 1_555
H11 C18 1_555 1_555
C19 C18 1_555 1_555
H12 C19 1_555 1_555
C20 C15 1_555 1_555
H13 C20 1_555 1_555
C21 H14 1_555 1_555
H15 C21 1_555 1_555
H16 C21 1_555 1_555
C22 C9 1_555 1_555
C23 C22 1_555 1_555
H17 C23 1_555 1_555
C24 C23 1_555 1_555
H18 C24 1_555 1_555
C25 C24 1_555 1_555
H19 C25 1_555 1_555
C26 C25 1_555 1_555
H20 C26 1_555 1_555
C27 C22 1_555 1_555
H21 C27 1_555 1_555
N1 C8 1_555 1_555
N2 C8 1_555 1_555
N3 C11 1_555 1_555
O1 C7 1_555 1_555
C5 C6 1_555 1_555
C9 N1 1_555 1_555
C10 N2 1_555 1_555
C14 N2 1_555 1_555
C16 N3 1_555 1_555
C19 C20 1_555 1_555
C21 N3 1_555 1_555
C26 C27 1_555 1_555

#END
