
#######################################################################
#
#                 Cambridge Crystallographic Data Centre
#                                CCDC 
#
#######################################################################
#
# If this CIF has been generated from an entry in the Cambridge 
# Structural Database, then it will include bibliographic, chemical, 
# crystal, experimental, refinement or atomic coordinate data resulting 
# from the CCDC's data processing and validation procedures.
#
#######################################################################

data_MENGOE
_chemical_formula_moiety         'C25 H21 N1 O1 S1'
_chemical_name_systematic        
6-[(4-methylphenyl)sulfanyl]-7-phenyl-2,3-dihydro-1H,5H-pyrido[3,2,1-ij]quinolin-5-one
_symmetry_cell_setting           orthorhombic
_symmetry_space_group_name_H-M   'P n a 21'
_symmetry_Int_Tables_number      33
_space_group_name_Hall           'P 2c -2n'
loop_
_symmetry_equiv_pos_site_id
_symmetry_equiv_pos_as_xyz
1 x,y,z
2 -x,-y,1/2+z
3 1/2+x,1/2-y,z
4 1/2-x,1/2+y,1/2+z
_cell_length_a                   13.4732(5)
_cell_length_b                   14.8888(6)
_cell_length_c                   9.6210(4)
_cell_angle_alpha                90
_cell_angle_beta                 90
_cell_angle_gamma                90
_cell_volume                     1929.97
_exptl_crystal_colour            colorless
_exptl_crystal_description       block
_cell_formula_units_Z            4
loop_
_atom_site_label
_atom_site_type_symbol
_atom_site_fract_x
_atom_site_fract_y
_atom_site_fract_z
S1 S 0.35773(5) 0.38300(5) 0.67523(9)
O1 O 0.18692(16) 0.51254(16) 0.6831(3)
N1 N 0.16000(16) 0.52421(15) 0.4510(3)
C1 C 0.1934(2) 0.51593(18) 0.3137(3)
C2 C 0.2790(2) 0.46398(18) 0.2871(3)
C3 C 0.2116(2) 0.49164(19) 0.5652(3)
C4 C 0.2945(2) 0.43086(19) 0.5324(3)
C5 C 0.0705(2) 0.5781(2) 0.4818(4)
H1 H 0.0901 0.6391 0.5036
H2 H 0.0374 0.5533 0.5626
C6 C 0.2672(2) 0.31157(19) 0.7505(3)
C7 C 0.4103(2) 0.35380(18) 0.3688(3)
C8 C 0.2766(2) 0.2926(2) 0.8913(3)
H3 H 0.3274 0.3189 0.9426
C9 C 0.3140(2) 0.4587(2) 0.1500(3)
H4 H 0.3711 0.4259 0.1310
C10 C 0.1431(2) 0.55920(18) 0.2042(3)
C11 C 0.1336(2) 0.19521(19) 0.8826(4)
C12 C 0.3262(2) 0.41744(18) 0.4007(3)
C13 C 0.3891(3) 0.2662(2) 0.3336(4)
H5 H 0.3234 0.2473 0.3287
C14 C 0.2106(2) 0.2347(2) 0.9555(3)
H6 H 0.2181 0.2221 1.0496
C15 C 0.1920(2) 0.27117(19) 0.6763(4)
H7 H 0.1852 0.2824 0.5817
C16 C -0.0003(2) 0.5792(2) 0.3613(4)
H8 H -0.0563 0.6176 0.3830
H9 H -0.0253 0.5190 0.3450
C17 C 0.1264(2) 0.2138(2) 0.7427(3)
H10 H 0.0760 0.1870 0.6913
C18 C 0.5078(2) 0.3806(2) 0.3738(4)
H11 H 0.5231 0.4395 0.3980
C19 C 0.4652(3) 0.2060(2) 0.3054(4)
H12 H 0.4502 0.1468 0.2827
C20 C 0.1806(2) 0.5504(2) 0.0721(3)
H13 H 0.1480 0.5787 -0.0009
C21 C 0.0509(2) 0.6132(2) 0.2323(4)
H14 H 0.0062 0.6086 0.1536
H15 H 0.0683 0.6759 0.2444
C22 C 0.5833(3) 0.3209(3) 0.3433(5)
H16 H 0.6489 0.3403 0.3449
C23 C 0.5620(3) 0.2335(3) 0.3109(4)
H17 H 0.6130 0.1930 0.2927
C24 C 0.2652(3) 0.5010(2) 0.0437(3)
H18 H 0.2887 0.4966 -0.0469
C25 C 0.0589(3) 0.1370(2) 0.9566(5)
H19 H 0.0111 0.1744 1.0027
H20 H 0.0923 0.1003 1.0240
H21 H 0.0257 0.0993 0.8903
loop_
_geom_bond_atom_site_label_1
_geom_bond_atom_site_label_2
_geom_bond_site_symmetry_1
_geom_bond_site_symmetry_2
S1 C4 1_555 1_555
O1 C3 1_555 1_555
N1 C1 1_555 1_555
C1 C2 1_555 1_555
C2 C9 1_555 1_555
C3 N1 1_555 1_555
C4 C3 1_555 1_555
C5 N1 1_555 1_555
H1 C5 1_555 1_555
H2 C5 1_555 1_555
C6 S1 1_555 1_555
C7 C12 1_555 1_555
C8 C6 1_555 1_555
H3 C8 1_555 1_555
C9 H4 1_555 1_555
C10 C1 1_555 1_555
C11 C14 1_555 1_555
C12 C2 1_555 1_555
C13 C7 1_555 1_555
H5 C13 1_555 1_555
C14 C8 1_555 1_555
H6 C14 1_555 1_555
C15 C6 1_555 1_555
H7 C15 1_555 1_555
C16 C5 1_555 1_555
H8 C16 1_555 1_555
H9 C16 1_555 1_555
C17 C11 1_555 1_555
H10 C17 1_555 1_555
C18 C7 1_555 1_555
H11 C18 1_555 1_555
C19 C13 1_555 1_555
H12 C19 1_555 1_555
C20 C10 1_555 1_555
H13 C20 1_555 1_555
C21 C10 1_555 1_555
H14 C21 1_555 1_555
H15 C21 1_555 1_555
C22 C18 1_555 1_555
H16 C22 1_555 1_555
C23 C19 1_555 1_555
H17 C23 1_555 1_555
C24 C9 1_555 1_555
H18 C24 1_555 1_555
C25 C11 1_555 1_555
H19 C25 1_555 1_555
H20 C25 1_555 1_555
H21 C25 1_555 1_555
C4 C12 1_555 1_555
C15 C17 1_555 1_555
C16 C21 1_555 1_555
C20 C24 1_555 1_555
C22 C23 1_555 1_555

#END
