
#######################################################################
#
#                 Cambridge Crystallographic Data Centre
#                                CCDC 
#
#######################################################################
#
# If this CIF has been generated from an entry in the Cambridge 
# Structural Database, then it will include bibliographic, chemical, 
# crystal, experimental, refinement or atomic coordinate data resulting 
# from the CCDC's data processing and validation procedures.
#
#######################################################################

data_MENHAR
_chemical_formula_moiety         'C15 H13 Cl2 N3 O5'
_chemical_name_systematic        
5-(2,4-dichlorophenyl)-1,3-dimethyl-6-nitro-1,5,6,7-tetrahydro-2H-pyrano[2,3-d]pyrimidine-2,4(3H)-dione
_symmetry_cell_setting           monoclinic
_symmetry_space_group_name_H-M   'C c'
_symmetry_Int_Tables_number      9
_space_group_name_Hall           'C -2yc'
loop_
_symmetry_equiv_pos_site_id
_symmetry_equiv_pos_as_xyz
1 x,y,z
2 x,-y,1/2+z
3 1/2+x,1/2+y,z
4 1/2+x,1/2-y,1/2+z
_cell_length_a                   10.132(2)
_cell_length_b                   20.982(5)
_cell_length_c                   7.485(2)
_cell_angle_alpha                90
_cell_angle_beta                 91.647(7)
_cell_angle_gamma                90
_cell_volume                     1590.58
_exptl_crystal_colour            colorless
_exptl_crystal_description       Prism
_cell_formula_units_Z            4
loop_
_atom_site_label
_atom_site_type_symbol
_atom_site_fract_x
_atom_site_fract_y
_atom_site_fract_z
Cl1 Cl 0.29865(4) 0.15224(2) 1.11690(5)
Cl2 Cl 0.14954(5) 0.04688(2) 0.48964(7)
O1 O 0.39884(12) 0.31968(6) 0.72927(17)
O2 O 0.20516(13) 0.51216(6) 0.61316(19)
O3 O -0.01547(11) 0.37389(6) 0.96300(16)
O4 O 0.06694(15) 0.35015(7) 1.3551(2)
O5 O 0.26223(15) 0.31431(9) 1.3139(2)
N1 N 0.30010(14) 0.41494(7) 0.66302(19)
N2 N 0.09302(13) 0.43991(6) 0.77865(19)
N3 N 0.14598(15) 0.31980(7) 1.27049(19)
C1 C 0.22564(16) 0.16096(8) 0.9049(2)
C2 C 0.21636(18) 0.10713(8) 0.7972(3)
H1 H 0.2497 0.0672 0.8377
C3 C 0.15721(17) 0.11331(8) 0.6295(2)
C4 C 0.10508(17) 0.17034(8) 0.5684(2)
H2 H 0.0618 0.1732 0.4544
C5 C 0.11784(17) 0.22368(8) 0.6795(2)
H3 H 0.0832 0.2634 0.6388
C6 C 0.17950(15) 0.22045(7) 0.8472(2)
C7 C 0.19982(15) 0.27970(7) 0.9634(2)
H4 H 0.2887 0.2766 1.0244
C8 C 0.19479(15) 0.34084(7) 0.8586(2)
C9 C 0.30444(16) 0.35603(8) 0.7482(2)
C10 C 0.20091(17) 0.45923(8) 0.6806(2)
C11 C 0.09357(15) 0.38280(7) 0.8668(2)
C12 C 0.40983(19) 0.43188(10) 0.5481(3)
H5 H 0.3880 0.4710 0.4823
H6 H 0.4248 0.3972 0.4633
H7 H 0.4900 0.4387 0.6221
C13 C -0.01409(18) 0.48641(8) 0.8003(2)
H8 H -0.0954 0.4701 0.7429
H9 H 0.0101 0.5269 0.7445
H10 H -0.0283 0.4933 0.9278
C14 C -0.03248(17) 0.31034(7) 1.0351(2)
H11 H -0.0693 0.2822 0.9400
H12 H -0.0968 0.3121 1.1321
C15 C 0.09534(16) 0.28223(7) 1.1075(2)
H13 H 0.0773 0.2376 1.1466
loop_
_geom_bond_atom_site_label_1
_geom_bond_atom_site_label_2
_geom_bond_site_symmetry_1
_geom_bond_site_symmetry_2
Cl1 C1 1_555 1_555
Cl2 C3 1_555 1_555
O1 C9 1_555 1_555
O2 C10 1_555 1_555
O3 C11 1_555 1_555
O4 N3 1_555 1_555
O5 N3 1_555 1_555
N1 C9 1_555 1_555
N2 C10 1_555 1_555
N3 C15 1_555 1_555
C1 C2 1_555 1_555
C2 H1 1_555 1_555
C3 C2 1_555 1_555
C4 C3 1_555 1_555
H2 C4 1_555 1_555
C5 C4 1_555 1_555
H3 C5 1_555 1_555
C6 C1 1_555 1_555
C7 C6 1_555 1_555
H4 C7 1_555 1_555
C8 C7 1_555 1_555
C9 C8 1_555 1_555
C10 N1 1_555 1_555
C11 N2 1_555 1_555
C12 N1 1_555 1_555
H5 C12 1_555 1_555
H6 C12 1_555 1_555
H7 C12 1_555 1_555
C13 N2 1_555 1_555
H8 C13 1_555 1_555
H9 C13 1_555 1_555
H10 C13 1_555 1_555
C14 O3 1_555 1_555
H11 C14 1_555 1_555
H12 C14 1_555 1_555
C15 C7 1_555 1_555
H13 C15 1_555 1_555
C5 C6 1_555 1_555
C8 C11 1_555 1_555
C14 C15 1_555 1_555

#END
