
#######################################################################
#
#                 Cambridge Crystallographic Data Centre
#                                CCDC 
#
#######################################################################
#
# If this CIF has been generated from an entry in the Cambridge 
# Structural Database, then it will include bibliographic, chemical, 
# crystal, experimental, refinement or atomic coordinate data resulting 
# from the CCDC's data processing and validation procedures.
#
#######################################################################

data_MENJEV
_chemical_formula_moiety         'C30 H26 N4 2+,2(F6 P1 1-),3(C2 H3 N1)'
_chemical_name_systematic        
'3(9,10)-Anthracena-7(1,3)-benzena-1,5(1,3)-diimidazolacyclooctaphane-1,5-diium hexafluorophosphate acetonitrile solvate'
_symmetry_cell_setting           monoclinic
_symmetry_space_group_name_H-M   'P 21/c'
_symmetry_Int_Tables_number      14
_space_group_name_Hall           '-P 2ybc'
loop_
_symmetry_equiv_pos_site_id
_symmetry_equiv_pos_as_xyz
1 x,y,z
2 -x,1/2+y,1/2-z
3 -x,-y,-z
4 x,1/2-y,1/2+z
_cell_length_a                   8.643(2)
_cell_length_b                   22.391(6)
_cell_length_c                   20.983(5)
_cell_angle_alpha                90
_cell_angle_beta                 98.506(5)
_cell_angle_gamma                90
_cell_volume                     4016.08
_exptl_crystal_colour            yellow
_exptl_crystal_description       block
_cell_formula_units_Z            4
_exptl_crystal_recrystallization_method 'diethyl ether/acetonitrile'
loop_
_atom_site_label
_atom_site_type_symbol
_atom_site_fract_x
_atom_site_fract_y
_atom_site_fract_z
N1 N 0.31769(5) 0.20021(2) 0.76432(2)
N2 N 0.06948(5) 0.20296(2) 0.76325(2)
N3 N 0.04000(5) 0.47948(2) 0.75493(2)
N4 N 0.28406(5) 0.489922(19) 0.75031(2)
C1 C 0.18940(6) 0.23054(3) 0.74398(3)
H1 H 0.1841 0.2656 0.7200
C2 C 0.27765(8) 0.15102(3) 0.79687(3)
H2 H 0.3455 0.1217 0.8158
C3 C 0.12416(8) 0.15290(3) 0.79641(3)
H3 H 0.0646 0.1252 0.8152
C4 C -0.09118(7) 0.22742(3) 0.75532(3)
H4 H -0.1600 0.1992 0.7722
H5 H -0.1289 0.2332 0.7099
C5 C -0.09480(6) 0.28581(3) 0.79008(3)
C6 C -0.07709(9) 0.28737(3) 0.85588(3)
H6 H -0.0683 0.2519 0.8793
C7 C -0.07226(11) 0.34103(3) 0.88741(4)
H7 H -0.0594 0.3417 0.9322
C8 C -0.08601(9) 0.39382(3) 0.85398(3)
H8 H -0.0828 0.4299 0.8761
C9 C -0.10452(7) 0.39349(3) 0.78793(3)
C10 C -0.10949(6) 0.33929(3) 0.75669(3)
H9 H -0.1231 0.3386 0.7119
C11 C -0.11519(7) 0.45062(3) 0.74997(4)
H10 H -0.1542 0.4422 0.7051
H11 H -0.1882 0.4775 0.7662
C12 C 0.08681(7) 0.53064(3) 0.78782(3)
H12 H 0.0245 0.5561 0.8082
C13 C 0.23964(7) 0.53701(3) 0.78499(3)
H13 H 0.3038 0.5678 0.8032
C14 C 0.16111(6) 0.45565(3) 0.73253(3)
H14 H 0.1599 0.4208 0.7084
C15 C 0.44488(6) 0.47660(2) 0.73930(3)
H15 H 0.5187 0.4973 0.7711
H16 H 0.4599 0.4907 0.6969
C16 C 0.47477(6) 0.41040(2) 0.74405(3)
C17 C 0.46887(6) 0.38192(3) 0.80294(3)
C18 C 0.45183(7) 0.41443(3) 0.85971(3)
H17 H 0.4488 0.4559 0.8584
C19 C 0.43994(9) 0.38580(3) 0.91545(3)
H18 H 0.4264 0.4079 0.9517
C20 C 0.44760(9) 0.32369(3) 0.91951(3)
H19 H 0.4402 0.3048 0.9584
C21 C 0.46566(8) 0.29078(3) 0.86726(3)
H20 H 0.4717 0.2494 0.8709
C22 C 0.47565(6) 0.31802(3) 0.80672(3)
C23 C 0.48902(6) 0.28476(2) 0.75121(3)
C24 C 0.50832(6) 0.31296(2) 0.69371(3)
C25 C 0.53633(7) 0.28147(3) 0.63734(3)
H21 H 0.5385 0.2399 0.6381
C26 C 0.55955(9) 0.30999(3) 0.58355(3)
H22 H 0.5783 0.2881 0.5478
C27 C 0.55590(9) 0.37184(3) 0.58048(3)
H23 H 0.5754 0.3909 0.5431
C28 C 0.52456(7) 0.40490(3) 0.63078(3)
H24 H 0.5181 0.4462 0.6269
C29 C 0.50126(6) 0.37734(2) 0.68980(3)
C30 C 0.47742(6) 0.21771(3) 0.75480(3)
H25 H 0.5021 0.2001 0.7153
H26 H 0.5523 0.2029 0.7903
P1 P 0.26736(2) 0.603967(8) 0.597190(8)
F7 F 0.41611(9) 0.56856(4) 0.59362(5)
F8 F 0.33500(9) 0.66460(3) 0.57934(4)
F9 F 0.10150(8) 0.63530(3) 0.59970(4)
F10 F 0.19023(8) 0.54187(3) 0.61196(3)
F11 F 0.20880(8) 0.59029(3) 0.52393(3)
F12 F 0.30777(9) 0.61625(3) 0.67084(3)
P2 P 0.28659(2) 0.408383(8) 0.102339(9)
F13 F 0.24020(9) 0.46823(3) 0.13356(4)
F14 F 0.15471(7) 0.37902(3) 0.13402(3)
F15 F 0.34400(9) 0.34987(3) 0.07576(4)
F16 F 0.41276(7) 0.44284(3) 0.07083(3)
F17 F 0.16952(8) 0.41836(4) 0.04036(4)
F18 F 0.41625(7) 0.39921(3) 0.16446(3)
N5 N 0.10404(8) 0.33843(3) 0.62968(3)
C32 C 0.08016(10) 0.30883(3) 0.58791(4)
C35 C 0.04586(14) 0.26820(4) 0.53403(4)
H30 H 0.0538 0.2278 0.5494
H31 H 0.1193 0.2744 0.5045
H32 H -0.0583 0.2754 0.5124
C31 C 0.78555(9) 0.53968(3) 0.57477(4)
N7 N 0.77573(10) 0.52640(3) 0.62429(4)
C36 C 0.80130(13) 0.55765(4) 0.51028(5)
H33 H 0.7895 0.6002 0.5064
H34 H 0.7221 0.5384 0.4803
H35 H 0.9028 0.5463 0.5010
N6 N 0.78125(10) 0.34258(3) 0.09987(5)
C33 C 0.78060(9) 0.38313(4) 0.06853(4)
C34 C 0.78050(10) 0.43712(4) 0.03178(4)
H27 H 0.7047 0.4643 0.0444
H28 H 0.7544 0.4281 -0.0133
H29 H 0.8824 0.4551 0.0396
F1? F 0.36670(15) 0.55203(5) 0.57483(6)
F2? F 0.41510(12) 0.64165(5) 0.58128(5)
F3? F 0.19544(18) 0.66224(5) 0.61787(8)
F4? F 0.14031(12) 0.56558(6) 0.62125(6)
F5? F 0.18262(15) 0.61130(6) 0.52661(5)
F6? F 0.37645(13) 0.59947(5) 0.66615(4)
F19? F 0.16290(13) 0.46003(5) 0.10290(6)
F20? F 0.19632(13) 0.35501(5) 0.13179(6)
F21? F 0.41047(15) 0.36154(7) 0.09097(9)
F22? F 0.39003(15) 0.45706(5) 0.07740(7)
F23? F 0.19825(15) 0.38928(5) 0.03506(5)
F24? F 0.35463(16) 0.42317(6) 0.17236(5)
loop_
_geom_bond_atom_site_label_1
_geom_bond_atom_site_label_2
_geom_bond_site_symmetry_1
_geom_bond_site_symmetry_2
N1 C1 1_555 1_555
N2 C1 1_555 1_555
N3 C11 1_555 1_555
N4 C13 1_555 1_555
C1 H1 1_555 1_555
C2 N1 1_555 1_555
H2 C2 1_555 1_555
C3 N2 1_555 1_555
H3 C3 1_555 1_555
C4 N2 1_555 1_555
H4 C4 1_555 1_555
H5 C4 1_555 1_555
C5 C4 1_555 1_555
C6 C5 1_555 1_555
H6 C6 1_555 1_555
C7 C6 1_555 1_555
H7 C7 1_555 1_555
C8 C7 1_555 1_555
H8 C8 1_555 1_555
C9 C8 1_555 1_555
C10 C5 1_555 1_555
H9 C10 1_555 1_555
C11 C9 1_555 1_555
H10 C11 1_555 1_555
H11 C11 1_555 1_555
C12 N3 1_555 1_555
H12 C12 1_555 1_555
C13 C12 1_555 1_555
H13 C13 1_555 1_555
C14 N3 1_555 1_555
H14 C14 1_555 1_555
C15 N4 1_555 1_555
H15 C15 1_555 1_555
H16 C15 1_555 1_555
C16 C15 1_555 1_555
C17 C16 1_555 1_555
C18 C17 1_555 1_555
H17 C18 1_555 1_555
C19 C18 1_555 1_555
H18 C19 1_555 1_555
C20 C19 1_555 1_555
H19 C20 1_555 1_555
C21 C20 1_555 1_555
H20 C21 1_555 1_555
C22 C17 1_555 1_555
C23 C22 1_555 1_555
C24 C23 1_555 1_555
C25 C24 1_555 1_555
H21 C25 1_555 1_555
C26 C25 1_555 1_555
H22 C26 1_555 1_555
C27 C26 1_555 1_555
H23 C27 1_555 1_555
C28 C27 1_555 1_555
H24 C28 1_555 1_555
C29 C16 1_555 1_555
C30 N1 1_555 1_555
H25 C30 1_555 1_555
H26 C30 1_555 1_555
P1 F7 1_555 1_555
P2 F13 1_555 1_555
F8 P1 1_555 1_555
F9 P1 1_555 1_555
F10 P1 1_555 1_555
F11 P1 1_555 1_555
F12 P1 1_555 1_555
F14 P2 1_555 1_555
F15 P2 1_555 1_555
F16 P2 1_555 1_555
F17 P2 1_555 1_555
F18 P2 1_555 1_555
N5 C32 1_555 1_555
C31 N7 1_555 1_555
N6 C33 1_555 1_555
C32 C35 1_555 1_555
C33 C34 1_555 1_555
C34 H27 1_555 1_555
H28 C34 1_555 1_555
H29 C34 1_555 1_555
C35 H30 1_555 1_555
H31 C35 1_555 1_555
H32 C35 1_555 1_555
C36 C31 1_555 1_555
H33 C36 1_555 1_555
H34 C36 1_555 1_555
H35 C36 1_555 1_555
N4 C14 1_555 1_555
C2 C3 1_555 1_555
C9 C10 1_555 1_555
C21 C22 1_555 1_555
C23 C30 1_555 1_555
C24 C29 1_555 1_555
C28 C29 1_555 1_555

#END
