
#######################################################################
#
#                 Cambridge Crystallographic Data Centre
#                                CCDC 
#
#######################################################################
#
# If this CIF has been generated from an entry in the Cambridge 
# Structural Database, then it will include bibliographic, chemical, 
# crystal, experimental, refinement or atomic coordinate data resulting 
# from the CCDC's data processing and validation procedures.
#
#######################################################################

data_MENKAS
_chemical_formula_moiety         'C21 H18 O2 S1'
_chemical_name_systematic        1,5-Diphenyl-3-(2-thienyl)pentane-1,5-dione
_symmetry_cell_setting           monoclinic
_symmetry_space_group_name_H-M   'P 21/c'
_symmetry_Int_Tables_number      14
_space_group_name_Hall           '-P 2ybc'
loop_
_symmetry_equiv_pos_site_id
_symmetry_equiv_pos_as_xyz
1 x,y,z
2 -x,1/2+y,1/2-z
3 -x,-y,-z
4 x,1/2-y,1/2+z
_cell_length_a                   13.460(2)
_cell_length_b                   12.094(3)
_cell_length_c                   10.762(2)
_cell_angle_alpha                90
_cell_angle_beta                 94.456(3)
_cell_angle_gamma                90
_cell_volume                     1746.6
_exptl_crystal_colour            colorless
_exptl_crystal_description       block
_cell_formula_units_Z            4
_exptl_crystal_recrystallization_method ethanol
loop_
_atom_site_label
_atom_site_type_symbol
_atom_site_fract_x
_atom_site_fract_y
_atom_site_fract_z
O1 O 0.1375(2) 0.8000(2) 1.1690(2)
O2 O 0.39329(19) 0.89264(19) 0.9624(2)
S1 S 0.29544(15) 0.51245(15) 1.13483(15)
C2 C 0.2206(5) 0.4085(4) 1.1064(4)
H2 H 0.2289 0.3410 1.1472
C3 C 0.1465(4) 0.4283(4) 1.0232(5)
H3 H 0.0970 0.3778 0.9975
C4 C 0.1521(10) 0.5387(11) 0.9813(13)
H4 H 0.1049 0.5692 0.9236
C5 C 0.2327(2) 0.5975(2) 1.0325(3)
C6 C 0.2699(2) 0.7117(2) 1.0089(3)
H5 H 0.3009 0.7411 1.0875
C7 C 0.1849(2) 0.7882(3) 0.9638(3)
H6 H 0.2126 0.8584 0.9399
H7 H 0.1501 0.7563 0.8901
C8 C 0.1119(3) 0.8088(3) 1.0586(3)
C9 C 0.0097(2) 0.8429(2) 1.0181(3)
C10 C -0.0249(3) 0.8522(3) 0.8944(3)
H8 H 0.0177 0.8367 0.8326
C11 C -0.1211(3) 0.8840(3) 0.8616(4)
H9 H -0.1436 0.8900 0.7780
C12 C -0.1836(3) 0.9068(3) 0.9517(4)
H10 H -0.2491 0.9278 0.9298
C13 C -0.1503(3) 0.8989(3) 1.0740(4)
H11 H -0.1930 0.9152 1.1353
C14 C -0.0556(3) 0.8674(3) 1.1071(3)
H12 H -0.0341 0.8621 1.1911
C15 C 0.3489(2) 0.7060(2) 0.9158(3)
H13 H 0.3948 0.6468 0.9407
H14 H 0.3166 0.6866 0.8351
C16 C 0.4082(2) 0.8102(3) 0.9014(3)
C17 C 0.4863(2) 0.8089(3) 0.8129(3)
C18 C 0.5054(3) 0.7176(3) 0.7414(3)
H15 H 0.4682 0.6536 0.7498
C19 C 0.5775(3) 0.7187(4) 0.6589(4)
H16 H 0.5896 0.6556 0.6129
C20 C 0.6311(3) 0.8115(6) 0.6439(5)
H17 H 0.6793 0.8133 0.5864
C21 C 0.6141(3) 0.9026(5) 0.7140(6)
H18 H 0.6517 0.9661 0.7044
C22 C 0.5425(3) 0.9026(3) 0.7984(4)
H19 H 0.5321 0.9655 0.8454
C1? C 0.2666(14) 0.5095(13) 1.1086(15)
H1? H 0.3229 0.5200 1.1631
S2? S 0.1344(7) 0.5462(8) 0.9584(9)
loop_
_geom_bond_atom_site_label_1
_geom_bond_atom_site_label_2
_geom_bond_site_symmetry_1
_geom_bond_site_symmetry_2
O1 C8 1_555 1_555
O2 C16 1_555 1_555
S1 C2 1_555 1_555
C2 H2 1_555 1_555
C3 C2 1_555 1_555
H3 C3 1_555 1_555
C4 C3 1_555 1_555
H4 C4 1_555 1_555
C5 S1 1_555 1_555
C6 C5 1_555 1_555
H5 C6 1_555 1_555
C7 C6 1_555 1_555
H6 C7 1_555 1_555
H7 C7 1_555 1_555
C8 C7 1_555 1_555
C9 C8 1_555 1_555
C10 C9 1_555 1_555
H8 C10 1_555 1_555
C11 C10 1_555 1_555
H9 C11 1_555 1_555
C12 C11 1_555 1_555
H10 C12 1_555 1_555
C13 C12 1_555 1_555
H11 C13 1_555 1_555
C14 C9 1_555 1_555
H12 C14 1_555 1_555
C15 C6 1_555 1_555
H13 C15 1_555 1_555
H14 C15 1_555 1_555
C16 C15 1_555 1_555
C17 C16 1_555 1_555
C18 C17 1_555 1_555
H15 C18 1_555 1_555
C19 C18 1_555 1_555
H16 C19 1_555 1_555
C20 C19 1_555 1_555
H17 C20 1_555 1_555
C21 C20 1_555 1_555
H18 C21 1_555 1_555
C22 C17 1_555 1_555
H19 C22 1_555 1_555
C4 C5 1_555 1_555
C13 C14 1_555 1_555
C21 C22 1_555 1_555

#END
