
#######################################################################
#
#                 Cambridge Crystallographic Data Centre
#                                CCDC 
#
#######################################################################
#
# If this CIF has been generated from an entry in the Cambridge 
# Structural Database, then it will include bibliographic, chemical, 
# crystal, experimental, refinement or atomic coordinate data resulting 
# from the CCDC's data processing and validation procedures.
#
#######################################################################

data_MENMEA
_chemical_formula_moiety         'C68 H50 N2 O4'
_chemical_name_systematic        
2,9-bis(5'-n-butyl-1,1':3',1''-terphenyl-2'-yl)isoquinolino[4',5',6':6,5,10]anthra[2,1,9-def]isoquinoline-1,3,8,10(2H,9H)-tetrone
_symmetry_cell_setting           triclinic
_symmetry_space_group_name_H-M   'P -1'
_symmetry_Int_Tables_number      2
_space_group_name_Hall           '-P 1'
loop_
_symmetry_equiv_pos_site_id
_symmetry_equiv_pos_as_xyz
1 x,y,z
2 -x,-y,-z
_cell_length_a                   16.945(3)
_cell_length_b                   17.240(3)
_cell_length_c                   20.307(4)
_cell_angle_alpha                81.27(3)
_cell_angle_beta                 73.96(3)
_cell_angle_gamma                64.79(3)
_cell_volume                     5154.36
_exptl_crystal_colour            orange
_exptl_crystal_description       'triangular plate'
_cell_formula_units_Z            4
loop_
_atom_site_label
_atom_site_type_symbol
_atom_site_fract_x
_atom_site_fract_y
_atom_site_fract_z
C1 C 0.48159(8) 0.26411(8) 0.32314(6)
C2 C 0.41792(8) 0.31272(7) 0.38470(5)
C3 C 0.37643(8) 0.27114(8) 0.43779(6)
H1 H 0.393540 0.212292 0.437152
C4 C 0.30870(8) 0.31830(8) 0.49228(6)
H2 H 0.282116 0.289673 0.527628
C5 C 0.28028(8) 0.40681(7) 0.49481(5)
C6 C 0.32575(7) 0.44989(7) 0.44254(5)
C7 C 0.30275(8) 0.54000(7) 0.44354(5)
C8 C 0.35260(8) 0.57699(8) 0.39274(6)
H3 H 0.338815 0.635176 0.393701
C9 C 0.42319(8) 0.52815(8) 0.34017(6)
H4 H 0.456308 0.553949 0.307795
C10 C 0.44338(8) 0.44202(8) 0.33654(5)
C11 C 0.39578(8) 0.40112(7) 0.38785(5)
C12 C 0.51490(8) 0.39278(8) 0.27825(6)
C13 C -0.01159(8) 0.60554(8) 0.71187(6)
C14 C 0.06170(8) 0.55592(8) 0.65475(5)
C15 C 0.08210(8) 0.46980(8) 0.65110(6)
H5 H 0.048157 0.444259 0.682829
C16 C 0.15408(8) 0.42048(8) 0.59954(6)
H6 H 0.168263 0.362184 0.598791
C17 C 0.20471(7) 0.45743(7) 0.54938(5)
C18 C 0.18163(7) 0.54753(7) 0.55041(5)
C19 C 0.22783(8) 0.59039(7) 0.49849(5)
C20 C 0.20026(8) 0.67888(8) 0.50164(6)
H7 H 0.227531 0.707439 0.466756
C21 C 0.13234(8) 0.72590(8) 0.55619(6)
H8 H 0.116066 0.784535 0.557410
C22 C 0.08949(8) 0.68461(7) 0.60836(5)
C23 C 0.11077(8) 0.59645(7) 0.60458(5)
C24 C 0.02524(8) 0.73295(8) 0.66986(6)
C25 C 0.57380(8) 0.26784(8) 0.20695(6)
C26 C 0.65669(8) 0.19765(8) 0.20100(6)
C27 C 0.69874(8) 0.15760(8) 0.13760(6)
H9 H 0.752548 0.109278 0.133819
C28 C 0.66201(9) 0.18831(8) 0.07992(6)
C29 C 0.58054(9) 0.26043(8) 0.08721(6)
H10 H 0.556095 0.282963 0.049255
C30 C 0.53452(8) 0.29984(8) 0.15057(6)
C31 C 0.70517(8) 0.16541(8) 0.25767(6)
C32 C 0.72890(9) 0.22071(9) 0.28463(7)
H11 H 0.707793 0.278732 0.271685
C33 C 0.78436(9) 0.18841(11) 0.33104(7)
H12 H 0.801524 0.224743 0.347681
C34 C 0.81366(9) 0.10271(12) 0.35217(7)
H13 H 0.850281 0.081674 0.383071
C35 C 0.78843(9) 0.04772(11) 0.32726(7)
H14 H 0.807318 -0.009613 0.342227
C36 C 0.73466(9) 0.07886(9) 0.27971(7)
H15 H 0.718507 0.041982 0.262734
C37 C 0.44490(9) 0.37375(8) 0.15648(6)
C38 C 0.36573(9) 0.36310(10) 0.19097(7)
H16 H 0.368852 0.310036 0.211173
C39 C 0.28227(10) 0.43215(12) 0.19497(8)
H17 H 0.229988 0.424590 0.217177
C40 C 0.27714(12) 0.51157(12) 0.16607(9)
H18 H 0.221557 0.557650 0.169954
C41 C 0.35539(13) 0.52284(11) 0.13097(10)
H19 H 0.351646 0.576210 0.111128
C42 C 0.43916(11) 0.45402(10) 0.12567(8)
H20 H 0.491036 0.461383 0.101773
C43 C 0.70946(10) 0.14231(9) 0.01263(6)
H21 H 0.682200 0.103926 0.009830
H22 H 0.771643 0.107290 0.013577
C44 C 0.70746(11) 0.20072(10) -0.05258(7)
H23 H 0.729242 0.242972 -0.048276
H24 H 0.645827 0.231218 -0.056674
C45 C 0.76455(11) 0.15133(12) -0.11826(7)
H25 H 0.764198 0.192232 -0.156785
H26 H 0.826089 0.120693 -0.113976
C46 C 0.73210(15) 0.08754(13) -0.13346(8)
H27 H 0.770458 0.059102 -0.174874
H28 H 0.733663 0.045848 -0.096127
H29 H 0.671717 0.117451 -0.138975
C47 C -0.06754(8) 0.72812(8) 0.78530(6)
C48 C -0.02517(8) 0.69661(8) 0.84002(6)
C49 C -0.06903(9) 0.73507(8) 0.90369(6)
H30 H -0.042434 0.712769 0.940623
C50 C -0.15150(9) 0.80591(8) 0.91302(6)
C51 C -0.19104(9) 0.83692(8) 0.85681(6)
H31 H -0.245271 0.884862 0.861823
C52 C -0.15111(8) 0.79765(8) 0.79302(6)
C53 C -0.20281(8) 0.83007(8) 0.73840(6)
C54 C -0.23309(9) 0.91647(10) 0.71657(7)
H32 H -0.214768 0.953061 0.731576
C55 C -0.29109(10) 0.94800(12) 0.67205(8)
H33 H -0.311046 1.005442 0.657352
C56 C -0.31886(9) 0.89311(13) 0.64980(7)
H34 H -0.358136 0.914325 0.620886
C57 C -0.28822(9) 0.80725(12) 0.67056(7)
H35 H -0.306753 0.770935 0.655399
C58 C -0.22940(9) 0.77489(10) 0.71433(7)
H36 H -0.207941 0.716938 0.727467
C59 C 0.06689(8) 0.62543(8) 0.83170(6)
C60 C 0.07878(10) 0.53981(9) 0.84571(8)
H37 H 0.029146 0.525902 0.857803
C61 C 0.16473(11) 0.47486(10) 0.84171(8)
H38 H 0.172026 0.418027 0.851121
C62 C 0.23909(10) 0.49499(11) 0.82373(7)
H39 H 0.296114 0.451740 0.821700
C63 C 0.22854(10) 0.57983(11) 0.80871(8)
H40 H 0.278499 0.593238 0.796401
C64 C 0.14269(9) 0.64496(10) 0.81216(7)
H41 H 0.135857 0.701518 0.801421
C65 C -0.19743(10) 0.85020(9) 0.98111(6)
H42 H -0.259218 0.887375 0.980428
H43 H -0.168132 0.886306 0.985086
C66 C -0.19713(12) 0.78978(10) 1.04503(7)
H44 H -0.136096 0.759406 1.050519
H45 H -0.217643 0.747563 1.038329
C67 C -0.25727(12) 0.83746(12) 1.11095(7)
H46 H -0.318484 0.866678 1.105690
H47 H -0.256665 0.795718 1.148874
C68 C -0.22851(15) 0.90308(13) 1.12872(8)
H48 H -0.268601 0.930313 1.170134
H49 H -0.168497 0.874542 1.135208
H50 H -0.230371 0.945566 1.091985
N1 N 0.52390(7) 0.30874(7) 0.27239(5)
N2 N -0.01884(7) 0.68857(7) 0.71925(5)
O1 O 0.49399(7) 0.19081(6) 0.31486(5)
O2 O 0.56216(6) 0.42350(6) 0.23604(5)
O3 O -0.06164(6) 0.57619(6) 0.75214(5)
O4 O 0.01361(7) 0.80565(6) 0.67916(5)
C69 C 0.52191(8) 0.19520(7) 0.59443(5)
C70 C 0.52776(8) 0.27121(7) 0.55102(5)
C71 C 0.59464(8) 0.25930(8) 0.49053(5)
H51 H 0.630717 0.204300 0.474818
C72 C 0.60760(8) 0.33040(7) 0.45323(5)
H52 H 0.651589 0.321577 0.412461
C73 C 0.55619(7) 0.41386(7) 0.47579(5)
C74 C 0.48417(7) 0.42770(7) 0.53627(5)
C75 C 0.42672(7) 0.51179(7) 0.56086(5)
C76 C 0.35492(8) 0.52144(8) 0.61828(6)
H53 H 0.316619 0.576082 0.633856
C77 C 0.33973(8) 0.44974(8) 0.65283(5)
H54 H 0.290765 0.457801 0.690000
C78 C 0.39714(8) 0.36760(7) 0.63182(5)
C79 C 0.47001(7) 0.35518(7) 0.57304(5)
C80 C 0.38300(8) 0.29301(7) 0.67181(5)
C81 C 0.45606(8) 0.14035(7) 0.70401(5)
C82 C 0.43652(8) 0.07209(7) 0.69367(5)
C83 C 0.45357(9) 0.00139(8) 0.74063(6)
H55 H 0.441657 -0.044455 0.734152
C84 C 0.48774(14) -0.00214(10) 0.79655(8)
C85 C 0.50340(13) 0.06840(10) 0.80669(8)
H56 H 0.524050 0.067812 0.844777
C86 C 0.48865(9) 0.13943(8) 0.76081(6)
C87 C 0.50962(9) 0.21134(8) 0.77393(6)
C88 C 0.44814(10) 0.27318(10) 0.82108(8)
H57 H 0.392016 0.272670 0.841559
C89 C 0.47068(12) 0.33622(10) 0.83773(9)
H58 H 0.429494 0.377189 0.869201
C90 C 0.55456(12) 0.33739(10) 0.80718(8)
H59 H 0.569524 0.378889 0.818461
C91 C 0.61551(12) 0.27691(11) 0.76015(8)
H60 H 0.671417 0.277880 0.739608
C92 C 0.59322(12) 0.21376(10) 0.74319(7)
H61 H 0.634448 0.173364 0.711297
C93 C 0.39739(8) 0.07148(8) 0.63626(5)
C94 C 0.43411(9) -0.00153(9) 0.59706(7)
H62 H 0.485896 -0.047639 0.604287
C95 C 0.39316(11) -0.00539(11) 0.54701(7)
H63 H 0.418673 -0.053426 0.520471
C96 C 0.31441(12) 0.06252(11) 0.53695(7)
H64 H 0.286706 0.059407 0.504361
C97 C 0.27729(11) 0.13508(10) 0.57583(8)
H65 H 0.224518 0.180328 0.569380
C98 C 0.31938(9) 0.14013(9) 0.62485(7)
H66 H 0.295195 0.189377 0.649791
C99 C 0.58043(16) -0.17591(12) 0.93450(10)
C100 C 0.5336(2) -0.09244(17) 0.83086(14)
H67 H 0.507956 -0.130438 0.824061
H68 H 0.597291 -0.116877 0.809249
C101 C 0.5206(2) -0.08550(19) 0.90740(13)
H69 H 0.458027 -0.069884 0.930862
H70 H 0.538967 -0.042150 0.915172
H71 H 0.568509 -0.221612 0.922575
H72 H 0.643993 -0.188505 0.918748
C102 C 0.5459(2) -0.1588(2) 1.00965(16)
H73 H 0.556856 -0.212179 1.035630
H74 H 0.576115 -0.129197 1.022186
H75 H 0.482508 -0.123966 1.019189
N3 N 0.45063(7) 0.21117(6) 0.65373(5)
O5 O 0.57705(6) 0.12203(6) 0.58157(4)
O6 O 0.31761(6) 0.30066(6) 0.71956(4)
C69A C 0.47809(8) 0.80480(7) 0.40557(5)
C70A C 0.47224(8) 0.72879(7) 0.44898(5)
C71A C 0.40536(8) 0.74070(8) 0.50947(5)
H51A H 0.369283 0.795700 0.525182
C72A C 0.39240(8) 0.66960(7) 0.54677(5)
H52A H 0.348411 0.678423 0.587539
C73A C 0.44381(7) 0.58614(7) 0.52421(5)
C74A C 0.51583(7) 0.57230(7) 0.46373(5)
C75A C 0.57328(7) 0.48821(7) 0.43914(5)
C76A C 0.64508(8) 0.47856(8) 0.38172(6)
H53A H 0.683381 0.423918 0.366144
C77A C 0.66027(8) 0.55026(8) 0.34717(5)
H54A H 0.709235 0.542199 0.310000
C78A C 0.60286(8) 0.63240(7) 0.36818(5)
C79A C 0.52999(7) 0.64482(7) 0.42696(5)
C80A C 0.61700(8) 0.70699(7) 0.32819(5)
C81A C 0.54394(8) 0.85965(7) 0.29599(5)
C82A C 0.56348(8) 0.92791(7) 0.30633(5)
C83A C 0.54643(9) 0.99861(8) 0.25937(6)
H55A H 0.558343 1.044455 0.265848
C84A C 0.51226(14) 1.00214(10) 0.20345(8)
C85A C 0.49660(13) 0.93160(10) 0.19331(8)
H56A H 0.475950 0.932188 0.155223
C86A C 0.51135(9) 0.86057(8) 0.23919(6)
C87A C 0.49038(9) 0.78866(8) 0.22607(6)
C88A C 0.55186(10) 0.72682(10) 0.17892(8)
H57A H 0.607984 0.727330 0.158441
C89A C 0.52932(12) 0.66378(10) 0.16227(9)
H58A H 0.570506 0.622811 0.130799
C90A C 0.44544(12) 0.66261(10) 0.19282(8)
H59A H 0.430476 0.621111 0.181539
C91A C 0.38449(12) 0.72309(11) 0.23985(8)
H60A H 0.328583 0.722120 0.260392
C92A C 0.40678(12) 0.78624(10) 0.25681(7)
H61A H 0.365552 0.826636 0.288703
C93A C 0.60261(8) 0.92852(8) 0.36374(5)
C94A C 0.56589(9) 1.00153(9) 0.40294(7)
H62A H 0.514104 1.047639 0.395713
C95A C 0.60684(11) 1.00539(11) 0.45299(7)
H63A H 0.581327 1.053426 0.479529
C96A C 0.68559(12) 0.93748(11) 0.46305(7)
H64A H 0.713294 0.940593 0.495639
C97A C 0.72271(11) 0.86492(10) 0.42417(8)
H65A H 0.775482 0.819672 0.430620
C98A C 0.68062(9) 0.85987(9) 0.37515(7)
H66A H 0.704805 0.810623 0.350209
C99A C 0.41957(16) 1.17591(12) 0.06550(10)
C100A C 0.4664(2) 1.09244(17) 0.16914(14)
H67A H 0.492044 1.130438 0.175939
H68A H 0.402709 1.116877 0.190751
C101A C 0.4794(2) 1.08550(19) 0.09260(13)
H69A H 0.541973 1.069884 0.069138
H70A H 0.461033 1.042150 0.084828
H71A H 0.431491 1.221612 0.077425
H72A H 0.356007 1.188505 0.081252
C102A C 0.4541(2) 1.1588(2) -0.00965(16)
H73A H 0.443144 1.212179 -0.035630
H74A H 0.423885 1.129197 -0.022186
H75A H 0.517492 1.123966 -0.019189
N3A N 0.54937(7) 0.78883(6) 0.34627(5)
O5A O 0.42295(6) 0.87797(6) 0.41843(4)
O6A O 0.68239(6) 0.69934(6) 0.28044(4)
C105 C -0.02338(8) 0.80551(7) 0.40719(5)
C106 C -0.02852(8) 0.72920(7) 0.45057(5)
C107 C -0.09571(8) 0.74062(7) 0.51075(5)
H82 H -0.132111 0.795481 0.526644
C108 C -0.10853(8) 0.66910(7) 0.54750(5)
H83 H -0.152840 0.677541 0.588058
C109 C -0.05648(7) 0.58586(7) 0.52468(5)
C110 C 0.01574(7) 0.57267(7) 0.46435(5)
C111 C 0.07333(7) 0.48883(7) 0.43920(5)
C112 C 0.14472(8) 0.47989(8) 0.38166(5)
H84 H 0.182914 0.425455 0.365582
C113 C 0.15979(8) 0.55190(8) 0.34763(5)
H85 H 0.208462 0.544264 0.310283
C114 C 0.10251(8) 0.63379(7) 0.36955(5)
C115 C 0.02973(7) 0.64542(7) 0.42814(5)
C116 C 0.11700(8) 0.70880(7) 0.33049(5)
C117 C 0.04112(8) 0.86153(7) 0.29818(5)
C118 C 0.00446(8) 0.86335(7) 0.24340(5)
C119 C -0.01687(8) 0.93651(8) 0.19965(6)
H86 H -0.040963 0.937815 0.163327
C120 C -0.00260(8) 1.00795(8) 0.20954(6)
C121 C 0.03772(8) 1.00276(7) 0.26260(5)
H87 H 0.050242 1.048591 0.268130
C122 C 0.05993(8) 0.93054(7) 0.30782(5)
C123 C -0.01434(8) 0.78974(8) 0.23097(5)
C124 C -0.10000(10) 0.78968(10) 0.25738(7)
H88 H -0.144229 0.833223 0.285463
C125 C -0.11919(11) 0.72390(10) 0.24149(8)
H89 H -0.176067 0.724029 0.259124
C126 C -0.05367(11) 0.65904(9) 0.19971(7)
H90 H -0.066726 0.615932 0.188957
C127 C 0.03169(11) 0.65819(10) 0.17376(8)
H91 H 0.075845 0.614192 0.146074
C128 C 0.05130(9) 0.72374(9) 0.18934(7)
H92 H 0.108413 0.723068 0.171760
C129 C 0.10204(8) 0.93062(8) 0.36349(5)
C130 C 0.18185(9) 0.86242(9) 0.37242(7)
H93 H 0.205980 0.813998 0.346489
C131 C 0.22569(11) 0.86680(10) 0.42039(8)
H94 H 0.279411 0.821872 0.425341
C132 C 0.18880(11) 0.93840(11) 0.46062(7)
H95 H 0.217754 0.941162 0.492439
C133 C 0.10850(11) 1.00568(11) 0.45294(7)
H96 H 0.083229 1.052940 0.480307
C134 C 0.06558(9) 1.00241(9) 0.40404(6)
H97 H 0.012647 1.048102 0.398486
C135 C -0.03559(10) 1.09110(8) 0.16760(6)
H98 H -0.003896 1.124997 0.171479
H99 H -0.098781 1.123049 0.187691
C136 C -0.02428(10) 1.08181(9) 0.09125(6)
H100 H 0.039187 1.056614 0.069190
H101 H -0.050431 1.043262 0.086518
C137 C -0.06903(12) 1.16822(9) 0.05528(7)
H102 H -0.046928 1.208342 0.063771
H103 H -0.133292 1.190857 0.074670
C138 C -0.05106(14) 1.16133(13) -0.02221(8)
H104 H -0.080379 1.216931 -0.042417
H105 H 0.012404 1.140109 -0.041848
H106 H -0.073952 1.122626 -0.030950
N4 N 0.04855(7) 0.79025(6) 0.34833(5)
O7 O -0.07959(6) 0.87831(6) 0.41984(4)
O8 O 0.18318(6) 0.70170(6) 0.28365(4)
C105A C 0.02338(8) 0.19449(7) 0.59281(5)
C106A C 0.02852(8) 0.27080(7) 0.54943(5)
C107A C 0.09571(8) 0.25938(7) 0.48925(5)
H82A H 0.132111 0.204519 0.473356
C108A C 0.10853(8) 0.33090(7) 0.45250(5)
H83A H 0.152840 0.322459 0.411942
C109A C 0.05648(7) 0.41414(7) 0.47532(5)
C110A C -0.01574(7) 0.42733(7) 0.53565(5)
C111A C -0.07333(7) 0.51117(7) 0.56080(5)
C112A C -0.14472(8) 0.52011(8) 0.61834(5)
H84A H -0.182914 0.574545 0.634418
C113A C -0.15979(8) 0.44810(8) 0.65237(5)
H85A H -0.208462 0.455736 0.689717
C114A C -0.10251(8) 0.36621(7) 0.63045(5)
C115A C -0.02973(7) 0.35458(7) 0.57186(5)
C116A C -0.11700(8) 0.29120(7) 0.66951(5)
C117A C -0.04112(8) 0.13847(7) 0.70182(5)
C118A C -0.00446(8) 0.13665(7) 0.75660(5)
C119A C 0.01687(8) 0.06349(8) 0.80035(6)
H86A H 0.040963 0.062185 0.836673
C120A C 0.00260(8) -0.00795(8) 0.79046(6)
C121A C -0.03772(8) -0.00276(7) 0.73740(5)
H87A H -0.050242 -0.048591 0.731870
C122A C -0.05993(8) 0.06946(7) 0.69218(5)
C123A C 0.01434(8) 0.21026(8) 0.76903(5)
C124A C 0.10000(10) 0.21032(10) 0.74262(7)
H88A H 0.144229 0.166777 0.714537
C125A C 0.11919(11) 0.27610(10) 0.75851(8)
H89A H 0.176067 0.275971 0.740876
C126A C 0.05367(11) 0.34096(9) 0.80029(7)
H90A H 0.066726 0.384068 0.811043
C127A C -0.03169(11) 0.34181(10) 0.82624(8)
H91A H -0.075845 0.385808 0.853926
C128A C -0.05130(9) 0.27626(9) 0.81066(7)
H92A H -0.108413 0.276932 0.828240
C129A C -0.10204(8) 0.06938(8) 0.63651(5)
C130A C -0.18185(9) 0.13758(9) 0.62758(7)
H93A H -0.205980 0.186002 0.653511
C131A C -0.22569(11) 0.13320(10) 0.57961(8)
H94A H -0.279411 0.178128 0.574659
C132A C -0.18880(11) 0.06160(11) 0.53938(7)
H95A H -0.217754 0.058838 0.507561
C133A C -0.10850(11) -0.00568(11) 0.54706(7)
H96A H -0.083229 -0.052940 0.519693
C134A C -0.06558(9) -0.00241(9) 0.59596(6)
H97A H -0.012647 -0.048102 0.601514
C135A C 0.03559(10) -0.09110(8) 0.83240(6)
H98A H 0.003896 -0.124997 0.828521
H99A H 0.098781 -0.123049 0.812309
C136A C 0.02428(10) -0.08181(9) 0.90875(6)
H100A H -0.039187 -0.056614 0.930810
H101A H 0.050431 -0.043262 0.913482
C137A C 0.06903(12) -0.16822(9) 0.94472(7)
H102A H 0.046928 -0.208342 0.936229
H103A H 0.133292 -0.190857 0.925330
C138A C 0.05106(14) -0.16133(13) 1.02221(8)
H104A H 0.080379 -0.216931 1.042417
H105A H -0.012404 -0.140109 1.041848
H106A H 0.073952 -0.122626 1.030950
N4A N -0.04855(7) 0.20975(6) 0.65167(5)
O7A O 0.07959(6) 0.12169(6) 0.58016(4)
O8A O -0.18318(6) 0.29830(6) 0.71635(4)
C103? C 0.48389(19) -0.06816(17) 0.85770(13)
H76? H 0.440452 -0.039663 0.898249
H77? H 0.467731 -0.111211 0.846240
C104? C 0.57862(17) -0.10871(17) 0.86949(13)
H78? H 0.595212 -0.064645 0.878410
H79? H 0.621195 -0.138236 0.829038
H80? H 0.550716 -0.209509 0.926304
H81? H 0.643129 -0.214673 0.929262
loop_
_geom_bond_atom_site_label_1
_geom_bond_atom_site_label_2
_geom_bond_site_symmetry_1
_geom_bond_site_symmetry_2
C1 C2 1_555 1_555
C2 C3 1_555 1_555
C3 H1 1_555 1_555
C4 C3 1_555 1_555
H2 C4 1_555 1_555
C5 C4 1_555 1_555
C6 C5 1_555 1_555
C7 C6 1_555 1_555
C8 C7 1_555 1_555
H3 C8 1_555 1_555
C9 C8 1_555 1_555
H4 C9 1_555 1_555
C10 C9 1_555 1_555
C11 C2 1_555 1_555
C12 C10 1_555 1_555
C13 C14 1_555 1_555
C14 C15 1_555 1_555
C15 H5 1_555 1_555
C16 C15 1_555 1_555
H6 C16 1_555 1_555
C17 C5 1_555 1_555
C18 C17 1_555 1_555
C19 C7 1_555 1_555
C20 C19 1_555 1_555
H7 C20 1_555 1_555
C21 C20 1_555 1_555
H8 C21 1_555 1_555
C22 C21 1_555 1_555
C23 C14 1_555 1_555
C24 C22 1_555 1_555
C25 C26 1_555 1_555
C26 C27 1_555 1_555
C27 H9 1_555 1_555
C28 C27 1_555 1_555
C29 C28 1_555 1_555
H10 C29 1_555 1_555
C30 C25 1_555 1_555
C31 C26 1_555 1_555
C32 C31 1_555 1_555
H11 C32 1_555 1_555
C33 C32 1_555 1_555
H12 C33 1_555 1_555
C34 C33 1_555 1_555
H13 C34 1_555 1_555
C35 C34 1_555 1_555
H14 C35 1_555 1_555
C36 C31 1_555 1_555
H15 C36 1_555 1_555
C37 C30 1_555 1_555
C38 C37 1_555 1_555
H16 C38 1_555 1_555
C39 C38 1_555 1_555
H17 C39 1_555 1_555
C40 C39 1_555 1_555
H18 C40 1_555 1_555
C41 C40 1_555 1_555
H19 C41 1_555 1_555
C42 C37 1_555 1_555
H20 C42 1_555 1_555
C43 C28 1_555 1_555
H21 C43 1_555 1_555
H22 C43 1_555 1_555
C44 C43 1_555 1_555
H23 C44 1_555 1_555
H24 C44 1_555 1_555
C45 C44 1_555 1_555
H25 C45 1_555 1_555
H26 C45 1_555 1_555
C46 C45 1_555 1_555
H27 C46 1_555 1_555
H28 C46 1_555 1_555
H29 C46 1_555 1_555
C47 C48 1_555 1_555
C48 C49 1_555 1_555
C49 H30 1_555 1_555
C50 C49 1_555 1_555
C51 C50 1_555 1_555
H31 C51 1_555 1_555
C52 C47 1_555 1_555
C53 C52 1_555 1_555
C54 C53 1_555 1_555
H32 C54 1_555 1_555
C55 C54 1_555 1_555
H33 C55 1_555 1_555
C56 C55 1_555 1_555
H34 C56 1_555 1_555
C57 C56 1_555 1_555
H35 C57 1_555 1_555
C58 C53 1_555 1_555
H36 C58 1_555 1_555
C59 C48 1_555 1_555
C60 C59 1_555 1_555
H37 C60 1_555 1_555
C61 C60 1_555 1_555
H38 C61 1_555 1_555
C62 C61 1_555 1_555
H39 C62 1_555 1_555
C63 C62 1_555 1_555
H40 C63 1_555 1_555
C64 C59 1_555 1_555
H41 C64 1_555 1_555
C65 C50 1_555 1_555
H42 C65 1_555 1_555
H43 C65 1_555 1_555
C66 C65 1_555 1_555
H44 C66 1_555 1_555
H45 C66 1_555 1_555
C67 C66 1_555 1_555
H46 C67 1_555 1_555
H47 C67 1_555 1_555
C68 C67 1_555 1_555
H48 C68 1_555 1_555
H49 C68 1_555 1_555
H50 C68 1_555 1_555
N1 C1 1_555 1_555
N2 C13 1_555 1_555
O1 C1 1_555 1_555
O2 C12 1_555 1_555
O3 C13 1_555 1_555
O4 C24 1_555 1_555
C69 C70 1_555 1_555
C70 C71 1_555 1_555
C71 H51 1_555 1_555
C72 C71 1_555 1_555
H52 C72 1_555 1_555
C73 C72 1_555 1_555
C74 C73 1_555 1_555
C75 C74 1_555 1_555
C76 C75 1_555 1_555
H53 C76 1_555 1_555
C77 C76 1_555 1_555
H54 C77 1_555 1_555
C78 C77 1_555 1_555
C79 C70 1_555 1_555
C80 C78 1_555 1_555
C81 C82 1_555 1_555
C82 C83 1_555 1_555
C83 H55 1_555 1_555
C84 C83 1_555 1_555
C85 C84 1_555 1_555
H56 C85 1_555 1_555
C86 C81 1_555 1_555
C87 C86 1_555 1_555
C88 C87 1_555 1_555
H57 C88 1_555 1_555
C89 C88 1_555 1_555
H58 C89 1_555 1_555
C90 C89 1_555 1_555
H59 C90 1_555 1_555
C91 C90 1_555 1_555
H60 C91 1_555 1_555
C92 C87 1_555 1_555
H61 C92 1_555 1_555
C93 C82 1_555 1_555
C94 C93 1_555 1_555
H62 C94 1_555 1_555
C95 C94 1_555 1_555
H63 C95 1_555 1_555
C96 C95 1_555 1_555
H64 C96 1_555 1_555
C97 C96 1_555 1_555
H65 C97 1_555 1_555
C98 C93 1_555 1_555
H66 C98 1_555 1_555
C99 C101 1_555 1_555
C100 C84 1_555 1_555
H67 C100 1_555 1_555
H68 C100 1_555 1_555
C101 C100 1_555 1_555
H69 C101 1_555 1_555
H70 C101 1_555 1_555
H71 C99 1_555 1_555
H72 C99 1_555 1_555
C102 C99 1_555 1_555
H73 C102 1_555 1_555
H74 C102 1_555 1_555
H75 C102 1_555 1_555
N3 C69 1_555 1_555
O5 C69 1_555 1_555
O6 C80 1_555 1_555
C105 C106 1_555 1_555
C106 C107 1_555 1_555
C107 H82 1_555 1_555
C108 C107 1_555 1_555
H83 C108 1_555 1_555
C109 C108 1_555 1_555
C110 C109 1_555 1_555
C111 C110 1_555 1_555
C112 C111 1_555 1_555
H84 C112 1_555 1_555
C113 C112 1_555 1_555
H85 C113 1_555 1_555
C114 C113 1_555 1_555
C115 C106 1_555 1_555
C116 C114 1_555 1_555
C117 C118 1_555 1_555
C118 C119 1_555 1_555
C119 H86 1_555 1_555
C120 C119 1_555 1_555
C121 C120 1_555 1_555
H87 C121 1_555 1_555
C122 C117 1_555 1_555
C123 C118 1_555 1_555
C124 C123 1_555 1_555
H88 C124 1_555 1_555
C125 C124 1_555 1_555
H89 C125 1_555 1_555
C126 C125 1_555 1_555
H90 C126 1_555 1_555
C127 C126 1_555 1_555
H91 C127 1_555 1_555
C128 C123 1_555 1_555
H92 C128 1_555 1_555
C129 C122 1_555 1_555
C130 C129 1_555 1_555
H93 C130 1_555 1_555
C131 C130 1_555 1_555
H94 C131 1_555 1_555
C132 C131 1_555 1_555
H95 C132 1_555 1_555
C133 C132 1_555 1_555
H96 C133 1_555 1_555
C134 C129 1_555 1_555
H97 C134 1_555 1_555
C135 C120 1_555 1_555
H98 C135 1_555 1_555
H99 C135 1_555 1_555
C136 C135 1_555 1_555
H100 C136 1_555 1_555
H101 C136 1_555 1_555
C137 C136 1_555 1_555
H102 C137 1_555 1_555
H103 C137 1_555 1_555
C138 C137 1_555 1_555
H104 C138 1_555 1_555
H105 C138 1_555 1_555
H106 C138 1_555 1_555
N4 C105 1_555 1_555
O7 C105 1_555 1_555
O8 C116 1_555 1_555
C69A C70A 1_555 1_555
C70A C71A 1_555 1_555
C71A H51A 1_555 1_555
C72A C71A 1_555 1_555
H52A C72A 1_555 1_555
C73A C75 1_555 1_555
C74A C73A 1_555 1_555
C75A C73 1_555 1_555
C76A C75A 1_555 1_555
H53A C76A 1_555 1_555
C77A C76A 1_555 1_555
H54A C77A 1_555 1_555
C78A C77A 1_555 1_555
C79A C70A 1_555 1_555
C80A C78A 1_555 1_555
C81A C82A 1_555 1_555
C82A C83A 1_555 1_555
C83A H55A 1_555 1_555
C84A C83A 1_555 1_555
C85A C84A 1_555 1_555
H56A C85A 1_555 1_555
C86A C81A 1_555 1_555
C87A C86A 1_555 1_555
C88A C87A 1_555 1_555
H57A C88A 1_555 1_555
C89A C88A 1_555 1_555
H58A C89A 1_555 1_555
C90A C89A 1_555 1_555
H59A C90A 1_555 1_555
C91A C90A 1_555 1_555
H60A C91A 1_555 1_555
C92A C87A 1_555 1_555
H61A C92A 1_555 1_555
C93A C82A 1_555 1_555
C94A C93A 1_555 1_555
H62A C94A 1_555 1_555
C95A C94A 1_555 1_555
H63A C95A 1_555 1_555
C96A C95A 1_555 1_555
H64A C96A 1_555 1_555
C97A C96A 1_555 1_555
H65A C97A 1_555 1_555
C98A C93A 1_555 1_555
H66A C98A 1_555 1_555
C99A C101A 1_555 1_555
C100A C84A 1_555 1_555
H67A C100A 1_555 1_555
H68A C100A 1_555 1_555
C101A C100A 1_555 1_555
H69A C101A 1_555 1_555
H70A C101A 1_555 1_555
H71A C99A 1_555 1_555
H72A C99A 1_555 1_555
C102A C99A 1_555 1_555
H73A C102A 1_555 1_555
H74A C102A 1_555 1_555
H75A C102A 1_555 1_555
N3A C69A 1_555 1_555
O5A C69A 1_555 1_555
O6A C80A 1_555 1_555
C105A C106A 1_555 1_555
C106A C107A 1_555 1_555
C107A H82A 1_555 1_555
C108A C107A 1_555 1_555
H83A C108A 1_555 1_555
C109A C111 1_555 1_555
C110A C109A 1_555 1_555
C111A C109 1_555 1_555
C112A C111A 1_555 1_555
H84A C112A 1_555 1_555
C113A C112A 1_555 1_555
H85A C113A 1_555 1_555
C114A C113A 1_555 1_555
C115A C106A 1_555 1_555
C116A C114A 1_555 1_555
C117A C118A 1_555 1_555
C118A C119A 1_555 1_555
C119A H86A 1_555 1_555
C120A C119A 1_555 1_555
C121A C120A 1_555 1_555
H87A C121A 1_555 1_555
C122A C117A 1_555 1_555
C123A C118A 1_555 1_555
C124A C123A 1_555 1_555
H88A C124A 1_555 1_555
C125A C124A 1_555 1_555
H89A C125A 1_555 1_555
C126A C125A 1_555 1_555
H90A C126A 1_555 1_555
C127A C126A 1_555 1_555
H91A C127A 1_555 1_555
C128A C123A 1_555 1_555
H92A C128A 1_555 1_555
C129A C122A 1_555 1_555
C130A C129A 1_555 1_555
H93A C130A 1_555 1_555
C131A C130A 1_555 1_555
H94A C131A 1_555 1_555
C132A C131A 1_555 1_555
H95A C132A 1_555 1_555
C133A C132A 1_555 1_555
H96A C133A 1_555 1_555
C134A C129A 1_555 1_555
H97A C134A 1_555 1_555
C135A C120A 1_555 1_555
H98A C135A 1_555 1_555
H99A C135A 1_555 1_555
C136A C135A 1_555 1_555
H100A C136A 1_555 1_555
H101A C136A 1_555 1_555
C137A C136A 1_555 1_555
H102A C137A 1_555 1_555
H103A C137A 1_555 1_555
C138A C137A 1_555 1_555
H104A C138A 1_555 1_555
H105A C138A 1_555 1_555
H106A C138A 1_555 1_555
N4A C105A 1_555 1_555
O7A C105A 1_555 1_555
O8A C116A 1_555 1_555
C6 C11 1_555 1_555
C10 C11 1_555 1_555
C12 N1 1_555 1_555
C16 C17 1_555 1_555
C18 C19 1_555 1_555
C18 C23 1_555 1_555
C22 C23 1_555 1_555
C24 N2 1_555 1_555
C25 N1 1_555 1_555
C29 C30 1_555 1_555
C35 C36 1_555 1_555
C41 C42 1_555 1_555
C47 N2 1_555 1_555
C51 C52 1_555 1_555
C57 C58 1_555 1_555
C63 C64 1_555 1_555
C74 C79 1_555 1_555
C78 C79 1_555 1_555
C80 N3 1_555 1_555
C81 N3 1_555 1_555
C85 C86 1_555 1_555
C91 C92 1_555 1_555
C97 C98 1_555 1_555
C110 C115 1_555 1_555
C114 C115 1_555 1_555
C116 N4 1_555 1_555
C117 N4 1_555 1_555
C121 C122 1_555 1_555
C127 C128 1_555 1_555
C133 C134 1_555 1_555
C72A C73A 1_555 1_555
C74A C75A 1_555 1_555
C74A C79A 1_555 1_555
C78A C79A 1_555 1_555
C80A N3A 1_555 1_555
C81A N3A 1_555 1_555
C85A C86A 1_555 1_555
C91A C92A 1_555 1_555
C97A C98A 1_555 1_555
C108A C109A 1_555 1_555
C110A C111A 1_555 1_555
C110A C115A 1_555 1_555
C114A C115A 1_555 1_555
C116A N4A 1_555 1_555
C117A N4A 1_555 1_555
C121A C122A 1_555 1_555
C127A C128A 1_555 1_555
C133A C134A 1_555 1_555

#END
