
#######################################################################
#
#                 Cambridge Crystallographic Data Centre
#                                CCDC 
#
#######################################################################
#
# If this CIF has been generated from an entry in the Cambridge 
# Structural Database, then it will include bibliographic, chemical, 
# crystal, experimental, refinement or atomic coordinate data resulting 
# from the CCDC's data processing and validation procedures.
#
#######################################################################

data_MENMUO
_chemical_formula_moiety         'C17 H13 Cl2 N3 O4'
_chemical_name_systematic        
'2-(3-Acetyl-5-(3,6-dichloropyridin-2-yl)-2,3-dihydro-1,3,4-oxadiazol-2-yl)phenyl acetate'
_chemical_properties_biological  'potential biological activity'
_symmetry_cell_setting           monoclinic
_symmetry_space_group_name_H-M   'P 21/c'
_symmetry_Int_Tables_number      14
_space_group_name_Hall           '-P 2ybc'
loop_
_symmetry_equiv_pos_site_id
_symmetry_equiv_pos_as_xyz
1 x,y,z
2 -x,1/2+y,1/2-z
3 -x,-y,-z
4 x,1/2-y,1/2+z
_cell_length_a                   11.839(4)
_cell_length_b                   7.917(3)
_cell_length_c                   19.255(7)
_cell_angle_alpha                90
_cell_angle_beta                 105.658(6)
_cell_angle_gamma                90
_cell_volume                     1737.78
_exptl_crystal_colour            colorless
_exptl_crystal_description       plate
_chemical_melting_point          '446 K'
_cell_formula_units_Z            4
_exptl_crystal_recrystallization_method 'ethyl acetate'
loop_
_atom_site_label
_atom_site_type_symbol
_atom_site_fract_x
_atom_site_fract_y
_atom_site_fract_z
Cl1 Cl 0.48052(4) 0.23291(5) 0.58331(2)
Cl2 Cl 0.04411(4) -0.21332(6) 0.55474(3)
O1 O 0.25459(9) -0.02089(14) 0.38154(5)
O2 O 0.45798(11) 0.17231(16) 0.25855(6)
O3 O 0.16906(10) 0.32542(14) 0.34882(6)
O4 O 0.25871(14) 0.54765(19) 0.31337(7)
N1 N 0.19930(12) -0.05955(16) 0.50423(7)
N2 N 0.40095(11) 0.16292(16) 0.42805(6)
N3 N 0.39041(11) 0.14552(17) 0.35489(7)
C1 C 0.32140(13) 0.06568(18) 0.43967(7)
C2 C 0.29341(13) 0.03139(19) 0.32006(7)
H1 H 0.3240 -0.0678 0.2986
C3 C 0.29372(13) 0.03905(18) 0.50851(7)
C4 C 0.35774(14) 0.10874(19) 0.57434(8)
C5 C 0.32249(15) 0.0743(2) 0.63595(8)
H2 H 0.3648 0.1198 0.6811
C6 C 0.22593(16) -0.0262(2) 0.63137(8)
H3 H 0.1999 -0.0520 0.6727
C7 C 0.16817(14) -0.0880(2) 0.56353(8)
C8 C 0.46718(14) 0.2126(2) 0.32090(9)
C9 C 0.55533(16) 0.3366(2) 0.36294(10)
H4 H 0.6284 0.3266 0.3486
H5 H 0.5708 0.3127 0.4146
H6 H 0.5243 0.4515 0.3531
C10 C 0.19631(13) 0.11692(19) 0.26380(7)
C11 C 0.13857(14) 0.26011(19) 0.27843(8)
C12 C 0.04761(14) 0.3348(2) 0.22653(9)
H7 H 0.0083 0.4310 0.2381
C13 C 0.01478(15) 0.2673(2) 0.15757(9)
H8 H -0.0467 0.3181 0.1214
C14 C 0.07173(15) 0.1258(2) 0.14134(8)
H9 H 0.0494 0.0801 0.0940
C15 C 0.16141(14) 0.0503(2) 0.19416(8)
H10 H 0.1993 -0.0476 0.1827
C16 C 0.22915(15) 0.4757(2) 0.35959(9)
C17 C 0.25322(17) 0.5307(2) 0.43643(9)
H11 H 0.3316 0.4926 0.4633
H12 H 0.1945 0.4813 0.4579
H13 H 0.2493 0.6542 0.4385
loop_
_geom_bond_atom_site_label_1
_geom_bond_atom_site_label_2
_geom_bond_site_symmetry_1
_geom_bond_site_symmetry_2
Cl1 C4 1_555 1_555
Cl2 C7 1_555 1_555
O1 C1 1_555 1_555
O2 C8 1_555 1_555
O3 C11 1_555 1_555
O4 C16 1_555 1_555
N1 C3 1_555 1_555
N2 N3 1_555 1_555
N3 C2 1_555 1_555
C1 N2 1_555 1_555
C2 O1 1_555 1_555
H1 C2 1_555 1_555
C3 C1 1_555 1_555
C4 C3 1_555 1_555
C5 C4 1_555 1_555
H2 C5 1_555 1_555
C6 C5 1_555 1_555
H3 C6 1_555 1_555
C7 N1 1_555 1_555
C8 N3 1_555 1_555
C9 C8 1_555 1_555
H4 C9 1_555 1_555
H5 C9 1_555 1_555
H6 C9 1_555 1_555
C10 C2 1_555 1_555
C11 C10 1_555 1_555
C12 C11 1_555 1_555
H7 C12 1_555 1_555
C13 C12 1_555 1_555
H8 C13 1_555 1_555
C14 C13 1_555 1_555
H9 C14 1_555 1_555
C15 C10 1_555 1_555
H10 C15 1_555 1_555
C16 O3 1_555 1_555
C17 C16 1_555 1_555
H11 C17 1_555 1_555
H12 C17 1_555 1_555
H13 C17 1_555 1_555
C6 C7 1_555 1_555
C14 C15 1_555 1_555

#END
