
#######################################################################
#
#                 Cambridge Crystallographic Data Centre
#                                CCDC 
#
#######################################################################
#
# If this CIF has been generated from an entry in the Cambridge 
# Structural Database, then it will include bibliographic, chemical, 
# crystal, experimental, refinement or atomic coordinate data resulting 
# from the CCDC's data processing and validation procedures.
#
#######################################################################

data_MENNEZ
_chemical_formula_moiety         'C23 H26 O6 S2'
_chemical_name_systematic        
'endo-Bicyclo(2.2.1)hept-2-ene-5,6-dimethylene bis(p-toluenesulfonate)'
_symmetry_cell_setting           monoclinic
_symmetry_space_group_name_H-M   'P 21/c'
_symmetry_Int_Tables_number      14
_space_group_name_Hall           '-P 2ybc'
loop_
_symmetry_equiv_pos_site_id
_symmetry_equiv_pos_as_xyz
1 x,y,z
2 -x,1/2+y,1/2-z
3 -x,-y,-z
4 x,1/2-y,1/2+z
_cell_length_a                   14.139(2)
_cell_length_b                   13.186(2)
_cell_length_c                   13.626(2)
_cell_angle_alpha                90
_cell_angle_beta                 115.424(3)
_cell_angle_gamma                90
_cell_volume                     2294.37
_exptl_crystal_colour            colorless
_exptl_crystal_description       prism
_chemical_melting_point          '359 K'
_cell_formula_units_Z            4
_exptl_crystal_recrystallization_method methanol
loop_
_atom_site_label
_atom_site_type_symbol
_atom_site_fract_x
_atom_site_fract_y
_atom_site_fract_z
S1 S 0.32786(6) 0.69143(6) 0.27444(5)
S2 S -0.04869(5) 0.70342(6) -0.18178(7)
O1 O 0.38189(18) 0.65607(18) 0.38228(14)
O2 O 0.29245(14) 0.59224(13) 0.20474(13)
O3 O 0.23935(16) 0.75632(15) 0.24536(16)
O4 O 0.01686(13) 0.60760(13) -0.12240(15)
O5 O -0.13657(15) 0.70151(16) -0.1565(2)
O6 O -0.06488(17) 0.70329(16) -0.29297(16)
C1 C 0.6287(2) 0.8781(2) 0.1197(2)
H1 H 0.6070 0.8593 0.0451
H2 H 0.6985 0.8538 0.1624
H3 H 0.6276 0.9507 0.1253
C2 C 0.5554(2) 0.83233(19) 0.16086(19)
C3 C 0.5840(2) 0.7499(2) 0.2298(2)
H4 H 0.6507 0.7227 0.2524
C4 C 0.5165(2) 0.7072(2) 0.2657(2)
H5 H 0.5373 0.6515 0.3121
C5 C 0.41666(19) 0.74737(19) 0.23273(18)
C6 C 0.3871(2) 0.8298(2) 0.1645(2)
H6 H 0.3206 0.8575 0.1420
C7 C 0.4565(2) 0.8711(2) 0.1298(2)
H7 H 0.4360 0.9270 0.0839
C8 C 0.2257(2) 0.6010(2) 0.0884(2)
H8 H 0.2542 0.6501 0.0554
H9 H 0.1556 0.6221 0.0756
C9 C 0.2237(2) 0.49729(19) 0.0424(2)
H10 H 0.1977 0.4495 0.0801
C10 C 0.3334(3) 0.4592(2) 0.0554(2)
H11 H 0.3836 0.4424 0.1297
C11 C 0.3713(2) 0.5310(3) -0.0031(3)
H12 H 0.4257 0.5772 0.0286
C12 C 0.3142(3) 0.5180(2) -0.1085(3)
H13 H 0.3220 0.5520 -0.1644
C13 C 0.2345(3) 0.4380(2) -0.1209(2)
H14 H 0.2037 0.4038 -0.1916
C14 C 0.1552(2) 0.4851(2) -0.0832(2)
H15 H 0.1005 0.4348 -0.0942
C15 C 0.2983(3) 0.3706(2) -0.0244(3)
H16 H 0.3560 0.3370 -0.0316
H17 H 0.2558 0.3217 -0.0081
C16 C 0.1036(2) 0.5788(2) -0.1475(2)
H18 H 0.1539 0.6337 -0.1288
H19 H 0.0778 0.5652 -0.2247
C17 C 0.03039(18) 0.80681(19) -0.1152(2)
C18 C 0.0796(2) 0.8628(2) -0.1649(2)
H20 H 0.0733 0.8444 -0.2333
C19 C 0.1382(2) 0.9462(2) -0.1130(2)
H21 H 0.1708 0.9840 -0.1474
C20 C 0.14981(18) 0.97486(19) -0.0113(2)
C21 C 0.1016(2) 0.9173(2) 0.0383(2)
H22 H 0.1092 0.9351 0.1073
C22 C 0.0421(2) 0.8336(2) -0.0124(2)
H23 H 0.0102 0.7954 0.0223
C23 C 0.2142(2) 1.0662(2) 0.0451(3)
H24 H 0.2871 1.0514 0.0682
H25 H 0.2018 1.0829 0.1071
H26 H 0.1947 1.1226 -0.0043
loop_
_geom_bond_atom_site_label_1
_geom_bond_atom_site_label_2
_geom_bond_site_symmetry_1
_geom_bond_site_symmetry_2
S1 O1 1_555 1_555
S2 O4 1_555 1_555
O2 S1 1_555 1_555
O3 S1 1_555 1_555
O4 C16 1_555 1_555
O5 S2 1_555 1_555
O6 S2 1_555 1_555
C1 H1 1_555 1_555
H2 C1 1_555 1_555
H3 C1 1_555 1_555
C2 C1 1_555 1_555
C3 C2 1_555 1_555
H4 C3 1_555 1_555
C4 C3 1_555 1_555
H5 C4 1_555 1_555
C5 S1 1_555 1_555
C6 C5 1_555 1_555
H6 C6 1_555 1_555
C7 C2 1_555 1_555
H7 C7 1_555 1_555
C8 O2 1_555 1_555
H8 C8 1_555 1_555
H9 C8 1_555 1_555
C9 C8 1_555 1_555
H10 C9 1_555 1_555
C10 C9 1_555 1_555
H11 C10 1_555 1_555
C11 C10 1_555 1_555
H12 C11 1_555 1_555
C12 C11 1_555 1_555
H13 C12 1_555 1_555
C13 C12 1_555 1_555
H14 C13 1_555 1_555
C14 C9 1_555 1_555
H15 C14 1_555 1_555
C15 C10 1_555 1_555
H16 C15 1_555 1_555
H17 C15 1_555 1_555
C16 C14 1_555 1_555
H18 C16 1_555 1_555
H19 C16 1_555 1_555
C17 S2 1_555 1_555
C18 C17 1_555 1_555
H20 C18 1_555 1_555
C19 C18 1_555 1_555
H21 C19 1_555 1_555
C20 C19 1_555 1_555
C21 C20 1_555 1_555
H22 C21 1_555 1_555
C22 C17 1_555 1_555
H23 C22 1_555 1_555
C23 C20 1_555 1_555
H24 C23 1_555 1_555
H25 C23 1_555 1_555
H26 C23 1_555 1_555
C4 C5 1_555 1_555
C6 C7 1_555 1_555
C13 C14 1_555 1_555
C13 C15 1_555 1_555
C21 C22 1_555 1_555

#END
