
#######################################################################
#
#                 Cambridge Crystallographic Data Centre
#                                CCDC 
#
#######################################################################
#
# If this CIF has been generated from an entry in the Cambridge 
# Structural Database, then it will include bibliographic, chemical, 
# crystal, experimental, refinement or atomic coordinate data resulting 
# from the CCDC's data processing and validation procedures.
#
#######################################################################

data_MENQUS
_chemical_formula_moiety         'C26 H14 F1 N1 O1'
_chemical_name_systematic        
13-(4-Fluorophenyl)-12H-benzo(f)indeno(1,2-b)quinolin-12-one
_symmetry_cell_setting           triclinic
_symmetry_space_group_name_H-M   'P -1'
_symmetry_Int_Tables_number      2
_space_group_name_Hall           '-P 1'
loop_
_symmetry_equiv_pos_site_id
_symmetry_equiv_pos_as_xyz
1 x,y,z
2 -x,-y,-z
_cell_length_a                   7.908(2)
_cell_length_b                   9.935(3)
_cell_length_c                   12.188(3)
_cell_angle_alpha                79.132(4)
_cell_angle_beta                 86.569(5)
_cell_angle_gamma                71.716(4)
_cell_volume                     892.91
_exptl_crystal_colour            yellow
_exptl_crystal_description       block
_chemical_melting_point          '573 K'
_cell_formula_units_Z            2
_exptl_crystal_recrystallization_method '95% aqueous ethanol'
loop_
_atom_site_label
_atom_site_type_symbol
_atom_site_fract_x
_atom_site_fract_y
_atom_site_fract_z
F1 F 0.3263(3) 0.6708(2) 0.45463(17)
N1 N 1.2107(3) 0.5659(3) 0.0226(2)
O1 O 0.6579(3) 0.8766(2) 0.12582(19)
C1 C 1.0663(4) 0.6763(3) 0.0226(2)
C2 C 1.0190(4) 0.8091(3) -0.0615(2)
C3 C 1.1082(4) 0.8493(3) -0.1566(2)
H1 H 1.2157 0.7880 -0.1773
C4 C 1.0308(5) 0.9856(4) -0.2206(3)
H2 H 1.0880 1.0161 -0.2850
C5 C 0.8696(5) 1.0762(4) -0.1894(3)
H3 H 0.8211 1.1666 -0.2331
C6 C 0.7798(4) 1.0347(3) -0.0945(3)
H4 H 0.6713 1.0953 -0.0744
C7 C 0.8567(4) 0.9003(3) -0.0303(3)
C8 C 0.7925(4) 0.8261(3) 0.0754(3)
C9 C 0.9314(3) 0.6824(3) 0.1046(2)
C10 C 0.9422(4) 0.5684(3) 0.1909(2)
C11 C 1.0991(3) 0.4453(3) 0.1963(2)
C12 C 1.1382(4) 0.3154(3) 0.2826(2)
C13 C 1.0287(4) 0.2926(3) 0.3759(2)
H5 H 0.9230 0.3645 0.3847
C14 C 1.0731(4) 0.1685(3) 0.4536(3)
H6 H 0.9972 0.1579 0.5137
C15 C 1.2293(4) 0.0580(3) 0.4444(3)
H7 H 1.2585 -0.0260 0.4977
C16 C 1.3396(4) 0.0747(3) 0.3559(3)
H8 H 1.4449 0.0011 0.3496
C17 C 1.2976(4) 0.2005(3) 0.2741(3)
C18 C 1.4154(4) 0.2127(3) 0.1830(3)
H9 H 1.5172 0.1357 0.1774
C19 C 1.3839(4) 0.3328(3) 0.1044(3)
H10 H 1.4651 0.3383 0.0466
C20 C 1.2272(4) 0.4513(3) 0.1091(2)
C21 C 0.7838(4) 0.5847(3) 0.2678(2)
C22 C 0.7730(4) 0.6493(3) 0.3605(3)
H11 H 0.8699 0.6739 0.3800
C23 C 0.6188(5) 0.6776(3) 0.4243(3)
H12 H 0.6105 0.7211 0.4864
C24 C 0.4801(4) 0.6397(3) 0.3931(3)
C25 C 0.4867(4) 0.5730(3) 0.3051(3)
H13 H 0.3903 0.5459 0.2882
C26 C 0.6407(4) 0.5458(3) 0.2405(3)
H14 H 0.6473 0.5015 0.1790
loop_
_geom_bond_atom_site_label_1
_geom_bond_atom_site_label_2
_geom_bond_site_symmetry_1
_geom_bond_site_symmetry_2
F1 C24 1_555 1_555
N1 C1 1_555 1_555
O1 C8 1_555 1_555
C1 C2 1_555 1_555
C2 C3 1_555 1_555
C3 H1 1_555 1_555
C4 C3 1_555 1_555
H2 C4 1_555 1_555
C5 C4 1_555 1_555
H3 C5 1_555 1_555
C6 C5 1_555 1_555
H4 C6 1_555 1_555
C7 C2 1_555 1_555
C8 C7 1_555 1_555
C9 C1 1_555 1_555
C10 C9 1_555 1_555
C11 C10 1_555 1_555
C12 C11 1_555 1_555
C13 C12 1_555 1_555
H5 C13 1_555 1_555
C14 C13 1_555 1_555
H6 C14 1_555 1_555
C15 C14 1_555 1_555
H7 C15 1_555 1_555
C16 C15 1_555 1_555
H8 C16 1_555 1_555
C17 C12 1_555 1_555
C18 C17 1_555 1_555
H9 C18 1_555 1_555
C19 C18 1_555 1_555
H10 C19 1_555 1_555
C20 N1 1_555 1_555
C21 C10 1_555 1_555
C22 C21 1_555 1_555
H11 C22 1_555 1_555
C23 C22 1_555 1_555
H12 C23 1_555 1_555
C24 C23 1_555 1_555
C25 C24 1_555 1_555
H13 C25 1_555 1_555
C26 C21 1_555 1_555
H14 C26 1_555 1_555
C6 C7 1_555 1_555
C8 C9 1_555 1_555
C11 C20 1_555 1_555
C16 C17 1_555 1_555
C19 C20 1_555 1_555
C25 C26 1_555 1_555

#END
