
#######################################################################
#
#                 Cambridge Crystallographic Data Centre
#                                CCDC 
#
#######################################################################
#
# If this CIF has been generated from an entry in the Cambridge 
# Structural Database, then it will include bibliographic, chemical, 
# crystal, experimental, refinement or atomic coordinate data resulting 
# from the CCDC's data processing and validation procedures.
#
#######################################################################

data_MENRAB
_chemical_formula_moiety         'C106 H66 B4 F40 O2 P2'
_chemical_name_systematic        
1,9-bis(1^2^,1^4^,1^6^,3^2^,3^4^,3^6^-hexamethyl[1^1^,2^1^:2^3^,3^1^-terphenyl]-2^2^-yl)-4,4,12,12,17,17,18,18-octakis(pentafluorophenyl)-5,13-dioxa-1\l^5^,9\l^5^-diphospha-4\l^5^,12\l^5^,17\l^5^,18\l^5^-tetraboratricyclo[12.2.1.1^6,9^]octadecane
_symmetry_cell_setting           orthorhombic
_symmetry_space_group_name_H-M   'P n a 21'
_symmetry_Int_Tables_number      33
_space_group_name_Hall           'P 2c -2n'
loop_
_symmetry_equiv_pos_site_id
_symmetry_equiv_pos_as_xyz
1 x,y,z
2 -x,-y,1/2+z
3 1/2+x,1/2-y,z
4 1/2-x,1/2+y,1/2+z
_cell_length_a                   23.2043(10)
_cell_length_b                   30.9754(12)
_cell_length_c                   14.8030(6)
_cell_angle_alpha                90
_cell_angle_beta                 90
_cell_angle_gamma                90
_cell_volume                     10639.8
_exptl_crystal_colour            colorless
_exptl_crystal_description       needle
_cell_formula_units_Z            4
loop_
_atom_site_label
_atom_site_type_symbol
_atom_site_fract_x
_atom_site_fract_y
_atom_site_fract_z
P1 P 0.27148(13) 0.24817(10) 0.4679(3)
P2 P 0.28150(12) 0.49508(9) 0.4502(3)
B1 B 0.3588(6) 0.2562(4) 0.4550(12)
B2 B 0.1971(6) 0.3598(5) 0.5993(12)
B3 B 0.2374(6) 0.4887(5) 0.5695(12)
B4 B 0.3911(6) 0.3848(4) 0.4059(11)
O1 O 0.3832(3) 0.3345(2) 0.4354(6)
O2 O 0.2167(3) 0.4102(2) 0.6001(6)
C1 C 0.2605(5) 0.2707(4) 0.3567(9)
H1 H 0.2676 0.2486 0.3098
H2 H 0.2204 0.2812 0.3503
C2 C 0.3034(5) 0.3085(4) 0.3464(10)
H3 H 0.3189 0.309 0.2841
H4 H 0.2833 0.3362 0.3573
C3 C 0.3511(5) 0.3036(4) 0.4115(10)
C4 C 0.2300(5) 0.2844(4) 0.5413(9)
H5 H 0.1886 0.2791 0.5297
H6 H 0.2376 0.2759 0.6047
C5 C 0.2404(6) 0.3332(4) 0.5335(10)
H7 H 0.2343 0.3424 0.4702
H8 H 0.2808 0.3397 0.55
C6 C 0.2425(5) 0.1933(4) 0.4803(10)
C7 C 0.2534(5) 0.1713(4) 0.5637(10)
C8 C 0.2412(6) 0.1265(4) 0.5672(11)
H9 H 0.2507 0.1108 0.6203
C9 C 0.2162(6) 0.1053(5) 0.4965(11)
H10 H 0.2097 0.0751 0.4999
C10 C 0.2008(5) 0.1275(4) 0.4215(11)
H11 H 0.1808 0.1127 0.375
C11 C 0.2129(5) 0.1715(4) 0.4095(10)
C12 C 0.2725(5) 0.1910(4) 0.6505(10)
C13 C 0.3287(6) 0.1839(4) 0.6867(11)
C14 C 0.3391(6) 0.2009(4) 0.7739(11)
H12 H 0.3763 0.1968 0.7994
C15 C 0.3008(6) 0.2221(4) 0.8219(11)
C16 C 0.2451(6) 0.2268(4) 0.7880(11)
H13 H 0.217 0.2419 0.8224
C17 C 0.2304(5) 0.2096(4) 0.7038(10)
C18 C 0.3740(6) 0.1583(4) 0.6414(11)
H14 H 0.4034 0.15 0.6856
H15 H 0.3917 0.1757 0.5936
H16 H 0.3568 0.1323 0.615
C19 C 0.3165(7) 0.2395(5) 0.9131(12)
H17 H 0.3406 0.2184 0.9449
H18 H 0.2814 0.2448 0.9481
H19 H 0.3379 0.2665 0.906
C20 C 0.1670(6) 0.2095(4) 0.6794(12)
H20 H 0.1619 0.2214 0.6186
H21 H 0.1456 0.2271 0.7229
H22 H 0.1523 0.1798 0.6808
C21 C 0.1883(5) 0.1924(4) 0.3272(10)
C22 C 0.1359(6) 0.2133(4) 0.3340(11)
C23 C 0.1121(7) 0.2313(5) 0.2552(12)
H23 H 0.0772 0.2471 0.2597
C24 C 0.1376(7) 0.2268(5) 0.1716(13)
C25 C 0.1880(7) 0.2044(5) 0.1661(12)
H24 H 0.2064 0.2009 0.1092
C26 C 0.2127(6) 0.1866(4) 0.2423(11)
C27 C 0.1032(6) 0.2168(4) 0.4216(10)
H25 H 0.1015 0.1885 0.4507
H26 H 0.064 0.2271 0.4095
H27 H 0.1228 0.2373 0.4616
C28 C 0.1075(9) 0.2462(7) 0.0885(14)
H28 H 0.1214 0.2757 0.0788
H29 H 0.0657 0.2467 0.0987
H30 H 0.1161 0.2286 0.0352
C29 C 0.2682(6) 0.1624(5) 0.2283(12)
H31 H 0.2778 0.1463 0.2833
H32 H 0.2991 0.1829 0.2146
H33 H 0.2637 0.1422 0.1779
C30 C 0.3798(5) 0.2239(4) 0.3733(10)
C31 C 0.3776(5) 0.1781(4) 0.3781(10)
C32 C 0.4030(6) 0.1507(5) 0.3165(11)
C33 C 0.4333(6) 0.1677(5) 0.2487(12)
C34 C 0.4359(6) 0.2123(5) 0.2372(11)
C35 C 0.4103(6) 0.2383(4) 0.3014(10)
C36 C 0.4022(5) 0.2580(4) 0.5432(10)
C37 C 0.4603(5) 0.2447(4) 0.5372(11)
C38 C 0.4970(5) 0.2480(4) 0.6078(11)
C39 C 0.4792(6) 0.2651(4) 0.6892(11)
C40 C 0.4236(5) 0.2779(4) 0.6979(10)
C41 C 0.3867(5) 0.2745(4) 0.6236(9)
C42 C 0.1298(6) 0.3624(4) 0.5675(11)
C43 C 0.1077(6) 0.3490(4) 0.4867(11)
C44 C 0.0509(5) 0.3560(4) 0.4588(11)
C45 C 0.0138(6) 0.3767(4) 0.5196(11)
C46 C 0.0332(6) 0.3893(5) 0.6015(12)
C47 C 0.0891(5) 0.3822(4) 0.6248(10)
C48 C 0.2089(6) 0.3480(4) 0.7060(11)
C49 C 0.1700(6) 0.3271(5) 0.7635(12)
C50 C 0.1817(7) 0.3221(5) 0.8544(13)
C51 C 0.2296(8) 0.3365(6) 0.8922(14)
C52 C 0.2724(7) 0.3555(5) 0.8372(12)
C53 C 0.2601(6) 0.3605(5) 0.7471(11)
F1 F 0.3496(3) 0.1590(2) 0.4464(7)
F2 F 0.3974(4) 0.1082(2) 0.3241(7)
F3 F 0.4597(4) 0.1415(3) 0.1873(7)
F4 F 0.4669(4) 0.2291(3) 0.1688(7)
F5 F 0.4197(3) 0.2813(2) 0.2882(6)
F6 F 0.4817(3) 0.2269(2) 0.4614(6)
F7 F 0.5525(3) 0.2335(3) 0.5979(6)
F8 F 0.5171(3) 0.2682(3) 0.7602(6)
F9 F 0.4058(3) 0.2955(2) 0.7754(6)
F10 F 0.3332(3) 0.2881(2) 0.6396(5)
F11 F 0.1410(3) 0.3304(2) 0.4233(6)
F12 F 0.0336(3) 0.3443(3) 0.3767(7)
F13 F -0.0415(3) 0.3828(3) 0.4923(7)
F14 F -0.0046(3) 0.4085(3) 0.6567(7)
F15 F 0.1054(3) 0.3982(2) 0.7049(6)
F16 F 0.1212(3) 0.3109(2) 0.7317(6)
F17 F 0.1416(5) 0.3016(3) 0.9065(7)
F18 F 0.2410(5) 0.3321(4) 0.9815(7)
F19 F 0.3213(4) 0.3700(3) 0.8738(7)
F20 F 0.3019(3) 0.3792(2) 0.6977(6)
C54 C 0.2222(5) 0.4703(4) 0.3855(10)
H34 H 0.1915 0.4918 0.3735
H35 H 0.2364 0.459 0.3271
C55 C 0.1988(5) 0.4328(4) 0.4457(9)
H36 H 0.1563 0.4314 0.4407
H37 H 0.2148 0.4049 0.4244
C56 C 0.2154(5) 0.4399(4) 0.5420(10)
C57 C 0.3432(5) 0.4599(3) 0.4257(9)
H38 H 0.3556 0.4657 0.3629
H39 H 0.3752 0.4687 0.4658
C58 C 0.3349(5) 0.4116(3) 0.4358(10)
H40 H 0.3018 0.4024 0.3983
H41 H 0.3257 0.4048 0.4995
C59 C 0.2982(5) 0.5500(4) 0.4112(10)
C60 C 0.2651(5) 0.5713(4) 0.3454(9)
C61 C 0.2717(5) 0.6156(4) 0.3361(10)
H42 H 0.2496 0.6302 0.2916
C62 C 0.3091(5) 0.6393(4) 0.3891(10)
H43 H 0.3103 0.6698 0.3846
C63 C 0.3447(6) 0.6178(4) 0.4488(11)
H44 H 0.3724 0.6337 0.4822
C64 C 0.3409(5) 0.5737(4) 0.4611(10)
C65 C 0.2294(5) 0.5510(4) 0.2737(10)
C66 C 0.2552(5) 0.5270(4) 0.2047(10)
C67 C 0.2217(6) 0.5090(4) 0.1347(11)
H45 H 0.2405 0.493 0.0886
C68 C 0.1632(6) 0.5135(5) 0.1305(11)
C69 C 0.1376(6) 0.5389(4) 0.1985(11)
H46 H 0.0971 0.5434 0.1962
C70 C 0.1681(5) 0.5574(4) 0.2681(10)
C71 C 0.3199(5) 0.5208(4) 0.1989(10)
H47 H 0.3393 0.5447 0.2295
H48 H 0.3316 0.52 0.1353
H49 H 0.3305 0.4935 0.2281
C72 C 0.1280(7) 0.4952(6) 0.0556(13)
H50 H 0.1293 0.5148 0.0036
H51 H 0.088 0.4919 0.0758
H52 H 0.1435 0.467 0.0383
C73 C 0.1361(6) 0.5821(5) 0.3377(11)
H53 H 0.102 0.5954 0.3102
H54 H 0.161 0.6046 0.3627
H55 H 0.124 0.5625 0.3862
C74 C 0.3887(5) 0.5543(4) 0.5165(10)
C75 C 0.4379(5) 0.5400(4) 0.4684(10)
C76 C 0.4849(6) 0.5259(4) 0.5167(10)
H56 H 0.5176 0.5158 0.4844
C77 C 0.4868(5) 0.5258(4) 0.6084(10)
C78 C 0.4401(6) 0.5429(4) 0.6548(11)
H57 H 0.441 0.5437 0.719
C79 C 0.3919(5) 0.5592(4) 0.6096(10)
C80 C 0.4417(6) 0.5434(5) 0.3704(11)
H58 H 0.4821 0.5411 0.3518
H59 H 0.4262 0.5713 0.3509
H60 H 0.4195 0.52 0.3425
C81 C 0.5384(6) 0.5095(5) 0.6570(12)
H61 H 0.571 0.5079 0.6151
H62 H 0.5303 0.4807 0.6813
H63 H 0.5479 0.5291 0.7067
C82 C 0.3464(6) 0.5823(4) 0.6639(10)
H64 H 0.3496 0.6135 0.6537
H65 H 0.3519 0.576 0.7282
H66 H 0.3082 0.5724 0.6449
C83 C 0.1790(5) 0.5208(4) 0.5607(10)
C84 C 0.1818(5) 0.5649(4) 0.5591(10)
C85 C 0.1344(6) 0.5928(4) 0.5541(11)
C86 C 0.0803(6) 0.5744(4) 0.5504(11)
C87 C 0.0752(6) 0.5316(4) 0.5558(11)
C88 C 0.1225(5) 0.5055(4) 0.5590(11)
C89 C 0.2669(6) 0.4891(4) 0.6658(10)
C90 C 0.2387(6) 0.5022(5) 0.7447(12)
C91 C 0.2624(7) 0.5006(5) 0.8290(13)
C92 C 0.3166(6) 0.4838(5) 0.8405(12)
C93 C 0.3471(6) 0.4702(4) 0.7662(11)
C94 C 0.3207(6) 0.4731(4) 0.6838(11)
C95 C 0.4465(5) 0.3967(4) 0.4701(10)
C96 C 0.4488(5) 0.3830(4) 0.5564(10)
C97 C 0.4981(6) 0.3861(5) 0.6136(12)
C98 C 0.5467(6) 0.4049(4) 0.5783(11)
C99 C 0.5441(5) 0.4222(4) 0.4949(10)
C100 C 0.4959(6) 0.4184(4) 0.4424(11)
C101 C 0.4053(6) 0.3826(4) 0.2960(10)
C102 C 0.3684(6) 0.3960(4) 0.2279(10)
C103 C 0.3808(7) 0.3941(5) 0.1374(12)
C104 C 0.4329(7) 0.3769(5) 0.1091(12)
C105 C 0.4711(7) 0.3626(5) 0.1727(12)
C106 C 0.4564(6) 0.3649(4) 0.2632(11)
F21 F 0.2338(3) 0.5852(2) 0.5613(6)
F22 F 0.1421(3) 0.6354(2) 0.5502(7)
F23 F 0.0345(3) 0.6001(3) 0.5387(7)
F24 F 0.0221(3) 0.5130(3) 0.5549(8)
F25 F 0.1126(3) 0.4631(2) 0.5697(7)
F26 F 0.1839(4) 0.5181(3) 0.7405(7)
F27 F 0.2318(4) 0.5134(3) 0.9031(6)
F28 F 0.3403(4) 0.4814(3) 0.9243(7)
F29 F 0.4003(4) 0.4549(3) 0.7777(7)
F30 F 0.3534(3) 0.4579(2) 0.6136(6)
F31 F 0.4023(3) 0.3649(2) 0.5957(5)
F32 F 0.4966(4) 0.3694(3) 0.6973(7)
F33 F 0.5938(3) 0.4068(2) 0.6308(6)
F34 F 0.5921(3) 0.4430(2) 0.4616(7)
F35 F 0.4985(3) 0.4375(2) 0.3599(6)
F36 F 0.3156(3) 0.4122(2) 0.2485(6)
F37 F 0.3423(4) 0.4087(3) 0.0768(7)
F38 F 0.4465(5) 0.3750(3) 0.0220(7)
F39 F 0.5216(4) 0.3457(3) 0.1472(7)
F40 F 0.4955(3) 0.3493(2) 0.3218(6)
loop_
_geom_bond_atom_site_label_1
_geom_bond_atom_site_label_2
_geom_bond_site_symmetry_1
_geom_bond_site_symmetry_2
P1 B1 1_555 1_555
P2 B3 1_555 1_555
B1 C3 1_555 1_555
B2 O2 1_555 1_555
B3 C56 1_555 1_555
B4 O1 1_555 1_555
O1 C3 1_555 1_555
O2 C56 1_555 1_555
C1 P1 1_555 1_555
H1 C1 1_555 1_555
H2 C1 1_555 1_555
C2 C1 1_555 1_555
H3 C2 1_555 1_555
H4 C2 1_555 1_555
C3 C2 1_555 1_555
C4 P1 1_555 1_555
H5 C4 1_555 1_555
H6 C4 1_555 1_555
C5 B2 1_555 1_555
H7 C5 1_555 1_555
H8 C5 1_555 1_555
C6 P1 1_555 1_555
C7 C6 1_555 1_555
C8 C7 1_555 1_555
H9 C8 1_555 1_555
C9 C8 1_555 1_555
H10 C9 1_555 1_555
C10 C9 1_555 1_555
H11 C10 1_555 1_555
C11 C6 1_555 1_555
C12 C7 1_555 1_555
C13 C12 1_555 1_555
C14 C13 1_555 1_555
H12 C14 1_555 1_555
C15 C14 1_555 1_555
C16 C15 1_555 1_555
H13 C16 1_555 1_555
C17 C12 1_555 1_555
C18 C13 1_555 1_555
H14 C18 1_555 1_555
H15 C18 1_555 1_555
H16 C18 1_555 1_555
C19 C15 1_555 1_555
H17 C19 1_555 1_555
H18 C19 1_555 1_555
H19 C19 1_555 1_555
C20 C17 1_555 1_555
H20 C20 1_555 1_555
H21 C20 1_555 1_555
H22 C20 1_555 1_555
C21 C11 1_555 1_555
C22 C21 1_555 1_555
C23 C22 1_555 1_555
H23 C23 1_555 1_555
C24 C23 1_555 1_555
C25 C24 1_555 1_555
H24 C25 1_555 1_555
C26 C21 1_555 1_555
C27 C22 1_555 1_555
H25 C27 1_555 1_555
H26 C27 1_555 1_555
H27 C27 1_555 1_555
C28 C24 1_555 1_555
H28 C28 1_555 1_555
H29 C28 1_555 1_555
H30 C28 1_555 1_555
C29 C26 1_555 1_555
H31 C29 1_555 1_555
H32 C29 1_555 1_555
H33 C29 1_555 1_555
C30 B1 1_555 1_555
C31 C30 1_555 1_555
C32 C31 1_555 1_555
C33 C32 1_555 1_555
C34 C33 1_555 1_555
C35 C30 1_555 1_555
C36 B1 1_555 1_555
C37 C36 1_555 1_555
C38 C37 1_555 1_555
C39 C38 1_555 1_555
C40 C39 1_555 1_555
C41 C36 1_555 1_555
C42 B2 1_555 1_555
C43 C42 1_555 1_555
C44 C43 1_555 1_555
C45 C44 1_555 1_555
C46 C45 1_555 1_555
C47 C42 1_555 1_555
C48 B2 1_555 1_555
C49 C48 1_555 1_555
C50 C49 1_555 1_555
C51 C50 1_555 1_555
C52 C51 1_555 1_555
C53 C48 1_555 1_555
F1 C31 1_555 1_555
F2 C32 1_555 1_555
F3 C33 1_555 1_555
F4 C34 1_555 1_555
F5 C35 1_555 1_555
F6 C37 1_555 1_555
F7 C38 1_555 1_555
F8 C39 1_555 1_555
F9 C40 1_555 1_555
F10 C41 1_555 1_555
F11 C43 1_555 1_555
F12 C44 1_555 1_555
F13 C45 1_555 1_555
F14 C46 1_555 1_555
F15 C47 1_555 1_555
F16 C49 1_555 1_555
F17 C50 1_555 1_555
F18 C51 1_555 1_555
F19 C52 1_555 1_555
F20 C53 1_555 1_555
C54 P2 1_555 1_555
H34 C54 1_555 1_555
H35 C54 1_555 1_555
C55 C54 1_555 1_555
H36 C55 1_555 1_555
H37 C55 1_555 1_555
C56 C55 1_555 1_555
C57 P2 1_555 1_555
H38 C57 1_555 1_555
H39 C57 1_555 1_555
C58 B4 1_555 1_555
H40 C58 1_555 1_555
H41 C58 1_555 1_555
C59 P2 1_555 1_555
C60 C59 1_555 1_555
C61 C60 1_555 1_555
H42 C61 1_555 1_555
C62 C61 1_555 1_555
H43 C62 1_555 1_555
C63 C62 1_555 1_555
H44 C63 1_555 1_555
C64 C59 1_555 1_555
C65 C60 1_555 1_555
C66 C65 1_555 1_555
C67 C66 1_555 1_555
H45 C67 1_555 1_555
C68 C67 1_555 1_555
C69 C68 1_555 1_555
H46 C69 1_555 1_555
C70 C65 1_555 1_555
C71 C66 1_555 1_555
H47 C71 1_555 1_555
H48 C71 1_555 1_555
H49 C71 1_555 1_555
C72 C68 1_555 1_555
H50 C72 1_555 1_555
H51 C72 1_555 1_555
H52 C72 1_555 1_555
C73 C70 1_555 1_555
H53 C73 1_555 1_555
H54 C73 1_555 1_555
H55 C73 1_555 1_555
C74 C64 1_555 1_555
C75 C74 1_555 1_555
C76 C75 1_555 1_555
H56 C76 1_555 1_555
C77 C76 1_555 1_555
C78 C77 1_555 1_555
H57 C78 1_555 1_555
C79 C74 1_555 1_555
C80 C75 1_555 1_555
H58 C80 1_555 1_555
H59 C80 1_555 1_555
H60 C80 1_555 1_555
C81 C77 1_555 1_555
H61 C81 1_555 1_555
H62 C81 1_555 1_555
H63 C81 1_555 1_555
C82 C79 1_555 1_555
H64 C82 1_555 1_555
H65 C82 1_555 1_555
H66 C82 1_555 1_555
C83 B3 1_555 1_555
C84 C83 1_555 1_555
C85 C84 1_555 1_555
C86 C85 1_555 1_555
C87 C86 1_555 1_555
C88 C83 1_555 1_555
C89 B3 1_555 1_555
C90 C89 1_555 1_555
C91 C90 1_555 1_555
C92 C91 1_555 1_555
C93 C92 1_555 1_555
C94 C89 1_555 1_555
C95 B4 1_555 1_555
C96 C95 1_555 1_555
C97 C96 1_555 1_555
C98 C97 1_555 1_555
C99 C98 1_555 1_555
C100 C95 1_555 1_555
C101 B4 1_555 1_555
C102 C101 1_555 1_555
C103 C102 1_555 1_555
C104 C103 1_555 1_555
C105 C104 1_555 1_555
C106 C101 1_555 1_555
F21 C84 1_555 1_555
F22 C85 1_555 1_555
F23 C86 1_555 1_555
F24 C87 1_555 1_555
F25 C88 1_555 1_555
F26 C90 1_555 1_555
F27 C91 1_555 1_555
F28 C92 1_555 1_555
F29 C93 1_555 1_555
F30 C94 1_555 1_555
F31 C96 1_555 1_555
F32 C97 1_555 1_555
F33 C98 1_555 1_555
F34 C99 1_555 1_555
F35 C100 1_555 1_555
F36 C102 1_555 1_555
F37 C103 1_555 1_555
F38 C104 1_555 1_555
F39 C105 1_555 1_555
F40 C106 1_555 1_555
C4 C5 1_555 1_555
C10 C11 1_555 1_555
C16 C17 1_555 1_555
C25 C26 1_555 1_555
C34 C35 1_555 1_555
C40 C41 1_555 1_555
C46 C47 1_555 1_555
C52 C53 1_555 1_555
C57 C58 1_555 1_555
C63 C64 1_555 1_555
C69 C70 1_555 1_555
C78 C79 1_555 1_555
C87 C88 1_555 1_555
C93 C94 1_555 1_555
C99 C100 1_555 1_555
C105 C106 1_555 1_555

#END
