
#######################################################################
#
#                 Cambridge Crystallographic Data Centre
#                                CCDC 
#
#######################################################################
#
# If this CIF has been generated from an entry in the Cambridge 
# Structural Database, then it will include bibliographic, chemical, 
# crystal, experimental, refinement or atomic coordinate data resulting 
# from the CCDC's data processing and validation procedures.
#
#######################################################################

data_MENREF
_chemical_formula_moiety         'C40 H34 B1 F10 P1,1.5(C1 H2 Cl2)'
_chemical_name_systematic        
'1-(2,6-dimesitylphenyl)-4,4-bis(pentafluorophenyl)-1-phosphonia-4-boratacyclohexane dichloromethane solvate'
_symmetry_cell_setting           monoclinic
_symmetry_space_group_name_H-M   'P 21/n'
_symmetry_Int_Tables_number      14
_space_group_name_Hall           '-P 2yn'
loop_
_symmetry_equiv_pos_site_id
_symmetry_equiv_pos_as_xyz
1 x,y,z
2 1/2-x,1/2+y,1/2-z
3 -x,-y,-z
4 1/2+x,1/2-y,1/2+z
_cell_length_a                   13.2212(8)
_cell_length_b                   16.1944(12)
_cell_length_c                   19.5088(13)
_cell_angle_alpha                90
_cell_angle_beta                 94.223(2)
_cell_angle_gamma                90
_cell_volume                     4165.68
_exptl_crystal_colour            colorless
_exptl_crystal_description       plate
_cell_formula_units_Z            4
loop_
_atom_site_label
_atom_site_type_symbol
_atom_site_fract_x
_atom_site_fract_y
_atom_site_fract_z
P1 P 0.74665(6) 0.62457(6) 0.47702(4)
H1 H 0.770(2) 0.6016(17) 0.4153(14)
B1 B 0.7483(3) 0.4419(2) 0.54560(19)
C1 C 0.6338(2) 0.5694(2) 0.49296(17)
H2 H 0.6102 0.5866 0.5378
H3 H 0.5798 0.5828 0.4568
C2 C 0.6533(2) 0.47563(19) 0.49368(16)
H4 H 0.6654 0.4582 0.4463
H5 H 0.5906 0.4477 0.5062
C3 C 0.8445(2) 0.5865(2) 0.53678(17)
H6 H 0.9101 0.6129 0.5285
H7 H 0.8284 0.5991 0.5844
C4 C 0.8513(2) 0.4921(2) 0.52637(17)
H8 H 0.91 0.4706 0.5553
H9 H 0.8636 0.4808 0.4778
C5 C 0.7258(2) 0.7343(2) 0.46868(16)
C6 C 0.7032(2) 0.7832(2) 0.52574(16)
C7 C 0.6786(3) 0.8659(2) 0.51527(17)
H10 H 0.6628 0.899 0.5533
C8 C 0.6766(3) 0.9009(2) 0.45042(18)
H11 H 0.6594 0.9575 0.4441
C9 C 0.6998(3) 0.8531(2) 0.39490(17)
H12 H 0.6982 0.8776 0.3506
C10 C 0.7253(2) 0.7703(2) 0.40232(16)
C11 C 0.7048(2) 0.7501(2) 0.59742(16)
C12 C 0.6142(2) 0.7245(2) 0.62431(16)
C13 C 0.6164(3) 0.6980(2) 0.69226(16)
H13 H 0.5552 0.6801 0.7101
C14 C 0.7055(3) 0.6972(2) 0.73476(16)
C15 C 0.7943(3) 0.7245(2) 0.70724(17)
H14 H 0.8557 0.725 0.7358
C16 C 0.7956(3) 0.7508(2) 0.63966(17)
C17 C 0.5138(2) 0.7290(2) 0.58264(17)
H15 H 0.4819 0.7825 0.5902
H16 H 0.4695 0.6846 0.5969
H17 H 0.5247 0.7227 0.5338
C18 C 0.7060(3) 0.6722(2) 0.80906(16)
H18 H 0.7687 0.6421 0.8224
H19 H 0.6475 0.6366 0.8155
H20 H 0.7022 0.7216 0.8377
C19 C 0.8935(3) 0.7825(3) 0.61375(19)
H21 H 0.9048 0.7561 0.5698
H22 H 0.95 0.7696 0.6473
H23 H 0.8889 0.8425 0.6073
C20 C 0.7515(2) 0.7230(2) 0.33975(16)
C21 C 0.6744(2) 0.6868(2) 0.29613(16)
C22 C 0.7010(3) 0.6453(2) 0.23788(16)
H24 H 0.6491 0.6211 0.2081
C23 C 0.8013(3) 0.6381(2) 0.22177(16)
C24 C 0.8758(3) 0.6745(2) 0.26547(17)
H25 H 0.9446 0.6701 0.255
C25 C 0.8530(2) 0.7174(2) 0.32433(16)
C26 C 0.5640(3) 0.6913(3) 0.31114(19)
H26 H 0.5509 0.6517 0.3475
H27 H 0.5213 0.6778 0.2694
H28 H 0.5482 0.7472 0.3263
C27 C 0.8279(3) 0.5911(3) 0.15863(19)
H29 H 0.8527 0.6297 0.125
H30 H 0.7674 0.5627 0.1384
H31 H 0.8808 0.5504 0.1715
C28 C 0.9366(3) 0.7561(3) 0.37033(19)
H32 H 1.002 0.7456 0.3515
H33 H 0.9367 0.7322 0.4165
H34 H 0.9253 0.8158 0.3729
C29 C 0.7339(2) 0.4519(2) 0.62919(16)
C30 C 0.6479(2) 0.4771(2) 0.66032(16)
F1 F 0.56216(13) 0.49878(13) 0.62170(9)
C31 C 0.6389(3) 0.4806(2) 0.73080(17)
F2 F 0.55196(15) 0.50508(14) 0.75611(10)
C32 C 0.7200(3) 0.4588(2) 0.77450(16)
F3 F 0.71414(18) 0.46347(14) 0.84345(9)
C33 C 0.8072(3) 0.4324(2) 0.74794(17)
F4 F 0.88777(17) 0.40924(15) 0.79066(10)
C34 C 0.8114(3) 0.4286(2) 0.67736(17)
F5 F 0.89904(15) 0.39754(14) 0.65577(10)
C35 C 0.7544(2) 0.3410(2) 0.53284(15)
C36 C 0.6733(2) 0.2902(2) 0.54881(16)
F6 F 0.59214(13) 0.32505(12) 0.57638(9)
C37 C 0.6688(2) 0.2065(2) 0.53993(16)
F7 F 0.58793(14) 0.16267(12) 0.55867(10)
C38 C 0.7484(3) 0.1661(2) 0.51366(17)
F8 F 0.74663(16) 0.08338(12) 0.50675(10)
C39 C 0.8300(2) 0.2115(2) 0.49620(16)
F9 F 0.90897(15) 0.17286(13) 0.46958(11)
C40 C 0.8313(2) 0.2958(2) 0.50590(16)
F10 F 0.91665(13) 0.33453(12) 0.48761(10)
loop_
_geom_bond_atom_site_label_1
_geom_bond_atom_site_label_2
_geom_bond_site_symmetry_1
_geom_bond_site_symmetry_2
P1 H1 1_555 1_555
B1 C2 1_555 1_555
C1 P1 1_555 1_555
H2 C1 1_555 1_555
H3 C1 1_555 1_555
C2 C1 1_555 1_555
H4 C2 1_555 1_555
H5 C2 1_555 1_555
C3 P1 1_555 1_555
H6 C3 1_555 1_555
H7 C3 1_555 1_555
C4 B1 1_555 1_555
H8 C4 1_555 1_555
H9 C4 1_555 1_555
C5 P1 1_555 1_555
C6 C5 1_555 1_555
C7 C6 1_555 1_555
H10 C7 1_555 1_555
C8 C7 1_555 1_555
H11 C8 1_555 1_555
C9 C8 1_555 1_555
H12 C9 1_555 1_555
C10 C5 1_555 1_555
C11 C6 1_555 1_555
C12 C11 1_555 1_555
C13 C12 1_555 1_555
H13 C13 1_555 1_555
C14 C13 1_555 1_555
C15 C14 1_555 1_555
H14 C15 1_555 1_555
C16 C11 1_555 1_555
C17 C12 1_555 1_555
H15 C17 1_555 1_555
H16 C17 1_555 1_555
H17 C17 1_555 1_555
C18 C14 1_555 1_555
H18 C18 1_555 1_555
H19 C18 1_555 1_555
H20 C18 1_555 1_555
C19 C16 1_555 1_555
H21 C19 1_555 1_555
H22 C19 1_555 1_555
H23 C19 1_555 1_555
C20 C10 1_555 1_555
C21 C20 1_555 1_555
C22 C21 1_555 1_555
H24 C22 1_555 1_555
C23 C22 1_555 1_555
C24 C23 1_555 1_555
H25 C24 1_555 1_555
C25 C20 1_555 1_555
C26 C21 1_555 1_555
H26 C26 1_555 1_555
H27 C26 1_555 1_555
H28 C26 1_555 1_555
C27 C23 1_555 1_555
H29 C27 1_555 1_555
H30 C27 1_555 1_555
H31 C27 1_555 1_555
C28 C25 1_555 1_555
H32 C28 1_555 1_555
H33 C28 1_555 1_555
H34 C28 1_555 1_555
C29 B1 1_555 1_555
C30 C29 1_555 1_555
F1 C30 1_555 1_555
C31 C30 1_555 1_555
F2 C31 1_555 1_555
C32 C31 1_555 1_555
F3 C32 1_555 1_555
C33 C32 1_555 1_555
F4 C33 1_555 1_555
C34 C29 1_555 1_555
F5 C34 1_555 1_555
C35 B1 1_555 1_555
C36 C35 1_555 1_555
F6 C36 1_555 1_555
C37 C36 1_555 1_555
F7 C37 1_555 1_555
C38 C37 1_555 1_555
F8 C38 1_555 1_555
C39 C38 1_555 1_555
F9 C39 1_555 1_555
C40 C35 1_555 1_555
F10 C40 1_555 1_555
C3 C4 1_555 1_555
C9 C10 1_555 1_555
C15 C16 1_555 1_555
C24 C25 1_555 1_555
C33 C34 1_555 1_555
C39 C40 1_555 1_555

#END
