
#######################################################################
#
#                 Cambridge Crystallographic Data Centre
#                                CCDC 
#
#######################################################################
#
# If this CIF has been generated from an entry in the Cambridge 
# Structural Database, then it will include bibliographic, chemical, 
# crystal, experimental, refinement or atomic coordinate data resulting 
# from the CCDC's data processing and validation procedures.
#
#######################################################################

data_MENROP
_chemical_formula_moiety         'C34 H38 B1 F10 P1'
_chemical_name_systematic        
1-(2,4,6-tri-t-butylphenyl)-4,4-bis(pentafluorophenyl)-1-phosphonia-4-boratacyclohexane
_symmetry_cell_setting           triclinic
_symmetry_space_group_name_H-M   'P -1'
_symmetry_Int_Tables_number      2
_space_group_name_Hall           '-P 1'
loop_
_symmetry_equiv_pos_site_id
_symmetry_equiv_pos_as_xyz
1 x,y,z
2 -x,-y,-z
_cell_length_a                   13.2091(5)
_cell_length_b                   14.4202(6)
_cell_length_c                   17.4143(7)
_cell_angle_alpha                102.465(2)
_cell_angle_beta                 96.491(2)
_cell_angle_gamma                91.561(2)
_cell_volume                     3213.53
_exptl_crystal_colour            colorless
_exptl_crystal_description       needle
_cell_formula_units_Z            4
loop_
_atom_site_label
_atom_site_type_symbol
_atom_site_fract_x
_atom_site_fract_y
_atom_site_fract_z
P1 P 0.30543(16) 0.61442(14) 0.27686(12)
H1 H 0.368(4) 0.616(5) 0.334(3)
B1 B 0.3301(7) 0.8416(6) 0.2971(5)
C1 C 0.2107(6) 0.6929(5) 0.3159(5)
H2 H 0.1546 0.6938 0.2733
H3 H 0.1816 0.6687 0.3583
C2 C 0.2571(6) 0.7950(5) 0.3498(5)
H4 H 0.2972 0.7958 0.4015
H5 H 0.2001 0.8373 0.3603
C3 C 0.3838(6) 0.6714(5) 0.2196(5)
H6 H 0.4421 0.6324 0.2051
H7 H 0.3433 0.6798 0.1704
C4 C 0.4220(6) 0.7688(5) 0.2728(4)
H8 H 0.4696 0.8000 0.2449
H9 H 0.4609 0.7583 0.3219
C5 C 0.2616(6) 0.4889(5) 0.2469(4)
C6 C 0.1983(6) 0.4507(5) 0.1754(4)
C7 C 0.1516(6) 0.3599(5) 0.1659(5)
H10 H 0.1064 0.3346 0.1192
C8 C 0.1691(6) 0.3058(5) 0.2224(4)
C9 C 0.2355(6) 0.3439(5) 0.2903(4)
H11 H 0.2478 0.3068 0.3290
C10 C 0.2847(6) 0.4329(5) 0.3046(4)
C11 C 0.1838(6) 0.4936(5) 0.1011(4)
C12 C 0.1042(7) 0.4362(6) 0.0351(5)
H12 H 0.0969 0.4675 -0.0097
H13 H 0.0383 0.4330 0.0556
H14 H 0.1267 0.3717 0.0175
C13 C 0.1425(7) 0.5958(5) 0.1167(5)
H15 H 0.1916 0.6394 0.1551
H16 H 0.0770 0.5944 0.1380
H17 H 0.1331 0.6175 0.0669
C14 C 0.2867(7) 0.4906(6) 0.0675(5)
H18 H 0.3077 0.4249 0.0556
H19 H 0.3383 0.5302 0.1066
H20 H 0.2797 0.5148 0.0188
C15 C 0.1201(7) 0.2051(5) 0.2114(5)
C16 C 0.0539(9) 0.1719(6) 0.1322(6)
H21 H 0.0953 0.1728 0.0890
H22 H -0.0022 0.2145 0.1287
H23 H 0.0260 0.1070 0.1278
C17 C 0.0552(9) 0.2020(7) 0.2777(6)
H24 H 0.0262 0.1372 0.2716
H25 H -0.0001 0.2456 0.2753
H26 H 0.0977 0.2212 0.3290
C18 C 0.2049(8) 0.1355(6) 0.2140(6)
H27 H 0.2418 0.1321 0.1678
H28 H 0.1750 0.0723 0.2132
H29 H 0.2522 0.1573 0.2625
C19 C 0.3645(6) 0.4604(5) 0.3796(4)
C20 C 0.3807(7) 0.3763(6) 0.4210(5)
H30 H 0.4013 0.3213 0.3834
H31 H 0.3169 0.3595 0.4398
H32 H 0.4341 0.3947 0.4662
C21 C 0.4702(6) 0.4814(6) 0.3556(5)
H33 H 0.4977 0.4218 0.3299
H34 H 0.5164 0.5117 0.4030
H35 H 0.4636 0.5242 0.3188
C22 C 0.3298(7) 0.5409(6) 0.4431(5)
H36 H 0.3706 0.5428 0.4942
H37 H 0.2576 0.5291 0.4478
H38 H 0.3392 0.6018 0.4279
C23 C 0.2720(6) 0.8646(5) 0.2126(4)
F1 F 0.1018(4) 0.8185(3) 0.2257(3)
C24 C 0.1701(6) 0.8511(5) 0.1833(5)
F2 F 0.0268(4) 0.8530(4) 0.0892(4)
C25 C 0.1274(7) 0.8707(5) 0.1123(5)
F3 F 0.1474(5) 0.9255(4) -0.0030(3)
C26 C 0.1875(8) 0.9056(6) 0.0659(5)
F4 F 0.3511(4) 0.9608(4) 0.0476(3)
C27 C 0.2905(7) 0.9228(6) 0.0922(5)
F5 F 0.4299(4) 0.9251(3) 0.1841(3)
C28 C 0.3283(6) 0.9027(6) 0.1629(4)
C29 C 0.3777(6) 0.9468(5) 0.3519(4)
F6 F 0.2099(3) 1.0029(3) 0.3502(3)
C30 C 0.3118(6) 1.0173(5) 0.3749(5)
F7 F 0.2709(4) 1.1712(3) 0.4423(3)
C31 C 0.3407(6) 1.1059(6) 0.4228(5)
F8 F 0.4725(4) 1.2112(3) 0.5006(3)
C32 C 0.4419(6) 1.1259(5) 0.4517(5)
F9 F 0.6103(4) 1.0791(3) 0.4574(3)
C33 C 0.5110(6) 1.0603(6) 0.4311(5)
F10 F 0.5535(4) 0.9124(3) 0.3660(3)
C34 C 0.4779(6) 0.9733(5) 0.3815(4)
P2 P -0.20098(17) -0.22614(14) 0.27088(12)
H39 H -0.141(4) -0.200(4) 0.330(2)
B2 B -0.1731(7) -0.4415(6) 0.2894(5)
C35 C -0.2965(6) -0.2894(5) 0.3091(5)
H40 H -0.3262 -0.2450 0.3514
H41 H -0.3521 -0.3157 0.2662
C36 C -0.2479(6) -0.3716(5) 0.3430(4)
H42 H -0.3041 -0.4121 0.3535
H43 H -0.2080 -0.3430 0.3947
C37 C -0.1268(6) -0.3088(5) 0.2126(5)
H44 H -0.1699 -0.3456 0.1650
H45 H -0.0705 -0.2747 0.1952
C38 C -0.0829(6) -0.3766(5) 0.2649(4)
H46 H -0.0434 -0.3384 0.3137
H47 H -0.0357 -0.4190 0.2357
C39 C -0.2433(6) -0.1168(5) 0.2443(4)
C40 C -0.3084(6) -0.1139(5) 0.1740(4)
C41 C -0.3497(6) -0.0273(5) 0.1673(4)
H48 H -0.3924 -0.0246 0.1202
C42 C -0.3312(6) 0.0544(5) 0.2263(4)
C43 C -0.2646(6) 0.0504(5) 0.2921(4)
H49 H -0.2504 0.1071 0.3320
C44 C -0.2168(6) -0.0308(5) 0.3042(4)
C45 C -0.3267(6) -0.1951(5) 0.0978(4)
C46 C -0.4059(7) -0.1701(6) 0.0342(5)
H50 H -0.3800 -0.1145 0.0170
H51 H -0.4700 -0.1556 0.0565
H52 H -0.4180 -0.2242 -0.0113
C47 C -0.3688(6) -0.2893(5) 0.1132(5)
H53 H -0.3874 -0.3348 0.0625
H54 H -0.4292 -0.2776 0.1410
H55 H -0.3165 -0.3155 0.1458
C48 C -0.2261(7) -0.2049(6) 0.0608(5)
H56 H -0.1736 -0.2253 0.0971
H57 H -0.2041 -0.1434 0.0511
H58 H -0.2364 -0.2522 0.0105
C49 C -0.3745(7) 0.1485(5) 0.2180(4)
C50 C -0.4457(8) 0.1407(6) 0.1404(5)
H59 H -0.4086 0.1162 0.0953
H60 H -0.4694 0.2037 0.1371
H61 H -0.5045 0.0974 0.1394
C51 C -0.4345(8) 0.1871(6) 0.2872(5)
H62 H -0.4949 0.1449 0.2842
H63 H -0.4559 0.2509 0.2843
H64 H -0.3912 0.1902 0.3373
C52 C -0.2854(7) 0.2196(6) 0.2184(5)
H65 H -0.2404 0.2281 0.2684
H66 H -0.3122 0.2809 0.2131
H67 H -0.2469 0.1952 0.1741
C53 C -0.1367(6) -0.0196(5) 0.3787(4)
C54 C -0.1184(7) 0.0865(6) 0.4214(5)
H68 H -0.0639 0.0930 0.4656
H69 H -0.1812 0.1103 0.4416
H70 H -0.0984 0.1235 0.3839
C55 C -0.0321(6) -0.0511(6) 0.3554(5)
H71 H -0.0401 -0.1144 0.3201
H72 H 0.0140 -0.0532 0.4032
H73 H -0.0034 -0.0057 0.3280
C56 C -0.1752(7) -0.0683(6) 0.4427(5)
H74 H -0.1768 -0.1375 0.4240
H75 H -0.2440 -0.0486 0.4520
H76 H -0.1290 -0.0493 0.4922
C57 C -0.2312(6) -0.5148(5) 0.2066(4)
F11 F -0.4019(3) -0.4698(3) 0.2171(3)
C58 C -0.3338(6) -0.5242(5) 0.1772(5)
F12 F -0.4761(4) -0.5885(4) 0.0843(3)
C59 C -0.3759(6) -0.5852(6) 0.1084(5)
F13 F -0.3526(4) -0.7067(3) -0.0027(3)
C60 C -0.3142(8) -0.6451(6) 0.0652(5)
F14 F -0.1498(4) -0.7003(3) 0.0493(3)
C61 C -0.2116(7) -0.6414(5) 0.0902(4)
F15 F -0.0716(3) -0.5805(3) 0.1812(3)
C62 C -0.1733(5) -0.5779(5) 0.1595(4)
C63 C -0.1264(6) -0.5152(5) 0.3462(4)
F16 F -0.2939(3) -0.5777(3) 0.3484(3)
C64 C -0.1916(6) -0.5765(5) 0.3717(4)
F17 F -0.2306(4) -0.6967(3) 0.4398(3)
C65 C -0.1620(7) -0.6389(5) 0.4188(5)
F18 F -0.0277(4) -0.6992(3) 0.4924(3)
C66 C -0.0605(7) -0.6408(5) 0.4455(5)
F19 F 0.1098(4) -0.5854(3) 0.4468(3)
C67 C 0.0091(7) -0.5832(6) 0.4223(5)
F20 F 0.0504(4) -0.4688(3) 0.3546(3)
C68 C -0.0232(7) -0.5224(5) 0.3739(4)
loop_
_geom_bond_atom_site_label_1
_geom_bond_atom_site_label_2
_geom_bond_site_symmetry_1
_geom_bond_site_symmetry_2
P1 H1 1_555 1_555
B1 C2 1_555 1_555
C1 P1 1_555 1_555
H2 C1 1_555 1_555
H3 C1 1_555 1_555
C2 C1 1_555 1_555
H4 C2 1_555 1_555
H5 C2 1_555 1_555
C3 P1 1_555 1_555
H6 C3 1_555 1_555
H7 C3 1_555 1_555
C4 B1 1_555 1_555
H8 C4 1_555 1_555
H9 C4 1_555 1_555
C5 P1 1_555 1_555
C6 C5 1_555 1_555
C7 C6 1_555 1_555
H10 C7 1_555 1_555
C8 C7 1_555 1_555
C9 C8 1_555 1_555
H11 C9 1_555 1_555
C10 C5 1_555 1_555
C11 C6 1_555 1_555
C12 C11 1_555 1_555
H12 C12 1_555 1_555
H13 C12 1_555 1_555
H14 C12 1_555 1_555
C13 C11 1_555 1_555
H15 C13 1_555 1_555
H16 C13 1_555 1_555
H17 C13 1_555 1_555
C14 C11 1_555 1_555
H18 C14 1_555 1_555
H19 C14 1_555 1_555
H20 C14 1_555 1_555
C15 C8 1_555 1_555
C16 C15 1_555 1_555
H21 C16 1_555 1_555
H22 C16 1_555 1_555
H23 C16 1_555 1_555
C17 C15 1_555 1_555
H24 C17 1_555 1_555
H25 C17 1_555 1_555
H26 C17 1_555 1_555
C18 C15 1_555 1_555
H27 C18 1_555 1_555
H28 C18 1_555 1_555
H29 C18 1_555 1_555
C19 C10 1_555 1_555
C20 C19 1_555 1_555
H30 C20 1_555 1_555
H31 C20 1_555 1_555
H32 C20 1_555 1_555
C21 C19 1_555 1_555
H33 C21 1_555 1_555
H34 C21 1_555 1_555
H35 C21 1_555 1_555
C22 C19 1_555 1_555
H36 C22 1_555 1_555
H37 C22 1_555 1_555
H38 C22 1_555 1_555
C23 B1 1_555 1_555
F1 C24 1_555 1_555
C24 C23 1_555 1_555
F2 C25 1_555 1_555
C25 C24 1_555 1_555
F3 C26 1_555 1_555
C26 C25 1_555 1_555
F4 C27 1_555 1_555
C27 C26 1_555 1_555
F5 C28 1_555 1_555
C28 C23 1_555 1_555
C29 B1 1_555 1_555
F6 C30 1_555 1_555
C30 C29 1_555 1_555
F7 C31 1_555 1_555
C31 C30 1_555 1_555
F8 C32 1_555 1_555
C32 C31 1_555 1_555
F9 C33 1_555 1_555
C33 C32 1_555 1_555
F10 C34 1_555 1_555
C34 C29 1_555 1_555
P2 H39 1_555 1_555
B2 C36 1_555 1_555
C35 P2 1_555 1_555
H40 C35 1_555 1_555
H41 C35 1_555 1_555
C36 C35 1_555 1_555
H42 C36 1_555 1_555
H43 C36 1_555 1_555
C37 P2 1_555 1_555
H44 C37 1_555 1_555
H45 C37 1_555 1_555
C38 B2 1_555 1_555
H46 C38 1_555 1_555
H47 C38 1_555 1_555
C39 P2 1_555 1_555
C40 C39 1_555 1_555
C41 C40 1_555 1_555
H48 C41 1_555 1_555
C42 C41 1_555 1_555
C43 C42 1_555 1_555
H49 C43 1_555 1_555
C44 C39 1_555 1_555
C45 C40 1_555 1_555
C46 C45 1_555 1_555
H50 C46 1_555 1_555
H51 C46 1_555 1_555
H52 C46 1_555 1_555
C47 C45 1_555 1_555
H53 C47 1_555 1_555
H54 C47 1_555 1_555
H55 C47 1_555 1_555
C48 C45 1_555 1_555
H56 C48 1_555 1_555
H57 C48 1_555 1_555
H58 C48 1_555 1_555
C49 C42 1_555 1_555
C50 C49 1_555 1_555
H59 C50 1_555 1_555
H60 C50 1_555 1_555
H61 C50 1_555 1_555
C51 C49 1_555 1_555
H62 C51 1_555 1_555
H63 C51 1_555 1_555
H64 C51 1_555 1_555
C52 C49 1_555 1_555
H65 C52 1_555 1_555
H66 C52 1_555 1_555
H67 C52 1_555 1_555
C53 C44 1_555 1_555
C54 C53 1_555 1_555
H68 C54 1_555 1_555
H69 C54 1_555 1_555
H70 C54 1_555 1_555
C55 C53 1_555 1_555
H71 C55 1_555 1_555
H72 C55 1_555 1_555
H73 C55 1_555 1_555
C56 C53 1_555 1_555
H74 C56 1_555 1_555
H75 C56 1_555 1_555
H76 C56 1_555 1_555
C57 B2 1_555 1_555
F11 C58 1_555 1_555
C58 C57 1_555 1_555
F12 C59 1_555 1_555
C59 C58 1_555 1_555
F13 C60 1_555 1_555
C60 C59 1_555 1_555
F14 C61 1_555 1_555
C61 C60 1_555 1_555
F15 C62 1_555 1_555
C62 C57 1_555 1_555
C63 B2 1_555 1_555
F16 C64 1_555 1_555
C64 C63 1_555 1_555
F17 C65 1_555 1_555
C65 C64 1_555 1_555
F18 C66 1_555 1_555
C66 C65 1_555 1_555
F19 C67 1_555 1_555
C67 C66 1_555 1_555
F20 C68 1_555 1_555
C68 C63 1_555 1_555
C3 C4 1_555 1_555
C9 C10 1_555 1_555
C27 C28 1_555 1_555
C33 C34 1_555 1_555
C37 C38 1_555 1_555
C43 C44 1_555 1_555
C61 C62 1_555 1_555
C67 C68 1_555 1_555

#END
