
#######################################################################
#
#                 Cambridge Crystallographic Data Centre
#                                CCDC 
#
#######################################################################
#
# If this CIF has been generated from an entry in the Cambridge 
# Structural Database, then it will include bibliographic, chemical, 
# crystal, experimental, refinement or atomic coordinate data resulting 
# from the CCDC's data processing and validation procedures.
#
#######################################################################

data_MENSII
_chemical_formula_moiety         'C19 H18 O8'
_chemical_name_systematic        3',5-Dihydroxy-3,4',6,7-tetramethoxyflavone
_chemical_properties_biological  
'analgesic and anti-inflammatory properties; inhibits proliferation of lymphocytes and growth of some cancer cells'
_symmetry_cell_setting           monoclinic
_symmetry_space_group_name_H-M   'C 2/c'
_symmetry_Int_Tables_number      15
_space_group_name_Hall           '-C 2yn'
loop_
_symmetry_equiv_pos_site_id
_symmetry_equiv_pos_as_xyz
1 x,y,z
2 1/2+x,1/2+y,z
3 -x,y,1/2-z
4 1/2-x,1/2+y,1/2-z
5 -x,-y,-z
6 1/2-x,1/2-y,-z
7 x,-y,1/2+z
8 1/2+x,1/2-y,1/2+z
_cell_length_a                   15.528(4)
_cell_length_b                   12.446(3)
_cell_length_c                   17.672(4)
_cell_angle_alpha                90
_cell_angle_beta                 92.565(4)
_cell_angle_gamma                90
_cell_volume                     3411.9
_exptl_crystal_colour            colorless
_exptl_crystal_description       block
_chemical_melting_point          '463 K'
_cell_formula_units_Z            8
_exptl_crystal_recrystallization_method dichloromethane
loop_
_atom_site_label
_atom_site_type_symbol
_atom_site_fract_x
_atom_site_fract_y
_atom_site_fract_z
O1 O 0.10356(13) 0.44679(14) 0.22719(11)
O2 O 0.17214(16) 0.18400(16) 0.35130(11)
O3 O 0.19328(15) 0.38447(15) 0.41468(11)
O4 O 0.13031(15) 0.06439(15) 0.23538(12)
H1 H 0.1487 0.0790 0.2784
O5 O 0.06966(14) 0.05375(15) 0.08820(12)
O6 O 0.01535(16) 0.23009(17) 0.01637(11)
O7 O 0.10626(19) 0.83047(17) 0.22261(12)
H2 H 0.1180 0.8918 0.2365
O8 O 0.18948(15) 0.90225(15) 0.34888(11)
C1 C 0.14122(19) 0.4598(2) 0.29820(16)
C2 C 0.1642(2) 0.3729(2) 0.34099(16)
C3 C 0.1526(2) 0.2643(2) 0.31198(16)
C4 C 0.11760(19) 0.2561(2) 0.23601(16)
C5 C 0.1063(2) 0.1553(2) 0.19902(17)
C6 C 0.0737(2) 0.1504(2) 0.12589(18)
C7 C 0.0477(2) 0.2451(2) 0.08770(17)
C8 C 0.0565(2) 0.3440(2) 0.12257(17)
H3 H 0.0389 0.4067 0.0977
C9 C 0.0923(2) 0.3469(2) 0.19569(17)
C10 C 0.15109(19) 0.5750(2) 0.31604(16)
C11 C 0.1225(2) 0.6522(2) 0.26386(16)
H4 H 0.0943 0.6300 0.2191
C12 C 0.1348(2) 0.7597(2) 0.27640(16)
C13 C 0.1771(2) 0.7936(2) 0.34253(17)
C14 C 0.2050(2) 0.7194(2) 0.39501(18)
H5 H 0.2330 0.7420 0.4398
C15 C 0.1918(2) 0.6109(2) 0.38198(18)
H6 H 0.2109 0.5614 0.4184
C16 C 0.2811(2) 0.3524(3) 0.43013(19)
H7 H 0.2962 0.3634 0.4828
H8 H 0.3184 0.3947 0.4000
H9 H 0.2875 0.2778 0.4179
C17 C -0.0089(2) -0.0032(2) 0.09907(19)
H10 H -0.0082 -0.0701 0.0720
H11 H -0.0569 0.0393 0.0804
H12 H -0.0144 -0.0171 0.1521
C18 C -0.0157(3) 0.3214(3) -0.02592(19)
H13 H -0.0364 0.2987 -0.0754
H14 H 0.0302 0.3722 -0.0307
H15 H -0.0619 0.3545 -0.0001
C19 C 0.2268(2) 0.9419(2) 0.41854(18)
H16 H 0.2324 1.0186 0.4157
H17 H 0.2827 0.9103 0.4277
H18 H 0.1904 0.9236 0.4591
loop_
_geom_bond_atom_site_label_1
_geom_bond_atom_site_label_2
_geom_bond_site_symmetry_1
_geom_bond_site_symmetry_2
O1 C1 1_555 1_555
O2 C3 1_555 1_555
O3 C2 1_555 1_555
O4 H1 1_555 1_555
O5 C6 1_555 1_555
O6 C7 1_555 1_555
O7 H2 1_555 1_555
O8 C13 1_555 1_555
C1 C2 1_555 1_555
C2 C3 1_555 1_555
C3 C4 1_555 1_555
C4 C5 1_555 1_555
C5 O4 1_555 1_555
C6 C5 1_555 1_555
C7 C6 1_555 1_555
C8 C7 1_555 1_555
H3 C8 1_555 1_555
C9 O1 1_555 1_555
C10 C1 1_555 1_555
C11 C10 1_555 1_555
H4 C11 1_555 1_555
C12 O7 1_555 1_555
C13 C12 1_555 1_555
C14 C13 1_555 1_555
H5 C14 1_555 1_555
C15 C10 1_555 1_555
H6 C15 1_555 1_555
C16 O3 1_555 1_555
H7 C16 1_555 1_555
H8 C16 1_555 1_555
H9 C16 1_555 1_555
C17 O5 1_555 1_555
H10 C17 1_555 1_555
H11 C17 1_555 1_555
H12 C17 1_555 1_555
C18 O6 1_555 1_555
H13 C18 1_555 1_555
H14 C18 1_555 1_555
H15 C18 1_555 1_555
C19 O8 1_555 1_555
H16 C19 1_555 1_555
H17 C19 1_555 1_555
H18 C19 1_555 1_555
C4 C9 1_555 1_555
C8 C9 1_555 1_555
C11 C12 1_555 1_555
C14 C15 1_555 1_555

#END
