
#######################################################################
#
#                 Cambridge Crystallographic Data Centre
#                                CCDC 
#
#######################################################################
#
# If this CIF has been generated from an entry in the Cambridge 
# Structural Database, then it will include bibliographic, chemical, 
# crystal, experimental, refinement or atomic coordinate data resulting 
# from the CCDC's data processing and validation procedures.
#
#######################################################################

data_MENVIL
_chemical_name_common            (7)triangulane-1,9-dimethanol
_chemical_formula_moiety         'C17 H22 O2'
_chemical_name_systematic        
(1S,3R,4S,5S,6S,7S,8R,9S)-(9-Hydroxymethylhexaspiro(2.0.0.0.0.0.2^8^.1^7^.1^6^.1^5^.1^4^.1^3^)pentadec-1-yl)methanol
_symmetry_cell_setting           orthorhombic
_symmetry_space_group_name_H-M   'P 21 21 21'
_symmetry_Int_Tables_number      19
_space_group_name_Hall           'P 2ac 2ab'
loop_
_symmetry_equiv_pos_site_id
_symmetry_equiv_pos_as_xyz
1 x,y,z
2 1/2-x,-y,1/2+z
3 -x,1/2+y,1/2-z
4 1/2+x,1/2-y,-z
_cell_length_a                   6.3064(3)
_cell_length_b                   11.8894(6)
_cell_length_c                   19.9342(10)
_cell_angle_alpha                90
_cell_angle_beta                 90
_cell_angle_gamma                90
_cell_volume                     1494.65
_exptl_crystal_colour            colorless
_exptl_crystal_description       plate
_cell_formula_units_Z            4
_exptl_crystal_recrystallization_method 'hexane/diethyl ether'
loop_
_atom_site_label
_atom_site_type_symbol
_atom_site_fract_x
_atom_site_fract_y
_atom_site_fract_z
O1 O 0.1543(3) 1.21804(18) 0.08163(10)
O2 O 0.8430(3) 0.35463(18) 0.03556(10)
C1 C 0.2832(5) 1.1397(2) 0.18500(12)
C2 C 0.1905(4) 1.0343(2) 0.21280(12)
C3 C 0.2172(4) 0.9137(2) 0.20429(12)
C4 C 0.3444(4) 0.8365(2) 0.16499(11)
C5 C 0.3155(4) 0.7654(2) 0.10583(11)
C6 C 0.2720(4) 0.6479(2) 0.08951(11)
C7 C 0.3792(4) 0.5475(2) 0.06438(11)
C8 C 0.5948(4) 0.5085(2) 0.04615(12)
C9 C 0.4077(5) 0.4940(3) -0.00184(13)
C10 C 0.2301(4) 0.5368(2) 0.12269(13)
C11 C 0.1396(4) 0.7385(2) 0.05824(13)
C12 C 0.5040(4) 0.8435(2) 0.10903(13)
C13 C 0.3395(5) 0.8218(2) 0.23925(13)
C14 C -0.0011(4) 0.9633(3) 0.20300(13)
C15 C 0.2571(5) 1.1221(3) 0.26080(13)
C16 C 0.1463(5) 1.2264(3) 0.15240(13)
C17 C 0.6831(4) 0.4039(2) 0.07730(13)
H1 H 0.078(8) 1.264(4) 0.058(2)
H2 H 0.779(6) 0.341(3) 0.0057(17)
H3 H 0.441(6) 1.134(3) 0.1641(16)
H4 H 0.704(5) 0.562(2) 0.0372(14)
H5 H 0.359(5) 0.421(3) -0.0087(13)
H6 H 0.413(6) 0.537(3) -0.042(2)
H7 H 0.297(4) 0.524(2) 0.1692(14)
H8 H 0.109(5) 0.500(3) 0.1129(15)
H9 H -0.007(5) 0.750(2) 0.0725(14)
H10 H 0.142(5) 0.758(3) 0.0087(15)
H11 H 0.487(5) 0.913(2) 0.0728(15)
H12 H 0.657(5) 0.803(2) 0.1162(14)
H13 H 0.466(6) 0.840(3) 0.2609(17)
H14 H 0.257(5) 0.751(3) 0.2553(14)
H15 H -0.082(6) 0.955(3) 0.2403(17)
H16 H -0.087(5) 0.976(3) 0.1607(16)
H17 H 0.146(4) 1.165(2) 0.2826(12)
H18 H 0.390(5) 1.108(2) 0.2864(13)
H19 H -0.003(7) 1.214(3) 0.1696(17)
H20 H 0.192(6) 1.300(3) 0.1672(17)
H21 H 0.573(5) 0.355(2) 0.0819(12)
H22 H 0.746(4) 0.421(2) 0.1189(14)
loop_
_geom_bond_atom_site_label_1
_geom_bond_atom_site_label_2
_geom_bond_site_symmetry_1
_geom_bond_site_symmetry_2
O1 C16 1_555 1_555
O2 C17 1_555 1_555
C1 C2 1_555 1_555
C2 C3 1_555 1_555
C3 C4 1_555 1_555
C4 C5 1_555 1_555
C5 C6 1_555 1_555
C6 C7 1_555 1_555
C7 C8 1_555 1_555
C8 C9 1_555 1_555
C9 C7 1_555 1_555
C10 C6 1_555 1_555
C11 C5 1_555 1_555
C12 C4 1_555 1_555
C13 C3 1_555 1_555
C14 C2 1_555 1_555
C15 C1 1_555 1_555
C16 C1 1_555 1_555
C17 C8 1_555 1_555
H1 O1 1_555 1_555
H2 O2 1_555 1_555
H3 C1 1_555 1_555
H4 C8 1_555 1_555
H5 C9 1_555 1_555
H6 C9 1_555 1_555
H7 C10 1_555 1_555
H8 C10 1_555 1_555
H9 C11 1_555 1_555
H10 C11 1_555 1_555
H11 C12 1_555 1_555
H12 C12 1_555 1_555
H13 C13 1_555 1_555
H14 C13 1_555 1_555
H15 C14 1_555 1_555
H16 C14 1_555 1_555
H17 C15 1_555 1_555
H18 C15 1_555 1_555
H19 C16 1_555 1_555
H20 C16 1_555 1_555
H21 C17 1_555 1_555
H22 C17 1_555 1_555
C2 C15 1_555 1_555
C3 C14 1_555 1_555
C4 C13 1_555 1_555
C5 C12 1_555 1_555
C6 C11 1_555 1_555
C7 C10 1_555 1_555

#END
