
#######################################################################
#
#                 Cambridge Crystallographic Data Centre
#                                CCDC 
#
#######################################################################
#
# If this CIF has been generated from an entry in the Cambridge 
# Structural Database, then it will include bibliographic, chemical, 
# crystal, experimental, refinement or atomic coordinate data resulting 
# from the CCDC's data processing and validation procedures.
#
#######################################################################

data_MENVEH
_chemical_formula_moiety         'C28 H32 O2,0.33(C6 H12)'
_chemical_name_systematic        
"(E)-(3R,3'R,4R,4'R,5R,5'R,6R,6'R,7R,7'R,8S,8'S)-(8'-Hydroxymethyl-(1,1')bi(pentaspiro(2.0.0.0.0.2^7^.1^6^.1^5^.1^4^.1^3^)tridecylidene)-8-yl)methanol cyclohexane solvate"
_symmetry_cell_setting           monoclinic
_symmetry_space_group_name_H-M   'P 21'
_symmetry_Int_Tables_number      4
_space_group_name_Hall           'P 2yb'
loop_
_symmetry_equiv_pos_site_id
_symmetry_equiv_pos_as_xyz
1 x,y,z
2 -x,1/2+y,-z
_cell_length_a                   9.9247(8)
_cell_length_b                   40.112(3)
_cell_length_c                   11.0939(9)
_cell_angle_alpha                90
_cell_angle_beta                 115.832(4)
_cell_angle_gamma                90
_cell_volume                     3975.16
_exptl_crystal_colour            colorless
_exptl_crystal_description       plate
_cell_formula_units_Z            6
_exptl_crystal_recrystallization_method cyclohexane/dioxane
loop_
_atom_site_label
_atom_site_type_symbol
_atom_site_fract_x
_atom_site_fract_y
_atom_site_fract_z
O1 O 0.2359(6) 0.28013(14) 0.1876(5)
O2 O 0.2521(6) 0.75204(12) 0.5200(5)
C1 C 0.4123(9) 0.32358(19) 0.3147(8)
H1 H 0.3783 0.3401 0.2398
C2 C 0.4080(8) 0.33498(19) 0.4387(8)
C3 C 0.3290(8) 0.36024(17) 0.4762(7)
C4 C 0.3588(8) 0.39461(17) 0.5244(7)
C5 C 0.4033(8) 0.41279(17) 0.6498(7)
C6 C 0.3366(7) 0.43679(16) 0.7105(7)
C7 C 0.3352(7) 0.47176(16) 0.7258(6)
C8 C 0.4023(7) 0.50079(17) 0.7468(6)
C9 C 0.4080(7) 0.53630(16) 0.7658(6)
C10 C 0.3245(8) 0.56711(16) 0.7182(7)
C11 C 0.3102(8) 0.59541(17) 0.6306(7)
C12 C 0.3622(8) 0.62926(17) 0.6358(7)
C13 C 0.3181(8) 0.66333(18) 0.6417(7)
C14 C 0.2556(9) 0.69151(17) 0.5476(8)
H2 H 0.1939 0.6853 0.4519
C15 C 0.1896(9) 0.68201(19) 0.6444(8)
H3 H 0.2098 0.6969 0.7215
H4 H 0.0905 0.6709 0.6070
C16 C 0.4721(9) 0.65237(19) 0.7400(8)
H5 H 0.4910 0.6491 0.8345
H6 H 0.5588 0.6604 0.7266
C17 C 0.3662(9) 0.60585(19) 0.5304(7)
H7 H 0.2917 0.6092 0.4364
H8 H 0.4648 0.5973 0.5420
C18 C 0.1708(8) 0.57787(18) 0.6222(8)
H9 H 0.1088 0.5895 0.6587
H10 H 0.1147 0.5636 0.5433
C19 C 0.3945(8) 0.55995(16) 0.8661(7)
H11 H 0.3277 0.5535 0.9074
H12 H 0.4841 0.5729 0.9245
C20 C 0.5412(7) 0.51867(17) 0.7656(7)
H13 H 0.5620 0.5215 0.6867
H14 H 0.6308 0.5160 0.8522
C21 C 0.1918(8) 0.45318(17) 0.6862(7)
H15 H 0.1144 0.4552 0.5925
H16 H 0.1531 0.4502 0.7541
C22 C 0.4296(8) 0.40745(18) 0.7928(7)
H17 H 0.5307 0.4122 0.8644
H18 H 0.3762 0.3888 0.8118
C23 C 0.4930(9) 0.4172(2) 0.5733(8)
H19 H 0.5934 0.4068 0.6092
H20 H 0.4837 0.4386 0.5258
C24 C 0.2194(8) 0.38720(18) 0.4003(7)
H21 H 0.2151 0.3944 0.3134
H22 H 0.1227 0.3879 0.4062
C25 C 0.3357(9) 0.32522(19) 0.5263(8)
H23 H 0.4011 0.3207 0.6219
H24 H 0.2434 0.3116 0.4865
C26 C 0.5567(9) 0.3323(2) 0.4375(9)
H25 H 0.6232 0.3138 0.4881
H26 H 0.6086 0.3532 0.4353
C27 C 0.3889(9) 0.2877(2) 0.2742(8)
H27 H 0.4516 0.2820 0.2279
H28 H 0.4223 0.2736 0.3555
C28 C 0.3424(9) 0.72288(17) 0.5700(8)
H29 H 0.4052 0.7257 0.6673
H30 H 0.4104 0.7209 0.5263
O3 O 0.0621(6) 0.28452(11) -0.0799(5)
O4 O 0.2060(7) 0.76404(13) 0.2670(5)
C29 C 0.0035(9) 0.34342(17) -0.0642(7)
H31 H 0.0410 0.3460 0.0349
C30 C -0.0452(9) 0.37419(18) -0.1450(7)
C31 C -0.0092(8) 0.40932(17) -0.1321(6)
C32 C -0.0604(8) 0.44218(16) -0.1180(7)
C33 C -0.1379(7) 0.47055(16) -0.2075(7)
C34 C -0.1011(7) 0.50146(16) -0.2580(7)
C35 C -0.0902(8) 0.53688(17) -0.2403(6)
C36 C -0.1397(7) 0.56561(15) -0.2207(6)
C37 C -0.1207(8) 0.60101(17) -0.1987(7)
C38 C 0.0009(8) 0.62500(17) -0.1311(7)
C39 C 0.0740(9) 0.64306(17) -0.0065(8)
C40 C 0.0813(8) 0.67730(17) 0.0392(7)
C41 C 0.1836(8) 0.70542(17) 0.0619(7)
C42 C 0.3090(8) 0.7214(2) 0.1775(8)
H32 H 0.3636 0.7070 0.2578
C43 C 0.3228(10) 0.7115(2) 0.0489(9)
H33 H 0.3228 0.7296 -0.0118
H34 H 0.3861 0.6921 0.0533
C44 C 0.0191(8) 0.71055(17) -0.0169(7)
H35 H -0.0344 0.7231 0.0259
H36 H -0.0203 0.7137 -0.1149
C45 C 0.0601(9) 0.64963(17) 0.1199(7)
H37 H 0.1457 0.6437 0.2057
H38 H -0.0398 0.6470 0.1185
C46 C 0.1646(9) 0.62202(19) -0.0588(8)
H39 H 0.2260 0.6337 -0.0959
H40 H 0.2067 0.6007 -0.0128
C47 C -0.1088(8) 0.63093(17) -0.2744(7)
H41 H -0.1834 0.6490 -0.2932
H42 H -0.0738 0.6275 -0.3445
C48 C -0.2480(9) 0.58367(17) -0.1831(8)
H43 H -0.2391 0.5805 -0.0914
H44 H -0.3511 0.5872 -0.2534
C49 C 0.0344(7) 0.51866(17) -0.2551(7)
H45 H 0.0425 0.5210 -0.3405
H46 H 0.1306 0.5159 -0.1744
C50 C -0.2102(8) 0.47677(17) -0.3555(7)
H47 H -0.3177 0.4828 -0.3984
H48 H -0.1758 0.4634 -0.4117
C51 C -0.1919(8) 0.45935(18) -0.1067(7)
H49 H -0.2882 0.4472 -0.1401
H50 H -0.1698 0.4738 -0.0280
C52 C 0.0940(8) 0.43271(17) -0.0284(7)
H51 H 0.1184 0.4280 0.0665
H52 H 0.1759 0.4430 -0.0438
C53 C -0.0050(9) 0.38980(17) -0.2470(7)
H53 H -0.0861 0.3936 -0.3379
H54 H 0.0941 0.3845 -0.2435
C54 C -0.1652(9) 0.35026(18) -0.1509(8)
H55 H -0.2177 0.3370 -0.2336
H56 H -0.2270 0.3566 -0.1045
C55 C 0.0808(9) 0.31811(17) -0.1107(8)
H57 H 0.0430 0.3202 -0.2090
H58 H 0.1892 0.3233 -0.0698
C56 C 0.3020(9) 0.7575(2) 0.2037(8)
H59 H 0.4040 0.7657 0.2619
H60 H 0.2648 0.7698 0.1180
O5 O 1.0417(6) 0.26273(13) 0.2829(5)
O6 O 0.9608(6) 0.74603(13) 0.4838(5)
C57 C 0.9485(9) 0.31929(17) 0.2704(7)
H61 H 1.0427 0.3300 0.2776
C58 C 0.8235(8) 0.34219(18) 0.2465(7)
C59 C 0.7759(8) 0.37516(17) 0.1892(7)
C60 C 0.7862(8) 0.40942(17) 0.2330(7)
C61 C 0.6985(8) 0.43408(18) 0.2653(7)
C62 C 0.6037(8) 0.46355(18) 0.2084(7)
C63 C 0.6112(8) 0.49919(18) 0.2134(7)
C64 C 0.6442(8) 0.52754(18) 0.2812(7)
C65 C 0.6362(8) 0.56302(17) 0.2853(7)
C66 C 0.6637(8) 0.59402(18) 0.2309(7)
C67 C 0.7750(8) 0.62048(17) 0.2660(6)
C68 C 0.7981(8) 0.65389(18) 0.3207(7)
C69 C 0.7762(8) 0.68824(18) 0.2768(7)
C70 C 0.8676(8) 0.71713(17) 0.2708(7)
H62 H 0.9647 0.7119 0.2679
C71 C 0.7236(9) 0.70695(19) 0.1481(7)
H63 H 0.6346 0.7214 0.1223
H64 H 0.7339 0.6961 0.0724
C72 C 0.7163(9) 0.67734(18) 0.3733(8)
H65 H 0.6067 0.6747 0.3392
H66 H 0.7693 0.6849 0.4674
C73 C 0.9241(8) 0.62890(18) 0.3788(7)
H67 H 1.0107 0.6316 0.3578
H68 H 0.9479 0.6196 0.4684
C74 C 0.7185(9) 0.60451(18) 0.1294(7)
H69 H 0.6498 0.6176 0.0510
H70 H 0.7866 0.5892 0.1122
C75 C 0.5153(9) 0.5897(2) 0.2316(8)
H71 H 0.4277 0.5854 0.1450
H72 H 0.4941 0.6028 0.2970
C76 C 0.7078(10) 0.54388(18) 0.4162(7)
H73 H 0.8180 0.5448 0.4677
H74 H 0.6513 0.5419 0.4707
C77 C 0.5386(8) 0.48307(18) 0.0791(7)
H75 H 0.5936 0.4830 0.0231
H76 H 0.4283 0.4844 0.0292
C78 C 0.5470(9) 0.4356(2) 0.2674(9)
H77 H 0.5444 0.4396 0.3544
H78 H 0.4664 0.4210 0.2048
C79 C 0.8557(9) 0.42743(19) 0.3656(7)
H79 H 0.8711 0.4148 0.4472
H80 H 0.9322 0.4446 0.3783
C80 C 0.8307(8) 0.40132(17) 0.1244(7)
H81 H 0.9386 0.4016 0.1464
H82 H 0.7629 0.4083 0.0320
C81 C 0.6644(9) 0.34688(19) 0.1444(8)
H83 H 0.5852 0.3467 0.1759
H84 H 0.6347 0.3376 0.0537
C82 C 0.9041(9) 0.32767(18) 0.3842(7)
H85 H 0.8523 0.3103 0.4116
H86 H 0.9710 0.3425 0.4571
C83 C 0.9203(10) 0.28479(19) 0.2146(8)
H87 H 0.8298 0.2758 0.2194
H88 H 0.8999 0.2857 0.1190
C84 C 0.8616(9) 0.74848(19) 0.3433(8)
H89 H 0.8907 0.7678 0.3044
H90 H 0.7580 0.7521 0.3316
C85 C 0.1848(14) 0.5204(3) 0.1461(12)
H91 H 0.1037 0.5095 0.0681
H92 H 0.2598 0.5288 0.1171
C86 C 0.1207(14) 0.5494(3) 0.1912(11)
H93 H 0.2035 0.5627 0.2580
H94 H 0.0634 0.5639 0.1134
C87 C 0.0194(14) 0.5377(3) 0.2520(12)
H95 H -0.0737 0.5285 0.1805
H96 H -0.0082 0.5569 0.2923
C88 C 0.0936(13) 0.5112(3) 0.3586(10)
H97 H 0.1770 0.5214 0.4367
H98 H 0.0199 0.5026 0.3889
C89 C 0.1523(14) 0.4829(3) 0.3093(12)
H99 H 0.0679 0.4707 0.2390
H100 H 0.2066 0.4672 0.3839
C90 C 0.2564(13) 0.4954(3) 0.2530(13)
H101 H 0.3458 0.5054 0.3261
H102 H 0.2902 0.4763 0.2166
H103? H 0.1389 0.2714 0.2352
H104? H 0.2289 0.7581 0.3934
H105? H 0.1489 0.2823 0.0540
H106? H 0.0722 0.7743 0.1735
H107? H 0.1111 0.7492 0.5024
H108? H 1.0406 0.2544 0.3994
C91? C 0.292(6) 0.5148(14) 0.362(6)
C92? C 0.017(7) 0.4969(14) 0.251(6)
C93? C -0.013(7) 0.5210(16) 0.143(7)
loop_
_geom_bond_atom_site_label_1
_geom_bond_atom_site_label_2
_geom_bond_site_symmetry_1
_geom_bond_site_symmetry_2
O1 C27 1_555 1_555
O2 C28 1_555 1_555
C1 H1 1_555 1_555
C2 C1 1_555 1_555
C3 C2 1_555 1_555
C4 C3 1_555 1_555
C5 C4 1_555 1_555
C6 C5 1_555 1_555
C7 C6 1_555 1_555
C8 C7 1_555 1_555
C9 C8 1_555 1_555
C10 C9 1_555 1_555
C11 C10 1_555 1_555
C12 C11 1_555 1_555
C13 C12 1_555 1_555
C14 C13 1_555 1_555
H2 C14 1_555 1_555
C15 C13 1_555 1_555
H3 C15 1_555 1_555
H4 C15 1_555 1_555
C16 C12 1_555 1_555
H5 C16 1_555 1_555
H6 C16 1_555 1_555
C17 C11 1_555 1_555
H7 C17 1_555 1_555
H8 C17 1_555 1_555
C18 C10 1_555 1_555
H9 C18 1_555 1_555
H10 C18 1_555 1_555
C19 C9 1_555 1_555
H11 C19 1_555 1_555
H12 C19 1_555 1_555
C20 C8 1_555 1_555
H13 C20 1_555 1_555
H14 C20 1_555 1_555
C21 C6 1_555 1_555
H15 C21 1_555 1_555
H16 C21 1_555 1_555
C22 C5 1_555 1_555
H17 C22 1_555 1_555
H18 C22 1_555 1_555
C23 C4 1_555 1_555
H19 C23 1_555 1_555
H20 C23 1_555 1_555
C24 C3 1_555 1_555
H21 C24 1_555 1_555
H22 C24 1_555 1_555
C25 C2 1_555 1_555
H23 C25 1_555 1_555
H24 C25 1_555 1_555
C26 C1 1_555 1_555
H25 C26 1_555 1_555
H26 C26 1_555 1_555
C27 C1 1_555 1_555
H27 C27 1_555 1_555
H28 C27 1_555 1_555
C28 C14 1_555 1_555
H29 C28 1_555 1_555
H30 C28 1_555 1_555
O3 C55 1_555 1_555
O4 C56 1_555 1_555
C29 H31 1_555 1_555
C30 C29 1_555 1_555
C31 C30 1_555 1_555
C32 C31 1_555 1_555
C33 C32 1_555 1_555
C34 C33 1_555 1_555
C35 C34 1_555 1_555
C36 C35 1_555 1_555
C37 C36 1_555 1_555
C38 C37 1_555 1_555
C39 C38 1_555 1_555
C40 C39 1_555 1_555
C41 C40 1_555 1_555
C42 C41 1_555 1_555
H32 C42 1_555 1_555
C43 C41 1_555 1_555
H33 C43 1_555 1_555
H34 C43 1_555 1_555
C44 C40 1_555 1_555
H35 C44 1_555 1_555
H36 C44 1_555 1_555
C45 C39 1_555 1_555
H37 C45 1_555 1_555
H38 C45 1_555 1_555
C46 C38 1_555 1_555
H39 C46 1_555 1_555
H40 C46 1_555 1_555
C47 C37 1_555 1_555
H41 C47 1_555 1_555
H42 C47 1_555 1_555
C48 C36 1_555 1_555
H43 C48 1_555 1_555
H44 C48 1_555 1_555
C49 C34 1_555 1_555
H45 C49 1_555 1_555
H46 C49 1_555 1_555
C50 C33 1_555 1_555
H47 C50 1_555 1_555
H48 C50 1_555 1_555
C51 C32 1_555 1_555
H49 C51 1_555 1_555
H50 C51 1_555 1_555
C52 C31 1_555 1_555
H51 C52 1_555 1_555
H52 C52 1_555 1_555
C53 C30 1_555 1_555
H53 C53 1_555 1_555
H54 C53 1_555 1_555
C54 C29 1_555 1_555
H55 C54 1_555 1_555
H56 C54 1_555 1_555
C55 C29 1_555 1_555
H57 C55 1_555 1_555
H58 C55 1_555 1_555
C56 C42 1_555 1_555
H59 C56 1_555 1_555
H60 C56 1_555 1_555
O5 C83 1_555 1_555
O6 C84 1_555 1_555
C57 H61 1_555 1_555
C58 C57 1_555 1_555
C59 C58 1_555 1_555
C60 C59 1_555 1_555
C61 C60 1_555 1_555
C62 C61 1_555 1_555
C63 C62 1_555 1_555
C64 C63 1_555 1_555
C65 C64 1_555 1_555
C66 C65 1_555 1_555
C67 C66 1_555 1_555
C68 C67 1_555 1_555
C69 C68 1_555 1_555
C70 C69 1_555 1_555
H62 C70 1_555 1_555
C71 C69 1_555 1_555
H63 C71 1_555 1_555
H64 C71 1_555 1_555
C72 C68 1_555 1_555
H65 C72 1_555 1_555
H66 C72 1_555 1_555
C73 C67 1_555 1_555
H67 C73 1_555 1_555
H68 C73 1_555 1_555
C74 C66 1_555 1_555
H69 C74 1_555 1_555
H70 C74 1_555 1_555
C75 C65 1_555 1_555
H71 C75 1_555 1_555
H72 C75 1_555 1_555
C76 C64 1_555 1_555
H73 C76 1_555 1_555
H74 C76 1_555 1_555
C77 C62 1_555 1_555
H75 C77 1_555 1_555
H76 C77 1_555 1_555
C78 C61 1_555 1_555
H77 C78 1_555 1_555
H78 C78 1_555 1_555
C79 C60 1_555 1_555
H79 C79 1_555 1_555
H80 C79 1_555 1_555
C80 C59 1_555 1_555
H81 C80 1_555 1_555
H82 C80 1_555 1_555
C81 C58 1_555 1_555
H83 C81 1_555 1_555
H84 C81 1_555 1_555
C82 C57 1_555 1_555
H85 C82 1_555 1_555
H86 C82 1_555 1_555
C83 C57 1_555 1_555
H87 C83 1_555 1_555
H88 C83 1_555 1_555
C84 C70 1_555 1_555
H89 C84 1_555 1_555
H90 C84 1_555 1_555
C85 H91 1_555 1_555
H92 C85 1_555 1_555
C86 C85 1_555 1_555
H93 C86 1_555 1_555
H94 C86 1_555 1_555
C87 C86 1_555 1_555
H95 C87 1_555 1_555
H96 C87 1_555 1_555
C88 C87 1_555 1_555
H97 C88 1_555 1_555
H98 C88 1_555 1_555
C89 C88 1_555 1_555
H99 C89 1_555 1_555
H100 C89 1_555 1_555
C90 C85 1_555 1_555
H101 C90 1_555 1_555
H102 C90 1_555 1_555
C2 C26 1_555 1_555
C3 C25 1_555 1_555
C4 C24 1_555 1_555
C5 C23 1_555 1_555
C6 C22 1_555 1_555
C7 C21 1_555 1_555
C9 C20 1_555 1_555
C10 C19 1_555 1_555
C11 C18 1_555 1_555
C12 C17 1_555 1_555
C13 C16 1_555 1_555
C14 C15 1_555 1_555
C30 C54 1_555 1_555
C31 C53 1_555 1_555
C32 C52 1_555 1_555
C33 C51 1_555 1_555
C34 C50 1_555 1_555
C35 C49 1_555 1_555
C37 C48 1_555 1_555
C38 C47 1_555 1_555
C39 C46 1_555 1_555
C40 C45 1_555 1_555
C41 C44 1_555 1_555
C42 C43 1_555 1_555
C58 C82 1_555 1_555
C59 C81 1_555 1_555
C60 C80 1_555 1_555
C61 C79 1_555 1_555
C62 C78 1_555 1_555
C63 C77 1_555 1_555
C65 C76 1_555 1_555
C66 C75 1_555 1_555
C67 C74 1_555 1_555
C68 C73 1_555 1_555
C69 C72 1_555 1_555
C70 C71 1_555 1_555
C89 C90 1_555 1_555

#END
