
#######################################################################
#
#                 Cambridge Crystallographic Data Centre
#                                CCDC 
#
#######################################################################
#
# If this CIF has been generated from an entry in the Cambridge 
# Structural Database, then it will include bibliographic, chemical, 
# crystal, experimental, refinement or atomic coordinate data resulting 
# from the CCDC's data processing and validation procedures.
#
#######################################################################

data_MENZUD
_chemical_formula_moiety         'C46 H40 O8,C1 H2 Cl2'
_chemical_name_systematic        
"6,6',18,18'-tetramethoxy-9,9',15,15'-tetraoxa[2,2'-bi(tetracyclo[15.3.1.1^3,7^.1^10,14^]tricosane)]-1(21),1'(21'),2(2'),3(23),3'(23'),4,4',6,6',10(22),10'(22'),11,11',13,13',17,17',19,19'-nonadecaene dichloromethane solvate"
_symmetry_cell_setting           triclinic
_symmetry_space_group_name_H-M   'P -1'
_symmetry_Int_Tables_number      2
_space_group_name_Hall           '-P 1'
loop_
_symmetry_equiv_pos_site_id
_symmetry_equiv_pos_as_xyz
1 x,y,z
2 -x,-y,-z
_cell_length_a                   11.3433(10)
_cell_length_b                   12.4147(6)
_cell_length_c                   15.6169(15)
_cell_angle_alpha                73.177(7)
_cell_angle_beta                 89.125(9)
_cell_angle_gamma                66.314(6)
_cell_volume                     1914.94
_exptl_crystal_colour            colorless
_exptl_crystal_description       Prism
_cell_formula_units_Z            2
loop_
_atom_site_label
_atom_site_type_symbol
_atom_site_fract_x
_atom_site_fract_y
_atom_site_fract_z
O1 O 1.06861(8) 0.82323(8) 1.29178(6)
O2 O 1.11037(9) 0.45635(8) 1.23582(6)
O3 O 1.21279(9) 0.46480(8) 1.04585(6)
O4 O 0.71693(9) 0.89651(8) 0.58679(6)
O5 O 0.60958(10) 1.16816(8) 0.51689(6)
O6 O 0.32851(9) 1.46820(8) 0.65655(6)
O7 O 0.43974(9) 1.52894(8) 0.79171(6)
O8 O 0.71093(9) 1.03273(9) 1.32515(6)
C1 C 1.03383(11) 0.72528(11) 1.31271(8)
C2 C 0.95020(12) 0.70936(12) 1.37625(8)
H1 H 0.9125 0.7681 1.4075
C3 C 0.92254(13) 0.60629(13) 1.39339(8)
H2 H 0.8668 0.5940 1.4376
C4 C 0.97485(13) 0.52135(12) 1.34712(8)
H3 H 0.9549 0.4514 1.3588
C5 C 1.05705(12) 0.53994(11) 1.28328(8)
C6 C 1.08789(12) 0.64060(11) 1.26628(8)
H4 H 1.1455 0.6515 1.2232
C7 C 1.02346(12) 0.47960(11) 1.15892(8)
H5 H 0.9361 0.4931 1.1775
H6 H 1.0549 0.4063 1.1375
C8 C 1.01492(12) 0.59064(11) 1.08367(8)
C9 C 1.11434(12) 0.58045(11) 1.02793(8)
C10 C 1.11081(12) 0.68416(12) 0.96146(8)
H7 H 1.1788 0.6773 0.9242
C11 C 1.00739(12) 0.79823(11) 0.94947(8)
H8 H 1.0055 0.8687 0.9035
C12 C 0.90676(11) 0.81159(10) 1.00313(7)
C13 C 0.91374(12) 0.70604(11) 1.07091(7)
H9 H 0.8472 0.7136 1.1094
C14 C 1.30158(14) 0.44480(14) 0.98091(9)
H10 H 1.2537 0.4718 0.9214
H11 H 1.3591 0.3566 0.9970
H12 H 1.3532 0.4922 0.9796
C15 C 0.79902(11) 0.93529(10) 0.99194(7)
C16 C 0.73204(11) 1.01085(10) 0.91061(8)
C17 C 0.73757(11) 0.97031(10) 0.82913(7)
C18 C 0.73764(11) 0.85764(10) 0.83035(8)
H13 H 0.7409 0.7996 0.8864
C19 C 0.73303(11) 0.82810(11) 0.75127(8)
H14 H 0.7343 0.7502 0.7538
C20 C 0.72653(11) 0.91285(11) 0.66863(8)
C21 C 0.72738(11) 1.02644(11) 0.66524(8)
C22 C 0.73401(11) 1.05237(10) 0.74482(7)
H15 H 0.7362 1.1289 0.7423
C23 C 0.73147(14) 0.77808(12) 0.58478(9)
H16 H 0.8169 0.7158 0.6150
H17 H 0.7236 0.7791 0.5221
H18 H 0.6639 0.7577 0.6158
C24 C 0.72744(13) 1.11624(12) 0.57699(8)
H19 H 0.7416 1.1845 0.5890
H20 H 0.8010 1.0736 0.5466
C25 C 0.51764(13) 1.28204(11) 0.51599(8)
C26 C 0.46912(13) 1.36883(12) 0.43168(8)
H21 H 0.5016 1.3494 0.3791
C27 C 0.37274(13) 1.48420(13) 0.42502(9)
H22 H 0.3384 1.5437 0.3674
C28 C 0.32585(13) 1.51384(12) 0.50101(9)
H23 H 0.2591 1.5929 0.4958
C29 C 0.37745(12) 1.42659(11) 0.58559(8)
C30 C 0.47211(13) 1.30937(11) 0.59397(8)
H24 H 0.5051 1.2492 0.6515
C31 C 0.33695(12) 1.38204(12) 0.74262(8)
H25 H 0.3223 1.3128 0.7329
H26 H 0.2659 1.4238 0.7751
C32 C 0.46322(11) 1.32883(11) 0.80214(7)
C33 C 0.53163(11) 1.20194(11) 0.83612(7)
H27 H 0.4972 1.1506 0.8211
C34 C 0.64957(11) 1.14571(10) 0.89168(7)
C35 C 0.69553(12) 1.22301(11) 0.91483(8)
H28 H 0.7749 1.1877 0.9528
C36 C 0.62747(12) 1.35143(11) 0.88339(8)
H29 H 0.6598 1.4026 0.9008
C37 C 0.51239(12) 1.40446(11) 0.82661(8)
C38 C 0.48524(16) 1.60924(12) 0.81515(10)
H30 H 0.4882 1.5945 0.8804
H31 H 0.4265 1.6954 0.7840
H32 H 0.5724 1.5932 0.7972
C39 C 0.77226(12) 0.96932(10) 1.07646(7)
C40 C 0.64666(12) 1.01512(11) 1.09998(8)
H33 H 0.5760 1.0310 1.0592
C41 C 0.62271(12) 1.03802(12) 1.18190(8)
H34 H 0.5365 1.0689 1.1969
C42 C 0.72580(12) 1.01549(11) 1.24209(8)
C43 C 0.85228(12) 0.97164(11) 1.21983(8)
C44 C 0.87347(12) 0.94844(10) 1.13782(8)
H35 H 0.9597 0.9173 1.1229
C45 C 0.96608(12) 0.94141(11) 1.28580(8)
H36 H 0.9991 1.0064 1.2661
H37 H 0.9370 0.9405 1.3460
C46 C 0.59220(14) 1.04141(15) 1.36071(9)
H38 H 0.5213 1.1186 1.3251
H39 H 0.5984 1.0407 1.4234
H40 H 0.5752 0.9709 1.3581
Cl1 Cl 0.87908(4) 0.26079(3) 0.25727(2)
Cl2 Cl 0.96022(4) 0.18681(5) 0.44723(3)
C47 C 0.82892(14) 0.23501(13) 0.36551(9)
H41 H 0.7949 0.1707 0.3767
H42 H 0.7584 0.3121 0.3697
loop_
_geom_bond_atom_site_label_1
_geom_bond_atom_site_label_2
_geom_bond_site_symmetry_1
_geom_bond_site_symmetry_2
O1 C1 1_555 1_555
O2 C5 1_555 1_555
O3 C9 1_555 1_555
O4 C20 1_555 1_555
O5 C24 1_555 1_555
O6 C29 1_555 1_555
O7 C37 1_555 1_555
O8 C42 1_555 1_555
C1 C2 1_555 1_555
C2 H1 1_555 1_555
C3 C2 1_555 1_555
H2 C3 1_555 1_555
C4 C3 1_555 1_555
H3 C4 1_555 1_555
C5 C4 1_555 1_555
C6 C1 1_555 1_555
H4 C6 1_555 1_555
C7 O2 1_555 1_555
H5 C7 1_555 1_555
H6 C7 1_555 1_555
C8 C7 1_555 1_555
C9 C8 1_555 1_555
C10 C9 1_555 1_555
H7 C10 1_555 1_555
C11 C10 1_555 1_555
H8 C11 1_555 1_555
C12 C11 1_555 1_555
C13 C8 1_555 1_555
H9 C13 1_555 1_555
C14 O3 1_555 1_555
H10 C14 1_555 1_555
H11 C14 1_555 1_555
H12 C14 1_555 1_555
C15 C12 1_555 1_555
C16 C15 1_555 1_555
C17 C16 1_555 1_555
C18 C17 1_555 1_555
H13 C18 1_555 1_555
C19 C18 1_555 1_555
H14 C19 1_555 1_555
C20 C19 1_555 1_555
C21 C20 1_555 1_555
C22 C17 1_555 1_555
H15 C22 1_555 1_555
C23 O4 1_555 1_555
H16 C23 1_555 1_555
H17 C23 1_555 1_555
H18 C23 1_555 1_555
C24 C21 1_555 1_555
H19 C24 1_555 1_555
H20 C24 1_555 1_555
C25 O5 1_555 1_555
C26 C25 1_555 1_555
H21 C26 1_555 1_555
C27 C26 1_555 1_555
H22 C27 1_555 1_555
C28 C27 1_555 1_555
H23 C28 1_555 1_555
C29 C28 1_555 1_555
C30 C25 1_555 1_555
H24 C30 1_555 1_555
C31 O6 1_555 1_555
H25 C31 1_555 1_555
H26 C31 1_555 1_555
C32 C31 1_555 1_555
C33 C32 1_555 1_555
H27 C33 1_555 1_555
C34 C16 1_555 1_555
C35 C34 1_555 1_555
H28 C35 1_555 1_555
C36 C35 1_555 1_555
H29 C36 1_555 1_555
C37 C32 1_555 1_555
C38 O7 1_555 1_555
H30 C38 1_555 1_555
H31 C38 1_555 1_555
H32 C38 1_555 1_555
C39 C15 1_555 1_555
C40 C39 1_555 1_555
H33 C40 1_555 1_555
C41 C40 1_555 1_555
H34 C41 1_555 1_555
C42 C41 1_555 1_555
C43 C42 1_555 1_555
C44 C39 1_555 1_555
H35 C44 1_555 1_555
C45 O1 1_555 1_555
H36 C45 1_555 1_555
H37 C45 1_555 1_555
C46 O8 1_555 1_555
H38 C46 1_555 1_555
H39 C46 1_555 1_555
H40 C46 1_555 1_555
Cl1 C47 1_555 1_555
Cl2 C47 1_555 1_555
C47 H41 1_555 1_555
H42 C47 1_555 1_555
C5 C6 1_555 1_555
C12 C13 1_555 1_555
C21 C22 1_555 1_555
C29 C30 1_555 1_555
C33 C34 1_555 1_555
C36 C37 1_555 1_555
C43 C44 1_555 1_555
C43 C45 1_555 1_555

#END
