
#######################################################################
#
#                 Cambridge Crystallographic Data Centre
#                                CCDC 
#
#######################################################################
#
# If this CIF has been generated from an entry in the Cambridge 
# Structural Database, then it will include bibliographic, chemical, 
# crystal, experimental, refinement or atomic coordinate data resulting 
# from the CCDC's data processing and validation procedures.
#
#######################################################################

data_MENZIR
_chemical_formula_moiety         'C54 H48 O16,2(C1 H2 Cl2)'
_chemical_name_systematic        
"tetramethyl 5,5',13,13'-tetramethoxy[2,2',16,16'-tetraoxa[9,9'-bi(tetracyclo[15.2.2.1^4,8^.1^10,14^]tricosane)]-1(19),1'(19'),4(23),4'(23'),5,5',7,7',9(9'),10(22),10'(22'),11,11',13,13',17,17',20,20'-nonadecaene]-18,18',20,20'-tetracarboxylate dichloromethane solvate"
_symmetry_cell_setting           monoclinic
_symmetry_space_group_name_H-M   'P 21/c'
_symmetry_Int_Tables_number      14
_space_group_name_Hall           '-P 2ybc'
loop_
_symmetry_equiv_pos_site_id
_symmetry_equiv_pos_as_xyz
1 x,y,z
2 -x,1/2+y,1/2-z
3 -x,-y,-z
4 x,1/2-y,1/2+z
_cell_length_a                   13.5006(14)
_cell_length_b                   24.808(2)
_cell_length_c                   16.9376(17)
_cell_angle_alpha                90
_cell_angle_beta                 110.492(2)
_cell_angle_gamma                90
_cell_volume                     5313.82
_exptl_crystal_colour            colorless
_exptl_crystal_description       Prism
_cell_formula_units_Z            4
loop_
_atom_site_label
_atom_site_type_symbol
_atom_site_fract_x
_atom_site_fract_y
_atom_site_fract_z
O1 O 0.06329(13) 0.13873(6) 1.02248(10)
O2 O 0.14275(12) 0.12002(6) 0.72408(9)
O3 O 0.34504(14) 0.17646(7) 0.70280(13)
O4 O 0.49482(15) 0.45091(7) 0.71918(11)
O5 O 0.48704(12) 0.55129(6) 0.83907(10)
O6 O 0.14984(11) 0.60240(6) 0.93851(10)
O7 O 0.13658(13) 0.53665(6) 1.09812(10)
O8 O -0.06473(13) 0.23914(6) 1.05226(11)
O9 O -0.15040(15) 0.14121(9) 0.91429(14)
O10 O -0.15754(15) 0.18426(9) 0.79718(13)
O11 O 0.38545(16) 0.10916(11) 0.95126(13)
O12 O 0.32806(16) 0.07600(10) 0.82162(12)
O13 O 0.17933(14) 0.51620(8) 0.68497(10)
O14 O 0.33000(15) 0.54740(8) 0.67396(11)
O15 O 0.40932(15) 0.67892(7) 1.05442(12)
O16 O 0.31948(16) 0.61590(7) 1.09417(11)
C1 C 0.07971(18) 0.13071(8) 0.94746(13)
C2 C 0.17839(18) 0.11513(9) 0.94872(13)
H1 H 0.2321 0.1075 1.0013
C3 C 0.20138(18) 0.11027(8) 0.87503(13)
C4 C 0.12227(17) 0.12168(8) 0.79800(13)
C5 C 0.02269(17) 0.13598(8) 0.79658(14)
H2 H -0.0314 0.1431 0.7440
C6 C -0.00035(18) 0.14030(8) 0.87059(14)
C7 C -0.10925(19) 0.15486(10) 0.86547(16)
C8 C -0.2671(3) 0.19608(17) 0.7828(3)
H3 H -0.3053 0.1624 0.7823
H4 H -0.2985 0.2144 0.7284
H5 H -0.2720 0.2195 0.8279
C9 C 0.3136(2) 0.09772(11) 0.88657(15)
C10 C 0.4383(3) 0.06787(19) 0.8304(2)
H6 H 0.4745 0.1028 0.8385
H7 H 0.4418 0.0507 0.7793
H8 H 0.4727 0.0447 0.8791
C11 C 0.13350(17) 0.17241(8) 0.68323(12)
H9 H 0.0599 0.1856 0.6675
H10 H 0.1499 0.1687 0.6309
C12 C 0.20745(16) 0.21266(8) 0.74036(12)
C13 C 0.17102(16) 0.24959(8) 0.78573(12)
H11 H 0.0978 0.2503 0.7777
C14 C 0.23871(15) 0.28568(8) 0.84279(12)
C15 C 0.34643(17) 0.28209(8) 0.85593(14)
H12 H 0.3948 0.3046 0.8968
C16 C 0.38438(18) 0.24622(9) 0.81041(16)
H13 H 0.4579 0.2450 0.8194
C17 C 0.31532(18) 0.21215(9) 0.75179(15)
C18 C 0.4500(3) 0.18123(18) 0.7024(3)
H14 H 0.4628 0.2185 0.6895
H15 H 0.4589 0.1571 0.6595
H16 H 0.5005 0.1713 0.7579
C19 C 0.19737(15) 0.32724(8) 0.88698(12)
C20 C 0.22490(15) 0.37991(8) 0.88931(12)
C21 C 0.28827(16) 0.40160(8) 0.83985(12)
C22 C 0.27174(19) 0.38539(9) 0.75740(13)
H17 H 0.2131 0.3628 0.7292
C23 C 0.3384(2) 0.40125(9) 0.71540(14)
H18 H 0.3260 0.3888 0.6597
C24 C 0.42289(19) 0.43513(9) 0.75426(14)
C25 C 0.43739(16) 0.45579(8) 0.83477(13)
C26 C 0.37005(15) 0.43875(8) 0.87545(12)
H19 H 0.3797 0.4528 0.9298
C27 C 0.4772(3) 0.43359(15) 0.6348(2)
H20 H 0.4774 0.3941 0.6328
H21 H 0.5335 0.4476 0.6165
H22 H 0.4087 0.4471 0.5973
C28 C 0.52081(16) 0.49774(8) 0.87307(14)
H23 H 0.5378 0.4984 0.9349
H24 H 0.5860 0.4878 0.8623
C29 C 0.40081(16) 0.56901(8) 0.85740(13)
C30 C 0.41743(16) 0.59560(8) 0.93275(13)
H25 H 0.4872 0.6059 0.9666
C31 C 0.33349(16) 0.60758(8) 0.95991(13)
C32 C 0.23092(16) 0.59246(8) 0.90975(13)
C33 C 0.21381(16) 0.57089(8) 0.83046(13)
H26 H 0.1435 0.5637 0.7942
C34 C 0.29720(17) 0.55951(8) 0.80285(13)
C35 C 0.27383(19) 0.54013(9) 0.71454(14)
C36 C 0.1441(3) 0.50066(15) 0.59752(18)
H27 H 0.1239 0.5329 0.5620
H28 H 0.0830 0.4766 0.5851
H29 H 0.2014 0.4819 0.5859
C37 C 0.35804(16) 0.63814(9) 1.04046(14)
C38 C 0.3395(3) 0.64481(13) 1.17233(17)
H30 H 0.4158 0.6500 1.2002
H31 H 0.3117 0.6241 1.2092
H32 H 0.3044 0.6800 1.1605
C39 C 0.07372(16) 0.55867(8) 0.92746(14)
H33 H 0.0339 0.5536 0.8666
H34 H 0.0226 0.5687 0.9549
C40 C 0.12674(15) 0.50664(8) 0.96429(13)
C41 C 0.14698(15) 0.46761(8) 0.91316(12)
H35 H 0.1241 0.4737 0.8541
C42 C 0.19988(15) 0.41980(8) 0.94570(12)
C43 C 0.23226(16) 0.41169(8) 1.03220(12)
H36 H 0.2688 0.3795 1.0556
C44 C 0.21249(16) 0.44948(8) 1.08530(13)
H37 H 0.2344 0.4429 1.1442
C45 C 0.16024(16) 0.49713(8) 1.05144(13)
C46 C 0.1700(2) 0.52830(11) 1.18698(16)
H38 H 0.1382 0.4951 1.1985
H39 H 0.1475 0.5589 1.2133
H40 H 0.2472 0.5253 1.2102
C47 C 0.12509(15) 0.30614(8) 0.92928(12)
C48 C 0.03043(15) 0.33112(8) 0.92338(12)
H41 H 0.0107 0.3635 0.8919
C49 C -0.03592(16) 0.30994(8) 0.96230(13)
H42 H -0.1004 0.3277 0.9569
C50 C -0.00794(16) 0.26281(8) 1.00918(13)
C51 C 0.08720(16) 0.23668(8) 1.01666(12)
C52 C 0.15111(15) 0.25849(8) 0.97621(12)
H43 H 0.2148 0.2404 0.9805
C53 C -0.1618(2) 0.26312(11) 1.0473(2)
H44 H -0.1487 0.2996 1.0711
H45 H -0.1954 0.2414 1.0793
H46 H -0.2086 0.2650 0.9882
C54 C 0.11806(18) 0.18606(8) 1.06757(13)
H47 H 0.1952 0.1806 1.0835
H48 H 0.1023 0.1902 1.1201
Cl1 Cl 0.1504(5) 0.53919(16) 0.38942(19)
Cl2 Cl 0.0260(4) 0.6270(3) 0.29374(18)
C55 C 0.1138(5) 0.6073(2) 0.3920(3)
Cl5 Cl 0.36322(13) 0.66669(8) 0.53768(10)
Cl6 Cl 0.37028(19) 0.69329(11) 0.37607(10)
C57 C 0.4387(4) 0.7004(3) 0.4849(4)
Cl3? Cl 0.0879(12) 0.5375(5) 0.3668(7)
Cl4? Cl 0.0722(7) 0.6439(3) 0.2997(4)
C56? C 0.105(3) 0.6070(6) 0.3958(9)
Cl7? Cl 0.5670(4) 0.7181(2) 0.4195(4)
Cl8? Cl 0.3699(9) 0.6881(5) 0.3838(6)
C58? C 0.4745(10) 0.7106(10) 0.4716(10)
loop_
_geom_bond_atom_site_label_1
_geom_bond_atom_site_label_2
_geom_bond_site_symmetry_1
_geom_bond_site_symmetry_2
O1 C1 1_555 1_555
O2 C4 1_555 1_555
O3 C17 1_555 1_555
O4 C24 1_555 1_555
O5 C28 1_555 1_555
O6 C32 1_555 1_555
O7 C45 1_555 1_555
O8 C50 1_555 1_555
O9 C7 1_555 1_555
O10 C7 1_555 1_555
O11 C9 1_555 1_555
O12 C9 1_555 1_555
O13 C35 1_555 1_555
O14 C35 1_555 1_555
O15 C37 1_555 1_555
O16 C37 1_555 1_555
C1 C2 1_555 1_555
C2 H1 1_555 1_555
C3 C2 1_555 1_555
C4 C3 1_555 1_555
C5 C4 1_555 1_555
H2 C5 1_555 1_555
C6 C1 1_555 1_555
C7 C6 1_555 1_555
C8 O10 1_555 1_555
H3 C8 1_555 1_555
H4 C8 1_555 1_555
H5 C8 1_555 1_555
C9 C3 1_555 1_555
C10 O12 1_555 1_555
H6 C10 1_555 1_555
H7 C10 1_555 1_555
H8 C10 1_555 1_555
C11 O2 1_555 1_555
H9 C11 1_555 1_555
H10 C11 1_555 1_555
C12 C11 1_555 1_555
C13 C12 1_555 1_555
H11 C13 1_555 1_555
C14 C13 1_555 1_555
C15 C14 1_555 1_555
H12 C15 1_555 1_555
C16 C15 1_555 1_555
H13 C16 1_555 1_555
C17 C12 1_555 1_555
C18 O3 1_555 1_555
H14 C18 1_555 1_555
H15 C18 1_555 1_555
H16 C18 1_555 1_555
C19 C14 1_555 1_555
C20 C19 1_555 1_555
C21 C20 1_555 1_555
C22 C21 1_555 1_555
H17 C22 1_555 1_555
C23 C22 1_555 1_555
H18 C23 1_555 1_555
C24 C23 1_555 1_555
C25 C24 1_555 1_555
C26 C21 1_555 1_555
H19 C26 1_555 1_555
C27 O4 1_555 1_555
H20 C27 1_555 1_555
H21 C27 1_555 1_555
H22 C27 1_555 1_555
C28 C25 1_555 1_555
H23 C28 1_555 1_555
H24 C28 1_555 1_555
C29 O5 1_555 1_555
C30 C29 1_555 1_555
H25 C30 1_555 1_555
C31 C30 1_555 1_555
C32 C31 1_555 1_555
C33 C32 1_555 1_555
H26 C33 1_555 1_555
C34 C29 1_555 1_555
C35 C34 1_555 1_555
C36 O13 1_555 1_555
H27 C36 1_555 1_555
H28 C36 1_555 1_555
H29 C36 1_555 1_555
C37 C31 1_555 1_555
C38 O16 1_555 1_555
H30 C38 1_555 1_555
H31 C38 1_555 1_555
H32 C38 1_555 1_555
C39 O6 1_555 1_555
H33 C39 1_555 1_555
H34 C39 1_555 1_555
C40 C39 1_555 1_555
C41 C40 1_555 1_555
H35 C41 1_555 1_555
C42 C20 1_555 1_555
C43 C42 1_555 1_555
H36 C43 1_555 1_555
C44 C43 1_555 1_555
H37 C44 1_555 1_555
C45 C40 1_555 1_555
C46 O7 1_555 1_555
H38 C46 1_555 1_555
H39 C46 1_555 1_555
H40 C46 1_555 1_555
C47 C19 1_555 1_555
C48 C47 1_555 1_555
H41 C48 1_555 1_555
C49 C48 1_555 1_555
H42 C49 1_555 1_555
C50 C49 1_555 1_555
C51 C50 1_555 1_555
C52 C47 1_555 1_555
H43 C52 1_555 1_555
C53 O8 1_555 1_555
H44 C53 1_555 1_555
H45 C53 1_555 1_555
H46 C53 1_555 1_555
C54 O1 1_555 1_555
H47 C54 1_555 1_555
H48 C54 1_555 1_555
Cl1 C55 1_555 1_555
Cl2 C55 1_555 1_555
Cl5 C57 1_555 1_555
Cl6 C57 1_555 1_555
C5 C6 1_555 1_555
C16 C17 1_555 1_555
C25 C26 1_555 1_555
C33 C34 1_555 1_555
C41 C42 1_555 1_555
C44 C45 1_555 1_555
C51 C52 1_555 1_555
C51 C54 1_555 1_555

#END
