
#######################################################################
#
#                 Cambridge Crystallographic Data Centre
#                                CCDC 
#
#######################################################################
#
# If this CIF has been generated from an entry in the Cambridge 
# Structural Database, then it will include bibliographic, chemical, 
# crystal, experimental, refinement or atomic coordinate data resulting 
# from the CCDC's data processing and validation procedures.
#
#######################################################################

data_MENZOX
_chemical_formula_moiety         'C46 H40 O8,C1 H2 Cl2'
_chemical_name_systematic        
'6,18,26,38-tetramethoxy-9,15,29,35-tetraoxaoctacyclo[35.3.1.1^3,7^.1^10,14^.1^17,21^.1^23,27^.1^30,34^.0^2,22^]hexatetraconta-1(41),2(22),3(46),4,6,10(45),11,13,17(44),18,20,23(43),24,26,30(42),31,33,37,39-nonadecaene dichloromethane solvate'
_symmetry_cell_setting           triclinic
_symmetry_space_group_name_H-M   'P -1'
_symmetry_Int_Tables_number      2
_space_group_name_Hall           '-P 1'
loop_
_symmetry_equiv_pos_site_id
_symmetry_equiv_pos_as_xyz
1 x,y,z
2 -x,-y,-z
_cell_length_a                   8.6680(8)
_cell_length_b                   11.5471(11)
_cell_length_c                   21.178(2)
_cell_angle_alpha                84.976(3)
_cell_angle_beta                 89.612(2)
_cell_angle_gamma                68.738(2)
_cell_volume                     1967.12
_exptl_crystal_colour            colorless
_exptl_crystal_description       Prism
_cell_formula_units_Z            2
loop_
_atom_site_label
_atom_site_type_symbol
_atom_site_fract_x
_atom_site_fract_y
_atom_site_fract_z
O1 O 0.4880(2) 1.16389(19) 0.39516(10)
O2 O 0.52642(18) 1.18429(15) 0.16890(9)
O3 O 0.14602(19) 1.46414(13) 0.14791(7)
O4 O 0.01850(19) 0.78862(15) -0.01339(7)
O5 O -0.32560(19) 0.87126(15) 0.01050(8)
O6 O -0.45315(17) 0.82348(13) 0.22865(8)
O7 O -0.1234(3) 0.53992(16) 0.33902(9)
O8 O 0.2236(2) 1.14867(16) 0.48424(7)
C1 C 0.4919(3) 1.2243(3) 0.33668(14)
C2 C 0.4907(3) 1.3448(3) 0.33798(19)
H1 H 0.4863 1.3798 0.3772
C3 C 0.4959(5) 1.4122(4) 0.2824(2)
H2 H 0.4938 1.4949 0.2833
C4 C 0.5041(4) 1.3629(3) 0.22502(18)
H3 H 0.5068 1.4112 0.1866
C5 C 0.5083(3) 1.2427(2) 0.22396(14)
C6 C 0.5001(2) 1.1734(2) 0.27941(13)
H4 H 0.5002 1.0914 0.2783
C7 C 0.3937(3) 1.2426(2) 0.12243(11)
H5 H 0.4160 1.1949 0.0846
H6 H 0.3881 1.3284 0.1090
C8 C 0.2317(2) 1.24735(18) 0.14914(9)
C9 C 0.2033(2) 1.13766(17) 0.16283(8)
H7 H 0.2801 1.0625 0.1492
C10 C 0.0656(2) 1.13393(16) 0.19602(8)
C11 C -0.0461(2) 1.24550(17) 0.21395(9)
H8 H -0.1399 1.2451 0.2373
C12 C -0.0245(2) 1.35769(18) 0.19881(9)
H9 H -0.1043 1.4332 0.2108
C13 C 0.1145(2) 1.35939(17) 0.16597(8)
C14 C 0.0412(3) 1.5778(2) 0.16994(14)
H10 H -0.0677 1.6045 0.1486
H11 H 0.0897 1.6418 0.1606
H12 H 0.0290 1.5657 0.2158
C15 C 0.0399(2) 1.01417(17) 0.21040(8)
C16 C 0.0317(2) 0.94829(16) 0.15375(8)
C17 C 0.1693(2) 0.85072(17) 0.13695(9)
H13 H 0.2649 0.8207 0.1642
C18 C 0.1712(2) 0.79557(19) 0.08127(9)
H14 H 0.2685 0.7306 0.0699
C19 C 0.0302(2) 0.83580(18) 0.04224(9)
C20 C -0.1124(2) 0.93120(17) 0.05920(9)
C21 C -0.1083(2) 0.98755(17) 0.11383(9)
H15 H -0.2037 1.0550 0.1244
C22 C 0.1582(4) 0.6932(3) -0.03288(14)
H16 H 0.2521 0.7214 -0.0355
H17 H 0.1354 0.6716 -0.0746
H18 H 0.1852 0.6196 -0.0022
C23 C -0.2669(3) 0.9715(2) 0.01820(11)
H19 H -0.3550 1.0396 0.0373
H20 H -0.2446 1.0051 -0.0241
C24 C -0.3524(2) 0.8048(2) 0.06249(12)
C25 C -0.3476(3) 0.6850(2) 0.05346(13)
H21 H -0.3234 0.6540 0.0130
C26 C -0.3776(3) 0.6132(2) 0.10268(14)
H22 H -0.3755 0.5324 0.0960
C27 C -0.4110(3) 0.6545(2) 0.16193(13)
H23 H -0.4322 0.6031 0.1958
C28 C -0.4133(2) 0.77289(19) 0.17157(12)
C29 C -0.3860(2) 0.84889(19) 0.12208(11)
H24 H -0.3902 0.9303 0.1287
C30 C -0.3705(3) 0.7445(2) 0.28327(12)
H25 H -0.3631 0.6582 0.2784
H26 H -0.4367 0.7725 0.3211
C31 C -0.1988(2) 0.74478(18) 0.29370(9)
C32 C -0.1585(2) 0.84811(17) 0.27468(9)
H27 H -0.2401 0.9188 0.2527
C33 C -0.0037(2) 0.85208(17) 0.28660(8)
C34 C 0.1140(3) 0.74725(19) 0.31868(10)
H28 H 0.2206 0.7480 0.3281
C35 C 0.0780(3) 0.6416(2) 0.33714(11)
H29 H 0.1600 0.5703 0.3586
C36 C -0.0773(3) 0.64043(19) 0.32426(10)
C37 C 0.0050(5) 0.4239(3) 0.36128(19)
H30 H 0.0989 0.4071 0.3329
H31 H -0.0379 0.3561 0.3619
H32 H 0.0415 0.4295 0.4042
C38 C 0.0346(2) 0.96640(17) 0.27003(9)
C39 C 0.0766(2) 1.02210(17) 0.32550(8)
C40 C -0.0376(3) 1.07144(19) 0.37152(10)
H33 H -0.1479 1.0745 0.3666
C41 C 0.0064(3) 1.11638(19) 0.42462(10)
H34 H -0.0738 1.1510 0.4553
C42 C 0.1672(3) 1.11049(19) 0.43269(9)
C43 C 0.2856(3) 1.06099(19) 0.38749(9)
C44 C 0.2371(2) 1.01852(18) 0.33454(9)
H35 H 0.3165 0.9858 0.3033
C45 C 0.1088(4) 1.1938(3) 0.53316(11)
H36 H 0.0171 1.2688 0.5162
H37 H 0.1649 1.2143 0.5681
H38 H 0.0655 1.1294 0.5487
C46 C 0.4632(3) 1.0471(2) 0.39826(12)
H39 H 0.5021 1.0018 0.4404
H40 H 0.5318 0.9959 0.3660
Cl3 Cl 0.7232(2) 0.52641(16) 0.50265(8)
Cl4 Cl 0.4082(3) 0.6974(3) 0.44905(12)
C48 C 0.6117(7) 0.6797(5) 0.4684(3)
Cl1? Cl 0.6833(3) 0.5621(2) 0.44598(10)
Cl2? Cl 0.3830(4) 0.7757(3) 0.45798(12)
C47? C 0.5432(8) 0.6531(6) 0.4992(3)
loop_
_geom_bond_atom_site_label_1
_geom_bond_atom_site_label_2
_geom_bond_site_symmetry_1
_geom_bond_site_symmetry_2
O1 C1 1_555 1_555
O2 C5 1_555 1_555
O3 C13 1_555 1_555
O4 C19 1_555 1_555
O5 C23 1_555 1_555
O6 C28 1_555 1_555
O7 C36 1_555 1_555
O8 C42 1_555 1_555
C1 C2 1_555 1_555
C2 H1 1_555 1_555
C3 C2 1_555 1_555
H2 C3 1_555 1_555
C4 C3 1_555 1_555
H3 C4 1_555 1_555
C5 C4 1_555 1_555
C6 C1 1_555 1_555
H4 C6 1_555 1_555
C7 O2 1_555 1_555
H5 C7 1_555 1_555
H6 C7 1_555 1_555
C8 C7 1_555 1_555
C9 C8 1_555 1_555
H7 C9 1_555 1_555
C10 C9 1_555 1_555
C11 C10 1_555 1_555
H8 C11 1_555 1_555
C12 C11 1_555 1_555
H9 C12 1_555 1_555
C13 C8 1_555 1_555
C14 O3 1_555 1_555
H10 C14 1_555 1_555
H11 C14 1_555 1_555
H12 C14 1_555 1_555
C15 C10 1_555 1_555
C16 C15 1_555 1_555
C17 C16 1_555 1_555
H13 C17 1_555 1_555
C18 C17 1_555 1_555
H14 C18 1_555 1_555
C19 C18 1_555 1_555
C20 C19 1_555 1_555
C21 C16 1_555 1_555
H15 C21 1_555 1_555
C22 O4 1_555 1_555
H16 C22 1_555 1_555
H17 C22 1_555 1_555
H18 C22 1_555 1_555
C23 C20 1_555 1_555
H19 C23 1_555 1_555
H20 C23 1_555 1_555
C24 O5 1_555 1_555
C25 C24 1_555 1_555
H21 C25 1_555 1_555
C26 C25 1_555 1_555
H22 C26 1_555 1_555
C27 C26 1_555 1_555
H23 C27 1_555 1_555
C28 C27 1_555 1_555
C29 C24 1_555 1_555
H24 C29 1_555 1_555
C30 O6 1_555 1_555
H25 C30 1_555 1_555
H26 C30 1_555 1_555
C31 C30 1_555 1_555
C32 C31 1_555 1_555
H27 C32 1_555 1_555
C33 C32 1_555 1_555
C34 C33 1_555 1_555
H28 C34 1_555 1_555
C35 C34 1_555 1_555
H29 C35 1_555 1_555
C36 C31 1_555 1_555
C37 O7 1_555 1_555
H30 C37 1_555 1_555
H31 C37 1_555 1_555
H32 C37 1_555 1_555
C38 C15 1_555 1_555
C39 C38 1_555 1_555
C40 C39 1_555 1_555
H33 C40 1_555 1_555
C41 C40 1_555 1_555
H34 C41 1_555 1_555
C42 C41 1_555 1_555
C43 C42 1_555 1_555
C44 C39 1_555 1_555
H35 C44 1_555 1_555
C45 O8 1_555 1_555
H36 C45 1_555 1_555
H37 C45 1_555 1_555
H38 C45 1_555 1_555
C46 O1 1_555 1_555
H39 C46 1_555 1_555
H40 C46 1_555 1_555
Cl3 C48 1_555 1_555
Cl4 C48 1_555 1_555
C5 C6 1_555 1_555
C12 C13 1_555 1_555
C20 C21 1_555 1_555
C28 C29 1_555 1_555
C33 C38 1_555 1_555
C35 C36 1_555 1_555
C43 C44 1_555 1_555
C43 C46 1_555 1_555

#END
