
#######################################################################
#
#                 Cambridge Crystallographic Data Centre
#                                CCDC 
#
#######################################################################
#
# If this CIF has been generated from an entry in the Cambridge 
# Structural Database, then it will include bibliographic, chemical, 
# crystal, experimental, refinement or atomic coordinate data resulting 
# from the CCDC's data processing and validation procedures.
#
#######################################################################

data_MEPCIU
_chemical_formula_moiety         '2(C9 H8 N1 O1 1+),C10 H4 O8 2-,2(H2 O1)'
_chemical_name_systematic        
'bis(8-Hydroxyquinolinium) 2,5-dicarboxybenzene-1,4-dicarboxylate dihydrate'
_symmetry_cell_setting           orthorhombic
_symmetry_space_group_name_H-M   'P b c n'
_symmetry_Int_Tables_number      60
_space_group_name_Hall           '-P 2n 2ab'
loop_
_symmetry_equiv_pos_site_id
_symmetry_equiv_pos_as_xyz
1 x,y,z
2 1/2-x,1/2-y,1/2+z
3 -x,y,1/2-z
4 1/2+x,1/2-y,-z
5 -x,-y,-z
6 1/2+x,1/2+y,1/2-z
7 x,-y,1/2+z
8 1/2-x,1/2+y,z
_cell_length_a                   10.129(3)
_cell_length_b                   16.049(4)
_cell_length_c                   16.006(4)
_cell_angle_alpha                90
_cell_angle_beta                 90
_cell_angle_gamma                90
_cell_volume                     2601.94
_exptl_crystal_colour            brown
_exptl_crystal_description       prism
_cell_formula_units_Z            4
loop_
_atom_site_label
_atom_site_type_symbol
_atom_site_fract_x
_atom_site_fract_y
_atom_site_fract_z
O1 O 0.7740(5) 0.3008(2) 0.7452(3)
H1 H 0.8224 0.2852 0.7831
N1 N 0.5863(5) 0.3661(3) 0.6510(3)
H3 H 0.6022 0.3134 0.6530
C1 C 0.4880(6) 0.3920(4) 0.6063(4)
H4 H 0.4344 0.3540 0.5784
C2 C 0.4631(6) 0.4772(4) 0.6002(3)
H5 H 0.3933 0.4959 0.5674
C3 C 0.5380(6) 0.5322(3) 0.6406(3)
H6 H 0.5185 0.5887 0.6367
C4 C 0.7292(7) 0.5614(4) 0.7330(4)
H7 H 0.7182 0.6188 0.7291
C5 C 0.8292(7) 0.5268(5) 0.7825(4)
H8 H 0.8867 0.5611 0.8121
C6 C 0.8415(6) 0.4392(4) 0.7870(4)
H9 H 0.9065 0.4173 0.8217
C7 C 0.7672(6) 0.3869(4) 0.7454(4)
C8 C 0.6665(5) 0.4195(3) 0.6955(3)
C9 C 0.6461(5) 0.5063(3) 0.6893(3)
O2 O 0.7405(3) 0.16330(18) 0.5290(2)
H2 H 0.7951 0.2216 0.5399
O3 O 0.5603(3) 0.2029(2) 0.5988(2)
O4 O 0.3664(3) 0.20723(18) 0.4543(2)
O5 O 0.2268(3) 0.1427(2) 0.5389(2)
C10 C 0.5561(4) 0.0765(2) 0.5230(3)
C11 C 0.6309(4) 0.0039(2) 0.5205(3)
H10 H 0.7199 0.0066 0.5346
C12 C 0.4225(4) 0.0724(2) 0.5023(3)
C13 C 0.6199(4) 0.1551(3) 0.5529(3)
C14 C 0.3309(4) 0.1464(3) 0.5008(3)
O2D O 0.2595(3) -0.16330(18) 0.4710(2)
H2D H 0.2049 -0.2216 0.4601
O3D O 0.4397(3) -0.2029(2) 0.4012(2)
O4D O 0.6336(3) -0.20723(18) 0.5457(2)
O5D O 0.7732(3) -0.1427(2) 0.4611(2)
C10D C 0.4439(4) -0.0765(2) 0.4770(3)
C11D C 0.3691(4) -0.0039(2) 0.4795(3)
H10D H 0.2801 -0.0066 0.4654
C12D C 0.5775(4) -0.0724(2) 0.4977(3)
C13D C 0.3801(4) -0.1551(3) 0.4471(3)
C14D C 0.6691(4) -0.1464(3) 0.4992(3)
O6 O 0.9218(4) 0.2413(3) 0.8592(2)
H11 H 0.9780 0.2686 0.8875
H12 H 0.8642 0.2220 0.8926
loop_
_geom_bond_atom_site_label_1
_geom_bond_atom_site_label_2
_geom_bond_site_symmetry_1
_geom_bond_site_symmetry_2
O1 H1 1_555 1_555
O2 H2 1_555 1_555
O3 C13 1_555 1_555
O4 C14 1_555 1_555
O5 C14 1_555 1_555
N1 H3 1_555 1_555
C1 N1 1_555 1_555
H4 C1 1_555 1_555
C2 C1 1_555 1_555
H5 C2 1_555 1_555
C3 C2 1_555 1_555
H6 C3 1_555 1_555
C4 H7 1_555 1_555
C5 C4 1_555 1_555
H8 C5 1_555 1_555
C6 C5 1_555 1_555
H9 C6 1_555 1_555
C7 O1 1_555 1_555
C8 N1 1_555 1_555
C9 C3 1_555 1_555
C10 C11 1_555 1_555
C11 H10 1_555 1_555
C12 C10 1_555 1_555
C13 O2 1_555 1_555
C14 C12 1_555 1_555
O6 H11 1_555 1_555
H12 O6 1_555 1_555
O2D H2D 1_555 1_555
O3D C13D 1_555 1_555
O4D C14D 1_555 1_555
O5D C14D 1_555 1_555
C10D C11D 1_555 1_555
C11D C12 1_555 1_555
H10D C11D 1_555 1_555
C12D C11 1_555 1_555
C13D O2D 1_555 1_555
C14D C12D 1_555 1_555
C4 C9 1_555 1_555
C6 C7 1_555 1_555
C7 C8 1_555 1_555
C8 C9 1_555 1_555
C10 C13 1_555 1_555
C10D C12D 1_555 1_555
C10D C13D 1_555 1_555

#END
