
#######################################################################
#
#                 Cambridge Crystallographic Data Centre
#                                CCDC 
#
#######################################################################
#
# If this CIF has been generated from an entry in the Cambridge 
# Structural Database, then it will include bibliographic, chemical, 
# crystal, experimental, refinement or atomic coordinate data resulting 
# from the CCDC's data processing and validation procedures.
#
#######################################################################

data_MEPFOD
_chemical_formula_moiety         'C13 H19 N3 O3'
_chemical_name_systematic        
4-Nitro-2-((2-diethylaminoethylimino)methyl)phenol
_symmetry_cell_setting           orthorhombic
_symmetry_space_group_name_H-M   'P b c a'
_symmetry_Int_Tables_number      61
_space_group_name_Hall           '-P 2ac 2ab'
loop_
_symmetry_equiv_pos_site_id
_symmetry_equiv_pos_as_xyz
1 x,y,z
2 1/2-x,-y,1/2+z
3 -x,1/2+y,1/2-z
4 1/2+x,1/2-y,-z
5 -x,-y,-z
6 1/2+x,y,1/2-z
7 x,1/2-y,1/2+z
8 1/2-x,1/2+y,z
_cell_length_a                   13.151(3)
_cell_length_b                   20.609(4)
_cell_length_c                   20.991(4)
_cell_angle_alpha                90
_cell_angle_beta                 90
_cell_angle_gamma                90
_cell_volume                     5689.17
_exptl_crystal_colour            yellow
_exptl_crystal_description       needle
_chemical_melting_point          132.0-133.5deg.C
_cell_formula_units_Z            16
loop_
_atom_site_label
_atom_site_type_symbol
_atom_site_fract_x
_atom_site_fract_y
_atom_site_fract_z
O1 O 0.6479(2) 1.02137(13) 0.41297(13)
O2 O 1.1134(2) 1.06871(16) 0.43709(15)
O3 O 1.0601(3) 1.16651(17) 0.42390(18)
N1 N 0.7208(2) 0.90006(16) 0.42715(16)
N2 N 0.7797(2) 0.83137(15) 0.31342(17)
N3 N 1.0446(3) 1.1085(2) 0.42807(17)
C1 C 0.8227(3) 0.99778(18) 0.42251(16)
C2 C 0.7382(3) 1.0411(2) 0.41511(17)
C3 C 0.7637(3) 1.1086(2) 0.41109(19)
H1 H 0.7119 1.1388 0.4056
C4 C 0.8611(4) 1.1298(2) 0.41510(19)
H2 H 0.8751 1.1739 0.4123
C5 C 0.9408(3) 1.0853(2) 0.42342(18)
C6 C 0.9229(3) 1.02027(18) 0.42648(16)
H3 H 0.9765 0.9912 0.4312
C7 C 0.8077(3) 0.9292(2) 0.42601(16)
H4 H 0.8656 0.9033 0.4276
C8 C 0.7121(3) 0.83005(19) 0.4223(2)
H5 H 0.6555 0.8150 0.4480
H6 H 0.7737 0.8097 0.4380
C9 C 0.6951(3) 0.81155(19) 0.3533(2)
H7 H 0.6865 0.7649 0.3503
H8 H 0.6333 0.8319 0.3381
C10 C 0.7450(4) 0.8511(2) 0.2501(2)
H9 H 0.6991 0.8183 0.2335
H10 H 0.8030 0.8536 0.2217
C11 C 0.6916(4) 0.9153(2) 0.2511(2)
H11 H 0.6328 0.9126 0.2781
H12 H 0.6709 0.9265 0.2086
H13 H 0.7369 0.9480 0.2672
C12 C 0.8585(3) 0.7811(2) 0.3111(2)
H14 H 0.8326 0.7442 0.2874
H15 H 0.8728 0.7666 0.3541
C13 C 0.9566(3) 0.8037(3) 0.2805(2)
H16 H 0.9448 0.8133 0.2364
H17 H 1.0069 0.7701 0.2840
H18 H 0.9804 0.8420 0.3019
H38 H 0.6654(19) 0.9258(16) 0.4244(18)
O4 O 0.5028(2) -0.09202(13) 0.42401(13)
O5 O 0.0921(2) -0.23937(17) 0.43625(17)
O6 O 0.0366(2) -0.14059(16) 0.42882(15)
N4 N 0.4286(3) 0.02912(16) 0.42727(15)
N5 N 0.3740(2) 0.09458(15) 0.31091(16)
N6 N 0.1069(3) -0.1804(2) 0.43112(17)
C14 C 0.3272(3) -0.06839(19) 0.42517(16)
C15 C 0.4121(3) -0.1121(2) 0.42487(18)
C16 C 0.3880(3) -0.1799(2) 0.4268(2)
H19 H 0.4406 -0.2101 0.4270
C17 C 0.2906(3) -0.2010(2) 0.42855(18)
H20 H 0.2771 -0.2452 0.4304
C18 C 0.2101(3) -0.1566(2) 0.42759(18)
C19 C 0.2283(3) -0.0914(2) 0.42608(16)
H21 H 0.1741 -0.0624 0.4257
C20 C 0.3421(3) -0.0001(2) 0.42514(16)
H22 H 0.2842 0.0258 0.4234
C21 C 0.4386(3) 0.09908(19) 0.42020(18)
H23 H 0.4947 0.1146 0.4461
H24 H 0.3769 0.1202 0.4347
C22 C 0.4577(3) 0.11564(18) 0.35158(18)
H25 H 0.4664 0.1622 0.3474
H26 H 0.5200 0.0949 0.3376
C23 C 0.2949(3) 0.1446(2) 0.3069(2)
H27 H 0.3170 0.1783 0.2778
H28 H 0.2857 0.1641 0.3485
C24 C 0.1950(3) 0.1176(2) 0.2843(2)
H29 H 0.2009 0.1047 0.2405
H30 H 0.1432 0.1502 0.2882
H31 H 0.1769 0.0806 0.3097
C25 C 0.4086(3) 0.0723(2) 0.2486(2)
H32 H 0.4542 0.1044 0.2305
H33 H 0.3504 0.0683 0.2204
C26 C 0.4624(4) 0.0082(3) 0.2521(2)
H34 H 0.5252 0.0134 0.2748
H35 H 0.4761 -0.0071 0.2097
H36 H 0.4202 -0.0226 0.2739
H37 H 0.4885(17) 0.0076(18) 0.4263(17)
loop_
_geom_bond_atom_site_label_1
_geom_bond_atom_site_label_2
_geom_bond_site_symmetry_1
_geom_bond_site_symmetry_2
O1 C2 1_555 1_555
O2 N3 1_555 1_555
O3 N3 1_555 1_555
O4 C15 1_555 1_555
O5 N6 1_555 1_555
O6 N6 1_555 1_555
N1 C7 1_555 1_555
N2 C9 1_555 1_555
N3 C5 1_555 1_555
N4 C20 1_555 1_555
N5 C22 1_555 1_555
N6 C18 1_555 1_555
C1 C2 1_555 1_555
C2 C3 1_555 1_555
C3 H1 1_555 1_555
C4 C3 1_555 1_555
H2 C4 1_555 1_555
C5 C4 1_555 1_555
C6 C1 1_555 1_555
H3 C6 1_555 1_555
C7 C1 1_555 1_555
H4 C7 1_555 1_555
C8 N1 1_555 1_555
H5 C8 1_555 1_555
H6 C8 1_555 1_555
C9 C8 1_555 1_555
H7 C9 1_555 1_555
H8 C9 1_555 1_555
C10 N2 1_555 1_555
H9 C10 1_555 1_555
H10 C10 1_555 1_555
C11 C10 1_555 1_555
H11 C11 1_555 1_555
H12 C11 1_555 1_555
H13 C11 1_555 1_555
C12 N2 1_555 1_555
H14 C12 1_555 1_555
H15 C12 1_555 1_555
C13 C12 1_555 1_555
H16 C13 1_555 1_555
H17 C13 1_555 1_555
H18 C13 1_555 1_555
C14 C15 1_555 1_555
C15 C16 1_555 1_555
C16 H19 1_555 1_555
C17 C16 1_555 1_555
H20 C17 1_555 1_555
C18 C17 1_555 1_555
C19 C14 1_555 1_555
H21 C19 1_555 1_555
C20 C14 1_555 1_555
H22 C20 1_555 1_555
C21 N4 1_555 1_555
H23 C21 1_555 1_555
H24 C21 1_555 1_555
C22 C21 1_555 1_555
H25 C22 1_555 1_555
H26 C22 1_555 1_555
C23 N5 1_555 1_555
H27 C23 1_555 1_555
H28 C23 1_555 1_555
C24 C23 1_555 1_555
H29 C24 1_555 1_555
H30 C24 1_555 1_555
H31 C24 1_555 1_555
C25 N5 1_555 1_555
H32 C25 1_555 1_555
H33 C25 1_555 1_555
C26 C25 1_555 1_555
H34 C26 1_555 1_555
H35 C26 1_555 1_555
H36 C26 1_555 1_555
H37 N4 1_555 1_555
H38 N1 1_555 1_555
C5 C6 1_555 1_555
C18 C19 1_555 1_555

#END
