
#######################################################################
#
#                 Cambridge Crystallographic Data Centre
#                                CCDC 
#
#######################################################################
#
# If this CIF has been generated from an entry in the Cambridge 
# Structural Database, then it will include bibliographic, chemical, 
# crystal, experimental, refinement or atomic coordinate data resulting 
# from the CCDC's data processing and validation procedures.
#
#######################################################################

data_MEPHAT
_chemical_formula_moiety         'C25 H19 N1 O6,C1 H4 O1'
_chemical_name_systematic        
"3-methoxy-1'-methyl-10,11-dihydro-6H-spiro[1-benzopyrano[4,3-b][1]benzopyran-7,3'-indole]-2',6,8(1'H,9H)-trione methanol solvate"
_symmetry_cell_setting           monoclinic
_symmetry_space_group_name_H-M   'C 2/c'
_symmetry_Int_Tables_number      15
_space_group_name_Hall           '-C 2yn'
loop_
_symmetry_equiv_pos_site_id
_symmetry_equiv_pos_as_xyz
1 x,y,z
2 -x,y,1/2-z
3 1/2+x,1/2+y,z
4 1/2-x,1/2+y,1/2-z
5 -x,-y,-z
6 x,-y,1/2+z
7 1/2-x,1/2-y,-z
8 1/2+x,1/2-y,1/2+z
_cell_length_a                   31.664(6)
_cell_length_b                   9.5511(19)
_cell_length_c                   13.684(3)
_cell_angle_alpha                90
_cell_angle_beta                 99.35(3)
_cell_angle_gamma                90
_cell_volume                     4083.42
_cell_formula_units_Z            8
loop_
_atom_site_label
_atom_site_type_symbol
_atom_site_fract_x
_atom_site_fract_y
_atom_site_fract_z
O1 O 0.20641(7) 1.0270(2) 0.50535(16)
O2 O 0.07175(6) 1.0521(2) 0.61018(15)
O3 O 0.10269(7) 0.5838(2) 0.53154(17)
O4 O 0.04028(6) 0.6365(2) 0.57195(15)
O5 O 0.13010(7) 0.8310(2) 0.37516(14)
O6 O -0.09461(7) 0.7335(3) 0.66765(18)
N1 N 0.18155(7) 0.7120(2) 0.48183(16)
C1 C 0.17811(9) 1.0947(3) 0.53363(19)
C2 C 0.17927(10) 1.2513(3) 0.5382(2)
H1 H 0.1639 1.2892 0.4768
H2 H 0.2087 1.2828 0.5451
C3 C 0.15931(10) 1.3068(3) 0.6248(2)
H3 H 0.1755 1.2739 0.6868
H4 H 0.1599 1.4083 0.6251
C4 C 0.11342(10) 1.2558(3) 0.6148(2)
H5 H 0.1025 1.2744 0.6758
H6 H 0.0958 1.3069 0.5619
C5 C 0.11037(9) 1.1044(3) 0.59306(19)
C6 C 0.14033(9) 1.0247(3) 0.56145(19)
C7 C 0.13764(9) 0.8658(3) 0.55670(19)
C8 C 0.09260(9) 0.8223(3) 0.56758(19)
C9 C 0.08047(9) 0.6764(3) 0.5549(2)
C10 C 0.01135(9) 0.7315(3) 0.5965(2)
C11 C -0.02738(10) 0.6779(4) 0.6151(2)
H7 H -0.0333 0.5826 0.6099
C12 C -0.05698(10) 0.7725(4) 0.6417(2)
C13 C -0.04941(9) 0.9169(4) 0.6434(2)
H8 H -0.0704 0.9789 0.6566
C14 C -0.01072(9) 0.9659(3) 0.6256(2)
H9 H -0.0054 1.0616 0.6277
C15 C 0.02109(9) 0.8726(3) 0.6041(2)
C16 C 0.06328(9) 0.9137(3) 0.59203(19)
C17 C -0.10050(12) 0.5884(4) 0.6873(3)
H10 H -0.1024 0.5362 0.6268
H11 H -0.1264 0.5765 0.7143
H12 H -0.0767 0.5551 0.7339
C18 C 0.17151(9) 0.7962(3) 0.6328(2)
C19 C 0.19560(9) 0.7045(3) 0.5847(2)
C20 C 0.22774(9) 0.6227(3) 0.6357(2)
H13 H 0.2433 0.5609 0.6029
C21 C 0.23587(9) 0.6365(3) 0.7383(2)
H14 H 0.2569 0.5812 0.7748
C22 C 0.21332(9) 0.7307(4) 0.7875(2)
H15 H 0.2200 0.7401 0.8559
C23 C 0.18055(9) 0.8118(3) 0.7341(2)
H16 H 0.1652 0.8750 0.7664
C24 C 0.14887(9) 0.8045(3) 0.4580(2)
C25 C 0.19756(10) 0.6228(3) 0.4106(2)
H17 H 0.1831 0.6447 0.3452
H18 H 0.1925 0.5266 0.4253
H19 H 0.2277 0.6380 0.4140
O7 O 0.45784(6) 0.2070(2) 0.18984(15)
H20 H 0.4390 0.1581 0.1588
C26 C 0.5059(2) 0.1672(6) 0.1547(5)
H21 H 0.5195 0.2517 0.1381
H22 H 0.5012 0.1065 0.0980
H23 H 0.5239 0.1209 0.2082
loop_
_geom_bond_atom_site_label_1
_geom_bond_atom_site_label_2
_geom_bond_site_symmetry_1
_geom_bond_site_symmetry_2
O1 C1 1_555 1_555
O2 C5 1_555 1_555
O3 C9 1_555 1_555
O4 C9 1_555 1_555
O5 C24 1_555 1_555
O6 C12 1_555 1_555
N1 C19 1_555 1_555
C1 C2 1_555 1_555
C2 H1 1_555 1_555
H2 C2 1_555 1_555
C3 C2 1_555 1_555
H3 C3 1_555 1_555
H4 C3 1_555 1_555
C4 C3 1_555 1_555
H5 C4 1_555 1_555
H6 C4 1_555 1_555
C5 C4 1_555 1_555
C6 C1 1_555 1_555
C7 C6 1_555 1_555
C8 C7 1_555 1_555
C9 C8 1_555 1_555
C10 O4 1_555 1_555
C11 C10 1_555 1_555
H7 C11 1_555 1_555
C12 C11 1_555 1_555
C13 C12 1_555 1_555
H8 C13 1_555 1_555
C14 C13 1_555 1_555
H9 C14 1_555 1_555
C15 C10 1_555 1_555
C16 O2 1_555 1_555
C17 O6 1_555 1_555
H10 C17 1_555 1_555
H11 C17 1_555 1_555
H12 C17 1_555 1_555
C18 C7 1_555 1_555
C19 C18 1_555 1_555
C20 C19 1_555 1_555
H13 C20 1_555 1_555
C21 C20 1_555 1_555
H14 C21 1_555 1_555
C22 C21 1_555 1_555
H15 C22 1_555 1_555
C23 C18 1_555 1_555
H16 C23 1_555 1_555
C24 N1 1_555 1_555
C25 N1 1_555 1_555
H17 C25 1_555 1_555
H18 C25 1_555 1_555
H19 C25 1_555 1_555
O7 H20 1_555 1_555
C26 O7 1_555 1_555
H21 C26 1_555 1_555
H22 C26 1_555 1_555
H23 C26 1_555 1_555
C5 C6 1_555 1_555
C7 C24 1_555 1_555
C8 C16 1_555 1_555
C14 C15 1_555 1_555
C15 C16 1_555 1_555
C22 C23 1_555 1_555

#END
