
#######################################################################
#
#                 Cambridge Crystallographic Data Centre
#                                CCDC 
#
#######################################################################
#
# If this CIF has been generated from an entry in the Cambridge 
# Structural Database, then it will include bibliographic, chemical, 
# crystal, experimental, refinement or atomic coordinate data resulting 
# from the CCDC's data processing and validation procedures.
#
#######################################################################

data_MEPKAW
_chemical_formula_moiety         'C50 H38 O2'
_chemical_name_systematic        
7-t-butyl-5,9-bis[(4-methoxyphenyl)ethynyl]-1,3-diphenylpyrene
_symmetry_cell_setting           monoclinic
_symmetry_space_group_name_H-M   'C c'
_symmetry_Int_Tables_number      9
_space_group_name_Hall           'C -2yc'
loop_
_symmetry_equiv_pos_site_id
_symmetry_equiv_pos_as_xyz
1 x,y,z
2 x,-y,1/2+z
3 1/2+x,1/2+y,z
4 1/2+x,1/2-y,1/2+z
_cell_length_a                   16.3212(13)
_cell_length_b                   13.2595(11)
_cell_length_c                   18.230(2)
_cell_angle_alpha                90
_cell_angle_beta                 115.0330(12)
_cell_angle_gamma                90
_cell_volume                     3574.58
_exptl_crystal_colour            yellow
_exptl_crystal_description       block
_cell_formula_units_Z            4
_exptl_crystal_recrystallization_method chloroform/hexane
loop_
_atom_site_label
_atom_site_type_symbol
_atom_site_fract_x
_atom_site_fract_y
_atom_site_fract_z
C1 C 0.53283(19) 0.44304(16) 0.50663(17)
C2 C 0.53537(19) 0.55110(15) 0.50841(17)
C3 C 0.50126(18) 0.60861(18) 0.43589(15)
C4 C 0.50545(19) 0.71391(19) 0.43926(15)
H1 H 0.4819 0.7513 0.3902
C5 C 0.54348(18) 0.76553(16) 0.51302(16)
C6 C 0.57607(18) 0.70906(18) 0.58420(16)
H2 H 0.6015 0.7432 0.6347
C7 C 0.57240(18) 0.60369(18) 0.58338(15)
C8 C 0.60819(18) 0.54559(19) 0.65766(15)
C9 C 0.60448(19) 0.44226(19) 0.65559(16)
H3 H 0.6267 0.4058 0.7051
C10 C 0.56780(17) 0.38787(18) 0.58043(15)
C11 C 0.56375(18) 0.28130(18) 0.57806(16)
C12 C 0.52610(19) 0.23338(17) 0.50269(18)
H4 H 0.5229 0.1618 0.5014
C13 C 0.49307(18) 0.28502(19) 0.42953(17)
C14 C 0.49537(18) 0.39193(18) 0.43028(15)
C15 C 0.45905(18) 0.4517(2) 0.35785(16)
H5 H 0.4322 0.4183 0.3071
C16 C 0.46160(18) 0.55509(19) 0.35899(15)
C17 C 0.54558(19) 0.88128(17) 0.51483(17)
C18 C 0.5745(2) 0.9228(2) 0.4505(2)
H6 H 0.6346 0.8969 0.4608
H7 H 0.5763 0.9966 0.4531
H8 H 0.5310 0.9013 0.3966
C19 C 0.4502(2) 0.9192(2) 0.4974(2)
H9 H 0.4077 0.8967 0.4435
H10 H 0.4504 0.9930 0.4996
H11 H 0.4317 0.8920 0.5381
C20 C 0.6123(2) 0.9220(2) 0.59767(19)
H12 H 0.5914 0.9034 0.6389
H13 H 0.6158 0.9956 0.5951
H14 H 0.6723 0.8929 0.6118
C21 C 0.6487(2) 0.5980(2) 0.73333(16)
C22 C 0.6837(2) 0.6480(2) 0.79418(17)
C23 C 0.7212(2) 0.7143(2) 0.86250(17)
C24 C 0.7538(2) 0.8103(3) 0.8529(2)
H15 H 0.7522 0.8279 0.8018
C25 C 0.7875(2) 0.8786(3) 0.9155(2)
H16 H 0.8093 0.9423 0.9077
C26 C 0.7894(2) 0.8538(3) 0.9889(2)
C27 C 0.7592(3) 0.7627(3) 1.0023(2)
H17 H 0.7613 0.7471 1.0539
C28 C 0.7245(2) 0.6911(3) 0.93786(19)
H18 H 0.7035 0.6274 0.9466
O1 O 0.8225(2) 0.9282(2) 1.04728(18)
C29 C 0.8203(6) 0.9116(4) 1.1207(3)
H19 H 0.7735 0.9539 1.1252
H20 H 0.8793 0.9286 1.1643
H21 H 0.8068 0.8404 1.1251
C30 C 0.59861(18) 0.21869(18) 0.65262(16)
C31 C 0.6894(2) 0.2202(2) 0.70810(18)
H22 H 0.7305 0.2638 0.6993
C32 C 0.7202(2) 0.1582(2) 0.77644(19)
H23 H 0.7822 0.1592 0.8134
C33 C 0.6604(2) 0.0953(2) 0.7905(2)
H24 H 0.6812 0.0537 0.8374
C34 C 0.5700(2) 0.0934(2) 0.73579(19)
H25 H 0.5289 0.0506 0.7454
C35 C 0.53915(19) 0.15369(19) 0.66711(17)
H26 H 0.4774 0.1509 0.6296
C36 C 0.45894(18) 0.22391(19) 0.35376(16)
C37 C 0.4872(2) 0.2426(2) 0.29224(19)
H27 H 0.5274 0.2968 0.2975
C38 C 0.4565(2) 0.1820(3) 0.2237(2)
H28 H 0.4763 0.1946 0.1824
C39 C 0.3976(2) 0.1037(3) 0.2149(2)
H29 H 0.3764 0.0632 0.1675
C40 C 0.3692(2) 0.0839(2) 0.2745(2)
H30 H 0.3287 0.0297 0.2683
C41 C 0.4001(2) 0.1438(2) 0.34419(19)
H31 H 0.3808 0.1296 0.3855
C42 C 0.42368(19) 0.6113(2) 0.28531(16)
C43 C 0.3914(2) 0.6612(2) 0.22440(16)
C44 C 0.34865(19) 0.7240(2) 0.15425(16)
C45 C 0.3201(2) 0.8216(2) 0.16329(17)
H32 H 0.3303 0.8453 0.2156
C46 C 0.2773(2) 0.8832(2) 0.09680(19)
H33 H 0.2594 0.9493 0.1038
C47 C 0.2604(2) 0.8490(2) 0.01976(18)
C48 C 0.2897(2) 0.7527(3) 0.00930(18)
H34 H 0.2798 0.7299 -0.0432
C49 C 0.3335(2) 0.6908(2) 0.07660(17)
H35 H 0.3532 0.6255 0.0697
O2 O 0.21542(19) 0.91556(19) -0.04147(15)
C50 C 0.1794(3) 0.8782(3) -0.1221(2)
H36 H 0.2290 0.8600 -0.1363
H37 H 0.1420 0.9304 -0.1593
H38 H 0.1423 0.8185 -0.1263
loop_
_geom_bond_atom_site_label_1
_geom_bond_atom_site_label_2
_geom_bond_site_symmetry_1
_geom_bond_site_symmetry_2
C1 C2 1_555 1_555
C2 C3 1_555 1_555
C3 C4 1_555 1_555
C4 H1 1_555 1_555
C5 C4 1_555 1_555
C6 C5 1_555 1_555
H2 C6 1_555 1_555
C7 C2 1_555 1_555
C8 C7 1_555 1_555
C9 C8 1_555 1_555
H3 C9 1_555 1_555
C10 C1 1_555 1_555
C11 C10 1_555 1_555
C12 C11 1_555 1_555
H4 C12 1_555 1_555
C13 C12 1_555 1_555
C14 C1 1_555 1_555
C15 C14 1_555 1_555
H5 C15 1_555 1_555
C16 C3 1_555 1_555
C17 C5 1_555 1_555
C18 C17 1_555 1_555
H6 C18 1_555 1_555
H7 C18 1_555 1_555
H8 C18 1_555 1_555
C19 C17 1_555 1_555
H9 C19 1_555 1_555
H10 C19 1_555 1_555
H11 C19 1_555 1_555
C20 C17 1_555 1_555
H12 C20 1_555 1_555
H13 C20 1_555 1_555
H14 C20 1_555 1_555
C21 C8 1_555 1_555
C22 C21 1_555 1_555
C23 C22 1_555 1_555
C24 C23 1_555 1_555
H15 C24 1_555 1_555
C25 C24 1_555 1_555
H16 C25 1_555 1_555
C26 C25 1_555 1_555
C27 C26 1_555 1_555
H17 C27 1_555 1_555
C28 C23 1_555 1_555
H18 C28 1_555 1_555
O1 C26 1_555 1_555
C29 O1 1_555 1_555
H19 C29 1_555 1_555
H20 C29 1_555 1_555
H21 C29 1_555 1_555
C30 C11 1_555 1_555
C31 C30 1_555 1_555
H22 C31 1_555 1_555
C32 C31 1_555 1_555
H23 C32 1_555 1_555
C33 C32 1_555 1_555
H24 C33 1_555 1_555
C34 C33 1_555 1_555
H25 C34 1_555 1_555
C35 C30 1_555 1_555
H26 C35 1_555 1_555
C36 C13 1_555 1_555
C37 C36 1_555 1_555
H27 C37 1_555 1_555
C38 C37 1_555 1_555
H28 C38 1_555 1_555
C39 C38 1_555 1_555
H29 C39 1_555 1_555
C40 C39 1_555 1_555
H30 C40 1_555 1_555
C41 C36 1_555 1_555
H31 C41 1_555 1_555
C42 C16 1_555 1_555
C43 C42 1_555 1_555
C44 C43 1_555 1_555
C45 C44 1_555 1_555
H32 C45 1_555 1_555
C46 C45 1_555 1_555
H33 C46 1_555 1_555
C47 C46 1_555 1_555
C48 C47 1_555 1_555
H34 C48 1_555 1_555
C49 C44 1_555 1_555
H35 C49 1_555 1_555
O2 C47 1_555 1_555
C50 O2 1_555 1_555
H36 C50 1_555 1_555
H37 C50 1_555 1_555
H38 C50 1_555 1_555
C6 C7 1_555 1_555
C9 C10 1_555 1_555
C13 C14 1_555 1_555
C15 C16 1_555 1_555
C27 C28 1_555 1_555
C34 C35 1_555 1_555
C40 C41 1_555 1_555
C48 C49 1_555 1_555

#END
