
#######################################################################
#
#                 Cambridge Crystallographic Data Centre
#                                CCDC 
#
#######################################################################
#
# If this CIF has been generated from an entry in the Cambridge 
# Structural Database, then it will include bibliographic, chemical, 
# crystal, experimental, refinement or atomic coordinate data resulting 
# from the CCDC's data processing and validation procedures.
#
#######################################################################

data_MEPMAY
_chemical_name_common            
'tetra-aqua-bis[6-oxy-1,3-dimethyl-1,3-dihydro-2H-purin-2-one]-calcium bis(theophylline)'
_chemical_formula_moiety         'C14 H22 Ca1 N8 O8,2(C7 H8 N4 O2)'
_chemical_name_systematic        
'tetra-aqua-bis[6-oxy-1,3-dimethyl-1,3-dihydro-2H-purin-2-one]-calcium bis(1,3-dimethyl-3,7-dihydro-1H-purine-2,6-dione)'
_symmetry_cell_setting           triclinic
_symmetry_space_group_name_H-M   'P -1'
_symmetry_Int_Tables_number      2
_space_group_name_Hall           '-P 1'
loop_
_symmetry_equiv_pos_site_id
_symmetry_equiv_pos_as_xyz
1 x,y,z
2 -x,-y,-z
_cell_length_a                   7.4728(15)
_cell_length_b                   8.5521(17)
_cell_length_c                   14.208(3)
_cell_angle_alpha                105.76(3)
_cell_angle_beta                 90.31(3)
_cell_angle_gamma                93.56(3)
_cell_volume                     871.952
_exptl_crystal_colour            colorless
_exptl_crystal_description       block
_cell_formula_units_Z            1
loop_
_atom_site_label
_atom_site_type_symbol
_atom_site_fract_x
_atom_site_fract_y
_atom_site_fract_z
Ca1 Ca 0.5000 0.5000 0.0000
O1 O 0.4760(2) 0.30541(15) 0.08383(9)
O2 O 0.3789(2) -0.06299(17) 0.25901(10)
N1 N 0.4250(2) 0.12617(18) 0.17462(11)
N2 N 0.5209(2) 0.17918(19) 0.33862(11)
O3 O 0.2900(2) 0.6418(2) 0.10880(12)
C1 C 0.4942(2) 0.2755(2) 0.16387(13)
N3 N 0.6784(2) 0.4439(2) 0.40402(12)
O4 O 0.2822(3) 0.3444(2) -0.10869(12)
C2 C 0.4391(3) 0.0730(2) 0.25821(13)
C3 C 0.5909(3) 0.3286(2) 0.33301(13)
C4 C 0.3357(3) 0.0102(2) 0.09016(14)
H1 H 0.4146 -0.0736 0.0619
H2 H 0.3053 0.0657 0.0425
H3 H 0.2284 -0.0378 0.1106
N4 N 0.6643(2) 0.52990(19) 0.26553(12)
C5 C 0.5801(3) 0.3769(2) 0.24853(13)
C6 C 0.7184(3) 0.5613(2) 0.35802(14)
H4 H 0.7807 0.6590 0.3900
C7 C 0.5305(4) 0.1341(3) 0.43011(16)
H5 H 0.4737 0.0272 0.4213
H6 H 0.4703 0.2109 0.4799
H7 H 0.6539 0.1346 0.4495
H8 H 0.291(4) 0.368(3) -0.166(2)
H9 H 0.226(4) 0.589(4) 0.148(2)
H10 H 0.320(4) 0.730(4) 0.147(2)
H11 H 0.246(5) 0.252(4) -0.119(3)
O1A O 0.5240(2) 0.69459(15) -0.08383(9)
O2A O 0.6211(2) 1.06299(17) -0.25901(10)
N1A N 0.5750(2) 0.87383(18) -0.17462(11)
N2A N 0.4791(2) 0.82082(19) -0.33862(11)
O3A O 0.7100(2) 0.3582(2) -0.10880(12)
C1A C 0.5058(2) 0.7245(2) -0.16387(13)
N3A N 0.3216(2) 0.5561(2) -0.40402(12)
O4A O 0.7178(3) 0.6556(2) 0.10869(12)
C2A C 0.5609(3) 0.9270(2) -0.25821(13)
C3A C 0.4091(3) 0.6714(2) -0.33301(13)
C4A C 0.6643(3) 0.9898(2) -0.09016(14)
H1A H 0.5854 1.0736 -0.0619
H2A H 0.6947 0.9343 -0.0425
H3A H 0.7716 1.0378 -0.1106
N4A N 0.3357(2) 0.47010(19) -0.26553(12)
C5A C 0.4199(3) 0.6231(2) -0.24853(13)
C6A C 0.2816(3) 0.4387(2) -0.35802(14)
H4A H 0.2193 0.3410 -0.3900
C7A C 0.4695(4) 0.8659(3) -0.43011(16)
H5A H 0.5263 0.9728 -0.4213
H6A H 0.5297 0.7891 -0.4799
H7A H 0.3461 0.8654 -0.4495
H8A H 0.709(4) 0.632(3) 0.166(2)
H9A H 0.774(4) 0.411(4) -0.148(2)
H10A H 0.680(4) 0.270(4) -0.147(2)
H11A H 0.754(5) 0.748(4) 0.119(3)
O5 O 1.1482(2) 1.00870(18) 0.85481(11)
N5 N 1.0323(2) 0.91451(19) 0.70023(12)
O6 O 0.9271(3) 0.8194(2) 0.54177(11)
N6 N 1.0095(2) 0.75638(19) 0.81254(11)
C8 C 1.0684(3) 0.8986(2) 0.79311(14)
N7 N 0.8037(2) 0.5086(2) 0.59716(12)
C9 C 0.9218(2) 0.6352(2) 0.73981(13)
C10 C 0.9473(3) 0.7947(2) 0.62148(14)
N8 N 0.8561(2) 0.4897(2) 0.74801(12)
C11 C 0.8918(3) 0.6525(2) 0.64878(14)
C12 C 0.7859(3) 0.4175(2) 0.65919(15)
H12 H 0.7298 0.3132 0.6423
C13 C 1.0843(3) 1.0730(3) 0.68446(17)
H13 H 1.0188 1.1554 0.7275
H14 H 1.0577 1.0702 0.6178
H15 H 1.2105 1.0976 0.6977
C14 C 1.0448(3) 0.7324(3) 0.90850(15)
H16 H 1.1574 0.7880 0.9344
H17 H 1.0495 0.6182 0.9025
H18 H 0.9506 0.7753 0.9518
H19 H 0.762(3) 0.480(3) 0.534(2)
loop_
_geom_bond_atom_site_label_1
_geom_bond_atom_site_label_2
_geom_bond_site_symmetry_1
_geom_bond_site_symmetry_2
Ca1 O1 1_555 1_555
O1 C1 1_555 1_555
O2 C2 1_555 1_555
N1 C1 1_555 1_555
N2 C2 1_555 1_555
O3 Ca1 1_555 1_555
C1 C5 1_555 1_555
N3 C3 1_555 1_555
O4 Ca1 1_555 1_555
C2 N1 1_555 1_555
C3 N2 1_555 1_555
C4 N1 1_555 1_555
H1 C4 1_555 1_555
H2 C4 1_555 1_555
H3 C4 1_555 1_555
N4 C5 1_555 1_555
C5 C3 1_555 1_555
C6 N3 1_555 1_555
H4 C6 1_555 1_555
C7 N2 1_555 1_555
H5 C7 1_555 1_555
H6 C7 1_555 1_555
H7 C7 1_555 1_555
H8 O4 1_555 1_555
H9 O3 1_555 1_555
H10 O3 1_555 1_555
H11 O4 1_555 1_555
O5 C8 1_555 1_555
N5 C8 1_555 1_555
O6 C10 1_555 1_555
N6 C8 1_555 1_555
N7 C11 1_555 1_555
C9 N6 1_555 1_555
C10 N5 1_555 1_555
N8 C9 1_555 1_555
C11 C9 1_555 1_555
C12 N7 1_555 1_555
H12 C12 1_555 1_555
C13 N5 1_555 1_555
H13 C13 1_555 1_555
H14 C13 1_555 1_555
H15 C13 1_555 1_555
C14 N6 1_555 1_555
H16 C14 1_555 1_555
H17 C14 1_555 1_555
H18 C14 1_555 1_555
H19 N7 1_555 1_555
O1A Ca1 1_555 1_555
O2A C2A 1_555 1_555
N1A C1A 1_555 1_555
N2A C2A 1_555 1_555
O3A Ca1 1_555 1_555
C1A O1A 1_555 1_555
N3A C3A 1_555 1_555
O4A Ca1 1_555 1_555
C2A N1A 1_555 1_555
C3A N2A 1_555 1_555
C4A N1A 1_555 1_555
H1A C4A 1_555 1_555
H2A C4A 1_555 1_555
H3A C4A 1_555 1_555
N4A C5A 1_555 1_555
C5A C1A 1_555 1_555
C6A N3A 1_555 1_555
H4A C6A 1_555 1_555
C7A N2A 1_555 1_555
H5A C7A 1_555 1_555
H6A C7A 1_555 1_555
H7A C7A 1_555 1_555
H8A O4A 1_555 1_555
H9A O3A 1_555 1_555
H10A O3A 1_555 1_555
H11A O4A 1_555 1_555
N4 C6 1_555 1_555
C10 C11 1_555 1_555
N8 C12 1_555 1_555
C3A C5A 1_555 1_555
N4A C6A 1_555 1_555

#END
