
#######################################################################
#
#                 Cambridge Crystallographic Data Centre
#                                CCDC 
#
#######################################################################
#
# If this CIF has been generated from an entry in the Cambridge 
# Structural Database, then it will include bibliographic, chemical, 
# crystal, experimental, refinement or atomic coordinate data resulting 
# from the CCDC's data processing and validation procedures.
#
#######################################################################

data_MEPMEC
_chemical_formula_moiety         'C26 H18 N2 O1'
_chemical_name_systematic        
([1,1'-biphenyl]-4-yl)(6-phenylimidazo[1,2-a]pyridin-3-yl)methanone
_symmetry_cell_setting           triclinic
_symmetry_space_group_name_H-M   'P -1'
_symmetry_Int_Tables_number      2
_space_group_name_Hall           '-P 1'
loop_
_symmetry_equiv_pos_site_id
_symmetry_equiv_pos_as_xyz
1 x,y,z
2 -x,-y,-z
_cell_length_a                   9.6647(10)
_cell_length_b                   10.1588(10)
_cell_length_c                   10.6559(10)
_cell_angle_alpha                80.032(8)
_cell_angle_beta                 66.928(9)
_cell_angle_gamma                84.448(8)
_cell_volume                     947.519
_exptl_crystal_colour            colorless
_exptl_crystal_description       block
_cell_formula_units_Z            2
loop_
_atom_site_label
_atom_site_type_symbol
_atom_site_fract_x
_atom_site_fract_y
_atom_site_fract_z
N1 N 0.83480(14) 0.88052(11) 0.06036(12)
C1 C 0.95920(17) 0.83762(14) -0.04335(15)
H1 H 1.028972 0.778148 -0.022048
C2 C 0.98065(17) 0.88233(14) -0.17814(15)
C3 C 0.68714(18) 0.64376(14) 0.86669(15)
C4 C 0.69449(17) 0.80186(15) 0.65381(15)
H2 H 0.645483 0.867392 0.708577
C5 C 0.80823(16) 0.73454(14) 0.42776(15)
C6 C 0.72357(16) 0.67518(15) 0.71594(15)
C7 C 1.10765(17) 0.82761(15) -0.29092(15)
C8 C 0.78457(17) 0.84822(14) 0.20418(15)
O1 O 0.98228(15) 0.69768(13) 0.20861(12)
C9 C 0.86701(18) 0.75805(15) 0.27346(16)
C10 C 0.73746(17) 0.83151(15) 0.51191(15)
H3 H 0.718807 0.916990 0.472625
C11 C 0.79273(19) 0.57815(15) 0.63118(16)
H4 H 0.810810 0.492447 0.670382
C12 C 1.24270(18) 0.78267(17) -0.27776(17)
H5 H 1.256472 0.790954 -0.197884
C13 C 0.72525(19) 0.96519(15) 0.03321(16)
C14 C 0.8730(2) 0.97517(16) -0.20682(17)
H6 H 0.888701 1.009255 -0.297980
C15 C 0.83474(18) 0.60704(15) 0.49036(15)
H7 H 0.881497 0.540751 0.435951
C16 C 1.09273(19) 0.81510(16) -0.41356(16)
H8 H 1.003850 0.844612 -0.425309
C17 C 1.2070(2) 0.75997(18) -0.51721(17)
H9 H 1.195073 0.753115 -0.598270
N2 N 0.60941(16) 0.98664(14) 0.14999(14)
C18 C 0.7485(2) 1.01504(16) -0.10464(17)
H10 H 0.678842 1.074980 -0.125538
C19 C 0.64684(18) 0.91525(15) 0.25165(16)
H11 H 0.585899 0.911476 0.344691
C20 C 0.7863(2) 0.56428(17) 0.91586(17)
H12 H 0.875108 0.531035 0.853694
C21 C 0.7546(2) 0.53415(18) 1.05576(19)
H13 H 0.822303 0.481561 1.086902
C22 C 0.5562(2) 0.69187(17) 0.96163(17)
H14 H 0.488781 0.745978 0.931329
C23 C 1.3389(2) 0.71496(19) -0.50143(19)
H15 H 1.415795 0.677242 -0.571406
C24 C 1.3566(2) 0.72594(19) -0.38145(19)
H16 H 1.445513 0.695104 -0.370305
C25 C 0.6243(3) 0.58135(18) 1.14828(18)
H17 H 0.602713 0.560512 1.242378
C26 C 0.5248(2) 0.65991(19) 1.10179(18)
H18 H 0.435794 0.691823 1.164855
loop_
_geom_bond_atom_site_label_1
_geom_bond_atom_site_label_2
_geom_bond_site_symmetry_1
_geom_bond_site_symmetry_2
N1 C1 1_555 1_555
C1 H1 1_555 1_555
C2 C1 1_555 1_555
C3 C6 1_555 1_555
C4 H2 1_555 1_555
C5 C9 1_555 1_555
C6 C4 1_555 1_555
C7 C2 1_555 1_555
C8 N1 1_555 1_555
O1 C9 1_555 1_555
C9 C8 1_555 1_555
C10 C4 1_555 1_555
H3 C10 1_555 1_555
C11 C6 1_555 1_555
H4 C11 1_555 1_555
C12 C7 1_555 1_555
H5 C12 1_555 1_555
C13 N1 1_555 1_555
C14 C2 1_555 1_555
H6 C14 1_555 1_555
C15 C5 1_555 1_555
H7 C15 1_555 1_555
C16 C7 1_555 1_555
H8 C16 1_555 1_555
C17 C16 1_555 1_555
H9 C17 1_555 1_555
N2 C13 1_555 1_555
C18 C13 1_555 1_555
H10 C18 1_555 1_555
C19 C8 1_555 1_555
H11 C19 1_555 1_555
C20 C3 1_555 1_555
H12 C20 1_555 1_555
C21 C20 1_555 1_555
H13 C21 1_555 1_555
C22 C3 1_555 1_555
H14 C22 1_555 1_555
C23 C17 1_555 1_555
H15 C23 1_555 1_555
C24 C12 1_555 1_555
H16 C24 1_555 1_555
C25 C21 1_555 1_555
H17 C25 1_555 1_555
C26 C22 1_555 1_555
H18 C26 1_555 1_555
C5 C10 1_555 1_555
C11 C15 1_555 1_555
C14 C18 1_555 1_555
N2 C19 1_555 1_555
C23 C24 1_555 1_555
C25 C26 1_555 1_555

#END
