
#######################################################################
#
#                 Cambridge Crystallographic Data Centre
#                                CCDC 
#
#######################################################################
#
# If this CIF has been generated from an entry in the Cambridge 
# Structural Database, then it will include bibliographic, chemical, 
# crystal, experimental, refinement or atomic coordinate data resulting 
# from the CCDC's data processing and validation procedures.
#
#######################################################################

data_MEPSOQ
_chemical_formula_moiety         'C16 H10'
_chemical_name_systematic        4-(Buta-1,3-diynyl)-1,1'-biphenyl
_symmetry_cell_setting           orthorhombic
_symmetry_space_group_name_H-M   'P 21 21 21'
_symmetry_Int_Tables_number      19
_space_group_name_Hall           'P 2ac 2ab'
loop_
_symmetry_equiv_pos_site_id
_symmetry_equiv_pos_as_xyz
1 x,y,z
2 1/2-x,-y,1/2+z
3 -x,1/2+y,1/2-z
4 1/2+x,1/2-y,-z
_cell_length_a                   7.3361(7)
_cell_length_b                   16.6477(14)
_cell_length_c                   18.7004(15)
_cell_angle_alpha                90
_cell_angle_beta                 90
_cell_angle_gamma                90
_cell_volume                     2283.86
_exptl_crystal_colour            orange
_exptl_crystal_description       irregular
_cell_formula_units_Z            8
loop_
_atom_site_label
_atom_site_type_symbol
_atom_site_fract_x
_atom_site_fract_y
_atom_site_fract_z
C1 C 0.1291(4) 0.49820(16) 0.18881(14)
C2 C 0.1400(4) 0.53942(16) 0.25372(14)
H1 H 0.2516 0.5635 0.2679
C3 C -0.0125(4) 0.54519(16) 0.29752(14)
H2 H -0.0045 0.5742 0.3412
C4 C -0.1772(3) 0.50912(14) 0.27854(13)
C5 C -0.1850(4) 0.46632(15) 0.21422(14)
H3 H -0.2950 0.4400 0.2011
C6 C -0.0352(4) 0.46163(15) 0.16919(14)
H4 H -0.0440 0.4336 0.1251
C7 C 0.2826(4) 0.49599(17) 0.14106(14)
C8 C 0.4084(4) 0.49462(17) 0.09976(14)
C9 C 0.5512(4) 0.49372(18) 0.05159(14)
C10 C 0.6737(5) 0.4928(2) 0.01061(16)
H5 H 0.7723 0.4920 -0.0223
C11 C -0.3379(3) 0.51557(15) 0.32653(13)
C12 C -0.4440(4) 0.44816(16) 0.34308(14)
H6 H -0.4173 0.3979 0.3213
C13 C -0.5872(4) 0.45416(18) 0.39081(14)
H7 H -0.6564 0.4077 0.4024
C14 C -0.6306(4) 0.52712(18) 0.42180(15)
H8 H -0.7296 0.5310 0.4544
C15 C -0.5285(4) 0.59449(19) 0.40494(15)
H9 H -0.5582 0.6448 0.4258
C16 C -0.3835(4) 0.58894(16) 0.35782(14)
H10 H -0.3143 0.6355 0.3467
C17 C 0.5956(4) 0.25832(16) 0.22089(14)
C18 C 0.6072(4) 0.21841(16) 0.28656(14)
H11 H 0.7189 0.1946 0.3010
C19 C 0.4564(4) 0.21377(15) 0.33022(14)
H12 H 0.4648 0.1855 0.3742
C20 C 0.2908(4) 0.24984(15) 0.31124(14)
C21 C 0.2821(4) 0.29236(15) 0.24678(14)
H13 H 0.1725 0.3191 0.2338
C22 C 0.4321(4) 0.29585(16) 0.20171(15)
H14 H 0.4238 0.3239 0.1576
C23 C 0.7495(4) 0.25882(17) 0.17274(15)
C24 C 0.8755(4) 0.25598(18) 0.13225(15)
C25 C 1.0200(4) 0.2515(2) 0.08515(15)
C26 C 1.1417(5) 0.2462(3) 0.04421(18)
H15 H 1.2398 0.2419 0.0112
C27 C 0.1295(4) 0.24309(16) 0.35923(13)
C28 C 0.0929(4) 0.16983(16) 0.39322(14)
H16 H 0.1679 0.1245 0.3838
C29 C -0.0519(4) 0.16303(18) 0.44048(14)
H17 H -0.0772 0.1126 0.4622
C30 C -0.1594(4) 0.22849(17) 0.45637(15)
H18 H -0.2557 0.2239 0.4901
C31 C -0.1254(4) 0.30093(18) 0.42266(16)
H19 H -0.2006 0.3460 0.4328
C32 C 0.0167(4) 0.30864(16) 0.37442(15)
H20 H 0.0377 0.3587 0.3515
loop_
_geom_bond_atom_site_label_1
_geom_bond_atom_site_label_2
_geom_bond_site_symmetry_1
_geom_bond_site_symmetry_2
C1 C2 1_555 1_555
C2 H1 1_555 1_555
C3 C2 1_555 1_555
H2 C3 1_555 1_555
C4 C3 1_555 1_555
C5 C4 1_555 1_555
H3 C5 1_555 1_555
C6 C1 1_555 1_555
H4 C6 1_555 1_555
C7 C1 1_555 1_555
C8 C7 1_555 1_555
C9 C8 1_555 1_555
C10 C9 1_555 1_555
H5 C10 1_555 1_555
C11 C4 1_555 1_555
C12 C11 1_555 1_555
H6 C12 1_555 1_555
C13 C12 1_555 1_555
H7 C13 1_555 1_555
C14 C13 1_555 1_555
H8 C14 1_555 1_555
C15 C14 1_555 1_555
H9 C15 1_555 1_555
C16 C11 1_555 1_555
H10 C16 1_555 1_555
C17 C18 1_555 1_555
C18 H11 1_555 1_555
C19 C18 1_555 1_555
H12 C19 1_555 1_555
C20 C19 1_555 1_555
C21 C20 1_555 1_555
H13 C21 1_555 1_555
C22 C17 1_555 1_555
H14 C22 1_555 1_555
C23 C17 1_555 1_555
C24 C23 1_555 1_555
C25 C24 1_555 1_555
C26 C25 1_555 1_555
H15 C26 1_555 1_555
C27 C20 1_555 1_555
C28 C27 1_555 1_555
H16 C28 1_555 1_555
C29 C28 1_555 1_555
H17 C29 1_555 1_555
C30 C29 1_555 1_555
H18 C30 1_555 1_555
C31 C30 1_555 1_555
H19 C31 1_555 1_555
C32 C27 1_555 1_555
H20 C32 1_555 1_555
C5 C6 1_555 1_555
C15 C16 1_555 1_555
C21 C22 1_555 1_555
C31 C32 1_555 1_555

#END
