
#######################################################################
#
#                 Cambridge Crystallographic Data Centre
#                                CCDC 
#
#######################################################################
#
# If this CIF has been generated from an entry in the Cambridge 
# Structural Database, then it will include bibliographic, chemical, 
# crystal, experimental, refinement or atomic coordinate data resulting 
# from the CCDC's data processing and validation procedures.
#
#######################################################################

data_MEPSAC
_chemical_formula_moiety         'C20 H14 O2,0.5(C1 D1 Cl3)'
_chemical_name_systematic        
'2-(5-Hydroxy-5-methylhexa-1,3-diynyl)-9H-fluoren-9-one deuterochloroform solvate'
_symmetry_cell_setting           monoclinic
_symmetry_space_group_name_H-M   'C 2/c'
_symmetry_Int_Tables_number      15
_space_group_name_Hall           '-C 2yn'
loop_
_symmetry_equiv_pos_site_id
_symmetry_equiv_pos_as_xyz
1 x,y,z
2 1/2+x,1/2+y,z
3 -x,y,1/2-z
4 1/2-x,1/2+y,1/2-z
5 -x,-y,-z
6 1/2-x,1/2-y,-z
7 x,-y,1/2+z
8 1/2+x,1/2-y,1/2+z
_cell_length_a                   17.134(2)
_cell_length_b                   23.476(2)
_cell_length_c                   8.699(1)
_cell_angle_alpha                90
_cell_angle_beta                 102.01(1)
_cell_angle_gamma                90
_cell_volume                     3422.48
_exptl_crystal_colour            yellow
_exptl_crystal_description       prism
_chemical_melting_point          157.0-157.8deg.C
_cell_formula_units_Z            8
loop_
_atom_site_label
_atom_site_type_symbol
_atom_site_fract_x
_atom_site_fract_y
_atom_site_fract_z
Cl1 Cl -0.00486(4) 0.34224(2) 0.41429(7)
C21 C 0.0338(2) 0.31156(16) 0.2673(5)
D1 D 0.0903 0.3177 0.2965
Cl1B Cl 0.00486(4) 0.34224(2) 0.08571(7)
C21B C -0.0338(2) 0.31156(16) 0.2327(5)
D1B D -0.0903 0.3177 0.2035
O1 O 0.20150(7) 0.37535(5) 0.38491(16)
O2 O 0.72656(8) 0.32178(5) 1.34912(18)
H1 H 0.7491(15) 0.3335(10) 1.277(3)
C1 C 0.33555(10) 0.41249(7) 0.6645(2)
H2 H 0.3340(10) 0.3722(8) 0.656(2)
C2 C 0.39177(9) 0.44143(7) 0.7777(2)
C3 C 0.39305(10) 0.50131(7) 0.7783(2)
H3 H 0.4330(12) 0.5203(8) 0.857(2)
C4 C 0.33835(10) 0.53285(7) 0.6702(2)
H4 H 0.3397(11) 0.5747(9) 0.671(2)
C5 C 0.19007(10) 0.57903(8) 0.3922(2)
H5 H 0.2160(11) 0.6115(8) 0.447(2)
C6 C 0.12441(11) 0.58513(8) 0.2662(2)
H6 H 0.1063(11) 0.6235(9) 0.233(2)
C7 C 0.08645(10) 0.53845(8) 0.1874(2)
H7 H 0.0420(12) 0.5438(8) 0.102(2)
C8 C 0.11230(10) 0.48329(8) 0.2314(2)
H8 H 0.0847(11) 0.4504(8) 0.180(2)
C9 C 0.21702(9) 0.42454(7) 0.4270(2)
C10 C 0.28166(9) 0.44408(7) 0.55832(19)
C11 C 0.28196(9) 0.50386(7) 0.56121(19)
C12 C 0.21599(9) 0.52470(7) 0.43558(19)
C13 C 0.17682(9) 0.47737(7) 0.3555(2)
C14 C 0.44806(10) 0.41015(7) 0.8910(2)
C15 C 0.49608(10) 0.38292(7) 0.9825(2)
C16 C 0.55237(10) 0.35136(7) 1.0833(2)
C17 C 0.60152(10) 0.32301(7) 1.1680(2)
C18 C 0.66129(10) 0.28704(7) 1.2720(2)
C19 C 0.62522(13) 0.26145(10) 1.4013(3)
H9 H 0.6661(13) 0.2368(9) 1.468(3)
H10 H 0.5775(15) 0.2389(10) 1.354(3)
H11 H 0.6111(14) 0.2926(10) 1.467(3)
C20 C 0.69138(15) 0.24127(10) 1.1750(3)
H12 H 0.7289(14) 0.2171(9) 1.243(3)
H13 H 0.7152(15) 0.2588(10) 1.097(3)
H14 H 0.6498(15) 0.2169(10) 1.118(3)
Cl2? Cl 0.02215(8) 0.23823(4) 0.2520(3)
loop_
_geom_bond_atom_site_label_1
_geom_bond_atom_site_label_2
_geom_bond_site_symmetry_1
_geom_bond_site_symmetry_2
O1 C9 1_555 1_555
O2 H1 1_555 1_555
C1 H2 1_555 1_555
C2 C1 1_555 1_555
C3 C2 1_555 1_555
H3 C3 1_555 1_555
C4 C3 1_555 1_555
H4 C4 1_555 1_555
C5 H5 1_555 1_555
C6 C5 1_555 1_555
H6 C6 1_555 1_555
C7 C6 1_555 1_555
H7 C7 1_555 1_555
C8 C7 1_555 1_555
H8 C8 1_555 1_555
C9 C10 1_555 1_555
C10 C1 1_555 1_555
C11 C4 1_555 1_555
C12 C5 1_555 1_555
C13 C8 1_555 1_555
C14 C2 1_555 1_555
C15 C14 1_555 1_555
C16 C15 1_555 1_555
C17 C16 1_555 1_555
C18 O2 1_555 1_555
C19 C18 1_555 1_555
H9 C19 1_555 1_555
H10 C19 1_555 1_555
H11 C19 1_555 1_555
C20 C18 1_555 1_555
H12 C20 1_555 1_555
H13 C20 1_555 1_555
H14 C20 1_555 1_555
Cl1 C21 1_555 1_555
C21 D1 1_555 1_555
Cl1B C21 1_555 1_555
C21B Cl1 1_555 1_555
D1B C21B 1_555 1_555
C9 C13 1_555 1_555
C10 C11 1_555 1_555
C11 C12 1_555 1_555
C12 C13 1_555 1_555
C17 C18 1_555 1_555
C21 C21B 1_555 1_555
Cl1B C21B 1_555 1_555

#END
