
#######################################################################
#
#                 Cambridge Crystallographic Data Centre
#                                CCDC 
#
#######################################################################
#
# If this CIF has been generated from an entry in the Cambridge 
# Structural Database, then it will include bibliographic, chemical, 
# crystal, experimental, refinement or atomic coordinate data resulting 
# from the CCDC's data processing and validation procedures.
#
#######################################################################

data_MEPTUX
_chemical_formula_moiety         'C120 H128 N8 Na8 O8 S8,4(C5 H5 N1)'
_chemical_name_systematic        
'bis(\m~6~-5,11,17,23-Tetra-t-butyl-25,26,27,28-tetraoxy-2,8,14,20-tetrathiacalix(4)arene)-octakis(pyridine)-octa-sodium pyridine solvate'
_symmetry_cell_setting           triclinic
_symmetry_space_group_name_H-M   'P -1'
_symmetry_Int_Tables_number      2
_space_group_name_Hall           '-P 1'
loop_
_symmetry_equiv_pos_site_id
_symmetry_equiv_pos_as_xyz
1 x,y,z
2 -x,-y,-z
_cell_length_a                   14.513(3)
_cell_length_b                   15.335(3)
_cell_length_c                   17.759(4)
_cell_angle_alpha                104.62(3)
_cell_angle_beta                 101.38(3)
_cell_angle_gamma                110.04(3)
_cell_volume                     3413.26
_exptl_crystal_colour            colorless
_exptl_crystal_description       prism
_cell_formula_units_Z            1
loop_
_atom_site_label
_atom_site_type_symbol
_atom_site_fract_x
_atom_site_fract_y
_atom_site_fract_z
S1 S 0.29654(7) 0.91724(7) 0.11798(6)
S2 S 0.28646(7) 0.54243(7) 0.07887(5)
S3 S 0.05427(7) 0.56086(7) -0.19169(6)
S4 S -0.07155(7) 0.79664(7) 0.19736(5)
Na1 Na -0.09855(10) 0.46254(10) 0.02767(8)
Na2 Na 0.12565(11) 0.68987(11) 0.16296(9)
Na3 Na -0.09026(10) 0.67381(10) 0.03100(8)
Na4 Na 0.12952(11) 0.76023(12) -0.02027(9)
O1 O 0.06331(19) 0.80400(19) 0.08319(15)
O2 O 0.19959(17) 0.69141(18) 0.06222(15)
O3 O -0.05658(18) 0.55333(19) -0.06058(14)
O4 O -0.04934(18) 0.60668(18) 0.12831(14)
N1 N 0.2767(3) 0.7946(3) -0.0790(2)
N2 N 0.2310(2) 0.7608(2) 0.3055(2)
N3 N 0.0505(3) 0.8228(3) -0.1158(2)
N4 N -0.1931(2) 0.7341(3) -0.0521(2)
C1 C 0.1125(3) 0.8618(3) 0.1577(2)
C2 C 0.0639(3) 0.8710(3) 0.2208(2)
C3 C 0.2219(3) 0.9227(3) 0.1875(2)
C4 C 0.1158(3) 0.9399(3) 0.2990(2)
H1 H 0.0790 0.9431 0.3376
C5 C 0.2710(3) 0.9916(3) 0.2657(2)
H2 H 0.3427 1.0318 0.2808
C6 C 0.2193(3) 1.0045(3) 0.3237(2)
C7 C 0.2721(3) 1.0912(3) 0.4057(2)
C8 C 0.2784(4) 1.1864(3) 0.3896(3)
H3 H 0.3168 1.1965 0.3506
H4 H 0.3138 1.2428 0.4411
H5 H 0.2085 1.1807 0.3667
C9 C 0.3814(4) 1.1045(4) 0.4455(3)
H6 H 0.4216 1.1141 0.4076
H7 H 0.3788 1.0454 0.4584
H8 H 0.4139 1.1625 0.4960
C10 C 0.2113(4) 1.0762(4) 0.4664(3)
H9 H 0.1405 1.0674 0.4420
H10 H 0.2447 1.1344 0.5168
H11 H 0.2098 1.0173 0.4793
C11 C 0.2976(3) 0.7320(3) 0.1021(2)
C12 C 0.3560(3) 0.8362(3) 0.1364(2)
C13 C 0.3537(3) 0.6738(3) 0.1171(2)
C14 C 0.4606(3) 0.8779(3) 0.1802(2)
H12 H 0.4967 0.9480 0.2023
C15 C 0.4583(3) 0.7179(3) 0.1602(2)
H13 H 0.4926 0.6765 0.1676
C16 C 0.5147(3) 0.8191(3) 0.1928(2)
C17 C 0.6313(3) 0.8669(3) 0.2402(3)
C18 C 0.6918(7) 0.9290(7) 0.1982(5)
H14 H 0.6712 0.9835 0.1982
H15 H 0.6777 0.8878 0.1416
H16 H 0.7657 0.9559 0.2275
C19 C 0.6498(7) 0.9394(7) 0.3283(5)
H17 H 0.7241 0.9746 0.3573
H18 H 0.6160 0.9011 0.3593
H19 H 0.6207 0.9873 0.3228
C20 C 0.6741(7) 0.7900(7) 0.2507(6)
H20 H 0.7464 0.8243 0.2854
H21 H 0.6696 0.7487 0.1969
H22 H 0.6336 0.7483 0.2764
C24 C -0.1170(3) 0.5203(3) -0.1356(2)
C25 C 0.2269(3) 0.5218(3) 0.1568(2)
C26 C -0.0817(3) 0.5227(3) -0.2048(2)
C27 C 0.2915(3) 0.5442(3) 0.2342(2)
H32 H 0.3640 0.5703 0.2438
C28 C -0.1475(3) 0.5017(3) -0.2816(2)
H33 H -0.1187 0.5093 -0.3244
C29 C 0.2537(3) 0.5298(3) 0.2985(2)
C30 C 0.3239(3) 0.5410(3) 0.3807(2)
C31 C 0.3185(5) 0.4382(4) 0.3767(3)
H34 H 0.3419 0.4120 0.3314
H35 H 0.3630 0.4433 0.4284
H36 H 0.2471 0.3936 0.3677
C32 C 0.2876(5) 0.5807(5) 0.4521(3)
H37 H 0.3335 0.5870 0.5036
H38 H 0.2890 0.6458 0.4546
H39 H 0.2170 0.5349 0.4438
C33 C 0.4355(4) 0.6102(5) 0.3974(3)
H40 H 0.4599 0.5857 0.3522
H41 H 0.4401 0.6767 0.4019
H42 H 0.4783 0.6127 0.4487
C34 C -0.0605(2) 0.6204(3) 0.2006(2)
C35 C 0.0611(3) 0.4477(3) -0.2431(2)
C36 C -0.0701(3) 0.7072(3) 0.2453(2)
C37 C 0.0684(3) 0.4295(3) -0.3218(2)
C38 C -0.0794(3) 0.7224(3) 0.3232(2)
C39 C 0.0782(3) 0.3445(3) -0.3641(2)
C40 C 0.0886(4) 0.3251(4) -0.4505(3)
C41 C 0.0521(6) 0.3880(6) -0.4932(3)
H43 H -0.0206 0.3722 -0.4978
H44 H 0.0597 0.3736 -0.5480
H45 H 0.0938 0.4583 -0.4611
C42 C 0.2021(5) 0.3490(5) -0.4436(4)
H46 H 0.2251 0.3083 -0.4167
H47 H 0.2443 0.4192 -0.4111
H48 H 0.2097 0.3350 -0.4984
C43 C 0.0243(5) 0.2159(5) -0.5030(3)
H49 H 0.0470 0.1746 -0.4766
H50 H 0.0336 0.2037 -0.5573
H51 H -0.0487 0.1995 -0.5087
C44 C 0.3371(4) 0.7459(4) -0.0769(3)
H52 H 0.3118 0.6839 -0.0693
C45 C 0.4341(4) 0.7805(5) -0.0852(4)
H53 H 0.4740 0.7427 -0.0837
C46 C 0.4724(4) 0.8701(5) -0.0956(4)
H54 H 0.5386 0.8951 -0.1025
C47 C 0.4131(4) 0.9228(4) -0.0958(3)
H55 H 0.4382 0.9861 -0.1012
C48 C 0.3167(4) 0.8824(4) -0.0882(3)
H56 H 0.2757 0.9192 -0.0894
C49 C 0.1920(3) 0.7666(4) 0.3674(3)
H57 H 0.1192 0.7357 0.3552
C50 C 0.2514(4) 0.8149(4) 0.4483(3)
H58 H 0.2198 0.8171 0.4903
C51 C 0.3569(4) 0.8599(4) 0.4678(3)
H59 H 0.3997 0.8929 0.5232
C52 C 0.3984(3) 0.8559(4) 0.4048(3)
H60 H 0.4709 0.8875 0.4156
C53 C 0.3332(3) 0.8050(3) 0.3250(3)
H61 H 0.3631 0.8015 0.2820
C54 C 0.0406(4) 0.7944(4) -0.1940(3)
H62 H 0.0485 0.7355 -0.2174
C55 C 0.0194(6) 0.8445(5) -0.2443(3)
H63 H 0.0140 0.8216 -0.3006
C56 C 0.0059(5) 0.9301(4) -0.2106(4)
H64 H -0.0095 0.9667 -0.2434
C57 C 0.0152(4) 0.9592(4) -0.1307(4)
H65 H 0.0065 1.0172 -0.1060
C58 C 0.0375(4) 0.9051(4) -0.0843(3)
H66 H 0.0438 0.9270 -0.0277
C59 C -0.2049(3) 0.7216(3) -0.1298(3)
H67 H -0.1862 0.6733 -0.1598
C60 C -0.2430(4) 0.7740(4) -0.1713(3)
H68 H -0.2488 0.7627 -0.2275
C61 C -0.2723(4) 0.8433(4) -0.1279(3)
H69 H -0.3003 0.8798 -0.1539
C62 C -0.2599(4) 0.8573(4) -0.0473(3)
H70 H -0.2781 0.9051 -0.0160
C63 C -0.2208(4) 0.8024(4) -0.0107(3)
H71 H -0.2132 0.8132 0.0457
S1A S -0.29654(7) 0.08276(7) -0.11798(6)
S2A S -0.28646(7) 0.45757(7) -0.07887(5)
S3A S -0.05427(7) 0.43914(7) 0.19169(6)
S4A S 0.07155(7) 0.20336(7) -0.19736(5)
Na1A Na 0.09855(10) 0.53746(10) -0.02767(8)
Na2A Na -0.12565(11) 0.31013(11) -0.16296(9)
Na3A Na 0.09026(10) 0.32619(10) -0.03100(8)
Na4A Na -0.12952(11) 0.23977(12) 0.02027(9)
O1A O -0.06331(19) 0.19600(19) -0.08319(15)
O2A O -0.19959(17) 0.30859(18) -0.06222(15)
O3A O 0.05658(18) 0.44667(19) 0.06058(14)
O4A O 0.04934(18) 0.39332(18) -0.12831(14)
N1A N -0.2767(3) 0.2054(3) 0.0790(2)
N2A N -0.2310(2) 0.2392(2) -0.3055(2)
N3A N -0.0505(3) 0.1772(3) 0.1158(2)
N4A N 0.1931(2) 0.2659(3) 0.0521(2)
C1A C -0.1125(3) 0.1382(3) -0.1577(2)
C2A C -0.0639(3) 0.1290(3) -0.2208(2)
C3A C -0.2219(3) 0.0773(3) -0.1875(2)
C4A C -0.1158(3) 0.0601(3) -0.2990(2)
H1A H -0.0790 0.0569 -0.3376
C5A C -0.2710(3) 0.0084(3) -0.2657(2)
H2A H -0.3427 -0.0318 -0.2808
C6A C -0.2193(3) -0.0045(3) -0.3237(2)
C7A C -0.2721(3) -0.0912(3) -0.4057(2)
C8A C -0.2784(4) -0.1864(3) -0.3896(3)
H3A H -0.3168 -0.1965 -0.3506
H4A H -0.3138 -0.2428 -0.4411
H5A H -0.2085 -0.1807 -0.3667
C9A C -0.3814(4) -0.1045(4) -0.4455(3)
H6A H -0.4216 -0.1141 -0.4076
H7A H -0.3788 -0.0454 -0.4584
H8A H -0.4139 -0.1625 -0.4960
C10A C -0.2113(4) -0.0762(4) -0.4664(3)
H9A H -0.1405 -0.0674 -0.4420
H10A H -0.2447 -0.1344 -0.5168
H11A H -0.2098 -0.0173 -0.4793
C11A C -0.2976(3) 0.2680(3) -0.1021(2)
C12A C -0.3560(3) 0.1638(3) -0.1364(2)
C13A C -0.3537(3) 0.3262(3) -0.1171(2)
C14A C -0.4606(3) 0.1221(3) -0.1802(2)
H12A H -0.4967 0.0520 -0.2023
C15A C -0.4583(3) 0.2821(3) -0.1602(2)
H13A H -0.4926 0.3235 -0.1676
C16A C -0.5147(3) 0.1809(3) -0.1928(2)
C17A C -0.6313(3) 0.1331(3) -0.2402(3)
C18A C -0.6918(7) 0.0710(7) -0.1982(5)
H14A H -0.6712 0.0165 -0.1982
H15A H -0.6777 0.1122 -0.1416
H16A H -0.7657 0.0441 -0.2275
C19A C -0.6498(7) 0.0606(7) -0.3283(5)
H17A H -0.7241 0.0254 -0.3573
H18A H -0.6160 0.0989 -0.3593
H19A H -0.6207 0.0127 -0.3228
C20A C -0.6741(7) 0.2100(7) -0.2507(6)
H20A H -0.7464 0.1757 -0.2854
H21A H -0.6696 0.2513 -0.1969
H22A H -0.6336 0.2517 -0.2764
C24A C 0.1170(3) 0.4797(3) 0.1356(2)
C25A C -0.2269(3) 0.4782(3) -0.1568(2)
C26A C 0.0817(3) 0.4773(3) 0.2048(2)
C27A C -0.2915(3) 0.4558(3) -0.2342(2)
H32A H -0.3640 0.4297 -0.2438
C28A C 0.1475(3) 0.4983(3) 0.2816(2)
H33A H 0.1187 0.4907 0.3244
C29A C -0.2537(3) 0.4702(3) -0.2985(2)
C30A C -0.3239(3) 0.4590(3) -0.3807(2)
C31A C -0.3185(5) 0.5618(4) -0.3767(3)
H34A H -0.3419 0.5880 -0.3314
H35A H -0.3630 0.5567 -0.4284
H36A H -0.2471 0.6064 -0.3677
C32A C -0.2876(5) 0.4193(5) -0.4521(3)
H37A H -0.3335 0.4130 -0.5036
H38A H -0.2890 0.3542 -0.4546
H39A H -0.2170 0.4651 -0.4438
C33A C -0.4355(4) 0.3898(5) -0.3974(3)
H40A H -0.4599 0.4143 -0.3522
H41A H -0.4401 0.3233 -0.4019
H42A H -0.4783 0.3873 -0.4487
C34A C 0.0605(2) 0.3796(3) -0.2006(2)
C35A C -0.0611(3) 0.5523(3) 0.2431(2)
C36A C 0.0701(3) 0.2928(3) -0.2453(2)
C37A C -0.0684(3) 0.5705(3) 0.3218(2)
C38A C 0.0794(3) 0.2776(3) -0.3232(2)
C39A C -0.0782(3) 0.6555(3) 0.3641(2)
C40A C -0.0886(4) 0.6749(4) 0.4505(3)
C41A C -0.0521(6) 0.6120(6) 0.4932(3)
H43A H 0.0206 0.6278 0.4978
H44A H -0.0597 0.6264 0.5480
H45A H -0.0938 0.5417 0.4611
C42A C -0.2021(5) 0.6510(5) 0.4436(4)
H46A H -0.2251 0.6917 0.4167
H47A H -0.2443 0.5808 0.4111
H48A H -0.2097 0.6650 0.4984
C43A C -0.0243(5) 0.7841(5) 0.5030(3)
H49A H -0.0470 0.8254 0.4766
H50A H -0.0336 0.7963 0.5573
H51A H 0.0487 0.8005 0.5087
C44A C -0.3371(4) 0.2541(4) 0.0769(3)
H52A H -0.3118 0.3161 0.0693
C45A C -0.4341(4) 0.2195(5) 0.0852(4)
H53A H -0.4740 0.2573 0.0837
C46A C -0.4724(4) 0.1299(5) 0.0956(4)
H54A H -0.5386 0.1049 0.1025
C47A C -0.4131(4) 0.0772(4) 0.0958(3)
H55A H -0.4382 0.0139 0.1012
C48A C -0.3167(4) 0.1176(4) 0.0882(3)
H56A H -0.2757 0.0808 0.0894
C49A C -0.1920(3) 0.2334(4) -0.3674(3)
H57A H -0.1192 0.2643 -0.3552
C50A C -0.2514(4) 0.1851(4) -0.4483(3)
H58A H -0.2198 0.1829 -0.4903
C51A C -0.3569(4) 0.1401(4) -0.4678(3)
H59A H -0.3997 0.1071 -0.5232
C52A C -0.3984(3) 0.1441(4) -0.4048(3)
H60A H -0.4709 0.1125 -0.4156
C53A C -0.3332(3) 0.1950(3) -0.3250(3)
H61A H -0.3631 0.1985 -0.2820
C54A C -0.0406(4) 0.2056(4) 0.1940(3)
H62A H -0.0485 0.2645 0.2174
C55A C -0.0194(6) 0.1555(5) 0.2443(3)
H63A H -0.0140 0.1784 0.3006
C56A C -0.0059(5) 0.0699(4) 0.2106(4)
H64A H 0.0095 0.0333 0.2434
C57A C -0.0152(4) 0.0408(4) 0.1307(4)
H65A H -0.0065 -0.0172 0.1060
C58A C -0.0375(4) 0.0949(4) 0.0843(3)
H66A H -0.0438 0.0730 0.0277
C59A C 0.2049(3) 0.2784(3) 0.1298(3)
H67A H 0.1862 0.3267 0.1598
C60A C 0.2430(4) 0.2260(4) 0.1713(3)
H68A H 0.2488 0.2373 0.2275
C61A C 0.2723(4) 0.1567(4) 0.1279(3)
H69A H 0.3003 0.1202 0.1539
C62A C 0.2599(4) 0.1427(4) 0.0473(3)
H70A H 0.2781 0.0949 0.0160
C63A C 0.2208(4) 0.1976(4) 0.0107(3)
H71A H 0.2132 0.1868 -0.0457
N5 N 0.3445(4) 0.4847(4) -0.1244(3)
C64 C 0.4365(4) 0.5436(5) -0.0634(4)
H72 H 0.4384 0.5607 -0.0077
C65 C 0.5253(4) 0.5778(4) -0.0832(4)
H73 H 0.5896 0.6200 -0.0420
C66 C 0.5185(4) 0.5495(4) -0.1637(4)
H74 H 0.5804 0.5726 -0.1774
C67 C 0.4330(4) 0.4930(5) -0.2236(3)
H75 H 0.4319 0.4754 -0.2791
C68 C 0.3466(4) 0.4609(5) -0.2029(4)
H76 H 0.2834 0.4192 -0.2455
N6 N 0.4047(6) 0.6754(6) -0.3034(5)
C69 C 0.3067(6) 0.6474(6) -0.2971(5)
H77 H 0.2770 0.5895 -0.2844
C70 C 0.2536(6) 0.6997(6) -0.3085(5)
H78 H 0.1863 0.6801 -0.3031
C71 C 0.2960(7) 0.7843(7) -0.3284(5)
H79 H 0.2565 0.8207 -0.3386
C72 C 0.3900(6) 0.8132(6) -0.3329(5)
H80 H 0.4181 0.8714 -0.3457
C73 C 0.4446(7) 0.7658(7) -0.3207(5)
H81 H 0.5132 0.7903 -0.3231
C21? C 0.6848(11) 0.8591(11) 0.1712(9)
H23? H 0.6635 0.8916 0.1345
H24? H 0.6642 0.7893 0.1399
H25? H 0.7599 0.8916 0.1964
C22? C 0.6714(11) 0.9716(11) 0.2889(9)
H26? H 0.7450 0.9960 0.3181
H27? H 0.6340 0.9803 0.3285
H28? H 0.6621 1.0088 0.2527
C23? C 0.6598(9) 0.8080(10) 0.2895(8)
H29? H 0.7333 0.8424 0.3212
H30? H 0.6459 0.7423 0.2525
H31? H 0.6187 0.8008 0.3270
loop_
_geom_bond_atom_site_label_1
_geom_bond_atom_site_label_2
_geom_bond_site_symmetry_1
_geom_bond_site_symmetry_2
S1 C3 1_555 1_555
S2 C13 1_555 1_555
S3 C26 1_555 1_555
S4 C2 1_555 1_555
Na1 O3 1_555 1_555
Na2 O1 1_555 1_555
Na3 O1 1_555 1_555
Na4 O1 1_555 1_555
O1 C1 1_555 1_555
O2 Na2 1_555 1_555
O3 Na3 1_555 1_555
O4 Na1 1_555 1_555
N1 Na4 1_555 1_555
N2 Na2 1_555 1_555
N3 Na4 1_555 1_555
N4 Na3 1_555 1_555
N5 C64 1_555 1_555
N6 C69 1_555 1_555
C1 C2 1_555 1_555
C2 C4 1_555 1_555
C3 C1 1_555 1_555
C4 H1 1_555 1_555
C5 C3 1_555 1_555
H2 C5 1_555 1_555
C6 C4 1_555 1_555
C7 C6 1_555 1_555
C8 C7 1_555 1_555
H3 C8 1_555 1_555
H4 C8 1_555 1_555
H5 C8 1_555 1_555
C9 C7 1_555 1_555
H6 C9 1_555 1_555
H7 C9 1_555 1_555
H8 C9 1_555 1_555
C10 C7 1_555 1_555
H9 C10 1_555 1_555
H10 C10 1_555 1_555
H11 C10 1_555 1_555
C11 O2 1_555 1_555
C12 S1 1_555 1_555
C13 C11 1_555 1_555
C14 C12 1_555 1_555
H12 C14 1_555 1_555
C15 C13 1_555 1_555
H13 C15 1_555 1_555
C16 C14 1_555 1_555
C17 C16 1_555 1_555
C18 C17 1_555 1_555
H14 C18 1_555 1_555
H15 C18 1_555 1_555
H16 C18 1_555 1_555
C19 C17 1_555 1_555
H17 C19 1_555 1_555
H18 C19 1_555 1_555
H19 C19 1_555 1_555
C20 C17 1_555 1_555
H20 C20 1_555 1_555
H21 C20 1_555 1_555
H22 C20 1_555 1_555
C24 O3 1_555 1_555
C25 S2 1_555 1_555
C26 C24 1_555 1_555
C27 C25 1_555 1_555
H32 C27 1_555 1_555
C28 C26 1_555 1_555
H33 C28 1_555 1_555
C29 C27 1_555 1_555
C30 C29 1_555 1_555
C31 C30 1_555 1_555
H34 C31 1_555 1_555
H35 C31 1_555 1_555
H36 C31 1_555 1_555
C32 C30 1_555 1_555
H37 C32 1_555 1_555
H38 C32 1_555 1_555
H39 C32 1_555 1_555
C33 C30 1_555 1_555
H40 C33 1_555 1_555
H41 C33 1_555 1_555
H42 C33 1_555 1_555
C34 O4 1_555 1_555
C35 S3 1_555 1_555
C36 S4 1_555 1_555
C37 C35 1_555 1_555
C38 C36 1_555 1_555
C39 C37 1_555 1_555
C40 C39 1_555 1_555
C41 C40 1_555 1_555
H43 C41 1_555 1_555
H44 C41 1_555 1_555
H45 C41 1_555 1_555
C42 C40 1_555 1_555
H46 C42 1_555 1_555
H47 C42 1_555 1_555
H48 C42 1_555 1_555
C43 C40 1_555 1_555
H49 C43 1_555 1_555
H50 C43 1_555 1_555
H51 C43 1_555 1_555
C44 N1 1_555 1_555
H52 C44 1_555 1_555
C45 C44 1_555 1_555
H53 C45 1_555 1_555
C46 C45 1_555 1_555
H54 C46 1_555 1_555
C47 C46 1_555 1_555
H55 C47 1_555 1_555
C48 N1 1_555 1_555
H56 C48 1_555 1_555
C49 N2 1_555 1_555
H57 C49 1_555 1_555
C50 C49 1_555 1_555
H58 C50 1_555 1_555
C51 C50 1_555 1_555
H59 C51 1_555 1_555
C52 C51 1_555 1_555
H60 C52 1_555 1_555
C53 N2 1_555 1_555
H61 C53 1_555 1_555
C54 N3 1_555 1_555
H62 C54 1_555 1_555
C55 C54 1_555 1_555
H63 C55 1_555 1_555
C56 C55 1_555 1_555
H64 C56 1_555 1_555
C57 C56 1_555 1_555
H65 C57 1_555 1_555
C58 N3 1_555 1_555
H66 C58 1_555 1_555
C59 N4 1_555 1_555
H67 C59 1_555 1_555
C60 C59 1_555 1_555
H68 C60 1_555 1_555
C61 C60 1_555 1_555
H69 C61 1_555 1_555
C62 C61 1_555 1_555
H70 C62 1_555 1_555
C63 N4 1_555 1_555
H71 C63 1_555 1_555
C64 H72 1_555 1_555
C65 C64 1_555 1_555
H73 C65 1_555 1_555
C66 C65 1_555 1_555
H74 C66 1_555 1_555
C67 C66 1_555 1_555
H75 C67 1_555 1_555
C68 N5 1_555 1_555
H76 C68 1_555 1_555
C69 H77 1_555 1_555
C70 C69 1_555 1_555
H78 C70 1_555 1_555
C71 C70 1_555 1_555
H79 C71 1_555 1_555
C72 C71 1_555 1_555
H80 C72 1_555 1_555
C73 N6 1_555 1_555
H81 C73 1_555 1_555
S1A C3A 1_555 1_555
S2A C13A 1_555 1_555
S3A C26A 1_555 1_555
S4A C2A 1_555 1_555
Na1A O2 1_555 1_555
Na2A O1A 1_555 1_555
Na3A O1A 1_555 1_555
Na4A O1A 1_555 1_555
O1A C1A 1_555 1_555
O2A Na1 1_555 1_555
O3A Na1 1_555 1_555
O4A Na1A 1_555 1_555
N1A Na4A 1_555 1_555
N2A Na2A 1_555 1_555
N3A Na4A 1_555 1_555
N4A Na3A 1_555 1_555
C1A C2A 1_555 1_555
C2A C4A 1_555 1_555
C3A C1A 1_555 1_555
C4A H1A 1_555 1_555
C5A C3A 1_555 1_555
H2A C5A 1_555 1_555
C6A C4A 1_555 1_555
C7A C6A 1_555 1_555
C8A C7A 1_555 1_555
H3A C8A 1_555 1_555
H4A C8A 1_555 1_555
H5A C8A 1_555 1_555
C9A C7A 1_555 1_555
H6A C9A 1_555 1_555
H7A C9A 1_555 1_555
H8A C9A 1_555 1_555
C10A C7A 1_555 1_555
H9A C10A 1_555 1_555
H10A C10A 1_555 1_555
H11A C10A 1_555 1_555
C11A O2A 1_555 1_555
C12A S1A 1_555 1_555
C13A C11A 1_555 1_555
C14A C12A 1_555 1_555
H12A C14A 1_555 1_555
C15A C13A 1_555 1_555
H13A C15A 1_555 1_555
C16A C14A 1_555 1_555
C17A C16A 1_555 1_555
C18A C17A 1_555 1_555
H14A C18A 1_555 1_555
H15A C18A 1_555 1_555
H16A C18A 1_555 1_555
C19A C17A 1_555 1_555
H17A C19A 1_555 1_555
H18A C19A 1_555 1_555
H19A C19A 1_555 1_555
C20A C17A 1_555 1_555
H20A C20A 1_555 1_555
H21A C20A 1_555 1_555
H22A C20A 1_555 1_555
C24A C25 1_555 1_555
C25A C24 1_555 1_555
C26A C24A 1_555 1_555
C27A C25A 1_555 1_555
H32A C27A 1_555 1_555
C28A C29 1_555 1_555
H33A C28A 1_555 1_555
C29A C28 1_555 1_555
C30A C29A 1_555 1_555
C31A C30A 1_555 1_555
H34A C31A 1_555 1_555
H35A C31A 1_555 1_555
H36A C31A 1_555 1_555
C32A C30A 1_555 1_555
H37A C32A 1_555 1_555
H38A C32A 1_555 1_555
H39A C32A 1_555 1_555
C33A C30A 1_555 1_555
H40A C33A 1_555 1_555
H41A C33A 1_555 1_555
H42A C33A 1_555 1_555
C34A C35 1_555 1_555
C35A C34 1_555 1_555
C36A S4A 1_555 1_555
C37A C35A 1_555 1_555
C38A C39 1_555 1_555
C39A C38 1_555 1_555
C40A C39A 1_555 1_555
C41A C40A 1_555 1_555
H43A C41A 1_555 1_555
H44A C41A 1_555 1_555
H45A C41A 1_555 1_555
C42A C40A 1_555 1_555
H46A C42A 1_555 1_555
H47A C42A 1_555 1_555
H48A C42A 1_555 1_555
C43A C40A 1_555 1_555
H49A C43A 1_555 1_555
H50A C43A 1_555 1_555
H51A C43A 1_555 1_555
C44A N1A 1_555 1_555
H52A C44A 1_555 1_555
C45A C44A 1_555 1_555
H53A C45A 1_555 1_555
C46A C45A 1_555 1_555
H54A C46A 1_555 1_555
C47A C46A 1_555 1_555
H55A C47A 1_555 1_555
C48A N1A 1_555 1_555
H56A C48A 1_555 1_555
C49A N2A 1_555 1_555
H57A C49A 1_555 1_555
C50A C49A 1_555 1_555
H58A C50A 1_555 1_555
C51A C50A 1_555 1_555
H59A C51A 1_555 1_555
C52A C51A 1_555 1_555
H60A C52A 1_555 1_555
C53A N2A 1_555 1_555
H61A C53A 1_555 1_555
C54A N3A 1_555 1_555
H62A C54A 1_555 1_555
C55A C54A 1_555 1_555
H63A C55A 1_555 1_555
C56A C55A 1_555 1_555
H64A C56A 1_555 1_555
C57A C56A 1_555 1_555
H65A C57A 1_555 1_555
C58A N3A 1_555 1_555
H66A C58A 1_555 1_555
C59A N4A 1_555 1_555
H67A C59A 1_555 1_555
C60A C59A 1_555 1_555
H68A C60A 1_555 1_555
C61A C60A 1_555 1_555
H69A C61A 1_555 1_555
C62A C61A 1_555 1_555
H70A C62A 1_555 1_555
C63A N4A 1_555 1_555
H71A C63A 1_555 1_555
Na2 O4 1_555 1_555
Na3 O4 1_555 1_555
Na4 O2 1_555 1_555
O3 Na1A 1_555 1_555
C5 C6 1_555 1_555
C11 C12 1_555 1_555
C15 C16 1_555 1_555
C34 C36 1_555 1_555
C47 C48 1_555 1_555
C52 C53 1_555 1_555
C57 C58 1_555 1_555
C62 C63 1_555 1_555
C67 C68 1_555 1_555
C72 C73 1_555 1_555
S2A C25A 1_555 1_555
S3A C35A 1_555 1_555
Na1A O3A 1_555 1_555
Na2A O2A 1_555 1_555
Na2A O4A 1_555 1_555
Na3A O3A 1_555 1_555
Na3A O4A 1_555 1_555
Na4A O2A 1_555 1_555
O3A C24A 1_555 1_555
O4A C34A 1_555 1_555
C5A C6A 1_555 1_555
C11A C12A 1_555 1_555
C15A C16A 1_555 1_555
C26A C28A 1_555 1_555
C27A C29A 1_555 1_555
C34A C36A 1_555 1_555
C36A C38A 1_555 1_555
C37A C39A 1_555 1_555
C47A C48A 1_555 1_555
C52A C53A 1_555 1_555
C57A C58A 1_555 1_555
C62A C63A 1_555 1_555

#END
