
#######################################################################
#
#                 Cambridge Crystallographic Data Centre
#                                CCDC 
#
#######################################################################
#
# If this CIF has been generated from an entry in the Cambridge 
# Structural Database, then it will include bibliographic, chemical, 
# crystal, experimental, refinement or atomic coordinate data resulting 
# from the CCDC's data processing and validation procedures.
#
#######################################################################

data_MEPTOR
_chemical_formula_moiety         'C56 H77 Li5 O9 S4,2(C4 H8 O1)'
_chemical_name_systematic        
'(\m~5~-5,11,17,23-Tetra-t-butyl-25,26,27,28-tetraoxy-2,8,14,20-tetrathiacalix(4)arene)-(\m~5~-hydroxo)-tetrakis(tetrahydrofuran)-penta-lithium tetrahydrofuran solvate'
_symmetry_cell_setting           tetragonal
_symmetry_space_group_name_H-M   'P 4/n'
_symmetry_Int_Tables_number      85
_space_group_name_Hall           '-P 4a'
loop_
_symmetry_equiv_pos_site_id
_symmetry_equiv_pos_as_xyz
1 x,y,z
2 1/2-y,x,z
3 y,1/2-x,z
4 1/2-x,1/2-y,z
5 -x,-y,-z
6 1/2+y,-x,-z
7 -y,1/2+x,-z
8 1/2+x,1/2+y,-z
_cell_length_a                   13.4487(19)
_cell_length_b                   13.4487(19)
_cell_length_c                   18.570(4)
_cell_angle_alpha                90
_cell_angle_beta                 90
_cell_angle_gamma                90
_cell_volume                     3358.71
_exptl_crystal_colour            colorless
_exptl_crystal_description       prism
_cell_formula_units_Z            2
loop_
_atom_site_label
_atom_site_type_symbol
_atom_site_fract_x
_atom_site_fract_y
_atom_site_fract_z
S1 S 0.52241(5) 0.35336(5) 0.17138(3)
O1 O 0.39035(13) 0.18726(13) 0.11742(9)
O2 O 0.2500 0.2500 0.0189(2)
H1 H 0.2500 0.2500 -0.022(3)
Li1 Li 0.3039(4) 0.1102(4) 0.0568(2)
Li2 Li 0.2500 0.2500 0.1295(5)
C1 C 0.43815(18) 0.16511(19) 0.17725(12)
C2 C 0.50223(18) 0.23417(19) 0.21143(13)
C3 C 0.42854(19) 0.42922(19) 0.21155(13)
C4 C 0.5538(2) 0.2098(2) 0.27411(14)
H2 H 0.5965 0.2575 0.2945
C5 C 0.4509(2) 0.4812(2) 0.27473(14)
H3 H 0.5141 0.4731 0.2956
C6 C 0.5446(2) 0.1174(2) 0.30787(15)
C7 C 0.6063(3) 0.0930(3) 0.37605(17)
C8 C 0.7162(3) 0.0880(4) 0.3548(2)
H4 H 0.7559 0.0722 0.3969
H5 H 0.7369 0.1517 0.3355
H6 H 0.7254 0.0369 0.3186
C9 C 0.5746(4) -0.0064(4) 0.4088(2)
H7 H 0.6146 -0.0199 0.4512
H8 H 0.5843 -0.0590 0.3738
H9 H 0.5050 -0.0033 0.4223
C10 C 0.5921(4) 0.1741(4) 0.4328(2)
H10 H 0.6309 0.1580 0.4752
H11 H 0.5223 0.1785 0.4456
H12 H 0.6141 0.2374 0.4134
O3 O 0.33577(19) 0.03052(17) -0.02895(11)
C11 C 0.2759(4) 0.0376(4) -0.0933(2)
H13 H 0.2946 0.0965 -0.1213
H14 H 0.2053 0.0426 -0.0808
C12 C 0.2947(3) -0.0541(4) -0.1356(2)
H15 H 0.3468 -0.0433 -0.1717
H16 H 0.2341 -0.0768 -0.1598
C13 C 0.3276(4) -0.1271(3) -0.0800(3)
H17 H 0.2708 -0.1568 -0.0549
H18 H 0.3682 -0.1801 -0.1012
C14 C 0.3873(4) -0.0632(3) -0.0310(2)
H19 H 0.3910 -0.0926 0.0172
H20 H 0.4549 -0.0546 -0.0496
S1B S 0.35336(5) -0.02241(5) 0.17138(3)
S1C S -0.02241(5) 0.14664(5) 0.17138(3)
S1A S 0.14664(5) 0.52241(5) 0.17138(3)
O1B O 0.18726(13) 0.10965(13) 0.11742(9)
O1C O 0.10965(13) 0.31274(13) 0.11742(9)
O1A O 0.31274(13) 0.39035(13) 0.11742(9)
Li1B Li 0.1102(4) 0.1961(4) 0.0568(2)
Li1C Li 0.1961(4) 0.3898(4) 0.0568(2)
Li1A Li 0.3898(4) 0.3039(4) 0.0568(2)
C1B C 0.16511(19) 0.06185(18) 0.17725(12)
C1C C 0.06185(18) 0.33489(19) 0.17725(12)
C1A C 0.33489(19) 0.43815(18) 0.17725(12)
C2B C 0.23417(19) -0.00223(18) 0.21143(13)
C2C C -0.00223(18) 0.26583(19) 0.21143(13)
C2A C 0.26583(19) 0.50223(18) 0.21143(13)
C3B C 0.42922(19) 0.07146(19) 0.21155(13)
C3C C 0.07146(19) 0.07078(19) 0.21155(13)
C3A C 0.07078(19) 0.42854(19) 0.21155(13)
C4B C 0.2098(2) -0.0538(2) 0.27411(14)
C4C C -0.0538(2) 0.2902(2) 0.27411(14)
C4A C 0.2902(2) 0.5538(2) 0.27411(14)
H2B H 0.2575 -0.0965 0.2945
H2C H -0.0965 0.2425 0.2945
H2A H 0.2425 0.5965 0.2945
C5B C 0.4812(2) 0.0491(2) 0.27473(14)
C5C C 0.0491(2) 0.0188(2) 0.27473(14)
C5A C 0.0188(2) 0.4509(2) 0.27473(14)
H3B H 0.4731 -0.0141 0.2956
H3A H 0.0269 0.5141 0.2956
H3C H -0.0141 0.0269 0.2956
C6B C 0.1174(2) -0.0446(2) 0.30787(15)
C6C C -0.0446(2) 0.3826(2) 0.30787(15)
C6A C 0.3826(2) 0.5446(2) 0.30787(15)
C7C C -0.1063(3) 0.4070(3) 0.37605(17)
C7A C 0.4070(3) 0.6063(3) 0.37605(17)
C7B C 0.0930(3) -0.1063(3) 0.37605(17)
C8C C -0.2162(3) 0.4120(4) 0.3548(2)
C8A C 0.4120(4) 0.7162(3) 0.3548(2)
C8B C 0.0880(4) -0.2162(3) 0.3548(2)
H4C H -0.2559 0.4278 0.3969
H4A H 0.4278 0.7559 0.3969
H4B H 0.0722 -0.2559 0.3969
H5C H -0.2369 0.3483 0.3355
H5A H 0.3483 0.7369 0.3355
H5B H 0.1517 -0.2369 0.3355
H6C H -0.2254 0.4631 0.3186
H6A H 0.4631 0.7254 0.3186
H6B H 0.0369 -0.2254 0.3186
C9C C -0.0746(4) 0.5064(4) 0.4088(2)
C9A C 0.5064(4) 0.5746(4) 0.4088(2)
C9B C -0.0064(4) -0.0746(4) 0.4088(2)
H7C H -0.1146 0.5199 0.4512
H7A H 0.5199 0.6146 0.4512
H7B H -0.0199 -0.1146 0.4512
H8C H -0.0843 0.5590 0.3738
H8A H 0.5590 0.5843 0.3738
H8B H -0.0590 -0.0843 0.3738
H9C H -0.0050 0.5033 0.4223
H9A H 0.5033 0.5050 0.4223
H9B H -0.0033 -0.0050 0.4223
C10C C -0.0921(4) 0.3259(4) 0.4328(2)
C10A C 0.3259(4) 0.5921(4) 0.4328(2)
C10B C 0.1741(4) -0.0921(4) 0.4328(2)
H10C H -0.1309 0.3420 0.4752
H10A H 0.3420 0.6309 0.4752
H10B H 0.1580 -0.1309 0.4752
H11C H -0.0223 0.3215 0.4456
H11A H 0.3215 0.5223 0.4456
H11B H 0.1785 -0.0223 0.4456
H12C H -0.1141 0.2626 0.4134
H12A H 0.2626 0.6141 0.4134
H12B H 0.2374 -0.1141 0.4134
O3A O 0.46948(17) 0.33577(19) -0.02895(11)
O3B O 0.03052(17) 0.16423(19) -0.02895(11)
O3C O 0.16423(19) 0.46948(17) -0.02895(11)
C11A C 0.4624(4) 0.2759(4) -0.0933(2)
C11B C 0.0376(4) 0.2241(4) -0.0933(2)
C11C C 0.2241(4) 0.4624(4) -0.0933(2)
H13A H 0.4035 0.2946 -0.1213
H13B H 0.0965 0.2054 -0.1213
H13C H 0.2054 0.4035 -0.1213
H14A H 0.4574 0.2053 -0.0808
H14B H 0.0426 0.2947 -0.0808
H14C H 0.2947 0.4574 -0.0808
C12A C 0.5541(4) 0.2947(3) -0.1356(2)
C12B C -0.0541(4) 0.2053(3) -0.1356(2)
C12C C 0.2053(3) 0.5541(4) -0.1356(2)
H15A H 0.5433 0.3468 -0.1717
H15B H -0.0433 0.1532 -0.1717
H15C H 0.1532 0.5433 -0.1717
H16A H 0.5768 0.2341 -0.1598
H16B H -0.0768 0.2659 -0.1598
H16C H 0.2659 0.5768 -0.1598
C13A C 0.6271(3) 0.3276(4) -0.0800(3)
C13B C -0.1271(3) 0.1724(4) -0.0800(3)
C13C C 0.1724(4) 0.6271(3) -0.0800(3)
H17A H 0.6568 0.2708 -0.0549
H17B H -0.1568 0.2292 -0.0549
H17C H 0.2292 0.6568 -0.0549
H18A H 0.6801 0.3682 -0.1012
H18B H -0.1801 0.1318 -0.1012
H18C H 0.1318 0.6801 -0.1012
C14A C 0.5632(3) 0.3873(4) -0.0310(2)
C14B C -0.0632(3) 0.1127(4) -0.0310(2)
C14C C 0.1127(4) 0.5632(3) -0.0310(2)
H19A H 0.5926 0.3910 0.0172
H19B H -0.0926 0.1090 0.0172
H19C H 0.1090 0.5926 0.0172
H20A H 0.5546 0.4549 -0.0496
H20B H -0.0546 0.0451 -0.0496
H20C H 0.0451 0.5546 -0.0496
O4? O 0.2500 0.2500 0.3383(11)
C15? C 0.297(2) 0.164(2) 0.4085(14)
C16? C 0.220(2) 0.1792(18) 0.4472(11)
C17? C 0.333(2) 0.238(2) 0.3766(14)
C18? C 0.268(3) 0.2015(15) 0.4593(10)
O5? O 0.7500 0.7500 0.2213(5)
C19? C 0.742(5) 0.679(3) 0.350(2)
C20? C 0.6650(17) 0.727(2) 0.2644(10)
C21? C 0.7078(12) 0.7166(13) 0.3411(8)
C22? C 0.671(2) 0.795(3) 0.2644(12)
loop_
_geom_bond_atom_site_label_1
_geom_bond_atom_site_label_2
_geom_bond_site_symmetry_1
_geom_bond_site_symmetry_2
S1 C2 1_555 1_555
O1 Li1 1_555 1_555
O2 H1 1_555 1_555
Li1 O2 1_555 1_555
Li2 O1 1_555 1_555
C1 O1 1_555 1_555
C2 C1 1_555 1_555
C3 S1 1_555 1_555
C4 C2 1_555 1_555
H2 C4 1_555 1_555
C5 C3 1_555 1_555
H3 C5 1_555 1_555
C6 C4 1_555 1_555
C7 C6 1_555 1_555
C8 C7 1_555 1_555
H4 C8 1_555 1_555
H5 C8 1_555 1_555
H6 C8 1_555 1_555
C9 C7 1_555 1_555
H7 C9 1_555 1_555
H8 C9 1_555 1_555
H9 C9 1_555 1_555
C10 C7 1_555 1_555
H10 C10 1_555 1_555
H11 C10 1_555 1_555
H12 C10 1_555 1_555
O3 Li1 1_555 1_555
C11 O3 1_555 1_555
H13 C11 1_555 1_555
H14 C11 1_555 1_555
C12 C11 1_555 1_555
H15 C12 1_555 1_555
H16 C12 1_555 1_555
C13 C12 1_555 1_555
H17 C13 1_555 1_555
H18 C13 1_555 1_555
C14 O3 1_555 1_555
H19 C14 1_555 1_555
H20 C14 1_555 1_555
S1B C2B 1_555 1_555
S1C C2C 1_555 1_555
S1A C2A 1_555 1_555
O1B Li1 1_555 1_555
O1C Li2 1_555 1_555
O1A Li2 1_555 1_555
Li1B O2 1_555 1_555
Li1C O2 1_555 1_555
Li1A O1 1_555 1_555
C1B O1B 1_555 1_555
C1C O1C 1_555 1_555
C1A C3 1_555 1_555
C2B C1B 1_555 1_555
C2C C1C 1_555 1_555
C2A C1A 1_555 1_555
C3B C1 1_555 1_555
C3C S1C 1_555 1_555
C3A S1A 1_555 1_555
C4B C2B 1_555 1_555
C4C C2C 1_555 1_555
C4A C2A 1_555 1_555
H2B C4B 1_555 1_555
H2C C4C 1_555 1_555
H2A C4A 1_555 1_555
C5B C6 1_555 1_555
C5C C3C 1_555 1_555
C5A C3A 1_555 1_555
H3B C5B 1_555 1_555
H3A C5A 1_555 1_555
H3C C5C 1_555 1_555
C6B C4B 1_555 1_555
C6C C4C 1_555 1_555
C6A C5 1_555 1_555
C7C C6C 1_555 1_555
C7A C6A 1_555 1_555
C7B C6B 1_555 1_555
C8C C7C 1_555 1_555
C8A C7A 1_555 1_555
C8B C7B 1_555 1_555
H4C C8C 1_555 1_555
H4A C8A 1_555 1_555
H4B C8B 1_555 1_555
H5C C8C 1_555 1_555
H5A C8A 1_555 1_555
H5B C8B 1_555 1_555
H6C C8C 1_555 1_555
H6A C8A 1_555 1_555
H6B C8B 1_555 1_555
C9C C7C 1_555 1_555
C9A C7A 1_555 1_555
C9B C7B 1_555 1_555
H7C C9C 1_555 1_555
H7A C9A 1_555 1_555
H7B C9B 1_555 1_555
H8C C9C 1_555 1_555
H8A C9A 1_555 1_555
H8B C9B 1_555 1_555
H9C C9C 1_555 1_555
H9A C9A 1_555 1_555
H9B C9B 1_555 1_555
C10C C7C 1_555 1_555
C10A C7A 1_555 1_555
C10B C7B 1_555 1_555
H10C C10C 1_555 1_555
H10A C10A 1_555 1_555
H10B C10B 1_555 1_555
H11C C10C 1_555 1_555
H11A C10A 1_555 1_555
H11B C10B 1_555 1_555
H12C C10C 1_555 1_555
H12A C10A 1_555 1_555
H12B C10B 1_555 1_555
O3A Li1A 1_555 1_555
O3B Li1B 1_555 1_555
O3C Li1C 1_555 1_555
C11A O3A 1_555 1_555
C11B O3B 1_555 1_555
C11C O3C 1_555 1_555
H13A C11A 1_555 1_555
H13B C11B 1_555 1_555
H13C C11C 1_555 1_555
H14A C11A 1_555 1_555
H14B C11B 1_555 1_555
H14C C11C 1_555 1_555
C12A C11A 1_555 1_555
C12B C11B 1_555 1_555
C12C C11C 1_555 1_555
H15A C12A 1_555 1_555
H15B C12B 1_555 1_555
H15C C12C 1_555 1_555
H16A C12A 1_555 1_555
H16B C12B 1_555 1_555
H16C C12C 1_555 1_555
C13A C12A 1_555 1_555
C13B C12B 1_555 1_555
C13C C12C 1_555 1_555
H17A C13A 1_555 1_555
H17B C13B 1_555 1_555
H17C C13C 1_555 1_555
H18A C13A 1_555 1_555
H18B C13B 1_555 1_555
H18C C13C 1_555 1_555
C14A O3A 1_555 1_555
C14B O3B 1_555 1_555
C14C O3C 1_555 1_555
H19A C14A 1_555 1_555
H19B C14B 1_555 1_555
H19C C14C 1_555 1_555
H20A C14A 1_555 1_555
H20B C14B 1_555 1_555
H20C C14C 1_555 1_555
O2 Li2 1_555 1_555
O2 Li1A 1_555 1_555
Li2 O1B 1_555 1_555
C13 C14 1_555 1_555
S1B C3B 1_555 1_555
O1B Li1B 1_555 1_555
O1C Li1B 1_555 1_555
O1C Li1C 1_555 1_555
O1A Li1C 1_555 1_555
O1A Li1A 1_555 1_555
O1A C1A 1_555 1_555
C1B C3C 1_555 1_555
C1C C3A 1_555 1_555
C3B C5B 1_555 1_555
C4A C6A 1_555 1_555
C5C C6B 1_555 1_555
C5A C6C 1_555 1_555
C13A C14A 1_555 1_555
C13B C14B 1_555 1_555
C13C C14C 1_555 1_555

#END
