
#######################################################################
#
#                 Cambridge Crystallographic Data Centre
#                                CCDC 
#
#######################################################################
#
# If this CIF has been generated from an entry in the Cambridge 
# Structural Database, then it will include bibliographic, chemical, 
# crystal, experimental, refinement or atomic coordinate data resulting 
# from the CCDC's data processing and validation procedures.
#
#######################################################################

data_MEPTAD
_chemical_formula_moiety         'C9 H5 N1'
_chemical_name_systematic        4-(Buta-1,3-diynyl)pyridine
_symmetry_cell_setting           triclinic
_symmetry_space_group_name_H-M   'P -1'
_symmetry_Int_Tables_number      2
_space_group_name_Hall           '-P 1'
loop_
_symmetry_equiv_pos_site_id
_symmetry_equiv_pos_as_xyz
1 x,y,z
2 -x,-y,-z
_cell_length_a                   3.8203(4)
_cell_length_b                   8.8878(9)
_cell_length_c                   10.3102(11)
_cell_angle_alpha                104.261(4)
_cell_angle_beta                 92.738(4)
_cell_angle_gamma                92.274(4)
_cell_volume                     338.419
_exptl_crystal_colour            colorless
_exptl_crystal_description       block
_cell_formula_units_Z            2
loop_
_atom_site_label
_atom_site_type_symbol
_atom_site_fract_x
_atom_site_fract_y
_atom_site_fract_z
N1 N 0.4344(3) 0.27180(14) 0.87522(12)
C1 C 0.5562(4) 0.14176(18) 0.79893(16)
H1 H 0.560(3) 0.0509(16) 0.8389(14)
C2 C 0.6640(3) 0.12849(16) 0.67135(15)
H2 H 0.749(3) 0.0316(16) 0.6198(14)
C3 C 0.6469(3) 0.25682(15) 0.61610(14)
C4 C 0.5191(4) 0.39223(16) 0.69403(15)
H3 H 0.499(4) 0.4818(17) 0.6588(15)
C5 C 0.4191(4) 0.39401(17) 0.82080(15)
H4 H 0.328(3) 0.4883(16) 0.8777(14)
C6 C 0.7589(3) 0.24996(16) 0.48417(15)
C7 C 0.8555(3) 0.24298(15) 0.37369(15)
C8 C 0.9681(4) 0.23682(16) 0.24724(16)
C9 C 1.0703(4) 0.23428(17) 0.13908(17)
H5 H 1.169(4) 0.2366(19) 0.0528(18)
loop_
_geom_bond_atom_site_label_1
_geom_bond_atom_site_label_2
_geom_bond_site_symmetry_1
_geom_bond_site_symmetry_2
N1 C1 1_555 1_555
C1 H1 1_555 1_555
C2 C1 1_555 1_555
H2 C2 1_555 1_555
C3 C2 1_555 1_555
C4 C3 1_555 1_555
H3 C4 1_555 1_555
C5 N1 1_555 1_555
H4 C5 1_555 1_555
C6 C3 1_555 1_555
C7 C6 1_555 1_555
C8 C7 1_555 1_555
C9 C8 1_555 1_555
H5 C9 1_555 1_555
C4 C5 1_555 1_555

#END
