
#######################################################################
#
#                 Cambridge Crystallographic Data Centre
#                                CCDC 
#
#######################################################################
#
# If this CIF has been generated from an entry in the Cambridge 
# Structural Database, then it will include bibliographic, chemical, 
# crystal, experimental, refinement or atomic coordinate data resulting 
# from the CCDC's data processing and validation procedures.
#
#######################################################################

data_MEPZUD
_chemical_formula_moiety         'C15 H12 N2 O2'
_chemical_name_systematic        
2-(3-(4-Methylphenyl)-1,2,4-oxadiazol-5-yl)phenol
_symmetry_cell_setting           monoclinic
_symmetry_space_group_name_H-M   'P 21'
_symmetry_Int_Tables_number      4
_space_group_name_Hall           'P 2yb'
loop_
_symmetry_equiv_pos_site_id
_symmetry_equiv_pos_as_xyz
1 x,y,z
2 -x,1/2+y,-z
_cell_length_a                   6.5110(13)
_cell_length_b                   5.1720(10)
_cell_length_c                   18.763(4)
_cell_angle_alpha                90
_cell_angle_beta                 99.14(3)
_cell_angle_gamma                90
_cell_volume                     623.82
_exptl_crystal_colour            colorless
_exptl_crystal_description       block
_cell_formula_units_Z            2
_exptl_crystal_recrystallization_method ethanol
loop_
_atom_site_label
_atom_site_type_symbol
_atom_site_fract_x
_atom_site_fract_y
_atom_site_fract_z
O1 O 0.3517(5) 1.0967(8) 0.2605(2)
O2 O 0.9481(6) 1.2325(9) 0.3728(2)
H1 H 0.9092 1.1246 0.3416
N1 N 0.3661(6) 0.8946(10) 0.2106(2)
N2 N 0.6824(6) 0.9897(8) 0.2723(2)
C1 C 0.9121(10) 0.0519(13) 0.0584(3)
H2 H 0.8061 -0.0175 0.0220
H3 H 0.9686 -0.0838 0.0905
H4 H 1.0208 0.1260 0.0358
C2 C 0.8201(8) 0.2562(11) 0.1000(3)
C3 C 0.9425(8) 0.3869(12) 0.1558(3)
H5 H 1.0830 0.3461 0.1671
C4 C 0.8602(8) 0.5773(11) 0.1952(3)
H6 H 0.9449 0.6627 0.2324
C5 C 0.6521(7) 0.6386(11) 0.1787(3)
C6 C 0.5298(8) 0.5093(12) 0.1238(3)
H7 H 0.3891 0.5491 0.1128
C7 C 0.6130(9) 0.3208(13) 0.0845(3)
H8 H 0.5277 0.2368 0.0471
C8 C 0.5640(7) 0.8413(10) 0.2205(2)
C9 C 0.5446(7) 1.1411(11) 0.2946(3)
C10 C 0.5832(8) 1.3408(10) 0.3479(3)
C11 C 0.4232(9) 1.4999(11) 0.3631(3)
H9 H 0.2889 1.4756 0.3385
C12 C 0.4603(11) 1.6904(13) 0.4135(4)
H10 H 0.3530 1.7981 0.4226
C13 C 0.6590(12) 1.7223(15) 0.4511(3)
H11 H 0.6837 1.8494 0.4865
C14 C 0.8190(11) 1.5718(14) 0.4375(3)
H12 H 0.9524 1.5983 0.4625
C15 C 0.7820(8) 1.3768(11) 0.3855(3)
loop_
_geom_bond_atom_site_label_1
_geom_bond_atom_site_label_2
_geom_bond_site_symmetry_1
_geom_bond_site_symmetry_2
O1 N1 1_555 1_555
O2 H1 1_555 1_555
N1 C8 1_555 1_555
N2 C8 1_555 1_555
C1 H2 1_555 1_555
H3 C1 1_555 1_555
H4 C1 1_555 1_555
C2 C1 1_555 1_555
C3 C2 1_555 1_555
H5 C3 1_555 1_555
C4 C3 1_555 1_555
H6 C4 1_555 1_555
C5 C4 1_555 1_555
C6 C5 1_555 1_555
H7 C6 1_555 1_555
C7 C2 1_555 1_555
H8 C7 1_555 1_555
C8 C5 1_555 1_555
C9 O1 1_555 1_555
C10 C9 1_555 1_555
C11 C10 1_555 1_555
H9 C11 1_555 1_555
C12 C11 1_555 1_555
H10 C12 1_555 1_555
C13 C12 1_555 1_555
H11 C13 1_555 1_555
C14 C13 1_555 1_555
H12 C14 1_555 1_555
C15 O2 1_555 1_555
N2 C9 1_555 1_555
C6 C7 1_555 1_555
C10 C15 1_555 1_555
C14 C15 1_555 1_555

#END
