
#######################################################################
#
#                 Cambridge Crystallographic Data Centre
#                                CCDC 
#
#######################################################################
#
# If this CIF has been generated from an entry in the Cambridge 
# Structural Database, then it will include bibliographic, chemical, 
# crystal, experimental, refinement or atomic coordinate data resulting 
# from the CCDC's data processing and validation procedures.
#
#######################################################################

data_MEQBAO
_chemical_formula_moiety         'C27 H19 Cl1 N2 O1'
_chemical_name_systematic        
2-[1-(4-chlorophenyl)-4,5-diphenyl-1H-imidazol-2-yl]phenol
_symmetry_cell_setting           orthorhombic
_symmetry_space_group_name_H-M   'P 21 21 21'
_symmetry_Int_Tables_number      19
_space_group_name_Hall           'P 2ac 2ab'
loop_
_symmetry_equiv_pos_site_id
_symmetry_equiv_pos_as_xyz
1 x,y,z
2 1/2-x,-y,1/2+z
3 -x,1/2+y,1/2-z
4 1/2+x,1/2-y,-z
_cell_length_a                   9.3008(7)
_cell_length_b                   12.2233(8)
_cell_length_c                   19.5871(13)
_cell_angle_alpha                90
_cell_angle_beta                 90
_cell_angle_gamma                90
_cell_volume                     2226.79
_exptl_crystal_colour            white
_exptl_crystal_description       block
_cell_formula_units_Z            4
loop_
_atom_site_label
_atom_site_type_symbol
_atom_site_fract_x
_atom_site_fract_y
_atom_site_fract_z
Cl1 Cl 0.82143(16) -0.02671(11) 0.45000(8)
O1 O 0.1251(3) 0.3842(3) 0.25700(18)
H1 H 0.1809 0.4347 0.2724
N1 N 0.4903(3) 0.3698(3) 0.37951(16)
N2 N 0.3179(4) 0.4736(3) 0.33538(15)
C1 C 0.5395(4) 0.4776(4) 0.3815(2)
C2 C 0.6822(5) 0.5082(3) 0.4093(2)
C3 C 0.8087(5) 0.4710(4) 0.3811(2)
H2 H 0.8057 0.4225 0.3446
C4 C 0.9407(6) 0.5051(5) 0.4065(3)
H3 H 1.0252 0.4785 0.3874
C5 C 0.9465(6) 0.5766(5) 0.4589(3)
H4 H 1.0352 0.5997 0.4754
C6 C 0.8224(7) 0.6155(4) 0.4879(2)
H5 H 0.8269 0.6647 0.5241
C7 C 0.6896(5) 0.5810(4) 0.4632(2)
H6 H 0.6055 0.6071 0.4829
C8 C 0.4331(5) 0.5394(3) 0.3536(2)
C9 C 0.4246(5) 0.6585(3) 0.34101(19)
C10 C 0.5464(5) 0.7218(4) 0.3311(2)
H7 H 0.6369 0.6897 0.3335
C11 C 0.5341(6) 0.8325(4) 0.3179(2)
H8 H 0.6167 0.8745 0.3125
C12 C 0.4023(6) 0.8809(4) 0.3125(2)
H9 H 0.3950 0.9552 0.3031
C13 C 0.2813(6) 0.8192(4) 0.3212(2)
H10 H 0.1913 0.8517 0.3173
C14 C 0.2915(5) 0.7087(3) 0.3357(2)
H11 H 0.2083 0.6677 0.3420
C15 C 0.3552(4) 0.3723(3) 0.35175(19)
C16 C 0.5736(4) 0.2747(3) 0.3970(2)
C17 C 0.6193(4) 0.2057(3) 0.3462(2)
H12 H 0.5990 0.2218 0.3008
C18 C 0.6952(5) 0.1126(3) 0.3624(2)
H13 H 0.7254 0.0651 0.3282
C19 C 0.7258(4) 0.0905(3) 0.4295(3)
C20 C 0.6825(6) 0.1593(4) 0.4801(2)
H14 H 0.7052 0.1436 0.5253
C21 C 0.6049(5) 0.2526(4) 0.4644(2)
H15 H 0.5744 0.2996 0.4987
C22 C 0.2595(4) 0.2784(3) 0.3398(2)
C23 C 0.1500(5) 0.2894(4) 0.2916(2)
C24 C 0.0603(6) 0.2019(4) 0.2771(3)
H16 H -0.0094 0.2085 0.2433
C25 C 0.0744(6) 0.1051(4) 0.3126(3)
H17 H 0.0142 0.0466 0.3026
C26 C 0.1768(5) 0.0947(3) 0.3627(3)
H18 H 0.1840 0.0302 0.3876
C27 C 0.2682(5) 0.1802(3) 0.3755(2)
H19 H 0.3381 0.1723 0.4091
loop_
_geom_bond_atom_site_label_1
_geom_bond_atom_site_label_2
_geom_bond_site_symmetry_1
_geom_bond_site_symmetry_2
Cl1 C19 1_555 1_555
O1 H1 1_555 1_555
N1 C1 1_555 1_555
N2 C8 1_555 1_555
C1 C2 1_555 1_555
C2 C3 1_555 1_555
C3 H2 1_555 1_555
C4 C3 1_555 1_555
H3 C4 1_555 1_555
C5 C4 1_555 1_555
H4 C5 1_555 1_555
C6 C5 1_555 1_555
H5 C6 1_555 1_555
C7 C2 1_555 1_555
H6 C7 1_555 1_555
C8 C1 1_555 1_555
C9 C8 1_555 1_555
C10 C9 1_555 1_555
H7 C10 1_555 1_555
C11 C10 1_555 1_555
H8 C11 1_555 1_555
C12 C11 1_555 1_555
H9 C12 1_555 1_555
C13 C12 1_555 1_555
H10 C13 1_555 1_555
C14 C9 1_555 1_555
H11 C14 1_555 1_555
C15 N1 1_555 1_555
C16 N1 1_555 1_555
C17 C16 1_555 1_555
H12 C17 1_555 1_555
C18 C17 1_555 1_555
H13 C18 1_555 1_555
C19 C18 1_555 1_555
C20 C19 1_555 1_555
H14 C20 1_555 1_555
C21 C16 1_555 1_555
H15 C21 1_555 1_555
C22 C15 1_555 1_555
C23 O1 1_555 1_555
C24 C23 1_555 1_555
H16 C24 1_555 1_555
C25 C24 1_555 1_555
H17 C25 1_555 1_555
C26 C25 1_555 1_555
H18 C26 1_555 1_555
C27 C22 1_555 1_555
H19 C27 1_555 1_555
N2 C15 1_555 1_555
C6 C7 1_555 1_555
C13 C14 1_555 1_555
C20 C21 1_555 1_555
C22 C23 1_555 1_555
C26 C27 1_555 1_555

#END
