
#######################################################################
#
#                 Cambridge Crystallographic Data Centre
#                                CCDC 
#
#######################################################################
#
# If this CIF has been generated from an entry in the Cambridge 
# Structural Database, then it will include bibliographic, chemical, 
# crystal, experimental, refinement or atomic coordinate data resulting 
# from the CCDC's data processing and validation procedures.
#
#######################################################################

data_MEQBOZ
_chemical_formula_moiety         'C34 H31 N1 O4'
_chemical_name_systematic        
(3S,4S,5S)-3-Benzyloxy-4-benzyloxymethyl-1-(4-methoxyphenyl)-5-phenylethynyl-2-pyrrolidinone
_symmetry_cell_setting           orthorhombic
_symmetry_space_group_name_H-M   'P 21 21 21'
_symmetry_Int_Tables_number      19
_space_group_name_Hall           'P 2ac 2ab'
loop_
_symmetry_equiv_pos_site_id
_symmetry_equiv_pos_as_xyz
1 x,y,z
2 1/2-x,-y,1/2+z
3 1/2+x,1/2-y,-z
4 -x,1/2+y,1/2-z
_cell_length_a                   9.9155(17)
_cell_length_b                   9.921(4)
_cell_length_c                   28.378(3)
_cell_angle_alpha                90
_cell_angle_beta                 90
_cell_angle_gamma                90
_cell_volume                     2791.59
_exptl_crystal_colour            'light yellow'
_chemical_melting_point          104-105deg.C
_cell_formula_units_Z            4
_exptl_crystal_recrystallization_method EtOAc/hexanes
loop_
_atom_site_label
_atom_site_type_symbol
_atom_site_fract_x
_atom_site_fract_y
_atom_site_fract_z
N1 N 0.8692(9) 0.4874(10) 0.8303(4)
O1 O 0.6880(10) 0.4506(10) 0.7818(3)
O2 O 0.7719(9) 0.0868(8) 0.9645(4)
O3 O 0.8168(10) 0.6578(8) 0.7227(3)
O4 O 1.1738(10) 0.5551(9) 0.7419(4)
C1 C 0.7960(11) 0.4973(13) 0.7888(5)
C2 C 0.8848(13) 0.5673(12) 0.7537(5)
C3 C 0.9851(12) 0.6466(11) 0.7822(4)
C4 C 1.0037(11) 0.5547(10) 0.8268(4)
C5 C 0.8385(10) 0.3920(11) 0.8668(4)
C6 C 0.7125(11) 0.3574(11) 0.8785(5)
C7 C 0.6810(10) 0.2560(12) 0.9103(5)
C8 C 0.7884(12) 0.1929(11) 0.9329(4)
C9 C 0.9147(11) 0.2312(12) 0.9240(5)
C10 C 0.9452(12) 0.3303(12) 0.8917(5)
C11 C 0.6374(15) 0.0461(16) 0.9736(6)
C12 C 0.7490(2) 0.5898(14) 0.6854(6)
C13 C 0.7160(15) 0.6984(13) 0.6500(5)
C14 C 0.6865(14) 0.8252(13) 0.6599(6)
C15 C 0.6609(14) 0.9208(16) 0.6266(7)
C16 C 0.6687(16) 0.8786(15) 0.5783(7)
C17 C 0.6913(13) 0.7541(15) 0.5669(6)
C18 C 0.7174(15) 0.6533(14) 0.5997(6)
C19 C 1.1187(16) 0.6774(13) 0.7587(6)
C20 C 1.2930(2) 0.5743(18) 0.7159(7)
H1 H 0.9330 0.4995 0.7350
H2 H 0.9432 0.7316 0.7920
H3 H 1.0727 0.4865 0.8202
H4 H 0.6418 0.4041 0.8645
H5 H 0.5921 0.2313 0.9162
H6 H 0.9848 0.1896 0.9402
H7 H 1.0341 0.3560 0.8865
H8 H 0.6374 -0.0269 0.9958
H9 H 0.5958 0.0172 0.9448
H10 H 0.5877 0.1206 0.9864
H11 H 0.6675 0.5469 0.6968
H12 H 0.8069 0.5217 0.6715
H13 H 0.6830 0.8507 0.6914
H14 H 0.6394 1.0090 0.6348
H15 H 0.6572 0.9422 0.5545
H16 H 0.6900 0.7310 0.5352
H17 H 0.7344 0.5645 0.5910
H18 H 1.1052 0.7395 0.7329
H19 H 1.1799 0.7188 0.7811
H20 H 1.3656 0.5990 0.7373
H21 H 1.2806 0.6478 0.6938
H22 H 1.1775 0.4609 0.6409
H23 H 1.2332 0.2783 0.5991
H24 H 1.4114 0.1499 0.6185
H25 H 1.5518 0.2121 0.6801
H26 H 1.4817 0.3948 0.7291
H27 H 1.3259 0.7090 0.9332
H28 H 1.4189 0.8411 0.9948
H29 H 1.2796 0.9896 1.0353
H30 H 1.0631 1.0197 1.0097
H31 H 0.9698 0.8869 0.9529
C21 C 1.3318(15) 0.4510(15) 0.6898(6)
C22 C 1.2526(18) 0.4100(2) 0.6496(8)
C23 C 1.2857(18) 0.3023(18) 0.6249(7)
C24 C 1.3922(19) 0.2265(19) 0.6361(7)
C25 C 1.4739(18) 0.2610(2) 0.6734(7)
C26 C 1.4338(18) 0.3750(2) 0.7018(7)
C27 C 1.0426(12) 0.6308(10) 0.8690(5)
C28 C 1.0871(11) 0.7048(12) 0.8983(5)
C29 C 1.1410(11) 0.7857(10) 0.9367(4)
C30 C 1.2721(13) 0.7709(12) 0.9491(5)
C31 C 1.3285(15) 0.8502(14) 0.9866(6)
C32 C 1.2468(15) 0.9399(1) 1.0100(6)
C33 C 1.1163(15) 0.9544(13) 0.9953(5)
C34 C 1.0605(13) 0.8777(12) 0.9606(6)
loop_
_geom_bond_atom_site_label_1
_geom_bond_atom_site_label_2
_geom_bond_site_symmetry_1
_geom_bond_site_symmetry_2
N1 C1 1_555 1_555
O1 C1 1_555 1_555
O2 C8 1_555 1_555
O3 C2 1_555 1_555
O4 C19 1_555 1_555
C1 C2 1_555 1_555
C2 C3 1_555 1_555
C3 C4 1_555 1_555
C4 N1 1_555 1_555
C5 N1 1_555 1_555
C6 C5 1_555 1_555
C7 C6 1_555 1_555
C8 C7 1_555 1_555
C9 C8 1_555 1_555
C10 C5 1_555 1_555
C11 O2 1_555 1_555
C12 O3 1_555 1_555
C13 C12 1_555 1_555
C14 C13 1_555 1_555
C15 C14 1_555 1_555
C16 C15 1_555 1_555
C17 C16 1_555 1_555
C18 C13 1_555 1_555
C19 C3 1_555 1_555
C20 O4 1_555 1_555
H1 C2 1_555 1_555
H2 C3 1_555 1_555
H3 C4 1_555 1_555
H4 C6 1_555 1_555
H5 C7 1_555 1_555
H6 C9 1_555 1_555
H7 C10 1_555 1_555
H8 C11 1_555 1_555
H9 C11 1_555 1_555
H10 C11 1_555 1_555
H11 C12 1_555 1_555
H12 C12 1_555 1_555
H13 C14 1_555 1_555
H14 C15 1_555 1_555
H15 C16 1_555 1_555
H16 C17 1_555 1_555
H17 C18 1_555 1_555
H18 C19 1_555 1_555
H19 C19 1_555 1_555
H20 C20 1_555 1_555
H21 C20 1_555 1_555
H22 C22 1_555 1_555
H23 C23 1_555 1_555
H24 C24 1_555 1_555
H25 C25 1_555 1_555
H26 C26 1_555 1_555
H27 C30 1_555 1_555
H28 C31 1_555 1_555
H29 C32 1_555 1_555
H30 C33 1_555 1_555
H31 C34 1_555 1_555
C21 C20 1_555 1_555
C22 C21 1_555 1_555
C23 C22 1_555 1_555
C24 C23 1_555 1_555
C25 C24 1_555 1_555
C26 C21 1_555 1_555
C27 C4 1_555 1_555
C28 C27 1_555 1_555
C29 C28 1_555 1_555
C30 C29 1_555 1_555
C31 C30 1_555 1_555
C32 C31 1_555 1_555
C33 C32 1_555 1_555
C34 C29 1_555 1_555
C9 C10 1_555 1_555
C17 C18 1_555 1_555
C25 C26 1_555 1_555
C33 C34 1_555 1_555

#END
