
#######################################################################
#
#                 Cambridge Crystallographic Data Centre
#                                CCDC 
#
#######################################################################
#
# If this CIF has been generated from an entry in the Cambridge 
# Structural Database, then it will include bibliographic, chemical, 
# crystal, experimental, refinement or atomic coordinate data resulting 
# from the CCDC's data processing and validation procedures.
#
#######################################################################

data_MEQDAO
_chemical_formula_moiety         'C10 H13 N1 O4'
_chemical_name_systematic        '(E)-2,4,5-Trimethoxybenzaldehyde oxime'
_symmetry_cell_setting           triclinic
_symmetry_space_group_name_H-M   'P -1'
_symmetry_Int_Tables_number      2
_space_group_name_Hall           '-P 1'
loop_
_symmetry_equiv_pos_site_id
_symmetry_equiv_pos_as_xyz
1 x,y,z
2 -x,-y,-z
_cell_length_a                   7.44280(10)
_cell_length_b                   10.71890(10)
_cell_length_c                   14.0290(2)
_cell_angle_alpha                87.5830(10)
_cell_angle_beta                 88.4510(10)
_cell_angle_gamma                75.2140(10)
_cell_volume                     1081.04
_exptl_crystal_colour            colorless
_exptl_crystal_description       block
_cell_formula_units_Z            4
_exptl_crystal_recrystallization_method 'ethyl acetate/petroleum ether'
loop_
_atom_site_label
_atom_site_type_symbol
_atom_site_fract_x
_atom_site_fract_y
_atom_site_fract_z
O1 O 0.23909(16) 0.53280(10) 0.20946(8)
O2 O -0.28464(15) 0.53983(10) 0.42574(8)
O3 O -0.25307(18) 0.82962(12) 0.66363(8)
H1 H -0.2040 0.8654 0.7021
O4 O 0.32536(14) 0.70961(10) 0.30188(7)
N1 N -0.13484(19) 0.79793(12) 0.58378(9)
C1 C -0.08491(19) 0.67322(12) 0.44599(10)
C2 C -0.13221(19) 0.57914(12) 0.39329(10)
C3 C -0.0261(2) 0.53020(13) 0.31383(10)
H3 H -0.0582 0.4672 0.2792
C4 C 0.1262(2) 0.57440(13) 0.28594(10)
C5 C 0.17403(19) 0.67067(13) 0.33734(10)
C6 C 0.06951(19) 0.71753(13) 0.41549(10)
H4 H 0.1017 0.7809 0.4496
C7 C 0.2067(3) 0.43219(17) 0.15608(13)
H5 H 0.2968 0.4133 0.1050
H6 H 0.0841 0.4584 0.1302
H7 H 0.2171 0.3565 0.1968
C8 C -0.3396(2) 0.44414(16) 0.37522(13)
H8 H -0.4475 0.4259 0.4058
H9 H -0.2402 0.3668 0.3749
H10 H -0.3683 0.4750 0.3108
C9 C 0.3825(2) 0.80356(16) 0.35333(13)
H11 H 0.4886 0.8233 0.3219
H12 H 0.4147 0.7704 0.4170
H13 H 0.2828 0.8805 0.3560
C10 C -0.1882(2) 0.72105(14) 0.53203(10)
H14 H -0.2947 0.6948 0.5492
O5 O 0.45656(15) 1.38071(10) 0.87482(8)
H2 H 0.5404 1.3822 0.8360
O6 O -0.07741(15) 1.28758(11) 1.01755(8)
O7 O -0.21573(14) 0.95086(10) 0.83293(7)
O8 O 0.05978(15) 0.95249(10) 0.72070(8)
N2 N 0.36896(17) 1.28563(11) 0.85149(9)
C11 C 0.10658(18) 1.20356(13) 0.88569(9)
C12 C -0.04554(19) 1.20229(13) 0.94502(10)
C13 C -0.15600(19) 1.11856(13) 0.92964(10)
H15 H -0.2572 1.1181 0.9699
C14 C -0.11571(19) 1.03619(13) 0.85480(10)
C15 C 0.03646(19) 1.03652(13) 0.79381(10)
C16 C 0.14478(19) 1.11883(13) 0.80975(10)
H16 H 0.2461 1.1187 0.7694
C17 C -0.3738(2) 0.94619(16) 0.88956(12)
H17 H -0.4307 0.8831 0.8656
H18 H -0.4611 1.0294 0.8873
H19 H -0.3372 0.9228 0.9543
C18 C 0.2106(2) 0.94858(17) 0.65644(12)
H20 H 0.2114 0.8867 0.6088
H21 H 0.3250 0.9241 0.6907
H22 H 0.1978 1.0323 0.6262
C19 C -0.2338(3) 1.29425(17) 1.07812(12)
H23 H -0.2388 1.3578 1.1250
H24 H -0.2244 1.2116 1.1096
H25 H -0.3447 1.3178 1.0410
C20 C 0.2216(2) 1.29233(13) 0.90017(10)
H26 H 0.1861 1.3548 0.9458
loop_
_geom_bond_atom_site_label_1
_geom_bond_atom_site_label_2
_geom_bond_site_symmetry_1
_geom_bond_site_symmetry_2
O1 C4 1_555 1_555
O2 C2 1_555 1_555
O3 H1 1_555 1_555
O4 C5 1_555 1_555
O5 H2 1_555 1_555
O6 C12 1_555 1_555
O7 C14 1_555 1_555
O8 C15 1_555 1_555
N1 O3 1_555 1_555
N2 O5 1_555 1_555
C1 C2 1_555 1_555
C2 C3 1_555 1_555
C3 H3 1_555 1_555
C4 C3 1_555 1_555
C5 C4 1_555 1_555
C6 C1 1_555 1_555
H4 C6 1_555 1_555
C7 O1 1_555 1_555
H5 C7 1_555 1_555
H6 C7 1_555 1_555
H7 C7 1_555 1_555
C8 O2 1_555 1_555
H8 C8 1_555 1_555
H9 C8 1_555 1_555
H10 C8 1_555 1_555
C9 O4 1_555 1_555
H11 C9 1_555 1_555
H12 C9 1_555 1_555
H13 C9 1_555 1_555
C10 N1 1_555 1_555
H14 C10 1_555 1_555
C11 C12 1_555 1_555
C12 C13 1_555 1_555
C13 H15 1_555 1_555
C14 C13 1_555 1_555
C15 C14 1_555 1_555
C16 C11 1_555 1_555
H16 C16 1_555 1_555
C17 O7 1_555 1_555
H17 C17 1_555 1_555
H18 C17 1_555 1_555
H19 C17 1_555 1_555
C18 O8 1_555 1_555
H20 C18 1_555 1_555
H21 C18 1_555 1_555
H22 C18 1_555 1_555
C19 O6 1_555 1_555
H23 C19 1_555 1_555
H24 C19 1_555 1_555
H25 C19 1_555 1_555
C20 N2 1_555 1_555
H26 C20 1_555 1_555
C1 C10 1_555 1_555
C5 C6 1_555 1_555
C11 C20 1_555 1_555
C15 C16 1_555 1_555

#END
