
#######################################################################
#
#                 Cambridge Crystallographic Data Centre
#                                CCDC 
#
#######################################################################
#
# If this CIF has been generated from an entry in the Cambridge 
# Structural Database, then it will include bibliographic, chemical, 
# crystal, experimental, refinement or atomic coordinate data resulting 
# from the CCDC's data processing and validation procedures.
#
#######################################################################

data_MEQDAQ
_chemical_formula_moiety         'C38 H41 Cl2 N3 O1'
_chemical_name_systematic        
3-(2,5-dichlorophenyl)-5-(4,8-dimethylnona-3,7-dien-1-yl)-5,7-dimethyl-1-phenyl-3,5,5a,6,7,11b-hexahydropyrazolo[4',3':5,6]pyrano[3,4-c]quinoline
_symmetry_cell_setting           monoclinic
_symmetry_space_group_name_H-M   'P 21/c'
_symmetry_Int_Tables_number      14
_space_group_name_Hall           '-P 2ybc'
loop_
_symmetry_equiv_pos_site_id
_symmetry_equiv_pos_as_xyz
1 x,y,z
2 -x,1/2+y,1/2-z
3 -x,-y,-z
4 x,1/2-y,1/2+z
_cell_length_a                   11.3653(12)
_cell_length_b                   9.0990(10)
_cell_length_c                   31.927(4)
_cell_angle_alpha                90
_cell_angle_beta                 94.703(2)
_cell_angle_gamma                90
_cell_volume                     3290.55
_exptl_crystal_colour            colorless
_exptl_crystal_description       block
_chemical_melting_point          '378 K'
_cell_formula_units_Z            4
_exptl_crystal_recrystallization_method hexane/EtOAc
loop_
_atom_site_label
_atom_site_type_symbol
_atom_site_fract_x
_atom_site_fract_y
_atom_site_fract_z
C1 C 0.4749(2) -0.0064(3) 0.15983(8)
H1 H 0.5171 -0.1025 0.1584
C2 C 0.4328(2) 0.0032(3) 0.20338(8)
C3 C 0.4761(2) 0.0972(3) 0.23433(8)
H2 H 0.5332 0.1687 0.2282
C4 C 0.4386(3) 0.0904(3) 0.27433(9)
H3 H 0.4709 0.1548 0.2957
C5 C 0.3539(3) -0.0107(4) 0.28292(9)
H4 H 0.3284 -0.0163 0.3105
C6 C 0.3057(2) -0.1040(3) 0.25222(10)
H5 H 0.2460 -0.1719 0.2584
C7 C 0.3447(2) -0.0985(3) 0.21171(9)
N1 N 0.3056(2) -0.1924(3) 0.17817(7)
C8 C 0.2189(3) -0.3041(4) 0.18695(10)
H6 H 0.2497 -0.3639 0.2109
H7 H 0.2034 -0.3672 0.1622
H8 H 0.1455 -0.2563 0.1936
C9 C 0.2716(2) -0.1113(3) 0.13959(9)
H9 H 0.2017 -0.0500 0.1440
H10 H 0.2486 -0.1821 0.1168
C10 C 0.3709(2) -0.0116(3) 0.12555(9)
H11 H 0.4014 -0.0597 0.1004
C11 C 0.5598(2) 0.1098(3) 0.14773(8)
C12 C 0.6819(2) 0.1382(3) 0.15670(8)
C13 C 0.7706(2) 0.0617(3) 0.18564(8)
C14 C 0.8884(2) 0.1066(3) 0.18826(9)
H12 H 0.9109 0.1882 0.1722
C15 C 0.9724(3) 0.0335(4) 0.21401(10)
H13 H 1.0519 0.0667 0.2160
C16 C 0.9419(3) -0.0879(4) 0.23704(10)
H14 H 1.0003 -0.1391 0.2543
C17 C 0.8265(3) -0.1330(4) 0.23452(9)
H15 H 0.8048 -0.2157 0.2503
C18 C 0.7414(3) -0.0594(3) 0.20924(9)
H16 H 0.6617 -0.0919 0.2080
N2 N 0.71871(18) 0.2486(3) 0.13319(7)
N3 N 0.61895(19) 0.2938(3) 0.10918(7)
C19 C 0.5255(2) 0.2088(3) 0.11736(8)
C20 C 0.6266(2) 0.3952(3) 0.07545(9)
C21 C 0.5607(3) 0.5237(3) 0.07336(10)
Cl1 Cl 0.47254(8) 0.57269(10) 0.11244(3)
C22 C 0.5672(3) 0.6167(4) 0.03884(12)
H17 H 0.5199 0.7028 0.0365
C23 C 0.6415(3) 0.5844(4) 0.00829(12)
H18 H 0.6467 0.6492 -0.0148
C24 C 0.7083(3) 0.4585(4) 0.01121(11)
Cl2 Cl 0.80129(10) 0.41635(15) -0.02736(3)
C25 C 0.7007(3) 0.3626(4) 0.04479(10)
H19 H 0.7465 0.2751 0.0466
O1 O 0.42200(15) 0.2231(2) 0.09376(6)
C26 C 0.3245(2) 0.1417(3) 0.11099(8)
C27 C 0.2816(2) 0.2378(3) 0.14610(9)
H20 H 0.3464 0.2531 0.1679
H21 H 0.2158 0.1889 0.1584
H22 H 0.2551 0.3330 0.1345
C28 C 0.2318(2) 0.1329(3) 0.07376(8)
H23 H 0.2148 0.2338 0.0634
H24 H 0.1581 0.0933 0.0839
C29 C 0.2646(3) 0.0388(4) 0.03675(9)
H25 H 0.3442 0.0678 0.0292
H26 H 0.2684 -0.0655 0.0456
C30 C 0.1794(3) 0.0532(4) -0.00115(10)
H27 H 0.0989 0.0663 0.0040
C31 C 0.2026(3) 0.0498(3) -0.04136(10)
C32 C 0.3250(3) 0.0356(4) -0.05482(12)
H28 H 0.3813 0.0302 -0.0299
H29 H 0.3431 0.1213 -0.0717
H30 H 0.3306 -0.0539 -0.0716
C33 C 0.1053(4) 0.0544(4) -0.07664(10)
H31 H 0.0284 0.0574 -0.0641
H32 H 0.1079 -0.0381 -0.0929
C34 C 0.1103(4) 0.1827(4) -0.10692(11)
H33 H 0.1912 0.1899 -0.1161
H34 H 0.0560 0.1628 -0.1321
C35 C 0.0778(3) 0.3275(4) -0.08848(11)
H35 H 0.0724 0.3307 -0.0590
C36 C 0.0559(3) 0.4510(4) -0.10947(10)
C37 C 0.0193(3) 0.5878(4) -0.08875(12)
H36 H -0.0622 0.6119 -0.0988
H37 H 0.0716 0.6685 -0.0955
H38 H 0.0243 0.5731 -0.0582
C38 C 0.0662(3) 0.4646(4) -0.15573(11)
H39 H 0.0850 0.3683 -0.1672
H40 H 0.1291 0.5345 -0.1608
H41 H -0.0088 0.4999 -0.1695
loop_
_geom_bond_atom_site_label_1
_geom_bond_atom_site_label_2
_geom_bond_site_symmetry_1
_geom_bond_site_symmetry_2
C1 H1 1_555 1_555
C2 C1 1_555 1_555
C3 C2 1_555 1_555
H2 C3 1_555 1_555
C4 C3 1_555 1_555
H3 C4 1_555 1_555
C5 C4 1_555 1_555
H4 C5 1_555 1_555
C6 C5 1_555 1_555
H5 C6 1_555 1_555
C7 C2 1_555 1_555
N1 C7 1_555 1_555
C8 N1 1_555 1_555
H6 C8 1_555 1_555
H7 C8 1_555 1_555
H8 C8 1_555 1_555
C9 N1 1_555 1_555
H9 C9 1_555 1_555
H10 C9 1_555 1_555
C10 C1 1_555 1_555
H11 C10 1_555 1_555
C11 C1 1_555 1_555
C12 C11 1_555 1_555
C13 C12 1_555 1_555
C14 C13 1_555 1_555
H12 C14 1_555 1_555
C15 C14 1_555 1_555
H13 C15 1_555 1_555
C16 C15 1_555 1_555
H14 C16 1_555 1_555
C17 C16 1_555 1_555
H15 C17 1_555 1_555
C18 C13 1_555 1_555
H16 C18 1_555 1_555
N2 C12 1_555 1_555
N3 N2 1_555 1_555
C19 C11 1_555 1_555
C20 N3 1_555 1_555
C21 C20 1_555 1_555
Cl1 C21 1_555 1_555
C22 C21 1_555 1_555
H17 C22 1_555 1_555
C23 C22 1_555 1_555
H18 C23 1_555 1_555
C24 C23 1_555 1_555
Cl2 C24 1_555 1_555
C25 C20 1_555 1_555
H19 C25 1_555 1_555
O1 C19 1_555 1_555
C26 C10 1_555 1_555
C27 C26 1_555 1_555
H20 C27 1_555 1_555
H21 C27 1_555 1_555
H22 C27 1_555 1_555
C28 C26 1_555 1_555
H23 C28 1_555 1_555
H24 C28 1_555 1_555
C29 C28 1_555 1_555
H25 C29 1_555 1_555
H26 C29 1_555 1_555
C30 C29 1_555 1_555
H27 C30 1_555 1_555
C31 C30 1_555 1_555
C32 C31 1_555 1_555
H28 C32 1_555 1_555
H29 C32 1_555 1_555
H30 C32 1_555 1_555
C33 C31 1_555 1_555
H31 C33 1_555 1_555
H32 C33 1_555 1_555
C34 C33 1_555 1_555
H33 C34 1_555 1_555
H34 C34 1_555 1_555
C35 C34 1_555 1_555
H35 C35 1_555 1_555
C36 C35 1_555 1_555
C37 C36 1_555 1_555
H36 C37 1_555 1_555
H37 C37 1_555 1_555
H38 C37 1_555 1_555
C38 C36 1_555 1_555
H39 C38 1_555 1_555
H40 C38 1_555 1_555
H41 C38 1_555 1_555
C6 C7 1_555 1_555
C9 C10 1_555 1_555
C17 C18 1_555 1_555
N3 C19 1_555 1_555
C24 C25 1_555 1_555
O1 C26 1_555 1_555

#END
