
#######################################################################
#
#                 Cambridge Crystallographic Data Centre
#                                CCDC 
#
#######################################################################
#
# If this CIF has been generated from an entry in the Cambridge 
# Structural Database, then it will include bibliographic, chemical, 
# crystal, experimental, refinement or atomic coordinate data resulting 
# from the CCDC's data processing and validation procedures.
#
#######################################################################

data_MEQDUK
_chemical_formula_moiety         'C20 H37 N2 O2'
_chemical_name_systematic        
'2,2-diethyl-1-oxy-10-methyl-4,7-di-isopropyl-1,4-diazaspiro[5.5]undecan-3-one radical'
_symmetry_cell_setting           orthorhombic
_symmetry_space_group_name_H-M   'P 21 21 21'
_symmetry_Int_Tables_number      19
_space_group_name_Hall           'P 2ac 2ab'
loop_
_symmetry_equiv_pos_site_id
_symmetry_equiv_pos_as_xyz
1 x,y,z
2 1/2-x,-y,1/2+z
3 -x,1/2+y,1/2-z
4 1/2+x,1/2-y,-z
_cell_length_a                   10.0587(2)
_cell_length_b                   11.3486(3)
_cell_length_c                   18.0306(3)
_cell_angle_alpha                90
_cell_angle_beta                 90
_cell_angle_gamma                90
_cell_volume                     2058.23
_exptl_crystal_colour            orange
_exptl_crystal_description       column
_cell_formula_units_Z            4
loop_
_atom_site_label
_atom_site_type_symbol
_atom_site_fract_x
_atom_site_fract_y
_atom_site_fract_z
O1 O 0.65896(19) 0.27957(18) 1.02504(10)
O2 O 0.91430(18) 0.46199(16) 1.20553(8)
N1 N 0.89279(19) 0.44320(16) 1.13640(10)
N2 N 0.82026(19) 0.40445(17) 0.98774(10)
C1 C 0.7581(2) 0.3383(2) 1.03863(12)
C2 C 0.8195(2) 0.33269(19) 1.11676(12)
C3 C 0.9269(2) 0.53395(19) 1.08104(11)
C4 C 0.9407(2) 0.4697(2) 1.00674(12)
H1 H 0.9596 0.5272 0.9676
H2 H 1.0159 0.4149 1.0094
C5 C 0.7765(3) 0.4028(2) 0.90927(13)
H3 H 0.6985 0.3499 0.9056
C6 C 0.7341(3) 0.5239(3) 0.88315(16)
H4 H 0.8111 0.5753 0.8811
H5 H 0.6693 0.5561 0.9174
H6 H 0.6949 0.5178 0.8342
C7 C 0.8862(3) 0.3523(3) 0.86028(15)
H7 H 0.9174 0.2786 0.8812
H8 H 0.9593 0.4079 0.8576
H9 H 0.8515 0.3384 0.8108
C8 C 0.7118(2) 0.3106(2) 1.17476(13)
H10 H 0.6661 0.2368 1.1625
H11 H 0.7546 0.2999 1.2231
C9 C 0.9240(3) 0.2320(2) 1.11706(14)
H12 H 0.9923 0.2503 1.0800
H13 H 0.9675 0.2307 1.1657
C10 C 0.8111(3) 0.6235(2) 1.07628(13)
H14 H 0.8225 0.6713 1.0315
H15 H 0.7274 0.5800 1.0712
C11 C 0.8006(3) 0.7057(2) 1.14326(15)
H16 H 0.7885 0.6570 1.1883
C12 C 0.9293(3) 0.7734(2) 1.15077(16)
H17 H 0.9235 0.8267 1.1934
H18 H 0.9435 0.8212 1.1062
C13 C 1.0467(3) 0.6896(2) 1.16124(15)
H19 H 1.0359 0.6470 1.2082
H20 H 1.1289 0.7356 1.1644
C14 C 1.0590(2) 0.6000(2) 1.09765(12)
H21 H 1.0740 0.6491 1.0531
C15 C 1.1864(2) 0.5234(2) 1.10361(15)
H22 H 1.1754 0.4559 1.0694
C16 C 1.3071(3) 0.5926(4) 1.0778(2)
H23 H 1.3850 0.5422 1.0791
H24 H 1.3208 0.6597 1.1102
H25 H 1.2927 0.6201 1.0274
C17 C 1.2169(3) 0.4739(4) 1.1794(2)
H26 H 1.2347 0.5381 1.2136
H27 H 1.2942 0.4231 1.1764
H28 H 1.1413 0.4289 1.1970
C18 C 0.6799(3) 0.7869(3) 1.13539(19)
H29 H 0.6003 0.7397 1.1292
H30 H 0.6916 0.8373 1.0924
H31 H 0.6715 0.8351 1.1795
C19 C 0.6085(3) 0.4079(3) 1.18153(17)
H32 H 0.5661 0.4201 1.1338
H33 H 0.6516 0.4802 1.1972
H34 H 0.5421 0.3854 1.2179
C20 C 0.8696(4) 0.1097(3) 1.1011(2)
H35 H 0.8283 0.1090 1.0525
H36 H 0.8041 0.0891 1.1384
H37 H 0.9417 0.0530 1.1022
loop_
_geom_bond_atom_site_label_1
_geom_bond_atom_site_label_2
_geom_bond_site_symmetry_1
_geom_bond_site_symmetry_2
O1 C1 1_555 1_555
O2 N1 1_555 1_555
N1 C2 1_555 1_555
N2 C1 1_555 1_555
C1 C2 1_555 1_555
C2 C8 1_555 1_555
C3 N1 1_555 1_555
C4 N2 1_555 1_555
H1 C4 1_555 1_555
H2 C4 1_555 1_555
C5 N2 1_555 1_555
H3 C5 1_555 1_555
C6 C5 1_555 1_555
H4 C6 1_555 1_555
H5 C6 1_555 1_555
H6 C6 1_555 1_555
C7 C5 1_555 1_555
H7 C7 1_555 1_555
H8 C7 1_555 1_555
H9 C7 1_555 1_555
C8 H10 1_555 1_555
H11 C8 1_555 1_555
C9 C2 1_555 1_555
H12 C9 1_555 1_555
H13 C9 1_555 1_555
C10 C3 1_555 1_555
H14 C10 1_555 1_555
H15 C10 1_555 1_555
C11 C10 1_555 1_555
H16 C11 1_555 1_555
C12 C11 1_555 1_555
H17 C12 1_555 1_555
H18 C12 1_555 1_555
C13 C12 1_555 1_555
H19 C13 1_555 1_555
H20 C13 1_555 1_555
C14 C3 1_555 1_555
H21 C14 1_555 1_555
C15 C14 1_555 1_555
H22 C15 1_555 1_555
C16 C15 1_555 1_555
H23 C16 1_555 1_555
H24 C16 1_555 1_555
H25 C16 1_555 1_555
C17 C15 1_555 1_555
H26 C17 1_555 1_555
H27 C17 1_555 1_555
H28 C17 1_555 1_555
C18 C11 1_555 1_555
H29 C18 1_555 1_555
H30 C18 1_555 1_555
H31 C18 1_555 1_555
C19 C8 1_555 1_555
H32 C19 1_555 1_555
H33 C19 1_555 1_555
H34 C19 1_555 1_555
C20 C9 1_555 1_555
H35 C20 1_555 1_555
H36 C20 1_555 1_555
H37 C20 1_555 1_555
C3 C4 1_555 1_555
C13 C14 1_555 1_555

#END
