
#######################################################################
#
#                 Cambridge Crystallographic Data Centre
#                                CCDC 
#
#######################################################################
#
# If this CIF has been generated from an entry in the Cambridge 
# Structural Database, then it will include bibliographic, chemical, 
# crystal, experimental, refinement or atomic coordinate data resulting 
# from the CCDC's data processing and validation procedures.
#
#######################################################################

data_MEQDIY
_chemical_formula_moiety         'C21 H37 N2 O2'
_chemical_name_systematic        
'7-oxy-4-methyl-1,15-di-isopropyl-7,15-diazadispiro[5.1.5^8^.3^6^]hexadecan-14-oxide radical'
_symmetry_cell_setting           orthorhombic
_symmetry_space_group_name_H-M   'P 21 21 21'
_symmetry_Int_Tables_number      19
_space_group_name_Hall           'P 2ac 2ab'
loop_
_symmetry_equiv_pos_site_id
_symmetry_equiv_pos_as_xyz
1 x,y,z
2 1/2-x,-y,1/2+z
3 -x,1/2+y,1/2-z
4 1/2+x,1/2-y,-z
_cell_length_a                   9.4913(3)
_cell_length_b                   11.0657(4)
_cell_length_c                   19.9702(8)
_cell_angle_alpha                90
_cell_angle_beta                 90
_cell_angle_gamma                90
_cell_volume                     2097.43
_exptl_crystal_colour            orange
_exptl_crystal_description       prism
_cell_formula_units_Z            4
loop_
_atom_site_label
_atom_site_type_symbol
_atom_site_fract_x
_atom_site_fract_y
_atom_site_fract_z
N1 N 0.40208(19) 0.86238(14) 0.84764(10)
O1 O 0.4649(12) 0.9542(5) 0.8251(5)
N2 N 0.27271(16) 0.66831(15) 0.91296(9)
C1 C 0.2090(2) 0.7765(2) 0.91845(11)
O2 O 0.0915(5) 0.7807(17) 0.9482(10)
C2 C 0.40914(19) 0.65563(17) 0.88009(9)
H1 H 0.4208 0.5720 0.8650
H2 H 0.4842 0.6732 0.9124
C3 C 0.42308(19) 0.74048(15) 0.82026(9)
C4 C 0.2880(2) 0.88934(19) 0.89606(12)
C5 C 0.3699(5) 0.9497(5) 0.9530(2)
H3 H 0.4196 0.8882 0.9792
H4 H 0.4400 1.0054 0.9344
C6 C 0.2690(5) 1.0180(4) 0.99757(19)
H5 H 0.1991 0.9620 1.0160
H6 H 0.3210 1.0538 1.0351
C7 C 0.1953(7) 1.1160(5) 0.9592(4)
H7 H 0.2651 1.1728 0.9414
H8 H 0.1326 1.1606 0.9893
C8 C 0.1110(5) 1.0641(4) 0.9024(2)
H9 H 0.0682 1.1302 0.8768
H10 H 0.0347 1.0142 0.9206
C9 C 0.2018(5) 0.9871(4) 0.8555(2)
H11 H 0.2673 1.0395 0.8310
H12 H 0.1413 0.9465 0.8227
C10 C 0.2061(2) 0.5597(2) 0.94132(13)
H13 H 0.1239 0.5868 0.9679
C11 C 0.3057(4) 0.4961(3) 0.98890(16)
H14 H 0.2550 0.4337 1.0131
H15 H 0.3439 0.5541 1.0205
H16 H 0.3821 0.4597 0.9637
C12 C 0.1517(3) 0.4763(2) 0.88760(17)
H17 H 0.2305 0.4419 0.8632
H18 H 0.0923 0.5213 0.8570
H19 H 0.0973 0.4118 0.9080
C13 C 0.56971(19) 0.72548(18) 0.78733(10)
H20 H 0.5758 0.6384 0.7764
C14 C 0.5824(3) 0.7899(2) 0.71919(12)
H21 H 0.5860 0.8774 0.7266
H22 H 0.6708 0.7656 0.6977
C15 C 0.4601(3) 0.7608(2) 0.67260(12)
H23 H 0.4693 0.8091 0.6317
H24 H 0.4650 0.6754 0.6599
C16 C 0.3188(2) 0.7858(2) 0.70401(12)
H25 H 0.3139 0.8728 0.7154
C17 C 0.1940(7) 0.7552(5) 0.6585(3)
H26 H 0.1924 0.6688 0.6501
H27 H 0.2037 0.7981 0.6164
H28 H 0.1069 0.7791 0.6802
C18 C 0.3069(2) 0.71315(17) 0.76852(10)
H29 H 0.3101 0.6269 0.7574
H30 H 0.2150 0.7296 0.7890
C19 C 0.6980(2) 0.7491(2) 0.83405(11)
H31 H 0.6604 0.7670 0.8792
C20 C 0.7922(7) 0.8568(6) 0.8132(4)
H32 H 0.8321 0.8414 0.7693
H33 H 0.8677 0.8666 0.8455
H34 H 0.7360 0.9300 0.8117
C21 C 0.7888(6) 0.6389(5) 0.8400(3)
H35 H 0.8649 0.6547 0.8712
H36 H 0.8276 0.6190 0.7965
H37 H 0.7326 0.5718 0.8562
O3? O 0.4890(12) 0.9438(13) 0.8154(8)
O4? O 0.0946(15) 0.8069(17) 0.9319(10)
C22? C 0.3277(10) 0.9273(8) 0.9744(4)
H38? H 0.2457 0.9160 1.0036
H39? H 0.4049 0.8768 0.9912
C23? C 0.3715(8) 1.0589(6) 0.9735(4)
H40? H 0.4018 1.0828 1.0185
H41? H 0.4519 1.0688 0.9432
C24? C 0.2532(12) 1.1410(11) 0.9510(6)
H42? H 0.2878 1.2242 0.9472
H43? H 0.1770 1.1397 0.9841
C25? C 0.1982(10) 1.0982(7) 0.8835(5)
H44? H 0.1168 1.1479 0.8710
H45? H 0.2715 1.1111 0.8497
C26? C 0.1550(8) 0.9669(7) 0.8823(5)
H46? H 0.1151 0.9463 0.8385
H47? H 0.0835 0.9515 0.9167
H48? H 0.3207 0.8718 0.7177
C27? C 0.223(10) 0.780(11) 0.642(4)
H49? H 0.2081 0.6960 0.6297
H50? H 0.2680 0.8220 0.6051
H51? H 0.1335 0.8175 0.6520
H52? H 0.6705 0.7155 0.8781
C28? C 0.743(3) 0.8761(14) 0.8479(14)
H53? H 0.7519 0.9198 0.8059
H54? H 0.8335 0.8755 0.8706
H55? H 0.6737 0.9155 0.8760
C29? C 0.8199(17) 0.6693(19) 0.8098(13)
H56? H 0.7848 0.5891 0.7997
H57? H 0.8911 0.6641 0.8445
H58? H 0.8610 0.7044 0.7698
loop_
_geom_bond_atom_site_label_1
_geom_bond_atom_site_label_2
_geom_bond_site_symmetry_1
_geom_bond_site_symmetry_2
N1 O1 1_555 1_555
N2 C1 1_555 1_555
C1 O2 1_555 1_555
C2 N2 1_555 1_555
H1 C2 1_555 1_555
H2 C2 1_555 1_555
C3 N1 1_555 1_555
C4 N1 1_555 1_555
C5 C4 1_555 1_555
H3 C5 1_555 1_555
H4 C5 1_555 1_555
C6 C5 1_555 1_555
H5 C6 1_555 1_555
H6 C6 1_555 1_555
C7 C6 1_555 1_555
H7 C7 1_555 1_555
H8 C7 1_555 1_555
C8 C7 1_555 1_555
H9 C8 1_555 1_555
H10 C8 1_555 1_555
C9 C4 1_555 1_555
H11 C9 1_555 1_555
H12 C9 1_555 1_555
C10 N2 1_555 1_555
H13 C10 1_555 1_555
C11 C10 1_555 1_555
H14 C11 1_555 1_555
H15 C11 1_555 1_555
H16 C11 1_555 1_555
C12 C10 1_555 1_555
H17 C12 1_555 1_555
H18 C12 1_555 1_555
H19 C12 1_555 1_555
C13 C3 1_555 1_555
H20 C13 1_555 1_555
C14 C13 1_555 1_555
H21 C14 1_555 1_555
H22 C14 1_555 1_555
C15 C14 1_555 1_555
H23 C15 1_555 1_555
H24 C15 1_555 1_555
C16 C15 1_555 1_555
H25 C16 1_555 1_555
C17 C16 1_555 1_555
H26 C17 1_555 1_555
H27 C17 1_555 1_555
H28 C17 1_555 1_555
C18 C3 1_555 1_555
H29 C18 1_555 1_555
H30 C18 1_555 1_555
C19 C13 1_555 1_555
H31 C19 1_555 1_555
C20 C19 1_555 1_555
H32 C20 1_555 1_555
H33 C20 1_555 1_555
H34 C20 1_555 1_555
C21 C19 1_555 1_555
H35 C21 1_555 1_555
H36 C21 1_555 1_555
H37 C21 1_555 1_555
C1 C4 1_555 1_555
C2 C3 1_555 1_555
C8 C9 1_555 1_555
C16 C18 1_555 1_555

#END
