
#######################################################################
#
#                 Cambridge Crystallographic Data Centre
#                                CCDC 
#
#######################################################################
#
# If this CIF has been generated from an entry in the Cambridge 
# Structural Database, then it will include bibliographic, chemical, 
# crystal, experimental, refinement or atomic coordinate data resulting 
# from the CCDC's data processing and validation procedures.
#
#######################################################################

data_MEQDOE
_chemical_formula_moiety         'C18 H33 N2 O2'
_chemical_name_systematic        
'1-oxy-2,2,10-trimethyl-4,7-di-isopropyl-1,4-diazaspiro[5.5]undecan-3-one radical'
_symmetry_cell_setting           trigonal
_symmetry_space_group_name_H-M   'P 32'
_symmetry_Int_Tables_number      145
_space_group_name_Hall           'P 32'
loop_
_symmetry_equiv_pos_site_id
_symmetry_equiv_pos_as_xyz
1 x,y,z
2 -y,x-y,2/3+z
3 -x+y,-x,1/3+z
_cell_length_a                   15.9280(3)
_cell_length_b                   15.9280(3)
_cell_length_c                   19.3644(6)
_cell_angle_alpha                90
_cell_angle_beta                 90
_cell_angle_gamma                120
_cell_volume                     4254.58
_exptl_crystal_colour            orange
_exptl_crystal_description       plate
_cell_formula_units_Z            9
loop_
_atom_site_label
_atom_site_type_symbol
_atom_site_fract_x
_atom_site_fract_y
_atom_site_fract_z
N1 N 0.0820(2) 0.0434(3) 0.04606(18)
N2 N 0.2151(2) 0.0947(3) 0.15615(17)
O1 O 0.0241(2) 0.0223(3) -0.00553(17)
O2 O 0.3269(2) 0.2229(2) 0.09451(17)
C1 C 0.1852(3) 0.1109(3) 0.0323(2)
C2 C 0.2472(3) 0.1472(3) 0.0980(2)
C3 C 0.1207(3) 0.0076(3) 0.1591(2)
H1 H 0.0993 -0.0051 0.2074
H2 H 0.1267 -0.0473 0.1427
C4 C 0.0434(3) 0.0139(3) 0.1163(2)
C5 C 0.1919(4) 0.1962(3) -0.0070(3)
H3 H 0.1578 0.1740 -0.0506
H4 H 0.2595 0.2432 -0.0157
H5 H 0.1628 0.2262 0.0202
C6 C 0.2256(4) 0.0578(5) -0.0102(3)
H6 H 0.2139 -0.0003 0.0140
H7 H 0.2947 0.1000 -0.0168
H8 H 0.1936 0.0403 -0.0548
C7 C 0.2772(3) 0.1285(3) 0.2195(2)
H9 H 0.3452 0.1707 0.2047
C8 C 0.2716(4) 0.0433(4) 0.2601(3)
H10 H 0.3184 0.0678 0.2975
H11 H 0.2860 0.0038 0.2295
H12 H 0.2069 0.0042 0.2789
C9 C 0.2479(4) 0.1889(4) 0.2625(3)
H13 H 0.2520 0.2414 0.2346
H14 H 0.2910 0.2155 0.3018
H15 H 0.1818 0.1485 0.2786
C10 C 0.0274(3) 0.0941(4) 0.1474(2)
H16 H 0.0193 0.0840 0.1974
H17 H 0.0863 0.1567 0.1397
C11 C -0.0570(4) 0.1008(5) 0.1202(4)
H18 H -0.0476 0.1131 0.0699
C12 C -0.1479(4) 0.0029(6) 0.1308(4)
H19 H -0.1585 -0.0106 0.1804
H20 H -0.2039 0.0052 0.1122
C13 C -0.1408(3) -0.0783(5) 0.0960(3)
H21 H -0.1394 -0.0692 0.0459
H22 H -0.1992 -0.1399 0.1070
C14 C -0.0500(3) -0.0852(3) 0.1176(3)
H23 H -0.0605 -0.1030 0.1671
C15 C -0.0414(5) -0.1685(4) 0.0830(3)
H24 H 0.0281 -0.1419 0.0721
C16 C -0.0961(11) -0.2068(8) 0.0153(5)
H25 H -0.0768 -0.2494 -0.0063
H26 H -0.0811 -0.1528 -0.0153
H27 H -0.1653 -0.2424 0.0243
C17 C -0.0685(8) -0.2507(5) 0.1321(5)
H28 H -0.1371 -0.2812 0.1428
H29 H -0.0311 -0.2263 0.1742
H30 H -0.0550 -0.2980 0.1111
C18 C -0.0647(6) 0.1825(6) 0.1525(4)
H31 H -0.0283 0.2016 0.1953
H32 H -0.1322 0.1613 0.1618
H33 H -0.0385 0.2372 0.1210
N3 N 0.6364(2) 0.3844(2) 0.14287(16)
N4 N 0.5651(3) 0.4459(2) 0.03208(17)
O3 O 0.6753(3) 0.3641(3) 0.19344(16)
O4 O 0.5863(3) 0.5750(2) 0.09518(19)
C19 C 0.6039(3) 0.4552(3) 0.1566(2)
C20 C 0.5858(3) 0.4976(3) 0.0905(2)
C21 C 0.5608(3) 0.3523(3) 0.0312(2)
H34 H 0.5643 0.3346 -0.0167
H35 H 0.4982 0.3030 0.0501
C22 C 0.6409(3) 0.3511(3) 0.07212(19)
C23 C 0.5086(3) 0.4037(4) 0.1960(3)
H36 H 0.4586 0.3557 0.1663
H37 H 0.4903 0.4506 0.2104
H38 H 0.5162 0.3720 0.2363
C24 C 0.6821(4) 0.5369(3) 0.2000(3)
H39 H 0.6945 0.5099 0.2410
H40 H 0.6602 0.5815 0.2133
H41 H 0.7412 0.5712 0.1731
C25 C 0.5439(4) 0.4838(4) -0.0306(2)
H42 H 0.5216 0.5291 -0.0161
C26 C 0.6339(5) 0.5401(4) -0.0740(3)
H43 H 0.6839 0.5920 -0.0466
H44 H 0.6189 0.5673 -0.1137
H45 H 0.6567 0.4971 -0.0895
C27 C 0.4619(4) 0.4021(4) -0.0727(3)
H46 H 0.4817 0.3564 -0.0874
H47 H 0.4480 0.4294 -0.1129
H48 H 0.4042 0.3689 -0.0443
C28 C 0.7398(3) 0.4213(3) 0.0402(2)
H49 H 0.7352 0.4110 -0.0098
H50 H 0.7532 0.4876 0.0484
C29 C 0.8250(3) 0.4138(4) 0.0662(2)
H51 H 0.8312 0.4272 0.1164
C30 C 0.8039(3) 0.3118(4) 0.0560(3)
H52 H 0.8588 0.3062 0.0730
H53 H 0.7970 0.2970 0.0065
C31 C 0.7116(3) 0.2376(4) 0.0933(3)
H54 H 0.6993 0.1721 0.0832
H55 H 0.7208 0.2480 0.1433
C32 C 0.6243(3) 0.2461(3) 0.0710(2)
H56 H 0.6152 0.2276 0.0216
C33 C 0.5295(3) 0.1686(3) 0.1067(3)
H57 H 0.4852 0.1953 0.1089
C34 C 0.5405(5) 0.1409(5) 0.1796(3)
H58 H 0.4769 0.0996 0.1995
H59 H 0.5755 0.1991 0.2074
H60 H 0.5763 0.1063 0.1786
C35 C 0.4802(6) 0.0775(5) 0.0639(4)
H61 H 0.5267 0.0575 0.0518
H62 H 0.4546 0.0899 0.0220
H63 H 0.4275 0.0265 0.0901
C36 C 0.9180(4) 0.4876(5) 0.0324(3)
H64 H 0.9702 0.4768 0.0467
H65 H 0.9329 0.5522 0.0460
H66 H 0.9109 0.4813 -0.0174
O5 O 0.3485(2) 0.6542(2) 0.31712(15)
O6 O 0.3130(3) 0.3745(2) 0.41306(17)
N5 N 0.3155(2) 0.5940(2) 0.36713(16)
N6 N 0.2592(2) 0.4588(2) 0.47594(16)
C37 C 0.2925(3) 0.4935(3) 0.3516(2)
C38 C 0.2901(3) 0.4384(3) 0.4169(2)
C39 C 0.2417(3) 0.5402(3) 0.4789(2)
H67 H 0.2425 0.5589 0.5272
H68 H 0.1772 0.5200 0.4602
C40 C 0.3178(3) 0.6284(3) 0.43816(18)
C41 C 0.3703(3) 0.4983(3) 0.3033(2)
H69 H 0.3685 0.5279 0.2600
H70 H 0.3585 0.4333 0.2946
H71 H 0.4336 0.5367 0.3244
C42 C 0.1923(3) 0.4397(3) 0.3182(3)
H72 H 0.1436 0.4327 0.3515
H73 H 0.1790 0.3762 0.3032
H74 H 0.1905 0.4763 0.2787
C43 C 0.2466(4) 0.4008(3) 0.5385(2)
H75 H 0.2432 0.3396 0.5238
C44 C 0.1504(4) 0.3746(4) 0.5732(3)
H76 H 0.1516 0.4334 0.5880
H77 H 0.1406 0.3337 0.6129
H78 H 0.0978 0.3402 0.5406
C45 C 0.3309(4) 0.4517(4) 0.5867(3)
H79 H 0.3903 0.4677 0.5624
H80 H 0.3227 0.4096 0.6254
H81 H 0.3342 0.5106 0.6035
C46 C 0.4191(3) 0.6616(3) 0.4693(2)
H82 H 0.4155 0.6674 0.5195
H83 H 0.4359 0.6112 0.4606
C47 C 0.4989(3) 0.7559(3) 0.4418(2)
H84 H 0.5023 0.7501 0.3911
C48 C 0.4724(3) 0.8335(3) 0.4570(3)
H85 H 0.4658 0.8380 0.5070
H86 H 0.5244 0.8965 0.4407
C49 C 0.3777(3) 0.8102(3) 0.4217(2)
H87 H 0.3864 0.8114 0.3715
H88 H 0.3616 0.8603 0.4335
C50 C 0.2939(3) 0.7112(3) 0.4429(2)
H89 H 0.2856 0.7177 0.4929
C51 C 0.1953(3) 0.6887(4) 0.4104(3)
H90 H 0.1523 0.6174 0.4105
C52 C 0.2006(5) 0.7234(7) 0.3373(3)
H91 H 0.1357 0.7032 0.3208
H92 H 0.2300 0.6958 0.3080
H93 H 0.2394 0.7935 0.3360
C53 C 0.5965(3) 0.7808(4) 0.4727(3)
H94 H 0.6067 0.7261 0.4674
H95 H 0.5973 0.7957 0.5213
H96 H 0.6476 0.8367 0.4490
C54 C 0.1473(5) 0.7312(7) 0.4521(4)
H97 H 0.1390 0.7074 0.4992
H98 H 0.0845 0.7127 0.4324
H99 H 0.1873 0.8013 0.4521
loop_
_geom_bond_atom_site_label_1
_geom_bond_atom_site_label_2
_geom_bond_site_symmetry_1
_geom_bond_site_symmetry_2
N1 O1 1_555 1_555
N2 C2 1_555 1_555
O2 C2 1_555 1_555
C1 N1 1_555 1_555
C2 C1 1_555 1_555
C3 N2 1_555 1_555
H1 C3 1_555 1_555
H2 C3 1_555 1_555
C4 N1 1_555 1_555
C5 C1 1_555 1_555
H3 C5 1_555 1_555
H4 C5 1_555 1_555
H5 C5 1_555 1_555
C6 C1 1_555 1_555
H6 C6 1_555 1_555
H7 C6 1_555 1_555
H8 C6 1_555 1_555
C7 N2 1_555 1_555
H9 C7 1_555 1_555
C8 C7 1_555 1_555
H10 C8 1_555 1_555
H11 C8 1_555 1_555
H12 C8 1_555 1_555
C9 C7 1_555 1_555
H13 C9 1_555 1_555
H14 C9 1_555 1_555
H15 C9 1_555 1_555
C10 C4 1_555 1_555
H16 C10 1_555 1_555
H17 C10 1_555 1_555
C11 C10 1_555 1_555
H18 C11 1_555 1_555
C12 C11 1_555 1_555
H19 C12 1_555 1_555
H20 C12 1_555 1_555
C13 C12 1_555 1_555
H21 C13 1_555 1_555
H22 C13 1_555 1_555
C14 C4 1_555 1_555
H23 C14 1_555 1_555
C15 C14 1_555 1_555
H24 C15 1_555 1_555
C16 C15 1_555 1_555
H25 C16 1_555 1_555
H26 C16 1_555 1_555
H27 C16 1_555 1_555
C17 C15 1_555 1_555
H28 C17 1_555 1_555
H29 C17 1_555 1_555
H30 C17 1_555 1_555
C18 C11 1_555 1_555
H31 C18 1_555 1_555
H32 C18 1_555 1_555
H33 C18 1_555 1_555
N3 O3 1_555 1_555
N4 C20 1_555 1_555
O4 C20 1_555 1_555
C19 N3 1_555 1_555
C20 C19 1_555 1_555
C21 N4 1_555 1_555
H34 C21 1_555 1_555
H35 C21 1_555 1_555
C22 N3 1_555 1_555
C23 C19 1_555 1_555
H36 C23 1_555 1_555
H37 C23 1_555 1_555
H38 C23 1_555 1_555
C24 C19 1_555 1_555
H39 C24 1_555 1_555
H40 C24 1_555 1_555
H41 C24 1_555 1_555
C25 N4 1_555 1_555
H42 C25 1_555 1_555
C26 C25 1_555 1_555
H43 C26 1_555 1_555
H44 C26 1_555 1_555
H45 C26 1_555 1_555
C27 C25 1_555 1_555
H46 C27 1_555 1_555
H47 C27 1_555 1_555
H48 C27 1_555 1_555
C28 C22 1_555 1_555
H49 C28 1_555 1_555
H50 C28 1_555 1_555
C29 C28 1_555 1_555
H51 C29 1_555 1_555
C30 C29 1_555 1_555
H52 C30 1_555 1_555
H53 C30 1_555 1_555
C31 C30 1_555 1_555
H54 C31 1_555 1_555
H55 C31 1_555 1_555
C32 C22 1_555 1_555
H56 C32 1_555 1_555
C33 C32 1_555 1_555
H57 C33 1_555 1_555
C34 C33 1_555 1_555
H58 C34 1_555 1_555
H59 C34 1_555 1_555
H60 C34 1_555 1_555
C35 C33 1_555 1_555
H61 C35 1_555 1_555
H62 C35 1_555 1_555
H63 C35 1_555 1_555
C36 C29 1_555 1_555
H64 C36 1_555 1_555
H65 C36 1_555 1_555
H66 C36 1_555 1_555
O5 N5 1_555 1_555
O6 C38 1_555 1_555
N5 C37 1_555 1_555
N6 C38 1_555 1_555
C37 C38 1_555 1_555
C39 N6 1_555 1_555
H67 C39 1_555 1_555
H68 C39 1_555 1_555
C40 N5 1_555 1_555
C41 C37 1_555 1_555
H69 C41 1_555 1_555
H70 C41 1_555 1_555
H71 C41 1_555 1_555
C42 C37 1_555 1_555
H72 C42 1_555 1_555
H73 C42 1_555 1_555
H74 C42 1_555 1_555
C43 N6 1_555 1_555
H75 C43 1_555 1_555
C44 C43 1_555 1_555
H76 C44 1_555 1_555
H77 C44 1_555 1_555
H78 C44 1_555 1_555
C45 C43 1_555 1_555
H79 C45 1_555 1_555
H80 C45 1_555 1_555
H81 C45 1_555 1_555
C46 C40 1_555 1_555
H82 C46 1_555 1_555
H83 C46 1_555 1_555
C47 C46 1_555 1_555
H84 C47 1_555 1_555
C48 C47 1_555 1_555
H85 C48 1_555 1_555
H86 C48 1_555 1_555
C49 C48 1_555 1_555
H87 C49 1_555 1_555
H88 C49 1_555 1_555
C50 C40 1_555 1_555
H89 C50 1_555 1_555
C51 C50 1_555 1_555
H90 C51 1_555 1_555
C52 C51 1_555 1_555
H91 C52 1_555 1_555
H92 C52 1_555 1_555
H93 C52 1_555 1_555
C53 C47 1_555 1_555
H94 C53 1_555 1_555
H95 C53 1_555 1_555
H96 C53 1_555 1_555
C54 C51 1_555 1_555
H97 C54 1_555 1_555
H98 C54 1_555 1_555
H99 C54 1_555 1_555
C3 C4 1_555 1_555
C13 C14 1_555 1_555
C21 C22 1_555 1_555
C31 C32 1_555 1_555
C39 C40 1_555 1_555
C49 C50 1_555 1_555

#END
