
#######################################################################
#
#                 Cambridge Crystallographic Data Centre
#                                CCDC 
#
#######################################################################
#
# If this CIF has been generated from an entry in the Cambridge 
# Structural Database, then it will include bibliographic, chemical, 
# crystal, experimental, refinement or atomic coordinate data resulting 
# from the CCDC's data processing and validation procedures.
#
#######################################################################

data_MEQFOD
_chemical_formula_moiety         'C18 H31 N1 O2 Si2'
_chemical_name_systematic        
5-methyl-2a,8b-bis(trimethylsilyloxy)-1,2,2a,3,4,8b-hexahydrocyclobuta[c]quinoline
_symmetry_cell_setting           monoclinic
_symmetry_space_group_name_H-M   'P 21/a'
_symmetry_Int_Tables_number      14
_space_group_name_Hall           '-P 2yab'
loop_
_symmetry_equiv_pos_site_id
_symmetry_equiv_pos_as_xyz
1 x,y,z
2 1/2-x,1/2+y,-z
3 -x,-y,-z
4 1/2+x,1/2-y,z
_cell_length_a                   16.440(4)
_cell_length_b                   13.532(6)
_cell_length_c                   9.417(3)
_cell_angle_alpha                90
_cell_angle_beta                 90.09(2)
_cell_angle_gamma                90
_cell_volume                     2094.96
_cell_formula_units_Z            4
loop_
_atom_site_label
_atom_site_type_symbol
_atom_site_fract_x
_atom_site_fract_y
_atom_site_fract_z
Si1 Si 0.3964(1) 0.3668(1) 0.2038(1)
Si2 Si 0.3992(1) 0.1801(1) 0.6240(1)
O1 O 0.3448(1) 0.3071(2) 0.3252(2)
O2 O 0.3141(1) 0.1716(1) 0.5320(2)
N1 N 0.2090(2) 0.4460(2) 0.5562(3)
C1 C 0.1899(2) 0.2015(2) 0.3947(3)
C2 C 0.1949(2) 0.2997(3) 0.3148(4)
C3 C 0.2721(2) 0.3272(2) 0.3960(3)
C4 C 0.2760(2) 0.4299(2) 0.4621(3)
C5 C 0.1924(2) 0.3776(2) 0.6605(3)
C6 C 0.1532(2) 0.4065(2) 0.7867(3)
C7 C 0.1337(2) 0.3359(3) 0.8857(4)
C8 C 0.1524(2) 0.2376(3) 0.8648(4)
C9 C 0.1912(2) 0.2104(2) 0.7424(4)
C10 C 0.2125(2) 0.2783(2) 0.6399(3)
C11 C 0.2518(2) 0.2417(2) 0.5043(3)
C12 C 0.1326(3) 0.5141(3) 0.8130(4)
C13 C 0.3301(2) 0.4297(3) 0.0737(4)
C14 C 0.4591(3) 0.2718(3) 0.1151(4)
C15 C 0.4636(3) 0.4597(3) 0.2874(5)
C16 C 0.4175(3) 0.3030(3) 0.7020(5)
C17 C 0.3955(2) 0.0863(3) 0.7653(4)
C18 C 0.4840(2) 0.1496(4) 0.5034(5)
H1 H 0.1793 0.4980 0.5476
H2 H 0.2097 0.1455 0.3407
H3 H 0.1366 0.1880 0.4343
H4 H 0.2033 0.2920 0.2135
H5 H 0.1495 0.3435 0.3336
H6 H 0.3266 0.4370 0.5142
H7 H 0.2751 0.4793 0.3875
H8 H 0.1073 0.3548 0.9686
H9 H 0.1388 0.1905 0.9328
H10 H 0.2036 0.1441 0.7279
H11 H 0.1819 0.5512 0.8249
H12 H 0.1002 0.5195 0.8974
H13 H 0.1027 0.5397 0.7335
H14 H 0.2988 0.3814 0.0228
H15 H 0.3630 0.4664 0.0082
H16 H 0.2941 0.4739 0.1226
H17 H 0.4952 0.2422 0.1831
H18 H 0.4904 0.3020 0.0409
H19 H 0.4244 0.2220 0.0752
H20 H 0.4317 0.5150 0.3185
H21 H 0.5032 0.4816 0.2196
H22 H 0.4908 0.4307 0.3675
H23 H 0.4139 0.3524 0.6291
H24 H 0.4708 0.3047 0.7439
H25 H 0.3775 0.3159 0.7737
H26 H 0.3508 0.1003 0.8276
H27 H 0.4454 0.0877 0.8183
H28 H 0.3883 0.0221 0.7238
H29 H 0.4780 0.0830 0.4701
H30 H 0.5346 0.1560 0.5535
H31 H 0.4834 0.1941 0.4240
loop_
_geom_bond_atom_site_label_1
_geom_bond_atom_site_label_2
_geom_bond_site_symmetry_1
_geom_bond_site_symmetry_2
Si1 O1 1_555 1_555
Si2 O2 1_555 1_555
O1 C3 1_555 1_555
O2 C11 1_555 1_555
N1 C4 1_555 1_555
C1 C2 1_555 1_555
C2 C3 1_555 1_555
C3 C4 1_555 1_555
C4 H6 1_555 1_555
C5 N1 1_555 1_555
C6 C5 1_555 1_555
C7 C6 1_555 1_555
C8 C7 1_555 1_555
C9 C8 1_555 1_555
C10 C5 1_555 1_555
C11 C1 1_555 1_555
C12 C6 1_555 1_555
C13 Si1 1_555 1_555
C14 Si1 1_555 1_555
C15 Si1 1_555 1_555
C16 Si2 1_555 1_555
C17 Si2 1_555 1_555
C18 Si2 1_555 1_555
H1 N1 1_555 1_555
H2 C1 1_555 1_555
H3 C1 1_555 1_555
H4 C2 1_555 1_555
H5 C2 1_555 1_555
H7 C4 1_555 1_555
H8 C7 1_555 1_555
H9 C8 1_555 1_555
H10 C9 1_555 1_555
H11 C12 1_555 1_555
H12 C12 1_555 1_555
H13 C12 1_555 1_555
H14 C13 1_555 1_555
H15 C13 1_555 1_555
H16 C13 1_555 1_555
H17 C14 1_555 1_555
H18 C14 1_555 1_555
H19 C14 1_555 1_555
H20 C15 1_555 1_555
H21 C15 1_555 1_555
H22 C15 1_555 1_555
H23 C16 1_555 1_555
H24 C16 1_555 1_555
H25 C16 1_555 1_555
H26 C17 1_555 1_555
H27 C17 1_555 1_555
H28 C17 1_555 1_555
H29 C18 1_555 1_555
H30 C18 1_555 1_555
H31 C18 1_555 1_555
C3 C11 1_555 1_555
C9 C10 1_555 1_555
C10 C11 1_555 1_555

#END
