
#######################################################################
#
#                 Cambridge Crystallographic Data Centre
#                                CCDC 
#
#######################################################################
#
# If this CIF has been generated from an entry in the Cambridge 
# Structural Database, then it will include bibliographic, chemical, 
# crystal, experimental, refinement or atomic coordinate data resulting 
# from the CCDC's data processing and validation procedures.
#
#######################################################################

data_MEQFEW
_chemical_formula_moiety         'C24 H44 N2 O4'
_chemical_name_systematic        
'methyl 2-{[2,2-diethyl-10-methyl-3-oxo-4,7-di-isopropyl-1,4-diazaspiro[5.5]undecan-1-yl]oxy}propanoate'
_symmetry_cell_setting           monoclinic
_symmetry_space_group_name_H-M   'P 21'
_symmetry_Int_Tables_number      4
_space_group_name_Hall           'P 2yb'
loop_
_symmetry_equiv_pos_site_id
_symmetry_equiv_pos_as_xyz
1 x,y,z
2 -x,1/2+y,-z
_cell_length_a                   9.3970(3)
_cell_length_b                   16.9654(5)
_cell_length_c                   15.9480(5)
_cell_angle_alpha                90
_cell_angle_beta                 99.085(2)
_cell_angle_gamma                90
_cell_volume                     2510.6
_exptl_crystal_colour            colorless
_exptl_crystal_description       prism
_cell_formula_units_Z            4
loop_
_atom_site_label
_atom_site_type_symbol
_atom_site_fract_x
_atom_site_fract_y
_atom_site_fract_z
N1 N 0.20434(17) 0.42562(9) -0.12078(10)
N2 N 0.05171(16) 0.51026(9) -0.00537(9)
O1 O 0.36490(15) 0.52492(9) -0.11972(10)
O2 O 0.07213(13) 0.54429(8) 0.07889(8)
O3 O -0.09046(16) 0.69684(9) 0.01425(11)
O4 O -0.25806(16) 0.60211(9) -0.00427(11)
C1 C 0.2539(2) 0.49859(11) -0.09948(12)
C2 C 0.1529(2) 0.55287(11) -0.05698(12)
C3 C 0.07014(18) 0.42315(10) 0.00104(11)
C4 C 0.07578(19) 0.39769(11) -0.09064(11)
H1 H 0.0727 0.3400 -0.0940
H2 H -0.0093 0.4182 -0.1277
C5 C 0.2714(2) 0.37585(12) -0.17971(13)
H3 H 0.3500 0.4068 -0.1985
C6 C 0.1629(3) 0.35683(16) -0.25760(13)
H4 H 0.1239 0.4054 -0.2839
H5 H 0.0853 0.3255 -0.2412
H6 H 0.2097 0.3273 -0.2976
C7 C 0.3379(2) 0.30174(14) -0.13637(16)
H7 H 0.2624 0.2687 -0.1202
H8 H 0.4049 0.3162 -0.0861
H9 H 0.3887 0.2731 -0.1752
C8 C 0.2424(2) 0.61870(12) -0.00857(13)
H10 H 0.2851 0.6501 -0.0498
H11 H 0.1765 0.6533 0.0161
C9 C 0.3627(2) 0.59440(16) 0.06197(15)
H12 H 0.4266 0.5577 0.0397
H13 H 0.3217 0.5693 0.1073
H14 H 0.4167 0.6407 0.0840
C10 C 0.1130(3) 0.62825(18) -0.20362(16)
H15 H 0.1695 0.5896 -0.2289
H16 H 0.1747 0.6716 -0.1809
H17 H 0.0366 0.6480 -0.2465
C11 C 0.0477(2) 0.58993(13) -0.13245(12)
H18 H -0.0181 0.5484 -0.1575
H19 H -0.0106 0.6297 -0.1090
C12 C -0.06250(19) 0.37893(11) 0.02778(11)
H20 H -0.0474 0.3233 0.0126
C13 C -0.0612(2) 0.37626(13) 0.12383(13)
H21 H -0.0754 0.4296 0.1445
H22 H -0.1414 0.3435 0.1359
C14 C 0.0795(3) 0.34316(14) 0.17088(13)
H23 H 0.0765 0.3434 0.2320
H24 H 0.0902 0.2884 0.1534
C15 C 0.2084(2) 0.39076(13) 0.15329(12)
H25 H 0.1994 0.4450 0.1748
C16 C 0.2099(2) 0.39499(12) 0.05792(12)
H26 H 0.2334 0.3424 0.0386
H27 H 0.2883 0.4304 0.0484
C17 C -0.2104(2) 0.40127(12) -0.02844(13)
H28 H -0.1965 0.4521 -0.0565
C18 C -0.3373(2) 0.41146(16) 0.01988(16)
H29 H -0.3544 0.3623 0.0478
H30 H -0.4228 0.4259 -0.0196
H31 H -0.3152 0.4527 0.0621
C19 C -0.2560(2) 0.34041(14) -0.09846(14)
H32 H -0.3418 0.3588 -0.1352
H33 H -0.2764 0.2906 -0.0730
H34 H -0.1788 0.3333 -0.1315
C20 C 0.3501(3) 0.35573(17) 0.19791(16)
H35 H 0.3585 0.3017 0.1795
H36 H 0.3516 0.3569 0.2589
H37 H 0.4301 0.3864 0.1837
C21 C -0.0570(2) 0.57835(12) 0.09992(13)
H38 H -0.1236 0.5357 0.1107
C22 C -0.0092(3) 0.62288(15) 0.18113(15)
H39 H 0.0546 0.6654 0.1706
H40 H 0.0414 0.5874 0.2234
H41 H -0.0929 0.6445 0.2017
C23 C -0.1337(2) 0.63284(12) 0.03112(14)
C24 C -0.3427(3) 0.64788(17) -0.0707(2)
H42 H -0.2846 0.6604 -0.1141
H43 H -0.3739 0.6963 -0.0468
H44 H -0.4264 0.6176 -0.0957
N3 N 0.34121(17) 0.06961(10) 0.61946(9)
N4 N 0.50957(17) 0.14008(9) 0.50479(9)
O5 O 0.21279(17) 0.18085(9) 0.62624(10)
O6 O 0.50606(13) 0.16990(8) 0.41919(8)
O7 O 0.65825(18) 0.32308(9) 0.46873(11)
O8 O 0.83720(16) 0.23684(10) 0.50465(11)
C25 C 0.3109(2) 0.14535(12) 0.59978(12)
C26 C 0.4089(2) 0.19072(11) 0.54807(12)
C27 C 0.48079(19) 0.05357(11) 0.50133(11)
C28 C 0.46782(19) 0.03306(11) 0.59327(11)
H45 H 0.4614 -0.0243 0.5990
H46 H 0.5545 0.0510 0.6308
C29 C 0.2691(2) 0.03119(13) 0.68442(12)
H47 H 0.1777 0.0598 0.6857
C30 C 0.3602(3) 0.0415(2) 0.77031(14)
H48 H 0.3700 0.0973 0.7836
H49 H 0.4548 0.0189 0.7696
H50 H 0.3145 0.0151 0.8130
C31 C 0.2308(3) -0.05309(15) 0.66352(17)
H51 H 0.3180 -0.0846 0.6699
H52 H 0.1815 -0.0566 0.6054
H53 H 0.1681 -0.0726 0.7017
C32 C 0.3135(2) 0.24799(13) 0.48811(14)
H54 H 0.2690 0.2849 0.5236
H55 H 0.3771 0.2789 0.4577
C33 C 0.1946(3) 0.21420(15) 0.42270(17)
H56 H 0.1305 0.1825 0.4510
H57 H 0.2365 0.1815 0.3831
H58 H 0.1406 0.2569 0.3922
C34 C 0.5023(3) 0.24345(14) 0.61508(14)
H59 H 0.5530 0.2817 0.5845
H60 H 0.4369 0.2733 0.6453
C35 C 0.6132(3) 0.20365(17) 0.68092(15)
H61 H 0.6836 0.1768 0.6528
H62 H 0.5656 0.1657 0.7126
H63 H 0.6613 0.2430 0.7195
C36 C 0.6101(2) 0.00377(12) 0.47711(11)
H64 H 0.5906 -0.0505 0.4951
C37 C 0.6083(2) -0.00344(13) 0.38066(12)
H65 H 0.6307 0.0481 0.3582
H66 H 0.6839 -0.0403 0.3703
C38 C 0.4656(3) -0.03161(14) 0.33356(13)
H67 H 0.4483 -0.0856 0.3513
H68 H 0.4698 -0.0325 0.2726
C39 C 0.3412(2) 0.02039(13) 0.34949(12)
H69 H 0.3548 0.0736 0.3266
C40 C 0.3402(2) 0.02705(11) 0.44460(11)
H70 H 0.3132 -0.0245 0.4650
H71 H 0.2639 0.0642 0.4532
C41 C 0.7604(2) 0.02411(13) 0.52966(12)
H72 H 0.7535 0.0778 0.5531
C42 C 0.8881(2) 0.02392(17) 0.48055(16)
H73 H 0.9001 -0.0285 0.4584
H74 H 0.9751 0.0390 0.5183
H75 H 0.8699 0.0611 0.4339
C43 C 0.7998(2) -0.03213(16) 0.60512(14)
H76 H 0.8878 -0.0142 0.6401
H77 H 0.8143 -0.0848 0.5843
H78 H 0.7223 -0.0330 0.6387
C44 C 0.1974(3) -0.01243(16) 0.30577(15)
H79 H 0.1837 -0.0650 0.3270
H80 H 0.1971 -0.0147 0.2450
H81 H 0.1199 0.0215 0.3175
C45 C 0.6459(2) 0.19295(12) 0.40473(12)
H82 H 0.7110 0.1467 0.4117
C46 C 0.6257(3) 0.22049(16) 0.31310(14)
H83 H 0.5578 0.2640 0.3056
H84 H 0.5888 0.1774 0.2760
H85 H 0.7175 0.2378 0.2991
C47 C 0.7105(2) 0.25847(12) 0.46267(14)
C48 C 0.9154(3) 0.2942(2) 0.5614(2)
H86 H 0.8588 0.3084 0.6050
H87 H 0.9335 0.3408 0.5295
H88 H 1.0065 0.2717 0.5879
loop_
_geom_bond_atom_site_label_1
_geom_bond_atom_site_label_2
_geom_bond_site_symmetry_1
_geom_bond_site_symmetry_2
N1 C1 1_555 1_555
N2 O2 1_555 1_555
O1 C1 1_555 1_555
O2 C21 1_555 1_555
O3 C23 1_555 1_555
O4 C23 1_555 1_555
C1 C2 1_555 1_555
C2 N2 1_555 1_555
C3 N2 1_555 1_555
C4 N1 1_555 1_555
H1 C4 1_555 1_555
H2 C4 1_555 1_555
C5 N1 1_555 1_555
H3 C5 1_555 1_555
C6 C5 1_555 1_555
H4 C6 1_555 1_555
H5 C6 1_555 1_555
H6 C6 1_555 1_555
C7 C5 1_555 1_555
H7 C7 1_555 1_555
H8 C7 1_555 1_555
H9 C7 1_555 1_555
C8 C2 1_555 1_555
H10 C8 1_555 1_555
H11 C8 1_555 1_555
C9 C8 1_555 1_555
H12 C9 1_555 1_555
H13 C9 1_555 1_555
H14 C9 1_555 1_555
C10 H15 1_555 1_555
H16 C10 1_555 1_555
H17 C10 1_555 1_555
C11 C2 1_555 1_555
H18 C11 1_555 1_555
H19 C11 1_555 1_555
C12 C3 1_555 1_555
H20 C12 1_555 1_555
C13 C12 1_555 1_555
H21 C13 1_555 1_555
H22 C13 1_555 1_555
C14 C13 1_555 1_555
H23 C14 1_555 1_555
H24 C14 1_555 1_555
C15 C14 1_555 1_555
H25 C15 1_555 1_555
C16 C3 1_555 1_555
H26 C16 1_555 1_555
H27 C16 1_555 1_555
C17 C12 1_555 1_555
H28 C17 1_555 1_555
C18 C17 1_555 1_555
H29 C18 1_555 1_555
H30 C18 1_555 1_555
H31 C18 1_555 1_555
C19 C17 1_555 1_555
H32 C19 1_555 1_555
H33 C19 1_555 1_555
H34 C19 1_555 1_555
C20 C15 1_555 1_555
H35 C20 1_555 1_555
H36 C20 1_555 1_555
H37 C20 1_555 1_555
C21 H38 1_555 1_555
C22 C21 1_555 1_555
H39 C22 1_555 1_555
H40 C22 1_555 1_555
H41 C22 1_555 1_555
C23 C21 1_555 1_555
C24 O4 1_555 1_555
H42 C24 1_555 1_555
H43 C24 1_555 1_555
H44 C24 1_555 1_555
N3 C25 1_555 1_555
N4 O6 1_555 1_555
O5 C25 1_555 1_555
O6 C45 1_555 1_555
O7 C47 1_555 1_555
O8 C47 1_555 1_555
C25 C26 1_555 1_555
C26 N4 1_555 1_555
C27 N4 1_555 1_555
C28 N3 1_555 1_555
H45 C28 1_555 1_555
H46 C28 1_555 1_555
C29 N3 1_555 1_555
H47 C29 1_555 1_555
C30 C29 1_555 1_555
H48 C30 1_555 1_555
H49 C30 1_555 1_555
H50 C30 1_555 1_555
C31 C29 1_555 1_555
H51 C31 1_555 1_555
H52 C31 1_555 1_555
H53 C31 1_555 1_555
C32 C26 1_555 1_555
H54 C32 1_555 1_555
H55 C32 1_555 1_555
C33 C32 1_555 1_555
H56 C33 1_555 1_555
H57 C33 1_555 1_555
H58 C33 1_555 1_555
C34 C26 1_555 1_555
H59 C34 1_555 1_555
H60 C34 1_555 1_555
C35 C34 1_555 1_555
H61 C35 1_555 1_555
H62 C35 1_555 1_555
H63 C35 1_555 1_555
C36 C27 1_555 1_555
H64 C36 1_555 1_555
C37 C36 1_555 1_555
H65 C37 1_555 1_555
H66 C37 1_555 1_555
C38 C37 1_555 1_555
H67 C38 1_555 1_555
H68 C38 1_555 1_555
C39 C38 1_555 1_555
H69 C39 1_555 1_555
C40 C27 1_555 1_555
H70 C40 1_555 1_555
H71 C40 1_555 1_555
C41 C36 1_555 1_555
H72 C41 1_555 1_555
C42 C41 1_555 1_555
H73 C42 1_555 1_555
H74 C42 1_555 1_555
H75 C42 1_555 1_555
C43 C41 1_555 1_555
H76 C43 1_555 1_555
H77 C43 1_555 1_555
H78 C43 1_555 1_555
C44 C39 1_555 1_555
H79 C44 1_555 1_555
H80 C44 1_555 1_555
H81 C44 1_555 1_555
C45 H82 1_555 1_555
C46 C45 1_555 1_555
H83 C46 1_555 1_555
H84 C46 1_555 1_555
H85 C46 1_555 1_555
C47 C45 1_555 1_555
C48 O8 1_555 1_555
H86 C48 1_555 1_555
H87 C48 1_555 1_555
H88 C48 1_555 1_555
C3 C4 1_555 1_555
C10 C11 1_555 1_555
C15 C16 1_555 1_555
C27 C28 1_555 1_555
C39 C40 1_555 1_555

#END
