
#######################################################################
#
#                 Cambridge Crystallographic Data Centre
#                                CCDC 
#
#######################################################################
#
# If this CIF has been generated from an entry in the Cambridge 
# Structural Database, then it will include bibliographic, chemical, 
# crystal, experimental, refinement or atomic coordinate data resulting 
# from the CCDC's data processing and validation procedures.
#
#######################################################################

data_MEQFAQ
_chemical_formula_moiety         'C11 H16 N2 O2'
_chemical_name_systematic        't-Butyl 3-phenylcarbazate'
_symmetry_cell_setting           monoclinic
_symmetry_space_group_name_H-M   'P 21/c'
_symmetry_Int_Tables_number      14
_space_group_name_Hall           '-P 2ybc'
loop_
_symmetry_equiv_pos_site_id
_symmetry_equiv_pos_as_xyz
1 x,y,z
2 -x,1/2+y,1/2-z
3 -x,-y,-z
4 x,1/2-y,1/2+z
_cell_length_a                   10.236(4)
_cell_length_b                   13.662(6)
_cell_length_c                   8.628(3)
_cell_angle_alpha                90
_cell_angle_beta                 101.814(7)
_cell_angle_gamma                90
_cell_volume                     1181.02
_exptl_crystal_colour            colorless
_exptl_crystal_description       block
_chemical_melting_point          '362-363 K'
_cell_formula_units_Z            4
_exptl_crystal_recrystallization_method 'ethyl acetate/n-hexane'
loop_
_atom_site_label
_atom_site_type_symbol
_atom_site_fract_x
_atom_site_fract_y
_atom_site_fract_z
O1 O 0.4088(2) 0.33299(14) -0.0967(2)
O2 O 0.35236(18) 0.34911(14) 0.14266(18)
N1 N 0.5148(3) 0.15074(18) 0.0065(3)
H1 H 0.462(3) 0.145(2) -0.083(4)
N2 N 0.4619(3) 0.21894(19) 0.0961(3)
H2 H 0.442(3) 0.198(2) 0.181(3)
C1 C 0.6518(3) 0.15381(19) 0.0086(3)
C2 C 0.7005(3) 0.0938(2) -0.0965(3)
H3 H 0.6418 0.0567 -0.1701
C3 C 0.8349(4) 0.0892(3) -0.0919(4)
H4 H 0.8663 0.0492 -0.1634
C4 C 0.9236(4) 0.1421(3) 0.0154(4)
H5 H 1.0147 0.1379 0.0179
C5 C 0.8761(3) 0.2018(2) 0.1199(4)
H6 H 0.9357 0.2382 0.1936
C6 C 0.7402(3) 0.2084(2) 0.1164(3)
H7 H 0.7089 0.2495 0.1867
C7 C 0.4081(3) 0.3034(2) 0.0346(3)
C8 C 0.2499(3) 0.4251(2) 0.0969(3)
C9 C 0.1439(3) 0.3891(3) -0.0392(4)
H8 H 0.1813 0.3826 -0.1320
H9 H 0.0715 0.4352 -0.0595
H10 H 0.1113 0.3267 -0.0127
C10 C 0.3151(4) 0.5177(2) 0.0584(4)
H11 H 0.3875 0.5340 0.1441
H12 H 0.2508 0.5698 0.0432
H13 H 0.3486 0.5086 -0.0367
C11 C 0.1951(3) 0.4359(3) 0.2460(3)
H14 H 0.1568 0.3749 0.2695
H15 H 0.1277 0.4859 0.2307
H16 H 0.2660 0.4538 0.3325
loop_
_geom_bond_atom_site_label_1
_geom_bond_atom_site_label_2
_geom_bond_site_symmetry_1
_geom_bond_site_symmetry_2
O1 C7 1_555 1_555
O2 C7 1_555 1_555
N1 H1 1_555 1_555
N2 N1 1_555 1_555
H2 N2 1_555 1_555
C1 N1 1_555 1_555
C2 C1 1_555 1_555
H3 C2 1_555 1_555
C3 C2 1_555 1_555
H4 C3 1_555 1_555
C4 C3 1_555 1_555
H5 C4 1_555 1_555
C5 C4 1_555 1_555
H6 C5 1_555 1_555
C6 C1 1_555 1_555
H7 C6 1_555 1_555
C7 N2 1_555 1_555
C8 O2 1_555 1_555
C9 C8 1_555 1_555
H8 C9 1_555 1_555
H9 C9 1_555 1_555
H10 C9 1_555 1_555
C10 C8 1_555 1_555
H11 C10 1_555 1_555
H12 C10 1_555 1_555
H13 C10 1_555 1_555
C11 C8 1_555 1_555
H14 C11 1_555 1_555
H15 C11 1_555 1_555
H16 C11 1_555 1_555
C5 C6 1_555 1_555

#END
