
#######################################################################
#
#                 Cambridge Crystallographic Data Centre
#                                CCDC 
#
#######################################################################
#
# If this CIF has been generated from an entry in the Cambridge 
# Structural Database, then it will include bibliographic, chemical, 
# crystal, experimental, refinement or atomic coordinate data resulting 
# from the CCDC's data processing and validation procedures.
#
#######################################################################

data_MEQGUK
_chemical_compound_source        'aerial part of Cleome chrysantha'
_chemical_formula_moiety         'C29 H44 O6'
_chemical_name_systematic        1-epibrachyacarpone
_chemical_properties_biological  
'anthelmintic, counterirritant in chronic painful joints, folk remedy for infantile convulsions'
_symmetry_cell_setting           orthorhombic
_symmetry_space_group_name_H-M   'P 21 21 21'
_symmetry_Int_Tables_number      19
_space_group_name_Hall           'P 2ac 2ab'
loop_
_symmetry_equiv_pos_site_id
_symmetry_equiv_pos_as_xyz
1 x,y,z
2 1/2-x,-y,1/2+z
3 1/2+x,1/2-y,-z
4 -x,1/2+y,1/2-z
_cell_length_a                   12.171(2)
_cell_length_b                   13.379(2)
_cell_length_c                   16.153(3)
_cell_angle_alpha                90
_cell_angle_beta                 90
_cell_angle_gamma                90
_cell_volume                     2630.29
_exptl_crystal_colour            colorless
_chemical_melting_point          274-276deg.C
_cell_formula_units_Z            4
loop_
_atom_site_label
_atom_site_type_symbol
_atom_site_fract_x
_atom_site_fract_y
_atom_site_fract_z
O1 O 0.3512(3) 0.3232(3) 0.2808(2)
O2 O 0.3252(2) 0.1682(2) 0.3291(2)
O3 O 0.4124(3) 0.1812(4) 0.5211(3)
O4 O 0.2692(3) 0.0832(3) 0.5255(2)
O5 O -0.0479(3) 0.1900(2) -0.0362(2)
O6 O 0.1091(3) 0.1703(3) -0.1007(3)
C1 C 0.2216(3) 0.1962(3) 0.3674(3)
C2 C 0.3817(4) 0.2392(5) 0.2867(3)
C3 C 0.2512(4) 0.2406(4) 0.4520(3)
C4 C 0.4827(5) 0.1959(5) 0.2504(4)
C5 C 0.3176(5) 0.1696(4) 0.5041(3)
C6 C 0.1489(4) 0.0647(4) 0.5284(3)
C7 C 0.0822(4) 0.0961(3) 0.4503(3)
C8 C -0.0213(4) 0.0313(4) 0.4446(3)
C9 C -0.1006(4) 0.0683(4) 0.3784(3)
C10 C -0.0506(3) 0.0667(3) 0.2911(3)
C11 C 0.0593(3) 0.1289(3) 0.2958(3)
C12 C 0.1437(3) 0.1031(3) 0.3654(3)
C13 C 0.1121(3) 0.1378(3) 0.2095(3)
C14 C 0.0353(3) 0.1817(4) 0.1447(3)
C15 C -0.0719(3) 0.1224(3) 0.1416(3)
C16 C -0.1289(3) 0.1183(3) 0.2269(3)
C17 C -0.2335(4) 0.0619(4) 0.2047(3)
C18 C -0.2639(4) 0.0971(4) 0.1174(3)
C19 C -0.1625(4) 0.1524(3) 0.0816(3)
C20 C -0.0311(4) -0.0425(3) 0.2663(3)
C21 C 0.2076(4) 0.0067(3) 0.3490(3)
C22 C -0.1452(4) 0.1320(3) -0.0107(3)
C23 C -0.2401(4) 0.1716(4) -0.0614(3)
C24 C -0.1152(4) 0.0245(4) -0.0331(4)
C25 C -0.0191(6) 0.0341(5) -0.0863(6)
C26 C 0.0239(5) 0.1356(4) -0.0767(3)
C27 C 0.1038(6) 0.1208(5) 0.6045(4)
C28 C 0.1472(5) -0.0480(4) 0.5462(4)
C29 C -0.1647(4) 0.2229(4) 0.2551(3)
H1 H 0.1891 0.2475 0.3349
H2 H 0.2927 0.2999 0.4437
H3 H 0.1853 0.2563 0.4807
H4 H 0.5278 0.1701 0.2934
H5 H 0.4634 0.1435 0.2134
H6 H 0.5215 0.2463 0.2211
H7 H 0.0566 0.1618 0.4614
H8 H -0.0002 -0.0353 0.4317
H9 H -0.0576 0.0323 0.4966
H10 H -0.1638 0.0266 0.3787
H11 H -0.1214 0.1349 0.3913
H12 H 0.0360 0.1949 0.3084
H13 H 0.1750 0.1795 0.2137
H14 H 0.1339 0.0730 0.1919
H15 H 0.0197 0.2493 0.1583
H16 H 0.0699 0.1790 0.0920
H17 H -0.0524 0.0556 0.1281
H18 H -0.2207 -0.0081 0.2051
H19 H -0.2905 0.0777 0.2426
H20 H -0.2816 0.0413 0.0836
H21 H -0.3250 0.1411 0.1198
H22 H -0.1748 0.2221 0.0880
H23 H -0.0990 -0.0775 0.2668
H24 H -0.0003 -0.0449 0.2123
H25 H 0.0181 -0.0726 0.3045
H26 H 0.1579 -0.0481 0.3475
H27 H 0.2444 0.0118 0.2974
H28 H 0.2597 -0.0034 0.3919
H29 H -0.2498 0.2407 -0.0502
H30 H -0.2248 0.1626 -0.1186
H31 H -0.3052 0.1364 -0.0474
H32 H -0.0978 -0.0129 0.0152
H33 H -0.1739 -0.0071 -0.0617
H34 H 0.0351 -0.0132 -0.0708
H35 H -0.0397 0.0231 -0.1425
H36 H 0.1382 0.0958 0.6531
H37 H 0.1191 0.1901 0.5990
H38 H 0.0268 0.1108 0.6081
H39 H 0.0731 -0.0703 0.5499
H40 H 0.1833 -0.0826 0.5027
H41 H 0.1837 -0.0609 0.5971
H42 H -0.1018 0.2608 0.2701
H43 H -0.2022 0.2555 0.2112
H44 H -0.2123 0.2171 0.3015
loop_
_geom_bond_atom_site_label_1
_geom_bond_atom_site_label_2
_geom_bond_site_symmetry_1
_geom_bond_site_symmetry_2
O1 C2 1_555 1_555
O2 C1 1_555 1_555
O3 C5 1_555 1_555
O4 C5 1_555 1_555
O5 C22 1_555 1_555
O6 C26 1_555 1_555
C1 C3 1_555 1_555
C2 O2 1_555 1_555
C3 C5 1_555 1_555
C4 C2 1_555 1_555
C6 O4 1_555 1_555
C7 C6 1_555 1_555
C8 C7 1_555 1_555
C9 C8 1_555 1_555
C10 C9 1_555 1_555
C11 C10 1_555 1_555
C12 C1 1_555 1_555
C13 C11 1_555 1_555
C14 C13 1_555 1_555
C15 C14 1_555 1_555
C16 C10 1_555 1_555
C17 C16 1_555 1_555
C18 C17 1_555 1_555
C19 C15 1_555 1_555
C20 C10 1_555 1_555
C21 C12 1_555 1_555
C22 C19 1_555 1_555
C23 C22 1_555 1_555
C24 C22 1_555 1_555
C25 C24 1_555 1_555
C26 O5 1_555 1_555
C27 C6 1_555 1_555
C28 C6 1_555 1_555
C29 C16 1_555 1_555
H1 C1 1_555 1_555
H2 C3 1_555 1_555
H3 C3 1_555 1_555
H4 C4 1_555 1_555
H5 C4 1_555 1_555
H6 C4 1_555 1_555
H7 C7 1_555 1_555
H8 C8 1_555 1_555
H9 C8 1_555 1_555
H10 C9 1_555 1_555
H11 C9 1_555 1_555
H12 C11 1_555 1_555
H13 C13 1_555 1_555
H14 C13 1_555 1_555
H15 C14 1_555 1_555
H16 C14 1_555 1_555
H17 C15 1_555 1_555
H18 C17 1_555 1_555
H19 C17 1_555 1_555
H20 C18 1_555 1_555
H21 C18 1_555 1_555
H22 C19 1_555 1_555
H23 C20 1_555 1_555
H24 C20 1_555 1_555
H25 C20 1_555 1_555
H26 C21 1_555 1_555
H27 C21 1_555 1_555
H28 C21 1_555 1_555
H29 C23 1_555 1_555
H30 C23 1_555 1_555
H31 C23 1_555 1_555
H32 C24 1_555 1_555
H33 C24 1_555 1_555
H34 C25 1_555 1_555
H35 C25 1_555 1_555
H36 C27 1_555 1_555
H37 C27 1_555 1_555
H38 C27 1_555 1_555
H39 C28 1_555 1_555
H40 C28 1_555 1_555
H41 C28 1_555 1_555
H42 C29 1_555 1_555
H43 C29 1_555 1_555
H44 C29 1_555 1_555
C7 C12 1_555 1_555
C11 C12 1_555 1_555
C15 C16 1_555 1_555
C18 C19 1_555 1_555
C25 C26 1_555 1_555

#END
