
#######################################################################
#
#                 Cambridge Crystallographic Data Centre
#                                CCDC 
#
#######################################################################
#
# If this CIF has been generated from an entry in the Cambridge 
# Structural Database, then it will include bibliographic, chemical, 
# crystal, experimental, refinement or atomic coordinate data resulting 
# from the CCDC's data processing and validation procedures.
#
#######################################################################

data_MEQJUO
_chemical_formula_moiety         'C20 H17 Cl1 N2 O3 S1'
_chemical_name_systematic        
(E)-N'-(4-(4-Chlorobenzyloxy)-3-methoxybenzylidene)thiophene-2-carbohydrazide
_symmetry_cell_setting           triclinic
_symmetry_space_group_name_H-M   'P -1'
_symmetry_Int_Tables_number      2
_space_group_name_Hall           '-P 1'
loop_
_symmetry_equiv_pos_site_id
_symmetry_equiv_pos_as_xyz
1 x,y,z
2 -x,-y,-z
_cell_length_a                   8.275(3)
_cell_length_b                   9.884(3)
_cell_length_c                   11.584(3)
_cell_angle_alpha                89.503(5)
_cell_angle_beta                 81.062(5)
_cell_angle_gamma                86.951(5)
_cell_volume                     934.627
_exptl_crystal_colour            colorless
_exptl_crystal_description       block
_cell_formula_units_Z            2
_exptl_crystal_recrystallization_method acetonitrile
loop_
_atom_site_label
_atom_site_type_symbol
_atom_site_fract_x
_atom_site_fract_y
_atom_site_fract_z
S1 S 1.32387(16) 1.21499(12) 0.22251(12)
Cl1 Cl 0.6607(3) 0.06608(18) 0.57963(17)
O1 O 0.7948(4) 0.6408(3) 0.2918(3)
O2 O 0.5900(4) 0.7551(3) 0.1665(3)
O3 O 1.1892(4) 1.5373(3) 0.0465(3)
N1 N 1.0441(4) 1.2169(3) 0.1153(3)
N2 N 1.0575(4) 1.3453(3) 0.0697(3)
H1 H 0.9845 1.3781 0.0304
C1 C 0.7016(7) 0.4593(5) 0.5230(5)
H2 H 0.6519 0.5399 0.5552
C2 C 0.6489(7) 0.3381(6) 0.5694(5)
H3 H 0.5632 0.3360 0.6316
C3 C 0.7246(8) 0.2214(5) 0.5226(5)
C4 C 0.8501(8) 0.2227(5) 0.4313(5)
H4 H 0.9006 0.1419 0.4003
C5 C 0.9007(6) 0.3439(5) 0.3858(4)
H5 H 0.9871 0.3453 0.3240
C6 C 0.8261(6) 0.4638(5) 0.4299(4)
C7 C 0.8864(8) 0.5959(5) 0.3807(5)
H6 H 0.8745 0.6632 0.4423
H7 H 1.0016 0.5846 0.3482
C8 C 0.8346(6) 0.7647(4) 0.2430(4)
C9 C 0.9754(6) 0.8273(5) 0.2552(4)
H8 H 1.0512 0.7844 0.2966
C10 C 1.0055(6) 0.9530(4) 0.2064(4)
H9 H 1.1012 0.9941 0.2156
C11 C 0.8952(5) 1.0187(4) 0.1441(4)
C12 C 0.7538(5) 0.9526(4) 0.1296(4)
H10 H 0.6791 0.9949 0.0870
C13 C 0.7228(5) 0.8264(4) 0.1771(4)
C14 C 0.4664(6) 0.8191(5) 0.1089(4)
H11 H 0.4309 0.9045 0.1456
H12 H 0.3750 0.7622 0.1140
H13 H 0.5099 0.8336 0.0283
C15 C 0.9201(5) 1.1545(4) 0.0957(4)
H14 H 0.8464 1.1949 0.0512
C16 C 1.1833(5) 1.4211(4) 0.0855(4)
C17 C 1.3156(5) 1.3663(4) 0.1475(4)
C18 C 1.4525(6) 1.4355(5) 0.1535(4)
H15 H 1.4707 1.5196 0.1185
C19 C 1.5625(6) 1.3682(5) 0.2171(4)
H16 H 1.6617 1.4018 0.2287
C20 C 1.5080(6) 1.2482(5) 0.2600(4)
H17 H 1.5651 1.1904 0.3051
loop_
_geom_bond_atom_site_label_1
_geom_bond_atom_site_label_2
_geom_bond_site_symmetry_1
_geom_bond_site_symmetry_2
S1 C17 1_555 1_555
Cl1 C3 1_555 1_555
O1 C7 1_555 1_555
O2 C13 1_555 1_555
O3 C16 1_555 1_555
N1 N2 1_555 1_555
N2 H1 1_555 1_555
C1 H2 1_555 1_555
C2 C1 1_555 1_555
H3 C2 1_555 1_555
C3 C2 1_555 1_555
C4 C3 1_555 1_555
H4 C4 1_555 1_555
C5 C4 1_555 1_555
H5 C5 1_555 1_555
C6 C1 1_555 1_555
C7 C6 1_555 1_555
H6 C7 1_555 1_555
H7 C7 1_555 1_555
C8 O1 1_555 1_555
C9 C8 1_555 1_555
H8 C9 1_555 1_555
C10 C9 1_555 1_555
H9 C10 1_555 1_555
C11 C10 1_555 1_555
C12 C11 1_555 1_555
H10 C12 1_555 1_555
C13 C8 1_555 1_555
C14 O2 1_555 1_555
H11 C14 1_555 1_555
H12 C14 1_555 1_555
H13 C14 1_555 1_555
C15 N1 1_555 1_555
H14 C15 1_555 1_555
C16 N2 1_555 1_555
C17 C16 1_555 1_555
C18 C17 1_555 1_555
H15 C18 1_555 1_555
C19 C18 1_555 1_555
H16 C19 1_555 1_555
C20 S1 1_555 1_555
H17 C20 1_555 1_555
C5 C6 1_555 1_555
C11 C15 1_555 1_555
C12 C13 1_555 1_555
C19 C20 1_555 1_555

#END
