
#######################################################################
#
#                 Cambridge Crystallographic Data Centre
#                                CCDC 
#
#######################################################################
#
# If this CIF has been generated from an entry in the Cambridge 
# Structural Database, then it will include bibliographic, chemical, 
# crystal, experimental, refinement or atomic coordinate data resulting 
# from the CCDC's data processing and validation procedures.
#
#######################################################################

data_MEQKUP
_chemical_formula_moiety         'C14 H12 O5 S1'
_chemical_name_systematic        '5-Formyl-2-methoxyphenyl benzenesulfonate'
_symmetry_cell_setting           triclinic
_symmetry_space_group_name_H-M   'P -1'
_symmetry_Int_Tables_number      2
_space_group_name_Hall           '-P 1'
loop_
_symmetry_equiv_pos_site_id
_symmetry_equiv_pos_as_xyz
1 x,y,z
2 -x,-y,-z
_cell_length_a                   7.915(7)
_cell_length_b                   8.255(8)
_cell_length_c                   11.581(10)
_cell_angle_alpha                102.684(14)
_cell_angle_beta                 109.208(13)
_cell_angle_gamma                97.137(13)
_cell_volume                     681.082
_exptl_crystal_colour            colorless
_exptl_crystal_description       block
_cell_formula_units_Z            2
_exptl_crystal_recrystallization_method acetonitrile
loop_
_atom_site_label
_atom_site_type_symbol
_atom_site_fract_x
_atom_site_fract_y
_atom_site_fract_z
S1 S 0.37133(13) 0.02978(10) 0.72451(8)
O1 O 0.4983(4) -0.0316(3) 0.8127(2)
O2 O 0.2917(4) -0.0652(3) 0.5944(2)
O3 O 0.4871(3) 0.2093(3) 0.73498(19)
O4 O 0.3755(3) 0.4696(3) 0.8412(2)
O5 O 0.1737(5) 0.3980(4) 0.2506(3)
C1 C 0.1996(5) 0.0837(4) 0.7783(3)
C2 C 0.0405(5) 0.1057(4) 0.6948(3)
H1 H 0.0210 0.0836 0.6086
C3 C -0.0880(6) 0.1598(5) 0.7384(4)
H2 H -0.1955 0.1755 0.6822
C4 C -0.0593(7) 0.1911(6) 0.8650(5)
H3 H -0.1478 0.2283 0.8944
C5 C 0.0973(8) 0.1685(6) 0.9487(4)
H4 H 0.1152 0.1902 1.0347
C6 C 0.2300(6) 0.1131(5) 0.9056(3)
H5 H 0.3371 0.0963 0.9617
C7 C 0.3974(4) 0.3064(4) 0.6580(3)
C8 C 0.3409(5) 0.4436(4) 0.7161(3)
C9 C 0.2539(5) 0.5420(4) 0.6422(3)
H6 H 0.2132 0.6339 0.6783
C10 C 0.2283(5) 0.5026(4) 0.5150(3)
H7 H 0.1716 0.5701 0.4663
C11 C 0.2841(5) 0.3668(4) 0.4582(3)
C12 C 0.3744(5) 0.2689(4) 0.5318(3)
H8 H 0.4184 0.1793 0.4959
C13 C 0.2562(6) 0.3254(5) 0.3233(4)
H9 H 0.3054 0.2373 0.2913
C14 C 0.2966(6) 0.5937(5) 0.9013(3)
H10 H 0.3423 0.7036 0.8953
H11 H 0.3288 0.5963 0.9893
H12 H 0.1657 0.5644 0.8596
loop_
_geom_bond_atom_site_label_1
_geom_bond_atom_site_label_2
_geom_bond_site_symmetry_1
_geom_bond_site_symmetry_2
S1 O1 1_555 1_555
O2 S1 1_555 1_555
O3 S1 1_555 1_555
O4 C8 1_555 1_555
O5 C13 1_555 1_555
C1 S1 1_555 1_555
C2 C1 1_555 1_555
H1 C2 1_555 1_555
C3 C2 1_555 1_555
H2 C3 1_555 1_555
C4 C3 1_555 1_555
H3 C4 1_555 1_555
C5 C4 1_555 1_555
H4 C5 1_555 1_555
C6 C1 1_555 1_555
H5 C6 1_555 1_555
C7 O3 1_555 1_555
C8 C7 1_555 1_555
C9 C8 1_555 1_555
H6 C9 1_555 1_555
C10 C9 1_555 1_555
H7 C10 1_555 1_555
C11 C10 1_555 1_555
C12 C7 1_555 1_555
H8 C12 1_555 1_555
C13 C11 1_555 1_555
H9 C13 1_555 1_555
C14 O4 1_555 1_555
H10 C14 1_555 1_555
H11 C14 1_555 1_555
H12 C14 1_555 1_555
C5 C6 1_555 1_555
C11 C12 1_555 1_555

#END
