
#######################################################################
#
#                 Cambridge Crystallographic Data Centre
#                                CCDC 
#
#######################################################################
#
# If this CIF has been generated from an entry in the Cambridge 
# Structural Database, then it will include bibliographic, chemical, 
# crystal, experimental, refinement or atomic coordinate data resulting 
# from the CCDC's data processing and validation procedures.
#
#######################################################################

data_MEQKIF
_chemical_formula_moiety         'C10 H14 N2 O1 S1'
_chemical_name_systematic        1-ethyl-3-(3-methoxyphenyl)thiourea
_symmetry_cell_setting           monoclinic
_symmetry_space_group_name_H-M   'P 21/n'
_symmetry_Int_Tables_number      14
_space_group_name_Hall           '-P 2yn'
loop_
_symmetry_equiv_pos_site_id
_symmetry_equiv_pos_as_xyz
1 x,y,z
2 1/2-x,1/2+y,1/2-z
3 -x,-y,-z
4 1/2+x,1/2-y,1/2+z
_cell_length_a                   11.0797(7)
_cell_length_b                   8.6081(6)
_cell_length_c                   11.9698(7)
_cell_angle_alpha                90
_cell_angle_beta                 104.543(2)
_cell_angle_gamma                90
_cell_volume                     1105.04
_exptl_crystal_colour            colorless
_exptl_crystal_description       block
_cell_formula_units_Z            4
loop_
_atom_site_label
_atom_site_type_symbol
_atom_site_fract_x
_atom_site_fract_y
_atom_site_fract_z
S1 S 0.19001(6) 0.89417(7) 0.06428(5)
O1 O -0.14466(15) 1.18532(18) 0.46994(13)
N1 N 0.00860(16) 0.9424(2) 0.16541(14)
N2 N 0.19093(16) 0.8601(2) 0.28505(15)
C1 C -0.06534(18) 1.0683(2) 0.31770(16)
H1 H -0.0255 1.1593 0.3051
C2 C -0.05849(17) 0.9366(2) 0.25352(15)
C3 C -0.1162(2) 0.8009(3) 0.27102(17)
H2 H -0.1106 0.7127 0.2277
C4 C -0.1830(2) 0.7980(3) 0.35463(18)
H3 H -0.2228 0.7070 0.3672
C5 C -0.19134(18) 0.9272(3) 0.41882(16)
H4 H -0.2367 0.9237 0.4744
C6 C -0.13222(18) 1.0629(2) 0.40099(16)
C7 C -0.0937(3) 1.3310(3) 0.4499(2)
H5 H -0.0057 1.3201 0.4581
H6 H -0.1080 1.4055 0.5049
H7 H -0.1330 1.3659 0.3733
C8 C 0.12740(19) 0.8986(2) 0.17941(16)
C9 C 0.3203(2) 0.8090(3) 0.3162(2)
H8 H 0.3352 0.7443 0.2547
H9 H 0.3344 0.7459 0.3853
C10 C 0.4119(3) 0.9407(4) 0.3371(3)
H10 H 0.4025 0.9997 0.2674
H11 H 0.4951 0.9000 0.3605
H12 H 0.3967 1.0066 0.3968
H13 H -0.0319(17) 0.976(2) 0.0983(11)
H14 H 0.1533(19) 0.860(3) 0.3402(14)
loop_
_geom_bond_atom_site_label_1
_geom_bond_atom_site_label_2
_geom_bond_site_symmetry_1
_geom_bond_site_symmetry_2
S1 C8 1_555 1_555
O1 C6 1_555 1_555
N1 C2 1_555 1_555
N2 C8 1_555 1_555
C1 H1 1_555 1_555
C2 C1 1_555 1_555
C3 C2 1_555 1_555
H2 C3 1_555 1_555
C4 C3 1_555 1_555
H3 C4 1_555 1_555
C5 C4 1_555 1_555
H4 C5 1_555 1_555
C6 C1 1_555 1_555
C7 O1 1_555 1_555
H5 C7 1_555 1_555
H6 C7 1_555 1_555
H7 C7 1_555 1_555
C8 N1 1_555 1_555
C9 N2 1_555 1_555
H8 C9 1_555 1_555
H9 C9 1_555 1_555
C10 C9 1_555 1_555
H10 C10 1_555 1_555
H11 C10 1_555 1_555
H12 C10 1_555 1_555
H13 N1 1_555 1_555
H14 N2 1_555 1_555
C5 C6 1_555 1_555

#END
