
#######################################################################
#
#                 Cambridge Crystallographic Data Centre
#                                CCDC 
#
#######################################################################
#
# If this CIF has been generated from an entry in the Cambridge 
# Structural Database, then it will include bibliographic, chemical, 
# crystal, experimental, refinement or atomic coordinate data resulting 
# from the CCDC's data processing and validation procedures.
#
#######################################################################

data_MEQLIE
_chemical_formula_moiety         'C14 H11 Cl1 O2'
_chemical_name_systematic        2-(4-Chlorobenzyloxy)benzaldehyde
_symmetry_cell_setting           orthorhombic
_symmetry_space_group_name_H-M   'P 21 21 21'
_symmetry_Int_Tables_number      19
_space_group_name_Hall           'P 2ac 2ab'
loop_
_symmetry_equiv_pos_site_id
_symmetry_equiv_pos_as_xyz
1 x,y,z
2 1/2-x,-y,1/2+z
3 -x,1/2+y,1/2-z
4 1/2+x,1/2-y,-z
_cell_length_a                   4.0635(11)
_cell_length_b                   14.894(4)
_cell_length_c                   19.715(5)
_cell_angle_alpha                90
_cell_angle_beta                 90
_cell_angle_gamma                90
_cell_volume                     1193.19
_exptl_crystal_colour            colorless
_exptl_crystal_description       block
_cell_formula_units_Z            4
_exptl_crystal_recrystallization_method acetonitrile
loop_
_atom_site_label
_atom_site_type_symbol
_atom_site_fract_x
_atom_site_fract_y
_atom_site_fract_z
Cl1 Cl 0.8073(2) 0.57136(5) 1.11020(4)
O1 O 0.8994(4) 0.66909(10) 0.78416(8)
O2 O 0.5618(5) 0.90579(12) 0.72731(10)
C1 C 0.9607(6) 0.68961(16) 0.71798(13)
C2 C 1.1272(7) 0.63429(17) 0.67372(14)
H1 H 1.2059 0.5788 0.6881
C3 C 1.1752(8) 0.6624(2) 0.60799(15)
H2 H 1.2898 0.6255 0.5781
C4 C 1.0579(8) 0.7437(2) 0.58531(15)
H3 H 1.0910 0.7616 0.5406
C5 C 0.8914(7) 0.79778(19) 0.62977(14)
H4 H 0.8101 0.8526 0.6147
C6 C 0.8416(6) 0.77294(15) 0.69617(12)
C7 C 0.6685(7) 0.83306(18) 0.74226(13)
H5 H 0.6382 0.8137 0.7867
C8 C 1.0320(6) 0.58681(15) 0.81037(12)
H6 H 1.2671 0.5841 0.8021
H7 H 0.9291 0.5359 0.7882
C9 C 0.9654(6) 0.58427(14) 0.88453(13)
C10 C 1.0830(6) 0.65084(15) 0.92731(14)
H8 H 1.1966 0.6992 0.9088
C11 C 1.0363(7) 0.64716(15) 0.99600(13)
H9 H 1.1174 0.6925 1.0238
C12 C 0.8685(6) 0.57587(16) 1.02329(13)
C13 C 0.7494(7) 0.50885(16) 0.98266(13)
H10 H 0.6382 0.4603 1.0015
C14 C 0.7961(7) 0.51419(15) 0.91375(13)
H11 H 0.7110 0.4692 0.8861
loop_
_geom_bond_atom_site_label_1
_geom_bond_atom_site_label_2
_geom_bond_site_symmetry_1
_geom_bond_site_symmetry_2
Cl1 C12 1_555 1_555
O1 C1 1_555 1_555
O2 C7 1_555 1_555
C1 C2 1_555 1_555
C2 H1 1_555 1_555
C3 C2 1_555 1_555
H2 C3 1_555 1_555
C4 C3 1_555 1_555
H3 C4 1_555 1_555
C5 C4 1_555 1_555
H4 C5 1_555 1_555
C6 C1 1_555 1_555
C7 C6 1_555 1_555
H5 C7 1_555 1_555
C8 O1 1_555 1_555
H6 C8 1_555 1_555
H7 C8 1_555 1_555
C9 C8 1_555 1_555
C10 C9 1_555 1_555
H8 C10 1_555 1_555
C11 C10 1_555 1_555
H9 C11 1_555 1_555
C12 C11 1_555 1_555
C13 C12 1_555 1_555
H10 C13 1_555 1_555
C14 C9 1_555 1_555
H11 C14 1_555 1_555
C5 C6 1_555 1_555
C13 C14 1_555 1_555

#END
