
#######################################################################
#
#                 Cambridge Crystallographic Data Centre
#                                CCDC 
#
#######################################################################
#
# If this CIF has been generated from an entry in the Cambridge 
# Structural Database, then it will include bibliographic, chemical, 
# crystal, experimental, refinement or atomic coordinate data resulting 
# from the CCDC's data processing and validation procedures.
#
#######################################################################

data_MEQLEA
_chemical_formula_moiety         'C15 H14 O5 S1'
_chemical_name_systematic        
'5-Formyl-2-methoxyphenyl 4-methylbenzenesulfonate'
_symmetry_cell_setting           monoclinic
_symmetry_space_group_name_H-M   'P 21/c'
_symmetry_Int_Tables_number      14
_space_group_name_Hall           '-P 2ybc'
loop_
_symmetry_equiv_pos_site_id
_symmetry_equiv_pos_as_xyz
1 x,y,z
2 -x,1/2+y,1/2-z
3 -x,-y,-z
4 x,1/2-y,1/2+z
_cell_length_a                   7.6465(19)
_cell_length_b                   8.843(2)
_cell_length_c                   22.000(6)
_cell_angle_alpha                90
_cell_angle_beta                 99.457(5)
_cell_angle_gamma                90
_cell_volume                     1467.38
_exptl_crystal_colour            colorless
_exptl_crystal_description       block
_cell_formula_units_Z            4
_exptl_crystal_recrystallization_method acetonitrile
loop_
_atom_site_label
_atom_site_type_symbol
_atom_site_fract_x
_atom_site_fract_y
_atom_site_fract_z
S1 S 0.24874(11) -0.00166(9) 0.40616(3)
O1 O 0.2047(3) -0.0921(2) 0.45506(9)
O2 O 0.3378(3) -0.0685(2) 0.36124(9)
O3 O 0.3848(2) 0.1271(2) 0.43538(8)
O4 O 0.3133(3) 0.4049(2) 0.39721(10)
O5 O 0.1887(4) 0.3279(3) 0.67540(12)
C1 C 0.0611(4) 0.0966(3) 0.37125(12)
C2 C 0.0501(4) 0.1495(4) 0.31133(13)
H1 H 0.1439 0.1354 0.2898
C3 C -0.1006(5) 0.2225(4) 0.28428(14)
H2 H -0.1080 0.2573 0.2440
C4 C -0.2425(4) 0.2460(4) 0.31503(15)
C5 C -0.2263(4) 0.1933(4) 0.37526(15)
H3 H -0.3197 0.2077 0.3969
C6 C -0.0765(4) 0.1209(3) 0.40357(13)
H4 H -0.0676 0.0884 0.4442
C7 C -0.4085(5) 0.3206(5) 0.28418(17)
H5 H -0.3812 0.3884 0.2530
H6 H -0.4606 0.3763 0.3141
H7 H -0.4904 0.2451 0.2656
C8 C 0.3275(4) 0.2307(3) 0.47683(13)
C9 C 0.2923(4) 0.3782(3) 0.45593(14)
C10 C 0.2397(4) 0.4834(3) 0.49618(17)
H8 H 0.2156 0.5826 0.4835
C11 C 0.2234(4) 0.4398(4) 0.55489(17)
H9 H 0.1853 0.5102 0.5812
C12 C 0.2621(4) 0.2942(4) 0.57608(14)
C13 C 0.3160(4) 0.1900(3) 0.53593(13)
H10 H 0.3446 0.0919 0.5493
C14 C 0.2458(5) 0.2489(4) 0.63869(16)
H11 H 0.2824 0.1518 0.6511
C15 C 0.2649(6) 0.5512(4) 0.3712(2)
H12 H 0.1436 0.5723 0.3745
H13 H 0.2787 0.5522 0.3286
H14 H 0.3401 0.6269 0.3932
loop_
_geom_bond_atom_site_label_1
_geom_bond_atom_site_label_2
_geom_bond_site_symmetry_1
_geom_bond_site_symmetry_2
S1 O1 1_555 1_555
O2 S1 1_555 1_555
O3 S1 1_555 1_555
O4 C9 1_555 1_555
O5 C14 1_555 1_555
C1 S1 1_555 1_555
C2 C1 1_555 1_555
H1 C2 1_555 1_555
C3 C2 1_555 1_555
H2 C3 1_555 1_555
C4 C3 1_555 1_555
C5 C4 1_555 1_555
H3 C5 1_555 1_555
C6 C1 1_555 1_555
H4 C6 1_555 1_555
C7 C4 1_555 1_555
H5 C7 1_555 1_555
H6 C7 1_555 1_555
H7 C7 1_555 1_555
C8 O3 1_555 1_555
C9 C8 1_555 1_555
C10 C9 1_555 1_555
H8 C10 1_555 1_555
C11 C10 1_555 1_555
H9 C11 1_555 1_555
C12 C11 1_555 1_555
C13 C8 1_555 1_555
H10 C13 1_555 1_555
C14 C12 1_555 1_555
H11 C14 1_555 1_555
C15 O4 1_555 1_555
H12 C15 1_555 1_555
H13 C15 1_555 1_555
H14 C15 1_555 1_555
C5 C6 1_555 1_555
C12 C13 1_555 1_555

#END
