
#######################################################################
#
#                 Cambridge Crystallographic Data Centre
#                                CCDC 
#
#######################################################################
#
# If this CIF has been generated from an entry in the Cambridge 
# Structural Database, then it will include bibliographic, chemical, 
# crystal, experimental, refinement or atomic coordinate data resulting 
# from the CCDC's data processing and validation procedures.
#
#######################################################################

data_MEQTEK
_chemical_formula_moiety         'C8 H3 F2 N1 O1 S1'
_chemical_name_systematic        
2,2-difluoro-2H-1,3-benzoxathiole-5-carbonitrile
_symmetry_cell_setting           monoclinic
_symmetry_space_group_name_H-M   'P 21/c'
_symmetry_Int_Tables_number      14
_space_group_name_Hall           '-P 2ybc'
loop_
_symmetry_equiv_pos_site_id
_symmetry_equiv_pos_as_xyz
1 x,y,z
2 -x,1/2+y,1/2-z
3 -x,-y,-z
4 x,1/2-y,1/2+z
_cell_length_a                   11.5323(7)
_cell_length_b                   9.4962(4)
_cell_length_c                   7.4079(4)
_cell_angle_alpha                90
_cell_angle_beta                 106.863(6)
_cell_angle_gamma                90
_cell_volume                     776.378
_exptl_crystal_colour            colorless
_exptl_crystal_description       Needle
_cell_formula_units_Z            4
loop_
_atom_site_label
_atom_site_type_symbol
_atom_site_fract_x
_atom_site_fract_y
_atom_site_fract_z
S1 S 0.64660(4) 0.01306(5) 0.42611(6)
F1 F 0.80952(10) -0.13897(12) 0.66973(15)
F2 F 0.83329(10) -0.13409(12) 0.39566(16)
O1 O 0.88201(11) 0.05381(13) 0.57700(18)
N1 N 0.59686(16) 0.67477(16) 0.4014(2)
C1 C 0.64703(16) 0.5689(2) 0.4300(2)
C2 C 0.70951(16) 0.43561(18) 0.4656(2)
C3 C 0.64237(16) 0.31126(19) 0.4213(2)
C4 C 0.70450(16) 0.18493(17) 0.4606(2)
C5 C 0.82906(16) 0.18487(18) 0.5412(3)
C6 C 0.89685(17) 0.30650(19) 0.5852(3)
C7 C 0.83498(17) 0.4340(2) 0.5461(3)
C8 C 0.79930(16) -0.05387(19) 0.5213(2)
H1 H 0.9892(17) 0.3020(18) 0.642(3)
H2 H 0.5545(19) 0.3143(19) 0.363(3)
H3 H 0.8756(19) 0.519(2) 0.575(3)
loop_
_geom_bond_atom_site_label_1
_geom_bond_atom_site_label_2
_geom_bond_site_symmetry_1
_geom_bond_site_symmetry_2
S1 C4 1_555 1_555
F1 C8 1_555 1_555
F2 C8 1_555 1_555
O1 C5 1_555 1_555
N1 C1 1_555 1_555
C1 C2 1_555 1_555
C2 C3 1_555 1_555
C3 C4 1_555 1_555
C4 C5 1_555 1_555
C5 C6 1_555 1_555
C6 C7 1_555 1_555
C7 C2 1_555 1_555
C8 S1 1_555 1_555
H1 C6 1_555 1_555
H2 C3 1_555 1_555
H3 C7 1_555 1_555
O1 C8 1_555 1_555

#END
