
#######################################################################
#
#                 Cambridge Crystallographic Data Centre
#                                CCDC 
#
#######################################################################
#
# If this CIF has been generated from an entry in the Cambridge 
# Structural Database, then it will include bibliographic, chemical, 
# crystal, experimental, refinement or atomic coordinate data resulting 
# from the CCDC's data processing and validation procedures.
#
#######################################################################

data_MEQTUY
_chemical_formula_moiety         'C19 H14 Cl1 N3'
_chemical_name_systematic        
(4-Chloro-2-phenyl-2H-indazol-3-yl)phenylamine
_symmetry_cell_setting           orthorhombic
_symmetry_space_group_name_H-M   'P b c a'
_symmetry_Int_Tables_number      61
_space_group_name_Hall           '-P 2ac 2ab'
loop_
_symmetry_equiv_pos_site_id
_symmetry_equiv_pos_as_xyz
1 x,y,z
2 1/2-x,-y,1/2+z
3 1/2+x,1/2-y,-z
4 -x,1/2+y,1/2-z
5 -x,-y,-z
6 1/2+x,y,1/2-z
7 1/2-x,1/2+y,z
8 x,1/2-y,1/2+z
_cell_length_a                   10.765(2)
_cell_length_b                   17.029(3)
_cell_length_c                   17.388(4)
_cell_angle_alpha                90
_cell_angle_beta                 90
_cell_angle_gamma                90
_cell_volume                     3187.52
_exptl_crystal_description       rectangle
_chemical_melting_point          '451-453 K'
_cell_formula_units_Z            8
loop_
_atom_site_label
_atom_site_type_symbol
_atom_site_fract_x
_atom_site_fract_y
_atom_site_fract_z
C1 C 0.2076(6) 0.0647(4) 0.1232(3)
C2 C 0.2845(7) 0.0012(4) 0.1226(4)
H1 H 0.2684 -0.0405 0.0894
C3 C 0.3871(7) -0.0017(4) 0.1715(4)
H2 H 0.4367 -0.0464 0.1705
C4 C 0.4189(6) 0.0573(3) 0.2206(3)
H3 H 0.4889 0.0544 0.2519
C5 C 0.3393(5) 0.1228(3) 0.2213(3)
C6 C 0.2364(5) 0.1271(3) 0.1730(3)
C7 C 0.1814(5) 0.2015(3) 0.1876(3)
C8 C 0.3113(6) 0.3641(4) 0.2843(4)
H4 H 0.3841 0.3599 0.2558
C9 C 0.2854(8) 0.4313(4) 0.3278(4)
H5 H 0.3421 0.4725 0.3284
C10 C 0.1805(7) 0.4370(4) 0.3684(4)
H6 H 0.1656 0.4819 0.3975
C11 C 0.0944(7) 0.3776(5) 0.3678(4)
H7 H 0.0204 0.3826 0.3949
C12 C 0.1195(6) 0.3099(4) 0.3263(3)
H8 H 0.0636 0.2683 0.3266
C13 C 0.2260(5) 0.3051(3) 0.2852(3)
C14 C 0.1061(5) 0.2815(3) 0.0830(3)
C15 C 0.2221(6) 0.2877(4) 0.0505(3)
H9 H 0.2904 0.2652 0.0748
C16 C 0.2376(8) 0.3276(4) -0.0184(4)
H10 H 0.3162 0.3312 -0.0404
C17 C 0.1383(10) 0.3616(4) -0.0544(4)
H11 H 0.1490 0.3883 -0.1006
C18 C 0.0231(9) 0.3559(4) -0.0217(4)
H12 H -0.0444 0.3795 -0.0457
C19 C 0.0057(7) 0.3164(4) 0.0455(4)
H13 H -0.0735 0.3127 0.0666
Cl1 Cl 0.07746(16) 0.06809(11) 0.06556(9)
N1 N 0.3499(5) 0.1885(3) 0.2667(3)
N2 N 0.2513(4) 0.2326(3) 0.2437(2)
N3 N 0.0864(4) 0.2421(3) 0.1533(2)
H14 H 0.0145 0.2435 0.1747
loop_
_geom_bond_atom_site_label_1
_geom_bond_atom_site_label_2
_geom_bond_site_symmetry_1
_geom_bond_site_symmetry_2
C1 C2 1_555 1_555
C2 H1 1_555 1_555
C3 C2 1_555 1_555
H2 C3 1_555 1_555
C4 C3 1_555 1_555
H3 C4 1_555 1_555
C5 C4 1_555 1_555
C6 C1 1_555 1_555
C7 C6 1_555 1_555
C8 H4 1_555 1_555
C9 C8 1_555 1_555
H5 C9 1_555 1_555
C10 C9 1_555 1_555
H6 C10 1_555 1_555
C11 C10 1_555 1_555
H7 C11 1_555 1_555
C12 C11 1_555 1_555
H8 C12 1_555 1_555
C13 C8 1_555 1_555
C14 C15 1_555 1_555
C15 H9 1_555 1_555
C16 C15 1_555 1_555
H10 C16 1_555 1_555
C17 C16 1_555 1_555
H11 C17 1_555 1_555
C18 C17 1_555 1_555
H12 C18 1_555 1_555
C19 C14 1_555 1_555
H13 C19 1_555 1_555
Cl1 C1 1_555 1_555
N1 C5 1_555 1_555
N2 C7 1_555 1_555
N3 C7 1_555 1_555
H14 N3 1_555 1_555
C5 C6 1_555 1_555
C12 C13 1_555 1_555
C13 N2 1_555 1_555
C14 N3 1_555 1_555
C18 C19 1_555 1_555
N1 N2 1_555 1_555

#END
