
#######################################################################
#
#                 Cambridge Crystallographic Data Centre
#                                CCDC 
#
#######################################################################
#
# If this CIF has been generated from an entry in the Cambridge 
# Structural Database, then it will include bibliographic, chemical, 
# crystal, experimental, refinement or atomic coordinate data resulting 
# from the CCDC's data processing and validation procedures.
#
#######################################################################

data_MERGUM
_chemical_formula_moiety         'C21 H16 O1'
_chemical_name_systematic        
2',3'-Dihydrospiro(benzo(c)chromene-6,1'-indene)
_symmetry_cell_setting           orthorhombic
_symmetry_space_group_name_H-M   'I b a 2'
_symmetry_Int_Tables_number      45
_space_group_name_Hall           'I 2 -2c'
loop_
_symmetry_equiv_pos_site_id
_symmetry_equiv_pos_as_xyz
1 x,y,z
2 -x,-y,z
3 1/2+x,1/2-y,z
4 1/2-x,1/2+y,z
5 1/2+x,1/2+y,1/2+z
6 1/2-x,1/2-y,1/2+z
7 x,-y,1/2+z
8 -x,y,1/2+z
_cell_length_a                   18.454(4)
_cell_length_b                   22.937(5)
_cell_length_c                   7.2039(15)
_cell_angle_alpha                90
_cell_angle_beta                 90
_cell_angle_gamma                90
_cell_volume                     3049.26
_exptl_crystal_colour            colorless
_chemical_melting_point          92-93deg.C
_cell_formula_units_Z            8
loop_
_atom_site_label
_atom_site_type_symbol
_atom_site_fract_x
_atom_site_fract_y
_atom_site_fract_z
O1 O 0.26002(9) 0.36611(7) 0.5015(3)
C1 C 0.30773(15) 0.39530(11) 0.6148(5)
C2 C 0.37999(17) 0.39562(13) 0.5620(6)
H1 H 0.3947 0.3762 0.4552
C3 C 0.42936(19) 0.42490(16) 0.6689(7)
H2 H 0.4779 0.4258 0.6341
C4 C 0.4073(2) 0.45283(15) 0.8272(7)
H3 H 0.4413 0.4719 0.9009
C5 C 0.33519(18) 0.45306(13) 0.8787(5)
H4 H 0.3211 0.4724 0.9863
C6 C 0.28331(15) 0.42462(11) 0.7706(5)
C7 C 0.20521(14) 0.42569(11) 0.8064(4)
C8 C 0.17173(18) 0.46610(12) 0.9241(4)
H5 H 0.1999 0.4933 0.9867
C9 C 0.09784(19) 0.46618(12) 0.9488(4)
H6 H 0.0766 0.4930 1.0288
C10 C 0.05530(16) 0.42681(12) 0.8559(4)
H7 H 0.0053 0.4268 0.8728
C11 C 0.08727(14) 0.38690(11) 0.7364(4)
H8 H 0.0584 0.3606 0.6716
C12 C 0.16177(14) 0.38575(10) 0.7126(4)
C13 C 0.19937(13) 0.33994(11) 0.5980(4)
C14 C 0.22426(14) 0.28754(10) 0.7173(4)
H9 H 0.2705 0.2728 0.6737
H10 H 0.2291 0.2988 0.8464
C15 C 0.16530(14) 0.24152(11) 0.6950(4)
H11 H 0.1858 0.2026 0.6943
H12 H 0.1299 0.2442 0.7941
C16 C 0.13193(12) 0.25584(12) 0.5117(4)
C17 C 0.08776(15) 0.22184(13) 0.3998(5)
H13 H 0.0747 0.1844 0.4363
C18 C 0.06379(15) 0.24422(16) 0.2352(5)
H14 H 0.0337 0.2218 0.1600
C19 C 0.08335(17) 0.29946(16) 0.1785(5)
H15 H 0.0664 0.3137 0.0657
C20 C 0.12755(15) 0.33367(12) 0.2869(4)
H16 H 0.1408 0.3709 0.2488
C21 C 0.15198(13) 0.31103(11) 0.4556(4)
loop_
_geom_bond_atom_site_label_1
_geom_bond_atom_site_label_2
_geom_bond_site_symmetry_1
_geom_bond_site_symmetry_2
O1 C1 1_555 1_555
C1 C2 1_555 1_555
C2 H1 1_555 1_555
C3 C2 1_555 1_555
H2 C3 1_555 1_555
C4 C3 1_555 1_555
H3 C4 1_555 1_555
C5 C4 1_555 1_555
H4 C5 1_555 1_555
C6 C1 1_555 1_555
C7 C6 1_555 1_555
C8 C7 1_555 1_555
H5 C8 1_555 1_555
C9 C8 1_555 1_555
H6 C9 1_555 1_555
C10 C9 1_555 1_555
H7 C10 1_555 1_555
C11 C10 1_555 1_555
H8 C11 1_555 1_555
C12 C7 1_555 1_555
C13 O1 1_555 1_555
C14 C13 1_555 1_555
H9 C14 1_555 1_555
H10 C14 1_555 1_555
C15 C14 1_555 1_555
H11 C15 1_555 1_555
H12 C15 1_555 1_555
C16 C15 1_555 1_555
C17 C16 1_555 1_555
H13 C17 1_555 1_555
C18 C17 1_555 1_555
H14 C18 1_555 1_555
C19 C18 1_555 1_555
H15 C19 1_555 1_555
C20 C19 1_555 1_555
H16 C20 1_555 1_555
C21 C13 1_555 1_555
C5 C6 1_555 1_555
C11 C12 1_555 1_555
C12 C13 1_555 1_555
C16 C21 1_555 1_555
C20 C21 1_555 1_555

#END
