
#######################################################################
#
#                 Cambridge Crystallographic Data Centre
#                                CCDC 
#
#######################################################################
#
# If this CIF has been generated from an entry in the Cambridge 
# Structural Database, then it will include bibliographic, chemical, 
# crystal, experimental, refinement or atomic coordinate data resulting 
# from the CCDC's data processing and validation procedures.
#
#######################################################################

data_MERJIC
_chemical_formula_moiety         'C20 H26 N8 S4'
_chemical_name_systematic        
anti-1,2-bis(4,6-bis(Ethylthio)-1H-pyrazolo(3,4-d)pyrimidin-1-yl)ethane
_symmetry_cell_setting           triclinic
_symmetry_space_group_name_H-M   'P -1'
_symmetry_Int_Tables_number      2
_space_group_name_Hall           '-P 1'
loop_
_symmetry_equiv_pos_site_id
_symmetry_equiv_pos_as_xyz
1 x,y,z
2 -x,-y,-z
_cell_length_a                   8.2164(11)
_cell_length_b                   8.5246(11)
_cell_length_c                   9.1845(17)
_cell_angle_alpha                64.509(3)
_cell_angle_beta                 87.418(4)
_cell_angle_gamma                85.863(3)
_cell_volume                     579.09
_exptl_crystal_colour            colorless
_exptl_crystal_description       needle
_chemical_melting_point          123deg.C
_cell_formula_units_Z            1
_exptl_crystal_recrystallization_method 'ethyl acetate/hexane'
loop_
_atom_site_label
_atom_site_type_symbol
_atom_site_fract_x
_atom_site_fract_y
_atom_site_fract_z
N1 N 0.1321(4) 0.8430(3) 0.9519(4)
N2 N 0.2050(4) 0.9415(3) 0.8072(4)
C1 C 0.2901(4) 0.8328(4) 0.7619(4)
H1 H 0.3540 0.8664 0.6656
C2 C 0.2730(3) 0.6584(4) 0.8774(4)
C3 C 0.3270(3) 0.4875(4) 0.9026(4)
S1 S 0.45143(11) 0.46021(11) 0.75556(12)
C4 C 0.4849(4) 0.2259(4) 0.8399(4)
H2 H 0.5374 0.1820 0.9462
H3 H 0.3795 0.1710 0.8548
C5 C 0.5954(4) 0.1813(4) 0.7225(5)
H4 H 0.6151 0.0547 0.7656
H5 H 0.6996 0.2355 0.7091
H6 H 0.5423 0.2251 0.6178
N3 N 0.2858(3) 0.3530(3) 1.0359(3)
C6 C 0.1899(4) 0.3849(4) 1.1453(4)
S2 S 0.15437(11) 0.19191(10) 1.31643(11)
C7 C 0.0444(4) 0.2665(4) 1.4505(4)
H7 H -0.0421 0.3548 1.3897
H8 H -0.0092 0.1674 1.5365
C8 C 0.1535(4) 0.3453(4) 1.5274(4)
H9 H 0.0878 0.3834 1.5993
H10 H 0.2048 0.4453 1.4430
H11 H 0.2381 0.2578 1.5896
N4 N 0.1237(3) 0.5374(3) 1.1351(3)
C9 C 0.1706(4) 0.6701(4) 0.9983(4)
C10 C -0.0225(9) 0.9093(8) 1.0101(9)
H12 H -0.0480 0.8325 1.1242
H13 H -0.1169 0.9185 0.9429
C10A C 0.0225(9) 1.0907(8) 0.9899(9)
N1A N -0.1321(4) 1.1570(3) 1.0481(4)
N2A N -0.2050(4) 1.0585(3) 1.1928(4)
C1A C -0.2901(4) 1.1672(4) 1.2381(4)
H1A H -0.3540 1.1336 1.3344
C2A C -0.2730(3) 1.3416(4) 1.1226(4)
C3A C -0.3270(3) 1.5125(4) 1.0974(4)
S1A S -0.45143(11) 1.53979(11) 1.24444(12)
C4A C -0.4849(4) 1.7741(4) 1.1601(4)
H2A H -0.5374 1.8180 1.0538
H3A H -0.3795 1.8290 1.1452
C5A C -0.5954(4) 1.8187(4) 1.2775(5)
H4A H -0.6151 1.9453 1.2344
H5A H -0.6996 1.7645 1.2909
H6A H -0.5423 1.7749 1.3822
N3A N -0.2858(3) 1.6470(3) 0.9641(3)
C6A C -0.1899(4) 1.6151(4) 0.8547(4)
S2A S -0.15437(11) 1.80809(10) 0.68357(11)
C7A C -0.0444(4) 1.7335(4) 0.5495(4)
H7A H 0.0421 1.6452 0.6103
H8A H 0.0092 1.8326 0.4635
C8A C -0.1535(4) 1.6547(4) 0.4726(4)
H9A H -0.0878 1.6166 0.4007
H10A H -0.2048 1.5547 0.5570
H11A H -0.2381 1.7422 0.4104
N4A N -0.1237(3) 1.4626(3) 0.8649(3)
C9A C -0.1706(4) 1.3299(4) 1.0017(4)
H12A H 0.0480 1.1675 0.8758
H13A H 0.1169 1.0815 1.0571
C11? C 0.0646(9) 0.9382(10) 1.0500(9)
H14? H 0.0190 0.8557 1.1545
H15? H 0.1509 1.0007 1.0710
loop_
_geom_bond_atom_site_label_1
_geom_bond_atom_site_label_2
_geom_bond_site_symmetry_1
_geom_bond_site_symmetry_2
N1 N2 1_555 1_555
N2 C1 1_555 1_555
C1 H1 1_555 1_555
C2 C1 1_555 1_555
C3 C2 1_555 1_555
S1 C3 1_555 1_555
C4 S1 1_555 1_555
H2 C4 1_555 1_555
H3 C4 1_555 1_555
C5 C4 1_555 1_555
H4 C5 1_555 1_555
H5 C5 1_555 1_555
H6 C5 1_555 1_555
N3 C3 1_555 1_555
C6 N3 1_555 1_555
S2 C6 1_555 1_555
C7 S2 1_555 1_555
H7 C7 1_555 1_555
H8 C7 1_555 1_555
C8 C7 1_555 1_555
H9 C8 1_555 1_555
H10 C8 1_555 1_555
H11 C8 1_555 1_555
N4 C6 1_555 1_555
C9 N1 1_555 1_555
C10 N1 1_555 1_555
H12 C10 1_555 1_555
H13 C10 1_555 1_555
C10A C10 1_555 1_555
N1A C10A 1_555 1_555
N2A N1A 1_555 1_555
C1A N2A 1_555 1_555
H1A C1A 1_555 1_555
C2A C1A 1_555 1_555
C3A C2A 1_555 1_555
S1A C3A 1_555 1_555
C4A S1A 1_555 1_555
H2A C4A 1_555 1_555
H3A C4A 1_555 1_555
C5A C4A 1_555 1_555
H4A C5A 1_555 1_555
H5A C5A 1_555 1_555
H6A C5A 1_555 1_555
N3A C3A 1_555 1_555
C6A N3A 1_555 1_555
S2A C6A 1_555 1_555
C7A S2A 1_555 1_555
H7A C7A 1_555 1_555
H8A C7A 1_555 1_555
C8A C7A 1_555 1_555
H9A C8A 1_555 1_555
H10A C8A 1_555 1_555
H11A C8A 1_555 1_555
N4A C6A 1_555 1_555
C9A N1A 1_555 1_555
H12A C10A 1_555 1_555
H13A C10A 1_555 1_555
C2 C9 1_555 1_555
N4 C9 1_555 1_555
C2A C9A 1_555 1_555
N4A C9A 1_555 1_555

#END
