
#######################################################################
#
#                 Cambridge Crystallographic Data Centre
#                                CCDC 
#
#######################################################################
#
# If this CIF has been generated from an entry in the Cambridge 
# Structural Database, then it will include bibliographic, chemical, 
# crystal, experimental, refinement or atomic coordinate data resulting 
# from the CCDC's data processing and validation procedures.
#
#######################################################################

data_MERLUQ
_chemical_formula_moiety         'C1 H6 N3 1+,C6 H4 Br1 O3 S1 1-'
_chemical_name_systematic        'Guanidinium 4-bromobenzenesulfonate'
_symmetry_cell_setting           monoclinic
_symmetry_space_group_name_H-M   'P 21/c'
_symmetry_Int_Tables_number      14
_space_group_name_Hall           '-P 2ybc'
loop_
_symmetry_equiv_pos_site_id
_symmetry_equiv_pos_as_xyz
1 x,y,z
2 x,1/2-y,1/2+z
3 -x,-y,-z
4 -x,1/2+y,1/2-z
_cell_length_a                   12.3907(10)
_cell_length_b                   7.4245(6)
_cell_length_c                   26.110(2)
_cell_angle_alpha                90
_cell_angle_beta                 95.498(2)
_cell_angle_gamma                90
_cell_volume                     2390.93
_exptl_crystal_colour            colorless
_exptl_crystal_description       'flat plate'
_cell_formula_units_Z            8
loop_
_atom_site_label
_atom_site_type_symbol
_atom_site_fract_x
_atom_site_fract_y
_atom_site_fract_z
Br1 Br 0.15464(4) 0.45804(7) 0.187389(19)
S1 S 0.04115(7) 0.33829(13) 0.41933(4)
O1 O -0.07604(18) 0.3364(3) 0.41881(10)
C1 C 0.0704(3) 0.3653(5) 0.35495(15)
O2 O 0.09218(18) 0.1700(3) 0.43701(10)
C2 C 0.0046(3) 0.4711(6) 0.32127(17)
H5 H -0.0590 0.5242 0.3323
O3 O 0.08965(19) 0.4940(3) 0.44673(10)
C3 C 0.0309(4) 0.4996(6) 0.27210(19)
H8 H -0.0140 0.5735 0.2492
C4 C 0.1222(3) 0.4211(6) 0.25592(16)
C5 C 0.1881(3) 0.3137(6) 0.28840(17)
H13 H 0.2511 0.2601 0.2769
C6 C 0.1615(3) 0.2846(6) 0.33800(17)
H16 H 0.2059 0.2090 0.3606
N1 N 0.3241(2) 0.5055(4) 0.45780(13)
H1 H 0.3575 0.6092 0.4550
H2 H 0.2548 0.5035 0.4627
N2 N 0.3276(2) 0.1976(4) 0.45936(12)
H3 H 0.3634 0.0957 0.4576
H4 H 0.2584 0.1962 0.4643
N3 N 0.4817(2) 0.3558(4) 0.44723(13)
H6 H 0.5178 0.2543 0.4455
H7 H 0.5149 0.4594 0.4441
C13 C 0.3780(3) 0.3528(5) 0.45457(15)
Br2 Br 0.31269(5) -0.07251(8) 0.17625(2)
S2 S 0.51572(7) -0.14231(13) 0.41068(4)
O4 O 0.42371(19) -0.1469(3) 0.44160(10)
O5 O 0.57794(19) -0.3083(3) 0.41501(10)
O6 O 0.58333(19) 0.0167(3) 0.42025(11)
C7 C 0.4602(3) -0.1253(5) 0.34618(15)
C8 C 0.3577(3) -0.1908(6) 0.33125(17)
H17 H 0.3168 -0.2461 0.3559
C9 C 0.3142(3) -0.1763(6) 0.28084(18)
H18 H 0.2436 -0.2217 0.2709
C10 C 0.3726(4) -0.0967(6) 0.24505(18)
C11 C 0.4749(4) -0.0305(6) 0.2594(2)
H19 H 0.5157 0.0245 0.2346
C12 C 0.5176(4) -0.0447(6) 0.30980(19)
H20 H 0.5879 0.0019 0.3197
N4 N 0.8175(2) -0.0087(4) 0.43694(13)
H9 H 0.8539 0.0932 0.4381
H10 H 0.7461 -0.0071 0.4342
N5 N 0.8147(2) -0.3166(4) 0.43864(12)
H11 H 0.8493 -0.4203 0.4409
H12 H 0.7434 -0.3145 0.4359
N6 N 0.9763(2) -0.1666(4) 0.44344(12)
H14 H 1.0112 -0.2699 0.4457
H15 H 1.0128 -0.0648 0.4439
C14 C 0.8699(3) -0.1642(5) 0.43934(14)
loop_
_geom_bond_atom_site_label_1
_geom_bond_atom_site_label_2
_geom_bond_site_symmetry_1
_geom_bond_site_symmetry_2
Br1 C4 1_555 1_555
S1 O1 1_555 1_555
N1 H1 1_555 1_555
H2 N1 1_555 1_555
C1 S1 1_555 1_555
Br2 C10 1_555 1_555
S2 O4 1_555 1_555
O2 S1 1_555 1_555
N2 H3 1_555 1_555
H4 N2 1_555 1_555
C2 C1 1_555 1_555
H5 C2 1_555 1_555
O3 S1 1_555 1_555
N3 H6 1_555 1_555
H7 N3 1_555 1_555
C3 C2 1_555 1_555
H8 C3 1_555 1_555
N4 H9 1_555 1_555
H10 N4 1_555 1_555
C4 C3 1_555 1_555
O5 S2 1_555 1_555
N5 H11 1_555 1_555
H12 N5 1_555 1_555
C5 C4 1_555 1_555
H13 C5 1_555 1_555
O6 S2 1_555 1_555
N6 H14 1_555 1_555
H15 N6 1_555 1_555
C6 C1 1_555 1_555
H16 C6 1_555 1_555
C7 S2 1_555 1_555
C8 C7 1_555 1_555
H17 C8 1_555 1_555
C9 C8 1_555 1_555
H18 C9 1_555 1_555
C10 C9 1_555 1_555
C11 C10 1_555 1_555
H19 C11 1_555 1_555
C12 C7 1_555 1_555
H20 C12 1_555 1_555
C13 N1 1_555 1_555
C14 N4 1_555 1_555
N2 C13 1_555 1_555
N3 C13 1_555 1_555
N5 C14 1_555 1_555
C5 C6 1_555 1_555
N6 C14 1_555 1_555
C11 C12 1_555 1_555

#END
