
#######################################################################
#
#                 Cambridge Crystallographic Data Centre
#                                CCDC 
#
#######################################################################
#
# If this CIF has been generated from an entry in the Cambridge 
# Structural Database, then it will include bibliographic, chemical, 
# crystal, experimental, refinement or atomic coordinate data resulting 
# from the CCDC's data processing and validation procedures.
#
#######################################################################

data_MERLEA
_chemical_formula_moiety         'C1 H6 N3 1+,C6 H4 Br1 O3 S1 1-,C8 H10'
_chemical_name_systematic        
'Guanidinium 4-bromobenzenesulfonate (m-xylene) clathrate'
_symmetry_cell_setting           orthorhombic
_symmetry_space_group_name_H-M   'P 21 21 21'
_symmetry_Int_Tables_number      19
_space_group_name_Hall           'P 2ac 2ab'
loop_
_symmetry_equiv_pos_site_id
_symmetry_equiv_pos_as_xyz
1 x,y,z
2 1/2-x,-y,1/2+z
3 1/2+x,1/2-y,-z
4 -x,1/2+y,1/2-z
_cell_length_a                   7.7374(5)
_cell_length_b                   11.3924(8)
_cell_length_c                   20.0799(14)
_cell_angle_alpha                90
_cell_angle_beta                 90
_cell_angle_gamma                90
_cell_volume                     1769.99
_exptl_crystal_colour            colorless
_exptl_crystal_description       'flat block'
_cell_formula_units_Z            4
loop_
_atom_site_label
_atom_site_type_symbol
_atom_site_fract_x
_atom_site_fract_y
_atom_site_fract_z
Br1 Br 0.24275(8) 0.43536(3) 1.133188(17)
S1 S 0.2540(2) 0.32063(7) 0.82011(4)
O1 O 0.2527(5) 0.43398(17) 0.78580(10)
O2 O 0.0973(4) 0.2520(3) 0.80813(18)
O3 O 0.4108(4) 0.2533(3) 0.80674(17)
C1 C 0.2593(8) 0.3530(3) 0.90650(16)
C2 C 0.1751(5) 0.4519(3) 0.9292(2)
H7 H 0.1208 0.5033 0.8984
C3 C 0.1694(5) 0.4769(3) 0.9968(2)
H8 H 0.1117 0.5450 1.0127
C4 C 0.2502(8) 0.3998(3) 1.04114(15)
C5 C 0.3304(5) 0.3005(3) 1.0188(2)
H9 H 0.3830 0.2482 1.0497
C6 C 0.3352(5) 0.2759(3) 0.9511(2)
H10 H 0.3903 0.2067 0.9355
N1 N 0.9008(6) 0.5125(3) 0.7451(2)
H1 H 0.9996 0.4765 0.7526
H2 H 0.9000 0.5813 0.7252
N2 N 0.6053(5) 0.5170(4) 0.7524(2)
H3 H 0.6042 0.5858 0.7325
H4 H 0.5076 0.4840 0.7648
N3 N 0.7523(7) 0.3594(2) 0.79369(12)
H5 H 0.8502 0.3225 0.8015
H6 H 0.6536 0.3275 0.8058
C7 C 0.7537(9) 0.4631(3) 0.76367(14)
C8 C 0.2353(7) 0.9322(3) 1.05415(19)
H11 H 0.2017 0.9707 1.0941
C9 C 0.2390(8) 0.9269(3) 0.93450(19)
H12 H 0.2087 0.9619 0.8932
C10 C 0.3255(5) 0.8189(4) 0.9359(2)
C11 C 0.3634(5) 0.7713(3) 0.9971(2)
H13 H 0.4207 0.6977 0.9984
C12 C 0.3225(5) 0.8250(4) 1.0570(2)
C13 C 0.1982(5) 0.9819(4) 0.9934(2)
H14 H 0.1428 1.0563 0.9921
C14 C 0.3683(5) 0.7691(4) 1.12292(19)
H15 H 0.3975 0.6863 1.1159
H16 H 0.2695 0.7748 1.1533
H17 H 0.4678 0.8099 1.1424
C15 C 0.3743(6) 0.7575(4) 0.8719(2)
H18 H 0.2767 0.7603 0.8408
H19 H 0.4036 0.6755 0.8814
H20 H 0.4743 0.7969 0.8519
loop_
_geom_bond_atom_site_label_1
_geom_bond_atom_site_label_2
_geom_bond_site_symmetry_1
_geom_bond_site_symmetry_2
Br1 C4 1_555 1_555
S1 O1 1_555 1_555
N1 H1 1_555 1_555
H2 N1 1_555 1_555
O2 S1 1_555 1_555
N2 H3 1_555 1_555
H4 N2 1_555 1_555
O3 S1 1_555 1_555
N3 H5 1_555 1_555
H6 N3 1_555 1_555
C1 S1 1_555 1_555
C2 C1 1_555 1_555
H7 C2 1_555 1_555
C3 C2 1_555 1_555
H8 C3 1_555 1_555
C4 C3 1_555 1_555
C5 C4 1_555 1_555
H9 C5 1_555 1_555
C6 C1 1_555 1_555
H10 C6 1_555 1_555
C7 N1 1_555 1_555
C8 H11 1_555 1_555
C9 H12 1_555 1_555
C10 C9 1_555 1_555
C11 C10 1_555 1_555
H13 C11 1_555 1_555
C12 C8 1_555 1_555
C13 C8 1_555 1_555
H14 C13 1_555 1_555
C14 C12 1_555 1_555
H15 C14 1_555 1_555
H16 C14 1_555 1_555
H17 C14 1_555 1_555
C15 C10 1_555 1_555
H18 C15 1_555 1_555
H19 C15 1_555 1_555
H20 C15 1_555 1_555
N2 C7 1_555 1_555
N3 C7 1_555 1_555
C5 C6 1_555 1_555
C9 C13 1_555 1_555
C11 C12 1_555 1_555

#END
