
#######################################################################
#
#                 Cambridge Crystallographic Data Centre
#                                CCDC 
#
#######################################################################
#
# If this CIF has been generated from an entry in the Cambridge 
# Structural Database, then it will include bibliographic, chemical, 
# crystal, experimental, refinement or atomic coordinate data resulting 
# from the CCDC's data processing and validation procedures.
#
#######################################################################

data_MERMAX
_chemical_formula_moiety         'C1 H6 N3 1+,C7 H7 O3 S1 1-,C8 H10'
_chemical_name_systematic        
'Guanidinium (p-toluenesulfonate) (m-xylene) clathrate'
_symmetry_cell_setting           orthorhombic
_symmetry_space_group_name_H-M   'P 21 21 21'
_symmetry_Int_Tables_number      19
_space_group_name_Hall           'P 2ac 2ab'
loop_
_symmetry_equiv_pos_site_id
_symmetry_equiv_pos_as_xyz
1 x,y,z
2 1/2-x,-y,1/2+z
3 1/2+x,1/2-y,-z
4 -x,1/2+y,1/2-z
_cell_length_a                   11.6265(9)
_cell_length_b                   20.1346(15)
_cell_length_c                   7.5479(6)
_cell_angle_alpha                90
_cell_angle_beta                 90
_cell_angle_gamma                90
_cell_volume                     1766.93
_exptl_crystal_colour            colorless
_exptl_crystal_description       'flat block'
_cell_formula_units_Z            4
loop_
_atom_site_label
_atom_site_type_symbol
_atom_site_fract_x
_atom_site_fract_y
_atom_site_fract_z
S1 S 0.17868(4) 0.82132(2) 0.25498(8)
O1 O 0.06828(11) 0.78691(7) 0.2524(3)
C1 C 0.14786(16) 0.90720(10) 0.2581(3)
O2 O 0.24588(15) 0.80704(8) 0.4140(2)
C2 C 0.04802(19) 0.93066(12) 0.1791(3)
H5 H -0.0055 0.9005 0.1285
O3 O 0.24528(15) 0.80882(8) 0.0935(2)
C3 C 0.0270(2) 0.99814(12) 0.1745(3)
H8 H -0.0411 1.0140 0.1195
C4 C 0.10320(16) 1.04314(10) 0.2485(4)
C5 C 0.2027(2) 1.01874(12) 0.3270(3)
H9 H 0.2559 1.0489 0.3784
C6 C 0.22574(19) 0.95154(12) 0.3318(3)
H10 H 0.2945 0.9357 0.3853
C7 C 0.0778(2) 1.11665(11) 0.2462(4)
H11 H 0.0026 1.1243 0.1912
H12 H 0.1373 1.1398 0.1781
H13 H 0.0769 1.1336 0.3679
N1 N -0.0256(2) 0.75136(10) 0.6022(2)
H1 H -0.0935 0.7320 0.6015
H2 H 0.0071 0.7630 0.5018
N2 N -0.0220(2) 0.74557(10) 0.9054(2)
H3 H -0.0899 0.7262 0.9049
H4 H 0.0132 0.7534 1.0065
N3 N 0.12963(13) 0.79248(8) 0.7556(3)
H6 H 0.1624 0.8042 0.6553
H7 H 0.1646 0.8002 0.8569
C8 C 0.02708(16) 0.76302(9) 0.7542(4)
C9 C 0.1780(2) 0.56529(13) 0.6828(3)
C10 C 0.2288(2) 0.50490(13) 0.6444(3)
H14 H 0.3016 0.5044 0.5872
C11 C 0.1769(2) 0.44509(12) 0.6868(3)
C12 C 0.0698(2) 0.44648(14) 0.7676(4)
H15 H 0.0320 0.4060 0.7956
C13 C 0.0179(2) 0.50610(16) 0.8076(3)
H16 H -0.0549 0.5065 0.8646
C14 C 0.0712(2) 0.56514(14) 0.7652(4)
H17 H 0.0346 0.6061 0.7925
C15 C 0.2374(3) 0.62954(13) 0.6370(4)
H18 H 0.1922 0.6535 0.5481
H19 H 0.3141 0.6200 0.5893
H20 H 0.2447 0.6569 0.7438
C16 C 0.2346(3) 0.37982(12) 0.6420(4)
H21 H 0.2159 0.3468 0.7331
H22 H 0.3181 0.3862 0.6374
H23 H 0.2071 0.3642 0.5266
loop_
_geom_bond_atom_site_label_1
_geom_bond_atom_site_label_2
_geom_bond_site_symmetry_1
_geom_bond_site_symmetry_2
S1 O1 1_555 1_555
N1 H1 1_555 1_555
H2 N1 1_555 1_555
C1 S1 1_555 1_555
O2 S1 1_555 1_555
N2 H3 1_555 1_555
H4 N2 1_555 1_555
C2 C1 1_555 1_555
H5 C2 1_555 1_555
O3 S1 1_555 1_555
N3 H6 1_555 1_555
H7 N3 1_555 1_555
C3 C2 1_555 1_555
H8 C3 1_555 1_555
C4 C3 1_555 1_555
C5 C4 1_555 1_555
H9 C5 1_555 1_555
C6 C1 1_555 1_555
H10 C6 1_555 1_555
C7 C4 1_555 1_555
H11 C7 1_555 1_555
H12 C7 1_555 1_555
H13 C7 1_555 1_555
C8 N1 1_555 1_555
C9 C10 1_555 1_555
C10 H14 1_555 1_555
C11 C10 1_555 1_555
C12 C11 1_555 1_555
H15 C12 1_555 1_555
C13 C12 1_555 1_555
H16 C13 1_555 1_555
C14 C9 1_555 1_555
H17 C14 1_555 1_555
C15 C9 1_555 1_555
H18 C15 1_555 1_555
H19 C15 1_555 1_555
H20 C15 1_555 1_555
C16 C11 1_555 1_555
H21 C16 1_555 1_555
H22 C16 1_555 1_555
H23 C16 1_555 1_555
N2 C8 1_555 1_555
N3 C8 1_555 1_555
C5 C6 1_555 1_555
C13 C14 1_555 1_555

#END
