
#######################################################################
#
#                 Cambridge Crystallographic Data Centre
#                                CCDC 
#
#######################################################################
#
# If this CIF has been generated from an entry in the Cambridge 
# Structural Database, then it will include bibliographic, chemical, 
# crystal, experimental, refinement or atomic coordinate data resulting 
# from the CCDC's data processing and validation procedures.
#
#######################################################################

data_MERNEC
_chemical_formula_moiety         'C1 H6 N3 1+,C6 H4 Cl1 O3 S1 1-'
_chemical_name_systematic        'Guanidinium (4-chlorobenzenesulfonate)'
_symmetry_cell_setting           monoclinic
_symmetry_space_group_name_H-M   'P 21/c'
_symmetry_Int_Tables_number      14
_space_group_name_Hall           '-P 2ybc'
loop_
_symmetry_equiv_pos_site_id
_symmetry_equiv_pos_as_xyz
1 x,y,z
2 x,1/2-y,1/2+z
3 -x,-y,-z
4 -x,1/2+y,1/2-z
_cell_length_a                   12.3307(15)
_cell_length_b                   7.4392(9)
_cell_length_c                   25.552(3)
_cell_angle_alpha                90
_cell_angle_beta                 95.476(2)
_cell_angle_gamma                90
_cell_volume                     2333.2
_exptl_crystal_colour            colorless
_exptl_crystal_description       'flat plate'
_cell_formula_units_Z            8
loop_
_atom_site_label
_atom_site_type_symbol
_atom_site_fract_x
_atom_site_fract_y
_atom_site_fract_z
Cl1 Cl 0.83647(7) 0.43189(12) 0.31307(3)
S1 S 0.95831(4) 0.33618(7) 0.08238(2)
O1 O 0.90968(11) 0.49388(19) 0.05559(6)
C1 C 0.92727(17) 0.3555(3) 0.14862(8)
O2 O 1.07638(11) 0.33525(19) 0.08353(6)
C2 C 0.9928(2) 0.4575(3) 0.18403(9)
H5 H 1.0569 0.5122 0.1735
O3 O 0.90755(11) 0.17011(19) 0.06276(6)
C3 C 0.9649(2) 0.4801(4) 0.23490(10)
H8 H 1.0098 0.5495 0.2595
C4 C 0.8717(2) 0.4011(3) 0.24939(9)
C5 C 0.8056(2) 0.2985(4) 0.21463(10)
H13 H 0.7414 0.2443 0.2252
C6 C 0.83435(18) 0.2755(3) 0.16377(9)
H16 H 0.7899 0.2045 0.1394
N1 N 1.02312(14) 0.8331(2) 0.05753(7)
H1 H 0.9881 0.7298 0.0562
H2 H 0.9865 0.9347 0.0563
N2 N 1.18632(14) 0.6828(2) 0.06337(7)
H3 H 1.1517 0.5792 0.0621
H4 H 1.2580 0.6850 0.0660
N3 N 1.18355(14) 0.9915(2) 0.06287(7)
H6 H 1.1469 1.0932 0.0612
H7 H 1.2552 0.9930 0.0655
C7 C 1.13056(17) 0.8355(3) 0.06144(8)
Cl2 Cl 0.69730(7) 0.89349(12) 0.32740(3)
S2 S 0.48678(4) 0.85623(7) 0.09438(2)
O4 O 0.57717(12) 0.85195(19) 0.06168(6)
O5 O 0.42377(12) 0.69041(19) 0.09083(6)
O6 O 0.41887(12) 1.01578(19) 0.08582(6)
C8 C 0.54717(17) 0.8708(3) 0.16027(9)
C9 C 0.64970(19) 0.7992(3) 0.17355(10)
H17 H 0.6886 0.7448 0.1474
C10 C 0.6952(2) 0.8071(4) 0.22510(10)
H18 H 0.7656 0.7581 0.2343
C11 C 0.6393(2) 0.8852(3) 0.26280(10)
C12 C 0.5371(2) 0.9577(4) 0.25011(10)
H19 H 0.4988 1.0120 0.2765
C13 C 0.4910(2) 0.9505(3) 0.19852(10)
H20 H 0.4207 1.0002 0.1894
N4 N 0.67419(14) 0.5045(2) 0.04201(8)
H9 H 0.6408 0.6079 0.0453
H10 H 0.7433 0.5026 0.0361
N5 N 0.51642(14) 0.3549(2) 0.05487(8)
H11 H 0.4832 0.4583 0.0582
H12 H 0.4806 0.2535 0.0575
N6 N 0.67000(14) 0.1962(2) 0.03986(7)
H14 H 0.6339 0.0947 0.0417
H15 H 0.7391 0.1943 0.0339
C14 C 0.62031(16) 0.3518(3) 0.04595(8)
loop_
_geom_bond_atom_site_label_1
_geom_bond_atom_site_label_2
_geom_bond_site_symmetry_1
_geom_bond_site_symmetry_2
Cl1 C4 1_555 1_555
S1 O1 1_555 1_555
N1 H1 1_555 1_555
H2 N1 1_555 1_555
C1 S1 1_555 1_555
Cl2 C11 1_555 1_555
S2 O4 1_555 1_555
O2 S1 1_555 1_555
N2 H3 1_555 1_555
H4 N2 1_555 1_555
C2 C1 1_555 1_555
H5 C2 1_555 1_555
O3 S1 1_555 1_555
N3 H6 1_555 1_555
H7 N3 1_555 1_555
C3 C2 1_555 1_555
H8 C3 1_555 1_555
N4 H9 1_555 1_555
H10 N4 1_555 1_555
C4 C3 1_555 1_555
O5 S2 1_555 1_555
N5 H11 1_555 1_555
H12 N5 1_555 1_555
C5 C4 1_555 1_555
H13 C5 1_555 1_555
O6 S2 1_555 1_555
N6 H14 1_555 1_555
H15 N6 1_555 1_555
C6 C1 1_555 1_555
H16 C6 1_555 1_555
C7 N1 1_555 1_555
C8 S2 1_555 1_555
C9 C8 1_555 1_555
H17 C9 1_555 1_555
C10 C9 1_555 1_555
H18 C10 1_555 1_555
C11 C10 1_555 1_555
C12 C11 1_555 1_555
H19 C12 1_555 1_555
C13 C8 1_555 1_555
H20 C13 1_555 1_555
C14 N4 1_555 1_555
N2 C7 1_555 1_555
N3 C7 1_555 1_555
N5 C14 1_555 1_555
C5 C6 1_555 1_555
N6 C14 1_555 1_555
C12 C13 1_555 1_555

#END
