
#######################################################################
#
#                 Cambridge Crystallographic Data Centre
#                                CCDC 
#
#######################################################################
#
# If this CIF has been generated from an entry in the Cambridge 
# Structural Database, then it will include bibliographic, chemical, 
# crystal, experimental, refinement or atomic coordinate data resulting 
# from the CCDC's data processing and validation procedures.
#
#######################################################################

data_MERNOM
_chemical_formula_moiety         'C1 H6 N3 1+,C6 H4 I1 O3 S1 1-,C8 H11 N1'
_chemical_name_systematic        
'Guanidinium (4-iodobenzenesulfonate) (N,N-dimethylaniline) clathrate'
_symmetry_cell_setting           orthorhombic
_symmetry_space_group_name_H-M   'P 21 21 21'
_symmetry_Int_Tables_number      19
_space_group_name_Hall           'P 2ac 2ab'
loop_
_symmetry_equiv_pos_site_id
_symmetry_equiv_pos_as_xyz
1 x,y,z
2 1/2-x,-y,1/2+z
3 1/2+x,1/2-y,-z
4 -x,1/2+y,1/2-z
_cell_length_a                   7.6099(14)
_cell_length_b                   12.003(2)
_cell_length_c                   21.641(4)
_cell_angle_alpha                90
_cell_angle_beta                 90
_cell_angle_gamma                90
_cell_volume                     1976.72
_exptl_crystal_colour            colorless
_exptl_crystal_description       'flat block'
_cell_formula_units_Z            4
loop_
_atom_site_label
_atom_site_type_symbol
_atom_site_fract_x
_atom_site_fract_y
_atom_site_fract_z
I1 I 0.16487(4) 0.84727(3) 0.898139(13)
S1 S 0.24294(11) 0.92616(7) 1.19981(4)
O1 O 0.2477(3) 0.81603(18) 1.22819(11)
C1 C 0.2264(4) 0.9051(3) 1.11874(15)
O2 O 0.0865(3) 0.9890(2) 1.21807(11)
C2 C 0.1262(5) 0.8178(3) 1.0970(2)
H5 H 0.0702 0.7688 1.1253
O3 O 0.4042(3) 0.98934(19) 1.20994(11)
C3 C 0.1070(6) 0.8014(4) 1.0339(2)
H8 H 0.0379 0.7416 1.0185
C4 C 0.1906(5) 0.8740(3) 0.99348(17)
C5 C 0.2913(5) 0.9609(4) 1.01498(19)
H9 H 0.3492 1.0092 0.9868
C6 C 0.3077(5) 0.9774(3) 1.07828(17)
H10 H 0.3746 1.0383 1.0936
N1 N 0.1011(4) 1.2254(3) 1.24213(14)
H1 H 0.0998 1.1539 1.2333
H2 H 0.0017 1.2625 1.2452
N2 N 0.4018(4) 1.2217(3) 1.24623(14)
H3 H 0.5024 1.2559 1.2529
H4 H 0.4007 1.1505 1.2365
N3 N 0.2553(4) 1.3842(2) 1.26548(14)
H6 H 0.3562 1.4180 1.2721
H7 H 0.1563 1.4216 1.2686
C7 C 0.2526(5) 1.2773(3) 1.25083(15)
N4 N 0.6722(5) 1.1843(3) 1.08227(16)
C8 C 0.6705(5) 1.1393(3) 1.02299(17)
C9 C 0.7460(6) 1.0354(4) 1.0107(2)
H11 H 0.8030 0.9958 1.0430
C10 C 0.7388(7) 0.9902(4) 0.9527(3)
H12 H 0.7902 0.9192 0.9456
C11 C 0.6583(7) 1.0452(5) 0.9042(2)
H13 H 0.6535 1.0130 0.8641
C12 C 0.5858(6) 1.1476(5) 0.91567(19)
H14 H 0.5300 1.1868 0.8830
C13 C 0.5921(6) 1.1951(4) 0.9737(2)
H15 H 0.5423 1.2668 0.9802
C14 C 0.6012(7) 1.2927(4) 1.0936(3)
H16 H 0.6627 1.3475 1.0680
H17 H 0.6164 1.3117 1.1374
H18 H 0.4758 1.2930 1.0833
C15 C 0.7629(6) 1.1260(4) 1.1309(2)
H19 H 0.7144 1.0507 1.1351
H20 H 0.7478 1.1664 1.1699
H21 H 0.8883 1.1212 1.1209
loop_
_geom_bond_atom_site_label_1
_geom_bond_atom_site_label_2
_geom_bond_site_symmetry_1
_geom_bond_site_symmetry_2
I1 C4 1_555 1_555
S1 O1 1_555 1_555
N1 H1 1_555 1_555
H2 N1 1_555 1_555
C1 S1 1_555 1_555
O2 S1 1_555 1_555
N2 H3 1_555 1_555
H4 N2 1_555 1_555
C2 C1 1_555 1_555
H5 C2 1_555 1_555
O3 S1 1_555 1_555
N3 H6 1_555 1_555
H7 N3 1_555 1_555
C3 C2 1_555 1_555
H8 C3 1_555 1_555
N4 C8 1_555 1_555
C4 C3 1_555 1_555
C5 C4 1_555 1_555
H9 C5 1_555 1_555
C6 C1 1_555 1_555
H10 C6 1_555 1_555
C7 N1 1_555 1_555
C8 C9 1_555 1_555
C9 H11 1_555 1_555
C10 C9 1_555 1_555
H12 C10 1_555 1_555
C11 C10 1_555 1_555
H13 C11 1_555 1_555
C12 C11 1_555 1_555
H14 C12 1_555 1_555
C13 C8 1_555 1_555
H15 C13 1_555 1_555
C14 N4 1_555 1_555
H16 C14 1_555 1_555
H17 C14 1_555 1_555
H18 C14 1_555 1_555
C15 N4 1_555 1_555
H19 C15 1_555 1_555
H20 C15 1_555 1_555
H21 C15 1_555 1_555
N2 C7 1_555 1_555
N3 C7 1_555 1_555
C5 C6 1_555 1_555
C12 C13 1_555 1_555

#END
