
#######################################################################
#
#                 Cambridge Crystallographic Data Centre
#                                CCDC 
#
#######################################################################
#
# If this CIF has been generated from an entry in the Cambridge 
# Structural Database, then it will include bibliographic, chemical, 
# crystal, experimental, refinement or atomic coordinate data resulting 
# from the CCDC's data processing and validation procedures.
#
#######################################################################

data_MERNIG
_chemical_formula_moiety         'C1 H6 N3 1+,C6 H4 I1 O3 S1 1-,C8 H10'
_chemical_name_systematic        
'Guanidinium (4-iodobenzenesulfonate) (p-xylene) clathrate'
_symmetry_cell_setting           monoclinic
_symmetry_space_group_name_H-M   'P 21/n'
_symmetry_Int_Tables_number      14
_space_group_name_Hall           '-P 2yn'
loop_
_symmetry_equiv_pos_site_id
_symmetry_equiv_pos_as_xyz
1 x,y,z
2 1/2+x,1/2-y,1/2+z
3 -x,-y,-z
4 1/2-x,1/2+y,1/2-z
_cell_length_a                   7.5753(14)
_cell_length_b                   21.325(4)
_cell_length_c                   11.599(2)
_cell_angle_alpha                90
_cell_angle_beta                 91.809(4)
_cell_angle_gamma                90
_cell_volume                     1872.81
_exptl_crystal_colour            colorless
_exptl_crystal_description       'flat block'
_cell_formula_units_Z            4
loop_
_atom_site_label
_atom_site_type_symbol
_atom_site_fract_x
_atom_site_fract_y
_atom_site_fract_z
I1 I 0.43257(6) 0.62462(2) 0.71922(5)
S1 S 0.55405(18) 0.31794(7) 0.77183(12)
O1 O 0.3989(4) 0.29684(18) 0.8328(3)
C1 C 0.5294(6) 0.4002(3) 0.7566(4)
O2 O 0.5568(4) 0.29199(16) 0.6554(3)
C2 C 0.5921(7) 0.4403(3) 0.8431(5)
H5 H 0.6538 0.4240 0.9091
O3 O 0.7177(4) 0.30778(18) 0.8386(3)
C3 C 0.5641(8) 0.5039(3) 0.8324(5)
H8 H 0.6072 0.5316 0.8909
C4 C 0.4735(7) 0.5275(3) 0.7367(5)
C5 C 0.4089(7) 0.4876(3) 0.6504(5)
H9 H 0.3451 0.5040 0.5853
C6 C 0.4383(7) 0.4244(3) 0.6603(5)
H10 H 0.3963 0.3969 0.6011
N1 N 0.0528(6) 0.2899(2) 0.7229(3)
H1 H -0.0469 0.2985 0.7564
H2 H 0.1544 0.2966 0.7598
N2 N 0.2028(6) 0.2537(2) 0.5664(4)
H3 H 0.2021 0.2384 0.4959
H4 H 0.3037 0.2606 0.6039
N3 N -0.1025(5) 0.2568(2) 0.5617(3)
H6 H -0.2019 0.2655 0.5957
H7 H -0.1050 0.2414 0.4913
C7 C 0.0501(7) 0.2667(2) 0.6165(5)
C8 C 0.9073(7) 0.5327(3) 1.0791(5)
H11 H 0.8428 0.5546 1.1352
C9 C 0.9693(7) 0.5646(3) 0.9864(5)
C10 C 0.9366(7) 0.4689(3) 1.0927(5)
H12 H 0.8911 0.4480 1.1577
C11 C 0.9336(8) 0.6338(3) 0.9711(5)
H13 H 1.0009 0.6497 0.9065
H14 H 0.9696 0.6561 1.0418
H15 H 0.8072 0.6404 0.9551
C10B C 1.0634(7) 0.5311(3) 0.9073(5)
C8B C 1.0927(7) 0.4673(3) 0.9209(5)
H11B H 1.1572 0.4454 0.8648
C9B C 1.0307(7) 0.4354(3) 1.0136(5)
C11B C 1.0664(8) 0.3662(3) 1.0289(5)
H13B H 0.9991 0.3503 1.0935
H14B H 1.0304 0.3439 0.9582
H15B H 1.1928 0.3596 1.0449
H12B H 1.1089 0.5520 0.8423
C12 C 0.0468(7) 0.5570(3) 0.4549(5)
H16 H 0.0808 0.5960 0.4231
C13 C -0.0401(7) 0.5562(3) 0.5601(5)
C14 C 0.0836(7) 0.5026(3) 0.3970(5)
H17 H 0.1406 0.5051 0.3254
C15 C -0.0817(8) 0.6154(3) 0.6232(5)
H18 H -0.1217 0.6051 0.7005
H19 H -0.1751 0.6383 0.5806
H20 H 0.0244 0.6416 0.6298
C14B C -0.0836(7) 0.4974(3) 0.6030(5)
C12B C -0.0468(7) 0.4430(3) 0.5451(5)
H16B H -0.0808 0.4040 0.5769
C13B C 0.0401(7) 0.4438(3) 0.4399(5)
C15B C 0.0817(8) 0.3846(3) 0.3768(5)
H18B H 0.1217 0.3949 0.2995
H19B H 0.1751 0.3617 0.4194
H20B H -0.0244 0.3584 0.3702
H17B H -0.1406 0.4949 0.6746
loop_
_geom_bond_atom_site_label_1
_geom_bond_atom_site_label_2
_geom_bond_site_symmetry_1
_geom_bond_site_symmetry_2
I1 C4 1_555 1_555
S1 O1 1_555 1_555
N1 H1 1_555 1_555
H2 N1 1_555 1_555
C1 S1 1_555 1_555
O2 S1 1_555 1_555
N2 H3 1_555 1_555
H4 N2 1_555 1_555
C2 C1 1_555 1_555
H5 C2 1_555 1_555
O3 S1 1_555 1_555
N3 H6 1_555 1_555
H7 N3 1_555 1_555
C3 C2 1_555 1_555
H8 C3 1_555 1_555
C4 C3 1_555 1_555
C5 C4 1_555 1_555
H9 C5 1_555 1_555
C6 C1 1_555 1_555
H10 C6 1_555 1_555
C7 N1 1_555 1_555
C8 H11 1_555 1_555
C9 C8 1_555 1_555
C10 C8 1_555 1_555
H12 C10 1_555 1_555
C11 C9 1_555 1_555
H13 C11 1_555 1_555
H14 C11 1_555 1_555
H15 C11 1_555 1_555
C12 H16 1_555 1_555
C13 C12 1_555 1_555
C14 C12 1_555 1_555
H17 C14 1_555 1_555
C15 C13 1_555 1_555
H18 C15 1_555 1_555
H19 C15 1_555 1_555
H20 C15 1_555 1_555
C10B C9 1_555 1_555
C8B C10B 1_555 1_555
H11B C8B 1_555 1_555
C9B C10 1_555 1_555
C11B C9B 1_555 1_555
H13B C11B 1_555 1_555
H14B C11B 1_555 1_555
H15B C11B 1_555 1_555
H12B C10B 1_555 1_555
C14B C13 1_555 1_555
C12B C14B 1_555 1_555
H16B C12B 1_555 1_555
C13B C14 1_555 1_555
C15B C13B 1_555 1_555
H18B C15B 1_555 1_555
H19B C15B 1_555 1_555
H20B C15B 1_555 1_555
H17B C14B 1_555 1_555
N2 C7 1_555 1_555
N3 C7 1_555 1_555
C5 C6 1_555 1_555
C8B C9B 1_555 1_555
C12B C13B 1_555 1_555

#END
