
#######################################################################
#
#                 Cambridge Crystallographic Data Centre
#                                CCDC 
#
#######################################################################
#
# If this CIF has been generated from an entry in the Cambridge 
# Structural Database, then it will include bibliographic, chemical, 
# crystal, experimental, refinement or atomic coordinate data resulting 
# from the CCDC's data processing and validation procedures.
#
#######################################################################

data_MERPII
_chemical_formula_moiety         'C1 H6 N3 1+,C6 H5 O3 S1 1-,C8 H10'
_chemical_name_systematic        
'Guanidinium (benzenesulfonate) (p-xylene) clathrate'
_symmetry_cell_setting           orthorhombic
_symmetry_space_group_name_H-M   'P n a 21'
_symmetry_Int_Tables_number      33
_space_group_name_Hall           'P 2c -2n'
loop_
_symmetry_equiv_pos_site_id
_symmetry_equiv_pos_as_xyz
1 x,y,z
2 -x,-y,1/2+z
3 1/2-x,1/2+y,1/2+z
4 1/2+x,1/2-y,z
_cell_length_a                   19.965(4)
_cell_length_b                   11.539(2)
_cell_length_c                   7.4838(15)
_cell_angle_alpha                90
_cell_angle_beta                 90
_cell_angle_gamma                90
_cell_volume                     1724.09
_exptl_crystal_colour            colorless
_exptl_crystal_description       'flat block'
_cell_formula_units_Z            4
loop_
_atom_site_label
_atom_site_type_symbol
_atom_site_fract_x
_atom_site_fract_y
_atom_site_fract_z
S1 S 0.672519(19) 0.14741(3) 0.88713(9)
O1 O 0.69787(6) 0.02897(9) 0.8818(3)
C1 C 0.58432(8) 0.13750(13) 0.9037(3)
O2 O 0.68739(8) 0.21123(13) 0.72218(18)
C2 C 0.55166(9) 0.04000(15) 0.8389(3)
H5 H 0.5765 -0.0222 0.7886
O3 O 0.69480(8) 0.21031(13) 1.04509(19)
C3 C 0.48212(9) 0.03413(17) 0.8482(3)
H8 H 0.4591 -0.0318 0.8033
C4 C 0.44667(10) 0.12502(19) 0.9232(3)
H9 H 0.3992 0.1210 0.9302
C5 C 0.47941(11) 0.22113(19) 0.9879(3)
H10 H 0.4544 0.2828 1.0392
C6 C 0.54873(10) 0.22871(16) 0.9786(3)
H11 H 0.5714 0.2952 1.0229
N1 N 0.25936(10) 0.06590(17) 1.0360(3)
H1 H 0.2715 0.0337 1.1376
H2 H 0.2383 0.1329 1.0364
N2 N 0.25533(10) 0.06332(17) 0.7292(2)
H3 H 0.2349 0.1309 0.7293
H4 H 0.2643 0.0284 0.6274
N3 N 0.30458(7) -0.08768(11) 0.8828(3)
H6 H 0.3167 -0.1199 0.9843
H7 H 0.3135 -0.1225 0.7808
C7 C 0.27271(7) 0.01372(13) 0.8833(4)
C8 C 0.94597(8) 0.91909(16) 0.8780(4)
C9 C 0.95455(12) 0.81310(19) 0.9627(3)
H12 H 0.9164 0.7713 1.0028
C10 C 1.01769(12) 0.76741(17) 0.9896(3)
H13 H 1.0222 0.6950 1.0486
C11 C 1.07433(11) 0.82477(17) 0.9324(3)
C12 C 1.06580(9) 0.93074(17) 0.8481(3)
H14 H 1.1040 0.9726 0.8087
C13 C 1.00286(11) 0.97640(17) 0.8206(3)
H15 H 0.9985 1.0487 0.7609
C14 C 0.87691(11) 0.9694(3) 0.8500(5)
H16 H 0.8712 1.0376 0.9267
H17 H 0.8431 0.9112 0.8804
H18 H 0.8717 0.9922 0.7246
C15 C 1.14298(15) 0.7735(2) 0.9613(5)
H19 H 1.1650 0.8132 1.0611
H20 H 1.1698 0.7831 0.8527
H21 H 1.1387 0.6908 0.9890
loop_
_geom_bond_atom_site_label_1
_geom_bond_atom_site_label_2
_geom_bond_site_symmetry_1
_geom_bond_site_symmetry_2
S1 O1 1_555 1_555
N1 H1 1_555 1_555
H2 N1 1_555 1_555
C1 S1 1_555 1_555
O2 S1 1_555 1_555
N2 H3 1_555 1_555
H4 N2 1_555 1_555
C2 C1 1_555 1_555
H5 C2 1_555 1_555
O3 S1 1_555 1_555
N3 H6 1_555 1_555
H7 N3 1_555 1_555
C3 C2 1_555 1_555
H8 C3 1_555 1_555
C4 C3 1_555 1_555
H9 C4 1_555 1_555
C5 C4 1_555 1_555
H10 C5 1_555 1_555
C6 C1 1_555 1_555
H11 C6 1_555 1_555
C7 N1 1_555 1_555
C8 C9 1_555 1_555
C9 H12 1_555 1_555
C10 C9 1_555 1_555
H13 C10 1_555 1_555
C11 C10 1_555 1_555
C12 C11 1_555 1_555
H14 C12 1_555 1_555
C13 C8 1_555 1_555
H15 C13 1_555 1_555
C14 C8 1_555 1_555
H16 C14 1_555 1_555
H17 C14 1_555 1_555
H18 C14 1_555 1_555
C15 C11 1_555 1_555
H19 C15 1_555 1_555
H20 C15 1_555 1_555
H21 C15 1_555 1_555
N2 C7 1_555 1_555
N3 C7 1_555 1_555
C5 C6 1_555 1_555
C12 C13 1_555 1_555

#END
