
#######################################################################
#
#                 Cambridge Crystallographic Data Centre
#                                CCDC 
#
#######################################################################
#
# If this CIF has been generated from an entry in the Cambridge 
# Structural Database, then it will include bibliographic, chemical, 
# crystal, experimental, refinement or atomic coordinate data resulting 
# from the CCDC's data processing and validation procedures.
#
#######################################################################

data_MERSOS01
_chemical_formula_moiety         'C17 H14 N2 O1 S1'
_chemical_name_systematic        
2-Benzoylimino-3-phenyl-4-methyl-1,3-thiazoline
_symmetry_cell_setting           triclinic
_symmetry_space_group_name_H-M   'P -1'
_symmetry_Int_Tables_number      2
_space_group_name_Hall           '-P 1'
loop_
_symmetry_equiv_pos_site_id
_symmetry_equiv_pos_as_xyz
1 x,y,z
2 -x,-y,-z
_cell_length_a                   9.635(3)
_cell_length_b                   9.962(3)
_cell_length_c                   16.258(4)
_cell_angle_alpha                97.177(4)
_cell_angle_beta                 92.595(4)
_cell_angle_gamma                97.864(4)
_cell_volume                     1530.63
_chemical_melting_point          156-157deg.C
_cell_formula_units_Z            4
loop_
_atom_site_label
_atom_site_type_symbol
_atom_site_fract_x
_atom_site_fract_y
_atom_site_fract_z
S1 S 0.37890(6) 0.35754(6) 0.41661(4)
O1 O 0.35659(18) 0.27247(15) 0.56136(10)
N1 N 0.27704(18) 0.58128(17) 0.43747(10)
N2 N 0.26403(17) 0.47310(15) 0.55630(10)
C1 C 0.2993(2) 0.47598(19) 0.47960(12)
C2 C 0.3210(3) 0.5703(2) 0.35597(13)
C3 C 0.3765(3) 0.4565(3) 0.33620(15)
H1 H 0.4105 0.4324 0.2846
C4 C 0.3002(4) 0.6793(3) 0.30346(17)
H2 H 0.3391 0.6591 0.2508
H3 H 0.3464 0.7659 0.3309
H4 H 0.2016 0.6831 0.2949
C5 C 0.2253(2) 0.7011(2) 0.47764(12)
C6 C 0.3184(3) 0.8182(2) 0.50130(15)
H5 H 0.4130 0.8202 0.4914
C7 C 0.2706(3) 0.9326(3) 0.53987(18)
H6 H 0.3328 1.0126 0.5558
C8 C 0.1315(3) 0.9287(3) 0.55475(18)
H7 H 0.0997 1.0057 0.5815
C9 C 0.0384(3) 0.8112(3) 0.53033(18)
H8 H -0.0561 0.8091 0.5402
C10 C 0.0857(2) 0.6965(2) 0.49108(15)
H9 H 0.0233 0.6171 0.4740
C11 C 0.2967(2) 0.36537(18) 0.59405(13)
C12 C 0.2539(2) 0.36647(18) 0.68107(12)
C13 C 0.2942(2) 0.2708(2) 0.72903(16)
H10 H 0.3467 0.2054 0.7063
C14 C 0.2572(3) 0.2715(3) 0.80998(17)
H11 H 0.2860 0.2075 0.8416
C15 C 0.1792(3) 0.3648(3) 0.84379(16)
H12 H 0.1546 0.3654 0.8985
C16 C 0.1369(4) 0.4581(3) 0.79691(18)
H13 H 0.0819 0.5212 0.8198
C17 C 0.1744(3) 0.4603(2) 0.71600(16)
H14 H 0.1457 0.5254 0.6852
S2 S 0.91426(6) 1.12051(5) 0.91485(4)
O2 O 0.80759(18) 1.19883(16) 1.05280(12)
N3 N 0.83234(16) 0.86391(15) 0.89144(10)
N4 N 0.74263(17) 0.96797(15) 1.01060(10)
C18 C 0.81849(19) 0.97639(18) 0.94622(12)
C19 C 0.9127(2) 0.8904(2) 0.82418(13)
C20 C 0.9624(2) 1.0230(2) 0.82870(16)
H15 H 1.0178 1.0593 0.7891
C21 C 0.9321(3) 0.7783(3) 0.75811(14)
H16 H 0.9861 0.8155 0.7159
H17 H 0.8421 0.7342 0.7340
H18 H 0.9807 0.7129 0.7818
C22 C 0.7689(2) 0.72829(18) 0.90371(11)
C23 C 0.6256(2) 0.6941(2) 0.89462(13)
H19 H 0.5689 0.7582 0.8820
C24 C 0.5669(3) 0.5633(3) 0.90444(16)
H20 H 0.4699 0.5389 0.8987
C25 C 0.6516(3) 0.4683(2) 0.92275(15)
H21 H 0.6113 0.3803 0.9293
C26 C 0.7948(3) 0.5033(2) 0.93125(14)
H22 H 0.8514 0.4388 0.9430
C27 C 0.8548(2) 0.6340(2) 0.92242(12)
H23 H 0.9517 0.6586 0.9289
C28 C 0.7397(2) 1.0871(2) 1.06146(14)
C29 C 0.6476(2) 1.0759(2) 1.13213(13)
C30 C 0.5341(2) 0.9740(2) 1.12919(14)
H24 H 0.5151 0.9081 1.0828
C31 C 0.4483(3) 0.9698(3) 1.19534(17)
H25 H 0.3706 0.9025 1.1928
C32 C 0.4785(3) 1.0660(3) 1.26508(17)
H26 H 0.4221 1.0618 1.3099
C33 C 0.5900(3) 1.1665(3) 1.26870(17)
H27 H 0.6101 1.2306 1.3159
C34 C 0.6728(3) 1.1732(3) 1.20230(16)
H28 H 0.7470 1.2441 1.2043
loop_
_geom_bond_atom_site_label_1
_geom_bond_atom_site_label_2
_geom_bond_site_symmetry_1
_geom_bond_site_symmetry_2
S1 C1 1_555 1_555
S2 C18 1_555 1_555
O1 C11 1_555 1_555
O2 C28 1_555 1_555
N1 C1 1_555 1_555
N2 C1 1_555 1_555
N3 C18 1_555 1_555
N4 C18 1_555 1_555
C2 N1 1_555 1_555
C3 S1 1_555 1_555
H1 C3 1_555 1_555
C4 C2 1_555 1_555
H2 C4 1_555 1_555
H3 C4 1_555 1_555
H4 C4 1_555 1_555
C5 N1 1_555 1_555
C6 C5 1_555 1_555
H5 C6 1_555 1_555
C7 C6 1_555 1_555
H6 C7 1_555 1_555
C8 C7 1_555 1_555
H7 C8 1_555 1_555
C9 C8 1_555 1_555
H8 C9 1_555 1_555
C10 C5 1_555 1_555
H9 C10 1_555 1_555
C11 N2 1_555 1_555
C12 C11 1_555 1_555
C13 C12 1_555 1_555
H10 C13 1_555 1_555
C14 C13 1_555 1_555
H11 C14 1_555 1_555
C15 C14 1_555 1_555
H12 C15 1_555 1_555
C16 C15 1_555 1_555
H13 C16 1_555 1_555
C17 C12 1_555 1_555
H14 C17 1_555 1_555
C19 N3 1_555 1_555
C20 S2 1_555 1_555
H15 C20 1_555 1_555
C21 C19 1_555 1_555
H16 C21 1_555 1_555
H17 C21 1_555 1_555
H18 C21 1_555 1_555
C22 N3 1_555 1_555
C23 C22 1_555 1_555
H19 C23 1_555 1_555
C24 C23 1_555 1_555
H20 C24 1_555 1_555
C25 C24 1_555 1_555
H21 C25 1_555 1_555
C26 C25 1_555 1_555
H22 C26 1_555 1_555
C27 C22 1_555 1_555
H23 C27 1_555 1_555
C28 N4 1_555 1_555
C29 C28 1_555 1_555
C30 C29 1_555 1_555
H24 C30 1_555 1_555
C31 C30 1_555 1_555
H25 C31 1_555 1_555
C32 C31 1_555 1_555
H26 C32 1_555 1_555
C33 C32 1_555 1_555
H27 C33 1_555 1_555
C34 C29 1_555 1_555
H28 C34 1_555 1_555
C2 C3 1_555 1_555
C9 C10 1_555 1_555
C16 C17 1_555 1_555
C19 C20 1_555 1_555
C26 C27 1_555 1_555
C33 C34 1_555 1_555

#END
