
#######################################################################
#
#                 Cambridge Crystallographic Data Centre
#                                CCDC 
#
#######################################################################
#
# If this CIF has been generated from an entry in the Cambridge 
# Structural Database, then it will include bibliographic, chemical, 
# crystal, experimental, refinement or atomic coordinate data resulting 
# from the CCDC's data processing and validation procedures.
#
#######################################################################

data_MERSUX
_chemical_formula_moiety         '2(C1 H6 N3 1+),C12 H8 O6 S2 2-,0.75(C12 H12)'
_chemical_name_systematic        
"bis(Guanidinium) (4,4'-biphenyldisulfonate) (1,7-dimethylnaphthalene) clathrate"
_symmetry_cell_setting           triclinic
_symmetry_space_group_name_H-M   'P -1'
_symmetry_Int_Tables_number      2
_space_group_name_Hall           '-P 1'
loop_
_symmetry_equiv_pos_site_id
_symmetry_equiv_pos_as_xyz
1 x,y,z
2 -x,-y,-z
_cell_length_a                   6.2313(8)
_cell_length_b                   7.1774(10)
_cell_length_c                   14.736(2)
_cell_angle_alpha                78.793(2)
_cell_angle_beta                 89.763(2)
_cell_angle_gamma                86.279(2)
_cell_volume                     645.106
_exptl_crystal_colour            colorless
_exptl_crystal_description       plate
_cell_formula_units_Z            1
loop_
_atom_site_label
_atom_site_type_symbol
_atom_site_fract_x
_atom_site_fract_y
_atom_site_fract_z
N1 N 0.1701(3) 1.2591(3) 0.90296(18)
H1 H 0.2476 1.3581 0.9006
H2 H 0.2336 1.1462 0.9024
N2 N -0.1554(3) 1.1292(2) 0.90813(13)
H3 H -0.0900 1.0178 0.9057
H4 H -0.2966 1.1410 0.9111
N3 N -0.1366(3) 1.4488(2) 0.90823(13)
H5 H -0.0595 1.5480 0.9059
H6 H -0.2777 1.4622 0.9112
C3 C -0.0407(3) 1.2798(3) 0.90736(16)
S1 S 0.33607(8) 0.78153(6) 0.85822(4)
O1 O 0.4457(2) 0.90578(19) 0.90716(11)
C1 C 0.3892(3) 0.8580(3) 0.73892(15)
O2 O 0.1027(2) 0.79842(18) 0.86758(10)
O3 O 0.4221(2) 0.58359(18) 0.88221(10)
C2 C 0.4772(3) 0.9708(3) 0.55036(15)
C4 C 0.5867(9) 0.9043(8) 0.7173(4)
H7 H 0.6950 0.8999 0.7630
C5 C 0.6266(9) 0.9599(8) 0.6238(4)
H8 H 0.7683 0.9942 0.6071
C6 C 0.2673(14) 0.9305(11) 0.5896(6)
H9 H 0.1495 0.9422 0.5477
C7 C 0.2250(15) 0.8770(11) 0.6820(7)
H10 H 0.0834 0.8548 0.7037
C2A C 0.5228(3) 1.0292(3) 0.44964(15)
C5A C 0.3734(9) 1.0401(8) 0.3762(4)
C4A C 0.4133(9) 1.0957(8) 0.2827(4)
C1A C 0.6108(3) 1.1420(3) 0.26108(15)
S1A S 0.66393(8) 1.21847(6) 0.14178(4)
O1A O 0.5543(2) 1.09422(19) 0.09284(11)
O2A O 0.8973(2) 1.20158(18) 0.13242(10)
O3A O 0.5779(2) 1.41641(18) 0.11779(10)
C7A C 0.7750(15) 1.1230(11) 0.3180(7)
C6A C 0.7327(14) 1.0695(11) 0.4104(6)
H9A H 0.8505 1.0578 0.4523
H10A H 0.9166 1.1452 0.2963
H7A H 0.3050 1.1001 0.2370
H8A H 0.2317 1.0058 0.3929
C8? C 0.5950(9) 0.8100(10) 0.6975(4)
H11? H 0.7033 0.7369 0.7366
C9? C 0.6394(9) 0.8655(9) 0.6047(4)
H12? H 0.7742 0.8330 0.5796
C10? C 0.2845(14) 1.0134(8) 0.5780(6)
H13? H 0.1784 1.0803 0.5357
C11? C 0.2395(15) 0.9579(9) 0.6710(7)
H14? H 0.0987 0.9887 0.6910
loop_
_geom_bond_atom_site_label_1
_geom_bond_atom_site_label_2
_geom_bond_site_symmetry_1
_geom_bond_site_symmetry_2
S1 O1 1_555 1_555
N1 H1 1_555 1_555
H2 N1 1_555 1_555
C1 S1 1_555 1_555
O2 S1 1_555 1_555
N2 H3 1_555 1_555
H4 N2 1_555 1_555
O3 S1 1_555 1_555
N3 H5 1_555 1_555
H6 N3 1_555 1_555
C2 C5 1_555 1_555
C3 N1 1_555 1_555
C4 C1 1_555 1_555
H7 C4 1_555 1_555
C5 C4 1_555 1_555
H8 C5 1_555 1_555
C6 C2 1_555 1_555
H9 C6 1_555 1_555
C7 C1 1_555 1_555
H10 C7 1_555 1_555
C2A C2 1_555 1_555
C5A C2A 1_555 1_555
C4A C5A 1_555 1_555
C1A C4A 1_555 1_555
S1A C1A 1_555 1_555
O1A S1A 1_555 1_555
O2A S1A 1_555 1_555
O3A S1A 1_555 1_555
C7A C1A 1_555 1_555
C6A C2A 1_555 1_555
H9A C6A 1_555 1_555
H10A C7A 1_555 1_555
H7A C4A 1_555 1_555
H8A C5A 1_555 1_555
N2 C3 1_555 1_555
N3 C3 1_555 1_555
C6 C7 1_555 1_555
C7A C6A 1_555 1_555

#END
