
#######################################################################
#
#                 Cambridge Crystallographic Data Centre
#                                CCDC 
#
#######################################################################
#
# If this CIF has been generated from an entry in the Cambridge 
# Structural Database, then it will include bibliographic, chemical, 
# crystal, experimental, refinement or atomic coordinate data resulting 
# from the CCDC's data processing and validation procedures.
#
#######################################################################

data_MERTUY
_chemical_formula_moiety         '2(C1 H6 N3 1+),C12 H8 O6 S2 2-,3(C12 H12)'
_chemical_name_systematic        
"bis(Guanidinium) (4,4'-biphenyldisulfonate) tris(2,6-dimethylnaphthalene) clathrate"
_symmetry_cell_setting           monoclinic
_symmetry_space_group_name_H-M   'P 21/n'
_symmetry_Int_Tables_number      14
_space_group_name_Hall           '-P 2yn'
loop_
_symmetry_equiv_pos_site_id
_symmetry_equiv_pos_as_xyz
1 x,y,z
2 1/2+x,1/2-y,1/2+z
3 -x,-y,-z
4 1/2-x,1/2+y,1/2-z
_cell_length_a                   7.5382(5)
_cell_length_b                   25.5444(16)
_cell_length_c                   11.9693(8)
_cell_angle_alpha                90
_cell_angle_beta                 92.6560(10)
_cell_angle_gamma                90
_cell_volume                     2302.32
_exptl_crystal_colour            colorless
_exptl_crystal_description       prism
_cell_formula_units_Z            2
loop_
_atom_site_label
_atom_site_type_symbol
_atom_site_fract_x
_atom_site_fract_y
_atom_site_fract_z
S1 S 0.40479(5) 0.204734(18) 0.55202(4)
O1 O 0.55724(15) 0.22799(5) 0.49909(10)
O2 O 0.40476(16) 0.21653(5) 0.67098(10)
O3 O 0.23853(15) 0.21840(5) 0.49183(10)
C1 C 0.3731(2) 0.11212(7) 0.43899(15)
H3 H 0.3157 0.1320 0.3808
C2 C 0.4295(2) 0.13626(7) 0.53817(14)
C3 C 0.4854(2) 0.02868(7) 0.50817(14)
C7 C 0.5136(2) 0.10691(8) 0.62250(16)
H10 H 0.5524 0.1232 0.6907
C8 C 0.4004(2) 0.05914(7) 0.42477(15)
H11 H 0.3605 0.0430 0.3566
C10 C 0.5409(3) 0.05393(8) 0.60720(16)
H12 H 0.5988 0.0342 0.6655
C3B C 0.5146(2) -0.02868(7) 0.49183(14)
C8B C 0.5996(2) -0.05914(7) 0.57523(15)
C1B C 0.6269(2) -0.11212(7) 0.56101(15)
H3B H 0.6843 -0.1320 0.6192
C2B C 0.5705(2) -0.13626(7) 0.46183(14)
S1B S 0.59521(5) -0.204734(18) 0.44798(4)
O1B O 0.44276(15) -0.22799(5) 0.50091(10)
O2B O 0.59524(16) -0.21653(5) 0.32902(10)
O3B O 0.76147(15) -0.21840(5) 0.50817(10)
C7B C 0.4864(2) -0.10691(8) 0.37750(16)
H10B H 0.4476 -0.1232 0.3093
C10B C 0.4591(3) -0.05393(8) 0.39280(16)
H12B H 0.4012 -0.0342 0.3345
H11B H 0.6395 -0.0430 0.6434
N1 N 0.9080(2) 0.23095(6) 0.60135(13)
H1 H 0.8057 0.2266 0.5640
H2 H 1.0079 0.2242 0.5690
N2 N 0.76102(19) 0.25785(6) 0.75489(13)
H4 H 0.6586 0.2535 0.7177
H5 H 0.7636 0.2689 0.8245
N3 N 1.0659(2) 0.25437(7) 0.76200(13)
H7 H 1.1659 0.2477 0.7295
H8 H 1.0684 0.2655 0.8317
C6 C 0.9115(2) 0.24762(7) 0.70593(15)
C4 C 1.1025(2) -0.03981(8) 0.13366(16)
H6 H 1.1559 -0.0339 0.0644
C5 C 0.9128(2) 0.03834(8) 0.36357(15)
H9 H 0.8602 0.0325 0.4331
C9 C 0.9318(2) 0.08877(8) 0.32633(16)
C11 C 0.9480(2) -0.05737(8) 0.33699(16)
H13 H 0.8957 -0.0641 0.4063
C12 C 1.0487(2) 0.00364(7) 0.19746(15)
C13 C 0.9694(2) -0.00509(7) 0.30142(15)
C14 C 1.0692(2) 0.05595(8) 0.16064(16)
H14 H 1.1229 0.0626 0.0918
C15 C 1.0012(2) -0.09839(8) 0.27325(16)
H15 H 0.9855 -0.1332 0.2992
C16 C 1.0123(2) 0.09694(8) 0.22318(17)
H16 H 1.0271 0.1317 0.1968
C17 C 1.0793(2) -0.09010(8) 0.16947(16)
C18 C 0.8690(3) 0.13487(9) 0.39251(19)
H17 H 0.8284 0.1227 0.4646
H18 H 0.7707 0.1522 0.3507
H19 H 0.9670 0.1597 0.4052
C19 C 1.1357(3) -0.13625(8) 0.10018(19)
H20 H 1.1718 -0.1238 0.0272
H21 H 1.0361 -0.1607 0.0896
H22 H 1.2358 -0.1541 0.1389
C20 C 0.4559(2) 0.00338(8) 0.94651(16)
C21 C 0.5717(3) -0.09687(9) 1.01916(18)
C22 C 0.4275(2) -0.04121(9) 0.87837(16)
H23 H 0.3690 -0.0374 0.8068
C23 C 0.4825(3) -0.08958(9) 0.91339(18)
H24 H 0.4607 -0.1190 0.8661
C24 C 0.3993(2) 0.05426(8) 0.91365(17)
H25 H 0.3394 0.0588 0.8427
C25 C 0.6328(3) -0.15089(10) 1.0541(2)
H26 H 0.6836 -0.1497 1.1310
H27 H 0.7231 -0.1631 1.0039
H28 H 0.5314 -0.1749 1.0503
C20B C 0.5441(2) -0.00338(8) 1.05349(16)
C22B C 0.5725(2) 0.04121(9) 1.12163(16)
H23B H 0.6310 0.0374 1.1932
C23B C 0.5175(3) 0.08958(9) 1.08661(18)
C21B C 0.4283(3) 0.09687(9) 0.98084(18)
C24B C 0.6007(2) -0.05426(8) 1.08635(17)
H25B H 0.6606 -0.0588 1.1573
C25B C 0.3672(3) 0.15089(10) 0.9459(2)
H26B H 0.3164 0.1497 0.8690
H27B H 0.2769 0.1631 0.9961
H28B H 0.4686 0.1749 0.9497
H24B H 0.5393 0.1190 1.1339
loop_
_geom_bond_atom_site_label_1
_geom_bond_atom_site_label_2
_geom_bond_site_symmetry_1
_geom_bond_site_symmetry_2
S1 O1 1_555 1_555
O2 S1 1_555 1_555
O3 S1 1_555 1_555
N1 H1 1_555 1_555
H2 N1 1_555 1_555
C1 H3 1_555 1_555
C2 S1 1_555 1_555
N2 H4 1_555 1_555
H5 N2 1_555 1_555
C3 C8 1_555 1_555
C4 H6 1_555 1_555
N3 H7 1_555 1_555
H8 N3 1_555 1_555
C5 H9 1_555 1_555
C6 N1 1_555 1_555
C7 C2 1_555 1_555
H10 C7 1_555 1_555
C8 C1 1_555 1_555
H11 C8 1_555 1_555
C9 C5 1_555 1_555
C10 C3 1_555 1_555
H12 C10 1_555 1_555
C11 H13 1_555 1_555
C12 C4 1_555 1_555
C13 C5 1_555 1_555
C14 C12 1_555 1_555
H14 C14 1_555 1_555
C15 C11 1_555 1_555
H15 C15 1_555 1_555
C16 C9 1_555 1_555
H16 C16 1_555 1_555
C17 C4 1_555 1_555
C18 C9 1_555 1_555
H17 C18 1_555 1_555
H18 C18 1_555 1_555
H19 C18 1_555 1_555
C19 C17 1_555 1_555
H20 C19 1_555 1_555
H21 C19 1_555 1_555
H22 C19 1_555 1_555
C20 C22 1_555 1_555
C21 C23 1_555 1_555
C22 H23 1_555 1_555
C23 C22 1_555 1_555
H24 C23 1_555 1_555
C24 C20 1_555 1_555
H25 C24 1_555 1_555
C25 C21 1_555 1_555
H26 C25 1_555 1_555
H27 C25 1_555 1_555
H28 C25 1_555 1_555
C3B C3 1_555 1_555
C8B C3B 1_555 1_555
C1B C8B 1_555 1_555
H3B C1B 1_555 1_555
C2B C1B 1_555 1_555
S1B C2B 1_555 1_555
O1B S1B 1_555 1_555
O2B S1B 1_555 1_555
O3B S1B 1_555 1_555
C7B C2B 1_555 1_555
H10B C7B 1_555 1_555
C10B C3B 1_555 1_555
H12B C10B 1_555 1_555
H11B C8B 1_555 1_555
C20B C20 1_555 1_555
C22B C20B 1_555 1_555
H23B C22B 1_555 1_555
C23B C22B 1_555 1_555
C21B C24 1_555 1_555
C24B C21 1_555 1_555
H25B C24B 1_555 1_555
C25B C21B 1_555 1_555
H26B C25B 1_555 1_555
H27B C25B 1_555 1_555
H28B C25B 1_555 1_555
H24B C23B 1_555 1_555
C1 C2 1_555 1_555
N2 C6 1_555 1_555
N3 C6 1_555 1_555
C7 C10 1_555 1_555
C11 C13 1_555 1_555
C12 C13 1_555 1_555
C14 C16 1_555 1_555
C15 C17 1_555 1_555
C7B C10B 1_555 1_555
C20B C24B 1_555 1_555
C23B C21B 1_555 1_555

#END
