
#######################################################################
#
#                 Cambridge Crystallographic Data Centre
#                                CCDC 
#
#######################################################################
#
# If this CIF has been generated from an entry in the Cambridge 
# Structural Database, then it will include bibliographic, chemical, 
# crystal, experimental, refinement or atomic coordinate data resulting 
# from the CCDC's data processing and validation procedures.
#
#######################################################################

data_MERTEI
_chemical_formula_moiety         '2(C1 H6 N3 1+),C12 H8 O6 S2 2-,C12 H12'
_chemical_name_systematic        
"bis(Guanidinium)(4,4'-biphenyldisulfonate) (1,8-dimethylnaphthalene) clathrate"
_symmetry_cell_setting           orthorhombic
_symmetry_space_group_name_H-M   'P n a 21'
_symmetry_Int_Tables_number      33
_space_group_name_Hall           'P 2c -2n'
loop_
_symmetry_equiv_pos_site_id
_symmetry_equiv_pos_as_xyz
1 x,y,z
2 -x,-y,1/2+z
3 1/2-x,1/2+y,1/2+z
4 1/2+x,1/2-y,z
_cell_length_a                   17.3485(12)
_cell_length_b                   7.4584(5)
_cell_length_c                   21.6256(15)
_cell_angle_alpha                90
_cell_angle_beta                 90
_cell_angle_gamma                90
_cell_volume                     2798.18
_exptl_crystal_colour            colorless
_exptl_crystal_description       plate
_cell_formula_units_Z            4
loop_
_atom_site_label
_atom_site_type_symbol
_atom_site_fract_x
_atom_site_fract_y
_atom_site_fract_z
N1 N -0.0419(3) 0.5869(7) 0.1759(3)
H1 H -0.0104 0.5872 0.1440
H2 H -0.0577 0.4846 0.1917
N2 N -0.0403(3) 0.8952(7) 0.1749(3)
H3 H -0.0088 0.8911 0.1430
H4 H -0.0549 0.9993 0.1900
N3 N -0.1122(3) 0.7455(5) 0.2530(2)
H6 H -0.1252 0.8484 0.2699
H7 H -0.1285 0.6442 0.2692
C13 C -0.0658(5) 0.7429(7) 0.2005(4)
N4 N 0.7926(3) 0.6064(7) -0.2800(3)
H9 H 0.8155 0.5075 -0.2925
H10 H 0.7557 0.6010 -0.2521
N5 N 0.7874(3) 0.9134(7) -0.2801(3)
H11 H 0.8072 1.0153 -0.2932
H12 H 0.7505 0.9139 -0.2522
N6 N 0.8671(3) 0.7668(5) -0.3433(2)
H14 H 0.8900 0.6678 -0.3557
H15 H 0.8812 0.8709 -0.3587
C14 C 0.8132(4) 0.7592(7) -0.3025(3)
S1 S 0.13947(13) 0.73370(19) 0.10405(6)
O1 O 0.0914(2) 0.5799(5) 0.0954(2)
C1 C 0.2151(4) 0.7256(7) 0.0542(3)
S2 S 0.60979(12) 0.74276(18) -0.20738(6)
O2 O 0.0946(2) 0.8926(5) 0.0900(2)
C2 C 0.2078(3) 0.6691(6) -0.0085(3)
H5 H 0.1587 0.6306 -0.0226
O3 O 0.1698(3) 0.7429(4) 0.1678(2)
C3 C 0.2691(3) 0.6674(7) -0.0499(3)
H8 H 0.2610 0.6325 -0.0917
O4 O 0.6568(2) 0.5810(5) -0.1957(2)
C4 C 0.3432(4) 0.7175(7) -0.0299(3)
O5 O 0.6494(2) 0.9141(6) -0.1922(2)
C5 C 0.3517(5) 0.7659(7) 0.0300(3)
H13 H 0.4019 0.7947 0.0446
O6 O 0.5748(3) 0.7451(4) -0.2691(2)
C6 C 0.2905(5) 0.7754(7) 0.0712(3)
H16 H 0.2997 0.8167 0.1121
C7 C 0.4091(5) 0.7146(8) -0.0762(4)
C8 C 0.3957(4) 0.7731(8) -0.1360(3)
H17 H 0.3459 0.8116 -0.1484
C9 C 0.4570(4) 0.7742(7) -0.1776(3)
H18 H 0.4501 0.8054 -0.2198
C10 C 0.5275(4) 0.7280(8) -0.1545(4)
C11 C 0.5428(3) 0.6712(6) -0.0975(3)
H19 H 0.5932 0.6356 -0.0856
C12 C 0.4819(3) 0.6665(7) -0.0564(3)
H20 H 0.4900 0.6305 -0.0148
loop_
_geom_bond_atom_site_label_1
_geom_bond_atom_site_label_2
_geom_bond_site_symmetry_1
_geom_bond_site_symmetry_2
S1 O1 1_555 1_555
N1 H1 1_555 1_555
H2 N1 1_555 1_555
C1 S1 1_555 1_555
S2 O4 1_555 1_555
O2 S1 1_555 1_555
N2 H3 1_555 1_555
H4 N2 1_555 1_555
C2 C1 1_555 1_555
H5 C2 1_555 1_555
O3 S1 1_555 1_555
N3 H6 1_555 1_555
H7 N3 1_555 1_555
C3 C2 1_555 1_555
H8 C3 1_555 1_555
N4 H9 1_555 1_555
H10 N4 1_555 1_555
C4 C3 1_555 1_555
O5 S2 1_555 1_555
N5 H11 1_555 1_555
H12 N5 1_555 1_555
C5 C4 1_555 1_555
H13 C5 1_555 1_555
O6 S2 1_555 1_555
N6 H14 1_555 1_555
H15 N6 1_555 1_555
C6 C1 1_555 1_555
H16 C6 1_555 1_555
C7 C4 1_555 1_555
C8 C7 1_555 1_555
H17 C8 1_555 1_555
C9 C8 1_555 1_555
H18 C9 1_555 1_555
C10 S2 1_555 1_555
C11 C10 1_555 1_555
H19 C11 1_555 1_555
C12 C7 1_555 1_555
H20 C12 1_555 1_555
C13 N1 1_555 1_555
C14 N4 1_555 1_555
N2 C13 1_555 1_555
N3 C13 1_555 1_555
N5 C14 1_555 1_555
C5 C6 1_555 1_555
N6 C14 1_555 1_555
C9 C10 1_555 1_555
C11 C12 1_555 1_555

#END
