
#######################################################################
#
#                 Cambridge Crystallographic Data Centre
#                                CCDC 
#
#######################################################################
#
# If this CIF has been generated from an entry in the Cambridge 
# Structural Database, then it will include bibliographic, chemical, 
# crystal, experimental, refinement or atomic coordinate data resulting 
# from the CCDC's data processing and validation procedures.
#
#######################################################################

data_MERTEI01
_chemical_formula_moiety         '2(C1 H6 N3 1+),C12 H8 O6 S2 2-,C12 H12'
_chemical_name_systematic        
"bis(Guanidinium) (4,4'-biphenyldisulfonate) (1,8-dimethylnaphthalene) clathrate"
_symmetry_cell_setting           orthorhombic
_symmetry_space_group_name_H-M   'P n a 21'
_symmetry_Int_Tables_number      33
_space_group_name_Hall           'P 2c -2n'
loop_
_symmetry_equiv_pos_site_id
_symmetry_equiv_pos_as_xyz
1 x,y,z
2 -x,-y,1/2+z
3 1/2-x,1/2+y,1/2+z
4 1/2+x,1/2-y,z
_cell_length_a                   17.3485(12)
_cell_length_b                   7.4584(5)
_cell_length_c                   21.6256(15)
_cell_angle_alpha                90
_cell_angle_beta                 90
_cell_angle_gamma                90
_cell_volume                     2798.18
_exptl_crystal_colour            colorless
_exptl_crystal_description       plate
_cell_formula_units_Z            4
loop_
_atom_site_label
_atom_site_type_symbol
_atom_site_fract_x
_atom_site_fract_y
_atom_site_fract_z
S1 S 0.14034(16) 0.7356(2) 0.10432(11)
O1 O 0.0939(4) 0.5759(7) 0.0941(3)
C1 C 0.2178(6) 0.7149(11) 0.0525(5)
S2 S 0.61081(16) 0.7424(2) -0.20697(11)
O2 O 0.0976(3) 0.8969(7) 0.0888(3)
C2 C 0.2078(4) 0.6651(10) -0.0087(4)
H5 H 0.1582 0.6296 -0.0228
O3 O 0.1732(5) 0.7412(6) 0.1675(4)
C3 C 0.2684(4) 0.6667(10) -0.0487(4)
H8 H 0.2600 0.6325 -0.0905
O4 O 0.6588(3) 0.5854(9) -0.1963(3)
C4 C 0.3427(6) 0.7171(10) -0.0302(4)
O5 O 0.6508(3) 0.9096(9) -0.1931(3)
C5 C 0.3551(6) 0.7660(11) 0.0304(6)
H13 H 0.4057 0.7958 0.0436
O6 O 0.5789(5) 0.7457(6) -0.2694(4)
C6 C 0.2930(6) 0.7725(11) 0.0737(5)
H16 H 0.3008 0.8131 0.1148
C7 C 0.4086(6) 0.7158(11) -0.0747(5)
C8 C 0.3986(6) 0.7690(11) -0.1342(6)
H17 H 0.3491 0.8039 -0.1485
C9 C 0.4602(6) 0.7719(10) -0.1730(5)
H18 H 0.4520 0.8064 -0.2148
C10 C 0.5293(6) 0.7300(8) -0.1559(4)
C11 C 0.5436(4) 0.6710(10) -0.0961(4)
H19 H 0.5937 0.6347 -0.0836
C12 C 0.4817(4) 0.6671(9) -0.0554(4)
H20 H 0.4896 0.6307 -0.0138
N1 N -0.0415(5) 0.5876(9) 0.1760(4)
H1 H -0.0595 0.4860 0.1908
H2 H -0.0084 0.5868 0.1452
N2 N -0.0399(5) 0.9000(9) 0.1760(4)
H3 H -0.0566 1.0034 0.1904
H4 H -0.0068 0.8974 0.1452
N3 N -0.1149(5) 0.7473(8) 0.2476(6)
H6 H -0.1321 0.8496 0.2625
H7 H -0.1308 0.6453 0.2636
C13 C -0.0649(7) 0.7469(10) 0.2011(5)
N4 N 0.7930(4) 0.6102(9) -0.2788(3)
H9 H 0.7599 0.6086 -0.2480
H10 H 0.8110 0.5088 -0.2938
N5 N 0.7884(4) 0.9122(9) -0.2796(4)
H11 H 0.7553 0.9110 -0.2488
H12 H 0.8035 1.0150 -0.2955
N6 N 0.8649(5) 0.7660(8) -0.3483(5)
H14 H 0.8834 0.6656 -0.3637
H15 H 0.8796 0.8698 -0.3637
C14 C 0.8151(7) 0.7609(10) -0.3019(6)
C15 C 0.4375(3) 1.2377(10) -0.0148(3)
C16 C 0.4316(4) 1.2421(13) 0.0492(3)
H21 H 0.4767 1.2527 0.0738
C17 C 0.3597(5) 1.2310(14) 0.0773(3)
H22 H 0.3557 1.2341 0.1211
C18 C 0.2936(4) 1.2156(12) 0.0413(3)
H23 H 0.2445 1.2080 0.0606
C19 C 0.2995(3) 1.2112(8) -0.0227(3)
C20 C 0.3714(3) 1.2222(7) -0.0508(3)
C21 C 0.3773(4) 1.2178(11) -0.1149(3)
C22 C 0.3112(5) 1.2024(14) -0.1509(3)
H24 H 0.3152 1.1994 -0.1947
C23 C 0.2393(4) 1.1913(13) -0.1228(4)
H25 H 0.1942 1.1808 -0.1474
C24 C 0.2334(3) 1.1957(11) -0.0587(4)
H26 H 0.1843 1.1882 -0.0395
C25 C 0.5254(3) 1.1929(15) -0.0367(5)
H27 H 0.5591 1.2936 -0.0260
H28 H 0.5264 1.1738 -0.0815
H29 H 0.5434 1.0843 -0.0156
C26 C 0.4448(5) 1.2460(17) -0.1627(4)
H30 H 0.4541 1.1340 -0.1852
H31 H 0.4917 1.2812 -0.1406
H32 H 0.4305 1.3405 -0.1921
C27? C 0.3882(4) 1.2163(9) 0.0104(3)
C28? C 0.4611(4) 1.2091(11) 0.0370(3)
H33? H 0.4664 1.2041 0.0807
C29? C 0.5263(3) 1.2091(12) -0.0004(4)
H34? H 0.5761 1.2042 0.0178
C30? C 0.5186(3) 1.2164(11) -0.0643(4)
H35? H 0.5632 1.2165 -0.0899
C31? C 0.4457(3) 1.2237(8) -0.0909(3)
C32? C 0.3805(3) 1.2236(7) -0.0535(3)
C33? C 0.3077(3) 1.2308(9) -0.0801(3)
C34? C 0.3000(4) 1.2381(11) -0.1440(3)
H36? H 0.2501 1.2430 -0.1622
C35? C 0.3652(5) 1.2382(11) -0.1814(3)
H37? H 0.3599 1.2432 -0.2251
C36? C 0.4380(4) 1.2310(10) -0.1548(3)
H38? H 0.4826 1.2310 -0.1804
C37? C 0.3477(5) 1.2502(13) 0.0760(3)
H39? H 0.3494 1.1398 0.1006
H40? H 0.2939 1.2857 0.0695
H41? H 0.3750 1.3459 0.0981
C38? C 0.2185(3) 1.1663(15) -0.0082(5)
H42? H 0.1937 1.0520 -0.0184
H43? H 0.1797 1.2616 -0.0071
H44? H 0.2434 1.1570 0.0324
loop_
_geom_bond_atom_site_label_1
_geom_bond_atom_site_label_2
_geom_bond_site_symmetry_1
_geom_bond_site_symmetry_2
S1 O1 1_555 1_555
N1 H1 1_555 1_555
H2 N1 1_555 1_555
C1 S1 1_555 1_555
S2 O4 1_555 1_555
O2 S1 1_555 1_555
N2 H3 1_555 1_555
H4 N2 1_555 1_555
C2 C1 1_555 1_555
H5 C2 1_555 1_555
O3 S1 1_555 1_555
N3 H6 1_555 1_555
H7 N3 1_555 1_555
C3 C2 1_555 1_555
H8 C3 1_555 1_555
N4 H9 1_555 1_555
H10 N4 1_555 1_555
C4 C3 1_555 1_555
O5 S2 1_555 1_555
N5 H11 1_555 1_555
H12 N5 1_555 1_555
C5 C4 1_555 1_555
H13 C5 1_555 1_555
O6 S2 1_555 1_555
N6 H14 1_555 1_555
H15 N6 1_555 1_555
C6 C1 1_555 1_555
H16 C6 1_555 1_555
C7 C4 1_555 1_555
C8 C7 1_555 1_555
H17 C8 1_555 1_555
C9 C8 1_555 1_555
H18 C9 1_555 1_555
C10 S2 1_555 1_555
C11 C10 1_555 1_555
H19 C11 1_555 1_555
C12 C7 1_555 1_555
H20 C12 1_555 1_555
C13 N1 1_555 1_555
C14 N4 1_555 1_555
C15 C16 1_555 1_555
C16 H21 1_555 1_555
C17 C16 1_555 1_555
H22 C17 1_555 1_555
C18 C17 1_555 1_555
H23 C18 1_555 1_555
C19 C18 1_555 1_555
C20 C15 1_555 1_555
C21 C20 1_555 1_555
C22 C21 1_555 1_555
H24 C22 1_555 1_555
C23 C22 1_555 1_555
H25 C23 1_555 1_555
C24 C19 1_555 1_555
H26 C24 1_555 1_555
C25 C15 1_555 1_555
H27 C25 1_555 1_555
H28 C25 1_555 1_555
H29 C25 1_555 1_555
C26 C21 1_555 1_555
H30 C26 1_555 1_555
H31 C26 1_555 1_555
H32 C26 1_555 1_555
N2 C13 1_555 1_555
N3 C13 1_555 1_555
N5 C14 1_555 1_555
C5 C6 1_555 1_555
N6 C14 1_555 1_555
C9 C10 1_555 1_555
C11 C12 1_555 1_555
C19 C20 1_555 1_555
C23 C24 1_555 1_555

#END
