
#######################################################################
#
#                 Cambridge Crystallographic Data Centre
#                                CCDC 
#
#######################################################################
#
# If this CIF has been generated from an entry in the Cambridge 
# Structural Database, then it will include bibliographic, chemical, 
# crystal, experimental, refinement or atomic coordinate data resulting 
# from the CCDC's data processing and validation procedures.
#
#######################################################################

data_MERVEN
_chemical_formula_moiety         'C8 H8 N8 O4'
_chemical_name_systematic        
2,4-dinitro-6-(1H-1,2,4-triazol-1-yl)benzene-1,3,5-triamine
_symmetry_cell_setting           triclinic
_symmetry_space_group_name_H-M   'P -1'
_symmetry_Int_Tables_number      2
_space_group_name_Hall           '-P 1'
loop_
_symmetry_equiv_pos_site_id
_symmetry_equiv_pos_as_xyz
1 x,y,z
2 -x,-y,-z
_cell_length_a                   7.4815(11)
_cell_length_b                   9.2466(13)
_cell_length_c                   16.151(3)
_cell_angle_alpha                87.286(4)
_cell_angle_beta                 87.725(3)
_cell_angle_gamma                89.891(3)
_cell_volume                     1115.17
_exptl_crystal_colour            yellow
_exptl_crystal_description       prismatic
_cell_formula_units_Z            4
loop_
_atom_site_label
_atom_site_type_symbol
_atom_site_fract_x
_atom_site_fract_y
_atom_site_fract_z
N1 N -0.3441(3) 0.6019(2) 0.41863(12)
N2 N -0.1015(3) 0.4617(2) 0.39793(12)
N3 N -0.0953(2) 0.58104(18) 0.34522(10)
N4 N -0.1034(3) 0.4585(2) 0.19734(13)
H1 H -0.1882 0.4503 0.2348
H2 H -0.1116 0.4156 0.1515
N5 N 0.1859(3) 0.4794(2) 0.07721(12)
N6 N 0.4618(3) 0.6733(3) 0.10936(14)
H3 H 0.4634 0.6280 0.0640
H4 H 0.5470 0.7321 0.1186
N7 N 0.4533(2) 0.8320(2) 0.25421(11)
N8 N 0.1763(3) 0.7640(2) 0.37463(11)
H5 H 0.0893 0.7453 0.4099
H6 H 0.2589 0.8236 0.3861
O1 O 0.0648(2) 0.39326(19) 0.06497(11)
O2 O 0.3055(3) 0.4978(3) 0.02219(12)
O3 O 0.5816(2) 0.8554(2) 0.20310(10)
O4 O 0.4472(2) 0.90375(18) 0.31721(10)
C1 C -0.2535(3) 0.4814(3) 0.43940(15)
H7 H -0.2957 0.4154 0.4808
C2 C -0.2400(3) 0.6611(3) 0.35953(14)
H8 H -0.2641 0.7483 0.3311
C3 C 0.0486(3) 0.6049(2) 0.28509(12)
C4 C 0.0397(3) 0.5369(2) 0.21021(13)
C5 C 0.1861(3) 0.5554(2) 0.15048(13)
C6 C 0.3289(3) 0.6527(2) 0.16466(13)
C7 C 0.3241(3) 0.7282(2) 0.24069(12)
C8 C 0.1832(3) 0.7009(2) 0.30259(12)
N9 N -0.1904(2) -0.0330(2) 0.04561(11)
N10 N -0.0039(3) -0.1298(2) 0.13894(12)
N11 N -0.0212(2) 0.01624(18) 0.14704(10)
N12 N -0.1793(2) 0.0426(2) 0.29926(12)
H9 H -0.2310 0.0032 0.2594
H10 H -0.2337 0.0471 0.3470
N13 N 0.0014(3) 0.1612(2) 0.43202(11)
N14 N 0.3329(3) 0.2950(3) 0.39056(12)
H11 H 0.2857 0.2980 0.4399
H12 H 0.4348 0.3354 0.3788
N15 N 0.4871(2) 0.2926(2) 0.22961(11)
N16 N 0.3177(2) 0.1159(2) 0.11602(11)
H13 H 0.2615 0.0678 0.0809
H14 H 0.4236 0.1481 0.1035
O5 O -0.1556(2) 0.12388(19) 0.44633(10)
O6 O 0.0903(2) 0.2007(2) 0.49053(9)
O7 O 0.5554(2) 0.3753(2) 0.27818(11)
O8 O 0.5650(2) 0.2786(2) 0.16140(11)
C9 C -0.1077(3) -0.1517(3) 0.07789(14)
H15 H -0.1239 -0.2432 0.0578
C10 C -0.1325(3) 0.0691(2) 0.09101(13)
H16 H -0.1649 0.1660 0.0849
C11 C 0.0703(3) 0.0882(2) 0.20936(12)
C12 C -0.0158(3) 0.0965(2) 0.28717(12)
C13 C 0.0796(3) 0.1607(2) 0.35127(12)
C14 C 0.2493(3) 0.2287(2) 0.33320(13)
C15 C 0.3265(3) 0.2219(2) 0.25085(12)
C16 C 0.2411(3) 0.1404(2) 0.18942(12)
loop_
_geom_bond_atom_site_label_1
_geom_bond_atom_site_label_2
_geom_bond_site_symmetry_1
_geom_bond_site_symmetry_2
N1 C1 1_555 1_555
N2 N3 1_555 1_555
N3 C2 1_555 1_555
N4 H1 1_555 1_555
H2 N4 1_555 1_555
N5 O1 1_555 1_555
N6 H3 1_555 1_555
H4 N6 1_555 1_555
N7 O3 1_555 1_555
N8 H5 1_555 1_555
H6 N8 1_555 1_555
O2 N5 1_555 1_555
O4 N7 1_555 1_555
C1 N2 1_555 1_555
H7 C1 1_555 1_555
C2 N1 1_555 1_555
H8 C2 1_555 1_555
C3 N3 1_555 1_555
C4 N4 1_555 1_555
C5 N5 1_555 1_555
C6 N6 1_555 1_555
C7 N7 1_555 1_555
C8 N8 1_555 1_555
N9 C9 1_555 1_555
N10 N11 1_555 1_555
N11 C10 1_555 1_555
N12 H9 1_555 1_555
H10 N12 1_555 1_555
N13 O5 1_555 1_555
N14 H11 1_555 1_555
H12 N14 1_555 1_555
N15 O7 1_555 1_555
N16 H13 1_555 1_555
H14 N16 1_555 1_555
O6 N13 1_555 1_555
O8 N15 1_555 1_555
C9 N10 1_555 1_555
H15 C9 1_555 1_555
C10 N9 1_555 1_555
H16 C10 1_555 1_555
C11 N11 1_555 1_555
C12 N12 1_555 1_555
C13 N13 1_555 1_555
C14 N14 1_555 1_555
C15 N15 1_555 1_555
C16 N16 1_555 1_555
C3 C4 1_555 1_555
C3 C8 1_555 1_555
C4 C5 1_555 1_555
C5 C6 1_555 1_555
C6 C7 1_555 1_555
C7 C8 1_555 1_555
C11 C12 1_555 1_555
C11 C16 1_555 1_555
C12 C13 1_555 1_555
C13 C14 1_555 1_555
C14 C15 1_555 1_555
C15 C16 1_555 1_555

#END
