
#######################################################################
#
#                 Cambridge Crystallographic Data Centre
#                                CCDC 
#
#######################################################################
#
# If this CIF has been generated from an entry in the Cambridge 
# Structural Database, then it will include bibliographic, chemical, 
# crystal, experimental, refinement or atomic coordinate data resulting 
# from the CCDC's data processing and validation procedures.
#
#######################################################################

data_MERZAN
_chemical_formula_moiety         'C19 H20 Br1 N3 O3'
_chemical_name_systematic        
'(4-bromophenyl)methyl [2-(4,6-dimethylpyridin-2-yl)-3,6-dihydro-2H-1,2-oxazin-6-yl]carbamate'
_symmetry_cell_setting           orthorhombic
_symmetry_space_group_name_H-M   'P 21 21 21'
_symmetry_Int_Tables_number      19
_space_group_name_Hall           'P 2ac 2ab'
loop_
_symmetry_equiv_pos_site_id
_symmetry_equiv_pos_as_xyz
1 x,y,z
2 1/2+x,1/2-y,-z
3 -x,1/2+y,1/2-z
4 1/2-x,-y,1/2+z
_cell_length_a                   5.0195(6)
_cell_length_b                   22.171(2)
_cell_length_c                   33.032(7)
_cell_angle_alpha                90
_cell_angle_beta                 90
_cell_angle_gamma                90
_cell_volume                     3676.04
_exptl_crystal_description       plate
_cell_formula_units_Z            8
loop_
_atom_site_label
_atom_site_type_symbol
_atom_site_fract_x
_atom_site_fract_y
_atom_site_fract_z
Br1 Br 1.0839(2) 0.20453(4) 0.37903(3)
O1 O 0.7847(11) 0.4397(2) 0.65356(16)
O2 O 0.7448(10) 0.3976(3) 0.52979(17)
O3 O 0.4048(11) 0.4395(2) 0.56529(17)
N1 N 0.7309(13) 0.4728(3) 0.6909(2)
N2 N 0.8396(14) 0.4506(3) 0.58478(19)
H1 H 1.006406 0.443560 0.578056
N3 N 0.6798(14) 0.4424(3) 0.75800(19)
C1 C 0.3666(17) 0.3645(4) 0.7754(3)
H2 H 0.283580 0.341050 0.795919
C2 C 0.3006(17) 0.3549(3) 0.7344(3)
C3 C 0.4283(16) 0.3899(3) 0.7060(3)
H3 H 0.390632 0.384806 0.678061
C4 C 0.6146(15) 0.4333(3) 0.7187(3)
C5 C 0.7805(16) 0.4838(3) 0.6213(2)
H4 H 0.599263 0.502282 0.619298
C6 C 0.6421(16) 0.4304(3) 0.5611(2)
C7 C 0.5495(16) 0.3798(4) 0.4998(2)
H5 H 0.482682 0.415696 0.485159
H6 H 0.396743 0.359632 0.513061
C8 C 0.6834(17) 0.3370(4) 0.4706(2)
C9 C 0.9027(18) 0.3558(4) 0.4478(2)
H7 H 0.969888 0.395551 0.451075
C10 C 1.0243(19) 0.3168(3) 0.4201(3)
H8 H 1.174179 0.329537 0.404818
C11 C 0.9213(18) 0.2588(4) 0.4155(2)
C12 C 0.5511(17) 0.4079(3) 0.7858(3)
C13 C 0.620(2) 0.4216(4) 0.8294(2)
H9 H 0.813307 0.418507 0.833120
H10 H 0.530471 0.392554 0.847140
H11 H 0.561282 0.462493 0.836107
C14 C 0.0916(17) 0.3101(4) 0.7222(3)
H12 H 0.063254 0.312374 0.692928
H13 H -0.075411 0.319347 0.736301
H14 H 0.150437 0.269407 0.729533
C15 C 0.9675(16) 0.5058(4) 0.7027(3)
H15 H 1.105199 0.477327 0.712398
H16 H 0.923850 0.533819 0.725047
C16 C 1.0732(18) 0.5409(4) 0.6671(3)
H17 H 1.207664 0.570327 0.671411
C17 C 0.9814(17) 0.5314(4) 0.6295(3)
H18 H 1.045890 0.555475 0.607765
C18 C 0.584(2) 0.2798(4) 0.4650(3)
H19 H 0.434235 0.266840 0.480164
C19 C 0.701(2) 0.2406(4) 0.4373(3)
H20 H 0.628721 0.201377 0.433471
Br2 Br 0.67043(18) 0.66733(4) 0.72090(3)
O4 O 0.0850(11) 0.3847(2) 0.96147(16)
O5 O 0.1332(11) 0.5417(2) 0.88371(17)
O6 O -0.2158(11) 0.5065(2) 0.92048(18)
N4 N 0.3302(14) 0.3535(3) 0.95203(19)
N5 N 0.2133(13) 0.4823(3) 0.9360(2)
H21 H 0.380965 0.486494 0.928754
N6 N 0.4108(14) 0.2534(3) 0.9339(2)
C20 C 0.1691(16) 0.2072(4) 0.8793(2)
H22 H 0.138998 0.172420 0.863151
C21 C 0.0216(17) 0.2588(4) 0.8726(3)
C22 C 0.0704(17) 0.3090(3) 0.8975(2)
H23 H -0.025227 0.345586 0.894053
C23 C 0.2649(15) 0.3030(4) 0.9276(3)
C24 C 0.1493(16) 0.4459(3) 0.9711(2)
H24 H -0.013154 0.464014 0.983670
C25 C 0.0227(17) 0.5096(4) 0.9143(3)
C26 C -0.0548(17) 0.5755(4) 0.8581(3)
H25 H -0.136999 0.609063 0.873439
H26 H -0.197738 0.548782 0.847863
C27 C 0.1104(16) 0.5993(4) 0.8238(2)
C28 C 0.1617(17) 0.6605(4) 0.8200(2)
H27 H 0.083808 0.688077 0.838562
C29 C 0.3276(17) 0.6820(3) 0.7891(2)
H28 H 0.361292 0.723919 0.786275
C30 C 0.4415(18) 0.6408(4) 0.7626(2)
C31 C 0.4706(16) 0.3416(4) 0.9900(2)
H29 H 0.647945 0.323898 0.984366
H30 H 0.367984 0.312672 1.006692
C32 C 0.5005(17) 0.4001(4) 1.0119(3)
H31 H 0.623135 0.402316 1.033732
C33 C 0.3650(17) 0.4483(4) 1.0023(2)
H32 H 0.404087 0.485469 1.015273
C34 C 0.3614(16) 0.2060(3) 0.9096(2)
C35 C 0.5313(18) 0.1510(4) 0.9158(3)
H33 H 0.711906 0.158957 0.905887
H34 H 0.454684 0.116943 0.900970
H35 H 0.538338 0.141321 0.944763
C36 C -0.1860(18) 0.2621(4) 0.8398(3)
H36 H -0.210866 0.222055 0.827893
H37 H -0.127586 0.290413 0.818838
H38 H -0.354832 0.276077 0.851428
C37 C 0.2230(17) 0.5592(4) 0.7968(3)
H39 H 0.187536 0.517268 0.799260
C38 C 0.3887(17) 0.5801(4) 0.7659(3)
H40 H 0.464772 0.552447 0.747202
loop_
_geom_bond_atom_site_label_1
_geom_bond_atom_site_label_2
_geom_bond_site_symmetry_1
_geom_bond_site_symmetry_2
Br1 C11 1_555 1_555
O1 N1 1_555 1_555
O2 C6 1_555 1_555
O3 C6 1_555 1_555
N1 C4 1_555 1_555
N2 H1 1_555 1_555
N3 C4 1_555 1_555
C1 H2 1_555 1_555
C2 C1 1_555 1_555
C3 C2 1_555 1_555
H3 C3 1_555 1_555
C4 C3 1_555 1_555
C5 O1 1_555 1_555
H4 C5 1_555 1_555
C6 N2 1_555 1_555
C7 O2 1_555 1_555
H5 C7 1_555 1_555
H6 C7 1_555 1_555
C8 C7 1_555 1_555
C9 C8 1_555 1_555
H7 C9 1_555 1_555
C10 C9 1_555 1_555
H8 C10 1_555 1_555
C11 C10 1_555 1_555
C12 N3 1_555 1_555
C13 C12 1_555 1_555
H9 C13 1_555 1_555
H10 C13 1_555 1_555
H11 C13 1_555 1_555
C14 C2 1_555 1_555
H12 C14 1_555 1_555
H13 C14 1_555 1_555
H14 C14 1_555 1_555
C15 N1 1_555 1_555
H15 C15 1_555 1_555
H16 C15 1_555 1_555
C16 C15 1_555 1_555
H17 C16 1_555 1_555
C17 C5 1_555 1_555
H18 C17 1_555 1_555
C18 C8 1_555 1_555
H19 C18 1_555 1_555
C19 C11 1_555 1_555
H20 C19 1_555 1_555
Br2 C30 1_555 1_555
O4 N4 1_555 1_555
O5 C25 1_555 1_555
O6 C25 1_555 1_555
N4 C23 1_555 1_555
N5 H21 1_555 1_555
N6 C23 1_555 1_555
C20 H22 1_555 1_555
C21 C20 1_555 1_555
C22 C21 1_555 1_555
H23 C22 1_555 1_555
C23 C22 1_555 1_555
C24 O4 1_555 1_555
H24 C24 1_555 1_555
C25 N5 1_555 1_555
C26 O5 1_555 1_555
H25 C26 1_555 1_555
H26 C26 1_555 1_555
C27 C26 1_555 1_555
C28 C27 1_555 1_555
H27 C28 1_555 1_555
C29 C28 1_555 1_555
H28 C29 1_555 1_555
C30 C29 1_555 1_555
C31 N4 1_555 1_555
H29 C31 1_555 1_555
H30 C31 1_555 1_555
C32 C31 1_555 1_555
H31 C32 1_555 1_555
C33 C24 1_555 1_555
H32 C33 1_555 1_555
C34 N6 1_555 1_555
C35 C34 1_555 1_555
H33 C35 1_555 1_555
H34 C35 1_555 1_555
H35 C35 1_555 1_555
C36 C21 1_555 1_555
H36 C36 1_555 1_555
H37 C36 1_555 1_555
H38 C36 1_555 1_555
C37 C27 1_555 1_555
H39 C37 1_555 1_555
C38 C30 1_555 1_555
H40 C38 1_555 1_555
N2 C5 1_555 1_555
C1 C12 1_555 1_555
C16 C17 1_555 1_555
C18 C19 1_555 1_555
N5 C24 1_555 1_555
C20 C34 1_555 1_555
C32 C33 1_555 1_555
C37 C38 1_555 1_555

#END
