
#######################################################################
#
#                 Cambridge Crystallographic Data Centre
#                                CCDC 
#
#######################################################################
#
# If this CIF has been generated from an entry in the Cambridge 
# Structural Database, then it will include bibliographic, chemical, 
# crystal, experimental, refinement or atomic coordinate data resulting 
# from the CCDC's data processing and validation procedures.
#
#######################################################################

data_MESEFV14
_chemical_formula_moiety         'C10 H12 Se4 1+,C10 H12 Se4,F6 P1 1-'
_chemical_name_systematic        
"bis(4,4',5,5'-Tetramethyl-1,1',3,3'-tetraselenafulvalenium) hexafluorophosphate"
_symmetry_cell_setting           triclinic
_symmetry_space_group_name_H-M   'P -1'
_symmetry_Int_Tables_number      2
_space_group_name_Hall           '-P 1'
loop_
_symmetry_equiv_pos_site_id
_symmetry_equiv_pos_as_xyz
1 x,y,z
2 -x,-y,-z
_cell_length_a                   7.2799(7)
_cell_length_b                   7.6900(7)
_cell_length_c                   13.5058(13)
_cell_angle_alpha                83.397(3)
_cell_angle_beta                 86.298(3)
_cell_angle_gamma                71.016(3)
_cell_volume                     709.924
_exptl_crystal_colour            brown
_exptl_crystal_description       'thin plate'
_cell_formula_units_Z            1
_exptl_crystal_preparation       superconductor
loop_
_atom_site_label
_atom_site_type_symbol
_atom_site_fract_x
_atom_site_fract_y
_atom_site_fract_z
P1 P 1.0000 0.0000 1.0000
F1 F 1.0351(8) -0.1095(6) 1.1071(3)
F2 F 1.0413(9) 0.1660(6) 1.0402(4)
F3 F 1.2158(8) -0.0975(9) 0.9734(5)
F1A F 0.9649(8) 0.1095(6) 0.8929(3)
F2A F 0.9587(9) -0.1660(6) 0.9598(4)
F3A F 0.7842(8) 0.0975(9) 1.0266(5)
Se1 Se 0.83177(7) 0.25367(6) 0.48835(4)
Se2 Se 0.70635(8) 0.66138(6) 0.38557(4)
Se3 Se 0.76577(8) 0.41800(6) 0.71622(4)
Se4 Se 0.63253(8) 0.82583(6) 0.61217(4)
C1 C 0.8959(9) 0.1179(8) 0.2966(4)
H1 H 0.9250 0.0124 0.3455
H2 H 1.0101 0.1142 0.2560
H3 H 0.7942 0.1160 0.2554
C2 C 0.8309(7) 0.2917(7) 0.3483(4)
C3 C 0.7680(9) 0.5223(8) 0.1944(4)
H4 H 0.7258 0.6548 0.1833
H5 H 0.6777 0.4765 0.1658
H6 H 0.8944 0.4730 0.1637
C4 C 0.7776(7) 0.4650(7) 0.3026(4)
C5 C 0.7475(7) 0.5067(6) 0.5048(4)
C6 C 0.7183(7) 0.5728(6) 0.5964(4)
C7 C 0.6862(7) 0.6162(7) 0.7974(4)
C8 C 0.6938(9) 0.5635(8) 0.9074(4)
H7 H 0.7384 0.4313 0.9204
H8 H 0.5663 0.6122 0.9370
H9 H 0.7815 0.6132 0.9356
C9 C 0.6308(7) 0.7888(7) 0.7538(4)
C10 C 0.5640(9) 0.9603(8) 0.8058(4)
H10 H 0.5323 1.0664 0.7573
H11 H 0.6657 0.9636 0.8467
H12 H 0.4511 0.9615 0.8469
loop_
_geom_bond_atom_site_label_1
_geom_bond_atom_site_label_2
_geom_bond_site_symmetry_1
_geom_bond_site_symmetry_2
Se1 C2 1_555 1_555
Se2 C4 1_555 1_555
Se3 C6 1_555 1_555
Se4 C6 1_555 1_555
C1 H1 1_555 1_555
H2 C1 1_555 1_555
H3 C1 1_555 1_555
C2 C1 1_555 1_555
C3 H4 1_555 1_555
H5 C3 1_555 1_555
H6 C3 1_555 1_555
C4 C2 1_555 1_555
C5 Se1 1_555 1_555
C6 C5 1_555 1_555
C7 Se3 1_555 1_555
C8 C7 1_555 1_555
H7 C8 1_555 1_555
H8 C8 1_555 1_555
H9 C8 1_555 1_555
C9 Se4 1_555 1_555
C10 C9 1_555 1_555
H10 C10 1_555 1_555
H11 C10 1_555 1_555
H12 C10 1_555 1_555
P1 F1 1_555 1_555
F2 P1 1_555 1_555
F3 P1 1_555 1_555
F1A P1 1_555 1_555
F2A P1 1_555 1_555
F3A P1 1_555 1_555
Se2 C5 1_555 1_555
C3 C4 1_555 1_555
C7 C9 1_555 1_555

#END
