
#######################################################################
#
#                 Cambridge Crystallographic Data Centre
#                                CCDC 
#
#######################################################################
#
# If this CIF has been generated from an entry in the Cambridge 
# Structural Database, then it will include bibliographic, chemical, 
# crystal, experimental, refinement or atomic coordinate data resulting 
# from the CCDC's data processing and validation procedures.
#
#######################################################################

data_MESGUP
_chemical_formula_moiety         'C31 H35 O2 P1'
_chemical_name_systematic        
(2-benzyl-1-benzofuran-3-yl)[5-methyl-2-(propan-2-yl)cyclohexyl]oxo(phenyl)-\l^5^-phosphane
_symmetry_cell_setting           orthorhombic
_symmetry_space_group_name_H-M   'P 21 21 21'
_symmetry_Int_Tables_number      19
_space_group_name_Hall           'P 2ac 2ab'
loop_
_symmetry_equiv_pos_site_id
_symmetry_equiv_pos_as_xyz
1 x,y,z
2 1/2-x,-y,1/2+z
3 -x,1/2+y,1/2-z
4 1/2+x,1/2-y,-z
_cell_length_a                   8.9579(8)
_cell_length_b                   16.7499(14)
_cell_length_c                   17.6611(15)
_cell_angle_alpha                90
_cell_angle_beta                 90
_cell_angle_gamma                90
_cell_volume                     2649.94
_cell_formula_units_Z            4
loop_
_atom_site_label
_atom_site_type_symbol
_atom_site_fract_x
_atom_site_fract_y
_atom_site_fract_z
P1 P 0.39771(9) 0.59632(4) 0.83429(4)
O1 O 0.5183(2) 0.55205(12) 0.79578(11)
O2 O 0.5755(2) 0.64491(12) 1.03617(11)
C1 C 0.1166(4) 0.41306(19) 0.89625(19)
H1 H 0.0356 0.4428 0.9207
C2 C 0.2485(3) 0.46917(18) 0.88833(18)
H2 H 0.3331 0.4390 0.8695
H3 H 0.2748 0.4890 0.9382
C3 C 0.2229(3) 0.54094(16) 0.83578(17)
H4 H 0.1461 0.5750 0.8585
C4 C 0.1661(4) 0.51269(19) 0.75783(18)
H5 H 0.2455 0.4793 0.7364
C5 C 0.0322(4) 0.4586(2) 0.7680(2)
H6 H -0.0494 0.4895 0.7892
H7 H 0.0007 0.4392 0.7188
C6 C 0.0630(4) 0.3884(2) 0.8188(2)
H8 H 0.1379 0.3547 0.7953
H9 H -0.0276 0.3571 0.8241
C7 C 0.1535(5) 0.3420(2) 0.9464(2)
H10 H 0.2426 0.3165 0.9283
H11 H 0.0722 0.3046 0.9453
H12 H 0.1689 0.3600 0.9975
C8 C 0.1367(5) 0.5793(2) 0.6996(2)
H13 H 0.2265 0.6126 0.6978
C9 C 0.1135(6) 0.5453(3) 0.6202(2)
H14 H 0.0248 0.5131 0.6195
H15 H 0.1979 0.5131 0.6065
H16 H 0.1032 0.5883 0.5847
C10 C 0.0073(6) 0.6335(3) 0.7218(3)
H17 H -0.0848 0.6045 0.7177
H18 H 0.0047 0.6788 0.6886
H19 H 0.0205 0.6512 0.7730
C11 C 0.5758(3) 0.61766(17) 0.96275(17)
C12 C 0.4370(3) 0.61842(16) 0.93165(16)
C13 C 0.3386(3) 0.64858(16) 0.99123(17)
C14 C 0.4304(4) 0.66364(17) 1.05267(17)
C15 C 0.3830(4) 0.69344(19) 1.12078(19)
H20 H 0.4491 0.7043 1.1601
C16 C 0.2323(5) 0.7064(2) 1.1277(2)
H21 H 0.1946 0.7265 1.1729
C17 C 0.1357(4) 0.69013(19) 1.0689(2)
H22 H 0.0340 0.6986 1.0755
C18 C 0.1869(3) 0.66165(18) 1.00066(19)
H23 H 0.1207 0.6513 0.9613
C19 C 0.7234(3) 0.58839(19) 0.93740(17)
H24 H 0.7985 0.6290 0.9464
H25 H 0.7206 0.5773 0.8835
C20 C 0.7630(3) 0.51383(19) 0.98000(17)
C21 C 0.8479(4) 0.5152(2) 1.0451(2)
H26 H 0.8878 0.5635 1.0615
C22 C 0.8752(5) 0.4472(3) 1.0864(2)
H27 H 0.9321 0.4495 1.1304
C23 C 0.8175(5) 0.3762(3) 1.0619(3)
H28 H 0.8352 0.3298 1.0895
C24 C 0.7346(5) 0.3730(2) 0.9977(2)
H29 H 0.6964 0.3243 0.9813
C25 C 0.7065(4) 0.4409(2) 0.9566(2)
H30 H 0.6492 0.4379 0.9127
C26 C 0.3773(3) 0.69523(18) 0.79467(16)
C27 C 0.2916(3) 0.75440(19) 0.82766(18)
H31 H 0.2322 0.7427 0.8694
C28 C 0.2941(4) 0.83090(19) 0.7985(2)
H32 H 0.2360 0.8703 0.8211
C29 C 0.3796(5) 0.8498(2) 0.7375(2)
H33 H 0.3818 0.9018 0.7190
C30 C 0.4627(5) 0.7909(2) 0.7037(2)
H34 H 0.5204 0.8028 0.6614
C31 C 0.4614(4) 0.7143(2) 0.73201(19)
H35 H 0.5180 0.6749 0.7085
loop_
_geom_bond_atom_site_label_1
_geom_bond_atom_site_label_2
_geom_bond_site_symmetry_1
_geom_bond_site_symmetry_2
P1 O1 1_555 1_555
O2 C11 1_555 1_555
C1 H1 1_555 1_555
C2 C1 1_555 1_555
H2 C2 1_555 1_555
H3 C2 1_555 1_555
C3 P1 1_555 1_555
H4 C3 1_555 1_555
C4 C3 1_555 1_555
H5 C4 1_555 1_555
C5 C4 1_555 1_555
H6 C5 1_555 1_555
H7 C5 1_555 1_555
C6 C1 1_555 1_555
H8 C6 1_555 1_555
H9 C6 1_555 1_555
C7 C1 1_555 1_555
H10 C7 1_555 1_555
H11 C7 1_555 1_555
H12 C7 1_555 1_555
C8 C4 1_555 1_555
H13 C8 1_555 1_555
C9 C8 1_555 1_555
H14 C9 1_555 1_555
H15 C9 1_555 1_555
H16 C9 1_555 1_555
C10 C8 1_555 1_555
H17 C10 1_555 1_555
H18 C10 1_555 1_555
H19 C10 1_555 1_555
C11 C12 1_555 1_555
C12 P1 1_555 1_555
C13 C12 1_555 1_555
C14 O2 1_555 1_555
C15 C14 1_555 1_555
H20 C15 1_555 1_555
C16 C15 1_555 1_555
H21 C16 1_555 1_555
C17 C16 1_555 1_555
H22 C17 1_555 1_555
C18 C13 1_555 1_555
H23 C18 1_555 1_555
C19 C11 1_555 1_555
H24 C19 1_555 1_555
H25 C19 1_555 1_555
C20 C19 1_555 1_555
C21 C20 1_555 1_555
H26 C21 1_555 1_555
C22 C21 1_555 1_555
H27 C22 1_555 1_555
C23 C22 1_555 1_555
H28 C23 1_555 1_555
C24 C23 1_555 1_555
H29 C24 1_555 1_555
C25 C20 1_555 1_555
H30 C25 1_555 1_555
C26 P1 1_555 1_555
C27 C26 1_555 1_555
H31 C27 1_555 1_555
C28 C27 1_555 1_555
H32 C28 1_555 1_555
C29 C28 1_555 1_555
H33 C29 1_555 1_555
C30 C29 1_555 1_555
H34 C30 1_555 1_555
C31 C26 1_555 1_555
H35 C31 1_555 1_555
C2 C3 1_555 1_555
C5 C6 1_555 1_555
C13 C14 1_555 1_555
C17 C18 1_555 1_555
C24 C25 1_555 1_555
C30 C31 1_555 1_555

#END
