
#######################################################################
#
#                 Cambridge Crystallographic Data Centre
#                                CCDC 
#
#######################################################################
#
# If this CIF has been generated from an entry in the Cambridge 
# Structural Database, then it will include bibliographic, chemical, 
# crystal, experimental, refinement or atomic coordinate data resulting 
# from the CCDC's data processing and validation procedures.
#
#######################################################################

data_MESGOJ
_chemical_formula_moiety         'C105 H81 N9 O6,C7 H5 N3 O6,4.3(C2 H6 O1 S1)'
_chemical_name_systematic        
'2,20,38-tris[bis(4-methylphenyl)methylidene]-7,15,25,33,43,51,57,62,67-nonaazadecacyclo[50.2.2.2^3,6^.2^16,19^.2^21,24^.2^34,37^.2^39,42^.1^9,13^.1^27,31^.1^45,49^]nonahexaconta-1(54),3,5,9(67),10,12,16,18,21,23,27(62),28,30,34,36,39,41,45(57),46,48,52,55,58,60,63,65,68-heptacosaene-8,14,26,32,44,50-hexone 2-methyl-1,3,5-trinitrobenzene dimethyl sulfoxide solvate'
_symmetry_cell_setting           triclinic
_symmetry_space_group_name_H-M   'P -1'
_symmetry_Int_Tables_number      2
_space_group_name_Hall           '-P 1'
loop_
_symmetry_equiv_pos_site_id
_symmetry_equiv_pos_as_xyz
1 x,y,z
2 -x,-y,-z
_cell_length_a                   19.5232(3)
_cell_length_b                   20.9716(4)
_cell_length_c                   21.0043(5)
_cell_angle_alpha                105.3491(19)
_cell_angle_beta                 108.3532(18)
_cell_angle_gamma                98.4063(16)
_cell_volume                     7619.71
_exptl_crystal_colour            colorless
_exptl_crystal_description       prism
_cell_formula_units_Z            2
_chemical_properties_physical    ', Efflorescent'
loop_
_atom_site_label
_atom_site_type_symbol
_atom_site_fract_x
_atom_site_fract_y
_atom_site_fract_z
S1 S 0.80603(4) 0.73375(4) 0.50869(4)
O7 O 0.86746(11) 0.76820(9) 0.58124(11)
C106 C 0.8509(2) 0.72522(17) 0.44614(17)
H82 H 0.8727 0.7706 0.4467
H83 H 0.8143 0.6987 0.3985
H84 H 0.8904 0.7017 0.4588
C107 C 0.77979(19) 0.64554(14) 0.49919(18)
H85 H 0.8244 0.6279 0.5098
H86 H 0.7455 0.6199 0.4503
H87 H 0.7551 0.6405 0.5322
S2 S 0.63001(7) 0.23333(8) 0.35259(6)
O8 O 0.6139(5) 0.3025(5) 0.3803(4)
C108 C 0.6934(4) 0.2191(4) 0.4253(3)
H88 H 0.7361 0.2590 0.4506
H89 H 0.7106 0.1787 0.4080
H90 H 0.6686 0.2117 0.4576
C109 C 0.6988(4) 0.2540(4) 0.3148(4)
H91 H 0.6742 0.2613 0.2698
H92 H 0.7226 0.2162 0.3063
H93 H 0.7367 0.2957 0.3481
S3 S 0.31542(8) 0.62064(6) 0.16075(7)
O9 O 0.3956(5) 0.6133(5) 0.1712(4)
C110 C 0.2682(7) 0.5494(8) 0.1746(9)
H94 H 0.2520 0.5093 0.1317
H95 H 0.2246 0.5596 0.1849
H96 H 0.3020 0.5401 0.2148
C111 C 0.3238(13) 0.6817(9) 0.2415(10)
H97 H 0.3500 0.6679 0.2817
H98 H 0.2740 0.6845 0.2412
H99 H 0.3519 0.7265 0.2461
S4 S 0.34998(5) 0.41035(5) 0.72536(5)
O10 O 0.3344(4) 0.3448(4) 0.6633(2)
C112 C 0.2847(3) 0.3964(3) 0.7638(3)
H100 H 0.2929 0.4373 0.8038
H101 H 0.2344 0.3865 0.7284
H102 H 0.2900 0.3575 0.7809
C113 C 0.4304(3) 0.4101(3) 0.7957(3)
H103 H 0.4428 0.4511 0.8369
H104 H 0.4199 0.3693 0.8089
H105 H 0.4724 0.4097 0.7797
S5 S 0.40155(15) 0.94841(14) 0.75698(16)
O11 O 0.3192(12) 0.9094(14) 0.721(2)
C114 C 0.4034(12) 1.0129(11) 0.8331(8)
H106 H 0.3595 1.0311 0.8199
H107 H 0.4486 1.0499 0.8506
H108 H 0.4032 0.9932 0.8704
C115 C 0.4047(19) 1.0122(10) 0.7136(10)
H109 H 0.4234 1.0578 0.7495
H110 H 0.3545 1.0077 0.6807
H111 H 0.4379 1.0055 0.6873
S6 S 0.20245(14) 0.48183(16) 0.96271(15)
O12 O 0.1313(5) 0.4714(6) 0.9766(6)
C116 C 0.1878(5) 0.5086(6) 0.8902(5)
H112 H 0.1363 0.4876 0.8566
H113 H 0.2223 0.4951 0.8670
H114 H 0.1963 0.5585 0.9055
C117 C 0.2062(3) 0.4021(3) 0.9141(3)
H115 H 0.2182 0.3746 0.9453
H116 H 0.2447 0.4078 0.8939
H117 H 0.1578 0.3789 0.8756
N1 N 1.01787(15) 0.87581(12) 0.59359(17)
N2 N 1.02259(13) 0.75113(11) 0.60456(13)
H1 H 0.9854 0.7706 0.6027
N3 N 0.88767(15) 0.90999(12) 0.57885(17)
H2 H 0.9009 0.8763 0.5933
N4 N 0.41906(12) 0.67471(10) 0.04780(12)
N5 N 0.45999(14) 0.75903(11) 0.18085(12)
H3 H 0.4488 0.7141 0.1660
N6 N 0.40368(13) 0.53866(10) 0.02864(12)
H4 H 0.4128 0.5708 0.0691
N7 N 0.50735(12) 0.32449(11) 0.47171(12)
N8 N 0.45068(12) 0.27988(11) 0.32823(12)
H5 H 0.4980 0.2892 0.3553
N9 N 0.65712(12) 0.36980(12) 0.53593(12)
H6 H 0.6315 0.3488 0.4902
O1 O 1.14209(12) 0.76883(11) 0.60870(16)
O2 O 0.93281(17) 1.00802(14) 0.5617(3)
O3 O 0.45826(14) 0.85148(9) 0.14315(12)
O4 O 0.38227(14) 0.51841(10) -0.08902(11)
O5 O 0.33400(13) 0.2547(2) 0.32859(15)
O6 O 0.64701(12) 0.40182(15) 0.64439(11)
C1 C 1.08552(16) 0.78850(14) 0.60605(18)
C2 C 1.08267(18) 0.85898(15) 0.6035(2)
C3 C 1.1478(2) 0.90333(18) 0.6113(3)
H7 H 1.1934 0.8899 0.6193
C4 C 1.1438(2) 0.9674(2) 0.6071(3)
H8 H 1.1871 0.9992 0.6127
C5 C 1.0768(2) 0.9849(2) 0.5946(3)
H9 H 1.0725 1.0281 0.5896
C6 C 1.0157(2) 0.93805(17) 0.5894(3)
C7 C 0.9416(2) 0.95576(17) 0.5762(3)
C8 C 0.96900(13) 0.47884(12) 0.61468(13)
C9 C 1.02480(13) 0.44868(12) 0.63624(13)
C10 C 0.98355(14) 0.54937(12) 0.61047(13)
C11 C 1.03368(14) 0.57147(13) 0.58183(14)
H10 H 1.0588 0.5404 0.5630
C12 C 1.04840(15) 0.63758(13) 0.57981(15)
H11 H 1.0839 0.6516 0.5609
C13 C 1.01066(15) 0.68301(13) 0.60574(15)
C14 C 0.95854(16) 0.66128(14) 0.63222(17)
H12 H 0.9319 0.6918 0.6493
C15 C 0.94484(15) 0.59494(14) 0.63401(16)
H13 H 0.9083 0.5805 0.6517
C16 C 0.88844(14) 0.44613(13) 0.59426(14)
C17 C 0.83658(14) 0.44342(14) 0.52911(14)
H14 H 0.8536 0.4598 0.4973
C18 C 0.76150(15) 0.41747(14) 0.51051(14)
H15 H 0.7273 0.4150 0.4657
C19 C 0.73524(14) 0.39460(14) 0.55752(14)
C20 C 0.78610(14) 0.39719(14) 0.62254(14)
H16 H 0.7691 0.3820 0.6550
C21 C 0.86163(14) 0.42215(13) 0.63939(14)
H17 H 0.8961 0.4228 0.6833
C22 C 1.10466(14) 0.48690(12) 0.66201(14)
C23 C 1.13736(15) 0.54280(14) 0.72402(15)
H18 H 1.1092 0.5567 0.7524
C24 C 1.21084(16) 0.57847(16) 0.74490(15)
H19 H 1.2322 0.6168 0.7873
C25 C 1.25372(14) 0.55921(14) 0.70508(15)
C26 C 1.22121(15) 0.50294(13) 0.64312(15)
H20 H 1.2492 0.4891 0.6147
C27 C 1.14782(14) 0.46702(13) 0.62278(15)
H21 H 1.1268 0.4280 0.5811
C28 C 1.33443(16) 0.59723(17) 0.72711(18)
H22 H 1.3448 0.6417 0.7632
H23 H 1.3430 0.6039 0.6856
H24 H 1.3674 0.5705 0.7468
C29 C 1.01479(14) 0.37627(13) 0.63431(15)
C30 C 1.06586(17) 0.36001(16) 0.6872(2)
H25 H 1.1042 0.3955 0.7256
C31 C 1.0613(2) 0.29285(19) 0.6845(3)
H26 H 1.0963 0.2834 0.7217
C32 C 1.0085(2) 0.23987(17) 0.6305(2)
C33 C 0.95841(19) 0.25497(15) 0.5784(2)
H27 H 0.9209 0.2187 0.5402
C34 C 0.96039(16) 0.32221(14) 0.57949(16)
H28 H 0.9243 0.3309 0.5425
C35 C 1.0054(3) 0.1656(2) 0.6267(4)
H29 H 0.9535 0.1385 0.6034
H30 H 1.0260 0.1636 0.6750
H31 H 1.0347 0.1472 0.5994
C36 C 0.57492(17) 0.88338(14) 0.48283(16)
C37 C 0.53030(17) 0.89270(13) 0.52117(15)
C38 C 0.65768(17) 0.89695(14) 0.51468(16)
C39 C 0.70112(18) 0.92920(15) 0.48534(18)
H32 H 0.6777 0.9463 0.4487
C40 C 0.77715(19) 0.93695(16) 0.50787(19)
H33 H 0.8058 0.9600 0.4877
C41 C 0.81160(18) 0.91067(14) 0.56059(19)
C42 C 0.76936(18) 0.87992(14) 0.59138(18)
H34 H 0.7928 0.8629 0.6281
C43 C 0.69359(18) 0.87366(14) 0.56931(16)
H35 H 0.6656 0.8532 0.5916
C44 C 0.54440(16) 0.85431(13) 0.40325(15)
C45 C 0.56779(19) 0.79878(15) 0.37058(17)
H36 H 0.6036 0.7818 0.3994
C46 C 0.54055(19) 0.76846(14) 0.29861(17)
H37 H 0.5571 0.7306 0.2780
C47 C 0.48834(17) 0.79295(13) 0.25524(16)
C48 C 0.46517(15) 0.84912(13) 0.28630(15)
H38 H 0.4305 0.8669 0.2574
C49 C 0.49301(15) 0.87854(12) 0.35923(15)
H39 H 0.4766 0.9164 0.3800
C50 C 0.56040(19) 0.92270(16) 0.59934(16)
C51 C 0.61032(19) 0.98726(17) 0.63534(16)
H40 H 0.6265 1.0128 0.6093
C52 C 0.6364(2) 1.0141(2) 0.7093(2)
H41 H 0.6699 1.0581 0.7335
C53 C 0.6128(3) 0.9759(3) 0.7483(2)
C54 C 0.5648(3) 0.9119(3) 0.7121(2)
H42 H 0.5498 0.8855 0.7381
C55 C 0.5382(2) 0.8855(2) 0.6391(2)
H43 H 0.5044 0.8417 0.6154
C56 C 0.6396(4) 1.0100(4) 0.8284(2)
H44 H 0.6304 0.9756 0.8506
H45 H 0.6124 1.0447 0.8390
H46 H 0.6931 1.0318 0.8473
C57 C 0.44752(17) 0.87062(13) 0.48818(16)
C58 C 0.40446(18) 0.91563(15) 0.50531(18)
H47 H 0.4288 0.9604 0.5380
C59 C 0.3281(2) 0.89644(18) 0.4760(2)
H48 H 0.3005 0.9283 0.4881
C60 C 0.2901(2) 0.8302(2) 0.4283(2)
C61 C 0.3319(2) 0.78546(18) 0.4118(2)
H49 H 0.3074 0.7404 0.3798
C62 C 0.4090(2) 0.80490(15) 0.44088(18)
H50 H 0.4364 0.7729 0.4284
C63 C 0.2055(3) 0.8077(3) 0.3990(4)
H51 H 0.1873 0.7829 0.3479
H52 H 0.1853 0.8480 0.4071
H53 H 0.1892 0.7779 0.4231
C64 C 0.44863(17) 0.78961(13) 0.13071(16)
C65 C 0.42423(15) 0.74123(12) 0.05647(15)
C66 C 0.40861(19) 0.76676(14) 0.00034(17)
H54 H 0.4127 0.8142 0.0085
C67 C 0.3869(2) 0.72155(15) -0.06766(17)
H55 H 0.3759 0.7374 -0.1072
C68 C 0.38155(17) 0.65316(14) -0.07748(16)
H56 H 0.3668 0.6211 -0.1238
C69 C 0.39814(15) 0.63222(12) -0.01847(14)
C70 C 0.39403(16) 0.55742(13) -0.02937(15)
C71 C 0.38601(14) 0.26685(13) 0.04012(14)
C72 C 0.36598(15) 0.20918(13) -0.01671(15)
C73 C 0.40017(15) 0.47084(12) 0.02941(14)
C74 C 0.37751(19) 0.45142(14) 0.07940(17)
H57 H 0.3654 0.4838 0.1125
C75 C 0.37239(19) 0.38598(14) 0.08157(16)
H58 H 0.3559 0.3738 0.1158
C76 C 0.39070(15) 0.33720(12) 0.03498(14)
C77 C 0.41615(15) 0.35795(12) -0.01293(14)
H59 H 0.4302 0.3262 -0.0448
C78 C 0.42149(15) 0.42361(13) -0.01532(14)
H60 H 0.4400 0.4365 -0.0481
C79 C 0.40428(15) 0.26419(13) 0.11377(15)
C80 C 0.47091(16) 0.30504(16) 0.16854(16)
H61 H 0.5066 0.3317 0.1577
C81 C 0.48576(16) 0.30737(17) 0.23726(17)
H62 H 0.5320 0.3346 0.2732
C82 C 0.43418(14) 0.27041(14) 0.25516(15)
C83 C 0.36872(15) 0.22818(15) 0.20154(16)
H63 H 0.3335 0.2012 0.2125
C84 C 0.35488(15) 0.22541(14) 0.13186(15)
H64 H 0.3100 0.1959 0.0955
C85 C 0.33521(15) 0.20727(12) -0.09192(14)
C86 C 0.27247(17) 0.23067(15) -0.11812(16)
H65 H 0.2495 0.2508 -0.0870
C87 C 0.24331(19) 0.22480(16) -0.18936(16)
H66 H 0.2003 0.2410 -0.2060
C88 C 0.2747(2) 0.19616(15) -0.23707(16)
C89 C 0.3373(2) 0.17392(15) -0.21094(17)
H67 H 0.3609 0.1551 -0.2421
C90 C 0.36676(18) 0.17830(14) -0.14010(17)
H68 H 0.4092 0.1613 -0.1241
C91 C 0.2419(3) 0.1898(2) -0.31438(18)
H69 H 0.2739 0.2235 -0.3242
H70 H 0.1920 0.1978 -0.3254
H71 H 0.2387 0.1437 -0.3439
C92 C 0.37190(16) 0.14128(13) -0.00893(15)
C93 C 0.43673(18) 0.13105(15) 0.03299(18)
H72 H 0.4793 0.1684 0.0593
C94 C 0.4402(2) 0.06588(18) 0.0370(2)
H73 H 0.4857 0.0598 0.0655
C95 C 0.3802(2) 0.01092(16) 0.0012(2)
C96 C 0.3159(2) 0.02114(17) -0.0403(2)
H74 H 0.2732 -0.0163 -0.0657
C97 C 0.3116(2) 0.08482(15) -0.0459(2)
H75 H 0.2663 0.0900 -0.0759
C98 C 0.3857(3) -0.05961(19) 0.0056(3)
H76 H 0.3422 -0.0809 0.0132
H77 H 0.4312 -0.0553 0.0452
H78 H 0.3874 -0.0881 -0.0389
C99 C 0.40157(16) 0.27608(18) 0.36008(17)
C100 C 0.43344(15) 0.30170(14) 0.43989(16)
C101 C 0.38605(16) 0.30176(17) 0.47664(17)
H79 H 0.3338 0.2838 0.4518
C102 C 0.41540(16) 0.32830(15) 0.55012(17)
H80 H 0.3838 0.3300 0.5766
C103 C 0.49198(15) 0.35228(14) 0.58410(16)
H81 H 0.5142 0.3704 0.6345
C104 C 0.53572(14) 0.34932(13) 0.54311(14)
C105 C 0.61906(15) 0.37575(15) 0.57949(15)
S7? S 0.6600(4) 0.2739(4) 0.3585(3)
O13? O 0.608(2) 0.307(2) 0.3903(18)
C118? C 0.6992(16) 0.2238(15) 0.4047(13)
H118? H 0.7494 0.2494 0.4388
H119? H 0.7024 0.1826 0.3714
H120? H 0.6683 0.2106 0.4302
C119? C 0.5999(11) 0.2081(9) 0.2793(8)
H121? H 0.5534 0.2210 0.2598
H122? H 0.5888 0.1657 0.2896
H123? H 0.6242 0.2011 0.2445
S8? S 0.3674(2) 0.61306(16) 0.21913(16)
O14? O 0.3840(11) 0.6175(11) 0.1542(9)
C120? C 0.2841(15) 0.5493(16) 0.1899(19)
H124? H 0.2427 0.5630 0.1608
H125? H 0.2742 0.5433 0.2312
H126? H 0.2891 0.5061 0.1616
C121? C 0.327(2) 0.6830(16) 0.241(2)
H127? H 0.3327 0.7126 0.2129
H128? H 0.3517 0.7093 0.2916
H129? H 0.2736 0.6654 0.2301
S9? S 0.3567(6) 0.3709(5) 0.7531(9)
O15? O 0.325(2) 0.344(2) 0.6715(11)
C122? C 0.2991(13) 0.4191(13) 0.7813(17)
H130? H 0.3184 0.4371 0.8334
H131? H 0.2981 0.4572 0.7625
H132? H 0.2484 0.3901 0.7638
C123? C 0.4293(11) 0.4456(11) 0.7695(14)
H133? H 0.4548 0.4687 0.8208
H134? H 0.4653 0.4310 0.7489
H135? H 0.4066 0.4771 0.7476
S10? S 0.35012(10) 0.98649(9) 0.75168(10)
O16? O 0.3141(8) 0.9107(8) 0.7224(13)
C124? C 0.4298(5) 1.0002(6) 0.8270(5)
H136? H 0.4597 0.9686 0.8149
H137? H 0.4147 0.9921 0.8650
H138? H 0.4594 1.0473 0.8430
C125? C 0.4008(9) 0.9969(6) 0.6957(5)
H139? H 0.4390 0.9711 0.7018
H140? H 0.4246 1.0454 0.7088
H141? H 0.3664 0.9798 0.6460
S11? S 0.3760(3) 1.0028(2) 0.7345(3)
O17? O 0.3212(9) 0.9338(7) 0.6919(10)
C126? C 0.3931(17) 1.0159(18) 0.8240(8)
H142? H 0.3457 1.0112 0.8314
H143? H 0.4250 1.0619 0.8524
H144? H 0.4181 0.9820 0.8386
C127? C 0.4643(7) 0.9885(9) 0.7372(9)
H145? H 0.4771 0.9572 0.7638
H146? H 0.5023 1.0320 0.7606
H147? H 0.4621 0.9684 0.6886
S12? S 0.7248(4) 0.5929(5) 0.6573(4)
O18? O 0.6590(5) 0.5850(5) 0.5883(4)
C128? C 0.7848(15) 0.6699(12) 0.6847(14)
H148? H 0.8264 0.6750 0.7282
H149? H 0.8039 0.6734 0.6475
H150? H 0.7590 0.7059 0.6942
C129? C 0.6832(9) 0.6042(10) 0.7237(7)
H151? H 0.7209 0.6097 0.7698
H152? H 0.6637 0.6450 0.7271
H153? H 0.6423 0.5640 0.7103
N10? N 0.7113(4) 0.5671(2) 0.6679(3)
O19? O 0.7240(5) 0.5703(3) 0.7290(3)
O20? O 0.7610(4) 0.5877(4) 0.6510(4)
N11? N 0.5614(3) 0.4903(3) 0.4243(3)
O21? O 0.6179(4) 0.4949(4) 0.4110(3)
O22? O 0.4987(4) 0.4695(3) 0.3747(3)
N12? N 0.4426(4) 0.5153(3) 0.5956(4)
O23? O 0.3980(4) 0.5453(4) 0.5709(4)
O24? O 0.4296(5) 0.4794(3) 0.6299(4)
C130? C 0.5778(2) 0.54254(14) 0.63515(15)
C131? C 0.64155(17) 0.54727(14) 0.61862(16)
C132? C 0.63522(18) 0.52988(16) 0.54802(18)
H154? H 0.6788 0.5331 0.5367
C133? C 0.5652(2) 0.5078(2) 0.49397(15)
C134? C 0.50147(18) 0.5030(2) 0.51050(18)
H155? H 0.4536 0.4879 0.4736
C135? C 0.50779(18) 0.52043(19) 0.5811(2)
C136? C 0.5847(4) 0.5618(2) 0.7130(3)
H156? H 0.5956 0.5242 0.7308
H157? H 0.5377 0.5703 0.7164
H158? H 0.6251 0.6031 0.7416
loop_
_geom_bond_atom_site_label_1
_geom_bond_atom_site_label_2
_geom_bond_site_symmetry_1
_geom_bond_site_symmetry_2
N1 C2 1_555 1_555
N2 H1 1_555 1_555
N3 H2 1_555 1_555
N4 C65 1_555 1_555
N5 H3 1_555 1_555
N6 H4 1_555 1_555
N7 C100 1_555 1_555
N8 H5 1_555 1_555
N9 H6 1_555 1_555
O1 C1 1_555 1_555
O2 C7 1_555 1_555
O3 C64 1_555 1_555
O4 C70 1_555 1_555
O5 C99 1_555 1_555
O6 C105 1_555 1_555
C1 N2 1_555 1_555
C2 C1 1_555 1_555
C3 C2 1_555 1_555
H7 C3 1_555 1_555
C4 C3 1_555 1_555
H8 C4 1_555 1_555
C5 C4 1_555 1_555
H9 C5 1_555 1_555
C6 N1 1_555 1_555
C7 N3 1_555 1_555
C8 C9 1_555 1_555
C9 C22 1_555 1_555
C10 C8 1_555 1_555
C11 C10 1_555 1_555
H10 C11 1_555 1_555
C12 C11 1_555 1_555
H11 C12 1_555 1_555
C13 N2 1_555 1_555
C14 C13 1_555 1_555
H12 C14 1_555 1_555
C15 C10 1_555 1_555
H13 C15 1_555 1_555
C16 C8 1_555 1_555
C17 C16 1_555 1_555
H14 C17 1_555 1_555
C18 C17 1_555 1_555
H15 C18 1_555 1_555
C19 N9 1_555 1_555
C20 C19 1_555 1_555
H16 C20 1_555 1_555
C21 C16 1_555 1_555
H17 C21 1_555 1_555
C22 C23 1_555 1_555
C23 H18 1_555 1_555
C24 C23 1_555 1_555
H19 C24 1_555 1_555
C25 C24 1_555 1_555
C26 C25 1_555 1_555
H20 C26 1_555 1_555
C27 C22 1_555 1_555
H21 C27 1_555 1_555
C28 C25 1_555 1_555
H22 C28 1_555 1_555
H23 C28 1_555 1_555
H24 C28 1_555 1_555
C29 C9 1_555 1_555
C30 C29 1_555 1_555
H25 C30 1_555 1_555
C31 C30 1_555 1_555
H26 C31 1_555 1_555
C32 C31 1_555 1_555
C33 C32 1_555 1_555
H27 C33 1_555 1_555
C34 C29 1_555 1_555
H28 C34 1_555 1_555
C35 C32 1_555 1_555
H29 C35 1_555 1_555
H30 C35 1_555 1_555
H31 C35 1_555 1_555
C36 C37 1_555 1_555
C37 C50 1_555 1_555
C38 C36 1_555 1_555
C39 C38 1_555 1_555
H32 C39 1_555 1_555
C40 C39 1_555 1_555
H33 C40 1_555 1_555
C41 N3 1_555 1_555
C42 C41 1_555 1_555
H34 C42 1_555 1_555
C43 C38 1_555 1_555
H35 C43 1_555 1_555
C44 C36 1_555 1_555
C45 C44 1_555 1_555
H36 C45 1_555 1_555
C46 C45 1_555 1_555
H37 C46 1_555 1_555
C47 N5 1_555 1_555
C48 C47 1_555 1_555
H38 C48 1_555 1_555
C49 C44 1_555 1_555
H39 C49 1_555 1_555
C50 C51 1_555 1_555
C51 H40 1_555 1_555
C52 C51 1_555 1_555
H41 C52 1_555 1_555
C53 C52 1_555 1_555
C54 C53 1_555 1_555
H42 C54 1_555 1_555
C55 C50 1_555 1_555
H43 C55 1_555 1_555
C56 C53 1_555 1_555
H44 C56 1_555 1_555
H45 C56 1_555 1_555
H46 C56 1_555 1_555
C57 C37 1_555 1_555
C58 C57 1_555 1_555
H47 C58 1_555 1_555
C59 C58 1_555 1_555
H48 C59 1_555 1_555
C60 C59 1_555 1_555
C61 C60 1_555 1_555
H49 C61 1_555 1_555
C62 C57 1_555 1_555
H50 C62 1_555 1_555
C63 C60 1_555 1_555
H51 C63 1_555 1_555
H52 C63 1_555 1_555
H53 C63 1_555 1_555
C64 N5 1_555 1_555
C65 C64 1_555 1_555
C66 C65 1_555 1_555
H54 C66 1_555 1_555
C67 C66 1_555 1_555
H55 C67 1_555 1_555
C68 C67 1_555 1_555
H56 C68 1_555 1_555
C69 N4 1_555 1_555
C70 N6 1_555 1_555
C71 C72 1_555 1_555
C72 C85 1_555 1_555
C73 N6 1_555 1_555
C74 C73 1_555 1_555
H57 C74 1_555 1_555
C75 C74 1_555 1_555
H58 C75 1_555 1_555
C76 C71 1_555 1_555
C77 C76 1_555 1_555
H59 C77 1_555 1_555
C78 C73 1_555 1_555
H60 C78 1_555 1_555
C79 C71 1_555 1_555
C80 C79 1_555 1_555
H61 C80 1_555 1_555
C81 C80 1_555 1_555
H62 C81 1_555 1_555
C82 N8 1_555 1_555
C83 C82 1_555 1_555
H63 C83 1_555 1_555
C84 C79 1_555 1_555
H64 C84 1_555 1_555
C85 C86 1_555 1_555
C86 H65 1_555 1_555
C87 C86 1_555 1_555
H66 C87 1_555 1_555
C88 C87 1_555 1_555
C89 C88 1_555 1_555
H67 C89 1_555 1_555
C90 C85 1_555 1_555
H68 C90 1_555 1_555
C91 C88 1_555 1_555
H69 C91 1_555 1_555
H70 C91 1_555 1_555
H71 C91 1_555 1_555
C92 C72 1_555 1_555
C93 C92 1_555 1_555
H72 C93 1_555 1_555
C94 C93 1_555 1_555
H73 C94 1_555 1_555
C95 C94 1_555 1_555
C96 C95 1_555 1_555
H74 C96 1_555 1_555
C97 C92 1_555 1_555
H75 C97 1_555 1_555
C98 C95 1_555 1_555
H76 C98 1_555 1_555
H77 C98 1_555 1_555
H78 C98 1_555 1_555
C99 N8 1_555 1_555
C100 C99 1_555 1_555
C101 C100 1_555 1_555
H79 C101 1_555 1_555
C102 C101 1_555 1_555
H80 C102 1_555 1_555
C103 C102 1_555 1_555
H81 C103 1_555 1_555
C104 N7 1_555 1_555
C105 N9 1_555 1_555
S1 O7 1_555 1_555
C106 S1 1_555 1_555
H82 C106 1_555 1_555
H83 C106 1_555 1_555
H84 C106 1_555 1_555
C107 S1 1_555 1_555
H85 C107 1_555 1_555
H86 C107 1_555 1_555
H87 C107 1_555 1_555
S2 O8 1_555 1_555
C108 S2 1_555 1_555
H88 C108 1_555 1_555
H89 C108 1_555 1_555
H90 C108 1_555 1_555
C109 S2 1_555 1_555
H91 C109 1_555 1_555
H92 C109 1_555 1_555
H93 C109 1_555 1_555
S3 O9 1_555 1_555
C110 S3 1_555 1_555
H94 C110 1_555 1_555
H95 C110 1_555 1_555
H96 C110 1_555 1_555
C111 S3 1_555 1_555
H97 C111 1_555 1_555
H98 C111 1_555 1_555
H99 C111 1_555 1_555
S4 O10 1_555 1_555
C112 S4 1_555 1_555
H100 C112 1_555 1_555
H101 C112 1_555 1_555
H102 C112 1_555 1_555
C113 S4 1_555 1_555
H103 C113 1_555 1_555
H104 C113 1_555 1_555
H105 C113 1_555 1_555
S5 O11 1_555 1_555
C114 S5 1_555 1_555
H106 C114 1_555 1_555
H107 C114 1_555 1_555
H108 C114 1_555 1_555
C115 S5 1_555 1_555
H109 C115 1_555 1_555
H110 C115 1_555 1_555
H111 C115 1_555 1_555
S6 O12 1_555 1_555
C116 S6 1_555 1_555
H112 C116 1_555 1_555
H113 C116 1_555 1_555
H114 C116 1_555 1_555
C117 S6 1_555 1_555
H115 C117 1_555 1_555
H116 C117 1_555 1_555
H117 C117 1_555 1_555
C5 C6 1_555 1_555
C6 C7 1_555 1_555
C12 C13 1_555 1_555
C14 C15 1_555 1_555
C18 C19 1_555 1_555
C20 C21 1_555 1_555
C26 C27 1_555 1_555
C33 C34 1_555 1_555
C40 C41 1_555 1_555
C42 C43 1_555 1_555
C46 C47 1_555 1_555
C48 C49 1_555 1_555
C54 C55 1_555 1_555
C61 C62 1_555 1_555
C68 C69 1_555 1_555
C69 C70 1_555 1_555
C75 C76 1_555 1_555
C77 C78 1_555 1_555
C81 C82 1_555 1_555
C83 C84 1_555 1_555
C89 C90 1_555 1_555
C96 C97 1_555 1_555
C103 C104 1_555 1_555
C104 C105 1_555 1_555

#END
