
#######################################################################
#
#                 Cambridge Crystallographic Data Centre
#                                CCDC 
#
#######################################################################
#
# If this CIF has been generated from an entry in the Cambridge 
# Structural Database, then it will include bibliographic, chemical, 
# crystal, experimental, refinement or atomic coordinate data resulting 
# from the CCDC's data processing and validation procedures.
#
#######################################################################

data_MESHAU
_chemical_formula_moiety         'C13 H13 N1 O4 S2'
_chemical_name_systematic        
'S-(3-Methyl-4,5-dioxo-2-phenyloxazolidin-2-yl) O-ethyl dithiocarbonate'
_symmetry_cell_setting           monoclinic
_symmetry_space_group_name_H-M   'P 21/n'
_symmetry_Int_Tables_number      14
_space_group_name_Hall           '-P 2yn'
loop_
_symmetry_equiv_pos_site_id
_symmetry_equiv_pos_as_xyz
1 x,y,z
2 1/2-x,1/2+y,1/2-z
3 -x,-y,-z
4 1/2+x,1/2-y,1/2+z
_cell_length_a                   13.8294(9)
_cell_length_b                   6.5282(4)
_cell_length_c                   16.3403(10)
_cell_angle_alpha                90
_cell_angle_beta                 98.510(2)
_cell_angle_gamma                90
_cell_volume                     1458.98
_exptl_crystal_colour            colorless
_exptl_crystal_description       block
_cell_formula_units_Z            4
loop_
_atom_site_label
_atom_site_type_symbol
_atom_site_fract_x
_atom_site_fract_y
_atom_site_fract_z
C1 C 0.72255(10) 0.0532(2) 0.98040(8)
N1 N 0.64676(8) 0.18418(18) 1.00359(7)
C2 C 0.66577(11) 0.3597(2) 1.05904(10)
H1 H 0.6872 0.4763 1.0285
H2 H 0.7170 0.3243 1.1049
H3 H 0.6058 0.3963 1.0809
C3 C 0.55949(10) 0.1504(2) 0.95739(8)
O1 O 0.48215(7) 0.23641(17) 0.95996(7)
C4 C 0.57621(10) -0.0242(2) 0.89975(8)
O2 O 0.51824(8) -0.10568(17) 0.84883(6)
O3 O 0.67247(7) -0.07552(15) 0.91523(6)
C5 C 0.77216(10) -0.0831(2) 1.04942(9)
C6 C 0.73276(11) -0.1044(2) 1.12270(9)
H4 H 0.6758 -0.0301 1.1306
C7 C 0.77744(13) -0.2354(3) 1.18430(10)
H5 H 0.7510 -0.2496 1.2344
C8 C 0.85971(13) -0.3445(3) 1.17300(11)
H6 H 0.8903 -0.4317 1.2157
C9 C 0.89788(12) -0.3274(3) 1.09961(12)
H7 H 0.9540 -0.4045 1.0916
C10 C 0.85406(11) -0.1972(2) 1.03751(10)
H8 H 0.8800 -0.1861 0.9870
S1 S 0.82128(3) 0.19886(6) 0.94160(2)
C11 C 0.76544(11) 0.3600(2) 0.86209(9)
S2 S 0.83832(3) 0.51042(7) 0.81974(3)
O4 O 0.66978(7) 0.34174(16) 0.84337(6)
C12 C 0.62014(13) 0.4700(2) 0.77532(10)
H9 H 0.6500 0.4489 0.7245
H10 H 0.6259 0.6167 0.7906
C13 C 0.51479(13) 0.4066(3) 0.76097(11)
H11 H 0.5102 0.2607 0.7469
H12 H 0.4796 0.4869 0.7153
H13 H 0.4858 0.4308 0.8113
loop_
_geom_bond_atom_site_label_1
_geom_bond_atom_site_label_2
_geom_bond_site_symmetry_1
_geom_bond_site_symmetry_2
C1 N1 1_555 1_555
N1 C2 1_555 1_555
C2 H1 1_555 1_555
H2 C2 1_555 1_555
H3 C2 1_555 1_555
C3 N1 1_555 1_555
O1 C3 1_555 1_555
C4 C3 1_555 1_555
O2 C4 1_555 1_555
O3 C1 1_555 1_555
C5 C1 1_555 1_555
C6 C5 1_555 1_555
H4 C6 1_555 1_555
C7 C6 1_555 1_555
H5 C7 1_555 1_555
C8 C7 1_555 1_555
H6 C8 1_555 1_555
C9 C8 1_555 1_555
H7 C9 1_555 1_555
C10 C5 1_555 1_555
H8 C10 1_555 1_555
S1 C1 1_555 1_555
C11 S1 1_555 1_555
S2 C11 1_555 1_555
O4 C11 1_555 1_555
C12 O4 1_555 1_555
H9 C12 1_555 1_555
H10 C12 1_555 1_555
C13 C12 1_555 1_555
H11 C13 1_555 1_555
H12 C13 1_555 1_555
H13 C13 1_555 1_555
C4 O3 1_555 1_555
C9 C10 1_555 1_555

#END
