
#######################################################################
#
#                 Cambridge Crystallographic Data Centre
#                                CCDC 
#
#######################################################################
#
# If this CIF has been generated from an entry in the Cambridge 
# Structural Database, then it will include bibliographic, chemical, 
# crystal, experimental, refinement or atomic coordinate data resulting 
# from the CCDC's data processing and validation procedures.
#
#######################################################################

data_MESHAW
_chemical_formula_moiety         'C27 H21 O2 P1'
_chemical_name_systematic        
2-[1-(diphenylphosphoryl)-3-phenylprop-2-yn-1-yl]phenol
_symmetry_cell_setting           triclinic
_symmetry_space_group_name_H-M   'P -1'
_symmetry_Int_Tables_number      2
_space_group_name_Hall           '-P 1'
loop_
_symmetry_equiv_pos_site_id
_symmetry_equiv_pos_as_xyz
1 x,y,z
2 -x,-y,-z
_cell_length_a                   9.5112(8)
_cell_length_b                   9.7672(9)
_cell_length_c                   24.571(2)
_cell_angle_alpha                81.226(2)
_cell_angle_beta                 81.734(2)
_cell_angle_gamma                69.1360(10)
_cell_volume                     2098.05
_cell_formula_units_Z            4
loop_
_atom_site_label
_atom_site_type_symbol
_atom_site_fract_x
_atom_site_fract_y
_atom_site_fract_z
O1 O 0.6584(6) 0.8786(5) 0.5169(2)
H1 H 0.6333 0.9340 0.5413
O2 O 0.4744(6) 0.9216(5) 0.41681(19)
P1 P 0.5772(3) 0.7848(2) 0.39664(9)
C1 C 0.7557(8) 0.7168(8) 0.4284(3)
H2 H 0.7353 0.6735 0.4661
C2 C 0.8017(9) 0.8447(8) 0.4335(3)
C3 C 0.7488(9) 0.9223(8) 0.4771(3)
C4 C 0.7906(10) 1.0410(9) 0.4794(4)
H3 H 0.7551 1.0936 0.5099
C5 C 0.8818(10) 1.0844(9) 0.4385(4)
H4 H 0.9089 1.1656 0.4411
C6 C 0.9324(11) 1.0104(10) 0.3948(4)
H5 H 0.9948 1.0402 0.3665
C7 C 0.8940(9) 0.8912(9) 0.3909(3)
H6 H 0.9291 0.8406 0.3598
C8 C 0.8668(10) 0.6011(9) 0.3999(3)
C9 C 0.9553(10) 0.5200(9) 0.3721(3)
C10 C 1.0564(9) 0.4200(10) 0.3378(4)
C11 C 1.0779(10) 0.4632(11) 0.2816(4)
H7 H 1.0282 0.5598 0.2674
C12 C 1.1702(13) 0.3659(16) 0.2477(5)
H8 H 1.1800 0.3963 0.2101
C13 C 1.2488(15) 0.2264(18) 0.2662(7)
H9 H 1.3134 0.1614 0.2420
C14 C 1.2312(11) 0.1836(11) 0.3210(6)
H10 H 1.2860 0.0881 0.3348
C15 C 1.1349(10) 0.2776(10) 0.3562(4)
H11 H 1.1222 0.2443 0.3935
C16 C 0.4954(10) 0.6458(8) 0.4088(3)
C17 C 0.5672(10) 0.4992(8) 0.4265(3)
H12 H 0.6684 0.4659 0.4332
C18 C 0.4917(11) 0.4062(9) 0.4341(3)
H13 H 0.5416 0.3083 0.4468
C19 C 0.3501(13) 0.4456(11) 0.4244(4)
H14 H 0.3011 0.3769 0.4289
C20 C 0.2763(13) 0.5904(12) 0.4078(5)
H15 H 0.1746 0.6217 0.4020
C21 C 0.3483(12) 0.6870(10) 0.3996(4)
H16 H 0.2966 0.7848 0.3873
C22 C 0.6301(9) 0.8077(8) 0.3255(3)
C23 C 0.6366(10) 0.9437(8) 0.3030(3)
H17 H 0.6056 1.0215 0.3247
C24 C 0.6885(11) 0.9628(9) 0.2494(3)
H18 H 0.6962 1.0536 0.2346
C25 C 0.7289(11) 0.8539(9) 0.2172(3)
H19 H 0.7624 0.8694 0.1800
C26 C 0.7206(11) 0.7209(8) 0.2389(3)
H20 H 0.7501 0.6439 0.2170
C27 C 0.6688(9) 0.7001(9) 0.2933(3)
H21 H 0.6606 0.6093 0.3079
O3 O 0.6233(6) 0.3493(6) -0.0158(2)
H22 H 0.5709 0.3711 -0.0417
O4 O 0.5609(6) 0.5316(5) 0.09321(19)
P2 P 0.7067(3) 0.4347(2) 0.11017(8)
C28 C 0.7730(9) 0.2667(8) 0.0773(3)
H23 H 0.8170 0.2893 0.0400
C29 C 0.6436(9) 0.2218(8) 0.0711(3)
C30 C 0.5708(9) 0.2678(9) 0.0245(3)
C31 C 0.4516(11) 0.2257(10) 0.0204(4)
H24 H 0.4026 0.2560 -0.0117
C32 C 0.4016(12) 0.1393(10) 0.0627(4)
H25 H 0.3198 0.1112 0.0593
C33 C 0.4732(13) 0.0967(11) 0.1087(4)
H26 H 0.4407 0.0382 0.1376
C34 C 0.5915(11) 0.1373(9) 0.1136(3)
H27 H 0.6387 0.1079 0.1462
C35 C 0.8916(10) 0.1524(9) 0.1055(3)
C36 C 0.9842(10) 0.0664(9) 0.1308(4)
C37 C 1.0966(11) -0.0386(9) 0.1637(4)
C38 C 1.0728(11) -0.0450(10) 0.2186(5)
H28 H 0.9827 0.0154 0.2355
C39 C 1.1831(14) -0.1420(12) 0.2504(4)
H29 H 1.1685 -0.1441 0.2888
C40 C 1.3053(14) -0.2292(11) 0.2277(5)
H30 H 1.3771 -0.2950 0.2499
C41 C 1.3316(12) -0.2274(10) 0.1732(5)
H31 H 1.4208 -0.2906 0.1570
C42 C 1.2202(11) -0.1269(9) 0.1404(4)
H32 H 1.2355 -0.1240 0.1021
C43 C 0.6972(10) 0.3806(8) 0.1834(3)
C44 C 0.5614(10) 0.3955(8) 0.2097(3)
H33 H 0.4762 0.4310 0.1903
C45 C 0.5478(12) 0.3578(9) 0.2661(4)
H34 H 0.4542 0.3635 0.2850
C46 C 0.6723(13) 0.3124(9) 0.2935(4)
H35 H 0.6639 0.2875 0.3316
C47 C 0.8043(12) 0.3029(8) 0.2675(4)
H36 H 0.8884 0.2727 0.2873
C48 C 0.8210(10) 0.3366(8) 0.2115(3)
H37 H 0.9154 0.3294 0.1931
C49 C 0.8449(12) 0.5216(10) 0.0941(3)
C50 C 0.9937(12) 0.4472(11) 0.0832(4)
H38 H 1.0279 0.3452 0.0837
C51 C 1.0935(13) 0.5201(14) 0.0714(4)
H39 H 1.1959 0.4683 0.0639
C52 C 1.0434(17) 0.6702(15) 0.0707(4)
H40 H 1.1118 0.7206 0.0636
C53 C 0.8966(16) 0.7435(13) 0.0802(4)
H41 H 0.8625 0.8459 0.0780
C54 C 0.7944(12) 0.6711(9) 0.0932(3)
H42 H 0.6923 0.7231 0.1012
loop_
_geom_bond_atom_site_label_1
_geom_bond_atom_site_label_2
_geom_bond_site_symmetry_1
_geom_bond_site_symmetry_2
O1 H1 1_555 1_555
O2 P1 1_555 1_555
P1 C1 1_555 1_555
C1 H2 1_555 1_555
C2 C1 1_555 1_555
C3 O1 1_555 1_555
C4 C3 1_555 1_555
H3 C4 1_555 1_555
C5 C4 1_555 1_555
H4 C5 1_555 1_555
C6 C5 1_555 1_555
H5 C6 1_555 1_555
C7 C2 1_555 1_555
H6 C7 1_555 1_555
C8 C1 1_555 1_555
C9 C8 1_555 1_555
C10 C9 1_555 1_555
C11 C10 1_555 1_555
H7 C11 1_555 1_555
C12 C11 1_555 1_555
H8 C12 1_555 1_555
C13 C12 1_555 1_555
H9 C13 1_555 1_555
C14 C13 1_555 1_555
H10 C14 1_555 1_555
C15 C10 1_555 1_555
H11 C15 1_555 1_555
C16 P1 1_555 1_555
C17 C16 1_555 1_555
H12 C17 1_555 1_555
C18 C17 1_555 1_555
H13 C18 1_555 1_555
C19 C18 1_555 1_555
H14 C19 1_555 1_555
C20 C19 1_555 1_555
H15 C20 1_555 1_555
C21 C16 1_555 1_555
H16 C21 1_555 1_555
C22 P1 1_555 1_555
C23 C22 1_555 1_555
H17 C23 1_555 1_555
C24 C23 1_555 1_555
H18 C24 1_555 1_555
C25 C24 1_555 1_555
H19 C25 1_555 1_555
C26 C25 1_555 1_555
H20 C26 1_555 1_555
C27 C22 1_555 1_555
H21 C27 1_555 1_555
O3 H22 1_555 1_555
O4 P2 1_555 1_555
P2 C28 1_555 1_555
C28 H23 1_555 1_555
C29 C28 1_555 1_555
C30 O3 1_555 1_555
C31 C30 1_555 1_555
H24 C31 1_555 1_555
C32 C31 1_555 1_555
H25 C32 1_555 1_555
C33 C32 1_555 1_555
H26 C33 1_555 1_555
C34 C29 1_555 1_555
H27 C34 1_555 1_555
C35 C28 1_555 1_555
C36 C35 1_555 1_555
C37 C36 1_555 1_555
C38 C37 1_555 1_555
H28 C38 1_555 1_555
C39 C38 1_555 1_555
H29 C39 1_555 1_555
C40 C39 1_555 1_555
H30 C40 1_555 1_555
C41 C40 1_555 1_555
H31 C41 1_555 1_555
C42 C37 1_555 1_555
H32 C42 1_555 1_555
C43 P2 1_555 1_555
C44 C43 1_555 1_555
H33 C44 1_555 1_555
C45 C44 1_555 1_555
H34 C45 1_555 1_555
C46 C45 1_555 1_555
H35 C46 1_555 1_555
C47 C46 1_555 1_555
H36 C47 1_555 1_555
C48 C43 1_555 1_555
H37 C48 1_555 1_555
C49 P2 1_555 1_555
C50 C49 1_555 1_555
H38 C50 1_555 1_555
C51 C50 1_555 1_555
H39 C51 1_555 1_555
C52 C51 1_555 1_555
H40 C52 1_555 1_555
C53 C52 1_555 1_555
H41 C53 1_555 1_555
C54 C49 1_555 1_555
H42 C54 1_555 1_555
C2 C3 1_555 1_555
C6 C7 1_555 1_555
C14 C15 1_555 1_555
C20 C21 1_555 1_555
C26 C27 1_555 1_555
C29 C30 1_555 1_555
C33 C34 1_555 1_555
C41 C42 1_555 1_555
C47 C48 1_555 1_555
C53 C54 1_555 1_555

#END
