
#######################################################################
#
#                 Cambridge Crystallographic Data Centre
#                                CCDC 
#
#######################################################################
#
# If this CIF has been generated from an entry in the Cambridge 
# Structural Database, then it will include bibliographic, chemical, 
# crystal, experimental, refinement or atomic coordinate data resulting 
# from the CCDC's data processing and validation procedures.
#
#######################################################################

data_MESPIM
_chemical_formula_moiety         'C23 H19 F16 N1 O3'
_chemical_name_systematic        
'methyl 1-t-butyl-3-fluoro-3-(pentadecafluoroheptyl)-3,3a,4,8b-tetrahydro-1H-indeno[1,2-c][1,2]oxazole-6-carboxylate'
_symmetry_cell_setting           monoclinic
_symmetry_space_group_name_H-M   'P 21/c'
_symmetry_Int_Tables_number      14
_space_group_name_Hall           '-P 2ybc'
loop_
_symmetry_equiv_pos_site_id
_symmetry_equiv_pos_as_xyz
1 x,y,z
2 -x,1/2+y,1/2-z
3 -x,-y,-z
4 x,1/2-y,1/2+z
_cell_length_a                   5.61570(10)
_cell_length_b                   10.8415(2)
_cell_length_c                   43.5213(6)
_cell_angle_alpha                90
_cell_angle_beta                 93.6860(10)
_cell_angle_gamma                90
_cell_volume                     2644.21
_exptl_crystal_colour            colorless
_exptl_crystal_description       prismatic
_cell_formula_units_Z            4
loop_
_atom_site_label
_atom_site_type_symbol
_atom_site_fract_x
_atom_site_fract_y
_atom_site_fract_z
N1 N 0.3228(6) 0.1190(3) 0.64517(7)
O1 O 0.3354(5) 0.2339(3) 0.62676(6)
O2 O 0.9930(10) 0.3313(3) 0.78502(8)
O3 O 1.0821(8) 0.1314(3) 0.78306(9)
C1 C 0.4408(7) 0.2743(3) 0.71610(8)
C2 C 0.6120(8) 0.2963(3) 0.74026(8)
H1 H 0.6161 0.3714 0.7506
C3 C 0.7767(7) 0.2037(3) 0.74860(8)
C4 C 0.7722(8) 0.0919(3) 0.73298(8)
H2 H 0.8820 0.0308 0.7389
C5 C 0.6043(8) 0.0705(3) 0.70848(8)
H3 H 0.6036 -0.0036 0.6977
C6 C 0.4396(7) 0.1613(3) 0.70058(8)
C7 C 0.2421(7) 0.1613(4) 0.67522(8)
H4 H 0.1077 0.1110 0.6812
C8 C 0.1689(7) 0.2956(4) 0.67242(8)
H5 H -0.0033 0.3041 0.6677
C9 C 0.2474(8) 0.3583(4) 0.70295(9)
H6 H 0.3084 0.4405 0.6996
H7 H 0.1166 0.3633 0.7164
C10 C 0.3115(6) 0.3350(4) 0.64496(8)
C11 C 0.1565(10) 0.0339(5) 0.62734(11)
C12 C 0.171(2) -0.0876(7) 0.64368(18)
H8 H 0.3348 -0.1132 0.6462
H9 H 0.0809 -0.1480 0.6318
H10 H 0.1072 -0.0794 0.6635
C13 C -0.1000(10) 0.0830(10) 0.62362(18)
H11 H -0.2072 0.0163 0.6183
H12 H -0.1113 0.1440 0.6076
H13 H -0.1420 0.1196 0.6426
C14 C 0.2498(11) 0.0229(6) 0.59494(11)
H14 H 0.4155 0.0006 0.5967
H15 H 0.2312 0.1007 0.5845
H16 H 0.1608 -0.0393 0.5835
C15 C 0.9594(9) 0.2296(4) 0.77379(9)
C16 C 1.2633(12) 0.1486(7) 0.80807(16)
H17 H 1.3571 0.2201 0.8041
H18 H 1.3647 0.0773 0.8096
H19 H 1.1877 0.1597 0.8270
C17 C 0.2021(7) 0.4416(4) 0.62561(9)
C18 C 0.3487(7) 0.4889(4) 0.59927(10)
C19 C 0.2081(7) 0.5679(4) 0.57462(9)
C20 C 0.3560(8) 0.6416(4) 0.55247(10)
C21 C 0.2168(8) 0.6916(5) 0.52363(11)
C22 C 0.3413(12) 0.7866(6) 0.50443(16)
C23 C 0.2265(12) 0.8234(6) 0.47393(13)
F1 F 0.5387(4) 0.3770(2) 0.65550(5)
F2 F -0.0123(4) 0.4057(4) 0.61342(7)
F3 F 0.1686(7) 0.5377(3) 0.64457(6)
F4 F 0.5262(6) 0.5639(3) 0.61212(8)
F5 F 0.4561(7) 0.3993(3) 0.58603(8)
F6 F 0.0703(7) 0.4897(3) 0.55771(7)
F7 F 0.0670(6) 0.6471(3) 0.58864(8)
F8 F 0.4591(8) 0.7354(3) 0.56781(8)
F9 F 0.5342(7) 0.5717(4) 0.54384(9)
F10 F 0.1434(14) 0.6033(4) 0.50565(9)
F11 F 0.0256(8) 0.7496(6) 0.53359(11)
F12 F 0.5511(8) 0.7575(11) 0.5016(2)
F13 F 0.359(2) 0.8911(5) 0.52123(13)
F14 F 0.222(2) 0.7305(6) 0.45515(10)
F15 F 0.3329(14) 0.9100(5) 0.46117(12)
F16 F 0.0065(13) 0.8463(10) 0.47502(14)
loop_
_geom_bond_atom_site_label_1
_geom_bond_atom_site_label_2
_geom_bond_site_symmetry_1
_geom_bond_site_symmetry_2
N1 O1 1_555 1_555
O1 C10 1_555 1_555
O2 C15 1_555 1_555
O3 C15 1_555 1_555
C1 C2 1_555 1_555
C2 H1 1_555 1_555
C3 C2 1_555 1_555
C4 C3 1_555 1_555
H2 C4 1_555 1_555
C5 C4 1_555 1_555
H3 C5 1_555 1_555
C6 C1 1_555 1_555
C7 N1 1_555 1_555
H4 C7 1_555 1_555
C8 C7 1_555 1_555
H5 C8 1_555 1_555
C9 C1 1_555 1_555
H6 C9 1_555 1_555
H7 C9 1_555 1_555
C10 C8 1_555 1_555
C11 N1 1_555 1_555
C12 C11 1_555 1_555
H8 C12 1_555 1_555
H9 C12 1_555 1_555
H10 C12 1_555 1_555
C13 C11 1_555 1_555
H11 C13 1_555 1_555
H12 C13 1_555 1_555
H13 C13 1_555 1_555
C14 C11 1_555 1_555
H14 C14 1_555 1_555
H15 C14 1_555 1_555
H16 C14 1_555 1_555
C15 C3 1_555 1_555
C16 O3 1_555 1_555
H17 C16 1_555 1_555
H18 C16 1_555 1_555
H19 C16 1_555 1_555
C17 C10 1_555 1_555
C18 C17 1_555 1_555
C19 C18 1_555 1_555
C20 C19 1_555 1_555
C21 C20 1_555 1_555
C22 C21 1_555 1_555
C23 C22 1_555 1_555
F1 C10 1_555 1_555
F2 C17 1_555 1_555
F3 C17 1_555 1_555
F4 C18 1_555 1_555
F5 C18 1_555 1_555
F6 C19 1_555 1_555
F7 C19 1_555 1_555
F8 C20 1_555 1_555
F9 C20 1_555 1_555
F10 C21 1_555 1_555
F11 C21 1_555 1_555
F12 C22 1_555 1_555
F13 C22 1_555 1_555
F14 C23 1_555 1_555
F15 C23 1_555 1_555
F16 C23 1_555 1_555
C5 C6 1_555 1_555
C6 C7 1_555 1_555
C8 C9 1_555 1_555

#END
