
#######################################################################
#
#                 Cambridge Crystallographic Data Centre
#                                CCDC 
#
#######################################################################
#
# If this CIF has been generated from an entry in the Cambridge 
# Structural Database, then it will include bibliographic, chemical, 
# crystal, experimental, refinement or atomic coordinate data resulting 
# from the CCDC's data processing and validation procedures.
#
#######################################################################

data_MESQOR
_chemical_formula_moiety         'C18 H28 O4'
_chemical_name_systematic        3\b-Acetoxy-9-epi-sclareolide
_symmetry_cell_setting           monoclinic
_symmetry_space_group_name_H-M   'P 21'
_symmetry_Int_Tables_number      4
_space_group_name_Hall           'P 2yb'
loop_
_symmetry_equiv_pos_site_id
_symmetry_equiv_pos_as_xyz
1 x,y,z
2 -x,1/2+y,-z
_cell_length_a                   8.441(1)
_cell_length_b                   7.531(1)
_cell_length_c                   13.316(2)
_cell_angle_alpha                90
_cell_angle_beta                 100.95(1)
_cell_angle_gamma                90
_cell_volume                     831.075
_exptl_crystal_colour            colorless
_exptl_crystal_description       cubes
_chemical_melting_point          189.2-189.8deg.C
_cell_formula_units_Z            2
loop_
_atom_site_label
_atom_site_type_symbol
_atom_site_fract_x
_atom_site_fract_y
_atom_site_fract_z
O1 O 0.4457(2) 0.5693(3) 0.64616(12)
O2 O 0.20839(18) 0.6540(3) 0.55419(11)
O3 O 0.7148(2) 0.7643(4) 0.06943(15)
O4 O 0.4479(2) 0.7881(3) 0.02562(13)
C1 C 0.3579(3) 0.4708(4) 0.32414(17)
H1 H 0.3611 0.3513 0.2975
H2 H 0.4681 0.5131 0.3428
C2 C 0.2380(3) 0.6565(5) 0.73329(18)
H3 H 0.3166 0.7129 0.7850
H4 H 0.2040 0.5470 0.7594
H5 H 0.1465 0.7335 0.7144
C3 C 0.2818(3) 0.4658(3) 0.41995(18)
H6 H 0.1739 0.4164 0.4031
H7 H 0.3458 0.3911 0.4716
C4 C 0.3108(3) 0.6196(4) 0.64160(17)
C5 C 0.2747(3) 0.6511(3) 0.46029(16)
H8 H 0.3851 0.6974 0.4765
C6 C 0.1725(3) 0.7814(3) 0.38578(16)
C7 C 0.2446(2) 0.7773(3) 0.28605(15)
H9 H 0.3551 0.8217 0.3071
C8 C 0.1646(3) 0.9070(4) 0.20331(18)
H10 H 0.1472 1.0202 0.2342
H11 H 0.0605 0.8607 0.1700
C9 C 0.2728(3) 0.9327(4) 0.12428(18)
H12 H 0.2211 1.0146 0.0719
H13 H 0.3743 0.9850 0.1575
C10 C 0.3062(3) 0.7583(4) 0.07417(17)
C11 C 0.3642(3) 0.6122(4) 0.15302(16)
H14 H 0.3565 0.4993 0.1158
C12 C 0.2643(3) 0.5915(3) 0.23982(16)
C13 C 0.5433(3) 0.6571(4) 0.18370(17)
H15 H 0.5621 0.7398 0.2406
H16 H 0.6069 0.5509 0.2027
C14 C 0.5840(3) 0.7396(4) 0.08968(19)
C15 C -0.0077(3) 0.7353(4) 0.37015(18)
H17 H -0.0505 0.7760 0.4279
H18 H -0.0212 0.6090 0.3636
H19 H -0.0641 0.7921 0.3092
C16 C 0.1973(3) 0.9674(4) 0.43330(19)
H20 H 0.1818 0.9630 0.5028
H21 H 0.1208 1.0481 0.3950
H22 H 0.3048 1.0074 0.4318
C17 C 0.1045(3) 0.4992(4) 0.1938(2)
H23 H 0.0568 0.4510 0.2478
H24 H 0.1248 0.4051 0.1493
H25 H 0.0320 0.5839 0.1556
C18 C 0.1702(3) 0.7076(5) -0.01289(18)
H26 H 0.1904 0.5916 -0.0376
H27 H 0.1642 0.7923 -0.0673
H28 H 0.0700 0.7067 0.0112
loop_
_geom_bond_atom_site_label_1
_geom_bond_atom_site_label_2
_geom_bond_site_symmetry_1
_geom_bond_site_symmetry_2
O1 C4 1_555 1_555
O2 C4 1_555 1_555
O3 C14 1_555 1_555
O4 C10 1_555 1_555
C1 H1 1_555 1_555
H2 C1 1_555 1_555
C2 H3 1_555 1_555
H4 C2 1_555 1_555
H5 C2 1_555 1_555
C3 C1 1_555 1_555
H6 C3 1_555 1_555
H7 C3 1_555 1_555
C4 C2 1_555 1_555
C5 O2 1_555 1_555
H8 C5 1_555 1_555
C6 C5 1_555 1_555
C7 C6 1_555 1_555
H9 C7 1_555 1_555
C8 C7 1_555 1_555
H10 C8 1_555 1_555
H11 C8 1_555 1_555
C9 C8 1_555 1_555
H12 C9 1_555 1_555
H13 C9 1_555 1_555
C10 C9 1_555 1_555
C11 C10 1_555 1_555
H14 C11 1_555 1_555
C12 C1 1_555 1_555
C13 C11 1_555 1_555
H15 C13 1_555 1_555
H16 C13 1_555 1_555
C14 O4 1_555 1_555
C15 C6 1_555 1_555
H17 C15 1_555 1_555
H18 C15 1_555 1_555
H19 C15 1_555 1_555
C16 C6 1_555 1_555
H20 C16 1_555 1_555
H21 C16 1_555 1_555
H22 C16 1_555 1_555
C17 C12 1_555 1_555
H23 C17 1_555 1_555
H24 C17 1_555 1_555
H25 C17 1_555 1_555
C18 C10 1_555 1_555
H26 C18 1_555 1_555
H27 C18 1_555 1_555
H28 C18 1_555 1_555
C3 C5 1_555 1_555
C7 C12 1_555 1_555
C11 C12 1_555 1_555
C13 C14 1_555 1_555

#END
