
#######################################################################
#
#                 Cambridge Crystallographic Data Centre
#                                CCDC 
#
#######################################################################
#
# If this CIF has been generated from an entry in the Cambridge 
# Structural Database, then it will include bibliographic, chemical, 
# crystal, experimental, refinement or atomic coordinate data resulting 
# from the CCDC's data processing and validation procedures.
#
#######################################################################

data_MESQIL
_chemical_formula_moiety         'C18 H26 O4'
_chemical_name_systematic        \D^9,11^-3\b-Acetoxysclareolide
_symmetry_cell_setting           orthorhombic
_symmetry_space_group_name_H-M   'P 21 21 21'
_symmetry_Int_Tables_number      19
_space_group_name_Hall           'P 2ac 2ab'
loop_
_symmetry_equiv_pos_site_id
_symmetry_equiv_pos_as_xyz
1 x,y,z
2 1/2-x,-y,1/2+z
3 -x,1/2+y,1/2-z
4 1/2+x,1/2-y,-z
_cell_length_a                   7.3122(8)
_cell_length_b                   8.3190(10)
_cell_length_c                   27.845(3)
_cell_angle_alpha                90
_cell_angle_beta                 90
_cell_angle_gamma                90
_cell_volume                     1693.82
_exptl_crystal_colour            colorless
_exptl_crystal_description       block
_chemical_melting_point          171.1-171.9deg.C
_cell_formula_units_Z            4
loop_
_atom_site_label
_atom_site_type_symbol
_atom_site_fract_x
_atom_site_fract_y
_atom_site_fract_z
O1 O 0.6352(4) 0.76016(18) 0.94141(6)
O2 O 0.6555(2) 0.51015(15) 0.96615(4)
O3 O 0.6379(3) -0.0379(2) 0.73952(5)
O4 O 0.7745(4) 0.0934(3) 0.67917(5)
C1 C 0.8641(3) 0.3445(2) 0.85288(7)
H1 H 0.9916 0.3301 0.8443
H2 H 0.8081 0.4130 0.8288
C2 C 0.8526(3) 0.4264(2) 0.90146(7)
H3 H 0.9176 0.3625 0.9251
H4 H 0.9112 0.5308 0.8997
C3 C 0.6563(3) 0.4472(2) 0.91713(6)
H5 H 0.5971 0.5255 0.8959
C4 C 0.5409(2) 0.2927(2) 0.91789(5)
C5 C 0.5653(2) 0.20939(19) 0.86847(5)
H6 H 0.5166 0.2862 0.8450
C6 C 0.4491(3) 0.0587(2) 0.86221(7)
H7 H 0.3255 0.0802 0.8731
H8 H 0.4989 -0.0271 0.8819
C7 C 0.4444(3) 0.0046(3) 0.80956(7)
H9 H 0.3700 -0.0914 0.8066
H10 H 0.3899 0.0883 0.7900
C8 C 0.6368(3) -0.0298(3) 0.79209(7)
C9 C 0.7554(3) 0.1145(2) 0.80257(6)
C10 C 0.7687(2) 0.1812(2) 0.85283(6)
C11 C 0.8202(3) 0.1721(3) 0.76179(7)
H11 H 0.8988 0.2595 0.7591
C12 C 0.7497(4) 0.0775(3) 0.72159(8)
C13 C 0.3405(3) 0.3454(3) 0.92323(7)
H12 H 0.3017 0.3991 0.8945
H13 H 0.3294 0.4174 0.9500
H14 H 0.2651 0.2526 0.9285
C14 C 0.5894(3) 0.1860(2) 0.96097(6)
H15 H 0.5409 0.2328 0.9898
H16 H 0.7199 0.1774 0.9636
H17 H 0.5377 0.0810 0.9565
C15 C 0.8780(3) 0.0610(2) 0.88375(7)
H18 H 0.7987 -0.0242 0.8941
H19 H 0.9269 0.1154 0.9113
H20 H 0.9764 0.0170 0.8651
C16 C 0.7086(4) -0.1921(3) 0.80925(9)
H21 H 0.6410 -0.2768 0.7940
H22 H 0.6943 -0.1999 0.8434
H23 H 0.8357 -0.2017 0.8011
C17 C 0.6438(3) 0.6665(2) 0.97329(7)
C18 C 0.6425(4) 0.7072(3) 1.02513(8)
H24 H 0.6345 0.8217 1.0289
H25 H 0.7531 0.6690 1.0398
H26 H 0.5392 0.6573 1.0403
loop_
_geom_bond_atom_site_label_1
_geom_bond_atom_site_label_2
_geom_bond_site_symmetry_1
_geom_bond_site_symmetry_2
O1 C17 1_555 1_555
O2 C3 1_555 1_555
O3 C8 1_555 1_555
O4 C12 1_555 1_555
C1 H1 1_555 1_555
H2 C1 1_555 1_555
C2 C1 1_555 1_555
H3 C2 1_555 1_555
H4 C2 1_555 1_555
C3 C2 1_555 1_555
H5 C3 1_555 1_555
C4 C3 1_555 1_555
C5 C4 1_555 1_555
H6 C5 1_555 1_555
C6 C5 1_555 1_555
H7 C6 1_555 1_555
H8 C6 1_555 1_555
C7 C6 1_555 1_555
H9 C7 1_555 1_555
H10 C7 1_555 1_555
C8 C7 1_555 1_555
C9 C8 1_555 1_555
C10 C1 1_555 1_555
C11 C9 1_555 1_555
H11 C11 1_555 1_555
C12 O3 1_555 1_555
C13 C4 1_555 1_555
H12 C13 1_555 1_555
H13 C13 1_555 1_555
H14 C13 1_555 1_555
C14 C4 1_555 1_555
H15 C14 1_555 1_555
H16 C14 1_555 1_555
H17 C14 1_555 1_555
C15 C10 1_555 1_555
H18 C15 1_555 1_555
H19 C15 1_555 1_555
H20 C15 1_555 1_555
C16 C8 1_555 1_555
H21 C16 1_555 1_555
H22 C16 1_555 1_555
H23 C16 1_555 1_555
C17 O2 1_555 1_555
C18 C17 1_555 1_555
H24 C18 1_555 1_555
H25 C18 1_555 1_555
H26 C18 1_555 1_555
C5 C10 1_555 1_555
C9 C10 1_555 1_555
C11 C12 1_555 1_555

#END
