
#######################################################################
#
#                 Cambridge Crystallographic Data Centre
#                                CCDC 
#
#######################################################################
#
# If this CIF has been generated from an entry in the Cambridge 
# Structural Database, then it will include bibliographic, chemical, 
# crystal, experimental, refinement or atomic coordinate data resulting 
# from the CCDC's data processing and validation procedures.
#
#######################################################################

data_MESRIM
_chemical_formula_moiety         'C16 H28 O2'
_chemical_name_systematic        3\b-Hydroxy-9-epi-ambrox
_symmetry_cell_setting           orthorhombic
_symmetry_space_group_name_H-M   'P 21 21 21'
_symmetry_Int_Tables_number      19
_space_group_name_Hall           'P 2ac 2ab'
loop_
_symmetry_equiv_pos_site_id
_symmetry_equiv_pos_as_xyz
1 x,y,z
2 1/2-x,-y,1/2+z
3 -x,1/2+y,1/2-z
4 1/2+x,1/2-y,-z
_cell_length_a                   7.291(1)
_cell_length_b                   10.982(2)
_cell_length_c                   18.378(3)
_cell_angle_alpha                90
_cell_angle_beta                 90
_cell_angle_gamma                90
_cell_volume                     1471.52
_exptl_crystal_colour            colorless
_exptl_crystal_description       needles
_chemical_melting_point          132.5-134.6deg.C
_cell_formula_units_Z            4
loop_
_atom_site_label
_atom_site_type_symbol
_atom_site_fract_x
_atom_site_fract_y
_atom_site_fract_z
O1 O 0.3036(2) 0.34972(12) 0.47515(7)
O2 O 0.2643(3) 0.73761(14) 0.82892(8)
H1 H 0.2431 0.7051 0.8682
C1 C 0.0543(3) 0.5136(2) 0.69748(10)
H2 H -0.0727 0.4918 0.6886
H3 H 0.1181 0.4410 0.7137
C2 C 0.0621(3) 0.6095(2) 0.75739(11)
H4 H -0.0096 0.6798 0.7429
H5 H 0.0082 0.5766 0.8015
C3 C 0.2569(3) 0.6487(2) 0.77273(11)
H6 H 0.3250 0.5770 0.7894
C4 C 0.3557(3) 0.69946(19) 0.70536(10)
C5 C 0.3368(3) 0.60358(17) 0.64340(9)
H7 H 0.4010 0.5315 0.6618
C6 C 0.4391(3) 0.63729(19) 0.57340(11)
H8 H 0.3723 0.7006 0.5478
H9 H 0.5597 0.6686 0.5854
C7 C 0.4582(3) 0.52601(19) 0.52451(11)
H10 H 0.5240 0.5489 0.4807
H11 H 0.5301 0.4647 0.5496
C8 C 0.2749(3) 0.47199(17) 0.50344(10)
C9 C 0.1536(3) 0.45051(17) 0.57123(9)
H12 H 0.0289 0.4349 0.5537
C10 C 0.1411(3) 0.55838(17) 0.62608(9)
C11 C 0.2278(3) 0.33011(17) 0.60006(12)
H13 H 0.3276 0.3438 0.6340
H14 H 0.1321 0.2841 0.6243
C12 C 0.2948(4) 0.26379(19) 0.53309(10)
H15 H 0.4151 0.2291 0.5419
H16 H 0.2112 0.1983 0.5207
C13 C 0.2836(4) 0.82758(18) 0.68625(13)
H17 H 0.1519 0.8266 0.6856
H18 H 0.3285 0.8510 0.6392
H19 H 0.3255 0.8849 0.7220
C14 C 0.5593(4) 0.7116(3) 0.72516(15)
H20 H 0.5712 0.7580 0.7692
H21 H 0.6231 0.7523 0.6865
H22 H 0.6111 0.6321 0.7322
C15 C 0.0148(3) 0.6555(2) 0.59322(12)
H23 H -0.0861 0.6166 0.5691
H24 H 0.0824 0.7035 0.5588
H25 H -0.0309 0.7072 0.6312
C16 C 0.1864(4) 0.5413(2) 0.44195(11)
H26 H 0.2604 0.5339 0.3990
H27 H 0.1759 0.6257 0.4551
H28 H 0.0666 0.5086 0.4327
loop_
_geom_bond_atom_site_label_1
_geom_bond_atom_site_label_2
_geom_bond_site_symmetry_1
_geom_bond_site_symmetry_2
O1 C8 1_555 1_555
O2 H1 1_555 1_555
C1 H2 1_555 1_555
H3 C1 1_555 1_555
C2 C1 1_555 1_555
H4 C2 1_555 1_555
H5 C2 1_555 1_555
C3 O2 1_555 1_555
H6 C3 1_555 1_555
C4 C3 1_555 1_555
C5 C4 1_555 1_555
H7 C5 1_555 1_555
C6 C5 1_555 1_555
H8 C6 1_555 1_555
H9 C6 1_555 1_555
C7 C6 1_555 1_555
H10 C7 1_555 1_555
H11 C7 1_555 1_555
C8 C7 1_555 1_555
C9 C8 1_555 1_555
H12 C9 1_555 1_555
C10 C1 1_555 1_555
C11 C9 1_555 1_555
H13 C11 1_555 1_555
H14 C11 1_555 1_555
C12 O1 1_555 1_555
H15 C12 1_555 1_555
H16 C12 1_555 1_555
C13 C4 1_555 1_555
H17 C13 1_555 1_555
H18 C13 1_555 1_555
H19 C13 1_555 1_555
C14 C4 1_555 1_555
H20 C14 1_555 1_555
H21 C14 1_555 1_555
H22 C14 1_555 1_555
C15 C10 1_555 1_555
H23 C15 1_555 1_555
H24 C15 1_555 1_555
H25 C15 1_555 1_555
C16 C8 1_555 1_555
H26 C16 1_555 1_555
H27 C16 1_555 1_555
H28 C16 1_555 1_555
C2 C3 1_555 1_555
C5 C10 1_555 1_555
C9 C10 1_555 1_555
C11 C12 1_555 1_555

#END
