
#######################################################################
#
#                 Cambridge Crystallographic Data Centre
#                                CCDC 
#
#######################################################################
#
# If this CIF has been generated from an entry in the Cambridge 
# Structural Database, then it will include bibliographic, chemical, 
# crystal, experimental, refinement or atomic coordinate data resulting 
# from the CCDC's data processing and validation procedures.
#
#######################################################################

data_MESXAM
_chemical_name_common            
'3-Benzoyl-4-methyl-2-oxo-2H-chromen-7-yl acetate'
_chemical_formula_moiety         'C19 H14 O5'
_chemical_name_systematic        
'3-(benzenecarbonyl)-4-methyl-2-oxo-2H-1-benzopyran-7-yl acetate'
_symmetry_cell_setting           monoclinic
_symmetry_space_group_name_H-M   'P 21/n'
_symmetry_Int_Tables_number      14
_space_group_name_Hall           '-P 2yn'
loop_
_symmetry_equiv_pos_site_id
_symmetry_equiv_pos_as_xyz
1 x,y,z
2 1/2-x,1/2+y,1/2-z
3 -x,-y,-z
4 1/2+x,1/2-y,1/2+z
_cell_length_a                   9.1617(2)
_cell_length_b                   10.2307(3)
_cell_length_c                   16.8581(5)
_cell_angle_alpha                90
_cell_angle_beta                 92.812(3)
_cell_angle_gamma                90
_cell_volume                     1578.22
_exptl_crystal_colour            yellow
_exptl_crystal_description       block
_cell_formula_units_Z            4
loop_
_atom_site_label
_atom_site_type_symbol
_atom_site_fract_x
_atom_site_fract_y
_atom_site_fract_z
O1 O 0.42067(18) 0.45664(18) 0.79826(9)
O2 O 0.47734(14) 0.30569(16) 0.61932(10)
O3 O 0.24925(13) 0.28252(13) 0.57529(8)
O4 O -0.23097(14) 0.21970(13) 0.46535(8)
O5 O -0.2083(2) 0.03492(17) 0.53544(11)
C1 C 0.6308(2) 0.6465(2) 0.76609(12)
H1 H 0.6289 0.6163 0.8181
C2 C 0.7325(2) 0.7391(2) 0.74621(14)
H2 H 0.7983 0.7717 0.7851
C3 C 0.7372(2) 0.7834(2) 0.66899(14)
H3 H 0.8058 0.8458 0.6560
C4 C 0.6407(2) 0.7353(2) 0.61166(13)
H4 H 0.6446 0.7646 0.5596
C5 C 0.5374(2) 0.64341(18) 0.63057(11)
H5 H 0.4720 0.6115 0.5913
C6 C 0.53109(19) 0.59858(17) 0.70822(10)
C7 C 0.4219(2) 0.50110(19) 0.73141(11)
C8 C 0.35343(19) 0.34511(19) 0.62240(11)
C9 C 0.30657(19) 0.45207(17) 0.67102(10)
C10 C 0.16730(19) 0.49705(16) 0.66636(10)
C11 C 0.06022(18) 0.42967(16) 0.61466(10)
C12 C 0.10533(18) 0.32206(16) 0.57183(10)
C13 C 0.0120(2) 0.24892(18) 0.52289(11)
H6 H 0.0457 0.1777 0.4948
C14 C -0.13290(19) 0.28508(17) 0.51713(11)
C15 C -0.18368(19) 0.39151(18) 0.55818(11)
H7 H -0.2819 0.4145 0.5534
C16 C -0.08818(19) 0.46300(18) 0.60608(11)
H8 H -0.1225 0.5349 0.6333
C17 C 0.1211(2) 0.6136(2) 0.71267(12)
H9 H 0.0810 0.6787 0.6768
H10 H 0.2042 0.6490 0.7422
H11 H 0.0485 0.5878 0.7487
C18 C -0.2599(2) 0.09088(19) 0.47921(12)
C19 C -0.3583(3) 0.0359(2) 0.41586(14)
H12 H -0.3360 0.0740 0.3658
H13 H -0.4578 0.0551 0.4270
H14 H -0.3451 -0.0571 0.4136
loop_
_geom_bond_atom_site_label_1
_geom_bond_atom_site_label_2
_geom_bond_site_symmetry_1
_geom_bond_site_symmetry_2
O1 C7 1_555 1_555
O2 C8 1_555 1_555
O3 C8 1_555 1_555
O4 C14 1_555 1_555
O5 C18 1_555 1_555
C1 H1 1_555 1_555
C2 C1 1_555 1_555
H2 C2 1_555 1_555
C3 C2 1_555 1_555
H3 C3 1_555 1_555
C4 C3 1_555 1_555
H4 C4 1_555 1_555
C5 C4 1_555 1_555
H5 C5 1_555 1_555
C6 C1 1_555 1_555
C7 C6 1_555 1_555
C8 C9 1_555 1_555
C9 C7 1_555 1_555
C10 C9 1_555 1_555
C11 C10 1_555 1_555
C12 O3 1_555 1_555
C13 C12 1_555 1_555
H6 C13 1_555 1_555
C14 C13 1_555 1_555
C15 C14 1_555 1_555
H7 C15 1_555 1_555
C16 C11 1_555 1_555
H8 C16 1_555 1_555
C17 C10 1_555 1_555
H9 C17 1_555 1_555
H10 C17 1_555 1_555
H11 C17 1_555 1_555
C18 O4 1_555 1_555
C19 C18 1_555 1_555
H12 C19 1_555 1_555
H13 C19 1_555 1_555
H14 C19 1_555 1_555
C5 C6 1_555 1_555
C11 C12 1_555 1_555
C15 C16 1_555 1_555

#END
