
#######################################################################
#
#                 Cambridge Crystallographic Data Centre
#                                CCDC 
#
#######################################################################
#
# If this CIF has been generated from an entry in the Cambridge 
# Structural Database, then it will include bibliographic, chemical, 
# crystal, experimental, refinement or atomic coordinate data resulting 
# from the CCDC's data processing and validation procedures.
#
#######################################################################

data_METHZI01
_chemical_formula_moiety         'C6 H9 S5 1+,I1 1-'
_chemical_name_systematic        
'3,4,5-tris(methylthiolato)-1,2-dithiolium iodide'
_symmetry_cell_setting           orthorhombic
_symmetry_space_group_name_H-M   'P 21 21 21'
_symmetry_Int_Tables_number      19
_space_group_name_Hall           'P 2ac 2ab'
loop_
_symmetry_equiv_pos_site_id
_symmetry_equiv_pos_as_xyz
1 x,y,z
2 1/2-x,-y,1/2+z
3 -x,1/2+y,1/2-z
4 1/2+x,1/2-y,-z
_cell_length_a                   5.2430(2)
_cell_length_b                   10.5752(6)
_cell_length_c                   21.3893(12)
_cell_angle_alpha                90
_cell_angle_beta                 90
_cell_angle_gamma                90
_cell_volume                     1185.95
_exptl_crystal_colour            'dark orange'
_exptl_crystal_description       rod
_chemical_melting_point          '157-158 deg.C'
_cell_formula_units_Z            4
_exptl_crystal_recrystallization_method chloroform
loop_
_atom_site_label
_atom_site_type_symbol
_atom_site_fract_x
_atom_site_fract_y
_atom_site_fract_z
I1 I 0.86838(5) 0.44974(2) 0.149690(11)
S1 S -0.05949(18) 0.38549(9) 0.30600(4)
S2 S 0.20546(18) 0.51840(9) 0.27948(4)
S3 S 0.56700(18) 0.64640(9) 0.36675(4)
S4 S 0.30828(19) 0.49374(9) 0.48068(4)
S5 S -0.1424(2) 0.29797(9) 0.43760(4)
C1 C 0.3218(7) 0.5427(3) 0.35399(16)
C2 C 0.2078(7) 0.4740(3) 0.40253(16)
C3 C 0.0152(7) 0.3905(4) 0.38462(16)
C4 C 0.6182(8) 0.7081(3) 0.28930(17)
H1 H 0.6575 0.6383 0.2607
H2 H 0.7612 0.7677 0.2900
H3 H 0.4639 0.7516 0.2751
C5 C 0.0874(8) 0.6160(4) 0.50456(18)
H4 H 0.1100 0.6905 0.4779
H5 H 0.1203 0.6389 0.5482
H6 H -0.0877 0.5847 0.5005
C6 C -0.3651(8) 0.2114(3) 0.38924(17)
H7 H -0.4598 0.2708 0.3628
H8 H -0.4847 0.1650 0.4159
H9 H -0.2715 0.1517 0.3628
loop_
_geom_bond_atom_site_label_1
_geom_bond_atom_site_label_2
_geom_bond_site_symmetry_1
_geom_bond_site_symmetry_2
S1 S2 1_555 1_555
S2 C1 1_555 1_555
S3 C1 1_555 1_555
S4 C2 1_555 1_555
S5 C3 1_555 1_555
C1 C2 1_555 1_555
C2 C3 1_555 1_555
C3 S1 1_555 1_555
C4 S3 1_555 1_555
H1 C4 1_555 1_555
H2 C4 1_555 1_555
H3 C4 1_555 1_555
C5 S4 1_555 1_555
H4 C5 1_555 1_555
H5 C5 1_555 1_555
H6 C5 1_555 1_555
C6 S5 1_555 1_555
H7 C6 1_555 1_555
H8 C6 1_555 1_555
H9 C6 1_555 1_555

#END
