
#######################################################################
#
#                 Cambridge Crystallographic Data Centre
#                                CCDC 
#
#######################################################################
#
# If this CIF has been generated from an entry in the Cambridge 
# Structural Database, then it will include bibliographic, chemical, 
# crystal, experimental, refinement or atomic coordinate data resulting 
# from the CCDC's data processing and validation procedures.
#
#######################################################################

data_METHPZ10
_chemical_formula_moiety         'C6 H8 N2 O2 S4'
_chemical_name_systematic        N,N'-Dimethyl-3,6-epithiopiperazine-2,5-dione
_symmetry_cell_setting           orthorhombic
_symmetry_space_group_name_H-M   'F d d 2'
_symmetry_Int_Tables_number      43
_space_group_name_Hall           'F 2 -2d'
loop_
_symmetry_equiv_pos_site_id
_symmetry_equiv_pos_as_xyz
1 x,y,z
2 x,1/2+y,1/2+z
3 1/2+x,y,1/2+z
4 1/2+x,1/2+y,z
5 1/4-x,1/4+y,1/4+z
6 1/4-x,3/4+y,3/4+z
7 3/4-x,1/4+y,3/4+z
8 3/4-x,3/4+y,1/4+z
9 1/4+x,1/4-y,1/4+z
10 1/4+x,3/4-y,3/4+z
11 3/4+x,1/4-y,3/4+z
12 3/4+x,3/4-y,1/4+z
13 1/2-x,-y,1/2+z
14 1/2-x,1/2-y,z
15 -x,-y,z
16 -x,1/2-y,1/2+z
_cell_length_a                   15.352(5)
_cell_length_b                   20.432(7)
_cell_length_c                   6.635(2)
_cell_angle_alpha                90
_cell_angle_beta                 90
_cell_angle_gamma                90
_cell_volume                     2081.21
_cell_formula_units_Z            8
loop_
_atom_site_label
_atom_site_type_symbol
_atom_site_fract_x
_atom_site_fract_y
_atom_site_fract_z
C1 C 0.18208 -0.02382 0.50838
C2 C 0.03567 -0.06497 0.46496
C3 C 0.06072 0.05239 0.43440
H1 H 0.18800 -0.05800 0.56900
H2 H 0.20500 0.01000 0.55400
H3 H 0.20700 -0.03500 0.38100
H4 H 0.09300 0.07800 0.54100
N1 N 0.08914 -0.01298 0.47662
O1 O 0.06120 -0.12154 0.48401
S1 S 0.06737 0.00432 0.000
S2 S 0.09220 0.08238 0.17894
C3N C -0.06072 -0.05239 0.43440
C2N C -0.03567 0.06497 0.46496
S1N S -0.06737 -0.00432 0.000
H4N H -0.09300 -0.07800 0.54100
N1N N -0.08914 0.01298 0.47662
S2N S -0.09220 -0.08238 0.17894
O1N O -0.06120 0.12154 0.48401
C1N C -0.18208 0.02382 0.50838
H1N H -0.18800 0.05800 0.56900
H2N H -0.20500 -0.01000 0.55400
H3N H -0.20700 0.03500 0.38100
loop_
_geom_bond_atom_site_label_1
_geom_bond_atom_site_label_2
_geom_bond_site_symmetry_1
_geom_bond_site_symmetry_2
C1 H1 1_555 1_555
C2 N1 1_555 1_555
C3 H4 1_555 1_555
H2 C1 1_555 1_555
H3 C1 1_555 1_555
N1 C1 1_555 1_555
O1 C2 1_555 1_555
S1 S2 1_555 1_555
S2 C3 1_555 1_555
C3N C2 1_555 1_555
C2N C3 1_555 1_555
S1N S1 1_555 1_555
H4N C3N 1_555 1_555
N1N C3N 1_555 1_555
S2N C3N 1_555 1_555
O1N C2N 1_555 1_555
C1N N1N 1_555 1_555
H1N C1N 1_555 1_555
H2N C1N 1_555 1_555
H3N C1N 1_555 1_555
C3 N1 1_555 1_555
C2N N1N 1_555 1_555
S1N S2N 1_555 1_555

#END
