
#######################################################################
#
#                 Cambridge Crystallographic Data Centre
#                                CCDC 
#
#######################################################################
#
# If this CIF has been generated from an entry in the Cambridge 
# Structural Database, then it will include bibliographic, chemical, 
# crystal, experimental, refinement or atomic coordinate data resulting 
# from the CCDC's data processing and validation procedures.
#
#######################################################################

data_METHUS04
_chemical_formula_moiety         'C6 H12 N2 S4'
_chemical_name_systematic        'Tetramethylthiuram disulfide'
_symmetry_cell_setting           monoclinic
_symmetry_space_group_name_H-M   'C 2/c'
_symmetry_Int_Tables_number      15
_space_group_name_Hall           '-C 2yn'
loop_
_symmetry_equiv_pos_site_id
_symmetry_equiv_pos_as_xyz
1 x,y,z
2 1/2+x,1/2+y,z
3 -x,y,1/2-z
4 1/2-x,1/2+y,1/2-z
5 -x,-y,-z
6 1/2-x,1/2-y,-z
7 x,-y,1/2+z
8 1/2+x,1/2-y,1/2+z
_cell_length_a                   9.524(4)
_cell_length_b                   9.911(3)
_cell_length_c                   11.795(1)
_cell_angle_alpha                90
_cell_angle_beta                 99.22(1)
_cell_angle_gamma                90
_cell_volume                     1098.97
_exptl_crystal_colour            'light yellow'
_cell_formula_units_Z            4
loop_
_atom_site_label
_atom_site_type_symbol
_atom_site_fract_x
_atom_site_fract_y
_atom_site_fract_z
S1 S 0.19839(3) 0.39286(3) 0.20370(3)
S2 S -0.02884(4) 0.17170(4) 0.16431(4)
N1 N 0.0615(1) 0.3115(1) 0.00078(9)
C1 C 0.08358(9) 0.30111(8) 0.11519(8)
C2 C 0.1408(2) 0.4091(2) -0.0577(2)
C3 C -0.0430(2) 0.2330(3) -0.0769(2)
H1 H 0.082 0.464 -0.095
H2 H 0.163 0.479 -0.020
H3 H 0.185 0.367 -0.107
H4 H -0.003 0.172 -0.137
H5 H -0.101 0.279 -0.117
H6 H -0.108 0.204 -0.039
S2B S 0.02884(4) 0.17170(4) 0.33569(4)
C1B C -0.08358(9) 0.30111(8) 0.38481(8)
S1B S -0.19839(3) 0.39286(3) 0.29630(3)
N1B N -0.0615(1) 0.3115(1) 0.49922(9)
C2B C -0.1408(2) 0.4091(2) 0.5577(2)
C3B C 0.0430(2) 0.2330(3) 0.5769(2)
H1B H -0.082 0.464 0.595
H2B H -0.163 0.479 0.520
H3B H -0.185 0.367 0.607
H4B H 0.003 0.172 0.637
H5B H 0.101 0.279 0.617
H6B H 0.108 0.204 0.539
loop_
_geom_bond_atom_site_label_1
_geom_bond_atom_site_label_2
_geom_bond_site_symmetry_1
_geom_bond_site_symmetry_2
S1 C1 1_555 1_555
S2 C1 1_555 1_555
N1 C1 1_555 1_555
C2 N1 1_555 1_555
C3 N1 1_555 1_555
H1 C2 1_555 1_555
H2 C2 1_555 1_555
H3 C2 1_555 1_555
H4 C3 1_555 1_555
H5 C3 1_555 1_555
H6 C3 1_555 1_555
S2B S2 1_555 1_555
C1B S2B 1_555 1_555
S1B C1B 1_555 1_555
N1B C1B 1_555 1_555
C2B N1B 1_555 1_555
C3B N1B 1_555 1_555
H1B C2B 1_555 1_555
H2B C2B 1_555 1_555
H3B C2B 1_555 1_555
H4B C3B 1_555 1_555
H5B C3B 1_555 1_555
H6B C3B 1_555 1_555

#END
