
#######################################################################
#
#                 Cambridge Crystallographic Data Centre
#                                CCDC 
#
#######################################################################
#
# If this CIF has been generated from an entry in the Cambridge 
# Structural Database, then it will include bibliographic, chemical, 
# crystal, experimental, refinement or atomic coordinate data resulting 
# from the CCDC's data processing and validation procedures.
#
#######################################################################

data_METHUS02
_chemical_formula_moiety         'C6 H12 N2 S4'
_chemical_name_systematic        'Tetramethylthiuram disulfide'
_symmetry_cell_setting           monoclinic
_symmetry_space_group_name_H-M   'C 2/c'
_symmetry_Int_Tables_number      15
_space_group_name_Hall           '-C 2yn'
loop_
_symmetry_equiv_pos_site_id
_symmetry_equiv_pos_as_xyz
1 x,y,z
2 1/2+x,1/2+y,z
3 -x,y,1/2-z
4 1/2-x,1/2+y,1/2-z
5 -x,-y,-z
6 1/2-x,1/2-y,-z
7 x,-y,1/2+z
8 1/2+x,1/2-y,1/2+z
_cell_length_a                   9.653(1)
_cell_length_b                   9.923(1)
_cell_length_c                   11.804(2)
_cell_angle_alpha                90
_cell_angle_beta                 99.38(1)
_cell_angle_gamma                90
_cell_volume                     1115.55
_cell_formula_units_Z            4
loop_
_atom_site_label
_atom_site_type_symbol
_atom_site_fract_x
_atom_site_fract_y
_atom_site_fract_z
S1 S 0.19534(3) 0.39158(3) 0.20335(2)
S2 S -0.02813(3) 0.17379(3) 0.16477(3)
N1 N 0.06057(9) 0.31049(9) 0.00167(8)
C1 C 0.0825(1) 0.3004(1) 0.1155(1)
C2 C 0.1385(1) 0.4055(1) -0.0563(1)
C3 C -0.0415(1) 0.2305(2) -0.0752(1)
S2B S 0.02813(3) 0.17379(3) 0.33523(3)
C1B C -0.0825(1) 0.3004(1) 0.3845(1)
S1B S -0.19534(3) 0.39158(3) 0.29665(2)
N1B N -0.06057(9) 0.31049(9) 0.49833(8)
C2B C -0.1385(1) 0.4055(1) 0.5563(1)
C3B C 0.0415(1) 0.2305(2) 0.5752(1)
loop_
_geom_bond_atom_site_label_1
_geom_bond_atom_site_label_2
_geom_bond_site_symmetry_1
_geom_bond_site_symmetry_2
S1 C1 1_555 1_555
S2 C1 1_555 1_555
N1 C1 1_555 1_555
C2 N1 1_555 1_555
C3 N1 1_555 1_555
S2B S2 1_555 1_555
C1B S2B 1_555 1_555
S1B C1B 1_555 1_555
N1B C1B 1_555 1_555
C2B N1B 1_555 1_555
C3B N1B 1_555 1_555

#END
