
#######################################################################
#
#                 Cambridge Crystallographic Data Centre
#                                CCDC 
#
#######################################################################
#
# If this CIF has been generated from an entry in the Cambridge 
# Structural Database, then it will include bibliographic, chemical, 
# crystal, experimental, refinement or atomic coordinate data resulting 
# from the CCDC's data processing and validation procedures.
#
#######################################################################

data_METHUS03
_chemical_formula_moiety         'C6 H12 N2 S4'
_chemical_name_systematic        'Tetramethylthiuram disulfide'
_symmetry_cell_setting           monoclinic
_symmetry_space_group_name_H-M   'C 2/c'
_symmetry_Int_Tables_number      15
_space_group_name_Hall           '-C 2yn'
loop_
_symmetry_equiv_pos_site_id
_symmetry_equiv_pos_as_xyz
1 x,y,z
2 1/2+x,1/2+y,z
3 -x,y,1/2-z
4 1/2-x,1/2+y,1/2-z
5 -x,-y,-z
6 1/2-x,1/2-y,-z
7 x,-y,1/2+z
8 1/2+x,1/2-y,1/2+z
_cell_length_a                   9.524(4)
_cell_length_b                   9.911(3)
_cell_length_c                   11.795(1)
_cell_angle_alpha                90
_cell_angle_beta                 99.22(1)
_cell_angle_gamma                90
_cell_volume                     1098.97
_exptl_crystal_colour            'light yellow'
_cell_formula_units_Z            4
loop_
_atom_site_label
_atom_site_type_symbol
_atom_site_fract_x
_atom_site_fract_y
_atom_site_fract_z
S1 S 0.19841(2) 0.39273(2) 0.20381(2)
S2 S -0.02877(3) 0.17177(3) 0.16448(3)
N1 N 0.06138(9) 0.31165(9) 0.00115(8)
C1 C 0.08331(9) 0.30095(9) 0.11476(9)
C2 C 0.1403(2) 0.4084(1) -0.0573(1)
C3 C -0.0426(1) 0.2315(2) -0.0763(1)
H1 H 0.082(2) 0.464(2) -0.095(2)
H2 H 0.164(2) 0.479(2) -0.020(2)
H3 H 0.185(2) 0.367(2) -0.107(2)
H4 H -0.003(2) 0.172(2) -0.137(2)
H5 H -0.101(2) 0.279(2) -0.117(2)
H6 H -0.108(2) 0.204(2) -0.039(2)
S2B S 0.02877(3) 0.17177(3) 0.33552(3)
C1B C -0.08331(9) 0.30095(9) 0.38524(9)
S1B S -0.19841(2) 0.39273(2) 0.29619(2)
N1B N -0.06138(9) 0.31165(9) 0.49885(8)
C2B C -0.1403(2) 0.4084(1) 0.5573(1)
C3B C 0.0426(1) 0.2315(2) 0.5763(1)
H1B H -0.082(2) 0.464(2) 0.595(2)
H2B H -0.164(2) 0.479(2) 0.520(2)
H3B H -0.185(2) 0.367(2) 0.607(2)
H4B H 0.003(2) 0.172(2) 0.637(2)
H5B H 0.101(2) 0.279(2) 0.617(2)
H6B H 0.108(2) 0.204(2) 0.539(2)
loop_
_geom_bond_atom_site_label_1
_geom_bond_atom_site_label_2
_geom_bond_site_symmetry_1
_geom_bond_site_symmetry_2
S1 C1 1_555 1_555
S2 C1 1_555 1_555
N1 C1 1_555 1_555
C2 N1 1_555 1_555
C3 N1 1_555 1_555
H1 C2 1_555 1_555
H2 C2 1_555 1_555
H3 C2 1_555 1_555
H4 C3 1_555 1_555
H5 C3 1_555 1_555
H6 C3 1_555 1_555
S2B S2 1_555 1_555
C1B S2B 1_555 1_555
S1B C1B 1_555 1_555
N1B C1B 1_555 1_555
C2B N1B 1_555 1_555
C3B N1B 1_555 1_555
H1B C2B 1_555 1_555
H2B C2B 1_555 1_555
H3B C2B 1_555 1_555
H4B C3B 1_555 1_555
H5B C3B 1_555 1_555
H6B C3B 1_555 1_555

#END
