
#######################################################################
#
#                 Cambridge Crystallographic Data Centre
#                                CCDC 
#
#######################################################################
#
# If this CIF has been generated from an entry in the Cambridge 
# Structural Database, then it will include bibliographic, chemical, 
# crystal, experimental, refinement or atomic coordinate data resulting 
# from the CCDC's data processing and validation procedures.
#
#######################################################################

data_METJAZ
_chemical_name_common            '(diphenylmethylidene)pillar[5]arene methanol'
_chemical_formula_moiety         'C68 H78 O10,C1 H4 O1'
_chemical_name_systematic        
'2-(diphenylmethylidene)-4,9,14,19,24,26,28,30,32,34-decaethoxyhexacyclo[21.2.2.2^3,6^.2^8,11^.2^13,16^.2^18,21^]pentatriaconta-1(25),3,5,8,10,13,15,18,20,23,26,28,30,32,34-pentadecaene methanol'
_symmetry_cell_setting           triclinic
_symmetry_space_group_name_H-M   'P -1'
_symmetry_Int_Tables_number      2
_space_group_name_Hall           '-P 1'
loop_
_symmetry_equiv_pos_site_id
_symmetry_equiv_pos_as_xyz
1 x,y,z
2 -x,-y,-z
_cell_length_a                   14.0656(9)
_cell_length_b                   14.8922(10)
_cell_length_c                   17.0774(10)
_cell_angle_alpha                71.093(6)
_cell_angle_beta                 76.182(5)
_cell_angle_gamma                65.437(6)
_cell_volume                     3055.28
_exptl_crystal_description       block
_cell_formula_units_Z            2
loop_
_atom_site_label
_atom_site_type_symbol
_atom_site_fract_x
_atom_site_fract_y
_atom_site_fract_z
O1 O 1.04248(16) 0.58866(16) 0.76554(13)
O2 O 0.58035(19) 0.9917(2) 0.89039(18)
O3 O 0.72572(16) 0.48851(16) 0.88435(12)
O4 O 0.93653(16) 0.86448(15) 0.49271(12)
O5 O 0.97624(16) 0.93863(16) 0.77782(14)
O6 O 0.66203(17) 1.27045(17) 0.60800(14)
O7 O 0.4150(2) 1.07977(16) 0.67334(13)
O8 O 0.42208(18) 0.73951(16) 0.67305(18)
O9 O 0.3295(2) 0.83049(18) 0.97687(16)
O10 O 0.81584(18) 0.57514(18) 0.54820(13)
C1 C 0.22008(19) 1.22978(17) 0.85000(16)
C2 C 0.33233(19) 1.22175(19) 0.82938(16)
C3 C 1.01033(19) 0.8044(2) 0.61852(17)
C4 C 0.51942(19) 1.13113(18) 0.77788(16)
C5 C 0.38879(19) 1.04375(19) 0.81801(18)
C6 C 0.7269(2) 1.11411(19) 0.70799(17)
C7 C 0.40922(19) 1.13764(19) 0.81070(16)
C8 C 0.5394(2) 1.20357(19) 0.70793(17)
H1 H 0.4833 1.2576 0.6828
C9 C 0.6415(2) 1.19678(19) 0.67490(16)
C10 C 0.99512(19) 0.63802(19) 0.63066(17)
C11 C 0.6730(2) 0.54767(19) 0.75011(18)
C12 C 0.6496(2) 0.5533(2) 0.83277(18)
C13 C 0.9827(2) 0.5852(2) 0.71392(17)
C14 C 0.9442(2) 0.8856(2) 0.56316(17)
C15 C 0.90130(19) 0.9978(2) 0.65278(18)
C16 C 1.02207(19) 0.8228(2) 0.68970(18)
H2 H 1.0668 0.7703 0.7266
C17 C 0.8577(2) 0.53010(19) 0.68525(17)
C18 C 0.4007(2) 1.0122(2) 0.74737(18)
C19 C 0.9687(2) 0.9175(2) 0.70710(18)
C20 C 0.3722(2) 0.8581(2) 0.8316(2)
C21 C 0.5967(2) 0.6101(2) 0.6969(2)
H3 H 0.6108 0.6073 0.6415
C22 C 1.0655(2) 0.7000(2) 0.60123(18)
H4 H 1.1284 0.6633 0.6292
H5 H 1.0870 0.7079 0.5418
C23 C 0.8908(2) 0.9802(2) 0.58062(18)
H6 H 0.8470 1.0331 0.5433
C24 C 0.9153(2) 0.5321(2) 0.74021(17)
H7 H 0.9083 0.4968 0.7959
C25 C 0.1712(2) 1.2150(2) 0.79613(19)
H8 H 0.2086 1.1995 0.7463
C26 C 0.7790(2) 0.4774(2) 0.71768(18)
H9 H 0.8061 0.4172 0.7622
H10 H 0.7700 0.4555 0.6732
C27 C 0.3540(2) 0.8923(2) 0.9019(2)
C28 C 0.1625(2) 1.2537(2) 0.92302(18)
H11 H 0.1933 1.2661 0.9589
C29 C 0.3526(2) 1.3116(2) 0.82983(19)
C30 C 0.3637(2) 0.9842(2) 0.89509(19)
H12 H 0.3531 1.0059 0.9429
C31 C 0.7071(2) 1.0423(2) 0.7786(2)
H13 H 0.7634 0.9866 0.8021
C32 C 0.4769(2) 0.68329(19) 0.8062(2)
C33 C 0.9406(2) 0.6331(2) 0.57505(17)
H14 H 0.9503 0.6657 0.5189
C34 C 0.5525(2) 0.6213(2) 0.8596(2)
H15 H 0.5382 0.6250 0.9148
C35 C 0.8724(2) 0.5809(2) 0.60117(17)
C36 C 0.3935(2) 0.9194(2) 0.7545(2)
H16 H 0.4032 0.8982 0.7066
C37 C 0.3712(2) 0.7544(2) 0.8378(2)
H17 H 0.3520 0.7232 0.8955
H18 H 0.3180 0.7636 0.8057
C38 C 0.3966(6) 1.4789(5) 0.8233(4)
H19 H 0.4129 1.5346 0.8199
C39 C 0.4995(2) 0.6769(2) 0.7243(2)
C40 C 0.6050(2) 1.0518(2) 0.81508(19)
C41 C 0.8396(2) 1.1016(2) 0.6699(2)
H20 H 0.8389 1.1540 0.6182
H21 H 0.8744 1.1110 0.7077
C42 C 0.2892(3) 1.4091(2) 0.7897(2)
H22 H 0.2321 1.4179 0.7657
C43 C 0.4353(3) 1.2998(4) 0.8690(3)
H23 H 0.4764 1.2352 0.8974
C44 C 0.7000(3) 0.4850(3) 0.97115(19)
H24 H 0.6376 0.4680 0.9933
H25 H 0.6860 0.5509 0.9796
C45 C 0.8660(2) 0.9436(2) 0.43650(19)
H26 H 0.8851 1.0035 0.4172
H27 H 0.7944 0.9628 0.4643
C46 C 0.0593(2) 1.2594(3) 0.9433(2)
H28 H 0.0219 1.2730 0.9936
C47 C 0.2853(3) 0.8718(4) 1.0456(2)
H29 H 0.2247 0.9341 1.0315
H30 H 0.3364 0.8883 1.0620
C48 C 0.0669(2) 1.2233(3) 0.8164(2)
H31 H 0.0342 1.2140 0.7799
C49 C 1.0654(3) 0.8739(3) 0.8210(2)
H32 H 1.1295 0.8653 0.7823
H33 H 1.0612 0.8073 0.8481
C50 C 1.0209(3) 0.5514(3) 0.85354(19)
H34 H 1.0789 0.5425 0.8803
H35 H 1.0159 0.4852 0.8653
C51 C 0.0123(2) 1.2449(3) 0.8895(2)
H36 H -0.0576 1.2500 0.9029
C52 C 0.2523(5) 0.7949(5) 1.1165(3)
H37 H 0.2033 0.7775 1.0993
H38 H 0.2194 0.8236 1.1635
H39 H 0.3131 0.7346 1.1317
C53 C 0.8740(3) 0.9033(3) 0.3642(2)
H40 H 0.8303 0.9562 0.3238
H41 H 0.8511 0.8466 0.3836
H42 H 0.9458 0.8814 0.3390
C54 C 0.6516(4) 0.8962(4) 0.9236(4)
H43 H 0.7218 0.8983 0.9105
H44 H 0.6353 0.8794 0.9838
C55 C 0.3116(4) 1.4930(3) 0.7855(3)
H45 H 0.2706 1.5581 0.7578
C56 C 0.8348(4) 0.6199(3) 0.4617(2)
H46 H 0.9088 0.5900 0.4420
H47 H 0.8164 0.6927 0.4522
C57 C 0.7922(3) 0.4048(3) 1.0146(2)
H48 H 0.8537 0.4219 0.9917
H49 H 0.8045 0.3397 1.0068
H50 H 0.7775 0.4017 1.0731
C58 C 0.4099(3) 0.7053(3) 0.6103(2)
H51 H 0.4084 0.6371 0.6325
H52 H 0.4680 0.7036 0.5659
C59 C 0.3073(3) 0.7792(4) 0.5777(3)
H53 H 0.2975 0.7598 0.5326
H54 H 0.3087 0.8468 0.5581
H55 H 0.2503 0.7779 0.6216
C60 C 0.4401(4) 1.0508(3) 0.5991(2)
H56 H 0.3822 1.0390 0.5882
H57 H 0.5022 0.9887 0.6017
C61 C 0.9211(3) 0.6220(4) 0.8895(3)
H58 H 0.9219 0.6899 0.8718
H59 H 0.9152 0.5996 0.9493
H60 H 0.8622 0.6219 0.8706
C62 C 1.0660(3) 0.9231(3) 0.8848(3)
H61 H 1.0750 0.9869 0.8572
H62 H 1.1230 0.8788 0.9173
H63 H 1.0005 0.9350 0.9207
C63 C 0.5897(4) 1.3726(3) 0.6002(3)
H64 H 0.5731 1.3894 0.6534
H65 H 0.5249 1.3802 0.5835
C64 C 0.4556(4) 1.3834(6) 0.8652(4)
H66 H 0.5104 1.3751 0.8917
C65 C 0.7696(5) 0.6014(4) 0.4155(3)
H67 H 0.7852 0.6276 0.3567
H68 H 0.6962 0.6354 0.4325
H69 H 0.7854 0.5294 0.4277
C66 C 0.6370(4) 1.4419(3) 0.5370(3)
H70 H 0.6461 1.4298 0.4833
H71 H 0.7042 1.4295 0.5512
H72 H 0.5914 1.5114 0.5354
C67 C 0.4606(6) 1.1375(5) 0.5323(3)
H73 H 0.4674 1.1264 0.4786
H74 H 0.5245 1.1413 0.5391
H75 H 0.4030 1.2003 0.5365
C68 C 0.6508(6) 0.8217(5) 0.8944(7)
H76 H 0.7196 0.7893 0.8677
H77 H 0.6007 0.8513 0.8548
H78 H 0.6314 0.7719 0.9399
C69 C 0.7047(5) 0.8263(5) 0.6711(4)
H79 H 0.6851 0.8929 0.6792
H80 H 0.7751 0.7852 0.6844
H81 H 0.6571 0.7947 0.7067
O11 O 0.7001(8) 0.8348(8) 0.5921(5)
H82 H 0.6638 0.8047 0.5903
loop_
_geom_bond_atom_site_label_1
_geom_bond_atom_site_label_2
_geom_bond_site_symmetry_1
_geom_bond_site_symmetry_2
O1 C13 1_555 1_555
O2 C40 1_555 1_555
O3 C12 1_555 1_555
O4 C14 1_555 1_555
O5 C19 1_555 1_555
O6 C9 1_555 1_555
O7 C18 1_555 1_555
O8 C39 1_555 1_555
O9 C27 1_555 1_555
O10 C35 1_555 1_555
C1 C2 1_555 1_555
C2 C7 1_555 1_555
C3 C14 1_555 1_555
C4 C7 1_555 1_555
C5 C7 1_555 1_555
C6 C9 1_555 1_555
C8 C4 1_555 1_555
H1 C8 1_555 1_555
C9 C8 1_555 1_555
C10 C13 1_555 1_555
C11 C12 1_555 1_555
C12 C34 1_555 1_555
C13 C24 1_555 1_555
C14 C23 1_555 1_555
C15 C19 1_555 1_555
C16 C3 1_555 1_555
H2 C16 1_555 1_555
C17 C24 1_555 1_555
C18 C5 1_555 1_555
C19 C16 1_555 1_555
C20 C27 1_555 1_555
C21 C11 1_555 1_555
H3 C21 1_555 1_555
C22 C3 1_555 1_555
H4 C22 1_555 1_555
H5 C22 1_555 1_555
C23 C15 1_555 1_555
H6 C23 1_555 1_555
C24 H7 1_555 1_555
C25 C1 1_555 1_555
H8 C25 1_555 1_555
C26 C11 1_555 1_555
H9 C26 1_555 1_555
H10 C26 1_555 1_555
C27 C30 1_555 1_555
C28 C1 1_555 1_555
H11 C28 1_555 1_555
C29 C2 1_555 1_555
C30 C5 1_555 1_555
H12 C30 1_555 1_555
C31 C6 1_555 1_555
H13 C31 1_555 1_555
C32 C34 1_555 1_555
C33 C10 1_555 1_555
H14 C33 1_555 1_555
C34 H15 1_555 1_555
C35 C17 1_555 1_555
C36 C18 1_555 1_555
H16 C36 1_555 1_555
C37 C20 1_555 1_555
H17 C37 1_555 1_555
H18 C37 1_555 1_555
C38 H19 1_555 1_555
C39 C21 1_555 1_555
C40 C4 1_555 1_555
C41 C6 1_555 1_555
H20 C41 1_555 1_555
H21 C41 1_555 1_555
C42 C29 1_555 1_555
H22 C42 1_555 1_555
C43 C29 1_555 1_555
H23 C43 1_555 1_555
C44 O3 1_555 1_555
H24 C44 1_555 1_555
H25 C44 1_555 1_555
C45 O4 1_555 1_555
H26 C45 1_555 1_555
H27 C45 1_555 1_555
C46 C28 1_555 1_555
H28 C46 1_555 1_555
C47 O9 1_555 1_555
H29 C47 1_555 1_555
H30 C47 1_555 1_555
C48 C25 1_555 1_555
H31 C48 1_555 1_555
C49 O5 1_555 1_555
H32 C49 1_555 1_555
H33 C49 1_555 1_555
C50 O1 1_555 1_555
H34 C50 1_555 1_555
H35 C50 1_555 1_555
C51 C46 1_555 1_555
H36 C51 1_555 1_555
C52 C47 1_555 1_555
H37 C52 1_555 1_555
H38 C52 1_555 1_555
H39 C52 1_555 1_555
C53 C45 1_555 1_555
H40 C53 1_555 1_555
H41 C53 1_555 1_555
H42 C53 1_555 1_555
C54 O2 1_555 1_555
H43 C54 1_555 1_555
H44 C54 1_555 1_555
C55 C38 1_555 1_555
H45 C55 1_555 1_555
C56 O10 1_555 1_555
H46 C56 1_555 1_555
H47 C56 1_555 1_555
C57 C44 1_555 1_555
H48 C57 1_555 1_555
H49 C57 1_555 1_555
H50 C57 1_555 1_555
C58 O8 1_555 1_555
H51 C58 1_555 1_555
H52 C58 1_555 1_555
C59 C58 1_555 1_555
H53 C59 1_555 1_555
H54 C59 1_555 1_555
H55 C59 1_555 1_555
C60 O7 1_555 1_555
H56 C60 1_555 1_555
H57 C60 1_555 1_555
C61 C50 1_555 1_555
H58 C61 1_555 1_555
H59 C61 1_555 1_555
H60 C61 1_555 1_555
C62 C49 1_555 1_555
H61 C62 1_555 1_555
H62 C62 1_555 1_555
H63 C62 1_555 1_555
C63 O6 1_555 1_555
H64 C63 1_555 1_555
H65 C63 1_555 1_555
C64 C38 1_555 1_555
H66 C64 1_555 1_555
C65 C56 1_555 1_555
H67 C65 1_555 1_555
H68 C65 1_555 1_555
H69 C65 1_555 1_555
C66 C63 1_555 1_555
H70 C66 1_555 1_555
H71 C66 1_555 1_555
H72 C66 1_555 1_555
C67 C60 1_555 1_555
H73 C67 1_555 1_555
H74 C67 1_555 1_555
H75 C67 1_555 1_555
C68 C54 1_555 1_555
H76 C68 1_555 1_555
H77 C68 1_555 1_555
H78 C68 1_555 1_555
C69 H79 1_555 1_555
H80 C69 1_555 1_555
H81 C69 1_555 1_555
O11 C69 1_555 1_555
H82 O11 1_555 1_555
C10 C22 1_555 1_555
C15 C41 1_555 1_555
C17 C26 1_555 1_555
C20 C36 1_555 1_555
C31 C40 1_555 1_555
C32 C37 1_555 1_555
C32 C39 1_555 1_555
C33 C35 1_555 1_555
C42 C55 1_555 1_555
C43 C64 1_555 1_555
C48 C51 1_555 1_555

#END
