
#######################################################################
#
#                 Cambridge Crystallographic Data Centre
#                                CCDC 
#
#######################################################################
#
# If this CIF has been generated from an entry in the Cambridge 
# Structural Database, then it will include bibliographic, chemical, 
# crystal, experimental, refinement or atomic coordinate data resulting 
# from the CCDC's data processing and validation procedures.
#
#######################################################################

data_METLAB
_chemical_name_common            'conosilane A'
_chemical_formula_moiety         'C15 H16 O5'
_chemical_name_systematic        
8,8-dimethyl-8,9-dihydro-3aH,5H-furo[2,3-b]indeno[1,2-c]furan-2,6,10(1H,5aH,7H)-trione
_symmetry_cell_setting           triclinic
_symmetry_space_group_name_H-M   'P -1'
_symmetry_Int_Tables_number      2
_space_group_name_Hall           '-P 1'
loop_
_symmetry_equiv_pos_site_id
_symmetry_equiv_pos_as_xyz
1 x,y,z
2 -x,-y,-z
_cell_length_a                   10.057(2)
_cell_length_b                   11.4810(18)
_cell_length_c                   12.6213(12)
_cell_angle_alpha                87.520(11)
_cell_angle_beta                 68.565(15)
_cell_angle_gamma                88.715(16)
_cell_volume                     1355.21
_exptl_crystal_colour            'light colorless'
_exptl_crystal_description       block
_cell_formula_units_Z            4
loop_
_atom_site_label
_atom_site_type_symbol
_atom_site_fract_x
_atom_site_fract_y
_atom_site_fract_z
O1 O 0.6506(4) 0.7945(4) 0.8489(3)
O2 O 0.8628(4) 0.8350(4) 0.5200(3)
O3 O 0.9232(4) 0.6756(4) 0.4067(3)
O4 O 0.9723(4) 0.4868(4) 0.3810(3)
O5 O 0.4959(4) 0.6602(4) 0.4695(3)
C1 C 0.6461(6) 0.7523(5) 0.7631(4)
C2 C 0.7726(5) 0.6971(5) 0.6715(4)
H1 H 0.8059 0.6269 0.7014
C3 C 0.8959(6) 0.7827(6) 0.6138(5)
H2 H 0.8989 0.8413 0.6661
H3 H 0.9870 0.7420 0.5866
C4 C 0.8081(6) 0.7483(5) 0.4762(4)
H4 H 0.7522 0.7811 0.4325
C5 C 0.7148(5) 0.6672(5) 0.5770(4)
C6 C 0.5606(5) 0.7041(5) 0.6241(4)
C7 C 0.4601(6) 0.6990(5) 0.5644(4)
C8 C 0.3084(6) 0.7384(5) 0.6307(4)
H5 H 0.2548 0.6726 0.6757
H6 H 0.2634 0.7639 0.5775
C9 C 0.3013(5) 0.8390(5) 0.7108(4)
C10 C 0.3795(6) 0.8020(5) 0.7905(4)
H7 H 0.3906 0.8691 0.8306
H8 H 0.3230 0.7446 0.8466
C11 C 0.5223(5) 0.7517(5) 0.7263(4)
C12 C 0.7522(6) 0.5459(5) 0.5296(4)
H9 H 0.7610 0.4909 0.5872
H10 H 0.6792 0.5186 0.5035
C13 C 0.8911(6) 0.5591(6) 0.4327(5)
C14 C 0.1414(6) 0.8632(5) 0.7825(4)
H11 H 0.0976 0.7926 0.8221
H12 H 0.0933 0.8906 0.7330
H13 H 0.1348 0.9214 0.8367
C15 C 0.3660(6) 0.9502(5) 0.6430(5)
H14 H 0.3547 1.0122 0.6943
H15 H 0.3184 0.9707 0.5913
H16 H 0.4658 0.9376 0.6008
O6 O 0.8957(5) 0.3900(4) 1.0441(4)
O7 O 0.7992(5) 0.5111(4) 1.1851(3)
O8 O 0.7638(5) 0.7018(4) 1.2449(3)
O9 O 0.7246(4) 0.9600(3) 1.0531(3)
O10 O 0.4057(4) 0.5299(4) 1.1861(3)
C16 C 0.6878(6) 0.8587(5) 1.0689(4)
C17 C 0.7875(6) 0.7552(5) 1.0580(5)
H17 H 0.8556 0.7471 0.9799
C18 C 0.8610(6) 0.7587(6) 1.1442(5)
H18 H 0.9520 0.7177 1.1171
H19 H 0.8772 0.8385 1.1586
C19 C 0.7045(7) 0.6108(6) 1.2109(5)
H20 H 0.6121 0.5897 1.2693
C20 C 0.8199(7) 0.4733(6) 1.0789(6)
C21 C 0.7305(6) 0.5434(5) 1.0275(4)
H21 H 0.6475 0.4998 1.0308
H22 H 0.7852 0.5653 0.9486
C22 C 0.6857(6) 0.6514(5) 1.0995(4)
C23 C 0.5402(5) 0.7018(5) 1.1195(4)
C24 C 0.4059(6) 0.6365(6) 1.1634(4)
C25 C 0.2722(5) 0.7049(5) 1.1741(5)
H23 H 0.1907 0.6656 1.2302
H24 H 0.2591 0.7064 1.1016
C26 C 0.2763(6) 0.8309(5) 1.2095(4)
C27 C 0.4114(5) 0.8910(5) 1.1249(4)
H25 H 0.3987 0.9075 1.0531
H26 H 0.4242 0.9646 1.1547
C28 C 0.5412(5) 0.8176(5) 1.1044(4)
C29 C 0.1436(6) 0.8967(5) 1.2075(5)
H27 H 0.1488 0.9766 1.2250
H28 H 0.0599 0.8616 1.2631
H29 H 0.1386 0.8932 1.1332
C30 C 0.2772(6) 0.8304(6) 1.3303(4)
H30 H 0.3580 0.7862 1.3334
H31 H 0.1908 0.7957 1.3824
H32 H 0.2834 0.9090 1.3510
loop_
_geom_bond_atom_site_label_1
_geom_bond_atom_site_label_2
_geom_bond_site_symmetry_1
_geom_bond_site_symmetry_2
O1 C1 1_555 1_555
O2 C3 1_555 1_555
O3 C4 1_555 1_555
O4 C13 1_555 1_555
O5 C7 1_555 1_555
C1 C2 1_555 1_555
C2 H1 1_555 1_555
C3 C2 1_555 1_555
H2 C3 1_555 1_555
H3 C3 1_555 1_555
C4 O2 1_555 1_555
H4 C4 1_555 1_555
C5 C2 1_555 1_555
C6 C5 1_555 1_555
C7 C6 1_555 1_555
C8 C7 1_555 1_555
H5 C8 1_555 1_555
H6 C8 1_555 1_555
C9 C8 1_555 1_555
C10 C9 1_555 1_555
H7 C10 1_555 1_555
H8 C10 1_555 1_555
C11 C1 1_555 1_555
C12 C5 1_555 1_555
H9 C12 1_555 1_555
H10 C12 1_555 1_555
C13 O3 1_555 1_555
C14 C9 1_555 1_555
H11 C14 1_555 1_555
H12 C14 1_555 1_555
H13 C14 1_555 1_555
C15 C9 1_555 1_555
H14 C15 1_555 1_555
H15 C15 1_555 1_555
H16 C15 1_555 1_555
O6 C20 1_555 1_555
O7 C19 1_555 1_555
O8 C18 1_555 1_555
O9 C16 1_555 1_555
O10 C24 1_555 1_555
C16 C17 1_555 1_555
C17 H17 1_555 1_555
C18 C17 1_555 1_555
H18 C18 1_555 1_555
H19 C18 1_555 1_555
C19 O8 1_555 1_555
H20 C19 1_555 1_555
C20 O7 1_555 1_555
C21 C20 1_555 1_555
H21 C21 1_555 1_555
H22 C21 1_555 1_555
C22 C17 1_555 1_555
C23 C22 1_555 1_555
C24 C23 1_555 1_555
C25 C24 1_555 1_555
H23 C25 1_555 1_555
H24 C25 1_555 1_555
C26 C25 1_555 1_555
C27 C26 1_555 1_555
H25 C27 1_555 1_555
H26 C27 1_555 1_555
C28 C16 1_555 1_555
C29 C26 1_555 1_555
H27 C29 1_555 1_555
H28 C29 1_555 1_555
H29 C29 1_555 1_555
C30 C26 1_555 1_555
H30 C30 1_555 1_555
H31 C30 1_555 1_555
H32 C30 1_555 1_555
C4 C5 1_555 1_555
C6 C11 1_555 1_555
C10 C11 1_555 1_555
C12 C13 1_555 1_555
C19 C22 1_555 1_555
C21 C22 1_555 1_555
C23 C28 1_555 1_555
C27 C28 1_555 1_555

#END
