
#######################################################################
#
#                 Cambridge Crystallographic Data Centre
#                                CCDC 
#
#######################################################################
#
# If this CIF has been generated from an entry in the Cambridge 
# Structural Database, then it will include bibliographic, chemical, 
# crystal, experimental, refinement or atomic coordinate data resulting 
# from the CCDC's data processing and validation procedures.
#
#######################################################################

data_METMUU
_chemical_formula_moiety         'C22 H24 N2 O4'
_chemical_name_systematic        
N,N'-(2-Hydroxy-3-methoxybenzyl)benzene-1,4-diamine
_symmetry_cell_setting           orthorhombic
_symmetry_space_group_name_H-M   'P c c n'
_symmetry_Int_Tables_number      56
_space_group_name_Hall           '-P 2ab 2ac'
loop_
_symmetry_equiv_pos_site_id
_symmetry_equiv_pos_as_xyz
1 x,y,z
2 1/2-x,1/2-y,z
3 -x,1/2+y,1/2-z
4 1/2+x,-y,1/2-z
5 -x,-y,-z
6 1/2+x,1/2+y,-z
7 x,1/2-y,1/2+z
8 1/2-x,y,1/2+z
_cell_length_a                   11.308(2)
_cell_length_b                   16.736(3)
_cell_length_c                   10.325(2)
_cell_angle_alpha                90
_cell_angle_beta                 90
_cell_angle_gamma                90
_cell_volume                     1954.01
_exptl_crystal_colour            yellow
_exptl_crystal_description       block
_cell_formula_units_Z            4
loop_
_atom_site_label
_atom_site_type_symbol
_atom_site_fract_x
_atom_site_fract_y
_atom_site_fract_z
N1 N 0.6440(3) 0.3712(2) 0.4193(3)
H1 H 0.6823 0.3539 0.4903
O1 O 0.7060(2) 0.35932(17) 0.1451(3)
H2 H 0.7337 0.3788 0.0788
O2 O 0.5982(3) 0.40892(19) -0.0735(3)
C1 C 0.5875(4) 0.3012(3) 0.3587(5)
H3 H 0.5318 0.2781 0.4194
H4 H 0.6476 0.2614 0.3406
C2 C 0.5236(3) 0.3211(2) 0.2351(4)
C3 C 0.5857(3) 0.3526(2) 0.1324(4)
C4 C 0.5273(4) 0.3771(3) 0.0216(4)
C5 C 0.4068(4) 0.3686(3) 0.0118(5)
H5 H 0.3674 0.3848 -0.0628
C6 C 0.3453(4) 0.3360(3) 0.1131(6)
H6 H 0.2638 0.3296 0.1068
C7 C 0.4024(4) 0.3127(3) 0.2231(5)
H7 H 0.3592 0.2909 0.2911
C8 C 0.5438(5) 0.4325(3) -0.1909(4)
H8 H 0.6026 0.4540 -0.2483
H9 H 0.4851 0.4725 -0.1734
H10 H 0.5070 0.3870 -0.2307
C9 C 0.5691(3) 0.4347(3) 0.4576(4)
C10 C 0.4534(4) 0.4242(3) 0.4990(4)
H11 H 0.4202 0.3734 0.4992
C11 C 0.6128(4) 0.5113(3) 0.4603(4)
H12 H 0.6902 0.5200 0.4336
N1D N 0.3560(3) 0.6288(2) 0.5807(3)
H1D H 0.3177 0.6461 0.5097
O1D O 0.2940(2) 0.64068(17) 0.8549(3)
H2D H 0.2663 0.6212 0.9212
O2D O 0.4018(3) 0.59108(19) 1.0735(3)
C1D C 0.4125(4) 0.6988(3) 0.6413(5)
H3D H 0.4682 0.7219 0.5806
H4D H 0.3524 0.7386 0.6594
C2D C 0.4764(3) 0.6789(2) 0.7649(4)
C3D C 0.4143(3) 0.6474(2) 0.8676(4)
C4D C 0.4727(4) 0.6229(3) 0.9784(4)
C5D C 0.5932(4) 0.6314(3) 0.9882(5)
H5D H 0.6326 0.6152 1.0628
C6D C 0.6547(4) 0.6640(3) 0.8869(6)
H6D H 0.7362 0.6704 0.8932
C7D C 0.5976(4) 0.6873(3) 0.7769(5)
H7D H 0.6408 0.7091 0.7089
C8D C 0.4562(5) 0.5675(3) 1.1909(4)
H8D H 0.3974 0.5460 1.2483
H9D H 0.5149 0.5275 1.1734
H10D H 0.4930 0.6130 1.2307
C9D C 0.4309(3) 0.5653(3) 0.5424(4)
C10D C 0.5466(4) 0.5758(3) 0.5010(4)
H11D H 0.5798 0.6266 0.5008
C11D C 0.3872(4) 0.4887(3) 0.5397(4)
H12D H 0.3098 0.4800 0.5664
loop_
_geom_bond_atom_site_label_1
_geom_bond_atom_site_label_2
_geom_bond_site_symmetry_1
_geom_bond_site_symmetry_2
N1 H1 1_555 1_555
O1 H2 1_555 1_555
O2 C4 1_555 1_555
C1 N1 1_555 1_555
H3 C1 1_555 1_555
H4 C1 1_555 1_555
C2 C1 1_555 1_555
C3 O1 1_555 1_555
C4 C3 1_555 1_555
C5 C4 1_555 1_555
H5 C5 1_555 1_555
C6 C5 1_555 1_555
H6 C6 1_555 1_555
C7 C2 1_555 1_555
H7 C7 1_555 1_555
C8 O2 1_555 1_555
H8 C8 1_555 1_555
H9 C8 1_555 1_555
H10 C8 1_555 1_555
C9 N1 1_555 1_555
C10 C9 1_555 1_555
H11 C10 1_555 1_555
C11 C9 1_555 1_555
H12 C11 1_555 1_555
N1D H1D 1_555 1_555
O1D H2D 1_555 1_555
O2D C4D 1_555 1_555
C1D N1D 1_555 1_555
H3D C1D 1_555 1_555
H4D C1D 1_555 1_555
C2D C1D 1_555 1_555
C3D O1D 1_555 1_555
C4D C3D 1_555 1_555
C5D C4D 1_555 1_555
H5D C5D 1_555 1_555
C6D C5D 1_555 1_555
H6D C6D 1_555 1_555
C7D C2D 1_555 1_555
H7D C7D 1_555 1_555
C8D O2D 1_555 1_555
H8D C8D 1_555 1_555
H9D C8D 1_555 1_555
H10D C8D 1_555 1_555
C9D N1D 1_555 1_555
C10D C11 1_555 1_555
H11D C10D 1_555 1_555
C11D C10 1_555 1_555
H12D C11D 1_555 1_555
C2 C3 1_555 1_555
C6 C7 1_555 1_555
C2D C3D 1_555 1_555
C6D C7D 1_555 1_555
C9D C10D 1_555 1_555
C9D C11D 1_555 1_555

#END
