
#######################################################################
#
#                 Cambridge Crystallographic Data Centre
#                                CCDC 
#
#######################################################################
#
# If this CIF has been generated from an entry in the Cambridge 
# Structural Database, then it will include bibliographic, chemical, 
# crystal, experimental, refinement or atomic coordinate data resulting 
# from the CCDC's data processing and validation procedures.
#
#######################################################################

data_METNUV
_chemical_formula_moiety         'C17 H16 Cl2 N2'
_chemical_name_systematic        
N,N'-bis(4-Chlorobenzylidene)propane-1,2-diamine
_symmetry_cell_setting           triclinic
_symmetry_space_group_name_H-M   'P -1'
_symmetry_Int_Tables_number      2
_space_group_name_Hall           '-P 1'
loop_
_symmetry_equiv_pos_site_id
_symmetry_equiv_pos_as_xyz
1 x,y,z
2 -x,-y,-z
_cell_length_a                   7.731(3)
_cell_length_b                   9.301(3)
_cell_length_c                   11.970(3)
_cell_angle_alpha                81.031(3)
_cell_angle_beta                 72.354(2)
_cell_angle_gamma                82.339(3)
_cell_volume                     806.795
_exptl_crystal_colour            colorless
_exptl_crystal_description       block
_chemical_melting_point          '350-352 K'
_cell_formula_units_Z            2
_exptl_crystal_recrystallization_method ethanol
loop_
_atom_site_label
_atom_site_type_symbol
_atom_site_fract_x
_atom_site_fract_y
_atom_site_fract_z
Cl1 Cl 0.34835(11) 0.65472(11) 0.29418(7)
Cl2 Cl 0.63709(14) -0.06389(10) 1.12015(9)
N1 N 0.8410(3) 0.7925(2) 0.64059(19)
N2 N 0.9132(3) 0.5945(3) 0.8465(2)
C1 C 0.8769(4) 0.7224(3) 0.5533(2)
H1 H 0.9938 0.6765 0.5272
C2 C 0.7447(4) 0.7087(3) 0.4899(2)
C3 C 0.5743(4) 0.7858(3) 0.5139(2)
H2 H 0.5407 0.8487 0.5717
C4 C 0.4535(4) 0.7700(3) 0.4529(2)
H3 H 0.3400 0.8234 0.4684
C5 C 0.5023(4) 0.6751(3) 0.3695(2)
C6 C 0.6710(4) 0.5992(3) 0.3422(2)
H4 H 0.7036 0.5365 0.2844
C7 C 0.7921(4) 0.6177(3) 0.4023(2)
H5 H 0.9078 0.5679 0.3833
C8 C 0.8004(4) 0.5522(3) 0.9424(2)
H6 H 0.7351 0.6228 0.9901
C9 C 0.8641(4) 0.2859(3) 0.9251(2)
H7 H 0.9585 0.3057 0.8565
C10 C 0.8261(4) 0.1438(3) 0.9657(2)
H8 H 0.8935 0.0679 0.9248
C11 C 0.6868(4) 0.1150(3) 1.0679(3)
C12 C 0.5870(4) 0.2247(4) 1.1290(2)
H9 H 0.4939 0.2038 1.1979
C13 C 0.6256(4) 0.3667(3) 1.0877(2)
H10 H 0.5578 0.4419 1.1293
C14 C 0.7647(3) 0.3997(3) 0.9843(2)
C15 C 0.9896(4) 0.8019(3) 0.6909(2)
H11 H 1.0973 0.7404 0.6517
C16 C 0.9342(4) 0.7509(3) 0.8212(2)
H12 H 1.0256 0.7726 0.8550
H13 H 0.8198 0.8043 0.8584
C17 C 1.0344(5) 0.9603(3) 0.6686(3)
H14 H 1.0746 0.9903 0.5851
H15 H 1.1293 0.9691 0.7028
H16 H 0.9276 1.0214 0.7038
loop_
_geom_bond_atom_site_label_1
_geom_bond_atom_site_label_2
_geom_bond_site_symmetry_1
_geom_bond_site_symmetry_2
Cl1 C5 1_555 1_555
Cl2 C11 1_555 1_555
N1 C1 1_555 1_555
N2 C8 1_555 1_555
C1 H1 1_555 1_555
C2 C1 1_555 1_555
C3 C2 1_555 1_555
H2 C3 1_555 1_555
C4 C3 1_555 1_555
H3 C4 1_555 1_555
C5 C4 1_555 1_555
C6 C5 1_555 1_555
H4 C6 1_555 1_555
C7 C2 1_555 1_555
H5 C7 1_555 1_555
C8 H6 1_555 1_555
C9 H7 1_555 1_555
C10 C9 1_555 1_555
H8 C10 1_555 1_555
C11 C10 1_555 1_555
C12 C11 1_555 1_555
H9 C12 1_555 1_555
C13 C12 1_555 1_555
H10 C13 1_555 1_555
C14 C8 1_555 1_555
C15 N1 1_555 1_555
H11 C15 1_555 1_555
C16 N2 1_555 1_555
H12 C16 1_555 1_555
H13 C16 1_555 1_555
C17 C15 1_555 1_555
H14 C17 1_555 1_555
H15 C17 1_555 1_555
H16 C17 1_555 1_555
C6 C7 1_555 1_555
C9 C14 1_555 1_555
C13 C14 1_555 1_555
C15 C16 1_555 1_555

#END
