
#######################################################################
#
#                 Cambridge Crystallographic Data Centre
#                                CCDC 
#
#######################################################################
#
# If this CIF has been generated from an entry in the Cambridge 
# Structural Database, then it will include bibliographic, chemical, 
# crystal, experimental, refinement or atomic coordinate data resulting 
# from the CCDC's data processing and validation procedures.
#
#######################################################################

data_METQOU
_chemical_formula_moiety         'C35 H32 N2 O5 S2'
_chemical_name_systematic        
2-{1,3-bis[(4-methylphenyl)sulfonyl]-2-(naphthalen-1-yl)imidazolidin-4-yl}-1-phenylethan-1-one
_symmetry_cell_setting           orthorhombic
_symmetry_space_group_name_H-M   'P 21 21 21'
_symmetry_Int_Tables_number      19
_space_group_name_Hall           'P 2ac 2ab'
loop_
_symmetry_equiv_pos_site_id
_symmetry_equiv_pos_as_xyz
1 x,y,z
2 1/2-x,-y,1/2+z
3 -x,1/2+y,1/2-z
4 1/2+x,1/2-y,-z
_cell_length_a                   8.2494(10)
_cell_length_b                   13.4963(14)
_cell_length_c                   27.994(4)
_cell_angle_alpha                90
_cell_angle_beta                 90
_cell_angle_gamma                90
_cell_volume                     3116.75
_exptl_crystal_colour            white
_exptl_crystal_description       Needle
_cell_formula_units_Z            4
_exptl_crystal_recrystallization_method 'Acetonitrile solvent'
loop_
_atom_site_label
_atom_site_type_symbol
_atom_site_fract_x
_atom_site_fract_y
_atom_site_fract_z
S1 S 0.4650(4) 0.7507(2) 0.33486(11)
S2 S 0.7991(4) 0.4888(2) 0.30969(11)
O1 O 0.6081(9) 0.7722(4) 0.3624(3)
O2 O 0.4428(9) 0.7920(5) 0.2882(3)
O3 O 0.8304(9) 0.3917(4) 0.2907(3)
O4 O 0.8948(9) 0.5293(5) 0.3490(2)
O5 O 0.1835(10) 0.4530(6) 0.2136(3)
N1 N 0.6062(9) 0.4863(5) 0.3279(3)
N2 N 0.4536(10) 0.6287(5) 0.3282(3)
C1 C 0.5146(14) 0.4655(7) 0.4382(3)
C2 C 0.3182(13) 0.5843(8) 0.1738(4)
C3 C 0.8323(13) 0.6719(8) 0.2685(4)
H1 H 0.8268 0.6961 0.2996
C4 C 0.4431(13) 0.5188(7) 0.3995(4)
C5 C 0.5488(13) 0.5647(7) 0.3613(4)
H2 H 0.6399 0.6010 0.3753
C6 C 0.4276(15) 0.5829(7) 0.2810(4)
H3 H 0.4977 0.6131 0.2568
C7 C 0.2435(14) 0.5377(8) 0.2144(4)
C8 C 0.8145(13) 0.5714(7) 0.2600(4)
C9 C 0.3038(15) 0.7822(7) 0.3682(4)
C10 C 0.8572(13) 0.7336(8) 0.2322(4)
H4 H 0.8788 0.8002 0.2380
C11 C 0.2438(16) 0.4264(8) 0.4701(4)
H5 H 0.1778 0.3965 0.4928
C12 C 0.8104(13) 0.5326(8) 0.2163(3)
H6 H 0.7996 0.4647 0.2116
C13 C 0.8509(13) 0.6979(9) 0.1854(4)
C14 C 0.0170(15) 0.8190(7) 0.3768(4)
H7 H -0.0827 0.8262 0.3617
C15 C 0.4026(17) 0.7267(8) 0.1320(4)
H8 H 0.4206 0.7947 0.1314
C16 C 0.2771(14) 0.5241(8) 0.3977(3)
H9 H 0.2281 0.5582 0.3727
C17 C 0.4804(12) 0.4766(7) 0.2920(3)
H10 H 0.3901 0.4381 0.3042
H11 H 0.5221 0.4445 0.2636
C18 C 0.3677(16) 0.5281(8) 0.1351(4)
H12 H 0.3546 0.4597 0.1361
C19 C 0.1567(16) 0.7958(8) 0.3490(4)
H13 H 0.1453 0.7899 0.3161
C20 C 0.2487(12) 0.5856(8) 0.2656(4)
H14 H 0.2094 0.6533 0.2646
H15 H 0.1821 0.5481 0.2877
C21 C 0.3311(14) 0.6864(8) 0.1703(4)
H16 H 0.2903 0.7267 0.1944
C22 C 0.8231(15) 0.5985(7) 0.1776(4)
H17 H 0.8128 0.5749 0.1465
C23 C 0.1753(18) 0.8229(10) 0.4465(4)
H18 H 0.1882 0.8333 0.4791
C24 C 0.1809(14) 0.4802(9) 0.4321(4)
H19 H 0.0690 0.4870 0.4297
C25 C 0.4123(16) 0.4199(8) 0.4719(4)
C26 C 0.4818(18) 0.3674(9) 0.5113(4)
H20 H 0.4162 0.3371 0.5340
C27 C 0.3131(18) 0.7986(9) 0.4182(4)
H21 H 0.4135 0.7933 0.4331
C28 C 0.4493(17) 0.6711(10) 0.0943(5)
H22 H 0.4913 0.7015 0.0671
C29 C 0.8722(17) 0.7704(8) 0.1429(4)
H23 H 0.9588 0.7477 0.1228
H24 H 0.8976 0.8352 0.1549
H25 H 0.7735 0.7732 0.1248
C30 C 0.6807(16) 0.4569(8) 0.4430(4)
H26 H 0.7474 0.4853 0.4199
C31 C 0.0268(19) 0.8312(9) 0.4270(5)
C32 C -0.1131(18) 0.8534(10) 0.4546(5)
H27 H -0.0993 0.8282 0.4864
H28 H -0.2064 0.8232 0.4402
H29 H -0.1281 0.9239 0.4559
C33 C 0.6439(19) 0.3629(9) 0.5147(4)
H30 H 0.6902 0.3292 0.5403
C34 C 0.4349(17) 0.5701(10) 0.0959(4)
H31 H 0.4704 0.5312 0.0705
C35 C 0.7484(17) 0.4088(10) 0.4798(4)
H32 H 0.8605 0.4052 0.4828
loop_
_geom_bond_atom_site_label_1
_geom_bond_atom_site_label_2
_geom_bond_site_symmetry_1
_geom_bond_site_symmetry_2
S1 O1 1_555 1_555
S2 O3 1_555 1_555
O2 S1 1_555 1_555
O4 S2 1_555 1_555
O5 C7 1_555 1_555
N1 S2 1_555 1_555
N2 S1 1_555 1_555
C1 C4 1_555 1_555
C2 C7 1_555 1_555
C3 H1 1_555 1_555
C4 C5 1_555 1_555
C5 N1 1_555 1_555
H2 C5 1_555 1_555
C6 N2 1_555 1_555
H3 C6 1_555 1_555
C7 C20 1_555 1_555
C8 S2 1_555 1_555
C9 S1 1_555 1_555
C10 C3 1_555 1_555
H4 C10 1_555 1_555
C11 H5 1_555 1_555
C12 C8 1_555 1_555
H6 C12 1_555 1_555
C13 C10 1_555 1_555
C14 H7 1_555 1_555
C15 H8 1_555 1_555
C16 C4 1_555 1_555
H9 C16 1_555 1_555
C17 N1 1_555 1_555
H10 C17 1_555 1_555
H11 C17 1_555 1_555
C18 C2 1_555 1_555
H12 C18 1_555 1_555
C19 C9 1_555 1_555
H13 C19 1_555 1_555
C20 C6 1_555 1_555
H14 C20 1_555 1_555
H15 C20 1_555 1_555
C21 C2 1_555 1_555
H16 C21 1_555 1_555
C22 C12 1_555 1_555
H17 C22 1_555 1_555
C23 H18 1_555 1_555
C24 C11 1_555 1_555
H19 C24 1_555 1_555
C25 C1 1_555 1_555
C26 C25 1_555 1_555
H20 C26 1_555 1_555
C27 C9 1_555 1_555
H21 C27 1_555 1_555
C28 C15 1_555 1_555
H22 C28 1_555 1_555
C29 C13 1_555 1_555
H23 C29 1_555 1_555
H24 C29 1_555 1_555
H25 C29 1_555 1_555
C30 C1 1_555 1_555
H26 C30 1_555 1_555
C31 C14 1_555 1_555
C32 C31 1_555 1_555
H27 C32 1_555 1_555
H28 C32 1_555 1_555
H29 C32 1_555 1_555
C33 C26 1_555 1_555
H30 C33 1_555 1_555
C34 C18 1_555 1_555
H31 C34 1_555 1_555
C35 C30 1_555 1_555
H32 C35 1_555 1_555
N2 C5 1_555 1_555
C3 C8 1_555 1_555
C6 C17 1_555 1_555
C11 C25 1_555 1_555
C13 C22 1_555 1_555
C14 C19 1_555 1_555
C15 C21 1_555 1_555
C16 C24 1_555 1_555
C23 C27 1_555 1_555
C23 C31 1_555 1_555
C28 C34 1_555 1_555
C33 C35 1_555 1_555

#END
