
#######################################################################
#
#                 Cambridge Crystallographic Data Centre
#                                CCDC 
#
#######################################################################
#
# If this CIF has been generated from an entry in the Cambridge 
# Structural Database, then it will include bibliographic, chemical, 
# crystal, experimental, refinement or atomic coordinate data resulting 
# from the CCDC's data processing and validation procedures.
#
#######################################################################

data_METRIN
_chemical_formula_moiety         'C19 H24 N2 O4 2+,2(Cl1 1-)'
_chemical_name_systematic        
"N,N'-bis(3,4-Methylenedioxybenzyl)propane-1,3-diammonium dichloride"
_symmetry_cell_setting           orthorhombic
_symmetry_space_group_name_H-M   'P m n 21'
_symmetry_Int_Tables_number      31
_space_group_name_Hall           'P 2ac -2'
loop_
_symmetry_equiv_pos_site_id
_symmetry_equiv_pos_as_xyz
1 x,y,z
2 1/2-x,-y,1/2+z
3 1/2+x,-y,1/2+z
4 -x,y,z
_cell_length_a                   38.366(14)
_cell_length_b                   4.8370(18)
_cell_length_c                   5.2980(19)
_cell_angle_alpha                90
_cell_angle_beta                 90
_cell_angle_gamma                90
_cell_volume                     983.183
_exptl_crystal_colour            colorless
_exptl_crystal_description       columnar
_chemical_melting_point          '493-495 K'
_cell_formula_units_Z            2
_exptl_crystal_recrystallization_method DMF
loop_
_atom_site_label
_atom_site_type_symbol
_atom_site_fract_x
_atom_site_fract_y
_atom_site_fract_z
Cl1 Cl 0.43820(2) 0.36226(17) 0.9267(2)
N1 N 0.43522(5) 0.7032(4) 0.4240(8)
H1 H 0.4348 0.5852 0.5553
H2 H 0.4348 0.6025 0.2812
O1 O 0.27780(6) 0.2955(6) 0.3395(6)
O2 O 0.31331(6) 0.1937(6) 0.6786(6)
C1 C 0.40351(7) 0.8822(7) 0.4332(10)
H3 H 0.4054 1.0235 0.3039
H4 H 0.4026 0.9744 0.5956
C2 C 0.37005(7) 0.7231(7) 0.3941(7)
C3 C 0.35983(8) 0.5243(7) 0.5705(7)
H5 H 0.3738 0.4812 0.7085
C4 C 0.32867(8) 0.3961(7) 0.5330(7)
C5 C 0.30768(8) 0.4566(7) 0.3301(7)
C6 C 0.31691(8) 0.6472(8) 0.1541(7)
H6 H 0.3027 0.6862 0.0162
C7 C 0.34900(8) 0.7826(8) 0.1908(7)
H7 H 0.3561 0.9155 0.0750
C8 C 0.27921(10) 0.1605(10) 0.5783(9)
H8 H 0.2622 0.2408 0.6920
H9 H 0.2739 -0.0344 0.5586
C9 C 0.46812(6) 0.8657(6) 0.4329(10)
H10 H 0.4685 0.9755 0.5861
H11 H 0.4687 0.9917 0.2905
C10 C 0.5000 0.6846(8) 0.4261(14)
H12 H 0.5000 0.5740 0.2733
H13 H 0.5000 0.5605 0.5699
N1C N 0.56478(5) 0.7032(4) 0.4240(8)
H1C H 0.5652 0.5852 0.5553
H2C H 0.5652 0.6025 0.2812
O1C O 0.72220(6) 0.2955(6) 0.3395(6)
O2C O 0.68669(6) 0.1937(6) 0.6786(6)
C1C C 0.59649(7) 0.8822(7) 0.4332(10)
H3C H 0.5946 1.0235 0.3039
H4C H 0.5974 0.9744 0.5956
C2C C 0.62995(7) 0.7231(7) 0.3941(7)
C3C C 0.64017(8) 0.5243(7) 0.5705(7)
H5C H 0.6262 0.4812 0.7085
C4C C 0.67133(8) 0.3961(7) 0.5330(7)
C5C C 0.69232(8) 0.4566(7) 0.3301(7)
C6C C 0.68309(8) 0.6472(8) 0.1541(7)
H6C H 0.6973 0.6862 0.0162
C7C C 0.65100(8) 0.7826(8) 0.1908(7)
H7C H 0.6439 0.9155 0.0750
C8C C 0.72079(10) 0.1605(10) 0.5783(9)
H8C H 0.7378 0.2408 0.6920
H9C H 0.7261 -0.0344 0.5586
C9C C 0.53188(6) 0.8657(6) 0.4329(10)
H10C H 0.5315 0.9755 0.5861
H11C H 0.5313 0.9917 0.2905
loop_
_geom_bond_atom_site_label_1
_geom_bond_atom_site_label_2
_geom_bond_site_symmetry_1
_geom_bond_site_symmetry_2
N1 H1 1_555 1_555
H2 N1 1_555 1_555
O1 C5 1_555 1_555
O2 C4 1_555 1_555
C1 N1 1_555 1_555
H3 C1 1_555 1_555
H4 C1 1_555 1_555
C2 C1 1_555 1_555
C3 C2 1_555 1_555
H5 C3 1_555 1_555
C4 C3 1_555 1_555
C5 C4 1_555 1_555
C6 C5 1_555 1_555
H6 C6 1_555 1_555
C7 C2 1_555 1_555
H7 C7 1_555 1_555
C8 O1 1_555 1_555
H8 C8 1_555 1_555
H9 C8 1_555 1_555
C9 N1 1_555 1_555
H10 C9 1_555 1_555
H11 C9 1_555 1_555
C10 C9 1_555 1_555
H12 C10 1_555 1_555
H13 C10 1_555 1_555
N1C H1C 1_555 1_555
H2C N1C 1_555 1_555
O1C C5C 1_555 1_555
O2C C4C 1_555 1_555
C1C N1C 1_555 1_555
H3C C1C 1_555 1_555
H4C C1C 1_555 1_555
C2C C1C 1_555 1_555
C3C C2C 1_555 1_555
H5C C3C 1_555 1_555
C4C C3C 1_555 1_555
C5C C4C 1_555 1_555
C6C C5C 1_555 1_555
H6C C6C 1_555 1_555
C7C C2C 1_555 1_555
H7C C7C 1_555 1_555
C8C O1C 1_555 1_555
H8C C8C 1_555 1_555
H9C C8C 1_555 1_555
C9C C10 1_555 1_555
H10C C9C 1_555 1_555
H11C C9C 1_555 1_555
O2 C8 1_555 1_555
C6 C7 1_555 1_555
N1C C9C 1_555 1_555
O2C C8C 1_555 1_555
C6C C7C 1_555 1_555

#END
