
#######################################################################
#
#                 Cambridge Crystallographic Data Centre
#                                CCDC 
#
#######################################################################
#
# If this CIF has been generated from an entry in the Cambridge 
# Structural Database, then it will include bibliographic, chemical, 
# crystal, experimental, refinement or atomic coordinate data resulting 
# from the CCDC's data processing and validation procedures.
#
#######################################################################

data_METSUC
_chemical_formula_moiety         
'C42 H42 N28 O14,2(H12 B12 O1 2-),4(H2 O1),4(H3 O1 1+)'
_chemical_name_systematic        
'cucurbit(7)uril tetrakis(oxonium) hydroxy-closo-dodecaborate tetrahydrate'
_symmetry_cell_setting           monoclinic
_symmetry_space_group_name_H-M   'C 2/c'
_symmetry_Int_Tables_number      15
_space_group_name_Hall           '-C 2yn'
loop_
_symmetry_equiv_pos_site_id
_symmetry_equiv_pos_as_xyz
1 x,y,z
2 -x,y,1/2-z
3 1/2+x,1/2+y,z
4 1/2-x,1/2+y,1/2-z
5 -x,-y,-z
6 x,-y,1/2+z
7 1/2-x,1/2-y,-z
8 1/2+x,1/2-y,1/2+z
_cell_length_a                   23.0662(16)
_cell_length_b                   28.863(3)
_cell_length_c                   14.2661(10)
_cell_angle_alpha                90
_cell_angle_beta                 96.368(7)
_cell_angle_gamma                90
_cell_volume                     9439.19
_exptl_crystal_colour            yellow
_exptl_crystal_description       block
_cell_formula_units_Z            4
loop_
_atom_site_label
_atom_site_type_symbol
_atom_site_fract_x
_atom_site_fract_y
_atom_site_fract_z
B1 B 0.7255(7) 0.9722(10) 0.4555(18)
H1 H 0.7685 0.9618 0.4360
B2 B 0.7143(7) 0.9784(8) 0.5763(15)
H2 H 0.7481 0.9722 0.6356
B3 B 0.7143(7) 1.0276(8) 0.4993(12)
H3 H 0.7492 1.0537 0.5067
B4 B 0.6803(10) 1.0115(9) 0.3871(14)
H4 H 0.6933 1.0265 0.3217
B5 B 0.6587(7) 0.9545(8) 0.3922(14)
H5 H 0.6558 0.9321 0.3295
B6 B 0.6822(11) 0.9333(9) 0.5026(16)
H6 H 0.6963 0.8970 0.5118
B7 B 0.6416(9) 1.0422(8) 0.4668(15)
H7 H 0.6281 1.0785 0.4544
B8 B 0.6629(6) 1.0224(7) 0.5819(12)
H8 H 0.6635 1.0449 0.6441
B9 B 0.6432(9) 0.9639(10) 0.5820(17)
H9 H 0.6302 0.9473 0.6459
B10 B 0.6097(8) 0.9489(9) 0.4739(15)
H10 H 0.5748 0.9228 0.4671
B11 B 0.6091(7) 0.9989(7) 0.3991(14)
H11 H 0.5743 1.0063 0.3419
B12 B 0.5997(9) 1.0037(10) 0.5177(17)
O1 O 0.5424(5) 1.0113(6) 0.5499(10)
H12 H 0.5251 1.0317 0.5179
C1 C 0.0053(5) 0.3836(6) 0.8758(9)
H13 H 0.0054 0.4168 0.8658
H14 H 0.0086 0.3782 0.9433
C2 C 0.0948(6) 0.3358(7) 0.8934(15)
C3 C 0.0783(5) 0.3828(6) 0.7568(11)
H15 H 0.0804 0.4167 0.7578
C4 C 0.0855(6) 0.3386(7) 0.6192(14)
C5 C 0.1388(5) 0.3599(6) 0.7631(13)
H16 H 0.1697 0.3833 0.7680
C6 C 0.1968(6) 0.3117(6) 0.8863(12)
H17 H 0.2284 0.3329 0.8781
H18 H 0.1956 0.3071 0.9534
C7 C 0.1889(6) 0.3148(6) 0.6373(13)
H19 H 0.1800 0.3113 0.5696
H20 H 0.2210 0.3365 0.6486
C8 C 0.2420(7) 0.2628(6) 0.7671(13)
H21 H 0.2775 0.2818 0.7744
C9 C 0.2094(6) 0.2286(9) 0.8953(17)
C10 C 0.2558(6) 0.2119(7) 0.7644(13)
H22 H 0.2978 0.2068 0.7639
C11 C 0.1987(7) 0.2321(9) 0.6242(14)
C12 C 0.2317(6) 0.1519(7) 0.6321(12)
H23 H 0.2730 0.1445 0.6413
H24 H 0.2203 0.1547 0.5648
C13 C 0.2465(6) 0.1472(7) 0.8808(11)
H25 H 0.2861 0.1386 0.8708
H26 H 0.2441 0.1465 0.9482
C14 C 0.2176(5) 0.0886(6) 0.7534(11)
H27 H 0.2582 0.0784 0.7552
C15 C 0.1513(6) 0.0920(8) 0.6160(13)
C16 C 0.1754(5) 0.0474(6) 0.7524(10)
H28 H 0.1959 0.0177 0.7514
C17 C 0.1685(6) 0.0916(6) 0.8860(14)
C18 C 0.1158(6) 0.0166(7) 0.8770(12)
H29 H 0.1180 0.0210 0.9447
H30 H 0.1338 -0.0129 0.8655
C19 C 0.0336(6) -0.0063(6) 0.7488(15)
H31 H 0.0490 -0.0378 0.7448
C20 C 0.0941(6) 0.0228(6) 0.6245(11)
H32 H 0.0855 0.0307 0.5583
H33 H 0.1115 -0.0079 0.6278
C21 C 0.0124(6) 0.0286(6) 0.8839(10)
N1 N 0.0552(4) 0.3640(5) 0.8391(9)
N2 N 0.0510(5) 0.3646(5) 0.6670(9)
N3 N 0.1384(4) 0.3338(5) 0.6756(10)
N4 N 0.1428(5) 0.3317(5) 0.8464(10)
N5 N 0.2079(5) 0.2689(6) 0.8443(12)
N6 N 0.2062(5) 0.2720(6) 0.6765(10)
N7 N 0.2227(5) 0.1948(6) 0.6756(10)
N8 N 0.2363(5) 0.1941(6) 0.8479(10)
N9 N 0.1992(5) 0.1140(5) 0.6687(8)
N10 N 0.2077(5) 0.1132(5) 0.8372(8)
N11 N 0.1474(5) 0.0530(5) 0.8368(8)
N12 N 0.1355(5) 0.0546(6) 0.6666(9)
N13 N 0.0539(5) 0.0156(5) 0.8370(9)
N14 N -0.0415(4) 0.0209(5) 0.8351(9)
O2 O 0.0166(4) 0.0489(4) 0.9605(8)
O3 O 0.1525(4) 0.1036(5) 0.9649(8)
O4 O 0.1899(5) 0.2210(5) 0.9716(9)
O5 O 0.0886(4) 0.3175(5) 0.9696(8)
O6 O 0.0739(4) 0.3206(4) 0.5392(8)
O7 O 0.1736(5) 0.2280(5) 0.5436(9)
O8 O 0.1306(4) 0.1072(4) 0.5354(8)
C1A C -0.0053(5) 0.3836(6) 0.6242(9)
H13A H -0.0054 0.4168 0.6342
H14A H -0.0086 0.3782 0.5567
C2A C -0.0948(6) 0.3358(7) 0.6066(15)
C3A C -0.0783(5) 0.3828(6) 0.7432(11)
H15A H -0.0804 0.4167 0.7422
C4A C -0.0855(6) 0.3386(7) 0.8808(14)
C5A C -0.1388(5) 0.3599(6) 0.7369(13)
H16A H -0.1697 0.3833 0.7320
C6A C -0.1968(6) 0.3117(6) 0.6137(12)
H17A H -0.2284 0.3329 0.6219
H18A H -0.1956 0.3071 0.5466
C7A C -0.1889(6) 0.3148(6) 0.8627(13)
H19A H -0.1800 0.3113 0.9304
H20A H -0.2210 0.3365 0.8514
C8A C -0.2420(7) 0.2628(6) 0.7329(13)
H21A H -0.2775 0.2818 0.7256
C9A C -0.2094(6) 0.2286(9) 0.6047(17)
C10A C -0.2558(6) 0.2119(7) 0.7356(13)
H22A H -0.2978 0.2068 0.7361
C11A C -0.1987(7) 0.2321(9) 0.8758(14)
C12A C -0.2317(6) 0.1519(7) 0.8679(12)
H23A H -0.2730 0.1445 0.8587
H24A H -0.2203 0.1547 0.9352
C13A C -0.2465(6) 0.1472(7) 0.6192(11)
H25A H -0.2861 0.1386 0.6292
H26A H -0.2441 0.1465 0.5518
C14A C -0.2176(5) 0.0886(6) 0.7466(11)
H27A H -0.2582 0.0784 0.7448
C15A C -0.1513(6) 0.0920(8) 0.8840(13)
C16A C -0.1754(5) 0.0474(6) 0.7476(10)
H28A H -0.1959 0.0177 0.7486
C17A C -0.1685(6) 0.0916(6) 0.6140(14)
C18A C -0.1158(6) 0.0166(7) 0.6230(12)
H29A H -0.1180 0.0210 0.5553
H30A H -0.1338 -0.0129 0.6345
C19A C -0.0336(6) -0.0063(6) 0.7512(15)
H31A H -0.0490 -0.0378 0.7552
C20A C -0.0941(6) 0.0228(6) 0.8755(11)
H32A H -0.0855 0.0307 0.9417
H33A H -0.1115 -0.0079 0.8722
C21A C -0.0124(6) 0.0286(6) 0.6161(10)
N1A N -0.0552(4) 0.3640(5) 0.6609(9)
N2A N -0.0510(5) 0.3646(5) 0.8330(9)
N3A N -0.1384(4) 0.3338(5) 0.8244(10)
N4A N -0.1428(5) 0.3317(5) 0.6536(10)
N5A N -0.2079(5) 0.2689(6) 0.6557(12)
N6A N -0.2062(5) 0.2720(6) 0.8235(10)
N7A N -0.2227(5) 0.1948(6) 0.8244(10)
N8A N -0.2363(5) 0.1941(6) 0.6521(10)
N9A N -0.1992(5) 0.1140(5) 0.8313(8)
N10A N -0.2077(5) 0.1132(5) 0.6628(8)
N11A N -0.1474(5) 0.0530(5) 0.6632(8)
N12A N -0.1355(5) 0.0546(6) 0.8334(9)
N13A N -0.0539(5) 0.0156(5) 0.6630(9)
N14A N 0.0415(4) 0.0209(5) 0.6649(9)
O2A O -0.0166(4) 0.0489(4) 0.5395(8)
O3A O -0.1525(4) 0.1036(5) 0.5351(8)
O4A O -0.1899(5) 0.2210(5) 0.5284(9)
O5A O -0.0886(4) 0.3175(5) 0.5304(8)
O6A O -0.0739(4) 0.3206(4) 0.9608(8)
O7A O -0.1736(5) 0.2280(5) 0.9564(9)
O8A O -0.1306(4) 0.1072(4) 0.9646(8)
O9 O 0.5473(4) 0.0661(4) 0.6991(7)
O10 O 0.7913(8) 0.0795(8) 0.3406(13)
O11 O 0.6019(11) 0.1485(10) 0.6580(18)
O12 O 0.9657(16) 0.9014(13) 0.617(2)
O13 O 0.9875(13) 0.2464(13) 0.024(2)
O14 O 0.8190(14) 0.8935(12) 0.662(2)
O15 O 0.9392(14) 0.1060(13) 0.394(2)
O16 O 0.8604(15) 0.1731(14) 0.395(3)
O17 O 0.3456(15) 0.2415(16) 0.625(3)
O18 O 0.0788(19) 0.2067(18) 0.763(3)
O19 O 0.1061(16) 0.3305(13) 0.356(2)
O20 O 0.9506(15) 0.1784(16) 0.934(3)
loop_
_geom_bond_atom_site_label_1
_geom_bond_atom_site_label_2
_geom_bond_site_symmetry_1
_geom_bond_site_symmetry_2
B1 H1 1_555 1_555
B2 B1 1_555 1_555
H2 B2 1_555 1_555
B3 B1 1_555 1_555
H3 B3 1_555 1_555
B4 B1 1_555 1_555
H4 B4 1_555 1_555
B5 B1 1_555 1_555
H5 B5 1_555 1_555
B6 B1 1_555 1_555
H6 B6 1_555 1_555
B7 B3 1_555 1_555
H7 B7 1_555 1_555
B8 B2 1_555 1_555
H8 B8 1_555 1_555
B9 B2 1_555 1_555
H9 B9 1_555 1_555
B10 B5 1_555 1_555
H10 B10 1_555 1_555
B11 B4 1_555 1_555
H11 B11 1_555 1_555
B12 B7 1_555 1_555
O1 B12 1_555 1_555
H12 O1 1_555 1_555
C1 H13 1_555 1_555
H14 C1 1_555 1_555
C2 N1 1_555 1_555
C3 H15 1_555 1_555
C4 N2 1_555 1_555
C5 C3 1_555 1_555
H16 C5 1_555 1_555
C6 H17 1_555 1_555
H18 C6 1_555 1_555
C7 H19 1_555 1_555
H20 C7 1_555 1_555
C8 H21 1_555 1_555
C9 N5 1_555 1_555
C10 C8 1_555 1_555
H22 C10 1_555 1_555
C11 N6 1_555 1_555
C12 H23 1_555 1_555
H24 C12 1_555 1_555
C13 H25 1_555 1_555
H26 C13 1_555 1_555
C14 H27 1_555 1_555
C15 N9 1_555 1_555
C16 C14 1_555 1_555
H28 C16 1_555 1_555
C17 N10 1_555 1_555
C18 H29 1_555 1_555
H30 C18 1_555 1_555
C19 H31 1_555 1_555
C20 H32 1_555 1_555
H33 C20 1_555 1_555
C21 N13 1_555 1_555
N1 C1 1_555 1_555
N2 C3 1_555 1_555
N3 C4 1_555 1_555
N4 C2 1_555 1_555
N5 C6 1_555 1_555
N6 C7 1_555 1_555
N7 C10 1_555 1_555
N8 C9 1_555 1_555
N9 C12 1_555 1_555
N10 C13 1_555 1_555
N11 C16 1_555 1_555
N12 C15 1_555 1_555
N13 C18 1_555 1_555
N14 C21 1_555 1_555
O2 C21 1_555 1_555
O3 C17 1_555 1_555
O4 C9 1_555 1_555
O5 C2 1_555 1_555
O6 C4 1_555 1_555
O7 C11 1_555 1_555
O8 C15 1_555 1_555
C1A N2 1_555 1_555
H13A C1A 1_555 1_555
H14A C1A 1_555 1_555
C2A N1A 1_555 1_555
C3A H15A 1_555 1_555
C4A N2A 1_555 1_555
C5A C3A 1_555 1_555
H16A C5A 1_555 1_555
C6A H17A 1_555 1_555
H18A C6A 1_555 1_555
C7A H19A 1_555 1_555
H20A C7A 1_555 1_555
C8A H21A 1_555 1_555
C9A N5A 1_555 1_555
C10A C8A 1_555 1_555
H22A C10A 1_555 1_555
C11A N6A 1_555 1_555
C12A H23A 1_555 1_555
H24A C12A 1_555 1_555
C13A H25A 1_555 1_555
H26A C13A 1_555 1_555
C14A H27A 1_555 1_555
C15A N9A 1_555 1_555
C16A C14A 1_555 1_555
H28A C16A 1_555 1_555
C17A N10A 1_555 1_555
C18A H29A 1_555 1_555
H30A C18A 1_555 1_555
C19A C19 1_555 1_555
H31A C19A 1_555 1_555
C20A N14 1_555 1_555
H32A C20A 1_555 1_555
H33A C20A 1_555 1_555
C21A N13A 1_555 1_555
N1A C1A 1_555 1_555
N2A C1 1_555 1_555
N3A C4A 1_555 1_555
N4A C2A 1_555 1_555
N5A C6A 1_555 1_555
N6A C7A 1_555 1_555
N7A C10A 1_555 1_555
N8A C9A 1_555 1_555
N9A C12A 1_555 1_555
N10A C13A 1_555 1_555
N11A C16A 1_555 1_555
N12A C15A 1_555 1_555
N13A C18A 1_555 1_555
N14A C19 1_555 1_555
O2A C21A 1_555 1_555
O3A C17A 1_555 1_555
O4A C9A 1_555 1_555
O5A C2A 1_555 1_555
O6A C4A 1_555 1_555
O7A C11A 1_555 1_555
O8A C15A 1_555 1_555
B2 B3 1_555 1_555
B2 B6 1_555 1_555
B3 B4 1_555 1_555
B3 B8 1_555 1_555
B4 B5 1_555 1_555
B4 B7 1_555 1_555
B5 B6 1_555 1_555
B5 B11 1_555 1_555
B6 B9 1_555 1_555
B6 B10 1_555 1_555
B7 B8 1_555 1_555
B7 B11 1_555 1_555
B8 B9 1_555 1_555
B8 B12 1_555 1_555
B9 B10 1_555 1_555
B9 B12 1_555 1_555
B10 B11 1_555 1_555
B10 B12 1_555 1_555
B11 B12 1_555 1_555
C3 N1 1_555 1_555
C5 N3 1_555 1_555
C5 N4 1_555 1_555
C6 N4 1_555 1_555
C7 N3 1_555 1_555
C8 N5 1_555 1_555
C8 N6 1_555 1_555
C10 N8 1_555 1_555
C11 N7 1_555 1_555
C12 N7 1_555 1_555
C13 N8 1_555 1_555
C14 N9 1_555 1_555
C14 N10 1_555 1_555
C16 N12 1_555 1_555
C17 N11 1_555 1_555
C18 N11 1_555 1_555
C19 N13 1_555 1_555
C20 N12 1_555 1_555
C20 N14A 1_555 1_555
N14 C19A 1_555 1_555
C3A N1A 1_555 1_555
C3A N2A 1_555 1_555
C5A N3A 1_555 1_555
C5A N4A 1_555 1_555
C6A N4A 1_555 1_555
C7A N3A 1_555 1_555
C8A N5A 1_555 1_555
C8A N6A 1_555 1_555
C10A N8A 1_555 1_555
C11A N7A 1_555 1_555
C12A N7A 1_555 1_555
C13A N8A 1_555 1_555
C14A N9A 1_555 1_555
C14A N10A 1_555 1_555
C16A N12A 1_555 1_555
C17A N11A 1_555 1_555
C18A N11A 1_555 1_555
C19A N13A 1_555 1_555
C20A N12A 1_555 1_555
C21A N14A 1_555 1_555

#END
