
#######################################################################
#
#                 Cambridge Crystallographic Data Centre
#                                CCDC 
#
#######################################################################
#
# If this CIF has been generated from an entry in the Cambridge 
# Structural Database, then it will include bibliographic, chemical, 
# crystal, experimental, refinement or atomic coordinate data resulting 
# from the CCDC's data processing and validation procedures.
#
#######################################################################

data_METSOW
_chemical_formula_moiety         
'C42 H42 N28 O14,B12 Cl12 2-,2(Na1 1+),6(H2 O1)'
_chemical_name_systematic        
'cucurbit(7)uril di-sodium dodecachloro-closo-dodecaborate hexahydrate'
_symmetry_cell_setting           monoclinic
_symmetry_space_group_name_H-M   'C 2/c'
_symmetry_Int_Tables_number      15
_space_group_name_Hall           '-C 2yn'
loop_
_symmetry_equiv_pos_site_id
_symmetry_equiv_pos_as_xyz
1 x,y,z
2 -x,y,1/2-z
3 1/2+x,1/2+y,z
4 1/2-x,1/2+y,1/2-z
5 -x,-y,-z
6 x,-y,1/2+z
7 1/2-x,1/2-y,-z
8 1/2+x,1/2-y,1/2+z
_cell_length_a                   18.2093(6)
_cell_length_b                   17.9662(5)
_cell_length_c                   27.6070(9)
_cell_angle_alpha                90
_cell_angle_beta                 90.792(2)
_cell_angle_gamma                90
_cell_volume                     9030.82
_exptl_crystal_colour            colorless
_exptl_crystal_description       block
_cell_formula_units_Z            4
loop_
_atom_site_label
_atom_site_type_symbol
_atom_site_fract_x
_atom_site_fract_y
_atom_site_fract_z
B1 B 0.0254(5) 0.5542(5) 0.4525(4)
B2 B 0.0859(5) 0.5345(6) 0.5023(4)
B3 B -0.0087(5) 0.4077(5) 0.4887(4)
B4 B -0.0333(5) 0.4762(6) 0.4446(4)
B5 B 0.0653(5) 0.4441(6) 0.5242(4)
B6 B 0.0605(5) 0.4623(5) 0.4608(4)
Cl1 Cl 0.12511(12) 0.42156(13) 0.42004(8)
Cl2 Cl 0.13611(13) 0.38521(14) 0.54936(9)
Cl3 Cl -0.07101(14) 0.45498(14) 0.38576(9)
Cl4 Cl -0.01806(14) 0.30927(12) 0.47842(9)
Cl5 Cl 0.17741(13) 0.57226(15) 0.50641(9)
Cl6 Cl 0.05280(13) 0.61100(13) 0.40275(8)
B1D B -0.0254(5) 0.4458(5) 0.5475(4)
B2D B -0.0859(5) 0.4655(6) 0.4977(4)
B3D B 0.0087(5) 0.5923(5) 0.5113(4)
B4D B 0.0333(5) 0.5238(6) 0.5554(4)
B5D B -0.0653(5) 0.5559(6) 0.4758(4)
B6D B -0.0605(5) 0.5377(5) 0.5392(4)
Cl1D Cl -0.12511(12) 0.57844(13) 0.57996(8)
Cl2D Cl -0.13611(13) 0.61479(14) 0.45064(9)
Cl3D Cl 0.07101(14) 0.54502(14) 0.61424(9)
Cl4D Cl 0.01806(14) 0.69073(12) 0.52158(9)
Cl5D Cl -0.17741(13) 0.42774(15) 0.49359(9)
Cl6D Cl -0.05280(13) 0.38900(13) 0.59725(8)
C1 C 0.7863(6) -0.1818(7) 0.3448(4)
H1 H 0.769199 -0.218531 0.368935
H2 H 0.746501 -0.175659 0.320321
C2 C 0.8461(5) 0.2918(6) 0.2916(4)
H3 H 0.801803 0.286230 0.270654
H4 H 0.843411 0.341138 0.307377
C3 C 0.9452(6) -0.1879(6) 0.4207(4)
H5 H 0.993138 -0.182851 0.437735
H6 H 0.914583 -0.222261 0.439878
C4 C 0.9154(6) 0.0768(6) 0.4554(4)
H7 H 0.964771 0.073456 0.470681
H8 H 0.879984 0.089169 0.481129
C5 C 0.9774(6) 0.1646(6) 0.4010(4)
C6 C 0.7702(5) -0.0457(7) 0.3528(4)
C7 C 0.9459(6) -0.2936(6) 0.3039(4)
H9 H 0.943479 -0.349228 0.303949
C8 C 0.8836(5) 0.2416(6) 0.3736(4)
H10 H 0.875211 0.291062 0.389225
C9 C 1.0247(6) -0.2264(5) 0.3542(4)
C10 C 0.7521(5) 0.0817(7) 0.3825(4)
H11 H 0.730091 0.094551 0.413989
H12 H 0.712163 0.080682 0.357831
C11 C 0.9015(6) -0.2594(6) 0.3462(4)
H13 H 0.876389 -0.298440 0.365726
C12 C 0.9177(6) -0.2935(6) 0.2125(4)
H14 H 0.920555 -0.348421 0.215019
H15 H 0.872978 -0.281119 0.193408
C13 C 0.8552(5) -0.2155(5) 0.2725(4)
C14 C 1.0163(6) 0.2758(6) 0.3571(4)
H16 H 1.003065 0.326135 0.368819
H17 H 1.063578 0.261844 0.372697
C15 C 0.8309(5) -0.1038(7) 0.4170(4)
H18 H 0.805151 -0.135622 0.441179
C16 C 1.0922(5) 0.2646(5) 0.2849(4)
C17 C 0.9784(5) 0.3233(5) 0.2746(4)
H19 H 0.972041 0.374836 0.287649
C18 C 0.7986(5) 0.1758(5) 0.3263(4)
C19 C 0.8513(5) 0.1772(6) 0.4040(4)
H20 H 0.822834 0.196491 0.432116
C20 C 0.9458(5) -0.0511(6) 0.4322(3)
C21 C 0.8216(5) -0.0197(6) 0.4285(4)
H21 H 0.792086 -0.011649 0.458322
N1 N 0.7846(4) 0.0084(6) 0.3860(3)
N2 N 0.7979(4) -0.1105(6) 0.3693(3)
N3 N 0.8449(4) 0.2356(4) 0.3281(3)
N4 N 0.9092(4) 0.2898(5) 0.2619(3)
N5 N 0.9152(5) 0.1360(5) 0.4200(3)
N6 N 0.9603(4) 0.2236(5) 0.3721(3)
N7 N 1.0257(5) 0.2787(5) 0.3057(3)
N8 N 0.8962(4) 0.0053(5) 0.4349(3)
N9 N 0.9809(5) -0.2671(5) 0.1869(3)
N10 N 0.9093(4) -0.1146(5) 0.4192(3)
N11 N 0.8499(4) -0.2118(5) 0.3212(3)
N12 N 0.9571(5) -0.2202(5) 0.3742(3)
N13 N 0.9105(5) -0.2623(4) 0.2616(3)
N14 N 0.8044(4) 0.1387(5) 0.3697(3)
O1 O 1.1440(4) 0.2345(4) 0.3052(3)
O2 O 1.0402(4) 0.1404(4) 0.4096(3)
O3 O 0.7362(4) -0.0370(5) 0.3143(3)
O4 O 0.7591(3) 0.1579(4) 0.2923(2)
O5 O 1.0822(4) -0.1988(4) 0.3713(3)
O6 O 0.8165(3) -0.1815(4) 0.2427(3)
O7 O 1.0122(3) -0.0460(4) 0.4391(2)
C1A C 1.2137(6) -0.1818(7) 0.1552(4)
H1A H 1.230801 -0.218531 0.131065
H2A H 1.253499 -0.175659 0.179679
C2A C 1.1539(5) 0.2918(6) 0.2084(4)
H3A H 1.198197 0.286230 0.229346
H4A H 1.156589 0.341138 0.192623
C3A C 1.0548(6) -0.1879(6) 0.0793(4)
H5A H 1.006862 -0.182851 0.062265
H6A H 1.085417 -0.222261 0.060122
C4A C 1.0846(6) 0.0768(6) 0.0446(4)
H7A H 1.035229 0.073456 0.029319
H8A H 1.120016 0.089169 0.018871
C5A C 1.0226(6) 0.1646(6) 0.0990(4)
C6A C 1.2298(5) -0.0457(7) 0.1472(4)
C7A C 1.0541(6) -0.2936(6) 0.1961(4)
H9A H 1.056521 -0.349228 0.196051
C8A C 1.1164(5) 0.2416(6) 0.1264(4)
H10A H 1.124789 0.291062 0.110775
C9A C 0.9753(6) -0.2264(5) 0.1458(4)
C10A C 1.2479(5) 0.0817(7) 0.1175(4)
H11A H 1.269909 0.094551 0.086011
H12A H 1.287837 0.080682 0.142169
C11A C 1.0985(6) -0.2594(6) 0.1538(4)
H13A H 1.123611 -0.298440 0.134274
C12A C 1.0823(6) -0.2935(6) 0.2875(4)
H14A H 1.079445 -0.348421 0.284981
H15A H 1.127022 -0.281119 0.306592
C13A C 1.1448(5) -0.2155(5) 0.2275(4)
C14A C 0.9837(6) 0.2758(6) 0.1429(4)
H16A H 0.996935 0.326135 0.131181
H17A H 0.936422 0.261844 0.127303
C15A C 1.1691(5) -0.1038(7) 0.0830(4)
H18A H 1.194849 -0.135622 0.058821
C16A C 0.9078(5) 0.2646(5) 0.2151(4)
C17A C 1.0216(5) 0.3233(5) 0.2254(4)
H19A H 1.027959 0.374836 0.212351
C18A C 1.2014(5) 0.1758(5) 0.1737(4)
C19A C 1.1487(5) 0.1772(6) 0.0960(4)
H20A H 1.177166 0.196491 0.067884
C20A C 1.0542(5) -0.0511(6) 0.0678(3)
C21A C 1.1784(5) -0.0197(6) 0.0715(4)
H21A H 1.207914 -0.011649 0.041678
N1A N 1.2154(4) 0.0084(6) 0.1140(3)
N2A N 1.2021(4) -0.1105(6) 0.1307(3)
N3A N 1.1551(4) 0.2356(4) 0.1719(3)
N4A N 1.0908(4) 0.2898(5) 0.2381(3)
N5A N 1.0848(5) 0.1360(5) 0.0800(3)
N6A N 1.0397(4) 0.2236(5) 0.1279(3)
N7A N 0.9743(5) 0.2787(5) 0.1943(3)
N8A N 1.1038(4) 0.0053(5) 0.0651(3)
N9A N 1.0191(5) -0.2671(5) 0.3131(3)
N10A N 1.0907(4) -0.1146(5) 0.0808(3)
N11A N 1.1501(4) -0.2118(5) 0.1788(3)
N12A N 1.0429(5) -0.2202(5) 0.1258(3)
N13A N 1.0895(5) -0.2623(4) 0.2384(3)
N14A N 1.1956(4) 0.1387(5) 0.1303(3)
O1A O 0.8560(4) 0.2345(4) 0.1948(3)
O2A O 0.9598(4) 0.1404(4) 0.0904(3)
O3A O 1.2638(4) -0.0370(5) 0.1857(3)
O4A O 1.2409(3) 0.1579(4) 0.2077(2)
O5A O 0.9178(4) -0.1988(4) 0.1287(3)
O6A O 1.1835(3) -0.1815(4) 0.2573(3)
O7A O 0.9878(3) -0.0460(4) 0.0609(2)
Na1 Na 1.1333(8) -0.0902(9) 0.4049(5)
Na2 Na 0.7115(10) 0.1207(9) 0.1939(6)
O8 O 1.1562(6) 0.0229(8) 0.4533(5)
O9 O 1.1660(10) -0.1901(12) 0.4621(7)
O10 O 1.2268(15) -0.1080(18) 0.3509(11)
O11 O 1.0772(13) 0.0056(15) 0.3450(8)
O12 O 0.6902(14) -0.0173(14) 0.2122(8)
O13 O 1.2251(13) -0.2042(16) 0.4067(10)
O14 O 0.7995(10) 0.1432(10) 0.1094(7)
Na3 Na 0.5820(8) -0.0402(10) 0.3035(7)
Na4 Na 0.7852(9) 0.2592(9) 0.0376(7)
O15 O 0.8671(16) 0.9550(19) 0.7501(10)
O16? O 0.4728(17) 0.0295(12) 0.2764(10)
loop_
_geom_bond_atom_site_label_1
_geom_bond_atom_site_label_2
_geom_bond_site_symmetry_1
_geom_bond_site_symmetry_2
B1 B2 1_555 1_555
B2 B5 1_555 1_555
B3 B4 1_555 1_555
B4 B1 1_555 1_555
B5 B3 1_555 1_555
B6 B1 1_555 1_555
Cl1 B6 1_555 1_555
Cl2 B5 1_555 1_555
Cl3 B4 1_555 1_555
Cl4 B3 1_555 1_555
Cl5 B2 1_555 1_555
Cl6 B1 1_555 1_555
C1 H1 1_555 1_555
H2 C1 1_555 1_555
C2 H3 1_555 1_555
H4 C2 1_555 1_555
C3 H5 1_555 1_555
H6 C3 1_555 1_555
C4 H7 1_555 1_555
H8 C4 1_555 1_555
C5 N5 1_555 1_555
C6 N1 1_555 1_555
C7 H9 1_555 1_555
C8 H10 1_555 1_555
C9 N12 1_555 1_555
C10 H11 1_555 1_555
H12 C10 1_555 1_555
C11 C7 1_555 1_555
H13 C11 1_555 1_555
C12 H14 1_555 1_555
H15 C12 1_555 1_555
C13 N11 1_555 1_555
C14 H16 1_555 1_555
H17 C14 1_555 1_555
C15 H18 1_555 1_555
C16 N7 1_555 1_555
C17 H19 1_555 1_555
C18 N3 1_555 1_555
C19 C8 1_555 1_555
H20 C19 1_555 1_555
C20 N8 1_555 1_555
C21 C15 1_555 1_555
H21 C21 1_555 1_555
N1 C10 1_555 1_555
N2 C1 1_555 1_555
N3 C2 1_555 1_555
N4 C2 1_555 1_555
N5 C4 1_555 1_555
N6 C5 1_555 1_555
N7 C14 1_555 1_555
N8 C4 1_555 1_555
N9 C12 1_555 1_555
N10 C3 1_555 1_555
N11 C1 1_555 1_555
N12 C3 1_555 1_555
N13 C7 1_555 1_555
N14 C10 1_555 1_555
O1 C16 1_555 1_555
O2 C5 1_555 1_555
O3 C6 1_555 1_555
O4 C18 1_555 1_555
O5 C9 1_555 1_555
O6 C13 1_555 1_555
O7 C20 1_555 1_555
B1D B3 1_555 1_555
B2D B3 1_555 1_555
B3D B1 1_555 1_555
B4D B2 1_555 1_555
B5D B1 1_555 1_555
B6D B1D 1_555 1_555
Cl1D B6D 1_555 1_555
Cl2D B5D 1_555 1_555
Cl3D B4D 1_555 1_555
Cl4D B3D 1_555 1_555
Cl5D B2D 1_555 1_555
Cl6D B1D 1_555 1_555
C1A H1A 1_555 1_555
H2A C1A 1_555 1_555
C2A H3A 1_555 1_555
H4A C2A 1_555 1_555
C3A H5A 1_555 1_555
H6A C3A 1_555 1_555
C4A H7A 1_555 1_555
H8A C4A 1_555 1_555
C5A N5A 1_555 1_555
C6A N1A 1_555 1_555
C7A N9 1_555 1_555
H9A C7A 1_555 1_555
C8A H10A 1_555 1_555
C9A N9 1_555 1_555
C10A H11A 1_555 1_555
H12A C10A 1_555 1_555
C11A C7A 1_555 1_555
H13A C11A 1_555 1_555
C12A H14A 1_555 1_555
H15A C12A 1_555 1_555
C13A N11A 1_555 1_555
C14A H16A 1_555 1_555
H17A C14A 1_555 1_555
C15A H18A 1_555 1_555
C16A N4 1_555 1_555
C17A C17 1_555 1_555
H19A C17A 1_555 1_555
C18A N3A 1_555 1_555
C19A C8A 1_555 1_555
H20A C19A 1_555 1_555
C20A N8A 1_555 1_555
C21A C15A 1_555 1_555
H21A C21A 1_555 1_555
N1A C10A 1_555 1_555
N2A C1A 1_555 1_555
N3A C2A 1_555 1_555
N4A C16 1_555 1_555
N5A C4A 1_555 1_555
N6A C5A 1_555 1_555
N7A C14A 1_555 1_555
N8A C4A 1_555 1_555
N9A C7 1_555 1_555
N10A C3A 1_555 1_555
N11A C1A 1_555 1_555
N12A C3A 1_555 1_555
N13A C7A 1_555 1_555
N14A C10A 1_555 1_555
O1A C16A 1_555 1_555
O2A C5A 1_555 1_555
O3A C6A 1_555 1_555
O4A C18A 1_555 1_555
O5A C9A 1_555 1_555
O6A C13A 1_555 1_555
O7A C20A 1_555 1_555
B2 B6 1_555 1_555
B2 B3D 1_555 1_555
B3 B6 1_555 1_555
B4 B6 1_555 1_555
B4 B2D 1_555 1_555
B4 B5D 1_555 1_555
B5 B6 1_555 1_555
B5 B1D 1_555 1_555
B5 B4D 1_555 1_555
C6 N2 1_555 1_555
C8 N3 1_555 1_555
C8 N6 1_555 1_555
C9 N9A 1_555 1_555
C11 N11 1_555 1_555
C11 N12 1_555 1_555
C12 N13 1_555 1_555
C13 N13 1_555 1_555
C14 N6 1_555 1_555
C15 N2 1_555 1_555
C15 N10 1_555 1_555
C17 N4 1_555 1_555
C17 N7 1_555 1_555
C18 N14 1_555 1_555
C19 N5 1_555 1_555
C19 N14 1_555 1_555
C20 N10 1_555 1_555
C21 N1 1_555 1_555
C21 N8 1_555 1_555
B1D B2D 1_555 1_555
B1D B4D 1_555 1_555
B2D B5D 1_555 1_555
B2D B6D 1_555 1_555
B3D B4D 1_555 1_555
B3D B5D 1_555 1_555
B3D B6D 1_555 1_555
B4D B6D 1_555 1_555
B5D B6D 1_555 1_555
C2A N4A 1_555 1_555
C6A N2A 1_555 1_555
C8A N3A 1_555 1_555
C8A N6A 1_555 1_555
C9A N12A 1_555 1_555
C11A N11A 1_555 1_555
C11A N12A 1_555 1_555
C12A N9A 1_555 1_555
C12A N13A 1_555 1_555
C13A N13A 1_555 1_555
C14A N6A 1_555 1_555
C15A N2A 1_555 1_555
C15A N10A 1_555 1_555
C16A N7A 1_555 1_555
C17A N4A 1_555 1_555
C17A N7A 1_555 1_555
C18A N14A 1_555 1_555
C19A N5A 1_555 1_555
C19A N14A 1_555 1_555
C20A N10A 1_555 1_555
C21A N1A 1_555 1_555
C21A N8A 1_555 1_555

#END
