
#######################################################################
#
#                 Cambridge Crystallographic Data Centre
#                                CCDC 
#
#######################################################################
#
# If this CIF has been generated from an entry in the Cambridge 
# Structural Database, then it will include bibliographic, chemical, 
# crystal, experimental, refinement or atomic coordinate data resulting 
# from the CCDC's data processing and validation procedures.
#
#######################################################################

data_METSIQ
_chemical_formula_moiety         
'3(C36 H36 N24 O12),2(H12 B12 2-),3(C3 H7 N1 O1),2(C2 H8 N1 1+),16(H2 O1),2(H3 O1 1+)'
_chemical_name_systematic        
'tris(cucurbit(6)uril) bis(oxonium) bis(dimethylammonium) bis(closo-dodecaborate) dimethylformamide solvate hexadecahydrate'
_symmetry_cell_setting           triclinic
_symmetry_space_group_name_H-M   'P -1'
_symmetry_Int_Tables_number      2
_space_group_name_Hall           '-P 1'
loop_
_symmetry_equiv_pos_site_id
_symmetry_equiv_pos_as_xyz
1 x,y,z
2 -x,-y,-z
_cell_length_a                   12.6040(6)
_cell_length_b                   14.9311(6)
_cell_length_c                   26.8894(14)
_cell_angle_alpha                86.075(4)
_cell_angle_beta                 79.443(4)
_cell_angle_gamma                87.306(3)
_cell_volume                     4959.97
_exptl_crystal_colour            colorless
_exptl_crystal_description       BLOCK
_cell_formula_units_Z            1
loop_
_atom_site_label
_atom_site_type_symbol
_atom_site_fract_x
_atom_site_fract_y
_atom_site_fract_z
B1 B 0.2482(9) 0.1718(7) 0.1389(5)
H1 H 0.2202 0.1226 0.1159
B2 B 0.3264(13) 0.1411(8) 0.1844(6)
H2 H 0.3496 0.0702 0.1918
B3 B 0.2940(16) 0.2169(11) 0.2337(6)
H3 H 0.2972 0.1958 0.2735
B4 B 0.1959(11) 0.2938(11) 0.2174(7)
H4 H 0.1323 0.3244 0.2454
B5 B 0.1691(11) 0.2667(10) 0.1584(7)
H5 H 0.0895 0.2803 0.1476
B6 B 0.1934(12) 0.1808(10) 0.2027(6)
H6 H 0.1294 0.1368 0.2226
B7 B 0.3852(10) 0.2019(8) 0.1309(5)
H7 H 0.4481 0.1713 0.1025
B8 B 0.2882(13) 0.2789(9) 0.1136(5)
H8 H 0.2864 0.2993 0.0737
B9 B 0.2572(12) 0.3575(8) 0.1609(6)
H9 H 0.2354 0.4284 0.1526
B10 B 0.3312(9) 0.3239(7) 0.2087(4)
H10 H 0.3570 0.3734 0.2321
B11 B 0.4130(11) 0.2292(8) 0.1888(6)
H11 H 0.4933 0.2164 0.1990
B12 B 0.3892(10) 0.3145(8) 0.1449(5)
H12 H 0.4543 0.3583 0.1260
C1 C 1.0620(7) 0.8316(6) 0.0470(3)
C2 C 1.1957(7) 0.7686(6) 0.0906(3)
H13 H 1.2704 0.7592 0.0732
C3 C 1.1444(7) 0.7720(6) 0.1786(3)
C4 C 1.1717(7) 0.8669(6) 0.1043(3)
H14 H 1.2360 0.9029 0.0944
C5 C 1.0473(8) 0.9895(6) 0.0721(3)
H15 H 1.1054 1.0294 0.0729
H16 H 1.0243 1.0006 0.0396
C6 C 1.1157(7) 0.9355(6) 0.1902(3)
H17 H 1.1649 0.9825 0.1757
H18 H 1.1302 0.9178 0.2237
C7 C 0.8529(7) 1.0156(6) 0.1051(3)
C8 C 0.9720(7) 1.0402(6) 0.1601(3)
H19 H 1.0184 1.0920 0.1557
C9 C 0.9320(7) 0.9614(6) 0.2382(3)
C10 C 0.8548(7) 1.0655(6) 0.1851(3)
H20 H 0.8456 1.1298 0.1906
C11 C 0.6786(7) 1.0688(6) 0.1529(4)
H21 H 0.6684 1.1283 0.1657
H22 H 0.6608 1.0726 0.1192
C12 C 0.7505(7) 1.0238(6) 0.2733(3)
H23 H 0.7717 1.0024 0.3051
H24 H 0.7323 1.0875 0.2752
C13 C 0.5418(7) 0.9526(6) 0.1671(3)
C14 C 0.5773(7) 1.0156(6) 0.2394(3)
H25 H 0.5552 1.0772 0.2482
C15 C 0.6176(8) 0.9058(6) 0.2990(3)
C16 C 0.4820(7) 0.9509(6) 0.2541(3)
H26 H 0.4153 0.9825 0.2694
C17 C 0.3796(7) 0.8665(6) 0.2006(4)
H27 H 0.3171 0.8870 0.2243
H28 H 0.3654 0.8811 0.1666
C18 C 0.4554(8) 0.8154(7) 0.3162(3)
H29 H 0.3816 0.8385 0.3253
H30 H 0.4813 0.7981 0.3474
C19 C 0.4213(6) 0.7181(6) 0.1677(3)
C20 C 0.3764(7) 0.7227(6) 0.2566(3)
H31 H 0.3024 0.7306 0.2751
C21 C 0.5135(7) 0.6607(6) 0.2979(3)
C22 C 0.4027(7) 0.6229(6) 0.2418(3)
H32 H 0.3392 0.5862 0.2527
C23 C 0.4562(7) 0.5568(7) 0.1546(4)
H33 H 0.4104 0.5073 0.1685
H34 H 0.4392 0.5758 0.1217
C24 C 0.5373(8) 0.5060(7) 0.2703(3)
H35 H 0.4825 0.4625 0.2705
H36 H 0.5652 0.4953 0.3016
C25 C 0.6402(8) 0.5391(8) 0.1061(4)
C26 C 0.6021(8) 0.4586(8) 0.1807(4)
H37 H 0.5546 0.4074 0.1868
C27 C 0.7286(8) 0.4712(7) 0.2338(3)
C28 C 0.7154(8) 0.4326(8) 0.1529(4)
H38 H 0.7210 0.3702 0.1432
C29 C 0.8208(7) 0.4812(7) 0.0669(3)
H39 H 0.8334 0.4171 0.0637
H40 H 0.7982 0.5065 0.0361
C30 C 0.8964(7) 0.4125(6) 0.1830(3)
H41 H 0.9163 0.4012 0.2161
H42 H 0.9003 0.3555 0.1673
C31 C 0.9623(7) 0.5911(6) 0.0402(3)
C32 C 1.0009(7) 0.4750(6) 0.0985(3)
H43 H 1.0220 0.4154 0.0862
C33 C 1.0328(7) 0.5292(6) 0.1734(3)
C34 C 1.0952(7) 0.5393(6) 0.0861(3)
H44 H 1.1631 0.5071 0.0731
C35 C 1.1275(7) 0.6798(6) 0.0256(3)
H45 H 1.2028 0.6603 0.0175
H46 H 1.1044 0.7000 -0.0059
C36 C 1.1882(7) 0.6229(6) 0.1446(3)
H47 H 1.1991 0.6061 0.1788
H48 H 1.2528 0.6041 0.1216
N1 N 1.1378(6) 0.8590(5) 0.1590(3)
N2 N 1.0873(6) 0.8976(5) 0.0765(3)
N3 N 1.1187(6) 0.7552(5) 0.0576(3)
N4 N 1.1754(6) 0.7196(5) 0.1390(3)
N5 N 1.0977(6) 0.5746(5) 0.1348(2)
N6 N 1.0642(6) 0.6028(5) 0.0482(3)
N7 N 0.9199(6) 0.5205(5) 0.0718(3)
N8 N 0.9732(6) 0.4720(5) 0.1523(3)
N9 N 0.7863(6) 0.4486(5) 0.1893(3)
N10 N 0.7349(6) 0.4959(5) 0.1095(3)
N11 N 0.5668(6) 0.5253(5) 0.1481(3)
N12 N 0.6238(6) 0.4911(6) 0.2284(3)
N13 N 0.4311(6) 0.6301(5) 0.1875(3)
N14 N 0.4878(6) 0.5938(5) 0.2697(3)
N15 N 0.3915(6) 0.7710(5) 0.2079(3)
N16 N 0.4550(6) 0.7360(5) 0.2881(3)
N17 N 0.4719(6) 0.9153(5) 0.2071(3)
N18 N 0.5197(6) 0.8856(5) 0.2899(3)
N19 N 0.6062(6) 1.0088(5) 0.1854(3)
N20 N 0.6568(6) 0.9781(5) 0.2676(3)
N21 N 0.7912(6) 1.0398(5) 0.1496(3)
N22 N 0.8409(6) 1.0115(5) 0.2326(3)
N23 N 0.9588(6) 1.0090(5) 0.1118(3)
N24 N 1.0051(6) 0.9721(5) 0.1949(3)
O1 O 1.0015(5) 0.8424(4) 0.0174(2)
O2 O 0.8214(5) 1.0005(4) 0.0664(2)
O3 O 0.9184(5) 0.6342(4) 0.0091(2)
O4 O 0.5452(5) 0.9403(4) 0.1219(2)
O5 O 0.6290(6) 0.5977(5) 0.0700(3)
O6 O 0.4328(5) 0.7419(5) 0.1234(2)
O7 O 0.5781(5) 0.6511(5) 0.3270(2)
O8 O 0.7619(6) 0.4827(6) 0.2724(3)
O9 O 0.6672(6) 0.8644(5) 0.3297(3)
O10 O 1.0281(5) 0.5360(4) 0.2187(2)
O11 O 1.1279(5) 0.7480(4) 0.2234(2)
O12 O 0.9439(5) 0.9157(5) 0.2762(2)
C37 C 0.2313(14) 0.2546(11) 0.4984(6)
C38 C 0.3688(10) 0.3357(12) 0.5201(5)
H49 H 0.4308 0.3078 0.5333
C39 C 0.3737(9) 0.4762(11) 0.4832(4)
C40 C 0.3532(11) 0.4657(10) 0.5760(5)
H50 H 0.3825 0.5252 0.5711
H51 H 0.3982 0.4281 0.5952
C41 C 0.2301(10) 0.2611(10) 0.5909(5)
H52 H 0.1934 0.2048 0.5942
H53 H 0.2909 0.2523 0.6085
C42 C 0.1897(12) 0.5480(13) 0.6112(4)
C43 C 0.1972(9) 0.3980(10) 0.6395(4)
H54 H 0.2436 0.3750 0.6634
C44 C 0.0486(9) 0.3217(9) 0.6250(4)
C45 C 0.0907(9) 0.4441(9) 0.6666(4)
H55 H 0.0868 0.4424 0.7034
C46 C 0.0268(11) 0.6037(10) 0.6678(5)
H56 H 0.0634 0.6601 0.6607
H57 H 0.0142 0.5907 0.7043
C47 C -0.1032(8) 0.3976(8) 0.6801(4)
H58 H -0.1020 0.4057 0.7155
H59 H -0.1377 0.3414 0.6784
C48 C -0.2520(8) 0.4571(7) 0.6374(3)
C49 C -0.1691(9) 0.5608(8) 0.6761(4)
H60 H -0.1800 0.5629 0.7131
C50 C -0.1111(14) 0.6825(10) 0.6212(5)
C51 C -0.2644(10) 0.6076(8) 0.6541(4)
H61 H -0.3191 0.6323 0.6809
C52 C 0.4023(9) 0.4541(9) 0.3921(4)
H62 H 0.4534 0.4128 0.3731
H63 H 0.4358 0.5119 0.3893
C53 C 0.3823(11) 0.3270(11) 0.4608(5)
H64 H 0.4498 0.2949 0.4471
C54 C -0.2704(14) 0.7428(9) 0.5943(6)
H65 H -0.2297 0.7973 0.5890
H66 H -0.3391 0.7563 0.6158
N25 N 0.3835(8) 0.4225(8) 0.4438(4)
N26 N 0.2908(10) 0.2816(8) 0.4542(4)
N27 N -0.3058(7) 0.5359(6) 0.6313(3)
N28 N -0.2142(11) 0.6777(7) 0.6198(4)
N29 N -0.1686(7) 0.4709(6) 0.6609(3)
N30 N -0.0771(9) 0.6132(7) 0.6508(4)
N31 N 0.0077(7) 0.3906(7) 0.6529(3)
N32 N 0.0941(8) 0.5351(8) 0.6444(3)
N33 N 0.1582(7) 0.3274(8) 0.6149(4)
N34 N 0.2467(8) 0.4715(10) 0.6049(3)
N35 N 0.2710(9) 0.2831(9) 0.5374(4)
N36 N 0.3589(7) 0.4301(9) 0.5278(4)
O13 O -0.0493(10) 0.7410(7) 0.5984(4)
O14 O 0.2172(9) 0.6233(8) 0.5907(4)
O15 O 0.3774(6) 0.5602(8) 0.4787(3)
O16 O -0.2770(5) 0.3854(5) 0.6257(3)
O17 O 0.1508(9) 0.2063(7) 0.5032(4)
O18 O -0.0061(6) 0.2637(6) 0.6122(3)
C37A C -0.2313(14) 0.7454(11) 0.5016(6)
C38A C -0.3688(10) 0.6643(12) 0.4799(5)
H49A H -0.4308 0.6922 0.4667
C39A C -0.3737(9) 0.5238(11) 0.5168(4)
C40A C -0.3532(11) 0.5343(10) 0.4240(5)
H50A H -0.3825 0.4748 0.4289
H51A H -0.3982 0.5719 0.4048
C41A C -0.2301(10) 0.7389(10) 0.4091(5)
H52A H -0.1934 0.7952 0.4058
H53A H -0.2909 0.7477 0.3915
C42A C -0.1897(12) 0.4520(13) 0.3888(4)
C43A C -0.1972(9) 0.6020(10) 0.3605(4)
H54A H -0.2436 0.6250 0.3366
C44A C -0.0486(9) 0.6783(9) 0.3750(4)
C45A C -0.0907(9) 0.5559(9) 0.3334(4)
H55A H -0.0868 0.5576 0.2966
C46A C -0.0268(11) 0.3963(10) 0.3322(5)
H56A H -0.0634 0.3399 0.3393
H57A H -0.0142 0.4093 0.2957
C47A C 0.1032(8) 0.6024(8) 0.3199(4)
H58A H 0.1020 0.5943 0.2845
H59A H 0.1377 0.6586 0.3216
C48A C 0.2520(8) 0.5429(7) 0.3626(3)
C49A C 0.1691(9) 0.4392(8) 0.3239(4)
H60A H 0.1800 0.4371 0.2869
C50A C 0.1111(14) 0.3175(10) 0.3788(5)
C51A C 0.2644(10) 0.3924(8) 0.3459(4)
H61A H 0.3191 0.3677 0.3191
C52A C -0.4023(9) 0.5459(9) 0.6079(4)
H62A H -0.4534 0.5872 0.6269
H63A H -0.4358 0.4881 0.6107
C53A C -0.3823(11) 0.6730(11) 0.5392(5)
H64A H -0.4498 0.7051 0.5529
C54A C 0.2704(14) 0.2572(9) 0.4057(6)
H65A H 0.2297 0.2027 0.4110
H66A H 0.3391 0.2437 0.3842
N25A N -0.3835(8) 0.5775(8) 0.5562(4)
N26A N -0.2908(10) 0.7184(8) 0.5458(4)
N27A N 0.3058(7) 0.4641(6) 0.3687(3)
N28A N 0.2142(11) 0.3223(7) 0.3802(4)
N29A N 0.1686(7) 0.5291(6) 0.3391(3)
N30A N 0.0771(9) 0.3868(7) 0.3492(4)
N31A N -0.0077(7) 0.6094(7) 0.3471(3)
N32A N -0.0941(8) 0.4649(8) 0.3556(3)
N33A N -0.1582(7) 0.6726(8) 0.3851(4)
N34A N -0.2467(8) 0.5285(10) 0.3951(3)
N35A N -0.2710(9) 0.7169(9) 0.4626(4)
N36A N -0.3589(7) 0.5699(9) 0.4722(4)
O13A O 0.0493(10) 0.2590(7) 0.4016(4)
O14A O -0.2172(9) 0.3767(8) 0.4093(4)
O15A O -0.3774(6) 0.4398(8) 0.5213(3)
O16A O 0.2770(5) 0.6146(5) 0.3743(3)
O17A O -0.1508(9) 0.7937(7) 0.4968(4)
O18A O 0.0061(6) 0.7363(6) 0.3878(3)
C55 C 0.7010(11) 0.7462(11) 0.1917(5)
H67 H 0.6530 0.7425 0.2225
C56 C 0.8742(18) 0.7519(16) 0.1473(8)
H68 H 0.8520 0.7172 0.1225
H69 H 0.9450 0.7314 0.1524
H70 H 0.8756 0.8141 0.1357
C57 C 0.8429(13) 0.7246(10) 0.2431(5)
H71 H 0.8883 0.7728 0.2466
H72 H 0.8845 0.6689 0.2421
H73 H 0.7843 0.7214 0.2715
N37 N 0.7987(7) 0.7412(8) 0.1947(4)
O19 O 0.6598(8) 0.7552(8) 0.1539(4)
C58 C 0.7424(10) 0.8051(9) 0.0311(5)
H74 H 0.7760 0.7483 0.0216
H75 H 0.7792 0.8299 0.0549
H76 H 0.7461 0.8455 0.0015
C59 C 0.5494(11) 0.8196(10) 0.0220(5)
H77 H 0.5734 0.7954 -0.0105
H78 H 0.5452 0.8840 0.0180
H79 H 0.4794 0.7977 0.0365
N38 N 0.6251(7) 0.7920(6) 0.0551(3)
H80 H 0.6162 0.7341 0.0643
H81 H 0.6097 0.8225 0.0829
O20 O 0.3846(6) 0.9987(5) 0.0676(3)
O21 O 0.3103(7) 0.9042(6) 0.9917(3)
O22 O 0.3505(9) 0.7474(7) 0.9430(4)
O23 O 0.8174(11) 0.2465(7) 0.1143(5)
O24 O 0.9111(10) 0.2202(8) 0.2623(5)
O25 O 0.1659(10) 0.8592(9) 0.3139(5)
O26 O 0.0000 0.0000 0.5000
O27 O 0.7078(12) 0.2572(9) 0.2351(6)
O28 O 0.0968(17) 0.0439(14) 0.6234(7)
O29 O 0.4786(16) 0.7248(13) 0.6963(8)
O30 O 0.937(2) 0.1361(17) 0.3513(10)
O31 O 0.351(2) 0.745(2) 0.4455(11)
O32 O 0.790(2) 0.2020(16) 0.5936(9)
O33 O 0.363(3) 0.547(3) 0.0338(14)
O34 O 0.5000 0.5000 0.0000
O35 O 0.016(3) 0.898(2) 0.4471(11)
O36 O 0.0683(12) 0.7509(10) 0.4859(6)
O37 O 0.184(3) 0.039(2) 0.3189(12)
O38 O 0.491(3) 0.098(2) 0.3499(12)
O39 O 1.0164(11) 0.2080(7) 0.0755(4)
C60? C 0.0828(12) 0.4553(12) 0.4916(7)
C61? C 0.088(2) 0.6197(15) 0.4898(11)
N39? N 0.0210(16) 0.5399(14) 0.4995(9)
O40? O 0.1252(19) 0.5374(17) 0.4766(10)
loop_
_geom_bond_atom_site_label_1
_geom_bond_atom_site_label_2
_geom_bond_site_symmetry_1
_geom_bond_site_symmetry_2
B1 H1 1_555 1_555
B2 B1 1_555 1_555
H2 B2 1_555 1_555
B3 B2 1_555 1_555
H3 B3 1_555 1_555
B4 B3 1_555 1_555
H4 B4 1_555 1_555
B5 B1 1_555 1_555
H5 B5 1_555 1_555
B6 B1 1_555 1_555
H6 B6 1_555 1_555
B7 B1 1_555 1_555
H7 B7 1_555 1_555
B8 B1 1_555 1_555
H8 B8 1_555 1_555
B9 B4 1_555 1_555
H9 B9 1_555 1_555
B10 B3 1_555 1_555
H10 B10 1_555 1_555
B11 B2 1_555 1_555
H11 B11 1_555 1_555
B12 B7 1_555 1_555
H12 B12 1_555 1_555
C1 N2 1_555 1_555
C2 H13 1_555 1_555
C3 N1 1_555 1_555
C4 C2 1_555 1_555
H14 C4 1_555 1_555
C5 H15 1_555 1_555
H16 C5 1_555 1_555
C6 H17 1_555 1_555
H18 C6 1_555 1_555
C7 N21 1_555 1_555
C8 H19 1_555 1_555
C9 N22 1_555 1_555
C10 C8 1_555 1_555
H20 C10 1_555 1_555
C11 H21 1_555 1_555
H22 C11 1_555 1_555
C12 H23 1_555 1_555
H24 C12 1_555 1_555
C13 N17 1_555 1_555
C14 H25 1_555 1_555
C15 N18 1_555 1_555
C16 C14 1_555 1_555
H26 C16 1_555 1_555
C17 H27 1_555 1_555
H28 C17 1_555 1_555
C18 H29 1_555 1_555
H30 C18 1_555 1_555
C19 N13 1_555 1_555
C20 H31 1_555 1_555
C21 N14 1_555 1_555
C22 C20 1_555 1_555
H32 C22 1_555 1_555
C23 H33 1_555 1_555
H34 C23 1_555 1_555
C24 H35 1_555 1_555
H36 C24 1_555 1_555
C25 N10 1_555 1_555
C26 H37 1_555 1_555
C27 N9 1_555 1_555
C28 C26 1_555 1_555
H38 C28 1_555 1_555
C29 H39 1_555 1_555
H40 C29 1_555 1_555
C30 H41 1_555 1_555
H42 C30 1_555 1_555
C31 N6 1_555 1_555
C32 H43 1_555 1_555
C33 N5 1_555 1_555
C34 C32 1_555 1_555
H44 C34 1_555 1_555
C35 H45 1_555 1_555
H46 C35 1_555 1_555
C36 H47 1_555 1_555
H48 C36 1_555 1_555
N1 C4 1_555 1_555
N2 C4 1_555 1_555
N3 C1 1_555 1_555
N4 C2 1_555 1_555
N5 C34 1_555 1_555
N6 C34 1_555 1_555
N7 C29 1_555 1_555
N8 C30 1_555 1_555
N9 C28 1_555 1_555
N10 C28 1_555 1_555
N11 C23 1_555 1_555
N12 C24 1_555 1_555
N13 C22 1_555 1_555
N14 C22 1_555 1_555
N15 C17 1_555 1_555
N16 C18 1_555 1_555
N17 C16 1_555 1_555
N18 C16 1_555 1_555
N19 C11 1_555 1_555
N20 C12 1_555 1_555
N21 C10 1_555 1_555
N22 C10 1_555 1_555
N23 C5 1_555 1_555
N24 C6 1_555 1_555
O1 C1 1_555 1_555
O2 C7 1_555 1_555
O3 C31 1_555 1_555
O4 C13 1_555 1_555
O5 C25 1_555 1_555
O6 C19 1_555 1_555
O7 C21 1_555 1_555
O8 C27 1_555 1_555
O9 C15 1_555 1_555
O10 C33 1_555 1_555
O11 C3 1_555 1_555
O12 C9 1_555 1_555
C37 N26 1_555 1_555
C38 H49 1_555 1_555
C39 N25 1_555 1_555
C40 H50 1_555 1_555
H51 C40 1_555 1_555
C41 H52 1_555 1_555
H53 C41 1_555 1_555
C42 N32 1_555 1_555
C43 H54 1_555 1_555
C44 N31 1_555 1_555
C45 C43 1_555 1_555
H55 C45 1_555 1_555
C46 H56 1_555 1_555
H57 C46 1_555 1_555
C47 H58 1_555 1_555
H59 C47 1_555 1_555
C48 N27 1_555 1_555
C49 H60 1_555 1_555
C50 N28 1_555 1_555
C51 C49 1_555 1_555
H61 C51 1_555 1_555
C52 H62 1_555 1_555
H63 C52 1_555 1_555
C53 C38 1_555 1_555
H64 C53 1_555 1_555
C54 H65 1_555 1_555
H66 C54 1_555 1_555
N25 C52 1_555 1_555
N26 C53 1_555 1_555
N27 C51 1_555 1_555
N28 C51 1_555 1_555
N29 C47 1_555 1_555
N30 C46 1_555 1_555
N31 C45 1_555 1_555
N32 C45 1_555 1_555
N33 C41 1_555 1_555
N34 C40 1_555 1_555
N35 C37 1_555 1_555
N36 C38 1_555 1_555
O13 C50 1_555 1_555
O14 C42 1_555 1_555
O15 C39 1_555 1_555
O16 C48 1_555 1_555
O17 C37 1_555 1_555
O18 C44 1_555 1_555
C55 H67 1_555 1_555
C56 H68 1_555 1_555
H69 C56 1_555 1_555
H70 C56 1_555 1_555
C57 H71 1_555 1_555
H72 C57 1_555 1_555
H73 C57 1_555 1_555
N37 C55 1_555 1_555
O19 C55 1_555 1_555
C58 H74 1_555 1_555
H75 C58 1_555 1_555
H76 C58 1_555 1_555
C59 H77 1_555 1_555
H78 C59 1_555 1_555
H79 C59 1_555 1_555
N38 C58 1_555 1_555
H80 N38 1_555 1_555
H81 N38 1_555 1_555
C37A N26A 1_555 1_555
C38A H49A 1_555 1_555
C39A N25A 1_555 1_555
C40A H50A 1_555 1_555
H51A C40A 1_555 1_555
C41A H52A 1_555 1_555
H53A C41A 1_555 1_555
C42A N32A 1_555 1_555
C43A H54A 1_555 1_555
C44A N31A 1_555 1_555
C45A C43A 1_555 1_555
H55A C45A 1_555 1_555
C46A H56A 1_555 1_555
H57A C46A 1_555 1_555
C47A H58A 1_555 1_555
H59A C47A 1_555 1_555
C48A N27A 1_555 1_555
C49A H60A 1_555 1_555
C50A N28A 1_555 1_555
C51A C49A 1_555 1_555
H61A C51A 1_555 1_555
C52A N27 1_555 1_555
H62A C52A 1_555 1_555
H63A C52A 1_555 1_555
C53A C38A 1_555 1_555
H64A C53A 1_555 1_555
C54A N26 1_555 1_555
H65A C54A 1_555 1_555
H66A C54A 1_555 1_555
N25A C52A 1_555 1_555
N26A C54 1_555 1_555
N27A C52 1_555 1_555
N28A C51A 1_555 1_555
N29A C47A 1_555 1_555
N30A C46A 1_555 1_555
N31A C45A 1_555 1_555
N32A C45A 1_555 1_555
N33A C41A 1_555 1_555
N34A C40A 1_555 1_555
N35A C37A 1_555 1_555
N36A C38A 1_555 1_555
O13A C50A 1_555 1_555
O14A C42A 1_555 1_555
O15A C39A 1_555 1_555
O16A C48A 1_555 1_555
O17A C37A 1_555 1_555
O18A C44A 1_555 1_555
B2 B6 1_555 1_555
B2 B7 1_555 1_555
B3 B6 1_555 1_555
B3 B11 1_555 1_555
B4 B5 1_555 1_555
B4 B6 1_555 1_555
B4 B10 1_555 1_555
B5 B6 1_555 1_555
B5 B8 1_555 1_555
B5 B9 1_555 1_555
B7 B8 1_555 1_555
B7 B11 1_555 1_555
B8 B9 1_555 1_555
B8 B12 1_555 1_555
B9 B10 1_555 1_555
B9 B12 1_555 1_555
B10 B11 1_555 1_555
B10 B12 1_555 1_555
B11 B12 1_555 1_555
C2 N3 1_555 1_555
C3 N4 1_555 1_555
C5 N2 1_555 1_555
C6 N1 1_555 1_555
C7 N23 1_555 1_555
C8 N23 1_555 1_555
C8 N24 1_555 1_555
C9 N24 1_555 1_555
C11 N21 1_555 1_555
C12 N22 1_555 1_555
C13 N19 1_555 1_555
C14 N19 1_555 1_555
C14 N20 1_555 1_555
C15 N20 1_555 1_555
C17 N17 1_555 1_555
C18 N18 1_555 1_555
C19 N15 1_555 1_555
C20 N15 1_555 1_555
C20 N16 1_555 1_555
C21 N16 1_555 1_555
C23 N13 1_555 1_555
C24 N14 1_555 1_555
C25 N11 1_555 1_555
C26 N11 1_555 1_555
C26 N12 1_555 1_555
C27 N12 1_555 1_555
C29 N10 1_555 1_555
C30 N9 1_555 1_555
C31 N7 1_555 1_555
C32 N7 1_555 1_555
C32 N8 1_555 1_555
C33 N8 1_555 1_555
C35 N3 1_555 1_555
C35 N6 1_555 1_555
C36 N4 1_555 1_555
C36 N5 1_555 1_555
C38 N35 1_555 1_555
C39 N36 1_555 1_555
C40 N36 1_555 1_555
C41 N35 1_555 1_555
C42 N34 1_555 1_555
C43 N33 1_555 1_555
C43 N34 1_555 1_555
C44 N33 1_555 1_555
C46 N32 1_555 1_555
C47 N31 1_555 1_555
C48 N29 1_555 1_555
C49 N29 1_555 1_555
C49 N30 1_555 1_555
C50 N30 1_555 1_555
C53 N25 1_555 1_555
C54 N28 1_555 1_555
C56 N37 1_555 1_555
C57 N37 1_555 1_555
C59 N38 1_555 1_555
C38A N35A 1_555 1_555
C39A N36A 1_555 1_555
C40A N36A 1_555 1_555
C41A N35A 1_555 1_555
C42A N34A 1_555 1_555
C43A N33A 1_555 1_555
C43A N34A 1_555 1_555
C44A N33A 1_555 1_555
C46A N32A 1_555 1_555
C47A N31A 1_555 1_555
C48A N29A 1_555 1_555
C49A N29A 1_555 1_555
C49A N30A 1_555 1_555
C50A N30A 1_555 1_555
C51A N27A 1_555 1_555
C53A N25A 1_555 1_555
C53A N26A 1_555 1_555
C54A N28A 1_555 1_555

#END
