
#######################################################################
#
#                 Cambridge Crystallographic Data Centre
#                                CCDC 
#
#######################################################################
#
# If this CIF has been generated from an entry in the Cambridge 
# Structural Database, then it will include bibliographic, chemical, 
# crystal, experimental, refinement or atomic coordinate data resulting 
# from the CCDC's data processing and validation procedures.
#
#######################################################################

data_METWUD
_chemical_name_common            
'25,27-(3,7-Diselenanonane-1,9-dioxy)-26,28-dihydroxy-calix[4]arene dichloromethane solvate'
_chemical_formula_moiety         'C35 H36 O4 Se2,0.5(C1 H2 Cl2)'
_chemical_name_systematic        
'19,29-Dioxa-22,26-diselenahexacyclo[15.13.7.1^7,11^.1^32,36^.0^5,30^.0^13,18^]nonatriaconta-1(30),2,4,7(39),8,10,13,15,17,32(38),33,35-dodecaene-38,39-diol dichloromethane solvate'
_symmetry_cell_setting           triclinic
_symmetry_space_group_name_H-M   'P -1'
_symmetry_Int_Tables_number      2
_space_group_name_Hall           '-P 1'
loop_
_symmetry_equiv_pos_site_id
_symmetry_equiv_pos_as_xyz
1 x,y,z
2 -x,-y,-z
_cell_length_a                   10.4953(17)
_cell_length_b                   11.7650(19)
_cell_length_c                   15.136(3)
_cell_angle_alpha                88.436(3)
_cell_angle_beta                 77.690(3)
_cell_angle_gamma                63.727(3)
_cell_volume                     1632.54
_cell_formula_units_Z            2
loop_
_atom_site_label
_atom_site_type_symbol
_atom_site_fract_x
_atom_site_fract_y
_atom_site_fract_z
C36 C 0.958(16) 0.494(11) 0.522(9)
Cl1 Cl 0.90(2) 0.521(16) 0.429(10)
Cl3 Cl 0.987(19) 0.43(2) 0.412(8)
C36A C 1.042(16) 0.506(11) 0.478(9)
Cl1A Cl 1.10(2) 0.479(16) 0.571(10)
Cl3A Cl 1.013(19) 0.57(2) 0.588(8)
C1 C 0.581(6) 0.481(5) 0.374(4)
H1 H 0.5706 0.5395 0.4222
H2 H 0.6070 0.3983 0.3973
C2 C 0.703(6) 0.473(5) 0.296(3)
C3 C 0.702(8) 0.584(5) 0.260(5)
H3 H 0.6300 0.6623 0.2873
C4 C 0.804(9) 0.579(7) 0.187(5)
H4 H 0.8023 0.6545 0.1652
C5 C 0.909(7) 0.465(7) 0.144(4)
H5 H 0.9768 0.4648 0.0927
C6 C 0.917(5) 0.350(5) 0.175(4)
C7 C 1.025(5) 0.226(6) 0.125(4)
H6 H 1.0300 0.1579 0.1639
H7 H 1.1202 0.2240 0.1100
C8 C 0.987(4) 0.200(5) 0.036(3)
C9 C 1.068(5) 0.204(5) -0.048(4)
H8 H 1.1473 0.2217 -0.0510
C10 C 1.036(5) 0.184(5) -0.126(4)
H9 H 1.0919 0.1875 -0.1819
C11 C 0.919(5) 0.159(5) -0.123(3)
H10 H 0.8957 0.1465 -0.1769
C12 C 0.835(5) 0.151(4) -0.041(3)
C13 C 0.706(5) 0.123(4) -0.036(4)
H11 H 0.7104 0.0595 0.0067
H12 H 0.7133 0.0880 -0.0953
C14 C 0.561(5) 0.240(4) -0.008(3)
C15 C 0.519(6) 0.337(5) -0.065(3)
H13 H 0.5775 0.3268 -0.1227
C16 C 0.392(5) 0.448(5) -0.039(4)
H14 H 0.3631 0.5102 -0.0798
C17 C 0.310(5) 0.466(5) 0.048(4)
H15 H 0.2274 0.5430 0.0664
C18 C 0.347(5) 0.372(5) 0.109(3)
C19 C 0.260(5) 0.397(6) 0.206(4)
H16 H 0.1571 0.4325 0.2067
H17 H 0.2867 0.3162 0.2340
C20 C 0.284(5) 0.485(4) 0.263(3)
C21 C 0.178(6) 0.609(6) 0.292(4)
H18 H 0.0903 0.6391 0.2741
C22 C 0.200(8) 0.686(5) 0.346(5)
H19 H 0.1263 0.7676 0.3657
C23 C 0.328(7) 0.646(5) 0.373(4)
H20 H 0.3418 0.7009 0.4088
C24 C 0.438(6) 0.526(4) 0.346(3)
C25 C 0.813(5) 0.359(4) 0.254(3)
C26 C 0.416(5) 0.446(4) 0.291(3)
C27 C 0.472(5) 0.257(4) 0.078(3)
C28 C 0.871(4) 0.171(4) 0.039(3)
C29 C 0.924(6) 0.188(5) 0.344(4)
H21 H 0.8879 0.2364 0.4024
H22 H 1.0156 0.1873 0.3151
C30 C 0.944(6) 0.055(5) 0.357(3)
H23 H 1.0453 0.0022 0.3581
H24 H 0.9254 0.0248 0.3044
C31 C 0.632(6) 0.112(5) 0.436(4)
H25 H 0.5583 0.1364 0.4924
H26 H 0.6214 0.1882 0.4063
C32 C 0.604(5) 0.028(5) 0.376(4)
H27 H 0.6690 0.0116 0.3166
H28 H 0.6247 -0.0529 0.4019
C33 C 0.447(6) 0.091(6) 0.366(4)
H29 H 0.4311 0.1674 0.3343
H30 H 0.3836 0.1178 0.4264
C34 C 0.517(6) -0.038(5) 0.183(4)
H31 H 0.6114 -0.0508 0.1904
H32 H 0.5304 -0.1155 0.1524
C35 C 0.464(7) 0.067(5) 0.123(4)
H33 H 0.5025 0.0330 0.0601
H34 H 0.3587 0.1054 0.1346
O1 O 0.819(3) 0.244(3) 0.288(2)
O2 O 0.510(3) 0.161(3) 0.138(2)
O3 O 0.791(3) 0.161(3) 0.120(2)
H35 H 0.8101 0.1895 0.1615
O4 O 0.525(3) 0.326(3) 0.267(2)
H36 H 0.5049 0.2911 0.2292
Se1 Se 0.8241(7) 0.0302(5) 0.4643(4)
Se2 Se 0.3935(7) -0.0170(7) 0.3022(4)
Cl2? Cl 0.842(13) 0.61(3) 0.472(15)
Cl4? Cl 0.911(19) 0.651(12) 0.533(14)
Cl5? Cl 1.047(18) 0.391(16) 0.430(9)
loop_
_geom_bond_atom_site_label_1
_geom_bond_atom_site_label_2
_geom_bond_site_symmetry_1
_geom_bond_site_symmetry_2
C1 H1 1_555 1_555
H2 C1 1_555 1_555
C2 C1 1_555 1_555
C3 C2 1_555 1_555
H3 C3 1_555 1_555
C4 C3 1_555 1_555
H4 C4 1_555 1_555
C5 C4 1_555 1_555
H5 C5 1_555 1_555
C6 C5 1_555 1_555
C7 C6 1_555 1_555
H6 C7 1_555 1_555
H7 C7 1_555 1_555
C8 C7 1_555 1_555
C9 C8 1_555 1_555
H8 C9 1_555 1_555
C10 C9 1_555 1_555
H9 C10 1_555 1_555
C11 C10 1_555 1_555
H10 C11 1_555 1_555
C12 C11 1_555 1_555
C13 C12 1_555 1_555
H11 C13 1_555 1_555
H12 C13 1_555 1_555
C14 C13 1_555 1_555
C15 C14 1_555 1_555
H13 C15 1_555 1_555
C16 C15 1_555 1_555
H14 C16 1_555 1_555
C17 C16 1_555 1_555
H15 C17 1_555 1_555
C18 C17 1_555 1_555
C19 C18 1_555 1_555
H16 C19 1_555 1_555
H17 C19 1_555 1_555
C20 C19 1_555 1_555
C21 C20 1_555 1_555
H18 C21 1_555 1_555
C22 C21 1_555 1_555
H19 C22 1_555 1_555
C23 C22 1_555 1_555
H20 C23 1_555 1_555
C24 C1 1_555 1_555
C25 C2 1_555 1_555
C26 C20 1_555 1_555
C27 C14 1_555 1_555
C28 C8 1_555 1_555
C29 H21 1_555 1_555
H22 C29 1_555 1_555
C30 C29 1_555 1_555
H23 C30 1_555 1_555
H24 C30 1_555 1_555
C31 H25 1_555 1_555
H26 C31 1_555 1_555
C32 C31 1_555 1_555
H27 C32 1_555 1_555
H28 C32 1_555 1_555
C33 C32 1_555 1_555
H29 C33 1_555 1_555
H30 C33 1_555 1_555
C34 H31 1_555 1_555
H32 C34 1_555 1_555
C35 C34 1_555 1_555
H33 C35 1_555 1_555
H34 C35 1_555 1_555
O1 C25 1_555 1_555
O2 C27 1_555 1_555
O3 C28 1_555 1_555
H35 O3 1_555 1_555
O4 C26 1_555 1_555
H36 O4 1_555 1_555
Se1 C30 1_555 1_555
Se2 C33 1_555 1_555
C36 Cl1 1_555 1_555
Cl1 Cl3 1_555 1_555
Cl3 C36 1_555 1_555
C36A C36 1_555 1_555
Cl1A C36 1_555 1_555
Cl3A C36 1_555 1_555
C6 C25 1_555 1_555
C12 C28 1_555 1_555
C18 C27 1_555 1_555
C23 C24 1_555 1_555
C24 C26 1_555 1_555
C29 O1 1_555 1_555
C31 Se1 1_555 1_555
C34 Se2 1_555 1_555
C35 O2 1_555 1_555
Cl1 C36A 1_555 1_555
Cl3 C36A 1_555 1_555
C36A Cl1A 1_555 1_555
C36A Cl3A 1_555 1_555
Cl1A Cl3A 1_555 1_555

#END
