
#######################################################################
#
#                 Cambridge Crystallographic Data Centre
#                                CCDC 
#
#######################################################################
#
# If this CIF has been generated from an entry in the Cambridge 
# Structural Database, then it will include bibliographic, chemical, 
# crystal, experimental, refinement or atomic coordinate data resulting 
# from the CCDC's data processing and validation procedures.
#
#######################################################################

data_METYUG
_chemical_formula_moiety         'C18 H24 N2 O4'
_chemical_name_systematic        
6,6'-Dimethoxy-2,2'-(ethane-1,2-diyldiiminodimethylene)diphenol
_symmetry_cell_setting           orthorhombic
_symmetry_space_group_name_H-M   'P b c a'
_symmetry_Int_Tables_number      61
_space_group_name_Hall           '-P 2ac 2ab'
loop_
_symmetry_equiv_pos_site_id
_symmetry_equiv_pos_as_xyz
1 x,y,z
2 1/2-x,-y,1/2+z
3 -x,1/2+y,1/2-z
4 1/2+x,1/2-y,-z
5 -x,-y,-z
6 1/2+x,y,1/2-z
7 x,1/2-y,1/2+z
8 1/2-x,1/2+y,z
_cell_length_a                   9.431(3)
_cell_length_b                   10.512(4)
_cell_length_c                   17.414(6)
_cell_angle_alpha                90
_cell_angle_beta                 90
_cell_angle_gamma                90
_cell_volume                     1726.4
_exptl_crystal_colour            white
_exptl_crystal_description       block
_cell_formula_units_Z            4
loop_
_atom_site_label
_atom_site_type_symbol
_atom_site_fract_x
_atom_site_fract_y
_atom_site_fract_z
N1 N 0.63143(16) 0.55569(15) 0.57277(9)
H1 H 0.6755 0.6116 0.5418
O1 O 0.71232(13) 0.83924(13) 0.58727(9)
H2 H 0.7295 0.9097 0.5694
O2 O 0.55557(15) 1.05383(14) 0.58690(10)
C1 C 0.6227(2) 0.6106(2) 0.65036(12)
H3 H 0.7180 0.6290 0.6681
H4 H 0.5827 0.5473 0.6846
C2 C 0.5357(2) 0.7299(2) 0.65631(11)
C3 C 0.58358(19) 0.84133(19) 0.62237(11)
C4 C 0.4991(2) 0.9510(2) 0.62340(12)
C5 C 0.3691(2) 0.9488(2) 0.65951(14)
H5 H 0.3124 1.0212 0.6598
C6 C 0.3230(3) 0.8392(3) 0.69528(15)
H6 H 0.2363 0.8385 0.7207
C7 C 0.4044(2) 0.7316(2) 0.69347(13)
H7 H 0.3718 0.6582 0.7174
C8 C 0.4771(3) 1.1690(2) 0.58660(18)
H8 H 0.5280 1.2324 0.5581
H9 H 0.4638 1.1978 0.6384
H10 H 0.3864 1.1548 0.5631
C9 C 0.4924(2) 0.52592(19) 0.54006(11)
H11 H 0.4346 0.6023 0.5389
H12 H 0.4448 0.4637 0.5721
N1D N 0.36857(16) 0.44431(15) 0.42723(9)
H1D H 0.3245 0.3884 0.4582
O1D O 0.28768(13) 0.16076(13) 0.41273(9)
H2D H 0.2705 0.0903 0.4306
O2D O 0.44443(15) -0.05383(14) 0.41310(10)
C1D C 0.3773(2) 0.3894(2) 0.34964(12)
H3D H 0.2820 0.3710 0.3319
H4D H 0.4173 0.4527 0.3154
C2D C 0.4643(2) 0.2701(2) 0.34369(11)
C3D C 0.41642(19) 0.15867(19) 0.37763(11)
C4D C 0.5009(2) 0.0490(2) 0.37660(12)
C5D C 0.6309(2) 0.0512(2) 0.34049(14)
H5D H 0.6876 -0.0212 0.3402
C6D C 0.6770(3) 0.1608(3) 0.30472(15)
H6D H 0.7637 0.1615 0.2793
C7D C 0.5956(2) 0.2684(2) 0.30653(13)
H7D H 0.6282 0.3418 0.2826
C8D C 0.5229(3) -0.1690(2) 0.41340(18)
H8D H 0.4720 -0.2324 0.4419
H9D H 0.5362 -0.1978 0.3616
H10D H 0.6136 -0.1548 0.4369
C9D C 0.5076(2) 0.47408(19) 0.45994(11)
H11D H 0.5654 0.3977 0.4611
H12D H 0.5552 0.5363 0.4279
loop_
_geom_bond_atom_site_label_1
_geom_bond_atom_site_label_2
_geom_bond_site_symmetry_1
_geom_bond_site_symmetry_2
N1 H1 1_555 1_555
O1 H2 1_555 1_555
O2 C4 1_555 1_555
C1 N1 1_555 1_555
H3 C1 1_555 1_555
H4 C1 1_555 1_555
C2 C1 1_555 1_555
C3 O1 1_555 1_555
C4 C3 1_555 1_555
C5 C4 1_555 1_555
H5 C5 1_555 1_555
C6 C5 1_555 1_555
H6 C6 1_555 1_555
C7 C2 1_555 1_555
H7 C7 1_555 1_555
C8 O2 1_555 1_555
H8 C8 1_555 1_555
H9 C8 1_555 1_555
H10 C8 1_555 1_555
C9 N1 1_555 1_555
H11 C9 1_555 1_555
H12 C9 1_555 1_555
N1D H1D 1_555 1_555
O1D H2D 1_555 1_555
O2D C4D 1_555 1_555
C1D N1D 1_555 1_555
H3D C1D 1_555 1_555
H4D C1D 1_555 1_555
C2D C1D 1_555 1_555
C3D O1D 1_555 1_555
C4D C3D 1_555 1_555
C5D C4D 1_555 1_555
H5D C5D 1_555 1_555
C6D C5D 1_555 1_555
H6D C6D 1_555 1_555
C7D C2D 1_555 1_555
H7D C7D 1_555 1_555
C8D O2D 1_555 1_555
H8D C8D 1_555 1_555
H9D C8D 1_555 1_555
H10D C8D 1_555 1_555
C9D C9 1_555 1_555
H11D C9D 1_555 1_555
H12D C9D 1_555 1_555
C2 C3 1_555 1_555
C6 C7 1_555 1_555
N1D C9D 1_555 1_555
C2D C3D 1_555 1_555
C6D C7D 1_555 1_555

#END
