
#######################################################################
#
#                 Cambridge Crystallographic Data Centre
#                                CCDC 
#
#######################################################################
#
# If this CIF has been generated from an entry in the Cambridge 
# Structural Database, then it will include bibliographic, chemical, 
# crystal, experimental, refinement or atomic coordinate data resulting 
# from the CCDC's data processing and validation procedures.
#
#######################################################################

data_MEURID03
_chemical_formula_moiety         'C10 H14 N2 O6,0.5(H2 O1)'
_chemical_name_systematic        
'1-(3,4-Dihydroxy-5-(hydroxymethyl)tetrahydrofuran-2-yl)-5-methylpyrimidine-2,4(1H,3H)-dione hemihydrate'
_symmetry_cell_setting           orthorhombic
_symmetry_space_group_name_H-M   'P 21 21 2'
_symmetry_Int_Tables_number      18
_space_group_name_Hall           'P 2 2ab'
loop_
_symmetry_equiv_pos_site_id
_symmetry_equiv_pos_as_xyz
1 x,y,z
2 -x,-y,z
3 1/2-x,1/2+y,-z
4 1/2+x,1/2-y,-z
_cell_length_a                   13.953(2)
_cell_length_b                   17.201(3)
_cell_length_c                   4.8017(7)
_cell_angle_alpha                90
_cell_angle_beta                 90
_cell_angle_gamma                90
_cell_volume                     1152.43
_exptl_crystal_colour            colorless
_exptl_crystal_description       block
_cell_formula_units_Z            4
loop_
_atom_site_label
_atom_site_type_symbol
_atom_site_fract_x
_atom_site_fract_y
_atom_site_fract_z
O1 O 0.49360(7) 0.80973(6) 0.0456(2)
O2 O 0.28818(7) 0.92160(6) 0.6600(2)
O3 O 0.29163(7) 0.65911(5) -0.2118(2)
O4 O 0.49160(7) 0.59243(6) -0.1327(2)
H1 H 0.5317(12) 0.5633(10) -0.034(4)
O5 O 0.37584(7) 0.49214(6) 0.1700(2)
H2 H 0.3299(12) 0.4652(10) 0.229(4)
O6 O 0.13202(7) 0.58837(6) 0.1075(2)
H3 H 0.0943(12) 0.6207(10) 0.039(4)
N1 N 0.34714(8) 0.75411(6) 0.1039(3)
N2 N 0.38832(8) 0.86447(7) 0.3523(3)
H4 H 0.4300(12) 0.9014(9) 0.398(4)
C1 C 0.41503(9) 0.80996(8) 0.1590(3)
C2 C 0.30120(10) 0.86877(8) 0.4900(3)
C3 C 0.23314(10) 0.80881(8) 0.4220(3)
C4 C 0.25951(10) 0.75448(7) 0.2351(3)
H5 H 0.2153 0.7143 0.1917
C5 C 0.13752(10) 0.80817(9) 0.5630(3)
H6 H 0.1039 0.7598 0.5179
H7 H 0.0996 0.8526 0.4985
H8 H 0.1465 0.8117 0.7651
C6 C 0.37505(10) 0.69048(8) -0.0891(3)
H9 H 0.4177 0.7118 -0.2381
C7 C 0.42658(10) 0.62389(8) 0.0618(3)
H10 H 0.4591 0.6417 0.2361
C8 C 0.34322(10) 0.56883(7) 0.1209(3)
H11 H 0.3056 0.5879 0.2846
C9 C 0.28424(10) 0.57718(8) -0.1442(3)
H12 H 0.3154 0.5463 -0.2956
C10 C 0.18009(10) 0.55435(8) -0.1260(3)
H13 H 0.1472 0.5705 -0.2991
H14 H 0.1755 0.4970 -0.1124
O7 O 0.0000 0.5000 0.4398(3)
H15 H 0.0411(12) 0.5208(11) 0.329(3)
H15A H -0.0411(12) 0.4792(11) 0.329(3)
loop_
_geom_bond_atom_site_label_1
_geom_bond_atom_site_label_2
_geom_bond_site_symmetry_1
_geom_bond_site_symmetry_2
O1 C1 1_555 1_555
O2 C2 1_555 1_555
O3 C6 1_555 1_555
O4 H1 1_555 1_555
O5 H2 1_555 1_555
O6 H3 1_555 1_555
N1 C1 1_555 1_555
N2 H4 1_555 1_555
C1 N2 1_555 1_555
C2 N2 1_555 1_555
C3 C2 1_555 1_555
C4 N1 1_555 1_555
H5 C4 1_555 1_555
C5 C3 1_555 1_555
H6 C5 1_555 1_555
H7 C5 1_555 1_555
H8 C5 1_555 1_555
C6 N1 1_555 1_555
H9 C6 1_555 1_555
C7 O4 1_555 1_555
H10 C7 1_555 1_555
C8 O5 1_555 1_555
H11 C8 1_555 1_555
C9 O3 1_555 1_555
H12 C9 1_555 1_555
C10 O6 1_555 1_555
H13 C10 1_555 1_555
H14 C10 1_555 1_555
O7 H15 1_555 1_555
H15A O7 1_555 1_555
C3 C4 1_555 1_555
C6 C7 1_555 1_555
C7 C8 1_555 1_555
C8 C9 1_555 1_555
C9 C10 1_555 1_555

#END
