
#######################################################################
#
#                 Cambridge Crystallographic Data Centre
#                                CCDC 
#
#######################################################################
#
# If this CIF has been generated from an entry in the Cambridge 
# Structural Database, then it will include bibliographic, chemical, 
# crystal, experimental, refinement or atomic coordinate data resulting 
# from the CCDC's data processing and validation procedures.
#
#######################################################################

data_MEURID02
_chemical_formula_moiety         'C10 H14 N2 O6,0.5(H2 O1)'
_chemical_name_systematic        
'1-(3,4-Dihydroxy-5-(hydroxymethyl)tetrahydrofuran-2-yl)-5-methylpyrimidine-2,4(1H,3H)-dione hemihydrate'
_symmetry_cell_setting           orthorhombic
_symmetry_space_group_name_H-M   'P 21 21 2'
_symmetry_Int_Tables_number      18
_space_group_name_Hall           'P 2 2ab'
loop_
_symmetry_equiv_pos_site_id
_symmetry_equiv_pos_as_xyz
1 x,y,z
2 -x,-y,z
3 1/2+x,1/2-y,-z
4 1/2-x,1/2+y,-z
_cell_length_a                   13.9973(5)
_cell_length_b                   17.2440(6)
_cell_length_c                   4.8028(2)
_cell_angle_alpha                90
_cell_angle_beta                 90
_cell_angle_gamma                90
_cell_volume                     1159.25
_exptl_crystal_colour            colorless
_exptl_crystal_description       block
_cell_formula_units_Z            4
loop_
_atom_site_label
_atom_site_type_symbol
_atom_site_fract_x
_atom_site_fract_y
_atom_site_fract_z
O1 O 0.79142(5) 0.34093(4) 0.71108(16)
O2 O 0.63185(6) 0.41169(5) 0.39154(18)
O3 O 0.87561(6) 0.50776(5) 0.32991(17)
O4 O 0.99160(6) 0.40749(5) 0.63228(18)
O5 O 0.99355(6) 0.19022(5) 0.45507(18)
O6 O 0.78819(6) 0.07838(5) -0.15967(18)
N1 N 0.84704(6) 0.24595(5) 0.3956(2)
N2 N 0.88821(7) 0.13549(5) 0.1479(2)
C1 C 0.78396(8) 0.42292(6) 0.6431(2)
C2 C 0.68002(8) 0.44567(7) 0.6257(3)
C3 C 0.84323(7) 0.43115(6) 0.3794(2)
C4 C 0.92648(8) 0.37609(6) 0.4383(2)
C5 C 0.87516(8) 0.30958(6) 0.5887(2)
C6 C 0.91484(7) 0.19005(6) 0.3415(2)
C7 C 0.80123(8) 0.13136(6) 0.0103(2)
C8 C 0.73327(7) 0.19118(6) 0.0782(2)
C9 C 0.63753(8) 0.19190(7) -0.0634(3)
C10 C 0.75927(8) 0.24572(7) 0.2641(2)
H1 H 0.9302(10) 0.1000(8) 0.109(3)
H2 H 0.8148(8) 0.4527(7) 0.793(3)
H3 H 0.5918(12) 0.3816(10) 0.454(4)
H4 H 0.8274(11) 0.5338(9) 0.275(3)
H5 H 1.0307(11) 0.4374(8) 0.537(4)
H6 H 0.9155(8) 0.2857(7) 0.734(3)
H7 H 0.7204(9) 0.2876(7) 0.322(3)
H8 H 0.6485(9) 0.4336(7) 0.799(3)
H9 H 0.8062(8) 0.4108(6) 0.223(2)
H10 H 0.9576(8) 0.3567(6) 0.270(3)
H11 H 0.5993(9) 0.1468(8) -0.009(3)
H12 H 0.6769(8) 0.5044(7) 0.602(2)
H13 H 0.6452(9) 0.1876(8) -0.260(3)
H14 H 0.6007(10) 0.2408(9) -0.015(3)
O7 O 0.5000 0.5000 0.0594(3)
H15 H 0.5453(10) 0.4811(9) 0.172(3)
H15A H 0.4547(10) 0.5189(9) 0.172(3)
loop_
_geom_bond_atom_site_label_1
_geom_bond_atom_site_label_2
_geom_bond_site_symmetry_1
_geom_bond_site_symmetry_2
O1 C1 1_555 1_555
O2 C2 1_555 1_555
O3 C3 1_555 1_555
O4 C4 1_555 1_555
O5 C6 1_555 1_555
O6 C7 1_555 1_555
N1 C5 1_555 1_555
N2 C6 1_555 1_555
C1 C2 1_555 1_555
C2 H8 1_555 1_555
C3 C1 1_555 1_555
C4 C3 1_555 1_555
C5 O1 1_555 1_555
C6 N1 1_555 1_555
C7 N2 1_555 1_555
C8 C7 1_555 1_555
C9 C8 1_555 1_555
C10 N1 1_555 1_555
H1 N2 1_555 1_555
H2 C1 1_555 1_555
H3 O2 1_555 1_555
H4 O3 1_555 1_555
H5 O4 1_555 1_555
H6 C5 1_555 1_555
H7 C10 1_555 1_555
H9 C3 1_555 1_555
H10 C4 1_555 1_555
H11 C9 1_555 1_555
H12 C2 1_555 1_555
H13 C9 1_555 1_555
H14 C9 1_555 1_555
O7 H15 1_555 1_555
H15A O7 1_555 1_555
C4 C5 1_555 1_555
C8 C10 1_555 1_555

#END
