
#######################################################################
#
#                 Cambridge Crystallographic Data Centre
#                                CCDC 
#
#######################################################################
#
# If this CIF has been generated from an entry in the Cambridge 
# Structural Database, then it will include bibliographic, chemical, 
# crystal, experimental, refinement or atomic coordinate data resulting 
# from the CCDC's data processing and validation procedures.
#
#######################################################################

data_MEVCAU
_chemical_formula_moiety         'C24 H16 N2 O3,C2 H6 O1'
_chemical_name_systematic        
'3-(1,5-diphenyl-4,5-dihydro-1H-pyrazol-3-yl)-7-hydroxy-2H-chromen-2-one ethanol solvate'
_chemical_properties_biological  
'tested for heat shock protein 90 (HSP90) inhibitory activity'
_symmetry_cell_setting           monoclinic
_symmetry_space_group_name_H-M   'P 21/c'
_symmetry_Int_Tables_number      14
_space_group_name_Hall           '-P 2ybc'
loop_
_symmetry_equiv_pos_site_id
_symmetry_equiv_pos_as_xyz
1 x,y,z
2 -x,1/2+y,1/2-z
3 -x,-y,-z
4 x,1/2-y,1/2+z
_cell_length_a                   17.267(10)
_cell_length_b                   7.185(4)
_cell_length_c                   18.918(11)
_cell_angle_alpha                90
_cell_angle_beta                 115.752(11)
_cell_angle_gamma                90
_cell_volume                     2113.93
_exptl_crystal_colour            red
_exptl_crystal_description       Prism
_cell_formula_units_Z            4
loop_
_atom_site_label
_atom_site_type_symbol
_atom_site_fract_x
_atom_site_fract_y
_atom_site_fract_z
O1 O 1.08017(19) 0.2796(4) 0.49641(17)
O2 O 1.0294(2) 0.3517(5) 0.58095(18)
O3 O 1.2088(2) 0.1731(6) 0.3268(2)
H1 H 1.1956 0.1572 0.2800
N1 N 0.7848(3) 0.1384(6) 0.4332(2)
N2 N 0.7274(2) 0.1655(6) 0.4641(2)
C1 C 0.8592(3) 0.2057(7) 0.4832(3)
C2 C 0.9937(3) 0.1362(7) 0.3717(3)
C3 C 1.0137(3) 0.2821(7) 0.5174(3)
C4 C 0.7203(3) 0.3270(7) 0.5789(3)
C5 C 0.9311(3) 0.2034(6) 0.4625(3)
C6 C 0.6433(3) 0.0920(7) 0.4243(3)
C7 C 1.0724(3) 0.2123(7) 0.4251(3)
C8 C 1.1375(3) 0.1605(7) 0.3395(3)
C9 C 0.9252(3) 0.1331(7) 0.3931(3)
H2 H 0.8733 0.0807 0.3584
C10 C 0.8513(3) 0.2815(7) 0.5494(3)
H3 H 0.8940 0.3392 0.5929
C11 C 0.7676(3) 0.2513(8) 0.5356(3)
C12 C 0.6378(3) 0.4817(8) 0.6629(3)
H4 H 0.6096 0.5322 0.6907
C13 C 0.9901(3) 0.0692(7) 0.3007(3)
H5 H 0.9395 0.0153 0.2642
C14 C 1.1436(3) 0.2260(7) 0.4103(3)
H6 H 1.1944 0.2780 0.4471
C15 C 0.7510(3) 0.2960(7) 0.6597(3)
H7 H 0.7995 0.2225 0.6857
C16 C 1.0599(3) 0.0819(7) 0.2842(3)
H8 H 1.0560 0.0386 0.2364
C17 C 0.6484(3) 0.4372(7) 0.5417(3)
H9 H 0.6271 0.4596 0.4882
C18 C 0.5986(3) 0.1212(7) 0.3441(3)
H10 H 0.6242 0.1858 0.3172
C19 C 0.6068(3) -0.0088(7) 0.4648(3)
H11 H 0.6372 -0.0305 0.5184
C20 C 0.6075(3) 0.5150(8) 0.5840(3)
H12 H 0.5594 0.5900 0.5585
C21 C 0.7098(3) 0.3737(8) 0.7010(3)
H13 H 0.7308 0.3527 0.7547
C22 C 0.5157(3) 0.0534(8) 0.3043(3)
H14 H 0.4850 0.0747 0.2507
C23 C 0.5243(4) -0.0758(8) 0.4237(4)
H15 H 0.4990 -0.1426 0.4503
C24 C 0.4785(4) -0.0461(9) 0.3443(4)
H16 H 0.4230 -0.0926 0.3177
O4 O 0.8039(2) 0.5669(6) 0.31133(19)
H17 H 0.8524 0.5864 0.3458
C25 C 0.7075(4) 0.6053(9) 0.3742(3)
H18 H 0.6791 0.4901 0.3522
H19 H 0.6669 0.6910 0.3781
H20 H 0.7529 0.5829 0.4255
C26 C 0.7427(4) 0.6827(10) 0.3247(3)
H21 H 0.7708 0.7992 0.3477
H22 H 0.6956 0.7115 0.2743
H23? H 0.7741 0.0865 0.3889
loop_
_geom_bond_atom_site_label_1
_geom_bond_atom_site_label_2
_geom_bond_site_symmetry_1
_geom_bond_site_symmetry_2
O1 C3 1_555 1_555
O2 C3 1_555 1_555
O3 H1 1_555 1_555
N1 N2 1_555 1_555
N2 C6 1_555 1_555
C1 N1 1_555 1_555
C2 C7 1_555 1_555
C3 C5 1_555 1_555
C4 C11 1_555 1_555
C5 C1 1_555 1_555
C6 C18 1_555 1_555
C7 O1 1_555 1_555
C8 O3 1_555 1_555
C9 C2 1_555 1_555
H2 C9 1_555 1_555
C10 C1 1_555 1_555
H3 C10 1_555 1_555
C11 N2 1_555 1_555
C12 H4 1_555 1_555
C13 C2 1_555 1_555
H5 C13 1_555 1_555
C14 C7 1_555 1_555
H6 C14 1_555 1_555
C15 C4 1_555 1_555
H7 C15 1_555 1_555
C16 C8 1_555 1_555
H8 C16 1_555 1_555
C17 C4 1_555 1_555
H9 C17 1_555 1_555
C18 H10 1_555 1_555
C19 C6 1_555 1_555
H11 C19 1_555 1_555
C20 C12 1_555 1_555
H12 C20 1_555 1_555
C21 C12 1_555 1_555
H13 C21 1_555 1_555
C22 C18 1_555 1_555
H14 C22 1_555 1_555
C23 C19 1_555 1_555
H15 C23 1_555 1_555
C24 C22 1_555 1_555
H16 C24 1_555 1_555
O4 H17 1_555 1_555
C25 H18 1_555 1_555
H19 C25 1_555 1_555
H20 C25 1_555 1_555
C26 O4 1_555 1_555
H21 C26 1_555 1_555
H22 C26 1_555 1_555
C5 C9 1_555 1_555
C8 C14 1_555 1_555
C10 C11 1_555 1_555
C13 C16 1_555 1_555
C15 C21 1_555 1_555
C17 C20 1_555 1_555
C23 C24 1_555 1_555
C25 C26 1_555 1_555

#END
