
#######################################################################
#
#                 Cambridge Crystallographic Data Centre
#                                CCDC 
#
#######################################################################
#
# If this CIF has been generated from an entry in the Cambridge 
# Structural Database, then it will include bibliographic, chemical, 
# crystal, experimental, refinement or atomic coordinate data resulting 
# from the CCDC's data processing and validation procedures.
#
#######################################################################

data_MEVPAH
_chemical_formula_moiety         'C18 H17 N1 O1'
_chemical_name_systematic        
2,4,5a-trimethyl-5a,6-dihydronaphtho[3,2,1-cd]indol-5(4H)-one
_symmetry_cell_setting           orthorhombic
_symmetry_space_group_name_H-M   'P b c a'
_symmetry_Int_Tables_number      61
_space_group_name_Hall           '-P 2ac 2ab'
loop_
_symmetry_equiv_pos_site_id
_symmetry_equiv_pos_as_xyz
1 x,y,z
2 1/2-x,-y,1/2+z
3 -x,1/2+y,1/2-z
4 1/2+x,1/2-y,-z
5 -x,-y,-z
6 1/2+x,y,1/2-z
7 x,1/2-y,1/2+z
8 1/2-x,1/2+y,z
_cell_length_a                   10.27993(11)
_cell_length_b                   14.65305(15)
_cell_length_c                   17.88687(18)
_cell_angle_alpha                90
_cell_angle_beta                 90
_cell_angle_gamma                90
_cell_volume                     2694.34
_exptl_crystal_colour            yellow
_exptl_crystal_description       block
_chemical_melting_point          '457 K'
_cell_formula_units_Z            8
loop_
_atom_site_label
_atom_site_type_symbol
_atom_site_fract_x
_atom_site_fract_y
_atom_site_fract_z
C1 C 0.25023(13) 0.28346(8) 0.75342(7)
H1 H 0.2663 0.2464 0.7960
C2 C 0.14273(12) 0.26693(8) 0.70876(7)
H2 H 0.0855 0.2180 0.7203
C3 C 0.11871(12) 0.32205(8) 0.64697(7)
H3 H 0.0441 0.3109 0.6170
C4 C 0.20212(11) 0.39333(8) 0.62821(6)
C5 C 0.31309(11) 0.40890(8) 0.67349(6)
C6 C 0.33444(11) 0.35422(8) 0.73594(7)
H4 H 0.4077 0.3655 0.7670
C7 C 0.17534(12) 0.45169(8) 0.55909(6)
H5 H 0.0813 0.4503 0.5473
H6 H 0.2234 0.4267 0.5157
C8 C 0.21849(11) 0.55063(8) 0.57367(6)
C9 C 0.35488(11) 0.54649(8) 0.60259(6)
C10 C 0.40388(11) 0.48236(8) 0.65121(6)
C11 C 0.43370(11) 0.60756(8) 0.56515(6)
C12 C 0.56483(11) 0.61492(8) 0.58218(7)
H7 H 0.6183 0.6592 0.5585
C13 C 0.61579(11) 0.55453(8) 0.63583(7)
C14 C 0.53709(11) 0.48798(8) 0.66878(6)
H8 H 0.5739 0.4461 0.7034
N1 N 0.35939(9) 0.65035(7) 0.50914(6)
C15 C 0.23542(12) 0.61442(8) 0.50616(7)
C16 C 0.41151(13) 0.71380(9) 0.45480(7)
H9 H 0.4435 0.7684 0.4805
H10 H 0.3430 0.7311 0.4194
H11 H 0.4833 0.6849 0.4277
O1 O 0.15314(9) 0.63545(7) 0.45999(5)
C17 C 0.12324(12) 0.59824(9) 0.62743(7)
H12 H 0.1152 0.5622 0.6734
H13 H 0.0378 0.6035 0.6035
H14 H 0.1561 0.6592 0.6396
C18 C 0.75918(11) 0.55761(9) 0.65495(7)
H15 H 0.8011 0.5012 0.6381
H16 H 0.7697 0.5637 0.7092
H17 H 0.7996 0.6099 0.6299
loop_
_geom_bond_atom_site_label_1
_geom_bond_atom_site_label_2
_geom_bond_site_symmetry_1
_geom_bond_site_symmetry_2
C1 H1 1_555 1_555
C2 C1 1_555 1_555
H2 C2 1_555 1_555
C3 C2 1_555 1_555
H3 C3 1_555 1_555
C4 C3 1_555 1_555
C5 C4 1_555 1_555
C6 C1 1_555 1_555
H4 C6 1_555 1_555
C7 C4 1_555 1_555
H5 C7 1_555 1_555
H6 C7 1_555 1_555
C8 C7 1_555 1_555
C9 C8 1_555 1_555
C10 C5 1_555 1_555
C11 C9 1_555 1_555
C12 C11 1_555 1_555
H7 C12 1_555 1_555
C13 C12 1_555 1_555
C14 C10 1_555 1_555
H8 C14 1_555 1_555
N1 C11 1_555 1_555
C15 C8 1_555 1_555
C16 N1 1_555 1_555
H9 C16 1_555 1_555
H10 C16 1_555 1_555
H11 C16 1_555 1_555
O1 C15 1_555 1_555
C17 C8 1_555 1_555
H12 C17 1_555 1_555
H13 C17 1_555 1_555
H14 C17 1_555 1_555
C18 C13 1_555 1_555
H15 C18 1_555 1_555
H16 C18 1_555 1_555
H17 C18 1_555 1_555
C5 C6 1_555 1_555
C9 C10 1_555 1_555
C13 C14 1_555 1_555
N1 C15 1_555 1_555

#END
