
#######################################################################
#
#                 Cambridge Crystallographic Data Centre
#                                CCDC 
#
#######################################################################
#
# If this CIF has been generated from an entry in the Cambridge 
# Structural Database, then it will include bibliographic, chemical, 
# crystal, experimental, refinement or atomic coordinate data resulting 
# from the CCDC's data processing and validation procedures.
#
#######################################################################

data_MEWDEX
_chemical_formula_moiety         'C30 H36 O7'
_chemical_name_systematic        
'Methyl 2,3,4-tri-O-benzyl-7-O-methyl-L-glycero-\b-D-alloheptopyranoside'
_symmetry_cell_setting           monoclinic
_symmetry_space_group_name_H-M   'P 21'
_symmetry_Int_Tables_number      4
_space_group_name_Hall           'P 2yb'
loop_
_symmetry_equiv_pos_site_id
_symmetry_equiv_pos_as_xyz
1 x,y,z
2 -x,1/2+y,-z
_cell_length_a                   12.6580(10)
_cell_length_b                   9.1583(8)
_cell_length_c                   25.5830(10)
_cell_angle_alpha                90
_cell_angle_beta                 102.328(8)
_cell_angle_gamma                90
_cell_volume                     2897.34
_exptl_crystal_colour            colorless
_exptl_crystal_description       needles
_chemical_melting_point          69-70deg.C
_cell_formula_units_Z            4
loop_
_atom_site_label
_atom_site_type_symbol
_atom_site_fract_x
_atom_site_fract_y
_atom_site_fract_z
O1 O 0.9595(3) 0.4448(4) 1.0148(1)
C1 C 0.9688(5) 0.4037(6) 0.9628(2)
O2 O 0.9183(3) 0.2688(4) 0.9474(1)
C2 C 0.8034(6) 0.2735(10) 0.9383(4)
C3 C 1.0858(5) 0.3908(6) 0.9591(2)
O3 O 1.0983(3) 0.3394(4) 0.9083(1)
C4 C 1.0544(8) 0.4326(9) 0.8647(2)
C5 C 1.1039(6) 0.3929(8) 0.8184(2)
C6 C 1.1877(9) 0.4702(13) 0.8072(4)
C7 C 1.2324(11) 0.4306(20) 0.7641(5)
C8 C 1.1886(14) 0.3219(19) 0.7323(4)
C9 C 1.1137(14) 0.2437(17) 0.7441(5)
C10 C 1.0693(9) 0.2849(12) 0.7859(4)
C11 C 1.1477(4) 0.2895(6) 1.0014(2)
O4 O 1.2592(3) 0.3003(5) 1.0006(2)
C12 C 1.3217(6) 0.1697(9) 1.0086(3)
C13 C 1.3910(5) 0.1535(8) 0.9688(3)
C14 C 1.4856(6) 0.0696(9) 0.9810(3)
C15 C 1.5460(6) 0.0472(12) 0.9428(5)
C16 C 1.5160(8) 0.1055(14) 0.8936(4)
C17 C 1.4241(8) 0.1854(14) 0.8804(4)
C18 C 1.3614(6) 0.2080(10) 0.9179(3)
C19 C 1.1280(4) 0.3284(6) 1.0559(2)
O5 O 1.1716(3) 0.2118(4) 1.0924(1)
C20 C 1.2537(5) 0.2542(7) 1.1375(2)
C21 C 1.2836(5) 0.1229(8) 1.1719(2)
C22 C 1.3698(6) 0.0396(10) 1.1670(3)
C23 C 1.3950(9) -0.0898(11) 1.1999(4)
C24 C 1.3340(10) -0.1227(12) 1.2362(4)
C25 C 1.2508(9) -0.0392(12) 1.2392(3)
C26 C 1.2240(6) 0.0845(9) 1.2075(3)
C27 C 1.0085(4) 0.3425(6) 1.0551(2)
C28 C 0.9853(5) 0.3979(7) 1.1071(2)
O6 O 1.0387(4) 0.5321(4) 1.1239(2)
C29 C 0.8657(6) 0.4100(9) 1.1056(3)
O7 O 0.8161(5) 0.2753(8) 1.0945(3)
C30 C 0.7029(9) 0.2765(18) 1.0927(8)
H1 H 0.9343(5) 0.4788(6) 0.9375(2)
H2 H 0.7746(6) 0.1783(10) 0.9280(4)
H3 H 0.7763(6) 0.3419(10) 0.9102(4)
H4 H 0.7820(6) 0.3035(10) 0.9704(4)
H5 H 1.1187(5) 0.4879(6) 0.9649(2)
H6 H 1.0703(8) 0.5337(9) 0.8747(2)
H7 H 0.9765(8) 0.4209(9) 0.8549(2)
H8 H 1.2152(9) 0.5499(13) 0.8283(4)
H9 H 1.2926(11) 0.4797(20) 0.7576(5)
H10 H 1.2129(14) 0.3028(19) 0.7012(4)
H11 H 1.0897(14) 0.1602(17) 0.7245(5)
H12 H 1.0101(9) 0.2322(12) 0.7917(4)
H13 H 1.1235(4) 0.1890(6) 0.9927(2)
H14 H 1.2735(6) 0.0864(9) 1.0061(3)
H15 H 1.3670(6) 0.1705(9) 1.0444(3)
H16 H 1.5077(6) 0.0290(9) 1.0149(3)
H17 H 1.6085(6) -0.0091(12) 0.9512(5)
H18 H 1.5586(8) 0.0910(14) 0.8686(4)
H19 H 1.4032(8) 0.2249(14) 0.8462(4)
H20 H 1.2977(6) 0.2614(10) 0.9083(3)
H21 H 1.1648(4) 0.4203(6) 1.0682(2)
H22 H 1.2268(5) 0.3307(7) 1.1575(2)
H23 H 1.3164(5) 0.2911(7) 1.1256(2)
H24 H 1.4121(6) 0.0653(10) 1.1428(3)
H25 H 1.4523(9) -0.1497(11) 1.1963(4)
H26 H 1.3509(10) -0.2031(12) 1.2586(4)
H27 H 1.2083(9) -0.0638(12) 1.2633(3)
H28 H 1.1648(6) 0.1409(9) 1.2109(3)
H29 H 0.9740(4) 0.2471(6) 1.0469(2)
H30 H 1.0144(5) 0.3253(7) 1.1346(2)
H31 H 1.1005(55) 0.5154(11) 1.1404(72)
H32 H 0.8549(6) 0.4450(9) 1.1399(3)
H33 H 0.8333(6) 0.4799(9) 1.0784(3)
H34 H 0.6741(9) 0.1801(18) 1.0848(8)
H35 H 0.6679(9) 0.3428(18) 1.0653(8)
H36 H 0.6903(9) 0.3075(18) 1.1267(8)
O8 O 0.5651(3) 0.3090(4) 0.5206(1)
C31 C 0.5085(4) 0.3544(5) 0.4696(2)
O9 O 0.5413(3) 0.4908(4) 0.4547(1)
C32 C 0.6473(6) 0.4885(9) 0.4436(4)
C33 C 0.3889(4) 0.3639(6) 0.4687(2)
O10 O 0.3265(3) 0.4135(5) 0.4188(1)
C34 C 0.3290(8) 0.3180(10) 0.3749(3)
C35 C 0.2306(7) 0.3457(9) 0.3318(2)
C36 C 0.2310(8) 0.4546(10) 0.2958(3)
C37 C 0.1465(12) 0.4843(14) 0.2557(4)
C38 C 0.0558(10) 0.4005(17) 0.2519(4)
C39 C 0.0509(10) 0.2899(16) 0.2867(5)
C40 C 0.1424(9) 0.2640(12) 0.3277(4)
C41 C 0.3677(4) 0.4676(5) 0.5110(2)
O11 O 0.2569(3) 0.4562(4) 0.5141(1)
C42 C 0.2020(5) 0.5900(9) 0.5182(3)
C43 C 0.0927(4) 0.5908(7) 0.4819(2)
C44 C 0.0105(6) 0.6720(9) 0.4940(3)
C45 C -0.0889(6) 0.6836(10) 0.4592(4)
C46 C -0.1080(6) 0.6111(11) 0.4118(3)
C47 C -0.0295(5) 0.5238(10) 0.3998(3)
C48 C 0.0723(5) 0.5153(8) 0.4341(2)
C49 C 0.4389(4) 0.4292(6) 0.5654(2)
O12 O 0.4337(3) 0.5486(4) 0.6014(1)
C50 C 0.3894(6) 0.5153(8) 0.6472(2)
C51 C 0.3855(6) 0.6538(8) 0.6776(2)
C52 C 0.4763(7) 0.7073(9) 0.7086(3)
C53 C 0.4713(10) 0.8384(13) 0.7369(4)
C54 C 0.3769(10) 0.9064(12) 0.7352(4)
C55 C 0.2876(10) 0.8544(13) 0.7053(4)
C56 C 0.2909(8) 0.7240(12) 0.6760(3)
C57 C 0.5561(4) 0.4070(6) 0.5630(2)
C58 C 0.6237(4) 0.3409(7) 0.6141(2)
O13 O 0.5761(4) 0.2122(5) 0.6289(2)
C59 C 0.7375(5) 0.3159(8) 0.6115(3)
O14 O 0.7857(4) 0.4435(7) 0.6000(2)
C60 C 0.8958(8) 0.4253(15) 0.5997(7)
H37 H 0.5196(4) 0.2820(5) 0.4431(2)
H38 H 0.6659(6) 0.5846(9) 0.4336(4)
H39 H 0.6488(6) 0.4217(9) 0.4149(4)
H40 H 0.6984(6) 0.4577(9) 0.4750(4)
H41 H 0.3631(4) 0.2667(6) 0.4761(2)
H42 H 0.3300(8) 0.2172(10) 0.3866(3)
H43 H 0.3938(8) 0.3359(10) 0.3613(3)
H44 H 0.2930(8) 0.5114(10) 0.2991(3)
H45 H 0.1495(2) 0.5590(14) 0.2314(4)
H46 H -0.0043(10) 0.4198(17) 0.2248(4)
H47 H -0.0110(10) 0.2330(16) 0.2834(5)
H48 H 0.1411(9) 0.1891(12) 0.3521(4)
H49 H 0.3831(4) 0.5677(5) 0.5014(2)
H50 H 0.2443(5) 0.6706(9) 0.5090(3)
H51 H 0.1946(5) 0.6036(9) 0.5549(3)
H52 H 0.0218(6) 0.7208(9) 0.5266(3)
H53 H -0.1428(6) 0.7413(10) 0.4683(4)
H54 H -0.1740(6) 0.6210(11) 0.3878(3)
H55 H -0.0438(5) 0.4691(10) 0.3685(3)
H56 H 0.1264(5) 0.4588(8) 0.4246(2)
H57 H 0.4112(4) 0.3404(6) 0.5791(2)
H58 H 0.4342(6) 0.4439(8) 0.6696(2)
H59 H 0.3172(6) 0.4752(8) 0.6358(2)
H60 H 0.5418(7) 0.6585(9) 0.7114(3)
H61 H 0.5345(10) 0.8783(13) 0.7571(4)
H62 H 0.3747(10) 0.9907(12) 0.7552(4)
H63 H 0.2224(10) 0.9031(13) 0.7033(4)
H64 H 0.2272(8) 0.6862(12) 0.6555(3)
H65 H 0.5874(4) 0.5014(6) 0.5564(2)
H66 H 0.6240(4) 0.4120(7) 0.6428(2)
H67 H 0.5793(57) 0.1477(26) 0.6070(18)
H68 H 0.7767(5) 0.2778(8) 0.6455(3)
H69 H 0.7409(5) 0.2438(8) 0.5841(3)
H70 H 0.9256(8) 0.5167(15) 0.5915(7)
H71 H 0.9034(8) 0.3543(15) 0.5732(7)
H72 H 0.9336(8) 0.3924(15) 0.6343(7)
loop_
_geom_bond_atom_site_label_1
_geom_bond_atom_site_label_2
_geom_bond_site_symmetry_1
_geom_bond_site_symmetry_2
O1 C1 1_555 1_555
C1 O2 1_555 1_555
O2 C2 1_555 1_555
C2 H2 1_555 1_555
C3 C1 1_555 1_555
O3 C3 1_555 1_555
C4 O3 1_555 1_555
C5 C4 1_555 1_555
C6 C5 1_555 1_555
C7 C6 1_555 1_555
C8 C7 1_555 1_555
C9 C8 1_555 1_555
C10 C5 1_555 1_555
C11 C3 1_555 1_555
O4 C11 1_555 1_555
C12 O4 1_555 1_555
C13 C12 1_555 1_555
C14 C13 1_555 1_555
C15 C14 1_555 1_555
C16 C15 1_555 1_555
C17 C16 1_555 1_555
C18 C13 1_555 1_555
C19 C11 1_555 1_555
O5 C19 1_555 1_555
C20 O5 1_555 1_555
C21 C20 1_555 1_555
C22 C21 1_555 1_555
C23 C22 1_555 1_555
C24 C23 1_555 1_555
C25 C24 1_555 1_555
C26 C21 1_555 1_555
C27 O1 1_555 1_555
C28 C27 1_555 1_555
O6 C28 1_555 1_555
C29 C28 1_555 1_555
O7 C29 1_555 1_555
C30 O7 1_555 1_555
O8 C31 1_555 1_555
C31 O9 1_555 1_555
O9 C32 1_555 1_555
C32 H38 1_555 1_555
C33 C31 1_555 1_555
O10 C33 1_555 1_555
C34 O10 1_555 1_555
C35 C34 1_555 1_555
C36 C35 1_555 1_555
C37 C36 1_555 1_555
C38 C37 1_555 1_555
C39 C38 1_555 1_555
C40 C35 1_555 1_555
C41 C33 1_555 1_555
O11 C41 1_555 1_555
C42 O11 1_555 1_555
C43 C42 1_555 1_555
C44 C43 1_555 1_555
C45 C44 1_555 1_555
C46 C45 1_555 1_555
C47 C46 1_555 1_555
C48 C43 1_555 1_555
C49 C41 1_555 1_555
O12 C49 1_555 1_555
C50 O12 1_555 1_555
C51 C50 1_555 1_555
C52 C51 1_555 1_555
C53 C52 1_555 1_555
C54 C53 1_555 1_555
C55 C54 1_555 1_555
C56 C51 1_555 1_555
C57 O8 1_555 1_555
C58 C57 1_555 1_555
O13 C58 1_555 1_555
C59 C58 1_555 1_555
O14 C59 1_555 1_555
C60 O14 1_555 1_555
H1 C1 1_555 1_555
H3 C2 1_555 1_555
H4 C2 1_555 1_555
H5 C3 1_555 1_555
H6 C4 1_555 1_555
H7 C4 1_555 1_555
H8 C6 1_555 1_555
H9 C7 1_555 1_555
H10 C8 1_555 1_555
H11 C9 1_555 1_555
H12 C10 1_555 1_555
H13 C11 1_555 1_555
H14 C12 1_555 1_555
H15 C12 1_555 1_555
H16 C14 1_555 1_555
H17 C15 1_555 1_555
H18 C16 1_555 1_555
H19 C17 1_555 1_555
H20 C18 1_555 1_555
H21 C19 1_555 1_555
H22 C20 1_555 1_555
H23 C20 1_555 1_555
H24 C22 1_555 1_555
H25 C23 1_555 1_555
H26 C24 1_555 1_555
H27 C25 1_555 1_555
H28 C26 1_555 1_555
H29 C27 1_555 1_555
H30 C28 1_555 1_555
H31 O6 1_555 1_555
H32 C29 1_555 1_555
H33 C29 1_555 1_555
H34 C30 1_555 1_555
H35 C30 1_555 1_555
H36 C30 1_555 1_555
H37 C31 1_555 1_555
H39 C32 1_555 1_555
H40 C32 1_555 1_555
H41 C33 1_555 1_555
H42 C34 1_555 1_555
H43 C34 1_555 1_555
H44 C36 1_555 1_555
H45 C37 1_555 1_555
H46 C38 1_555 1_555
H47 C39 1_555 1_555
H48 C40 1_555 1_555
H49 C41 1_555 1_555
H50 C42 1_555 1_555
H51 C42 1_555 1_555
H52 C44 1_555 1_555
H53 C45 1_555 1_555
H54 C46 1_555 1_555
H55 C47 1_555 1_555
H56 C48 1_555 1_555
H57 C49 1_555 1_555
H58 C50 1_555 1_555
H59 C50 1_555 1_555
H60 C52 1_555 1_555
H61 C53 1_555 1_555
H62 C54 1_555 1_555
H63 C55 1_555 1_555
H64 C56 1_555 1_555
H65 C57 1_555 1_555
H66 C58 1_555 1_555
H67 O13 1_555 1_555
H68 C59 1_555 1_555
H69 C59 1_555 1_555
H70 C60 1_555 1_555
H71 C60 1_555 1_555
H72 C60 1_555 1_555
C9 C10 1_555 1_555
C17 C18 1_555 1_555
C19 C27 1_555 1_555
C25 C26 1_555 1_555
C39 C40 1_555 1_555
C47 C48 1_555 1_555
C49 C57 1_555 1_555
C55 C56 1_555 1_555

#END
