
#######################################################################
#
#                 Cambridge Crystallographic Data Centre
#                                CCDC 
#
#######################################################################
#
# If this CIF has been generated from an entry in the Cambridge 
# Structural Database, then it will include bibliographic, chemical, 
# crystal, experimental, refinement or atomic coordinate data resulting 
# from the CCDC's data processing and validation procedures.
#
#######################################################################

data_MEWHON
_chemical_formula_moiety         'C21 H21 N5 O2'
_chemical_name_systematic        
(5-Methylindolizine-1,3-diyl)bis((3,5-dimethyl-1H-pyrazol-1-yl)methanone)
_symmetry_cell_setting           orthorhombic
_symmetry_space_group_name_H-M   'P c a 21'
_symmetry_Int_Tables_number      29
_space_group_name_Hall           'P 2c -2ac'
loop_
_symmetry_equiv_pos_site_id
_symmetry_equiv_pos_as_xyz
1 x,y,z
2 -x,-y,1/2+z
3 1/2+x,-y,z
4 1/2-x,y,1/2+z
_cell_length_a                   19.7286(11)
_cell_length_b                   11.5659(14)
_cell_length_c                   17.8088(18)
_cell_angle_alpha                90
_cell_angle_beta                 90
_cell_angle_gamma                90
_cell_volume                     4063.59
_exptl_crystal_colour            colorless
_exptl_crystal_description       block
_cell_formula_units_Z            8
loop_
_atom_site_label
_atom_site_type_symbol
_atom_site_fract_x
_atom_site_fract_y
_atom_site_fract_z
C1 C 0.95788(15) 0.4268(3) 0.79194(16)
C2 C 0.97669(16) 0.5313(3) 0.81916(17)
H1 H 1.0113 0.5345 0.8545
C3 C 0.94637(15) 0.6336(3) 0.79647(17)
H2 H 0.9599 0.7036 0.8174
C4 C 0.89665(16) 0.6313(3) 0.74333(17)
H3 H 0.8786 0.7003 0.7254
C5 C 0.87266(15) 0.5260(3) 0.71560(16)
C6 C 0.82339(15) 0.4954(3) 0.66095(15)
C7 C 0.82505(15) 0.3748(3) 0.65706(16)
H4 H 0.7984 0.3307 0.6249
C8 C 0.87156(15) 0.3292(3) 0.70735(17)
C9 C 0.99612(15) 0.3185(2) 0.80885(16)
H5 H 0.9704 0.2717 0.8431
H6 H 1.0389 0.3378 0.8312
H7 H 1.0037 0.2763 0.7632
C10 C 0.86911(16) 0.2129(3) 0.73751(17)
C11 C 0.83518(16) 0.0113(3) 0.70175(17)
C12 C 0.82865(17) -0.0416(3) 0.63537(17)
H8 H 0.8144 -0.1173 0.6278
C13 C 0.84745(16) 0.0390(3) 0.57820(18)
C14 C 0.82015(17) -0.0311(3) 0.77875(18)
H9 H 0.7998 -0.1064 0.7758
H10 H 0.7895 0.0213 0.8031
H11 H 0.8615 -0.0358 0.8070
C15 C 0.85063(17) 0.0238(3) 0.49569(17)
H12 H 0.8706 0.0912 0.4733
H13 H 0.8057 0.0132 0.4763
H14 H 0.8777 -0.0428 0.4840
C16 C 0.78392(15) 0.5808(3) 0.62317(16)
C17 C 0.69986(16) 0.6164(3) 0.51854(18)
C18 C 0.66236(15) 0.5437(3) 0.47619(16)
H15 H 0.6326 0.5646 0.4381
C19 C 0.67648(15) 0.4313(3) 0.50014(18)
C20 C 0.70343(15) 0.7452(2) 0.51772(18)
H16 H 0.6759 0.7745 0.4776
H17 H 0.7496 0.7690 0.5104
H18 H 0.6871 0.7749 0.5647
C21 C 0.64842(16) 0.3191(3) 0.47238(17)
H19 H 0.6708 0.2563 0.4974
H20 H 0.6558 0.3131 0.4192
H21 H 0.6007 0.3159 0.4827
N1 N 0.90253(12) 0.4237(2) 0.74381(13)
N2 N 0.85490(14) 0.1237(2) 0.68550(15)
N3 N 0.86355(13) 0.1389(2) 0.60984(14)
N4 N 0.73572(13) 0.5457(2) 0.56655(14)
N5 N 0.72100(12) 0.4309(2) 0.55560(13)
O1 O 0.87568(11) 0.18868(18) 0.80311(12)
O2 O 0.78751(10) 0.68345(17) 0.63626(12)
C22 C 0.41826(16) 0.5455(3) 0.49679(16)
C23 C 0.39368(16) 0.4389(3) 0.48031(17)
H22 H 0.3575 0.4325 0.4471
C24 C 0.42111(17) 0.3377(3) 0.51186(18)
H23 H 0.4041 0.2658 0.4980
C25 C 0.47187(16) 0.3449(3) 0.56205(18)
H24 H 0.4883 0.2783 0.5849
C26 C 0.50012(16) 0.4536(3) 0.57998(17)
C27 C 0.55051(15) 0.4910(3) 0.63101(16)
C28 C 0.55515(15) 0.6100(3) 0.62361(16)
H25 H 0.5846 0.6570 0.6507
C29 C 0.51025(14) 0.6481(3) 0.57084(17)
C30 C 0.38317(16) 0.6508(3) 0.47244(16)
H26 H 0.3402 0.6306 0.4509
H27 H 0.4102 0.6902 0.4356
H28 H 0.3762 0.7006 0.5149
C31 C 0.51566(15) 0.7556(3) 0.52786(17)
C32 C 0.55300(16) 0.9622(3) 0.54312(16)
C33 C 0.55914(16) 1.0296(3) 0.60368(18)
H29 H 0.5725 1.1067 0.6042
C34 C 0.54178(16) 0.9629(3) 0.66563(18)
C35 C 0.56546(17) 0.9886(3) 0.46158(17)
H30 H 0.5848 1.0644 0.4570
H31 H 0.5233 0.9856 0.4347
H32 H 0.5962 0.9325 0.4411
C36 C 0.53860(17) 0.9990(3) 0.74706(17)
H33 H 0.5834 1.0164 0.7647
H34 H 0.5199 0.9372 0.7764
H35 H 0.5105 1.0663 0.7518
C37 C 0.58944(16) 0.4080(3) 0.67483(17)
C38 C 0.68154(15) 0.3805(3) 0.77224(18)
C39 C 0.71764(15) 0.4592(3) 0.81277(17)
H36 H 0.7507 0.4425 0.8484
C40 C 0.69609(16) 0.5699(3) 0.79131(17)
C41 C 0.68581(16) 0.2528(2) 0.77334(18)
H37 H 0.6442 0.2214 0.7925
H38 H 0.7227 0.2293 0.8050
H39 H 0.6932 0.2247 0.7233
C42 C 0.71876(17) 0.6851(3) 0.81811(18)
H40 H 0.6845 0.7179 0.8499
H41 H 0.7262 0.7350 0.7758
H42 H 0.7602 0.6769 0.8459
N6 N 0.47486(12) 0.5511(2) 0.54330(13)
N7 N 0.53127(12) 0.8556(2) 0.56983(14)
N8 N 0.52484(13) 0.8577(2) 0.64599(14)
N9 N 0.63732(13) 0.4465(2) 0.72789(14)
N10 N 0.64724(13) 0.5633(2) 0.74015(14)
O3 O 0.51202(11) 0.76188(18) 0.46034(12)
O4 O 0.58222(10) 0.30270(18) 0.66841(12)
loop_
_geom_bond_atom_site_label_1
_geom_bond_atom_site_label_2
_geom_bond_site_symmetry_1
_geom_bond_site_symmetry_2
C1 C2 1_555 1_555
C2 H1 1_555 1_555
C3 C2 1_555 1_555
H2 C3 1_555 1_555
C4 C3 1_555 1_555
H3 C4 1_555 1_555
C5 C4 1_555 1_555
C6 C5 1_555 1_555
C7 C6 1_555 1_555
H4 C7 1_555 1_555
C8 C7 1_555 1_555
C9 C1 1_555 1_555
H5 C9 1_555 1_555
H6 C9 1_555 1_555
H7 C9 1_555 1_555
C10 C8 1_555 1_555
C11 C12 1_555 1_555
C12 H8 1_555 1_555
C13 C12 1_555 1_555
C14 C11 1_555 1_555
H9 C14 1_555 1_555
H10 C14 1_555 1_555
H11 C14 1_555 1_555
C15 C13 1_555 1_555
H12 C15 1_555 1_555
H13 C15 1_555 1_555
H14 C15 1_555 1_555
C16 C6 1_555 1_555
C17 C18 1_555 1_555
C18 H15 1_555 1_555
C19 C18 1_555 1_555
C20 C17 1_555 1_555
H16 C20 1_555 1_555
H17 C20 1_555 1_555
H18 C20 1_555 1_555
C21 C19 1_555 1_555
H19 C21 1_555 1_555
H20 C21 1_555 1_555
H21 C21 1_555 1_555
N1 C1 1_555 1_555
N2 C10 1_555 1_555
N3 C13 1_555 1_555
N4 C16 1_555 1_555
N5 C19 1_555 1_555
O1 C10 1_555 1_555
O2 C16 1_555 1_555
C22 C23 1_555 1_555
C23 H22 1_555 1_555
C24 C23 1_555 1_555
H23 C24 1_555 1_555
C25 C24 1_555 1_555
H24 C25 1_555 1_555
C26 C25 1_555 1_555
C27 C26 1_555 1_555
C28 C27 1_555 1_555
H25 C28 1_555 1_555
C29 C28 1_555 1_555
C30 C22 1_555 1_555
H26 C30 1_555 1_555
H27 C30 1_555 1_555
H28 C30 1_555 1_555
C31 C29 1_555 1_555
C32 C33 1_555 1_555
C33 H29 1_555 1_555
C34 C33 1_555 1_555
C35 C32 1_555 1_555
H30 C35 1_555 1_555
H31 C35 1_555 1_555
H32 C35 1_555 1_555
C36 C34 1_555 1_555
H33 C36 1_555 1_555
H34 C36 1_555 1_555
H35 C36 1_555 1_555
C37 C27 1_555 1_555
C38 C39 1_555 1_555
C39 H36 1_555 1_555
C40 C39 1_555 1_555
C41 C38 1_555 1_555
H37 C41 1_555 1_555
H38 C41 1_555 1_555
H39 C41 1_555 1_555
C42 C40 1_555 1_555
H40 C42 1_555 1_555
H41 C42 1_555 1_555
H42 C42 1_555 1_555
N6 C22 1_555 1_555
N7 C31 1_555 1_555
N8 C34 1_555 1_555
N9 C37 1_555 1_555
N10 C40 1_555 1_555
O3 C31 1_555 1_555
O4 C37 1_555 1_555
C5 N1 1_555 1_555
C8 N1 1_555 1_555
C11 N2 1_555 1_555
C17 N4 1_555 1_555
N2 N3 1_555 1_555
N4 N5 1_555 1_555
C26 N6 1_555 1_555
C29 N6 1_555 1_555
C32 N7 1_555 1_555
C38 N9 1_555 1_555
N7 N8 1_555 1_555
N9 N10 1_555 1_555

#END
