
#######################################################################
#
#                 Cambridge Crystallographic Data Centre
#                                CCDC 
#
#######################################################################
#
# If this CIF has been generated from an entry in the Cambridge 
# Structural Database, then it will include bibliographic, chemical, 
# crystal, experimental, refinement or atomic coordinate data resulting 
# from the CCDC's data processing and validation procedures.
#
#######################################################################

data_MEWJUV
_chemical_formula_moiety         'C26 H22 N2 O4'
_chemical_name_systematic        
"Methyl 1',1''-dimethyl-2,2''-dioxo-2H-dispiro[acenaphthylene-1,2'-pyrrolidine-3',3''-indoline]-4'-carboxylate"
_symmetry_cell_setting           orthorhombic
_symmetry_space_group_name_H-M   'P b c n'
_symmetry_Int_Tables_number      60
_space_group_name_Hall           '-P 2n 2ab'
loop_
_symmetry_equiv_pos_site_id
_symmetry_equiv_pos_as_xyz
1 x,y,z
2 1/2-x,1/2-y,1/2+z
3 -x,y,1/2-z
4 1/2+x,1/2-y,-z
5 -x,-y,-z
6 1/2+x,1/2+y,1/2-z
7 x,-y,1/2+z
8 1/2-x,1/2+y,z
_cell_length_a                   27.2997(15)
_cell_length_b                   9.7923(6)
_cell_length_c                   15.8557(10)
_cell_angle_alpha                90
_cell_angle_beta                 90
_cell_angle_gamma                90
_cell_volume                     4238.65
_exptl_crystal_colour            colorless
_exptl_crystal_description       Block
_cell_formula_units_Z            8
loop_
_atom_site_label
_atom_site_type_symbol
_atom_site_fract_x
_atom_site_fract_y
_atom_site_fract_z
C1 C 0.55248(7) -0.08437(18) 0.02663(15)
H1 H 0.5740 -0.1607 0.0354
H2 H 0.5527 -0.0596 -0.0320
H3 H 0.5198 -0.1088 0.0432
C2 C 0.57113(7) 0.0054(2) 0.16787(14)
H4 H 0.5784 -0.0897 0.1794
H5 H 0.5402 0.0285 0.1943
C3 C 0.61210(7) 0.09760(19) 0.20075(12)
H6 H 0.6412 0.0409 0.2098
C4 C 0.62250(6) 0.19357(17) 0.12618(11)
C5 C 0.61516(6) 0.09285(16) 0.05178(12)
C6 C 0.65873(6) -0.01367(18) 0.04464(13)
C7 C 0.68374(6) 0.0100(2) -0.03587(13)
C8 C 0.72342(7) -0.0500(2) -0.07337(16)
H7 H 0.7404 -0.1202 -0.0469
C9 C 0.73756(9) -0.0022(3) -0.15287(18)
H8 H 0.7652 -0.0399 -0.1781
C10 C 0.71257(9) 0.0973(3) -0.19492(16)
H9 H 0.7234 0.1258 -0.2477
C11 C 0.67050(8) 0.1574(2) -0.15918(14)
C12 C 0.65758(7) 0.11197(19) -0.07840(12)
C13 C 0.61607(6) 0.15884(17) -0.03457(12)
C14 C 0.58614(7) 0.24994(19) -0.07357(13)
H10 H 0.5581 0.2818 -0.0467
C15 C 0.59812(9) 0.2955(2) -0.15527(14)
H11 H 0.5773 0.3571 -0.1819
C16 C 0.63878(9) 0.2529(2) -0.19651(14)
H12 H 0.6458 0.2872 -0.2499
C17 C 0.67325(6) 0.26047(19) 0.12476(12)
C18 C 0.61710(6) 0.43187(17) 0.11591(11)
C19 C 0.58897(6) 0.31498(16) 0.12240(11)
C20 C 0.53874(6) 0.32524(19) 0.12696(13)
H13 H 0.5193 0.2477 0.1322
C21 C 0.51788(7) 0.4538(2) 0.12360(16)
H14 H 0.4840 0.4627 0.1268
C22 C 0.54625(8) 0.5680(2) 0.11568(16)
H15 H 0.5313 0.6532 0.1132
C23 C 0.59676(7) 0.55977(19) 0.11128(13)
H16 H 0.6161 0.6374 0.1054
C24 C 0.70630(7) 0.4956(2) 0.11344(14)
H17 H 0.7370 0.4487 0.1084
H18 H 0.7060 0.5481 0.1646
H19 H 0.7020 0.5554 0.0660
C25 C 0.60097(8) 0.1700(2) 0.28144(14)
C26 C 0.63246(11) 0.3314(3) 0.37857(16)
H20 H 0.5988 0.3558 0.3876
H21 H 0.6520 0.4127 0.3756
H22 H 0.6436 0.2755 0.4245
N1 N 0.56904(5) 0.03024(14) 0.07673(10)
N2 N 0.66700(5) 0.39740(15) 0.11545(9)
O1 O 0.66576(5) -0.10603(14) 0.09387(10)
O2 O 0.71209(5) 0.20188(14) 0.12955(10)
O3 O 0.56571(6) 0.1529(2) 0.32417(11)
O4 O 0.63683(6) 0.25647(16) 0.30058(10)
loop_
_geom_bond_atom_site_label_1
_geom_bond_atom_site_label_2
_geom_bond_site_symmetry_1
_geom_bond_site_symmetry_2
C1 H1 1_555 1_555
H2 C1 1_555 1_555
H3 C1 1_555 1_555
C2 H4 1_555 1_555
H5 C2 1_555 1_555
C3 C2 1_555 1_555
H6 C3 1_555 1_555
C4 C3 1_555 1_555
C5 C4 1_555 1_555
C6 C5 1_555 1_555
C7 C6 1_555 1_555
C8 C7 1_555 1_555
H7 C8 1_555 1_555
C9 C8 1_555 1_555
H8 C9 1_555 1_555
C10 C9 1_555 1_555
H9 C10 1_555 1_555
C11 C10 1_555 1_555
C12 C7 1_555 1_555
C13 C5 1_555 1_555
C14 C13 1_555 1_555
H10 C14 1_555 1_555
C15 C14 1_555 1_555
H11 C15 1_555 1_555
C16 C11 1_555 1_555
H12 C16 1_555 1_555
C17 C4 1_555 1_555
C18 C19 1_555 1_555
C19 C4 1_555 1_555
C20 C19 1_555 1_555
H13 C20 1_555 1_555
C21 C20 1_555 1_555
H14 C21 1_555 1_555
C22 C21 1_555 1_555
H15 C22 1_555 1_555
C23 C18 1_555 1_555
H16 C23 1_555 1_555
C24 H17 1_555 1_555
H18 C24 1_555 1_555
H19 C24 1_555 1_555
C25 C3 1_555 1_555
C26 H20 1_555 1_555
H21 C26 1_555 1_555
H22 C26 1_555 1_555
N1 C1 1_555 1_555
N2 C17 1_555 1_555
O1 C6 1_555 1_555
O2 C17 1_555 1_555
O3 C25 1_555 1_555
O4 C25 1_555 1_555
C2 N1 1_555 1_555
C5 N1 1_555 1_555
C11 C12 1_555 1_555
C12 C13 1_555 1_555
C15 C16 1_555 1_555
C18 N2 1_555 1_555
C22 C23 1_555 1_555
C24 N2 1_555 1_555
C26 O4 1_555 1_555

#END
