
#######################################################################
#
#                 Cambridge Crystallographic Data Centre
#                                CCDC 
#
#######################################################################
#
# If this CIF has been generated from an entry in the Cambridge 
# Structural Database, then it will include bibliographic, chemical, 
# crystal, experimental, refinement or atomic coordinate data resulting 
# from the CCDC's data processing and validation procedures.
#
#######################################################################

data_MEWPIP
_chemical_formula_moiety         'C17 H24 O2'
_chemical_name_systematic        
(4-Methoxyphenyl)(4-propylcyclohexyl)methanone
_symmetry_cell_setting           triclinic
_symmetry_space_group_name_H-M   'P -1'
_symmetry_Int_Tables_number      2
_space_group_name_Hall           '-P 1'
loop_
_symmetry_equiv_pos_site_id
_symmetry_equiv_pos_as_xyz
1 x,y,z
2 -x,-y,-z
_cell_length_a                   5.6790(10)
_cell_length_b                   7.3260(12)
_cell_length_c                   35.020(4)
_cell_angle_alpha                93.740(10)
_cell_angle_beta                 91.877(6)
_cell_angle_gamma                94.4360(10)
_cell_volume                     1448.48
_exptl_crystal_colour            colorless
_exptl_crystal_description       prism
_cell_formula_units_Z            4
loop_
_atom_site_label
_atom_site_type_symbol
_atom_site_fract_x
_atom_site_fract_y
_atom_site_fract_z
O1 O 0.99880(12) 0.35024(11) 0.15912(2)
O2 O 0.66126(13) 0.59253(10) 0.32334(2)
C1 C 0.79648(17) 0.37013(14) 0.16884(3)
C2 C 0.75366(17) 0.43668(13) 0.20893(3)
C3 C 0.94045(17) 0.53011(13) 0.23066(3)
H1 H 1.0873 0.5551 0.2190
C4 C 0.91789(17) 0.58768(14) 0.26880(3)
H2 H 1.0461 0.6539 0.2830
C5 C 0.70437(18) 0.54689(13) 0.28593(3)
C6 C 0.51423(17) 0.45635(13) 0.26461(3)
H3 H 0.3679 0.4310 0.2763
C7 C 0.53761(17) 0.40306(13) 0.22639(3)
H4 H 0.4062 0.3432 0.2119
C8 C 0.8581(2) 0.66708(16) 0.34736(3)
H5 H 0.9838 0.5827 0.3462
H6 H 0.8084 0.6839 0.3738
H7 H 0.9171 0.7858 0.3386
C9 C 0.59203(17) 0.33767(14) 0.13965(3)
H8 H 0.4431 0.3066 0.1531
C10 C 0.63021(19) 0.18261(14) 0.10969(3)
H9 H 0.7868 0.2058 0.0986
H10 H 0.6292 0.0652 0.1222
C11 C 0.43893(19) 0.16664(14) 0.07775(3)
H11 H 0.2841 0.1324 0.0886
H12 H 0.4724 0.0677 0.0585
C12 C 0.42516(18) 0.34571(14) 0.05803(3)
H13 H 0.5817 0.3762 0.0468
C13 C 0.38275(19) 0.49986(15) 0.08810(3)
H14 H 0.3811 0.6171 0.0756
H15 H 0.2260 0.4743 0.0990
C14 C 0.57195(19) 0.51957(14) 0.12039(3)
H16 H 0.5325 0.6157 0.1398
H17 H 0.7263 0.5589 0.1100
C15 C 0.23631(18) 0.33204(15) 0.02564(3)
H18 H 0.0826 0.2907 0.0360
H19 H 0.2219 0.4561 0.0166
C16 C 0.2837(2) 0.20226(16) -0.00861(3)
H20 H 0.4423 0.2373 -0.0180
H21 H 0.2845 0.0758 -0.0002
C17 C 0.1010(2) 0.20485(17) -0.04126(3)
H22 H -0.0554 0.1643 -0.0325
H23 H 0.1419 0.1221 -0.0627
H24 H 0.0987 0.3298 -0.0496
O3 O -0.01039(13) 1.20793(12) 0.33989(2)
O4 O 0.30237(13) 0.86232(11) 0.18076(2)
C18 C 0.18165(18) 1.15443(14) 0.33140(3)
C19 C 0.21375(17) 1.07129(13) 0.29201(3)
C20 C 0.03936(17) 1.08960(13) 0.26396(3)
H25 H -0.0977 1.1492 0.2707
C21 C 0.06192(17) 1.02246(14) 0.22640(3)
H26 H -0.0576 1.0371 0.2075
C22 C 0.26183(18) 0.93344(13) 0.21679(3)
C23 C 0.43692(17) 0.91194(14) 0.24449(3)
H27 H 0.5717 0.8492 0.2379
C24 C 0.41410(17) 0.98210(14) 0.28166(3)
H28 H 0.5356 0.9698 0.3004
C25 C 0.1211(2) 0.87346(16) 0.15194(3)
H29 H -0.0256 0.8085 0.1595
H30 H 0.1695 0.8170 0.1276
H31 H 0.0951 1.0025 0.1489
C26 C 0.38631(17) 1.17056(14) 0.36072(3)
H32 H 0.5374 1.1922 0.3472
C27 C 0.36464(18) 1.33026(14) 0.39046(3)
H33 H 0.3720 1.4468 0.3776
H34 H 0.2095 1.3151 0.4025
C28 C 0.56124(18) 1.33969(14) 0.42140(3)
H35 H 0.5397 1.4424 0.4404
H36 H 0.7156 1.3647 0.4096
C29 C 0.56315(18) 1.16106(14) 0.44176(3)
H37 H 0.4071 1.1399 0.4538
C30 C 0.58677(19) 1.00186(14) 0.41190(3)
H38 H 0.7421 1.0185 0.4000
H39 H 0.5812 0.8853 0.4248
C31 C 0.39091(18) 0.98958(14) 0.38069(3)
H40 H 0.2364 0.9614 0.3922
H41 H 0.4163 0.8884 0.3615
C32 C 0.75613(19) 1.16748(15) 0.47336(3)
H42 H 0.7643 1.0425 0.4823
H43 H 0.9100 1.2033 0.4624
C33 C 0.7207(2) 1.29943(15) 0.50788(3)
H44 H 0.7267 1.4263 0.4996
H45 H 0.5621 1.2702 0.5179
C34 C 0.9062(2) 1.28984(16) 0.53987(3)
H46 H 0.9018 1.1644 0.5481
H47 H 0.8731 1.3743 0.5615
H48 H 1.0631 1.3246 0.5305
loop_
_geom_bond_atom_site_label_1
_geom_bond_atom_site_label_2
_geom_bond_site_symmetry_1
_geom_bond_site_symmetry_2
O1 C1 1_555 1_555
O2 C5 1_555 1_555
C1 C2 1_555 1_555
C2 C3 1_555 1_555
C3 H1 1_555 1_555
C4 C3 1_555 1_555
H2 C4 1_555 1_555
C5 C4 1_555 1_555
C6 C5 1_555 1_555
H3 C6 1_555 1_555
C7 C2 1_555 1_555
H4 C7 1_555 1_555
C8 O2 1_555 1_555
H5 C8 1_555 1_555
H6 C8 1_555 1_555
H7 C8 1_555 1_555
C9 C1 1_555 1_555
H8 C9 1_555 1_555
C10 C9 1_555 1_555
H9 C10 1_555 1_555
H10 C10 1_555 1_555
C11 C10 1_555 1_555
H11 C11 1_555 1_555
H12 C11 1_555 1_555
C12 C11 1_555 1_555
H13 C12 1_555 1_555
C13 C12 1_555 1_555
H14 C13 1_555 1_555
H15 C13 1_555 1_555
C14 C9 1_555 1_555
H16 C14 1_555 1_555
H17 C14 1_555 1_555
C15 C12 1_555 1_555
H18 C15 1_555 1_555
H19 C15 1_555 1_555
C16 C15 1_555 1_555
H20 C16 1_555 1_555
H21 C16 1_555 1_555
C17 C16 1_555 1_555
H22 C17 1_555 1_555
H23 C17 1_555 1_555
H24 C17 1_555 1_555
O3 C18 1_555 1_555
O4 C22 1_555 1_555
C18 C19 1_555 1_555
C19 C20 1_555 1_555
C20 H25 1_555 1_555
C21 C20 1_555 1_555
H26 C21 1_555 1_555
C22 C21 1_555 1_555
C23 C22 1_555 1_555
H27 C23 1_555 1_555
C24 C19 1_555 1_555
H28 C24 1_555 1_555
C25 O4 1_555 1_555
H29 C25 1_555 1_555
H30 C25 1_555 1_555
H31 C25 1_555 1_555
C26 C18 1_555 1_555
H32 C26 1_555 1_555
C27 C26 1_555 1_555
H33 C27 1_555 1_555
H34 C27 1_555 1_555
C28 C27 1_555 1_555
H35 C28 1_555 1_555
H36 C28 1_555 1_555
C29 C28 1_555 1_555
H37 C29 1_555 1_555
C30 C29 1_555 1_555
H38 C30 1_555 1_555
H39 C30 1_555 1_555
C31 C26 1_555 1_555
H40 C31 1_555 1_555
H41 C31 1_555 1_555
C32 C29 1_555 1_555
H42 C32 1_555 1_555
H43 C32 1_555 1_555
C33 C32 1_555 1_555
H44 C33 1_555 1_555
H45 C33 1_555 1_555
C34 C33 1_555 1_555
H46 C34 1_555 1_555
H47 C34 1_555 1_555
H48 C34 1_555 1_555
C6 C7 1_555 1_555
C13 C14 1_555 1_555
C23 C24 1_555 1_555
C30 C31 1_555 1_555

#END
