
#######################################################################
#
#                 Cambridge Crystallographic Data Centre
#                                CCDC 
#
#######################################################################
#
# If this CIF has been generated from an entry in the Cambridge 
# Structural Database, then it will include bibliographic, chemical, 
# crystal, experimental, refinement or atomic coordinate data resulting 
# from the CCDC's data processing and validation procedures.
#
#######################################################################

data_MEWQOW01
_chemical_formula_moiety         'C16 H10 N2 S2'
_chemical_name_systematic        2,3-bis(3-Thienyl)quinoxaline
_symmetry_cell_setting           triclinic
_symmetry_space_group_name_H-M   'P -1'
_symmetry_Int_Tables_number      2
_space_group_name_Hall           '-P 1'
loop_
_symmetry_equiv_pos_site_id
_symmetry_equiv_pos_as_xyz
1 x,y,z
2 -x,-y,-z
_cell_length_a                   9.5941(17)
_cell_length_b                   9.7749(17)
_cell_length_c                   16.183(3)
_cell_angle_alpha                104.520(3)
_cell_angle_beta                 98.593(3)
_cell_angle_gamma                107.695(3)
_cell_volume                     1357.15
_exptl_crystal_colour            colorless
_exptl_crystal_description       block
_chemical_melting_point          '406 K'
_cell_formula_units_Z            4
loop_
_atom_site_label
_atom_site_type_symbol
_atom_site_fract_x
_atom_site_fract_y
_atom_site_fract_z
C1 C 0.8001(5) 0.0782(5) 0.3855(3)
N1 N 0.7992(5) 0.0746(5) 0.4663(3)
C2 C 0.6816(5) -0.0280(6) 0.3109(3)
N2 N 0.5705(5) -0.1372(5) 0.3203(3)
C3 C 0.5705(6) -0.1441(6) 0.4037(3)
C4 C 0.6833(6) -0.0370(6) 0.4771(3)
C5 C 0.6780(6) -0.0457(6) 0.5621(4)
H1 H 0.7511 0.0259 0.6109
C6 C 0.5650(7) -0.1597(6) 0.5727(4)
H2 H 0.5621 -0.1659 0.6289
C7 C 0.4537(7) -0.2672(7) 0.4999(4)
H3 H 0.3776 -0.3444 0.5082
C8 C 0.4554(6) -0.2601(6) 0.4170(4)
H4 H 0.3805 -0.3320 0.3691
S1 S 1.1734(2) 0.3340(2) 0.33948(12)
C9 C 1.0452(6) 0.1729(6) 0.3416(4)
H5 H 1.0521 0.0779 0.3216
C10 C 0.9298(6) 0.1982(6) 0.3760(4)
C11 C 0.9461(6) 0.3507(6) 0.3994(4)
H6 H 0.8775 0.3888 0.4225
C12 C 1.0840(10) 0.4432(10) 0.3832(5)
H7 H 1.1166 0.5477 0.3955
S2 S 0.6942(4) 0.0698(3) 0.08605(18)
C13 C 0.7302(6) 0.1018(6) 0.1921(3)
H8 H 0.7843 0.1979 0.2318
C14 C 0.6752(6) -0.0234(6) 0.2194(3)
C15 C 0.6006(6) -0.1531(6) 0.1473(3)
H9 H 0.5506 -0.2490 0.1501
C16 C 0.6146(12) -0.1109(11) 0.0587(7)
H10 H 0.5825 -0.1785 0.0018
C19 C 0.0285(5) 0.2336(5) 0.8230(3)
N3 N 0.0241(5) 0.2186(5) 0.7391(3)
C20 C 0.1455(6) 0.3552(6) 0.8921(3)
N4 N 0.2582(5) 0.4513(5) 0.8739(3)
C21 C 0.2567(6) 0.4326(6) 0.7872(3)
C22 C 0.1387(6) 0.3188(6) 0.7192(3)
C23 C 0.1393(6) 0.3028(6) 0.6305(4)
H17 H 0.0605 0.2281 0.5857
C24 C 0.2573(7) 0.3983(7) 0.6107(4)
H18 H 0.2588 0.3881 0.5522
C25 C 0.3764(7) 0.5120(7) 0.6783(4)
H19 H 0.4563 0.5755 0.6639
C26 C 0.3763(6) 0.5302(7) 0.7643(4)
H20 H 0.4549 0.6069 0.8082
S5 S -0.3469(2) -0.0654(2) 0.83833(12)
C27 C -0.2428(6) 0.0815(6) 0.8107(3)
H21 H -0.2834 0.1338 0.7792
C28 C -0.0910(6) 0.1146(6) 0.8402(3)
C29 C -0.0618(6) 0.0160(6) 0.8845(3)
H22 H 0.0348 0.0211 0.9083
C30 C -0.1965(8) -0.0932(8) 0.8891(5)
H23 H -0.2003 -0.1676 0.9158
S6 S 0.0663(2) 0.4168(3) 1.13124(15)
C31 C 0.0232(6) 0.3508(6) 1.0225(3)
H24 H -0.0747 0.2953 0.9886
C32 C 0.1468(6) 0.3859(6) 0.9868(4)
C33 C 0.2795(6) 0.4689(6) 1.0532(3)
H25 H 0.3764 0.5045 1.0450
C34 C 0.2325(8) 0.4924(11) 1.1501(6)
H26 H 0.2983 0.5433 1.2055
S3? S 1.0763(19) 0.4492(18) 0.3680(11)
H11? H 0.8856 0.3899 0.4306
H12? H 1.0702 0.0866 0.3343
C17? C 1.130(4) 0.321(3) 0.316(3)
H13? H 1.1952 0.3294 0.2787
S4? S 0.5901(8) -0.1391(7) 0.0541(4)
H14? H 0.5579 -0.2465 0.1552
H15? H 0.7831 0.2016 0.2270
C18? C 0.680(3) 0.0331(17) 0.0828(10)
H16? H 0.7033 0.0894 0.0448
S7? S -0.221(2) -0.120(2) 0.8750(14)
H27? H 0.0330 0.0258 0.9146
H28? H -0.2850 0.1450 0.7909
C35? C -0.337(3) -0.080(3) 0.815(3)
H29? H -0.4375 -0.1385 0.7879
S8? S 0.2690(9) 0.5012(12) 1.1438(6)
H30? H 0.3721 0.5023 1.0394
H31? H -0.0768 0.2908 0.9944
C36? C 0.1009(19) 0.445(3) 1.1297(12)
H32? H 0.0485 0.4591 1.1731
loop_
_geom_bond_atom_site_label_1
_geom_bond_atom_site_label_2
_geom_bond_site_symmetry_1
_geom_bond_site_symmetry_2
C1 N1 1_555 1_555
N1 C4 1_555 1_555
C2 C1 1_555 1_555
N2 C2 1_555 1_555
C3 N2 1_555 1_555
C4 C3 1_555 1_555
C5 C4 1_555 1_555
H1 C5 1_555 1_555
C6 C5 1_555 1_555
H2 C6 1_555 1_555
C7 C6 1_555 1_555
H3 C7 1_555 1_555
C8 C3 1_555 1_555
H4 C8 1_555 1_555
S1 C9 1_555 1_555
C9 H5 1_555 1_555
C10 C1 1_555 1_555
C11 C10 1_555 1_555
H6 C11 1_555 1_555
C12 S1 1_555 1_555
H7 C12 1_555 1_555
S2 C13 1_555 1_555
C13 H8 1_555 1_555
C14 C2 1_555 1_555
C15 C14 1_555 1_555
H9 C15 1_555 1_555
C16 S2 1_555 1_555
H10 C16 1_555 1_555
C19 N3 1_555 1_555
N3 C22 1_555 1_555
C20 C19 1_555 1_555
N4 C20 1_555 1_555
C21 N4 1_555 1_555
C22 C21 1_555 1_555
C23 C22 1_555 1_555
H17 C23 1_555 1_555
C24 C23 1_555 1_555
H18 C24 1_555 1_555
C25 C24 1_555 1_555
H19 C25 1_555 1_555
C26 C21 1_555 1_555
H20 C26 1_555 1_555
S5 C27 1_555 1_555
C27 H21 1_555 1_555
C28 C19 1_555 1_555
C29 C28 1_555 1_555
H22 C29 1_555 1_555
C30 S5 1_555 1_555
H23 C30 1_555 1_555
S6 C31 1_555 1_555
C31 H24 1_555 1_555
C32 C20 1_555 1_555
C33 C32 1_555 1_555
H25 C33 1_555 1_555
C34 S6 1_555 1_555
H26 C34 1_555 1_555
C7 C8 1_555 1_555
C9 C10 1_555 1_555
C11 C12 1_555 1_555
C13 C14 1_555 1_555
C15 C16 1_555 1_555
C25 C26 1_555 1_555
C27 C28 1_555 1_555
C29 C30 1_555 1_555
C31 C32 1_555 1_555
C33 C34 1_555 1_555

#END
