
#######################################################################
#
#                 Cambridge Crystallographic Data Centre
#                                CCDC 
#
#######################################################################
#
# If this CIF has been generated from an entry in the Cambridge 
# Structural Database, then it will include bibliographic, chemical, 
# crystal, experimental, refinement or atomic coordinate data resulting 
# from the CCDC's data processing and validation procedures.
#
#######################################################################

data_MEWXUJ
_chemical_formula_moiety         'C12 H9 N5'
_chemical_name_systematic        N-(Pyrazin-2-yl)-1,8-naphthyridin-2-amine
_symmetry_cell_setting           triclinic
_symmetry_space_group_name_H-M   'P -1'
_symmetry_Int_Tables_number      2
_space_group_name_Hall           '-P 1'
loop_
_symmetry_equiv_pos_site_id
_symmetry_equiv_pos_as_xyz
1 x,y,z
2 -x,-y,-z
_cell_length_a                   7.8608(3)
_cell_length_b                   11.8200(5)
_cell_length_c                   11.9356(4)
_cell_angle_alpha                105.096(2)
_cell_angle_beta                 98.086(2)
_cell_angle_gamma                101.854(2)
_cell_volume                     1025.53
_exptl_crystal_colour            yellow
_exptl_crystal_description       prism
_cell_formula_units_Z            4
loop_
_atom_site_label
_atom_site_type_symbol
_atom_site_fract_x
_atom_site_fract_y
_atom_site_fract_z
N1 N 0.22552(13) 0.57902(10) 0.04843(9)
N2 N 0.21678(14) 0.40952(10) 0.10986(9)
N3 N 0.22899(14) 0.75053(10) -0.01282(9)
H1 H 0.2565 0.7845 -0.0656
N4 N 0.14424(14) 0.92338(10) 0.06217(10)
N5 N 0.09496(15) 0.86566(11) 0.26882(10)
C1 C 0.23662(17) 0.29818(12) 0.09116(12)
H2 H 0.2164 0.2607 0.1493
C2 C 0.28551(17) 0.23258(12) -0.00894(12)
H3 H 0.2998 0.1550 -0.0162
C3 C 0.31171(17) 0.28572(12) -0.09594(12)
H4 H 0.3434 0.2444 -0.1642
C4 C 0.31156(17) 0.46677(13) -0.16631(12)
H5 H 0.3405 0.4303 -0.2376
C5 C 0.28987(17) 0.57976(13) -0.14393(12)
H6 H 0.3026 0.6219 -0.1993
C6 C 0.24673(16) 0.63419(12) -0.03287(12)
C7 C 0.24464(16) 0.46328(12) 0.02396(11)
C8 C 0.29047(16) 0.40294(12) -0.08155(11)
C9 C 0.17354(17) 0.82116(12) 0.07953(11)
C10 C 0.08721(18) 0.99392(12) 0.14756(12)
H7 H 0.0626 1.0647 0.1374
C11 C 0.06335(18) 0.96630(12) 0.24991(12)
H8 H 0.0243 1.0189 0.3072
C12 C 0.14880(18) 0.79278(13) 0.18385(11)
H9 H 0.1705 0.7213 0.1939
N6 N -0.04515(14) 0.29804(9) 0.29392(9)
N7 N -0.27965(14) 0.13223(10) 0.21168(10)
N8 N 0.18130(14) 0.46608(10) 0.35900(9)
H10 H 0.1625 0.4602 0.2847
N9 N 0.36229(14) 0.58552(10) 0.54390(10)
N10 N 0.52942(15) 0.73882(10) 0.42486(10)
C13 C -0.38828(18) 0.03571(13) 0.22223(13)
H11 H -0.4718 -0.0141 0.1553
C14 C -0.38621(19) 0.00346(13) 0.32681(13)
H12 H -0.4634 -0.0670 0.3282
C15 C -0.26920(18) 0.07709(12) 0.42639(13)
H13 H -0.2672 0.0584 0.4975
C16 C -0.02570(17) 0.26653(12) 0.51840(12)
H14 H -0.0175 0.2559 0.5933
C17 C 0.08325(18) 0.36368(12) 0.50309(12)
H15 H 0.1639 0.4214 0.5670
C18 C 0.07114(17) 0.37501(12) 0.38708(12)
C19 C -0.15825(17) 0.20387(12) 0.31086(12)
C20 C -0.15148(18) 0.18136(12) 0.42162(12)
C21 C 0.31538(17) 0.56440(12) 0.42761(12)
C22 C 0.49447(18) 0.68540(13) 0.60011(13)
H16 H 0.5317 0.7046 0.6818
C23 C 0.57667(19) 0.76004(13) 0.54274(13)
H17 H 0.6679 0.8275 0.5865
C24 C 0.39957(17) 0.64185(12) 0.36948(13)
H18 H 0.3617 0.6237 0.2880
loop_
_geom_bond_atom_site_label_1
_geom_bond_atom_site_label_2
_geom_bond_site_symmetry_1
_geom_bond_site_symmetry_2
N1 C6 1_555 1_555
N2 C1 1_555 1_555
N3 H1 1_555 1_555
N4 C9 1_555 1_555
N5 C11 1_555 1_555
C1 H2 1_555 1_555
C2 C1 1_555 1_555
H3 C2 1_555 1_555
C3 C2 1_555 1_555
H4 C3 1_555 1_555
C4 H5 1_555 1_555
C5 C4 1_555 1_555
H6 C5 1_555 1_555
C6 N3 1_555 1_555
C7 N1 1_555 1_555
C8 C3 1_555 1_555
C9 N3 1_555 1_555
C10 N4 1_555 1_555
H7 C10 1_555 1_555
C11 C10 1_555 1_555
H8 C11 1_555 1_555
C12 N5 1_555 1_555
H9 C12 1_555 1_555
N6 C18 1_555 1_555
N7 C13 1_555 1_555
N8 H10 1_555 1_555
N9 C21 1_555 1_555
N10 C23 1_555 1_555
C13 H11 1_555 1_555
C14 C13 1_555 1_555
H12 C14 1_555 1_555
C15 C14 1_555 1_555
H13 C15 1_555 1_555
C16 H14 1_555 1_555
C17 C16 1_555 1_555
H15 C17 1_555 1_555
C18 N8 1_555 1_555
C19 N6 1_555 1_555
C20 C15 1_555 1_555
C21 N8 1_555 1_555
C22 N9 1_555 1_555
H16 C22 1_555 1_555
C23 C22 1_555 1_555
H17 C23 1_555 1_555
C24 N10 1_555 1_555
H18 C24 1_555 1_555
N2 C7 1_555 1_555
C4 C8 1_555 1_555
C5 C6 1_555 1_555
C7 C8 1_555 1_555
C9 C12 1_555 1_555
N7 C19 1_555 1_555
C16 C20 1_555 1_555
C17 C18 1_555 1_555
C19 C20 1_555 1_555
C21 C24 1_555 1_555

#END
