
#######################################################################
#
#                 Cambridge Crystallographic Data Centre
#                                CCDC 
#
#######################################################################
#
# If this CIF has been generated from an entry in the Cambridge 
# Structural Database, then it will include bibliographic, chemical, 
# crystal, experimental, refinement or atomic coordinate data resulting 
# from the CCDC's data processing and validation procedures.
#
#######################################################################

data_MEXFAZ
_chemical_formula_moiety         'C12 H11 F1 O1'
_chemical_name_systematic        
5-fluoro-5-methyl-3-phenylcyclopent-2-en-1-one
_symmetry_cell_setting           monoclinic
_symmetry_space_group_name_H-M   'P 21/n'
_symmetry_Int_Tables_number      14
_space_group_name_Hall           '-P 2yn'
loop_
_symmetry_equiv_pos_site_id
_symmetry_equiv_pos_as_xyz
1 x,y,z
2 1/2-x,1/2+y,1/2-z
3 -x,-y,-z
4 1/2+x,1/2-y,1/2+z
_cell_length_a                   9.2356(8)
_cell_length_b                   5.2435(5)
_cell_length_c                   19.8346(18)
_cell_angle_alpha                90
_cell_angle_beta                 90.822(3)
_cell_angle_gamma                90
_cell_volume                     960.429
_exptl_crystal_colour            colorless
_exptl_crystal_description       block
_cell_formula_units_Z            4
loop_
_atom_site_label
_atom_site_type_symbol
_atom_site_fract_x
_atom_site_fract_y
_atom_site_fract_z
O1 O 0.76844(17) -0.1291(3) 0.03356(8)
F1 F 0.63646(15) -0.0176(2) 0.15832(7)
C1 C 0.7965(2) 0.0575(4) 0.06758(11)
C2 C 0.9265(2) 0.2088(4) 0.07010(11)
H1 H 1.0037 0.1891 0.0410
C3 C 0.9219(2) 0.3809(4) 0.11956(10)
C4 C 0.7838(2) 0.3601(5) 0.15820(12)
H2 H 0.7370 0.5250 0.1619
H3 H 0.8021 0.2933 0.2031
C5 C 0.6912(2) 0.1772(4) 0.11701(11)
C6 C 0.5658(3) 0.3002(5) 0.08071(15)
H4 H 0.6008 0.4340 0.0522
H5 H 0.5161 0.1749 0.0537
H6 H 0.5004 0.3703 0.1130
C7 C 1.0329(2) 0.5696(4) 0.13743(10)
C8 C 1.1577(2) 0.5936(4) 0.09964(12)
H7 H 1.1719 0.4868 0.0629
C9 C 1.2605(3) 0.7738(5) 0.11613(14)
H8 H 1.3434 0.7882 0.0904
C10 C 1.2418(3) 0.9313(5) 0.16993(14)
H9 H 1.3115 1.0534 0.1806
C11 C 1.1208(3) 0.9102(5) 0.20826(12)
H10 H 1.1083 1.0173 0.2451
C12 C 1.0165(3) 0.7294(4) 0.19228(11)
H11 H 0.9346 0.7152 0.2187
loop_
_geom_bond_atom_site_label_1
_geom_bond_atom_site_label_2
_geom_bond_site_symmetry_1
_geom_bond_site_symmetry_2
O1 C1 1_555 1_555
F1 C5 1_555 1_555
C1 C2 1_555 1_555
C2 H1 1_555 1_555
C3 C2 1_555 1_555
C4 C3 1_555 1_555
H2 C4 1_555 1_555
H3 C4 1_555 1_555
C5 C1 1_555 1_555
C6 C5 1_555 1_555
H4 C6 1_555 1_555
H5 C6 1_555 1_555
H6 C6 1_555 1_555
C7 C3 1_555 1_555
C8 C7 1_555 1_555
H7 C8 1_555 1_555
C9 C8 1_555 1_555
H8 C9 1_555 1_555
C10 C9 1_555 1_555
H9 C10 1_555 1_555
C11 C10 1_555 1_555
H10 C11 1_555 1_555
C12 C7 1_555 1_555
H11 C12 1_555 1_555
C4 C5 1_555 1_555
C11 C12 1_555 1_555

#END
