
#######################################################################
#
#                 Cambridge Crystallographic Data Centre
#                                CCDC 
#
#######################################################################
#
# If this CIF has been generated from an entry in the Cambridge 
# Structural Database, then it will include bibliographic, chemical, 
# crystal, experimental, refinement or atomic coordinate data resulting 
# from the CCDC's data processing and validation procedures.
#
#######################################################################

data_MEXHIG
_chemical_formula_moiety         'C29 H31 F5 O3 P2'
_chemical_name_systematic        
(1-Diethoxyphosphinyl-2-dimethylmethylidene-3,3,4,4,4-pentafluorobutylidene)triphenylphosphorane
_symmetry_cell_setting           triclinic
_symmetry_space_group_name_H-M   'P -1'
_symmetry_Int_Tables_number      2
_space_group_name_Hall           '-P 1'
loop_
_symmetry_equiv_pos_site_id
_symmetry_equiv_pos_as_xyz
1 x,y,z
2 -x,-y,-z
_cell_length_a                   9.817(4)
_cell_length_b                   19.254(6)
_cell_length_c                   8.233(4)
_cell_angle_alpha                96.83(3)
_cell_angle_beta                 109.65(3)
_cell_angle_gamma                87.96(3)
_cell_volume                     1455.13
_exptl_crystal_colour            colorless
_exptl_crystal_description       prismatic
_chemical_melting_point          '145-146 deg.C'
_cell_formula_units_Z            2
loop_
_atom_site_label
_atom_site_type_symbol
_atom_site_fract_x
_atom_site_fract_y
_atom_site_fract_z
P1 P 0.3142(1) 0.81471(7) 0.1714(2)
P2 P 0.4904(2) 0.70403(8) 0.0684(2)
F1 F 0.2497(5) 0.6752(2) 0.3379(6)
F2 F 0.0361(5) 0.6437(2) 0.1737(7)
F3 F 0.3593(6) 0.5642(3) 0.2062(8)
F4 F 0.1902(7) 0.5427(2) 0.3104(8)
F5 F 0.1587(7) 0.5309(2) 0.0376(8)
O1 O 0.5818(4) 0.7615(2) 0.0635(6)
O2 O 0.5691(4) 0.6588(2) 0.2204(6)
O3 O 0.4584(6) 0.6434(3) -0.0846(8)
C1 C 0.3273(5) 0.7303(2) 0.0903(6)
C2 C 0.2001(6) 0.6812(3) 0.0335(8)
C3 C 0.1059(7) 0.6735(3) -0.1289(10)
C4 C 0.1182(8) 0.7148(4) -0.2639(9)
C5 C -0.0253(9) 0.6258(5) -0.196(1)
C6 C 0.1770(7) 0.6431(4) 0.174(1)
C7 C 0.2228(10) 0.5698(5) 0.184(1)
C8 C 0.7186(10) 0.6400(6) 0.258(1)
C9 C 0.745(1) 0.5728(6) 0.306(1)
C10 C 0.458(2) 0.6451(9) -0.236(2)
C11 C 0.548(1) 0.6085(7) -0.309(2)
C12 C 0.4676(5) 0.8417(3) 0.3631(6)
C13 C 0.5228(7) 0.7951(3) 0.4829(8)
C14 C 0.6374(8) 0.8138(4) 0.6341(9)
C15 C 0.6998(7) 0.8785(4) 0.6627(8)
C16 C 0.6467(6) 0.9253(3) 0.5442(8)
C17 C 0.5297(5) 0.9073(3) 0.3936(7)
C18 C 0.2957(5) 0.8839(2) 0.0310(6)
C19 C 0.3804(6) 0.8841(3) -0.0739(7)
C20 C 0.3684(7) 0.9380(3) -0.1749(8)
C21 C 0.2730(7) 0.9908(3) -0.1757(8)
C22 C 0.1890(7) 0.9915(3) -0.0733(9)
C23 C 0.1999(6) 0.9390(3) 0.0313(7)
C24 C 0.1621(6) 0.8441(3) 0.4025(8)
C25 C 0.0369(9) 0.8498(4) 0.4465(9)
C26 C -0.0955(7) 0.8352(3) 0.319(1)
C27 C -0.1032(6) 0.8176(3) 0.1538(10)
C28 C 0.0178(6) 0.8134(3) 0.1068(7)
C29 C 0.1548(5) 0.8251(2) 0.2341(7)
H1 H 0.2087 0.7440 -0.2478
H2 H 0.0493 0.7354 -0.2783
H3 H 0.1119 0.6787 -0.3774
H4 H -0.1133 0.6547 -0.2283
H5 H -0.0256 0.5947 -0.2894
H6 H -0.0319 0.6012 -0.1025
H7 H 0.7445 0.6426 0.1573
H8 H 0.7651 0.6453 0.3800
H9 H 0.7353 0.5717 0.4167
H10 H 0.8407 0.5593 0.3117
H11 H 0.6778 0.5412 0.2228
H12 H 0.4732 0.6933 -0.2428
H13 H 0.3626 0.6320 -0.3083
H14 H 0.6216 0.6390 -0.3101
H15 H 0.5900 0.5716 -0.2425
H16 H 0.4941 0.5904 -0.4239
H17 H 0.4757 0.7508 0.4782
H18 H 0.6806 0.7748 0.7133
H19 H 0.7772 0.8921 0.7725
H20 H 0.6832 0.9730 0.5580
H21 H 0.4910 0.9404 0.3018
H22 H 0.4465 0.8474 -0.0590
H23 H 0.4247 0.9389 -0.2356
H24 H 0.2568 1.0259 -0.2582
H25 H 0.1260 1.0232 -0.0814
H26 H 0.1471 0.9426 0.1146
H27 H 0.2424 0.8508 0.4812
H28 H 0.0461 0.8594 0.5535
H29 H -0.1697 0.8346 0.3578
H30 H -0.1956 0.8016 0.0661
H31 H 0.0144 0.7974 -0.0111
loop_
_geom_bond_atom_site_label_1
_geom_bond_atom_site_label_2
_geom_bond_site_symmetry_1
_geom_bond_site_symmetry_2
P1 C1 1_555 1_555
P2 O1 1_555 1_555
F1 C6 1_555 1_555
F2 C6 1_555 1_555
F3 C7 1_555 1_555
F4 C7 1_555 1_555
F5 C7 1_555 1_555
O2 P2 1_555 1_555
O3 P2 1_555 1_555
C1 P2 1_555 1_555
C2 C1 1_555 1_555
C3 C2 1_555 1_555
C4 C3 1_555 1_555
C5 C3 1_555 1_555
C6 C2 1_555 1_555
C7 C6 1_555 1_555
C8 O2 1_555 1_555
C9 C8 1_555 1_555
C10 O3 1_555 1_555
C11 C10 1_555 1_555
C12 P1 1_555 1_555
C13 C12 1_555 1_555
C14 C13 1_555 1_555
C15 C14 1_555 1_555
C16 C15 1_555 1_555
C17 C12 1_555 1_555
C18 P1 1_555 1_555
C19 C18 1_555 1_555
C20 C19 1_555 1_555
C21 C20 1_555 1_555
C22 C21 1_555 1_555
C23 C18 1_555 1_555
C24 C25 1_555 1_555
C25 C26 1_555 1_555
C26 C27 1_555 1_555
C27 C28 1_555 1_555
C28 C29 1_555 1_555
C29 P1 1_555 1_555
H1 C4 1_555 1_555
H2 C4 1_555 1_555
H3 C4 1_555 1_555
H4 C5 1_555 1_555
H5 C5 1_555 1_555
H6 C5 1_555 1_555
H7 C8 1_555 1_555
H8 C8 1_555 1_555
H9 C9 1_555 1_555
H10 C9 1_555 1_555
H11 C9 1_555 1_555
H12 C10 1_555 1_555
H13 C10 1_555 1_555
H14 C11 1_555 1_555
H15 C11 1_555 1_555
H16 C11 1_555 1_555
H17 C13 1_555 1_555
H18 C14 1_555 1_555
H19 C15 1_555 1_555
H20 C16 1_555 1_555
H21 C17 1_555 1_555
H22 C19 1_555 1_555
H23 C20 1_555 1_555
H24 C21 1_555 1_555
H25 C22 1_555 1_555
H26 C23 1_555 1_555
H27 C24 1_555 1_555
H28 C25 1_555 1_555
H29 C26 1_555 1_555
H30 C27 1_555 1_555
H31 C28 1_555 1_555
C16 C17 1_555 1_555
C22 C23 1_555 1_555
C24 C29 1_555 1_555

#END
