
#######################################################################
#
#                 Cambridge Crystallographic Data Centre
#                                CCDC 
#
#######################################################################
#
# If this CIF has been generated from an entry in the Cambridge 
# Structural Database, then it will include bibliographic, chemical, 
# crystal, experimental, refinement or atomic coordinate data resulting 
# from the CCDC's data processing and validation procedures.
#
#######################################################################

data_MEXHUS
_chemical_name_common            
'2,4-Diphenyl-3-azabicyclo(3.3.1)nonan-9-one thioketal'
_chemical_formula_moiety         'C22 H25 N1 O1 S1'
_chemical_name_systematic        
2',4'-Diphenyl-spiro(1,3-oxathiolane-2,9'-(3'-azabicyclo(3.3.1)nonane))
_symmetry_cell_setting           monoclinic
_symmetry_space_group_name_H-M   'P 21/n'
_symmetry_Int_Tables_number      14
_space_group_name_Hall           '-P 2yn'
loop_
_symmetry_equiv_pos_site_id
_symmetry_equiv_pos_as_xyz
1 x,y,z
2 1/2+x,1/2-y,1/2+z
3 -x,-y,-z
4 1/2-x,1/2+y,1/2-z
_cell_length_a                   11.005(6)
_cell_length_b                   11.878(5)
_cell_length_c                   14.782(9)
_cell_angle_alpha                90
_cell_angle_beta                 107.13(5)
_cell_angle_gamma                90
_cell_volume                     1846.55
_exptl_crystal_colour            colorless
_exptl_crystal_description       rectangular
_cell_formula_units_Z            4
_exptl_crystal_recrystallization_method '95% ethanol'
loop_
_atom_site_label
_atom_site_type_symbol
_atom_site_fract_x
_atom_site_fract_y
_atom_site_fract_z
S1 S 0.22315(18) 0.12460(17) 0.05315(12)
O1 O 0.3431(3) -0.0465(3) 0.1504(3)
N1 N 0.5236(3) 0.0913(3) 0.3476(3)
H1 H 0.5722 0.1210 0.3986
C1 C 0.4740(5) 0.1296(4) 0.1755(3)
H2 H 0.5007 0.1091 0.1200
C2 C 0.5659(4) 0.0721(4) 0.2643(3)
H3 H 0.5635 -0.0091 0.2525
C3 C 0.7025(2) 0.1113(3) 0.2833(2)
C4 C 0.7801(3) 0.0546(3) 0.2393(2)
C5 C 0.9055(3) 0.0885(3) 0.2549(3)
C6 C 0.9534(2) 0.1792(3) 0.3144(3)
C7 C 0.8759(3) 0.2358(3) 0.3584(3)
C8 C 0.7504(3) 0.2019(3) 0.3429(3)
H4 H 0.7498 -0.0039 0.2004
H5 H 0.9585 0.0508 0.2278
H6 H 1.0356 0.2024 0.3229
H7 H 0.9079 0.2949 0.3976
H8 H 0.7005 0.2379 0.3723
C9 C 0.3583(3) 0.0882(3) 0.42748(19)
C10 C 0.4316(3) 0.1637(3) 0.4932(2)
C11 C 0.3945(3) 0.1944(3) 0.5719(2)
C12 C 0.2841(4) 0.1496(3) 0.5849(2)
C13 C 0.2108(3) 0.0741(3) 0.5192(3)
C14 C 0.2479(3) 0.0434(3) 0.4405(2)
H9 H 0.5031 0.1936 0.4855
H10 H 0.4429 0.2418 0.6155
H11 H 0.2585 0.1725 0.6373
H12 H 0.1396 0.0447 0.5279
H13 H 0.2004 -0.0066 0.3985
C15 C 0.3408(5) 0.0794(4) 0.1633(3)
C16 C 0.3934(4) 0.0566(4) 0.3386(3)
H14 H 0.3878 -0.0254 0.3313
C17 C 0.3000(4) 0.1112(4) 0.2491(3)
H15 H 0.2155 0.0786 0.2409
C18 C 0.4685(6) 0.2583(5) 0.1809(4)
H16 H 0.5541 0.2881 0.1943
H17 H 0.4195 0.2867 0.1195
C19 C 0.2881(5) 0.2391(4) 0.2539(4)
H18 H 0.2199 0.2640 0.1997
H19 H 0.2651 0.2585 0.3105
C20 C 0.4100(5) 0.3018(4) 0.2554(4)
H20 H 0.3913 0.3812 0.2447
H21 H 0.4713 0.2938 0.3174
C21 C 0.1936(7) -0.0217(8) 0.0120(5)
H22 H 0.1203 -0.0528 0.0270
H23 H 0.1800 -0.0271 -0.0558
C22 C 0.3118(8) -0.0801(7) 0.0649(5)
H24 H 0.2980 -0.1609 0.0623
H25 H 0.3792 -0.0633 0.0370
loop_
_geom_bond_atom_site_label_1
_geom_bond_atom_site_label_2
_geom_bond_site_symmetry_1
_geom_bond_site_symmetry_2
S1 C15 1_555 1_555
O1 C15 1_555 1_555
N1 H1 1_555 1_555
C1 H2 1_555 1_555
C2 N1 1_555 1_555
H3 C2 1_555 1_555
C3 C2 1_555 1_555
C4 C3 1_555 1_555
C5 C4 1_555 1_555
C6 C5 1_555 1_555
C7 C6 1_555 1_555
C8 C3 1_555 1_555
H4 C4 1_555 1_555
H5 C5 1_555 1_555
H6 C6 1_555 1_555
H7 C7 1_555 1_555
H8 C8 1_555 1_555
C9 C10 1_555 1_555
C10 C11 1_555 1_555
C11 C12 1_555 1_555
C12 C13 1_555 1_555
C13 C14 1_555 1_555
C14 C9 1_555 1_555
H9 C10 1_555 1_555
H10 C11 1_555 1_555
H11 C12 1_555 1_555
H12 C13 1_555 1_555
H13 C14 1_555 1_555
C15 C1 1_555 1_555
C16 N1 1_555 1_555
H14 C16 1_555 1_555
C17 C15 1_555 1_555
H15 C17 1_555 1_555
C18 C1 1_555 1_555
H16 C18 1_555 1_555
H17 C18 1_555 1_555
C19 C17 1_555 1_555
H18 C19 1_555 1_555
H19 C19 1_555 1_555
C20 C18 1_555 1_555
H20 C20 1_555 1_555
H21 C20 1_555 1_555
C21 S1 1_555 1_555
H22 C21 1_555 1_555
H23 C21 1_555 1_555
C22 O1 1_555 1_555
H24 C22 1_555 1_555
H25 C22 1_555 1_555
C1 C2 1_555 1_555
C7 C8 1_555 1_555
C9 C16 1_555 1_555
C16 C17 1_555 1_555
C19 C20 1_555 1_555
C21 C22 1_555 1_555

#END
