
#######################################################################
#
#                 Cambridge Crystallographic Data Centre
#                                CCDC 
#
#######################################################################
#
# If this CIF has been generated from an entry in the Cambridge 
# Structural Database, then it will include bibliographic, chemical, 
# crystal, experimental, refinement or atomic coordinate data resulting 
# from the CCDC's data processing and validation procedures.
#
#######################################################################

data_MEXMBN
_chemical_formula_moiety         'C16 H26 O3'
_chemical_name_systematic        
trans-1\b,6\a-Dimethyl-8(E)-(1-ethoxyethylidene)-2\a-methoxybicyclo(4.3.0)nonan-7-one
_symmetry_cell_setting           orthorhombic
_symmetry_space_group_name_H-M   'P 21 21 21'
_symmetry_Int_Tables_number      19
_space_group_name_Hall           'P 2ac 2ab'
loop_
_symmetry_equiv_pos_site_id
_symmetry_equiv_pos_as_xyz
1 x,y,z
2 1/2+x,1/2-y,-z
3 -x,1/2+y,1/2-z
4 1/2-x,-y,1/2+z
_cell_length_a                   10.831(3)
_cell_length_b                   18.889(8)
_cell_length_c                   7.538(6)
_cell_angle_alpha                90
_cell_angle_beta                 90
_cell_angle_gamma                90
_cell_volume                     1542.17
_cell_formula_units_Z            4
loop_
_atom_site_label
_atom_site_type_symbol
_atom_site_fract_x
_atom_site_fract_y
_atom_site_fract_z
O1 O 0.11100 -0.42750 -0.27820
O2 O -0.00420 -0.70310 -0.33890
O3 O 0.38900 -0.67380 -0.22460
C1 C 0.08030 -0.54230 -0.14520
C2 C 0.05760 -0.46290 -0.12940
C3 C -0.07990 -0.44680 -0.10870
C4 C -0.16350 -0.48550 -0.24010
C5 C -0.13670 -0.56510 -0.25770
C6 C 0.00070 -0.57520 -0.29540
C7 C 0.05420 -0.65020 -0.29910
C8 C 0.18540 -0.64290 -0.25580
C9 C 0.20890 -0.56900 -0.19080
C10 C 0.14530 -0.35700 -0.24530
C11 C 0.04800 -0.57600 0.03570
C12 C 0.02920 -0.54830 -0.48490
C13 C 0.27160 -0.69380 -0.26940
C14 C 0.25060 -0.76740 -0.33460
C15 C 0.48580 -0.72380 -0.20890
C16 C 0.59740 -0.68830 -0.15020
H1 H 0.09900 -0.44700 -0.02700
H2 H -0.09100 -0.39200 -0.12600
H3 H -0.10800 -0.46500 0.01000
H4 H -0.15800 -0.46700 -0.36100
H5 H -0.25300 -0.48100 -0.21100
H6 H -0.18200 -0.58700 -0.34600
H7 H -0.15600 -0.59800 -0.12300
H8 H 0.26400 -0.56200 -0.10400
H9 H 0.24700 -0.54200 -0.27300
H10 H 0.20800 -0.35400 -0.13800
H11 H 0.07400 -0.33000 -0.21600
H12 H 0.18000 -0.33200 -0.34500
H13 H -0.03400 -0.56100 0.06500
H14 H 0.09400 -0.55800 0.13400
H15 H 0.05900 -0.62800 0.04600
H16 H 0.10900 -0.55100 -0.52700
H17 H 0.00800 -0.50000 -0.50500
H18 H -0.02600 -0.58100 -0.56400
H19 H 0.27100 -0.79900 -0.25200
H20 H 0.31700 -0.78100 -0.43000
H21 H 0.16400 -0.77400 -0.37000
H22 H 0.49800 -0.75000 -0.29900
H23 H 0.45600 -0.76000 -0.11300
H24 H 0.59400 -0.66600 -0.05100
H25 H 0.59500 -0.65300 -0.25100
H26 H 0.67400 -0.72500 -0.12400
loop_
_geom_bond_atom_site_label_1
_geom_bond_atom_site_label_2
_geom_bond_site_symmetry_1
_geom_bond_site_symmetry_2
O1 C2 1_555 1_555
O2 C7 1_555 1_555
O3 C13 1_555 1_555
C1 C2 1_555 1_555
C2 C3 1_555 1_555
C3 C4 1_555 1_555
C4 C5 1_555 1_555
C5 C6 1_555 1_555
C6 C1 1_555 1_555
C7 C6 1_555 1_555
C8 C7 1_555 1_555
C9 C1 1_555 1_555
C10 O1 1_555 1_555
C11 C1 1_555 1_555
C12 C6 1_555 1_555
C13 C8 1_555 1_555
C14 C13 1_555 1_555
C15 O3 1_555 1_555
C16 C15 1_555 1_555
H1 C2 1_555 1_555
H2 C3 1_555 1_555
H3 C3 1_555 1_555
H4 C4 1_555 1_555
H5 C4 1_555 1_555
H6 C5 1_555 1_555
H7 C5 1_555 1_555
H8 C9 1_555 1_555
H9 C9 1_555 1_555
H10 C10 1_555 1_555
H11 C10 1_555 1_555
H12 C10 1_555 1_555
H13 C11 1_555 1_555
H14 C11 1_555 1_555
H15 C11 1_555 1_555
H16 C12 1_555 1_555
H17 C12 1_555 1_555
H18 C12 1_555 1_555
H19 C14 1_555 1_555
H20 C14 1_555 1_555
H21 C14 1_555 1_555
H22 C15 1_555 1_555
H23 C15 1_555 1_555
H24 C16 1_555 1_555
H25 C16 1_555 1_555
H26 C16 1_555 1_555
C8 C9 1_555 1_555

#END
