
#######################################################################
#
#                 Cambridge Crystallographic Data Centre
#                                CCDC 
#
#######################################################################
#
# If this CIF has been generated from an entry in the Cambridge 
# Structural Database, then it will include bibliographic, chemical, 
# crystal, experimental, refinement or atomic coordinate data resulting 
# from the CCDC's data processing and validation procedures.
#
#######################################################################

data_MEXPAJ
_chemical_formula_moiety         'C19 H23 Cl1 F1 N1 O4 S1'
_chemical_name_systematic        
5-chloro-2-fluoro-N-(methylsulfonyl)-4-[(tricyclo[3.3.1.1^3,7^]decan-1-yl)methoxy]benzamide
_symmetry_cell_setting           monoclinic
_symmetry_space_group_name_H-M   'P 21/c'
_symmetry_Int_Tables_number      14
_space_group_name_Hall           '-P 2ybc'
loop_
_symmetry_equiv_pos_site_id
_symmetry_equiv_pos_as_xyz
1 x,y,z
2 -x,1/2+y,1/2-z
3 -x,-y,-z
4 x,1/2-y,1/2+z
_cell_length_a                   22.010(5)
_cell_length_b                   9.223(2)
_cell_length_c                   9.454(2)
_cell_angle_alpha                90
_cell_angle_beta                 100.101(5)
_cell_angle_gamma                90
_cell_volume                     1889.4
_exptl_crystal_colour            colorless
_exptl_crystal_description       plate
_cell_formula_units_Z            4
loop_
_atom_site_label
_atom_site_type_symbol
_atom_site_fract_x
_atom_site_fract_y
_atom_site_fract_z
C1 C 0.17004(15) 0.9364(3) -0.1406(4)
C2 C 0.16829(15) 0.9325(4) -0.3022(4)
H1 H 0.1739 0.8315 -0.3330
H2 H 0.2025 0.9918 -0.3266
C3 C 0.10670(15) 0.9912(3) -0.3815(4)
H3 H 0.1060 0.9871 -0.4875
C4 C 0.05382(16) 0.9005(4) -0.3435(4)
H4 H 0.0140 0.9386 -0.3949
H5 H 0.0580 0.7989 -0.3743
C5 C 0.05482(16) 0.9054(4) -0.1822(4)
H6 H 0.0204 0.8452 -0.1572
C6 C 0.11666(14) 0.8481(4) -0.1042(4)
H7 H 0.1175 0.8516 0.0008
H8 H 0.1214 0.7456 -0.1315
C7 C 0.16202(15) 1.0940(3) -0.0957(4)
H9 H 0.1963 1.1537 -0.1191
H10 H 0.1632 1.0988 0.0093
C8 C 0.10003(16) 1.1542(4) -0.1748(4)
H11 H 0.0952 1.2570 -0.1452
C9 C 0.09945(16) 1.1475(4) -0.3359(4)
H12 H 0.0601 1.1875 -0.3881
H13 H 0.1336 1.2070 -0.3602
C10 C 0.04777(15) 1.0630(3) -0.1364(4)
H14 H 0.0077 1.1019 -0.1857
H15 H 0.0485 1.0673 -0.0315
C11 C 0.23079(15) 0.8843(3) -0.0562(4)
H16 H 0.2647 0.9474 -0.0759
H17 H 0.2297 0.8884 0.0480
C12 C 0.27900(14) 0.6540(3) -0.0033(4)
C13 C 0.31244(14) 0.7038(4) 0.1250(4)
H18 H 0.3124 0.8039 0.1485
C14 C 0.34552(15) 0.6071(4) 0.2175(3)
C15 C 0.34977(14) 0.4600(4) 0.1881(4)
C16 C 0.31762(14) 0.4133(4) 0.0566(4)
H19 H 0.3197 0.3141 0.0309
C17 C 0.28307(14) 0.5063(3) -0.0367(3)
C18 C 0.38682(15) 0.3616(4) 0.2950(4)
C19 C 0.52490(13) 0.2464(4) 0.4235(4)
H20 H 0.5547 0.1841 0.4844
H21 H 0.5073 0.3156 0.4837
H22 H 0.5457 0.2993 0.3558
N1 N 0.41915(11) 0.2569(3) 0.2320(3)
H23 H 0.4143 0.2527 0.1377
O1 O 0.24119(9) 0.7367(2) -0.0982(2)
O2 O 0.38932(11) 0.3704(3) 0.4215(3)
O3 O 0.49018(10) 0.0549(2) 0.2256(2)
O4 O 0.43344(10) 0.0714(2) 0.4278(3)
F1 F 0.37668(8) 0.6607(2) 0.3418(2)
S1 S 0.46632(4) 0.14020(9) 0.32861(10)
Cl1 Cl 0.24243(4) 0.44238(9) -0.19768(10)
loop_
_geom_bond_atom_site_label_1
_geom_bond_atom_site_label_2
_geom_bond_site_symmetry_1
_geom_bond_site_symmetry_2
C1 C2 1_555 1_555
C2 H1 1_555 1_555
H2 C2 1_555 1_555
C3 C2 1_555 1_555
H3 C3 1_555 1_555
C4 C3 1_555 1_555
H4 C4 1_555 1_555
H5 C4 1_555 1_555
C5 C4 1_555 1_555
H6 C5 1_555 1_555
C6 C1 1_555 1_555
H7 C6 1_555 1_555
H8 C6 1_555 1_555
C7 C1 1_555 1_555
H9 C7 1_555 1_555
H10 C7 1_555 1_555
C8 C7 1_555 1_555
H11 C8 1_555 1_555
C9 C3 1_555 1_555
H12 C9 1_555 1_555
H13 C9 1_555 1_555
C10 C5 1_555 1_555
H14 C10 1_555 1_555
H15 C10 1_555 1_555
C11 C1 1_555 1_555
H16 C11 1_555 1_555
H17 C11 1_555 1_555
C12 C13 1_555 1_555
C13 H18 1_555 1_555
C14 C13 1_555 1_555
C15 C14 1_555 1_555
C16 C15 1_555 1_555
H19 C16 1_555 1_555
C17 C12 1_555 1_555
C18 C15 1_555 1_555
C19 H20 1_555 1_555
H21 C19 1_555 1_555
H22 C19 1_555 1_555
N1 C18 1_555 1_555
H23 N1 1_555 1_555
O1 C11 1_555 1_555
O2 C18 1_555 1_555
O3 S1 1_555 1_555
O4 S1 1_555 1_555
F1 C14 1_555 1_555
S1 C19 1_555 1_555
Cl1 C17 1_555 1_555
C5 C6 1_555 1_555
C8 C9 1_555 1_555
C8 C10 1_555 1_555
C12 O1 1_555 1_555
C16 C17 1_555 1_555
N1 S1 1_555 1_555

#END
