
#######################################################################
#
#                 Cambridge Crystallographic Data Centre
#                                CCDC 
#
#######################################################################
#
# If this CIF has been generated from an entry in the Cambridge 
# Structural Database, then it will include bibliographic, chemical, 
# crystal, experimental, refinement or atomic coordinate data resulting 
# from the CCDC's data processing and validation procedures.
#
#######################################################################

data_MEXQEN
_chemical_formula_moiety         'C26 H16 F4 O2'
_chemical_name_systematic        
7,8,9,10-Tetrafluoro-23-isopropylidenehexacyclo[14.6.1.0^2,15^.0^4,13^.0^6,11^.0^17,22^]tricosa-4(13),5,7,9,11,17,19,21-octaene-3,14-dione
_symmetry_cell_setting           monoclinic
_symmetry_space_group_name_H-M   'P 21/c'
_symmetry_Int_Tables_number      14
_space_group_name_Hall           '-P 2ybc'
loop_
_symmetry_equiv_pos_site_id
_symmetry_equiv_pos_as_xyz
1 x,y,z
2 -x,1/2+y,1/2-z
3 -x,-y,-z
4 x,1/2-y,1/2+z
_cell_length_a                   13.4350(4)
_cell_length_b                   7.7445(3)
_cell_length_c                   19.5752(7)
_cell_angle_alpha                90
_cell_angle_beta                 109.436(2)
_cell_angle_gamma                90
_cell_volume                     1920.68
_exptl_crystal_colour            colorless
_exptl_crystal_description       prism
_cell_formula_units_Z            4
loop_
_atom_site_label
_atom_site_type_symbol
_atom_site_fract_x
_atom_site_fract_y
_atom_site_fract_z
F1 F 0.18951(9) 0.78549(15) 0.12150(6)
F2 F 0.00946(9) 0.61862(14) 0.11638(6)
F3 F -0.15683(9) 0.61120(14) -0.00741(6)
F4 F -0.14753(8) 0.76937(15) -0.12833(6)
O1 O 0.38243(9) 1.15409(16) -0.00120(6)
O2 O 0.06064(9) 1.13771(17) -0.24548(6)
C1 C 0.41686(13) 0.9809(2) -0.13757(9)
H1 H 0.4911 0.9857 -0.1067
C2 C 0.35751(13) 0.8164(2) -0.13418(9)
C3 C 0.27029(13) 0.8102(2) -0.19765(9)
C4 C 0.27553(13) 0.9684(2) -0.24160(9)
H2 H 0.2374 0.9618 -0.2938
C5 C 0.24804(13) 1.1269(2) -0.20048(9)
H3 H 0.2478 1.2323 -0.2282
C6 C 0.34354(13) 1.1334(2) -0.12867(9)
H4 H 0.3808 1.2431 -0.1264
C7 C 0.19355(14) 0.6841(2) -0.20760(10)
H5 H 0.1351 0.68 -0.2497
C8 C 0.20710(15) 0.5636(2) -0.15223(12)
H6 H 0.1564 0.4783 -0.1574
C9 C 0.29393(16) 0.5683(2) -0.08996(11)
H7 H 0.3012 0.4853 -0.0542
C10 C 0.37121(14) 0.6959(2) -0.07974(10)
H8 H 0.4298 0.6995 -0.0378
C11 C 0.39483(13) 0.9905(2) -0.21894(9)
C12 C 0.45918(14) 1.0036(2) -0.25784(10)
C13 C 0.57719(14) 1.0110(3) -0.22335(11)
H9 H 0.5955 1.0042 -0.1717
H10 H 0.603 1.1176 -0.2361
H11 H 0.6085 0.9158 -0.2403
C14 C 0.41974(16) 1.0072(3) -0.33963(10)
H12 H 0.344 1.006 -0.3571
H13 H 0.4457 0.9078 -0.3577
H14 H 0.4445 1.1102 -0.3561
C15 C 0.31916(13) 1.1098(2) -0.05912(9)
C16 C 0.21059(14) 0.9479(2) -0.00112(9)
H15 H 0.2673 0.9533 0.0419
C17 C 0.10775(15) 0.7794(2) 0.05913(10)
C18 C 0.01819(15) 0.6967(2) 0.05721(10)
C19 C -0.06826(15) 0.6928(2) -0.00732(10)
C20 C -0.06285(14) 0.7707(2) -0.06822(10)
C21 C 0.03866(14) 0.9384(2) -0.13077(9)
H16 H -0.0183 0.9376 -0.1737
C22 C 0.13952(13) 1.1013(2) -0.19503(9)
C23 C 0.21814(13) 1.0243(2) -0.06266(9)
C24 C 0.11747(14) 0.8617(2) -0.00284(9)
C25 C 0.03021(13) 0.8566(2) -0.06848(9)
C26 C 0.13112(13) 1.0193(2) -0.12797(9)
loop_
_geom_bond_atom_site_label_1
_geom_bond_atom_site_label_2
_geom_bond_site_symmetry_1
_geom_bond_site_symmetry_2
F1 C17 1_555 1_555
F2 C18 1_555 1_555
F3 C19 1_555 1_555
F4 C20 1_555 1_555
O1 C15 1_555 1_555
O2 C22 1_555 1_555
C1 H1 1_555 1_555
C2 C1 1_555 1_555
C3 C2 1_555 1_555
C4 C3 1_555 1_555
H2 C4 1_555 1_555
C5 C4 1_555 1_555
H3 C5 1_555 1_555
C6 C1 1_555 1_555
H4 C6 1_555 1_555
C7 C3 1_555 1_555
H5 C7 1_555 1_555
C8 C7 1_555 1_555
H6 C8 1_555 1_555
C9 C8 1_555 1_555
H7 C9 1_555 1_555
C10 C2 1_555 1_555
H8 C10 1_555 1_555
C11 C1 1_555 1_555
C12 C11 1_555 1_555
C13 C12 1_555 1_555
H9 C13 1_555 1_555
H10 C13 1_555 1_555
H11 C13 1_555 1_555
C14 C12 1_555 1_555
H12 C14 1_555 1_555
H13 C14 1_555 1_555
H14 C14 1_555 1_555
C15 C6 1_555 1_555
C16 H15 1_555 1_555
C17 C18 1_555 1_555
C18 C19 1_555 1_555
C19 C20 1_555 1_555
C20 C25 1_555 1_555
C21 H16 1_555 1_555
C22 C5 1_555 1_555
C23 C15 1_555 1_555
C24 C16 1_555 1_555
C25 C21 1_555 1_555
C26 C21 1_555 1_555
C4 C11 1_555 1_555
C5 C6 1_555 1_555
C9 C10 1_555 1_555
C16 C23 1_555 1_555
C17 C24 1_555 1_555
C22 C26 1_555 1_555
C23 C26 1_555 1_555
C24 C25 1_555 1_555

#END
