
#######################################################################
#
#                 Cambridge Crystallographic Data Centre
#                                CCDC 
#
#######################################################################
#
# If this CIF has been generated from an entry in the Cambridge 
# Structural Database, then it will include bibliographic, chemical, 
# crystal, experimental, refinement or atomic coordinate data resulting 
# from the CCDC's data processing and validation procedures.
#
#######################################################################

data_MEXQOY
_chemical_compound_source        'Lactobacillus plantarum LBP-K10'
_chemical_formula_moiety         'C10 H16 N2 O2'
_chemical_name_systematic        
(R,R)-3-isopropylhexahydropyrrolo[1,2-a]pyrazine-1,4-dione
_symmetry_cell_setting           orthorhombic
_symmetry_space_group_name_H-M   'P 21 21 21'
_symmetry_Int_Tables_number      19
_space_group_name_Hall           'P 2ac 2ab'
loop_
_symmetry_equiv_pos_site_id
_symmetry_equiv_pos_as_xyz
1 x,y,z
2 1/2-x,-y,1/2+z
3 -x,1/2+y,1/2-z
4 1/2+x,1/2-y,-z
_cell_length_a                   5.6240(11)
_cell_length_b                   10.257(2)
_cell_length_c                   34.240(7)
_cell_angle_alpha                90
_cell_angle_beta                 90
_cell_angle_gamma                90
_cell_volume                     1975.15
_exptl_crystal_colour            colorless
_exptl_crystal_description       needle
_cell_formula_units_Z            8
_chemical_properties_physical    Moisture-sensitive
loop_
_atom_site_label
_atom_site_type_symbol
_atom_site_fract_x
_atom_site_fract_y
_atom_site_fract_z
O1 O 0.56824(19) 0.77759(9) 0.77681(2)
O2 O -0.05389(14) 0.43766(7) 0.83591(2)
N1 N 0.32369(18) 0.60574(9) 0.76777(2)
N2 N 0.24087(15) 0.58493(8) 0.84605(2)
H1 H 0.203(3) 0.5862(17) 0.8723(5)
C1 C 0.4541(2) 0.68518(10) 0.79007(3)
C2 C 0.2771(2) 0.62961(11) 0.72617(3)
H2 H 0.3769 0.5737 0.7092
H3 H 0.3020 0.7222 0.7191
C3 C 0.0062(5) 0.5902(2) 0.72390(6)
H4 H -0.0969 0.6623 0.7330
H5 H -0.0394 0.5665 0.6969
C4 C -0.0119(10) 0.4713(3) 0.75144(13)
H6 H -0.1687 0.4688 0.7646
H7 H 0.0111 0.3889 0.7368
C5 C 0.18998(18) 0.49205(9) 0.78138(3)
H8 H 0.2983 0.4150 0.7795
C6 C 0.11477(17) 0.50366(9) 0.82359(3)
C7 C 0.45716(17) 0.65350(9) 0.83390(3)
H9 H 0.5959 0.5951 0.8391
C8 C 0.49218(18) 0.77936(9) 0.85761(3)
H10 H 0.6250 0.8288 0.8450
C9 C 0.2723(2) 0.86627(10) 0.85603(3)
H11 H 0.3082 0.9505 0.8682
H12 H 0.1416 0.8242 0.8701
H13 H 0.2260 0.8800 0.8287
C10 C 0.5676(2) 0.75102(11) 0.89968(3)
H14 H 0.4397 0.7044 0.9132
H15 H 0.6001 0.8333 0.9132
H16 H 0.7116 0.6972 0.8996
O3 O 0.31623(13) 0.29341(7) 0.96538(2)
O4 O 1.06921(14) 0.57796(7) 0.92809(2)
N3 N 0.59547(14) 0.44288(7) 0.98293(2)
N4 N 0.84015(15) 0.39796(7) 0.91703(2)
H21 H 0.881(3) 0.3983(15) 0.8917(4)
C13 C 0.51692(17) 0.34079(8) 0.96207(3)
C14 C 0.45076(17) 0.51963(8) 1.01004(3)
H22 H 0.3540 0.4626 1.0271
H23 H 0.3444 0.5802 0.9959
C15 C 0.63835(17) 0.59369(9) 1.03347(3)
H24 H 0.6979 0.5408 1.0556
H25 H 0.5746 0.6771 1.0436
C16 C 0.83354(17) 0.61687(9) 1.00307(3)
H26 H 0.7904 0.6887 0.9851
H27 H 0.9874 0.6374 1.0157
C17 C 0.84405(16) 0.48643(8) 0.98162(3)
H28 H 0.9453 0.4242 0.9968
C18 C 0.93086(16) 0.49207(8) 0.93961(3)
C19 C 0.70782(16) 0.28854(8) 0.93409(3)
H29 H 0.8225 0.2362 0.9500
C20 C 0.60523(17) 0.19843(9) 0.90273(3)
H30 H 0.5050 0.1319 0.9163
C21 C 0.44479(19) 0.27068(10) 0.87390(3)
H31 H 0.5400 0.3328 0.8588
H32 H 0.3210 0.3178 0.8883
H33 H 0.3705 0.2078 0.8561
C22 C 0.8037(2) 0.12544(10) 0.88152(3)
H34 H 0.8969 0.1871 0.8659
H35 H 0.7341 0.0593 0.8643
H36 H 0.9074 0.0831 0.9007
C11? C 0.0888(9) 0.5436(5) 0.71560(11)
H17? H 0.1513 0.4653 0.7022
H18? H -0.0264 0.5878 0.6982
C12? C -0.026(2) 0.5076(9) 0.7539(3)
H19? H -0.1159 0.4251 0.7516
H20? H -0.1335 0.5774 0.7631
loop_
_geom_bond_atom_site_label_1
_geom_bond_atom_site_label_2
_geom_bond_site_symmetry_1
_geom_bond_site_symmetry_2
O1 C1 1_555 1_555
O2 C6 1_555 1_555
N1 C1 1_555 1_555
N2 H1 1_555 1_555
C1 C7 1_555 1_555
C2 N1 1_555 1_555
H2 C2 1_555 1_555
H3 C2 1_555 1_555
C3 C2 1_555 1_555
H4 C3 1_555 1_555
H5 C3 1_555 1_555
C4 C3 1_555 1_555
H6 C4 1_555 1_555
H7 C4 1_555 1_555
C5 N1 1_555 1_555
H8 C5 1_555 1_555
C6 N2 1_555 1_555
C7 N2 1_555 1_555
H9 C7 1_555 1_555
C8 C7 1_555 1_555
H10 C8 1_555 1_555
C9 C8 1_555 1_555
H11 C9 1_555 1_555
H12 C9 1_555 1_555
H13 C9 1_555 1_555
C10 C8 1_555 1_555
H14 C10 1_555 1_555
H15 C10 1_555 1_555
H16 C10 1_555 1_555
O3 C13 1_555 1_555
O4 C18 1_555 1_555
N3 C13 1_555 1_555
N4 H21 1_555 1_555
C13 C19 1_555 1_555
C14 N3 1_555 1_555
H22 C14 1_555 1_555
H23 C14 1_555 1_555
C15 C14 1_555 1_555
H24 C15 1_555 1_555
H25 C15 1_555 1_555
C16 C15 1_555 1_555
H26 C16 1_555 1_555
H27 C16 1_555 1_555
C17 N3 1_555 1_555
H28 C17 1_555 1_555
C18 N4 1_555 1_555
C19 N4 1_555 1_555
H29 C19 1_555 1_555
C20 C19 1_555 1_555
H30 C20 1_555 1_555
C21 C20 1_555 1_555
H31 C21 1_555 1_555
H32 C21 1_555 1_555
H33 C21 1_555 1_555
C22 C20 1_555 1_555
H34 C22 1_555 1_555
H35 C22 1_555 1_555
H36 C22 1_555 1_555
C4 C5 1_555 1_555
C5 C6 1_555 1_555
C16 C17 1_555 1_555
C17 C18 1_555 1_555

#END
