
#######################################################################
#
#                 Cambridge Crystallographic Data Centre
#                                CCDC 
#
#######################################################################
#
# If this CIF has been generated from an entry in the Cambridge 
# Structural Database, then it will include bibliographic, chemical, 
# crystal, experimental, refinement or atomic coordinate data resulting 
# from the CCDC's data processing and validation procedures.
#
#######################################################################

data_MEYBUN
_chemical_formula_moiety         'C13 H22 Si2'
_chemical_name_systematic        1,1-bis(Trimethylsilylethynyl)cyclopropane
_symmetry_cell_setting           monoclinic
_symmetry_space_group_name_H-M   'C 2/c'
_symmetry_Int_Tables_number      15
_space_group_name_Hall           '-C 2yn'
loop_
_symmetry_equiv_pos_site_id
_symmetry_equiv_pos_as_xyz
1 x,y,z
2 1/2+x,1/2+y,z
3 x,-y,1/2+z
4 1/2+x,1/2-y,1/2+z
5 -x,-y,-z
6 1/2-x,1/2-y,-z
7 -x,y,1/2-z
8 1/2-x,1/2+y,1/2-z
_cell_length_a                   26.362(8)
_cell_length_b                   5.8094(16)
_cell_length_c                   21.384(5)
_cell_angle_alpha                90
_cell_angle_beta                 103.89(2)
_cell_angle_gamma                90
_cell_volume                     3179.14
_exptl_crystal_colour            colorless
_exptl_crystal_description       cylindrical
_chemical_melting_point          44-46deg.C
_cell_formula_units_Z            8
loop_
_atom_site_label
_atom_site_type_symbol
_atom_site_fract_x
_atom_site_fract_y
_atom_site_fract_z
Si1 Si 0.150900(15) 0.05436(7) 0.90149(2)
Si2 Si 0.430680(15) 0.05419(7) 0.86779(2)
C1 C 0.28062(5) 0.4440(2) 0.84656(6)
C2 C 0.26439(6) 0.6009(3) 0.78767(7)
H1 H 0.2267 0.6059 0.7669
H2 H 0.2860 0.5966 0.7587
C3 C 0.28240(5) 0.7063(2) 0.85224(7)
H3 H 0.3157 0.7702 0.8618
H4 H 0.2561 0.7761 0.8725
C4 C 0.23925(5) 0.3239(2) 0.86698(6)
C5 C 0.20414(5) 0.2228(3) 0.88224(7)
C6 C 0.32960(5) 0.3211(2) 0.85490(6)
C7 C 0.36997(5) 0.2171(3) 0.86033(7)
C8 C 0.17752(9) -0.1180(4) 0.97501(9)
H5 H 0.2001 -0.2318 0.9712
H6 H 0.1956 -0.0075 1.0105
H7 H 0.1501 -0.1819 0.9885
C9 C 0.09904(9) 0.2553(4) 0.91233(16)
H8 H 0.0893 0.3706 0.8829
H9 H 0.0724 0.1623 0.9279
H10 H 0.1166 0.3266 0.9514
C10 C 0.12462(7) -0.1407(3) 0.83261(8)
H11 H 0.1505 -0.2447 0.8249
H12 H 0.0959 -0.2236 0.8374
H13 H 0.1147 -0.0531 0.7947
C11 C 0.42445(10) -0.1269(4) 0.79476(10)
H14 H 0.4004 -0.2385 0.7912
H15 H 0.4155 -0.0448 0.7607
H16 H 0.4584 -0.1960 0.7943
C12 C 0.48541(7) 0.2624(4) 0.87813(16)
H17 H 0.4843 0.3674 0.9085
H18 H 0.5203 0.1792 0.8819
H19 H 0.4787 0.3473 0.8362
C13 C 0.44066(6) -0.1368(3) 0.93945(8)
H20 H 0.4403 -0.0449 0.9772
H21 H 0.4153 -0.2527 0.9320
H22 H 0.4739 -0.2073 0.9454
loop_
_geom_bond_atom_site_label_1
_geom_bond_atom_site_label_2
_geom_bond_site_symmetry_1
_geom_bond_site_symmetry_2
Si1 C5 1_555 1_555
Si2 C7 1_555 1_555
C1 C2 1_555 1_555
C2 H1 1_555 1_555
H2 C2 1_555 1_555
C3 C1 1_555 1_555
H3 C3 1_555 1_555
H4 C3 1_555 1_555
C4 C1 1_555 1_555
C5 C4 1_555 1_555
C6 C1 1_555 1_555
C7 C6 1_555 1_555
C8 Si1 1_555 1_555
H5 C8 1_555 1_555
H6 C8 1_555 1_555
H7 C8 1_555 1_555
C9 Si1 1_555 1_555
H8 C9 1_555 1_555
H9 C9 1_555 1_555
H10 C9 1_555 1_555
C10 Si1 1_555 1_555
H11 C10 1_555 1_555
H12 C10 1_555 1_555
H13 C10 1_555 1_555
C11 Si2 1_555 1_555
H14 C11 1_555 1_555
H15 C11 1_555 1_555
H16 C11 1_555 1_555
C12 Si2 1_555 1_555
H17 C12 1_555 1_555
H18 C12 1_555 1_555
H19 C12 1_555 1_555
C13 Si2 1_555 1_555
H20 C13 1_555 1_555
H21 C13 1_555 1_555
H22 C13 1_555 1_555
C2 C3 1_555 1_555

#END
