
#######################################################################
#
#                 Cambridge Crystallographic Data Centre
#                                CCDC 
#
#######################################################################
#
# If this CIF has been generated from an entry in the Cambridge 
# Structural Database, then it will include bibliographic, chemical, 
# crystal, experimental, refinement or atomic coordinate data resulting 
# from the CCDC's data processing and validation procedures.
#
#######################################################################

data_MEYCUQ
_chemical_formula_moiety         'C10 H14 N2 O1 S1'
_chemical_name_systematic        N-Isopropyl-2-(methylsulfanyl)nicotinamide
_symmetry_cell_setting           monoclinic
_symmetry_space_group_name_H-M   'P 21/c'
_symmetry_Int_Tables_number      14
_space_group_name_Hall           '-P 2ybc'
loop_
_symmetry_equiv_pos_site_id
_symmetry_equiv_pos_as_xyz
1 x,y,z
2 -x,1/2+y,1/2-z
3 -x,-y,-z
4 x,1/2-y,1/2+z
_cell_length_a                   11.42(2)
_cell_length_b                   8.580(19)
_cell_length_c                   23.61(5)
_cell_angle_alpha                90
_cell_angle_beta                 94.15(3)
_cell_angle_gamma                90
_cell_volume                     2307.33
_exptl_crystal_colour            colorless
_exptl_crystal_description       plate
_cell_formula_units_Z            8
loop_
_atom_site_label
_atom_site_type_symbol
_atom_site_fract_x
_atom_site_fract_y
_atom_site_fract_z
S1 S 0.60559(16) 0.3799(2) 0.37711(6)
O1 O 0.3807(4) 0.2214(5) 0.39115(18)
N1 N 0.2371(5) 0.4063(6) 0.3933(2)
H1 H 0.2086 0.4931 0.3780
N2 N 0.5566(5) 0.5227(6) 0.2767(2)
C1 C 0.3330(6) 0.3455(7) 0.3729(2)
C2 C 0.1751(6) 0.3348(8) 0.4410(3)
H2 H 0.1850 0.2191 0.4398
C3 C 0.5072(6) 0.4513(7) 0.3210(2)
C4 C 0.3849(6) 0.4327(7) 0.3244(3)
C5 C 0.3125(6) 0.4980(8) 0.2806(3)
H3 H 0.2296 0.4918 0.2816
C6 C 0.3611(6) 0.5724(8) 0.2352(3)
H4 H 0.3122 0.6172 0.2052
C7 C 0.4819(6) 0.5794(7) 0.2350(3)
H5 H 0.5143 0.6274 0.2034
C8 C 0.7443(7) 0.4600(10) 0.3566(3)
H6 H 0.7634 0.4142 0.3204
H7 H 0.8067 0.4355 0.3859
H8 H 0.7372 0.5733 0.3525
C9 C 0.0452(6) 0.3729(9) 0.4337(3)
H9 H 0.0343 0.4857 0.4370
H10 H 0.0042 0.3197 0.4632
H11 H 0.0133 0.3378 0.3962
C10 C 0.2312(7) 0.3956(9) 0.4979(3)
H12 H 0.3156 0.3735 0.5004
H13 H 0.1950 0.3436 0.5292
H14 H 0.2187 0.5083 0.5003
S2 S -0.04296(18) 0.8929(2) 0.40668(8)
O2 O 0.1648(4) 0.7202(5) 0.3693(2)
N3 N 0.3119(5) 0.9004(6) 0.3819(2)
H15 H 0.3328 0.9970 0.3751
N4 N -0.0650(5) 1.0966(7) 0.3200(2)
C11 C 0.2044(6) 0.8554(7) 0.3633(3)
C12 C 0.3975(6) 0.7991(7) 0.4128(3)
H16 H 0.3786 0.6885 0.4024
C13 C 0.0103(6) 0.9958(7) 0.3477(3)
C14 C 0.1274(6) 0.9771(7) 0.3327(3)
C15 C 0.1687(7) 1.0629(8) 0.2883(3)
H17 H 0.2475 1.0522 0.2784
C16 C 0.0905(7) 1.1664(8) 0.2583(3)
H18 H 0.1150 1.2278 0.2278
C17 C -0.0235(7) 1.1754(9) 0.2749(3)
H19 H -0.0769 1.2411 0.2534
C18 C -0.1738(8) 1.0040(11) 0.4210(4)
H20 H -0.2127 0.9546 0.4520
H21 H -0.2278 1.0065 0.3867
H22 H -0.1513 1.1107 0.4318
C19 C 0.5220(6) 0.8371(8) 0.3944(3)
H23 H 0.5404 0.9467 0.4026
H24 H 0.5245 0.8182 0.3535
H25 H 0.5798 0.7704 0.4153
C20 C 0.3868(7) 0.8189(9) 0.4767(3)
H26 H 0.3070 0.7916 0.4859
H27 H 0.4032 0.9275 0.4875
H28 H 0.4433 0.7503 0.4976
loop_
_geom_bond_atom_site_label_1
_geom_bond_atom_site_label_2
_geom_bond_site_symmetry_1
_geom_bond_site_symmetry_2
S1 C3 1_555 1_555
O1 C1 1_555 1_555
N1 H1 1_555 1_555
N2 C3 1_555 1_555
C1 N1 1_555 1_555
C2 N1 1_555 1_555
H2 C2 1_555 1_555
C3 C4 1_555 1_555
C4 C1 1_555 1_555
C5 C4 1_555 1_555
H3 C5 1_555 1_555
C6 C5 1_555 1_555
H4 C6 1_555 1_555
C7 N2 1_555 1_555
H5 C7 1_555 1_555
C8 S1 1_555 1_555
H6 C8 1_555 1_555
H7 C8 1_555 1_555
H8 C8 1_555 1_555
C9 C2 1_555 1_555
H9 C9 1_555 1_555
H10 C9 1_555 1_555
H11 C9 1_555 1_555
C10 C2 1_555 1_555
H12 C10 1_555 1_555
H13 C10 1_555 1_555
H14 C10 1_555 1_555
S2 C13 1_555 1_555
O2 C11 1_555 1_555
N3 H15 1_555 1_555
N4 C13 1_555 1_555
C11 N3 1_555 1_555
C12 N3 1_555 1_555
H16 C12 1_555 1_555
C13 C14 1_555 1_555
C14 C11 1_555 1_555
C15 C14 1_555 1_555
H17 C15 1_555 1_555
C16 C15 1_555 1_555
H18 C16 1_555 1_555
C17 N4 1_555 1_555
H19 C17 1_555 1_555
C18 S2 1_555 1_555
H20 C18 1_555 1_555
H21 C18 1_555 1_555
H22 C18 1_555 1_555
C19 C12 1_555 1_555
H23 C19 1_555 1_555
H24 C19 1_555 1_555
H25 C19 1_555 1_555
C20 C12 1_555 1_555
H26 C20 1_555 1_555
H27 C20 1_555 1_555
H28 C20 1_555 1_555
C6 C7 1_555 1_555
C16 C17 1_555 1_555

#END
