
#######################################################################
#
#                 Cambridge Crystallographic Data Centre
#                                CCDC 
#
#######################################################################
#
# If this CIF has been generated from an entry in the Cambridge 
# Structural Database, then it will include bibliographic, chemical, 
# crystal, experimental, refinement or atomic coordinate data resulting 
# from the CCDC's data processing and validation procedures.
#
#######################################################################

data_MEYCUR
_chemical_formula_moiety         'C18 H17 Cl1 N2 O1'
_chemical_name_systematic        
5-(3-chloro-4,5-dimethylphenyl)-1-methyl-1,3-dihydro-2H-1,4-benzodiazepin-2-one
_symmetry_cell_setting           triclinic
_symmetry_space_group_name_H-M   'P -1'
_symmetry_Int_Tables_number      2
_space_group_name_Hall           '-P 1'
loop_
_symmetry_equiv_pos_site_id
_symmetry_equiv_pos_as_xyz
1 x,y,z
2 -x,-y,-z
_cell_length_a                   8.075(4)
_cell_length_b                   8.096(4)
_cell_length_c                   13.744(6)
_cell_angle_alpha                94.419(12)
_cell_angle_beta                 104.016(11)
_cell_angle_gamma                113.589(11)
_cell_volume                     783.48
_exptl_crystal_colour            colorless
_exptl_crystal_description       block
_cell_formula_units_Z            2
_exptl_crystal_recrystallization_method 
'Re-crystallisation from solvent: dichloromethane/hexane'
loop_
_atom_site_label
_atom_site_type_symbol
_atom_site_fract_x
_atom_site_fract_y
_atom_site_fract_z
Cl1 Cl 0.2669(10) 1.2987(6) 0.4546(5)
C1 C 0.269(5) 0.708(4) 0.5958(19)
H1 H 0.2846 0.5991 0.5726
H2 H 0.1570 0.6713 0.6195
H3 H 0.3817 0.7905 0.6521
O1 O 0.6210(5) 0.8238(5) 0.0695(3)
N1 N 0.4491(6) 0.5906(6) 0.1351(3)
N2 N 0.3122(6) 0.8711(6) 0.1727(3)
C2 C 0.2417(6) 0.8281(6) 0.3290(4)
C3 C 0.1755(6) 0.5533(6) 0.1954(3)
C4 C 0.2427(6) 0.7359(6) 0.4086(4)
H4 H 0.2412 0.6178 0.3982
C5 C 0.2471(7) 1.0009(6) 0.3462(4)
H5 H 0.2460 1.0672 0.2921
C6 C 0.2471(6) 0.7543(6) 0.2281(4)
C7 C 0.2538(7) 1.0779(6) 0.4402(4)
C8 C 0.0066(7) 0.4329(7) 0.2092(4)
H6 H -0.0604 0.4820 0.2410
C9 C 0.2719(7) 0.4771(7) 0.1486(3)
C10 C 0.2458(6) 0.8110(7) 0.5051(4)
C11 C 0.2539(6) 0.9872(7) 0.5227(4)
C12 C 0.4735(7) 0.7393(7) 0.0894(4)
C13 C 0.0301(7) 0.1728(7) 0.1326(4)
H7 H -0.0193 0.0436 0.1107
C14 C 0.2003(7) 0.2892(7) 0.1187(4)
H8 H 0.2680 0.2388 0.0884
C15 C -0.0669(7) 0.2460(7) 0.1785(4)
H9 H -0.1831 0.1677 0.1887
C16 C 0.3155(8) 0.7968(7) 0.0745(4)
H10 H 0.3340 0.8908 0.0311
H11 H 0.1931 0.6896 0.0396
C17 C 0.2591(8) 1.0724(8) 0.6238(4)
H12 H 0.3400 1.2049 0.6375
H13 H 0.3102 1.0173 0.6772
H14 H 0.1306 1.0514 0.6232
C18 C 0.6037(7) 0.5344(8) 0.1589(5)
H15 H 0.5999 0.4749 0.2183
H16 H 0.7253 0.6428 0.1742
H17 H 0.5891 0.4479 0.1000
C19? C 0.251(5) 1.268(3) 0.466(2)
H18? H 0.1228 1.2486 0.4660
H19? H 0.2869 1.3406 0.4144
H20? H 0.3402 1.3340 0.5336
Cl2? Cl 0.240(2) 0.6834(16) 0.5953(6)
loop_
_geom_bond_atom_site_label_1
_geom_bond_atom_site_label_2
_geom_bond_site_symmetry_1
_geom_bond_site_symmetry_2
Cl1 C7 1_555 1_555
C1 H1 1_555 1_555
H2 C1 1_555 1_555
H3 C1 1_555 1_555
O1 C12 1_555 1_555
N1 C9 1_555 1_555
N2 C6 1_555 1_555
C2 C4 1_555 1_555
C3 C6 1_555 1_555
C4 H4 1_555 1_555
C5 C2 1_555 1_555
H5 C5 1_555 1_555
C6 C2 1_555 1_555
C7 C5 1_555 1_555
C8 C3 1_555 1_555
H6 C8 1_555 1_555
C9 C3 1_555 1_555
C10 C1 1_555 1_555
C11 C7 1_555 1_555
C12 N1 1_555 1_555
C13 H7 1_555 1_555
C14 C9 1_555 1_555
H8 C14 1_555 1_555
C15 C8 1_555 1_555
H9 C15 1_555 1_555
C16 N2 1_555 1_555
H10 C16 1_555 1_555
H11 C16 1_555 1_555
C17 C11 1_555 1_555
H12 C17 1_555 1_555
H13 C17 1_555 1_555
H14 C17 1_555 1_555
C18 N1 1_555 1_555
H15 C18 1_555 1_555
H16 C18 1_555 1_555
H17 C18 1_555 1_555
C4 C10 1_555 1_555
C10 C11 1_555 1_555
C12 C16 1_555 1_555
C13 C14 1_555 1_555
C13 C15 1_555 1_555

#END
