
#######################################################################
#
#                 Cambridge Crystallographic Data Centre
#                                CCDC 
#
#######################################################################
#
# If this CIF has been generated from an entry in the Cambridge 
# Structural Database, then it will include bibliographic, chemical, 
# crystal, experimental, refinement or atomic coordinate data resulting 
# from the CCDC's data processing and validation procedures.
#
#######################################################################

data_MEYDOJ
_chemical_formula_moiety         'C22 H16 F1 N3 S1'
_chemical_name_systematic        
4-(4-Fluorophenyl)-5-methyl-6-(phenylsulfanyl)-2,3-benzo-1,3a,6a-triazapentalene
_symmetry_cell_setting           triclinic
_symmetry_space_group_name_H-M   'P -1'
_symmetry_Int_Tables_number      2
_space_group_name_Hall           '-P 1'
loop_
_symmetry_equiv_pos_site_id
_symmetry_equiv_pos_as_xyz
1 x,y,z
2 -x,-y,-z
_cell_length_a                   9.534(9)
_cell_length_b                   9.721(9)
_cell_length_c                   10.832(9)
_cell_angle_alpha                69.17(8)
_cell_angle_beta                 72.98(9)
_cell_angle_gamma                88.83(9)
_cell_volume                     893.259
_exptl_crystal_colour            'pale yellow'
_chemical_melting_point          173-175deg.C
_cell_formula_units_Z            2
loop_
_atom_site_label
_atom_site_type_symbol
_atom_site_fract_x
_atom_site_fract_y
_atom_site_fract_z
S1 S 0.30600(18) 0.20700(15) 0.16973(15)
C1 C 0.5373(6) -0.3165(6) 0.2480(5)
C2 C 0.6864(7) -0.3116(7) 0.2297(6)
C3 C 0.7523(8) -0.4380(8) 0.2812(7)
C4 C 0.6651(8) -0.5683(7) 0.3499(7)
C5 C 0.5177(8) -0.5798(7) 0.3688(6)
C6 C 0.4540(7) -0.4522(6) 0.3177(6)
C7 C 0.4640(5) -0.1807(5) 0.2008(5)
C8 C 0.4682(6) -0.0494(6) 0.2224(5)
C9 C 0.5614(8) -0.0044(8) 0.2931(8)
C10 C 0.3604(6) 0.0340(6) 0.1749(6)
C11 C 0.1837(5) -0.1563(5) 0.0353(5)
C12 C 0.2894(5) -0.2490(6) 0.0773(5)
C13 C 0.3144(7) -0.3796(6) 0.0526(6)
C14 C 0.2278(7) -0.4163(7) -0.0147(6)
C15 C 0.1184(7) -0.3285(7) -0.0533(6)
C16 C 0.0952(7) -0.1997(7) -0.0295(6)
C17 C 0.2035(6) 0.1796(6) 0.3428(5)
C18 C 0.1299(8) 0.2954(8) 0.3648(8)
C19 C 0.0547(9) 0.2867(10) 0.4970(10)
C20 C 0.0536(9) 0.1606(12) 0.6073(8)
C21 C 0.1227(8) 0.0438(11) 0.5864(7)
C22 C 0.1979(7) 0.0519(8) 0.4551(6)
F1 F 0.7283(5) -0.6950(5) 0.4021(5)
N1 N 0.3556(4) -0.1770(4) 0.1389(4)
N2 N 0.2915(5) -0.0463(5) 0.1246(4)
N3 N 0.1858(5) -0.0306(5) 0.0629(4)
H1 H 0.745(6) -0.221(6) 0.177(6)
H2 H 0.859(7) -0.434(6) 0.268(6)
H3 H 0.467(6) -0.679(7) 0.418(6)
H4 H 0.351(5) -0.454(5) 0.331(4)
H5 H 0.657(9) -0.022(8) 0.270(8)
H6 H 0.577(10) 0.100(11) 0.256(10)
H7 H 0.519(10) -0.037(9) 0.390(10)
H8 H 0.388(6) -0.439(6) 0.077(5)
H9 H 0.241(6) -0.511(7) -0.026(6)
H10 H 0.058(7) -0.361(6) -0.100(6)
H11 H 0.023(6) -0.144(6) -0.051(5)
H12 H 0.135(7) 0.378(7) 0.291(7)
H13 H 0.001(9) 0.363(9) 0.510(9)
H14 H -0.001(7) 0.153(7) 0.699(8)
H15 H 0.118(7) -0.033(8) 0.661(8)
H16 H 0.245(6) -0.030(6) 0.442(6)
loop_
_geom_bond_atom_site_label_1
_geom_bond_atom_site_label_2
_geom_bond_site_symmetry_1
_geom_bond_site_symmetry_2
S1 C10 1_555 1_555
C1 C2 1_555 1_555
C2 C3 1_555 1_555
C3 C4 1_555 1_555
C4 C5 1_555 1_555
C5 C6 1_555 1_555
C6 C1 1_555 1_555
C7 C1 1_555 1_555
C8 C7 1_555 1_555
C9 C8 1_555 1_555
C10 C8 1_555 1_555
C11 C12 1_555 1_555
C12 C13 1_555 1_555
C13 C14 1_555 1_555
C14 C15 1_555 1_555
C15 C16 1_555 1_555
C16 C11 1_555 1_555
C17 S1 1_555 1_555
C18 C17 1_555 1_555
C19 C18 1_555 1_555
C20 C19 1_555 1_555
C21 C20 1_555 1_555
C22 C17 1_555 1_555
F1 C4 1_555 1_555
N1 C7 1_555 1_555
N2 C10 1_555 1_555
N3 C11 1_555 1_555
H1 C2 1_555 1_555
H2 C3 1_555 1_555
H3 C5 1_555 1_555
H4 C6 1_555 1_555
H5 C9 1_555 1_555
H6 C9 1_555 1_555
H7 C9 1_555 1_555
H8 C13 1_555 1_555
H9 C14 1_555 1_555
H10 C15 1_555 1_555
H11 C16 1_555 1_555
H12 C18 1_555 1_555
H13 C19 1_555 1_555
H14 C20 1_555 1_555
H15 C21 1_555 1_555
H16 C22 1_555 1_555
C12 N1 1_555 1_555
C21 C22 1_555 1_555
N1 N2 1_555 1_555
N2 N3 1_555 1_555

#END
