
#######################################################################
#
#                 Cambridge Crystallographic Data Centre
#                                CCDC 
#
#######################################################################
#
# If this CIF has been generated from an entry in the Cambridge 
# Structural Database, then it will include bibliographic, chemical, 
# crystal, experimental, refinement or atomic coordinate data resulting 
# from the CCDC's data processing and validation procedures.
#
#######################################################################

data_MEYGIJ
_chemical_formula_moiety         'C16 H15 N3 O2,0.5(H2 O1)'
_chemical_name_systematic        
'2-amino-N-[2-(4,5-dihydro-1,3-oxazol-2-yl)phenyl]benzamide hemihydrate'
_symmetry_cell_setting           orthorhombic
_symmetry_space_group_name_H-M   'F d d 2'
_symmetry_Int_Tables_number      43
_space_group_name_Hall           'F 2 -2d'
loop_
_symmetry_equiv_pos_site_id
_symmetry_equiv_pos_as_xyz
1 x,y,z
2 -x,-y,z
3 1/4+x,1/4-y,1/4+z
4 1/4-x,1/4+y,1/4+z
5 x,1/2+y,1/2+z
6 -x,1/2-y,1/2+z
7 1/4+x,3/4-y,3/4+z
8 1/4-x,3/4+y,3/4+z
9 1/2+x,y,1/2+z
10 1/2-x,-y,1/2+z
11 3/4+x,1/4-y,3/4+z
12 3/4-x,1/4+y,3/4+z
13 1/2+x,1/2+y,z
14 1/2-x,1/2-y,z
15 3/4+x,3/4-y,1/4+z
16 3/4-x,3/4+y,1/4+z
_cell_length_a                   29.697(4)
_cell_length_b                   33.356(5)
_cell_length_c                   5.4539(8)
_cell_angle_alpha                90
_cell_angle_beta                 90
_cell_angle_gamma                90
_cell_volume                     5402.49
_exptl_crystal_colour            colorless
_exptl_crystal_description       block
_cell_formula_units_Z            16
loop_
_atom_site_label
_atom_site_type_symbol
_atom_site_fract_x
_atom_site_fract_y
_atom_site_fract_z
O1 O 0.44217(7) 0.63272(7) -0.1272(4)
O2 O 0.34560(8) 0.74402(7) 0.6582(5)
N1 N 0.38244(8) 0.69290(8) 0.4684(5)
H1 H 0.3866 0.6668 0.4701
N2 N 0.40825(9) 0.62472(8) 0.2391(6)
N3 N 0.30274(10) 0.72957(9) 1.0752(6)
H2 H 0.3198 0.7439 0.9798
C1 C 0.42527(10) 0.64867(10) 0.0823(6)
C2 C 0.42870(10) 0.69244(9) 0.1028(7)
C3 C 0.35261(9) 0.70742(10) 0.6358(6)
C4 C 0.40755(9) 0.71427(10) 0.2929(6)
C5 C 0.30395(10) 0.69035(10) 0.9975(7)
C6 C 0.32594(10) 0.63667(9) 0.7226(7)
H3 H 0.3418 0.6277 0.5817
C7 C 0.32797(10) 0.67764(9) 0.7859(6)
C8 C 0.45387(9) 0.71305(10) -0.0731(6)
H4 H 0.4683 0.6984 -0.2004
C9 C 0.41241(10) 0.75578(10) 0.3008(6)
H5 H 0.3987 0.7707 0.4293
C10 C 0.27861(11) 0.62212(11) 1.0644(7)
H6 H 0.2617 0.6035 1.1585
C11 C 0.43718(10) 0.77549(11) 0.1217(8)
H7 H 0.4397 0.8039 0.1276
C12 C 0.28005(10) 0.66151(10) 1.1324(7)
H8 H 0.2644 0.6697 1.2757
C13 C 0.45824(10) 0.75458(10) -0.0654(6)
H9 H 0.4754 0.7683 -0.1862
C14 C 0.41328(12) 0.58381(10) 0.1411(7)
H10 H 0.3835 0.5709 0.1187
H11 H 0.4318 0.5671 0.2522
C15 C 0.30184(11) 0.60933(11) 0.8576(7)
H12 H 0.3011 0.5819 0.8101
C16 C 0.43683(13) 0.58975(10) -0.1047(8)
H13 H 0.4665 0.5762 -0.1062
H14 H 0.4183 0.5790 -0.2405
H15 H 0.2849(14) 0.7286(8) 1.239(6)
O3 O 0.2500 0.7500 0.5445(8)
H16? H 0.2756 0.7451 0.6074
H17? H 0.2296 0.7388 0.6296
loop_
_geom_bond_atom_site_label_1
_geom_bond_atom_site_label_2
_geom_bond_site_symmetry_1
_geom_bond_site_symmetry_2
O1 C1 1_555 1_555
O2 C3 1_555 1_555
N1 H1 1_555 1_555
N2 C1 1_555 1_555
N3 H2 1_555 1_555
C1 C2 1_555 1_555
C2 C4 1_555 1_555
C3 N1 1_555 1_555
C4 N1 1_555 1_555
C5 N3 1_555 1_555
C6 H3 1_555 1_555
C7 C3 1_555 1_555
C8 C2 1_555 1_555
H4 C8 1_555 1_555
C9 C4 1_555 1_555
H5 C9 1_555 1_555
C10 H6 1_555 1_555
C11 C9 1_555 1_555
H7 C11 1_555 1_555
C12 C5 1_555 1_555
H8 C12 1_555 1_555
C13 C8 1_555 1_555
H9 C13 1_555 1_555
C14 N2 1_555 1_555
H10 C14 1_555 1_555
H11 C14 1_555 1_555
C15 C6 1_555 1_555
H12 C15 1_555 1_555
C16 O1 1_555 1_555
H13 C16 1_555 1_555
H14 C16 1_555 1_555
H15 N3 1_555 1_555
C5 C7 1_555 1_555
C6 C7 1_555 1_555
C10 C12 1_555 1_555
C10 C15 1_555 1_555
C11 C13 1_555 1_555
C14 C16 1_555 1_555

#END
