
#######################################################################
#
#                 Cambridge Crystallographic Data Centre
#                                CCDC 
#
#######################################################################
#
# If this CIF has been generated from an entry in the Cambridge 
# Structural Database, then it will include bibliographic, chemical, 
# crystal, experimental, refinement or atomic coordinate data resulting 
# from the CCDC's data processing and validation procedures.
#
#######################################################################

data_MEYGOP
_chemical_formula_moiety         'C22 H20 N4 O2'
_chemical_name_systematic        
2-amino-N-[2-(4-methyl-4,5-dihydro-1,3-oxazol-2-yl)phenyl]-4-(pyridin-2-yl)benzamide
_symmetry_cell_setting           monoclinic
_symmetry_space_group_name_H-M   'P 21'
_symmetry_Int_Tables_number      4
_space_group_name_Hall           'P 2yb'
loop_
_symmetry_equiv_pos_site_id
_symmetry_equiv_pos_as_xyz
1 x,y,z
2 -x,1/2+y,-z
_cell_length_a                   12.646(2)
_cell_length_b                   8.4619(16)
_cell_length_c                   17.452(3)
_cell_angle_alpha                90
_cell_angle_beta                 90.459(5)
_cell_angle_gamma                90
_cell_volume                     1867.46
_cell_formula_units_Z            4
loop_
_atom_site_label
_atom_site_type_symbol
_atom_site_fract_x
_atom_site_fract_y
_atom_site_fract_z
O1 O 0.3592(3) 0.4514(4) 0.01270(18)
O2 O 0.0652(3) 0.1030(4) 0.25535(19)
N1 N 0.2839(3) 0.3427(5) 0.1170(2)
H1 H 0.2904 0.3317 0.1658
N2 N 0.2244(3) 0.2236(5) 0.2525(2)
C1 C 0.3585(4) 0.4344(6) 0.0832(3)
N3 N 0.5271(4) 0.6343(6) 0.0245(2)
H2 H 0.5789 0.5788 0.0070
H3 H 0.4693 0.6065 0.0015
C2 C 0.4383(4) 0.5090(5) 0.1336(3)
C3 C 0.5107(4) 0.5650(6) 0.2607(3)
H4 H 0.5074 0.5507 0.3135
C4 C 0.5180(4) 0.6050(6) 0.1013(3)
C5 C 0.1977(4) 0.2634(6) 0.0832(3)
C6 C 0.1284(4) 0.1805(6) 0.1318(3)
C7 C 0.6683(4) 0.7437(6) 0.2785(3)
N4 N 0.6400(4) 0.7697(6) 0.3524(3)
C8 C 0.1444(4) 0.1734(6) 0.2148(3)
C9 C 0.4384(4) 0.4924(6) 0.2135(3)
H5 H 0.3869 0.4290 0.2356
C10 C 0.5912(4) 0.6782(6) 0.1508(3)
H6 H 0.6434 0.7416 0.1295
C11 C 0.5894(4) 0.6604(6) 0.2295(3)
C12 C 0.2091(4) 0.1781(6) 0.3337(3)
H7 H 0.2540 0.0868 0.3456
C13 C 0.1784(4) 0.2638(7) 0.0050(3)
H8 H 0.2225 0.3200 -0.0275
C14 C 0.7633(4) 0.7935(7) 0.2498(3)
H9 H 0.7810 0.7730 0.1992
C15 C 0.0926(4) 0.1267(7) 0.3351(3)
H10 H 0.0842 0.0296 0.3640
H11 H 0.0487 0.2080 0.3577
C16 C 0.8314(5) 0.8737(7) 0.2969(4)
H12 H 0.8962 0.9079 0.2783
C17 C 0.0255(4) 0.0984(8) 0.0219(3)
H13 H -0.0318 0.0436 0.0012
C18 C 0.0435(4) 0.0983(7) 0.0996(3)
H14 H -0.0018 0.0424 0.1313
C19 C 0.7105(6) 0.8494(8) 0.3973(4)
H15 H 0.6933 0.8673 0.4483
C20 C 0.8046(6) 0.9042(8) 0.3715(4)
H16 H 0.8498 0.9609 0.4035
C21 C 0.0928(4) 0.1801(8) -0.0249(3)
H17 H 0.0810 0.1796 -0.0776
C22 C 0.2363(5) 0.3118(7) 0.3880(3)
H18 H 0.3098 0.3382 0.3831
H19 H 0.2225 0.2795 0.4397
H20 H 0.1939 0.4026 0.3757
O3 O 0.5503(3) 0.1330(5) 0.2540(2)
O4 O 0.8614(3) 0.4832(5) 0.48889(19)
N5 N 0.7756(3) 0.3822(5) 0.3855(2)
H21 H 0.7772 0.3755 0.3363
N6 N 0.6982(3) 0.2809(5) 0.2517(2)
C23 C 1.0174(4) 0.6305(6) 0.3940(3)
C24 C 0.6890(4) 0.3068(6) 0.4214(3)
C25 C 0.6158(4) 0.2242(6) 0.3750(3)
N7 N 1.0234(4) 0.6739(7) 0.4704(2)
H22 H 1.0397 0.7724 0.4733
H23 H 0.9626 0.6588 0.4909
C26 C 1.0939(4) 0.6509(6) 0.2672(3)
C27 C 0.8558(4) 0.4630(6) 0.4185(3)
C28 C 1.0919(4) 0.6897(6) 0.3438(3)
H24 H 1.1429 0.7590 0.3627
C29 C 1.2593(4) 0.7950(6) 0.2472(3)
H25 H 1.2701 0.7946 0.3000
C30 C 1.0185(4) 0.5418(6) 0.2395(3)
H26 H 1.0194 0.5104 0.1885
C31 C 0.6274(4) 0.2170(6) 0.2916(3)
C32 C 0.9440(4) 0.4825(6) 0.2880(3)
H27 H 0.8946 0.4113 0.2686
C33 C 0.9387(4) 0.5244(6) 0.3665(3)
C34 C 0.6751(4) 0.2462(6) 0.1698(3)
H28 H 0.6530 0.3438 0.1440
C35 C 1.1734(4) 0.7236(6) 0.2153(3)
N8 N 1.1535(4) 0.7206(6) 0.1378(3)
C36 C 0.5808(4) 0.1338(7) 0.1745(3)
H29 H 0.5230 0.1709 0.1423
H30 H 0.6007 0.0285 0.1580
C37 C 0.6752(4) 0.3100(8) 0.5003(3)
H31 H 0.7228 0.3645 0.5314
C38 C 1.3290(4) 0.8668(7) 0.1997(4)
H32 H 1.3889 0.9146 0.2205
C39 C 0.7694(4) 0.1789(7) 0.1296(3)
H33 H 0.8257 0.2551 0.1300
H34 H 0.7505 0.1540 0.0776
H35 H 0.7923 0.0847 0.1554
C40 C 1.2272(7) 0.7952(9) 0.0921(4)
H36 H 1.2179 0.7941 0.0391
C41 C 0.5902(5) 0.2317(8) 0.5326(4)
H37 H 0.5822 0.2327 0.5856
C42 C 0.5315(4) 0.1493(8) 0.4098(3)
H38 H 0.4827 0.0952 0.3796
C43 C 1.3134(6) 0.8706(8) 0.1228(5)
H39 H 1.3606 0.9236 0.0913
C44 C 0.5179(5) 0.1529(9) 0.4880(4)
H40 H 0.4604 0.1025 0.5102
loop_
_geom_bond_atom_site_label_1
_geom_bond_atom_site_label_2
_geom_bond_site_symmetry_1
_geom_bond_site_symmetry_2
O1 C1 1_555 1_555
O2 C8 1_555 1_555
N1 H1 1_555 1_555
N2 C8 1_555 1_555
C1 N1 1_555 1_555
N3 H2 1_555 1_555
H3 N3 1_555 1_555
C2 C1 1_555 1_555
C3 H4 1_555 1_555
C4 N3 1_555 1_555
C5 N1 1_555 1_555
C6 C5 1_555 1_555
C7 N4 1_555 1_555
N4 C19 1_555 1_555
C8 C6 1_555 1_555
C9 C2 1_555 1_555
H5 C9 1_555 1_555
C10 C4 1_555 1_555
H6 C10 1_555 1_555
C11 C3 1_555 1_555
C12 N2 1_555 1_555
H7 C12 1_555 1_555
C13 C5 1_555 1_555
H8 C13 1_555 1_555
C14 C7 1_555 1_555
H9 C14 1_555 1_555
C15 O2 1_555 1_555
H10 C15 1_555 1_555
H11 C15 1_555 1_555
C16 C14 1_555 1_555
H12 C16 1_555 1_555
C17 H13 1_555 1_555
C18 C6 1_555 1_555
H14 C18 1_555 1_555
C19 H15 1_555 1_555
C20 C16 1_555 1_555
H16 C20 1_555 1_555
C21 C13 1_555 1_555
H17 C21 1_555 1_555
C22 C12 1_555 1_555
H18 C22 1_555 1_555
H19 C22 1_555 1_555
H20 C22 1_555 1_555
O3 C31 1_555 1_555
O4 C27 1_555 1_555
N5 H21 1_555 1_555
N6 C31 1_555 1_555
C23 N7 1_555 1_555
C24 N5 1_555 1_555
C25 C24 1_555 1_555
N7 H22 1_555 1_555
H23 N7 1_555 1_555
C26 C28 1_555 1_555
C27 N5 1_555 1_555
C28 C23 1_555 1_555
H24 C28 1_555 1_555
C29 H25 1_555 1_555
C30 C26 1_555 1_555
H26 C30 1_555 1_555
C31 C25 1_555 1_555
C32 C30 1_555 1_555
H27 C32 1_555 1_555
C33 C23 1_555 1_555
C34 N6 1_555 1_555
H28 C34 1_555 1_555
C35 C26 1_555 1_555
N8 C35 1_555 1_555
C36 O3 1_555 1_555
H29 C36 1_555 1_555
H30 C36 1_555 1_555
C37 C24 1_555 1_555
H31 C37 1_555 1_555
C38 C29 1_555 1_555
H32 C38 1_555 1_555
C39 C34 1_555 1_555
H33 C39 1_555 1_555
H34 C39 1_555 1_555
H35 C39 1_555 1_555
C40 N8 1_555 1_555
H36 C40 1_555 1_555
C41 C37 1_555 1_555
H37 C41 1_555 1_555
C42 C25 1_555 1_555
H38 C42 1_555 1_555
C43 C38 1_555 1_555
H39 C43 1_555 1_555
C44 C41 1_555 1_555
H40 C44 1_555 1_555
C2 C4 1_555 1_555
C3 C9 1_555 1_555
C7 C11 1_555 1_555
C10 C11 1_555 1_555
C12 C15 1_555 1_555
C17 C18 1_555 1_555
C17 C21 1_555 1_555
C19 C20 1_555 1_555
C27 C33 1_555 1_555
C29 C35 1_555 1_555
C32 C33 1_555 1_555
C34 C36 1_555 1_555
C40 C43 1_555 1_555
C42 C44 1_555 1_555

#END
