
#######################################################################
#
#                 Cambridge Crystallographic Data Centre
#                                CCDC 
#
#######################################################################
#
# If this CIF has been generated from an entry in the Cambridge 
# Structural Database, then it will include bibliographic, chemical, 
# crystal, experimental, refinement or atomic coordinate data resulting 
# from the CCDC's data processing and validation procedures.
#
#######################################################################

data_MEYJUY
_chemical_formula_moiety         'C30 H21 Cl3 N6 O3'
_chemical_name_systematic        
2,3',7'-tris(4-chlorophenyl)-1',5,9'-trimethyl-3',7'-dihydrospiro[pyrazole-4,5'-pyrazolo[4',3':6,7][1,3]dioxepino[4,5-c]pyrazol]-3(2H)-one
_symmetry_cell_setting           triclinic
_symmetry_space_group_name_H-M   'P -1'
_symmetry_Int_Tables_number      2
_space_group_name_Hall           '-P 1'
loop_
_symmetry_equiv_pos_site_id
_symmetry_equiv_pos_as_xyz
1 x,y,z
2 -x,-y,-z
_cell_length_a                   10.368(2)
_cell_length_b                   10.972(2)
_cell_length_c                   12.930(3)
_cell_angle_alpha                74.892(9)
_cell_angle_beta                 81.376(9)
_cell_angle_gamma                81.737(10)
_cell_volume                     1395.53
_exptl_crystal_colour            colorless
_exptl_crystal_description       Prism
_cell_formula_units_Z            2
loop_
_atom_site_label
_atom_site_type_symbol
_atom_site_fract_x
_atom_site_fract_y
_atom_site_fract_z
Cl1 Cl 1.08735(4) 0.66499(4) 0.19539(3)
Cl2 Cl 0.15285(4) 0.97562(4) 0.37641(3)
Cl3 Cl 0.97704(4) -0.01156(3) 1.16390(3)
O1 O 0.81773(10) 0.70343(10) 0.71074(8)
O2 O 0.51707(9) 0.67602(9) 0.77534(8)
O3 O 0.65300(9) 0.52134(9) 0.88255(7)
N1 N 0.74765(12) 0.58085(11) 0.61242(9)
N2 N 0.65501(12) 0.49182(11) 0.63003(9)
N3 N 0.48557(12) 0.89827(11) 0.72665(9)
N4 N 0.51140(13) 1.00096(12) 0.75858(10)
N5 N 0.76385(12) 0.52714(11) 1.02429(9)
N6 N 0.79325(12) 0.60961(11) 1.07877(9)
C1 C 0.79105(15) 0.57040(15) 0.42549(12)
H1 H 0.7110 0.5345 0.4333
C2 C 0.87069(16) 0.58948(15) 0.32785(12)
H2 H 0.8465 0.5658 0.2684
C3 C 0.98594(15) 0.64341(14) 0.31803(11)
C4 C 1.02314(15) 0.67866(14) 0.40268(12)
H3 H 1.1023 0.7163 0.3940
C5 C 0.94440(15) 0.65891(13) 0.50098(12)
H4 H 0.9693 0.6827 0.5601
C6 C 0.82888(14) 0.60411(13) 0.51212(11)
C7 C 0.74539(14) 0.63185(13) 0.69879(11)
C8 C 0.58970(14) 0.48709(13) 0.72291(11)
C9 C 0.62696(14) 0.58125(13) 0.77621(11)
C10 C 0.48328(15) 0.40563(14) 0.76860(12)
H5 H 0.4796 0.3493 0.7217
H6 H 0.3994 0.4589 0.7739
H7 H 0.5002 0.3545 0.8406
C11 C 0.40588(15) 0.91539(14) 0.64202(11)
C12 C 0.43644(16) 0.84207(15) 0.56733(12)
H8 H 0.5107 0.7799 0.5721
C13 C 0.35801(17) 0.86005(15) 0.48562(13)
H9 H 0.3773 0.8097 0.4344
C14 C 0.25139(16) 0.95204(14) 0.47939(13)
C15 C 0.22306(16) 1.02635(15) 0.55216(13)
H10 H 0.1503 1.0902 0.5461
C16 C 0.30056(16) 1.00817(15) 0.63447(13)
H11 H 0.2813 1.0591 0.6852
C17 C 0.53874(14) 0.79016(13) 0.78997(11)
C18 C 0.60307(14) 0.81764(13) 0.86487(11)
C19 C 0.58419(15) 0.95326(14) 0.83975(12)
C20 C 0.63624(16) 1.04816(14) 0.88305(13)
H12 H 0.6156 1.1337 0.8380
H13 H 0.7316 1.0290 0.8823
H14 H 0.5955 1.0439 0.9572
C21 C 0.67402(14) 0.71905(13) 0.94240(11)
C22 C 0.69321(14) 0.59134(13) 0.94311(11)
C23 C 0.73986(14) 0.72291(13) 1.03051(11)
C24 C 0.75507(16) 0.83148(14) 1.07614(12)
H15 H 0.7968 0.7991 1.1426
H16 H 0.6685 0.8763 1.0921
H17 H 0.8099 0.8901 1.0236
C25 C 0.81111(14) 0.39630(13) 1.05858(11)
C26 C 0.74268(14) 0.30128(13) 1.04788(11)
H18 H 0.6618 0.3225 1.0179
C27 C 0.79317(15) 0.17536(14) 1.08115(11)
H19 H 0.7478 0.1097 1.0730
C28 C 0.91000(15) 0.14581(13) 1.12626(11)
C29 C 0.97628(15) 0.24018(14) 1.14090(12)
H20 H 1.0548 0.2185 1.1743
C30 C 0.92705(14) 0.36558(14) 1.10648(11)
H21 H 0.9721 0.4310 1.1154
loop_
_geom_bond_atom_site_label_1
_geom_bond_atom_site_label_2
_geom_bond_site_symmetry_1
_geom_bond_site_symmetry_2
Cl1 C3 1_555 1_555
Cl2 C14 1_555 1_555
Cl3 C28 1_555 1_555
O1 C7 1_555 1_555
O2 C9 1_555 1_555
O3 C9 1_555 1_555
N1 N2 1_555 1_555
N2 C8 1_555 1_555
N3 N4 1_555 1_555
N4 C19 1_555 1_555
N5 N6 1_555 1_555
N6 C23 1_555 1_555
C1 H1 1_555 1_555
C2 C1 1_555 1_555
H2 C2 1_555 1_555
C3 C2 1_555 1_555
C4 C3 1_555 1_555
H3 C4 1_555 1_555
C5 C4 1_555 1_555
H4 C5 1_555 1_555
C6 N1 1_555 1_555
C7 N1 1_555 1_555
C8 C9 1_555 1_555
C9 C7 1_555 1_555
C10 C8 1_555 1_555
H5 C10 1_555 1_555
H6 C10 1_555 1_555
H7 C10 1_555 1_555
C11 N3 1_555 1_555
C12 C11 1_555 1_555
H8 C12 1_555 1_555
C13 C12 1_555 1_555
H9 C13 1_555 1_555
C14 C13 1_555 1_555
C15 C14 1_555 1_555
H10 C15 1_555 1_555
C16 C11 1_555 1_555
H11 C16 1_555 1_555
C17 O2 1_555 1_555
C18 C17 1_555 1_555
C19 C18 1_555 1_555
C20 C19 1_555 1_555
H12 C20 1_555 1_555
H13 C20 1_555 1_555
H14 C20 1_555 1_555
C21 C18 1_555 1_555
C22 O3 1_555 1_555
C23 C21 1_555 1_555
C24 C23 1_555 1_555
H15 C24 1_555 1_555
H16 C24 1_555 1_555
H17 C24 1_555 1_555
C25 N5 1_555 1_555
C26 C25 1_555 1_555
H18 C26 1_555 1_555
C27 C26 1_555 1_555
H19 C27 1_555 1_555
C28 C27 1_555 1_555
C29 C28 1_555 1_555
H20 C29 1_555 1_555
C30 C25 1_555 1_555
H21 C30 1_555 1_555
N3 C17 1_555 1_555
N5 C22 1_555 1_555
C1 C6 1_555 1_555
C5 C6 1_555 1_555
C15 C16 1_555 1_555
C21 C22 1_555 1_555
C29 C30 1_555 1_555

#END
