
#######################################################################
#
#                 Cambridge Crystallographic Data Centre
#                                CCDC 
#
#######################################################################
#
# If this CIF has been generated from an entry in the Cambridge 
# Structural Database, then it will include bibliographic, chemical, 
# crystal, experimental, refinement or atomic coordinate data resulting 
# from the CCDC's data processing and validation procedures.
#
#######################################################################

data_MEYJOS
_chemical_formula_moiety         'C30 H26 N6 O3,2(C2 H6 O1)'
_chemical_name_systematic        
"5,5',5''-trimethyl-2,2',2''-triphenyl-1H,1''H-4,4':4',4''-terpyrazole-3,3',3''(2H,2'H,2''H)-trione ethanol solvate"
_symmetry_cell_setting           monoclinic
_symmetry_space_group_name_H-M   'P 21/c'
_symmetry_Int_Tables_number      14
_space_group_name_Hall           '-P 2ybc'
loop_
_symmetry_equiv_pos_site_id
_symmetry_equiv_pos_as_xyz
1 x,y,z
2 -x,1/2+y,1/2-z
3 -x,-y,-z
4 x,1/2-y,1/2+z
_cell_length_a                   17.033(9)
_cell_length_b                   16.218(7)
_cell_length_c                   24.420(12)
_cell_angle_alpha                90
_cell_angle_beta                 106.728(6)
_cell_angle_gamma                90
_cell_volume                     6460.34
_exptl_crystal_colour            colorless
_exptl_crystal_description       Prism
_cell_formula_units_Z            8
loop_
_atom_site_label
_atom_site_type_symbol
_atom_site_fract_x
_atom_site_fract_y
_atom_site_fract_z
O1 O 0.05038(17) 0.52753(17) 0.27044(13)
O2 O -0.06349(16) 0.68281(17) 0.27059(13)
O3 O 0.14375(18) 0.82531(18) 0.42087(13)
N1 N 0.1741(2) 0.6311(2) 0.20319(16)
H1 H 0.199(2) 0.629(3) 0.1756(13)
N2 N 0.1313(2) 0.5617(2) 0.21096(16)
N3 N -0.00207(19) 0.6276(2) 0.36062(15)
N4 N 0.0785(2) 0.6202(2) 0.39880(16)
N5 N 0.0634(2) 0.9232(2) 0.28966(16)
H2 H 0.030(2) 0.9645(18) 0.2740(17)
N6 N 0.0954(2) 0.9249(2) 0.34934(15)
C1 C 0.0955(2) 0.5778(3) 0.25394(19)
C2 C 0.1176(2) 0.6597(3) 0.27236(19)
C3 C 0.1689(2) 0.6897(3) 0.24103(19)
C4 C 0.2153(3) 0.7691(3) 0.2437(2)
H3 H 0.2605 0.7609 0.2269
H4 H 0.2373 0.7864 0.2836
H5 H 0.1783 0.8118 0.2222
C5 C 0.1147(2) 0.4945(2) 0.1715(2)
C6 C 0.1266(3) 0.4144(3) 0.1930(2)
H6 H 0.1489 0.4055 0.2330
C7 C 0.1057(3) 0.3473(3) 0.1559(2)
H7 H 0.1127 0.2925 0.1703
C8 C 0.0746(3) 0.3620(3) 0.0977(2)
H8 H 0.0597 0.3167 0.0722
C9 C 0.0648(3) 0.4415(3) 0.0763(2)
H9 H 0.0448 0.4502 0.0362
C10 C 0.0841(3) 0.5088(3) 0.1132(2)
H10 H 0.0764 0.5635 0.0987
C11 C -0.0041(2) 0.6687(3) 0.3111(2)
C12 C 0.0857(2) 0.6988(3) 0.31838(19)
C13 C 0.1281(3) 0.6606(3) 0.3770(2)
C14 C 0.2177(3) 0.6603(3) 0.4043(2)
H11 H 0.2294 0.6380 0.4431
H12 H 0.2387 0.7167 0.4060
H13 H 0.2443 0.6258 0.3818
C15 C -0.0649(2) 0.5778(3) 0.3723(2)
C16 C -0.0585(3) 0.5566(3) 0.4287(2)
H14 H -0.0136 0.5758 0.4590
C17 C -0.1187(3) 0.5070(4) 0.4403(3)
H15 H -0.1141 0.4917 0.4787
C18 C -0.1846(3) 0.4799(3) 0.3968(2)
H16 H -0.2258 0.4468 0.4051
C19 C -0.1903(3) 0.5009(3) 0.3415(2)
H17 H -0.2356 0.4819 0.3115
C20 C -0.1303(3) 0.5501(3) 0.3284(2)
H18 H -0.1346 0.5641 0.2899
C21 C 0.1117(2) 0.8434(3) 0.3698(2)
C22 C 0.0853(2) 0.7916(3) 0.31868(18)
C23 C 0.0534(2) 0.8430(3) 0.27308(19)
C24 C 0.0090(3) 0.8270(3) 0.21142(19)
H19 H -0.0503 0.8295 0.2059
H20 H 0.0237 0.7723 0.2006
H21 H 0.0245 0.8689 0.1875
C25 C 0.1182(2) 1.0011(3) 0.37821(19)
C26 C 0.1402(3) 1.0064(3) 0.4377(2)
H22 H 0.1389 0.9586 0.4599
C27 C 0.1642(3) 1.0818(3) 0.4645(2)
H23 H 0.1798 1.0850 0.5050
C28 C 0.1657(3) 1.1521(3) 0.4328(2)
H24 H 0.1831 1.2031 0.4515
C29 C 0.1415(3) 1.1478(3) 0.3737(2)
H25 H 0.1410 1.1964 0.3518
C30 C 0.1180(2) 1.0727(3) 0.3459(2)
H26 H 0.1018 1.0701 0.3053
O4 O 0.36488(18) 0.13282(18) 0.08254(13)
O5 O 0.55785(16) 0.28111(17) 0.23041(13)
O6 O 0.44062(16) 0.43523(16) 0.22627(12)
N7 N 0.4128(2) 0.0346(2) 0.15448(15)
N8 N 0.4394(2) 0.0361(2) 0.21385(15)
H27 H 0.4782(18) -0.0005(19) 0.2305(17)
N9 N 0.4125(2) 0.3390(2) 0.10252(15)
N10 N 0.4934(2) 0.3354(2) 0.14069(15)
N11 N 0.3162(2) 0.3353(2) 0.29525(18)
H28 H 0.280(2) 0.341(3) 0.3151(17)
N12 N 0.3574(2) 0.4048(2) 0.28467(16)
C31 C 0.3944(2) 0.1151(3) 0.13451(19)
C32 C 0.4133(2) 0.1668(3) 0.18482(19)
C33 C 0.4447(2) 0.1160(3) 0.23104(19)
C34 C 0.4857(3) 0.1340(3) 0.29367(19)
H29 H 0.4622 0.0983 0.3173
H30 H 0.4767 0.1919 0.3017
H31 H 0.5447 0.1234 0.3025
C35 C 0.3953(2) -0.0418(3) 0.12530(19)
C36 C 0.3839(3) -0.0454(3) 0.0665(2)
H32 H 0.3877 0.0031 0.0456
C37 C 0.3670(3) -0.1213(3) 0.0389(2)
H33 H 0.3598 -0.1245 -0.0011
C38 C 0.3605(3) -0.1926(3) 0.0693(2)
H34 H 0.3475 -0.2438 0.0499
C39 C 0.3728(3) -0.1887(3) 0.1275(2)
H35 H 0.3692 -0.2374 0.1484
C40 C 0.3904(2) -0.1136(3) 0.1557(2)
H36 H 0.3992 -0.1111 0.1959
C41 C 0.4971(2) 0.2935(2) 0.19014(19)
C42 C 0.4090(2) 0.2608(3) 0.18328(18)
C43 C 0.3656(3) 0.2962(3) 0.1249(2)
C44 C 0.2754(3) 0.2899(3) 0.0968(2)
H37 H 0.2466 0.3301 0.1139
H38 H 0.2567 0.2341 0.1022
H39 H 0.2639 0.3012 0.0558
C45 C 0.5536(3) 0.3880(3) 0.1286(2)
C46 C 0.6243(3) 0.4090(3) 0.1716(2)
H40 H 0.6340 0.3876 0.2092
C47 C 0.6812(3) 0.4627(3) 0.1583(2)
H41 H 0.7295 0.4776 0.1873
C48 C 0.6680(3) 0.4939(3) 0.1041(2)
H42 H 0.7071 0.5297 0.0956
C49 C 0.5979(3) 0.4729(3) 0.0622(2)
H43 H 0.5881 0.4949 0.0248
C50 C 0.5406(3) 0.4194(3) 0.0745(2)
H44 H 0.4926 0.4047 0.0451
C51 C 0.3964(2) 0.3845(3) 0.24373(19)
C52 C 0.3759(2) 0.3015(3) 0.22813(19)
C53 C 0.3242(2) 0.2739(3) 0.25917(19)
C54 C 0.2794(3) 0.1955(3) 0.2598(2)
H45 H 0.3128 0.1592 0.2896
H46 H 0.2686 0.1685 0.2225
H47 H 0.2274 0.2072 0.2679
C55 C 0.3737(2) 0.4745(3) 0.3220(2)
C56 C 0.3647(2) 0.5529(3) 0.2977(2)
H48 H 0.3447 0.5590 0.2574
C57 C 0.3851(3) 0.6223(3) 0.3324(2)
H49 H 0.3791 0.6758 0.3159
C58 C 0.4141(3) 0.6127(3) 0.3912(2)
H50 H 0.4291 0.6599 0.4149
C59 C 0.4216(3) 0.5344(3) 0.4157(2)
H51 H 0.4404 0.5283 0.4561
C60 C 0.4012(3) 0.4651(3) 0.3805(2)
H52 H 0.4063 0.4115 0.3969
C61 C 0.1220(4) 0.7354(3) 0.5403(3)
H53 H 0.1035 0.7077 0.5026
H54 H 0.1700 0.7046 0.5640
C62 C 0.0590(5) 0.7309(4) 0.5665(4)
H55 H 0.0786 0.7526 0.6055
H56 H 0.0422 0.6733 0.5677
H57 H 0.0121 0.7635 0.5445
O7 O 0.1472(2) 0.8175(2) 0.53206(15)
H58 H 0.141(4) 0.823(4) 0.4964(7)
C63 C 0.4211(4) 0.2399(5) 0.9792(3)
H59 H 0.4736 0.2095 0.9922
H60 H 0.4204 0.2805 1.0093
C64 C 0.4207(4) 0.2835(4) 0.9296(3)
H61 H 0.4217 0.2445 0.8991
H62 H 0.4690 0.3192 0.9375
H63 H 0.3710 0.3173 0.9174
O8 O 0.3578(3) 0.1842(2) 0.97520(16)
H64 H 0.364(4) 0.159(3) 1.0069(14)
C65 C 0.1937(3) 0.4169(3) 0.3847(2)
H65 H 0.1571 0.4359 0.3476
H66 H 0.2342 0.4609 0.4002
C66 C 0.1434(4) 0.4010(4) 0.4258(3)
H67 H 0.1097 0.3516 0.4137
H68 H 0.1079 0.4485 0.4259
H69 H 0.1803 0.3925 0.4644
O9 O 0.23601(19) 0.3427(2) 0.37598(15)
H70 H 0.279(2) 0.339(3) 0.4049(15)
C67 C 0.2964(3) 0.5453(3) 0.1149(2)
H71 H 0.2509 0.5054 0.1015
H72 H 0.3341 0.5234 0.1508
C68 C 0.3417(3) 0.5523(3) 0.0707(2)
H73 H 0.3039 0.5710 0.0345
H74 H 0.3642 0.4983 0.0652
H75 H 0.3865 0.5921 0.0836
O10 O 0.2637(2) 0.62337(19) 0.12668(14)
H76 H 0.233(3) 0.643(3) 0.0958(13)
loop_
_geom_bond_atom_site_label_1
_geom_bond_atom_site_label_2
_geom_bond_site_symmetry_1
_geom_bond_site_symmetry_2
O1 C1 1_555 1_555
O2 C11 1_555 1_555
O3 C21 1_555 1_555
N1 H1 1_555 1_555
N2 N1 1_555 1_555
N3 N4 1_555 1_555
N4 C13 1_555 1_555
N5 H2 1_555 1_555
N6 N5 1_555 1_555
C1 N2 1_555 1_555
C2 C1 1_555 1_555
C3 N1 1_555 1_555
C4 C3 1_555 1_555
H3 C4 1_555 1_555
H4 C4 1_555 1_555
H5 C4 1_555 1_555
C5 N2 1_555 1_555
C6 C5 1_555 1_555
H6 C6 1_555 1_555
C7 C6 1_555 1_555
H7 C7 1_555 1_555
C8 C7 1_555 1_555
H8 C8 1_555 1_555
C9 C8 1_555 1_555
H9 C9 1_555 1_555
C10 C5 1_555 1_555
H10 C10 1_555 1_555
C11 N3 1_555 1_555
C12 C2 1_555 1_555
C13 C12 1_555 1_555
C14 C13 1_555 1_555
H11 C14 1_555 1_555
H12 C14 1_555 1_555
H13 C14 1_555 1_555
C15 N3 1_555 1_555
C16 C15 1_555 1_555
H14 C16 1_555 1_555
C17 C16 1_555 1_555
H15 C17 1_555 1_555
C18 C17 1_555 1_555
H16 C18 1_555 1_555
C19 C18 1_555 1_555
H17 C19 1_555 1_555
C20 C15 1_555 1_555
H18 C20 1_555 1_555
C21 N6 1_555 1_555
C22 C12 1_555 1_555
C23 N5 1_555 1_555
C24 C23 1_555 1_555
H19 C24 1_555 1_555
H20 C24 1_555 1_555
H21 C24 1_555 1_555
C25 N6 1_555 1_555
C26 C25 1_555 1_555
H22 C26 1_555 1_555
C27 C26 1_555 1_555
H23 C27 1_555 1_555
C28 C27 1_555 1_555
H24 C28 1_555 1_555
C29 C28 1_555 1_555
H25 C29 1_555 1_555
C30 C25 1_555 1_555
H26 C30 1_555 1_555
O4 C31 1_555 1_555
O5 C41 1_555 1_555
O6 C51 1_555 1_555
N7 N8 1_555 1_555
N8 H27 1_555 1_555
N9 N10 1_555 1_555
N10 C41 1_555 1_555
N11 H28 1_555 1_555
N12 N11 1_555 1_555
C31 N7 1_555 1_555
C32 C31 1_555 1_555
C33 N8 1_555 1_555
C34 C33 1_555 1_555
H29 C34 1_555 1_555
H30 C34 1_555 1_555
H31 C34 1_555 1_555
C35 N7 1_555 1_555
C36 C35 1_555 1_555
H32 C36 1_555 1_555
C37 C36 1_555 1_555
H33 C37 1_555 1_555
C38 C37 1_555 1_555
H34 C38 1_555 1_555
C39 C38 1_555 1_555
H35 C39 1_555 1_555
C40 C35 1_555 1_555
H36 C40 1_555 1_555
C41 C42 1_555 1_555
C42 C32 1_555 1_555
C43 N9 1_555 1_555
C44 C43 1_555 1_555
H37 C44 1_555 1_555
H38 C44 1_555 1_555
H39 C44 1_555 1_555
C45 N10 1_555 1_555
C46 C45 1_555 1_555
H40 C46 1_555 1_555
C47 C46 1_555 1_555
H41 C47 1_555 1_555
C48 C47 1_555 1_555
H42 C48 1_555 1_555
C49 C48 1_555 1_555
H43 C49 1_555 1_555
C50 C45 1_555 1_555
H44 C50 1_555 1_555
C51 N12 1_555 1_555
C52 C42 1_555 1_555
C53 N11 1_555 1_555
C54 C53 1_555 1_555
H45 C54 1_555 1_555
H46 C54 1_555 1_555
H47 C54 1_555 1_555
C55 N12 1_555 1_555
C56 C55 1_555 1_555
H48 C56 1_555 1_555
C57 C56 1_555 1_555
H49 C57 1_555 1_555
C58 C57 1_555 1_555
H50 C58 1_555 1_555
C59 C58 1_555 1_555
H51 C59 1_555 1_555
C60 C55 1_555 1_555
H52 C60 1_555 1_555
C61 H53 1_555 1_555
H54 C61 1_555 1_555
C62 C61 1_555 1_555
H55 C62 1_555 1_555
H56 C62 1_555 1_555
H57 C62 1_555 1_555
O7 C61 1_555 1_555
H58 O7 1_555 1_555
C63 H59 1_555 1_555
H60 C63 1_555 1_555
C64 C63 1_555 1_555
H61 C64 1_555 1_555
H62 C64 1_555 1_555
H63 C64 1_555 1_555
O8 C63 1_555 1_555
H64 O8 1_555 1_555
C65 H65 1_555 1_555
H66 C65 1_555 1_555
C66 C65 1_555 1_555
H67 C66 1_555 1_555
H68 C66 1_555 1_555
H69 C66 1_555 1_555
O9 C65 1_555 1_555
H70 O9 1_555 1_555
C67 H71 1_555 1_555
H72 C67 1_555 1_555
C68 C67 1_555 1_555
H73 C68 1_555 1_555
H74 C68 1_555 1_555
H75 C68 1_555 1_555
O10 C67 1_555 1_555
H76 O10 1_555 1_555
C2 C3 1_555 1_555
C9 C10 1_555 1_555
C11 C12 1_555 1_555
C19 C20 1_555 1_555
C21 C22 1_555 1_555
C22 C23 1_555 1_555
C29 C30 1_555 1_555
C32 C33 1_555 1_555
C39 C40 1_555 1_555
C42 C43 1_555 1_555
C49 C50 1_555 1_555
C51 C52 1_555 1_555
C52 C53 1_555 1_555
C59 C60 1_555 1_555

#END
