
#######################################################################
#
#                 Cambridge Crystallographic Data Centre
#                                CCDC 
#
#######################################################################
#
# If this CIF has been generated from an entry in the Cambridge 
# Structural Database, then it will include bibliographic, chemical, 
# crystal, experimental, refinement or atomic coordinate data resulting 
# from the CCDC's data processing and validation procedures.
#
#######################################################################

data_MEYNEM
_chemical_formula_moiety         'C20 H30 N6 O4'
_chemical_name_systematic        
"2,2'-(3,6-dimethylpyrazine-2,5-diyl)bis(4,4,5,5-tetramethyl-4,5-dihydro-1H-imidazole-3-oxide-1-oxyl radical)"
_symmetry_cell_setting           monoclinic
_symmetry_space_group_name_H-M   'P 21/n'
_symmetry_Int_Tables_number      14
_space_group_name_Hall           '-P 2yn'
loop_
_symmetry_equiv_pos_site_id
_symmetry_equiv_pos_as_xyz
1 x,y,z
2 1/2-x,1/2+y,1/2-z
3 -x,-y,-z
4 1/2+x,1/2-y,1/2+z
_cell_length_a                   6.659(4)
_cell_length_b                   14.937(9)
_cell_length_c                   10.868(6)
_cell_angle_alpha                90
_cell_angle_beta                 97.260(10)
_cell_angle_gamma                90
_cell_volume                     1072.32
_exptl_crystal_colour            purple
_exptl_crystal_description       block
_cell_formula_units_Z            2
loop_
_atom_site_label
_atom_site_type_symbol
_atom_site_fract_x
_atom_site_fract_y
_atom_site_fract_z
O1 O 0.8456(3) 0.50187(11) 0.81452(15)
N1 N 0.6927(3) 0.46265(12) 0.52401(16)
O2 O 0.3987(3) 0.27912(13) 0.67961(19)
C1 C 1.0175(3) 0.34576(15) 0.9499(2)
H1 H 1.0859 0.3313 0.8798
H2 H 1.0378 0.2984 1.0099
H3 H 1.0708 0.4006 0.9866
N2 N 0.7628(3) 0.42510(11) 0.80474(15)
N3 N 0.5514(3) 0.31781(13) 0.7386(2)
C2 C 0.5536(3) 0.45242(13) 0.60124(18)
C3 C 0.7919(3) 0.35667(13) 0.90753(17)
C4 C 0.6411(3) 0.51067(14) 0.42022(18)
C5 C 0.6201(3) 0.39856(15) 0.71407(19)
C6 C 0.6860(4) 0.27346(15) 0.8424(2)
C7 C 0.7957(4) 0.52084(18) 0.3327(2)
H4 H 0.9284 0.5227 0.3789
H5 H 0.7711 0.5754 0.2866
H6 H 0.7868 0.4710 0.2766
C8 C 0.6875(4) 0.39475(18) 1.0137(2)
H7 H 0.7448 0.4521 1.0377
H8 H 0.7069 0.3547 1.0833
H9 H 0.5453 0.4014 0.9869
C9 C 0.8317(6) 0.21236(18) 0.7817(3)
H10 H 0.7556 0.1671 0.7335
H11 H 0.9246 0.1845 0.8450
H12 H 0.9059 0.2474 0.7287
C10 C 0.5561(5) 0.2196(2) 0.9216(3)
H13 H 0.4503 0.2570 0.9454
H14 H 0.6388 0.1984 0.9945
H15 H 0.4975 0.1695 0.8747
O1B O 0.1544(3) 0.49813(11) 0.18548(15)
N1B N 0.3073(3) 0.53735(12) 0.47599(16)
O2B O 0.6013(3) 0.72088(13) 0.32039(19)
C1B C -0.0175(3) 0.65424(15) 0.0501(2)
H1B H -0.0859 0.6687 0.1202
H2B H -0.0378 0.7016 -0.0099
H3B H -0.0708 0.5994 0.0134
N2B N 0.2372(3) 0.57490(11) 0.19526(15)
N3B N 0.4486(3) 0.68219(13) 0.2614(2)
C2B C 0.4464(3) 0.54758(13) 0.39876(18)
C3B C 0.2081(3) 0.64333(13) 0.09247(17)
C4B C 0.3589(3) 0.48933(14) 0.57978(18)
C5B C 0.3799(3) 0.60144(15) 0.28593(19)
C6B C 0.3140(4) 0.72654(15) 0.1576(2)
C7B C 0.2043(4) 0.47916(18) 0.6673(2)
H4B H 0.0716 0.4773 0.6211
H5B H 0.2289 0.4246 0.7134
H6B H 0.2132 0.5290 0.7234
C8B C 0.3125(4) 0.60525(18) -0.0137(2)
H7B H 0.2552 0.5479 -0.0377
H8B H 0.2931 0.6453 -0.0833
H9B H 0.4547 0.5986 0.0131
C9B C 0.1683(6) 0.78764(18) 0.2183(3)
H10B H 0.2444 0.8329 0.2665
H11B H 0.0754 0.8155 0.1550
H12B H 0.0941 0.7526 0.2713
C10B C 0.4439(5) 0.7804(2) 0.0784(3)
H13B H 0.5497 0.7430 0.0546
H14B H 0.3612 0.8016 0.0055
H15B H 0.5025 0.8305 0.1253
loop_
_geom_bond_atom_site_label_1
_geom_bond_atom_site_label_2
_geom_bond_site_symmetry_1
_geom_bond_site_symmetry_2
O1 N2 1_555 1_555
N1 C2 1_555 1_555
O2 N3 1_555 1_555
C1 H1 1_555 1_555
H2 C1 1_555 1_555
H3 C1 1_555 1_555
N2 C3 1_555 1_555
N3 C5 1_555 1_555
C2 C5 1_555 1_555
C3 C1 1_555 1_555
C4 N1 1_555 1_555
C5 N2 1_555 1_555
C6 N3 1_555 1_555
C7 C4 1_555 1_555
H4 C7 1_555 1_555
H5 C7 1_555 1_555
H6 C7 1_555 1_555
C8 C3 1_555 1_555
H7 C8 1_555 1_555
H8 C8 1_555 1_555
H9 C8 1_555 1_555
C9 C6 1_555 1_555
H10 C9 1_555 1_555
H11 C9 1_555 1_555
H12 C9 1_555 1_555
C10 C6 1_555 1_555
H13 C10 1_555 1_555
H14 C10 1_555 1_555
H15 C10 1_555 1_555
O1B N2B 1_555 1_555
N1B C2B 1_555 1_555
O2B N3B 1_555 1_555
C1B H1B 1_555 1_555
H2B C1B 1_555 1_555
H3B C1B 1_555 1_555
N2B C3B 1_555 1_555
N3B C5B 1_555 1_555
C2B C4 1_555 1_555
C3B C1B 1_555 1_555
C4B C2 1_555 1_555
C5B N2B 1_555 1_555
C6B N3B 1_555 1_555
C7B C4B 1_555 1_555
H4B C7B 1_555 1_555
H5B C7B 1_555 1_555
H6B C7B 1_555 1_555
C8B C3B 1_555 1_555
H7B C8B 1_555 1_555
H8B C8B 1_555 1_555
H9B C8B 1_555 1_555
C9B C6B 1_555 1_555
H10B C9B 1_555 1_555
H11B C9B 1_555 1_555
H12B C9B 1_555 1_555
C10B C6B 1_555 1_555
H13B C10B 1_555 1_555
H14B C10B 1_555 1_555
H15B C10B 1_555 1_555
C3 C6 1_555 1_555
N1B C4B 1_555 1_555
C2B C5B 1_555 1_555
C3B C6B 1_555 1_555

#END
