
#######################################################################
#
#                 Cambridge Crystallographic Data Centre
#                                CCDC 
#
#######################################################################
#
# If this CIF has been generated from an entry in the Cambridge 
# Structural Database, then it will include bibliographic, chemical, 
# crystal, experimental, refinement or atomic coordinate data resulting 
# from the CCDC's data processing and validation procedures.
#
#######################################################################

data_MEYQUE
_chemical_formula_moiety         'C18 H15 N1 O2'
_chemical_name_systematic        
4-Methoxy-7-methyl-5,7-dihydro-6H-indeno[2,1-c]quinolin-6-one
_symmetry_cell_setting           monoclinic
_symmetry_space_group_name_H-M   'P 21/c'
_symmetry_Int_Tables_number      14
_space_group_name_Hall           '-P 2ybc'
loop_
_symmetry_equiv_pos_site_id
_symmetry_equiv_pos_as_xyz
1 x,y,z
2 -x,1/2+y,1/2-z
3 -x,-y,-z
4 x,1/2-y,1/2+z
_cell_length_a                   16.6508(12)
_cell_length_b                   12.0775(9)
_cell_length_c                   14.6164(11)
_cell_angle_alpha                90
_cell_angle_beta                 109.5390(10)
_cell_angle_gamma                90
_cell_volume                     2770.09
_exptl_crystal_colour            white
_exptl_crystal_description       Block
_cell_formula_units_Z            8
loop_
_atom_site_label
_atom_site_type_symbol
_atom_site_fract_x
_atom_site_fract_y
_atom_site_fract_z
O1 O 0.20048(11) 0.93653(16) 0.31140(13)
N1 N 0.13643(13) 1.06964(16) 0.16183(14)
H1 H 0.1901 1.0598 0.1910
O2 O 0.16593(12) 1.18704(16) 0.05604(14)
C1 C -0.00830(16) 1.0230(2) 0.15139(18)
C2 C 0.02142(16) 1.15776(19) 0.04238(17)
C3 C -0.03625(15) 1.0999(2) 0.07183(17)
C4 C 0.08037(16) 1.0115(2) 0.19564(17)
C5 C -0.02059(16) 1.2310(2) -0.04340(18)
H2 H -0.0082 1.2004 -0.0994
C6 C 0.11245(16) 1.1415(2) 0.08542(18)
C7 C 0.11374(16) 0.9388(2) 0.27474(18)
C8 C -0.20413(16) 1.0979(2) 0.0029(2)
H3 H -0.2113 1.0446 0.0454
C9 C 0.05988(18) 0.8760(2) 0.30728(19)
H4 H 0.0819 0.8271 0.3587
C10 C -0.12257(16) 1.1316(2) 0.00810(18)
C11 C -0.06194(17) 0.9577(2) 0.1866(2)
H5 H -0.1208 0.9632 0.1579
C12 C -0.11320(17) 1.2098(2) -0.05837(18)
C13 C -0.18391(18) 1.2562(2) -0.1269(2)
H6 H -0.1773 1.3088 -0.1703
C14 C -0.26426(19) 1.2238(3) -0.1302(2)
H7 H -0.3121 1.2552 -0.1757
C15 C -0.02833(18) 0.8864(2) 0.2623(2)
H8 H -0.0647 0.8439 0.2843
C16 C -0.27405(18) 1.1449(2) -0.0662(2)
H9 H -0.3286 1.1230 -0.0697
C17 C 0.2392(2) 0.8620(3) 0.3895(2)
H10 H 0.3001 0.8688 0.4089
H11 H 0.2229 0.7875 0.3686
H12 H 0.2208 0.8796 0.4434
C18 C 0.00553(19) 1.3525(2) -0.0339(2)
H13 H 0.0652 1.3583 -0.0249
H14 H -0.0054 1.3843 0.0210
H15 H -0.0268 1.3915 -0.0917
O3 O 0.32104(11) 1.06084(17) 0.23862(13)
N2 N 0.34285(13) 1.12492(17) 0.10287(15)
H16 H 0.2899 1.1427 0.0790
O4 O 0.27101(12) 1.21142(18) -0.06790(14)
C19 C 0.48122(16) 1.1210(2) 0.08109(19)
C20 C 0.37034(16) 1.0771(2) 0.19267(18)
C21 C 0.35633(17) 1.1966(2) -0.0438(2)
C22 C 0.51277(16) 1.0689(2) 0.17545(19)
C23 C 0.39397(16) 1.1467(2) 0.04765(18)
C24 C 0.59861(17) 1.0278(2) 0.2319(2)
C25 C 0.52947(19) 1.1490(3) 0.0220(2)
H17 H 0.5873 1.1321 0.0424
C26 C 0.45941(16) 1.0487(2) 0.22662(19)
C27 C 0.40570(19) 1.2246(2) -0.0989(2)
H18 H 0.3813 1.2594 -0.1586
C28 C 0.22983(19) 1.2813(3) -0.1480(2)
H19 H 0.1701 1.2848 -0.1571
H20 H 0.2377 1.2520 -0.2055
H21 H 0.2539 1.3542 -0.1355
C29 C 0.74569(19) 0.9761(3) 0.2824(3)
H22 H 0.7975 0.9745 0.2713
C30 C 0.50408(19) 0.9925(3) 0.3223(2)
H23 H 0.5051 1.0435 0.3748
C31 C 0.67560(18) 1.0244(2) 0.2147(2)
H24 H 0.6800 1.0544 0.1580
C32 C 0.4925(2) 1.2009(3) -0.0651(2)
H25 H 0.5259 1.2207 -0.1024
C33 C 0.59340(19) 0.9829(3) 0.3188(2)
C34 C 0.7398(2) 0.9300(3) 0.3666(3)
H26 H 0.7872 0.8963 0.4108
C35 C 0.6638(2) 0.9339(3) 0.3856(3)
H27 H 0.6602 0.9039 0.4427
C36 C 0.4668(3) 0.8885(3) 0.3380(3)
H28 H 0.4105 0.9018 0.3398
H29 H 0.5015 0.8568 0.3985
H30 H 0.4637 0.8383 0.2860
loop_
_geom_bond_atom_site_label_1
_geom_bond_atom_site_label_2
_geom_bond_site_symmetry_1
_geom_bond_site_symmetry_2
O1 C7 1_555 1_555
N1 H1 1_555 1_555
O2 C6 1_555 1_555
C1 C3 1_555 1_555
C2 C3 1_555 1_555
C3 C10 1_555 1_555
C4 N1 1_555 1_555
C5 C2 1_555 1_555
H2 C5 1_555 1_555
C6 N1 1_555 1_555
C7 C4 1_555 1_555
C8 H3 1_555 1_555
C9 C7 1_555 1_555
H4 C9 1_555 1_555
C10 C8 1_555 1_555
C11 C1 1_555 1_555
H5 C11 1_555 1_555
C12 C5 1_555 1_555
C13 C12 1_555 1_555
H6 C13 1_555 1_555
C14 C13 1_555 1_555
H7 C14 1_555 1_555
C15 C9 1_555 1_555
H8 C15 1_555 1_555
C16 C8 1_555 1_555
H9 C16 1_555 1_555
C17 O1 1_555 1_555
H10 C17 1_555 1_555
H11 C17 1_555 1_555
H12 C17 1_555 1_555
C18 C5 1_555 1_555
H13 C18 1_555 1_555
H14 C18 1_555 1_555
H15 C18 1_555 1_555
O3 C20 1_555 1_555
N2 H16 1_555 1_555
O4 C21 1_555 1_555
C19 C22 1_555 1_555
C20 N2 1_555 1_555
C21 C23 1_555 1_555
C22 C24 1_555 1_555
C23 N2 1_555 1_555
C24 C31 1_555 1_555
C25 C19 1_555 1_555
H17 C25 1_555 1_555
C26 C20 1_555 1_555
C27 C21 1_555 1_555
H18 C27 1_555 1_555
C28 O4 1_555 1_555
H19 C28 1_555 1_555
H20 C28 1_555 1_555
H21 C28 1_555 1_555
C29 H22 1_555 1_555
C30 C26 1_555 1_555
H23 C30 1_555 1_555
C31 C29 1_555 1_555
H24 C31 1_555 1_555
C32 C25 1_555 1_555
H25 C32 1_555 1_555
C33 C24 1_555 1_555
C34 C29 1_555 1_555
H26 C34 1_555 1_555
C35 C33 1_555 1_555
H27 C35 1_555 1_555
C36 C30 1_555 1_555
H28 C36 1_555 1_555
H29 C36 1_555 1_555
H30 C36 1_555 1_555
C1 C4 1_555 1_555
C2 C6 1_555 1_555
C10 C12 1_555 1_555
C11 C15 1_555 1_555
C14 C16 1_555 1_555
C19 C23 1_555 1_555
C22 C26 1_555 1_555
C27 C32 1_555 1_555
C30 C33 1_555 1_555
C34 C35 1_555 1_555

#END
