
#######################################################################
#
#                 Cambridge Crystallographic Data Centre
#                                CCDC 
#
#######################################################################
#
# If this CIF has been generated from an entry in the Cambridge 
# Structural Database, then it will include bibliographic, chemical, 
# crystal, experimental, refinement or atomic coordinate data resulting 
# from the CCDC's data processing and validation procedures.
#
#######################################################################

data_MEYREP
_chemical_formula_moiety         'C26 H28 O9,C2 H6 O1 S1'
_chemical_name_systematic        
'3,6,8,9-Tetrahydroxy-3-(4-hydroxy-2-oxopent-3-en-1-yl)-10-(3-methylbut-2-en-1-yl)-1-oxo-1,2,3,4-tetrahydroanthracen-2-yl acetate dimethyl sulfoxide solvate'
_symmetry_cell_setting           monoclinic
_symmetry_space_group_name_H-M   'P 21'
_symmetry_Int_Tables_number      4
_space_group_name_Hall           'P 2yb'
loop_
_symmetry_equiv_pos_site_id
_symmetry_equiv_pos_as_xyz
1 x,y,z
2 -x,1/2+y,-z
_cell_length_a                   5.3516(9)
_cell_length_b                   19.434(3)
_cell_length_c                   13.261(2)
_cell_angle_alpha                90
_cell_angle_beta                 95.518(2)
_cell_angle_gamma                90
_cell_volume                     1372.79
_exptl_crystal_colour            orange
_exptl_crystal_description       platelet
_cell_formula_units_Z            2
loop_
_atom_site_label
_atom_site_type_symbol
_atom_site_fract_x
_atom_site_fract_y
_atom_site_fract_z
S1 S 0.00739(14) 0.42598(5) 0.91350(5)
O1 O -0.2179(5) 0.45570(15) 0.95705(18)
C1 C 0.1850(5) 0.38345(15) 1.0147(2)
H1 H 0.2925 0.3486 0.9873
H2 H 0.0710 0.3611 1.0582
H3 H 0.2895 0.4170 1.0544
C2 C 0.2104(8) 0.4973(3) 0.9042(3)
H4 H 0.1632 0.5220 0.8408
H5 H 0.3839 0.4810 0.9051
H6 H 0.1963 0.5283 0.9617
O3 O 0.6634(4) 0.56470(11) 0.07139(15)
H13 H 0.7112 0.5336 0.0336
O4 O 0.0802(3) 0.58190(8) 0.31134(13)
H14 H 0.0296 0.5615 0.3614
O5 O 0.0610(3) 0.48424(8) 0.44399(13)
H15 H 0.0058 0.4595 0.4888
O6 O 0.0625(3) 0.39065(8) 0.57380(12)
O7 O 0.2161(2) 0.23378(8) 0.43998(11)
H16 H 0.1240 0.2061 0.4681
O8 O 0.8539(3) 0.13657(8) 0.46142(12)
O9 O 0.7655(3) 0.04461(9) 0.33458(13)
H17 H 0.8452 0.0760 0.3672
O10 O 0.2017(3) 0.26926(8) 0.65168(12)
O11 O 0.4210(5) 0.31485(17) 0.78827(16)
C4 C 0.2428(4) 0.36337(11) 0.53598(16)
C5 C 0.3678(4) 0.30079(11) 0.58685(16)
H18 H 0.5250 0.3154 0.6282
C6 C 0.4336(3) 0.24884(10) 0.50703(16)
C7 C 0.6201(4) 0.28308(10) 0.44276(16)
H19 H 0.7815 0.2894 0.4849
H20 H 0.6509 0.2519 0.3862
C8 C 0.5342(3) 0.35232(10) 0.39922(16)
C9 C 0.6361(4) 0.37870(10) 0.31702(16)
C10 C 0.5480(4) 0.44410(10) 0.27468(16)
C11 C 0.6518(4) 0.47272(12) 0.19114(17)
H21 H 0.7804 0.4488 0.1610
C12 C 0.5678(5) 0.53569(13) 0.15232(18)
C13 C 0.3769(5) 0.57155(12) 0.19450(19)
H22 H 0.3226 0.6148 0.1671
C14 C 0.2676(4) 0.54469(11) 0.27512(17)
C15 C 0.3510(4) 0.48019(11) 0.31865(17)
C16 C 0.2504(4) 0.45097(10) 0.40356(16)
C17 C 0.3440(4) 0.38887(10) 0.44633(16)
C18 C 0.5437(4) 0.18300(11) 0.55958(16)
H23 H 0.6867 0.1957 0.6090
H24 H 0.4140 0.1611 0.5973
C19 C 0.6312(4) 0.13233(10) 0.48507(16)
C20 C 0.4636(4) 0.08183(11) 0.43958(17)
H25 H 0.3007 0.0769 0.4616
C21 C 0.5370(4) 0.04025(11) 0.36391(17)
C22 C 0.3725(4) -0.01093(13) 0.30781(19)
H26 H 0.3256 0.0058 0.2388
H27 H 0.2208 -0.0177 0.3425
H28 H 0.4623 -0.0547 0.3049
C23 C 0.8369(4) 0.33955(11) 0.26648(16)
H29 H 0.9607 0.3728 0.2443
H30 H 0.9264 0.3084 0.3168
C24 C 0.7310(4) 0.29790(11) 0.17643(19)
H31 H 0.5892 0.3174 0.1382
C25 C 0.8070(4) 0.23831(13) 0.14327(18)
C26 C 1.0245(8) 0.1992(2) 0.1928(3)
H32 H 1.0956 0.2241 0.2531
H33 H 1.1527 0.1942 0.1452
H34 H 0.9684 0.1536 0.2126
C27 C 0.6776(6) 0.20431(18) 0.0502(3)
H35 H 0.5957 0.1619 0.0698
H36 H 0.8017 0.1933 0.0029
H37 H 0.5513 0.2357 0.0174
C28 C 0.2518(5) 0.27924(16) 0.75180(19)
C29 C 0.0697(6) 0.24086(19) 0.8098(2)
H38 H 0.1218 0.2443 0.8825
H39 H 0.0663 0.1924 0.7895
H40 H -0.0982 0.2607 0.7954
H7? H 0.2260 0.3528 0.9599
H8? H 0.0397 0.3652 1.0456
H9? H 0.3290 0.3865 1.0660
S2? S 0.1196(18) 0.4586(4) 0.9699(7)
O2? O -0.115(4) 0.4919(12) 0.9687(17)
C3? C 0.294(6) 0.4745(15) 0.874(2)
H10? H 0.1949 0.4645 0.8094
H11? H 0.4436 0.4452 0.8806
H12? H 0.3444 0.5229 0.8754
loop_
_geom_bond_atom_site_label_1
_geom_bond_atom_site_label_2
_geom_bond_site_symmetry_1
_geom_bond_site_symmetry_2
S1 O1 1_555 1_555
C1 S1 1_555 1_555
H1 C1 1_555 1_555
H2 C1 1_555 1_555
H3 C1 1_555 1_555
C2 S1 1_555 1_555
H4 C2 1_555 1_555
H5 C2 1_555 1_555
H6 C2 1_555 1_555
O3 H13 1_555 1_555
O4 H14 1_555 1_555
O5 H15 1_555 1_555
O6 C4 1_555 1_555
O7 H16 1_555 1_555
O8 C19 1_555 1_555
O9 H17 1_555 1_555
O10 C5 1_555 1_555
O11 C28 1_555 1_555
C4 C5 1_555 1_555
C5 H18 1_555 1_555
C6 O7 1_555 1_555
C7 C6 1_555 1_555
H19 C7 1_555 1_555
H20 C7 1_555 1_555
C8 C7 1_555 1_555
C9 C8 1_555 1_555
C10 C9 1_555 1_555
C11 C10 1_555 1_555
H21 C11 1_555 1_555
C12 O3 1_555 1_555
C13 C12 1_555 1_555
H22 C13 1_555 1_555
C14 O4 1_555 1_555
C15 C10 1_555 1_555
C16 O5 1_555 1_555
C17 C4 1_555 1_555
C18 C6 1_555 1_555
H23 C18 1_555 1_555
H24 C18 1_555 1_555
C19 C18 1_555 1_555
C20 C19 1_555 1_555
H25 C20 1_555 1_555
C21 O9 1_555 1_555
C22 C21 1_555 1_555
H26 C22 1_555 1_555
H27 C22 1_555 1_555
H28 C22 1_555 1_555
C23 C9 1_555 1_555
H29 C23 1_555 1_555
H30 C23 1_555 1_555
C24 C23 1_555 1_555
H31 C24 1_555 1_555
C25 C24 1_555 1_555
C26 C25 1_555 1_555
H32 C26 1_555 1_555
H33 C26 1_555 1_555
H34 C26 1_555 1_555
C27 C25 1_555 1_555
H35 C27 1_555 1_555
H36 C27 1_555 1_555
H37 C27 1_555 1_555
C28 O10 1_555 1_555
C29 C28 1_555 1_555
H38 C29 1_555 1_555
H39 C29 1_555 1_555
H40 C29 1_555 1_555
C5 C6 1_555 1_555
C8 C17 1_555 1_555
C11 C12 1_555 1_555
C13 C14 1_555 1_555
C14 C15 1_555 1_555
C15 C16 1_555 1_555
C16 C17 1_555 1_555
C20 C21 1_555 1_555

#END
