
#######################################################################
#
#                 Cambridge Crystallographic Data Centre
#                                CCDC 
#
#######################################################################
#
# If this CIF has been generated from an entry in the Cambridge 
# Structural Database, then it will include bibliographic, chemical, 
# crystal, experimental, refinement or atomic coordinate data resulting 
# from the CCDC's data processing and validation procedures.
#
#######################################################################

data_MEYRUD
_chemical_compound_source        'seeds of Caesalpinia minax Hance'
_chemical_name_common            'Caesalmin F'
_chemical_formula_moiety         'C27 H38 O9'
_chemical_name_systematic        
5\a-Hydroxy-14\b-methoxy-1\a,6\a,7\b-triacetoxyvouacapane
_chemical_properties_biological  'significant activity against the Para3 virus'
_symmetry_cell_setting           orthorhombic
_symmetry_space_group_name_H-M   'P 21 21 21'
_symmetry_Int_Tables_number      19
_space_group_name_Hall           'P 2ac 2ab'
loop_
_symmetry_equiv_pos_site_id
_symmetry_equiv_pos_as_xyz
1 x,y,z
2 1/2-x,-y,1/2+z
3 -x,1/2+y,1/2-z
4 1/2+x,1/2-y,-z
_cell_length_a                   6.8458(9)
_cell_length_b                   24.119(3)
_cell_length_c                   32.941(4)
_cell_angle_alpha                90
_cell_angle_beta                 90
_cell_angle_gamma                90
_cell_volume                     5439.02
_exptl_crystal_colour            colorless
_exptl_crystal_description       needle
_chemical_melting_point          '173-174 deg.C'
_cell_formula_units_Z            8
loop_
_atom_site_label
_atom_site_type_symbol
_atom_site_fract_x
_atom_site_fract_y
_atom_site_fract_z
O1 O 0.4771(4) -0.09326(10) 0.49323(8)
O2 O 0.6959(6) -0.16185(13) 0.49967(11)
O3 O 0.2051(3) -0.01100(10) 0.47615(7)
H1 H 0.2255 -0.0445 0.4757
O4 O 0.1542(4) 0.09741(10) 0.44408(7)
O5 O 0.3030(5) 0.17340(14) 0.41973(10)
O6 O 0.2758(4) 0.15042(10) 0.51358(8)
O7 O -0.0460(5) 0.14619(13) 0.52653(11)
O8 O 0.8002(5) -0.00793(13) 0.62337(8)
O9 O 0.3844(4) 0.13583(11) 0.59492(8)
C1 C 0.6204(6) -0.05745(15) 0.47253(11)
H2 H 0.7493 -0.0637 0.4846
C2 C 0.6295(6) -0.07243(17) 0.42774(12)
H3 H 0.7322 -0.0512 0.4148
H4 H 0.6612 -0.1114 0.4250
C3 C 0.4374(6) -0.06080(16) 0.40681(12)
H5 H 0.3384 -0.0849 0.4183
H6 H 0.4504 -0.0702 0.3783
C4 C 0.3656(6) 0.00005(15) 0.41013(11)
C5 C 0.3654(5) 0.01765(14) 0.45679(10)
C6 C 0.3287(5) 0.07883(14) 0.46474(10)
H7 H 0.4410 0.1005 0.4554
C7 C 0.2926(5) 0.09044(14) 0.50960(10)
H8 H 0.1703 0.0728 0.5181
C8 C 0.4588(5) 0.07223(14) 0.53778(10)
H9 H 0.5698 0.0969 0.5327
C9 C 0.5258(5) 0.01208(14) 0.52705(10)
H10 H 0.4202 -0.0130 0.5352
C10 C 0.5603(5) 0.00314(14) 0.48011(11)
C11 C 0.7081(6) -0.00449(18) 0.55144(12)
H11 H 0.7255 -0.0444 0.5505
H12 H 0.8231 0.0128 0.5398
C12 C 0.6822(6) 0.01376(16) 0.59359(12)
C13 C 0.5557(6) 0.05087(17) 0.60893(11)
C14 C 0.4027(6) 0.07856(15) 0.58315(11)
C15 C 0.5968(8) 0.0538(2) 0.65120(13)
H13 H 0.5347 0.0762 0.6702
C16 C 0.7413(8) 0.0181(2) 0.65837(14)
H14 H 0.7954 0.0117 0.6838
C17 C 0.2018(6) 0.05546(18) 0.59407(12)
H15 H 0.1780 0.0609 0.6225
H16 H 0.1978 0.0166 0.5879
H17 H 0.1034 0.0744 0.5786
C18 C 0.1595(6) 0.0000(2) 0.39264(12)
H18 H 0.1642 -0.0108 0.3646
H19 H 0.1046 0.0365 0.3948
H20 H 0.0799 -0.0258 0.4075
C19 C 0.4905(7) 0.03764(18) 0.38204(12)
H21 H 0.4828 0.0242 0.3546
H22 H 0.6241 0.0370 0.3909
H23 H 0.4420 0.0749 0.3832
C20 C 0.7344(6) 0.03945(17) 0.46682(12)
H24 H 0.7565 0.0348 0.4382
H25 H 0.8492 0.0285 0.4815
H26 H 0.7058 0.0777 0.4724
C21 C 0.5357(8) -0.14363(17) 0.50691(12)
C22 C 0.3840(9) -0.16993(19) 0.53223(14)
H27 H 0.4302 -0.2052 0.5417
H28 H 0.2677 -0.1752 0.5164
H29 H 0.3555 -0.1465 0.5551
C23 C 0.1601(7) 0.14593(17) 0.42346(12)
C24 C -0.0382(8) 0.1597(2) 0.40697(16)
H30 H -0.0326 0.1944 0.3928
H31 H -0.1298 0.1624 0.4289
H32 H -0.0791 0.1310 0.3886
C25 C 0.1013(7) 0.17260(18) 0.52331(13)
C26 C 0.1206(9) 0.23361(17) 0.53094(18)
H33 H -0.0044 0.2486 0.5383
H34 H 0.1669 0.2516 0.5068
H35 H 0.2117 0.2397 0.5526
C27 C 0.5569(8) 0.16873(19) 0.59148(15)
H36 H 0.5287 0.2061 0.5997
H37 H 0.6008 0.1686 0.5638
H38 H 0.6570 0.1536 0.6086
O10 O 0.5725(10) 0.37231(18) 0.24909(13)
O11 O 0.745(2) 0.4505(4) 0.2422(5)
O13 O 0.3150(4) 0.28623(10) 0.24869(7)
H39 H 0.3314 0.3181 0.2567
O14 O 0.2682(5) 0.16951(11) 0.25703(8)
O15 O 0.4379(9) 0.0930(2) 0.27086(16)
O16 O 0.3818(4) 0.14665(10) 0.18027(9)
O17 O 0.0646(5) 0.16151(16) 0.16468(13)
O18 O 0.9313(4) 0.33314(13) 0.10559(9)
O19 O 0.4883(5) 0.18938(12) 0.10563(8)
C28 C 0.7233(10) 0.3318(4) 0.26041(18)
H40 H 0.8497 0.3439 0.2496
C29 C 0.7352(9) 0.3285(3) 0.30674(16)
H41 H 0.8402 0.3036 0.3144
H42 H 0.7647 0.3649 0.3176
C30 C 0.5442(8) 0.3078(2) 0.32480(14)
H43 H 0.5581 0.3061 0.3541
H44 H 0.4426 0.3346 0.3188
C31 C 0.4789(6) 0.25151(19) 0.30958(12)
C32 C 0.4767(5) 0.25224(17) 0.26156(11)
C33 C 0.4406(6) 0.19594(17) 0.24149(11)
H45 H 0.5538 0.1719 0.2460
C34 C 0.4050(6) 0.20237(15) 0.19564(11)
H46 H 0.2837 0.2231 0.1913
C35 C 0.5692(6) 0.23049(15) 0.17296(11)
H47 H 0.6814 0.2053 0.1736
C36 C 0.6325(6) 0.28451(17) 0.19456(12)
H48 H 0.5242 0.3108 0.1918
C37 C 0.6676(6) 0.2758(2) 0.24113(12)
C38 C 0.8132(7) 0.3115(2) 0.17430(14)
H49 H 0.8192 0.3505 0.1815
H50 H 0.9312 0.2937 0.1842
C39 C 0.8017(6) 0.30573(19) 0.13008(13)
C40 C 0.6810(6) 0.27347(17) 0.10878(12)
C41 C 0.5180(6) 0.24091(15) 0.12699(11)
C42 C 0.7358(8) 0.2808(2) 0.06719(13)
H51 H 0.6778 0.2643 0.0447
C43 C 0.8893(8) 0.3166(2) 0.06697(15)
H52 H 0.9559 0.3281 0.0438
C44 C 0.3256(6) 0.27201(19) 0.12103(14)
H53 H 0.3023 0.2772 0.0925
H54 H 0.3330 0.3075 0.1342
H55 H 0.2207 0.2509 0.1326
C45 C 0.2724(7) 0.2433(2) 0.32648(13)
H56 H 0.2773 0.2428 0.3556
H57 H 0.2203 0.2088 0.3168
H58 H 0.1903 0.2733 0.3177
C46 C 0.6052(9) 0.2059(3) 0.32902(14)
H59 H 0.5965 0.2085 0.3580
H60 H 0.7387 0.2106 0.3208
H61 H 0.5593 0.1702 0.3204
C47 C 0.8459(7) 0.2372(3) 0.24732(16)
H62 H 0.8154 0.2008 0.2374
H63 H 0.8771 0.2353 0.2757
H64 H 0.9559 0.2517 0.2327
C48 C 0.599(2) 0.4350(5) 0.2379(3)
C49 C 0.4135(18) 0.4584(4) 0.2276(3)
H65 H 0.4290 0.4972 0.2218
H66 H 0.3248 0.4538 0.2499
H67 H 0.3622 0.4399 0.2041
C50 C 0.2814(12) 0.1141(3) 0.2689(2)
C51 C 0.0889(14) 0.0944(4) 0.2786(3)
H68 H 0.0960 0.0564 0.2870
H69 H 0.0069 0.0974 0.2550
H70 H 0.0351 0.1164 0.3002
C52 C 0.2056(9) 0.1319(2) 0.16520(16)
C53 C 0.2129(11) 0.0736(2) 0.1487(2)
H71 H 0.0869 0.0637 0.1382
H72 H 0.2483 0.0485 0.1700
H73 H 0.3081 0.0716 0.1273
C54 C 0.6500(9) 0.15290(19) 0.10331(14)
H74 H 0.6134 0.1202 0.0885
H75 H 0.6901 0.1427 0.1302
H76 H 0.7561 0.1710 0.0896
O12? O 0.847(4) 0.4167(4) 0.2524(3)
loop_
_geom_bond_atom_site_label_1
_geom_bond_atom_site_label_2
_geom_bond_site_symmetry_1
_geom_bond_site_symmetry_2
O1 C1 1_555 1_555
O2 C21 1_555 1_555
O3 H1 1_555 1_555
O4 C6 1_555 1_555
O5 C23 1_555 1_555
O6 C7 1_555 1_555
O7 C25 1_555 1_555
O8 C12 1_555 1_555
O9 C14 1_555 1_555
C1 H2 1_555 1_555
C2 C1 1_555 1_555
H3 C2 1_555 1_555
H4 C2 1_555 1_555
C3 C2 1_555 1_555
H5 C3 1_555 1_555
H6 C3 1_555 1_555
C4 C3 1_555 1_555
C5 O3 1_555 1_555
C6 C5 1_555 1_555
H7 C6 1_555 1_555
C7 C6 1_555 1_555
H8 C7 1_555 1_555
C8 C7 1_555 1_555
H9 C8 1_555 1_555
C9 C8 1_555 1_555
H10 C9 1_555 1_555
C10 C1 1_555 1_555
C11 C9 1_555 1_555
H11 C11 1_555 1_555
H12 C11 1_555 1_555
C12 C11 1_555 1_555
C13 C12 1_555 1_555
C14 C8 1_555 1_555
C15 C13 1_555 1_555
H13 C15 1_555 1_555
C16 O8 1_555 1_555
H14 C16 1_555 1_555
C17 C14 1_555 1_555
H15 C17 1_555 1_555
H16 C17 1_555 1_555
H17 C17 1_555 1_555
C18 C4 1_555 1_555
H18 C18 1_555 1_555
H19 C18 1_555 1_555
H20 C18 1_555 1_555
C19 C4 1_555 1_555
H21 C19 1_555 1_555
H22 C19 1_555 1_555
H23 C19 1_555 1_555
C20 C10 1_555 1_555
H24 C20 1_555 1_555
H25 C20 1_555 1_555
H26 C20 1_555 1_555
C21 O1 1_555 1_555
C22 C21 1_555 1_555
H27 C22 1_555 1_555
H28 C22 1_555 1_555
H29 C22 1_555 1_555
C23 O4 1_555 1_555
C24 C23 1_555 1_555
H30 C24 1_555 1_555
H31 C24 1_555 1_555
H32 C24 1_555 1_555
C25 O6 1_555 1_555
C26 C25 1_555 1_555
H33 C26 1_555 1_555
H34 C26 1_555 1_555
H35 C26 1_555 1_555
C27 O9 1_555 1_555
H36 C27 1_555 1_555
H37 C27 1_555 1_555
H38 C27 1_555 1_555
O10 C28 1_555 1_555
O11 C48 1_555 1_555
O13 H39 1_555 1_555
O14 C33 1_555 1_555
O15 C50 1_555 1_555
O16 C34 1_555 1_555
O17 C52 1_555 1_555
O18 C39 1_555 1_555
O19 C41 1_555 1_555
C28 H40 1_555 1_555
C29 C28 1_555 1_555
H41 C29 1_555 1_555
H42 C29 1_555 1_555
C30 C29 1_555 1_555
H43 C30 1_555 1_555
H44 C30 1_555 1_555
C31 C30 1_555 1_555
C32 O13 1_555 1_555
C33 C32 1_555 1_555
H45 C33 1_555 1_555
C34 C33 1_555 1_555
H46 C34 1_555 1_555
C35 C34 1_555 1_555
H47 C35 1_555 1_555
C36 C35 1_555 1_555
H48 C36 1_555 1_555
C37 C28 1_555 1_555
C38 C36 1_555 1_555
H49 C38 1_555 1_555
H50 C38 1_555 1_555
C39 C38 1_555 1_555
C40 C39 1_555 1_555
C41 C35 1_555 1_555
C42 C40 1_555 1_555
H51 C42 1_555 1_555
C43 O18 1_555 1_555
H52 C43 1_555 1_555
C44 C41 1_555 1_555
H53 C44 1_555 1_555
H54 C44 1_555 1_555
H55 C44 1_555 1_555
C45 C31 1_555 1_555
H56 C45 1_555 1_555
H57 C45 1_555 1_555
H58 C45 1_555 1_555
C46 C31 1_555 1_555
H59 C46 1_555 1_555
H60 C46 1_555 1_555
H61 C46 1_555 1_555
C47 C37 1_555 1_555
H62 C47 1_555 1_555
H63 C47 1_555 1_555
H64 C47 1_555 1_555
C48 O10 1_555 1_555
C49 C48 1_555 1_555
H65 C49 1_555 1_555
H66 C49 1_555 1_555
H67 C49 1_555 1_555
C50 O14 1_555 1_555
C51 C50 1_555 1_555
H68 C51 1_555 1_555
H69 C51 1_555 1_555
H70 C51 1_555 1_555
C52 O16 1_555 1_555
C53 C52 1_555 1_555
H71 C53 1_555 1_555
H72 C53 1_555 1_555
H73 C53 1_555 1_555
C54 O19 1_555 1_555
H74 C54 1_555 1_555
H75 C54 1_555 1_555
H76 C54 1_555 1_555
C4 C5 1_555 1_555
C5 C10 1_555 1_555
C9 C10 1_555 1_555
C13 C14 1_555 1_555
C15 C16 1_555 1_555
C31 C32 1_555 1_555
C32 C37 1_555 1_555
C36 C37 1_555 1_555
C40 C41 1_555 1_555
C42 C43 1_555 1_555

#END
