
#######################################################################
#
#                 Cambridge Crystallographic Data Centre
#                                CCDC 
#
#######################################################################
#
# If this CIF has been generated from an entry in the Cambridge 
# Structural Database, then it will include bibliographic, chemical, 
# crystal, experimental, refinement or atomic coordinate data resulting 
# from the CCDC's data processing and validation procedures.
#
#######################################################################

data_MEYWOE
_chemical_formula_moiety         'C25 H24 O4'
_chemical_name_systematic        
"Ethyl 1'-oxo-6-(2-oxoethyl)-5-phenyl-1',3'-dihydrospiro[cyclohex-4-ene-1,2'-indene]-2-carboxylate"
_symmetry_cell_setting           monoclinic
_symmetry_space_group_name_H-M   'P 21'
_symmetry_Int_Tables_number      4
_space_group_name_Hall           'P 2yb'
loop_
_symmetry_equiv_pos_site_id
_symmetry_equiv_pos_as_xyz
1 x,y,z
2 -x,1/2+y,-z
_cell_length_a                   8.47420(10)
_cell_length_b                   11.5299(2)
_cell_length_c                   10.62130(10)
_cell_angle_alpha                90
_cell_angle_beta                 103.2230(10)
_cell_angle_gamma                90
_cell_volume                     1010.26
_cell_formula_units_Z            2
loop_
_atom_site_label
_atom_site_type_symbol
_atom_site_fract_x
_atom_site_fract_y
_atom_site_fract_z
O1 O 0.76429(14) 0.16713(10) 0.94534(12)
O2 O 1.13416(15) 0.19361(11) 0.91347(12)
O3 O 0.35983(16) 0.42440(14) 0.83062(16)
C1 C 0.99601(18) 0.43319(14) 0.96728(14)
H1 H 1.0983 0.4298 0.9410
H2 H 0.9569 0.5125 0.9592
C2 C 0.84633(18) 0.25346(14) 0.97747(15)
C3 C 0.71195(19) 0.49428(14) 0.72435(15)
C4 C 0.5892(2) 0.58900(16) 0.69159(17)
C5 C 0.8264(2) 0.48632(15) 0.65794(15)
H3 H 0.8262 0.5419 0.5944
C6 C 1.01576(19) 0.39037(15) 1.10410(15)
C7 C 0.87026(18) 0.35039(13) 0.88407(15)
C8 C 0.63437(19) 0.46445(15) 0.94008(16)
H4 H 0.6664 0.4174 1.0174
H5 H 0.6835 0.5403 0.9594
C9 C 1.1048(2) 0.43973(16) 1.21769(17)
H6 H 1.1614 0.5086 1.2161
C10 C 0.93216(19) 0.28699(14) 1.10902(16)
C11 C 0.4536(2) 0.47829(18) 0.90935(19)
H7 H 0.4113 0.5338 0.9559
C12 C 0.92438(19) 0.29918(14) 0.76659(15)
H8 H 0.8342 0.2524 0.7180
C13 C 0.9558(2) 0.39564(15) 0.67648(16)
H9 H 1.0601 0.4311 0.7127
H10 H 0.9597 0.3626 0.5933
C14 C 0.6127(2) 0.69554(17) 0.7525(2)
H11 H 0.7029 0.7072 0.8199
C15 C 1.1068(2) 0.38344(18) 1.33374(17)
H12 H 1.1657 0.4155 1.4105
C16 C 1.0232(2) 0.28044(17) 1.33794(17)
H13 H 1.0270 0.2447 1.4171
C17 C 0.70232(18) 0.40883(13) 0.83211(14)
H14 H 0.6266 0.3475 0.7934
C18 C 0.9341(2) 0.23048(15) 1.22525(16)
H15 H 0.8776 0.1616 1.2272
C19 C 0.3408(3) 0.6613(3) 0.5574(2)
H16 H 0.2474 0.6488 0.4932
C20 C 1.0689(2) 0.21998(15) 0.80504(18)
C21 C 0.5033(3) 0.7852(2) 0.7143(3)
H17 H 0.5209 0.8566 0.7559
C22 C 0.4499(3) 0.5723(2) 0.5942(2)
H18 H 0.4305 0.5005 0.5537
C23 C 0.3690(3) 0.7691(2) 0.6150(3)
H19 H 0.2979 0.8301 0.5870
O4 O 1.0931(3) 0.16919(17) 0.6897(2)
C24 C 1.2262(3) 0.0862(2) 0.7085(3)
H20 H 1.2059 0.0313 0.6375
H21 H 1.2304 0.0433 0.7878
C25 C 1.3852(5) 0.1433(4) 0.7158(5)
H22 H 1.4690 0.0856 0.7284
H23 H 1.4069 0.1967 0.7870
H24 H 1.3825 0.1845 0.6368
O5? O 1.1557(5) 0.2029(4) 0.7239(4)
C26? C 1.3104(6) 0.1425(5) 0.7625(5)
H25? H 1.2940 0.0604 0.7754
H26? H 1.3756 0.1748 0.8418
C27? C 1.3893(10) 0.1612(8) 0.6527(8)
H27? H 1.4934 0.1241 0.6710
H28? H 1.4026 0.2429 0.6408
H29? H 1.3227 0.1288 0.5753
loop_
_geom_bond_atom_site_label_1
_geom_bond_atom_site_label_2
_geom_bond_site_symmetry_1
_geom_bond_site_symmetry_2
O1 C2 1_555 1_555
O2 C20 1_555 1_555
O3 C11 1_555 1_555
C1 H1 1_555 1_555
H2 C1 1_555 1_555
C2 C7 1_555 1_555
C3 C4 1_555 1_555
C4 C14 1_555 1_555
C5 C3 1_555 1_555
H3 C5 1_555 1_555
C6 C1 1_555 1_555
C7 C1 1_555 1_555
C8 H4 1_555 1_555
H5 C8 1_555 1_555
C9 C6 1_555 1_555
H6 C9 1_555 1_555
C10 C2 1_555 1_555
C11 C8 1_555 1_555
H7 C11 1_555 1_555
C12 C7 1_555 1_555
H8 C12 1_555 1_555
C13 C5 1_555 1_555
H9 C13 1_555 1_555
H10 C13 1_555 1_555
C14 H11 1_555 1_555
C15 C9 1_555 1_555
H12 C15 1_555 1_555
C16 C15 1_555 1_555
H13 C16 1_555 1_555
C17 C3 1_555 1_555
H14 C17 1_555 1_555
C18 C10 1_555 1_555
H15 C18 1_555 1_555
C19 H16 1_555 1_555
C20 C12 1_555 1_555
C21 C14 1_555 1_555
H17 C21 1_555 1_555
C22 C4 1_555 1_555
H18 C22 1_555 1_555
C23 C19 1_555 1_555
H19 C23 1_555 1_555
O4 C20 1_555 1_555
C24 O4 1_555 1_555
H20 C24 1_555 1_555
H21 C24 1_555 1_555
C25 C24 1_555 1_555
H22 C25 1_555 1_555
H23 C25 1_555 1_555
H24 C25 1_555 1_555
C6 C10 1_555 1_555
C7 C17 1_555 1_555
C8 C17 1_555 1_555
C12 C13 1_555 1_555
C16 C18 1_555 1_555
C19 C22 1_555 1_555
C21 C23 1_555 1_555

#END
