
#######################################################################
#
#                 Cambridge Crystallographic Data Centre
#                                CCDC 
#
#######################################################################
#
# If this CIF has been generated from an entry in the Cambridge 
# Structural Database, then it will include bibliographic, chemical, 
# crystal, experimental, refinement or atomic coordinate data resulting 
# from the CCDC's data processing and validation procedures.
#
#######################################################################

data_MEYXIZ
_chemical_formula_moiety         'C20 H26 N2 O2'
_chemical_name_systematic        
10-Butylidene-3,3-dimethyl-5-(2-oxopropyl)-2,3,5,10-tetrahydro-1H-pyrazolo[1,2-b]phthalazin-1-one
_symmetry_cell_setting           monoclinic
_symmetry_space_group_name_H-M   'P 21/c'
_symmetry_Int_Tables_number      14
_space_group_name_Hall           '-P 2ybc'
loop_
_symmetry_equiv_pos_site_id
_symmetry_equiv_pos_as_xyz
1 x,y,z
2 -x,1/2+y,1/2-z
3 -x,-y,-z
4 x,1/2-y,1/2+z
_cell_length_a                   13.5018(9)
_cell_length_b                   16.1917(12)
_cell_length_c                   8.5746(6)
_cell_angle_alpha                90
_cell_angle_beta                 96.006(2)
_cell_angle_gamma                90
_cell_volume                     1864.26
_cell_formula_units_Z            4
loop_
_atom_site_label
_atom_site_type_symbol
_atom_site_fract_x
_atom_site_fract_y
_atom_site_fract_z
C1 C 0.35372(16) 0.45757(15) 0.0042(2)
H1 H 0.3491 0.4020 -0.0380
H2 H 0.3949 0.4907 -0.0578
C2 C 0.31493(13) 0.47618(12) 0.4201(2)
C3 C 0.08641(16) 0.42108(15) 0.3043(3)
H3 H 0.1278 0.4025 0.3970
H4 H 0.0236 0.4403 0.3365
C4 C 0.06789(17) 0.35055(15) 0.1911(3)
C5 C 0.25289(13) 0.54839(11) 0.4463(2)
C6 C 0.25125(14) 0.49567(13) 0.0073(2)
C7 C 0.16649(14) 0.55957(12) 0.3440(2)
C8 C 0.17741(18) 0.46898(17) -0.1297(3)
H5 H 0.1741 0.4098 -0.1333
H6 H 0.1988 0.4894 -0.2258
H7 H 0.1128 0.4909 -0.1164
C9 C 0.13836(13) 0.49186(12) 0.2269(2)
H8 H 0.0913 0.5148 0.1434
C10 C 0.39461(14) 0.45720(13) 0.1746(2)
C11 C 0.25870(19) 0.58968(14) 0.0177(3)
H9 H 0.3055 0.6048 0.1050
H10 H 0.1945 0.6123 0.0317
H11 H 0.2807 0.6110 -0.0773
C12 C 0.27796(15) 0.60632(13) 0.5634(2)
H12 H 0.3357 0.5996 0.6315
C13 C 0.10727(16) 0.62822(14) 0.3594(3)
H13 H 0.0501 0.6360 0.2906
C14 C 0.36935(17) 0.43455(15) 0.5310(2)
H14 H 0.3660 0.4525 0.6333
C15 C 0.21738(18) 0.67372(14) 0.5788(3)
H15 H 0.2337 0.7117 0.6587
C16 C 0.13289(19) 0.68521(15) 0.4766(3)
H16 H 0.0930 0.7314 0.4864
C17 C 0.4351(2) 0.36255(19) 0.5110(3)
H17 H 0.4033 0.3281 0.4278
H18 H 0.4968 0.3829 0.4764
C18 C 0.5373(3) 0.2471(2) 0.6300(4)
H19 H 0.5480 0.2162 0.7259
H20 H 0.5985 0.2731 0.6091
H21 H 0.5154 0.2105 0.5453
C19 C 0.4592(3) 0.3121(3) 0.6452(4)
H22 H 0.3989 0.2850 0.6704
H23 H 0.4819 0.3476 0.7329
C20 C 0.1205(3) 0.27171(19) 0.2318(4)
H24 H 0.1025 0.2316 0.1513
H25 H 0.1018 0.2517 0.3300
H26 H 0.1911 0.2808 0.2405
N1 N 0.22255(11) 0.45603(9) 0.15413(17)
N2 N 0.31478(11) 0.45577(10) 0.25833(18)
O1 O 0.48154(11) 0.45939(12) 0.22908(19)
O2 O 0.01354(14) 0.35895(12) 0.0703(2)
loop_
_geom_bond_atom_site_label_1
_geom_bond_atom_site_label_2
_geom_bond_site_symmetry_1
_geom_bond_site_symmetry_2
C1 H1 1_555 1_555
H2 C1 1_555 1_555
C2 C5 1_555 1_555
C3 H3 1_555 1_555
H4 C3 1_555 1_555
C4 C3 1_555 1_555
C5 C7 1_555 1_555
C6 C1 1_555 1_555
C7 C9 1_555 1_555
C8 C6 1_555 1_555
H5 C8 1_555 1_555
H6 C8 1_555 1_555
H7 C8 1_555 1_555
C9 C3 1_555 1_555
H8 C9 1_555 1_555
C10 C1 1_555 1_555
C11 C6 1_555 1_555
H9 C11 1_555 1_555
H10 C11 1_555 1_555
H11 C11 1_555 1_555
C12 C5 1_555 1_555
H12 C12 1_555 1_555
C13 C7 1_555 1_555
H13 C13 1_555 1_555
C14 C2 1_555 1_555
H14 C14 1_555 1_555
C15 C12 1_555 1_555
H15 C15 1_555 1_555
C16 C13 1_555 1_555
H16 C16 1_555 1_555
C17 C14 1_555 1_555
H17 C17 1_555 1_555
H18 C17 1_555 1_555
C18 H19 1_555 1_555
H20 C18 1_555 1_555
H21 C18 1_555 1_555
C19 C17 1_555 1_555
H22 C19 1_555 1_555
H23 C19 1_555 1_555
C20 C4 1_555 1_555
H24 C20 1_555 1_555
H25 C20 1_555 1_555
H26 C20 1_555 1_555
N1 C6 1_555 1_555
N2 C2 1_555 1_555
O1 C10 1_555 1_555
O2 C4 1_555 1_555
C9 N1 1_555 1_555
C10 N2 1_555 1_555
C15 C16 1_555 1_555
C18 C19 1_555 1_555
N1 N2 1_555 1_555

#END
