
#######################################################################
#
#                 Cambridge Crystallographic Data Centre
#                                CCDC 
#
#######################################################################
#
# If this CIF has been generated from an entry in the Cambridge 
# Structural Database, then it will include bibliographic, chemical, 
# crystal, experimental, refinement or atomic coordinate data resulting 
# from the CCDC's data processing and validation procedures.
#
#######################################################################

data_MEYYUN
_chemical_formula_moiety         'C19 H24 B1 P1'
_chemical_name_systematic        
(1-cyclohexyl-1,2,5,6-tetrahydroindeno[6,7,1-cde]phosphindole)(trihydrido)boron
_symmetry_cell_setting           orthorhombic
_symmetry_space_group_name_H-M   'P 21 21 21'
_symmetry_Int_Tables_number      19
_space_group_name_Hall           'P 2ac 2ab'
loop_
_symmetry_equiv_pos_site_id
_symmetry_equiv_pos_as_xyz
1 x,y,z
2 1/2-x,-y,1/2+z
3 -x,1/2+y,1/2-z
4 1/2+x,1/2-y,-z
_cell_length_a                   6.6109(5)
_cell_length_b                   11.8364(7)
_cell_length_c                   20.496(2)
_cell_angle_alpha                90
_cell_angle_beta                 90
_cell_angle_gamma                90
_cell_volume                     1603.8
_exptl_crystal_colour            yellow
_exptl_crystal_description       rod
_cell_formula_units_Z            4
loop_
_atom_site_label
_atom_site_type_symbol
_atom_site_fract_x
_atom_site_fract_y
_atom_site_fract_z
P1 P 0.12202(12) 0.72468(6) 0.31062(3)
C1 C 0.2593(4) 0.6995(2) 0.23415(13)
H1 H 0.1579 0.6867 0.2001
C2 C 0.2452(5) 0.5979(2) 0.40663(13)
C3 C 0.0722(4) 0.5379(2) 0.38505(13)
C4 C 0.3606(5) 0.5548(2) 0.45732(13)
C5 C 0.4709(4) 0.7548(2) 0.39828(13)
H2 H 0.5083 0.8229 0.3791
C6 C -0.0319(5) 0.5959(2) 0.32831(13)
H3 H -0.1693 0.6165 0.3399
H4 H -0.0359 0.5465 0.2906
C7 C 0.3958(5) 0.5952(2) 0.23594(13)
H5 H 0.3147 0.5289 0.2454
H6 H 0.4947 0.6036 0.2706
C8 C 0.2994(4) 0.6998(2) 0.37640(13)
C9 C 0.5929(4) 0.7089(2) 0.45015(12)
H7 H 0.7083 0.7470 0.4639
C10 C 0.6290(5) 0.5358(3) 0.53266(14)
C11 C 0.3134(5) 0.4547(2) 0.49036(14)
C12 C 0.0228(5) 0.4393(2) 0.41714(13)
H8 H -0.0903 0.3986 0.4039
C13 C 0.6232(5) 0.6836(2) 0.15138(15)
H9 H 0.6825 0.6723 0.1086
H10 H 0.7324 0.6953 0.1822
C14 C 0.5383(5) 0.6085(2) 0.47934(13)
C15 C 0.5054(5) 0.5788(2) 0.17061(14)
H11 H 0.5975 0.5152 0.1740
H12 H 0.4071 0.5615 0.1369
C16 C 0.3794(5) 0.8051(2) 0.21476(14)
H13 H 0.2879 0.8689 0.2111
H14 H 0.4773 0.8223 0.2486
C17 C 0.4766(6) 0.4347(3) 0.54101(15)
C18 C 0.1429(5) 0.3980(2) 0.47063(14)
H15 H 0.1045 0.3322 0.4921
B1 B -0.0369(5) 0.8604(3) 0.30824(17)
C19 C 0.4895(5) 0.7882(3) 0.14992(15)
H16 H 0.3909 0.7807 0.1151
H17 H 0.5720 0.8541 0.1408
H18 H -0.124(6) 0.857(3) 0.2630(16)
H19 H 0.066(5) 0.936(2) 0.3066(13)
H20 H -0.132(5) 0.856(2) 0.3516(14)
H21 H 0.640(6) 0.576(3) 0.5751(15)
H22 H 0.419(5) 0.434(3) 0.5874(15)
H23 H 0.771(6) 0.510(3) 0.5178(15)
H24 H 0.534(5) 0.365(3) 0.5346(16)
loop_
_geom_bond_atom_site_label_1
_geom_bond_atom_site_label_2
_geom_bond_site_symmetry_1
_geom_bond_site_symmetry_2
P1 C1 1_555 1_555
C1 H1 1_555 1_555
C2 C3 1_555 1_555
C3 C6 1_555 1_555
C4 C2 1_555 1_555
C5 H2 1_555 1_555
C6 P1 1_555 1_555
H3 C6 1_555 1_555
H4 C6 1_555 1_555
C7 C1 1_555 1_555
H5 C7 1_555 1_555
H6 C7 1_555 1_555
C8 P1 1_555 1_555
C9 C5 1_555 1_555
H7 C9 1_555 1_555
C10 C14 1_555 1_555
C11 C4 1_555 1_555
C12 C3 1_555 1_555
H8 C12 1_555 1_555
C13 H9 1_555 1_555
H10 C13 1_555 1_555
C14 C4 1_555 1_555
C15 C7 1_555 1_555
H11 C15 1_555 1_555
H12 C15 1_555 1_555
C16 C1 1_555 1_555
H13 C16 1_555 1_555
H14 C16 1_555 1_555
C17 C10 1_555 1_555
C18 C11 1_555 1_555
H15 C18 1_555 1_555
B1 P1 1_555 1_555
C19 C13 1_555 1_555
H16 C19 1_555 1_555
H17 C19 1_555 1_555
H18 B1 1_555 1_555
H19 B1 1_555 1_555
H20 B1 1_555 1_555
H21 C10 1_555 1_555
H22 C17 1_555 1_555
H23 C10 1_555 1_555
H24 C17 1_555 1_555
C2 C8 1_555 1_555
C5 C8 1_555 1_555
C9 C14 1_555 1_555
C11 C17 1_555 1_555
C12 C18 1_555 1_555
C13 C15 1_555 1_555
C16 C19 1_555 1_555

#END
