
#######################################################################
#
#                 Cambridge Crystallographic Data Centre
#                                CCDC 
#
#######################################################################
#
# If this CIF has been generated from an entry in the Cambridge 
# Structural Database, then it will include bibliographic, chemical, 
# crystal, experimental, refinement or atomic coordinate data resulting 
# from the CCDC's data processing and validation procedures.
#
#######################################################################

data_MEYZEY
_chemical_formula_moiety         'C33 H26 B1 P1'
_chemical_name_systematic        
"[1-([1,1'-binaphthalen]-2-yl)-1,2,5,6-tetrahydroindeno[6,7,1-cde]phosphindole](trihydrido)boron"
_symmetry_cell_setting           monoclinic
_symmetry_space_group_name_H-M   'C 2'
_symmetry_Int_Tables_number      5
_space_group_name_Hall           'C 2y'
loop_
_symmetry_equiv_pos_site_id
_symmetry_equiv_pos_as_xyz
1 x,y,z
2 -x,y,-z
3 1/2+x,1/2+y,z
4 1/2-x,1/2+y,-z
_cell_length_a                   20.063(4)
_cell_length_b                   7.585(2)
_cell_length_c                   17.081(3)
_cell_angle_alpha                90
_cell_angle_beta                 107.07(3)
_cell_angle_gamma                90
_cell_volume                     2484.84
_exptl_crystal_colour            colorless
_exptl_crystal_description       needle
_cell_formula_units_Z            4
loop_
_atom_site_label
_atom_site_type_symbol
_atom_site_fract_x
_atom_site_fract_y
_atom_site_fract_z
P1 P 0.20364(4) 0.49409(13) 0.21185(5)
C1 C 0.24452(17) 0.6201(4) 0.3057(2)
C2 C 0.20257(18) 0.7631(5) 0.3187(2)
H1 H 0.1592 0.7865 0.2790
C3 C 0.22344(18) 0.8667(5) 0.3868(2)
H2 H 0.1944 0.9605 0.3938
C4 C 0.28790(17) 0.8360(4) 0.4471(2)
C5 C 0.30938(19) 0.9362(5) 0.5208(2)
H3 H 0.2803 1.0280 0.5298
C6 C 0.3716(2) 0.9019(5) 0.5788(2)
H4 H 0.3847 0.9680 0.6282
C7 C 0.41612(19) 0.7684(5) 0.5653(2)
H5 H 0.4596 0.7470 0.6052
C8 C 0.39700(18) 0.6693(5) 0.4947(2)
H6 H 0.4276 0.5806 0.4863
C9 C 0.33177(16) 0.6977(4) 0.4338(2)
C10 C 0.30916(16) 0.5888(4) 0.3618(2)
C11 C 0.35797(17) 0.4436(4) 0.3548(2)
C12 C 0.35805(19) 0.2870(5) 0.3963(2)
H7 H 0.3253 0.2705 0.4261
C13 C 0.4059(2) 0.1515(5) 0.3952(3)
H8 H 0.4049 0.0446 0.4239
C14 C 0.4536(2) 0.1732(5) 0.3532(3)
H9 H 0.4850 0.0802 0.3519
C15 C 0.45689(18) 0.3327(5) 0.3115(2)
C16 C 0.5069(2) 0.3595(7) 0.2688(3)
H10 H 0.5380 0.2665 0.2665
C17 C 0.51137(19) 0.5152(8) 0.2311(2)
H11 H 0.5454 0.5297 0.2029
C18 C 0.4655(2) 0.6555(6) 0.2336(2)
H12 H 0.4694 0.7645 0.2079
C19 C 0.41524(18) 0.6344(5) 0.2735(2)
H13 H 0.3845 0.7289 0.2746
C20 C 0.40920(15) 0.4734(5) 0.31257(18)
C21 C 0.2256(2) 0.2542(6) 0.2285(3)
H14 H 0.2433 0.2276 0.2877
H15 H 0.1838 0.1808 0.2041
C22 C 0.2810(2) 0.2186(5) 0.1869(3)
C23 C 0.3212(3) 0.0774(7) 0.1808(4)
H16 H 0.3157 -0.0256 0.2100
C24 C 0.3677(4) 0.0675(10) 0.1380(4)
H17 H 0.3938 -0.0370 0.1383
C25 C 0.3760(3) 0.2079(10) 0.0954(4)
C26 C 0.4253(3) 0.2575(14) 0.0407(4)
H18 H 0.4749 0.2542 0.0736
H19 H 0.4182 0.1751 -0.0060
C27 C 0.4034(3) 0.4457(13) 0.0104(3)
H20 H 0.4441 0.5256 0.0269
H21 H 0.3850 0.4469 -0.0501
C28 C 0.3481(2) 0.5067(10) 0.0475(2)
C29 C 0.3096(2) 0.6617(8) 0.0456(2)
H22 H 0.3144 0.7599 0.0131
C30 C 0.2626(2) 0.6657(6) 0.0946(2)
H23 H 0.2363 0.7700 0.0939
C31 C 0.25350(18) 0.5288(5) 0.1421(2)
C32 C 0.2904(2) 0.3733(6) 0.1404(3)
C33 C 0.3385(2) 0.3630(7) 0.0950(2)
B1 B 0.1050(2) 0.5230(9) 0.1716(3)
H24 H 0.0838 0.4899 0.2144
H25 H 0.0865 0.4475 0.1236
H26 H 0.0941 0.6465 0.1562
loop_
_geom_bond_atom_site_label_1
_geom_bond_atom_site_label_2
_geom_bond_site_symmetry_1
_geom_bond_site_symmetry_2
P1 C1 1_555 1_555
C1 C2 1_555 1_555
C2 H1 1_555 1_555
C3 C2 1_555 1_555
H2 C3 1_555 1_555
C4 C3 1_555 1_555
C5 C4 1_555 1_555
H3 C5 1_555 1_555
C6 C5 1_555 1_555
H4 C6 1_555 1_555
C7 C6 1_555 1_555
H5 C7 1_555 1_555
C8 C7 1_555 1_555
H6 C8 1_555 1_555
C9 C4 1_555 1_555
C10 C1 1_555 1_555
C11 C10 1_555 1_555
C12 C11 1_555 1_555
H7 C12 1_555 1_555
C13 C12 1_555 1_555
H8 C13 1_555 1_555
C14 C13 1_555 1_555
H9 C14 1_555 1_555
C15 C14 1_555 1_555
C16 C15 1_555 1_555
H10 C16 1_555 1_555
C17 C16 1_555 1_555
H11 C17 1_555 1_555
C18 C17 1_555 1_555
H12 C18 1_555 1_555
C19 C18 1_555 1_555
H13 C19 1_555 1_555
C20 C11 1_555 1_555
C21 P1 1_555 1_555
H14 C21 1_555 1_555
H15 C21 1_555 1_555
C22 C21 1_555 1_555
C23 C22 1_555 1_555
H16 C23 1_555 1_555
C24 C23 1_555 1_555
H17 C24 1_555 1_555
C25 C24 1_555 1_555
C26 C25 1_555 1_555
H18 C26 1_555 1_555
H19 C26 1_555 1_555
C27 C26 1_555 1_555
H20 C27 1_555 1_555
H21 C27 1_555 1_555
C28 C27 1_555 1_555
C29 C28 1_555 1_555
H22 C29 1_555 1_555
C30 C29 1_555 1_555
H23 C30 1_555 1_555
C31 P1 1_555 1_555
C32 C22 1_555 1_555
C33 C25 1_555 1_555
B1 P1 1_555 1_555
H24 B1 1_555 1_555
H25 B1 1_555 1_555
H26 B1 1_555 1_555
C8 C9 1_555 1_555
C9 C10 1_555 1_555
C15 C20 1_555 1_555
C19 C20 1_555 1_555
C28 C33 1_555 1_555
C30 C31 1_555 1_555
C31 C32 1_555 1_555
C32 C33 1_555 1_555

#END
