
#######################################################################
#
#                 Cambridge Crystallographic Data Centre
#                                CCDC 
#
#######################################################################
#
# If this CIF has been generated from an entry in the Cambridge 
# Structural Database, then it will include bibliographic, chemical, 
# crystal, experimental, refinement or atomic coordinate data resulting 
# from the CCDC's data processing and validation procedures.
#
#######################################################################

data_MEZCEB
_chemical_formula_moiety         'C19 H20 O4'
_chemical_name_systematic        
4,9,9-Trimethyl-4,5,9,10,11,12-hexahydrofuro[3,2-c]naphtho[2,1-e]oxepine-1,3-dione
_symmetry_cell_setting           monoclinic
_symmetry_space_group_name_H-M   'P 21'
_symmetry_Int_Tables_number      4
_space_group_name_Hall           'P 2yb'
loop_
_symmetry_equiv_pos_site_id
_symmetry_equiv_pos_as_xyz
1 x,y,z
2 -x,1/2+y,-z
_cell_length_a                   9.8118(3)
_cell_length_b                   8.1212(2)
_cell_length_c                   10.1150(3)
_cell_angle_alpha                90
_cell_angle_beta                 104.002(3)
_cell_angle_gamma                90
_cell_volume                     782.051
_exptl_crystal_colour            colorless
_exptl_crystal_description       block
_cell_formula_units_Z            2
loop_
_atom_site_label
_atom_site_type_symbol
_atom_site_fract_x
_atom_site_fract_y
_atom_site_fract_z
C1 C 0.65250(15) 0.58456(18) 0.76234(16)
C2 C 0.72569(15) 0.45708(19) 0.57072(15)
C3 C 0.69225(16) 0.29490(18) 0.61172(14)
C4 C 0.75766(16) 0.14236(19) 0.56786(15)
H1 H 0.7318 0.1350 0.4661
C5 C 0.68007(18) 0.00789(19) 0.62673(17)
H2 H 0.6413 -0.0753 0.5561
H3 H 0.7451 -0.0479 0.7038
C6 C 0.58549(16) 0.25266(17) 0.66758(15)
C7 C 0.48344(16) 0.35122(17) 0.71728(14)
C8 C 0.35543(16) 0.28205(19) 0.72348(16)
H4 H 0.3335 0.1722 0.6936
C9 C 0.26060(16) 0.3738(2) 0.77322(16)
H5 H 0.1725 0.3260 0.7743
C10 C 0.28850(15) 0.53396(19) 0.82204(15)
C11 C 0.17533(15) 0.62662(19) 0.87295(16)
C12 C 0.23679(17) 0.7806(2) 0.95300(17)
H6 H 0.1591 0.8506 0.9673
H7 H 0.2940 0.7471 1.0436
C13 C 0.32751(17) 0.8801(2) 0.88003(17)
H8 H 0.3579 0.9833 0.9307
H9 H 0.2725 0.9094 0.7875
C14 C 0.45551(16) 0.77938(18) 0.87037(16)
H10 H 0.5046 0.8361 0.8086
H11 H 0.5210 0.7735 0.9616
C15 C 0.41851(15) 0.60565(18) 0.81831(14)
C16 C 0.51309(15) 0.51296(17) 0.76452(14)
C17 C 0.91677(18) 0.1317(2) 0.61915(19)
H12 H 0.9604 0.2250 0.5837
H13 H 0.9501 0.0284 0.5878
H14 H 0.9421 0.1347 0.7190
C18 C 0.1123(2) 0.5169(2) 0.9670(2)
H15 H 0.0599 0.4262 0.9141
H16 H 0.0489 0.5825 1.0073
H17 H 0.1881 0.4721 1.0396
C19 C 0.05716(16) 0.6759(2) 0.74904(18)
H18 H 0.0943 0.7523 0.6914
H19 H -0.0188 0.7295 0.7805
H20 H 0.0208 0.5773 0.6964
O1 O 0.68239(12) 0.59245(13) 0.63390(11)
O2 O 0.56660(12) 0.08787(13) 0.67326(12)
O3 O 0.73220(11) 0.64730(15) 0.85620(12)
O4 O 0.78811(12) 0.48443(14) 0.48426(11)
loop_
_geom_bond_atom_site_label_1
_geom_bond_atom_site_label_2
_geom_bond_site_symmetry_1
_geom_bond_site_symmetry_2
C1 C16 1_555 1_555
C2 C3 1_555 1_555
C3 C4 1_555 1_555
C4 H1 1_555 1_555
C5 C4 1_555 1_555
H2 C5 1_555 1_555
H3 C5 1_555 1_555
C6 C3 1_555 1_555
C7 C6 1_555 1_555
C8 C7 1_555 1_555
H4 C8 1_555 1_555
C9 C8 1_555 1_555
H5 C9 1_555 1_555
C10 C9 1_555 1_555
C11 C10 1_555 1_555
C12 C11 1_555 1_555
H6 C12 1_555 1_555
H7 C12 1_555 1_555
C13 C12 1_555 1_555
H8 C13 1_555 1_555
H9 C13 1_555 1_555
C14 C13 1_555 1_555
H10 C14 1_555 1_555
H11 C14 1_555 1_555
C15 C10 1_555 1_555
C16 C7 1_555 1_555
C17 C4 1_555 1_555
H12 C17 1_555 1_555
H13 C17 1_555 1_555
H14 C17 1_555 1_555
C18 C11 1_555 1_555
H15 C18 1_555 1_555
H16 C18 1_555 1_555
H17 C18 1_555 1_555
C19 C11 1_555 1_555
H18 C19 1_555 1_555
H19 C19 1_555 1_555
H20 C19 1_555 1_555
O1 C1 1_555 1_555
O2 C5 1_555 1_555
O3 C1 1_555 1_555
O4 C2 1_555 1_555
C2 O1 1_555 1_555
C6 O2 1_555 1_555
C14 C15 1_555 1_555
C15 C16 1_555 1_555

#END
