
#######################################################################
#
#                 Cambridge Crystallographic Data Centre
#                                CCDC 
#
#######################################################################
#
# If this CIF has been generated from an entry in the Cambridge 
# Structural Database, then it will include bibliographic, chemical, 
# crystal, experimental, refinement or atomic coordinate data resulting 
# from the CCDC's data processing and validation procedures.
#
#######################################################################

data_MEZFAB
_chemical_formula_moiety         'C34 H28 B1 O1 P1'
_chemical_name_systematic        
trihydrido[1-(2'-methoxy[1,1'-binaphthalen]-2-yl)-1,2,5,6-tetrahydroindeno[6,7,1-cde]phosphindole]boron
_symmetry_cell_setting           triclinic
_symmetry_space_group_name_H-M   'P 1'
_symmetry_Int_Tables_number      1
_space_group_name_Hall           'P 1'
loop_
_symmetry_equiv_pos_site_id
_symmetry_equiv_pos_as_xyz
1 x,y,z
_cell_length_a                   8.8518(6)
_cell_length_b                   10.2050(7)
_cell_length_c                   34.382(3)
_cell_angle_alpha                89.242(2)
_cell_angle_beta                 89.353(2)
_cell_angle_gamma                64.554(2)
_cell_volume                     2804.22
_exptl_crystal_colour            colorless
_exptl_crystal_description       block
_cell_formula_units_Z            4
loop_
_atom_site_label
_atom_site_type_symbol
_atom_site_fract_x
_atom_site_fract_y
_atom_site_fract_z
P1 P 0.927250 0.538000 0.092110
O1 O 1.1186(5) 0.7024(5) 0.17711(13)
C1 C 0.7648(7) 0.6754(6) 0.06131(18)
H1 H 0.732409 0.627798 0.040159
H2 H 0.664011 0.732953 0.077029
C2 C 0.8396(7) 0.7719(6) 0.04463(17)
C3 C 0.7737(8) 0.8898(7) 0.01905(18)
H3 H 0.661827 0.922120 0.010377
C4 C 0.8687(8) 0.9621(7) 0.00578(19)
H4 H 0.819714 1.042757 -0.011456
C5 C 1.0317(8) 0.9176(7) 0.01742(19)
C6 C 1.0975(8) 0.7984(7) 0.04322(18)
C7 C 1.2662(8) 0.7559(7) 0.05278(18)
C8 C 1.3407(8) 0.6365(7) 0.07820(19)
H5 H 1.454761 0.603442 0.085214
C9 C 1.2441(7) 0.5643(7) 0.09362(18)
H6 H 1.294608 0.485332 0.111291
C10 C 1.0810(8) 0.6077(6) 0.08322(18)
C11 C 1.0072(7) 0.7279(6) 0.05684(17)
C12 C 1.1701(8) 0.9685(7) 0.0096(2)
H7 H 1.139376 1.065707 0.020721
H8 H 1.191081 0.972048 -0.018625
C13 C 1.3253(8) 0.8524(7) 0.03024(19)
H9 H 1.411343 0.795260 0.010873
H10 H 1.374512 0.899047 0.047983
C14 C 0.8497(7) 0.5616(6) 0.14177(17)
C15 C 0.8067(7) 0.4503(6) 0.15608(18)
H11 H 0.830537 0.366944 0.140693
C16 C 0.7315(7) 0.4617(7) 0.19169(18)
H12 H 0.699738 0.387969 0.200109
C17 C 0.7002(8) 0.5806(7) 0.21612(18)
C18 C 0.6231(8) 0.5962(7) 0.25237(18)
H13 H 0.587398 0.525047 0.260876
C19 C 0.5974(8) 0.7083(7) 0.27572(19)
H14 H 0.541772 0.716809 0.300002
C20 C 0.6530(9) 0.8137(7) 0.26416(19)
H15 H 0.638807 0.891072 0.281057
C21 C 0.7277(8) 0.8037(6) 0.22841(18)
H16 H 0.763643 0.875536 0.220638
C22 C 0.7520(7) 0.6892(6) 0.20312(17)
C23 C 0.8225(7) 0.6808(6) 0.16533(16)
C24 C 0.8514(7) 0.8062(6) 0.15021(16)
C25 C 0.7213(7) 0.9219(6) 0.13095(17)
C26 C 0.5576(7) 0.9271(6) 0.12713(17)
H17 H 0.535142 0.850578 0.137549
C27 C 0.4334(7) 1.0420(6) 0.10852(17)
H18 H 0.324422 1.046008 0.106942
C28 C 0.4659(8) 1.1546(7) 0.09163(18)
H19 H 0.380259 1.230802 0.077659
C29 C 0.6205(8) 1.1546(7) 0.09527(18)
H20 H 0.640445 1.231839 0.084430
C30 C 0.7493(7) 1.0397(6) 0.11511(17)
C31 C 0.9070(8) 1.0391(7) 0.12055(18)
H21 H 0.928216 1.115670 0.109651
C32 C 1.0297(8) 0.9316(7) 0.14102(18)
H22 H 1.133268 0.936043 0.145298
C33 C 1.0032(7) 0.8141(6) 0.15583(17)
C34 C 1.2750(8) 0.7068(8) 0.1855(2)
H23 H 1.332471 0.708239 0.161098
H24 H 1.345145 0.620710 0.200824
H25 H 1.254015 0.794313 0.200349
B1 B 0.9905(8) 0.3459(7) 0.0731(2)
H26 H 1.072149 0.275380 0.090734
H27 H 1.040470 0.337330 0.047100
H28 H 0.891338 0.326749 0.071639
P2 P 0.3405(4) 0.1436(4) 0.56358(8)
O2 O 0.2913(9) 0.5374(8) 0.59556(19)
C35 C 0.3765(16) 0.3081(13) 0.5328(3)
H29 H 0.406538 0.367761 0.550861
H30 H 0.467564 0.265082 0.513354
C36 C 0.2417(13) 0.3837(11) 0.5164(2)
C37 C 0.1732(12) 0.5088(11) 0.4914(2)
H31 H 0.246107 0.548810 0.482195
C38 C 0.0100(15) 0.5743(16) 0.4800(4)
H32 H -0.012405 0.655022 0.463177
C39 C -0.1156(17) 0.5531(16) 0.4865(3)
C40 C -0.0631(10) 0.4270(10) 0.5121(2)
C41 C -0.2081(15) 0.3978(15) 0.5195(3)
C42 C -0.1670(13) 0.2628(12) 0.5458(3)
H33 H -0.247178 0.228502 0.553529
C43 C 0.0058(12) 0.1947(13) 0.5574(3)
H34 H 0.035763 0.108694 0.572544
C44 C 0.1385(16) 0.2341(13) 0.5500(3)
C45 C 0.0868(12) 0.3466(11) 0.5274(3)
C46 C -0.2952(13) 0.5980(11) 0.4788(3)
H35 H -0.314948 0.595158 0.450600
H36 H -0.363133 0.697624 0.488259
C47 C -0.3437(17) 0.4788(17) 0.5030(4)
H37 H -0.433710 0.527879 0.522325
H38 H -0.379805 0.422832 0.485064
C48 C 0.3896(9) 0.1737(9) 0.6128(2)
C49 C 0.5379(12) 0.0637(10) 0.6278(2)
H39 H 0.599998 -0.018378 0.612196
C50 C 0.5951(14) 0.0709(11) 0.6637(3)
H40 H 0.696545 -0.004699 0.672750
C51 C 0.5039(14) 0.1907(10) 0.6877(3)
C52 C 0.5596(16) 0.2029(12) 0.7256(3)
H41 H 0.658611 0.127029 0.735601
C53 C 0.4733(16) 0.3213(12) 0.7475(3)
H42 H 0.511117 0.327885 0.772874
C54 C 0.3294(13) 0.4332(11) 0.7329(2)
H43 H 0.270239 0.515478 0.748763
C55 C 0.2696(11) 0.4296(10) 0.6967(2)
H44 H 0.172126 0.508860 0.687364
C56 C 0.3567(10) 0.3036(9) 0.6730(2)
C57 C 0.3005(9) 0.2953(8) 0.6345(2)
C58 C 0.1418(9) 0.4180(9) 0.6208(2)
C59 C -0.0104(9) 0.4129(10) 0.6294(2)
C60 C -0.0193(12) 0.2926(12) 0.6511(3)
H45 H 0.080263 0.216377 0.660766
C61 C -0.1715(14) 0.2886(16) 0.6576(4)
H46 H -0.176557 0.206982 0.670113
C62 C -0.3168(17) 0.405(2) 0.6458(5)
H47 H -0.421172 0.403513 0.651513
C63 C -0.3168(13) 0.5210(18) 0.6266(4)
H48 H -0.419854 0.598670 0.619262
C64 C -0.1642(11) 0.5275(13) 0.6173(3)
C65 C -0.1577(14) 0.6412(13) 0.5976(3)
H49 H -0.259632 0.717253 0.588919
C66 C -0.0090(14) 0.6515(10) 0.5894(3)
H50 H -0.007760 0.733065 0.576002
C67 C 0.1404(11) 0.5345(10) 0.6019(3)
C68 C 0.2933(18) 0.6608(14) 0.5739(3)
H51 H 0.252821 0.661634 0.547408
H52 H 0.407808 0.652294 0.572720
H53 H 0.220559 0.751135 0.586918
B2 B 0.4830(11) -0.0387(10) 0.5422(3)
H54 H 0.598876 -0.050679 0.542498
H55 H 0.449854 -0.043274 0.515292
H56 H 0.473784 -0.116360 0.557615
P3 P 0.5641(3) 0.8218(2) 0.90832(6)
O3 O 0.8799(6) 0.4301(6) 0.87209(15)
C69 C 0.7345(9) 0.6781(8) 0.9367(2)
H57 H 0.830276 0.621318 0.919455
H58 H 0.774015 0.721893 0.957432
C70 C 0.6615(8) 0.5840(8) 0.95370(19)
C71 C 0.7249(8) 0.4674(8) 0.97805(19)
H59 H 0.837764 0.434459 0.986055
C72 C 0.6310(9) 0.3896(8) 0.9927(2)
H60 H 0.682576 0.307915 1.009511
C73 C 0.4698(9) 0.4352(8) 0.9821(2)
C74 C 0.4016(8) 0.5568(7) 0.95745(19)
C75 C 0.2308(8) 0.6034(8) 0.9485(2)
C76 C 0.1505(8) 0.7245(8) 0.9258(2)
H61 H 0.035089 0.758566 0.919908
C77 C 0.2442(9) 0.7974(9) 0.9112(2)
H62 H 0.189205 0.881791 0.895560
C78 C 0.4112(9) 0.7512(8) 0.9188(2)
C79 C 0.4907(8) 0.6321(8) 0.94224(18)
C80 C 0.3353(9) 0.3877(9) 0.9914(2)
H63 H 0.314627 0.390366 1.019780
H64 H 0.367515 0.287693 0.982174
C81 C 0.1729(10) 0.4993(9) 0.9693(2)
H65 H 0.133669 0.448663 0.950362
H66 H 0.081288 0.551951 0.987926
C82 C 0.6287(9) 0.8024(8) 0.85760(19)
C83 C 0.6658(10) 0.9134(8) 0.8426(2)
H67 H 0.648512 0.993572 0.858721
C84 C 0.7258(11) 0.9110(9) 0.8058(2)
H68 H 0.752114 0.987142 0.796776
C85 C 0.7483(10) 0.7948(9) 0.7813(2)
C86 C 0.8090(11) 0.7886(10) 0.7422(2)
H69 H 0.837923 0.862514 0.732522
C87 C 0.8251(11) 0.6758(11) 0.7190(2)
H70 H 0.861550 0.673556 0.692781
C88 C 0.7893(11) 0.5653(11) 0.7329(2)
H71 H 0.803954 0.487312 0.716211
C89 C 0.7331(9) 0.5638(9) 0.7702(2)
H72 H 0.709792 0.486030 0.779169
C90 C 0.7102(8) 0.6827(8) 0.7953(2)
C91 C 0.6537(8) 0.6825(8) 0.83476(19)
C92 C 0.6085(9) 0.5646(7) 0.84809(19)
C93 C 0.4461(9) 0.5773(8) 0.83942(19)
C94 C 0.3238(9) 0.6981(9) 0.8198(2)
H73 H 0.350283 0.774348 0.810885
C95 C 0.1688(11) 0.7064(12) 0.8134(2)
H74 H 0.087578 0.788971 0.800410
C96 C 0.1281(12) 0.5958(13) 0.8256(3)
H75 H 0.018475 0.604122 0.821353
C97 C 0.2420(12) 0.4765(12) 0.8435(3)
H76 H 0.212764 0.400042 0.850619
C98 C 0.4047(10) 0.4629(9) 0.8518(2)
C99 C 0.5204(12) 0.3430(10) 0.8713(2)
H77 H 0.489045 0.269368 0.879944
C100 C 0.6760(11) 0.3281(9) 0.8783(2)
H78 H 0.754577 0.243481 0.891050
C101 C 0.7225(9) 0.4421(8) 0.8662(2)
C102 C 0.9955(9) 0.3070(10) 0.8933(3)
H79 H 0.999139 0.217996 0.881981
H80 H 0.959353 0.313542 0.920542
H81 H 1.107055 0.304980 0.891911
B3 B 0.4967(11) 1.0148(8) 0.9278(2)
H82 H 0.405237 1.083792 0.911850
H83 H 0.591860 1.039878 0.926527
H84 H 0.458737 1.019120 0.954792
P4 P 0.4565(3) 0.4640(2) 0.37684(6)
O4 O 0.8157(5) 0.2930(5) 0.29088(13)
C103 C 0.4196(10) 0.3207(8) 0.4088(2)
H85 H 0.337189 0.368319 0.429787
H86 H 0.378881 0.262508 0.392862
C104 C 0.5848(10) 0.2297(8) 0.4250(2)
C105 C 0.6273(9) 0.1135(7) 0.45033(19)
H87 H 0.547622 0.080730 0.459487
C106 C 0.7999(10) 0.0449(10) 0.4620(2)
H88 H 0.830711 -0.036962 0.478857
C107 C 0.9223(10) 0.0833(9) 0.4519(2)
C108 C 0.8665(9) 0.1966(8) 0.4272(2)
C109 C 1.0055(11) 0.2402(9) 0.4168(2)
C110 C 0.9622(9) 0.3549(8) 0.3917(2)
H89 H 1.043301 0.387957 0.383870
C111 C 0.7928(10) 0.4271(10) 0.3767(2)
H90 H 0.768551 0.504747 0.358667
C112 C 0.6697(9) 0.3913(8) 0.3867(2)
C113 C 0.7196(9) 0.2749(7) 0.41150(19)
C114 C 1.1551(10) 0.1465(9) 0.4380(3)
H91 H 1.184880 0.202200 0.457440
H92 H 1.251005 0.098294 0.420122
C115 C 1.1008(10) 0.0251(9) 0.4599(2)
H93 H 1.162265 -0.072567 0.448540
H94 H 1.122126 0.019545 0.488181
C116 C 0.4040(7) 0.4389(6) 0.32746(18)
C117 C 0.2518(7) 0.5494(6) 0.31355(17)
H95 H 0.191745 0.632420 0.329018
C118 C 0.1903(7) 0.5375(6) 0.27787(18)
H96 H 0.085622 0.610178 0.269449
C119 C 0.2804(7) 0.4196(6) 0.25392(16)
C120 C 0.2174(8) 0.4044(7) 0.21724(17)
H97 H 0.110935 0.474759 0.209045
C121 C 0.3069(8) 0.2912(7) 0.19377(18)
H98 H 0.263085 0.282378 0.169352
C122 C 0.4671(8) 0.1852(7) 0.20582(18)
H99 H 0.531089 0.106654 0.189259
C123 C 0.5273(7) 0.1970(7) 0.24080(17)
H100 H 0.634400 0.125963 0.248383
C124 C 0.4374(7) 0.3105(6) 0.26638(17)
C125 C 0.4959(7) 0.3191(6) 0.30452(16)
C126 C 0.6486(7) 0.1944(6) 0.31882(17)
C127 C 0.6293(7) 0.0772(6) 0.33881(18)
C128 C 0.4730(8) 0.0718(7) 0.34319(18)
H101 H 0.375534 0.146921 0.332339
C129 C 0.4610(10) -0.0397(8) 0.36276(19)
H102 H 0.355041 -0.041724 0.365181
C130 C 0.6000(10) -0.1508(8) 0.3793(2)
H103 H 0.587938 -0.226399 0.393459
C131 C 0.7523(9) -0.1519(7) 0.3753(2)
H104 H 0.846690 -0.229401 0.386462
C132 C 0.7747(8) -0.0394(7) 0.35478(17)
C133 C 0.9345(8) -0.0385(7) 0.34839(18)
H105 H 1.032020 -0.114753 0.358881
C134 C 0.9485(8) 0.0683(7) 0.32781(19)
H106 H 1.056137 0.065391 0.323542
C135 C 0.8086(7) 0.1832(6) 0.31258(17)
C136 C 0.9777(8) 0.2876(8) 0.2829(2)
H107 H 0.965596 0.370615 0.266414
H108 H 1.046921 0.197252 0.269379
H109 H 1.031212 0.291259 0.307379
B4 B 0.3211(9) 0.6487(8) 0.3973(2)
H110 H 0.322274 0.723875 0.379392
H111 H 0.364418 0.658711 0.422596
H112 H 0.206113 0.659498 0.400387
loop_
_geom_bond_atom_site_label_1
_geom_bond_atom_site_label_2
_geom_bond_site_symmetry_1
_geom_bond_site_symmetry_2
P1 C1 1_555 1_555
O1 C33 1_555 1_555
C1 H1 1_555 1_555
H2 C1 1_555 1_555
C2 C1 1_555 1_555
C3 C2 1_555 1_555
H3 C3 1_555 1_555
C4 C3 1_555 1_555
H4 C4 1_555 1_555
C5 C4 1_555 1_555
C6 C5 1_555 1_555
C7 C6 1_555 1_555
C8 C7 1_555 1_555
H5 C8 1_555 1_555
C9 C8 1_555 1_555
H6 C9 1_555 1_555
C10 P1 1_555 1_555
C11 C2 1_555 1_555
C12 C5 1_555 1_555
H7 C12 1_555 1_555
H8 C12 1_555 1_555
C13 C7 1_555 1_555
H9 C13 1_555 1_555
H10 C13 1_555 1_555
C14 P1 1_555 1_555
C15 C14 1_555 1_555
H11 C15 1_555 1_555
C16 C15 1_555 1_555
H12 C16 1_555 1_555
C17 C16 1_555 1_555
C18 C17 1_555 1_555
H13 C18 1_555 1_555
C19 C18 1_555 1_555
H14 C19 1_555 1_555
C20 C19 1_555 1_555
H15 C20 1_555 1_555
C21 C20 1_555 1_555
H16 C21 1_555 1_555
C22 C17 1_555 1_555
C23 C14 1_555 1_555
C24 C23 1_555 1_555
C25 C24 1_555 1_555
C26 C25 1_555 1_555
H17 C26 1_555 1_555
C27 C26 1_555 1_555
H18 C27 1_555 1_555
C28 C27 1_555 1_555
H19 C28 1_555 1_555
C29 C28 1_555 1_555
H20 C29 1_555 1_555
C30 C25 1_555 1_555
C31 C30 1_555 1_555
H21 C31 1_555 1_555
C32 C31 1_555 1_555
H22 C32 1_555 1_555
C33 C24 1_555 1_555
C34 O1 1_555 1_555
H23 C34 1_555 1_555
H24 C34 1_555 1_555
H25 C34 1_555 1_555
B1 P1 1_555 1_555
H26 B1 1_555 1_555
H27 B1 1_555 1_555
H28 B1 1_555 1_555
P2 C35 1_555 1_555
O2 C67 1_555 1_555
C35 H29 1_555 1_555
H30 C35 1_555 1_555
C36 C35 1_555 1_555
C37 C36 1_555 1_555
H31 C37 1_555 1_555
C38 C37 1_555 1_555
H32 C38 1_555 1_555
C39 C38 1_555 1_555
C40 C39 1_555 1_555
C41 C40 1_555 1_555
C42 C41 1_555 1_555
H33 C42 1_555 1_555
C43 C42 1_555 1_555
H34 C43 1_555 1_555
C44 P2 1_555 1_555
C45 C36 1_555 1_555
C46 C39 1_555 1_555
H35 C46 1_555 1_555
H36 C46 1_555 1_555
C47 C41 1_555 1_555
H37 C47 1_555 1_555
H38 C47 1_555 1_555
C48 P2 1_555 1_555
C49 C48 1_555 1_555
H39 C49 1_555 1_555
C50 C49 1_555 1_555
H40 C50 1_555 1_555
C51 C50 1_555 1_555
C52 C51 1_555 1_555
H41 C52 1_555 1_555
C53 C52 1_555 1_555
H42 C53 1_555 1_555
C54 C53 1_555 1_555
H43 C54 1_555 1_555
C55 C54 1_555 1_555
H44 C55 1_555 1_555
C56 C51 1_555 1_555
C57 C48 1_555 1_555
C58 C57 1_555 1_555
C59 C58 1_555 1_555
C60 C59 1_555 1_555
H45 C60 1_555 1_555
C61 C60 1_555 1_555
H46 C61 1_555 1_555
C62 C61 1_555 1_555
H47 C62 1_555 1_555
C63 C62 1_555 1_555
H48 C63 1_555 1_555
C64 C59 1_555 1_555
C65 C64 1_555 1_555
H49 C65 1_555 1_555
C66 C65 1_555 1_555
H50 C66 1_555 1_555
C67 C58 1_555 1_555
C68 O2 1_555 1_555
H51 C68 1_555 1_555
H52 C68 1_555 1_555
H53 C68 1_555 1_555
B2 P2 1_555 1_555
H54 B2 1_555 1_555
H55 B2 1_555 1_555
H56 B2 1_555 1_555
P3 C69 1_555 1_555
O3 C101 1_555 1_555
C69 H57 1_555 1_555
H58 C69 1_555 1_555
C70 C69 1_555 1_555
C71 C70 1_555 1_555
H59 C71 1_555 1_555
C72 C71 1_555 1_555
H60 C72 1_555 1_555
C73 C72 1_555 1_555
C74 C73 1_555 1_555
C75 C74 1_555 1_555
C76 C75 1_555 1_555
H61 C76 1_555 1_555
C77 C76 1_555 1_555
H62 C77 1_555 1_555
C78 P3 1_555 1_555
C79 C70 1_555 1_555
C80 C73 1_555 1_555
H63 C80 1_555 1_555
H64 C80 1_555 1_555
C81 C75 1_555 1_555
H65 C81 1_555 1_555
H66 C81 1_555 1_555
C82 P3 1_555 1_555
C83 C82 1_555 1_555
H67 C83 1_555 1_555
C84 C83 1_555 1_555
H68 C84 1_555 1_555
C85 C84 1_555 1_555
C86 C85 1_555 1_555
H69 C86 1_555 1_555
C87 C86 1_555 1_555
H70 C87 1_555 1_555
C88 C87 1_555 1_555
H71 C88 1_555 1_555
C89 C88 1_555 1_555
H72 C89 1_555 1_555
C90 C85 1_555 1_555
C91 C82 1_555 1_555
C92 C91 1_555 1_555
C93 C92 1_555 1_555
C94 C93 1_555 1_555
H73 C94 1_555 1_555
C95 C94 1_555 1_555
H74 C95 1_555 1_555
C96 C95 1_555 1_555
H75 C96 1_555 1_555
C97 C96 1_555 1_555
H76 C97 1_555 1_555
C98 C93 1_555 1_555
C99 C98 1_555 1_555
H77 C99 1_555 1_555
C100 C99 1_555 1_555
H78 C100 1_555 1_555
C101 C92 1_555 1_555
C102 O3 1_555 1_555
H79 C102 1_555 1_555
H80 C102 1_555 1_555
H81 C102 1_555 1_555
B3 P3 1_555 1_555
H82 B3 1_555 1_555
H83 B3 1_555 1_555
H84 B3 1_555 1_555
P4 C103 1_555 1_555
O4 C135 1_555 1_555
C103 H85 1_555 1_555
H86 C103 1_555 1_555
C104 C103 1_555 1_555
C105 C104 1_555 1_555
H87 C105 1_555 1_555
C106 C105 1_555 1_555
H88 C106 1_555 1_555
C107 C106 1_555 1_555
C108 C107 1_555 1_555
C109 C108 1_555 1_555
C110 C109 1_555 1_555
H89 C110 1_555 1_555
C111 C110 1_555 1_555
H90 C111 1_555 1_555
C112 P4 1_555 1_555
C113 C104 1_555 1_555
C114 C109 1_555 1_555
H91 C114 1_555 1_555
H92 C114 1_555 1_555
C115 C107 1_555 1_555
H93 C115 1_555 1_555
H94 C115 1_555 1_555
C116 P4 1_555 1_555
C117 C116 1_555 1_555
H95 C117 1_555 1_555
C118 C117 1_555 1_555
H96 C118 1_555 1_555
C119 C118 1_555 1_555
C120 C119 1_555 1_555
H97 C120 1_555 1_555
C121 C120 1_555 1_555
H98 C121 1_555 1_555
C122 C121 1_555 1_555
H99 C122 1_555 1_555
C123 C122 1_555 1_555
H100 C123 1_555 1_555
C124 C119 1_555 1_555
C125 C116 1_555 1_555
C126 C125 1_555 1_555
C127 C126 1_555 1_555
C128 C127 1_555 1_555
H101 C128 1_555 1_555
C129 C128 1_555 1_555
H102 C129 1_555 1_555
C130 C129 1_555 1_555
H103 C130 1_555 1_555
C131 C130 1_555 1_555
H104 C131 1_555 1_555
C132 C127 1_555 1_555
C133 C132 1_555 1_555
H105 C133 1_555 1_555
C134 C133 1_555 1_555
H106 C134 1_555 1_555
C135 C126 1_555 1_555
C136 O4 1_555 1_555
H107 C136 1_555 1_555
H108 C136 1_555 1_555
H109 C136 1_555 1_555
B4 P4 1_555 1_555
H110 B4 1_555 1_555
H111 B4 1_555 1_555
H112 B4 1_555 1_555
C6 C11 1_555 1_555
C9 C10 1_555 1_555
C10 C11 1_555 1_555
C12 C13 1_555 1_555
C21 C22 1_555 1_555
C22 C23 1_555 1_555
C29 C30 1_555 1_555
C32 C33 1_555 1_555
C40 C45 1_555 1_555
C43 C44 1_555 1_555
C44 C45 1_555 1_555
C46 C47 1_555 1_555
C55 C56 1_555 1_555
C56 C57 1_555 1_555
C63 C64 1_555 1_555
C66 C67 1_555 1_555
C74 C79 1_555 1_555
C77 C78 1_555 1_555
C78 C79 1_555 1_555
C80 C81 1_555 1_555
C89 C90 1_555 1_555
C90 C91 1_555 1_555
C97 C98 1_555 1_555
C100 C101 1_555 1_555
C108 C113 1_555 1_555
C111 C112 1_555 1_555
C112 C113 1_555 1_555
C114 C115 1_555 1_555
C123 C124 1_555 1_555
C124 C125 1_555 1_555
C131 C132 1_555 1_555
C134 C135 1_555 1_555

#END
