
#######################################################################
#
#                 Cambridge Crystallographic Data Centre
#                                CCDC 
#
#######################################################################
#
# If this CIF has been generated from an entry in the Cambridge 
# Structural Database, then it will include bibliographic, chemical, 
# crystal, experimental, refinement or atomic coordinate data resulting 
# from the CCDC's data processing and validation procedures.
#
#######################################################################

data_MEZFUU
_chemical_formula_moiety         'C31 H28 N2 O6'
_chemical_name_systematic        
'Dimethyl 2-(4-methoxyphenyl)-4,4-dimethyl-1-oxo-2,4,7,8-tetrahydro-1H-azepino[3,2,1-de]pyrrolo[4,3,2-mn]acridine-6,7-dicarboxylate'
_symmetry_cell_setting           monoclinic
_symmetry_space_group_name_H-M   'P 21/n'
_symmetry_Int_Tables_number      14
_space_group_name_Hall           '-P 2yn'
loop_
_symmetry_equiv_pos_site_id
_symmetry_equiv_pos_as_xyz
1 x,y,z
2 1/2-x,1/2+y,1/2-z
3 -x,-y,-z
4 1/2+x,1/2-y,1/2+z
_cell_length_a                   16.7024(15)
_cell_length_b                   8.0751(7)
_cell_length_c                   19.7821(17)
_cell_angle_alpha                90
_cell_angle_beta                 92.7990(10)
_cell_angle_gamma                90
_cell_volume                     2664.9
_exptl_crystal_colour            red
_exptl_crystal_description       block
_cell_formula_units_Z            4
loop_
_atom_site_label
_atom_site_type_symbol
_atom_site_fract_x
_atom_site_fract_y
_atom_site_fract_z
N1 N 0.27161(16) 0.6048(3) 0.56101(12)
N2 N 0.50735(14) 0.3368(3) 0.62536(11)
O1 O 0.34181(13) 0.8187(3) 0.50996(10)
O2 O -0.04280(17) 0.7780(4) 0.47607(12)
O3 O 0.67606(14) 0.2608(4) 0.73012(12)
O4 O 0.57121(16) 0.2487(4) 0.79518(14)
O5 O 0.44917(12) -0.2489(3) 0.76131(12)
O6 O 0.58126(14) -0.2002(3) 0.76627(12)
C1 C 0.3414(2) 0.6907(5) 0.54414(15)
C2 C 0.40922(19) 0.5932(4) 0.57407(14)
C3 C 0.37891(17) 0.4566(4) 0.60353(14)
C4 C 0.29283(18) 0.4585(4) 0.59774(14)
C5 C 0.25026(17) 0.3353(4) 0.62289(14)
H1 H 0.1946 0.3380 0.6177
C6 C 0.29060(16) 0.1908(4) 0.65969(14)
C7 C 0.38378(16) 0.1898(4) 0.66035(13)
C8 C 0.42434(17) 0.3215(4) 0.63239(13)
C9 C 0.54296(19) 0.4867(4) 0.60152(14)
C10 C 0.49489(19) 0.6175(4) 0.57464(14)
C11 C 0.5317(2) 0.7606(4) 0.54935(14)
H2 H 0.5001 0.8460 0.5312
C12 C 0.6147(2) 0.7750(5) 0.55129(17)
H3 H 0.6384 0.8693 0.5341
C13 C 0.6617(2) 0.6491(5) 0.57872(17)
H4 H 0.7173 0.6593 0.5804
C14 C 0.62654(19) 0.5065(5) 0.60402(15)
H5 H 0.6590 0.4233 0.6228
C15 C 0.19088(19) 0.6498(4) 0.53958(16)
C16 C 0.1696(2) 0.6773(5) 0.47228(18)
H6 H 0.2080 0.6681 0.4399
C17 C 0.0918(3) 0.7184(5) 0.45275(18)
H7 H 0.0780 0.7361 0.4072
C18 C 0.0332(2) 0.7339(5) 0.5008(2)
C19 C 0.05406(19) 0.7049(4) 0.56751(17)
H8 H 0.0157 0.7128 0.5999
C20 C 0.13213(19) 0.6640(4) 0.58664(15)
H9 H 0.1458 0.6455 0.6322
C21 C -0.1027(2) 0.8010(6) 0.5248(2)
H10 H -0.1114 0.6984 0.5477
H11 H -0.1518 0.8367 0.5021
H12 H -0.0848 0.8835 0.5571
C22 C 0.41904(17) 0.0476(4) 0.69549(14)
H13 H 0.3810 -0.0276 0.7094
C23 C 0.49550(18) 0.0007(4) 0.71246(15)
C24 C 0.56889(17) 0.0918(4) 0.69141(16)
H14 H 0.6098 0.0076 0.6840
C25 C 0.55289(17) 0.1805(4) 0.62315(14)
H15 H 0.6041 0.2034 0.6040
H16 H 0.5239 0.1050 0.5926
C26 C 0.25639(16) 0.0332(4) 0.62388(14)
H17 H 0.1989 0.0347 0.6241
H18 H 0.2764 -0.0634 0.6474
H19 H 0.2726 0.0307 0.5780
C27 C 0.26324(16) 0.1958(4) 0.73375(13)
H20 H 0.2883 0.2877 0.7572
H21 H 0.2784 0.0946 0.7564
H22 H 0.2061 0.2084 0.7334
C28 C 0.5140(2) -0.1567(5) 0.74898(16)
C29 C 0.46370(19) -0.4093(5) 0.79171(18)
H23 H 0.5150 -0.4499 0.7793
H24 H 0.4225 -0.4850 0.7760
H25 H 0.4633 -0.3997 0.8401
C30 C 0.6039(2) 0.2069(5) 0.74573(19)
C31 C 0.7140(2) 0.3834(6) 0.7757(2)
H26 H 0.6842 0.4850 0.7727
H27 H 0.7679 0.4028 0.7629
H28 H 0.7148 0.3427 0.8213
loop_
_geom_bond_atom_site_label_1
_geom_bond_atom_site_label_2
_geom_bond_site_symmetry_1
_geom_bond_site_symmetry_2
N1 C1 1_555 1_555
N2 C8 1_555 1_555
O1 C1 1_555 1_555
O2 C18 1_555 1_555
O3 C30 1_555 1_555
O4 C30 1_555 1_555
O5 C28 1_555 1_555
O6 C28 1_555 1_555
C1 C2 1_555 1_555
C2 C3 1_555 1_555
C3 C4 1_555 1_555
C4 N1 1_555 1_555
C5 C4 1_555 1_555
H1 C5 1_555 1_555
C6 C5 1_555 1_555
C7 C6 1_555 1_555
C8 C3 1_555 1_555
C9 N2 1_555 1_555
C10 C2 1_555 1_555
C11 C10 1_555 1_555
H2 C11 1_555 1_555
C12 C11 1_555 1_555
H3 C12 1_555 1_555
C13 C12 1_555 1_555
H4 C13 1_555 1_555
C14 C9 1_555 1_555
H5 C14 1_555 1_555
C15 N1 1_555 1_555
C16 C15 1_555 1_555
H6 C16 1_555 1_555
C17 C16 1_555 1_555
H7 C17 1_555 1_555
C18 C17 1_555 1_555
C19 C18 1_555 1_555
H8 C19 1_555 1_555
C20 C15 1_555 1_555
H9 C20 1_555 1_555
C21 O2 1_555 1_555
H10 C21 1_555 1_555
H11 C21 1_555 1_555
H12 C21 1_555 1_555
C22 C7 1_555 1_555
H13 C22 1_555 1_555
C23 C22 1_555 1_555
C24 C23 1_555 1_555
H14 C24 1_555 1_555
C25 N2 1_555 1_555
H15 C25 1_555 1_555
H16 C25 1_555 1_555
C26 C6 1_555 1_555
H17 C26 1_555 1_555
H18 C26 1_555 1_555
H19 C26 1_555 1_555
C27 C6 1_555 1_555
H20 C27 1_555 1_555
H21 C27 1_555 1_555
H22 C27 1_555 1_555
C28 C23 1_555 1_555
C29 O5 1_555 1_555
H23 C29 1_555 1_555
H24 C29 1_555 1_555
H25 C29 1_555 1_555
C30 C24 1_555 1_555
C31 O3 1_555 1_555
H26 C31 1_555 1_555
H27 C31 1_555 1_555
H28 C31 1_555 1_555
C7 C8 1_555 1_555
C9 C10 1_555 1_555
C13 C14 1_555 1_555
C19 C20 1_555 1_555
C24 C25 1_555 1_555

#END
