
#######################################################################
#
#                 Cambridge Crystallographic Data Centre
#                                CCDC 
#
#######################################################################
#
# If this CIF has been generated from an entry in the Cambridge 
# Structural Database, then it will include bibliographic, chemical, 
# crystal, experimental, refinement or atomic coordinate data resulting 
# from the CCDC's data processing and validation procedures.
#
#######################################################################

data_MEZFEF
_chemical_formula_moiety         'C29 H34 N1 O1 P1'
_chemical_name_systematic        
3-(diphenylphosphanyl)-4-{[2,6-bis(propan-2-yl)phenyl]amino}pent-3-en-2-one
_symmetry_cell_setting           triclinic
_symmetry_space_group_name_H-M   'P -1'
_symmetry_Int_Tables_number      2
_space_group_name_Hall           '-P 1'
loop_
_symmetry_equiv_pos_site_id
_symmetry_equiv_pos_as_xyz
1 x,y,z
2 -x,-y,-z
_cell_length_a                   11.1541(7)
_cell_length_b                   11.4730(8)
_cell_length_c                   12.0849(10)
_cell_angle_alpha                65.402(8)
_cell_angle_beta                 75.664(6)
_cell_angle_gamma                62.435(7)
_cell_volume                     1243.65
_exptl_crystal_colour            'light yellow'
_exptl_crystal_description       plate
_cell_formula_units_Z            2
loop_
_atom_site_label
_atom_site_type_symbol
_atom_site_fract_x
_atom_site_fract_y
_atom_site_fract_z
P1 P 0.43236(4) 0.05169(6) 0.17553(6)
O1 O 0.23606(12) 0.42814(17) 0.20663(15)
N1 N 0.08564(13) 0.2965(2) 0.32150(16)
H1 H 0.10322(13) 0.3688(2) 0.29980(16)
C1 C 0.18024(16) 0.1865(2) 0.29477(19)
C2 C 0.30108(16) 0.1929(2) 0.2247(2)
C3 C 0.33673(18) -0.0061(3) 0.1204(2)
C4 C 0.32093(17) 0.3198(2) 0.1848(2)
C5 C 0.44948(19) 0.3300(3) 0.1105(3)
H2 H 0.4520(9) 0.3261(19) 0.0321(7)
H3 H 0.4507(9) 0.4172(9) 0.1000(13)
H4 H 0.52705(19) 0.2532(11) 0.1524(9)
C6 C 0.50254(16) -0.0950(2) 0.3152(2)
C7 C -0.12453(19) 0.3665(3) 0.1785(2)
H5 H -0.02783(19) 0.3150(3) 0.1606(2)
C8 C 0.15064(17) 0.0585(2) 0.3398(2)
H6 H 0.1007(12) 0.0501(8) 0.4178(6)
H7 H 0.0979(12) 0.0669(7) 0.2828(6)
H8 H 0.23432(17) -0.0235(3) 0.3477(12)
C9 C 0.35977(19) -0.1441(3) 0.1474(2)
H9 H 0.42494(19) -0.2158(3) 0.2013(2)
C10 C -0.04516(16) 0.3050(2) 0.3843(2)
C11 C -0.06638(16) 0.2860(2) 0.5062(2)
C12 C 0.46454(18) -0.0863(3) 0.4309(2)
H10 H 0.39578(18) -0.0046(3) 0.4409(2)
C13 C 0.60878(18) -0.2190(3) 0.3037(2)
H11 H 0.63869(18) -0.2256(3) 0.2267(2)
C14 C -0.14680(17) 0.3341(2) 0.3139(2)
C15 C -0.19429(17) 0.2938(3) 0.5641(2)
H12 H -0.21129(17) 0.2813(3) 0.6467(2)
C16 C -0.29534(18) 0.3202(3) 0.4980(2)
H13 H -0.37959(18) 0.3244(3) 0.5370(2)
C17 C 0.04415(17) 0.2551(3) 0.5814(2)
H14 H 0.11646(17) 0.2770(3) 0.5240(2)
C18 C 0.5286(2) -0.1988(3) 0.5319(2)
H15 H 0.5032(2) -0.1911(3) 0.6087(2)
C19 C 0.2870(2) -0.1778(3) 0.0952(2)
H16 H 0.3036(2) -0.2711(3) 0.1147(2)
C20 C 0.6298(2) -0.3225(3) 0.5194(3)
H17 H 0.6703(2) -0.3985(3) 0.5876(3)
C21 C -0.27238(18) 0.3400(3) 0.3771(2)
H18 H -0.34189(18) 0.3581(3) 0.3348(2)
C22 C 0.66958(18) -0.3313(3) 0.4048(3)
H19 H 0.73795(18) -0.4135(3) 0.3955(3)
C23 C 0.2394(2) 0.0989(3) 0.0371(2)
H20 H 0.2230(2) 0.1925(3) 0.0161(2)
C24 C 0.1904(2) -0.0720(3) 0.0144(2)
H21 H 0.1414(2) -0.0937(3) -0.0203(2)
C25 C -0.1577(2) 0.5221(3) 0.1115(3)
H22 H -0.2515(5) 0.5759(3) 0.1289(12)
H23 H -0.1021(11) 0.5480(5) 0.1379(10)
H24 H -0.1404(15) 0.5407(4) 0.0253(3)
C26 C -0.0074(2) 0.3463(3) 0.6591(2)
H25 H -0.0505(14) 0.4431(3) 0.6089(3)
H26 H -0.0716(12) 0.3202(10) 0.7221(8)
H27 H 0.0673(3) 0.3334(13) 0.6954(12)
C27 C 0.1673(2) 0.0652(3) -0.0143(3)
H28 H 0.1025(2) 0.1363(3) -0.0688(3)
C28 C 0.1059(2) 0.1007(3) 0.6601(3)
H29 H 0.0381(5) 0.0769(5) 0.7197(10)
H30 H 0.1390(15) 0.0445(3) 0.6096(3)
H31 H 0.1795(11) 0.0832(5) 0.7008(12)
C29 C -0.2033(3) 0.3214(4) 0.1285(3)
H32 H -0.1868(15) 0.2248(7) 0.1747(11)
H33 H -0.2985(3) 0.3788(13) 0.1350(16)
H34 H -0.1739(14) 0.3325(19) 0.0445(5)
loop_
_geom_bond_atom_site_label_1
_geom_bond_atom_site_label_2
_geom_bond_site_symmetry_1
_geom_bond_site_symmetry_2
P1 C2 1_555 1_555
O1 C4 1_555 1_555
N1 H1 1_555 1_555
C1 N1 1_555 1_555
C2 C1 1_555 1_555
C3 P1 1_555 1_555
C4 C2 1_555 1_555
C5 C4 1_555 1_555
H2 C5 1_555 1_555
H3 C5 1_555 1_555
H4 C5 1_555 1_555
C6 P1 1_555 1_555
C7 H5 1_555 1_555
C8 C1 1_555 1_555
H6 C8 1_555 1_555
H7 C8 1_555 1_555
H8 C8 1_555 1_555
C9 C3 1_555 1_555
H9 C9 1_555 1_555
C10 N1 1_555 1_555
C11 C10 1_555 1_555
C12 C6 1_555 1_555
H10 C12 1_555 1_555
C13 C6 1_555 1_555
H11 C13 1_555 1_555
C14 C7 1_555 1_555
C15 C11 1_555 1_555
H12 C15 1_555 1_555
C16 C15 1_555 1_555
H13 C16 1_555 1_555
C17 C11 1_555 1_555
H14 C17 1_555 1_555
C18 C12 1_555 1_555
H15 C18 1_555 1_555
C19 C9 1_555 1_555
H16 C19 1_555 1_555
C20 C18 1_555 1_555
H17 C20 1_555 1_555
C21 C14 1_555 1_555
H18 C21 1_555 1_555
C22 C13 1_555 1_555
H19 C22 1_555 1_555
C23 C3 1_555 1_555
H20 C23 1_555 1_555
C24 C19 1_555 1_555
H21 C24 1_555 1_555
C25 C7 1_555 1_555
H22 C25 1_555 1_555
H23 C25 1_555 1_555
H24 C25 1_555 1_555
C26 C17 1_555 1_555
H25 C26 1_555 1_555
H26 C26 1_555 1_555
H27 C26 1_555 1_555
C27 C23 1_555 1_555
H28 C27 1_555 1_555
C28 C17 1_555 1_555
H29 C28 1_555 1_555
H30 C28 1_555 1_555
H31 C28 1_555 1_555
C29 C7 1_555 1_555
H32 C29 1_555 1_555
H33 C29 1_555 1_555
H34 C29 1_555 1_555
C10 C14 1_555 1_555
C16 C21 1_555 1_555
C20 C22 1_555 1_555
C24 C27 1_555 1_555

#END
