
#######################################################################
#
#                 Cambridge Crystallographic Data Centre
#                                CCDC 
#
#######################################################################
#
# If this CIF has been generated from an entry in the Cambridge 
# Structural Database, then it will include bibliographic, chemical, 
# crystal, experimental, refinement or atomic coordinate data resulting 
# from the CCDC's data processing and validation procedures.
#
#######################################################################

data_MEZGEG
_chemical_formula_moiety         'C22 H27 N1 O3 S1'
_chemical_name_systematic        
4-((4-methylphenyl)sulfonyl)-2-phenyldecahydrocyclohepta[b][1,4]oxazine
_symmetry_cell_setting           monoclinic
_symmetry_space_group_name_H-M   'P 21/c'
_symmetry_Int_Tables_number      14
_space_group_name_Hall           '-P 2ybc'
loop_
_symmetry_equiv_pos_site_id
_symmetry_equiv_pos_as_xyz
1 x,y,z
2 -x,1/2+y,1/2-z
3 -x,-y,-z
4 x,1/2-y,1/2+z
_cell_length_a                   13.883(6)
_cell_length_b                   13.200(4)
_cell_length_c                   12.150(5)
_cell_angle_alpha                90
_cell_angle_beta                 115.875(6)
_cell_angle_gamma                90
_cell_volume                     2003.34
_exptl_crystal_colour            colorless
_exptl_crystal_description       Plate
_chemical_melting_point          '112-113 deg.C'
_cell_formula_units_Z            4
loop_
_atom_site_label
_atom_site_type_symbol
_atom_site_fract_x
_atom_site_fract_y
_atom_site_fract_z
S1 S 0.53723(6) 0.67732(6) 0.04759(7)
O1 O 0.50626(17) 0.67236(17) -0.08135(19)
O2 O 0.46553(16) 0.64059(17) 0.0958(2)
O3 O 0.81721(17) 0.47804(18) 0.2029(2)
N1 N 0.64749(19) 0.6129(2) 0.1149(2)
C1 C 0.6656(3) 1.1076(3) 0.2181(4)
H1 H 0.741370 1.107789 0.268930
H2 H 0.628998 1.130079 0.264992
H3 H 0.649198 1.152431 0.150053
C2 C 0.6298(3) 1.0022(3) 0.1719(3)
C3 C 0.6372(3) 0.9653(3) 0.0684(3)
H4 H 0.663825 1.007046 0.026375
C4 C 0.6057(3) 0.8678(3) 0.0272(3)
H5 H 0.610309 0.844247 -0.042506
C5 C 0.5670(2) 0.8050(2) 0.0909(3)
C6 C 0.5574(2) 0.8405(2) 0.1930(3)
H6 H 0.530935 0.798666 0.235050
C7 C 0.5877(2) 0.9390(3) 0.2318(3)
H7 H 0.579813 0.963476 0.299178
C8 C 0.7346(2) 0.6248(3) 0.0764(3)
H8 H 0.702201 0.646762 -0.009220
C9 C 0.7800(3) 0.5190(3) 0.0816(3)
H9 H 0.722690 0.475319 0.025103
C10 C 0.7318(2) 0.4668(2) 0.2390(3)
H10 H 0.677327 0.421467 0.181092
C11 C 0.6810(2) 0.5692(2) 0.2370(3)
H11 H 0.619684 0.561108 0.254587
H12 H 0.732269 0.613450 0.298479
C12 C 0.8198(3) 0.7031(3) 0.1511(3)
H13 H 0.877083 0.669263 0.219106
H14 H 0.788120 0.752607 0.184387
C13 C 0.8668(3) 0.7579(3) 0.0741(4)
H15 H 0.808360 0.788212 0.004043
H16 H 0.912056 0.812557 0.122765
C14 C 0.9322(3) 0.6929(4) 0.0277(4)
H17 H 0.948576 0.733350 -0.028626
H18 H 0.999597 0.676452 0.096672
C15 C 0.8809(3) 0.5947(4) -0.0362(4)
H19 H 0.921687 0.568337 -0.077538
H20 H 0.809173 0.609209 -0.098159
C16 C 0.8744(3) 0.5129(3) 0.0497(3)
H21 H 0.872277 0.447355 0.012642
H22 H 0.939756 0.515525 0.125293
C17 C 0.7773(2) 0.4194(2) 0.3640(3)
C18 C 0.8655(3) 0.4625(3) 0.4623(3)
H23 H 0.896149 0.521668 0.450597
C19 C 0.9071(3) 0.4171(3) 0.5768(3)
H24 H 0.965845 0.445840 0.641321
C20 C 0.8619(3) 0.3298(3) 0.5954(3)
H25 H 0.890223 0.299392 0.672127
C21 C 0.7738(3) 0.2875(3) 0.4992(3)
H26 H 0.742753 0.228789 0.511664
C22 C 0.7323(3) 0.3321(2) 0.3856(3)
H27 H 0.673060 0.303252 0.321884
loop_
_geom_bond_atom_site_label_1
_geom_bond_atom_site_label_2
_geom_bond_site_symmetry_1
_geom_bond_site_symmetry_2
S1 O1 1_555 1_555
O2 S1 1_555 1_555
O3 C9 1_555 1_555
N1 S1 1_555 1_555
C1 H1 1_555 1_555
H2 C1 1_555 1_555
H3 C1 1_555 1_555
C2 C1 1_555 1_555
C3 C2 1_555 1_555
H4 C3 1_555 1_555
C4 C3 1_555 1_555
H5 C4 1_555 1_555
C5 S1 1_555 1_555
C6 C5 1_555 1_555
H6 C6 1_555 1_555
C7 C2 1_555 1_555
H7 C7 1_555 1_555
C8 N1 1_555 1_555
H8 C8 1_555 1_555
C9 C8 1_555 1_555
H9 C9 1_555 1_555
C10 O3 1_555 1_555
H10 C10 1_555 1_555
C11 N1 1_555 1_555
H11 C11 1_555 1_555
H12 C11 1_555 1_555
C12 C8 1_555 1_555
H13 C12 1_555 1_555
H14 C12 1_555 1_555
C13 C12 1_555 1_555
H15 C13 1_555 1_555
H16 C13 1_555 1_555
C14 C13 1_555 1_555
H17 C14 1_555 1_555
H18 C14 1_555 1_555
C15 C14 1_555 1_555
H19 C15 1_555 1_555
H20 C15 1_555 1_555
C16 C9 1_555 1_555
H21 C16 1_555 1_555
H22 C16 1_555 1_555
C17 C10 1_555 1_555
C18 C17 1_555 1_555
H23 C18 1_555 1_555
C19 C18 1_555 1_555
H24 C19 1_555 1_555
C20 C19 1_555 1_555
H25 C20 1_555 1_555
C21 C20 1_555 1_555
H26 C21 1_555 1_555
C22 C17 1_555 1_555
H27 C22 1_555 1_555
C4 C5 1_555 1_555
C6 C7 1_555 1_555
C10 C11 1_555 1_555
C15 C16 1_555 1_555
C21 C22 1_555 1_555

#END
