
#######################################################################
#
#                 Cambridge Crystallographic Data Centre
#                                CCDC 
#
#######################################################################
#
# If this CIF has been generated from an entry in the Cambridge 
# Structural Database, then it will include bibliographic, chemical, 
# crystal, experimental, refinement or atomic coordinate data resulting 
# from the CCDC's data processing and validation procedures.
#
#######################################################################

data_MEZGUT
_chemical_formula_moiety         'C18 H12 I1 N3 O8 S2'
_chemical_name_systematic        N,N-bis(3'-Nitrophenylsulfonyl)-4-iodoaniline
_symmetry_cell_setting           monoclinic
_symmetry_space_group_name_H-M   'C 2/c'
_symmetry_Int_Tables_number      15
_space_group_name_Hall           '-C 2yn'
loop_
_symmetry_equiv_pos_site_id
_symmetry_equiv_pos_as_xyz
1 x,y,z
2 1/2+x,1/2+y,z
3 x,-y,1/2+z
4 1/2+x,1/2-y,1/2+z
5 -x,-y,-z
6 1/2-x,1/2-y,-z
7 -x,y,1/2-z
8 1/2-x,1/2+y,1/2-z
_cell_length_a                   18.1057(4)
_cell_length_b                   11.3671(3)
_cell_length_c                   11.1174(3)
_cell_angle_alpha                90
_cell_angle_beta                 113.2717(16)
_cell_angle_gamma                90
_cell_volume                     2101.91
_exptl_crystal_colour            colorless
_exptl_crystal_description       plate
_cell_formula_units_Z            4
_exptl_crystal_recrystallization_method ethanol
loop_
_atom_site_label
_atom_site_type_symbol
_atom_site_fract_x
_atom_site_fract_y
_atom_site_fract_z
I1 I 0.0000 1.034511(17) 0.7500
C1 C 0.0000 0.8499(2) 0.7500
C2 C -0.03212(13) 0.79050(19) 0.6317(2)
C3 C -0.03245(12) 0.66814(18) 0.63154(19)
C4 C 0.0000 0.608720 0.7500
N1 N 0.0000 0.48100(19) 0.7500
S1 S 0.07764(3) 0.41170(4) 0.73402(4)
O1 O 0.05182(8) 0.29598(12) 0.68591(13)
O2 O 0.10607(9) 0.49075(13) 0.66201(14)
C5 C 0.15084(11) 0.40360(17) 0.89520(19)
C6 C 0.14594(12) 0.31489(17) 0.97801(19)
C7 C 0.20415(12) 0.31499(18) 1.10426(19)
C8 C 0.26592(13) 0.3965(2) 1.1489(2)
C9 C 0.26907(13) 0.4834(2) 1.0637(2)
C10 C 0.21133(12) 0.48820(19) 0.9370(2)
N2 N 0.19919(12) 0.22469(17) 1.19610(17)
O3 O 0.24218(13) 0.23785(17) 1.31267(16)
O4 O 0.15254(10) 0.14245(15) 1.15197(16)
H1 H -0.0537 0.8329 0.5516
H2 H -0.0546 0.6259 0.5514
H3 H 0.1047 0.2571 0.9492
H4 H 0.3053 0.3929 1.2361
H5 H 0.3111 0.5400 1.0924
H6 H 0.2130 0.5487 0.8791
C3F C 0.03245(12) 0.66814(18) 0.86846(19)
C2F C 0.03212(13) 0.79050(19) 0.8683(2)
H1F H 0.0537 0.8329 0.9484
H2F H 0.0546 0.6259 0.9486
S1F S -0.07764(3) 0.41170(4) 0.76598(4)
O1F O -0.05182(8) 0.29598(12) 0.81409(13)
O2F O -0.10607(9) 0.49075(13) 0.83799(14)
C5F C -0.15084(11) 0.40360(17) 0.60480(19)
C6F C -0.14594(12) 0.31489(17) 0.52199(19)
C7F C -0.20415(12) 0.31499(18) 0.39574(19)
C8F C -0.26592(13) 0.3965(2) 0.3511(2)
C9F C -0.26907(13) 0.4834(2) 0.4363(2)
C10F C -0.21133(12) 0.48820(19) 0.5630(2)
H6F H -0.2130 0.5487 0.6209
H5F H -0.3111 0.5400 0.4076
H4F H -0.3053 0.3929 0.2639
N2F N -0.19919(12) 0.22469(17) 0.30390(17)
O3F O -0.24218(13) 0.23785(17) 0.18733(16)
O4F O -0.15254(10) 0.14245(15) 0.34803(16)
H3F H -0.1047 0.2571 0.5508
loop_
_geom_bond_atom_site_label_1
_geom_bond_atom_site_label_2
_geom_bond_site_symmetry_1
_geom_bond_site_symmetry_2
I1 C1 1_555 1_555
C1 C2 1_555 1_555
C2 C3 1_555 1_555
C3 C4 1_555 1_555
C4 N1 1_555 1_555
N1 S1 1_555 1_555
S1 O1 1_555 1_555
O2 S1 1_555 1_555
C5 S1 1_555 1_555
C6 C5 1_555 1_555
C7 C6 1_555 1_555
C8 C7 1_555 1_555
C9 C8 1_555 1_555
C10 C5 1_555 1_555
N2 C7 1_555 1_555
O3 N2 1_555 1_555
O4 N2 1_555 1_555
H1 C2 1_555 1_555
H2 C3 1_555 1_555
H3 C6 1_555 1_555
H4 C8 1_555 1_555
H5 C9 1_555 1_555
H6 C10 1_555 1_555
C3F C4 1_555 1_555
C2F C1 1_555 1_555
H1F C2F 1_555 1_555
H2F C3F 1_555 1_555
S1F N1 1_555 1_555
O1F S1F 1_555 1_555
O2F S1F 1_555 1_555
C5F S1F 1_555 1_555
C6F C5F 1_555 1_555
C7F C6F 1_555 1_555
C8F C7F 1_555 1_555
C9F C8F 1_555 1_555
C10F C5F 1_555 1_555
H6F C10F 1_555 1_555
H5F C9F 1_555 1_555
H4F C8F 1_555 1_555
N2F C7F 1_555 1_555
O3F N2F 1_555 1_555
O4F N2F 1_555 1_555
H3F C6F 1_555 1_555
C9 C10 1_555 1_555
C3F C2F 1_555 1_555
C9F C10F 1_555 1_555

#END
