
#######################################################################
#
#                 Cambridge Crystallographic Data Centre
#                                CCDC 
#
#######################################################################
#
# If this CIF has been generated from an entry in the Cambridge 
# Structural Database, then it will include bibliographic, chemical, 
# crystal, experimental, refinement or atomic coordinate data resulting 
# from the CCDC's data processing and validation procedures.
#
#######################################################################

data_MEZGEF
_chemical_name_common            
(mu!2$-oxo)-bis(phenanthro[9'',10'':4',5']imidazo[1',2':3,4][1,3,2]diazaborolo[1,5-a]quinolin-8-ol)
_chemical_formula_moiety         'C48 H26 B2 N6 O3'
_chemical_name_systematic        2-(Phenanthro[9,10-d]imidazole)quinolin-8-ol
_symmetry_cell_setting           triclinic
_symmetry_space_group_name_H-M   'P -1'
_symmetry_Int_Tables_number      2
_space_group_name_Hall           '-P 1'
loop_
_symmetry_equiv_pos_site_id
_symmetry_equiv_pos_as_xyz
1 x,y,z
2 -x,-y,-z
_cell_length_a                   13.009(4)
_cell_length_b                   14.636(5)
_cell_length_c                   22.764(7)
_cell_angle_alpha                78.187(9)
_cell_angle_beta                 75.189(7)
_cell_angle_gamma                79.830(7)
_cell_volume                     4066
_exptl_crystal_colour            yellow
_exptl_crystal_description       prismatic
_cell_formula_units_Z            4
loop_
_atom_site_label
_atom_site_type_symbol
_atom_site_fract_x
_atom_site_fract_y
_atom_site_fract_z
N1 N 0.8731(4) 0.4341(4) 0.4719(2)
N2 N 0.7991(4) 0.4707(3) 0.3839(2)
N3 N 0.7491(4) 0.6293(3) 0.3802(2)
N4 N 0.9752(4) 0.1835(4) 0.3914(2)
N5 N 0.8567(4) 0.1337(4) 0.4863(2)
N6 N 0.8753(5) -0.0234(4) 0.4852(3)
O1 O 0.9831(3) 0.2470(3) 0.48114(19)
O2 O 0.8288(3) 0.3031(3) 0.43495(17)
O3 O 0.9814(4) 0.3835(3) 0.37548(19)
B1 B 0.8727(7) 0.3884(5) 0.4132(3)
B2 B 0.9039(6) 0.2266(5) 0.4514(3)
C1 C 0.9661(6) 0.2990(5) 0.5262(3)
C2 C 1.0089(5) 0.2608(5) 0.5762(3)
H1 H 1.0450 0.1999 0.5791
C3 C 0.9988(6) 0.3125(5) 0.6227(3)
H2 H 1.0282 0.2849 0.6564
C4 C 0.9467(6) 0.4036(5) 0.6206(3)
H3 H 0.9403 0.4368 0.6523
C5 C 0.9046(5) 0.4438(5) 0.5701(3)
C6 C 0.9143(5) 0.3923(5) 0.5226(3)
C7 C 0.8521(5) 0.5367(5) 0.5645(3)
H4 H 0.8428 0.5709 0.5961
C8 C 0.8148(5) 0.5769(5) 0.5133(3)
H5 H 0.7821 0.6390 0.5093
C9 C 0.8258(5) 0.5249(5) 0.4673(3)
C10 C 0.7856(5) 0.5465(5) 0.4114(3)
C11 C 0.7694(5) 0.5056(5) 0.3284(3)
C12 C 0.7418(5) 0.6022(5) 0.3266(3)
C13 C 0.7124(5) 0.6602(5) 0.2743(3)
C14 C 0.6867(5) 0.7602(5) 0.2700(3)
H6 H 0.6842 0.7884 0.3035
C15 C 0.6658(5) 0.8142(5) 0.2170(4)
H7 H 0.6541 0.8795 0.2130
C16 C 0.6621(5) 0.7702(6) 0.1685(4)
H8 H 0.6433 0.8074 0.1335
C17 C 0.6850(5) 0.6745(5) 0.1703(3)
H9 H 0.6830 0.6482 0.1368
C18 C 0.7115(5) 0.6167(5) 0.2231(3)
C19 C 0.7351(5) 0.5139(5) 0.2289(3)
C20 C 0.7650(5) 0.4589(5) 0.2808(3)
C21 C 0.7863(5) 0.3597(5) 0.2863(3)
H10 H 0.8044 0.3236 0.3217
C22 C 0.7802(6) 0.3173(5) 0.2399(4)
H11 H 0.7946 0.2521 0.2434
C23 C 0.7521(6) 0.3724(6) 0.1862(4)
H12 H 0.7485 0.3427 0.1545
C24 C 0.7298(6) 0.4698(6) 0.1797(3)
H13 H 0.7117 0.5054 0.1441
C25 C 1.0219(5) 0.3328(4) 0.3284(3)
C26 C 1.0621(5) 0.3811(5) 0.2727(3)
H14 H 1.0573 0.4464 0.2666
C27 C 1.1108(5) 0.3323(6) 0.2246(3)
H15 H 1.1417 0.3657 0.1867
C28 C 1.1150(5) 0.2357(5) 0.2308(3)
H16 H 1.1466 0.2052 0.1973
C29 C 1.0714(5) 0.1843(5) 0.2880(3)
C30 C 1.0229(5) 0.2352(5) 0.3357(3)
C31 C 1.0754(6) 0.0861(5) 0.2976(3)
H17 H 1.1125 0.0530 0.2660
C32 C 1.0271(5) 0.0402(5) 0.3509(3)
H18 H 1.0290 -0.0248 0.3566
C33 C 0.9742(6) 0.0890(5) 0.3977(3)
C34 C 0.9044(5) 0.0601(5) 0.4561(3)
C35 C 0.7926(6) 0.0952(5) 0.5420(3)
C36 C 0.8068(6) 0.0005(5) 0.5389(3)
C37 C 0.7501(6) -0.0641(5) 0.5900(3)
C38 C 0.7621(6) -0.1612(5) 0.5866(3)
H19 H 0.8047 -0.1858 0.5524
C39 C 0.7060(7) -0.2179(5) 0.6378(4)
H20 H 0.7159 -0.2827 0.6391
C40 C 0.6363(6) -0.1805(6) 0.6866(4)
H21 H 0.5951 -0.2191 0.7181
C41 C 0.6279(6) -0.0855(6) 0.6885(3)
H22 H 0.5846 -0.0619 0.7228
C42 C 0.6829(6) -0.0241(5) 0.6401(3)
C43 C 0.6738(6) 0.0750(5) 0.6407(3)
C44 C 0.6089(6) 0.1146(6) 0.6900(3)
H23 H 0.5709 0.0759 0.7230
C45 C 0.5990(6) 0.2080(7) 0.6918(4)
H24 H 0.5592 0.2302 0.7274
C46 C 0.6473(6) 0.2735(6) 0.6410(4)
H25 H 0.6357 0.3381 0.6409
C47 C 0.7131(6) 0.2334(5) 0.5919(3)
H26 H 0.7494 0.2724 0.5583
C48 C 0.7268(5) 0.1373(5) 0.5908(3)
N7 N 0.0974(4) 0.7865(3) 1.0427(2)
N8 N 0.0819(4) 0.8682(3) 0.9426(2)
N9 N -0.0879(4) 0.9444(3) 0.9647(3)
N10 N 0.4080(4) 0.7077(3) 0.9333(2)
N11 N 0.3348(4) 0.5633(3) 0.9653(2)
N12 N 0.4779(4) 0.4636(3) 0.9278(2)
O4 O 0.3035(3) 0.6783(3) 1.0372(2)
O5 O 0.2113(3) 0.7177(3) 0.95346(16)
O6 O 0.2533(3) 0.8610(3) 0.97567(19)
B3 B 0.1693(6) 0.8065(5) 0.9737(3)
B4 B 0.2991(6) 0.6669(5) 0.9770(4)
C49 C 0.2252(5) 0.6695(4) 1.0894(3)
C50 C 0.2508(6) 0.6116(4) 1.1423(3)
H27 H 0.3196 0.5798 1.1411
C51 C 0.1724(6) 0.6024(5) 1.1962(3)
H28 H 0.1882 0.5610 1.2305
C52 C 0.0714(6) 0.6526(5) 1.2006(3)
H29 H 0.0206 0.6453 1.2377
C53 C 0.0447(6) 0.7148(4) 1.1491(3)
C54 C 0.1233(5) 0.7242(4) 1.0925(3)
C55 C -0.0593(6) 0.7678(5) 1.1509(3)
H30 H -0.1121 0.7619 1.1873
C56 C -0.0823(6) 0.8282(4) 1.0987(3)
H31 H -0.1491 0.8639 1.0991
C57 C -0.0006(5) 0.8321(4) 1.0461(3)
C58 C -0.0094(6) 0.8844(4) 0.9862(3)
C59 C 0.0646(6) 0.9234(4) 0.8895(3)
C60 C -0.0390(6) 0.9692(5) 0.9045(3)
C61 C -0.0829(6) 1.0340(4) 0.8582(4)
C62 C -0.1896(6) 1.0761(5) 0.8714(4)
H32 H -0.2320 1.0627 0.9109
C63 C -0.2329(7) 1.1372(5) 0.8265(4)
H33 H -0.3040 1.1647 0.8355
C64 C -0.1697(8) 1.1569(5) 0.7686(5)
H34 H -0.1989 1.1980 0.7383
C65 C -0.0629(8) 1.1171(4) 0.7536(3)
H35 H -0.0213 1.1334 0.7142
C66 C -0.0176(6) 1.0519(4) 0.7982(3)
C67 C 0.0950(6) 1.0060(4) 0.7841(3)
C68 C 0.1658(8) 1.0262(5) 0.7265(3)
H36 H 0.1427 1.0722 0.6962
C69 C 0.2693(8) 0.9793(7) 0.7137(4)
H37 H 0.3135 0.9931 0.6748
C70 C 0.3065(7) 0.9143(6) 0.7568(4)
H38 H 0.3762 0.8835 0.7480
C71 C 0.2398(6) 0.8933(5) 0.8149(3)
H39 H 0.2659 0.8479 0.8445
C72 C 0.1354(6) 0.9383(4) 0.8301(3)
C73 C 0.3490(5) 0.8743(5) 0.9355(3)
C74 C 0.3695(6) 0.9646(4) 0.9158(3)
H40 H 0.3176 1.0137 0.9282
C75 C 0.4683(6) 0.9847(5) 0.8769(3)
H41 H 0.4808 1.0471 0.8641
C76 C 0.5442(6) 0.9170(5) 0.8579(3)
H42 H 0.6096 0.9313 0.8324
C77 C 0.5231(6) 0.8213(4) 0.8775(3)
C78 C 0.4255(5) 0.8003(5) 0.9160(3)
C79 C 0.6024(5) 0.7450(5) 0.8578(3)
H43 H 0.6690 0.7576 0.8332
C80 C 0.5802(6) 0.6535(5) 0.8753(3)
H44 H 0.6313 0.6040 0.8628
C81 C 0.4809(5) 0.6368(4) 0.9116(3)
C82 C 0.4378(6) 0.5500(4) 0.9333(3)
C83 C 0.3939(5) 0.4164(4) 0.9601(3)
C84 C 0.3051(5) 0.4752(4) 0.9856(3)
C85 C 0.2052(6) 0.4443(5) 1.0192(3)
C86 C 0.1141(6) 0.5045(5) 1.0414(3)
H45 H 0.1165 0.5691 1.0335
C87 C 0.0208(6) 0.4704(6) 1.0749(3)
H46 H -0.0382 0.5113 1.0909
C88 C 0.0153(7) 0.3746(7) 1.0845(3)
H47 H -0.0479 0.3508 1.1063
C89 C 0.1042(8) 0.3152(6) 1.0617(4)
H48 H 0.0987 0.2512 1.0683
C90 C 0.2035(7) 0.3454(5) 1.0287(3)
C91 C 0.3003(7) 0.2801(5) 1.0061(3)
C92 C 0.2999(7) 0.1799(5) 1.0220(3)
H49 H 0.2394 0.1540 1.0463
C93 C 0.3924(8) 0.1245(5) 1.0000(4)
H50 H 0.3932 0.0595 1.0096
C94 C 0.4838(7) 0.1593(5) 0.9647(3)
H51 H 0.5446 0.1186 0.9507
C95 C 0.4847(6) 0.2535(5) 0.9506(3)
H52 H 0.5460 0.2775 0.9259
C96 C 0.3944(6) 0.3155(5) 0.9726(3)
loop_
_geom_bond_atom_site_label_1
_geom_bond_atom_site_label_2
_geom_bond_site_symmetry_1
_geom_bond_site_symmetry_2
N1 B1 1_555 1_555
N2 B1 1_555 1_555
N3 C10 1_555 1_555
N4 B2 1_555 1_555
N5 B2 1_555 1_555
N6 C34 1_555 1_555
O1 B2 1_555 1_555
O2 B1 1_555 1_555
O3 B1 1_555 1_555
B2 O2 1_555 1_555
C1 O1 1_555 1_555
C2 C1 1_555 1_555
H1 C2 1_555 1_555
C3 C2 1_555 1_555
H2 C3 1_555 1_555
C4 C3 1_555 1_555
H3 C4 1_555 1_555
C5 C4 1_555 1_555
C6 N1 1_555 1_555
C7 C5 1_555 1_555
H4 C7 1_555 1_555
C8 C7 1_555 1_555
H5 C8 1_555 1_555
C9 N1 1_555 1_555
C10 N2 1_555 1_555
C11 N2 1_555 1_555
C12 N3 1_555 1_555
C13 C12 1_555 1_555
C14 C13 1_555 1_555
H6 C14 1_555 1_555
C15 C14 1_555 1_555
H7 C15 1_555 1_555
C16 C15 1_555 1_555
H8 C16 1_555 1_555
C17 C16 1_555 1_555
H9 C17 1_555 1_555
C18 C13 1_555 1_555
C19 C18 1_555 1_555
C20 C11 1_555 1_555
C21 C20 1_555 1_555
H10 C21 1_555 1_555
C22 C21 1_555 1_555
H11 C22 1_555 1_555
C23 C22 1_555 1_555
H12 C23 1_555 1_555
C24 C19 1_555 1_555
H13 C24 1_555 1_555
C25 O3 1_555 1_555
C26 C25 1_555 1_555
H14 C26 1_555 1_555
C27 C26 1_555 1_555
H15 C27 1_555 1_555
C28 C27 1_555 1_555
H16 C28 1_555 1_555
C29 C28 1_555 1_555
C30 N4 1_555 1_555
C31 C29 1_555 1_555
H17 C31 1_555 1_555
C32 C31 1_555 1_555
H18 C32 1_555 1_555
C33 N4 1_555 1_555
C34 N5 1_555 1_555
C35 N5 1_555 1_555
C36 N6 1_555 1_555
C37 C36 1_555 1_555
C38 C37 1_555 1_555
H19 C38 1_555 1_555
C39 C38 1_555 1_555
H20 C39 1_555 1_555
C40 C39 1_555 1_555
H21 C40 1_555 1_555
C41 C40 1_555 1_555
H22 C41 1_555 1_555
C42 C37 1_555 1_555
C43 C42 1_555 1_555
C44 C43 1_555 1_555
H23 C44 1_555 1_555
C45 C44 1_555 1_555
H24 C45 1_555 1_555
C46 C45 1_555 1_555
H25 C46 1_555 1_555
C47 C46 1_555 1_555
H26 C47 1_555 1_555
C48 C35 1_555 1_555
N7 B3 1_555 1_555
N8 B3 1_555 1_555
N9 C58 1_555 1_555
N10 B4 1_555 1_555
N11 B4 1_555 1_555
N12 C82 1_555 1_555
O4 B4 1_555 1_555
O5 B3 1_555 1_555
O6 B3 1_555 1_555
B4 O5 1_555 1_555
C49 O4 1_555 1_555
C50 C49 1_555 1_555
H27 C50 1_555 1_555
C51 C50 1_555 1_555
H28 C51 1_555 1_555
C52 C51 1_555 1_555
H29 C52 1_555 1_555
C53 C52 1_555 1_555
C54 N7 1_555 1_555
C55 C53 1_555 1_555
H30 C55 1_555 1_555
C56 C55 1_555 1_555
H31 C56 1_555 1_555
C57 N7 1_555 1_555
C58 N8 1_555 1_555
C59 N8 1_555 1_555
C60 N9 1_555 1_555
C61 C60 1_555 1_555
C62 C61 1_555 1_555
H32 C62 1_555 1_555
C63 C62 1_555 1_555
H33 C63 1_555 1_555
C64 C63 1_555 1_555
H34 C64 1_555 1_555
C65 C64 1_555 1_555
H35 C65 1_555 1_555
C66 C61 1_555 1_555
C67 C66 1_555 1_555
C68 C67 1_555 1_555
H36 C68 1_555 1_555
C69 C68 1_555 1_555
H37 C69 1_555 1_555
C70 C69 1_555 1_555
H38 C70 1_555 1_555
C71 C70 1_555 1_555
H39 C71 1_555 1_555
C72 C59 1_555 1_555
C73 O6 1_555 1_555
C74 C73 1_555 1_555
H40 C74 1_555 1_555
C75 C74 1_555 1_555
H41 C75 1_555 1_555
C76 C75 1_555 1_555
H42 C76 1_555 1_555
C77 C76 1_555 1_555
C78 N10 1_555 1_555
C79 C77 1_555 1_555
H43 C79 1_555 1_555
C80 C79 1_555 1_555
H44 C80 1_555 1_555
C81 N10 1_555 1_555
C82 N11 1_555 1_555
C83 N12 1_555 1_555
C84 N11 1_555 1_555
C85 C84 1_555 1_555
C86 C85 1_555 1_555
H45 C86 1_555 1_555
C87 C86 1_555 1_555
H46 C87 1_555 1_555
C88 C87 1_555 1_555
H47 C88 1_555 1_555
C89 C88 1_555 1_555
H48 C89 1_555 1_555
C90 C85 1_555 1_555
C91 C90 1_555 1_555
C92 C91 1_555 1_555
H49 C92 1_555 1_555
C93 C92 1_555 1_555
H50 C93 1_555 1_555
C94 C93 1_555 1_555
H51 C94 1_555 1_555
C95 C94 1_555 1_555
H52 C95 1_555 1_555
C96 C83 1_555 1_555
C1 C6 1_555 1_555
C5 C6 1_555 1_555
C8 C9 1_555 1_555
C9 C10 1_555 1_555
C11 C12 1_555 1_555
C17 C18 1_555 1_555
C19 C20 1_555 1_555
C23 C24 1_555 1_555
C25 C30 1_555 1_555
C29 C30 1_555 1_555
C32 C33 1_555 1_555
C33 C34 1_555 1_555
C35 C36 1_555 1_555
C41 C42 1_555 1_555
C43 C48 1_555 1_555
C47 C48 1_555 1_555
C49 C54 1_555 1_555
C53 C54 1_555 1_555
C56 C57 1_555 1_555
C57 C58 1_555 1_555
C59 C60 1_555 1_555
C65 C66 1_555 1_555
C67 C72 1_555 1_555
C71 C72 1_555 1_555
C73 C78 1_555 1_555
C77 C78 1_555 1_555
C80 C81 1_555 1_555
C81 C82 1_555 1_555
C83 C84 1_555 1_555
C89 C90 1_555 1_555
C91 C96 1_555 1_555
C95 C96 1_555 1_555

#END
