
#######################################################################
#
#                 Cambridge Crystallographic Data Centre
#                                CCDC 
#
#######################################################################
#
# If this CIF has been generated from an entry in the Cambridge 
# Structural Database, then it will include bibliographic, chemical, 
# crystal, experimental, refinement or atomic coordinate data resulting 
# from the CCDC's data processing and validation procedures.
#
#######################################################################

data_MEZHEE
_chemical_formula_moiety         'C13 H11 I1 N2 O4 S1'
_chemical_name_systematic        
N-(4'-Iodophenylsulfonyl)-4-methyl-2-nitroaniline
_symmetry_cell_setting           triclinic
_symmetry_space_group_name_H-M   'P -1'
_symmetry_Int_Tables_number      2
_space_group_name_Hall           '-P 1'
loop_
_symmetry_equiv_pos_site_id
_symmetry_equiv_pos_as_xyz
1 x,y,z
2 -x,-y,-z
_cell_length_a                   5.4333(2)
_cell_length_b                   10.9336(5)
_cell_length_c                   12.5713(7)
_cell_angle_alpha                95.5668(18)
_cell_angle_beta                 93.0809(17)
_cell_angle_gamma                101.4226(17)
_cell_volume                     726.52
_exptl_crystal_colour            colorless
_exptl_crystal_description       plate
_cell_formula_units_Z            2
_exptl_crystal_recrystallization_method ethanol
loop_
_atom_site_label
_atom_site_type_symbol
_atom_site_fract_x
_atom_site_fract_y
_atom_site_fract_z
S1 S -0.13829(14) 0.08208(7) -0.14650(6)
O1 O -0.3000(4) 0.1451(2) -0.20449(18)
O2 O -0.2356(4) 0.0114(2) -0.06257(17)
N1 N 0.1039(5) 0.1837(2) -0.08796(19)
C1 C 0.2583(6) 0.2804(3) -0.1337(2)
C2 C 0.4890(6) 0.3475(3) -0.0818(2)
N2 N 0.5808(5) 0.3208(2) 0.0231(2)
O3 O 0.7976(5) 0.3682(3) 0.0565(2)
O4 O 0.4377(5) 0.2522(2) 0.07556(18)
C3 C 0.6461(6) 0.4403(3) -0.1286(2)
C4 C 0.5801(6) 0.4736(3) -0.2280(2)
C5 C 0.7501(7) 0.5743(3) -0.2778(3)
C6 C 0.3506(6) 0.4090(3) -0.2792(2)
C7 C 0.1926(6) 0.3151(3) -0.2340(2)
C8 C -0.0198(5) -0.0176(3) -0.2413(2)
C9 C 0.1676(6) -0.0801(3) -0.2080(2)
C10 C 0.2508(6) -0.1611(3) -0.2824(2)
C11 C 0.1465(6) -0.1787(3) -0.3876(2)
I1 I 0.27317(4) -0.30021(2) -0.502453(16)
C12 C -0.0390(6) -0.1179(3) -0.4204(2)
C13 C -0.1238(6) -0.0358(3) -0.3459(2)
H1 H 0.1419 0.1771 -0.0201
H2 H 0.8019 0.4816 -0.0916
H3 H 0.7429 0.6566 -0.2410
H4 H 0.6952 0.5709 -0.3538
H5 H 0.9233 0.5612 -0.2711
H6 H 0.3004 0.4299 -0.3476
H7 H 0.0376 0.2738 -0.2717
H8 H 0.2361 -0.0670 -0.1357
H9 H 0.3781 -0.2043 -0.2620
H10 H -0.1080 -0.1318 -0.4927
H11 H -0.2514 0.0072 -0.3667
loop_
_geom_bond_atom_site_label_1
_geom_bond_atom_site_label_2
_geom_bond_site_symmetry_1
_geom_bond_site_symmetry_2
S1 O1 1_555 1_555
O2 S1 1_555 1_555
N1 S1 1_555 1_555
C1 N1 1_555 1_555
C2 C1 1_555 1_555
N2 C2 1_555 1_555
O3 N2 1_555 1_555
O4 N2 1_555 1_555
C3 C2 1_555 1_555
C4 C3 1_555 1_555
C5 C4 1_555 1_555
C6 C4 1_555 1_555
C7 C1 1_555 1_555
C8 S1 1_555 1_555
C9 C8 1_555 1_555
C10 C9 1_555 1_555
C11 C10 1_555 1_555
I1 C11 1_555 1_555
C12 C11 1_555 1_555
C13 C8 1_555 1_555
H1 N1 1_555 1_555
H2 C3 1_555 1_555
H3 C5 1_555 1_555
H4 C5 1_555 1_555
H5 C5 1_555 1_555
H6 C6 1_555 1_555
H7 C7 1_555 1_555
H8 C9 1_555 1_555
H9 C10 1_555 1_555
H10 C12 1_555 1_555
H11 C13 1_555 1_555
C6 C7 1_555 1_555
C12 C13 1_555 1_555

#END
