
#######################################################################
#
#                 Cambridge Crystallographic Data Centre
#                                CCDC 
#
#######################################################################
#
# If this CIF has been generated from an entry in the Cambridge 
# Structural Database, then it will include bibliographic, chemical, 
# crystal, experimental, refinement or atomic coordinate data resulting 
# from the CCDC's data processing and validation procedures.
#
#######################################################################

data_MEZJUY
_chemical_formula_moiety         'C44 H40 N2 O4 S1,C1 H2 Cl2'
_chemical_name_systematic        
'2,7-bis(2,6-diisopropylphenyl)benzo[lmn][1]benzothieno[2,3-f][3,8]phenanthroline-1,3,6,8(2H,7H)-tetrone dichloromethane solvate'
_symmetry_cell_setting           monoclinic
_symmetry_space_group_name_H-M   'P 21/c'
_symmetry_Int_Tables_number      14
_space_group_name_Hall           '-P 2ybc'
loop_
_symmetry_equiv_pos_site_id
_symmetry_equiv_pos_as_xyz
1 x,y,z
2 -x,1/2+y,1/2-z
3 -x,-y,-z
4 x,1/2-y,1/2+z
_cell_length_a                   21.024(4)
_cell_length_b                   11.026(2)
_cell_length_c                   17.458(4)
_cell_angle_alpha                90
_cell_angle_beta                 100.86(3)
_cell_angle_gamma                90
_cell_volume                     3974.47
_exptl_crystal_colour            red
_exptl_crystal_description       platelet
_cell_formula_units_Z            4
loop_
_atom_site_label
_atom_site_type_symbol
_atom_site_fract_x
_atom_site_fract_y
_atom_site_fract_z
S1 S 0.44185(9) 0.42817(17) 0.40006(12)
O1 O 0.2721(3) 0.1604(5) 0.2046(3)
O2 O 0.0921(3) 0.3850(5) 0.1277(3)
O3 O 0.3961(3) 0.6157(5) 0.4773(3)
O4 O 0.2043(3) 0.8127(5) 0.4158(3)
N1 N 0.1859(3) 0.2781(5) 0.1603(4)
N2 N 0.3007(3) 0.7146(5) 0.4470(4)
C1 C 0.1165(4) 0.0085(8) -0.0026(5)
H1 H 0.1006 -0.0528 -0.0395
C2 C 0.1585(4) 0.0968(7) -0.0207(5)
H2 H 0.1709 0.0963 -0.0703
C3 C 0.1826(4) 0.1865(7) 0.0339(5)
C4 C 0.1617(4) 0.1850(7) 0.1044(5)
C5 C 0.1195(4) 0.0983(7) 0.1237(4)
C6 C 0.0980(4) 0.0101(7) 0.0688(5)
H3 H 0.0697 -0.0512 0.0807
C7 C 0.2280(4) 0.2814(7) 0.0129(5)
H4 H 0.2486 0.3225 0.0624
C8 C 0.2819(5) 0.2273(8) -0.0223(6)
H5 H 0.2990 0.1551 0.0074
H6 H 0.3167 0.2871 -0.0205
H7 H 0.2651 0.2046 -0.0766
C9 C 0.1926(6) 0.3769(9) -0.0396(8)
H8 H 0.1737 0.3407 -0.0901
H9 H 0.2228 0.4413 -0.0474
H10 H 0.1580 0.4112 -0.0157
C10 C 0.0968(4) 0.0971(8) 0.2011(5)
H11 H 0.1166 0.1691 0.2313
C11 C 0.1213(6) -0.0156(9) 0.2489(5)
H12 H 0.1022 -0.0884 0.2215
H13 H 0.1088 -0.0109 0.3001
H14 H 0.1686 -0.0198 0.2556
C12 C 0.0244(5) 0.1115(11) 0.1901(6)
H15 H 0.0120 0.1915 0.1677
H16 H 0.0110 0.1041 0.2407
H17 H 0.0033 0.0484 0.1548
C13 C 0.2473(3) 0.2585(7) 0.2062(4)
C14 C 0.2767(3) 0.3591(6) 0.2553(4)
C15 C 0.3420(3) 0.3618(6) 0.2921(5)
C16 C 0.3973(3) 0.2911(6) 0.2775(4)
C17 C 0.4035(4) 0.2139(6) 0.2163(5)
H18 H 0.3672 0.1974 0.1765
C18 C 0.4625(4) 0.1615(7) 0.2137(5)
H19 H 0.4665 0.1089 0.1718
C19 C 0.5159(4) 0.1845(8) 0.2714(6)
H20 H 0.5559 0.1458 0.2693
C20 C 0.5119(4) 0.2612(7) 0.3307(5)
H21 H 0.5488 0.2761 0.3703
C21 C 0.4536(4) 0.3177(7) 0.3331(5)
C22 C 0.3628(3) 0.4482(6) 0.3539(4)
C23 C 0.3203(3) 0.5350(6) 0.3728(4)
C24 C 0.3426(4) 0.6236(7) 0.4361(5)
C25 C 0.2376(4) 0.7264(7) 0.4043(5)
C26 C 0.2146(4) 0.6327(6) 0.3467(5)
C27 C 0.1513(4) 0.6359(7) 0.3062(5)
H22 H 0.1224 0.6966 0.3176
C28 C 0.1302(4) 0.5502(7) 0.2487(4)
H23 H 0.0872 0.5546 0.2197
C29 C 0.1703(4) 0.4596(7) 0.2332(5)
C30 C 0.1457(4) 0.3745(7) 0.1694(5)
C31 C 0.2348(4) 0.4513(6) 0.2728(4)
C32 C 0.2570(3) 0.5400(6) 0.3306(4)
C33 C 0.3243(4) 0.8098(6) 0.5012(4)
C34 C 0.3625(4) 0.9010(6) 0.4771(4)
C35 C 0.3839(4) 0.9943(7) 0.5294(5)
H24 H 0.4108 1.0567 0.5157
C36 C 0.3657(4) 0.9952(7) 0.6008(5)
H25 H 0.3794 1.0601 0.6358
C37 C 0.3281(4) 0.9043(7) 0.6229(5)
H26 H 0.3165 0.9080 0.6728
C38 C 0.3071(4) 0.8086(7) 0.5748(4)
C39 C 0.3806(4) 0.9015(7) 0.3970(5)
H27 H 0.3625 0.8260 0.3695
C40 C 0.4534(5) 0.8996(10) 0.4009(6)
H28 H 0.4625 0.8919 0.3481
H29 H 0.4723 0.8306 0.4326
H30 H 0.4723 0.9751 0.4245
C41 C 0.3499(6) 1.0079(9) 0.3498(6)
H31 H 0.3027 1.0035 0.3446
H32 H 0.3612 1.0059 0.2979
H33 H 0.3657 1.0836 0.3761
C42 C 0.2664(4) 0.7100(7) 0.5989(5)
H34 H 0.2425 0.6708 0.5502
C43 C 0.3080(7) 0.6157(12) 0.6438(8)
H35 H 0.3249 0.6456 0.6966
H36 H 0.3442 0.5972 0.6176
H37 H 0.2825 0.5421 0.6467
C44 C 0.2168(6) 0.7541(11) 0.6438(8)
H38 H 0.1893 0.6862 0.6535
H39 H 0.1900 0.8166 0.6135
H40 H 0.2386 0.7883 0.6936
C45 C 0.0060(7) 0.1780(19) 0.4750(9)
H41 H 0.0252 0.0958 0.4768
H42 H 0.0365 0.2299 0.5110
Cl1 Cl 0.0005(2) 0.2337(3) 0.3824(2)
Cl2 Cl -0.0650(2) 0.1691(4) 0.5092(3)
loop_
_geom_bond_atom_site_label_1
_geom_bond_atom_site_label_2
_geom_bond_site_symmetry_1
_geom_bond_site_symmetry_2
S1 C21 1_555 1_555
O1 C13 1_555 1_555
O2 C30 1_555 1_555
O3 C24 1_555 1_555
O4 C25 1_555 1_555
N1 C4 1_555 1_555
N2 C24 1_555 1_555
C1 H1 1_555 1_555
C2 C1 1_555 1_555
H2 C2 1_555 1_555
C3 C2 1_555 1_555
C4 C3 1_555 1_555
C5 C4 1_555 1_555
C6 C1 1_555 1_555
H3 C6 1_555 1_555
C7 C3 1_555 1_555
H4 C7 1_555 1_555
C8 C7 1_555 1_555
H5 C8 1_555 1_555
H6 C8 1_555 1_555
H7 C8 1_555 1_555
C9 C7 1_555 1_555
H8 C9 1_555 1_555
H9 C9 1_555 1_555
H10 C9 1_555 1_555
C10 C5 1_555 1_555
H11 C10 1_555 1_555
C11 C10 1_555 1_555
H12 C11 1_555 1_555
H13 C11 1_555 1_555
H14 C11 1_555 1_555
C12 C10 1_555 1_555
H15 C12 1_555 1_555
H16 C12 1_555 1_555
H17 C12 1_555 1_555
C13 N1 1_555 1_555
C14 C13 1_555 1_555
C15 C14 1_555 1_555
C16 C15 1_555 1_555
C17 C16 1_555 1_555
H18 C17 1_555 1_555
C18 C17 1_555 1_555
H19 C18 1_555 1_555
C19 C18 1_555 1_555
H20 C19 1_555 1_555
C20 C19 1_555 1_555
H21 C20 1_555 1_555
C21 C16 1_555 1_555
C22 S1 1_555 1_555
C23 C22 1_555 1_555
C24 C23 1_555 1_555
C25 N2 1_555 1_555
C26 C25 1_555 1_555
C27 C26 1_555 1_555
H22 C27 1_555 1_555
C28 C27 1_555 1_555
H23 C28 1_555 1_555
C29 C28 1_555 1_555
C30 N1 1_555 1_555
C31 C14 1_555 1_555
C32 C23 1_555 1_555
C33 N2 1_555 1_555
C34 C33 1_555 1_555
C35 C34 1_555 1_555
H24 C35 1_555 1_555
C36 C35 1_555 1_555
H25 C36 1_555 1_555
C37 C36 1_555 1_555
H26 C37 1_555 1_555
C38 C33 1_555 1_555
C39 C34 1_555 1_555
H27 C39 1_555 1_555
C40 C39 1_555 1_555
H28 C40 1_555 1_555
H29 C40 1_555 1_555
H30 C40 1_555 1_555
C41 C39 1_555 1_555
H31 C41 1_555 1_555
H32 C41 1_555 1_555
H33 C41 1_555 1_555
C42 C38 1_555 1_555
H34 C42 1_555 1_555
C43 C42 1_555 1_555
H35 C43 1_555 1_555
H36 C43 1_555 1_555
H37 C43 1_555 1_555
C44 C42 1_555 1_555
H38 C44 1_555 1_555
H39 C44 1_555 1_555
H40 C44 1_555 1_555
C45 H41 1_555 1_555
H42 C45 1_555 1_555
Cl1 C45 1_555 1_555
Cl2 C45 1_555 1_555
C5 C6 1_555 1_555
C15 C22 1_555 1_555
C20 C21 1_555 1_555
C26 C32 1_555 1_555
C29 C30 1_555 1_555
C29 C31 1_555 1_555
C31 C32 1_555 1_555
C37 C38 1_555 1_555

#END
