
#######################################################################
#
#                 Cambridge Crystallographic Data Centre
#                                CCDC 
#
#######################################################################
#
# If this CIF has been generated from an entry in the Cambridge 
# Structural Database, then it will include bibliographic, chemical, 
# crystal, experimental, refinement or atomic coordinate data resulting 
# from the CCDC's data processing and validation procedures.
#
#######################################################################

data_MEZPEO
_chemical_formula_moiety         'C14 H12 Cl1 F1 O3'
_chemical_name_systematic        
'Ethyl 1-acetyl-5-chloro-1-fluoro-1H-indene-2-carboxylate'
_symmetry_cell_setting           monoclinic
_symmetry_space_group_name_H-M   'P 21'
_symmetry_Int_Tables_number      4
_space_group_name_Hall           'P 2yb'
loop_
_symmetry_equiv_pos_site_id
_symmetry_equiv_pos_as_xyz
1 x,y,z
2 -x,1/2+y,-z
_cell_length_a                   8.1890(6)
_cell_length_b                   7.1850(5)
_cell_length_c                   11.2590(7)
_cell_angle_alpha                90
_cell_angle_beta                 93.555(2)
_cell_angle_gamma                90
_cell_volume                     661.182
_exptl_crystal_colour            colorless
_exptl_crystal_description       chunk
_cell_formula_units_Z            2
loop_
_atom_site_label
_atom_site_type_symbol
_atom_site_fract_x
_atom_site_fract_y
_atom_site_fract_z
Cl1 Cl 0.10462(14) 0.2983(6) 0.13337(8)
F1 F 0.3059(5) 0.0608(4) 0.7001(3)
O1 O 0.7911(3) 0.2941(12) 0.6956(2)
O2 O 0.5905(3) 0.3003(12) 0.82276(19)
O3 O 0.3104(5) 0.5444(4) 0.7003(4)
C1 C 0.5148(4) 0.2942(15) 0.6206(3)
C2 C 0.5317(4) 0.2973(13) 0.5049(3)
H1 H 0.6315 0.2974 0.4697
C3 C 0.3710(4) 0.3004(12) 0.4396(3)
C4 C 0.3285(4) 0.2944(13) 0.3191(3)
H2 H 0.4076 0.2888 0.2634
C5 C 0.1639(4) 0.2968(12) 0.2846(3)
C6 C 0.0447(4) 0.2959(15) 0.3637(3)
H3 H -0.0651 0.2949 0.3369
C7 C 0.0886(4) 0.297(2) 0.4835(3)
H4 H 0.0092 0.2962 0.5391
C8 C 0.2524(4) 0.2978(19) 0.5197(3)
C9 C 0.3369(4) 0.2724(3) 0.6429(3)
C10 C 0.6491(4) 0.2938(15) 0.7138(3)
C11 C 0.7106(5) 0.2952(19) 0.9229(3)
H5 H 0.7829 0.4018 0.9205
H6 H 0.7760 0.1829 0.9200
C12 C 0.6216(6) 0.299(2) 1.0325(3)
H7 H 0.6984 0.2925 1.1004
H8 H 0.5489 0.1939 1.0332
H9 H 0.5596 0.4117 1.0355
C13 C 0.2723(5) 0.4041(7) 0.7291(4)
C14 C 0.1698(5) 0.310(2) 0.8253(4)
H10 H 0.1327 0.4038 0.8782
H11 H 0.2367 0.2216 0.8697
H12 H 0.0772 0.2479 0.7870
loop_
_geom_bond_atom_site_label_1
_geom_bond_atom_site_label_2
_geom_bond_site_symmetry_1
_geom_bond_site_symmetry_2
Cl1 C5 1_555 1_555
F1 C9 1_555 1_555
O1 C10 1_555 1_555
O2 C10 1_555 1_555
O3 C13 1_555 1_555
C1 C2 1_555 1_555
C2 H1 1_555 1_555
C3 C2 1_555 1_555
C4 C3 1_555 1_555
H2 C4 1_555 1_555
C5 C4 1_555 1_555
C6 C5 1_555 1_555
H3 C6 1_555 1_555
C7 C6 1_555 1_555
H4 C7 1_555 1_555
C8 C3 1_555 1_555
C9 C1 1_555 1_555
C10 C1 1_555 1_555
C11 O2 1_555 1_555
H5 C11 1_555 1_555
H6 C11 1_555 1_555
C12 C11 1_555 1_555
H7 C12 1_555 1_555
H8 C12 1_555 1_555
H9 C12 1_555 1_555
C13 C9 1_555 1_555
C14 C13 1_555 1_555
H10 C14 1_555 1_555
H11 C14 1_555 1_555
H12 C14 1_555 1_555
C7 C8 1_555 1_555
C8 C9 1_555 1_555

#END
