
#######################################################################
#
#                 Cambridge Crystallographic Data Centre
#                                CCDC 
#
#######################################################################
#
# If this CIF has been generated from an entry in the Cambridge 
# Structural Database, then it will include bibliographic, chemical, 
# crystal, experimental, refinement or atomic coordinate data resulting 
# from the CCDC's data processing and validation procedures.
#
#######################################################################

data_MEZVOF
_chemical_formula_moiety         'C12 H30 B10 O1 Si2'
_chemical_name_systematic        
1,2-(2,5-bis(trimethylsilyl)-2,5-dihydrofuran-2,5-diyl)-1,2-dicarba-closo-dodecaborane(10)
_symmetry_cell_setting           orthorhombic
_symmetry_space_group_name_H-M   'C m c 21'
_symmetry_Int_Tables_number      36
_space_group_name_Hall           'C 2n -2'
loop_
_symmetry_equiv_pos_site_id
_symmetry_equiv_pos_as_xyz
1 x,y,z
2 -x,-y,1/2+z
3 x,-y,1/2+z
4 -x,y,z
5 1/2+x,1/2+y,z
6 1/2-x,1/2-y,1/2+z
7 1/2+x,1/2-y,1/2+z
8 1/2-x,1/2+y,z
_cell_length_a                   17.7978(15)
_cell_length_b                   12.0596(15)
_cell_length_c                   9.7372(9)
_cell_angle_alpha                90
_cell_angle_beta                 90
_cell_angle_gamma                90
_cell_volume                     2089.94
_exptl_crystal_colour            colorless
_exptl_crystal_description       block
_cell_formula_units_Z            4
loop_
_atom_site_label
_atom_site_type_symbol
_atom_site_fract_x
_atom_site_fract_y
_atom_site_fract_z
Si1 Si 0.844109(18) 0.78729(3) 0.29676(5)
O1 O 1.0000 0.76762(10) 0.30827(16)
B1 B 1.0000 0.62878(16) 0.5056(2)
H1 H 1.0000 0.5803 0.4075
B2 B 0.91901(8) 0.63880(12) 0.60892(17)
H2 H 0.8650 0.5982 0.5779
B3 B 0.91878(8) 0.76838(12) 0.69582(18)
H3 H 0.8648 0.8117 0.7206
B4 B 1.0000 0.84305(16) 0.6515(2)
H4 H 1.0000 0.9359 0.6497
B5 B 1.0000 0.77157(15) 0.8060(3)
H5 H 1.0000 0.8159 0.9070
B6 B 0.94975(8) 0.64557(11) 0.78294(17)
H6 H 0.9164 0.6077 0.8685
B7 B 1.0000 0.56222(16) 0.6633(2)
H7 H 1.0000 0.4695 0.6706
C1 C 0.95440(7) 0.75666(10) 0.53269(13)
C2 C 0.93765(7) 0.81244(10) 0.38716(14)
C3 C 0.96272(7) 0.93368(10) 0.39523(14)
H8 H 0.9310 0.9969 0.3994
C4 C 0.77057(8) 0.84217(14) 0.41313(18)
H9 H 0.7210 0.8314 0.3712
H10 H 0.7791 0.9215 0.4287
H11 H 0.7727 0.8027 0.5010
C5 C 0.84901(9) 0.87114(14) 0.13656(18)
H12 H 0.8024 0.8619 0.0844
H13 H 0.8916 0.8461 0.0808
H14 H 0.8557 0.9495 0.1601
C6 C 0.83153(9) 0.63788(12) 0.25756(18)
H15 H 0.7833 0.6268 0.2109
H16 H 0.8322 0.5952 0.3432
H17 H 0.8724 0.6127 0.1978
Si1C Si 1.155891(18) 0.78729(3) 0.29676(5)
B2C B 1.08099(8) 0.63880(12) 0.60892(17)
H2C H 1.1350 0.5982 0.5779
B3C B 1.08122(8) 0.76838(12) 0.69582(18)
H3C H 1.1352 0.8117 0.7206
B6C B 1.05025(8) 0.64557(11) 0.78294(17)
H6C H 1.0836 0.6077 0.8685
C1C C 1.04560(7) 0.75666(10) 0.53269(13)
C2C C 1.06235(7) 0.81244(10) 0.38716(14)
C3C C 1.03728(7) 0.93368(10) 0.39523(14)
H8C H 1.0690 0.9969 0.3994
C4C C 1.22943(8) 0.84217(14) 0.41313(18)
H9C H 1.2790 0.8314 0.3712
H10C H 1.2209 0.9215 0.4287
H11C H 1.2273 0.8027 0.5010
C5C C 1.15099(9) 0.87114(14) 0.13656(18)
H12C H 1.1976 0.8619 0.0844
H13C H 1.1084 0.8461 0.0808
H14C H 1.1443 0.9495 0.1601
C6C C 1.16847(9) 0.63788(12) 0.25756(18)
H15C H 1.2167 0.6268 0.2109
H16C H 1.1678 0.5952 0.3432
H17C H 1.1276 0.6127 0.1978
loop_
_geom_bond_atom_site_label_1
_geom_bond_atom_site_label_2
_geom_bond_site_symmetry_1
_geom_bond_site_symmetry_2
Si1 C2 1_555 1_555
O1 C2 1_555 1_555
B1 H1 1_555 1_555
B2 B1 1_555 1_555
H2 B2 1_555 1_555
B3 B2 1_555 1_555
H3 B3 1_555 1_555
B4 B3 1_555 1_555
H4 B4 1_555 1_555
B5 B3 1_555 1_555
H5 B5 1_555 1_555
B6 B2 1_555 1_555
H6 B6 1_555 1_555
B7 B1 1_555 1_555
H7 B7 1_555 1_555
C1 B1 1_555 1_555
C2 C1 1_555 1_555
C3 C2 1_555 1_555
H8 C3 1_555 1_555
C4 Si1 1_555 1_555
H9 C4 1_555 1_555
H10 C4 1_555 1_555
H11 C4 1_555 1_555
C5 Si1 1_555 1_555
H12 C5 1_555 1_555
H13 C5 1_555 1_555
H14 C5 1_555 1_555
C6 Si1 1_555 1_555
H15 C6 1_555 1_555
H16 C6 1_555 1_555
H17 C6 1_555 1_555
Si1C C2C 1_555 1_555
B2C B1 1_555 1_555
H2C B2C 1_555 1_555
B3C B4 1_555 1_555
H3C B3C 1_555 1_555
B6C B5 1_555 1_555
H6C B6C 1_555 1_555
C1C B1 1_555 1_555
C2C O1 1_555 1_555
C3C C3 1_555 1_555
H8C C3C 1_555 1_555
C4C Si1C 1_555 1_555
H9C C4C 1_555 1_555
H10C C4C 1_555 1_555
H11C C4C 1_555 1_555
C5C Si1C 1_555 1_555
H12C C5C 1_555 1_555
H13C C5C 1_555 1_555
H14C C5C 1_555 1_555
C6C Si1C 1_555 1_555
H15C C6C 1_555 1_555
H16C C6C 1_555 1_555
H17C C6C 1_555 1_555
B2 B7 1_555 1_555
B2 C1 1_555 1_555
B3 B6 1_555 1_555
B3 C1 1_555 1_555
B4 B5 1_555 1_555
B4 C1 1_555 1_555
B4 C1C 1_555 1_555
B5 B6 1_555 1_555
B5 B3C 1_555 1_555
B6 B7 1_555 1_555
B6 B6C 1_555 1_555
B7 B2C 1_555 1_555
B7 B6C 1_555 1_555
C1 C1C 1_555 1_555
B2C B3C 1_555 1_555
B2C B6C 1_555 1_555
B2C C1C 1_555 1_555
B3C B6C 1_555 1_555
B3C C1C 1_555 1_555
C1C C2C 1_555 1_555
C2C C3C 1_555 1_555

#END
