
#######################################################################
#
#                 Cambridge Crystallographic Data Centre
#                                CCDC 
#
#######################################################################
#
# If this CIF has been generated from an entry in the Cambridge 
# Structural Database, then it will include bibliographic, chemical, 
# crystal, experimental, refinement or atomic coordinate data resulting 
# from the CCDC's data processing and validation procedures.
#
#######################################################################

data_MEZWAS
_chemical_formula_moiety         'C12 H18 B10 O1'
_chemical_name_systematic        
1,2-(5-phenyl-2,3-dihydrofuran-2,3-diyl)-1,2-dicarba-closo-dodecaborane
_symmetry_cell_setting           monoclinic
_symmetry_space_group_name_H-M   'C 2/c'
_symmetry_Int_Tables_number      15
_space_group_name_Hall           '-C 2yn'
loop_
_symmetry_equiv_pos_site_id
_symmetry_equiv_pos_as_xyz
1 x,y,z
2 -x,y,1/2-z
3 1/2+x,1/2+y,z
4 1/2-x,1/2+y,1/2-z
5 -x,-y,-z
6 x,-y,1/2+z
7 1/2-x,1/2-y,-z
8 1/2+x,1/2-y,1/2+z
_cell_length_a                   23.433(4)
_cell_length_b                   6.6809(10)
_cell_length_c                   19.879(3)
_cell_angle_alpha                90
_cell_angle_beta                 94.071(3)
_cell_angle_gamma                90
_cell_volume                     3104.28
_exptl_crystal_colour            colorless
_exptl_crystal_description       block
_cell_formula_units_Z            8
loop_
_atom_site_label
_atom_site_type_symbol
_atom_site_fract_x
_atom_site_fract_y
_atom_site_fract_z
O1 O 0.43760(5) 0.3693(2) 1.01504(6)
C1 C 0.38263(7) 0.5425(3) 0.91819(9)
C2 C 0.32703(7) 0.6173(3) 0.95559(9)
C3 C 0.36487(7) 0.6215(3) 1.02432(9)
H1 H 0.3687 0.7574 1.0452
C4 C 0.41846(8) 0.5548(3) 0.98660(9)
H2 H 0.4492 0.6589 0.9873
C5 C 0.36098(8) 0.4565(3) 1.07395(9)
H3 H 0.3328 0.4471 1.1059
C6 C 0.40272(7) 0.3234(3) 1.06733(9)
C7 C 0.41903(7) 0.1403(3) 1.10334(9)
C8 C 0.38826(9) 0.0721(3) 1.15625(10)
H4 H 0.3563 0.1465 1.1694
C9 C 0.40373(9) -0.1022(4) 1.18969(11)
H5 H 0.3823 -0.1473 1.2256
C10 C 0.44991(9) -0.2115(4) 1.17157(11)
H6 H 0.4603 -0.3318 1.1948
C11 C 0.48105(9) -0.1456(3) 1.11962(11)
H7 H 0.5130 -0.2209 1.1070
C12 C 0.46604(8) 0.0288(3) 1.08581(10)
H8 H 0.4879 0.0735 1.0503
B1 B 0.36166(9) 0.7890(3) 0.90670(11)
H9 H 0.3860 0.9234 0.9265
B2 B 0.38636(10) 0.6449(3) 0.84025(11)
H10 H 0.4269 0.6826 0.8163
B3 B 0.36531(9) 0.3908(3) 0.85158(11)
H11 H 0.3921 0.2640 0.8348
B4 B 0.32762(8) 0.3750(3) 0.92559(11)
H12 H 0.3296 0.2368 0.9575
B5 B 0.28652(9) 0.7795(3) 0.90627(11)
H13 H 0.2612 0.9065 0.9257
B6 B 0.32276(10) 0.7942(4) 0.82939(11)
H14 H 0.3206 0.9310 0.7967
B7 B 0.32426(10) 0.5489(3) 0.79453(11)
H15 H 0.3231 0.5244 0.7387
B8 B 0.28854(9) 0.3836(3) 0.84810(11)
H16 H 0.2638 0.2509 0.8276
B9 B 0.26510(9) 0.5258(3) 0.91777(10)
H17 H 0.2259 0.4882 0.9444
B10 B 0.26283(9) 0.6323(4) 0.83524(11)
H18 H 0.2210 0.6635 0.8062
loop_
_geom_bond_atom_site_label_1
_geom_bond_atom_site_label_2
_geom_bond_site_symmetry_1
_geom_bond_site_symmetry_2
O1 C4 1_555 1_555
C1 C2 1_555 1_555
C2 C3 1_555 1_555
C3 H1 1_555 1_555
C4 C1 1_555 1_555
H2 C4 1_555 1_555
C5 C3 1_555 1_555
H3 C5 1_555 1_555
C6 O1 1_555 1_555
C7 C6 1_555 1_555
C8 C7 1_555 1_555
H4 C8 1_555 1_555
C9 C8 1_555 1_555
H5 C9 1_555 1_555
C10 C9 1_555 1_555
H6 C10 1_555 1_555
C11 C10 1_555 1_555
H7 C11 1_555 1_555
C12 C7 1_555 1_555
H8 C12 1_555 1_555
B1 C1 1_555 1_555
H9 B1 1_555 1_555
B2 C1 1_555 1_555
H10 B2 1_555 1_555
B3 C1 1_555 1_555
H11 B3 1_555 1_555
B4 C1 1_555 1_555
H12 B4 1_555 1_555
B5 C2 1_555 1_555
H13 B5 1_555 1_555
B6 B1 1_555 1_555
H14 B6 1_555 1_555
B7 B2 1_555 1_555
H15 B7 1_555 1_555
B8 B3 1_555 1_555
H16 B8 1_555 1_555
B9 C2 1_555 1_555
H17 B9 1_555 1_555
B10 B5 1_555 1_555
H18 B10 1_555 1_555
C2 B1 1_555 1_555
C2 B4 1_555 1_555
C3 C4 1_555 1_555
C5 C6 1_555 1_555
C11 C12 1_555 1_555
B1 B2 1_555 1_555
B1 B5 1_555 1_555
B2 B3 1_555 1_555
B2 B6 1_555 1_555
B3 B4 1_555 1_555
B3 B7 1_555 1_555
B4 B8 1_555 1_555
B4 B9 1_555 1_555
B5 B6 1_555 1_555
B5 B9 1_555 1_555
B6 B7 1_555 1_555
B6 B10 1_555 1_555
B7 B8 1_555 1_555
B7 B10 1_555 1_555
B8 B9 1_555 1_555
B8 B10 1_555 1_555
B9 B10 1_555 1_555

#END
