
#######################################################################
#
#                 Cambridge Crystallographic Data Centre
#                                CCDC 
#
#######################################################################
#
# If this CIF has been generated from an entry in the Cambridge 
# Structural Database, then it will include bibliographic, chemical, 
# crystal, experimental, refinement or atomic coordinate data resulting 
# from the CCDC's data processing and validation procedures.
#
#######################################################################

data_MEZZUP
_chemical_formula_moiety         'C21 H20 O5 S1'
_chemical_name_systematic        
8-[(1-benzothiophen-2-yl)methyl]-2-(hydroxymethyl)-3,4,4a,9b-tetrahydro-2H-pyrano[3,2-b][1]benzofuran-3,4-diol
_symmetry_cell_setting           orthorhombic
_symmetry_space_group_name_H-M   'P 21 21 21'
_symmetry_Int_Tables_number      19
_space_group_name_Hall           'P 2ac 2ab'
loop_
_symmetry_equiv_pos_site_id
_symmetry_equiv_pos_as_xyz
1 x,y,z
2 1/2-x,-y,1/2+z
3 -x,1/2+y,1/2-z
4 1/2+x,1/2-y,-z
_cell_length_a                   5.435(4)
_cell_length_b                   6.485(4)
_cell_length_c                   51.02(3)
_cell_angle_alpha                90
_cell_angle_beta                 90
_cell_angle_gamma                90
_cell_volume                     1798.25
_exptl_crystal_colour            white
_exptl_crystal_description       slice
_cell_formula_units_Z            4
loop_
_atom_site_label
_atom_site_type_symbol
_atom_site_fract_x
_atom_site_fract_y
_atom_site_fract_z
S1 S 0.5681(7) 0.5783(5) 0.70261(6)
O1 O 0.2084(12) 0.0451(10) 0.57137(11)
O2 O 0.0506(13) 0.5077(9) 0.57588(12)
O3 O -0.2677(13) 0.4624(11) 0.53456(14)
H1 H -0.173(17) 0.508(13) 0.529(2)
O4 O -0.0875(13) 0.1112(11) 0.50717(11)
H2 H 0.0239 0.1016 0.4964
O5 O 0.1374(13) -0.2959(11) 0.51680(14)
H3 H 0.2327 -0.3760 0.5096
C1 C -0.1861(19) 0.2774(15) 0.54742(17)
H4 H -0.3276 0.1842 0.5486
C2 C 0.519(2) 0.3794(16) 0.63828(18)
C3 C 0.2114(19) 0.2773(15) 0.60698(18)
C4 C 0.0863(19) -0.0257(14) 0.54784(17)
H5 H -0.0609 -0.1049 0.5525
C5 C 0.048(2) 0.1542(14) 0.58909(16)
H6 H -0.0581 0.0594 0.5989
C6 C 0.0127(17) 0.1670(14) 0.53202(16)
H7 H 0.1553 0.2576 0.5297
C7 C 0.212(2) 0.4793(16) 0.59664(17)
C8 C -0.1040(19) 0.3250(15) 0.57536(18)
H8 H -0.2508 0.3523 0.5860
C9 C 0.9680(19) 0.6371(16) 0.67351(18)
H9 H 1.0899 0.6226 0.6608
C10 C 0.3628(19) 0.2301(16) 0.62737(18)
H10 H 0.3627 0.0970 0.6342
C11 C 0.2703(19) -0.1644(15) 0.53377(19)
H11 H 0.3857 -0.0815 0.5238
H12 H 0.3622 -0.2454 0.5464
C12 C 0.950(2) 0.8041(18) 0.6935(2)
C13 C 0.363(2) 0.6330(16) 0.60625(19)
H13 H 0.3644 0.7650 0.5991
C14 C 0.513(2) 0.5780(17) 0.62729(19)
H14 H 0.6154 0.6783 0.6344
C15 C 0.744(2) 0.7931(17) 0.71044(19)
C16 C 0.692(2) 0.3252(17) 0.6603(2)
H15 H 0.8398 0.2653 0.6529
H16 H 0.6148 0.2209 0.6712
C17 C 0.764(2) 0.5050(18) 0.67745(18)
C18 C 0.871(2) 1.098(2) 0.7324(3)
H17 H 0.8461 1.1953 0.7455
C19 C 0.707(3) 0.940(2) 0.7297(2)
H18 H 0.5708 0.9318 0.7406
C20 C 1.109(2) 0.9711(19) 0.6966(2)
H19 H 1.2424 0.9867 0.6854
C21 C 1.068(3) 1.116(2) 0.7165(3)
H20 H 1.1769 1.2253 0.7188
loop_
_geom_bond_atom_site_label_1
_geom_bond_atom_site_label_2
_geom_bond_site_symmetry_1
_geom_bond_site_symmetry_2
S1 C15 1_555 1_555
O1 C4 1_555 1_555
O2 C7 1_555 1_555
O3 H1 1_555 1_555
O4 H2 1_555 1_555
O5 H3 1_555 1_555
C1 O3 1_555 1_555
H4 C1 1_555 1_555
C2 C10 1_555 1_555
C3 C5 1_555 1_555
C4 H5 1_555 1_555
C5 O1 1_555 1_555
H6 C5 1_555 1_555
C6 O4 1_555 1_555
H7 C6 1_555 1_555
C7 C3 1_555 1_555
C8 O2 1_555 1_555
H8 C8 1_555 1_555
C9 H9 1_555 1_555
C10 C3 1_555 1_555
H10 C10 1_555 1_555
C11 O5 1_555 1_555
H11 C11 1_555 1_555
H12 C11 1_555 1_555
C12 C9 1_555 1_555
C13 C7 1_555 1_555
H13 C13 1_555 1_555
C14 C2 1_555 1_555
H14 C14 1_555 1_555
C15 C12 1_555 1_555
C16 C2 1_555 1_555
H15 C16 1_555 1_555
H16 C16 1_555 1_555
C17 S1 1_555 1_555
C18 H17 1_555 1_555
C19 C15 1_555 1_555
H18 C19 1_555 1_555
C20 C12 1_555 1_555
H19 C20 1_555 1_555
C21 C18 1_555 1_555
H20 C21 1_555 1_555
C1 C6 1_555 1_555
C1 C8 1_555 1_555
C4 C6 1_555 1_555
C4 C11 1_555 1_555
C5 C8 1_555 1_555
C9 C17 1_555 1_555
C13 C14 1_555 1_555
C16 C17 1_555 1_555
C18 C19 1_555 1_555
C20 C21 1_555 1_555

#END
