
#######################################################################
#
#                 Cambridge Crystallographic Data Centre
#                                CCDC 
#
#######################################################################
#
# If this CIF has been generated from an entry in the Cambridge 
# Structural Database, then it will include bibliographic, chemical, 
# crystal, experimental, refinement or atomic coordinate data resulting 
# from the CCDC's data processing and validation procedures.
#
#######################################################################

data_MHPHOL
_chemical_formula_moiety         'C8 H12 O7 P2'
_chemical_name_systematic        
2-Oxo-3-(2'-oxo-4',5'-dimethyl-2',2'-dihydro-1',3',2'-dioxaphospholenyl)oxy-4,5-dimethyl-2,2-dihydro-1,3,2-dioxaphospholene
_symmetry_cell_setting           monoclinic
_symmetry_space_group_name_H-M   'P 21/c'
_symmetry_Int_Tables_number      14
_space_group_name_Hall           '-P 2ybc'
loop_
_symmetry_equiv_pos_site_id
_symmetry_equiv_pos_as_xyz
1 x,y,z
2 -x,1/2+y,1/2-z
3 -x,-y,-z
4 x,1/2-y,1/2+z
_cell_length_a                   12.589(14)
_cell_length_b                   7.833(8)
_cell_length_c                   26.495(25)
_cell_angle_alpha                90
_cell_angle_beta                 103.22(3)
_cell_angle_gamma                90
_cell_volume                     2543.42
_cell_formula_units_Z            8
loop_
_atom_site_label
_atom_site_type_symbol
_atom_site_fract_x
_atom_site_fract_y
_atom_site_fract_z
C1 C 0.13340 -0.03380 -0.08650
C10 C 0.15280 0.08790 -0.11760
C11 C 0.28420 0.62140 0.07050
C12 C 0.17600 0.61670 0.06290
C13 C 0.05560 -0.17120 -0.09340
C14 C 0.10380 0.12950 -0.17220
C15 C 0.36640 0.75630 0.08320
C16 C 0.09680 0.75740 0.06320
H13 H 0.06260 -0.23910 -0.06200
H14 H -0.02530 -0.12930 -0.10560
H15 H 0.05900 -0.24990 -0.12440
H16 H 0.13720 0.22550 -0.18360
H17 H 0.10890 0.02270 -0.19640
H18 H 0.01990 0.13950 -0.17990
H19 H 0.43850 0.71120 0.08630
H20 H 0.34970 0.85550 0.05790
H21 H 0.36080 0.81780 0.11760
H22 H 0.02340 0.71360 0.05680
H23 H 0.11410 0.82620 0.09820
H24 H 0.10310 0.85500 0.03800
O1 O 0.20570 -0.02100 -0.03640
O9 O 0.24120 0.19730 -0.09290
O10 O 0.32860 0.45070 0.06910
O11 O 0.13250 0.45070 0.05410
O12 O 0.39060 0.13340 -0.01000
O13 O 0.23410 0.16480 0.08260
O14 O 0.21510 0.28730 -0.00670
P1 P 0.22980 0.32190 0.05330
P4 P 0.27640 0.14630 -0.03380
C2 C 0.21370 0.34070 0.20000
C3 C 0.32110 0.33670 0.20720
C4 C 0.37120 -0.29150 0.36180
C5 C 0.34230 -0.17170 0.38940
C6 C 0.13080 0.47950 0.18840
C7 C 0.40340 0.47290 0.21130
C8 C 0.45320 -0.42630 0.37340
C9 C 0.38460 -0.12150 0.44450
H1 H 0.05880 0.43690 0.18490
H2 H 0.14870 0.57110 0.21830
H3 H 0.13950 0.55350 0.15790
H4 H 0.47490 0.42370 0.21670
H5 H 0.38710 0.54520 0.17680
H6 H 0.39630 0.56290 0.23720
H7 H 0.45630 -0.49280 0.34290
H8 H 0.53210 -0.37650 0.38920
H9 H 0.44470 -0.50190 0.40350
H10 H 0.34540 -0.02690 0.45420
H11 H 0.38640 -0.22340 0.46990
H12 H 0.46860 -0.09440 0.45280
O2 O 0.16840 0.17360 0.19970
O3 O 0.36240 0.16630 0.21450
O4 O 0.30280 -0.29340 0.31030
O5 O 0.25160 -0.07280 0.36210
O6 O 0.25840 -0.11830 0.18680
O7 O 0.10920 -0.16540 0.27880
O8 O 0.27910 0.00970 0.27640
P2 P 0.26480 0.04120 0.21500
P3 P 0.22280 -0.13480 0.30390
loop_
_geom_bond_atom_site_label_1
_geom_bond_atom_site_label_2
_geom_bond_site_symmetry_1
_geom_bond_site_symmetry_2
C1 C10 1_555 1_555
C2 C3 1_555 1_555
C3 C7 1_555 1_555
C4 C5 1_555 1_555
C5 C9 1_555 1_555
C6 C2 1_555 1_555
C7 H4 1_555 1_555
C8 C4 1_555 1_555
C9 H10 1_555 1_555
C10 C14 1_555 1_555
C11 C12 1_555 1_555
C12 C16 1_555 1_555
C13 C1 1_555 1_555
C14 H16 1_555 1_555
C15 C11 1_555 1_555
C16 H22 1_555 1_555
H1 C6 1_555 1_555
H2 C6 1_555 1_555
H3 C6 1_555 1_555
H5 C7 1_555 1_555
H6 C7 1_555 1_555
H7 C8 1_555 1_555
H8 C8 1_555 1_555
H9 C8 1_555 1_555
H11 C9 1_555 1_555
H12 C9 1_555 1_555
H13 C13 1_555 1_555
H14 C13 1_555 1_555
H15 C13 1_555 1_555
H17 C14 1_555 1_555
H18 C14 1_555 1_555
H19 C15 1_555 1_555
H20 C15 1_555 1_555
H21 C15 1_555 1_555
H23 C16 1_555 1_555
H24 C16 1_555 1_555
O1 C1 1_555 1_555
O2 C2 1_555 1_555
O3 C3 1_555 1_555
O4 C4 1_555 1_555
O5 C5 1_555 1_555
O6 P2 1_555 1_555
O7 P3 1_555 1_555
O8 P2 1_555 1_555
O9 C10 1_555 1_555
O10 C11 1_555 1_555
O11 C12 1_555 1_555
O12 P4 1_555 1_555
O13 P1 1_555 1_555
O14 P1 1_555 1_555
P1 O10 1_555 1_555
P2 O2 1_555 1_555
P3 O4 1_555 1_555
P4 O1 1_555 1_555
O3 P2 1_555 1_555
O5 P3 1_555 1_555
O8 P3 1_555 1_555
O9 P4 1_555 1_555
O11 P1 1_555 1_555
O14 P4 1_555 1_555

#END
