
#######################################################################
#
#                 Cambridge Crystallographic Data Centre
#                                CCDC 
#
#######################################################################
#
# If this CIF has been generated from an entry in the Cambridge 
# Structural Database, then it will include bibliographic, chemical, 
# crystal, experimental, refinement or atomic coordinate data resulting 
# from the CCDC's data processing and validation procedures.
#
#######################################################################

data_MHPIPO11
_chemical_formula_moiety         'C9 H18 N1 O2'
_chemical_name_systematic        
'4-hydroxy-2,2,6,6-tetramethylpiperidine N-oxide'
_symmetry_cell_setting           monoclinic
_symmetry_space_group_name_H-M   'C m'
_symmetry_Int_Tables_number      8
_space_group_name_Hall           'C -2y'
loop_
_symmetry_equiv_pos_site_id
_symmetry_equiv_pos_as_xyz
1 x,y,z
2 x,-y,z
3 1/2+x,1/2+y,z
4 1/2+x,1/2-y,z
_cell_length_a                   7.0310(5)
_cell_length_b                   13.8065(10)
_cell_length_c                   5.7429(4)
_cell_angle_alpha                90
_cell_angle_beta                 119.175(2)
_cell_angle_gamma                90
_cell_volume                     486.758
_exptl_crystal_colour            yellow
_exptl_crystal_description       block
_cell_formula_units_Z            2
loop_
_atom_site_label
_atom_site_type_symbol
_atom_site_fract_x
_atom_site_fract_y
_atom_site_fract_z
C1 C 0.2647(5) 0.500000 0.7564(6)
H1 H 0.404365 0.500000 0.929442
C2 C 0.2624(4) 0.58876(17) 0.5989(5)
H2 H 0.251981 0.647522 0.690799
H3 H 0.131397 0.586449 0.420294
C3 C 0.4648(4) 0.59637(15) 0.5657(4)
C4 C 0.6645(5) 0.62931(18) 0.8242(5)
H4 H 0.688677 0.584769 0.968896
H5 H 0.639709 0.694811 0.869495
H6 H 0.792901 0.629411 0.799319
C5 C 0.4202(5) 0.66742(17) 0.3395(5)
H7 H 0.550129 0.672799 0.318841
H8 H 0.384048 0.731165 0.382339
H9 H 0.297821 0.643717 0.172893
N1 N 0.5144(5) 0.500000 0.4866(5)
O1 O 0.0897(4) 0.500000 0.8135(5)
O2 O 0.6557(4) 0.500000 0.4060(4)
C2A C 0.2624(4) 0.41124(17) 0.5989(5)
H2A H 0.251981 0.352478 0.690799
H3A H 0.131397 0.413551 0.420294
C3A C 0.4648(4) 0.40363(15) 0.5657(4)
C4A C 0.6645(5) 0.37069(18) 0.8242(5)
H4A H 0.688677 0.415231 0.968896
H5A H 0.639709 0.305189 0.869495
H6A H 0.792901 0.370589 0.799319
C5A C 0.4202(5) 0.33258(17) 0.3395(5)
H7A H 0.550129 0.327201 0.318841
H8A H 0.384048 0.268835 0.382339
H9A H 0.297821 0.356283 0.172893
H10? H -0.041(10) 0.518(6) 0.658(13)
loop_
_geom_bond_atom_site_label_1
_geom_bond_atom_site_label_2
_geom_bond_site_symmetry_1
_geom_bond_site_symmetry_2
C1 H1 1_555 1_555
C2 C1 1_555 1_555
H2 C2 1_555 1_555
H3 C2 1_555 1_555
C3 C2 1_555 1_555
C4 C3 1_555 1_555
H4 C4 1_555 1_555
H5 C4 1_555 1_555
H6 C4 1_555 1_555
C5 C3 1_555 1_555
H7 C5 1_555 1_555
H8 C5 1_555 1_555
H9 C5 1_555 1_555
N1 C3 1_555 1_555
O1 C1 1_555 1_555
O2 N1 1_555 1_555
C2A C1 1_555 1_555
H2A C2A 1_555 1_555
H3A C2A 1_555 1_555
C3A N1 1_555 1_555
C4A C3A 1_555 1_555
H4A C4A 1_555 1_555
H5A C4A 1_555 1_555
H6A C4A 1_555 1_555
C5A C3A 1_555 1_555
H7A C5A 1_555 1_555
H8A C5A 1_555 1_555
H9A C5A 1_555 1_555
C2A C3A 1_555 1_555

#END
