
#######################################################################
#
#                 Cambridge Crystallographic Data Centre
#                                CCDC 
#
#######################################################################
#
# If this CIF has been generated from an entry in the Cambridge 
# Structural Database, then it will include bibliographic, chemical, 
# crystal, experimental, refinement or atomic coordinate data resulting 
# from the CCDC's data processing and validation procedures.
#
#######################################################################

data_MHPOAT01
_chemical_formula_moiety         'C10 H10 O4'
_chemical_name_systematic        '(E)-Methyl 3-(3,4-dihydroxyphenyl)acrylate'
_symmetry_cell_setting           triclinic
_symmetry_space_group_name_H-M   'P -1'
_symmetry_Int_Tables_number      2
_space_group_name_Hall           '-P 1'
loop_
_symmetry_equiv_pos_site_id
_symmetry_equiv_pos_as_xyz
1 x,y,z
2 -x,-y,-z
_cell_length_a                   5.129(5)
_cell_length_b                   9.969(8)
_cell_length_c                   10.586(9)
_cell_angle_alpha                117.627(7)
_cell_angle_beta                 97.924(11)
_cell_angle_gamma                94.322(11)
_cell_volume                     468.959
_exptl_crystal_colour            colorless
_exptl_crystal_description       block
_cell_formula_units_Z            2
_exptl_crystal_recrystallization_method 'petroleum ether'
loop_
_atom_site_label
_atom_site_type_symbol
_atom_site_fract_x
_atom_site_fract_y
_atom_site_fract_z
O1 O 0.3038(3) 0.37534(14) -0.18804(13)
O2 O 0.5270(3) 0.19675(16) -0.17913(15)
O3 O 0.1400(2) -0.02223(14) 0.35179(13)
H1 H 0.2389 -0.0773 0.3036
O4 O -0.2041(3) 0.17229(17) 0.47736(15)
H2 H -0.1537 0.1033 0.4914
C1 C 0.4334(5) 0.3652(2) -0.3048(2)
H3 H 0.3752 0.4367 -0.3354
H4 H 0.3878 0.2631 -0.3853
H5 H 0.6232 0.3891 -0.2711
C2 C 0.3676(3) 0.28238(18) -0.13522(17)
C3 C 0.2244(3) 0.29584(18) -0.02085(17)
H6 H 0.1053 0.3654 0.0075
C4 C 0.2628(3) 0.20962(19) 0.04297(18)
H7 H 0.3849 0.1428 0.0100
C5 C 0.1401(3) 0.20498(18) 0.15770(17)
C6 C -0.0350(3) 0.30272(19) 0.22626(19)
H8 H -0.0774 0.3767 0.2001
C7 C -0.1459(4) 0.2904(2) 0.3326(2)
H9 H -0.2618 0.3568 0.3778
C8 C -0.0874(3) 0.1811(2) 0.37298(18)
C9 C 0.0889(3) 0.08337(18) 0.30649(16)
C10 C 0.2006(3) 0.09637(18) 0.20077(17)
H10 H 0.3192 0.0312 0.1571
loop_
_geom_bond_atom_site_label_1
_geom_bond_atom_site_label_2
_geom_bond_site_symmetry_1
_geom_bond_site_symmetry_2
O1 C1 1_555 1_555
O2 C2 1_555 1_555
O3 H1 1_555 1_555
O4 H2 1_555 1_555
C1 H3 1_555 1_555
H4 C1 1_555 1_555
H5 C1 1_555 1_555
C2 O1 1_555 1_555
C3 C2 1_555 1_555
H6 C3 1_555 1_555
C4 C3 1_555 1_555
H7 C4 1_555 1_555
C5 C4 1_555 1_555
C6 C5 1_555 1_555
H8 C6 1_555 1_555
C7 C6 1_555 1_555
H9 C7 1_555 1_555
C8 O4 1_555 1_555
C9 O3 1_555 1_555
C10 C5 1_555 1_555
H10 C10 1_555 1_555
C7 C8 1_555 1_555
C8 C9 1_555 1_555
C9 C10 1_555 1_555

#END
