
#######################################################################
#
#                 Cambridge Crystallographic Data Centre
#                                CCDC 
#
#######################################################################
#
# If this CIF has been generated from an entry in the Cambridge 
# Structural Database, then it will include bibliographic, chemical, 
# crystal, experimental, refinement or atomic coordinate data resulting 
# from the CCDC's data processing and validation procedures.
#
#######################################################################

data_MIBBEH
_chemical_formula_moiety         'C26 H32 O11'
_chemical_name_systematic        
'methyl 3,11,12-trihydroxy-15-((3-methylbut-2-enoyl)oxy)-2,16-dioxo-13,20-epoxypicras-3-en-21-oate'
_symmetry_cell_setting           orthorhombic
_symmetry_space_group_name_H-M   'P 21 21 21'
_symmetry_Int_Tables_number      19
_space_group_name_Hall           'P 2ac 2ab'
loop_
_symmetry_equiv_pos_site_id
_symmetry_equiv_pos_as_xyz
1 x,y,z
2 1/2-x,-y,1/2+z
3 -x,1/2+y,1/2-z
4 1/2+x,1/2-y,-z
_cell_length_a                   6.676(2)
_cell_length_b                   13.637(4)
_cell_length_c                   25.945(8)
_cell_angle_alpha                90
_cell_angle_beta                 90
_cell_angle_gamma                90
_cell_volume                     2362.05
_exptl_crystal_colour            colorless
_exptl_crystal_description       plate
_cell_formula_units_Z            4
loop_
_atom_site_label
_atom_site_type_symbol
_atom_site_fract_x
_atom_site_fract_y
_atom_site_fract_z
O1 O 0.5254(5) 0.76100(19) 0.28051(11)
O2 O 1.1376(4) 0.5911(2) 0.28385(11)
O3 O 0.3536(5) 0.7416(2) 0.21001(11)
O4 O 0.6583(4) 0.64281(19) 0.16151(10)
O5 O 0.7583(5) 0.79941(19) 0.16846(11)
O6 O 1.2569(5) 0.4839(2) 0.19552(13)
O7 O 1.0660(5) 0.5980(3) 0.15800(11)
O8 O 0.7667(5) 0.4318(2) 0.22576(11)
H1 H 0.6859 0.3847 0.2241
O9 O 0.9619(5) 0.4547(2) 0.35709(11)
H2 H 1.0429 0.4097 0.3497
O10 O 0.3239(6) 0.4536(2) 0.47817(12)
O11 O 0.2108(6) 0.6318(3) 0.50384(12)
H3 H 0.1962 0.5762 0.5172
C1 C 0.8145(6) 0.6557(3) 0.30369(14)
C2 C 0.7073(6) 0.7520(3) 0.31293(15)
H4 H 0.8005 0.8070 0.3044
C3 C 0.4996(6) 0.7186(3) 0.23448(15)
C4 C 0.6431(6) 0.6382(3) 0.21712(14)
H5 H 0.5797 0.5740 0.2260
C5 C 0.8426(6) 0.6427(3) 0.24503(14)
H6 H 0.9145 0.7021 0.2322
C6 C 0.9948(7) 0.5582(3) 0.24558(15)
C7 C 1.0375(6) 0.6576(3) 0.31871(15)
H7 H 1.0924 0.7247 0.3151
H8 H 1.0552 0.6360 0.3548
C8 C 0.9068(6) 0.4608(3) 0.26408(15)
H9 H 1.0169 0.4111 0.2653
C9 C 0.8125(6) 0.4687(3) 0.31834(15)
H10 H 0.7126 0.4145 0.3218
C10 C 0.7014(6) 0.5660(3) 0.32737(15)
H11 H 0.5767 0.5602 0.3062
C11 C 0.6243(6) 0.5838(3) 0.38356(15)
C12 C 0.4954(6) 0.6790(3) 0.38177(16)
H12 H 0.4000 0.6698 0.3525
C13 C 0.6262(7) 0.7677(3) 0.36691(15)
H13 H 0.5453 0.8285 0.3681
H14 H 0.7384 0.7745 0.3916
C14 C 0.4849(7) 0.4990(3) 0.39845(15)
H15 H 0.3865 0.4883 0.3705
H16 H 0.5649 0.4383 0.4022
C15 C 0.3753(7) 0.5186(3) 0.44773(16)
C16 C 0.3215(7) 0.6204(3) 0.45948(16)
C17 C 0.3655(7) 0.6953(3) 0.42911(16)
C18 C 0.7186(6) 0.7290(3) 0.14129(16)
C19 C 0.7226(7) 0.7334(3) 0.08473(15)
H17 H 0.7357 0.7976 0.0709
C20 C 0.7110(7) 0.6627(3) 0.04967(16)
C21 C 0.7196(9) 0.6890(4) -0.00675(17)
H18 H 0.7206 0.7605 -0.0105
H19 H 0.6021 0.6620 -0.0244
H20 H 0.8416 0.6617 -0.0220
C22 C 0.6951(8) 0.5547(3) 0.05916(18)
H21 H 0.7032 0.5419 0.0963
H22 H 0.8049 0.5209 0.0415
H23 H 0.5667 0.5307 0.0459
C23 C 1.1189(7) 0.5419(3) 0.19679(16)
C24 C 1.1894(8) 0.5881(5) 0.11211(17)
H24 H 1.1340 0.6288 0.0844
H25 H 1.1910 0.5193 0.1011
H26 H 1.3263 0.6094 0.1198
C25 C 0.7877(7) 0.5934(3) 0.42577(15)
H27 H 0.7244 0.6086 0.4589
H28 H 0.8806 0.6461 0.4165
H29 H 0.8614 0.5314 0.4286
C26 C 0.2736(8) 0.7945(3) 0.43709(18)
H30 H 0.1592 0.7889 0.4606
H31 H 0.2282 0.8207 0.4039
H32 H 0.3735 0.8389 0.4520
loop_
_geom_bond_atom_site_label_1
_geom_bond_atom_site_label_2
_geom_bond_site_symmetry_1
_geom_bond_site_symmetry_2
O1 C2 1_555 1_555
O2 C6 1_555 1_555
O3 C3 1_555 1_555
O4 C4 1_555 1_555
O5 C18 1_555 1_555
O6 C23 1_555 1_555
O7 C23 1_555 1_555
O8 H1 1_555 1_555
O9 H2 1_555 1_555
O10 C15 1_555 1_555
O11 H3 1_555 1_555
C1 C2 1_555 1_555
C2 H4 1_555 1_555
C3 O1 1_555 1_555
C4 C3 1_555 1_555
H5 C4 1_555 1_555
C5 C1 1_555 1_555
H6 C5 1_555 1_555
C6 C5 1_555 1_555
C7 O2 1_555 1_555
H7 C7 1_555 1_555
H8 C7 1_555 1_555
C8 O8 1_555 1_555
H9 C8 1_555 1_555
C9 O9 1_555 1_555
H10 C9 1_555 1_555
C10 C1 1_555 1_555
H11 C10 1_555 1_555
C11 C10 1_555 1_555
C12 C11 1_555 1_555
H12 C12 1_555 1_555
C13 C2 1_555 1_555
H13 C13 1_555 1_555
H14 C13 1_555 1_555
C14 C11 1_555 1_555
H15 C14 1_555 1_555
H16 C14 1_555 1_555
C15 C14 1_555 1_555
C16 O11 1_555 1_555
C17 C12 1_555 1_555
C18 O4 1_555 1_555
C19 C18 1_555 1_555
H17 C19 1_555 1_555
C20 C19 1_555 1_555
C21 C20 1_555 1_555
H18 C21 1_555 1_555
H19 C21 1_555 1_555
H20 C21 1_555 1_555
C22 C20 1_555 1_555
H21 C22 1_555 1_555
H22 C22 1_555 1_555
H23 C22 1_555 1_555
C23 C6 1_555 1_555
C24 O7 1_555 1_555
H24 C24 1_555 1_555
H25 C24 1_555 1_555
H26 C24 1_555 1_555
C25 C11 1_555 1_555
H27 C25 1_555 1_555
H28 C25 1_555 1_555
H29 C25 1_555 1_555
C26 C17 1_555 1_555
H30 C26 1_555 1_555
H31 C26 1_555 1_555
H32 C26 1_555 1_555
C1 C7 1_555 1_555
C4 C5 1_555 1_555
C6 C8 1_555 1_555
C8 C9 1_555 1_555
C9 C10 1_555 1_555
C12 C13 1_555 1_555
C15 C16 1_555 1_555
C16 C17 1_555 1_555

#END
