
#######################################################################
#
#                 Cambridge Crystallographic Data Centre
#                                CCDC 
#
#######################################################################
#
# If this CIF has been generated from an entry in the Cambridge 
# Structural Database, then it will include bibliographic, chemical, 
# crystal, experimental, refinement or atomic coordinate data resulting 
# from the CCDC's data processing and validation procedures.
#
#######################################################################

data_MIBGOV
_chemical_formula_moiety         'C43 H28 N4 O2'
_chemical_name_systematic        
meso-5,10,15,20-tetraphenyl-3-oxo-2-oxaporphyrin
_symmetry_cell_setting           triclinic
_symmetry_space_group_name_H-M   'P -1'
_symmetry_Int_Tables_number      2
_space_group_name_Hall           '-P 1'
loop_
_symmetry_equiv_pos_site_id
_symmetry_equiv_pos_as_xyz
1 x,y,z
2 -x,-y,-z
_cell_length_a                   6.3491(4)
_cell_length_b                   10.3930(6)
_cell_length_c                   12.2632(7)
_cell_angle_alpha                94.1750(10)
_cell_angle_beta                 100.4460(10)
_cell_angle_gamma                100.3440(10)
_cell_volume                     778.201
_exptl_crystal_colour            red
_exptl_crystal_description       needle
_cell_formula_units_Z            1
loop_
_atom_site_label
_atom_site_type_symbol
_atom_site_fract_x
_atom_site_fract_y
_atom_site_fract_z
N1 N 0.13524(19) -0.01311(11) -0.14408(10)
H1 H 0.0947 -0.0219 -0.0797
C1 C 0.0263(2) -0.08156(13) -0.24436(11)
C2 C 0.1458(3) -0.0405(2) -0.32793(15)
H2 H 0.1083 -0.0721 -0.4050
C3 C 0.3244(3) 0.0526(2) -0.27686(15)
H3 H 0.4337 0.0971 -0.3120
C4 C 0.3166(2) 0.07095(13) -0.15996(11)
C5 C 0.4589(2) 0.16554(13) -0.07980(12)
N2 N 0.26280(18) 0.13565(11) 0.07701(10)
C6 C 0.4327(2) 0.18886(13) 0.03054(11)
C7 C 0.5164(11) 0.2857(6) 0.2096(5)
C8 C 0.3077(2) 0.19146(13) 0.18510(11)
C9 C 0.1763(2) 0.16867(13) 0.26464(11)
O1 O 0.6222(7) 0.3646(4) 0.2750(3)
O2 O 0.5831(12) 0.2775(9) 0.0973(6)
C10 C 0.6418(2) 0.25217(13) -0.11627(11)
C11 C 0.6566(2) 0.38865(14) -0.10633(13)
H4 H 0.5510 0.4257 -0.0756
C12 C 0.8240(3) 0.47025(15) -0.14091(14)
H5 H 0.8344 0.5629 -0.1324
C13 C 0.9769(2) 0.41658(16) -0.18803(13)
H6 H 1.0905 0.4724 -0.2127
C14 C 0.9628(2) 0.28219(16) -0.19875(13)
H7 H 1.0668 0.2454 -0.2311
C15 C 0.7970(2) 0.20011(15) -0.16248(13)
H8 H 0.7898 0.1077 -0.1693
C16 C 0.2555(2) 0.23947(14) 0.37955(12)
C17 C 0.4522(3) 0.22464(17) 0.44457(13)
H9 H 0.5361 0.1676 0.4167
C18 C 0.5254(3) 0.29366(19) 0.55035(14)
H10 H 0.6611 0.2849 0.5937
C19 C 0.4032(4) 0.37433(18) 0.59275(14)
H11 H 0.4539 0.4205 0.6652
C20 C 0.2077(4) 0.38790(18) 0.52992(15)
H12 H 0.1224 0.4428 0.5596
C21 C 0.1334(3) 0.32165(16) 0.42285(13)
H13 H -0.0008 0.3327 0.3795
N1A N -0.13524(19) 0.01311(11) 0.14408(10)
H1A H -0.0947 0.0219 0.0797
C1A C -0.0263(2) 0.08156(13) 0.24436(11)
C2A C -0.1458(3) 0.0405(2) 0.32793(15)
H2A H -0.1083 0.0721 0.4050
C3A C -0.3244(3) -0.0526(2) 0.27686(15)
H3A H -0.4337 -0.0971 0.3120
C4A C -0.3166(2) -0.07095(13) 0.15996(11)
C5A C -0.4589(2) -0.16554(13) 0.07980(12)
N2A N -0.26280(18) -0.13565(11) -0.07701(10)
C6A C -0.4327(2) -0.18886(13) -0.03054(11)
C7A C -0.5164(11) -0.2857(6) -0.2096(5)
C8A C -0.3077(2) -0.19146(13) -0.18510(11)
C9A C -0.1763(2) -0.16867(13) -0.26464(11)
O1A O -0.6222(7) -0.3646(4) -0.2750(3)
O2A O -0.5831(12) -0.2775(9) -0.0973(6)
C10A C -0.6418(2) -0.25217(13) 0.11627(11)
C11A C -0.6566(2) -0.38865(14) 0.10633(13)
H4A H -0.5510 -0.4257 0.0756
C12A C -0.8240(3) -0.47025(15) 0.14091(14)
H5A H -0.8344 -0.5629 0.1324
C13A C -0.9769(2) -0.41658(16) 0.18803(13)
H6A H -1.0905 -0.4724 0.2127
C14A C -0.9628(2) -0.28219(16) 0.19875(13)
H7A H -1.0668 -0.2454 0.2311
C15A C -0.7970(2) -0.20011(15) 0.16248(13)
H8A H -0.7898 -0.1077 0.1693
C16A C -0.2555(2) -0.23947(14) -0.37955(12)
C17A C -0.4522(3) -0.22464(17) -0.44457(13)
H9A H -0.5361 -0.1676 -0.4167
C18A C -0.5254(3) -0.29366(19) -0.55035(14)
H10A H -0.6611 -0.2849 -0.5937
C19A C -0.4032(4) -0.37433(18) -0.59275(14)
H11A H -0.4539 -0.4205 -0.6652
C20A C -0.2077(4) -0.38790(18) -0.52992(15)
H12A H -0.1224 -0.4428 -0.5596
C21A C -0.1334(3) -0.32165(16) -0.42285(13)
H13A H 0.0008 -0.3327 -0.3795
H14? H 0.1468 0.0768 0.0440
O3? O 0.132(2) -0.0502(16) -0.4213(11)
C22? C 0.187(4) -0.025(3) -0.3193(13)
O4? O 0.343(3) 0.064(2) -0.2572(12)
H15? H 0.5818 0.3386 0.2780
H16? H 0.7334 0.3293 0.1015
O5? O 0.4954(17) 0.2658(9) 0.2171(9)
C23? C 0.594(2) 0.2689(14) 0.1313(10)
C24? C 0.5980(10) 0.2817(7) 0.1128(4)
O6? O 0.7859(11) 0.3126(7) 0.1347(6)
C25? C 0.5270(18) 0.2843(13) 0.1965(8)
loop_
_geom_bond_atom_site_label_1
_geom_bond_atom_site_label_2
_geom_bond_site_symmetry_1
_geom_bond_site_symmetry_2
N1 H1 1_555 1_555
C1 N1 1_555 1_555
C2 C1 1_555 1_555
H2 C2 1_555 1_555
C3 C2 1_555 1_555
H3 C3 1_555 1_555
C4 N1 1_555 1_555
C5 C4 1_555 1_555
N2 C6 1_555 1_555
C6 C5 1_555 1_555
C7 C8 1_555 1_555
C8 N2 1_555 1_555
C9 C8 1_555 1_555
O1 C7 1_555 1_555
O2 C6 1_555 1_555
C10 C5 1_555 1_555
C11 C10 1_555 1_555
H4 C11 1_555 1_555
C12 C11 1_555 1_555
H5 C12 1_555 1_555
C13 C12 1_555 1_555
H6 C13 1_555 1_555
C14 C13 1_555 1_555
H7 C14 1_555 1_555
C15 C10 1_555 1_555
H8 C15 1_555 1_555
C16 C9 1_555 1_555
C17 C16 1_555 1_555
H9 C17 1_555 1_555
C18 C17 1_555 1_555
H10 C18 1_555 1_555
C19 C18 1_555 1_555
H11 C19 1_555 1_555
C20 C19 1_555 1_555
H12 C20 1_555 1_555
C21 C16 1_555 1_555
H13 C21 1_555 1_555
N1A H1A 1_555 1_555
C1A C9 1_555 1_555
C2A C1A 1_555 1_555
H2A C2A 1_555 1_555
C3A C2A 1_555 1_555
H3A C3A 1_555 1_555
C4A N1A 1_555 1_555
C5A C4A 1_555 1_555
N2A C6A 1_555 1_555
C6A C5A 1_555 1_555
C7A C8A 1_555 1_555
C8A N2A 1_555 1_555
C9A C1 1_555 1_555
O1A C7A 1_555 1_555
O2A C6A 1_555 1_555
C10A C5A 1_555 1_555
C11A C10A 1_555 1_555
H4A C11A 1_555 1_555
C12A C11A 1_555 1_555
H5A C12A 1_555 1_555
C13A C12A 1_555 1_555
H6A C13A 1_555 1_555
C14A C13A 1_555 1_555
H7A C14A 1_555 1_555
C15A C10A 1_555 1_555
H8A C15A 1_555 1_555
C16A C9A 1_555 1_555
C17A C16A 1_555 1_555
H9A C17A 1_555 1_555
C18A C17A 1_555 1_555
H10A C18A 1_555 1_555
C19A C18A 1_555 1_555
H11A C19A 1_555 1_555
C20A C19A 1_555 1_555
H12A C20A 1_555 1_555
C21A C16A 1_555 1_555
H13A C21A 1_555 1_555
C3 C4 1_555 1_555
C7 O2 1_555 1_555
C14 C15 1_555 1_555
C20 C21 1_555 1_555
N1A C1A 1_555 1_555
C3A C4A 1_555 1_555
C7A O2A 1_555 1_555
C8A C9A 1_555 1_555
C14A C15A 1_555 1_555
C20A C21A 1_555 1_555

#END
