
#######################################################################
#
#                 Cambridge Crystallographic Data Centre
#                                CCDC 
#
#######################################################################
#
# If this CIF has been generated from an entry in the Cambridge 
# Structural Database, then it will include bibliographic, chemical, 
# crystal, experimental, refinement or atomic coordinate data resulting 
# from the CCDC's data processing and validation procedures.
#
#######################################################################

data_MIBGIP
_chemical_formula_moiety         'C16 H24 O3'
_chemical_name_systematic        
'6-(2,2-Dimethylpropylidene)-5-oxocyclohex-1-en-1-yl pivalate'
_symmetry_cell_setting           monoclinic
_symmetry_space_group_name_H-M   'P 21/n'
_symmetry_Int_Tables_number      14
_space_group_name_Hall           '-P 2yn'
loop_
_symmetry_equiv_pos_site_id
_symmetry_equiv_pos_as_xyz
1 x,y,z
2 1/2-x,1/2+y,1/2-z
3 -x,-y,-z
4 1/2+x,1/2-y,1/2+z
_cell_length_a                   10.5042(2)
_cell_length_b                   6.09200(10)
_cell_length_c                   24.0074(4)
_cell_angle_alpha                90
_cell_angle_beta                 95.8150(10)
_cell_angle_gamma                90
_cell_volume                     1528.37
_exptl_crystal_colour            colorless
_exptl_crystal_description       needle
_cell_formula_units_Z            4
loop_
_atom_site_label
_atom_site_type_symbol
_atom_site_fract_x
_atom_site_fract_y
_atom_site_fract_z
O1 O 0.37789(7) 0.01560(12) 0.05270(3)
O2 O 0.37147(6) 0.28081(11) 0.11788(3)
O3 O 0.80571(7) 0.07364(13) 0.10449(3)
C1 C 0.10643(10) 0.20700(18) 0.03990(5)
H1 H 0.1296 0.3629 0.0417
H2 H 0.0138 0.1917 0.0408
H3 H 0.1315 0.1434 0.0051
C2 C 0.14447(10) -0.15956(17) 0.08660(5)
H4 H 0.1694 -0.2186 0.0513
H5 H 0.0523 -0.1801 0.0880
H6 H 0.1913 -0.2369 0.1181
C3 C 0.13573(10) 0.18157(19) 0.14479(5)
H7 H 0.1845 0.1107 0.1768
H8 H 0.0441 0.1555 0.1465
H9 H 0.1526 0.3398 0.1459
C4 C 0.17638(9) 0.08591(16) 0.09041(4)
C5 C 0.31856(9) 0.11622(16) 0.08456(4)
C6 C 0.49798(9) 0.34104(16) 0.10896(4)
C7 C 0.51458(10) 0.52655(17) 0.08173(4)
H10 H 0.4431 0.6167 0.0700
C8 C 0.64609(10) 0.59418(18) 0.06948(5)
H11 H 0.6903 0.6700 0.1024
H12 H 0.6400 0.6972 0.0374
C9 C 0.72210(10) 0.39036(18) 0.05561(5)
H13 H 0.6873 0.3347 0.0184
H14 H 0.8122 0.4335 0.0531
C10 C 0.71931(9) 0.20676(17) 0.09780(4)
C11 C 0.60461(9) 0.19840(16) 0.13120(4)
C12 C 0.61881(9) 0.07702(16) 0.17817(4)
H15 H 0.6956 -0.0066 0.1819
C13 C 0.53798(10) 0.04555(17) 0.22643(4)
C14 C 0.47411(11) 0.25776(18) 0.24394(5)
H16 H 0.5397 0.3699 0.2533
H17 H 0.4282 0.2289 0.2767
H18 H 0.4137 0.3099 0.2130
C15 C 0.43776(11) -0.13371(18) 0.21073(5)
H19 H 0.3791 -0.0841 0.1789
H20 H 0.3894 -0.1630 0.2428
H21 H 0.4809 -0.2683 0.2005
C16 C 0.62758(12) -0.0347(2) 0.27697(5)
H22 H 0.6675 -0.1734 0.2675
H23 H 0.5782 -0.0574 0.3090
H24 H 0.6941 0.0755 0.2866
loop_
_geom_bond_atom_site_label_1
_geom_bond_atom_site_label_2
_geom_bond_site_symmetry_1
_geom_bond_site_symmetry_2
O1 C5 1_555 1_555
O2 C5 1_555 1_555
O3 C10 1_555 1_555
C1 H1 1_555 1_555
H2 C1 1_555 1_555
H3 C1 1_555 1_555
C2 H4 1_555 1_555
H5 C2 1_555 1_555
H6 C2 1_555 1_555
C3 H7 1_555 1_555
H8 C3 1_555 1_555
H9 C3 1_555 1_555
C4 C1 1_555 1_555
C5 C4 1_555 1_555
C6 O2 1_555 1_555
C7 C6 1_555 1_555
H10 C7 1_555 1_555
C8 C7 1_555 1_555
H11 C8 1_555 1_555
H12 C8 1_555 1_555
C9 C8 1_555 1_555
H13 C9 1_555 1_555
H14 C9 1_555 1_555
C10 C9 1_555 1_555
C11 C6 1_555 1_555
C12 C11 1_555 1_555
H15 C12 1_555 1_555
C13 C12 1_555 1_555
C14 C13 1_555 1_555
H16 C14 1_555 1_555
H17 C14 1_555 1_555
H18 C14 1_555 1_555
C15 C13 1_555 1_555
H19 C15 1_555 1_555
H20 C15 1_555 1_555
H21 C15 1_555 1_555
C16 C13 1_555 1_555
H22 C16 1_555 1_555
H23 C16 1_555 1_555
H24 C16 1_555 1_555
C2 C4 1_555 1_555
C3 C4 1_555 1_555
C10 C11 1_555 1_555

#END
