
#######################################################################
#
#                 Cambridge Crystallographic Data Centre
#                                CCDC 
#
#######################################################################
#
# If this CIF has been generated from an entry in the Cambridge 
# Structural Database, then it will include bibliographic, chemical, 
# crystal, experimental, refinement or atomic coordinate data resulting 
# from the CCDC's data processing and validation procedures.
#
#######################################################################

data_MIBHOV
_chemical_formula_moiety         'C18 H24 N1 O3 1+,Cl1 1-,H2 O1'
_chemical_name_systematic        
'11,12-dimethoxy-2-oxo-1,2,3,5,6,8,9,13b-octahydro-4H-cyclopenta[a]pyrrolo[2,1-b][3]benzazepinium chloride monohydrate'
_symmetry_cell_setting           triclinic
_symmetry_space_group_name_H-M   'P -1'
_symmetry_Int_Tables_number      2
_space_group_name_Hall           '-P 1'
loop_
_symmetry_equiv_pos_site_id
_symmetry_equiv_pos_as_xyz
1 x,y,z
2 -x,-y,-z
_cell_length_a                   7.477(9)
_cell_length_b                   10.370(13)
_cell_length_c                   11.367(14)
_cell_angle_alpha                92.785(14)
_cell_angle_beta                 94.308(16)
_cell_angle_gamma                92.272(15)
_cell_volume                     876.999
_exptl_crystal_colour            colorless
_exptl_crystal_description       Block
_chemical_melting_point          '223-225 deg.C'
_cell_formula_units_Z            2
loop_
_atom_site_label
_atom_site_type_symbol
_atom_site_fract_x
_atom_site_fract_y
_atom_site_fract_z
Cl1 Cl 0.17438(13) 0.03732(9) 0.29011(8)
O1 O 0.6902(3) 0.3600(2) -0.08204(18)
O2 O 0.6031(3) 0.5350(2) -0.22830(17)
O3 O 1.1545(4) 0.6159(3) 0.4992(2)
N1 N 0.7817(4) 0.9101(2) 0.2886(2)
H1 H 0.8911 0.9522 0.2990
C1 C 0.7410(5) 0.2609(3) -0.0053(3)
H2 H 0.8636 0.2768 0.0251
H3 H 0.7289 0.1787 -0.0484
H4 H 0.6649 0.2605 0.0590
C2 C 0.7215(4) 0.4849(3) -0.0390(2)
C3 C 0.7974(4) 0.5220(3) 0.0739(2)
H5 H 0.8282 0.4590 0.1264
C4 C 0.8278(4) 0.6523(3) 0.1093(2)
C5 C 0.7786(4) 0.7468(3) 0.0305(2)
C6 C 0.7050(4) 0.7083(3) -0.0831(2)
H6 H 0.6765 0.7711 -0.1363
C7 C 0.6740(4) 0.5809(3) -0.1182(2)
C8 C 0.5741(6) 0.6265(4) -0.3151(3)
H7 H 0.4864 0.6854 -0.2908
H8 H 0.5313 0.5827 -0.3888
H9 H 0.6847 0.6736 -0.3247
C9 C 0.8053(5) 0.8884(3) 0.0665(3)
H10 H 0.7737 0.9384 -0.0013
H11 H 0.9313 0.9072 0.0902
C10 C 0.6944(5) 0.9307(3) 0.1672(3)
H12 H 0.6719 1.0218 0.1615
H13 H 0.5793 0.8834 0.1579
C11 C 0.8203(4) 0.7709(3) 0.3183(2)
C12 C 0.6588(5) 0.9516(3) 0.3816(3)
H14 H 0.5847 1.0206 0.3544
H15 H 0.7277 0.9817 0.4541
C13 C 0.5430(6) 0.8310(4) 0.4011(3)
H16 H 0.4214 0.8389 0.3667
H17 H 0.5388 0.8182 0.4849
C14 C 0.6320(5) 0.7176(3) 0.3402(3)
H18 H 0.6391 0.6449 0.3906
H19 H 0.5651 0.6900 0.2662
C15 C 0.9260(4) 0.6953(3) 0.2276(2)
H20 H 1.0270 0.7526 0.2103
C16 C 1.0056(5) 0.5888(4) 0.3019(3)
H21 H 0.9190 0.5172 0.3057
H22 H 1.1126 0.5568 0.2694
C17 C 1.0500(5) 0.6544(3) 0.4222(3)
C18 C 0.9497(5) 0.7759(3) 0.4309(3)
H23 H 1.0313 0.8512 0.4338
H24 H 0.8835 0.7787 0.5012
O4 O 0.1503(5) 0.7677(3) 0.7232(3)
H25 H 0.1487 0.7240 0.6578
H26 H 0.0635 0.8175 0.7295
loop_
_geom_bond_atom_site_label_1
_geom_bond_atom_site_label_2
_geom_bond_site_symmetry_1
_geom_bond_site_symmetry_2
O1 C1 1_555 1_555
O2 C7 1_555 1_555
O3 C17 1_555 1_555
N1 H1 1_555 1_555
C1 H2 1_555 1_555
H3 C1 1_555 1_555
H4 C1 1_555 1_555
C2 O1 1_555 1_555
C3 C2 1_555 1_555
H5 C3 1_555 1_555
C4 C3 1_555 1_555
C5 C4 1_555 1_555
C6 C5 1_555 1_555
H6 C6 1_555 1_555
C7 C2 1_555 1_555
C8 O2 1_555 1_555
H7 C8 1_555 1_555
H8 C8 1_555 1_555
H9 C8 1_555 1_555
C9 C5 1_555 1_555
H10 C9 1_555 1_555
H11 C9 1_555 1_555
C10 N1 1_555 1_555
H12 C10 1_555 1_555
H13 C10 1_555 1_555
C11 N1 1_555 1_555
C12 N1 1_555 1_555
H14 C12 1_555 1_555
H15 C12 1_555 1_555
C13 C12 1_555 1_555
H16 C13 1_555 1_555
H17 C13 1_555 1_555
C14 C11 1_555 1_555
H18 C14 1_555 1_555
H19 C14 1_555 1_555
C15 C4 1_555 1_555
H20 C15 1_555 1_555
C16 C15 1_555 1_555
H21 C16 1_555 1_555
H22 C16 1_555 1_555
C17 C16 1_555 1_555
C18 C11 1_555 1_555
H23 C18 1_555 1_555
H24 C18 1_555 1_555
O4 H25 1_555 1_555
H26 O4 1_555 1_555
C6 C7 1_555 1_555
C9 C10 1_555 1_555
C11 C15 1_555 1_555
C13 C14 1_555 1_555
C17 C18 1_555 1_555

#END
