
#######################################################################
#
#                 Cambridge Crystallographic Data Centre
#                                CCDC 
#
#######################################################################
#
# If this CIF has been generated from an entry in the Cambridge 
# Structural Database, then it will include bibliographic, chemical, 
# crystal, experimental, refinement or atomic coordinate data resulting 
# from the CCDC's data processing and validation procedures.
#
#######################################################################

data_MIBJIR01
_chemical_name_common            
7,7-dimethyl-3,3a,4,5,5a,8a-hexahydro[1,3]dioxolo[4,5-g][2,1]benzoxazol-5-ol
_chemical_formula_moiety         'C10 H15 N1 O4'
_chemical_name_systematic        
(3aR,5R,5aS,8aR)-7,7-dimethyl-3,3a,4,5,5a,8a-hexahydro-[1,3]dioxolo[4',5':5,6]benzo[1,2-c]isoxazol-5-ol
_symmetry_cell_setting           monoclinic
_symmetry_space_group_name_H-M   'P 21'
_symmetry_Int_Tables_number      4
_space_group_name_Hall           'P 2yb'
loop_
_symmetry_equiv_pos_site_id
_symmetry_equiv_pos_as_xyz
1 x,y,z
2 -x,1/2+y,-z
_cell_length_a                   7.2282(3)
_cell_length_b                   8.2983(3)
_cell_length_c                   9.2315(4)
_cell_angle_alpha                90
_cell_angle_beta                 112.937(2)
_cell_angle_gamma                90
_cell_volume                     509.941
_chemical_melting_point          '418 K'
_cell_formula_units_Z            2
_exptl_crystal_recrystallization_method 'hexane, ethylaceate'
loop_
_atom_site_label
_atom_site_type_symbol
_atom_site_fract_x
_atom_site_fract_y
_atom_site_fract_z
O1 O 0.87970(19) 0.79495(16) 0.91767(15)
O2 O 0.6821(2) 1.01406(16) 0.90202(15)
O3 O 1.1389(2) 0.99887(18) 0.70718(18)
H1 H 1.2242 0.9681 0.6754
O4 O 0.3799(2) 0.8591(2) 0.43885(18)
N1 N 0.4528(2) 0.9273(2) 0.5930(2)
C1 C 0.6329(3) 0.9713(2) 0.6294(2)
C2 C 0.7542(3) 0.8662(2) 0.9873(2)
C3 C 0.7193(3) 0.9319(3) 0.5106(2)
H2 H 0.7793 1.0277 0.4844
C4 C 0.7672(3) 1.0306(2) 0.7884(2)
H3 H 0.8054 1.1430 0.7824
C5 C 0.9533(3) 0.9243(2) 0.8534(2)
H4 H 1.0591 0.9813 0.9388
C6 C 1.0378(3) 0.8631(2) 0.7362(2)
H5 H 1.1353 0.7772 0.7850
C7 C 0.8724(3) 0.9079(3) 1.1574(2)
H6 H 0.9111 0.8106 1.2181
H7 H 0.7910 0.9724 1.1959
H8 H 0.9905 0.9672 1.1665
C8 C 0.8788(3) 0.8018(3) 0.5849(2)
H9 H 0.8159 0.7064 0.6061
H10 H 0.9404 0.7724 0.5122
C9 C 0.5295(3) 0.8830(3) 0.3734(2)
H11 H 0.4879 0.9669 0.2940
H12 H 0.5510 0.7843 0.3258
C10 C 0.5819(3) 0.7555(3) 0.9648(3)
H13 H 0.5144 0.7305 0.8551
H14 H 0.4896 0.8071 1.0017
H15 H 0.6310 0.6580 1.0231
loop_
_geom_bond_atom_site_label_1
_geom_bond_atom_site_label_2
_geom_bond_site_symmetry_1
_geom_bond_site_symmetry_2
O1 C2 1_555 1_555
O2 C2 1_555 1_555
O3 H1 1_555 1_555
O4 N1 1_555 1_555
N1 C1 1_555 1_555
C1 C3 1_555 1_555
C2 C7 1_555 1_555
C3 H2 1_555 1_555
C4 O2 1_555 1_555
H3 C4 1_555 1_555
C5 O1 1_555 1_555
H4 C5 1_555 1_555
C6 O3 1_555 1_555
H5 C6 1_555 1_555
C7 H6 1_555 1_555
H7 C7 1_555 1_555
H8 C7 1_555 1_555
C8 C3 1_555 1_555
H9 C8 1_555 1_555
H10 C8 1_555 1_555
C9 O4 1_555 1_555
H11 C9 1_555 1_555
H12 C9 1_555 1_555
C10 C2 1_555 1_555
H13 C10 1_555 1_555
H14 C10 1_555 1_555
H15 C10 1_555 1_555
C1 C4 1_555 1_555
C3 C9 1_555 1_555
C4 C5 1_555 1_555
C5 C6 1_555 1_555
C6 C8 1_555 1_555

#END
