
#######################################################################
#
#                 Cambridge Crystallographic Data Centre
#                                CCDC 
#
#######################################################################
#
# If this CIF has been generated from an entry in the Cambridge 
# Structural Database, then it will include bibliographic, chemical, 
# crystal, experimental, refinement or atomic coordinate data resulting 
# from the CCDC's data processing and validation procedures.
#
#######################################################################

data_MIBKAK
_chemical_name_common            
2-((3-Ammoniopropanoyl)amino)-3-methylbutanoate
_chemical_formula_moiety         'C8 H16 N2 O3'
_chemical_name_systematic        \b-Alanyl-L-valine
_symmetry_cell_setting           monoclinic
_symmetry_space_group_name_H-M   'P 21'
_symmetry_Int_Tables_number      4
_space_group_name_Hall           'P 2yb'
loop_
_symmetry_equiv_pos_site_id
_symmetry_equiv_pos_as_xyz
1 x,y,z
2 -x,1/2+y,-z
_cell_length_a                   11.1153(15)
_cell_length_b                   5.4908(8)
_cell_length_c                   16.1643(17)
_cell_angle_alpha                90
_cell_angle_beta                 91.345(10)
_cell_angle_gamma                90
_cell_volume                     986.266
_exptl_crystal_colour            white
_exptl_crystal_description       needle
_cell_formula_units_Z            4
loop_
_atom_site_label
_atom_site_type_symbol
_atom_site_fract_x
_atom_site_fract_y
_atom_site_fract_z
C1 C 0.1073(4) 0.6334(9) 0.8870(3)
H1 H 0.1360 0.5103 0.9267
C2 C 0.0099(5) 0.5200(12) 0.8343(3)
H2 H -0.0270 0.6425 0.7997
H3 H -0.0496 0.4494 0.8691
H4 H 0.0438 0.3955 0.8003
C3 C 0.0597(4) 0.8470(10) 0.9359(3)
H5 H 0.0349 0.9743 0.8985
H6 H 0.1218 0.9069 0.9728
H7 H -0.0079 0.7951 0.9673
C4 C 0.2150(4) 0.7104(8) 0.8344(3)
H8 H 0.1869 0.8263 0.7921
C5 C 0.3102(4) 0.8353(9) 0.8901(2)
O1 O 0.3717(3) 0.6946(6) 0.93545(17)
O2 O 0.3164(3) 1.0602(6) 0.89032(17)
N1 N 0.2672(3) 0.4973(7) 0.7932(2)
H9 H 0.2783 0.3671 0.8220
C6 C 0.2985(5) 0.4936(9) 0.7138(3)
O3 O 0.2775(3) 0.6600(7) 0.66497(18)
C7 C 0.3618(5) 0.2650(9) 0.6873(3)
H10 H 0.3403 0.1333 0.7242
H11 H 0.4480 0.2899 0.6931
C8 C 0.3322(5) 0.1897(9) 0.5995(3)
H12 H 0.3648 0.0286 0.5898
H13 H 0.2455 0.1810 0.5918
N2 N 0.3820(3) 0.3634(7) 0.53801(19)
H14 H 0.3554 0.5129 0.5484
H15 H 0.3584 0.3191 0.4872
H16 H 0.4621 0.3618 0.5418
C9 C 0.8837(4) 0.1834(9) 0.6092(3)
H17 H 0.8467 0.0759 0.5674
C10 C 0.9457(5) 0.3873(10) 0.5657(3)
H18 H 1.0113 0.3233 0.5349
H19 H 0.9759 0.5026 0.6057
H20 H 0.8895 0.4668 0.5286
C11 C 0.9731(5) 0.0363(11) 0.6605(3)
H21 H 0.9329 -0.1004 0.6845
H22 H 1.0069 0.1368 0.7038
H23 H 1.0361 -0.0207 0.6259
C12 C 0.7824(4) 0.2904(8) 0.6631(3)
H24 H 0.8185 0.4032 0.7036
C13 C 0.6901(4) 0.4304(9) 0.6085(2)
O4 O 0.6247(3) 0.3033(6) 0.56103(17)
O5 O 0.6883(3) 0.6556(6) 0.61255(16)
N3 N 0.7238(3) 0.0939(7) 0.7072(2)
H25 H 0.7133 -0.0436 0.6826
C14 C 0.6853(4) 0.1197(8) 0.7853(2)
O6 O 0.6956(3) 0.3138(6) 0.82344(18)
C15 C 0.6242(4) -0.1005(9) 0.8204(2)
H26 H 0.6353 -0.2394 0.7843
H27 H 0.5385 -0.0702 0.8243
C16 C 0.6776(4) -0.1548(9) 0.9056(3)
H28 H 0.7622 -0.1941 0.9009
H29 H 0.6711 -0.0117 0.9403
N4 N 0.6145(3) -0.3604(7) 0.94399(19)
H30 H 0.5355 -0.3432 0.9358
H31 H 0.6315 -0.3627 0.9981
H32 H 0.6385 -0.4994 0.9213
loop_
_geom_bond_atom_site_label_1
_geom_bond_atom_site_label_2
_geom_bond_site_symmetry_1
_geom_bond_site_symmetry_2
C1 H1 1_555 1_555
C2 C1 1_555 1_555
H2 C2 1_555 1_555
H3 C2 1_555 1_555
H4 C2 1_555 1_555
C3 C1 1_555 1_555
H5 C3 1_555 1_555
H6 C3 1_555 1_555
H7 C3 1_555 1_555
C4 C1 1_555 1_555
H8 C4 1_555 1_555
C5 C4 1_555 1_555
O1 C5 1_555 1_555
O2 C5 1_555 1_555
N1 C4 1_555 1_555
H9 N1 1_555 1_555
C6 N1 1_555 1_555
O3 C6 1_555 1_555
C7 C6 1_555 1_555
H10 C7 1_555 1_555
H11 C7 1_555 1_555
C8 C7 1_555 1_555
H12 C8 1_555 1_555
H13 C8 1_555 1_555
N2 C8 1_555 1_555
H14 N2 1_555 1_555
H15 N2 1_555 1_555
H16 N2 1_555 1_555
C9 H17 1_555 1_555
C10 C9 1_555 1_555
H18 C10 1_555 1_555
H19 C10 1_555 1_555
H20 C10 1_555 1_555
C11 C9 1_555 1_555
H21 C11 1_555 1_555
H22 C11 1_555 1_555
H23 C11 1_555 1_555
C12 C9 1_555 1_555
H24 C12 1_555 1_555
C13 C12 1_555 1_555
O4 C13 1_555 1_555
O5 C13 1_555 1_555
N3 C12 1_555 1_555
H25 N3 1_555 1_555
C14 N3 1_555 1_555
O6 C14 1_555 1_555
C15 C14 1_555 1_555
H26 C15 1_555 1_555
H27 C15 1_555 1_555
C16 C15 1_555 1_555
H28 C16 1_555 1_555
H29 C16 1_555 1_555
N4 C16 1_555 1_555
H30 N4 1_555 1_555
H31 N4 1_555 1_555
H32 N4 1_555 1_555

#END
