
#######################################################################
#
#                 Cambridge Crystallographic Data Centre
#                                CCDC 
#
#######################################################################
#
# If this CIF has been generated from an entry in the Cambridge 
# Structural Database, then it will include bibliographic, chemical, 
# crystal, experimental, refinement or atomic coordinate data resulting 
# from the CCDC's data processing and validation procedures.
#
#######################################################################

data_MIBKOZ
_chemical_formula_moiety         'C30 H40 N2 S2'
_chemical_name_systematic        
4,9-Dioctyl-4,9-dihydrothieno[3,2-b]thieno[2',3':4,5]pyrrolo[2,3-f]indole
_symmetry_cell_setting           monoclinic
_symmetry_space_group_name_H-M   'P 21/c'
_symmetry_Int_Tables_number      14
_space_group_name_Hall           '-P 2ybc'
loop_
_symmetry_equiv_pos_site_id
_symmetry_equiv_pos_as_xyz
1 x,y,z
2 -x,1/2+y,1/2-z
3 -x,-y,-z
4 x,1/2-y,1/2+z
_cell_length_a                   15.003(3)
_cell_length_b                   5.5770(11)
_cell_length_c                   17.973(4)
_cell_angle_alpha                90
_cell_angle_beta                 102.020(4)
_cell_angle_gamma                90
_cell_volume                     1470.86
_exptl_crystal_colour            colorless
_exptl_crystal_description       prismatic
_cell_formula_units_Z            2
loop_
_atom_site_label
_atom_site_type_symbol
_atom_site_fract_x
_atom_site_fract_y
_atom_site_fract_z
S1 S -0.17053(6) 1.26228(16) 0.28706(4)
N1 N 0.04912(15) 1.1073(4) 0.42505(12)
C1 C -0.1253(2) 1.0076(6) 0.25593(18)
H1 H -0.1532 0.9260 0.2121
C2 C -0.0466(2) 0.9363(5) 0.29984(16)
H2 H -0.0135 0.8023 0.2908
C3 C -0.02092(19) 1.0949(5) 0.36216(14)
C4 C -0.08027(19) 1.2800(5) 0.36348(14)
C5 C -0.04909(17) 1.4197(5) 0.43055(13)
C6 C 0.03318(18) 1.3055(4) 0.46797(14)
C7 C 0.08228(19) 1.3839(5) 0.53733(14)
C8 C 0.12645(19) 0.9458(5) 0.44363(16)
H3 H 0.1087 0.7898 0.4216
H4 H 0.1427 0.9263 0.4984
C9 C 0.20837(18) 1.0313(5) 0.41580(16)
H5 H 0.1910 1.0641 0.3617
H6 H 0.2297 1.1801 0.4414
C10 C 0.2842(2) 0.8538(7) 0.42934(19)
H7 H 0.2615 0.7019 0.4068
H8 H 0.3040 0.8291 0.4837
C11 C 0.3653(2) 0.9288(8) 0.3971(2)
H9 H 0.3444 0.9654 0.3436
H10 H 0.3903 1.0750 0.4224
C12 C 0.4383(3) 0.7498(10) 0.4049(4)
H11 H 0.4157 0.6061 0.3768
H12 H 0.4588 0.7068 0.4580
C13 C 0.5194(6) 0.8557(18) 0.3735(6)
H13 H 0.4980 0.9070 0.3212
H14 H 0.5440 0.9944 0.4034
C14 C 0.5924(7) 0.670(2) 0.3771(7)
H15 H 0.5670 0.5219 0.3531
H16 H 0.6214 0.6359 0.4295
C15 C 0.6616(7) 0.779(2) 0.3337(7)
H17 H 0.6336 0.7942 0.2808
H18 H 0.7139 0.6763 0.3392
H19 H 0.6801 0.9344 0.3542
H20 H 0.1374(16) 1.312(4) 0.5620(13)
S1B S 0.17053(6) 1.73772(16) 0.71294(4)
N1B N -0.04912(15) 1.8927(4) 0.57495(12)
C1B C 0.1253(2) 1.9924(6) 0.74407(18)
H1B H 0.1532 2.0740 0.7879
C2B C 0.0466(2) 2.0637(5) 0.70016(16)
H2B H 0.0135 2.1977 0.7092
C3B C 0.02092(19) 1.9051(5) 0.63784(14)
C4B C 0.08027(19) 1.7200(5) 0.63652(14)
C5B C 0.04909(17) 1.5803(5) 0.56945(13)
C6B C -0.03318(18) 1.6945(4) 0.53203(14)
C7B C -0.08228(19) 1.6161(5) 0.46267(14)
C8B C -0.12645(19) 2.0542(5) 0.55637(16)
H3B H -0.1087 2.2102 0.5784
H4B H -0.1427 2.0737 0.5016
C9B C -0.20837(18) 1.9687(5) 0.58420(16)
H5B H -0.1910 1.9359 0.6383
H6B H -0.2297 1.8199 0.5586
C10B C -0.2842(2) 2.1462(7) 0.57066(19)
H7B H -0.2615 2.2981 0.5932
H8B H -0.3040 2.1709 0.5163
C11B C -0.3653(2) 2.0712(8) 0.6029(2)
H9B H -0.3444 2.0346 0.6564
H10B H -0.3903 1.9250 0.5776
C12B C -0.4383(3) 2.2502(10) 0.5951(4)
H11B H -0.4157 2.3939 0.6232
H12B H -0.4588 2.2932 0.5420
C13B C -0.5194(6) 2.1443(18) 0.6265(6)
H13B H -0.4980 2.0930 0.6788
H14B H -0.5440 2.0056 0.5966
C14B C -0.5924(7) 2.330(2) 0.6229(7)
H15B H -0.5670 2.4781 0.6469
H16B H -0.6214 2.3641 0.5705
C15B C -0.6616(7) 2.221(2) 0.6663(7)
H17B H -0.6336 2.2058 0.7192
H18B H -0.7139 2.3237 0.6608
H19B H -0.6801 2.0656 0.6458
H20B H -0.1374(16) 1.688(4) 0.4380(13)
H21? H 0.4101 0.5954 0.3952
H22? H 0.4730 0.7505 0.4562
C16? C 0.5043(18) 0.754(5) 0.3482(15)
H23? H 0.4715 0.7822 0.2965
H24? H 0.5508 0.8767 0.3621
C17? C 0.546(4) 0.500(8) 0.358(8)
H25? H 0.5228 0.3935 0.3153
H26? H 0.5442 0.4250 0.4058
C18? C 0.640(3) 0.616(9) 0.354(3)
H27? H 0.6450 0.6327 0.3024
H28? H 0.6880 0.5164 0.3811
H29? H 0.6436 0.7717 0.3779
loop_
_geom_bond_atom_site_label_1
_geom_bond_atom_site_label_2
_geom_bond_site_symmetry_1
_geom_bond_site_symmetry_2
S1 C1 1_555 1_555
N1 C3 1_555 1_555
C1 H1 1_555 1_555
C2 C1 1_555 1_555
H2 C2 1_555 1_555
C3 C2 1_555 1_555
C4 S1 1_555 1_555
C5 C4 1_555 1_555
C6 N1 1_555 1_555
C7 C6 1_555 1_555
C8 N1 1_555 1_555
H3 C8 1_555 1_555
H4 C8 1_555 1_555
C9 C8 1_555 1_555
H5 C9 1_555 1_555
H6 C9 1_555 1_555
C10 C9 1_555 1_555
H7 C10 1_555 1_555
H8 C10 1_555 1_555
C11 C10 1_555 1_555
H9 C11 1_555 1_555
H10 C11 1_555 1_555
C12 C11 1_555 1_555
H11 C12 1_555 1_555
H12 C12 1_555 1_555
C13 C12 1_555 1_555
H13 C13 1_555 1_555
H14 C13 1_555 1_555
C14 C13 1_555 1_555
H15 C14 1_555 1_555
H16 C14 1_555 1_555
C15 C14 1_555 1_555
H17 C15 1_555 1_555
H18 C15 1_555 1_555
H19 C15 1_555 1_555
H20 C7 1_555 1_555
S1B C1B 1_555 1_555
N1B C3B 1_555 1_555
C1B H1B 1_555 1_555
C2B C1B 1_555 1_555
H2B C2B 1_555 1_555
C3B C2B 1_555 1_555
C4B S1B 1_555 1_555
C5B C7 1_555 1_555
C6B N1B 1_555 1_555
C7B C5 1_555 1_555
C8B N1B 1_555 1_555
H3B C8B 1_555 1_555
H4B C8B 1_555 1_555
C9B C8B 1_555 1_555
H5B C9B 1_555 1_555
H6B C9B 1_555 1_555
C10B C9B 1_555 1_555
H7B C10B 1_555 1_555
H8B C10B 1_555 1_555
C11B C10B 1_555 1_555
H9B C11B 1_555 1_555
H10B C11B 1_555 1_555
C12B C11B 1_555 1_555
H11B C12B 1_555 1_555
H12B C12B 1_555 1_555
C13B C12B 1_555 1_555
H13B C13B 1_555 1_555
H14B C13B 1_555 1_555
C14B C13B 1_555 1_555
H15B C14B 1_555 1_555
H16B C14B 1_555 1_555
C15B C14B 1_555 1_555
H17B C15B 1_555 1_555
H18B C15B 1_555 1_555
H19B C15B 1_555 1_555
H20B C7B 1_555 1_555
C3 C4 1_555 1_555
C5 C6 1_555 1_555
C3B C4B 1_555 1_555
C4B C5B 1_555 1_555
C5B C6B 1_555 1_555
C6B C7B 1_555 1_555

#END
