
#######################################################################
#
#                 Cambridge Crystallographic Data Centre
#                                CCDC 
#
#######################################################################
#
# If this CIF has been generated from an entry in the Cambridge 
# Structural Database, then it will include bibliographic, chemical, 
# crystal, experimental, refinement or atomic coordinate data resulting 
# from the CCDC's data processing and validation procedures.
#
#######################################################################

data_MIBKOY
_chemical_name_common            
3-((2-Ammonio-3-phenylpropanoyl)amino)propanoate
_chemical_formula_moiety         'C12 H16 N2 O3'
_chemical_name_systematic        L-Phenylalanyl-\b-alanine
_symmetry_cell_setting           monoclinic
_symmetry_space_group_name_H-M   'P 21'
_symmetry_Int_Tables_number      4
_space_group_name_Hall           'P 2yb'
loop_
_symmetry_equiv_pos_site_id
_symmetry_equiv_pos_as_xyz
1 x,y,z
2 -x,1/2+y,-z
_cell_length_a                   8.1292(11)
_cell_length_b                   5.7648(8)
_cell_length_c                   12.434(2)
_cell_angle_alpha                90
_cell_angle_beta                 97.293(13)
_cell_angle_gamma                90
_cell_volume                     577.983
_exptl_crystal_colour            white
_exptl_crystal_description       needle
_cell_formula_units_Z            2
loop_
_atom_site_label
_atom_site_type_symbol
_atom_site_fract_x
_atom_site_fract_y
_atom_site_fract_z
C1 C 0.6172(5) 0.4225(7) 0.6409(3)
C2 C 0.6446(6) 0.5686(8) 0.5559(4)
H1 H 0.5926 0.7125 0.5494
C3 C 0.7483(5) 0.5031(9) 0.4802(4)
H2 H 0.7663 0.6035 0.4243
C4 C 0.8245(6) 0.2882(8) 0.4886(3)
H3 H 0.8932 0.2433 0.4380
C5 C 0.7986(5) 0.1405(8) 0.5722(4)
H4 H 0.8515 -0.0028 0.5785
C6 C 0.6936(5) 0.2051(7) 0.6472(3)
H5 H 0.6742 0.1026 0.7020
C7 C 0.5025(5) 0.4928(8) 0.7213(3)
H6 H 0.4046 0.3951 0.7108
H7 H 0.4669 0.6515 0.7063
C8 C 0.5792(5) 0.4760(7) 0.8400(3)
H8 H 0.6226 0.3192 0.8552
N1 N 0.4473(4) 0.5261(6) 0.9091(3)
H9 H 0.4121 0.6713 0.8979
H10 H 0.4878 0.5081 0.9786
H11 H 0.3629 0.4288 0.8923
C9 C 0.7170(5) 0.6532(8) 0.8688(3)
O1 O 0.6830(4) 0.8545(5) 0.8892(3)
N2 N 0.8744(4) 0.5802(6) 0.8692(3)
H12 H 0.8933 0.4401 0.8504
C10 C 1.0140(5) 0.7368(8) 0.9013(3)
H13 H 1.1075 0.6464 0.9345
H14 H 0.9833 0.8441 0.9554
C11 C 1.0673(6) 0.8746(7) 0.8075(4)
H15 H 1.1137 0.7705 0.7580
H16 H 0.9717 0.9509 0.7682
C12 C 1.1954(5) 1.0539(8) 0.8495(3)
O2 O 1.1602(4) 1.2660(5) 0.8397(2)
O3 O 1.3353(3) 0.9797(5) 0.8949(2)
loop_
_geom_bond_atom_site_label_1
_geom_bond_atom_site_label_2
_geom_bond_site_symmetry_1
_geom_bond_site_symmetry_2
C1 C2 1_555 1_555
C2 H1 1_555 1_555
C3 C2 1_555 1_555
H2 C3 1_555 1_555
C4 C3 1_555 1_555
H3 C4 1_555 1_555
C5 C4 1_555 1_555
H4 C5 1_555 1_555
C6 C1 1_555 1_555
H5 C6 1_555 1_555
C7 C1 1_555 1_555
H6 C7 1_555 1_555
H7 C7 1_555 1_555
C8 C7 1_555 1_555
H8 C8 1_555 1_555
N1 C8 1_555 1_555
H9 N1 1_555 1_555
H10 N1 1_555 1_555
H11 N1 1_555 1_555
C9 C8 1_555 1_555
O1 C9 1_555 1_555
N2 C9 1_555 1_555
H12 N2 1_555 1_555
C10 N2 1_555 1_555
H13 C10 1_555 1_555
H14 C10 1_555 1_555
C11 C10 1_555 1_555
H15 C11 1_555 1_555
H16 C11 1_555 1_555
C12 C11 1_555 1_555
O2 C12 1_555 1_555
O3 C12 1_555 1_555
C5 C6 1_555 1_555

#END
