
#######################################################################
#
#                 Cambridge Crystallographic Data Centre
#                                CCDC 
#
#######################################################################
#
# If this CIF has been generated from an entry in the Cambridge 
# Structural Database, then it will include bibliographic, chemical, 
# crystal, experimental, refinement or atomic coordinate data resulting 
# from the CCDC's data processing and validation procedures.
#
#######################################################################

data_MICDEI
_chemical_formula_moiety         'C24 H24 O4 Si1'
_chemical_name_systematic        
'Dimethyl 4-(benzylidene)-1,1-dimethyl-6-phenyl-1-silacyclohexa-2,5-diene-2,3-dicarboxylate'
_symmetry_cell_setting           monoclinic
_symmetry_space_group_name_H-M   'P 21/c'
_symmetry_Int_Tables_number      14
_space_group_name_Hall           '-P 2ybc'
loop_
_symmetry_equiv_pos_site_id
_symmetry_equiv_pos_as_xyz
1 x,y,z
2 -x,1/2+y,1/2-z
3 -x,-y,-z
4 x,1/2-y,1/2+z
_cell_length_a                   9.2495(18)
_cell_length_b                   8.9167(18)
_cell_length_c                   26.294(5)
_cell_angle_alpha                90
_cell_angle_beta                 90.39(3)
_cell_angle_gamma                90
_cell_volume                     2168.55
_exptl_crystal_colour            colorless
_exptl_crystal_description       block
_cell_formula_units_Z            4
loop_
_atom_site_label
_atom_site_type_symbol
_atom_site_fract_x
_atom_site_fract_y
_atom_site_fract_z
Si1 Si 0.30154(7) 0.30200(7) 0.03854(2)
O1 O 0.26828(19) 0.61121(18) 0.10438(7)
O2 O 0.05156(17) 0.52076(16) 0.12733(6)
O3 O 0.05380(18) 0.22359(18) 0.20935(6)
O4 O 0.22617(18) 0.40022(16) 0.21054(6)
C1 C 0.2312(2) 0.3485(2) 0.10327(8)
C2 C 0.2195(2) 0.2427(2) 0.13975(8)
C3 C 0.2516(2) 0.0821(2) 0.13040(8)
C4 C 0.2458(2) 0.0234(2) 0.07823(8)
H1 H 0.2284 -0.0789 0.0751
C5 C 0.2623(2) 0.0987(2) 0.03462(8)
C6 C 0.2509(2) 0.0235(2) -0.01599(9)
C7 C 0.1525(3) -0.0920(3) -0.02494(10)
H2 H 0.0966 -0.1281 0.0016
C8 C 0.1371(3) -0.1533(3) -0.07298(11)
H3 H 0.0720 -0.2313 -0.0783
C9 C 0.2168(4) -0.1005(3) -0.11279(10)
H4 H 0.2037 -0.1404 -0.1452
C10 C 0.3165(4) 0.0117(3) -0.10482(10)
H5 H 0.3722 0.0469 -0.1316
C11 C 0.3334(3) 0.0720(3) -0.05664(9)
H6 H 0.4019 0.1468 -0.0514
C12 C 0.2843(2) -0.0135(2) 0.16817(9)
H7 H 0.2827 -0.1143 0.1591
C13 C 0.3222(2) 0.0160(2) 0.22146(8)
C14 C 0.2659(3) -0.0700(3) 0.26075(10)
H8 H 0.1995 -0.1452 0.2533
C15 C 0.3070(3) -0.0459(3) 0.31074(11)
H9 H 0.2672 -0.1040 0.3365
C16 C 0.4063(3) 0.0635(4) 0.32259(11)
H10 H 0.4340 0.0796 0.3562
C17 C 0.4635(3) 0.1479(3) 0.28474(11)
H11 H 0.5314 0.2214 0.2926
C18 C 0.4221(3) 0.1258(3) 0.23461(9)
H12 H 0.4619 0.1856 0.2093
C19 C 0.5001(2) 0.3387(3) 0.03843(10)
H13 H 0.5171 0.4447 0.0406
H14 H 0.5411 0.3006 0.0076
H15 H 0.5443 0.2897 0.0671
C20 C 0.1974(3) 0.4114(3) -0.00948(9)
H16 H 0.2208 0.5159 -0.0062
H17 H 0.0958 0.3973 -0.0040
H18 H 0.2220 0.3775 -0.0430
C21 C 0.1898(3) 0.5066(2) 0.11250(8)
C22 C 0.0021(3) 0.6712(3) 0.13782(12)
H19 H -0.0972 0.6683 0.1481
H20 H 0.0109 0.7315 0.1077
H21 H 0.0599 0.7139 0.1646
C23 C 0.1557(3) 0.2841(2) 0.19032(8)
C24 C 0.1722(4) 0.4537(3) 0.25869(10)
H22 H 0.2293 0.5375 0.2699
H23 H 0.1781 0.3748 0.2834
H24 H 0.0733 0.4845 0.2547
loop_
_geom_bond_atom_site_label_1
_geom_bond_atom_site_label_2
_geom_bond_site_symmetry_1
_geom_bond_site_symmetry_2
Si1 C1 1_555 1_555
O1 C21 1_555 1_555
O2 C21 1_555 1_555
O3 C23 1_555 1_555
O4 C23 1_555 1_555
C1 C2 1_555 1_555
C2 C3 1_555 1_555
C3 C4 1_555 1_555
C4 H1 1_555 1_555
C5 Si1 1_555 1_555
C6 C5 1_555 1_555
C7 C6 1_555 1_555
H2 C7 1_555 1_555
C8 C7 1_555 1_555
H3 C8 1_555 1_555
C9 C8 1_555 1_555
H4 C9 1_555 1_555
C10 C9 1_555 1_555
H5 C10 1_555 1_555
C11 C6 1_555 1_555
H6 C11 1_555 1_555
C12 C3 1_555 1_555
H7 C12 1_555 1_555
C13 C12 1_555 1_555
C14 C13 1_555 1_555
H8 C14 1_555 1_555
C15 C14 1_555 1_555
H9 C15 1_555 1_555
C16 C15 1_555 1_555
H10 C16 1_555 1_555
C17 C16 1_555 1_555
H11 C17 1_555 1_555
C18 C13 1_555 1_555
H12 C18 1_555 1_555
C19 Si1 1_555 1_555
H13 C19 1_555 1_555
H14 C19 1_555 1_555
H15 C19 1_555 1_555
C20 Si1 1_555 1_555
H16 C20 1_555 1_555
H17 C20 1_555 1_555
H18 C20 1_555 1_555
C21 C1 1_555 1_555
C22 O2 1_555 1_555
H19 C22 1_555 1_555
H20 C22 1_555 1_555
H21 C22 1_555 1_555
C23 C2 1_555 1_555
C24 O4 1_555 1_555
H22 C24 1_555 1_555
H23 C24 1_555 1_555
H24 C24 1_555 1_555
C4 C5 1_555 1_555
C10 C11 1_555 1_555
C17 C18 1_555 1_555

#END
