
#######################################################################
#
#                 Cambridge Crystallographic Data Centre
#                                CCDC 
#
#######################################################################
#
# If this CIF has been generated from an entry in the Cambridge 
# Structural Database, then it will include bibliographic, chemical, 
# crystal, experimental, refinement or atomic coordinate data resulting 
# from the CCDC's data processing and validation procedures.
#
#######################################################################

data_MICFOW
_chemical_formula_moiety         'C9 H8 O8 2-,2(C4 H8 N5 1+)'
_chemical_name_systematic        
'bis(2,4-diamino-6-methyl-1,3,5-triazin-1-ium ) 3,4-dicarboxycyclopentane-1,2-dicarboxylate'
_symmetry_cell_setting           monoclinic
_symmetry_space_group_name_H-M   'P 21/c'
_symmetry_Int_Tables_number      14
_space_group_name_Hall           '-P 2ybc'
loop_
_symmetry_equiv_pos_site_id
_symmetry_equiv_pos_as_xyz
1 x,y,z
2 -x,1/2+y,1/2-z
3 -x,-y,-z
4 x,1/2-y,1/2+z
_cell_length_a                   6.8747(4)
_cell_length_b                   13.5800(6)
_cell_length_c                   23.2543(13)
_cell_angle_alpha                90
_cell_angle_beta                 106.186(5)
_cell_angle_gamma                90
_cell_volume                     2084.93
_exptl_crystal_colour            colorless
_exptl_crystal_description       block
_cell_formula_units_Z            4
loop_
_atom_site_label
_atom_site_type_symbol
_atom_site_fract_x
_atom_site_fract_y
_atom_site_fract_z
O1 O 0.6675(4) -0.20171(15) -0.15934(10)
H1 H 0.6832 -0.1512 -0.1769
O2 O 1.0895(3) 0.01492(16) -0.19042(10)
O3 O 0.7249(3) -0.15486(17) 0.03068(10)
H2 H 0.6556 -0.1922 0.0445
O4 O 0.8150(4) -0.27669(16) -0.07563(10)
O5 O 0.6143(3) 0.10759(15) -0.23593(10)
O6 O 0.6363(4) -0.05450(15) -0.22589(10)
O7 O 1.0905(4) -0.14430(17) -0.16548(10)
O8 O 0.4305(4) -0.12769(19) -0.03731(11)
C1 C 0.9440(5) -0.0255(2) -0.11314(13)
H3 H 1.0435 0.0155 -0.0848
C2 C 0.7893(5) -0.2007(2) -0.10517(15)
C3 C 0.6041(5) 0.0094(2) -0.10257(14)
H4 H 0.5440 0.0664 -0.0890
H5 H 0.4969 -0.0308 -0.1276
C4 C 0.7297(5) -0.0496(2) -0.04948(14)
H6 H 0.8061 -0.0026 -0.0197
C5 C 1.0489(5) -0.0590(2) -0.15930(14)
C6 C 0.6106(5) -0.1139(2) -0.01913(15)
C7 C 0.8846(5) -0.1064(2) -0.07484(14)
H7 H 1.0032 -0.1233 -0.0417
C8 C 0.7558(5) 0.0416(2) -0.13751(14)
H8 H 0.7952 0.1103 -0.1275
C9 C 0.6624(5) 0.0333(2) -0.20455(14)
N1 N 0.5529(4) -0.09151(18) -0.34407(11)
H9 H 0.5944 -0.0789 -0.3064
N2 N 0.3310(4) -0.1567(2) -0.51458(12)
H10 H 0.2620 -0.1142 -0.5395
H11 H 0.3478 -0.2152 -0.5265
N3 N 0.4338(4) 0.06633(18) -0.36133(12)
H12 H 0.3712 0.1124 -0.3846
H13 H 0.4826 0.0774 -0.3236
N4 N 0.3815(4) -0.04021(18) -0.44115(12)
N5 N 0.5204(4) -0.20387(18) -0.42120(12)
C10 C 0.5845(5) -0.1810(2) -0.36454(15)
C11 C 0.6930(5) -0.2546(2) -0.32000(15)
H14 H 0.7868 -0.2215 -0.2873
H15 H 0.7656 -0.2992 -0.3386
H16 H 0.5971 -0.2909 -0.3052
C12 C 0.4110(5) -0.1321(2) -0.45814(15)
C13 C 0.4548(5) -0.0206(2) -0.38327(14)
N6 N 1.0653(4) -0.15520(18) -0.37505(12)
N7 N 1.0821(4) -0.03807(18) -0.29850(11)
H17 H 1.1178 -0.0233 -0.2611
N8 N 0.9214(4) 0.00701(18) -0.39784(11)
N9 N 1.2162(4) -0.19202(19) -0.27656(12)
H18 H 1.2428 -0.2501 -0.2870
H19 H 1.2521 -0.1755 -0.2394
N10 N 0.8942(4) -0.1087(2) -0.47072(12)
H20 H 0.9157 -0.1664 -0.4829
H21 H 0.8283 -0.0658 -0.4958
C14 C 0.9872(5) 0.0268(2) -0.34012(14)
C15 C 0.9576(5) 0.1276(2) -0.31949(15)
H22 H 0.9060 0.1237 -0.2852
H23 H 0.8628 0.1625 -0.3511
H24 H 1.0848 0.1618 -0.3089
C16 C 1.1192(5) -0.1277(2) -0.31789(14)
C17 C 0.9628(5) -0.0860(2) -0.41308(14)
loop_
_geom_bond_atom_site_label_1
_geom_bond_atom_site_label_2
_geom_bond_site_symmetry_1
_geom_bond_site_symmetry_2
O1 H1 1_555 1_555
O2 C5 1_555 1_555
O3 H2 1_555 1_555
O4 C2 1_555 1_555
O5 C9 1_555 1_555
O6 C9 1_555 1_555
O7 C5 1_555 1_555
O8 C6 1_555 1_555
C1 H3 1_555 1_555
C2 O1 1_555 1_555
C3 H4 1_555 1_555
H5 C3 1_555 1_555
C4 C3 1_555 1_555
H6 C4 1_555 1_555
C5 C1 1_555 1_555
C6 O3 1_555 1_555
C7 C1 1_555 1_555
H7 C7 1_555 1_555
C8 C1 1_555 1_555
H8 C8 1_555 1_555
C9 C8 1_555 1_555
N1 H9 1_555 1_555
N2 H10 1_555 1_555
H11 N2 1_555 1_555
N3 H12 1_555 1_555
H13 N3 1_555 1_555
N4 C12 1_555 1_555
N5 C10 1_555 1_555
C10 N1 1_555 1_555
C11 C10 1_555 1_555
H14 C11 1_555 1_555
H15 C11 1_555 1_555
H16 C11 1_555 1_555
C12 N2 1_555 1_555
C13 N1 1_555 1_555
N6 C16 1_555 1_555
N7 H17 1_555 1_555
N8 C14 1_555 1_555
N9 H18 1_555 1_555
H19 N9 1_555 1_555
N10 H20 1_555 1_555
H21 N10 1_555 1_555
C14 N7 1_555 1_555
C15 C14 1_555 1_555
H22 C15 1_555 1_555
H23 C15 1_555 1_555
H24 C15 1_555 1_555
C16 N7 1_555 1_555
C17 N6 1_555 1_555
C2 C7 1_555 1_555
C3 C8 1_555 1_555
C4 C6 1_555 1_555
C4 C7 1_555 1_555
N3 C13 1_555 1_555
N4 C13 1_555 1_555
N5 C12 1_555 1_555
N8 C17 1_555 1_555
N9 C16 1_555 1_555
N10 C17 1_555 1_555

#END
