
#######################################################################
#
#                 Cambridge Crystallographic Data Centre
#                                CCDC 
#
#######################################################################
#
# If this CIF has been generated from an entry in the Cambridge 
# Structural Database, then it will include bibliographic, chemical, 
# crystal, experimental, refinement or atomic coordinate data resulting 
# from the CCDC's data processing and validation procedures.
#
#######################################################################

data_MICFEJ
_chemical_name_common            '(S)-(+)-Naproxen N-octyl-D-(-)-glucamine'
_chemical_formula_moiety         'C14 H14 O3,C14 H31 N1 O5'
_chemical_name_systematic        
'(S)-(+)-6-Methoxy-\a-methyl-2-naphthaleneacetic acid N-octyl-D-(-)-glucamine'
_chemical_properties_biological  
'non-steroidal antiinflammatory and analgesic drug'
_symmetry_cell_setting           triclinic
_symmetry_space_group_name_H-M   'P 1'
_symmetry_Int_Tables_number      1
_space_group_name_Hall           'P 1'
loop_
_symmetry_equiv_pos_site_id
_symmetry_equiv_pos_as_xyz
1 x,y,z
_cell_length_a                   6.1246(3)
_cell_length_b                   8.7821(4)
_cell_length_c                   27.1377(11)
_cell_angle_alpha                92.707(1)
_cell_angle_beta                 95.925(1)
_cell_angle_gamma                90.101(1)
_cell_volume                     1450.2
_exptl_crystal_colour            colorless
_exptl_crystal_description       plate
_chemical_melting_point          '154-155 deg.C'
_cell_formula_units_Z            2
loop_
_atom_site_label
_atom_site_type_symbol
_atom_site_fract_x
_atom_site_fract_y
_atom_site_fract_z
O1 O 0.3210(6) 0.1445(3) 1.01232(14)
H1 H 0.3865 0.0717 1.0246
O2 O 0.0435(5) -0.0188(4) 1.00907(14)
O3 O -0.4435(12) -0.0936(9) 0.7071(2)
C1 C 0.1255(8) 0.1107(6) 1.00193(18)
C2 C -0.0336(8) 0.2289(5) 0.97900(19)
H2 H -0.1510 0.2410 1.0008
C3 C 0.0707(9) 0.3852(6) 0.9769(2)
H3 H 0.1389 0.4170 1.0092
H4 H -0.0402 0.4572 0.9663
H5 H 0.1794 0.3803 0.9538
C4 C -0.1425(8) 0.1735(5) 0.92816(19)
C5 C -0.0424(9) 0.0815(6) 0.8950(2)
H6 H 0.0976 0.0455 0.9046
C6 C -0.1416(9) 0.0390(6) 0.8473(2)
C7 C -0.0434(11) -0.0602(7) 0.8126(3)
H7 H 0.0963 -0.0980 0.8213
C8 C -0.1479(17) -0.1004(9) 0.7675(3)
H8 H -0.0785 -0.1639 0.7456
C9 C -0.3613(15) -0.0469(10) 0.7533(3)
C10 C -0.4599(12) 0.0469(9) 0.7845(3)
H9 H -0.5984 0.0849 0.7746
C11 C -0.3539(10) 0.0891(7) 0.8327(2)
C12 C -0.4583(10) 0.1853(7) 0.8671(3)
H10 H -0.5992 0.2211 0.8583
C13 C -0.3531(9) 0.2250(6) 0.9125(2)
H11 H -0.4240 0.2888 0.9340
C14 C -0.645(2) -0.0358(18) 0.6883(4)
H12 H -0.6843 -0.0789 0.6554
H13 H -0.6346 0.0731 0.6872
H14 H -0.7555 -0.0617 0.7092
O4 O 0.2850(6) 0.8261(4) 1.07596(13)
H15 H 0.2202 0.8655 1.0519
O5 O 0.2507(5) 0.5210(4) 1.10087(12)
H16 H 0.1973 0.5533 1.1258
O6 O 0.5851(5) 0.4058(3) 1.03881(11)
H17 H 0.5051 0.3307 1.0386
O7 O 0.6989(6) 0.4285(4) 1.17278(13)
H18 H 0.6356 0.3906 1.1945
O8 O 0.7893(7) 0.1132(5) 1.15162(16)
H19 H 0.9000 0.0606 1.1524
N1 N 0.6147(6) 0.8990(4) 1.01054(16)
H20 H 0.6478 0.9936 1.0167
C15 C 0.6418(8) 0.7856(6) 1.0503(2)
H21 H 0.7056 0.8367 1.0809
H22 H 0.7434 0.7074 1.0409
C16 C 0.4269(8) 0.7103(5) 1.05947(18)
H23 H 0.3592 0.6617 1.0283
C17 C 0.4564(8) 0.5927(5) 1.09845(18)
H24 H 0.5026 0.6445 1.1306
C18 C 0.6245(8) 0.4704(5) 1.08790(17)
H25 H 0.7682 0.5210 1.0905
C19 C 0.6378(8) 0.3499(5) 1.12690(16)
H26 H 0.4928 0.3031 1.1275
C20 C 0.8025(9) 0.2275(6) 1.1172(2)
H27 H 0.7716 0.1840 1.0837
H28 H 0.9493 0.2709 1.1207
C21 C 0.5281(9) 0.8404(5) 0.9602(2)
H29 H 0.5258 0.9235 0.9378
H30 H 0.3777 0.8066 0.9611
C22 C 0.6565(10) 0.7112(6) 0.9395(2)
H31 H 0.6350 0.6216 0.9580
H32 H 0.8113 0.7375 0.9446
C23 C 0.5948(12) 0.6712(8) 0.8844(2)
H33 H 0.6140 0.7617 0.8662
H34 H 0.6972 0.5955 0.8737
C24 C 0.3643(11) 0.6109(7) 0.8702(2)
H35 H 0.2611 0.6897 0.8781
H36 H 0.3403 0.5251 0.8902
C25 C 0.3149(14) 0.5603(8) 0.8159(2)
H37 H 0.3285 0.6483 0.7961
H38 H 0.4260 0.4878 0.8075
C26 C 0.0950(15) 0.4894(9) 0.8014(3)
H39 H -0.0179 0.5622 0.8085
H40 H 0.0785 0.4018 0.8212
C27 C 0.063(2) 0.4391(13) 0.7466(3)
H41 H 0.0581 0.5298 0.7275
H42 H 0.1918 0.3821 0.7389
C28 C -0.127(3) 0.3480(18) 0.7298(5)
H43 H -0.1254 0.3200 0.6952
H44 H -0.2572 0.4054 0.7346
H45 H -0.1262 0.2576 0.7484
O9 O 0.5060(6) 0.6931(3) 0.32016(14)
H46 H 0.4401 0.6175 0.3074
O10 O 0.7856(5) 0.5317(4) 0.32224(13)
O11 O 1.2210(11) 0.5170(7) 0.6266(2)
C29 C 0.7051(9) 0.6615(6) 0.33032(18)
C30 C 0.8601(8) 0.7855(5) 0.35449(19)
H47 H 0.9816 0.7917 0.3338
C31 C 0.7568(9) 0.9437(6) 0.3564(2)
H48 H 0.8630 1.0161 0.3719
H49 H 0.6324 0.9416 0.3752
H50 H 0.7102 0.9726 0.3233
C32 C 0.9602(8) 0.7440(5) 0.4058(2)
C33 C 0.8531(9) 0.6623(6) 0.4379(2)
H51 H 0.7117 0.6272 0.4275
C34 C 0.9461(10) 0.6283(6) 0.4865(2)
C35 C 0.8364(12) 0.5434(8) 0.5199(3)
H52 H 0.6938 0.5091 0.5103
C36 C 0.9338(16) 0.5110(10) 0.5652(3)
H53 H 0.8568 0.4560 0.5863
C37 C 1.1431(15) 0.5579(9) 0.5803(3)
C38 C 1.2546(12) 0.6426(8) 0.5503(3)
H54 H 1.3958 0.6767 0.5614
C39 C 1.1597(10) 0.6797(6) 0.5026(2)
C40 C 1.2715(10) 0.7611(7) 0.4700(2)
H55 H 1.4139 0.7948 0.4800
C41 C 1.1770(9) 0.7929(6) 0.4233(2)
H56 H 1.2570 0.8478 0.4027
C42 C 1.4427(18) 0.5439(16) 0.6437(3)
H57 H 1.4731 0.5063 0.6763
H58 H 1.4727 0.6514 0.6448
H59 H 1.5340 0.4923 0.6216
O12 O 0.5459(6) 0.3530(4) 0.25596(13)
H60 H 0.6093 0.4003 0.2800
O13 O 0.5805(5) 0.0417(4) 0.23211(12)
H61 H 0.6359 0.0659 0.2073
O14 O 0.2442(5) -0.0548(3) 0.29349(11)
H62 H 0.3235 -0.1299 0.2941
O15 O 0.1307(6) -0.0735(4) 0.15947(12)
H63 H 0.1943 -0.1188 0.1381
O16 O 0.0432(6) -0.3822(4) 0.18165(15)
H64 H -0.0677 -0.4353 0.1806
N2 N 0.2128(7) 0.4480(4) 0.32055(16)
H65 H 0.1806 0.5409 0.3143
C43 C 0.1875(8) 0.3215(5) 0.28064(19)
H66 H 0.0842 0.2465 0.2897
H67 H 0.1264 0.3633 0.2498
C44 C 0.3992(7) 0.2436(5) 0.27241(18)
H68 H 0.4642 0.2043 0.3038
C45 C 0.3718(7) 0.1143(5) 0.23342(18)
H69 H 0.3272 0.1558 0.2010
C46 C 0.2063(8) -0.0064(5) 0.24387(18)
H70 H 0.0624 0.0429 0.2411
C47 C 0.1916(8) -0.1362(5) 0.20581(17)
H71 H 0.3363 -0.1833 0.2053
C48 C 0.0264(9) -0.2563(6) 0.2150(2)
H72 H 0.0538 -0.2881 0.2489
H73 H -0.1206 -0.2147 0.2106
C49 C 0.2967(9) 0.4030(6) 0.3714(2)
H74 H 0.3001 0.4922 0.3939
H75 H 0.4460 0.3668 0.3709
C50 C 0.1610(10) 0.2815(7) 0.3906(2)
H76 H 0.1805 0.1865 0.3718
H77 H 0.0074 0.3090 0.3851
C51 C 0.2198(12) 0.2565(8) 0.4459(3)
H78 H 0.2049 0.3531 0.4641
H79 H 0.1124 0.1868 0.4563
C52 C 0.4456(12) 0.1950(8) 0.4612(2)
H80 H 0.4678 0.1041 0.4406
H81 H 0.5539 0.2700 0.4546
C53 C 0.4863(18) 0.1559(9) 0.5148(3)
H82 H 0.4650 0.2474 0.5351
H83 H 0.3755 0.0825 0.5213
C54 C 0.7064(17) 0.0925(11) 0.5314(3)
H84 H 0.8202 0.1673 0.5283
H85 H 0.7345 0.0023 0.5110
C55 C 0.707(3) 0.0519(18) 0.5856(4)
H86 H 0.6714 0.1414 0.6054
H87 H 0.5964 -0.0256 0.5883
C56 C 0.920(3) -0.004(2) 0.6041(6)
H88 H 0.9169 -0.0333 0.6376
H89 H 1.0283 0.0748 0.6031
H90 H 0.9572 -0.0907 0.5838
loop_
_geom_bond_atom_site_label_1
_geom_bond_atom_site_label_2
_geom_bond_site_symmetry_1
_geom_bond_site_symmetry_2
O1 H1 1_555 1_555
O2 C1 1_555 1_555
O3 C9 1_555 1_555
C1 O1 1_555 1_555
C2 C1 1_555 1_555
H2 C2 1_555 1_555
C3 C2 1_555 1_555
H3 C3 1_555 1_555
H4 C3 1_555 1_555
H5 C3 1_555 1_555
C4 C2 1_555 1_555
C5 C4 1_555 1_555
H6 C5 1_555 1_555
C6 C5 1_555 1_555
C7 C6 1_555 1_555
H7 C7 1_555 1_555
C8 C7 1_555 1_555
H8 C8 1_555 1_555
C9 C8 1_555 1_555
C10 C9 1_555 1_555
H9 C10 1_555 1_555
C11 C6 1_555 1_555
C12 C11 1_555 1_555
H10 C12 1_555 1_555
C13 C4 1_555 1_555
H11 C13 1_555 1_555
C14 O3 1_555 1_555
H12 C14 1_555 1_555
H13 C14 1_555 1_555
H14 C14 1_555 1_555
O4 H15 1_555 1_555
O5 H16 1_555 1_555
O6 H17 1_555 1_555
O7 H18 1_555 1_555
O8 H19 1_555 1_555
N1 H20 1_555 1_555
C15 N1 1_555 1_555
H21 C15 1_555 1_555
H22 C15 1_555 1_555
C16 O4 1_555 1_555
H23 C16 1_555 1_555
C17 O5 1_555 1_555
H24 C17 1_555 1_555
C18 O6 1_555 1_555
H25 C18 1_555 1_555
C19 O7 1_555 1_555
H26 C19 1_555 1_555
C20 O8 1_555 1_555
H27 C20 1_555 1_555
H28 C20 1_555 1_555
C21 N1 1_555 1_555
H29 C21 1_555 1_555
H30 C21 1_555 1_555
C22 C21 1_555 1_555
H31 C22 1_555 1_555
H32 C22 1_555 1_555
C23 C22 1_555 1_555
H33 C23 1_555 1_555
H34 C23 1_555 1_555
C24 C23 1_555 1_555
H35 C24 1_555 1_555
H36 C24 1_555 1_555
C25 C24 1_555 1_555
H37 C25 1_555 1_555
H38 C25 1_555 1_555
C26 C25 1_555 1_555
H39 C26 1_555 1_555
H40 C26 1_555 1_555
C27 C26 1_555 1_555
H41 C27 1_555 1_555
H42 C27 1_555 1_555
C28 C27 1_555 1_555
H43 C28 1_555 1_555
H44 C28 1_555 1_555
H45 C28 1_555 1_555
O9 H46 1_555 1_555
O10 C29 1_555 1_555
O11 C37 1_555 1_555
C29 O9 1_555 1_555
C30 C29 1_555 1_555
H47 C30 1_555 1_555
C31 C30 1_555 1_555
H48 C31 1_555 1_555
H49 C31 1_555 1_555
H50 C31 1_555 1_555
C32 C30 1_555 1_555
C33 C32 1_555 1_555
H51 C33 1_555 1_555
C34 C33 1_555 1_555
C35 C34 1_555 1_555
H52 C35 1_555 1_555
C36 C35 1_555 1_555
H53 C36 1_555 1_555
C37 C36 1_555 1_555
C38 C37 1_555 1_555
H54 C38 1_555 1_555
C39 C34 1_555 1_555
C40 C39 1_555 1_555
H55 C40 1_555 1_555
C41 C32 1_555 1_555
H56 C41 1_555 1_555
C42 O11 1_555 1_555
H57 C42 1_555 1_555
H58 C42 1_555 1_555
H59 C42 1_555 1_555
O12 H60 1_555 1_555
O13 H61 1_555 1_555
O14 H62 1_555 1_555
O15 H63 1_555 1_555
O16 H64 1_555 1_555
N2 H65 1_555 1_555
C43 N2 1_555 1_555
H66 C43 1_555 1_555
H67 C43 1_555 1_555
C44 O12 1_555 1_555
H68 C44 1_555 1_555
C45 O13 1_555 1_555
H69 C45 1_555 1_555
C46 O14 1_555 1_555
H70 C46 1_555 1_555
C47 O15 1_555 1_555
H71 C47 1_555 1_555
C48 O16 1_555 1_555
H72 C48 1_555 1_555
H73 C48 1_555 1_555
C49 N2 1_555 1_555
H74 C49 1_555 1_555
H75 C49 1_555 1_555
C50 C49 1_555 1_555
H76 C50 1_555 1_555
H77 C50 1_555 1_555
C51 C50 1_555 1_555
H78 C51 1_555 1_555
H79 C51 1_555 1_555
C52 C51 1_555 1_555
H80 C52 1_555 1_555
H81 C52 1_555 1_555
C53 C52 1_555 1_555
H82 C53 1_555 1_555
H83 C53 1_555 1_555
C54 C53 1_555 1_555
H84 C54 1_555 1_555
H85 C54 1_555 1_555
C55 C54 1_555 1_555
H86 C55 1_555 1_555
H87 C55 1_555 1_555
C56 C55 1_555 1_555
H88 C56 1_555 1_555
H89 C56 1_555 1_555
H90 C56 1_555 1_555
C10 C11 1_555 1_555
C12 C13 1_555 1_555
C15 C16 1_555 1_555
C16 C17 1_555 1_555
C17 C18 1_555 1_555
C18 C19 1_555 1_555
C19 C20 1_555 1_555
C38 C39 1_555 1_555
C40 C41 1_555 1_555
C43 C44 1_555 1_555
C44 C45 1_555 1_555
C45 C46 1_555 1_555
C46 C47 1_555 1_555
C47 C48 1_555 1_555

#END
