
#######################################################################
#
#                 Cambridge Crystallographic Data Centre
#                                CCDC 
#
#######################################################################
#
# If this CIF has been generated from an entry in the Cambridge 
# Structural Database, then it will include bibliographic, chemical, 
# crystal, experimental, refinement or atomic coordinate data resulting 
# from the CCDC's data processing and validation procedures.
#
#######################################################################

data_MICGOX
_chemical_formula_moiety         'C4 H8 N5 1+,C7 H4 N1 O4 1-'
_chemical_name_systematic        
'2,4-diamino-6-methyl-1,3,5-triazin-1-ium 3-carboxypyridine-2-carboxylate'
_symmetry_cell_setting           monoclinic
_symmetry_space_group_name_H-M   'P 21/n'
_symmetry_Int_Tables_number      14
_space_group_name_Hall           '-P 2yn'
loop_
_symmetry_equiv_pos_site_id
_symmetry_equiv_pos_as_xyz
1 x,y,z
2 1/2-x,1/2+y,1/2-z
3 -x,-y,-z
4 1/2+x,1/2-y,1/2+z
_cell_length_a                   7.4001(9)
_cell_length_b                   15.6229(17)
_cell_length_c                   10.6625(12)
_cell_angle_alpha                90
_cell_angle_beta                 92.840(2)
_cell_angle_gamma                90
_cell_volume                     1231.19
_exptl_crystal_colour            colorless
_exptl_crystal_description       block
_cell_formula_units_Z            4
loop_
_atom_site_label
_atom_site_type_symbol
_atom_site_fract_x
_atom_site_fract_y
_atom_site_fract_z
N1 N 0.18059(19) 0.21755(9) 0.03024(14)
N2 N -0.09715(19) 0.25545(9) -0.06933(14)
H1 H -0.1686 0.2946 -0.0994
N3 N -0.0404(2) 0.11089(9) -0.03709(14)
N4 N 0.1018(2) 0.35933(9) -0.00006(15)
H2 H 0.2021 0.3755 0.0366
H3 H 0.0251 0.3968 -0.0286
C1 C 0.0657(2) 0.27763(11) -0.01251(15)
C2 C -0.1465(2) 0.17250(11) -0.07845(16)
N5 N 0.2312(2) 0.07378(10) 0.05672(15)
H4 H 0.3358 0.0852 0.0915
H5 H 0.1965 0.0215 0.0483
C3 C 0.1236(2) 0.13681(10) 0.01614(16)
C4 C -0.3289(3) 0.15361(13) -0.1364(2)
H6 H -0.4177 0.1592 -0.0743
H7 H -0.3310 0.0963 -0.1688
H8 H -0.3557 0.1932 -0.2037
N6 N 0.44206(19) 0.41294(9) 0.13213(14)
O1 O 0.65008(19) 0.66546(8) 0.25806(15)
H9 H 0.5536 0.6552 0.2198
O2 O 0.36299(18) 0.63532(7) 0.15009(14)
O3 O 0.18614(18) 0.52660(9) 0.10239(16)
O4 O 0.88654(19) 0.59461(10) 0.33110(15)
C5 C 0.7834(2) 0.44325(12) 0.23252(19)
H10 H 0.9005 0.4531 0.2649
C6 C 0.4887(2) 0.49303(10) 0.16715(15)
C7 C 0.6627(2) 0.51145(11) 0.22098(15)
C8 C 0.7410(2) 0.59511(12) 0.27402(17)
C9 C 0.3325(2) 0.55548(11) 0.13793(16)
C10 C 0.7337(3) 0.36185(12) 0.19721(19)
H11 H 0.8148 0.3165 0.2060
C11 C 0.5609(3) 0.34940(11) 0.14856(18)
H12 H 0.5250 0.2942 0.1260
loop_
_geom_bond_atom_site_label_1
_geom_bond_atom_site_label_2
_geom_bond_site_symmetry_1
_geom_bond_site_symmetry_2
N1 C1 1_555 1_555
N2 H1 1_555 1_555
N3 C2 1_555 1_555
N4 H2 1_555 1_555
H3 N4 1_555 1_555
C1 N2 1_555 1_555
C2 N2 1_555 1_555
N5 H4 1_555 1_555
H5 N5 1_555 1_555
C3 N1 1_555 1_555
C4 C2 1_555 1_555
H6 C4 1_555 1_555
H7 C4 1_555 1_555
H8 C4 1_555 1_555
N6 C6 1_555 1_555
O1 H9 1_555 1_555
O2 C9 1_555 1_555
O3 C9 1_555 1_555
O4 C8 1_555 1_555
C5 H10 1_555 1_555
C6 C7 1_555 1_555
C7 C5 1_555 1_555
C8 O1 1_555 1_555
C9 C6 1_555 1_555
C10 C5 1_555 1_555
H11 C10 1_555 1_555
C11 N6 1_555 1_555
H12 C11 1_555 1_555
N3 C3 1_555 1_555
N4 C1 1_555 1_555
N5 C3 1_555 1_555
C7 C8 1_555 1_555
C10 C11 1_555 1_555

#END
