
#######################################################################
#
#                 Cambridge Crystallographic Data Centre
#                                CCDC 
#
#######################################################################
#
# If this CIF has been generated from an entry in the Cambridge 
# Structural Database, then it will include bibliographic, chemical, 
# crystal, experimental, refinement or atomic coordinate data resulting 
# from the CCDC's data processing and validation procedures.
#
#######################################################################

data_MICGAJ
_chemical_formula_moiety         'C10 H12 O5,C4 H7 N5'
_chemical_name_systematic        
'3,4,5-trimethoxybenzoic acid 6-methyl-1,3,5-triazine-2,4-diamine'
_symmetry_cell_setting           monoclinic
_symmetry_space_group_name_H-M   'P 21/c'
_symmetry_Int_Tables_number      14
_space_group_name_Hall           '-P 2ybc'
loop_
_symmetry_equiv_pos_site_id
_symmetry_equiv_pos_as_xyz
1 x,y,z
2 -x,1/2+y,1/2-z
3 -x,-y,-z
4 x,1/2-y,1/2+z
_cell_length_a                   8.9140(10)
_cell_length_b                   27.626(2)
_cell_length_c                   7.0240(9)
_cell_angle_alpha                90
_cell_angle_beta                 102.567(11)
_cell_angle_gamma                90
_cell_volume                     1688.28
_exptl_crystal_colour            colorless
_exptl_crystal_description       block
_cell_formula_units_Z            4
loop_
_atom_site_label
_atom_site_type_symbol
_atom_site_fract_x
_atom_site_fract_y
_atom_site_fract_z
O1 O 0.8695(2) 0.84598(7) 0.3183(3)
H1 H 0.9339 0.8677 0.3365
O2 O 0.8801(2) 0.62813(7) 0.3298(3)
O3 O 0.5771(2) 0.63521(7) 0.2594(3)
O4 O 0.4336(2) 0.72085(7) 0.2285(3)
O5 O 1.0778(3) 0.80019(7) 0.4076(4)
C1 C 0.8220(3) 0.67386(9) 0.3207(4)
C2 C 0.5250(5) 0.62020(12) 0.4280(6)
H2 H 0.4929 0.5870 0.4135
H3 H 0.4399 0.6400 0.4430
H4 H 0.6070 0.6235 0.5411
C3 C 0.3534(4) 0.76575(12) 0.2084(5)
H5 H 0.3795 0.7840 0.1039
H6 H 0.3818 0.7838 0.3277
H7 H 0.2447 0.7598 0.1800
C4 C 1.0426(4) 0.62264(11) 0.3608(6)
H8 H 1.0784 0.6377 0.2557
H9 H 1.0680 0.5888 0.3659
H10 H 1.0908 0.6377 0.4818
C5 C 0.6790(3) 0.76433(9) 0.2890(4)
H11 H 0.6321 0.7946 0.2772
C6 C 0.9386(3) 0.80397(10) 0.3545(4)
C7 C 0.8370(3) 0.76067(9) 0.3280(4)
C8 C 0.9102(3) 0.71585(10) 0.3431(4)
H12 H 1.0169 0.7140 0.3678
C9 C 0.5902(3) 0.72239(10) 0.2676(4)
C10 C 0.6633(3) 0.67736(9) 0.2848(4)
N1 N 1.3270(4) 1.04072(9) 0.3837(5)
H13 H 1.4238 1.0397 0.4351
H14 H 1.2844 1.0678 0.3424
N2 N 1.0909(3) 1.00541(8) 0.2872(4)
N3 N 1.0682(3) 0.92122(8) 0.3391(4)
N4 N 1.3144(3) 0.95950(8) 0.4343(4)
N5 N 1.2853(3) 0.87774(9) 0.4707(5)
H15 H 1.3824 0.8757 0.5188
H16 H 1.2289 0.8522 0.4593
C11 C 0.8436(4) 0.96679(12) 0.1875(5)
H17 H 0.8091 0.9998 0.1834
H18 H 0.7880 0.9479 0.2637
H19 H 0.8258 0.9541 0.0574
C12 C 1.0107(4) 0.96475(10) 0.2775(4)
C13 C 1.2436(4) 1.00069(10) 0.3683(4)
C14 C 1.2226(4) 0.92030(10) 0.4143(4)
loop_
_geom_bond_atom_site_label_1
_geom_bond_atom_site_label_2
_geom_bond_site_symmetry_1
_geom_bond_site_symmetry_2
O1 H1 1_555 1_555
O2 C1 1_555 1_555
O3 C2 1_555 1_555
O4 C3 1_555 1_555
O5 C6 1_555 1_555
C1 C8 1_555 1_555
C2 H2 1_555 1_555
H3 C2 1_555 1_555
H4 C2 1_555 1_555
C3 H5 1_555 1_555
H6 C3 1_555 1_555
H7 C3 1_555 1_555
C4 O2 1_555 1_555
H8 C4 1_555 1_555
H9 C4 1_555 1_555
H10 C4 1_555 1_555
C5 H11 1_555 1_555
C6 O1 1_555 1_555
C7 C5 1_555 1_555
C8 C7 1_555 1_555
H12 C8 1_555 1_555
C9 O4 1_555 1_555
C10 O3 1_555 1_555
N1 H13 1_555 1_555
H14 N1 1_555 1_555
N2 C12 1_555 1_555
N3 C12 1_555 1_555
N4 C13 1_555 1_555
N5 H15 1_555 1_555
H16 N5 1_555 1_555
C11 H17 1_555 1_555
H18 C11 1_555 1_555
H19 C11 1_555 1_555
C12 C11 1_555 1_555
C13 N1 1_555 1_555
C14 N3 1_555 1_555
C1 C10 1_555 1_555
C5 C9 1_555 1_555
C6 C7 1_555 1_555
C9 C10 1_555 1_555
N2 C13 1_555 1_555
N4 C14 1_555 1_555
N5 C14 1_555 1_555

#END
