
#######################################################################
#
#                 Cambridge Crystallographic Data Centre
#                                CCDC 
#
#######################################################################
#
# If this CIF has been generated from an entry in the Cambridge 
# Structural Database, then it will include bibliographic, chemical, 
# crystal, experimental, refinement or atomic coordinate data resulting 
# from the CCDC's data processing and validation procedures.
#
#######################################################################

data_MICHEL
_chemical_formula_moiety         'C32 H37 Br1 O7'
_chemical_name_systematic        
Spiro((1-bromo-4-methoxy-6-oxo-5-oxabicyclo(3.1.0)hexane)-2,3'-(4'-(diphenylmethoxy)-5'-(2''-isopropyl-5''-methylcyclohexyloxy)-2'-oxotetrahydrofuran))
_symmetry_cell_setting           orthorhombic
_symmetry_space_group_name_H-M   'P 21 21 21'
_symmetry_Int_Tables_number      19
_space_group_name_Hall           'P 2ac 2ab'
loop_
_symmetry_equiv_pos_site_id
_symmetry_equiv_pos_as_xyz
1 x,y,z
2 1/2-x,-y,1/2+z
3 1/2+x,1/2-y,-z
4 -x,1/2+y,1/2-z
_cell_length_a                   10.5392(2)
_cell_length_b                   12.209(3)
_cell_length_c                   24.066(5)
_cell_angle_alpha                90
_cell_angle_beta                 90
_cell_angle_gamma                90
_cell_volume                     3096.65
_chemical_melting_point          '417-428 K'
_cell_formula_units_Z            4
loop_
_atom_site_label
_atom_site_type_symbol
_atom_site_fract_x
_atom_site_fract_y
_atom_site_fract_z
Br1 Br 0.6209(1) 0.0328(1) 0.9462(1)
O1 O 0.3293(4) 0.1831(3) 0.8190(2)
O2 O 0.5334(5) 0.2579(4) 0.8158(2)
O3 O 0.7121(5) 0.2207(4) 0.8602(2)
O4 O 0.4030(5) 0.4172(3) 0.9011(2)
O5 O 0.3960(5) 0.2574(4) 1.0178(2)
O6 O 0.3481(5) 0.0829(4) 1.0023(2)
O7 O 0.5820(4) 0.3223(3) 1.0596(2)
C1 C 0.2669(13) -0.1572(9) 0.8025(4)
C2 C 0.4701(11) -0.0598(9) 0.8002(5)
C3 C 0.3285(8) -0.0490(7) 0.8049(3)
C4 C 0.2761(7) 0.0335(7) 0.7601(3)
C5 C 0.2884(8) -0.0116(7) 0.6997(4)
C6 C 0.2204(10) 0.0678(8) 0.6588(3)
C7 C 0.2703(10) 0.1855(9) 0.6647(3)
C8 C 0.1917(16) 0.2634(11) 0.6254(4)
C9 C 0.2619(9) 0.2238(6) 0.7241(3)
C10 C 0.3376(8) 0.1442(6) 0.7615(3)
C11 C 0.4019(9) 0.2740(6) 0.8300(3)
C12 C 0.6022(8) 0.2400(6) 0.8608(3)
C13 C 0.5190(6) 0.2533(5) 0.9103(3)
C14 C 0.3956(8) 0.3026(5) 0.8911(3)
C15 C 0.5285(7) 0.1649(6) 0.9568(3)
C16 C 0.4168(8) 0.1577(6) 0.9927(3)
C17 C 0.5878(8) 0.2768(6) 0.9652(3)
C18 C 0.5078(9) 0.3249(7) 1.0125(3)
C19 C 0.5258(8) 0.3918(9) 1.1030(3)
C20 C 0.2814(7) 0.4711(7) 0.9043(3)
C21 C 0.3059(9) 0.5884(6) 0.9269(3)
C22 C 0.4256(10) 0.6286(7) 0.9313(3)
C23 C 0.4413(9) 0.7360(9) 0.9492(5)
C24 C 0.3338(14) 0.7991(8) 0.9597(4)
C25 C 0.2208(11) 0.7601(9) 0.9549(5)
C26 C 0.2012(9) 0.6519(7) 0.9379(4)
C27 C 0.2139(7) 0.4745(7) 0.8492(3)
C28 C 0.1062(10) 0.4094(7) 0.8419(4)
C29 C 0.0436(9) 0.4062(8) 0.7914(5)
C30 C 0.0853(11) 0.4733(10) 0.7485(5)
C31 C 0.1880(11) 0.5359(9) 0.7568(4)
C32 C 0.2558(8) 0.5399(6) 0.8065(3)
H1 H 0.2801(79) -0.1791(63) 0.8345(26)
H2 H 0.2782(70) -0.1879(58) 0.7620(26)
H3 H 0.1376(68) -0.1367(49) 0.8101(24)
H4 H 0.5280(73) -0.0083(52) 0.7991(30)
H5 H 0.5348(63) -0.0838(49) 0.7618(23)
H6 H 0.4955(86) -0.1119(60) 0.8198(32)
H7 H 0.2978(42) -0.0035(25) 0.8446(15)
H8 H 0.1561(44) 0.0381(47) 0.7674(16)
H9 H 0.3876(52) -0.0153(50) 0.6968(22)
H10 H 0.2464(64) -0.0810(51) 0.7020(25)
H11 H 0.1217(56) 0.0856(46) 0.6710(20)
H12 H 0.2333(59) 0.0389(51) 0.6288(20)
H13 H 0.3409(56) 0.1864(55) 0.6484(24)
H14 H 0.1976(91) 0.2519(79) 0.5980(25)
H15 H 0.2265(71) 0.3406(49) 0.6280(27)
H16 H 0.0897(61) 0.2465(61) 0.6419(28)
H17 H 0.2902(62) 0.2887(48) 0.7240(24)
H18 H 0.1629(55) 0.2088(49) 0.7366(21)
H19 H 0.4506(52) 0.1377(42) 0.7526(22)
H20 H 0.3610(57) 0.3138(41) 0.8074(19)
H21 H 0.3154(49) 0.2753(44) 0.9053(21)
H22 H 0.6884(80) 0.2957(74) 0.9641(33)
H23 H 0.4821(54) 0.3979(40) 1.0011(21)
H24 H 0.6469(53) 0.4001(47) 1.1255(22)
H25 H 0.5350(52) 0.3550(60) 1.1313(27)
H26 H 0.4245(49) 0.3709(54) 1.1080(24)
H27 H 0.2344(48) 0.4293(40) 0.9295(18)
H28 H 0.5281(57) 0.6018(46) 0.9210(22)
H29 H 0.5220(60) 0.7537(61) 0.9536(33)
H30 H 0.3987(42) 0.8516(44) 0.9752(24)
H31 H 0.1317(61) 0.7856(49) 0.9522(29)
H32 H 0.1178(60) 0.6237(49) 0.9282(26)
H33 H 0.0777(69) 0.3706(50) 0.8688(24)
H34 H -0.0312(63) 0.3660(52) 0.7821(26)
H35 H 0.0214(58) 0.4802(57) 0.7132(22)
H36 H 0.2518(63) 0.5804(51) 0.7326(24)
H37 H 0.3751(65) 0.5784(42) 0.8090(20)
loop_
_geom_bond_atom_site_label_1
_geom_bond_atom_site_label_2
_geom_bond_site_symmetry_1
_geom_bond_site_symmetry_2
Br1 C15 1_555 1_555
O1 C10 1_555 1_555
O2 C11 1_555 1_555
O3 C12 1_555 1_555
O4 C14 1_555 1_555
O5 C16 1_555 1_555
O6 C16 1_555 1_555
O7 C18 1_555 1_555
C1 C3 1_555 1_555
C2 C3 1_555 1_555
C3 C4 1_555 1_555
C4 C5 1_555 1_555
C5 C6 1_555 1_555
C6 C7 1_555 1_555
C7 C8 1_555 1_555
C8 H14 1_555 1_555
C9 C7 1_555 1_555
C10 C4 1_555 1_555
C11 O1 1_555 1_555
C12 O2 1_555 1_555
C13 C12 1_555 1_555
C14 C11 1_555 1_555
C15 C13 1_555 1_555
C16 C15 1_555 1_555
C17 C13 1_555 1_555
C18 O5 1_555 1_555
C19 O7 1_555 1_555
C20 O4 1_555 1_555
C21 C20 1_555 1_555
C22 C21 1_555 1_555
C23 C22 1_555 1_555
C24 C23 1_555 1_555
C25 C24 1_555 1_555
C26 C21 1_555 1_555
C27 C20 1_555 1_555
C28 C27 1_555 1_555
C29 C28 1_555 1_555
C30 C29 1_555 1_555
C31 C30 1_555 1_555
C32 C27 1_555 1_555
H1 C1 1_555 1_555
H2 C1 1_555 1_555
H3 C1 1_555 1_555
H4 C2 1_555 1_555
H5 C2 1_555 1_555
H6 C2 1_555 1_555
H7 C3 1_555 1_555
H8 C4 1_555 1_555
H9 C5 1_555 1_555
H10 C5 1_555 1_555
H11 C6 1_555 1_555
H12 C6 1_555 1_555
H13 C7 1_555 1_555
H15 C8 1_555 1_555
H16 C8 1_555 1_555
H17 C9 1_555 1_555
H18 C9 1_555 1_555
H19 C10 1_555 1_555
H20 C11 1_555 1_555
H21 C14 1_555 1_555
H22 C17 1_555 1_555
H23 C18 1_555 1_555
H24 C19 1_555 1_555
H25 C19 1_555 1_555
H26 C19 1_555 1_555
H27 C20 1_555 1_555
H28 C22 1_555 1_555
H29 C23 1_555 1_555
H30 C24 1_555 1_555
H31 C25 1_555 1_555
H32 C26 1_555 1_555
H33 C28 1_555 1_555
H34 C29 1_555 1_555
H35 C30 1_555 1_555
H36 C31 1_555 1_555
H37 C32 1_555 1_555
C9 C10 1_555 1_555
C13 C14 1_555 1_555
C15 C17 1_555 1_555
C17 C18 1_555 1_555
C25 C26 1_555 1_555
C31 C32 1_555 1_555

#END
