
#######################################################################
#
#                 Cambridge Crystallographic Data Centre
#                                CCDC 
#
#######################################################################
#
# If this CIF has been generated from an entry in the Cambridge 
# Structural Database, then it will include bibliographic, chemical, 
# crystal, experimental, refinement or atomic coordinate data resulting 
# from the CCDC's data processing and validation procedures.
#
#######################################################################

data_MICHAH
_chemical_formula_moiety         'C21 H31 Br1 O7'
_chemical_name_systematic        
Spiro((1-bromo-4-hydroxy-6-oxo-5-oxabicyclo(3.1.0)hexane)-2,3'-(4'-isopropoxy-5'-(2''-isopropyl-5''-methylcyclohexyloxy)-2'-oxotetrahydrofuran))
_symmetry_cell_setting           monoclinic
_symmetry_space_group_name_H-M   'P 21'
_symmetry_Int_Tables_number      4
_space_group_name_Hall           'P 2yb'
loop_
_symmetry_equiv_pos_site_id
_symmetry_equiv_pos_as_xyz
1 x,y,z
2 -x,1/2+y,-z
_cell_length_a                   8.885(13)
_cell_length_b                   11.367(2)
_cell_length_c                   12.146(13)
_cell_angle_alpha                90
_cell_angle_beta                 105.60
_cell_angle_gamma                90
_cell_volume                     1181.51
_chemical_melting_point          '168-169 deg.C'
_cell_formula_units_Z            2
loop_
_atom_site_label
_atom_site_type_symbol
_atom_site_fract_x
_atom_site_fract_y
_atom_site_fract_z
Br1 Br 0.2406(1) 0.6142(1) 0.2779(1)
O1 O 0.0994(5) 0.7706(4) -0.0730(3)
O2 O 0.0590(5) 0.8829(3) 0.0747(4)
O3 O 0.2198(5) 0.8923(4) 0.2502(4)
O4 O -0.3078(5) 0.8034(4) 0.0668(3)
O5 O -0.2547(5) 0.6022(5) 0.2453(3)
O6 O -0.1903(4) 0.7633(3) 0.3665(3)
O7 O -0.0942(7) 0.4821(4) 0.1843(4)
C1 C -0.0015(9) 0.7902(5) -0.0078(5)
C2 C 0.1349(7) 0.8373(5) 0.1763(6)
C3 C -0.0084(8) 0.6848(5) 0.0619(5)
C4 C 0.0910(6) 0.7104(5) 0.1806(4)
C5 C -0.0855(7) 0.6927(5) 0.1580(5)
C6 C -0.1383(9) 0.5786(6) 0.1952(5)
C7 C -0.1997(7) 0.7857(6) 0.1709(5)
C8 C -0.3714(15) 0.9258(22) 0.0469(10)
C9 C -0.4776(25) 0.9194(23) -0.0674(11)
C10 C -0.4563(32) 0.9446(22) 0.1049(17)
C11 C -0.2723(7) 0.7286(7) 0.2597(4)
C12 C -0.2576(6) 0.7254(4) 0.4590(4)
C13 C -0.3822(8) 0.8098(6) 0.4714(6)
C14 C -0.4539(7) 0.7804(6) 0.5665(5)
C15 C -0.5705(10) 0.8760(9) 0.5802(9)
C16 C -0.3296(8) 0.7610(7) 0.6750(5)
C17 C -0.1994(8) 0.6761(5) 0.6631(5)
C18 C -0.1273(6) 0.7183(5) 0.5672(4)
C19 C 0.0129(7) 0.6454(5) 0.5576(5)
C20 C 0.1500(9) 0.6564(7) 0.6668(7)
C21 C -0.0265(11) 0.5156(7) 0.5290(8)
H1 H 0.1046(77) 0.8398(66) -0.1441(47)
H2 H -0.1066(52) 0.8250(38) -0.0510(37)
H3 H -0.0074(43) 0.6198(50) 0.0337(31)
H4 H -0.1618(48) 0.8554(38) 0.2053(34)
H5 H -0.3188(48) 1.0068(35) -0.0060(42)
H6 H -0.4375(76) 0.8529(50) -0.1091(66)
H7 H -0.5209(83) 0.9919(36) -0.1098(40)
H8 H -0.5988(39) 0.8970(75) -0.0744(34)
H9 H -0.440(12) 0.9213(89) 0.1649(80)
H10 H -0.5622(60) 0.9150(90) 0.0653(43)
H11 H -0.504(11) 1.0266(77) 0.0824(71)
H12 H -0.3826(50) 0.7430(36) 0.2352(32)
H13 H -0.2984(40) 0.6463(35) 0.4371(27)
H14 H -0.3570(62) 0.8769(50) 0.4686(47)
H15 H -0.4522(56) 0.8168(42) 0.3976(41)
H16 H -0.4933(46) 0.6991(43) 0.5471(31)
H17 H -0.6332(87) 0.8403(67) 0.6670(65)
H18 H -0.656(10) 0.8594(91) 0.5145(77)
H19 H -0.499(11) 0.9535(83) 0.5919(70)
H20 H -0.3683(49) 0.7559(41) 0.7414(37)
H21 H -0.2795(58) 0.8253(50) 0.6996(41)
H22 H -0.1130(51) 0.6768(33) 0.7372(37)
H23 H -0.2683(45) 0.5899(47) 0.6340(33)
H24 H -0.0940(45) 0.8042(39) 0.5897(33)
H25 H 0.0479(51) 0.6964(38) 0.4979(36)
H26 H 0.157(11) 0.7246(73) 0.7028(74)
H27 H 0.2288(84) 0.6091(82) 0.6497(60)
H28 H 0.1409(82) 0.5925(83) 0.7443(60)
H29 H -0.1600(98) 0.5024(71) 0.5192(71)
H30 H -0.065(11) 0.4748(80) 0.5996(73)
H31 H 0.059(11) 0.4796(83) 0.5269(85)
loop_
_geom_bond_atom_site_label_1
_geom_bond_atom_site_label_2
_geom_bond_site_symmetry_1
_geom_bond_site_symmetry_2
Br1 C4 1_555 1_555
O1 C1 1_555 1_555
O2 C1 1_555 1_555
O3 C2 1_555 1_555
O4 C7 1_555 1_555
O5 C6 1_555 1_555
O6 C11 1_555 1_555
O7 C6 1_555 1_555
C1 C3 1_555 1_555
C2 O2 1_555 1_555
C3 C4 1_555 1_555
C4 C2 1_555 1_555
C5 C3 1_555 1_555
C6 C5 1_555 1_555
C7 C5 1_555 1_555
C8 O4 1_555 1_555
C9 C8 1_555 1_555
C10 C8 1_555 1_555
C11 O5 1_555 1_555
C12 O6 1_555 1_555
C13 C12 1_555 1_555
C14 C13 1_555 1_555
C15 C14 1_555 1_555
C16 C14 1_555 1_555
C17 C16 1_555 1_555
C18 C12 1_555 1_555
C19 C18 1_555 1_555
C20 C19 1_555 1_555
C21 C19 1_555 1_555
H1 O1 1_555 1_555
H2 C1 1_555 1_555
H3 C3 1_555 1_555
H4 C7 1_555 1_555
H5 C8 1_555 1_555
H6 C9 1_555 1_555
H7 C9 1_555 1_555
H8 C9 1_555 1_555
H9 C10 1_555 1_555
H10 C10 1_555 1_555
H11 C10 1_555 1_555
H12 C11 1_555 1_555
H13 C12 1_555 1_555
H14 C13 1_555 1_555
H15 C13 1_555 1_555
H16 C14 1_555 1_555
H17 C15 1_555 1_555
H18 C15 1_555 1_555
H19 C15 1_555 1_555
H20 C16 1_555 1_555
H21 C16 1_555 1_555
H22 C17 1_555 1_555
H23 C17 1_555 1_555
H24 C18 1_555 1_555
H25 C19 1_555 1_555
H26 C20 1_555 1_555
H27 C20 1_555 1_555
H28 C20 1_555 1_555
H29 C21 1_555 1_555
H30 C21 1_555 1_555
H31 C21 1_555 1_555
C4 C5 1_555 1_555
C7 C11 1_555 1_555
C17 C18 1_555 1_555

#END
