
#######################################################################
#
#                 Cambridge Crystallographic Data Centre
#                                CCDC 
#
#######################################################################
#
# If this CIF has been generated from an entry in the Cambridge 
# Structural Database, then it will include bibliographic, chemical, 
# crystal, experimental, refinement or atomic coordinate data resulting 
# from the CCDC's data processing and validation procedures.
#
#######################################################################

data_MICJOY
_chemical_formula_moiety         'C13 H22 F3 N4 1+,Cl1 1-'
_chemical_name_systematic        
'2-((4-(Diethylamino)-3,5,6-trifluoropyridin-2-yl)(methyl)amino)-N-methylethanaminium chloride'
_symmetry_cell_setting           orthorhombic
_symmetry_space_group_name_H-M   'P n a 21'
_symmetry_Int_Tables_number      33
_space_group_name_Hall           'P 2c -2n'
loop_
_symmetry_equiv_pos_site_id
_symmetry_equiv_pos_as_xyz
1 x,y,z
2 -x,-y,1/2+z
3 1/2+x,1/2-y,z
4 1/2-x,1/2+y,1/2+z
_cell_length_a                   9.1534(3)
_cell_length_b                   31.9807(9)
_cell_length_c                   5.3121(1)
_cell_angle_alpha                90
_cell_angle_beta                 90
_cell_angle_gamma                90
_cell_volume                     1555.02
_exptl_crystal_colour            colorless
_exptl_crystal_description       plate
_chemical_melting_point          122.8-123.1deg.C
_cell_formula_units_Z            4
_exptl_crystal_recrystallization_method 'ethyl acetate'
loop_
_atom_site_label
_atom_site_type_symbol
_atom_site_fract_x
_atom_site_fract_y
_atom_site_fract_z
Cl1 Cl 0.64794(4) 0.268943(11) 0.05794(7)
F1 F 1.11916(11) 0.37905(3) 0.6596(2)
F2 F 1.00561(11) 0.46450(3) 1.3681(2)
F3 F 0.72441(11) 0.44783(3) 1.2792(2)
N1 N 0.77439(14) 0.40669(4) 0.9468(3)
N2 N 1.22386(13) 0.42975(4) 1.0512(3)
N3 N 0.81106(14) 0.36446(4) 0.6016(3)
N4 N 0.82146(11) 0.26820(3) 0.5552(3)
C1 C 0.87147(16) 0.38846(4) 0.7895(3)
C2 C 1.02161(16) 0.39605(4) 0.8250(3)
C3 C 1.07753(15) 0.42226(4) 1.0142(3)
C4 C 0.96984(16) 0.44036(4) 1.1684(3)
C5 C 0.82545(16) 0.43116(4) 1.1230(3)
C6 C 1.27682(18) 0.47090(5) 1.1310(3)
C7 C 1.3424(2) 0.47104(7) 1.3941(4)
C8 C 1.33826(16) 0.39916(5) 0.9855(3)
C9 C 1.3186(2) 0.35766(5) 1.1192(4)
C10 C 0.65126(16) 0.36220(5) 0.5877(4)
C11 C 0.89447(17) 0.34005(4) 0.4209(3)
C12 C 0.94688(15) 0.29772(4) 0.5164(3)
C13 C 0.86925(16) 0.22401(4) 0.5821(3)
H1 H 0.763(2) 0.2694(5) 0.410(4)
H2 H 0.772(3) 0.2760(7) 0.687(5)
H3 H 1.344(2) 0.4798(7) 1.007(5)
H4 H 1.197(2) 0.4909(6) 1.119(5)
H5 H 1.377(3) 0.4973(7) 1.434(5)
H6 H 1.267(3) 0.4654(7) 1.528(5)
H7 H 1.417(3) 0.4525(8) 1.388(5)
H8 H 1.430(2) 0.4112(6) 1.052(5)
H9 H 1.347(2) 0.3954(6) 0.815(4)
H10 H 1.232(3) 0.3442(7) 1.073(6)
H11 H 1.393(3) 0.3399(7) 1.082(6)
H12 H 1.313(2) 0.3639(7) 1.302(5)
H13 H 0.617(2) 0.3891(6) 0.578(5)
H14 H 0.626(3) 0.3472(8) 0.437(5)
H15 H 0.615(3) 0.3484(9) 0.743(6)
H16 H 0.830(2) 0.3379(6) 0.275(4)
H17 H 0.978(2) 0.3549(7) 0.358(5)
H18 H 0.997(2) 0.2975(7) 0.675(4)
H19 H 1.010(2) 0.2851(7) 0.380(5)
H20 H 0.926(3) 0.2157(7) 0.421(5)
H21 H 0.935(3) 0.2217(9) 0.739(6)
H22 H 0.785(2) 0.2053(6) 0.606(4)
loop_
_geom_bond_atom_site_label_1
_geom_bond_atom_site_label_2
_geom_bond_site_symmetry_1
_geom_bond_site_symmetry_2
F1 C2 1_555 1_555
F2 C4 1_555 1_555
F3 C5 1_555 1_555
N1 C1 1_555 1_555
N2 C3 1_555 1_555
N3 C1 1_555 1_555
N4 C12 1_555 1_555
C1 C2 1_555 1_555
C2 C3 1_555 1_555
C3 C4 1_555 1_555
C4 C5 1_555 1_555
C5 N1 1_555 1_555
C6 N2 1_555 1_555
C7 C6 1_555 1_555
C8 N2 1_555 1_555
C9 C8 1_555 1_555
C10 N3 1_555 1_555
C11 N3 1_555 1_555
C12 C11 1_555 1_555
C13 N4 1_555 1_555
H1 N4 1_555 1_555
H2 N4 1_555 1_555
H3 C6 1_555 1_555
H4 C6 1_555 1_555
H5 C7 1_555 1_555
H6 C7 1_555 1_555
H7 C7 1_555 1_555
H8 C8 1_555 1_555
H9 C8 1_555 1_555
H10 C9 1_555 1_555
H11 C9 1_555 1_555
H12 C9 1_555 1_555
H13 C10 1_555 1_555
H14 C10 1_555 1_555
H15 C10 1_555 1_555
H16 C11 1_555 1_555
H17 C11 1_555 1_555
H18 C12 1_555 1_555
H19 C12 1_555 1_555
H20 C13 1_555 1_555
H21 C13 1_555 1_555
H22 C13 1_555 1_555

#END
