
#######################################################################
#
#                 Cambridge Crystallographic Data Centre
#                                CCDC 
#
#######################################################################
#
# If this CIF has been generated from an entry in the Cambridge 
# Structural Database, then it will include bibliographic, chemical, 
# crystal, experimental, refinement or atomic coordinate data resulting 
# from the CCDC's data processing and validation procedures.
#
#######################################################################

data_MICKEP
_chemical_formula_moiety         'C10 H10 F2 N4'
_chemical_name_systematic        
6,7-difluoro-1,4-dimethyl-1,2,3,4-tetrahydropyrido(2,3-b)pyrazine-8-carbonitrile
_symmetry_cell_setting           monoclinic
_symmetry_space_group_name_H-M   'P 21/n'
_symmetry_Int_Tables_number      14
_space_group_name_Hall           '-P 2yn'
loop_
_symmetry_equiv_pos_site_id
_symmetry_equiv_pos_as_xyz
1 x,y,z
2 1/2-x,1/2+y,1/2-z
3 -x,-y,-z
4 1/2+x,1/2-y,1/2+z
_cell_length_a                   6.9196(1)
_cell_length_b                   14.5749(2)
_cell_length_c                   9.7248(1)
_cell_angle_alpha                90
_cell_angle_beta                 90.64(1)
_cell_angle_gamma                90
_cell_volume                     980.709
_exptl_crystal_colour            'bright yellow'
_exptl_crystal_description       prism
_chemical_melting_point          128.0-128.8deg.C
_cell_formula_units_Z            4
_exptl_crystal_recrystallization_method 'ethyl acetate/n-hexane'
loop_
_atom_site_label
_atom_site_type_symbol
_atom_site_fract_x
_atom_site_fract_y
_atom_site_fract_z
F1 F 0.13100(10) -0.18508(4) 0.48751(7)
F2 F 0.16734(10) -0.07368(5) 0.26229(7)
N1 N 0.22190(12) -0.06971(6) 0.62989(9)
N2 N 0.36221(13) 0.16943(6) 0.57640(9)
N3 N 0.30286(14) 0.04250(6) 0.78538(9)
N4 N 0.25114(18) 0.13890(8) 0.18044(11)
C1 C 0.18841(15) -0.09732(7) 0.50225(11)
C2 C 0.20621(14) -0.04274(7) 0.39071(10)
C3 C 0.26211(14) 0.04983(7) 0.40946(10)
C4 C 0.30105(13) 0.08260(7) 0.54222(10)
C5 C 0.27501(14) 0.01666(7) 0.65266(10)
C6 C 0.39577(18) 0.23930(8) 0.47315(12)
C7 C 0.3058(2) 0.20206(8) 0.71218(12)
H1 H 0.154(3) 0.2122(12) 0.7122(18)
H2 H 0.5252 0.1370 0.8214
H3 H 0.3079 0.1491 0.9080
C8 C 0.3646(2) 0.13434(8) 0.82078(12)
C9 C 0.26802(19) -0.02391(8) 0.89409(12)
C10 C 0.26071(16) 0.10321(8) 0.28552(11)
H7 H 0.474(2) 0.2120(11) 0.3988(16)
H8 H 0.464(2) 0.2870(11) 0.5177(16)
H9 H 0.272(2) 0.2647(11) 0.4370(17)
H10 H 0.367(2) 0.2602(11) 0.7312(17)
H11 H 0.134(2) -0.0488(12) 0.8855(18)
H12 H 0.355(3) -0.0774(12) 0.8868(18)
H13 H 0.281(2) 0.0033(12) 0.9815(19)
C11? C 0.4087(18) 0.1940(7) 0.7185(11)
H4? H 0.5303 0.1979 0.7339
H5? H 0.5023 0.1298 0.8570
H6? H 0.2094 0.1394 0.8134
loop_
_geom_bond_atom_site_label_1
_geom_bond_atom_site_label_2
_geom_bond_site_symmetry_1
_geom_bond_site_symmetry_2
F1 C1 1_555 1_555
F2 C2 1_555 1_555
N1 C1 1_555 1_555
N2 C4 1_555 1_555
N3 C5 1_555 1_555
N4 C10 1_555 1_555
C1 C2 1_555 1_555
C2 C3 1_555 1_555
C3 C4 1_555 1_555
C4 C5 1_555 1_555
C5 N1 1_555 1_555
C6 N2 1_555 1_555
C7 N2 1_555 1_555
H1 C7 1_555 1_555
H2 C8 1_555 1_555
H3 C8 1_555 1_555
C8 N3 1_555 1_555
C9 N3 1_555 1_555
C10 C3 1_555 1_555
H7 C6 1_555 1_555
H8 C6 1_555 1_555
H9 C6 1_555 1_555
H10 C7 1_555 1_555
H11 C9 1_555 1_555
H12 C9 1_555 1_555
H13 C9 1_555 1_555
C7 C8 1_555 1_555

#END
