
#######################################################################
#
#                 Cambridge Crystallographic Data Centre
#                                CCDC 
#
#######################################################################
#
# If this CIF has been generated from an entry in the Cambridge 
# Structural Database, then it will include bibliographic, chemical, 
# crystal, experimental, refinement or atomic coordinate data resulting 
# from the CCDC's data processing and validation procedures.
#
#######################################################################

data_MICREV
_chemical_formula_moiety         'C15 H29 B10 N1 Si2'
_chemical_name_systematic        
N,N-((1,2-Dicarbadodecaborane)-1,2-bis(dimethylsilyl))-3-indenylamine
_symmetry_cell_setting           monoclinic
_symmetry_space_group_name_H-M   'P 21/c'
_symmetry_Int_Tables_number      14
_space_group_name_Hall           '-P 2ybc'
loop_
_symmetry_equiv_pos_site_id
_symmetry_equiv_pos_as_xyz
1 x,y,z
2 -x,1/2+y,1/2-z
3 -x,-y,-z
4 x,1/2-y,1/2+z
_cell_length_a                   11.7883(9)
_cell_length_b                   14.4327(11)
_cell_length_c                   13.8304(11)
_cell_angle_alpha                90
_cell_angle_beta                 102.681(2)
_cell_angle_gamma                90
_cell_volume                     2295.67
_chemical_melting_point          '124 deg.C'
_cell_formula_units_Z            4
_exptl_crystal_recrystallization_method hexane
loop_
_atom_site_label
_atom_site_type_symbol
_atom_site_fract_x
_atom_site_fract_y
_atom_site_fract_z
Si1 Si 0.6361(1) 0.0066(1) 0.7597(1)
Si2 Si 0.8849(1) 0.0051(1) 0.7351(1)
N1 N 0.7668(2) -0.0508(2) 0.7632(2)
B1 B 0.7804(4) 0.2894(2) 0.5968(3)
B2 B 0.6355(3) 0.2901(2) 0.6115(3)
B3 B 0.7521(3) 0.2980(2) 0.7174(3)
B4 B 0.7722(3) 0.1881(2) 0.7728(2)
B5 B 0.6777(3) 0.2127(2) 0.5258(3)
B6 B 0.6295(3) 0.2271(2) 0.7198(3)
B7 B 0.8193(3) 0.1733(2) 0.5782(2)
B8 B 0.8650(3) 0.2260(2) 0.6962(3)
B9 B 0.6983(3) 0.1030(2) 0.5820(2)
B10 B 0.5845(3) 0.1749(2) 0.6019(2)
C1 C 0.8285(3) -0.1637(2) 0.9004(2)
C2 C 0.8301(3) -0.2668(3) 0.9139(3)
C3 C 0.7754(3) -0.3022(2) 0.8133(3)
C4 C 0.7532(3) -0.3916(3) 0.7788(4)
C5 C 0.7025(4) -0.4050(3) 0.6814(5)
C6 C 0.6758(3) -0.3309(3) 0.6171(3)
C7 C 0.6978(3) -0.2412(2) 0.6508(3)
C8 C 0.7485(2) -0.2274(2) 0.7492(2)
C9 C 0.7820(2) -0.1416(2) 0.8057(2)
C10 C 1.0011(3) 0.0295(2) 0.8455(3)
C11 C 0.9433(3) 0.0545(2) 0.6328(3)
C12 C 0.8093(2) 0.1169(2) 0.6846(2)
C13 C 0.6712(2) 0.1177(2) 0.6983(2)
C14 C 0.6125(3) 0.0296(2) 0.8846(2)
C15 C 0.5084(2) -0.0492(2) 0.6811(2)
H1 H 0.8120 0.3404 0.5668
H2 H 0.5846 0.3415 0.5899
H3 H 0.7678 0.3536 0.7561
H4 H 0.7991 0.1797 0.8429
H5 H 0.6509 0.2198 0.4555
H6 H 0.5750 0.2415 0.7600
H7 H 0.8734 0.1572 0.5381
H8 H 0.9454 0.2399 0.7230
H9 H 0.6837 0.0463 0.5449
H10 H 0.5045 0.1598 0.5752
H11 H 0.8568 -0.1198 0.9522
H12 H 0.9082 -0.2893 0.9352
H13 H 0.7859 -0.2847 0.9615
H14 H 0.7731 -0.4434 0.8228
H15 H 0.6852 -0.4669 0.6570
H16 H 0.6416 -0.3418 0.5484
H17 H 0.6782 -0.1895 0.6065
H18 H 0.9685 0.0607 0.8944
H19 H 1.0591 0.0682 0.8271
H20 H 1.0360 -0.0277 0.8724
H21 H 0.8814 0.0661 0.5817
H22 H 0.9778 0.1123 0.6637
H23 H 1.0011 0.0162 0.6189
H24 H 0.6805 0.0583 0.9242
H25 H 0.5977 -0.0277 0.9148
H26 H 0.5470 0.0701 0.8801
H27 H 0.5230 -0.0604 0.6165
H28 H 0.4420 -0.0094 0.6754
H29 H 0.4935 -0.1070 0.7104
loop_
_geom_bond_atom_site_label_1
_geom_bond_atom_site_label_2
_geom_bond_site_symmetry_1
_geom_bond_site_symmetry_2
Si1 N1 1_555 1_555
Si2 N1 1_555 1_555
N1 C9 1_555 1_555
B1 B2 1_555 1_555
B2 B3 1_555 1_555
B3 B1 1_555 1_555
B4 B3 1_555 1_555
B5 B1 1_555 1_555
B6 B2 1_555 1_555
B7 B1 1_555 1_555
B8 B1 1_555 1_555
B9 B5 1_555 1_555
B10 B2 1_555 1_555
C1 C2 1_555 1_555
C2 C3 1_555 1_555
C3 C4 1_555 1_555
C4 C5 1_555 1_555
C5 C6 1_555 1_555
C6 C7 1_555 1_555
C7 C8 1_555 1_555
C8 C3 1_555 1_555
C9 C1 1_555 1_555
C10 Si2 1_555 1_555
C11 Si2 1_555 1_555
C12 Si2 1_555 1_555
C13 Si1 1_555 1_555
C14 Si1 1_555 1_555
C15 Si1 1_555 1_555
H1 B1 1_555 1_555
H2 B2 1_555 1_555
H3 B3 1_555 1_555
H4 B4 1_555 1_555
H5 B5 1_555 1_555
H6 B6 1_555 1_555
H7 B7 1_555 1_555
H8 B8 1_555 1_555
H9 B9 1_555 1_555
H10 B10 1_555 1_555
H11 C1 1_555 1_555
H12 C2 1_555 1_555
H13 C2 1_555 1_555
H14 C4 1_555 1_555
H15 C5 1_555 1_555
H16 C6 1_555 1_555
H17 C7 1_555 1_555
H18 C10 1_555 1_555
H19 C10 1_555 1_555
H20 C10 1_555 1_555
H21 C11 1_555 1_555
H22 C11 1_555 1_555
H23 C11 1_555 1_555
H24 C14 1_555 1_555
H25 C14 1_555 1_555
H26 C14 1_555 1_555
H27 C15 1_555 1_555
H28 C15 1_555 1_555
H29 C15 1_555 1_555
B2 B5 1_555 1_555
B3 B6 1_555 1_555
B3 B8 1_555 1_555
B4 C12 1_555 1_555
B4 B8 1_555 1_555
B4 B6 1_555 1_555
B4 C13 1_555 1_555
B5 B7 1_555 1_555
B5 B10 1_555 1_555
B6 B10 1_555 1_555
B6 C13 1_555 1_555
B7 B8 1_555 1_555
B7 B9 1_555 1_555
B7 C12 1_555 1_555
B8 C12 1_555 1_555
B9 B10 1_555 1_555
B9 C12 1_555 1_555
B9 C13 1_555 1_555
B10 C13 1_555 1_555
C8 C9 1_555 1_555
C12 C13 1_555 1_555

#END
