
#######################################################################
#
#                 Cambridge Crystallographic Data Centre
#                                CCDC 
#
#######################################################################
#
# If this CIF has been generated from an entry in the Cambridge 
# Structural Database, then it will include bibliographic, chemical, 
# crystal, experimental, refinement or atomic coordinate data resulting 
# from the CCDC's data processing and validation procedures.
#
#######################################################################

data_MICRAR
_chemical_formula_moiety         'C21 H33 B10 N1 Si2'
_chemical_name_systematic        
N,N-((1,2-Dicarbadodecaborane)-1,2-bis(dimethylsilyl))-9-anthrancenylmethylamine
_symmetry_cell_setting           monoclinic
_symmetry_space_group_name_H-M   'P 21/c'
_symmetry_Int_Tables_number      14
_space_group_name_Hall           '-P 2ybc'
loop_
_symmetry_equiv_pos_site_id
_symmetry_equiv_pos_as_xyz
1 x,y,z
2 -x,1/2+y,1/2-z
3 -x,-y,-z
4 x,1/2-y,1/2+z
_cell_length_a                   18.332(3)
_cell_length_b                   13.1958(16)
_cell_length_c                   23.452(3)
_cell_angle_alpha                90
_cell_angle_beta                 107.414(10)
_cell_angle_gamma                90
_cell_volume                     5413.15
_exptl_crystal_colour            colorless
_chemical_melting_point          '269-271 deg.C'
_cell_formula_units_Z            8
_exptl_crystal_recrystallization_method hexane
loop_
_atom_site_label
_atom_site_type_symbol
_atom_site_fract_x
_atom_site_fract_y
_atom_site_fract_z
Si1 Si 0.3804(1) 0.7160(1) 0.3927(1)
Si2 Si 0.5509(1) 0.7168(1) 0.4157(1)
N1 N 0.4691(2) 0.7693(3) 0.4261(2)
B1 B 0.5320(5) 0.5533(6) 0.3096(3)
B2 B 0.5401(5) 0.4815(6) 0.3748(4)
B3 B 0.4981(6) 0.4265(7) 0.3029(4)
B4 B 0.4580(5) 0.4037(7) 0.3618(4)
B5 B 0.3992(5) 0.4272(7) 0.2883(4)
B6 B 0.3781(5) 0.4829(6) 0.3501(3)
B7 B 0.3687(4) 0.5557(6) 0.2850(3)
B8 B 0.4511(4) 0.6332(6) 0.2980(3)
B9 B 0.4656(5) 0.5168(6) 0.4034(3)
B10 B 0.4435(5) 0.5205(6) 0.2558(3)
C1 C 0.4124(3) 0.6034(5) 0.3550(2)
C2 C 0.5068(3) 0.6036(4) 0.3682(2)
C3 C 0.3128(3) 0.7931(5) 0.3349(3)
C4 C 0.3312(4) 0.6654(6) 0.4455(3)
C5 C 0.5967(4) 0.8004(5) 0.3741(3)
C6 C 0.6210(4) 0.6747(6) 0.4856(3)
C7 C 0.4836(3) 0.8532(5) 0.4698(3)
C8 C 0.4164(3) 0.9175(5) 0.4687(3)
C9 C 0.3923(4) 0.9923(5) 0.4241(3)
C10 C 0.4306(4) 1.0090(7) 0.3800(3)
C11 C 0.4055(6) 1.0848(8) 0.3382(4)
C12 C 0.3423(6) 1.1454(8) 0.3368(4)
C13 C 0.3044(5) 1.1320(7) 0.3773(4)
C14 C 0.3281(4) 1.0558(6) 0.4224(3)
C15 C 0.2910(4) 1.0407(5) 0.4656(3)
C16 C 0.3153(4) 0.9717(5) 0.5106(3)
C17 C 0.2786(4) 0.9635(6) 0.5566(4)
C18 C 0.3037(5) 0.8969(7) 0.6013(4)
C19 C 0.3657(5) 0.8351(6) 0.6048(3)
C20 C 0.4018(4) 0.8392(5) 0.5613(3)
C21 C 0.3791(3) 0.9078(5) 0.5131(3)
H1 H 0.5828 0.5762 0.2970
H2 H 0.5962 0.4580 0.4044
H3 H 0.5266 0.3662 0.2852
H4 H 0.4604 0.3289 0.3830
H5 H 0.3632 0.3675 0.2612
H6 H 0.3278 0.4603 0.3634
H7 H 0.3126 0.5811 0.2561
H8 H 0.4489 0.7089 0.2780
H9 H 0.4731 0.5175 0.4517
H10 H 0.4362 0.5222 0.2076
H21 H 0.3382 0.8192 0.3077
H22 H 0.2946 0.8484 0.3536
H23 H 0.2703 0.7518 0.3134
H24 H 0.3664 0.6252 0.4755
H25 H 0.2886 0.6243 0.4240
H26 H 0.3132 0.7207 0.4642
H27 H 0.5596 0.8215 0.3377
H28 H 0.6373 0.7645 0.3649
H29 H 0.6171 0.8588 0.3980
H30 H 0.5963 0.6307 0.5068
H31 H 0.6414 0.7325 0.5100
H32 H 0.6617 0.6387 0.4766
H33 H 0.5229 0.8965 0.4629
H34 H 0.5039 0.8248 0.5096
H35 H 0.4722 0.9690 0.3795
H36 H 0.4313 1.0959 0.3101
H37 H 0.3265 1.1953 0.3076
H38 H 0.2625 1.1726 0.3759
H39 H 0.2478 1.0792 0.4636
H40 H 0.2370 1.0048 0.5554
H41 H 0.2789 0.8921 0.6304
H42 H 0.3830 0.7906 0.6367
H43 H 0.4423 0.7954 0.5637
Si3 Si 0.0490(1) 0.7819(1) 0.4037(1)
Si4 Si -0.1182(1) 0.7383(2) 0.3489(1)
N2 N -0.0302(2) 0.7052(3) 0.3958(2)
B11 B -0.1294(5) 0.9291(6) 0.2608(3)
B12 B -0.1455(5) 0.9778(6) 0.3261(4)
B13 B -0.1179(5) 1.0622(7) 0.2771(4)
B14 B -0.0777(6) 1.0754(7) 0.3553(4)
B15 B -0.0190(6) 1.0847(7) 0.3089(4)
B16 B 0.0134(5) 1.0199(6) 0.3780(4)
B17 B 0.0322(5) 0.9705(6) 0.3132(4)
B18 B -0.0357(4) 0.8758(6) 0.2836(3)
B19 B -0.0488(5) 0.9965(6) 0.2515(4)
B20 B -0.0652(5) 0.9523(6) 0.3879(3)
C22 C -0.0004(3) 0.8946(4) 0.3590(2)
C23 C -0.0931(3) 0.8703(5) 0.3290(3)
C24 C 0.0978(4) 0.8206(6) 0.4811(3)
C25 C 0.1186(4) 0.7261(6) 0.3691(3)
C26 C -0.1513(5) 0.6639(6) 0.2786(3)
C27 C -0.1960(4) 0.7484(6) 0.3825(4)
C28 C -0.0124(3) 0.6016(5) 0.4224(3)
C29 C -0.0785(3) 0.5535(5) 0.4381(3)
C30 C -0.1224(3) 0.4759(5) 0.4023(3)
C31 C -0.1068(4) 0.4334(6) 0.3508(3)
C32 C -0.1504(6) 0.3604(7) 0.3188(4)
C33 C -0.2143(6) 0.3227(7) 0.3329(4)
C34 C -0.2321(5) 0.3586(6) 0.3816(4)
C35 C -0.1867(4) 0.4352(5) 0.4178(3)
C36 C -0.2039(4) 0.4716(5) 0.4681(3)
C37 C -0.1609(4) 0.5457(5) 0.5040(3)
C38 C -0.1771(4) 0.5802(6) 0.5565(3)
C39 C -0.1344(5) 0.6528(7) 0.5913(4)
C40 C -0.0730(5) 0.6946(6) 0.5760(4)
C41 C -0.0556(4) 0.6643(5) 0.5263(3)
C42 C -0.0971(3) 0.5883(5) 0.4885(3)
H11 H -0.1759 0.8988 0.2234
H12 H -0.2034 0.9789 0.3308
H13 H -0.1572 1.1189 0.2500
H14 H -0.0910 1.1418 0.3788
H15 H 0.0062 1.1574 0.3016
H16 H 0.0593 1.0489 0.4163
H17 H 0.0905 0.9670 0.3095
H18 H -0.0216 0.8096 0.2605
H19 H -0.0432 1.0107 0.2068
H20 H -0.0706 0.9361 0.4325
H44 H 0.0612 0.8490 0.4985
H45 H 0.1360 0.8704 0.4812
H46 H 0.1216 0.7626 0.5038
H47 H 0.0925 0.7060 0.3288
H48 H 0.1424 0.6680 0.3917
H49 H 0.1570 0.7755 0.3689
H50 H -0.1108 0.6592 0.2606
H51 H -0.1946 0.6969 0.2515
H52 H -0.1657 0.5971 0.2873
H53 H -0.1791 0.7867 0.4189
H54 H -0.2110 0.6818 0.3911
H55 H -0.2389 0.7818 0.3551
H56 H 0.0309 0.6062 0.4583
H57 H 0.0023 0.5582 0.3943
H58 H -0.0653 0.4573 0.3396
H59 H -0.1382 0.3337 0.2861
H60 H -0.2446 0.2731 0.3090
H61 H -0.2742 0.3328 0.3911
H62 H -0.2458 0.4449 0.4776
H63 H -0.2179 0.5522 0.5669
H64 H -0.1457 0.6748 0.6253
H65 H -0.0433 0.7443 0.6003
H66 H -0.0148 0.6949 0.5171
loop_
_geom_bond_atom_site_label_1
_geom_bond_atom_site_label_2
_geom_bond_site_symmetry_1
_geom_bond_site_symmetry_2
Si1 N1 1_555 1_555
Si2 N1 1_555 1_555
Si3 N2 1_555 1_555
Si4 N2 1_555 1_555
N1 C7 1_555 1_555
N2 C28 1_555 1_555
B1 B2 1_555 1_555
B2 B3 1_555 1_555
B3 B1 1_555 1_555
B4 B2 1_555 1_555
B5 B3 1_555 1_555
B6 B4 1_555 1_555
B7 B5 1_555 1_555
B8 B1 1_555 1_555
B9 B2 1_555 1_555
B10 B1 1_555 1_555
B11 B12 1_555 1_555
B12 B13 1_555 1_555
B13 B11 1_555 1_555
B14 B12 1_555 1_555
B15 B13 1_555 1_555
B16 B14 1_555 1_555
B17 B15 1_555 1_555
B18 B11 1_555 1_555
B19 B11 1_555 1_555
B20 B12 1_555 1_555
C1 Si1 1_555 1_555
C2 Si2 1_555 1_555
C3 Si1 1_555 1_555
C4 Si1 1_555 1_555
C5 Si2 1_555 1_555
C6 Si2 1_555 1_555
C7 C8 1_555 1_555
C8 C9 1_555 1_555
C9 C10 1_555 1_555
C10 C11 1_555 1_555
C11 C12 1_555 1_555
C12 C13 1_555 1_555
C13 C14 1_555 1_555
C14 C9 1_555 1_555
C15 C14 1_555 1_555
C16 C15 1_555 1_555
C17 C16 1_555 1_555
C18 C17 1_555 1_555
C19 C18 1_555 1_555
C20 C19 1_555 1_555
C21 C8 1_555 1_555
C22 Si3 1_555 1_555
C23 Si4 1_555 1_555
C24 Si3 1_555 1_555
C25 Si3 1_555 1_555
C26 Si4 1_555 1_555
C27 Si4 1_555 1_555
C28 C29 1_555 1_555
C29 C30 1_555 1_555
C30 C31 1_555 1_555
C31 C32 1_555 1_555
C32 C33 1_555 1_555
C33 C34 1_555 1_555
C34 C35 1_555 1_555
C35 C30 1_555 1_555
C36 C35 1_555 1_555
C37 C36 1_555 1_555
C38 C37 1_555 1_555
C39 C38 1_555 1_555
C40 C39 1_555 1_555
C41 C40 1_555 1_555
C42 C29 1_555 1_555
H1 B1 1_555 1_555
H2 B2 1_555 1_555
H3 B3 1_555 1_555
H4 B4 1_555 1_555
H5 B5 1_555 1_555
H6 B6 1_555 1_555
H7 B7 1_555 1_555
H8 B8 1_555 1_555
H9 B9 1_555 1_555
H10 B10 1_555 1_555
H11 B11 1_555 1_555
H12 B12 1_555 1_555
H13 B13 1_555 1_555
H14 B14 1_555 1_555
H15 B15 1_555 1_555
H16 B16 1_555 1_555
H17 B17 1_555 1_555
H18 B18 1_555 1_555
H19 B19 1_555 1_555
H20 B20 1_555 1_555
H21 C3 1_555 1_555
H22 C3 1_555 1_555
H23 C3 1_555 1_555
H24 C4 1_555 1_555
H25 C4 1_555 1_555
H26 C4 1_555 1_555
H27 C5 1_555 1_555
H28 C5 1_555 1_555
H29 C5 1_555 1_555
H30 C6 1_555 1_555
H31 C6 1_555 1_555
H32 C6 1_555 1_555
H33 C7 1_555 1_555
H34 C7 1_555 1_555
H35 C10 1_555 1_555
H36 C11 1_555 1_555
H37 C12 1_555 1_555
H38 C13 1_555 1_555
H39 C15 1_555 1_555
H40 C17 1_555 1_555
H41 C18 1_555 1_555
H42 C19 1_555 1_555
H43 C20 1_555 1_555
H44 C24 1_555 1_555
H45 C24 1_555 1_555
H46 C24 1_555 1_555
H47 C25 1_555 1_555
H48 C25 1_555 1_555
H49 C25 1_555 1_555
H50 C26 1_555 1_555
H51 C26 1_555 1_555
H52 C26 1_555 1_555
H53 C27 1_555 1_555
H54 C27 1_555 1_555
H55 C27 1_555 1_555
H56 C28 1_555 1_555
H57 C28 1_555 1_555
H58 C31 1_555 1_555
H59 C32 1_555 1_555
H60 C33 1_555 1_555
H61 C34 1_555 1_555
H62 C36 1_555 1_555
H63 C38 1_555 1_555
H64 C39 1_555 1_555
H65 C40 1_555 1_555
H66 C41 1_555 1_555
B1 C2 1_555 1_555
B2 C2 1_555 1_555
B3 B4 1_555 1_555
B3 B10 1_555 1_555
B4 B9 1_555 1_555
B4 B5 1_555 1_555
B5 B6 1_555 1_555
B5 B10 1_555 1_555
B6 B7 1_555 1_555
B6 C1 1_555 1_555
B6 B9 1_555 1_555
B7 B8 1_555 1_555
B7 B10 1_555 1_555
B7 C1 1_555 1_555
B8 C1 1_555 1_555
B8 B10 1_555 1_555
B8 C2 1_555 1_555
B9 C1 1_555 1_555
B9 C2 1_555 1_555
B11 C23 1_555 1_555
B12 C23 1_555 1_555
B13 B14 1_555 1_555
B13 B19 1_555 1_555
B14 B20 1_555 1_555
B14 B15 1_555 1_555
B15 B16 1_555 1_555
B15 B19 1_555 1_555
B16 B17 1_555 1_555
B16 C22 1_555 1_555
B16 B20 1_555 1_555
B17 B18 1_555 1_555
B17 B19 1_555 1_555
B17 C22 1_555 1_555
B18 C22 1_555 1_555
B18 B19 1_555 1_555
B18 C23 1_555 1_555
B20 C22 1_555 1_555
B20 C23 1_555 1_555
C1 C2 1_555 1_555
C16 C21 1_555 1_555
C20 C21 1_555 1_555
C22 C23 1_555 1_555
C37 C42 1_555 1_555
C41 C42 1_555 1_555

#END
