
#######################################################################
#
#                 Cambridge Crystallographic Data Centre
#                                CCDC 
#
#######################################################################
#
# If this CIF has been generated from an entry in the Cambridge 
# Structural Database, then it will include bibliographic, chemical, 
# crystal, experimental, refinement or atomic coordinate data resulting 
# from the CCDC's data processing and validation procedures.
#
#######################################################################

data_MICXEC
_chemical_formula_moiety         'C18 H18 O2'
_chemical_name_systematic        
(2S,3S)-2-Methyl-2-((2S,3S)-2-methyl-3-phenyloxiran-2-yl)-3-phenyloxirane
_symmetry_cell_setting           monoclinic
_symmetry_space_group_name_H-M   'C 2'
_symmetry_Int_Tables_number      5
_space_group_name_Hall           'C 2y'
loop_
_symmetry_equiv_pos_site_id
_symmetry_equiv_pos_as_xyz
1 x,y,z
2 -x,y,-z
3 1/2+x,1/2+y,z
4 1/2-x,1/2+y,-z
_cell_length_a                   15.243(3)
_cell_length_b                   8.861(2)
_cell_length_c                   12.800(3)
_cell_angle_alpha                90
_cell_angle_beta                 122.77(3)
_cell_angle_gamma                90
_cell_volume                     1453.72
_exptl_crystal_colour            colorless
_exptl_crystal_description       prism
_chemical_melting_point          '103-104 deg.C'
_cell_formula_units_Z            4
loop_
_atom_site_label
_atom_site_type_symbol
_atom_site_fract_x
_atom_site_fract_y
_atom_site_fract_z
C1 C 1.1231(2) 1.2660(4) 0.1325(3)
H1 H 1.1171 1.3414 0.0730
H2 H 1.1865 1.2061 0.1627
H3 H 1.1268 1.3170 0.2027
C2 C 1.03067(19) 1.1654(3) 0.0707(2)
C3 C 1.0230(3) 1.0416(4) 0.1418(3)
H4 H 1.0851 1.0316 0.2286
C4 C 0.9603(3) 0.9015(4) 0.0911(3)
C5 C 1.0070(3) 0.7631(4) 0.1388(3)
H5 H 1.0789 0.7583 0.2029
C6 C 0.9499(4) 0.6327(4) 0.0939(4)
H6 H 0.9829 0.5383 0.1272
C7 C 0.8459(4) 0.6366(4) 0.0017(6)
H7 H 0.8072 0.5456 -0.0296
C8 C 0.7985(3) 0.7731(5) -0.0447(5)
H8 H 0.7263 0.7769 -0.1075
C9 C 0.8552(3) 0.9056(4) -0.0008(4)
H9 H 0.8217 0.9998 -0.0339
O1 O 0.96512(17) 1.1800(3) 0.11869(19)
C1A C 0.8769(2) 1.2660(4) -0.1325(3)
H1A H 0.8829 1.3414 -0.0730
H2A H 0.8135 1.2061 -0.1627
H3A H 0.8732 1.3170 -0.2027
C2A C 0.96933(19) 1.1654(3) -0.0707(2)
C3A C 0.9770(3) 1.0416(4) -0.1418(3)
H4A H 0.9149 1.0316 -0.2286
C4A C 1.0397(3) 0.9015(4) -0.0911(3)
C5A C 0.9930(3) 0.7631(4) -0.1388(3)
H5A H 0.9211 0.7583 -0.2029
C6A C 1.0501(4) 0.6327(4) -0.0939(4)
H6A H 1.0171 0.5383 -0.1272
C7A C 1.1541(4) 0.6366(4) -0.0017(6)
H7A H 1.1928 0.5456 0.0296
C8A C 1.2015(3) 0.7731(5) 0.0447(5)
H8A H 1.2737 0.7769 0.1075
C9A C 1.1448(3) 0.9056(4) 0.0008(4)
H9A H 1.1783 0.9998 0.0339
O1A O 1.03488(17) 1.1800(3) -0.11869(19)
C10 C 0.5145(2) -0.1225(4) 0.3757(3)
H10 H 0.5594 -0.1982 0.4377
H11 H 0.5555 -0.0637 0.3519
H12 H 0.4571 -0.1731 0.3023
C11 C 0.47117(18) -0.0195(3) 0.4296(2)
C12 C 0.40046(19) 0.1044(3) 0.3512(2)
H13 H 0.3904 0.1112 0.2673
C13 C 0.37892(15) 0.2479(3) 0.39354(19)
C14 C 0.38308(19) 0.3817(4) 0.3405(3)
H14 H 0.4028 0.3805 0.2817
C15 C 0.3585(2) 0.5177(3) 0.3728(4)
H15 H 0.3631 0.6096 0.3378
C16 C 0.3274(2) 0.5185(3) 0.4566(3)
H16 H 0.3094 0.6109 0.4781
C17 C 0.32258(18) 0.3848(4) 0.5087(3)
H17 H 0.3015 0.3855 0.5662
C18 C 0.34816(17) 0.2505(3) 0.4777(2)
H18 H 0.3448 0.1590 0.5141
O2 O 0.35956(13) -0.0328(2) 0.37051(17)
C10A C 0.4855(2) -0.1225(4) 0.6243(3)
H10A H 0.4406 -0.1982 0.5623
H11A H 0.4445 -0.0637 0.6481
H12A H 0.5429 -0.1731 0.6977
C11A C 0.52883(18) -0.0195(3) 0.5704(2)
C12A C 0.59954(19) 0.1044(3) 0.6488(2)
H13A H 0.6096 0.1112 0.7327
C13A C 0.62108(15) 0.2479(3) 0.60646(19)
C14A C 0.61692(19) 0.3817(4) 0.6595(3)
H14A H 0.5972 0.3805 0.7183
C15A C 0.6415(2) 0.5177(3) 0.6272(4)
H15A H 0.6369 0.6096 0.6622
C16A C 0.6726(2) 0.5185(3) 0.5434(3)
H16A H 0.6906 0.6109 0.5219
C17A C 0.67742(18) 0.3848(4) 0.4913(3)
H17A H 0.6985 0.3855 0.4338
C18A C 0.65184(17) 0.2505(3) 0.5223(2)
H18A H 0.6552 0.1590 0.4859
O2A O 0.64044(13) -0.0328(2) 0.62949(17)
loop_
_geom_bond_atom_site_label_1
_geom_bond_atom_site_label_2
_geom_bond_site_symmetry_1
_geom_bond_site_symmetry_2
C1 H1 1_555 1_555
H2 C1 1_555 1_555
H3 C1 1_555 1_555
C2 C1 1_555 1_555
C3 C2 1_555 1_555
H4 C3 1_555 1_555
C4 C3 1_555 1_555
C5 C4 1_555 1_555
H5 C5 1_555 1_555
C6 C5 1_555 1_555
H6 C6 1_555 1_555
C7 C6 1_555 1_555
H7 C7 1_555 1_555
C8 C7 1_555 1_555
H8 C8 1_555 1_555
C9 C4 1_555 1_555
H9 C9 1_555 1_555
C10 H10 1_555 1_555
H11 C10 1_555 1_555
H12 C10 1_555 1_555
C11 C10 1_555 1_555
C12 C11 1_555 1_555
H13 C12 1_555 1_555
C13 C12 1_555 1_555
C14 C13 1_555 1_555
H14 C14 1_555 1_555
C15 C14 1_555 1_555
H15 C15 1_555 1_555
C16 C15 1_555 1_555
H16 C16 1_555 1_555
C17 C16 1_555 1_555
H17 C17 1_555 1_555
C18 C13 1_555 1_555
H18 C18 1_555 1_555
O1 C2 1_555 1_555
O2 C11 1_555 1_555
C1A H1A 1_555 1_555
H2A C1A 1_555 1_555
H3A C1A 1_555 1_555
C2A C2 1_555 1_555
C3A C2A 1_555 1_555
H4A C3A 1_555 1_555
C4A C3A 1_555 1_555
C5A C4A 1_555 1_555
H5A C5A 1_555 1_555
C6A C5A 1_555 1_555
H6A C6A 1_555 1_555
C7A C6A 1_555 1_555
H7A C7A 1_555 1_555
C8A C7A 1_555 1_555
H8A C8A 1_555 1_555
C9A C4A 1_555 1_555
H9A C9A 1_555 1_555
C10A H10A 1_555 1_555
H11A C10A 1_555 1_555
H12A C10A 1_555 1_555
C11A C11 1_555 1_555
C12A C11A 1_555 1_555
H13A C12A 1_555 1_555
C13A C12A 1_555 1_555
C14A C13A 1_555 1_555
H14A C14A 1_555 1_555
C15A C14A 1_555 1_555
H15A C15A 1_555 1_555
C16A C15A 1_555 1_555
H16A C16A 1_555 1_555
C17A C16A 1_555 1_555
H17A C17A 1_555 1_555
C18A C13A 1_555 1_555
H18A C18A 1_555 1_555
O1A C2A 1_555 1_555
O2A C11A 1_555 1_555
C3 O1 1_555 1_555
C8 C9 1_555 1_555
C12 O2 1_555 1_555
C17 C18 1_555 1_555
C1A C2A 1_555 1_555
C3A O1A 1_555 1_555
C8A C9A 1_555 1_555
C10A C11A 1_555 1_555
C12A O2A 1_555 1_555
C17A C18A 1_555 1_555

#END
