
#######################################################################
#
#                 Cambridge Crystallographic Data Centre
#                                CCDC 
#
#######################################################################
#
# If this CIF has been generated from an entry in the Cambridge 
# Structural Database, then it will include bibliographic, chemical, 
# crystal, experimental, refinement or atomic coordinate data resulting 
# from the CCDC's data processing and validation procedures.
#
#######################################################################

data_MIDDIP
_chemical_formula_moiety         'C16 H10,C12 H2 F1 N4'
_chemical_name_systematic        
"2,2'-(2-fluorocyclohexa-2,5-diene-1,4-diylidene)dipropanedinitrile pyrene"
_symmetry_cell_setting           monoclinic
_symmetry_space_group_name_H-M   'P 21/n'
_symmetry_Int_Tables_number      14
_space_group_name_Hall           '-P 2yn'
loop_
_symmetry_equiv_pos_site_id
_symmetry_equiv_pos_as_xyz
1 x,y,z
2 1/2-x,1/2+y,1/2-z
3 -x,-y,-z
4 1/2+x,1/2-y,1/2+z
_cell_length_a                   8.973(3)
_cell_length_b                   26.857(10)
_cell_length_c                   17.476(6)
_cell_angle_alpha                90
_cell_angle_beta                 100.268(5)
_cell_angle_gamma                90
_cell_volume                     4144.06
_exptl_crystal_colour            black
_exptl_crystal_description       prism
_cell_formula_units_Z            8
loop_
_atom_site_label
_atom_site_type_symbol
_atom_site_fract_x
_atom_site_fract_y
_atom_site_fract_z
F1 F 0.9115(6) 0.5807(2) 0.8944(3)
N1 N 0.7078(6) 0.5808(2) 1.0198(3)
C1 C 0.6616(8) 0.5817(2) 0.9532(4)
N2 N 1.2005(8) 0.5690(2) 0.6432(3)
C2 C 0.5912(8) 0.5829(2) 0.8720(4)
N3 N 0.2951(8) 0.5754(2) 0.8472(4)
C3 C 0.4261(9) 0.5796(2) 0.8572(4)
N4 N 0.7813(7) 0.5832(2) 0.4740(4)
C4 C 0.6702(7) 0.5842(2) 0.8099(4)
C5 C 0.9113(7) 0.5814(2) 0.7623(4)
H1 H 1.0188 0.5797 0.7725
C6 C 0.8335(7) 0.5822(2) 0.8210(4)
C7 C 0.8290(7) 0.5831(2) 0.6826(4)
C8 C 0.9087(8) 0.5810(2) 0.6209(4)
C9 C 1.0705(9) 0.5747(2) 0.6339(4)
C10 C 0.8376(8) 0.5826(2) 0.5406(5)
C11 C 0.5891(7) 0.5870(2) 0.7298(3)
H2 H 0.4816 0.5888 0.7200
C12 C 0.6645(8) 0.5869(2) 0.6693(4)
F3 F 0.2397(7) 0.6646(2) 0.1237(4)
N5 N 0.8513(7) 0.6790(2) 0.1693(3)
N6 N 0.4383(7) 0.6700(2) -0.0017(3)
N7 N -0.0521(7) 0.6746(2) 0.3727(3)
N8 N 0.3653(7) 0.6650(2) 0.5442(4)
C13 C 0.2378(7) 0.6646(2) 0.2551(3)
H3 H 0.1303 0.6634 0.2444
C14 C 0.4863(7) 0.6699(2) 0.0644(4)
C15 C 0.7186(9) 0.6748(2) 0.1582(4)
C16 C 0.5567(8) 0.6701(2) 0.1446(4)
C17 C 0.4800(7) 0.6672(2) 0.2081(4)
C18 C 0.3169(8) 0.6654(2) 0.1964(4)
C19 C 0.3180(8) 0.6656(2) 0.3339(3)
C20 C 0.2404(8) 0.6665(2) 0.3964(4)
C21 C 0.0777(9) 0.6700(2) 0.3842(4)
C22 C 0.3128(8) 0.6656(2) 0.4779(5)
C23 C 0.4836(7) 0.6656(2) 0.3475(4)
C24 C 0.5618(8) 0.6667(2) 0.2874(4)
H4 H 0.6694 0.6672 0.2975
C25 C 0.2319(8) 0.7872(2) 0.0920(4)
H5 H 0.1371 0.7835 0.0583
C26 C 0.3637(8) 0.7919(2) 0.0612(4)
H6 H 0.3579 0.7923 0.0064
C27 C 0.5039(8) 0.7962(2) 0.1096(4)
H7 H 0.5928 0.7982 0.0872
C28 C 0.5170(8) 0.7975(2) 0.1914(4)
C29 C 0.6585(8) 0.8021(2) 0.2434(4)
H8 H 0.7487 0.8048 0.2223
C30 C 0.6689(8) 0.8029(2) 0.3222(4)
H9 H 0.7653 0.8060 0.3547
C31 C 0.5337(8) 0.7991(2) 0.3567(4)
C32 C 0.5417(8) 0.8009(2) 0.4384(4)
H10 H 0.6370 0.8043 0.4718
C33 C 0.4090(9) 0.7975(2) 0.4697(4)
H11 H 0.4147 0.7989 0.5245
C34 C 0.2684(9) 0.7922(2) 0.4213(4)
H12 H 0.1793 0.7899 0.4434
C35 C 0.2573(8) 0.7902(2) 0.3397(4)
C36 C 0.1149(9) 0.7843(2) 0.2876(4)
H13 H 0.0252 0.7810 0.3089
C37 C 0.1042(8) 0.7833(2) 0.2095(4)
H14 H 0.0077 0.7796 0.1773
C38 C 0.2388(8) 0.7878(2) 0.1742(4)
C39 C 0.3809(8) 0.7919(2) 0.2236(4)
C40 C 0.3916(8) 0.7933(2) 0.3067(4)
C41 C -0.0194(9) 0.5491(2) 0.2693(4)
H15 H -0.1092 0.5518 0.2908
C42 C -0.0318(8) 0.5492(2) 0.1899(4)
H16 H -0.1287 0.5507 0.1574
C43 C 0.1040(8) 0.5470(2) 0.1560(4)
C44 C 0.0963(9) 0.5484(2) 0.0745(4)
H17 H 0.0009 0.5510 0.0410
C45 C 0.2299(9) 0.5461(2) 0.0431(4)
H18 H 0.2242 0.5470 -0.0117
C46 C 0.3690(8) 0.5424(2) 0.0911(4)
H19 H 0.4578 0.5412 0.0686
C47 C 0.3833(8) 0.5405(2) 0.1728(4)
C48 C 0.5273(8) 0.5371(2) 0.2247(4)
H20 H 0.6173 0.5356 0.2032
C49 C 0.5383(8) 0.5359(2) 0.3031(4)
H21 H 0.6350 0.5332 0.3354
C50 C 0.4028(8) 0.5389(2) 0.3383(4)
C51 C 0.4110(8) 0.5390(2) 0.4195(4)
H22 H 0.5068 0.5374 0.4529
C52 C 0.2773(8) 0.5415(2) 0.4513(4)
H23 H 0.2837 0.5412 0.5061
C53 C 0.1356(8) 0.5446(2) 0.4031(4)
H24 H 0.0470 0.5463 0.4258
C54 C 0.1218(8) 0.5452(2) 0.3211(4)
C55 C 0.2586(8) 0.5421(2) 0.2892(4)
C56 C 0.2474(8) 0.5428(2) 0.2055(4)
F2? F 0.5896(14) 0.5874(4) 0.5972(7)
F4? F 0.5610(10) 0.6676(3) 0.4199(6)
loop_
_geom_bond_atom_site_label_1
_geom_bond_atom_site_label_2
_geom_bond_site_symmetry_1
_geom_bond_site_symmetry_2
F1 C6 1_555 1_555
N1 C1 1_555 1_555
C1 C2 1_555 1_555
N2 C9 1_555 1_555
C2 C3 1_555 1_555
N3 C3 1_555 1_555
N4 C10 1_555 1_555
C4 C2 1_555 1_555
C5 H1 1_555 1_555
C6 C4 1_555 1_555
C7 C5 1_555 1_555
C8 C7 1_555 1_555
C9 C8 1_555 1_555
C10 C8 1_555 1_555
C11 C4 1_555 1_555
H2 C11 1_555 1_555
C12 C7 1_555 1_555
F3 C18 1_555 1_555
N5 C15 1_555 1_555
N6 C14 1_555 1_555
N7 C21 1_555 1_555
N8 C22 1_555 1_555
C13 H3 1_555 1_555
C14 C16 1_555 1_555
C15 C16 1_555 1_555
C16 C17 1_555 1_555
C17 C18 1_555 1_555
C18 C13 1_555 1_555
C19 C13 1_555 1_555
C20 C19 1_555 1_555
C21 C20 1_555 1_555
C22 C20 1_555 1_555
C23 C19 1_555 1_555
C24 C17 1_555 1_555
H4 C24 1_555 1_555
C25 H5 1_555 1_555
C26 C25 1_555 1_555
H6 C26 1_555 1_555
C27 C26 1_555 1_555
H7 C27 1_555 1_555
C28 C27 1_555 1_555
C29 C28 1_555 1_555
H8 C29 1_555 1_555
C30 C29 1_555 1_555
H9 C30 1_555 1_555
C31 C30 1_555 1_555
C32 C31 1_555 1_555
H10 C32 1_555 1_555
C33 C32 1_555 1_555
H11 C33 1_555 1_555
C34 C33 1_555 1_555
H12 C34 1_555 1_555
C35 C34 1_555 1_555
C36 C35 1_555 1_555
H13 C36 1_555 1_555
C37 C36 1_555 1_555
H14 C37 1_555 1_555
C38 C25 1_555 1_555
C39 C28 1_555 1_555
C40 C31 1_555 1_555
C41 H15 1_555 1_555
C42 C41 1_555 1_555
H16 C42 1_555 1_555
C43 C42 1_555 1_555
C44 C43 1_555 1_555
H17 C44 1_555 1_555
C45 C44 1_555 1_555
H18 C45 1_555 1_555
C46 C45 1_555 1_555
H19 C46 1_555 1_555
C47 C46 1_555 1_555
C48 C47 1_555 1_555
H20 C48 1_555 1_555
C49 C48 1_555 1_555
H21 C49 1_555 1_555
C50 C49 1_555 1_555
C51 C50 1_555 1_555
H22 C51 1_555 1_555
C52 C51 1_555 1_555
H23 C52 1_555 1_555
C53 C52 1_555 1_555
H24 C53 1_555 1_555
C54 C41 1_555 1_555
C55 C50 1_555 1_555
C56 C43 1_555 1_555
C5 C6 1_555 1_555
C11 C12 1_555 1_555
C23 C24 1_555 1_555
C35 C40 1_555 1_555
C37 C38 1_555 1_555
C38 C39 1_555 1_555
C39 C40 1_555 1_555
C47 C56 1_555 1_555
C53 C54 1_555 1_555
C54 C55 1_555 1_555
C55 C56 1_555 1_555

#END
