
#######################################################################
#
#                 Cambridge Crystallographic Data Centre
#                                CCDC 
#
#######################################################################
#
# If this CIF has been generated from an entry in the Cambridge 
# Structural Database, then it will include bibliographic, chemical, 
# crystal, experimental, refinement or atomic coordinate data resulting 
# from the CCDC's data processing and validation procedures.
#
#######################################################################

data_MIDJUH
_chemical_compound_source        'leaves of Acronychia oligophlebia'
_chemical_name_common            'Acrolione A'
_chemical_formula_moiety         'C19 H26 O4'
_chemical_name_systematic        
1-[7-hydroxy-5-methoxy-2,2-dimethyl-8-(3-methylbut-2-en-1-yl)-3,4-dihydro-2H-1-benzopyran-6-yl]ethan-1-one
_symmetry_cell_setting           triclinic
_symmetry_space_group_name_H-M   'P -1'
_symmetry_Int_Tables_number      2
_space_group_name_Hall           '-P 1'
loop_
_symmetry_equiv_pos_site_id
_symmetry_equiv_pos_as_xyz
1 x,y,z
2 -x,-y,-z
_cell_length_a                   8.9003(5)
_cell_length_b                   9.1647(7)
_cell_length_c                   12.2167(4)
_cell_angle_alpha                80.538(4)
_cell_angle_beta                 79.617(4)
_cell_angle_gamma                68.297(6)
_cell_volume                     905.475
_exptl_crystal_colour            colorless
_exptl_crystal_description       block
_cell_formula_units_Z            2
_exptl_crystal_recrystallization_method methanol
loop_
_atom_site_label
_atom_site_type_symbol
_atom_site_fract_x
_atom_site_fract_y
_atom_site_fract_z
C1 C 0.1920(3) 0.1549(3) 0.4039(2)
C2 C -0.0963(3) 0.1883(3) 0.4137(2)
O1 O -0.2791(2) 0.2770(3) 0.57170(18)
H1 H -0.2827 0.3043 0.6330
C3 C 0.0036(3) 0.2398(3) 0.5729(2)
C4 C -0.1241(3) 0.2345(3) 0.5197(2)
O2 O 0.2890(2) 0.2029(2) 0.55574(18)
C5 C 0.0610(3) 0.1506(3) 0.3566(2)
O3 O 0.0806(3) 0.1073(3) 0.25229(16)
C6 C 0.1593(3) 0.1996(3) 0.5100(2)
C7 C -0.0340(4) 0.2824(4) 0.6878(3)
C8 C -0.2361(3) 0.1854(3) 0.3603(2)
H2 H -0.1941 0.1077 0.3068
H3 H -0.3123 0.1538 0.4176
O4 O -0.1767(3) 0.3340(4) 0.7317(2)
C9 C 0.3627(4) 0.1076(4) 0.3408(3)
H4 H 0.3918 0.2009 0.3161
H5 H 0.4394 0.0376 0.3903
C10 C -0.3236(3) 0.3434(3) 0.3020(2)
H6 H -0.3748 0.4244 0.3477
C11 C 0.2279(5) 0.1077(5) 0.1772(3)
C12 C 0.3738(4) 0.0254(5) 0.2409(3)
H7 H 0.3805 -0.0827 0.2658
H8 H 0.4727 0.0223 0.1911
C13 C -0.3381(4) 0.3834(4) 0.1945(2)
C14 C 0.3187(4) 0.3486(4) 0.5248(4)
H9 H 0.3276 0.3722 0.4449
H10 H 0.4184 0.3391 0.5500
H11 H 0.2300 0.4322 0.5588
C15 C 0.2313(7) 0.0136(7) 0.0844(4)
H12 H 0.2418 -0.0926 0.1150
H13 H 0.3222 0.0121 0.0282
H14 H 0.1318 0.0621 0.0514
C16 C -0.4286(5) 0.5520(5) 0.1520(3)
H15 H -0.4686 0.6153 0.2135
H16 H -0.5187 0.5562 0.1171
H17 H -0.3562 0.5920 0.0984
C17 C 0.0948(6) 0.2610(6) 0.7600(3)
H18 H 0.1789 0.1595 0.7528
H19 H 0.0465 0.2677 0.8367
H20 H 0.1412 0.3423 0.7364
C18 C 0.2070(7) 0.2785(6) 0.1355(4)
H21 H 0.1105 0.3261 0.0992
H22 H 0.3002 0.2827 0.0833
H23 H 0.1969 0.3348 0.1977
C19 C -0.2717(8) 0.2681(7) 0.1096(4)
H24 H -0.2111 0.1664 0.1445
H25 H -0.2012 0.3030 0.0509
H26 H -0.3601 0.2605 0.0787
loop_
_geom_bond_atom_site_label_1
_geom_bond_atom_site_label_2
_geom_bond_site_symmetry_1
_geom_bond_site_symmetry_2
C1 C5 1_555 1_555
C2 C4 1_555 1_555
O1 H1 1_555 1_555
C3 C4 1_555 1_555
C4 O1 1_555 1_555
O2 C6 1_555 1_555
C5 C2 1_555 1_555
O3 C5 1_555 1_555
C6 C1 1_555 1_555
C7 C3 1_555 1_555
C8 C2 1_555 1_555
H2 C8 1_555 1_555
H3 C8 1_555 1_555
O4 C7 1_555 1_555
C9 C1 1_555 1_555
H4 C9 1_555 1_555
H5 C9 1_555 1_555
C10 C8 1_555 1_555
H6 C10 1_555 1_555
C11 O3 1_555 1_555
C12 C9 1_555 1_555
H7 C12 1_555 1_555
H8 C12 1_555 1_555
C13 C10 1_555 1_555
C14 O2 1_555 1_555
H9 C14 1_555 1_555
H10 C14 1_555 1_555
H11 C14 1_555 1_555
C15 C11 1_555 1_555
H12 C15 1_555 1_555
H13 C15 1_555 1_555
H14 C15 1_555 1_555
C16 C13 1_555 1_555
H15 C16 1_555 1_555
H16 C16 1_555 1_555
H17 C16 1_555 1_555
C17 C7 1_555 1_555
H18 C17 1_555 1_555
H19 C17 1_555 1_555
H20 C17 1_555 1_555
C18 C11 1_555 1_555
H21 C18 1_555 1_555
H22 C18 1_555 1_555
H23 C18 1_555 1_555
C19 C13 1_555 1_555
H24 C19 1_555 1_555
H25 C19 1_555 1_555
H26 C19 1_555 1_555
C3 C6 1_555 1_555
C11 C12 1_555 1_555

#END
