
#######################################################################
#
#                 Cambridge Crystallographic Data Centre
#                                CCDC 
#
#######################################################################
#
# If this CIF has been generated from an entry in the Cambridge 
# Structural Database, then it will include bibliographic, chemical, 
# crystal, experimental, refinement or atomic coordinate data resulting 
# from the CCDC's data processing and validation procedures.
#
#######################################################################

data_MIDJEP
_chemical_formula_moiety         'C20 H18 N4'
_chemical_name_systematic        2,2'-bis(Imidazolylmethyl)biphenyl
_symmetry_cell_setting           orthorhombic
_symmetry_space_group_name_H-M   'P b c a'
_symmetry_Int_Tables_number      61
_space_group_name_Hall           '-P 2ac 2ab'
loop_
_symmetry_equiv_pos_site_id
_symmetry_equiv_pos_as_xyz
1 x,y,z
2 1/2-x,-y,1/2+z
3 -x,1/2+y,1/2-z
4 1/2+x,1/2-y,-z
5 -x,-y,-z
6 1/2+x,y,1/2-z
7 x,1/2-y,1/2+z
8 1/2-x,1/2+y,z
_cell_length_a                   8.016(2)
_cell_length_b                   17.683(4)
_cell_length_c                   47.829(12)
_cell_angle_alpha                90
_cell_angle_beta                 90
_cell_angle_gamma                90
_cell_volume                     6779.61
_exptl_crystal_colour            colorless
_exptl_crystal_description       block
_cell_formula_units_Z            16
_exptl_crystal_recrystallization_method dichloromethane/n-heptane
loop_
_atom_site_label
_atom_site_type_symbol
_atom_site_fract_x
_atom_site_fract_y
_atom_site_fract_z
N1 N 0.1014(2) 0.22405(9) 0.22494(3)
N2 N 0.2784(2) 0.31553(9) 0.21475(3)
N3 N 0.4153(2) 0.52789(9) 0.15933(3)
N4 N 0.1675(3) 0.48164(10) 0.14818(4)
C1 C 0.1380(3) 0.32883(12) 0.19995(4)
H1 H 0.1192 0.3687 0.1877
C2 C 0.0303(3) 0.27299(12) 0.20643(4)
H2 H -0.0771 0.2685 0.1993
C3 C 0.2508(3) 0.25154(12) 0.22920(4)
H3 H 0.3292 0.2293 0.2409
C4 C 0.4340(3) 0.35749(11) 0.21310(4)
H4 H 0.4989 0.3473 0.2298
H5 H 0.4088 0.4111 0.2128
C5 C 0.5385(2) 0.33861(11) 0.18777(4)
C6 C 0.5059(3) 0.27453(11) 0.17194(4)
H6 H 0.4199 0.2422 0.1772
C7 C 0.5993(3) 0.25814(11) 0.14853(4)
H7 H 0.5752 0.2154 0.1379
C8 C 0.7273(3) 0.30478(12) 0.14092(4)
H8 H 0.7906 0.2939 0.1251
C9 C 0.7625(2) 0.36802(10) 0.15671(4)
H9 H 0.8514 0.3989 0.1516
C10 C 0.6682(2) 0.38638(10) 0.17992(4)
C11 C 0.7109(2) 0.45604(10) 0.19613(4)
C12 C 0.7891(2) 0.44966(11) 0.22169(4)
H10 H 0.8076 0.4017 0.2291
C13 C 0.8408(3) 0.51217(14) 0.23667(4)
H11 H 0.8935 0.5062 0.2539
C14 C 0.8139(3) 0.58312(13) 0.22597(5)
H12 H 0.8504 0.6256 0.2357
C15 C 0.7331(3) 0.59111(11) 0.20092(5)
H13 H 0.7120 0.6394 0.1941
C16 C 0.6817(2) 0.52854(11) 0.18549(4)
C17 C 0.5951(2) 0.54128(10) 0.15801(4)
H14 H 0.6147 0.5929 0.1520
H15 H 0.6434 0.5079 0.1441
C18 C 0.3026(3) 0.56228(11) 0.17635(4)
H16 H 0.3243 0.5981 0.1901
C19 C 0.1523(3) 0.53352(13) 0.16907(5)
H17 H 0.0517 0.5474 0.1773
C20 C 0.3276(3) 0.48069(11) 0.14301(4)
H18 H 0.3759 0.4503 0.1294
N5 N 0.7471(3) 0.21643(11) 0.02604(4)
N6 N 0.5165(2) 0.27069(9) 0.04119(3)
N7 N 0.6471(2) 0.04259(10) 0.08204(3)
N8 N 0.8287(3) -0.04721(10) 0.09152(4)
C21 C 0.5869(3) 0.22461(12) 0.02234(4)
H19 H 0.5277 0.2009 0.0081
C22 C 0.7810(3) 0.26107(13) 0.04865(5)
H20 H 0.8866 0.2677 0.0563
C23 C 0.6413(3) 0.29419(12) 0.05837(4)
H21 H 0.6321 0.3264 0.0737
C24 C 0.3403(3) 0.29284(10) 0.04291(4)
H22 H 0.2801 0.2706 0.0274
H23 H 0.3319 0.3474 0.0413
C25 C 0.2599(2) 0.26817(12) 0.06992(4)
C26 C 0.2271(2) 0.32200(11) 0.09037(4)
H24 H 0.2499 0.3726 0.0867
C27 C 0.1619(3) 0.30205(13) 0.11585(4)
H25 H 0.1406 0.3387 0.1293
C28 C 0.1284(2) 0.22711(13) 0.12124(4)
H26 H 0.0859 0.2129 0.1386
C29 C 0.1577(2) 0.17322(11) 0.10108(4)
H27 H 0.1325 0.1229 0.1049
C30 C 0.2238(2) 0.19217(11) 0.07528(4)
C31 C 0.2533(2) 0.13146(10) 0.05420(4)
C32 C 0.1532(2) 0.12509(11) 0.03071(4)
H28 H 0.0698 0.1607 0.0276
C33 C 0.1744(3) 0.06717(13) 0.01181(4)
H29 H 0.1073 0.0643 -0.0040
C34 C 0.2956(3) 0.01355(12) 0.01648(4)
H30 H 0.3082 -0.0266 0.0041
C35 C 0.3989(3) 0.01912(11) 0.03962(4)
H31 H 0.4818 -0.0168 0.0425
C36 C 0.3791(3) 0.07803(11) 0.05845(4)
C37 C 0.4950(3) 0.08688(11) 0.08340(4)
H32 H 0.5249 0.1398 0.0851
H33 H 0.4346 0.0728 0.1002
C38 C 0.6781(3) -0.02059(13) 0.09622(4)
H34 H 0.6016 -0.0434 0.1082
C39 C 0.8954(3) 0.00151(13) 0.07283(4)
H35 H 1.0019 -0.0026 0.0653
C40 C 0.7859(3) 0.05692(12) 0.06670(5)
H36 H 0.8022 0.0970 0.0544
loop_
_geom_bond_atom_site_label_1
_geom_bond_atom_site_label_2
_geom_bond_site_symmetry_1
_geom_bond_site_symmetry_2
N1 C2 1_555 1_555
N2 C1 1_555 1_555
N3 C17 1_555 1_555
N4 C19 1_555 1_555
N5 C21 1_555 1_555
N6 C21 1_555 1_555
N7 C37 1_555 1_555
N8 C38 1_555 1_555
C1 H1 1_555 1_555
C2 C1 1_555 1_555
H2 C2 1_555 1_555
C3 N1 1_555 1_555
H3 C3 1_555 1_555
C4 N2 1_555 1_555
H4 C4 1_555 1_555
H5 C4 1_555 1_555
C5 C4 1_555 1_555
C6 C5 1_555 1_555
H6 C6 1_555 1_555
C7 C6 1_555 1_555
H7 C7 1_555 1_555
C8 C7 1_555 1_555
H8 C8 1_555 1_555
C9 C8 1_555 1_555
H9 C9 1_555 1_555
C10 C5 1_555 1_555
C11 C10 1_555 1_555
C12 C11 1_555 1_555
H10 C12 1_555 1_555
C13 C12 1_555 1_555
H11 C13 1_555 1_555
C14 C13 1_555 1_555
H12 C14 1_555 1_555
C15 C14 1_555 1_555
H13 C15 1_555 1_555
C16 C11 1_555 1_555
C17 C16 1_555 1_555
H14 C17 1_555 1_555
H15 C17 1_555 1_555
C18 N3 1_555 1_555
H16 C18 1_555 1_555
C19 C18 1_555 1_555
H17 C19 1_555 1_555
C20 N3 1_555 1_555
H18 C20 1_555 1_555
C21 H19 1_555 1_555
C22 N5 1_555 1_555
H20 C22 1_555 1_555
C23 N6 1_555 1_555
H21 C23 1_555 1_555
C24 N6 1_555 1_555
H22 C24 1_555 1_555
H23 C24 1_555 1_555
C25 C24 1_555 1_555
C26 C25 1_555 1_555
H24 C26 1_555 1_555
C27 C26 1_555 1_555
H25 C27 1_555 1_555
C28 C27 1_555 1_555
H26 C28 1_555 1_555
C29 C28 1_555 1_555
H27 C29 1_555 1_555
C30 C25 1_555 1_555
C31 C30 1_555 1_555
C32 C31 1_555 1_555
H28 C32 1_555 1_555
C33 C32 1_555 1_555
H29 C33 1_555 1_555
C34 C33 1_555 1_555
H30 C34 1_555 1_555
C35 C34 1_555 1_555
H31 C35 1_555 1_555
C36 C31 1_555 1_555
C37 C36 1_555 1_555
H32 C37 1_555 1_555
H33 C37 1_555 1_555
C38 N7 1_555 1_555
H34 C38 1_555 1_555
C39 N8 1_555 1_555
H35 C39 1_555 1_555
C40 N7 1_555 1_555
H36 C40 1_555 1_555
N2 C3 1_555 1_555
N4 C20 1_555 1_555
C9 C10 1_555 1_555
C15 C16 1_555 1_555
C22 C23 1_555 1_555
C29 C30 1_555 1_555
C35 C36 1_555 1_555
C39 C40 1_555 1_555

#END
