
#######################################################################
#
#                 Cambridge Crystallographic Data Centre
#                                CCDC 
#
#######################################################################
#
# If this CIF has been generated from an entry in the Cambridge 
# Structural Database, then it will include bibliographic, chemical, 
# crystal, experimental, refinement or atomic coordinate data resulting 
# from the CCDC's data processing and validation procedures.
#
#######################################################################

data_MIDTAX
_chemical_compound_source        
'isolated from the crude extract of corn silk (Zea mays)'
_chemical_name_common            'stigmaydene A'
_chemical_formula_moiety         'C20 H28 O4'
_chemical_name_systematic        '2-hydroxy-18-oxokaur-15-en-17-oic acid'
_symmetry_cell_setting           orthorhombic
_symmetry_space_group_name_H-M   'P 21 21 21'
_symmetry_Int_Tables_number      19
_space_group_name_Hall           'P 2ac 2ab'
loop_
_symmetry_equiv_pos_site_id
_symmetry_equiv_pos_as_xyz
1 x,y,z
2 1/2-x,-y,1/2+z
3 -x,1/2+y,1/2-z
4 1/2+x,1/2-y,-z
_cell_length_a                   8.8766(2)
_cell_length_b                   10.9773(3)
_cell_length_c                   18.1040(5)
_cell_angle_alpha                90
_cell_angle_beta                 90
_cell_angle_gamma                90
_cell_volume                     1764.07
_exptl_crystal_colour            colorless
_exptl_crystal_description       block
_cell_formula_units_Z            4
loop_
_atom_site_label
_atom_site_type_symbol
_atom_site_fract_x
_atom_site_fract_y
_atom_site_fract_z
O1 O 0.7065(4) 0.6873(3) 0.52380(18)
O2 O 0.8263(4) 0.5102(3) 0.5350(2)
H1 H 0.9002 0.5541 0.5405
O3 O 0.4286(4) 0.3618(3) 0.06485(16)
H2 H 0.3916 0.3240 0.0302
C1 C 0.2155(5) 0.4790(4) 0.4009(2)
H3 H 0.2034 0.5631 0.3856
H4 H 0.1693 0.4703 0.4492
C2 C 0.7100(5) 0.5770(4) 0.5151(2)
C3 C 0.4577(4) 0.4372(4) 0.3296(2)
H5 H 0.4560 0.5197 0.3091
C4 C 0.5889(5) 0.5044(4) 0.4821(2)
O4 O 0.0813(5) 0.1459(4) 0.1681(3)
C5 C 0.4711(5) 0.5500(4) 0.4456(2)
H6 H 0.4468 0.6324 0.4439
C6 C 0.3710(4) 0.3587(3) 0.2715(2)
C7 C 0.1326(5) 0.3966(4) 0.3460(2)
H7 H 0.1367 0.3128 0.3629
H8 H 0.0276 0.4206 0.3430
C8 C 0.4422(4) 0.3827(4) 0.1951(2)
H9 H 0.4511 0.4699 0.1878
H10 H 0.5430 0.3486 0.1944
C9 C 0.3809(5) 0.2217(4) 0.2887(3)
H11 H 0.3393 0.1762 0.2483
H12 H 0.3250 0.2043 0.3329
H13 H 0.4844 0.1991 0.2957
C10 C 0.2057(4) 0.4068(3) 0.2697(2)
H14 H 0.2151 0.4945 0.2608
C11 C 0.3822(4) 0.4509(4) 0.4074(2)
C12 C 0.6296(5) 0.4064(4) 0.3372(2)
H15 H 0.6609 0.3639 0.2928
H16 H 0.6850 0.4825 0.3390
C13 C 0.3527(5) 0.3291(4) 0.1320(2)
H17 H 0.3504 0.2401 0.1368
C14 C 0.1941(5) 0.3775(4) 0.1314(2)
H18 H 0.1387 0.3379 0.0919
H19 H 0.1970 0.4640 0.1206
C15 C 0.6768(5) 0.3292(4) 0.4041(3)
H20 H 0.6586 0.2438 0.3936
H21 H 0.7838 0.3396 0.4130
C16 C 0.4226(5) 0.3434(4) 0.4586(2)
H22 H 0.3642 0.3455 0.5038
H23 H 0.4069 0.2658 0.4341
C17 C 0.5886(5) 0.3663(4) 0.4734(2)
H24 H 0.6244 0.3244 0.5179
C18 C 0.1097(5) 0.3582(4) 0.2037(2)
C19 C 0.0651(6) 0.2268(6) 0.2138(3)
H25 H 0.0215 0.2055 0.2587
C20 C -0.0401(5) 0.4261(7) 0.1989(4)
H26 H -0.0217 0.5102 0.1875
H27 H -0.0917 0.4204 0.2454
H28 H -0.1012 0.3905 0.1609
loop_
_geom_bond_atom_site_label_1
_geom_bond_atom_site_label_2
_geom_bond_site_symmetry_1
_geom_bond_site_symmetry_2
O1 C2 1_555 1_555
O2 H1 1_555 1_555
O3 H2 1_555 1_555
C1 H3 1_555 1_555
H4 C1 1_555 1_555
C2 O2 1_555 1_555
C3 H5 1_555 1_555
C4 C2 1_555 1_555
O4 C19 1_555 1_555
C5 C4 1_555 1_555
H6 C5 1_555 1_555
C6 C3 1_555 1_555
C7 C1 1_555 1_555
H7 C7 1_555 1_555
H8 C7 1_555 1_555
C8 C6 1_555 1_555
H9 C8 1_555 1_555
H10 C8 1_555 1_555
C9 C6 1_555 1_555
H11 C9 1_555 1_555
H12 C9 1_555 1_555
H13 C9 1_555 1_555
C10 C6 1_555 1_555
H14 C10 1_555 1_555
C11 C1 1_555 1_555
C12 C3 1_555 1_555
H15 C12 1_555 1_555
H16 C12 1_555 1_555
C13 O3 1_555 1_555
H17 C13 1_555 1_555
C14 C13 1_555 1_555
H18 C14 1_555 1_555
H19 C14 1_555 1_555
C15 C12 1_555 1_555
H20 C15 1_555 1_555
H21 C15 1_555 1_555
C16 C11 1_555 1_555
H22 C16 1_555 1_555
H23 C16 1_555 1_555
C17 C4 1_555 1_555
H24 C17 1_555 1_555
C18 C10 1_555 1_555
C19 C18 1_555 1_555
H25 C19 1_555 1_555
C20 C18 1_555 1_555
H26 C20 1_555 1_555
H27 C20 1_555 1_555
H28 C20 1_555 1_555
C3 C11 1_555 1_555
C5 C11 1_555 1_555
C7 C10 1_555 1_555
C8 C13 1_555 1_555
C14 C18 1_555 1_555
C15 C17 1_555 1_555
C16 C17 1_555 1_555

#END
