
#######################################################################
#
#                 Cambridge Crystallographic Data Centre
#                                CCDC 
#
#######################################################################
#
# If this CIF has been generated from an entry in the Cambridge 
# Structural Database, then it will include bibliographic, chemical, 
# crystal, experimental, refinement or atomic coordinate data resulting 
# from the CCDC's data processing and validation procedures.
#
#######################################################################

data_MIDZAD
_chemical_formula_moiety         'C4 N8 O6'
_chemical_name_systematic        
5,5'-(diazene-1,2-diyl)bis(3-nitro-1,2,4-oxadiazole)
_symmetry_cell_setting           monoclinic
_symmetry_space_group_name_H-M   'P 21/c'
_symmetry_Int_Tables_number      14
_space_group_name_Hall           '-P 2ybc'
loop_
_symmetry_equiv_pos_site_id
_symmetry_equiv_pos_as_xyz
1 x,y,z
2 -x,1/2+y,1/2-z
3 -x,-y,-z
4 x,1/2-y,1/2+z
_cell_length_a                   6.412(4)
_cell_length_b                   4.985(3)
_cell_length_c                   14.336(10)
_cell_angle_alpha                90
_cell_angle_beta                 100.091(18)
_cell_angle_gamma                90
_cell_volume                     451.145
_exptl_crystal_colour            yellow
_exptl_crystal_description       plate
_cell_formula_units_Z            2
loop_
_atom_site_label
_atom_site_type_symbol
_atom_site_fract_x
_atom_site_fract_y
_atom_site_fract_z
C1 C 0.2431(11) 0.3601(14) 0.2472(6)
C2 C 0.3831(11) 0.4481(14) 0.3819(6)
N1 N 0.3733(9) 0.5441(12) 0.2979(5)
N2 N 0.1710(10) 0.1726(13) 0.2941(5)
N3 N 0.1834(10) 0.3813(14) 0.1448(5)
N4 N 0.5051(10) 0.5648(13) 0.4634(5)
O1 O 0.0665(10) 0.2095(14) 0.1073(5)
O2 O 0.2553(10) 0.5672(12) 0.1067(5)
O3 O 0.2668(8) 0.2268(11) 0.3874(4)
C1B C 0.7569(11) 0.6399(14) 0.7528(6)
C2B C 0.6169(11) 0.5519(14) 0.6181(6)
N1B N 0.6267(9) 0.4559(12) 0.7021(5)
N2B N 0.8290(10) 0.8274(13) 0.7059(5)
N3B N 0.8166(10) 0.6187(14) 0.8552(5)
N4B N 0.4949(10) 0.4352(13) 0.5366(5)
O1B O 0.9335(10) 0.7905(14) 0.8927(5)
O2B O 0.7447(10) 0.4328(12) 0.8933(5)
O3B O 0.7332(8) 0.7732(11) 0.6126(4)
loop_
_geom_bond_atom_site_label_1
_geom_bond_atom_site_label_2
_geom_bond_site_symmetry_1
_geom_bond_site_symmetry_2
C1 N1 1_555 1_555
C2 N1 1_555 1_555
N2 C1 1_555 1_555
N3 C1 1_555 1_555
N4 C2 1_555 1_555
O1 N3 1_555 1_555
O2 N3 1_555 1_555
O3 C2 1_555 1_555
C1B N1B 1_555 1_555
C2B N1B 1_555 1_555
N2B C1B 1_555 1_555
N3B C1B 1_555 1_555
N4B N4 1_555 1_555
O1B N3B 1_555 1_555
O2B N3B 1_555 1_555
O3B C2B 1_555 1_555
N2 O3 1_555 1_555
C2B N4B 1_555 1_555
N2B O3B 1_555 1_555

#END
