
#######################################################################
#
#                 Cambridge Crystallographic Data Centre
#                                CCDC 
#
#######################################################################
#
# If this CIF has been generated from an entry in the Cambridge 
# Structural Database, then it will include bibliographic, chemical, 
# crystal, experimental, refinement or atomic coordinate data resulting 
# from the CCDC's data processing and validation procedures.
#
#######################################################################

data_MIFDOX
_chemical_name_common            
'4-Nitrophenyl ((2aS,2a$1!S,4R,4aS,7aS)-Octahydro-2H-1,7-dioxacyclopenta[cd]inden-4-yl)carbonate'
_chemical_formula_moiety         'C16 H17 N1 O7'
_chemical_name_systematic        
'4-nitrophenyl octahydro-2H-1,7-dioxacyclopenta[cd]inden-4-yl carbonate'
_symmetry_cell_setting           monoclinic
_symmetry_space_group_name_H-M   'P 21'
_symmetry_Int_Tables_number      4
_space_group_name_Hall           'P 2yb'
loop_
_symmetry_equiv_pos_site_id
_symmetry_equiv_pos_as_xyz
1 x,y,z
2 -x,1/2+y,-z
_cell_length_a                   5.7759(4)
_cell_length_b                   34.777(3)
_cell_length_c                   7.4665(6)
_cell_angle_alpha                90
_cell_angle_beta                 90.384(5)
_cell_angle_gamma                90
_cell_volume                     1499.75
_exptl_crystal_colour            colorless
_exptl_crystal_description       block
_cell_formula_units_Z            4
loop_
_atom_site_label
_atom_site_type_symbol
_atom_site_fract_x
_atom_site_fract_y
_atom_site_fract_z
O1 O 1.1450(8) 0.45867(12) 0.6204(6)
O2 O 1.2138(7) 0.41944(12) 0.8577(6)
O3 O 0.6466(7) 0.32228(12) 0.7145(6)
O4 O 0.3432(7) 0.31593(12) 0.5266(7)
O5 O 0.4967(6) 0.26612(10) 0.6842(5)
O6 O 0.0524(9) 0.11126(12) 0.4328(7)
O7 O -0.2085(8) 0.15042(14) 0.3324(7)
N1 N -0.0276(9) 0.14372(14) 0.4124(7)
C1 C 0.6627(10) 0.36313(16) 0.6664(9)
H1 H 0.505247 0.372803 0.632841
C2 C 0.8262(11) 0.37012(16) 0.5126(8)
H2 H 0.755789 0.362480 0.396694
H3 H 0.974083 0.356158 0.529730
C3 C 0.8610(11) 0.41369(17) 0.5236(9)
H4 H 0.743089 0.427005 0.447029
C4 C 1.1010(12) 0.42976(19) 0.4850(9)
H5 H 1.218818 0.409125 0.491777
H6 H 1.105291 0.441336 0.363908
C5 C 1.0481(10) 0.44448(16) 0.7794(9)
H7 H 1.014133 0.466206 0.862936
C6 C 1.1161(10) 0.39785(18) 0.9997(8)
H8 H 1.027379 0.415036 1.079686
H9 H 1.240409 0.385460 1.071057
C7 C 0.9584(9) 0.36770(16) 0.9212(8)
H10 H 0.897714 0.351149 1.017980
H11 H 1.046267 0.351285 0.837299
C8 C 0.7569(9) 0.38695(16) 0.8217(8)
H12 H 0.629193 0.392345 0.907955
C9 C 0.8231(9) 0.42441(16) 0.7244(8)
H13 H 0.692020 0.443091 0.733114
C10 C 0.4799(9) 0.30332(16) 0.6301(7)
C11 C 0.3535(9) 0.23748(16) 0.6118(7)
C12 C 0.4413(9) 0.20068(16) 0.6300(7)
H14 H 0.587942 0.196794 0.685507
C13 C 0.3167(9) 0.16973(16) 0.5677(8)
H15 H 0.375245 0.144335 0.580030
C14 C 0.1035(9) 0.17635(16) 0.4866(7)
C15 C 0.0109(9) 0.21315(16) 0.4732(7)
H16 H -0.137969 0.216798 0.421022
C16 C 0.1343(9) 0.24428(16) 0.5354(8)
H17 H 0.073344 0.269584 0.526846
O8 O 0.3307(8) -0.02389(12) 0.7943(6)
O9 O 0.3113(7) 0.01354(12) 1.0436(6)
O10 O 0.7472(6) 0.12013(10) 0.8248(6)
O11 O 1.1099(8) 0.11844(14) 0.9316(9)
O12 O 0.8967(6) 0.17267(10) 0.9233(5)
O13 O 1.4697(9) 0.31871(14) 1.1245(7)
O14 O 1.6731(7) 0.27627(14) 1.2694(7)
N2 N 1.5088(8) 0.28536(15) 1.1727(7)
C17 C 0.7593(9) 0.07881(15) 0.7835(8)
H18 H 0.908367 0.073091 0.721551
C18 C 0.5577(10) 0.06936(16) 0.6592(8)
H19 H 0.585190 0.079008 0.536469
H20 H 0.410755 0.080205 0.704429
C19 C 0.5555(10) 0.02528(16) 0.6647(8)
H21 H 0.654841 0.014618 0.567372
C20 C 0.3178(13) 0.00602(19) 0.6616(9)
H22 H 0.194992 0.024749 0.691844
H23 H 0.284064 -0.004926 0.541852
C21 C 0.4615(10) -0.00887(17) 0.9383(8)
H24 H 0.527559 -0.030343 1.011642
C22 C 0.4350(11) 0.03484(18) 1.1742(8)
H25 H 0.547818 0.017954 1.236343
H26 H 0.326656 0.045179 1.264406
C23 C 0.5626(10) 0.06802(16) 1.0818(8)
H27 H 0.449018 0.084903 1.020530
H28 H 0.646064 0.083554 1.172625
C24 C 0.7341(9) 0.05240(15) 0.9457(7)
H29 H 0.888632 0.048673 1.004463
C25 C 0.6572(9) 0.01427(15) 0.8524(8)
H30 H 0.795149 -0.002723 0.836222
C26 C 0.9375(9) 0.13467(16) 0.8989(8)
C27 C 1.0614(9) 0.19812(15) 0.9894(7)
C28 C 0.9962(9) 0.23617(17) 0.9730(8)
H31 H 0.851561 0.242523 0.919401
C29 C 1.1414(9) 0.26508(16) 1.0344(8)
H32 H 1.097260 0.291303 1.023594
C30 C 1.3512(9) 0.25523(16) 1.1115(7)
C31 C 1.4186(9) 0.21667(17) 1.1280(7)
H33 H 1.564250 0.210344 1.180063
C32 C 1.2722(9) 0.18787(16) 1.0682(7)
H34 H 1.314466 0.161593 1.080435
loop_
_geom_bond_atom_site_label_1
_geom_bond_atom_site_label_2
_geom_bond_site_symmetry_1
_geom_bond_site_symmetry_2
O1 C4 1_555 1_555
O2 C5 1_555 1_555
O3 C1 1_555 1_555
O4 C10 1_555 1_555
O5 C10 1_555 1_555
O6 N1 1_555 1_555
O7 N1 1_555 1_555
N1 C14 1_555 1_555
C1 H1 1_555 1_555
C2 C1 1_555 1_555
H2 C2 1_555 1_555
H3 C2 1_555 1_555
C3 C2 1_555 1_555
H4 C3 1_555 1_555
C4 C3 1_555 1_555
H5 C4 1_555 1_555
H6 C4 1_555 1_555
C5 O1 1_555 1_555
H7 C5 1_555 1_555
C6 O2 1_555 1_555
H8 C6 1_555 1_555
H9 C6 1_555 1_555
C7 C6 1_555 1_555
H10 C7 1_555 1_555
H11 C7 1_555 1_555
C8 C1 1_555 1_555
H12 C8 1_555 1_555
C9 C3 1_555 1_555
H13 C9 1_555 1_555
C10 O3 1_555 1_555
C11 O5 1_555 1_555
C12 C11 1_555 1_555
H14 C12 1_555 1_555
C13 C12 1_555 1_555
H15 C13 1_555 1_555
C14 C13 1_555 1_555
C15 C14 1_555 1_555
H16 C15 1_555 1_555
C16 C11 1_555 1_555
H17 C16 1_555 1_555
O8 C20 1_555 1_555
O9 C21 1_555 1_555
O10 C17 1_555 1_555
O11 C26 1_555 1_555
O12 C26 1_555 1_555
O13 N2 1_555 1_555
O14 N2 1_555 1_555
N2 C30 1_555 1_555
C17 H18 1_555 1_555
C18 C17 1_555 1_555
H19 C18 1_555 1_555
H20 C18 1_555 1_555
C19 C18 1_555 1_555
H21 C19 1_555 1_555
C20 C19 1_555 1_555
H22 C20 1_555 1_555
H23 C20 1_555 1_555
C21 O8 1_555 1_555
H24 C21 1_555 1_555
C22 O9 1_555 1_555
H25 C22 1_555 1_555
H26 C22 1_555 1_555
C23 C22 1_555 1_555
H27 C23 1_555 1_555
H28 C23 1_555 1_555
C24 C17 1_555 1_555
H29 C24 1_555 1_555
C25 C19 1_555 1_555
H30 C25 1_555 1_555
C26 O10 1_555 1_555
C27 O12 1_555 1_555
C28 C27 1_555 1_555
H31 C28 1_555 1_555
C29 C28 1_555 1_555
H32 C29 1_555 1_555
C30 C29 1_555 1_555
C31 C30 1_555 1_555
H33 C31 1_555 1_555
C32 C27 1_555 1_555
H34 C32 1_555 1_555
C5 C9 1_555 1_555
C7 C8 1_555 1_555
C8 C9 1_555 1_555
C15 C16 1_555 1_555
C21 C25 1_555 1_555
C23 C24 1_555 1_555
C24 C25 1_555 1_555
C31 C32 1_555 1_555

#END
