
#######################################################################
#
#                 Cambridge Crystallographic Data Centre
#                                CCDC 
#
#######################################################################
#
# If this CIF has been generated from an entry in the Cambridge 
# Structural Database, then it will include bibliographic, chemical, 
# crystal, experimental, refinement or atomic coordinate data resulting 
# from the CCDC's data processing and validation procedures.
#
#######################################################################

data_MIFHIV
_chemical_formula_moiety         'C24 H24 N2 O2 S1'
_chemical_name_systematic        
5-methyl-1-[(4-methylphenyl)sulfonyl]-3-(naphthalen-2-yl)-5-(prop-1-en-2-yl)-4,5-dihydro-1H-pyrazole
_symmetry_cell_setting           orthorhombic
_symmetry_space_group_name_H-M   'P 21 21 21'
_symmetry_Int_Tables_number      19
_space_group_name_Hall           'P 2ac 2ab'
loop_
_symmetry_equiv_pos_site_id
_symmetry_equiv_pos_as_xyz
1 x,y,z
2 1/2-x,-y,1/2+z
3 -x,1/2+y,1/2-z
4 1/2+x,1/2-y,-z
_cell_length_a                   11.557(4)
_cell_length_b                   12.498(4)
_cell_length_c                   14.777(4)
_cell_angle_alpha                90
_cell_angle_beta                 90
_cell_angle_gamma                90
_cell_volume                     2134.38
_exptl_crystal_colour            yellow
_exptl_crystal_description       block
_cell_formula_units_Z            4
loop_
_atom_site_label
_atom_site_type_symbol
_atom_site_fract_x
_atom_site_fract_y
_atom_site_fract_z
S1 S 0.25216(5) 0.34587(5) 0.65164(4)
C1 C 0.7769(2) 0.6309(2) 0.44816(18)
N1 N 0.43033(17) 0.42595(17) 0.57136(14)
O1 O 0.17062(17) 0.26452(15) 0.62962(13)
O2 O 0.32404(17) 0.33508(17) 0.72919(13)
C2 C 0.8776(3) 0.6923(3) 0.4308(2)
H1 H 0.9012 0.7437 0.4725
N2 N 0.33842(17) 0.35303(18) 0.56345(14)
C3 C 0.7431(2) 0.55329(19) 0.38359(18)
C4 C 0.8098(3) 0.5408(3) 0.3034(2)
H2 H 0.7876 0.4907 0.2602
C5 C 0.9064(3) 0.6020(3) 0.2894(3)
H3 H 0.9494 0.5935 0.2368
C6 C 0.9403(3) 0.6771(3) 0.3538(2)
H4 H 1.0068 0.7174 0.3441
C7 C 0.6422(2) 0.4925(2) 0.39987(17)
H5 H 0.6178 0.4437 0.3563
C8 C 0.6147(2) 0.5797(2) 0.54277(18)
H6 H 0.5729 0.5876 0.5961
C9 C 0.5791(2) 0.50312(19) 0.47789(17)
C10 C 0.7095(2) 0.6419(2) 0.5279(2)
H7 H 0.7305 0.6927 0.5708
C11 C 0.4772(2) 0.4359(2) 0.49312(16)
C12 C 0.4212(2) 0.3687(3) 0.42088(19)
H8 H 0.4703 0.3089 0.4042
H9 H 0.4049 0.4109 0.3673
C13 C 0.3078(2) 0.3291(2) 0.46562(18)
C14 C 0.2062(3) 0.3948(3) 0.43560(19)
C15 C 0.2201(3) 0.5132(3) 0.4369(2)
H10 H 0.2727 0.5344 0.3899
H11 H 0.2502 0.5351 0.4945
H12 H 0.1463 0.5465 0.4270
C16 C 0.1084(3) 0.3491(4) 0.4066(3)
H13 H 0.0473 0.3914 0.3866
H14 H 0.1015 0.2750 0.4063
C17 C 0.2941(3) 0.2073(3) 0.4521(2)
H15 H 0.2883 0.1917 0.3887
H16 H 0.2254 0.1832 0.4824
H17 H 0.3602 0.1711 0.4769
C18 C 0.1778(2) 0.4679(2) 0.66122(16)
C19 C 0.2354(2) 0.5590(2) 0.68989(16)
H18 H 0.3130 0.5558 0.7062
C20 C 0.1759(3) 0.6544(2) 0.69395(17)
H19 H 0.2147 0.7159 0.7123
C21 C 0.0594(3) 0.6611(2) 0.67134(17)
C22 C 0.0037(3) 0.5689(2) 0.6444(2)
H20 H -0.0746 0.5717 0.6300
C23 C 0.0617(2) 0.4722(2) 0.63842(19)
H21 H 0.0231 0.4110 0.6193
C24 C -0.0038(4) 0.7662(3) 0.6764(2)
H22 H 0.0053 0.8039 0.6202
H23 H 0.0275 0.8084 0.7248
H24 H -0.0845 0.7533 0.6872
loop_
_geom_bond_atom_site_label_1
_geom_bond_atom_site_label_2
_geom_bond_site_symmetry_1
_geom_bond_site_symmetry_2
S1 O1 1_555 1_555
C1 C2 1_555 1_555
N1 N2 1_555 1_555
O2 S1 1_555 1_555
C2 H1 1_555 1_555
N2 S1 1_555 1_555
C3 C1 1_555 1_555
C4 C3 1_555 1_555
H2 C4 1_555 1_555
C5 C4 1_555 1_555
H3 C5 1_555 1_555
C6 C2 1_555 1_555
H4 C6 1_555 1_555
C7 C3 1_555 1_555
H5 C7 1_555 1_555
C8 H6 1_555 1_555
C9 C7 1_555 1_555
C10 C1 1_555 1_555
H7 C10 1_555 1_555
C11 N1 1_555 1_555
C12 C11 1_555 1_555
H8 C12 1_555 1_555
H9 C12 1_555 1_555
C13 N2 1_555 1_555
C14 C13 1_555 1_555
C15 C14 1_555 1_555
H10 C15 1_555 1_555
H11 C15 1_555 1_555
H12 C15 1_555 1_555
C16 C14 1_555 1_555
H13 C16 1_555 1_555
H14 C16 1_555 1_555
C17 C13 1_555 1_555
H15 C17 1_555 1_555
H16 C17 1_555 1_555
H17 C17 1_555 1_555
C18 S1 1_555 1_555
C19 C18 1_555 1_555
H18 C19 1_555 1_555
C20 C19 1_555 1_555
H19 C20 1_555 1_555
C21 C20 1_555 1_555
C22 C21 1_555 1_555
H20 C22 1_555 1_555
C23 C18 1_555 1_555
H21 C23 1_555 1_555
C24 C21 1_555 1_555
H22 C24 1_555 1_555
H23 C24 1_555 1_555
H24 C24 1_555 1_555
C5 C6 1_555 1_555
C8 C9 1_555 1_555
C8 C10 1_555 1_555
C9 C11 1_555 1_555
C12 C13 1_555 1_555
C22 C23 1_555 1_555

#END
