
#######################################################################
#
#                 Cambridge Crystallographic Data Centre
#                                CCDC 
#
#######################################################################
#
# If this CIF has been generated from an entry in the Cambridge 
# Structural Database, then it will include bibliographic, chemical, 
# crystal, experimental, refinement or atomic coordinate data resulting 
# from the CCDC's data processing and validation procedures.
#
#######################################################################

data_MIFHUH
_chemical_formula_moiety         'C23 H28 N2 O2 S1'
_chemical_name_systematic        
5-methyl-3-(4-methylphenyl)-1-[(4-methylphenyl)sulfonyl]-5-(pent-1-en-3-yl)-4,5-dihydro-1H-pyrazole
_symmetry_cell_setting           monoclinic
_symmetry_space_group_name_H-M   'C 2'
_symmetry_Int_Tables_number      5
_space_group_name_Hall           'C 2y'
loop_
_symmetry_equiv_pos_site_id
_symmetry_equiv_pos_as_xyz
1 x,y,z
2 -x,y,-z
3 1/2+x,1/2+y,z
4 1/2-x,1/2+y,-z
_cell_length_a                   34.1594(8)
_cell_length_b                   8.4566(2)
_cell_length_c                   15.1869(3)
_cell_angle_alpha                90
_cell_angle_beta                 91.7520(10)
_cell_angle_gamma                90
_cell_volume                     4385.03
_exptl_crystal_colour            colorless
_exptl_crystal_description       block
_cell_formula_units_Z            8
loop_
_atom_site_label
_atom_site_type_symbol
_atom_site_fract_x
_atom_site_fract_y
_atom_site_fract_z
S1 S 0.12720(2) -0.14652(8) 0.21813(4)
O1 O 0.10240(7) -0.2767(3) 0.19181(15)
N1 N 0.15871(7) -0.0518(3) 0.36319(16)
C1 C 0.03742(11) 0.4515(5) 0.1277(3)
H1 H 0.0480 0.4960 0.0738
H2 H 0.0399 0.5293 0.1754
H3 H 0.0097 0.4247 0.1175
O2 O 0.16484(6) -0.1299(3) 0.18104(13)
N2 N 0.13386(7) -0.1653(3) 0.32488(15)
C2 C 0.05988(9) 0.3050(4) 0.1531(2)
C3 C 0.10045(9) 0.3083(4) 0.1683(2)
H4 H 0.1141 0.4058 0.1642
C4 C 0.12111(8) 0.1724(4) 0.18931(19)
H5 H 0.1487 0.1765 0.1992
C5 C 0.10134(9) 0.0301(4) 0.19578(19)
C6 C 0.06105(9) 0.0233(4) 0.1820(2)
H6 H 0.0475 -0.0743 0.1867
C7 C 0.04073(9) 0.1613(5) 0.1613(2)
H7 H 0.0131 0.1572 0.1525
C8 C 0.10804(9) -0.2452(4) 0.3906(2)
C9 C 0.12785(10) -0.1828(4) 0.4771(2)
H8 H 0.1084 -0.1324 0.5152
H9 H 0.1410 -0.2696 0.5103
C10 C 0.15711(8) -0.0640(4) 0.44675(19)
C11 C 0.06606(10) -0.1859(4) 0.3808(2)
H10 H 0.0660 -0.0701 0.3773
H11 H 0.0513 -0.2195 0.4318
H12 H 0.0538 -0.2298 0.3269
C12 C 0.11122(9) -0.4274(4) 0.3808(2)
H13 H 0.1032 -0.4552 0.3188
C13 C 0.08450(13) -0.5173(4) 0.4420(2)
H14 H 0.0573 -0.4782 0.4333
H15 H 0.0928 -0.4959 0.5039
C14 C 0.08523(13) -0.6955(4) 0.4259(3)
H16 H 0.0762 -0.7176 0.3653
H17 H 0.0680 -0.7482 0.4670
H18 H 0.1120 -0.7350 0.4349
C15 C 0.15284(12) -0.4810(5) 0.3963(3)
H19 H 0.1604 -0.5076 0.4552
C16 C 0.17852(14) -0.4942(6) 0.3396(3)
H20 H 0.1724 -0.4690 0.2798
H21 H 0.2041 -0.5293 0.3564
C17 C 0.18140(8) 0.0345(4) 0.5063(2)
C18 C 0.18326(9) 0.0040(4) 0.5958(2)
H22 H 0.1696 -0.0840 0.6187
C19 C 0.20506(10) 0.1015(5) 0.6525(2)
H23 H 0.2063 0.0781 0.7137
C20 C 0.22483(9) 0.2312(5) 0.6219(2)
C21 C 0.22372(11) 0.2584(5) 0.5316(3)
H24 H 0.2378 0.3452 0.5087
C22 C 0.20256(10) 0.1620(5) 0.4747(2)
H25 H 0.2024 0.1828 0.4132
C23 C 0.24566(11) 0.3428(6) 0.6848(3)
H26 H 0.2710 0.3726 0.6611
H27 H 0.2499 0.2906 0.7419
H28 H 0.2297 0.4377 0.6924
S2 S 0.38171(2) 1.14870(8) 1.27866(5)
O3 O 0.40472(7) 1.2823(3) 1.30738(15)
N3 N 0.35650(7) 1.0346(3) 1.13403(17)
O4 O 0.34395(7) 1.1274(3) 1.31515(14)
N4 N 0.37968(7) 1.1602(3) 1.16905(15)
C24 C 0.47510(11) 0.5582(5) 1.3649(3)
H29 H 0.4584 0.4646 1.3572
H30 H 0.4841 0.5660 1.4266
H31 H 0.4978 0.5491 1.3272
C25 C 0.45198(10) 0.7042(4) 1.3398(2)
C26 C 0.47044(9) 0.8471(5) 1.3235(2)
H32 H 0.4982 0.8525 1.3275
C27 C 0.44944(10) 0.9810(4) 1.3018(2)
H33 H 0.4626 1.0772 1.2896
C28 C 0.40876(9) 0.9741(4) 1.2978(2)
C29 C 0.38957(9) 0.8336(4) 1.3142(2)
H34 H 0.3618 0.8293 1.3118
C30 C 0.41124(10) 0.6995(4) 1.3342(2)
H35 H 0.3981 0.6025 1.3442
C31 C 0.43047(11) 1.6940(5) 1.0721(2)
H36 H 0.4543 1.6520 1.0465
H37 H 0.4356 1.7183 1.1345
H38 H 0.4224 1.7905 1.0408
C32 C 0.39810(10) 1.5719(4) 1.0636(2)
H39 H 0.3937 1.5460 1.0005
H40 H 0.3736 1.6185 1.0852
C33 C 0.40689(8) 1.4182(4) 1.1147(2)
H41 H 0.4152 1.4488 1.1761
C34 C 0.44050(10) 1.3328(5) 1.0756(3)
H42 H 0.4378 1.3018 1.0155
C35 C 0.36980(8) 1.3141(4) 1.12120(18)
C36 C 0.35424(10) 1.2445(4) 1.0331(2)
H43 H 0.3316 1.3057 1.0093
H44 H 0.3749 1.2423 0.9888
C37 C 0.34225(9) 1.0791(4) 1.0587(2)
C38 C 0.33705(9) 1.4016(4) 1.1672(2)
H45 H 0.3270 1.4867 1.1290
H46 H 0.3473 1.4468 1.2227
H47 H 0.3158 1.3276 1.1795
C39 C 0.31823(8) 0.9712(4) 1.0036(2)
C40 C 0.30499(9) 1.0164(5) 0.9197(2)
H48 H 0.3104 1.1197 0.8986
C41 C 0.28392(10) 0.9103(5) 0.8671(2)
H49 H 0.2749 0.9429 0.8101
C42 C 0.27574(9) 0.7590(4) 0.8951(2)
C43 C 0.28743(10) 0.7176(4) 0.9804(3)
H50 H 0.2811 0.6159 1.0023
C44 C 0.30824(10) 0.8224(4) 1.0341(2)
H51 H 0.3157 0.7920 1.0925
C45 C 0.25638(10) 0.6392(5) 0.8341(3)
H52 H 0.2442 0.6937 0.7833
H53 H 0.2363 0.5816 0.8658
H54 H 0.2761 0.5645 0.8138
C46 C 0.47279(11) 1.2981(5) 1.1169(3)
H55 H 0.4766 1.3271 1.1769
H56 H 0.4928 1.2435 1.0873
loop_
_geom_bond_atom_site_label_1
_geom_bond_atom_site_label_2
_geom_bond_site_symmetry_1
_geom_bond_site_symmetry_2
S1 O1 1_555 1_555
N1 N2 1_555 1_555
C1 H1 1_555 1_555
H2 C1 1_555 1_555
H3 C1 1_555 1_555
O2 S1 1_555 1_555
N2 S1 1_555 1_555
C2 C1 1_555 1_555
C3 C2 1_555 1_555
H4 C3 1_555 1_555
C4 C3 1_555 1_555
H5 C4 1_555 1_555
C5 S1 1_555 1_555
C6 C5 1_555 1_555
H6 C6 1_555 1_555
C7 C2 1_555 1_555
H7 C7 1_555 1_555
C8 N2 1_555 1_555
C9 C8 1_555 1_555
H8 C9 1_555 1_555
H9 C9 1_555 1_555
C10 N1 1_555 1_555
C11 C8 1_555 1_555
H10 C11 1_555 1_555
H11 C11 1_555 1_555
H12 C11 1_555 1_555
C12 C8 1_555 1_555
H13 C12 1_555 1_555
C13 C12 1_555 1_555
H14 C13 1_555 1_555
H15 C13 1_555 1_555
C14 C13 1_555 1_555
H16 C14 1_555 1_555
H17 C14 1_555 1_555
H18 C14 1_555 1_555
C15 C12 1_555 1_555
H19 C15 1_555 1_555
C16 C15 1_555 1_555
H20 C16 1_555 1_555
H21 C16 1_555 1_555
C17 C10 1_555 1_555
C18 C17 1_555 1_555
H22 C18 1_555 1_555
C19 C18 1_555 1_555
H23 C19 1_555 1_555
C20 C19 1_555 1_555
C21 C20 1_555 1_555
H24 C21 1_555 1_555
C22 C17 1_555 1_555
H25 C22 1_555 1_555
C23 C20 1_555 1_555
H26 C23 1_555 1_555
H27 C23 1_555 1_555
H28 C23 1_555 1_555
S2 O3 1_555 1_555
N3 N4 1_555 1_555
O4 S2 1_555 1_555
N4 S2 1_555 1_555
C24 H29 1_555 1_555
H30 C24 1_555 1_555
H31 C24 1_555 1_555
C25 C24 1_555 1_555
C26 C25 1_555 1_555
H32 C26 1_555 1_555
C27 C26 1_555 1_555
H33 C27 1_555 1_555
C28 S2 1_555 1_555
C29 C28 1_555 1_555
H34 C29 1_555 1_555
C30 C25 1_555 1_555
H35 C30 1_555 1_555
C31 H36 1_555 1_555
H37 C31 1_555 1_555
H38 C31 1_555 1_555
C32 C31 1_555 1_555
H39 C32 1_555 1_555
H40 C32 1_555 1_555
C33 C32 1_555 1_555
H41 C33 1_555 1_555
C34 C33 1_555 1_555
H42 C34 1_555 1_555
C35 N4 1_555 1_555
C36 C35 1_555 1_555
H43 C36 1_555 1_555
H44 C36 1_555 1_555
C37 N3 1_555 1_555
C38 C35 1_555 1_555
H45 C38 1_555 1_555
H46 C38 1_555 1_555
H47 C38 1_555 1_555
C39 C37 1_555 1_555
C40 C39 1_555 1_555
H48 C40 1_555 1_555
C41 C40 1_555 1_555
H49 C41 1_555 1_555
C42 C41 1_555 1_555
C43 C42 1_555 1_555
H50 C43 1_555 1_555
C44 C39 1_555 1_555
H51 C44 1_555 1_555
C45 C42 1_555 1_555
H52 C45 1_555 1_555
H53 C45 1_555 1_555
H54 C45 1_555 1_555
C46 C34 1_555 1_555
H55 C46 1_555 1_555
H56 C46 1_555 1_555
C4 C5 1_555 1_555
C6 C7 1_555 1_555
C9 C10 1_555 1_555
C21 C22 1_555 1_555
C27 C28 1_555 1_555
C29 C30 1_555 1_555
C33 C35 1_555 1_555
C36 C37 1_555 1_555
C43 C44 1_555 1_555

#END
