
#######################################################################
#
#                 Cambridge Crystallographic Data Centre
#                                CCDC 
#
#######################################################################
#
# If this CIF has been generated from an entry in the Cambridge 
# Structural Database, then it will include bibliographic, chemical, 
# crystal, experimental, refinement or atomic coordinate data resulting 
# from the CCDC's data processing and validation procedures.
#
#######################################################################

data_MIFJIX
_chemical_formula_moiety         'C24 H26 N2 O2 S1'
_chemical_name_systematic        
N'-[3,4-dimethyl-1-(naphthalen-2-yl)pent-3-en-1-ylidene]-4-methylbenzene-1-sulfonohydrazide
_symmetry_cell_setting           triclinic
_symmetry_space_group_name_H-M   'P -1'
_symmetry_Int_Tables_number      2
_space_group_name_Hall           '-P 1'
loop_
_symmetry_equiv_pos_site_id
_symmetry_equiv_pos_as_xyz
1 x,y,z
2 -x,-y,-z
_cell_length_a                   7.8260(10)
_cell_length_b                   10.510(2)
_cell_length_c                   14.886(4)
_cell_angle_alpha                73.770(19)
_cell_angle_beta                 78.172(15)
_cell_angle_gamma                69.098(15)
_cell_volume                     1090.65
_exptl_crystal_colour            colorless
_exptl_crystal_description       block
_cell_formula_units_Z            2
loop_
_atom_site_label
_atom_site_type_symbol
_atom_site_fract_x
_atom_site_fract_y
_atom_site_fract_z
S1 S 0.49102(9) 0.29112(7) 0.98575(5)
O1 O 0.3951(3) 0.19312(18) 1.00128(13)
O2 O 0.4917(3) 0.34856(18) 1.06273(12)
N1 N 0.3910(3) 0.3990(2) 0.82178(15)
N2 N 0.3971(3) 0.4297(2) 0.90656(15)
H1 H 0.291959 0.480305 0.928291
C1 C 0.1647(5) 0.6137(5) 0.4297(2)
H2 H 0.114939 0.707831 0.431325
C2 C 0.1576(6) 0.5722(6) 0.3518(3)
H3 H 0.103916 0.638421 0.300729
C3 C 0.2292(6) 0.4332(7) 0.3481(3)
H4 H 0.223230 0.406419 0.294630
C4 C 0.3081(6) 0.3356(5) 0.4216(3)
H5 H 0.355320 0.242084 0.418254
C5 C 0.3196(4) 0.3741(4) 0.5037(2)
C6 C 0.2464(4) 0.5159(4) 0.5074(2)
C7 C 0.2553(4) 0.5548(3) 0.5895(2)
H6 H 0.205853 0.648569 0.591943
C8 C 0.3334(4) 0.4600(3) 0.66508(19)
C9 C 0.4114(5) 0.3181(3) 0.6591(2)
H7 H 0.468850 0.251832 0.709093
C10 C 0.4037(5) 0.2772(4) 0.5814(3)
H8 H 0.455125 0.183289 0.579521
C11 C 0.3388(3) 0.5008(3) 0.75184(18)
C12 C 0.2808(4) 0.6550(3) 0.7514(2)
H9 H 0.329967 0.665432 0.802744
H10 H 0.334140 0.702918 0.692952
C13 C 0.0743(4) 0.7240(3) 0.7613(2)
C14 C -0.0253(5) 0.6456(4) 0.8426(3)
H11 H 0.008030 0.550657 0.837264
H12 H -0.155786 0.689293 0.841747
H13 H 0.008385 0.646995 0.900782
C15 C -0.0081(6) 0.8443(4) 0.7063(3)
C16 C -0.2163(7) 0.9140(5) 0.7172(4)
H14 H -0.266542 0.908229 0.665304
H15 H -0.243971 1.010354 0.717884
H16 H -0.269597 0.867250 0.775149
C17 C 0.0930(9) 0.9266(4) 0.6290(4)
H17 H 0.084160 1.010614 0.645941
H18 H 0.039277 0.950369 0.571629
H19 H 0.220181 0.871445 0.620025
C18 C 0.7179(4) 0.2170(3) 0.93922(18)
C19 C 0.7700(4) 0.0890(3) 0.9156(2)
H20 H 0.684872 0.042412 0.923806
C20 C 0.9505(4) 0.0314(3) 0.8798(2)
H21 H 0.985791 -0.054947 0.864384
C21 C 1.0793(4) 0.0978(3) 0.8663(2)
C22 C 1.0238(4) 0.2265(3) 0.8908(2)
H22 H 1.109245 0.272781 0.882636
C23 C 0.8457(4) 0.2861(3) 0.9266(2)
H23 H 0.810719 0.372166 0.942420
C24 C 1.2756(4) 0.0326(4) 0.8280(3)
H24 H 1.293868 0.073095 0.761890
H25 H 1.301116 -0.066314 0.837295
H26 H 1.356970 0.049261 0.860338
loop_
_geom_bond_atom_site_label_1
_geom_bond_atom_site_label_2
_geom_bond_site_symmetry_1
_geom_bond_site_symmetry_2
S1 O1 1_555 1_555
O2 S1 1_555 1_555
N1 N2 1_555 1_555
N2 S1 1_555 1_555
H1 N2 1_555 1_555
C1 H2 1_555 1_555
C2 C1 1_555 1_555
H3 C2 1_555 1_555
C3 C2 1_555 1_555
H4 C3 1_555 1_555
C4 C3 1_555 1_555
H5 C4 1_555 1_555
C5 C4 1_555 1_555
C6 C1 1_555 1_555
C7 C6 1_555 1_555
H6 C7 1_555 1_555
C8 C7 1_555 1_555
C9 C8 1_555 1_555
H7 C9 1_555 1_555
C10 C5 1_555 1_555
H8 C10 1_555 1_555
C11 N1 1_555 1_555
C12 C11 1_555 1_555
H9 C12 1_555 1_555
H10 C12 1_555 1_555
C13 C12 1_555 1_555
C14 C13 1_555 1_555
H11 C14 1_555 1_555
H12 C14 1_555 1_555
H13 C14 1_555 1_555
C15 C13 1_555 1_555
C16 C15 1_555 1_555
H14 C16 1_555 1_555
H15 C16 1_555 1_555
H16 C16 1_555 1_555
C17 C15 1_555 1_555
H17 C17 1_555 1_555
H18 C17 1_555 1_555
H19 C17 1_555 1_555
C18 S1 1_555 1_555
C19 C18 1_555 1_555
H20 C19 1_555 1_555
C20 C19 1_555 1_555
H21 C20 1_555 1_555
C21 C20 1_555 1_555
C22 C21 1_555 1_555
H22 C22 1_555 1_555
C23 C18 1_555 1_555
H23 C23 1_555 1_555
C24 C21 1_555 1_555
H24 C24 1_555 1_555
H25 C24 1_555 1_555
H26 C24 1_555 1_555
C5 C6 1_555 1_555
C8 C11 1_555 1_555
C9 C10 1_555 1_555
C22 C23 1_555 1_555

#END
