
#######################################################################
#
#                 Cambridge Crystallographic Data Centre
#                                CCDC 
#
#######################################################################
#
# If this CIF has been generated from an entry in the Cambridge 
# Structural Database, then it will include bibliographic, chemical, 
# crystal, experimental, refinement or atomic coordinate data resulting 
# from the CCDC's data processing and validation procedures.
#
#######################################################################

data_MIFJAP
_chemical_formula_moiety         'C24 H24 N2 O3 S1'
_chemical_name_systematic        
5-methyl-5-(2-methyloxiran-2-yl)-1-[(4-methylphenyl)sulfonyl]-3-(naphthalen-2-yl)-4,5-dihydro-1H-pyrazole
_symmetry_cell_setting           monoclinic
_symmetry_space_group_name_H-M   'P 21'
_symmetry_Int_Tables_number      4
_space_group_name_Hall           'P 2yb'
loop_
_symmetry_equiv_pos_site_id
_symmetry_equiv_pos_as_xyz
1 x,y,z
2 -x,1/2+y,-z
_cell_length_a                   11.6237(3)
_cell_length_b                   13.4549(4)
_cell_length_c                   13.8736(4)
_cell_angle_alpha                90
_cell_angle_beta                 104.2210(10)
_cell_angle_gamma                90
_cell_volume                     2103.28
_exptl_crystal_colour            colorless
_exptl_crystal_description       block
_cell_formula_units_Z            4
loop_
_atom_site_label
_atom_site_type_symbol
_atom_site_fract_x
_atom_site_fract_y
_atom_site_fract_z
S1 S 0.58076(7) 0.60176(6) 0.59452(7)
O1 O 0.3409(3) 0.3337(2) 0.5584(3)
N1 N 0.6188(3) 0.4885(2) 0.6359(3)
C1 C 0.5348(3) 0.4055(3) 0.6444(3)
O2 O 0.5941(3) 0.6153(2) 0.4957(2)
N2 N 0.7257(3) 0.4555(2) 0.6175(2)
C2 C 0.4372(3) 0.3965(3) 0.5492(3)
O3 O 0.4672(2) 0.6192(2) 0.6144(3)
C3 C 0.6223(3) 0.3159(3) 0.6540(3)
H1 H 0.642825 0.289288 0.722660
H2 H 0.587645 0.261836 0.607443
C4 C 0.3209(4) 0.4382(4) 0.5432(5)
H3 H 0.310058 0.478397 0.600043
H4 H 0.273913 0.460505 0.477213
C5 C 0.7300(3) 0.3603(3) 0.6274(3)
C6 C 0.8373(3) 0.3057(3) 0.6196(2)
C7 C 0.8478(3) 0.2054(3) 0.6391(3)
H5 H 0.783780 0.170874 0.655217
C8 C 0.9527(3) 0.1524(3) 0.6357(2)
C9 C 0.9660(3) 0.0497(3) 0.6542(3)
H6 H 0.903196 0.013275 0.670289
C10 C 1.0678(4) 0.0016(3) 0.6492(3)
H7 H 1.074617 -0.068006 0.660572
C11 C 1.1617(4) 0.0539(3) 0.6276(3)
H8 H 1.232022 0.019485 0.624578
C12 C 1.1543(3) 0.1535(3) 0.6107(3)
H9 H 1.219813 0.188027 0.596933
C13 C 1.0496(3) 0.2063(3) 0.6136(2)
C14 C 1.0348(3) 0.3089(3) 0.5929(3)
H10 H 1.097756 0.345326 0.576995
C15 C 0.9324(3) 0.3569(3) 0.5951(3)
H11 H 0.924734 0.425818 0.580008
C16 C 0.6871(3) 0.6766(3) 0.6745(3)
C17 C 0.7825(3) 0.7125(3) 0.6428(3)
H12 H 0.794252 0.693088 0.580022
C18 C 0.8609(3) 0.7769(3) 0.7031(2)
H13 H 0.926333 0.802164 0.680932
C19 C 0.8459(3) 0.8055(3) 0.7958(2)
C20 C 0.7493(3) 0.7674(3) 0.8266(3)
H14 H 0.738005 0.785568 0.889801
C21 C 0.6702(3) 0.7039(3) 0.7668(3)
H15 H 0.604253 0.678875 0.788353
C22 C 0.9324(3) 0.8747(3) 0.8611(3)
H16 H 1.004514 0.879351 0.836726
H17 H 0.952675 0.849282 0.929415
H18 H 0.896530 0.940776 0.859953
C23 C 0.4892(4) 0.4180(4) 0.7384(3)
H19 H 0.444164 0.480058 0.734154
H20 H 0.556698 0.420030 0.796857
H21 H 0.437705 0.361842 0.744403
C24 C 0.4783(4) 0.3809(4) 0.4558(3)
H22 H 0.409800 0.382648 0.398201
H23 H 0.517700 0.316151 0.458719
H24 H 0.534187 0.433572 0.449521
S2 S 0.58101(6) 0.38748(6) 0.07577(6)
N3 N 0.6120(2) 0.5023(2) 0.1186(2)
O4 O 0.3422(2) 0.6545(2) 0.1271(3)
N4 N 0.7254(2) 0.5341(2) 0.1104(2)
O5 O 0.46311(19) 0.3696(2) 0.0856(2)
O6 O 0.6058(2) 0.3733(2) -0.01932(17)
C25 C 0.6812(3) 0.3151(2) 0.1632(2)
C26 C 0.6630(3) 0.2988(3) 0.2567(3)
H25 H 0.599557 0.330959 0.276157
C27 C 0.7381(4) 0.2354(3) 0.3217(3)
H26 H 0.726085 0.224915 0.386258
C28 C 0.8306(3) 0.1869(3) 0.2944(3)
C29 C 0.8470(3) 0.2053(3) 0.2008(3)
H27 H 0.910226 0.173025 0.181089
C30 C 0.7737(3) 0.2696(3) 0.1345(2)
H28 H 0.787203 0.281901 0.070740
C31 C 0.9094(4) 0.1145(4) 0.3642(3)
H29 H 0.948747 0.070442 0.326054
H30 H 0.861006 0.074845 0.398602
H31 H 0.969327 0.151361 0.413162
C32 C 0.4360(3) 0.5813(3) 0.1548(3)
C33 C 0.3147(4) 0.5501(4) 0.1129(5)
H32 H 0.294527 0.524194 0.044033
H33 H 0.271674 0.518161 0.158034
C34 C 0.4859(4) 0.5709(4) 0.2644(4)
H34 H 0.528142 0.507496 0.278415
H35 H 0.421174 0.572771 0.298246
H36 H 0.541061 0.625701 0.288418
C35 C 0.5237(3) 0.5868(3) 0.0895(3)
C36 C 0.4684(3) 0.5881(3) -0.0228(3)
H37 H 0.531248 0.594410 -0.058269
H38 H 0.413868 0.644562 -0.039391
H39 H 0.424650 0.526092 -0.042511
C37 C 0.6100(3) 0.6748(3) 0.1179(3)
H40 H 0.587398 0.730598 0.070594
H41 H 0.613306 0.698610 0.186074
C38 C 0.7264(3) 0.6291(3) 0.1114(2)
C39 C 0.8332(3) 0.6857(3) 0.1097(2)
C40 C 0.8397(3) 0.7864(3) 0.1274(2)
H42 H 0.772670 0.819842 0.139544
C41 C 0.9436(3) 0.8413(3) 0.1280(3)
C42 C 0.9517(3) 0.9447(3) 0.1451(3)
H43 H 0.885923 0.979485 0.157885
C43 C 1.0535(4) 0.9958(3) 0.1434(3)
H44 H 1.057213 1.065434 0.154829
C44 C 1.1521(3) 0.9460(3) 0.1251(3)
H45 H 1.222012 0.981875 0.123596
C45 C 1.1469(3) 0.8451(3) 0.1092(2)
H46 H 1.214163 0.811270 0.098029
C46 C 1.0426(3) 0.7908(3) 0.1094(2)
C47 C 1.0338(3) 0.6872(3) 0.0903(3)
H47 H 1.099837 0.652946 0.077322
C48 C 0.9327(3) 0.6357(3) 0.0901(2)
H48 H 0.928895 0.566320 0.076897
loop_
_geom_bond_atom_site_label_1
_geom_bond_atom_site_label_2
_geom_bond_site_symmetry_1
_geom_bond_site_symmetry_2
S1 N1 1_555 1_555
O1 C2 1_555 1_555
N1 C1 1_555 1_555
C1 C2 1_555 1_555
O2 S1 1_555 1_555
N2 N1 1_555 1_555
C2 C4 1_555 1_555
O3 S1 1_555 1_555
C3 C1 1_555 1_555
H1 C3 1_555 1_555
H2 C3 1_555 1_555
C4 O1 1_555 1_555
H3 C4 1_555 1_555
H4 C4 1_555 1_555
C5 N2 1_555 1_555
C6 C5 1_555 1_555
C7 C6 1_555 1_555
H5 C7 1_555 1_555
C8 C7 1_555 1_555
C9 C8 1_555 1_555
H6 C9 1_555 1_555
C10 C9 1_555 1_555
H7 C10 1_555 1_555
C11 C10 1_555 1_555
H8 C11 1_555 1_555
C12 C11 1_555 1_555
H9 C12 1_555 1_555
C13 C8 1_555 1_555
C14 C13 1_555 1_555
H10 C14 1_555 1_555
C15 C6 1_555 1_555
H11 C15 1_555 1_555
C16 S1 1_555 1_555
C17 C16 1_555 1_555
H12 C17 1_555 1_555
C18 C17 1_555 1_555
H13 C18 1_555 1_555
C19 C18 1_555 1_555
C20 C19 1_555 1_555
H14 C20 1_555 1_555
C21 C16 1_555 1_555
H15 C21 1_555 1_555
C22 C19 1_555 1_555
H16 C22 1_555 1_555
H17 C22 1_555 1_555
H18 C22 1_555 1_555
C23 C1 1_555 1_555
H19 C23 1_555 1_555
H20 C23 1_555 1_555
H21 C23 1_555 1_555
C24 C2 1_555 1_555
H22 C24 1_555 1_555
H23 C24 1_555 1_555
H24 C24 1_555 1_555
S2 N3 1_555 1_555
N3 N4 1_555 1_555
O4 C32 1_555 1_555
N4 C38 1_555 1_555
O5 S2 1_555 1_555
O6 S2 1_555 1_555
C25 S2 1_555 1_555
C26 C25 1_555 1_555
H25 C26 1_555 1_555
C27 C26 1_555 1_555
H26 C27 1_555 1_555
C28 C27 1_555 1_555
C29 C28 1_555 1_555
H27 C29 1_555 1_555
C30 C25 1_555 1_555
H28 C30 1_555 1_555
C31 C28 1_555 1_555
H29 C31 1_555 1_555
H30 C31 1_555 1_555
H31 C31 1_555 1_555
C32 C33 1_555 1_555
C33 O4 1_555 1_555
H32 C33 1_555 1_555
H33 C33 1_555 1_555
C34 C32 1_555 1_555
H34 C34 1_555 1_555
H35 C34 1_555 1_555
H36 C34 1_555 1_555
C35 N3 1_555 1_555
C36 C35 1_555 1_555
H37 C36 1_555 1_555
H38 C36 1_555 1_555
H39 C36 1_555 1_555
C37 C35 1_555 1_555
H40 C37 1_555 1_555
H41 C37 1_555 1_555
C38 C37 1_555 1_555
C39 C38 1_555 1_555
C40 C39 1_555 1_555
H42 C40 1_555 1_555
C41 C40 1_555 1_555
C42 C41 1_555 1_555
H43 C42 1_555 1_555
C43 C42 1_555 1_555
H44 C43 1_555 1_555
C44 C43 1_555 1_555
H45 C44 1_555 1_555
C45 C44 1_555 1_555
H46 C45 1_555 1_555
C46 C41 1_555 1_555
C47 C46 1_555 1_555
H47 C47 1_555 1_555
C48 C39 1_555 1_555
H48 C48 1_555 1_555
C3 C5 1_555 1_555
C12 C13 1_555 1_555
C14 C15 1_555 1_555
C20 C21 1_555 1_555
C29 C30 1_555 1_555
C32 C35 1_555 1_555
C45 C46 1_555 1_555
C47 C48 1_555 1_555

#END
