
#######################################################################
#
#                 Cambridge Crystallographic Data Centre
#                                CCDC 
#
#######################################################################
#
# If this CIF has been generated from an entry in the Cambridge 
# Structural Database, then it will include bibliographic, chemical, 
# crystal, experimental, refinement or atomic coordinate data resulting 
# from the CCDC's data processing and validation procedures.
#
#######################################################################

data_MIFMIA
_chemical_formula_moiety         'C22 H24 N4 O4'
_chemical_name_systematic        
1-[3-(bicyclo[2.2.1]heptan-2-yl)-1-phenylpropylidene]-2-(2,4-dinitrophenyl)hydrazine
_symmetry_cell_setting           triclinic
_symmetry_space_group_name_H-M   'P -1'
_symmetry_Int_Tables_number      2
_space_group_name_Hall           '-P 1'
loop_
_symmetry_equiv_pos_site_id
_symmetry_equiv_pos_as_xyz
1 x,y,z
2 -x,-y,-z
_cell_length_a                   8.7271(16)
_cell_length_b                   13.977(3)
_cell_length_c                   16.680(3)
_cell_angle_alpha                92.757(5)
_cell_angle_beta                 98.833(5)
_cell_angle_gamma                91.076(5)
_cell_volume                     2007.44
_exptl_crystal_colour            orange
_exptl_crystal_description       prisms
_cell_formula_units_Z            4
loop_
_atom_site_label
_atom_site_type_symbol
_atom_site_fract_x
_atom_site_fract_y
_atom_site_fract_z
C1 C 0.3405(3) 0.5417(2) 0.39952(17)
C2 C 0.2587(3) 0.4471(2) 0.40021(16)
C3 C 0.1575(3) 0.4322(2) 0.45658(17)
H1 H 0.140298 0.483392 0.493478
C4 C 0.0825(3) 0.3450(2) 0.45951(18)
H2 H 0.014325 0.336468 0.498025
C5 C 0.1071(4) 0.2694(2) 0.40577(19)
H3 H 0.055475 0.209211 0.407468
C6 C 0.2071(4) 0.2821(2) 0.34971(18)
H4 H 0.224545 0.230440 0.313384
C7 C 0.2819(4) 0.3703(2) 0.34659(18)
H5 H 0.349438 0.378612 0.307724
C8 C 0.4196(3) 0.5649(2) 0.32812(18)
H6 H 0.402193 0.630460 0.315536
H7 H 0.375623 0.524970 0.281486
C9 C 0.5961(5) 0.5487(4) 0.3470(3)
H8 H 0.637457 0.583108 0.399320
H9 H 0.612704 0.479517 0.353833
C10 C 0.6894(5) 0.5818(3) 0.2821(3)
H10 H 0.666567 0.650350 0.271824
C11 C 0.6545(6) 0.5229(4) 0.2022(3)
H11 H 0.543507 0.505161 0.181326
C12 C 0.7470(6) 0.5932(4) 0.1467(3)
H12 H 0.705981 0.582920 0.088151
H13 H 0.737987 0.661598 0.163149
C13 C 0.9159(4) 0.5615(3) 0.1654(2)
H14 H 0.988349 0.617416 0.177866
H15 H 0.945186 0.522491 0.119258
C14 C 0.9155(6) 0.5008(4) 0.2410(3)
H16 H 1.011469 0.463982 0.257088
C15 C 0.8721(5) 0.5720(4) 0.3075(3)
H17 H 0.926987 0.634574 0.307280
H18 H 0.897018 0.546147 0.362074
C16 C 0.7687(6) 0.4411(4) 0.2169(4)
H19 H 0.745939 0.400962 0.261115
H20 H 0.771415 0.400299 0.166954
C17 C 0.4155(3) 0.7475(2) 0.52989(17)
C18 C 0.5008(3) 0.8360(2) 0.53909(18)
C19 C 0.4948(3) 0.9008(2) 0.60436(18)
H21 H 0.553034 0.959435 0.609426
C20 C 0.4037(3) 0.8788(2) 0.66142(18)
C21 C 0.3169(3) 0.7920(2) 0.65484(19)
H22 H 0.254797 0.777479 0.694954
C22 C 0.3227(3) 0.7290(2) 0.59033(18)
H23 H 0.262686 0.671007 0.585825
N1 N 0.3402(3) 0.59680(17) 0.46405(14)
N2 N 0.4204(3) 0.68308(18) 0.46693(15)
H24 H 0.474367 0.696281 0.428226
N3 N 0.6007(3) 0.8636(2) 0.48147(16)
N4 N 0.3997(3) 0.94577(19) 0.73058(16)
O1 O 0.6115(3) 0.80858(18) 0.42200(14)
O2 O 0.6725(3) 0.94087(18) 0.49359(16)
O3 O 0.4680(3) 1.02396(17) 0.73232(14)
O4 O 0.3276(3) 0.92110(18) 0.78452(14)
C31 C 0.9201(4) 1.1690(3) 1.0149(2)
C32 C 1.0105(4) 1.2372(3) 0.9838(2)
H40 H 1.021201 1.232412 0.927957
C33 C 1.0847(4) 1.3116(3) 1.0330(2)
H41 H 1.145352 1.357443 1.010584
C34 C 1.0717(4) 1.3202(3) 1.1152(2)
H42 H 1.123075 1.371373 1.148994
C35 C 0.9818(4) 1.2521(3) 1.1468(2)
H43 H 0.972433 1.256746 1.202884
C36 C 0.9065(4) 1.1785(3) 1.0977(2)
H44 H 0.844376 1.133374 1.120058
C37 C 0.8261(7) 1.0952(5) 0.9629(3)
C38 C 0.8027(6) 1.1000(4) 0.8713(3)
H45 H 0.810035 1.168079 0.858160
H46 H 0.696112 1.076303 0.849581
C39 C 0.9174(7) 1.0429(4) 0.8263(3)
H47 H 0.908148 0.973932 0.836226
H48 H 1.025152 1.065137 0.847342
C40 C 0.8798(8) 1.0582(6) 0.7308(3)
H49 H 0.765044 1.055181 0.712573
C41 C 0.9445(6) 1.1549(4) 0.7153(3)
H50 H 0.930093 1.208399 0.755267
C42 C 1.1151(6) 1.1301(4) 0.7080(3)
H51 H 1.174168 1.184338 0.690478
H52 H 1.171805 1.105057 0.758407
C43 C 1.0703(6) 1.0517(4) 0.6405(3)
H53 H 1.159250 1.018569 0.620909
C44 C 0.9677(16) 1.1097(9) 0.5760(3)
H54 H 1.032712 1.152104 0.548406
H55 H 0.904723 1.065988 0.534660
C45 C 0.8659(8) 1.1671(5) 0.6231(4)
H56 H 0.757860 1.141283 0.613118
H57 H 0.866385 1.235181 0.609300
C46 C 0.9600(6) 0.9876(3) 0.6775(3)
H58 H 1.017385 0.939217 0.710739
H59 H 0.883406 0.954409 0.634742
C47 C 0.6262(4) 0.8786(3) 0.97993(18)
C48 C 0.5606(4) 0.7965(3) 0.93290(18)
C49 C 0.4794(4) 0.7257(3) 0.9658(2)
H60 H 0.436976 0.671035 0.933337
C50 C 0.4614(4) 0.7361(3) 1.04632(19)
C51 C 0.5265(4) 0.8155(3) 1.09548(19)
H61 H 0.515229 0.820576 1.151265
C52 C 0.6062(4) 0.8856(3) 1.06308(19)
H62 H 0.648589 0.939517 1.096525
N5 N 0.7754(3) 1.0240(2) 0.99749(16)
N6 N 0.7047(3) 0.9485(2) 0.94846(16)
H63 H 0.710578 0.945681 0.896209
N7 N 0.5810(3) 0.7784(2) 0.84842(17)
N8 N 0.3743(4) 0.6623(2) 1.08024(19)
O5 O 0.6515(3) 0.8397(2) 0.81541(14)
O6 O 0.5289(3) 0.7032(2) 0.81219(15)
O7 O 0.3269(4) 0.5907(2) 1.03707(18)
O8 O 0.3524(3) 0.6757(2) 1.15135(15)
H25? H 0.443143 0.632380 0.329976
H26? H 0.350823 0.548471 0.278506
C23? C 0.5782(14) 0.5058(10) 0.3292(7)
H27? H 0.650029 0.525796 0.379319
H28? H 0.552981 0.436771 0.332017
C24? C 0.6615(11) 0.5183(7) 0.2572(6)
H29? H 0.588621 0.498721 0.206495
C25? C 0.8104(13) 0.4580(8) 0.2595(7)
H30? H 0.826011 0.402862 0.295678
C26? C 0.7619(19) 0.4378(10) 0.1591(8)
H31? H 0.814868 0.381168 0.139631
H32? H 0.648397 0.427860 0.143608
C27? C 0.818(2) 0.5301(10) 0.1251(7)
H33? H 0.906561 0.516737 0.095706
H34? H 0.733720 0.556948 0.086973
C28? C 0.8691(14) 0.6009(9) 0.1978(8)
H35? H 0.935184 0.657193 0.188367
C29? C 0.7327(13) 0.6214(7) 0.2467(7)
H36? H 0.654439 0.661832 0.216183
H37? H 0.771421 0.653946 0.300174
C30? C 0.9427(14) 0.5298(11) 0.2576(9)
H38? H 1.032061 0.498732 0.238079
H39? H 0.977451 0.561432 0.311911
C53? C 0.8739(14) 1.0741(9) 0.9625(5)
C54? C 0.9323(11) 1.0569(8) 0.8816(5)
H64? H 0.935220 0.987097 0.869170
H65? H 1.039564 1.083394 0.886495
C55? C 0.8301(11) 1.1032(7) 0.8111(5)
H66? H 0.846661 1.173519 0.818386
H67? H 0.720218 1.089101 0.815552
C56? C 0.8567(12) 1.0711(10) 0.7206(5)
H68? H 0.815562 1.004152 0.706210
C57? C 1.0266(10) 1.0775(6) 0.7133(5)
H69? H 1.100418 1.052814 0.759134
C58? C 1.0454(11) 1.1853(6) 0.6967(6)
H70? H 1.027177 1.228293 0.743052
H71? H 1.147233 1.201110 0.680713
C59? C 0.9115(12) 1.1849(8) 0.6248(7)
H72? H 0.890727 1.247801 0.599732
C60? C 0.968(3) 1.1043(16) 0.5690(6)
H73? H 0.880438 1.076836 0.529217
H74? H 1.048363 1.129671 0.539149
C61? C 1.0334(15) 1.0305(8) 0.6256(7)
H75? H 1.141617 1.016642 0.618753
H76? H 0.970399 0.970267 0.616155
C62? C 0.7769(10) 1.1397(7) 0.6593(6)
H77? H 0.704014 1.104550 0.616059
H78? H 0.719723 1.188918 0.686464
loop_
_geom_bond_atom_site_label_1
_geom_bond_atom_site_label_2
_geom_bond_site_symmetry_1
_geom_bond_site_symmetry_2
C1 C2 1_555 1_555
C2 C3 1_555 1_555
C3 H1 1_555 1_555
C4 C3 1_555 1_555
H2 C4 1_555 1_555
C5 C4 1_555 1_555
H3 C5 1_555 1_555
C6 C5 1_555 1_555
H4 C6 1_555 1_555
C7 C2 1_555 1_555
H5 C7 1_555 1_555
C8 C1 1_555 1_555
H6 C8 1_555 1_555
H7 C8 1_555 1_555
C9 C8 1_555 1_555
H8 C9 1_555 1_555
H9 C9 1_555 1_555
C10 C9 1_555 1_555
H10 C10 1_555 1_555
C11 C10 1_555 1_555
H11 C11 1_555 1_555
C12 C11 1_555 1_555
H12 C12 1_555 1_555
H13 C12 1_555 1_555
C13 C12 1_555 1_555
H14 C13 1_555 1_555
H15 C13 1_555 1_555
C14 C13 1_555 1_555
H16 C14 1_555 1_555
C15 C10 1_555 1_555
H17 C15 1_555 1_555
H18 C15 1_555 1_555
C16 C11 1_555 1_555
H19 C16 1_555 1_555
H20 C16 1_555 1_555
C17 C18 1_555 1_555
C18 C19 1_555 1_555
C19 H21 1_555 1_555
C20 C19 1_555 1_555
C21 C20 1_555 1_555
H22 C21 1_555 1_555
C22 C17 1_555 1_555
H23 C22 1_555 1_555
N1 C1 1_555 1_555
N2 C17 1_555 1_555
H24 N2 1_555 1_555
N3 C18 1_555 1_555
N4 C20 1_555 1_555
O1 N3 1_555 1_555
O2 N3 1_555 1_555
O3 N4 1_555 1_555
O4 N4 1_555 1_555
C31 C32 1_555 1_555
C32 H40 1_555 1_555
C33 C32 1_555 1_555
H41 C33 1_555 1_555
C34 C33 1_555 1_555
H42 C34 1_555 1_555
C35 C34 1_555 1_555
H43 C35 1_555 1_555
C36 C31 1_555 1_555
H44 C36 1_555 1_555
C37 C31 1_555 1_555
C38 C37 1_555 1_555
H45 C38 1_555 1_555
H46 C38 1_555 1_555
C39 C38 1_555 1_555
H47 C39 1_555 1_555
H48 C39 1_555 1_555
C40 C39 1_555 1_555
H49 C40 1_555 1_555
C41 C40 1_555 1_555
H50 C41 1_555 1_555
C42 C41 1_555 1_555
H51 C42 1_555 1_555
H52 C42 1_555 1_555
C43 C42 1_555 1_555
H53 C43 1_555 1_555
C44 C43 1_555 1_555
H54 C44 1_555 1_555
H55 C44 1_555 1_555
C45 C41 1_555 1_555
H56 C45 1_555 1_555
H57 C45 1_555 1_555
C46 C40 1_555 1_555
H58 C46 1_555 1_555
H59 C46 1_555 1_555
C47 C48 1_555 1_555
C48 C49 1_555 1_555
C49 H60 1_555 1_555
C50 C49 1_555 1_555
C51 C50 1_555 1_555
H61 C51 1_555 1_555
C52 C47 1_555 1_555
H62 C52 1_555 1_555
N5 C37 1_555 1_555
N6 C47 1_555 1_555
H63 N6 1_555 1_555
N7 C48 1_555 1_555
N8 C50 1_555 1_555
O5 N7 1_555 1_555
O6 N7 1_555 1_555
O7 N8 1_555 1_555
O8 N8 1_555 1_555
C6 C7 1_555 1_555
C14 C15 1_555 1_555
C14 C16 1_555 1_555
C21 C22 1_555 1_555
N1 N2 1_555 1_555
C35 C36 1_555 1_555
C43 C46 1_555 1_555
C44 C45 1_555 1_555
C51 C52 1_555 1_555
N5 N6 1_555 1_555

#END
