
#######################################################################
#
#                 Cambridge Crystallographic Data Centre
#                                CCDC 
#
#######################################################################
#
# If this CIF has been generated from an entry in the Cambridge 
# Structural Database, then it will include bibliographic, chemical, 
# crystal, experimental, refinement or atomic coordinate data resulting 
# from the CCDC's data processing and validation procedures.
#
#######################################################################

data_MIFPEZ
_chemical_formula_moiety         'C15 H14 O2 S1'
_chemical_name_systematic        
'2-{[(3-methylphenyl)methyl]sulfanyl}benzoic acid'
_symmetry_cell_setting           orthorhombic
_symmetry_space_group_name_H-M   'P b c a'
_symmetry_Int_Tables_number      61
_space_group_name_Hall           '-P 2ac 2ab'
loop_
_symmetry_equiv_pos_site_id
_symmetry_equiv_pos_as_xyz
1 x,y,z
2 1/2-x,-y,1/2+z
3 -x,1/2+y,1/2-z
4 1/2+x,1/2-y,-z
5 -x,-y,-z
6 1/2+x,y,1/2-z
7 x,1/2-y,1/2+z
8 1/2-x,1/2+y,z
_cell_length_a                   15.1881(12)
_cell_length_b                   7.3288(6)
_cell_length_c                   23.7366(19)
_cell_angle_alpha                90
_cell_angle_beta                 90
_cell_angle_gamma                90
_cell_volume                     2642.13
_exptl_crystal_colour            colorless
_exptl_crystal_description       block
_cell_formula_units_Z            8
loop_
_atom_site_label
_atom_site_type_symbol
_atom_site_fract_x
_atom_site_fract_y
_atom_site_fract_z
S1 S 0.62884(3) 1.06437(6) 0.59032(2)
C1 C 0.63626(11) 0.9876(3) 0.52003(7)
C2 C 0.60153(12) 1.0936(2) 0.47554(8)
C3 C 0.60605(13) 1.0275(3) 0.42016(8)
H1 H 0.5831 1.0972 0.3909
C4 C 0.56038(12) 1.2726(3) 0.48579(7)
C5 C 0.64383(14) 0.8613(3) 0.40842(9)
H2 H 0.6460 0.8185 0.3716
C6 C 0.57588(13) 0.8789(3) 0.72052(8)
H3 H 0.5321 0.8144 0.7017
C7 C 0.67524(12) 0.8205(3) 0.50658(9)
H4 H 0.6994 0.7497 0.5352
C8 C 0.65274(14) 0.9216(2) 0.69226(8)
C9 C 0.66514(14) 0.8683(3) 0.63143(8)
H5 H 0.6301 0.7616 0.6224
H6 H 0.7265 0.8413 0.6238
C10 C 0.56214(16) 0.9298(3) 0.77654(9)
C11 C 0.62873(17) 1.0274(3) 0.80309(9)
H7 H 0.6218 1.0624 0.8405
C12 C 0.67857(13) 0.7585(3) 0.45183(9)
H8 H 0.7045 0.6463 0.4440
C13 C 0.70441(18) 1.0729(3) 0.77507(11)
H9 H 0.7476 1.1402 0.7934
C14 C 0.71728(15) 1.0200(3) 0.71997(10)
H10 H 0.7692 1.0503 0.7015
O1 O 0.55943(11) 1.3465(2) 0.53194(6)
O2 O 0.52410(11) 1.3484(2) 0.44112(6)
C15 C 0.47873(18) 0.8799(4) 0.80668(12)
H11 H 0.4798 0.7525 0.8160
H12 H 0.4292 0.9045 0.7827
H13 H 0.4738 0.9507 0.8406
H14 H 0.4980(19) 1.455(4) 0.4509(12)
loop_
_geom_bond_atom_site_label_1
_geom_bond_atom_site_label_2
_geom_bond_site_symmetry_1
_geom_bond_site_symmetry_2
S1 C1 1_555 1_555
C1 C2 1_555 1_555
C2 C3 1_555 1_555
C3 H1 1_555 1_555
C4 C2 1_555 1_555
C5 C3 1_555 1_555
H2 C5 1_555 1_555
C6 H3 1_555 1_555
C7 C1 1_555 1_555
H4 C7 1_555 1_555
C8 C6 1_555 1_555
C9 S1 1_555 1_555
H5 C9 1_555 1_555
H6 C9 1_555 1_555
C10 C6 1_555 1_555
C11 C10 1_555 1_555
H7 C11 1_555 1_555
C12 C5 1_555 1_555
H8 C12 1_555 1_555
C13 C11 1_555 1_555
H9 C13 1_555 1_555
C14 C8 1_555 1_555
H10 C14 1_555 1_555
O1 C4 1_555 1_555
O2 C4 1_555 1_555
C15 C10 1_555 1_555
H11 C15 1_555 1_555
H12 C15 1_555 1_555
H13 C15 1_555 1_555
H14 O2 1_555 1_555
C7 C12 1_555 1_555
C8 C9 1_555 1_555
C13 C14 1_555 1_555

#END
