
#######################################################################
#
#                 Cambridge Crystallographic Data Centre
#                                CCDC 
#
#######################################################################
#
# If this CIF has been generated from an entry in the Cambridge 
# Structural Database, then it will include bibliographic, chemical, 
# crystal, experimental, refinement or atomic coordinate data resulting 
# from the CCDC's data processing and validation procedures.
#
#######################################################################

data_MIFSAV
_chemical_formula_moiety         'C25 H17 N3'
_chemical_name_systematic        
4-Phenyl-1-(2,4,5-tricyanophenyl)-1,2,3,4-tetrahydronaphthalene
_symmetry_cell_setting           orthorhombic
_symmetry_space_group_name_H-M   'P n a 21'
_symmetry_Int_Tables_number      33
_space_group_name_Hall           'P 2c -2n'
loop_
_symmetry_equiv_pos_site_id
_symmetry_equiv_pos_as_xyz
1 x,y,z
2 -x,-y,1/2+z
3 1/2+x,1/2-y,z
4 1/2-x,1/2+y,1/2+z
_cell_length_a                   22.2686(3)
_cell_length_b                   9.2463(2)
_cell_length_c                   9.1349(2)
_cell_angle_alpha                90
_cell_angle_beta                 90
_cell_angle_gamma                90
_cell_volume                     1880.9
_exptl_crystal_colour            colorless
_exptl_crystal_description       block
_cell_formula_units_Z            4
_exptl_crystal_recrystallization_method 'petroleum ether/ethyl acetate'
loop_
_atom_site_label
_atom_site_type_symbol
_atom_site_fract_x
_atom_site_fract_y
_atom_site_fract_z
N1 N 0.29241(11) 0.8265(3) 0.0048(3)
N2 N 0.14944(10) 0.6697(3) 0.6453(3)
N3 N 0.29981(10) 0.5316(3) 0.8201(3)
C1 C 0.43512(11) 0.8476(3) 0.2404(3)
H1 H 0.4590 0.8661 0.1536
H2 H 0.4017 0.9149 0.2406
C2 C 0.47338(10) 0.8719(3) 0.3763(3)
H3 H 0.4503 0.8483 0.4631
H4 H 0.4850 0.9728 0.3822
C3 C 0.52995(10) 0.7762(3) 0.3695(3)
H5 H 0.5488 0.7792 0.4664
C4 C 0.51325(10) 0.6202(3) 0.3393(3)
C5 C 0.55527(11) 0.5114(3) 0.3703(3)
H6 H 0.5919 0.5366 0.4121
C6 C 0.54354(12) 0.3670(3) 0.3400(3)
H7 H 0.5722 0.2967 0.3603
C7 C 0.48863(13) 0.3284(3) 0.2791(3)
H8 H 0.4802 0.2320 0.2585
C8 C 0.44668(12) 0.4343(3) 0.2493(3)
H9 H 0.4097 0.4080 0.2100
C9 C 0.45847(10) 0.5797(2) 0.2768(3)
C10 C 0.41089(10) 0.6914(3) 0.2354(3)
H10 H 0.3995 0.6719 0.1336
C11 C 0.35406(10) 0.6777(2) 0.3266(3)
C12 C 0.35427(10) 0.6280(3) 0.4695(3)
H11 H 0.3902 0.5974 0.5112
C13 C 0.30168(10) 0.6228(3) 0.5522(3)
C14 C 0.24681(10) 0.6692(3) 0.4903(3)
C15 C 0.24535(10) 0.7164(2) 0.3472(3)
H12 H 0.2092 0.7441 0.3045
C16 C 0.29879(10) 0.7222(2) 0.2671(3)
C17 C 0.57526(10) 0.8359(3) 0.2606(3)
C18 C 0.58741(11) 0.7709(3) 0.1250(3)
H13 H 0.5671 0.6869 0.0989
C19 C 0.62917(12) 0.8297(3) 0.0290(3)
H14 H 0.6366 0.7847 -0.0602
C20 C 0.65974(11) 0.9545(3) 0.0653(3)
H15 H 0.6878 0.9935 0.0011
C21 C 0.64828(11) 1.0213(3) 0.1984(3)
H16 H 0.6686 1.1056 0.2233
C22 C 0.60665(10) 0.9627(3) 0.2943(3)
H17 H 0.5994 1.0087 0.3831
C23 C 0.29566(10) 0.7784(3) 0.1195(3)
C24 C 0.19231(11) 0.6683(3) 0.5762(3)
C25 C 0.30164(10) 0.5715(3) 0.7013(3)
loop_
_geom_bond_atom_site_label_1
_geom_bond_atom_site_label_2
_geom_bond_site_symmetry_1
_geom_bond_site_symmetry_2
N1 C23 1_555 1_555
N2 C24 1_555 1_555
N3 C25 1_555 1_555
C1 H1 1_555 1_555
H2 C1 1_555 1_555
C2 C1 1_555 1_555
H3 C2 1_555 1_555
H4 C2 1_555 1_555
C3 C2 1_555 1_555
H5 C3 1_555 1_555
C4 C3 1_555 1_555
C5 C4 1_555 1_555
H6 C5 1_555 1_555
C6 C5 1_555 1_555
H7 C6 1_555 1_555
C7 C6 1_555 1_555
H8 C7 1_555 1_555
C8 C7 1_555 1_555
H9 C8 1_555 1_555
C9 C4 1_555 1_555
C10 C1 1_555 1_555
H10 C10 1_555 1_555
C11 C10 1_555 1_555
C12 C11 1_555 1_555
H11 C12 1_555 1_555
C13 C12 1_555 1_555
C14 C13 1_555 1_555
C15 C14 1_555 1_555
H12 C15 1_555 1_555
C16 C11 1_555 1_555
C17 C3 1_555 1_555
C18 C17 1_555 1_555
H13 C18 1_555 1_555
C19 C18 1_555 1_555
H14 C19 1_555 1_555
C20 C19 1_555 1_555
H15 C20 1_555 1_555
C21 C20 1_555 1_555
H16 C21 1_555 1_555
C22 C17 1_555 1_555
H17 C22 1_555 1_555
C23 C16 1_555 1_555
C24 C14 1_555 1_555
C25 C13 1_555 1_555
C8 C9 1_555 1_555
C9 C10 1_555 1_555
C15 C16 1_555 1_555
C21 C22 1_555 1_555

#END
