
#######################################################################
#
#                 Cambridge Crystallographic Data Centre
#                                CCDC 
#
#######################################################################
#
# If this CIF has been generated from an entry in the Cambridge 
# Structural Database, then it will include bibliographic, chemical, 
# crystal, experimental, refinement or atomic coordinate data resulting 
# from the CCDC's data processing and validation procedures.
#
#######################################################################

data_MIFTAY
_chemical_formula_moiety         'C20 H22 Cl1 N1 O5'
_chemical_name_systematic        
N-(2-Chlorophenyl)-1-(hydroxymethyl)-2-(3,4,5-trimethoxyphenyl)cyclopropanecarboxamide
_symmetry_cell_setting           orthorhombic
_symmetry_space_group_name_H-M   'P 21 21 21'
_symmetry_Int_Tables_number      19
_space_group_name_Hall           'P 2ac 2ab'
loop_
_symmetry_equiv_pos_site_id
_symmetry_equiv_pos_as_xyz
1 x,y,z
2 1/2-x,-y,1/2+z
3 -x,1/2+y,1/2-z
4 1/2+x,1/2-y,-z
_cell_length_a                   9.9840(17)
_cell_length_b                   12.974(2)
_cell_length_c                   15.153(3)
_cell_angle_alpha                90
_cell_angle_beta                 90
_cell_angle_gamma                90
_cell_volume                     1962.8
_exptl_crystal_colour            colorless
_exptl_crystal_description       sheet
_cell_formula_units_Z            4
loop_
_atom_site_label
_atom_site_type_symbol
_atom_site_fract_x
_atom_site_fract_y
_atom_site_fract_z
Cl1 Cl 0.12517(6) 0.50443(4) 0.45067(3)
O1 O 0.11316(16) 0.83157(10) 0.27226(9)
O2 O 0.03539(15) 0.51494(11) 0.21178(11)
H1 H -0.0115 0.4635 0.2174
C1 C 0.10287(16) 0.73902(13) 0.25930(11)
O3 O 0.60427(17) 0.63842(15) 0.16909(13)
N1 N 0.15037(17) 0.66729(13) 0.31658(10)
C2 C 0.2716(2) 0.73901(16) 0.10575(11)
C3 C 0.2222(2) 0.61436(16) 0.46152(13)
C4 C 0.1322(2) 0.70158(15) 0.09548(11)
H2 H 0.1217 0.6448 0.0534
C5 C 0.3069(2) 0.84114(18) 0.09046(15)
H3 H 0.2427 0.8882 0.0716
C6 C 0.04107(17) 0.69438(15) 0.17730(12)
C7 C -0.04543(19) 0.59934(17) 0.18540(14)
H4 H -0.1154 0.6110 0.2287
H5 H -0.0875 0.5844 0.1291
O4 O 0.66672(19) 0.83419(17) 0.13883(13)
C8 C 0.50041(19) 0.70117(18) 0.14412(12)
C9 C 0.4384(2) 0.87269(18) 0.10340(15)
C10 C 0.2239(2) 0.68588(16) 0.39385(13)
C11 C 0.3687(2) 0.66977(15) 0.13302(12)
H6 H 0.3453 0.6016 0.1440
C12 C 0.0119(2) 0.76963(17) 0.10415(14)
H7 H -0.0641 0.7553 0.0662
H8 H 0.0272 0.8422 0.1160
C13 C 0.5364(2) 0.80384(19) 0.13086(14)
C14 C 0.2960(3) 0.6263(2) 0.53734(16)
H9 H 0.2936 0.5762 0.5812
C15 C 0.3058(3) 0.7726(2) 0.4036(2)
H10 H 0.3118 0.8212 0.3586
O5 O 0.4828(2) 0.97154(16) 0.09102(19)
C16 C 0.3779(3) 0.7853(3) 0.4809(2)
H11 H 0.4305 0.8439 0.4879
C17 C 0.7098(3) 0.8504(3) 0.2255(3)
H12 H 0.6567 0.9037 0.2521
H13 H 0.8022 0.8708 0.2252
H14 H 0.6999 0.7878 0.2587
C18 C 0.3737(3) 0.7136(3) 0.5477(2)
H15 H 0.4227 0.7237 0.5992
C19 C 0.5769(3) 0.5338(3) 0.1825(3)
H16 H 0.5128 0.5264 0.2293
H17 H 0.6581 0.4985 0.1981
H18 H 0.5411 0.5046 0.1293
C20 C 0.3854(5) 1.0470(3) 0.0683(4)
H19 H 0.3481 1.0310 0.0115
H20 H 0.4270 1.1137 0.0662
H21 H 0.3155 1.0473 0.1118
H22 H 0.134(2) 0.607(2) 0.3048(14)
loop_
_geom_bond_atom_site_label_1
_geom_bond_atom_site_label_2
_geom_bond_site_symmetry_1
_geom_bond_site_symmetry_2
Cl1 C3 1_555 1_555
O1 C1 1_555 1_555
O2 H1 1_555 1_555
C1 N1 1_555 1_555
O3 C8 1_555 1_555
N1 C10 1_555 1_555
C2 C4 1_555 1_555
C3 C10 1_555 1_555
C4 H2 1_555 1_555
C5 C2 1_555 1_555
H3 C5 1_555 1_555
C6 C1 1_555 1_555
C7 O2 1_555 1_555
H4 C7 1_555 1_555
H5 C7 1_555 1_555
O4 C13 1_555 1_555
C8 C11 1_555 1_555
C9 C5 1_555 1_555
C10 C15 1_555 1_555
C11 C2 1_555 1_555
H6 C11 1_555 1_555
C12 C4 1_555 1_555
H7 C12 1_555 1_555
H8 C12 1_555 1_555
C13 C8 1_555 1_555
C14 C3 1_555 1_555
H9 C14 1_555 1_555
C15 H10 1_555 1_555
O5 C9 1_555 1_555
C16 C15 1_555 1_555
H11 C16 1_555 1_555
C17 O4 1_555 1_555
H12 C17 1_555 1_555
H13 C17 1_555 1_555
H14 C17 1_555 1_555
C18 C14 1_555 1_555
H15 C18 1_555 1_555
C19 O3 1_555 1_555
H16 C19 1_555 1_555
H17 C19 1_555 1_555
H18 C19 1_555 1_555
C20 O5 1_555 1_555
H19 C20 1_555 1_555
H20 C20 1_555 1_555
H21 C20 1_555 1_555
H22 N1 1_555 1_555
C4 C6 1_555 1_555
C6 C7 1_555 1_555
C6 C12 1_555 1_555
C9 C13 1_555 1_555
C16 C18 1_555 1_555

#END
