
#######################################################################
#
#                 Cambridge Crystallographic Data Centre
#                                CCDC 
#
#######################################################################
#
# If this CIF has been generated from an entry in the Cambridge 
# Structural Database, then it will include bibliographic, chemical, 
# crystal, experimental, refinement or atomic coordinate data resulting 
# from the CCDC's data processing and validation procedures.
#
#######################################################################

data_MIFTIE
_chemical_name_common            3-((Diphenylmethylene)amino)phthalonitrile
_chemical_formula_moiety         'C21 H13 N3'
_chemical_name_systematic        2,3-Dicyano-N-(diphenylmethylene)benzenamine
_symmetry_cell_setting           monoclinic
_symmetry_space_group_name_H-M   'C 2/c'
_symmetry_Int_Tables_number      15
_space_group_name_Hall           '-C 2yn'
loop_
_symmetry_equiv_pos_site_id
_symmetry_equiv_pos_as_xyz
1 x,y,z
2 1/2+x,1/2+y,z
3 x,-y,1/2+z
4 1/2+x,1/2-y,1/2+z
5 -x,-y,-z
6 1/2-x,1/2-y,-z
7 -x,y,1/2-z
8 1/2-x,1/2+y,1/2-z
_cell_length_a                   15.3572(2)
_cell_length_b                   8.0212(2)
_cell_length_c                   26.7363(2)
_cell_angle_alpha                90
_cell_angle_beta                 91.6480(10)
_cell_angle_gamma                90
_cell_volume                     3292.1
_exptl_crystal_colour            yellow
_exptl_crystal_description       slab
_chemical_melting_point          415K
_cell_formula_units_Z            8
_exptl_crystal_recrystallization_method 'petroleum ether/ethyl acetate'
loop_
_atom_site_label
_atom_site_type_symbol
_atom_site_fract_x
_atom_site_fract_y
_atom_site_fract_z
N1 N 0.22150(9) 0.84975(19) 0.10963(6)
N2 N 0.19821(13) 0.4134(2) 0.08851(7)
N3 N 0.08426(13) 0.3948(2) -0.04913(7)
C1 C 0.15900(11) 0.6853(2) 0.04099(6)
C2 C 0.11877(11) 0.6775(2) -0.00667(7)
C3 C 0.09587(13) 0.8221(3) -0.03202(8)
C4 C 0.11367(13) 0.9748(3) -0.00990(8)
C5 C 0.15260(12) 0.9842(3) 0.03692(8)
C6 C 0.17479(11) 0.8396(2) 0.06354(7)
C7 C 0.18770(11) 0.9144(2) 0.14858(7)
C8 C 0.09427(11) 0.9638(2) 0.15342(6)
C9 C 0.02584(11) 0.8638(2) 0.13568(7)
C10 C -0.05977(12) 0.9171(3) 0.14011(7)
C11 C -0.07742(13) 1.0700(3) 0.16165(7)
C12 C -0.00998(13) 1.1678(3) 0.17970(8)
C13 C 0.07541(13) 1.1147(2) 0.17596(8)
C14 C 0.24825(11) 0.9502(2) 0.19195(7)
C15 C 0.33116(11) 1.0126(2) 0.18295(7)
C16 C 0.38705(12) 1.0514(3) 0.22294(8)
C17 C 0.36235(13) 1.0232(3) 0.27153(8)
C18 C 0.28037(13) 0.9594(2) 0.28057(8)
C19 C 0.22273(12) 0.9268(2) 0.24103(7)
C20 C 0.18153(13) 0.5345(2) 0.06764(7)
C21 C 0.10048(13) 0.5187(3) -0.02987(7)
H1 H 0.0388(11) 0.753(3) 0.1199(7)
H2 H -0.0211(12) 1.270(3) 0.1980(8)
H3 H 0.4446(13) 1.096(2) 0.2162(7)
H4 H 0.1656(12) 1.090(2) 0.0511(7)
H5 H 0.0686(12) 0.815(2) -0.0653(8)
H6 H -0.1394(13) 1.108(3) 0.1646(7)
H7 H 0.1622(13) 0.880(3) 0.2479(8)
H8 H -0.1055(14) 0.843(3) 0.1265(8)
H9 H 0.1243(13) 1.186(2) 0.1899(7)
H10 H 0.0990(12) 1.073(3) -0.0271(8)
H11 H 0.2633(12) 0.943(3) 0.3170(8)
H12 H 0.4025(12) 1.047(2) 0.3004(8)
H13 H 0.3464(12) 1.032(2) 0.1471(8)
loop_
_geom_bond_atom_site_label_1
_geom_bond_atom_site_label_2
_geom_bond_site_symmetry_1
_geom_bond_site_symmetry_2
N1 C6 1_555 1_555
N2 C20 1_555 1_555
N3 C21 1_555 1_555
C1 C2 1_555 1_555
C2 C3 1_555 1_555
C3 C4 1_555 1_555
C4 C5 1_555 1_555
C5 C6 1_555 1_555
C6 C1 1_555 1_555
C7 N1 1_555 1_555
C8 C7 1_555 1_555
C9 C8 1_555 1_555
C10 C9 1_555 1_555
C11 C10 1_555 1_555
C12 C11 1_555 1_555
C13 C8 1_555 1_555
C14 C7 1_555 1_555
C15 C14 1_555 1_555
C16 C15 1_555 1_555
C17 C16 1_555 1_555
C18 C17 1_555 1_555
C19 C14 1_555 1_555
C20 C1 1_555 1_555
C21 C2 1_555 1_555
H1 C9 1_555 1_555
H2 C12 1_555 1_555
H3 C16 1_555 1_555
H4 C5 1_555 1_555
H5 C3 1_555 1_555
H6 C11 1_555 1_555
H7 C19 1_555 1_555
H8 C10 1_555 1_555
H9 C13 1_555 1_555
H10 C4 1_555 1_555
H11 C18 1_555 1_555
H12 C17 1_555 1_555
H13 C15 1_555 1_555
C12 C13 1_555 1_555
C18 C19 1_555 1_555

#END
