
#######################################################################
#
#                 Cambridge Crystallographic Data Centre
#                                CCDC 
#
#######################################################################
#
# If this CIF has been generated from an entry in the Cambridge 
# Structural Database, then it will include bibliographic, chemical, 
# crystal, experimental, refinement or atomic coordinate data resulting 
# from the CCDC's data processing and validation procedures.
#
#######################################################################

data_MIFVUS
_chemical_formula_moiety         'C20 H22 N4,3(H2 O1)'
_chemical_name_systematic        '1,6-bis(1-Benzimidazolyl)hexane trihydrate'
_symmetry_cell_setting           orthorhombic
_symmetry_space_group_name_H-M   'P c c n'
_symmetry_Int_Tables_number      56
_space_group_name_Hall           '-P 2ab 2ac'
loop_
_symmetry_equiv_pos_site_id
_symmetry_equiv_pos_as_xyz
1 x,y,z
2 1/2+x,1/2+y,-z
3 x,1/2-y,1/2+z
4 1/2-x,y,1/2+z
5 -x,-y,-z
6 1/2-x,1/2-y,z
7 -x,1/2+y,1/2-z
8 1/2+x,-y,1/2-z
_cell_length_a                   14.4368(19)
_cell_length_b                   16.426(2)
_cell_length_c                   8.3834(12)
_cell_angle_alpha                90
_cell_angle_beta                 90
_cell_angle_gamma                90
_cell_volume                     1988.03
_exptl_crystal_colour            colorless
_exptl_crystal_description       block
_chemical_melting_point          421-423K
_cell_formula_units_Z            4
_exptl_crystal_recrystallization_method 
'saturated acetone-alcohol(1:4) solution'
loop_
_atom_site_label
_atom_site_type_symbol
_atom_site_fract_x
_atom_site_fract_y
_atom_site_fract_z
N1 N 0.60971(17) 0.07536(14) 0.4371(3)
N2 N 0.66711(18) 0.00600(15) 0.6445(3)
C1 C 0.5552(2) 0.09565(16) 0.5667(4)
C2 C 0.4790(2) 0.1454(2) 0.5804(4)
H1 H 0.4544 0.1731 0.4934
C3 C 0.4412(2) 0.1517(2) 0.7310(5)
H2 H 0.3894 0.1844 0.7461
C4 C 0.4782(3) 0.1107(2) 0.8605(4)
H3 H 0.4517 0.1175 0.9607
C5 C 0.5533(2) 0.06041(19) 0.8437(4)
H4 H 0.5774 0.0323 0.9306
C6 C 0.5922(2) 0.05269(17) 0.6942(4)
C7 C 0.6731(2) 0.02234(19) 0.4911(4)
H5 H 0.7177 -0.0010 0.4254
C8 C 0.6003(2) 0.10721(19) 0.2749(3)
H6 H 0.5358 0.1038 0.2429
H7 H 0.6361 0.0734 0.2027
C9 C 0.6323(2) 0.19400(18) 0.2594(4)
H8 H 0.6023 0.2261 0.3416
H9 H 0.6119 0.2148 0.1570
C10 C 0.7354(2) 0.20608(16) 0.2726(3)
H10 H 0.7569 0.1807 0.3703
H11 H 0.7653 0.1786 0.1841
C10E C 0.7646(2) 0.29392(16) 0.2726(3)
C9E C 0.8677(2) 0.30600(18) 0.2594(4)
C8E C 0.8997(2) 0.39279(19) 0.2749(3)
N1E N 0.89029(17) 0.42464(14) 0.4371(3)
C1E C 0.9448(2) 0.40435(16) 0.5667(4)
C2E C 1.0210(2) 0.3546(2) 0.5804(4)
H1E H 1.0456 0.3269 0.4934
C3E C 1.0588(2) 0.3483(2) 0.7310(5)
H2E H 1.1106 0.3156 0.7461
C4E C 1.0218(3) 0.3893(2) 0.8605(4)
H3E H 1.0483 0.3825 0.9607
C5E C 0.9467(2) 0.43959(19) 0.8437(4)
H4E H 0.9226 0.4677 0.9306
C6E C 0.9078(2) 0.44731(17) 0.6942(4)
N2E N 0.83289(18) 0.49400(15) 0.6445(3)
C7E C 0.8269(2) 0.47766(19) 0.4911(4)
H5E H 0.7823 0.5010 0.4254
H6E H 0.9642 0.3962 0.2429
H7E H 0.8639 0.4266 0.2027
H8E H 0.8977 0.2739 0.3416
H9E H 0.8881 0.2852 0.1570
H10E H 0.7431 0.3193 0.3703
H11E H 0.7347 0.3214 0.1841
O1 O 0.17220(19) 0.34376(14) 0.2394(3)
H12 H 0.186(3) 0.398(2) 0.250(6)
H13 H 0.203(3) 0.312(3) 0.311(6)
O2 O 0.2500 0.2500 0.4876(4)
H14 H 0.283(3) 0.285(3) 0.550(5)
H14E H 0.217(3) 0.215(3) 0.550(5)
loop_
_geom_bond_atom_site_label_1
_geom_bond_atom_site_label_2
_geom_bond_site_symmetry_1
_geom_bond_site_symmetry_2
N1 C1 1_555 1_555
N2 C6 1_555 1_555
C1 C2 1_555 1_555
C2 H1 1_555 1_555
C3 C2 1_555 1_555
H2 C3 1_555 1_555
C4 C3 1_555 1_555
H3 C4 1_555 1_555
C5 C4 1_555 1_555
H4 C5 1_555 1_555
C6 C1 1_555 1_555
C7 N1 1_555 1_555
H5 C7 1_555 1_555
C8 N1 1_555 1_555
H6 C8 1_555 1_555
H7 C8 1_555 1_555
C9 C8 1_555 1_555
H8 C9 1_555 1_555
H9 C9 1_555 1_555
C10 C9 1_555 1_555
H10 C10 1_555 1_555
H11 C10 1_555 1_555
O1 H12 1_555 1_555
O2 H14 1_555 1_555
H13 O1 1_555 1_555
C10E C10 1_555 1_555
C9E C10E 1_555 1_555
C8E C9E 1_555 1_555
N1E C8E 1_555 1_555
C1E N1E 1_555 1_555
C2E C1E 1_555 1_555
H1E C2E 1_555 1_555
C3E C2E 1_555 1_555
H2E C3E 1_555 1_555
C4E C3E 1_555 1_555
H3E C4E 1_555 1_555
C5E C4E 1_555 1_555
H4E C5E 1_555 1_555
C6E C1E 1_555 1_555
N2E C6E 1_555 1_555
C7E N1E 1_555 1_555
H5E C7E 1_555 1_555
H6E C8E 1_555 1_555
H7E C8E 1_555 1_555
H8E C9E 1_555 1_555
H9E C9E 1_555 1_555
H10E C10E 1_555 1_555
H11E C10E 1_555 1_555
H14E O2 1_555 1_555
N2 C7 1_555 1_555
C5 C6 1_555 1_555
C5E C6E 1_555 1_555
N2E C7E 1_555 1_555

#END
