
#######################################################################
#
#                 Cambridge Crystallographic Data Centre
#                                CCDC 
#
#######################################################################
#
# If this CIF has been generated from an entry in the Cambridge 
# Structural Database, then it will include bibliographic, chemical, 
# crystal, experimental, refinement or atomic coordinate data resulting 
# from the CCDC's data processing and validation procedures.
#
#######################################################################

data_MIFWIH
_chemical_formula_moiety         'C15 H17 N1 O2 S1'
_chemical_name_systematic        
1,2-Diethyl-3-hydroxy-6-(phenylthio)pyridin-4(1H)-one
_chemical_properties_biological  
'exhibits strong inhibitory activity on 5-lipoxygenase, the substitution at the 6-position being essential for the inhibition of the enzyme'
_symmetry_cell_setting           monoclinic
_symmetry_space_group_name_H-M   'P 21/n'
_symmetry_Int_Tables_number      14
_space_group_name_Hall           '-P 2yn'
loop_
_symmetry_equiv_pos_site_id
_symmetry_equiv_pos_as_xyz
1 x,y,z
2 1/2+x,1/2-y,1/2+z
3 -x,-y,-z
4 1/2-x,1/2+y,1/2-z
_cell_length_a                   12.980(7)
_cell_length_b                   8.482(5)
_cell_length_c                   14.189(8)
_cell_angle_alpha                90
_cell_angle_beta                 110.165(9)
_cell_angle_gamma                90
_cell_volume                     1466.4
_exptl_crystal_colour            colorless
_exptl_crystal_description       block
_cell_formula_units_Z            4
_exptl_crystal_recrystallization_method acetone
loop_
_atom_site_label
_atom_site_type_symbol
_atom_site_fract_x
_atom_site_fract_y
_atom_site_fract_z
S1 S 1.00764(5) 0.52846(8) 0.17086(4)
O1 O 0.87389(15) -0.0160(2) 0.35630(12)
H1 H 0.913(2) -0.028(3) 0.417(2)
O2 O 1.05678(12) 0.14881(19) 0.46458(10)
N1 N 0.88379(13) 0.28094(19) 0.17750(11)
C1 C 0.97479(15) 0.3628(2) 0.23201(13)
C2 C 1.03476(16) 0.3194(2) 0.32786(14)
H2 H 1.0972 0.3770 0.3628
C3 C 1.00525(15) 0.1905(2) 0.37555(13)
C4 C 0.90904(16) 0.1085(2) 0.31589(14)
C5 C 0.84951(19) 0.1533(3) 0.22063(15)
C6 C 0.7316(4) 0.0849(5) 0.1704(2)
H3 H 0.7016 0.0540 0.2216
H4 H 0.6838 0.1642 0.1281
C7 C 0.7384(5) -0.0545(6) 0.1091(4)
H5 H 0.6664 -0.0981 0.0776
H6 H 0.7855 -0.1326 0.1516
H7 H 0.7677 -0.0227 0.0584
C10 C 1.11667(18) 0.6178(3) 0.26866(16)
C11 C 1.22400(19) 0.5806(3) 0.28120(17)
H13 H 1.2393 0.5052 0.2403
C12 C 1.3085(2) 0.6551(3) 0.35430(19)
H14 H 1.3809 0.6302 0.3626
C13 C 1.2861(2) 0.7658(3) 0.4148(2)
H15 H 1.3434 0.8151 0.4646
C14 C 1.1796(3) 0.8042(3) 0.4020(2)
H16 H 1.1648 0.8801 0.4428
C15 C 1.0945(2) 0.7308(3) 0.3289(2)
H17 H 1.0223 0.7573 0.3202
C16 C 0.82214(17) 0.3256(3) 0.07217(14)
H18 H 0.8215 0.4395 0.0664
H19 H 0.7467 0.2905 0.0547
C17 C 0.8704(2) 0.2558(4) -0.00098(17)
H20 H 0.8277 0.2884 -0.0679
H21 H 0.8695 0.1429 0.0032
H22 H 0.9446 0.2917 0.0151
C8? C 0.7837(7) 0.0204(10) 0.1469(5)
H8? H 0.7892 0.0313 0.0808
H9? H 0.8081 -0.0841 0.1730
C9? C 0.6650(7) 0.0559(12) 0.1456(7)
H10? H 0.6145 -0.0181 0.1024
H11? H 0.6444 0.1610 0.1213
H12? H 0.6630 0.0465 0.2124
loop_
_geom_bond_atom_site_label_1
_geom_bond_atom_site_label_2
_geom_bond_site_symmetry_1
_geom_bond_site_symmetry_2
S1 C1 1_555 1_555
O1 H1 1_555 1_555
O2 C3 1_555 1_555
N1 C1 1_555 1_555
C1 C2 1_555 1_555
C2 H2 1_555 1_555
C3 C2 1_555 1_555
C4 O1 1_555 1_555
C5 N1 1_555 1_555
C6 C5 1_555 1_555
H3 C6 1_555 1_555
H4 C6 1_555 1_555
C7 C6 1_555 1_555
H5 C7 1_555 1_555
H6 C7 1_555 1_555
H7 C7 1_555 1_555
C10 S1 1_555 1_555
C11 C10 1_555 1_555
H13 C11 1_555 1_555
C12 C11 1_555 1_555
H14 C12 1_555 1_555
C13 C12 1_555 1_555
H15 C13 1_555 1_555
C14 C13 1_555 1_555
H16 C14 1_555 1_555
C15 C10 1_555 1_555
H17 C15 1_555 1_555
C16 N1 1_555 1_555
H18 C16 1_555 1_555
H19 C16 1_555 1_555
C17 C16 1_555 1_555
H20 C17 1_555 1_555
H21 C17 1_555 1_555
H22 C17 1_555 1_555
C3 C4 1_555 1_555
C4 C5 1_555 1_555
C14 C15 1_555 1_555

#END
