
#######################################################################
#
#                 Cambridge Crystallographic Data Centre
#                                CCDC 
#
#######################################################################
#
# If this CIF has been generated from an entry in the Cambridge 
# Structural Database, then it will include bibliographic, chemical, 
# crystal, experimental, refinement or atomic coordinate data resulting 
# from the CCDC's data processing and validation procedures.
#
#######################################################################

data_MIFXEH
_chemical_formula_moiety         'C12 H12 I1 N1 O2'
_chemical_name_systematic        
1-iodo-3-[(4-nitrophenyl)methyl]bicyclo[1.1.1]pentane
_symmetry_cell_setting           monoclinic
_symmetry_space_group_name_H-M   'P 21/c'
_symmetry_Int_Tables_number      14
_space_group_name_Hall           '-P 2ybc'
loop_
_symmetry_equiv_pos_site_id
_symmetry_equiv_pos_as_xyz
1 x,y,z
2 -x,1/2+y,1/2-z
3 -x,-y,-z
4 x,1/2-y,1/2+z
_cell_length_a                   12.8692(2)
_cell_length_b                   8.45340(10)
_cell_length_c                   11.4743(2)
_cell_angle_alpha                90
_cell_angle_beta                 99.0055(15)
_cell_angle_gamma                90
_cell_volume                     1232.88
_exptl_crystal_colour            colorless
_exptl_crystal_description       block
_chemical_melting_point          '349 K'
_cell_formula_units_Z            4
loop_
_atom_site_label
_atom_site_type_symbol
_atom_site_fract_x
_atom_site_fract_y
_atom_site_fract_z
I1 I 0.600534(13) 0.29189(2) 0.563690(16)
C1 C 0.4461(2) 0.2402(3) 0.6002(2)
C2 C 0.3767(2) 0.3435(4) 0.6681(3)
C3 C 0.3134(2) 0.1900(3) 0.6278(2)
C4 C 0.4163(2) 0.0952(3) 0.6683(3)
C5 C 0.3499(2) 0.2096(3) 0.5054(3)
C6 C 0.2032(2) 0.1468(3) 0.6473(3)
C7 C 0.1684(2) -0.0050(3) 0.5836(2)
C8 C 0.1212(2) -0.0014(3) 0.4652(2)
C9 C 0.0896(2) -0.1397(3) 0.4051(2)
C10 C 0.1073(2) -0.2815(3) 0.4654(3)
N1 N 0.07273(19) -0.4281(3) 0.4030(2)
O1 O 0.0095(2) -0.4188(3) 0.3117(2)
O2 O 0.1085(2) -0.5543(3) 0.4453(2)
C11 C 0.1553(2) -0.2900(3) 0.5822(3)
C12 C 0.1851(2) -0.1495(4) 0.6401(2)
H1 H 0.3991 0.3575 0.7540
H2 H 0.3509 0.4423 0.6305
H3 H 0.4422 0.0907 0.7531
H4 H 0.4214 -0.0089 0.6333
H5 H 0.3231 0.2987 0.4571
H6 H 0.3511 0.1174 0.4576
H7 H 0.2026 0.1301 0.7293
H8 H 0.1541 0.2294 0.6183
H9 H 0.1100 0.0964 0.4269
H10 H 0.0578 -0.1375 0.3269
H11 H 0.1667 -0.3876 0.6202
H12 H 0.2170 -0.1529 0.7197
loop_
_geom_bond_atom_site_label_1
_geom_bond_atom_site_label_2
_geom_bond_site_symmetry_1
_geom_bond_site_symmetry_2
I1 C1 1_555 1_555
C1 C2 1_555 1_555
C2 C3 1_555 1_555
C3 C4 1_555 1_555
C4 C1 1_555 1_555
C5 C1 1_555 1_555
C6 C3 1_555 1_555
C7 C6 1_555 1_555
C8 C7 1_555 1_555
C9 C8 1_555 1_555
C10 C9 1_555 1_555
N1 C10 1_555 1_555
O1 N1 1_555 1_555
O2 N1 1_555 1_555
C11 C10 1_555 1_555
C12 C7 1_555 1_555
H1 C2 1_555 1_555
H2 C2 1_555 1_555
H3 C4 1_555 1_555
H4 C4 1_555 1_555
H5 C5 1_555 1_555
H6 C5 1_555 1_555
H7 C6 1_555 1_555
H8 C6 1_555 1_555
H9 C8 1_555 1_555
H10 C9 1_555 1_555
H11 C11 1_555 1_555
H12 C12 1_555 1_555
C3 C5 1_555 1_555
C11 C12 1_555 1_555

#END
