
#######################################################################
#
#                 Cambridge Crystallographic Data Centre
#                                CCDC 
#
#######################################################################
#
# If this CIF has been generated from an entry in the Cambridge 
# Structural Database, then it will include bibliographic, chemical, 
# crystal, experimental, refinement or atomic coordinate data resulting 
# from the CCDC's data processing and validation procedures.
#
#######################################################################

data_MIFXAD
_chemical_formula_moiety         'C8 H12 I1 N1 O1,0.5(C1 H1 Cl3)'
_chemical_name_systematic        
'2-(3-iodobicyclo[1.1.1]pentan-1-yl)propanamide chloroform solvate'
_symmetry_cell_setting           monoclinic
_symmetry_space_group_name_H-M   'C 2/c'
_symmetry_Int_Tables_number      15
_space_group_name_Hall           '-C 2yn'
loop_
_symmetry_equiv_pos_site_id
_symmetry_equiv_pos_as_xyz
1 x,y,z
2 1/2+x,1/2+y,z
3 -x,y,1/2-z
4 1/2-x,1/2+y,1/2-z
5 -x,-y,-z
6 1/2-x,1/2-y,-z
7 x,-y,1/2+z
8 1/2+x,1/2-y,1/2+z
_cell_length_a                   25.6568(11)
_cell_length_b                   9.9841(3)
_cell_length_c                   9.9880(4)
_cell_angle_alpha                90
_cell_angle_beta                 95.639(4)
_cell_angle_gamma                90
_cell_volume                     2546.15
_exptl_crystal_colour            colorless
_exptl_crystal_description       needle
_chemical_melting_point          '381-383 K'
_cell_formula_units_Z            8
loop_
_atom_site_label
_atom_site_type_symbol
_atom_site_fract_x
_atom_site_fract_y
_atom_site_fract_z
I1 I 0.304566(11) 1.01563(3) 0.57563(3)
C1 C 0.32725(14) 0.8220(4) 0.6494(4)
C2 C 0.37458(14) 0.7889(4) 0.7511(4)
C3 C 0.34627(13) 0.6540(3) 0.7121(3)
C4 C 0.34215(15) 0.7023(4) 0.5635(4)
C5 C 0.29354(14) 0.7269(4) 0.7261(4)
C6 C 0.36130(13) 0.5161(3) 0.7671(3)
C7 C 0.41905(13) 0.4951(3) 0.7557(3)
O1 O 0.43626(10) 0.4728(3) 0.6465(3)
N1 N 0.45048(13) 0.5052(4) 0.8696(3)
C8 C 0.32867(14) 0.4062(4) 0.6927(4)
H1 H 0.3741 0.8214 0.8420
H2 H 0.4094 0.8014 0.7221
H3 H 0.3746 0.7092 0.5202
H4 H 0.3150 0.6643 0.5015
H5 H 0.2858 0.7545 0.8154
H6 H 0.2622 0.6907 0.6768
H7 H 0.3554 0.5148 0.8632
H8 H 0.4839 0.5004 0.8680
H9 H 0.4376 0.5170 0.9450
H10 H 0.3384 0.3203 0.7315
H11 H 0.3350 0.4057 0.5988
H12 H 0.2920 0.4211 0.6998
C9? C 0.5029(4) 0.1943(10) 0.6457(12)
Cl1? Cl 0.4457(5) 0.1262(19) 0.7018(15)
Cl2? Cl 0.5014(4) 0.1902(12) 0.4698(12)
Cl3? Cl 0.5597(5) 0.118(2) 0.7242(16)
H13? H 0.5029 0.2887 0.6759
C10? C 0.5064(3) 0.1743(7) 0.7652(8)
Cl4? Cl 0.5581(4) 0.1217(10) 0.6734(10)
Cl5? Cl 0.5196(5) 0.1412(14) 0.9378(8)
Cl6? Cl 0.4460(3) 0.1071(13) 0.6996(13)
H14? H 0.5041 0.2726 0.7559
loop_
_geom_bond_atom_site_label_1
_geom_bond_atom_site_label_2
_geom_bond_site_symmetry_1
_geom_bond_site_symmetry_2
I1 C1 1_555 1_555
C1 C2 1_555 1_555
C2 C3 1_555 1_555
C3 C4 1_555 1_555
C4 C1 1_555 1_555
C5 C1 1_555 1_555
C6 C3 1_555 1_555
C7 C6 1_555 1_555
O1 C7 1_555 1_555
N1 C7 1_555 1_555
C8 C6 1_555 1_555
H1 C2 1_555 1_555
H2 C2 1_555 1_555
H3 C4 1_555 1_555
H4 C4 1_555 1_555
H5 C5 1_555 1_555
H6 C5 1_555 1_555
H7 C6 1_555 1_555
H8 N1 1_555 1_555
H9 N1 1_555 1_555
H10 C8 1_555 1_555
H11 C8 1_555 1_555
H12 C8 1_555 1_555
C3 C5 1_555 1_555

#END
