
#######################################################################
#
#                 Cambridge Crystallographic Data Centre
#                                CCDC 
#
#######################################################################
#
# If this CIF has been generated from an entry in the Cambridge 
# Structural Database, then it will include bibliographic, chemical, 
# crystal, experimental, refinement or atomic coordinate data resulting 
# from the CCDC's data processing and validation procedures.
#
#######################################################################

data_MIFZUW
_chemical_formula_moiety         'C22 H23 Cl2 N1 O3 S1'
_chemical_name_systematic        
'(3,5-trans)-7-Chloro-5-(2-chlorophenyl)-1-neopentyl-2-oxo-1,2,3,5-tetrahydro-4,1-benzothiazepine-3-acetic acid'
_chemical_properties_biological  'potent squalene synthase inhibitor'
_symmetry_cell_setting           monoclinic
_symmetry_space_group_name_H-M   'P 21/c'
_symmetry_Int_Tables_number      14
_space_group_name_Hall           '-P 2ybc'
loop_
_symmetry_equiv_pos_site_id
_symmetry_equiv_pos_as_xyz
1 x,y,z
2 x,1/2-y,1/2+z
3 -x,-y,-z
4 -x,1/2+y,1/2-z
_cell_length_a                   34.188(2)
_cell_length_b                   8.297(4)
_cell_length_c                   16.155(3)
_cell_angle_alpha                90
_cell_angle_beta                 95.186(8)
_cell_angle_gamma                90
_cell_volume                     4563.73
_exptl_crystal_colour            colorless
_exptl_crystal_description       needle
_chemical_melting_point          542-544K
_cell_formula_units_Z            8
_exptl_crystal_recrystallization_method methanol
loop_
_atom_site_label
_atom_site_type_symbol
_atom_site_fract_x
_atom_site_fract_y
_atom_site_fract_z
N1 N 0.08031(9) 0.2440(4) 0.5682(2)
C1 C 0.0743(1) 0.2920(5) 0.6460(2)
C2 C 0.0887(1) 0.4589(5) 0.6719(2)
S1 S 0.14121(3) 0.4573(2) 0.70095(6)
C3 C 0.1602(1) 0.3550(5) 0.6125(2)
C4 C 0.1375(1) 0.4005(5) 0.5306(2)
C5 C 0.0989(1) 0.3450(4) 0.5108(2)
C6 C 0.0789(1) 0.3847(5) 0.4352(2)
C7 C 0.0961(1) 0.4743(5) 0.3770(2)
C8 C 0.1339(1) 0.5281(5) 0.3960(2)
C9 C 0.1544(1) 0.4940(5) 0.4715(2)
Cl1 Cl 0.15620(4) 0.6474(2) 0.32511(7)
C10 C 0.2041(1) 0.3937(7) 0.6201(3)
C11 C 0.2323(2) 0.2777(8) 0.6234(3)
C12 C 0.2737(2) 0.314(1) 0.6326(4)
C13 C 0.2832(2) 0.475(1) 0.6339(5)
C14 C 0.2562(2) 0.591(1) 0.6315(4)
C15 C 0.2171(2) 0.5526(8) 0.6251(3)
Cl2 Cl 0.21920(6) 0.0749(3) 0.6209(1)
C16 C 0.0614(1) 0.0936(5) 0.5362(3)
C17 C 0.0881(2) -0.0564(5) 0.5382(3)
C18 C 0.1217(2) -0.0327(6) 0.4832(3)
C19 C 0.0615(2) -0.1957(6) 0.5042(3)
C20 C 0.1041(2) -0.0960(6) 0.6269(3)
O1 O 0.05831(8) 0.2063(4) 0.6953(2)
C21 C 0.0703(1) 0.5171(5) 0.7492(2)
C22 C 0.0278(1) 0.5565(6) 0.7332(3)
O2 O 0.00982(9) 0.5666(5) 0.6669(2)
O3 O 0.0123(1) 0.5799(6) 0.8033(2)
H1 H 0.0826 0.5349 0.6262
H2 H 0.1573 0.2386 0.6204
H3 H 0.0532 0.3497 0.4236
H4 H 0.0825 0.4982 0.3260
H5 H 0.1798 0.5339 0.4831
H6 H 0.2927 0.2338 0.6373
H7 H 0.3096 0.5039 0.6366
H8 H 0.2639 0.6988 0.6342
H9 H 0.1987 0.6351 0.6240
H10 H 0.0508 0.1118 0.4792
H11 H 0.0394 0.0705 0.5684
H12 H 0.1112 -0.0120 0.4271
H13 H 0.1376 -0.1282 0.4846
H14 H 0.1376 0.0572 0.5033
H15 H 0.0514 -0.1721 0.4481
H16 H 0.0400 -0.2080 0.5381
H17 H 0.0765 -0.2937 0.5052
H18 H 0.0826 -0.1138 0.6602
H19 H 0.1197 -0.0078 0.6495
H20 H 0.1199 -0.1915 0.6270
H21 H 0.0735 0.4342 0.7916
H22 H 0.0842 0.6123 0.7706
H23 H -0.0098 0.6177 0.7938
N2 N 0.57773(8) 0.7075(4) 0.5629(2)
C23 C 0.5724(1) 0.7564(5) 0.6410(2)
C24 C 0.5885(1) 0.9203(5) 0.6672(2)
S2 S 0.64114(3) 0.9102(2) 0.69536(7)
C25 C 0.6584(1) 0.8018(5) 0.6066(2)
C26 C 0.6366(1) 0.8531(5) 0.5252(2)
C27 C 0.5974(1) 0.8061(4) 0.5063(2)
C28 C 0.5772(1) 0.8528(5) 0.4321(2)
C29 C 0.5951(1) 0.9419(5) 0.3744(2)
C30 C 0.6336(1) 0.9867(5) 0.3929(3)
C31 C 0.6543(1) 0.9447(6) 0.4669(3)
Cl3 Cl 0.65728(4) 1.1004(2) 0.32141(8)
C32 C 0.7028(1) 0.8273(8) 0.6145(3)
C33 C 0.7278(2) 0.700(1) 0.6174(3)
C34 C 0.7687(2) 0.725(2) 0.6256(6)
C35 C 0.7834(3) 0.876(2) 0.6302(6)
C36 C 0.7591(2) 1.005(2) 0.6284(5)
C37 C 0.7183(2) 0.983(1) 0.6212(3)
Cl4 Cl 0.71176(7) 0.5005(3) 0.6131(1)
C38 C 0.5579(1) 0.5584(5) 0.5307(3)
C39 C 0.5825(2) 0.4052(5) 0.5330(3)
C40 C 0.6165(2) 0.4211(6) 0.4778(3)
C41 C 0.5549(2) 0.2681(6) 0.5010(3)
C42 C 0.5987(2) 0.3660(6) 0.6219(3)
O4 O 0.55557(8) 0.6742(4) 0.6900(2)
C43 C 0.5720(1) 0.9806(5) 0.7457(2)
C44 C 0.5290(1) 1.0201(6) 0.7332(3)
O5 O 0.51008(9) 1.0341(5) 0.6679(2)
O6 O 0.51469(9) 1.0381(5) 0.8056(2)
H24 H 0.5828 0.9981 0.6221
H25 H 0.6534 0.6866 0.6143
H26 H 0.5510 0.8234 0.4210
H27 H 0.5815 0.9711 0.3241
H28 H 0.6802 0.9779 0.4779
H29 H 0.7856 0.6367 0.6278
H30 H 0.8105 0.8911 0.6347
H31 H 0.7695 1.1082 0.6320
H32 H 0.7017 1.0720 0.6209
H33 H 0.5477 0.5776 0.4736
H34 H 0.5355 0.5391 0.5624
H35 H 0.6062 0.4453 0.4219
H36 H 0.6308 0.3216 0.4785
H37 H 0.6337 0.5064 0.4985
H38 H 0.5331 0.2620 0.5344
H39 H 0.5690 0.1679 0.5043
H40 H 0.5454 0.2888 0.4442
H41 H 0.5774 0.3570 0.6565
H42 H 0.6161 0.4506 0.6427
H43 H 0.6128 0.2659 0.6226
H44 H 0.5760 0.8989 0.7886
H45 H 0.5863 1.0763 0.7652
H46 H 0.4957 1.0986 0.8004
loop_
_geom_bond_atom_site_label_1
_geom_bond_atom_site_label_2
_geom_bond_site_symmetry_1
_geom_bond_site_symmetry_2
N1 C1 1_555 1_555
C1 C2 1_555 1_555
C2 S1 1_555 1_555
S1 C3 1_555 1_555
C3 C4 1_555 1_555
C4 C5 1_555 1_555
C5 N1 1_555 1_555
C6 C5 1_555 1_555
C7 C6 1_555 1_555
C8 C7 1_555 1_555
C9 C4 1_555 1_555
Cl1 C8 1_555 1_555
C10 C3 1_555 1_555
C11 C10 1_555 1_555
C12 C11 1_555 1_555
C13 C12 1_555 1_555
C14 C13 1_555 1_555
C15 C10 1_555 1_555
Cl2 C11 1_555 1_555
C16 N1 1_555 1_555
C17 C16 1_555 1_555
C18 C17 1_555 1_555
C19 C17 1_555 1_555
C20 C17 1_555 1_555
O1 C1 1_555 1_555
C21 C2 1_555 1_555
C22 C21 1_555 1_555
O2 C22 1_555 1_555
O3 C22 1_555 1_555
N2 C23 1_555 1_555
C23 C24 1_555 1_555
C24 S2 1_555 1_555
S2 C25 1_555 1_555
C25 C26 1_555 1_555
C26 C27 1_555 1_555
C27 N2 1_555 1_555
C28 C27 1_555 1_555
C29 C28 1_555 1_555
C30 C29 1_555 1_555
C31 C26 1_555 1_555
Cl3 C30 1_555 1_555
C32 C25 1_555 1_555
C33 C32 1_555 1_555
C34 C33 1_555 1_555
C35 C34 1_555 1_555
C36 C35 1_555 1_555
C37 C32 1_555 1_555
Cl4 C33 1_555 1_555
C38 N2 1_555 1_555
C39 C38 1_555 1_555
C40 C39 1_555 1_555
C41 C39 1_555 1_555
C42 C39 1_555 1_555
O4 C23 1_555 1_555
C43 C24 1_555 1_555
C44 C43 1_555 1_555
O5 C44 1_555 1_555
O6 C44 1_555 1_555
H1 C2 1_555 1_555
H2 C3 1_555 1_555
H3 C6 1_555 1_555
H4 C7 1_555 1_555
H5 C9 1_555 1_555
H6 C12 1_555 1_555
H7 C13 1_555 1_555
H8 C14 1_555 1_555
H9 C15 1_555 1_555
H10 C16 1_555 1_555
H11 C16 1_555 1_555
H12 C18 1_555 1_555
H13 C18 1_555 1_555
H14 C18 1_555 1_555
H15 C19 1_555 1_555
H16 C19 1_555 1_555
H17 C19 1_555 1_555
H18 C20 1_555 1_555
H19 C20 1_555 1_555
H20 C20 1_555 1_555
H21 C21 1_555 1_555
H22 C21 1_555 1_555
H23 O3 1_555 1_555
H24 C24 1_555 1_555
H25 C25 1_555 1_555
H26 C28 1_555 1_555
H27 C29 1_555 1_555
H28 C31 1_555 1_555
H29 C34 1_555 1_555
H30 C35 1_555 1_555
H31 C36 1_555 1_555
H32 C37 1_555 1_555
H33 C38 1_555 1_555
H34 C38 1_555 1_555
H35 C40 1_555 1_555
H36 C40 1_555 1_555
H37 C40 1_555 1_555
H38 C41 1_555 1_555
H39 C41 1_555 1_555
H40 C41 1_555 1_555
H41 C42 1_555 1_555
H42 C42 1_555 1_555
H43 C42 1_555 1_555
H44 C43 1_555 1_555
H45 C43 1_555 1_555
H46 O6 1_555 1_555
C8 C9 1_555 1_555
C14 C15 1_555 1_555
C30 C31 1_555 1_555
C36 C37 1_555 1_555

#END
