
#######################################################################
#
#                 Cambridge Crystallographic Data Centre
#                                CCDC 
#
#######################################################################
#
# If this CIF has been generated from an entry in the Cambridge 
# Structural Database, then it will include bibliographic, chemical, 
# crystal, experimental, refinement or atomic coordinate data resulting 
# from the CCDC's data processing and validation procedures.
#
#######################################################################

data_MIGBIN
_chemical_formula_moiety         'C22 H24 Cl2 N2 O3'
_chemical_name_systematic        
'7-Chloro-5-(2-chlorophenyl)-1-neopentyl-2-oxo-1,2,4,5-tetrahydro-3H-1,3-benzodiazepine-3-acetic acid'
_chemical_properties_biological  'potent squalene synthase inhibitor'
_symmetry_cell_setting           triclinic
_symmetry_space_group_name_H-M   'P -1'
_symmetry_Int_Tables_number      2
_space_group_name_Hall           '-P 1'
loop_
_symmetry_equiv_pos_site_id
_symmetry_equiv_pos_as_xyz
1 x,y,z
2 -x,-y,-z
_cell_length_a                   10.887(2)
_cell_length_b                   12.390(2)
_cell_length_c                   9.924(2)
_cell_angle_alpha                104.25(1)
_cell_angle_beta                 115.80(1)
_cell_angle_gamma                65.05(1)
_cell_volume                     1089.52
_exptl_crystal_colour            colorless
_exptl_crystal_description       prism
_chemical_melting_point          228-231deg.C
_cell_formula_units_Z            2
_exptl_crystal_recrystallization_method methanol
loop_
_atom_site_label
_atom_site_type_symbol
_atom_site_fract_x
_atom_site_fract_y
_atom_site_fract_z
N1 N 0.3438(2) 0.1769(2) 0.4088(2)
C1 C 0.4175(3) 0.1349(2) 0.3132(3)
N2 N 0.4745(2) 0.2060(2) 0.2915(3)
C2 C 0.4047(3) 0.3339(2) 0.2666(3)
C3 C 0.2654(3) 0.3976(2) 0.2988(3)
C4 C 0.3052(3) 0.3906(2) 0.4634(3)
C5 C 0.3523(3) 0.2790(2) 0.5139(3)
C6 C 0.4014(3) 0.2669(3) 0.6663(3)
C7 C 0.4010(3) 0.3648(3) 0.7682(3)
C8 C 0.3508(3) 0.4756(2) 0.7175(3)
C9 C 0.3054(3) 0.4890(2) 0.5673(3)
O1 O 0.4422(2) 0.0310(2) 0.2570(2)
Cl1 Cl 0.34474(9) 0.60048(7) 0.84536(8)
C10 C 0.1870(3) 0.5237(2) 0.2488(3)
C11 C 0.2615(4) 0.5926(3) 0.2526(4)
C12 C 0.1903(4) 0.7078(3) 0.2087(5)
C13 C 0.0407(4) 0.7574(3) 0.1605(4)
C14 C -0.0378(4) 0.6939(3) 0.1542(3)
C15 C 0.0357(3) 0.5774(3) 0.1980(3)
Cl2 Cl -0.06870(9) 0.49884(8) 0.1846(1)
C16 C 0.5908(3) 0.1440(3) 0.2333(3)
C17 C 0.5387(3) 0.1242(2) 0.0648(3)
O2 O 0.4144(2) 0.1537(2) -0.0202(2)
O3 O 0.6527(2) 0.0676(2) 0.0240(3)
C18 C 0.2847(3) 0.0973(2) 0.4310(3)
C19 C 0.1194(3) 0.1328(3) 0.3618(3)
C20 C 0.0445(4) 0.2547(3) 0.4307(5)
C21 C 0.0866(5) 0.0388(4) 0.4020(5)
C22 C 0.0629(5) 0.1350(4) 0.1930(4)
H1 H 0.3821 0.3428 0.1631
H2 H 0.4742 0.3727 0.3300
H3 H 0.1999 0.3532 0.2408
H4 H 0.4349 0.1919 0.6995
H5 H 0.4340 0.3564 0.8701
H6 H 0.2749 0.5640 0.5356
H7 H 0.3630 0.5600 0.2860
H8 H 0.2433 0.7513 0.2117
H9 H -0.0075 0.8352 0.1319
H10 H -0.1393 0.7278 0.1212
H11 H 0.6491 0.0671 0.2755
H12 H 0.6541 0.1897 0.2675
H13 H 0.6255 0.0396 -0.0632
H14 H 0.3166 0.0935 0.5380
H15 H 0.3276 0.0176 0.3896
H16 H 0.0814 0.2527 0.5376
H17 H -0.0591 0.2729 0.3899
H18 H 0.0645 0.3150 0.4077
H19 H 0.1119 0.0454 0.5085
H20 H 0.1429 -0.0394 0.3718
H21 H -0.0157 0.0515 0.3510
H22 H -0.0415 0.1572 0.1518
H23 H 0.1064 0.0571 0.1503
H24 H 0.0880 0.1919 0.1700
loop_
_geom_bond_atom_site_label_1
_geom_bond_atom_site_label_2
_geom_bond_site_symmetry_1
_geom_bond_site_symmetry_2
N1 C1 1_555 1_555
C1 N2 1_555 1_555
N2 C2 1_555 1_555
C2 C3 1_555 1_555
C3 C4 1_555 1_555
C4 C5 1_555 1_555
C5 N1 1_555 1_555
C6 C5 1_555 1_555
C7 C6 1_555 1_555
C8 C7 1_555 1_555
C9 C4 1_555 1_555
O1 C1 1_555 1_555
Cl1 C8 1_555 1_555
C10 C3 1_555 1_555
C11 C10 1_555 1_555
C12 C11 1_555 1_555
C13 C12 1_555 1_555
C14 C13 1_555 1_555
C15 C10 1_555 1_555
Cl2 C15 1_555 1_555
C16 N2 1_555 1_555
C17 C16 1_555 1_555
O2 C17 1_555 1_555
O3 C17 1_555 1_555
C18 N1 1_555 1_555
C19 C18 1_555 1_555
C20 C19 1_555 1_555
C21 C19 1_555 1_555
C22 C19 1_555 1_555
H1 C2 1_555 1_555
H2 C2 1_555 1_555
H3 C3 1_555 1_555
H4 C6 1_555 1_555
H5 C7 1_555 1_555
H6 C9 1_555 1_555
H7 C11 1_555 1_555
H8 C12 1_555 1_555
H9 C13 1_555 1_555
H10 C14 1_555 1_555
H11 C16 1_555 1_555
H12 C16 1_555 1_555
H13 O3 1_555 1_555
H14 C18 1_555 1_555
H15 C18 1_555 1_555
H16 C20 1_555 1_555
H17 C20 1_555 1_555
H18 C20 1_555 1_555
H19 C21 1_555 1_555
H20 C21 1_555 1_555
H21 C21 1_555 1_555
H22 C22 1_555 1_555
H23 C22 1_555 1_555
H24 C22 1_555 1_555
C8 C9 1_555 1_555
C14 C15 1_555 1_555

#END
