
#######################################################################
#
#                 Cambridge Crystallographic Data Centre
#                                CCDC 
#
#######################################################################
#
# If this CIF has been generated from an entry in the Cambridge 
# Structural Database, then it will include bibliographic, chemical, 
# crystal, experimental, refinement or atomic coordinate data resulting 
# from the CCDC's data processing and validation procedures.
#
#######################################################################

data_MIGBOT
_chemical_formula_moiety         'C23 H25 Cl2 N1 O4'
_chemical_name_systematic        
'(3,6-trans)-8-Chloro-6-(2-chlorophenyl)-1-neopentyl-2-oxo -2,3,5,6-tetrahydro-1H-4,1-benzoxazocine-3-acetic acid'
_chemical_properties_biological  'potent squalene synthase inhibitor'
_symmetry_cell_setting           monoclinic
_symmetry_space_group_name_H-M   'P 21/n'
_symmetry_Int_Tables_number      14
_space_group_name_Hall           '-P 2yn'
loop_
_symmetry_equiv_pos_site_id
_symmetry_equiv_pos_as_xyz
1 x,y,z
2 1/2+x,1/2-y,1/2+z
3 -x,-y,-z
4 1/2-x,1/2+y,1/2-z
_cell_length_a                   13.641(5)
_cell_length_b                   11.131(6)
_cell_length_c                   15.066(4)
_cell_angle_alpha                90
_cell_angle_beta                 106.58(3)
_cell_angle_gamma                90
_cell_volume                     2192.48
_exptl_crystal_colour            colorless
_exptl_crystal_description       plate
_chemical_melting_point          400-406K
_cell_formula_units_Z            4
_exptl_crystal_recrystallization_method methanol
loop_
_atom_site_label
_atom_site_type_symbol
_atom_site_fract_x
_atom_site_fract_y
_atom_site_fract_z
N1 N 0.2438(4) 0.2699(6) 0.5498(4)
C1 C 0.1753(6) 0.1794(7) 0.5200(5)
C2 C 0.2170(6) 0.0588(7) 0.5008(5)
O1 O 0.2144(4) 0.0606(5) 0.4053(3)
C3 C 0.3103(6) 0.0766(7) 0.3883(5)
C4 C 0.3575(5) 0.2046(7) 0.4085(5)
C5 C 0.4069(5) 0.2270(7) 0.5111(5)
C6 C 0.3531(6) 0.2531(7) 0.5758(5)
C7 C 0.4043(6) 0.2654(7) 0.6701(6)
C8 C 0.5084(7) 0.2594(8) 0.7013(6)
C9 C 0.5636(6) 0.2341(7) 0.6387(6)
C10 C 0.5137(6) 0.2194(6) 0.5459(5)
Cl1 Cl 0.6961(2) 0.2306(2) 0.6752(2)
C11 C 0.4312(8) 0.2226(8) 0.3474(8)
C12 C 0.4412(6) 0.3346(7) 0.3101(7)
C13 C 0.5073(7) 0.3495(6) 0.2558(6)
C14 C 0.5635(7) 0.2525(8) 0.2388(6)
C15 C 0.5535(7) 0.1405(7) 0.2761(7)
C16 C 0.4874(8) 0.1255(6) 0.3304(7)
Cl2 Cl 0.3788(2) 0.4572(3) 0.3340(2)
C23 C 0.2040(6) 0.3847(7) 0.5779(6)
C24 C 0.2063(7) 0.4957(8) 0.5196(7)
C25 C 0.3154(6) 0.5383(9) 0.5311(7)
C26 C 0.1492(8) 0.5932(9) 0.5570(8)
C27 C 0.1484(7) 0.4694(9) 0.4172(6)
O2 O 0.0828(4) 0.1941(5) 0.5060(4)
C28 C 0.1503(6) -0.0443(7) 0.5144(5)
C29 C 0.1477(7) -0.0499(8) 0.6146(6)
O3 O 0.2107(5) -0.0037(7) 0.6766(4)
O4 O 0.0723(4) -0.1138(5) 0.6307(4)
H1 H 0.2873 0.0481 0.5401
H2 H 0.3028 0.0575 0.3239
H3 H 0.3581 0.0193 0.4257
H4 H 0.3016 0.2626 0.3875
H6 H 0.3668 0.2777 0.7121
H7 H 0.5421 0.2722 0.7635
H8 H 0.5520 0.2039 0.5051
H9 H 0.5140 0.4245 0.2309
H10 H 0.6077 0.2625 0.2025
H11 H 0.5911 0.0755 0.2647
H12 H 0.4807 0.0506 0.3554
H17 H 0.2431 0.4022 0.6412
H18 H 0.1338 0.3713 0.5780
H19 H 0.3143 0.6077 0.4929
H20 H 0.3537 0.4753 0.5129
H21 H 0.3471 0.5588 0.5947
H22 H 0.0802 0.5676 0.5500
H23 H 0.1486 0.6664 0.5231
H24 H 0.1832 0.6068 0.6214
H25 H 0.0804 0.4426 0.4130
H26 H 0.1839 0.4081 0.3938
H27 H 0.1452 0.5413 0.3812
H28 H 0.1769 -0.1192 0.4980
H29 H 0.0815 -0.0336 0.4740
H30 H 0.0314 -0.1327 0.5813
C17? C 0.426(4) 0.242(4) 0.349(3)
C18? C 0.497(4) 0.172(3) 0.322(3)
C19? C 0.549(3) 0.219(3) 0.263(3)
C20? C 0.530(3) 0.336(3) 0.230(3)
C21? C 0.459(3) 0.406(3) 0.257(3)
C22? C 0.407(3) 0.359(4) 0.316(3)
Cl3? Cl 0.5202(9) 0.034(1) 0.3581(9)
H5? H 0.2990 0.2595 0.3913
H13? H 0.5962 0.1722 0.2449
H14? H 0.5645 0.3676 0.1908
H15? H 0.4460 0.4846 0.2352
H16? H 0.3590 0.4063 0.3339
loop_
_geom_bond_atom_site_label_1
_geom_bond_atom_site_label_2
_geom_bond_site_symmetry_1
_geom_bond_site_symmetry_2
N1 C1 1_555 1_555
C1 C2 1_555 1_555
C2 O1 1_555 1_555
O1 C3 1_555 1_555
C3 C4 1_555 1_555
C4 C5 1_555 1_555
C5 C6 1_555 1_555
C6 N1 1_555 1_555
C7 C6 1_555 1_555
C8 C7 1_555 1_555
C9 C8 1_555 1_555
C10 C5 1_555 1_555
Cl1 C9 1_555 1_555
C11 C4 1_555 1_555
C12 C11 1_555 1_555
C13 C12 1_555 1_555
C14 C13 1_555 1_555
C15 C14 1_555 1_555
C16 C11 1_555 1_555
Cl2 C12 1_555 1_555
C23 N1 1_555 1_555
C24 C23 1_555 1_555
C25 C24 1_555 1_555
C26 C24 1_555 1_555
C27 C24 1_555 1_555
O2 C1 1_555 1_555
C28 C2 1_555 1_555
C29 C28 1_555 1_555
O3 C29 1_555 1_555
O4 C29 1_555 1_555
H1 C2 1_555 1_555
H2 C3 1_555 1_555
H3 C3 1_555 1_555
H4 C4 1_555 1_555
H6 C7 1_555 1_555
H7 C8 1_555 1_555
H8 C10 1_555 1_555
H9 C13 1_555 1_555
H10 C14 1_555 1_555
H11 C15 1_555 1_555
H12 C16 1_555 1_555
H17 C23 1_555 1_555
H18 C23 1_555 1_555
H19 C25 1_555 1_555
H20 C25 1_555 1_555
H21 C25 1_555 1_555
H22 C26 1_555 1_555
H23 C26 1_555 1_555
H24 C26 1_555 1_555
H25 C27 1_555 1_555
H26 C27 1_555 1_555
H27 C27 1_555 1_555
H28 C28 1_555 1_555
H29 C28 1_555 1_555
H30 O4 1_555 1_555
C9 C10 1_555 1_555
C15 C16 1_555 1_555

#END
