
#######################################################################
#
#                 Cambridge Crystallographic Data Centre
#                                CCDC 
#
#######################################################################
#
# If this CIF has been generated from an entry in the Cambridge 
# Structural Database, then it will include bibliographic, chemical, 
# crystal, experimental, refinement or atomic coordinate data resulting 
# from the CCDC's data processing and validation procedures.
#
#######################################################################

data_MIGCIR
_chemical_formula_moiety         'C51 H12 F24 N6'
_chemical_name_systematic        
1,3,5-tris(2,2',3,3',5,5',6,6'-octafluoro-4'-(1H-pyrazol-4-yl)[1,1'-biphenyl]-4-yl)benzene
_symmetry_cell_setting           orthorhombic
_symmetry_space_group_name_H-M   'C c c m'
_symmetry_Int_Tables_number      66
_space_group_name_Hall           '-C 2 2n'
loop_
_symmetry_equiv_pos_site_id
_symmetry_equiv_pos_as_xyz
1 x,y,z
2 -x,-y,z
3 -x,y,1/2-z
4 x,-y,1/2-z
5 1/2+x,1/2+y,z
6 1/2-x,1/2-y,z
7 1/2-x,1/2+y,1/2-z
8 1/2+x,1/2-y,1/2-z
9 -x,-y,-z
10 x,y,-z
11 x,-y,1/2+z
12 -x,y,1/2+z
13 1/2-x,1/2-y,-z
14 1/2+x,1/2+y,-z
15 1/2+x,1/2-y,1/2+z
16 1/2-x,1/2+y,1/2+z
_cell_length_a                   15.3843(10)
_cell_length_b                   93.285(7)
_cell_length_c                   53.370(4)
_cell_angle_alpha                90
_cell_angle_beta                 90
_cell_angle_gamma                90
_cell_volume                     76592.6
_exptl_crystal_colour            colorless
_exptl_crystal_description       prism
_cell_formula_units_Z            32
loop_
_atom_site_label
_atom_site_type_symbol
_atom_site_fract_x
_atom_site_fract_y
_atom_site_fract_z
C52 C 1.3489(7) 0.63966(12) 0.28798(18)
H12 H 1.3366 0.6299 0.2843
C53 C 1.3499(6) 0.64621(11) 0.31141(18)
C54 C 1.3675(7) 0.66093(11) 0.30697(19)
H13 H 1.3699 0.6679 0.3198
C55 C 1.3002(6) 0.62447(10) 0.33723(17)
C56 C 1.2857(7) 0.61824(10) 0.35863(18)
C57 C 1.3021(6) 0.62458(9) 0.38173(16)
C58 C 1.3313(6) 0.63827(10) 0.38015(16)
C59 C 1.3450(7) 0.64500(10) 0.35834(18)
C60 C 1.3320(6) 0.63873(10) 0.33496(17)
C61 C 1.2817(7) 0.61716(10) 0.40594(18)
C62 C 1.2284(7) 0.62328(11) 0.42515(19)
C63 C 1.2156(6) 0.61729(10) 0.44694(18)
C64 C 1.2460(7) 0.60401(11) 0.45274(18)
C65 C 1.2936(7) 0.59745(10) 0.43471(18)
C66 C 1.3102(7) 0.60398(11) 0.41198(19)
C67 C 1.2318(6) 0.59658(10) 0.47766(17)
C68 C 1.2128(7) 0.58206(10) 0.47803(18)
H14 H 1.2083 0.5771 0.4625
C69 C 1.2410(9) 0.60347(15) 0.5000
H15 H 1.2542 0.6134 0.5000
C70 C 1.2002(9) 0.57437(14) 0.5000
C71 C 1.1854(9) 0.55807(15) 0.5000
C72 C 1.2155(11) 0.55005(19) 0.5155(3)
C73 C 1.2014(11) 0.5348(2) 0.5159(3)
C74 C 1.1562(9) 0.52827(14) 0.5000
C75 C 1.1348(8) 0.51273(14) 0.5000
C76 C 1.1103(10) 0.5057(2) 0.5180(4)
C77 C 1.0934(11) 0.4911(3) 0.5214(4)
C78 C 1.1034(8) 0.48289(15) 0.5000
C79 C 1.0836(9) 0.46732(15) 0.5000
F25 F 1.2692(6) 0.55515(10) 0.53374(17)
F26 F 1.2382(6) 0.52749(10) 0.53418(16)
F27 F 1.0896(7) 0.51374(11) 0.53956(18)
F28 F 1.0637(7) 0.48624(11) 0.54225(19)
C80 C 1.1343(10) 0.5516(2) 0.5230(3)
C81 C 1.1215(11) 0.5368(2) 0.5224(3)
F29 F 1.1053(7) 0.55968(12) 0.54148(19)
F30 F 1.0756(7) 0.53149(11) 0.54142(19)
C82 C 1.1490(9) 0.5040(2) 0.5240(4)
C83 C 1.1316(10) 0.4898(3) 0.5216(4)
F31 F 1.1785(6) 0.50918(10) 0.54482(17)
F32 F 1.1462(6) 0.48197(10) 0.54336(17)
C84 C 1.0707(9) 0.45812(12) 0.4797(2)
H16 H 1.0731 0.4610 0.4627
N7 N 1.0549(7) 0.44504(9) 0.48744(16)
F33 F 1.2817(4) 0.61749(5) 0.31568(9)
F34 F 1.2522(4) 0.60454(6) 0.35845(9)
F35 F 1.3803(4) 0.65837(5) 0.35931(9)
F36 F 1.3473(4) 0.64575(5) 0.40202(9)
F37 F 1.1924(4) 0.63674(6) 0.42055(10)
F38 F 1.1630(4) 0.62393(5) 0.46416(10)
F39 F 1.3315(4) 0.58432(5) 0.43825(9)
F40 F 1.3627(4) 0.59726(5) 0.39455(9)
N8 N 1.3696(5) 0.65041(9) 0.27122(16)
H17 H 1.3757 0.6491 0.2550
N9 N 1.3800(5) 0.66379(9) 0.28324(15)
C52I C 1.3489(7) 0.63966(12) 0.71202(18)
H12I H 1.3366 0.6299 0.7157
C53I C 1.3499(6) 0.64621(11) 0.68859(18)
C54I C 1.3675(7) 0.66093(11) 0.69303(19)
H13I H 1.3699 0.6679 0.6802
C55I C 1.3002(6) 0.62447(10) 0.66277(17)
C56I C 1.2857(7) 0.61824(10) 0.64137(18)
C57I C 1.3021(6) 0.62458(9) 0.61827(16)
C58I C 1.3313(6) 0.63827(10) 0.61985(16)
C59I C 1.3450(7) 0.64500(10) 0.64166(18)
C60I C 1.3320(6) 0.63873(10) 0.66504(17)
C61I C 1.2817(7) 0.61716(10) 0.59406(18)
C62I C 1.2284(7) 0.62328(11) 0.57485(19)
C63I C 1.2156(6) 0.61729(10) 0.55306(18)
C64I C 1.2460(7) 0.60401(11) 0.54726(18)
C65I C 1.2936(7) 0.59745(10) 0.56529(18)
C66I C 1.3102(7) 0.60398(11) 0.58802(19)
C67I C 1.2318(6) 0.59658(10) 0.52234(17)
C68I C 1.2128(7) 0.58206(10) 0.52197(18)
H14I H 1.2083 0.5771 0.5375
C72I C 1.2155(11) 0.55005(19) 0.4845(3)
C73I C 1.2014(11) 0.5348(2) 0.4841(3)
C76I C 1.1103(10) 0.5057(2) 0.4820(4)
C77I C 1.0934(11) 0.4911(3) 0.4786(4)
F25I F 1.2692(6) 0.55515(10) 0.46626(17)
F26I F 1.2382(6) 0.52749(10) 0.46582(16)
F27I F 1.0896(7) 0.51374(11) 0.46044(18)
F28I F 1.0637(7) 0.48624(11) 0.45775(19)
C80I C 1.1343(10) 0.5516(2) 0.4770(3)
C81I C 1.1215(11) 0.5368(2) 0.4776(3)
F29I F 1.1053(7) 0.55968(12) 0.45852(19)
F30I F 1.0756(7) 0.53149(11) 0.45858(19)
C82I C 1.1490(9) 0.5040(2) 0.4760(4)
C83I C 1.1316(10) 0.4898(3) 0.4784(4)
F31I F 1.1785(6) 0.50918(10) 0.45518(17)
F32I F 1.1462(6) 0.48197(10) 0.45664(17)
C84I C 1.0707(9) 0.45812(12) 0.5203(2)
H16I H 1.0731 0.4610 0.5373
N7I N 1.0549(7) 0.44504(9) 0.51256(16)
F33I F 1.2817(4) 0.61749(5) 0.68432(9)
F34I F 1.2522(4) 0.60454(6) 0.64155(9)
F35I F 1.3803(4) 0.65837(5) 0.64069(9)
F36I F 1.3473(4) 0.64575(5) 0.59798(9)
F37I F 1.1924(4) 0.63674(6) 0.57945(10)
F38I F 1.1630(4) 0.62393(5) 0.53584(10)
F39I F 1.3315(4) 0.58432(5) 0.56175(9)
F40I F 1.3627(4) 0.59726(5) 0.60545(9)
N8I N 1.3696(5) 0.65041(9) 0.72878(16)
H17I H 1.3757 0.6491 0.7450
N9I N 1.3800(5) 0.66379(9) 0.71676(15)
C85 C 0.4302(6) 0.64206(11) 0.20448(17)
H18 H 0.4488 0.6328 0.2098
C86 C 0.4213(7) 0.64651(11) 0.17913(17)
C87 C 0.3983(7) 0.66059(11) 0.18061(19)
H19 H 0.3913 0.6669 0.1668
C88 C 0.4619(6) 0.62308(10) 0.15712(16)
C89 C 0.4387(7) 0.63784(11) 0.15650(17)
C90 C 0.4259(7) 0.64260(10) 0.13318(17)
C91 C 0.4310(7) 0.63421(10) 0.11162(16)
C92 C 0.4521(6) 0.62032(10) 0.11259(16)
C93 C 0.4727(6) 0.61528(10) 0.13668(16)
C94 C 0.4237(6) 0.59804(10) 0.08897(17)
C95 C 0.4307(6) 0.58903(10) 0.06605(16)
C96 C 0.4748(6) 0.59409(10) 0.04552(15)
C97 C 0.5124(6) 0.60757(10) 0.04757(15)
C98 C 0.5046(7) 0.61580(11) 0.06882(17)
C99 C 0.4592(6) 0.61141(10) 0.09009(16)
C100 C 0.5075(6) 0.57152(9) 0.02215(14)
H20 H 0.5130 0.5665 0.0376
C101 C 0.4677(7) 0.59216(13) 0.0000
H21 H 0.4453 0.6017 0.0000
C102 C 0.4837(6) 0.58540(9) 0.02281(14)
C103 C 0.5246(8) 0.56399(13) 0.0000
C104 C 0.5480(8) 0.54830(13) 0.0000
C105 C 0.5220(10) 0.53868(16) -0.0173(3)
C106 C 0.5483(10) 0.52437(17) -0.0165(3)
C107 C 0.6017(8) 0.51896(13) 0.0000
C108 C 0.6253(8) 0.50375(14) 0.0000
C109 C 0.6180(9) 0.49493(19) 0.0226(3)
C110 C 0.6384(11) 0.4812(2) 0.0224(4)
C111 C 0.6693(9) 0.47355(14) 0.0000
C112 C 0.6957(10) 0.45808(15) 0.0000
F41 F 0.4702(6) 0.54243(9) -0.03607(16)
F42 F 0.5163(7) 0.51556(10) -0.03397(17)
F43 F 0.5858(7) 0.50126(12) 0.04553(18)
F44 F 0.6279(7) 0.47384(12) 0.04616(19)
C113 C 0.6041(10) 0.5424(2) -0.0187(3)
C114 C 0.6299(11) 0.5282(2) -0.0198(3)
F45 F 0.6352(6) 0.55145(11) -0.03670(17)
F46 F 0.6814(7) 0.52463(11) -0.03728(17)
C115 C 0.6588(10) 0.4967(2) 0.0196(4)
C116 C 0.6808(13) 0.4819(3) 0.0186(4)
F47 F 0.6759(7) 0.50394(11) 0.04047(18)
F48 F 0.7153(7) 0.47657(11) 0.03898(19)
C117 C 0.7083(7) 0.44920(11) 0.0207(2)
H22 H 0.7040 0.4520 0.0378
N10 N 0.7271(6) 0.43644(9) 0.01256(16)
F49 F 0.4019(4) 0.65686(5) 0.12951(9)
F50 F 0.4112(4) 0.64053(5) 0.08914(9)
F51 F 0.4830(4) 0.61722(5) 0.17968(8)
F52 F 0.4979(4) 0.60152(6) 0.13966(8)
F53 F 0.3742(3) 0.59223(5) 0.10762(9)
F54 F 0.3939(3) 0.57611(5) 0.06718(8)
F55 F 0.5469(4) 0.62829(5) 0.06940(9)
F56 F 0.5609(3) 0.61256(5) 0.02877(8)
N11 N 0.4091(5) 0.65250(9) 0.21915(15)
N12 N 0.3872(6) 0.66416(9) 0.20494(15)
H23 H 0.3690 0.6725 0.2106
C85I C 0.4302(6) 0.64206(11) -0.20448(17)
H18I H 0.4488 0.6328 -0.2098
C86I C 0.4213(7) 0.64651(11) -0.17913(17)
C87I C 0.3983(7) 0.66059(11) -0.18061(19)
H19I H 0.3913 0.6669 -0.1668
C88I C 0.4619(6) 0.62308(10) -0.15712(16)
C89I C 0.4387(7) 0.63784(11) -0.15650(17)
C90I C 0.4259(7) 0.64260(10) -0.13318(17)
C91I C 0.4310(7) 0.63421(10) -0.11162(16)
C92I C 0.4521(6) 0.62032(10) -0.11259(16)
C93I C 0.4727(6) 0.61528(10) -0.13668(16)
C94I C 0.4237(6) 0.59804(10) -0.08897(17)
C95I C 0.4307(6) 0.58903(10) -0.06605(16)
C96I C 0.4748(6) 0.59409(10) -0.04552(15)
C97I C 0.5124(6) 0.60757(10) -0.04757(15)
C98I C 0.5046(7) 0.61580(11) -0.06882(17)
C99I C 0.4592(6) 0.61141(10) -0.09009(16)
C100I C 0.5075(6) 0.57152(9) -0.02215(14)
H20I H 0.5130 0.5665 -0.0376
C102I C 0.4837(6) 0.58540(9) -0.02281(14)
C105I C 0.5220(10) 0.53868(16) 0.0173(3)
C106I C 0.5483(10) 0.52437(17) 0.0165(3)
C109I C 0.6180(9) 0.49493(19) -0.0226(3)
C110I C 0.6384(11) 0.4812(2) -0.0224(4)
F41I F 0.4702(6) 0.54243(9) 0.03607(16)
F42I F 0.5163(7) 0.51556(10) 0.03397(17)
F43I F 0.5858(7) 0.50126(12) -0.04553(18)
F44I F 0.6279(7) 0.47384(12) -0.04616(19)
C113I C 0.6041(10) 0.5424(2) 0.0187(3)
C114I C 0.6299(11) 0.5282(2) 0.0198(3)
F45I F 0.6352(6) 0.55145(11) 0.03670(17)
F46I F 0.6814(7) 0.52463(11) 0.03728(17)
C115I C 0.6588(10) 0.4967(2) -0.0196(4)
C116I C 0.6808(13) 0.4819(3) -0.0186(4)
F47I F 0.6759(7) 0.50394(11) -0.04047(18)
F48I F 0.7153(7) 0.47657(11) -0.03898(19)
C117I C 0.7083(7) 0.44920(11) -0.0207(2)
H22I H 0.7040 0.4520 -0.0378
N10I N 0.7271(6) 0.43644(9) -0.01256(16)
F49I F 0.4019(4) 0.65686(5) -0.12951(9)
F50I F 0.4112(4) 0.64053(5) -0.08914(9)
F51I F 0.4830(4) 0.61722(5) -0.17968(8)
F52I F 0.4979(4) 0.60152(6) -0.13966(8)
F53I F 0.3742(3) 0.59223(5) -0.10762(9)
F54I F 0.3939(3) 0.57611(5) -0.06718(8)
F55I F 0.5469(4) 0.62829(5) -0.06940(9)
F56I F 0.5609(3) 0.61256(5) -0.02877(8)
N11I N 0.4091(5) 0.65250(9) -0.21915(15)
N12I N 0.3872(6) 0.66416(9) -0.20494(15)
H23I H 0.3690 0.6725 -0.2106
C1 C 0.8243(7) 0.29631(10) 0.27352(16)
C2 C 0.8255(6) 0.28140(10) 0.27116(15)
C3 C 0.8665(6) 0.27437(9) 0.25267(16)
C4 C 0.8728(5) 0.25857(9) 0.25132(15)
C5 C 0.8949(6) 0.25008(10) 0.27067(16)
C6 C 0.9029(6) 0.23590(10) 0.26904(16)
C7 C 0.8822(5) 0.22807(9) 0.24760(15)
C8 C 0.8830(6) 0.21214(10) 0.24581(17)
C9 C 0.8986(6) 0.20257(10) 0.26586(18)
H1 H 0.9122 0.2050 0.2827
C10 C 0.8648(7) 0.20322(10) 0.22568(18)
H2 H 0.8497 0.2066 0.2094
C11 C 0.9020(6) 0.29753(10) 0.23653(17)
C12 C 0.9081(6) 0.28322(10) 0.23513(16)
C13 C 0.8772(6) 0.32820(10) 0.27804(16)
H3 H 0.8902 0.3231 0.2930
C14 C 0.8585(6) 0.35010(10) 0.25640(16)
H4 H 0.8551 0.3603 0.2564
C15 C 0.8411(5) 0.34286(10) 0.23431(16)
C16 C 0.8353(6) 0.32810(10) 0.23504(17)
H5 H 0.8172 0.3230 0.2205
C17 C 0.8265(6) 0.35059(10) 0.20935(17)
C18 C 0.7819(7) 0.36311(10) 0.20660(18)
C19 C 0.7700(7) 0.36963(11) 0.18371(18)
C20 C 0.8100(6) 0.36458(9) 0.16308(17)
C21 C 0.8589(6) 0.35222(10) 0.16472(17)
C22 C 0.8686(7) 0.34525(10) 0.18718(17)
C23 C 0.8016(5) 0.37228(10) 0.13767(17)
C24 C 0.8154(6) 0.38642(10) 0.13518(17)
C25 C 0.7877(6) 0.38605(10) 0.08995(17)
C26 C 0.7801(7) 0.37151(10) 0.09298(17)
C27 C 0.7839(6) 0.36494(10) 0.11574(17)
C28 C 0.7739(6) 0.39369(10) 0.06562(16)
C29 C 0.7808(7) 0.40841(10) 0.06173(17)
H6 H 0.7933 0.4155 0.0739
C30 C 0.7543(8) 0.38761(11) 0.04240(18)
H7 H 0.7480 0.3776 0.0394
C31 C 0.8997(6) 0.35139(10) 0.30115(16)
C32 C 0.9496(6) 0.36373(10) 0.30058(17)
C33 C 0.9680(6) 0.37123(10) 0.32252(17)
C34 C 0.9379(6) 0.36772(10) 0.34467(17)
C35 C 0.8887(7) 0.35525(10) 0.34578(17)
C36 C 0.8711(6) 0.34767(10) 0.32447(16)
C37 C 0.9535(6) 0.37660(10) 0.36744(17)
C38 C 0.9453(6) 0.39118(10) 0.36753(17)
C39 C 0.9544(6) 0.39909(10) 0.38923(18)
C40 C 0.9815(6) 0.39286(10) 0.41173(17)
C41 C 0.9942(6) 0.37850(10) 0.41213(17)
C42 C 0.9803(7) 0.36990(10) 0.38984(18)
C43 C 0.9938(7) 0.40185(11) 0.43448(18)
C44 C 1.0006(8) 0.41695(11) 0.43671(19)
H8 H 0.9945 0.4237 0.4235
C45 C 1.0063(7) 0.39697(11) 0.45908(17)
H9 H 1.0052 0.3872 0.4643
F1 F 0.8435(4) 0.23058(6) 0.20494(9)
F2 F 0.8320(3) 0.25863(5) 0.20856(9)
F3 F 0.9189(4) 0.25625(6) 0.29309(9)
F4 F 0.9268(4) 0.22827(5) 0.29026(9)
F5 F 0.7796(3) 0.27387(5) 0.28888(8)
F6 F 0.7778(3) 0.30226(5) 0.29222(9)
F7 F 0.9556(3) 0.27737(5) 0.21673(9)
F8 F 0.9464(4) 0.30515(5) 0.21913(9)
C46 C 0.8568(6) 0.25115(10) 0.22849(16)
F9 F 0.9206(4) 0.33377(5) 0.18876(10)
C47 C 0.8610(6) 0.23710(10) 0.22655(15)
F10 F 0.9042(4) 0.34689(5) 0.14584(9)
F11 F 0.7389(3) 0.36898(5) 0.22706(9)
F12 F 0.7174(4) 0.38141(5) 0.18287(9)
F13 F 0.8368(4) 0.39476(5) 0.15543(9)
C48 C 0.8607(6) 0.30465(9) 0.25525(16)
F14 F 0.8227(4) 0.40765(5) 0.11190(9)
F15 F 0.7677(4) 0.35049(5) 0.11669(9)
F16 F 0.7624(3) 0.36339(5) 0.07299(9)
C49 C 0.8554(6) 0.32072(10) 0.25637(16)
F17 F 0.8504(4) 0.35120(5) 0.36734(9)
F18 F 0.8185(3) 0.33580(5) 0.32725(9)
C50 C 0.8803(6) 0.34325(11) 0.27813(16)
F19 F 0.9905(3) 0.36761(5) 0.27877(9)
F20 F 1.0240(3) 0.38263(6) 0.31902(9)
F21 F 1.0195(3) 0.37175(5) 0.43181(9)
F22 F 0.9935(4) 0.35636(5) 0.39198(9)
F23 F 0.9179(4) 0.39797(6) 0.34676(9)
F24 F 0.9407(4) 0.41323(6) 0.38747(10)
C51 C 0.8063(6) 0.39346(10) 0.11179(16)
N1 N 0.8708(6) 0.18951(8) 0.23170(14)
N2 N 0.8900(5) 0.18916(8) 0.25591(14)
H10 H 0.8965 0.1812 0.2646
N3 N 0.7661(6) 0.41039(10) 0.03748(15)
N4 N 0.7460(7) 0.39736(9) 0.02585(15)
N5 N 1.0172(7) 0.42003(10) 0.46088(16)
H11 H 1.0252 0.4287 0.4670
N6 N 1.0197(6) 0.40803(9) 0.47382(14)
H24? H 0.7306 0.3961 0.0101
H25? H 1.0290 0.4075 0.4901
H26? H 0.7381 0.4289 0.0221
H27? H 0.7686 0.4187 0.0298
H28? H 1.0459 0.4375 0.4778
loop_
_geom_bond_atom_site_label_1
_geom_bond_atom_site_label_2
_geom_bond_site_symmetry_1
_geom_bond_site_symmetry_2
C1 C2 1_555 1_555
C2 C3 1_555 1_555
C3 C4 1_555 1_555
C4 C5 1_555 1_555
C5 C6 1_555 1_555
C6 C7 1_555 1_555
C7 C8 1_555 1_555
C8 C9 1_555 1_555
C9 H1 1_555 1_555
C10 C8 1_555 1_555
H2 C10 1_555 1_555
C11 C12 1_555 1_555
C12 C3 1_555 1_555
C13 H3 1_555 1_555
C14 H4 1_555 1_555
C15 C14 1_555 1_555
C16 C15 1_555 1_555
H5 C16 1_555 1_555
C17 C15 1_555 1_555
C18 C17 1_555 1_555
C19 C18 1_555 1_555
C20 C19 1_555 1_555
C21 C20 1_555 1_555
C22 C17 1_555 1_555
C23 C20 1_555 1_555
C24 C23 1_555 1_555
C25 C26 1_555 1_555
C26 C27 1_555 1_555
C27 C23 1_555 1_555
C28 C25 1_555 1_555
C29 C28 1_555 1_555
H6 C29 1_555 1_555
C30 C28 1_555 1_555
H7 C30 1_555 1_555
C31 C32 1_555 1_555
C32 C33 1_555 1_555
C33 C34 1_555 1_555
C34 C35 1_555 1_555
C35 C36 1_555 1_555
C36 C31 1_555 1_555
C37 C34 1_555 1_555
C38 C37 1_555 1_555
C39 C38 1_555 1_555
C40 C39 1_555 1_555
C41 C40 1_555 1_555
C42 C37 1_555 1_555
C43 C40 1_555 1_555
C44 C43 1_555 1_555
H8 C44 1_555 1_555
C45 C43 1_555 1_555
H9 C45 1_555 1_555
F1 C47 1_555 1_555
F2 C46 1_555 1_555
F3 C5 1_555 1_555
F4 C6 1_555 1_555
F5 C2 1_555 1_555
F6 C1 1_555 1_555
F7 C12 1_555 1_555
F8 C11 1_555 1_555
C46 C4 1_555 1_555
F9 C22 1_555 1_555
C47 C7 1_555 1_555
F10 C21 1_555 1_555
F11 C18 1_555 1_555
F12 C19 1_555 1_555
F13 C24 1_555 1_555
C48 C1 1_555 1_555
F14 C51 1_555 1_555
F15 C27 1_555 1_555
F16 C26 1_555 1_555
C49 C13 1_555 1_555
F17 C35 1_555 1_555
F18 C36 1_555 1_555
C50 C13 1_555 1_555
F19 C32 1_555 1_555
F20 C33 1_555 1_555
F21 C41 1_555 1_555
F22 C42 1_555 1_555
F23 C38 1_555 1_555
F24 C39 1_555 1_555
C51 C24 1_555 1_555
N1 C10 1_555 1_555
N2 C9 1_555 1_555
H10 N2 1_555 1_555
N3 C29 1_555 1_555
N4 C30 1_555 1_555
N5 C44 1_555 1_555
H11 N5 1_555 1_555
N6 C45 1_555 1_555
C52 H12 1_555 1_555
C53 C52 1_555 1_555
C54 C53 1_555 1_555
H13 C54 1_555 1_555
C55 C56 1_555 1_555
C56 C57 1_555 1_555
C57 C58 1_555 1_555
C58 C59 1_555 1_555
C59 C60 1_555 1_555
C60 C53 1_555 1_555
C61 C57 1_555 1_555
C62 C61 1_555 1_555
C63 C62 1_555 1_555
C64 C63 1_555 1_555
C65 C64 1_555 1_555
C66 C61 1_555 1_555
C67 C64 1_555 1_555
C68 C67 1_555 1_555
H14 C68 1_555 1_555
C69 C67 1_555 1_555
H15 C69 1_555 1_555
C70 C68 1_555 1_555
C71 C70 1_555 1_555
C72 C71 1_555 1_555
C73 C72 1_555 1_555
C74 C73 1_555 1_555
C75 C74 1_555 1_555
C76 C75 1_555 1_555
C77 C76 1_555 1_555
C78 C77 1_555 1_555
C79 C78 1_555 1_555
F25 C72 1_555 1_555
F26 C73 1_555 1_555
F27 C76 1_555 1_555
F28 C77 1_555 1_555
C80 C71 1_555 1_555
C81 C73 1_555 1_555
F29 C80 1_555 1_555
F30 C81 1_555 1_555
C82 C75 1_555 1_555
C83 C77 1_555 1_555
F31 C82 1_555 1_555
F32 C77 1_555 1_555
C84 C79 1_555 1_555
H16 C84 1_555 1_555
N7 C84 1_555 1_555
F33 C55 1_555 1_555
F34 C56 1_555 1_555
F35 C59 1_555 1_555
F36 C58 1_555 1_555
F37 C62 1_555 1_555
F38 C63 1_555 1_555
F39 C65 1_555 1_555
F40 C66 1_555 1_555
N8 C52 1_555 1_555
H17 N8 1_555 1_555
N9 C54 1_555 1_555
C85 H18 1_555 1_555
C86 C85 1_555 1_555
C87 C86 1_555 1_555
H19 C87 1_555 1_555
C88 C89 1_555 1_555
C89 C86 1_555 1_555
C90 C89 1_555 1_555
C91 C90 1_555 1_555
C92 C91 1_555 1_555
C93 C88 1_555 1_555
C94 C95 1_555 1_555
C95 C96 1_555 1_555
C96 C97 1_555 1_555
C97 C98 1_555 1_555
C98 C99 1_555 1_555
C99 C92 1_555 1_555
C100 H20 1_555 1_555
C101 H21 1_555 1_555
C102 C96 1_555 1_555
C103 C100 1_555 1_555
C104 C103 1_555 1_555
C105 C104 1_555 1_555
C106 C105 1_555 1_555
C107 C106 1_555 1_555
C108 C107 1_555 1_555
C109 C108 1_555 1_555
C110 C109 1_555 1_555
C111 C110 1_555 1_555
C112 C111 1_555 1_555
F41 C105 1_555 1_555
F42 C106 1_555 1_555
F43 C109 1_555 1_555
F44 C110 1_555 1_555
C113 C104 1_555 1_555
C114 C106 1_555 1_555
F45 C113 1_555 1_555
F46 C114 1_555 1_555
C115 C108 1_555 1_555
C116 C110 1_555 1_555
F47 C109 1_555 1_555
F48 C110 1_555 1_555
C117 C112 1_555 1_555
H22 C117 1_555 1_555
N10 C117 1_555 1_555
F49 C90 1_555 1_555
F50 C91 1_555 1_555
F51 C88 1_555 1_555
F52 C93 1_555 1_555
F53 C94 1_555 1_555
F54 C95 1_555 1_555
F55 C98 1_555 1_555
F56 C97 1_555 1_555
N11 C85 1_555 1_555
N12 C87 1_555 1_555
H23 N12 1_555 1_555
C52I H12I 1_555 1_555
C53I C52I 1_555 1_555
C54I C53I 1_555 1_555
H13I C54I 1_555 1_555
C55I C56I 1_555 1_555
C56I C57I 1_555 1_555
C57I C58I 1_555 1_555
C58I C59I 1_555 1_555
C59I C60I 1_555 1_555
C60I C53I 1_555 1_555
C61I C57I 1_555 1_555
C62I C61I 1_555 1_555
C63I C62I 1_555 1_555
C64I C63I 1_555 1_555
C65I C64I 1_555 1_555
C66I C61I 1_555 1_555
C67I C69 1_555 1_555
C68I C70 1_555 1_555
H14I C68I 1_555 1_555
C72I C71 1_555 1_555
C73I C73 1_555 1_555
C76I C75 1_555 1_555
C77I C78 1_555 1_555
F25I C72I 1_555 1_555
F26I C73I 1_555 1_555
F27I C76I 1_555 1_555
F28I C77I 1_555 1_555
C80I C71 1_555 1_555
C81I C74 1_555 1_555
F29I C80I 1_555 1_555
F30I C81I 1_555 1_555
C82I C75 1_555 1_555
C83I C78 1_555 1_555
F31I C82I 1_555 1_555
F32I C77I 1_555 1_555
C84I C79 1_555 1_555
H16I C84I 1_555 1_555
N7I N7 1_555 1_555
F33I C55I 1_555 1_555
F34I C56I 1_555 1_555
F35I C59I 1_555 1_555
F36I C58I 1_555 1_555
F37I C62I 1_555 1_555
F38I C63I 1_555 1_555
F39I C65I 1_555 1_555
F40I C66I 1_555 1_555
N8I C52I 1_555 1_555
H17I N8I 1_555 1_555
N9I C54I 1_555 1_555
C85I H18I 1_555 1_555
C86I C85I 1_555 1_555
C87I C86I 1_555 1_555
H19I C87I 1_555 1_555
C88I C89I 1_555 1_555
C89I C86I 1_555 1_555
C90I C89I 1_555 1_555
C91I C90I 1_555 1_555
C92I C91I 1_555 1_555
C93I C88I 1_555 1_555
C94I C95I 1_555 1_555
C95I C96I 1_555 1_555
C96I C97I 1_555 1_555
C97I C98I 1_555 1_555
C98I C99I 1_555 1_555
C99I C92I 1_555 1_555
C100I C103 1_555 1_555
H20I C100I 1_555 1_555
C102I C101 1_555 1_555
C105I C104 1_555 1_555
C106I C106 1_555 1_555
C109I C108 1_555 1_555
C110I C111 1_555 1_555
F41I C105I 1_555 1_555
F42I C106I 1_555 1_555
F43I C109I 1_555 1_555
F44I C110I 1_555 1_555
C113I C104 1_555 1_555
C114I C107 1_555 1_555
F45I C113I 1_555 1_555
F46I C114I 1_555 1_555
C115I C108 1_555 1_555
C116I C111 1_555 1_555
F47I C109I 1_555 1_555
F48I C110I 1_555 1_555
C117I C112 1_555 1_555
H22I C117I 1_555 1_555
N10I N10 1_555 1_555
F49I C90I 1_555 1_555
F50I C91I 1_555 1_555
F51I C88I 1_555 1_555
F52I C93I 1_555 1_555
F53I C94I 1_555 1_555
F54I C95I 1_555 1_555
F55I C98I 1_555 1_555
F56I C97I 1_555 1_555
N11I C85I 1_555 1_555
N12I C87I 1_555 1_555
H23I N12I 1_555 1_555
C11 C48 1_555 1_555
C14 C50 1_555 1_555
C16 C49 1_555 1_555
C21 C22 1_555 1_555
C25 C51 1_555 1_555
C31 C50 1_555 1_555
C41 C42 1_555 1_555
C46 C47 1_555 1_555
C48 C49 1_555 1_555
N1 N2 1_555 1_555
N3 N4 1_555 1_555
N5 N6 1_555 1_555
C55 C60 1_555 1_555
C65 C66 1_555 1_555
C72 C80 1_555 1_555
C72 C72I 1_555 1_555
C74 C81 1_555 1_555
C74 C73I 1_555 1_555
C76 C82 1_555 1_555
C78 C83 1_555 1_555
F27 C82 1_555 1_555
F28 C83 1_555 1_555
C80 C81 1_555 1_555
C82 C83 1_555 1_555
C83 F32 1_555 1_555
N8 N9 1_555 1_555
C92 C93 1_555 1_555
C94 C99 1_555 1_555
C100 C102 1_555 1_555
C101 C102 1_555 1_555
C105 C113 1_555 1_555
C107 C114 1_555 1_555
C107 C106I 1_555 1_555
C109 C115 1_555 1_555
C111 C116 1_555 1_555
C113 C114 1_555 1_555
C115 C116 1_555 1_555
C115 F47 1_555 1_555
C116 F48 1_555 1_555
N11 N12 1_555 1_555
C55I C60I 1_555 1_555
C64I C67I 1_555 1_555
C65I C66I 1_555 1_555
C67I C68I 1_555 1_555
C72I C73I 1_555 1_555
C72I C80I 1_555 1_555
C73I C81I 1_555 1_555
C76I C77I 1_555 1_555
C76I C82I 1_555 1_555
C77I C83I 1_555 1_555
F27I C82I 1_555 1_555
F28I C83I 1_555 1_555
C80I C81I 1_555 1_555
C82I C83I 1_555 1_555
C83I F32I 1_555 1_555
C84I N7I 1_555 1_555
N8I N9I 1_555 1_555
C92I C93I 1_555 1_555
C94I C99I 1_555 1_555
C96I C102I 1_555 1_555
C100I C102I 1_555 1_555
C105I C106I 1_555 1_555
C105I C113I 1_555 1_555
C106I C114I 1_555 1_555
C109I C110I 1_555 1_555
C109I C115I 1_555 1_555
C110I C116I 1_555 1_555
C113I C114I 1_555 1_555
C115I C116I 1_555 1_555
C115I F47I 1_555 1_555
C116I F48I 1_555 1_555
C117I N10I 1_555 1_555
N11I N12I 1_555 1_555

#END
