
#######################################################################
#
#                 Cambridge Crystallographic Data Centre
#                                CCDC 
#
#######################################################################
#
# If this CIF has been generated from an entry in the Cambridge 
# Structural Database, then it will include bibliographic, chemical, 
# crystal, experimental, refinement or atomic coordinate data resulting 
# from the CCDC's data processing and validation procedures.
#
#######################################################################

data_MIGDUE
_chemical_formula_moiety         
'2(C17 H28 N1 O2 1+),C20 H16 O8 2-,0.5(C4 H8 O1),H2 O1'
_chemical_name_systematic        
'bis(2-(1-hydroxycyclohexyl)-2-(4-methoxyphenyl)-N,N-dimethylethan-1-aminium) 2,3-bis[(4-methylbenzene-1-carbonyl)oxy]butanedioate tetrahydrofuran solvate monohydrate'
_symmetry_cell_setting           monoclinic
_symmetry_space_group_name_H-M   'C 2'
_symmetry_Int_Tables_number      5
_space_group_name_Hall           'C 2y'
loop_
_symmetry_equiv_pos_site_id
_symmetry_equiv_pos_as_xyz
1 x,y,z
2 -x,y,-z
3 1/2+x,1/2+y,z
4 1/2-x,1/2+y,-z
_cell_length_a                   18.285(2)
_cell_length_b                   9.1147(10)
_cell_length_c                   17.2500(19)
_cell_angle_alpha                90
_cell_angle_beta                 97.9120(10)
_cell_angle_gamma                90
_cell_volume                     2847.56
_exptl_crystal_colour            colorless
_exptl_crystal_description       needle
_cell_formula_units_Z            2
loop_
_atom_site_label
_atom_site_type_symbol
_atom_site_fract_x
_atom_site_fract_y
_atom_site_fract_z
C1 C 0.0786(2) 1.0766(5) 0.3126(3)
H1 H 0.0879 1.0615 0.3682
H2 H 0.0348 1.1345 0.2999
H3 H 0.1198 1.1270 0.2958
C2 C 0.06839(14) 0.9294(4) 0.27151(18)
C3 C 0.05471(16) 0.9235(4) 0.19123(19)
H4 H 0.0507 1.0103 0.1626
C4 C 0.04680(14) 0.7897(3) 0.15200(15)
H5 H 0.0370 0.7883 0.0977
C5 C 0.05337(12) 0.6594(3) 0.19288(14)
C6 C 0.06531(14) 0.6631(4) 0.27476(15)
H6 H 0.0687 0.5763 0.3034
C7 C 0.07207(15) 0.7982(4) 0.31292(16)
H7 H 0.0792 0.8006 0.3673
C8 C 0.05270(12) 0.5135(3) 0.15405(13)
C9 C 0.02976(11) 0.3856(3) 0.03519(12)
H8 H 0.0189 0.3049 0.0694
C10 C 0.10786(12) 0.3593(3) 0.01336(13)
O1 O 0.07459(11) 0.4023(2) 0.18681(11)
O2 O 0.02501(9) 0.5205(2) 0.07802(9)
O3 O 0.11343(10) 0.2406(2) -0.02280(12)
O4 O 0.15746(9) 0.4498(2) 0.03316(11)
C1A C -0.0786(2) 1.0766(5) -0.3126(3)
H1A H -0.0879 1.0615 -0.3682
H2A H -0.0348 1.1345 -0.2999
H3A H -0.1198 1.1270 -0.2958
C2A C -0.06839(14) 0.9294(4) -0.27151(18)
C3A C -0.05471(16) 0.9235(4) -0.19123(19)
H4A H -0.0507 1.0103 -0.1626
C4A C -0.04680(14) 0.7897(3) -0.15200(15)
H5A H -0.0370 0.7883 -0.0977
C5A C -0.05337(12) 0.6594(3) -0.19288(14)
C6A C -0.06531(14) 0.6631(4) -0.27476(15)
H6A H -0.0687 0.5763 -0.3034
C7A C -0.07207(15) 0.7982(4) -0.31292(16)
H7A H -0.0792 0.8006 -0.3673
C8A C -0.05270(12) 0.5135(3) -0.15405(13)
C9A C -0.02976(11) 0.3856(3) -0.03519(12)
H8A H -0.0189 0.3049 -0.0694
C10A C -0.10786(12) 0.3593(3) -0.01336(13)
O1A O -0.07459(11) 0.4023(2) -0.18681(11)
O2A O -0.02501(9) 0.5205(2) -0.07802(9)
O3A O -0.11343(10) 0.2406(2) 0.02280(12)
O4A O -0.15746(9) 0.4498(2) -0.03316(11)
C11 C 0.18097(18) 0.7964(4) 0.58225(16)
C12 C 0.25051(16) 0.8225(4) 0.62311(16)
H9 H 0.2925 0.7953 0.6018
C13 C 0.25711(14) 0.8892(3) 0.69566(15)
H10 H 0.3040 0.9068 0.7224
C14 C 0.19561(13) 0.9308(3) 0.72987(14)
C15 C 0.12636(14) 0.8990(3) 0.68837(15)
H11 H 0.0841 0.9223 0.7102
C16 C 0.11942(16) 0.8337(4) 0.61560(17)
H12 H 0.0727 0.8148 0.5888
C17 C 0.20533(12) 1.0125(3) 0.80756(13)
H13 H 0.2572 1.0001 0.8298
C18 C 0.19205(12) 1.1821(3) 0.79946(14)
C19 C 0.24178(15) 1.2471(4) 0.74321(18)
H14 H 0.2929 1.2257 0.7629
H15 H 0.2303 1.2002 0.6925
C20 C 0.2323(2) 1.4121(4) 0.7333(2)
H16 H 0.2495 1.4604 0.7825
H17 H 0.2622 1.4466 0.6947
C21 C 0.1527(2) 1.4518(5) 0.7075(3)
H18 H 0.1378 1.4152 0.6549
H19 H 0.1478 1.5578 0.7061
C22 C 0.10129(17) 1.3890(4) 0.7617(2)
H20 H 0.1114 1.4358 0.8125
H21 H 0.0505 1.4102 0.7404
C23 C 0.11120(13) 1.2238(3) 0.77129(16)
H22 H 0.0951 1.1762 0.7216
H23 H 0.0803 1.1885 0.8088
C24 C 0.15963(13) 0.9497(3) 0.86839(14)
H24 H 0.1425 1.0302 0.8979
H25 H 0.1165 0.9007 0.8411
C25 C 0.2215(2) 0.7060(4) 0.8868(2)
H26 H 0.2499 0.7290 0.8456
H27 H 0.1775 0.6545 0.8655
H28 H 0.2503 0.6454 0.9250
C26 C 0.15743(16) 0.8131(4) 0.98963(17)
H29 H 0.1839 0.7451 1.0256
H30 H 0.1105 0.7718 0.9687
H31 H 0.1498 0.9029 1.0164
C27 C 0.2292(3) 0.6839(8) 0.4750(3)
H32 H 0.2125 0.6428 0.4245
H33 H 0.2551 0.6102 0.5079
H34 H 0.2617 0.7647 0.4695
H35 H 0.182(3) 1.252(7) 0.915(3)
N1 N 0.20116(12) 0.8436(3) 0.92439(12)
O5 O 0.21632(10) 1.2474(3) 0.87405(11)
O6 O 0.16809(17) 0.7336(4) 0.50920(15)
H36 H 0.2429(16) 0.884(3) 0.9399(15)
C28 C 0.4454(10) 0.862(3) 0.5308(8)
H37 H 0.4561 0.8486 0.5870
H38 H 0.3942 0.8905 0.5172
C29 C 0.4609(14) 0.7412(19) 0.4924(9)
H39 H 0.4435 0.7487 0.4368
H40 H 0.4401 0.6542 0.5133
O7 O 0.5000 0.9796(17) 0.5000
C28A C 0.5546(10) 0.862(3) 0.4692(8)
H37A H 0.5439 0.8486 0.4130
H38A H 0.6058 0.8905 0.4828
C29A C 0.5391(14) 0.7412(19) 0.5076(9)
H39A H 0.5565 0.7487 0.5632
H40A H 0.5599 0.6542 0.4867
O8 O 1.0000 0.0250(4) 1.0000
H41? H 1.0330 0.0875 0.9934
H42? H 0.9576 0.0602 0.9838
loop_
_geom_bond_atom_site_label_1
_geom_bond_atom_site_label_2
_geom_bond_site_symmetry_1
_geom_bond_site_symmetry_2
C1 H1 1_555 1_555
H2 C1 1_555 1_555
H3 C1 1_555 1_555
C2 C1 1_555 1_555
C3 C2 1_555 1_555
H4 C3 1_555 1_555
C4 C3 1_555 1_555
H5 C4 1_555 1_555
C5 C4 1_555 1_555
C6 C5 1_555 1_555
H6 C6 1_555 1_555
C7 C2 1_555 1_555
H7 C7 1_555 1_555
C8 C5 1_555 1_555
C9 H8 1_555 1_555
C10 C9 1_555 1_555
O1 C8 1_555 1_555
O2 C8 1_555 1_555
O3 C10 1_555 1_555
O4 C10 1_555 1_555
C11 C12 1_555 1_555
C12 H9 1_555 1_555
C13 C12 1_555 1_555
H10 C13 1_555 1_555
C14 C13 1_555 1_555
C15 C14 1_555 1_555
H11 C15 1_555 1_555
C16 C11 1_555 1_555
H12 C16 1_555 1_555
C17 C14 1_555 1_555
H13 C17 1_555 1_555
C18 C17 1_555 1_555
C19 C18 1_555 1_555
H14 C19 1_555 1_555
H15 C19 1_555 1_555
C20 C19 1_555 1_555
H16 C20 1_555 1_555
H17 C20 1_555 1_555
C21 C20 1_555 1_555
H18 C21 1_555 1_555
H19 C21 1_555 1_555
C22 C21 1_555 1_555
H20 C22 1_555 1_555
H21 C22 1_555 1_555
C23 C18 1_555 1_555
H22 C23 1_555 1_555
H23 C23 1_555 1_555
C24 C17 1_555 1_555
H24 C24 1_555 1_555
H25 C24 1_555 1_555
C25 H26 1_555 1_555
H27 C25 1_555 1_555
H28 C25 1_555 1_555
C26 H29 1_555 1_555
H30 C26 1_555 1_555
H31 C26 1_555 1_555
C27 H32 1_555 1_555
H33 C27 1_555 1_555
H34 C27 1_555 1_555
H35 O5 1_555 1_555
N1 C24 1_555 1_555
O5 C18 1_555 1_555
O6 C11 1_555 1_555
H36 N1 1_555 1_555
C28 H37 1_555 1_555
H38 C28 1_555 1_555
C29 C28 1_555 1_555
H39 C29 1_555 1_555
H40 C29 1_555 1_555
O7 C28 1_555 1_555
C1A H1A 1_555 1_555
H2A C1A 1_555 1_555
H3A C1A 1_555 1_555
C2A C1A 1_555 1_555
C3A C2A 1_555 1_555
H4A C3A 1_555 1_555
C4A C3A 1_555 1_555
H5A C4A 1_555 1_555
C5A C4A 1_555 1_555
C6A C5A 1_555 1_555
H6A C6A 1_555 1_555
C7A C2A 1_555 1_555
H7A C7A 1_555 1_555
C8A C5A 1_555 1_555
C9A C9 1_555 1_555
H8A C9A 1_555 1_555
C10A C9A 1_555 1_555
O1A C8A 1_555 1_555
O2A C8A 1_555 1_555
O3A C10A 1_555 1_555
O4A C10A 1_555 1_555
C28A O7 1_555 1_555
H37A C28A 1_555 1_555
H38A C28A 1_555 1_555
C29A C29 1_555 1_555
H39A C29A 1_555 1_555
H40A C29A 1_555 1_555
C6 C7 1_555 1_555
C9 O2 1_555 1_555
C15 C16 1_555 1_555
C22 C23 1_555 1_555
C25 N1 1_555 1_555
C26 N1 1_555 1_555
C27 O6 1_555 1_555
C6A C7A 1_555 1_555
C9A O2A 1_555 1_555
C28A C29A 1_555 1_555

#END
