
#######################################################################
#
#                 Cambridge Crystallographic Data Centre
#                                CCDC 
#
#######################################################################
#
# If this CIF has been generated from an entry in the Cambridge 
# Structural Database, then it will include bibliographic, chemical, 
# crystal, experimental, refinement or atomic coordinate data resulting 
# from the CCDC's data processing and validation procedures.
#
#######################################################################

data_MIGGER
_chemical_formula_moiety         
'C48 H48 N32 O16,C31 H27 N3 O1 2+,2(N1 O3 1-),20(H2 O1)'
_chemical_name_systematic        
'1-benzyl-4-(4-{[4-(1-methylpyridin-1-ium-4-yl)benzene-1-carbonyl]amino}phenyl)pyridin-1-ium cucurbit[8]uril dinitrate icosahydrate'
_symmetry_cell_setting           triclinic
_symmetry_space_group_name_H-M   'P -1'
_symmetry_Int_Tables_number      2
_space_group_name_Hall           '-P 1'
loop_
_symmetry_equiv_pos_site_id
_symmetry_equiv_pos_as_xyz
1 x,y,z
2 -x,-y,-z
_cell_length_a                   14.6773(10)
_cell_length_b                   14.8940(10)
_cell_length_c                   24.6392(18)
_cell_angle_alpha                75.449(3)
_cell_angle_beta                 82.770(3)
_cell_angle_gamma                76.392(3)
_cell_volume                     5054.34
_exptl_crystal_colour            colorless
_exptl_crystal_description       block
_cell_formula_units_Z            2
loop_
_atom_site_label
_atom_site_type_symbol
_atom_site_fract_x
_atom_site_fract_y
_atom_site_fract_z
N1 N 0.3828(3) 0.8995(3) 0.2023(2)
N2 N 0.4124(3) 0.7789(3) 0.1594(2)
N3 N 0.4857(3) 0.8741(3) 0.0776(2)
N4 N 0.4640(4) 0.9894(3) 0.1230(2)
N5 N 0.4891(3) 0.6352(3) 0.1297(2)
N6 N 0.5925(4) 0.5037(3) 0.1194(2)
N7 N 0.6754(3) 0.6019(3) 0.0450(2)
N8 N 0.5634(3) 0.7302(3) 0.0492(2)
N9 N 0.7451(3) 0.4004(3) 0.1366(2)
N10 N 0.8813(3) 0.3337(3) 0.1743(2)
N11 N 0.9592(3) 0.4282(3) 0.0942(2)
N12 N 0.8238(3) 0.4882(3) 0.0551(2)
N13 N 1.0083(3) 0.3264(3) 0.2294(2)
N14 N 1.0946(4) 0.3578(3) 0.2873(2)
N15 N 1.1676(3) 0.4549(3) 0.2064(2)
N16 N 1.0908(3) 0.4146(3) 0.1475(2)
N17 N 1.1315(4) 0.4454(4) 0.3486(2)
N18 N 1.1163(4) 0.5551(4) 0.3979(2)
N19 N 1.1827(3) 0.6556(3) 0.3151(2)
N20 N 1.2055(4) 0.5429(3) 0.2679(2)
N21 N 1.0320(3) 0.6963(4) 0.4265(2)
N22 N 0.9125(3) 0.8186(3) 0.4294(2)
N23 N 0.9869(3) 0.9220(3) 0.3532(2)
N24 N 1.1013(3) 0.7966(3) 0.3465(2)
N25 N 0.7651(3) 0.9298(3) 0.4093(2)
N26 N 0.6250(3) 1.0032(3) 0.3773(2)
N27 N 0.7036(3) 1.1016(3) 0.3003(2)
N28 N 0.8407(3) 1.0362(4) 0.3360(2)
N29 N 0.4914(3) 1.0261(3) 0.3241(2)
N30 N 0.4101(3) 0.9903(3) 0.2652(2)
N31 N 0.4966(4) 1.0778(3) 0.1858(2)
N32 N 0.5735(4) 1.1182(3) 0.2451(2)
O1 O 0.3873(3) 0.7466(3) 0.25673(18)
O2 O 0.5871(3) 0.9776(3) 0.05465(19)
O3 O 0.5152(3) 0.5080(3) 0.2059(2)
O4 O 0.7111(3) 0.7501(3) 0.0115(2)
O5 O 0.7461(3) 0.3399(3) 0.2326(2)
O6 O 0.9390(3) 0.5766(3) 0.03353(18)
O7 O 0.9520(3) 0.3211(3) 0.32216(19)
O8 O 1.1503(3) 0.5490(3) 0.11652(18)
O9 O 1.0162(3) 0.4496(3) 0.42126(18)
O10 O 1.1912(3) 0.6977(3) 0.21773(17)
O11 O 0.8881(3) 0.6668(3) 0.46600(18)
O12 O 1.0689(3) 0.9188(3) 0.26677(19)
O13 O 0.6437(3) 0.8494(3) 0.43055(18)
O14 O 0.8396(3) 1.1066(3) 0.24148(18)
O15 O 0.4280(3) 0.8929(3) 0.35360(17)
O16 O 0.6396(3) 1.1165(3) 0.15494(19)
C1 C 0.3934(4) 0.8014(4) 0.2113(3)
C2 C 0.4008(4) 0.8620(4) 0.1141(3)
H1 H 0.3466 0.8666 0.0920
C3 C 0.5180(4) 0.9496(4) 0.0834(3)
C4 C 0.3841(4) 0.9449(4) 0.1443(3)
H2 H 0.3233 0.9905 0.1348
C5 C 0.4030(4) 0.6883(4) 0.1524(3)
H3 H 0.3526 0.6987 0.1268
H4 H 0.3838 0.6501 0.1892
C6 C 0.5154(4) 0.8279(4) 0.0318(3)
H5 H 0.5577 0.8631 0.0046
H6 H 0.4596 0.8306 0.0122
C7 C 0.5296(4) 0.5449(4) 0.1571(3)
C8 C 0.5916(4) 0.5639(4) 0.0635(3)
H7 H 0.5761 0.5324 0.0355
C9 C 0.6559(4) 0.6989(4) 0.0334(3)
C10 C 0.5146(4) 0.6530(4) 0.0700(3)
H8 H 0.4596 0.6606 0.0478
C11 C 0.6450(4) 0.4075(4) 0.1333(4)
H9 H 0.6371 0.3744 0.1045
H10 H 0.6190 0.3745 0.1699
C12 C 0.7567(4) 0.5515(5) 0.0170(3)
H11 H 0.7353 0.5142 -0.0051
H12 H 0.7885 0.5982 -0.0097
C13 C 0.7870(4) 0.3569(4) 0.1854(3)
C14 C 0.9073(4) 0.3533(4) 0.1138(3)
H13 H 0.9403 0.2942 0.1014
C15 C 0.9102(4) 0.5054(4) 0.0585(2)
C16 C 0.8117(4) 0.3960(4) 0.0877(3)
H14 H 0.7972 0.3563 0.0639
C17 C 0.9444(5) 0.2764(4) 0.2156(3)
H15 H 0.9815 0.2212 0.2015
H16 H 0.9072 0.2520 0.2502
C18 C 1.0599(4) 0.4127(4) 0.0954(2)
H17 H 1.0888 0.3504 0.0867
H18 H 1.0829 0.4620 0.0655
C19 C 1.0117(5) 0.3345(4) 0.2832(3)
C20 C 1.1543(4) 0.3607(4) 0.2355(3)
H19 H 1.2157 0.3145 0.2416
C21 C 1.1369(4) 0.4801(4) 0.1539(3)
C22 C 1.0965(4) 0.3347(4) 0.1963(3)
H20 H 1.1285 0.2737 0.1859
C23 C 1.1292(5) 0.3544(4) 0.3396(3)
H21 H 1.1936 0.3146 0.3415
H22 H 1.0892 0.3230 0.3705
C24 C 1.2372(4) 0.4975(4) 0.2212(3)
H23 H 1.2545 0.5453 0.1880
H24 H 1.2944 0.4478 0.2310
C25 C 1.0820(4) 0.4802(4) 0.3923(2)
C26 C 1.1969(4) 0.5692(5) 0.3591(3)
H25 H 1.2537 0.5627 0.3796
C27 C 1.1923(4) 0.6378(4) 0.2635(3)
C28 C 1.2103(4) 0.4893(4) 0.3269(2)
H26 H 1.2717 0.4431 0.3336
C29 C 1.0867(4) 0.6008(4) 0.4437(2)
H27 H 1.1428 0.6030 0.4614
H28 H 1.0487 0.5627 0.4723
C30 C 1.1887(4) 0.7463(4) 0.3233(3)
H29 H 1.2070 0.7860 0.2868
H30 H 1.2387 0.7366 0.3490
C31 C 0.9390(4) 0.7221(4) 0.4439(2)
C32 C 0.9918(4) 0.8637(4) 0.4100(3)
H31 H 1.0032 0.8991 0.4371
C33 C 1.0540(4) 0.8832(4) 0.3169(2)
C34 C 1.0740(4) 0.7793(4) 0.4050(2)
H32 H 1.1268 0.7773 0.4276
C35 C 0.8252(4) 0.8690(5) 0.4526(3)
H33 H 0.8399 0.9083 0.4760
H34 H 0.7909 0.8224 0.4772
C36 C 0.9412(4) 1.0210(4) 0.3401(3)
H35 H 0.9698 1.0528 0.3040
H36 H 0.9523 1.0508 0.3697
C37 C 0.6747(4) 0.9211(4) 0.4082(2)
C38 C 0.6791(4) 1.0762(4) 0.3606(2)
H37 H 0.6490 1.1332 0.3758
C39 C 0.7987(4) 1.0839(4) 0.2881(3)
C40 C 0.7749(4) 1.0265(4) 0.3849(3)
H38 H 0.7891 1.0573 0.4136
C41 C 0.5242(4) 1.0240(4) 0.3771(3)
H39 H 0.4992 0.9755 0.4067
H40 H 0.4988 1.0864 0.3865
C42 C 0.6378(4) 1.1648(4) 0.2614(3)
H41 H 0.6012 1.2164 0.2790
H42 H 0.6733 1.1940 0.2273
C43 C 0.4419(4) 0.9629(4) 0.3173(3)
C44 C 0.4303(4) 1.0817(4) 0.2348(3)
H43 H 0.3714 1.1304 0.2252
C45 C 0.5760(4) 1.1054(4) 0.1923(3)
C46 C 0.4845(4) 1.1072(4) 0.2765(3)
H44 H 0.4505 1.1671 0.2877
C47 C 0.3435(4) 0.9472(4) 0.2470(3)
H45 H 0.3219 0.9009 0.2796
H46 H 0.2880 0.9971 0.2340
C48 C 0.4683(5) 1.0806(4) 0.1319(3)
H47 H 0.5129 1.1086 0.1026
H48 H 0.4056 1.1231 0.1268
N33 N 0.9272(4) 1.0000(4) 0.1043(2)
N34 N 0.5095(3) 0.6976(3) 0.3577(2)
H49 H 0.4992 0.7587 0.3564
N35 N 0.1913(3) 0.4054(3) 0.6231(2)
O17 O 0.5936(3) 0.5837(3) 0.3130(2)
C49 C 0.9330(4) 0.9732(4) 0.1594(3)
H50 H 0.9815 0.9869 0.1762
C50 C 0.8675(4) 0.9248(4) 0.1929(3)
H51 H 0.8722 0.9043 0.2324
C51 C 0.7963(4) 0.9066(4) 0.1688(2)
C52 C 0.7938(5) 0.9345(5) 0.1110(3)
H52 H 0.7469 0.9208 0.0929
C53 C 0.8598(5) 0.9824(5) 0.0797(3)
H53 H 0.8571 1.0030 0.0401
C54 C 0.7258(4) 0.8545(4) 0.2042(2)
C55 C 0.6977(4) 0.8679(4) 0.2584(3)
H54 H 0.7179 0.9148 0.2711
C56 C 0.6401(4) 0.8126(4) 0.2939(2)
H55 H 0.6191 0.8235 0.3302
C57 C 0.6132(4) 0.7420(4) 0.2767(2)
C58 C 0.6368(4) 0.7320(4) 0.2211(3)
H56 H 0.6151 0.6864 0.2081
C59 C 0.6925(4) 0.7898(4) 0.1850(3)
H57 H 0.7074 0.7843 0.1471
C60 C 0.5691(4) 0.6673(4) 0.3168(3)
C61 C 0.4616(4) 0.6437(4) 0.4024(3)
C62 C 0.4521(4) 0.5510(4) 0.4042(3)
H58 H 0.4794 0.5210 0.3745
C63 C 0.4029(4) 0.5044(4) 0.4494(3)
H59 H 0.3964 0.4420 0.4503
C64 C 0.3617(4) 0.5467(4) 0.4944(2)
C65 C 0.3738(5) 0.6388(5) 0.4922(3)
H60 H 0.3479 0.6685 0.5223
C66 C 0.4227(5) 0.6860(4) 0.4471(3)
H61 H 0.4302 0.7479 0.4463
C67 C 0.2593(4) 0.3550(4) 0.5944(2)
H62 H 0.2673 0.2879 0.6026
C68 C 0.3178(4) 0.3983(4) 0.5533(3)
H63 H 0.3660 0.3616 0.5335
C69 C 0.3052(4) 0.4981(4) 0.5410(2)
C70 C 0.2349(4) 0.5473(4) 0.5724(3)
H64 H 0.2260 0.6144 0.5658
C71 C 0.1778(4) 0.5004(4) 0.6132(3)
H65 H 0.1294 0.5349 0.6341
C72 C 0.1231(4) 0.3558(4) 0.6617(3)
H66 H 0.1431 0.2871 0.6628
H67 H 0.0611 0.3782 0.6455
C73 C 0.1107(4) 0.3683(4) 0.7214(3)
C74 C 0.1608(5) 0.4150(5) 0.7438(3)
H68 H 0.2069 0.4451 0.7207
C75 C 0.1451(5) 0.4189(5) 0.7995(3)
H69 H 0.1813 0.4505 0.8147
C76 C 0.0774(5) 0.3773(5) 0.8331(3)
H70 H 0.0660 0.3807 0.8714
C77 C 0.0262(5) 0.3307(5) 0.8109(3)
H71 H -0.0209 0.3020 0.8341
C78 C 0.0423(4) 0.3252(4) 0.7557(3)
H72 H 0.0071 0.2921 0.7408
C79 C 0.9933(5) 1.0571(6) 0.0701(3)
H73 H 1.0467 1.0152 0.0548
H74 H 1.0161 1.0899 0.0938
H75 H 0.9609 1.1039 0.0393
N36 N 0.1800(7) 0.1076(5) 0.3119(4)
O18 O 0.2496(6) 0.1360(6) 0.3170(4)
O19 O 0.1471(9) 0.0506(13) 0.3496(6)
O20 O 0.1535(10) 0.1319(5) 0.2672(4)
N37 N 0.3913(9) 0.3293(7) 0.1225(5)
O21 O 0.3862(14) 0.3237(8) 0.0772(6)
O22 O 0.3447(8) 0.2991(7) 0.1609(6)
O23 O 0.4449(14) 0.3634(17) 0.1320(9)
O24 O 0.8107(4) 0.1877(3) 0.1266(2)
O25 O 0.6381(4) 0.3903(3) 0.3233(2)
O26 O 0.7352(4) 0.6578(4) 0.5568(2)
O27 O 0.1831(4) 0.8794(4) 0.1519(3)
O28 O 0.2324(4) 0.1933(4) 0.1124(2)
O29 O 0.1230(4) 0.0635(4) 0.1738(3)
O30 O 0.7926(5) 0.2472(4) 0.3705(3)
O31 O 0.7470(5) 0.9512(5) 0.9705(3)
O32 O 0.6850(4) 0.8432(5) 0.5813(3)
O33 O 0.5006(5) 0.2870(5) 0.3745(3)
O34 O 0.4462(4) 0.3425(4) 0.2538(3)
O35 O 0.6559(5) 0.0226(5) 0.5049(3)
O36 O 0.5035(5) 0.1709(6) 0.4812(3)
O37 O 0.9011(6) 0.7843(6) 0.9933(4)
O38 O 0.0814(7) 0.7074(6) 0.0217(4)
O39 O 0.2462(6) 0.8947(6) 0.4107(5)
O40 O 0.1714(7) 0.8644(9) 0.0440(4)
O41 O 0.3289(7) 0.5775(8) 0.0620(6)
O42 O 0.9737(11) 0.2587(8) 0.4608(4)
O43 O 0.3913(9) 0.5492(7) 0.2895(5)
loop_
_geom_bond_atom_site_label_1
_geom_bond_atom_site_label_2
_geom_bond_site_symmetry_1
_geom_bond_site_symmetry_2
N1 C1 1_555 1_555
N2 C1 1_555 1_555
N3 C2 1_555 1_555
N4 C3 1_555 1_555
N5 C5 1_555 1_555
N6 C7 1_555 1_555
N7 C8 1_555 1_555
N8 C6 1_555 1_555
N9 C11 1_555 1_555
N10 C13 1_555 1_555
N11 C14 1_555 1_555
N12 C12 1_555 1_555
N13 C17 1_555 1_555
N14 C19 1_555 1_555
N15 C20 1_555 1_555
N16 C18 1_555 1_555
N17 C23 1_555 1_555
N18 C25 1_555 1_555
N19 C26 1_555 1_555
N20 C24 1_555 1_555
N21 C29 1_555 1_555
N22 C31 1_555 1_555
N23 C32 1_555 1_555
N24 C30 1_555 1_555
N25 C35 1_555 1_555
N26 C37 1_555 1_555
N27 C38 1_555 1_555
N28 C36 1_555 1_555
N29 C41 1_555 1_555
N30 C43 1_555 1_555
N31 C44 1_555 1_555
N32 C42 1_555 1_555
O1 C1 1_555 1_555
O2 C3 1_555 1_555
O3 C7 1_555 1_555
O4 C9 1_555 1_555
O5 C13 1_555 1_555
O6 C15 1_555 1_555
O7 C19 1_555 1_555
O8 C21 1_555 1_555
O9 C25 1_555 1_555
O10 C27 1_555 1_555
O11 C31 1_555 1_555
O12 C33 1_555 1_555
O13 C37 1_555 1_555
O14 C39 1_555 1_555
O15 C43 1_555 1_555
O16 C45 1_555 1_555
C2 N2 1_555 1_555
H1 C2 1_555 1_555
C3 N3 1_555 1_555
C4 N1 1_555 1_555
H2 C4 1_555 1_555
C5 N2 1_555 1_555
H3 C5 1_555 1_555
H4 C5 1_555 1_555
C6 N3 1_555 1_555
H5 C6 1_555 1_555
H6 C6 1_555 1_555
C7 N5 1_555 1_555
C8 N6 1_555 1_555
H7 C8 1_555 1_555
C9 N7 1_555 1_555
C10 N5 1_555 1_555
H8 C10 1_555 1_555
C11 N6 1_555 1_555
H9 C11 1_555 1_555
H10 C11 1_555 1_555
C12 N7 1_555 1_555
H11 C12 1_555 1_555
H12 C12 1_555 1_555
C13 N9 1_555 1_555
C14 N10 1_555 1_555
H13 C14 1_555 1_555
C15 N11 1_555 1_555
C16 N9 1_555 1_555
H14 C16 1_555 1_555
C17 N10 1_555 1_555
H15 C17 1_555 1_555
H16 C17 1_555 1_555
C18 N11 1_555 1_555
H17 C18 1_555 1_555
H18 C18 1_555 1_555
C19 N13 1_555 1_555
C20 N14 1_555 1_555
H19 C20 1_555 1_555
C21 N15 1_555 1_555
C22 N13 1_555 1_555
H20 C22 1_555 1_555
C23 N14 1_555 1_555
H21 C23 1_555 1_555
H22 C23 1_555 1_555
C24 N15 1_555 1_555
H23 C24 1_555 1_555
H24 C24 1_555 1_555
C25 N17 1_555 1_555
C26 N18 1_555 1_555
H25 C26 1_555 1_555
C27 N19 1_555 1_555
C28 N17 1_555 1_555
H26 C28 1_555 1_555
C29 N18 1_555 1_555
H27 C29 1_555 1_555
H28 C29 1_555 1_555
C30 N19 1_555 1_555
H29 C30 1_555 1_555
H30 C30 1_555 1_555
C31 N21 1_555 1_555
C32 N22 1_555 1_555
H31 C32 1_555 1_555
C33 N23 1_555 1_555
C34 N21 1_555 1_555
H32 C34 1_555 1_555
C35 N22 1_555 1_555
H33 C35 1_555 1_555
H34 C35 1_555 1_555
C36 N23 1_555 1_555
H35 C36 1_555 1_555
H36 C36 1_555 1_555
C37 N25 1_555 1_555
C38 N26 1_555 1_555
H37 C38 1_555 1_555
C39 N27 1_555 1_555
C40 N25 1_555 1_555
H38 C40 1_555 1_555
C41 N26 1_555 1_555
H39 C41 1_555 1_555
H40 C41 1_555 1_555
C42 N27 1_555 1_555
H41 C42 1_555 1_555
H42 C42 1_555 1_555
C43 N29 1_555 1_555
C44 N30 1_555 1_555
H43 C44 1_555 1_555
C45 N31 1_555 1_555
C46 N29 1_555 1_555
H44 C46 1_555 1_555
C47 N1 1_555 1_555
H45 C47 1_555 1_555
H46 C47 1_555 1_555
C48 N4 1_555 1_555
H47 C48 1_555 1_555
H48 C48 1_555 1_555
N33 C49 1_555 1_555
N34 H49 1_555 1_555
N35 C67 1_555 1_555
O17 C60 1_555 1_555
C49 H50 1_555 1_555
C50 C49 1_555 1_555
H51 C50 1_555 1_555
C51 C50 1_555 1_555
C52 C51 1_555 1_555
H52 C52 1_555 1_555
C53 N33 1_555 1_555
H53 C53 1_555 1_555
C54 C51 1_555 1_555
C55 C54 1_555 1_555
H54 C55 1_555 1_555
C56 C55 1_555 1_555
H55 C56 1_555 1_555
C57 C56 1_555 1_555
C58 C57 1_555 1_555
H56 C58 1_555 1_555
C59 C54 1_555 1_555
H57 C59 1_555 1_555
C60 N34 1_555 1_555
C61 N34 1_555 1_555
C62 C61 1_555 1_555
H58 C62 1_555 1_555
C63 C62 1_555 1_555
H59 C63 1_555 1_555
C64 C63 1_555 1_555
C65 C64 1_555 1_555
H60 C65 1_555 1_555
C66 C61 1_555 1_555
H61 C66 1_555 1_555
C67 H62 1_555 1_555
C68 C67 1_555 1_555
H63 C68 1_555 1_555
C69 C64 1_555 1_555
C70 C69 1_555 1_555
H64 C70 1_555 1_555
C71 N35 1_555 1_555
H65 C71 1_555 1_555
C72 N35 1_555 1_555
H66 C72 1_555 1_555
H67 C72 1_555 1_555
C73 C72 1_555 1_555
C74 C73 1_555 1_555
H68 C74 1_555 1_555
C75 C74 1_555 1_555
H69 C75 1_555 1_555
C76 C75 1_555 1_555
H70 C76 1_555 1_555
C77 C76 1_555 1_555
H71 C77 1_555 1_555
C78 C73 1_555 1_555
H72 C78 1_555 1_555
C79 N33 1_555 1_555
H73 C79 1_555 1_555
H74 C79 1_555 1_555
H75 C79 1_555 1_555
N36 O18 1_555 1_555
O19 N36 1_555 1_555
O20 N36 1_555 1_555
N37 O21 1_555 1_555
O22 N37 1_555 1_555
O23 N37 1_555 1_555
N4 C4 1_555 1_555
N8 C9 1_555 1_555
N8 C10 1_555 1_555
N12 C15 1_555 1_555
N12 C16 1_555 1_555
N16 C21 1_555 1_555
N16 C22 1_555 1_555
N20 C27 1_555 1_555
N20 C28 1_555 1_555
N24 C33 1_555 1_555
N24 C34 1_555 1_555
N28 C39 1_555 1_555
N28 C40 1_555 1_555
N30 C47 1_555 1_555
N31 C48 1_555 1_555
N32 C45 1_555 1_555
N32 C46 1_555 1_555
C2 C4 1_555 1_555
C8 C10 1_555 1_555
C14 C16 1_555 1_555
C20 C22 1_555 1_555
C26 C28 1_555 1_555
C32 C34 1_555 1_555
C38 C40 1_555 1_555
C44 C46 1_555 1_555
C52 C53 1_555 1_555
C57 C60 1_555 1_555
C58 C59 1_555 1_555
C65 C66 1_555 1_555
C68 C69 1_555 1_555
C70 C71 1_555 1_555
C77 C78 1_555 1_555

#END
