
#######################################################################
#
#                 Cambridge Crystallographic Data Centre
#                                CCDC 
#
#######################################################################
#
# If this CIF has been generated from an entry in the Cambridge 
# Structural Database, then it will include bibliographic, chemical, 
# crystal, experimental, refinement or atomic coordinate data resulting 
# from the CCDC's data processing and validation procedures.
#
#######################################################################

data_MIGMAT
_chemical_formula_moiety         'C18 H20 Cl1 N3 O1 S1 2+,2(H2 O1),2(Cl1 1-)'
_chemical_name_systematic        
'1-(4-chlorophenyl)-2-(4-methoxy-3,5-dimethylpyridinium-2-ylmethylthiolato)imidazolium dichloride dihydrate'
_symmetry_cell_setting           triclinic
_symmetry_space_group_name_H-M   'P -1'
_symmetry_Int_Tables_number      2
_space_group_name_Hall           '-P 1'
loop_
_symmetry_equiv_pos_site_id
_symmetry_equiv_pos_as_xyz
1 x,y,z
2 -x,-y,-z
_cell_length_a                   7.492(8)
_cell_length_b                   10.170(12)
_cell_length_c                   15.723(18)
_cell_angle_alpha                77.159(15)
_cell_angle_beta                 85.038(13)
_cell_angle_gamma                81.194(16)
_cell_volume                     1152.55
_exptl_crystal_colour            colurless
_exptl_crystal_description       flake
_cell_formula_units_Z            2
loop_
_atom_site_label
_atom_site_type_symbol
_atom_site_fract_x
_atom_site_fract_y
_atom_site_fract_z
S1 S 0.80545(12) 0.80556(13) 0.42965(5)
O1 O 1.1740(4) 0.4085(4) 0.25673(19)
N1 N 1.0218(4) 0.8181(4) 0.20841(17)
H1 H 0.9870 0.9045 0.1976
N2 N 0.5856(4) 1.0416(4) 0.37147(18)
H2 H 0.6220 1.0814 0.4083
N3 N 0.5521(4) 0.8882(4) 0.30000(15)
Cl1 Cl 0.61319(16) 0.38893(15) 0.15658(7)
C1 C 1.0477(4) 0.7509(5) 0.29281(18)
C2 C 1.1020(4) 0.6116(5) 0.31005(19)
C3 C 1.1226(5) 0.5441(6) 0.2405(2)
C4 C 1.1025(5) 0.6170(7) 0.1534(2)
C5 C 1.0492(5) 0.7530(6) 0.1414(2)
H3 H 1.0309 0.8032 0.0850
C6 C 1.1357(6) 0.5325(5) 0.4013(2)
H4 H 1.1688 0.5914 0.4354
H5 H 1.2320 0.4589 0.3994
H6 H 1.0278 0.4965 0.4272
C7 C 1.1340(8) 0.5473(9) 0.0770(3)
H7 H 1.0445 0.4878 0.0804
H8 H 1.2523 0.4953 0.0787
H9 H 1.1250 0.6146 0.0235
C8 C 1.0389(9) 0.3213(8) 0.2777(8)
H10 H 1.0769 0.2462 0.3242
H11 H 1.0201 0.2877 0.2272
H12 H 0.9280 0.3710 0.2958
C9 C 1.0121(5) 0.8368(5) 0.3600(2)
H13 H 1.0007 0.9321 0.3308
H14 H 1.1146 0.8183 0.3966
C10 C 0.6432(4) 0.9156(4) 0.36407(18)
C11 C 0.4581(5) 1.1002(6) 0.3111(3)
H15 H 0.3970 1.1885 0.3031
C12 C 0.4386(5) 1.0068(5) 0.2663(2)
H16 H 0.3627 1.0188 0.2207
C13 C 0.5695(4) 0.7648(5) 0.26783(19)
C14 C 0.5695(5) 0.6388(5) 0.32374(19)
H17 H 0.5592 0.6322 0.3839
C15 C 0.5848(5) 0.5230(5) 0.2902(2)
H18 H 0.5887 0.4378 0.3275
C16 C 0.5945(5) 0.5347(5) 0.2000(2)
C17 C 0.5942(5) 0.6608(5) 0.1436(2)
H19 H 0.6021 0.6675 0.0835
C18 C 0.5820(5) 0.7753(5) 0.1772(2)
H20 H 0.5821 0.8601 0.1397
Cl2 Cl 0.64903(15) 0.23483(14) 0.48255(5)
Cl3 Cl 0.23360(15) 0.12053(18) 0.05636(6)
O2 O 0.8901(5) 0.0831(4) 0.17395(19)
H21 H 0.986(3) 0.113(4) 0.139(2)
H22 H 0.810(4) 0.102(6) 0.130(2)
O3 O 0.6549(5) 0.1245(5) 0.0452(3)
H23 H 0.672(6) 0.062(4) 0.011(3)
H24 H 0.537(3) 0.156(5) 0.032(3)
H25? H 0.690(6) 0.152(4) 0.430(2)
loop_
_geom_bond_atom_site_label_1
_geom_bond_atom_site_label_2
_geom_bond_site_symmetry_1
_geom_bond_site_symmetry_2
S1 C9 1_555 1_555
O1 C3 1_555 1_555
N1 H1 1_555 1_555
N2 H2 1_555 1_555
N3 C10 1_555 1_555
Cl1 C16 1_555 1_555
C1 N1 1_555 1_555
C2 C1 1_555 1_555
C3 C2 1_555 1_555
C4 C3 1_555 1_555
C5 N1 1_555 1_555
H3 C5 1_555 1_555
C6 C2 1_555 1_555
H4 C6 1_555 1_555
H5 C6 1_555 1_555
H6 C6 1_555 1_555
C7 C4 1_555 1_555
H7 C7 1_555 1_555
H8 C7 1_555 1_555
H9 C7 1_555 1_555
C8 O1 1_555 1_555
H10 C8 1_555 1_555
H11 C8 1_555 1_555
H12 C8 1_555 1_555
C9 C1 1_555 1_555
H13 C9 1_555 1_555
H14 C9 1_555 1_555
C10 S1 1_555 1_555
C11 N2 1_555 1_555
H15 C11 1_555 1_555
C12 N3 1_555 1_555
H16 C12 1_555 1_555
C13 N3 1_555 1_555
C14 C13 1_555 1_555
H17 C14 1_555 1_555
C15 C14 1_555 1_555
H18 C15 1_555 1_555
C16 C15 1_555 1_555
C17 C16 1_555 1_555
H19 C17 1_555 1_555
C18 C13 1_555 1_555
H20 C18 1_555 1_555
O2 H21 1_555 1_555
H22 O2 1_555 1_555
O3 H23 1_555 1_555
H24 O3 1_555 1_555
N2 C10 1_555 1_555
C4 C5 1_555 1_555
C11 C12 1_555 1_555
C17 C18 1_555 1_555

#END
