
#######################################################################
#
#                 Cambridge Crystallographic Data Centre
#                                CCDC 
#
#######################################################################
#
# If this CIF has been generated from an entry in the Cambridge 
# Structural Database, then it will include bibliographic, chemical, 
# crystal, experimental, refinement or atomic coordinate data resulting 
# from the CCDC's data processing and validation procedures.
#
#######################################################################

data_MIGQOJ02
_chemical_formula_moiety         'C6 H16 N1 1+,Cl1 O4 1-'
_chemical_name_systematic        'diisopropylammonium perchlorate'
_symmetry_cell_setting           triclinic
_symmetry_space_group_name_H-M   'P 1'
_symmetry_Int_Tables_number      1
_space_group_name_Hall           'P 1'
loop_
_symmetry_equiv_pos_site_id
_symmetry_equiv_pos_as_xyz
1 x,y,z
_cell_length_a                   8.15(3)
_cell_length_b                   8.52(4)
_cell_length_c                   8.77(3)
_cell_angle_alpha                82.77(19)
_cell_angle_beta                 65.14(13)
_cell_angle_gamma                79.9(2)
_cell_volume                     543.053
_exptl_crystal_colour            colorless
_exptl_crystal_description       prism
_cell_formula_units_Z            2
loop_
_atom_site_label
_atom_site_type_symbol
_atom_site_fract_x
_atom_site_fract_y
_atom_site_fract_z
Cl1 Cl 0.4862(5) 0.0745(4) 0.4598(4)
O1 O 0.590(2) 0.089(2) 0.3177(14)
O2 O 0.528(4) 0.143(2) 0.553(2)
O3 O 0.454(3) -0.0628(15) 0.526(2)
O4 O 0.326(2) 0.149(3) 0.482(3)
Cl2 Cl 0.2649(5) 0.5508(4) 0.9332(4)
O5 O 0.358(2) 0.6828(16) 0.869(2)
O6 O 0.249(4) 0.497(2) 1.0839(16)
O7 O 0.353(2) 0.4411(13) 0.8131(11)
O8 O 0.0919(17) 0.595(3) 0.936(3)
C1 C 0.891(3) 0.232(3) -0.078(4)
H1 H 0.7677 0.2518 -0.0681
H2 H 0.9693 0.2802 -0.1826
H3 H 0.8978 0.2784 0.0139
N1 N 1.1526(14) 0.0204(15) -0.0877(12)
H4 H 1.1872 -0.0855 -0.0969
H5 H 1.2210 0.0677 -0.1867
C2 C 0.9523(19) 0.054(2) -0.0712(17)
H6 H 0.8743 0.0081 0.0386
C3 C 0.940(3) -0.032(3) -0.207(2)
H7 H 0.8177 -0.0123 -0.1994
H8 H 0.9744 -0.1448 -0.1918
H9 H 1.0217 0.0064 -0.3157
C4 C 1.096(2) -0.022(2) 0.213(2)
H10 H 1.1257 0.0130 0.2974
H11 H 1.1297 -0.1351 0.2056
H12 H 0.9677 0.0050 0.2423
C5 C 1.205(2) 0.065(2) 0.036(2)
H13 H 1.1711 0.1806 0.0470
C6 C 1.406(2) 0.029(2) -0.020(2)
H14 H 1.4651 0.0906 -0.1221
H15 H 1.4438 -0.0828 -0.0386
H16 H 1.4395 0.0555 0.0659
N2 N 0.5975(15) 0.5985(15) 0.4868(14)
H17 H 0.5612 0.7042 0.4964
H18 H 0.5294 0.5496 0.5848
C7 C 0.861(3) 0.389(2) 0.459(2)
H19 H 0.8499 0.3485 0.3677
H20 H 0.7909 0.3344 0.5632
H21 H 0.9874 0.3722 0.4425
C8 C 0.792(2) 0.566(2) 0.468(3)
H22 H 0.8666 0.6190 0.3604
C9 C 0.810(3) 0.638(4) 0.602(4)
H23 H 0.7691 0.7505 0.5986
H24 H 0.9349 0.6200 0.5868
H25 H 0.7360 0.5898 0.7088
C10 C 0.640(3) 0.636(3) 0.1843(16)
H26 H 0.6093 0.6016 0.1007
H27 H 0.7699 0.6166 0.1495
H28 H 0.5990 0.7485 0.1973
C11 C 0.551(2) 0.5472(16) 0.3464(15)
H29 H 0.5947 0.4331 0.3311
C12 C 0.349(2) 0.570(2) 0.413(2)
H30 H 0.3128 0.5411 0.3301
H31 H 0.3032 0.6796 0.4370
H32 H 0.3011 0.5031 0.5138
loop_
_geom_bond_atom_site_label_1
_geom_bond_atom_site_label_2
_geom_bond_site_symmetry_1
_geom_bond_site_symmetry_2
Cl1 O1 1_555 1_555
O2 Cl1 1_555 1_555
O3 Cl1 1_555 1_555
O4 Cl1 1_555 1_555
Cl2 O5 1_555 1_555
O6 Cl2 1_555 1_555
O7 Cl2 1_555 1_555
O8 Cl2 1_555 1_555
C1 H1 1_555 1_555
H2 C1 1_555 1_555
H3 C1 1_555 1_555
N1 H4 1_555 1_555
H5 N1 1_555 1_555
C2 C1 1_555 1_555
H6 C2 1_555 1_555
C3 C2 1_555 1_555
H7 C3 1_555 1_555
H8 C3 1_555 1_555
H9 C3 1_555 1_555
C4 H10 1_555 1_555
H11 C4 1_555 1_555
H12 C4 1_555 1_555
C5 N1 1_555 1_555
H13 C5 1_555 1_555
C6 C5 1_555 1_555
H14 C6 1_555 1_555
H15 C6 1_555 1_555
H16 C6 1_555 1_555
N2 H17 1_555 1_555
H18 N2 1_555 1_555
C7 H19 1_555 1_555
H20 C7 1_555 1_555
H21 C7 1_555 1_555
C8 N2 1_555 1_555
H22 C8 1_555 1_555
C9 C8 1_555 1_555
H23 C9 1_555 1_555
H24 C9 1_555 1_555
H25 C9 1_555 1_555
C10 H26 1_555 1_555
H27 C10 1_555 1_555
H28 C10 1_555 1_555
C11 N2 1_555 1_555
H29 C11 1_555 1_555
C12 C11 1_555 1_555
H30 C12 1_555 1_555
H31 C12 1_555 1_555
H32 C12 1_555 1_555
N1 C2 1_555 1_555
C4 C5 1_555 1_555
C7 C8 1_555 1_555
C10 C11 1_555 1_555

#END
