
#######################################################################
#
#                 Cambridge Crystallographic Data Centre
#                                CCDC 
#
#######################################################################
#
# If this CIF has been generated from an entry in the Cambridge 
# Structural Database, then it will include bibliographic, chemical, 
# crystal, experimental, refinement or atomic coordinate data resulting 
# from the CCDC's data processing and validation procedures.
#
#######################################################################

data_MIGSUR
_chemical_formula_moiety         'C8 H9 N1 O4 S1'
_chemical_name_systematic        1-Methyl-4-methylsulfonyl-2-nitrobenzene
_symmetry_cell_setting           orthorhombic
_symmetry_space_group_name_H-M   'P c a 21'
_symmetry_Int_Tables_number      29
_space_group_name_Hall           'P 2c -2ac'
loop_
_symmetry_equiv_pos_site_id
_symmetry_equiv_pos_as_xyz
1 x,y,z
2 1/2-x,y,1/2+z
3 1/2+x,-y,z
4 -x,-y,1/2+z
_cell_length_a                   14.957(11)
_cell_length_b                   8.268(5)
_cell_length_c                   7.795(5)
_cell_angle_alpha                90
_cell_angle_beta                 90
_cell_angle_gamma                90
_cell_volume                     963.965
_exptl_crystal_colour            colorless
_exptl_crystal_description       chunk
_chemical_melting_point          '391-392 K'
_cell_formula_units_Z            4
_exptl_crystal_recrystallization_method ethanol
loop_
_atom_site_label
_atom_site_type_symbol
_atom_site_fract_x
_atom_site_fract_y
_atom_site_fract_z
S1 S 0.14758(4) 0.09312(6) 0.41547(12)
O1 O 0.48784(12) 0.2707(2) 0.4356(3)
O2 O 0.48852(12) 0.4559(2) 0.6321(2)
O3 O 0.07388(12) 0.1408(2) 0.3105(2)
O4 O 0.20666(12) -0.02992(19) 0.3535(2)
N1 N 0.45069(14) 0.3727(2) 0.5241(3)
C1 C 0.21356(14) 0.2679(2) 0.4542(3)
C2 C 0.30390(16) 0.2549(2) 0.4770(2)
C3 C 0.35365(14) 0.3938(2) 0.5021(2)
C4 C 0.31618(18) 0.5478(2) 0.5019(3)
C5 C 0.2253(2) 0.5549(3) 0.4783(4)
C6 C 0.17398(16) 0.4192(3) 0.4536(3)
C7 C 0.3700(2) 0.7023(3) 0.5207(4)
C8 C 0.1062(2) 0.0349(3) 0.6141(3)
H1 H 0.3315 0.1541 0.4756
H2 H 0.1974 0.6554 0.4792
H3 H 0.1127 0.4290 0.4365
H4 H 0.3851 0.7181 0.6392
H5 H 0.4238 0.6941 0.4541
H6 H 0.3352 0.7922 0.4808
H7 H 0.0782 0.1258 0.6686
H8 H 0.0631 -0.0500 0.5990
H9 H 0.1545 -0.0034 0.6844
loop_
_geom_bond_atom_site_label_1
_geom_bond_atom_site_label_2
_geom_bond_site_symmetry_1
_geom_bond_site_symmetry_2
S1 O3 1_555 1_555
O1 N1 1_555 1_555
O2 N1 1_555 1_555
O4 S1 1_555 1_555
N1 C3 1_555 1_555
C1 S1 1_555 1_555
C2 C1 1_555 1_555
C3 C2 1_555 1_555
C4 C3 1_555 1_555
C5 C4 1_555 1_555
C6 C1 1_555 1_555
C7 C4 1_555 1_555
C8 S1 1_555 1_555
H1 C2 1_555 1_555
H2 C5 1_555 1_555
H3 C6 1_555 1_555
H4 C7 1_555 1_555
H5 C7 1_555 1_555
H6 C7 1_555 1_555
H7 C8 1_555 1_555
H8 C8 1_555 1_555
H9 C8 1_555 1_555
C5 C6 1_555 1_555

#END
