
#######################################################################
#
#                 Cambridge Crystallographic Data Centre
#                                CCDC 
#
#######################################################################
#
# If this CIF has been generated from an entry in the Cambridge 
# Structural Database, then it will include bibliographic, chemical, 
# crystal, experimental, refinement or atomic coordinate data resulting 
# from the CCDC's data processing and validation procedures.
#
#######################################################################

data_MIGWOR
_chemical_formula_moiety         'C12 H22 N1 1+,Cl1 O4 1-'
_chemical_name_systematic        'N,N-dimethyladamantan-1-aminium perchlorate'
_symmetry_cell_setting           orthorhombic
_symmetry_space_group_name_H-M   'P 21 21 21'
_symmetry_Int_Tables_number      19
_space_group_name_Hall           'P 2ac 2ab'
loop_
_symmetry_equiv_pos_site_id
_symmetry_equiv_pos_as_xyz
1 x,y,z
2 1/2-x,-y,1/2+z
3 -x,1/2+y,1/2-z
4 1/2+x,1/2-y,-z
_cell_length_a                   7.1522(10)
_cell_length_b                   13.774(3)
_cell_length_c                   13.5981(19)
_cell_angle_alpha                90
_cell_angle_beta                 90
_cell_angle_gamma                90
_cell_volume                     1339.61
_exptl_crystal_description       lamellar
_cell_formula_units_Z            4
loop_
_atom_site_label
_atom_site_type_symbol
_atom_site_fract_x
_atom_site_fract_y
_atom_site_fract_z
Cl1 Cl 0.02429(7) 0.46336(3) 0.54503(3)
O1 O 0.1350(3) 0.53254(10) 0.59565(12)
O2 O -0.0630(2) 0.39791(9) 0.61368(11)
O3 O 0.1361(3) 0.40860(10) 0.47741(12)
O4 O -0.1193(2) 0.51352(10) 0.48959(13)
N1 N 0.1873(3) 0.11398(10) 0.64150(12)
H1 H 0.2846 0.0836 0.6114
C1 C 0.2210(3) 0.29776(13) 0.85746(13)
H2 H 0.1255 0.3299 0.8976
C2 C 0.4043(3) 0.12124(14) 0.78632(15)
H3 H 0.3320 0.0719 0.8201
H4 H 0.4989 0.0891 0.7469
C3 C 0.2758(3) 0.18156(12) 0.71984(14)
C4 C 0.1250(3) 0.23073(12) 0.78243(13)
H5 H 0.0514 0.1820 0.8164
H6 H 0.0420 0.2682 0.7407
C5 C 0.3356(3) 0.37497(13) 0.80269(16)
H7 H 0.2542 0.4128 0.7604
H8 H 0.3936 0.4186 0.8496
C6 C 0.4859(3) 0.32528(16) 0.74104(15)
H9 H 0.5598 0.3745 0.7065
C7 C 0.3915(3) 0.25834(14) 0.66572(14)
H10 H 0.3111 0.2962 0.6229
H11 H 0.4858 0.2269 0.6255
C8 C 0.4979(3) 0.18823(15) 0.86146(15)
H12 H 0.5800 0.1496 0.9039
C9 C 0.3499(3) 0.23770(14) 0.92451(14)
H13 H 0.4094 0.2797 0.9725
H14 H 0.2775 0.1893 0.9596
C10 C 0.6149(3) 0.26530(19) 0.80793(19)
H15 H 0.7112 0.2341 0.7689
H16 H 0.6753 0.3074 0.8555
C11 C 0.0823(3) 0.16408(15) 0.56208(16)
H17 H 0.0331 0.1168 0.5171
H18 H 0.1647 0.2073 0.5275
H19 H -0.0188 0.2006 0.5903
C12 C 0.0656(5) 0.03462(15) 0.68200(17)
H20 H 0.0172 -0.0037 0.6288
H21 H -0.0362 0.0628 0.7181
H22 H 0.1381 -0.0059 0.7250
loop_
_geom_bond_atom_site_label_1
_geom_bond_atom_site_label_2
_geom_bond_site_symmetry_1
_geom_bond_site_symmetry_2
Cl1 O1 1_555 1_555
O2 Cl1 1_555 1_555
O3 Cl1 1_555 1_555
O4 Cl1 1_555 1_555
N1 H1 1_555 1_555
C1 H2 1_555 1_555
C2 H3 1_555 1_555
H4 C2 1_555 1_555
C3 N1 1_555 1_555
C4 C1 1_555 1_555
H5 C4 1_555 1_555
H6 C4 1_555 1_555
C5 C1 1_555 1_555
H7 C5 1_555 1_555
H8 C5 1_555 1_555
C6 C5 1_555 1_555
H9 C6 1_555 1_555
C7 C3 1_555 1_555
H10 C7 1_555 1_555
H11 C7 1_555 1_555
C8 C2 1_555 1_555
H12 C8 1_555 1_555
C9 C1 1_555 1_555
H13 C9 1_555 1_555
H14 C9 1_555 1_555
C10 C6 1_555 1_555
H15 C10 1_555 1_555
H16 C10 1_555 1_555
C11 N1 1_555 1_555
H17 C11 1_555 1_555
H18 C11 1_555 1_555
H19 C11 1_555 1_555
C12 N1 1_555 1_555
H20 C12 1_555 1_555
H21 C12 1_555 1_555
H22 C12 1_555 1_555
C2 C3 1_555 1_555
C3 C4 1_555 1_555
C6 C7 1_555 1_555
C8 C9 1_555 1_555
C8 C10 1_555 1_555

#END
