
#######################################################################
#
#                 Cambridge Crystallographic Data Centre
#                                CCDC 
#
#######################################################################
#
# If this CIF has been generated from an entry in the Cambridge 
# Structural Database, then it will include bibliographic, chemical, 
# crystal, experimental, refinement or atomic coordinate data resulting 
# from the CCDC's data processing and validation procedures.
#
#######################################################################

data_MIGYOT
_chemical_formula_moiety         'C15 H14 O2 S1'
_chemical_name_systematic        
'2-{[(2-methylphenyl)methyl]sulfanyl}benzoic acid'
_symmetry_cell_setting           triclinic
_symmetry_space_group_name_H-M   'P -1'
_symmetry_Int_Tables_number      2
_space_group_name_Hall           '-P 1'
loop_
_symmetry_equiv_pos_site_id
_symmetry_equiv_pos_as_xyz
1 x,y,z
2 -x,-y,-z
_cell_length_a                   5.4334(14)
_cell_length_b                   7.7787(19)
_cell_length_c                   16.488(4)
_cell_angle_alpha                76.601(3)
_cell_angle_beta                 86.078(3)
_cell_angle_gamma                70.772(3)
_cell_volume                     640.054
_exptl_crystal_colour            colorless
_exptl_crystal_description       block
_cell_formula_units_Z            2
loop_
_atom_site_label
_atom_site_type_symbol
_atom_site_fract_x
_atom_site_fract_y
_atom_site_fract_z
S1 S -0.00554(7) 0.99916(5) 0.20319(2)
O1 O -0.3121(2) 1.00489(15) 0.07587(7)
O2 O -0.2361(2) 0.78711(16) 0.00222(7)
H1 H -0.3719 0.8592 -0.0210
C1 C 0.0747(3) 0.74198(19) 0.10381(9)
C2 C 0.1747(3) 0.79628(19) 0.16730(9)
C3 C 0.1963(3) 0.9879(2) 0.28976(10)
H2 H 0.2311 0.8680 0.3287
H3 H 0.3614 1.0023 0.2690
C4 C 0.0518(3) 1.1428(2) 0.33286(9)
C5 C -0.1512(3) 1.1293(2) 0.38769(9)
C6 C 0.1245(4) 1.3028(2) 0.31812(11)
H4 H 0.2615 1.3115 0.2821
C7 C -0.2776(4) 1.2796(3) 0.42409(12)
H5 H -0.4159 1.2733 0.4598
C8 C -0.2037(4) 1.4370(2) 0.40870(13)
H6 H -0.2905 1.5350 0.4342
C9 C -0.0025(4) 1.4488(2) 0.35582(13)
H7 H 0.0489 1.5547 0.3453
C10 C 0.4200(3) 0.6826(2) 0.20118(10)
H8 H 0.4926 0.7173 0.2417
C11 C 0.2177(3) 0.5762(2) 0.07994(10)
H9 H 0.1503 0.5403 0.0387
C12 C 0.4553(3) 0.4645(2) 0.11564(11)
H10 H 0.5460 0.3537 0.0996
C13 C 0.5559(3) 0.5206(2) 0.17573(11)
H11 H 0.7179 0.4479 0.1994
C14 C -0.1746(3) 0.85698(19) 0.06016(9)
C15 C -0.2347(4) 0.9570(3) 0.40924(12)
H12 H -0.2321 0.9107 0.3599
H13 H -0.4080 0.9882 0.4313
H14 H -0.1171 0.8628 0.4501
loop_
_geom_bond_atom_site_label_1
_geom_bond_atom_site_label_2
_geom_bond_site_symmetry_1
_geom_bond_site_symmetry_2
S1 C2 1_555 1_555
O1 C14 1_555 1_555
O2 H1 1_555 1_555
C1 C2 1_555 1_555
C2 C10 1_555 1_555
C3 S1 1_555 1_555
H2 C3 1_555 1_555
H3 C3 1_555 1_555
C4 C3 1_555 1_555
C5 C4 1_555 1_555
C6 C4 1_555 1_555
H4 C6 1_555 1_555
C7 C5 1_555 1_555
H5 C7 1_555 1_555
C8 C7 1_555 1_555
H6 C8 1_555 1_555
C9 C6 1_555 1_555
H7 C9 1_555 1_555
C10 H8 1_555 1_555
C11 C1 1_555 1_555
H9 C11 1_555 1_555
C12 C11 1_555 1_555
H10 C12 1_555 1_555
C13 C10 1_555 1_555
H11 C13 1_555 1_555
C14 O2 1_555 1_555
C15 C5 1_555 1_555
H12 C15 1_555 1_555
H13 C15 1_555 1_555
H14 C15 1_555 1_555
C1 C14 1_555 1_555
C8 C9 1_555 1_555
C12 C13 1_555 1_555

#END
