
#######################################################################
#
#                 Cambridge Crystallographic Data Centre
#                                CCDC 
#
#######################################################################
#
# If this CIF has been generated from an entry in the Cambridge 
# Structural Database, then it will include bibliographic, chemical, 
# crystal, experimental, refinement or atomic coordinate data resulting 
# from the CCDC's data processing and validation procedures.
#
#######################################################################

data_MIHFOB
_chemical_formula_moiety         'C47 H60 O5'
_chemical_name_systematic        
3,9,17,23-tetra-t-butyl-13,27,30-trioxahexacyclo[23.6.1.1^7,11^.1^15,19^.0^5,31^.0^21,26^]tetratriaconta-1(31),2,4,7(34),8,10,15(33),16,18,21,23,25-dodecaene-33,34-diol
_symmetry_cell_setting           monoclinic
_symmetry_space_group_name_H-M   'C 2/c'
_symmetry_Int_Tables_number      15
_space_group_name_Hall           '-C 2yn'
loop_
_symmetry_equiv_pos_site_id
_symmetry_equiv_pos_as_xyz
1 x,y,z
2 -x,y,1/2-z
3 1/2+x,1/2+y,z
4 1/2-x,1/2+y,1/2-z
5 -x,-y,-z
6 x,-y,1/2+z
7 1/2-x,1/2-y,-z
8 1/2+x,1/2-y,1/2+z
_cell_length_a                   32.262(4)
_cell_length_b                   14.764(2)
_cell_length_c                   19.644(3)
_cell_angle_alpha                90
_cell_angle_beta                 114.967(4)
_cell_angle_gamma                90
_cell_volume                     8482.38
_exptl_crystal_colour            colorless
_exptl_crystal_description       block
_cell_formula_units_Z            8
loop_
_atom_site_label
_atom_site_type_symbol
_atom_site_fract_x
_atom_site_fract_y
_atom_site_fract_z
C1 C 0.1993(2) 0.5109(6) 0.1054(3)
H1 H 0.1885 0.5387 0.0562
H2 H 0.2324 0.5137 0.1284
C2 C 0.1810(2) 0.5637(5) 0.1531(3)
C3 C 0.1925(2) 0.5367(5) 0.2272(3)
C4 C 0.1803(2) 0.5908(5) 0.2743(3)
C5 C 0.1556(2) 0.6694(5) 0.2452(4)
H3 H 0.1473 0.7052 0.2764
C6 C 0.1427(2) 0.6970(5) 0.1710(4)
C7 C 0.1559(2) 0.6400(5) 0.1261(3)
H4 H 0.1471 0.6553 0.0760
C8 C 0.1166(2) 0.7865(6) 0.1438(4)
C9 C 0.0728(3) 0.7841(8) 0.1567(6)
H5 H 0.0808 0.7817 0.2096
H6 H 0.0552 0.7316 0.1327
H7 H 0.0552 0.8377 0.1358
C10 C 0.1029(3) 0.8003(7) 0.0601(4)
H8 H 0.0857 0.8554 0.0439
H9 H 0.0845 0.7502 0.0325
H10 H 0.1299 0.8040 0.0511
C11 C 0.1473(3) 0.8649(6) 0.1871(5)
H11 H 0.1750 0.8641 0.1800
H12 H 0.1546 0.8587 0.2396
H13 H 0.1316 0.9212 0.1690
C12 C 0.1955(2) 0.5684(5) 0.3573(3)
H14 H 0.2247 0.5371 0.3755
H15 H 0.2003 0.6246 0.3852
C13 C 0.1619(2) 0.5100(4) 0.3740(3)
C14 C 0.1652(2) 0.4174(4) 0.3773(3)
C15 C 0.1353(2) 0.3630(4) 0.3947(3)
C16 C 0.1014(2) 0.4076(4) 0.4084(3)
H16 H 0.0813 0.3730 0.4205
C17 C 0.0963(2) 0.5018(4) 0.4049(3)
C18 C 0.1269(2) 0.5510(4) 0.3879(3)
H17 H 0.1244 0.6138 0.3855
C19 C 0.0583(2) 0.5452(4) 0.4210(4)
C20 C 0.0118(3) 0.5097(7) 0.3651(5)
H18 H 0.0083 0.5208 0.3148
H19 H -0.0120 0.5402 0.3731
H20 H 0.0100 0.4458 0.3724
C21 C 0.0647(3) 0.5214(6) 0.5005(4)
H21 H 0.0606 0.4574 0.5038
H22 H 0.0425 0.5535 0.5119
H23 H 0.0949 0.5382 0.5356
C22 C 0.0589(3) 0.6488(5) 0.4153(6)
H24 H 0.0872 0.6717 0.4526
H25 H 0.0339 0.6737 0.4234
H26 H 0.0560 0.6657 0.3662
C23 C 0.2363(2) 0.3323(5) 0.4137(4)
H27 H 0.2307 0.3201 0.4576
H28 H 0.2629 0.3712 0.4286
C24 C 0.2447(2) 0.2455(6) 0.3824(4)
H29 H 0.2442 0.2574 0.3335
H30 H 0.2749 0.2234 0.4149
C25 C 0.1382(2) 0.2600(4) 0.3971(3)
H31 H 0.1148 0.2364 0.4109
H32 H 0.1677 0.2421 0.4358
C26 C 0.1324(2) 0.2175(4) 0.3228(3)
C27 C 0.1696(2) 0.1808(5) 0.3128(4)
C28 C 0.1634(2) 0.1457(5) 0.2435(4)
C29 C 0.1195(2) 0.1444(5) 0.1869(4)
H33 H 0.1153 0.1213 0.1404
C30 C 0.0811(2) 0.1757(5) 0.1954(4)
C31 C 0.0891(2) 0.2144(4) 0.2643(4)
H34 H 0.0646 0.2389 0.2714
C32 C 0.0341(3) 0.1733(7) 0.1282(5)
C33 C 0.0345(3) 0.2343(8) 0.0659(5)
H35 H 0.0064 0.2269 0.0218
H36 H 0.0597 0.2183 0.0547
H37 H 0.0375 0.2963 0.0821
C34 C 0.0244(4) 0.0761(8) 0.0975(6)
H38 H 0.0232 0.0364 0.1353
H39 H 0.0484 0.0566 0.0839
H40 H -0.0043 0.0744 0.0540
C35 C -0.0040(3) 0.2012(8) 0.1480(5)
H41 H -0.0003 0.2637 0.1628
H42 H -0.0034 0.1645 0.1888
H43 H -0.0327 0.1931 0.1052
C36 C 0.2025(2) 0.1094(5) 0.2274(4)
H44 H 0.2023 0.0437 0.2284
H45 H 0.2314 0.1302 0.2658
C37 C 0.1973(2) 0.1422(5) 0.1503(4)
C38 C 0.2074(2) 0.2322(5) 0.1435(4)
C39 C 0.1993(2) 0.2679(6) 0.0721(4)
C40 C 0.1798(2) 0.2132(6) 0.0097(4)
H46 H 0.1740 0.2374 -0.0372
C41 C 0.1683(2) 0.1218(5) 0.0142(4)
C42 C 0.1784(3) 0.0891(5) 0.0862(4)
H47 H 0.1721 0.0286 0.0914
C43 C 0.2111(2) 0.3640(6) 0.0682(4)
H48 H 0.2436 0.3734 0.0977
H49 H 0.2037 0.3806 0.0166
C44 C 0.1442(3) 0.0669(5) -0.0560(4)
C45 C 0.1725(7) -0.0129(10) -0.0425(10)
H50 H 0.2032 0.0048 -0.0317
H51 H 0.1608 -0.0508 -0.0863
H52 H 0.1721 -0.0457 -0.0006
C46 C 0.0987(6) 0.0505(15) -0.0566(9)
H53 H 0.0823 0.0066 -0.0945
H54 H 0.0817 0.1062 -0.0672
H55 H 0.1025 0.0281 -0.0084
C47 C 0.1425(6) 0.1204(10) -0.1235(7)
H56 H 0.1730 0.1298 -0.1188
H57 H 0.1281 0.1779 -0.1254
H58 H 0.1252 0.0872 -0.1687
O1 O 0.18530(16) 0.4189(4) 0.0972(2)
O2 O 0.21818(16) 0.4597(3) 0.2528(2)
H59 H 0.2130 0.4373 0.2866
O3 O 0.19694(15) 0.3763(3) 0.3565(2)
O4 O 0.21201(16) 0.1763(4) 0.3746(3)
O5 O 0.22530(18) 0.2849(4) 0.2067(3)
H60 H 0.2186 0.3381 0.1953
C48? C 0.1738(5) 0.0409(9) -0.0993(9)
H61? H 0.1862 0.0949 -0.1107
H62? H 0.1550 0.0102 -0.1451
H63? H 0.1984 0.0018 -0.0685
C49? C 0.1263(5) -0.0365(9) -0.0491(8)
H64? H 0.1513 -0.0708 -0.0133
H65? H 0.1151 -0.0657 -0.0972
H66? H 0.1022 -0.0328 -0.0328
C50? C 0.0991(6) 0.1091(12) -0.1161(9)
H67? H 0.0805 0.1304 -0.0920
H68? H 0.0826 0.0640 -0.1527
H69? H 0.1065 0.1588 -0.1404
loop_
_geom_bond_atom_site_label_1
_geom_bond_atom_site_label_2
_geom_bond_site_symmetry_1
_geom_bond_site_symmetry_2
C1 H1 1_555 1_555
H2 C1 1_555 1_555
C2 C1 1_555 1_555
C3 C2 1_555 1_555
C4 C3 1_555 1_555
C5 C4 1_555 1_555
H3 C5 1_555 1_555
C6 C5 1_555 1_555
C7 C2 1_555 1_555
H4 C7 1_555 1_555
C8 C6 1_555 1_555
C9 C8 1_555 1_555
H5 C9 1_555 1_555
H6 C9 1_555 1_555
H7 C9 1_555 1_555
C10 C8 1_555 1_555
H8 C10 1_555 1_555
H9 C10 1_555 1_555
H10 C10 1_555 1_555
C11 C8 1_555 1_555
H11 C11 1_555 1_555
H12 C11 1_555 1_555
H13 C11 1_555 1_555
C12 C4 1_555 1_555
H14 C12 1_555 1_555
H15 C12 1_555 1_555
C13 C12 1_555 1_555
C14 C13 1_555 1_555
C15 C14 1_555 1_555
C16 C15 1_555 1_555
H16 C16 1_555 1_555
C17 C16 1_555 1_555
C18 C13 1_555 1_555
H17 C18 1_555 1_555
C19 C17 1_555 1_555
C20 C19 1_555 1_555
H18 C20 1_555 1_555
H19 C20 1_555 1_555
H20 C20 1_555 1_555
C21 C19 1_555 1_555
H21 C21 1_555 1_555
H22 C21 1_555 1_555
H23 C21 1_555 1_555
C22 C19 1_555 1_555
H24 C22 1_555 1_555
H25 C22 1_555 1_555
H26 C22 1_555 1_555
C23 H27 1_555 1_555
H28 C23 1_555 1_555
C24 C23 1_555 1_555
H29 C24 1_555 1_555
H30 C24 1_555 1_555
C25 C15 1_555 1_555
H31 C25 1_555 1_555
H32 C25 1_555 1_555
C26 C25 1_555 1_555
C27 C26 1_555 1_555
C28 C27 1_555 1_555
C29 C28 1_555 1_555
H33 C29 1_555 1_555
C30 C29 1_555 1_555
C31 C26 1_555 1_555
H34 C31 1_555 1_555
C32 C30 1_555 1_555
C33 C32 1_555 1_555
H35 C33 1_555 1_555
H36 C33 1_555 1_555
H37 C33 1_555 1_555
C34 C32 1_555 1_555
H38 C34 1_555 1_555
H39 C34 1_555 1_555
H40 C34 1_555 1_555
C35 C32 1_555 1_555
H41 C35 1_555 1_555
H42 C35 1_555 1_555
H43 C35 1_555 1_555
C36 C28 1_555 1_555
H44 C36 1_555 1_555
H45 C36 1_555 1_555
C37 C36 1_555 1_555
C38 C37 1_555 1_555
C39 C38 1_555 1_555
C40 C39 1_555 1_555
H46 C40 1_555 1_555
C41 C40 1_555 1_555
C42 C37 1_555 1_555
H47 C42 1_555 1_555
C43 C39 1_555 1_555
H48 C43 1_555 1_555
H49 C43 1_555 1_555
C44 C41 1_555 1_555
C45 C44 1_555 1_555
H50 C45 1_555 1_555
H51 C45 1_555 1_555
H52 C45 1_555 1_555
C46 C44 1_555 1_555
H53 C46 1_555 1_555
H54 C46 1_555 1_555
H55 C46 1_555 1_555
C47 C44 1_555 1_555
H56 C47 1_555 1_555
H57 C47 1_555 1_555
H58 C47 1_555 1_555
O1 C1 1_555 1_555
O2 C3 1_555 1_555
H59 O2 1_555 1_555
O3 C14 1_555 1_555
O4 C24 1_555 1_555
O5 C38 1_555 1_555
H60 O5 1_555 1_555
C6 C7 1_555 1_555
C17 C18 1_555 1_555
C23 O3 1_555 1_555
C27 O4 1_555 1_555
C30 C31 1_555 1_555
C41 C42 1_555 1_555
C43 O1 1_555 1_555

#END
