
#######################################################################
#
#                 Cambridge Crystallographic Data Centre
#                                CCDC 
#
#######################################################################
#
# If this CIF has been generated from an entry in the Cambridge 
# Structural Database, then it will include bibliographic, chemical, 
# crystal, experimental, refinement or atomic coordinate data resulting 
# from the CCDC's data processing and validation procedures.
#
#######################################################################

data_MIHGAO
_chemical_formula_moiety         'C51 H66 Br2 O5'
_chemical_name_systematic        
33,34-bis(2-bromoethoxy)-3,9,17,23-tetra-t-butyl-13,27,30-trioxahexacyclo[23.6.1.1^7,11^.1^15,19^.0^5,31^.0^21,26^]tetratriaconta-1(31),2,4,7(34),8,10,15(33),16,18,21,23,25-dodecaene
_symmetry_cell_setting           orthorhombic
_symmetry_space_group_name_H-M   'P b c n'
_symmetry_Int_Tables_number      60
_space_group_name_Hall           '-P 2n 2ab'
loop_
_symmetry_equiv_pos_site_id
_symmetry_equiv_pos_as_xyz
1 x,y,z
2 1/2-x,1/2-y,1/2+z
3 -x,y,1/2-z
4 1/2+x,1/2-y,-z
5 -x,-y,-z
6 1/2+x,1/2+y,1/2-z
7 x,-y,1/2+z
8 1/2-x,1/2+y,z
_cell_length_a                   27.808(3)
_cell_length_b                   17.183(2)
_cell_length_c                   21.075(2)
_cell_angle_alpha                90
_cell_angle_beta                 90
_cell_angle_gamma                90
_cell_volume                     10070.2
_exptl_crystal_colour            colorless
_exptl_crystal_description       block
_cell_formula_units_Z            8
loop_
_atom_site_label
_atom_site_type_symbol
_atom_site_fract_x
_atom_site_fract_y
_atom_site_fract_z
Br1 Br 0.32438(2) 0.57032(3) 0.13987(2)
Br2 Br 0.22422(3) 0.53467(4) -0.00527(4)
C1 C 0.2469(2) 0.6383(3) -0.0248(7)
H1 H 0.274636 0.649906 0.001386
H2 H 0.257025 0.640059 -0.068830
C2 C 0.12886(16) 0.5339(2) 0.16410(17)
H3 H 0.159622 0.521790 0.144760
H4 H 0.105052 0.497555 0.148123
C3 C 0.13238(14) 0.5281(2) 0.23574(16)
C4 C 0.09876(14) 0.4853(2) 0.26859(17)
H5 H 0.076653 0.455636 0.245953
C5 C 0.09674(13) 0.4849(2) 0.33450(17)
C6 C 0.12889(14) 0.5329(2) 0.36566(17)
H6 H 0.127438 0.535078 0.409708
C7 C 0.16318(13) 0.5781(2) 0.33519(16)
C8 C 0.16596(13) 0.5715(2) 0.26929(16)
C9 C 0.23973(14) 0.5689(2) 0.21251(19)
H7 H 0.228153 0.525435 0.187391
H8 H 0.258863 0.548704 0.247309
C10 C 0.26890(15) 0.6226(2) 0.1726(2)
H9 H 0.278940 0.666946 0.197826
H10 H 0.249468 0.641679 0.137695
C11 C 0.05993(17) 0.4365(3) 0.3714(2)
C12 C 0.0310(4) 0.4861(7) 0.4154(6)
H11 H 0.012944 0.523409 0.391222
H12 H 0.052103 0.512865 0.444039
H13 H 0.009250 0.453889 0.439146
C13 C 0.0313(4) 0.3825(8) 0.3286(5)
H14 H 0.014897 0.344474 0.353927
H15 H 0.052710 0.356757 0.299672
H16 H 0.008178 0.412320 0.304992
C14 C 0.0898(3) 0.3761(6) 0.4134(4)
H17 H 0.108092 0.403913 0.444668
H18 H 0.111201 0.347165 0.386568
H19 H 0.068042 0.341012 0.434160
C15 C 0.19129(14) 0.6357(2) 0.37623(17)
H20 H 0.170853 0.680668 0.383054
H21 H 0.196210 0.611504 0.417309
C16 C 0.23970(14) 0.6653(2) 0.35354(15)
C17 C 0.24567(14) 0.7396(2) 0.32854(15)
C18 C 0.29026(14) 0.7645(2) 0.30748(16)
C19 C 0.32920(14) 0.7145(3) 0.31504(18)
H22 H 0.359259 0.730942 0.301066
C20 C 0.32533(16) 0.6417(3) 0.34234(18)
C21 C 0.27949(16) 0.6189(2) 0.36015(18)
H23 H 0.275506 0.569560 0.377485
C22 C 0.36954(18) 0.5900(3) 0.3536(2)
C23 C 0.4119(5) 0.6155(9) 0.3078(8)
H24 H 0.425391 0.663713 0.322357
H25 H 0.399674 0.622038 0.265548
H26 H 0.436416 0.576063 0.307712
C24 C 0.3824(6) 0.5893(12) 0.4178(6)
H27 H 0.394564 0.639511 0.429661
H28 H 0.406730 0.550627 0.424799
H29 H 0.354628 0.577266 0.443112
C25 C 0.3608(4) 0.5062(7) 0.3261(7)
H30 H 0.387564 0.473393 0.336706
H31 H 0.357591 0.509156 0.280859
H32 H 0.331923 0.484957 0.344080
C26 C 0.29645(15) 0.8430(2) 0.27513(17)
H33 H 0.270590 0.877364 0.288172
H34 H 0.326563 0.866143 0.288703
C27 C 0.17085(14) 0.7933(3) 0.28488(17)
H35 H 0.150415 0.838097 0.292318
H36 H 0.151458 0.747167 0.291988
C28 C 0.18579(13) 0.7941(2) 0.21725(17)
H37 H 0.205816 0.749000 0.208960
H38 H 0.157413 0.790024 0.190681
C29 C 0.29631(14) 0.8360(2) 0.20322(16)
C30 C 0.25455(13) 0.8478(2) 0.16790(17)
C31 C 0.25508(13) 0.8451(2) 0.10152(16)
C32 C 0.29797(14) 0.8259(2) 0.07216(18)
H39 H 0.298627 0.824034 0.028067
C33 C 0.34018(14) 0.8092(2) 0.10491(19)
C34 C 0.33833(14) 0.8170(2) 0.17078(18)
H40 H 0.366350 0.809135 0.194003
C35 C 0.38622(14) 0.7874(3) 0.0695(2)
C36 C 0.37615(17) 0.7259(3) 0.0181(2)
H41 H 0.362688 0.680269 0.037422
H42 H 0.405644 0.712553 -0.002923
H43 H 0.353824 0.746584 -0.012307
C37 C 0.40592(19) 0.8598(3) 0.0366(3)
H44 H 0.381781 0.881004 0.009021
H45 H 0.433808 0.846083 0.012195
H46 H 0.414580 0.897861 0.067940
C38 C 0.42454(17) 0.7542(4) 0.1141(3)
H47 H 0.433288 0.792818 0.144881
H48 H 0.452408 0.739655 0.089945
H49 H 0.411932 0.709192 0.135378
C39 C 0.21257(13) 0.8698(2) 0.06152(18)
H50 H 0.207392 0.924850 0.068965
H51 H 0.221851 0.864184 0.017383
C40 C 0.16500(13) 0.8296(2) 0.06972(16)
C41 C 0.12437(15) 0.8733(3) 0.08300(17)
H52 H 0.127652 0.927090 0.085110
C42 C 0.07976(16) 0.8423(3) 0.09319(19)
C43 C 0.07617(15) 0.7619(3) 0.09115(18)
H53 H 0.046487 0.738975 0.099050
C44 C 0.11522(15) 0.7145(2) 0.07775(16)
C45 C 0.15905(14) 0.7495(2) 0.06517(15)
C46 C 0.20971(18) 0.6983(3) -0.01419(19)
H54 H 0.221307 0.748418 -0.028936
H55 H 0.180933 0.685366 -0.037958
C47 C 0.03645(18) 0.8938(4) 0.1085(3)
C48 C 0.0489(5) 0.9858(8) 0.0925(8)
H56 H 0.062641 1.010062 0.129366
H57 H 0.019897 1.012547 0.080907
H58 H 0.071413 0.988300 0.058061
C49 C -0.0036(4) 0.8746(9) 0.0581(8)
H59 H -0.015763 0.823058 0.065377
H60 H 0.009830 0.877546 0.016190
H61 H -0.029418 0.911470 0.061867
C50 C 0.0239(6) 0.8912(11) 0.1732(7)
H62 H 0.052334 0.896849 0.198623
H63 H 0.008919 0.842128 0.182463
H64 H 0.001927 0.932657 0.182591
C51 C 0.11106(16) 0.6279(2) 0.08404(17)
H65 H 0.080262 0.610217 0.067960
H66 H 0.136424 0.602308 0.060348
O1 O 0.20041(9) 0.61353(14) 0.23607(11)
O2 O 0.20881(9) 0.79416(15) 0.33128(11)
O3 O 0.21204(9) 0.86372(14) 0.20012(11)
O4 O 0.19870(9) 0.70262(14) 0.05172(10)
O5 O 0.11527(11) 0.61103(17) 0.14983(11)
Br3? Br 0.2170(6) 0.5521(8) -0.0460(7)
C52? C 0.2511(12) 0.646(6) -0.029(18)
H67? H 0.272597 0.640105 0.007193
H68? H 0.269197 0.663424 -0.065433
Br4? Br 0.2560(7) 0.5457(9) -0.0062(7)
C53? C 0.2567(12) 0.6564(15) -0.006(7)
H69? H 0.270967 0.673499 0.033286
H70? H 0.277926 0.673246 -0.040206
C54? C 0.0088(5) 0.4711(11) 0.3536(8)
H71? H -0.015890 0.441540 0.374473
H72? H 0.004229 0.468380 0.308522
H73? H 0.007014 0.524414 0.367109
C55? C 0.0616(7) 0.3548(11) 0.3498(10)
H74? H 0.092015 0.332358 0.361180
H75? H 0.057777 0.353074 0.304549
H76? H 0.036140 0.325986 0.369590
C56? C 0.0639(6) 0.4426(13) 0.4418(7)
H77? H 0.037771 0.414851 0.461207
H78? H 0.062515 0.496359 0.454072
H79? H 0.093864 0.420550 0.455404
C57? C 0.3911(8) 0.5632(15) 0.3001(9)
H80? H 0.367132 0.553718 0.268245
H81? H 0.407807 0.515697 0.309377
H82? H 0.413521 0.601359 0.284917
C58? C 0.4069(7) 0.6401(12) 0.3977(10)
H83? H 0.432477 0.606876 0.411809
H84? H 0.390040 0.660526 0.433817
H85? H 0.419945 0.682250 0.373298
C59? C 0.3564(6) 0.5177(10) 0.3994(9)
H86? H 0.335781 0.482126 0.377102
H87? H 0.340174 0.536561 0.436514
H88? H 0.385376 0.491363 0.411658
C60? C 0.0310(6) 0.9531(12) 0.0612(9)
H89? H 0.060816 0.980679 0.056423
H90? H 0.006279 0.988769 0.074074
H91? H 0.022302 0.929590 0.021556
C61? C -0.0101(4) 0.8420(9) 0.1241(9)
H92? H -0.015076 0.805086 0.090483
H93? H -0.037743 0.875067 0.127674
H94? H -0.005217 0.814705 0.163301
C62? C 0.0492(6) 0.9343(10) 0.1763(8)
H95? H 0.052940 0.894789 0.208104
H96? H 0.023595 0.968807 0.188305
H97? H 0.078576 0.963299 0.172483
loop_
_geom_bond_atom_site_label_1
_geom_bond_atom_site_label_2
_geom_bond_site_symmetry_1
_geom_bond_site_symmetry_2
Br1 C10 1_555 1_555
Br2 C1 1_555 1_555
C1 H1 1_555 1_555
H2 C1 1_555 1_555
C2 H3 1_555 1_555
H4 C2 1_555 1_555
C3 C2 1_555 1_555
C4 C3 1_555 1_555
H5 C4 1_555 1_555
C5 C4 1_555 1_555
C6 C5 1_555 1_555
H6 C6 1_555 1_555
C7 C6 1_555 1_555
C8 C3 1_555 1_555
C9 H7 1_555 1_555
H8 C9 1_555 1_555
C10 C9 1_555 1_555
H9 C10 1_555 1_555
H10 C10 1_555 1_555
C11 C5 1_555 1_555
C12 C11 1_555 1_555
H11 C12 1_555 1_555
H12 C12 1_555 1_555
H13 C12 1_555 1_555
C13 C11 1_555 1_555
H14 C13 1_555 1_555
H15 C13 1_555 1_555
H16 C13 1_555 1_555
C14 C11 1_555 1_555
H17 C14 1_555 1_555
H18 C14 1_555 1_555
H19 C14 1_555 1_555
C15 C7 1_555 1_555
H20 C15 1_555 1_555
H21 C15 1_555 1_555
C16 C15 1_555 1_555
C17 C16 1_555 1_555
C18 C17 1_555 1_555
C19 C18 1_555 1_555
H22 C19 1_555 1_555
C20 C19 1_555 1_555
C21 C16 1_555 1_555
H23 C21 1_555 1_555
C22 C20 1_555 1_555
C23 C22 1_555 1_555
H24 C23 1_555 1_555
H25 C23 1_555 1_555
H26 C23 1_555 1_555
C24 C22 1_555 1_555
H27 C24 1_555 1_555
H28 C24 1_555 1_555
H29 C24 1_555 1_555
C25 C22 1_555 1_555
H30 C25 1_555 1_555
H31 C25 1_555 1_555
H32 C25 1_555 1_555
C26 C18 1_555 1_555
H33 C26 1_555 1_555
H34 C26 1_555 1_555
C27 H35 1_555 1_555
H36 C27 1_555 1_555
C28 C27 1_555 1_555
H37 C28 1_555 1_555
H38 C28 1_555 1_555
C29 C26 1_555 1_555
C30 C29 1_555 1_555
C31 C30 1_555 1_555
C32 C31 1_555 1_555
H39 C32 1_555 1_555
C33 C32 1_555 1_555
C34 C29 1_555 1_555
H40 C34 1_555 1_555
C35 C33 1_555 1_555
C36 C35 1_555 1_555
H41 C36 1_555 1_555
H42 C36 1_555 1_555
H43 C36 1_555 1_555
C37 C35 1_555 1_555
H44 C37 1_555 1_555
H45 C37 1_555 1_555
H46 C37 1_555 1_555
C38 C35 1_555 1_555
H47 C38 1_555 1_555
H48 C38 1_555 1_555
H49 C38 1_555 1_555
C39 C31 1_555 1_555
H50 C39 1_555 1_555
H51 C39 1_555 1_555
C40 C39 1_555 1_555
C41 C40 1_555 1_555
H52 C41 1_555 1_555
C42 C41 1_555 1_555
C43 C42 1_555 1_555
H53 C43 1_555 1_555
C44 C43 1_555 1_555
C45 C40 1_555 1_555
C46 C1 1_555 1_555
H54 C46 1_555 1_555
H55 C46 1_555 1_555
C47 C42 1_555 1_555
C48 C47 1_555 1_555
H56 C48 1_555 1_555
H57 C48 1_555 1_555
H58 C48 1_555 1_555
C49 C47 1_555 1_555
H59 C49 1_555 1_555
H60 C49 1_555 1_555
H61 C49 1_555 1_555
C50 C47 1_555 1_555
H62 C50 1_555 1_555
H63 C50 1_555 1_555
H64 C50 1_555 1_555
C51 C44 1_555 1_555
H65 C51 1_555 1_555
H66 C51 1_555 1_555
O1 C8 1_555 1_555
O2 C17 1_555 1_555
O3 C28 1_555 1_555
O4 C45 1_555 1_555
O5 C2 1_555 1_555
C7 C8 1_555 1_555
C9 O1 1_555 1_555
C20 C21 1_555 1_555
C27 O2 1_555 1_555
C30 O3 1_555 1_555
C33 C34 1_555 1_555
C44 C45 1_555 1_555
C46 O4 1_555 1_555
C51 O5 1_555 1_555

#END
