
#######################################################################
#
#                 Cambridge Crystallographic Data Centre
#                                CCDC 
#
#######################################################################
#
# If this CIF has been generated from an entry in the Cambridge 
# Structural Database, then it will include bibliographic, chemical, 
# crystal, experimental, refinement or atomic coordinate data resulting 
# from the CCDC's data processing and validation procedures.
#
#######################################################################

data_MIHKIY
_chemical_formula_moiety         'C11 H9 N5,H2 O1'
_chemical_name_systematic        '2,6-bis(Imidazol-1-yl)pyridine monohydrate'
_symmetry_cell_setting           monoclinic
_symmetry_space_group_name_H-M   'P 21/c'
_symmetry_Int_Tables_number      14
_space_group_name_Hall           '-P 2ybc'
loop_
_symmetry_equiv_pos_site_id
_symmetry_equiv_pos_as_xyz
1 x,y,z
2 -x,1/2+y,1/2-z
3 -x,-y,-z
4 x,1/2-y,1/2+z
_cell_length_a                   3.7728(6)
_cell_length_b                   15.486(3)
_cell_length_c                   18.834(3)
_cell_angle_alpha                90
_cell_angle_beta                 95.665(5)
_cell_angle_gamma                90
_cell_volume                     1095.01
_exptl_crystal_colour            colorless
_exptl_crystal_description       needle
_cell_formula_units_Z            4
loop_
_atom_site_label
_atom_site_type_symbol
_atom_site_fract_x
_atom_site_fract_y
_atom_site_fract_z
C1 C 0.2501(6) 0.60076(13) 0.21591(9)
C2 C 0.4991(6) 0.47997(13) 0.24877(10)
C3 C 0.5056(6) 0.52841(12) 0.30830(10)
C4 C 0.5958(6) 0.77253(13) 0.57223(10)
C5 C 0.7317(6) 0.64037(12) 0.54117(10)
C6 C 0.8497(6) 0.65572(13) 0.61027(10)
C7 C 0.4044(5) 0.73054(11) 0.44590(9)
C8 C 0.2319(5) 0.80796(11) 0.42759(9)
C9 C 0.0862(6) 0.81721(12) 0.35735(10)
C10 C 0.1165(5) 0.75077(12) 0.30865(9)
C11 C 0.2951(5) 0.67709(11) 0.33373(9)
H1 H 0.129(7) 0.6516(15) 0.1894(11)
H2 H 0.584(8) 0.4256(19) 0.2454(14)
H3 H 0.600(7) 0.5187(16) 0.3577(12)
H4 H 0.491(7) 0.8285(15) 0.5714(11)
H5 H 0.724(7) 0.5888(15) 0.5124(11)
H6 H 0.980(7) 0.6189(16) 0.6440(12)
H7 H 0.215(7) 0.8550(14) 0.4606(11)
H8 H -0.039(7) 0.8733(15) 0.3426(12)
H9 H 0.022(6) 0.7562(13) 0.2619(12)
N1 N 0.3458(4) 0.60629(9) 0.28786(7)
N2 N 0.3385(5) 0.52528(11) 0.19075(8)
N3 N 0.7645(5) 0.73863(11) 0.62986(8)
N4 N 0.5664(4) 0.71572(9) 0.51610(7)
N5 N 0.4361(4) 0.66557(9) 0.40064(7)
H10 H 0.2695 0.5184 0.0966
H11 H 0.0686 0.4859 0.0221
O1 O 0.2745(13) 0.52375(15) 0.04143(10)
loop_
_geom_bond_atom_site_label_1
_geom_bond_atom_site_label_2
_geom_bond_site_symmetry_1
_geom_bond_site_symmetry_2
C1 H1 1_555 1_555
C2 C3 1_555 1_555
C3 H3 1_555 1_555
C4 H4 1_555 1_555
C5 C6 1_555 1_555
C6 H6 1_555 1_555
C7 C8 1_555 1_555
C8 C9 1_555 1_555
C9 C10 1_555 1_555
C10 C11 1_555 1_555
C11 N1 1_555 1_555
H2 C2 1_555 1_555
H5 C5 1_555 1_555
H7 C8 1_555 1_555
H8 C9 1_555 1_555
H9 C10 1_555 1_555
H10 O1 1_555 1_555
H11 O1 1_555 1_555
N1 C1 1_555 1_555
N2 C1 1_555 1_555
N3 C4 1_555 1_555
N4 C4 1_555 1_555
N5 C7 1_555 1_555
C2 N2 1_555 1_555
C3 N1 1_555 1_555
C5 N4 1_555 1_555
C6 N3 1_555 1_555
C7 N4 1_555 1_555
C11 N5 1_555 1_555

#END
