
#######################################################################
#
#                 Cambridge Crystallographic Data Centre
#                                CCDC 
#
#######################################################################
#
# If this CIF has been generated from an entry in the Cambridge 
# Structural Database, then it will include bibliographic, chemical, 
# crystal, experimental, refinement or atomic coordinate data resulting 
# from the CCDC's data processing and validation procedures.
#
#######################################################################

data_MIHRUT
_chemical_formula_moiety         'C17 H16 N4'
_chemical_name_systematic        N,N-bis(pyridin-2-ylmethyl)pyridin-3-amine
_symmetry_cell_setting           triclinic
_symmetry_space_group_name_H-M   'P -1'
_symmetry_Int_Tables_number      2
_space_group_name_Hall           '-P 1'
loop_
_symmetry_equiv_pos_site_id
_symmetry_equiv_pos_as_xyz
1 x,y,z
2 -x,-y,-z
_cell_length_a                   6.2091(5)
_cell_length_b                   9.9240(7)
_cell_length_c                   11.7860(9)
_cell_angle_alpha                90.1340(10)
_cell_angle_beta                 102.2270(10)
_cell_angle_gamma                97.2670(10)
_cell_volume                     703.75
_exptl_crystal_colour            colorless
_exptl_crystal_description       block
_cell_formula_units_Z            2
loop_
_atom_site_label
_atom_site_type_symbol
_atom_site_fract_x
_atom_site_fract_y
_atom_site_fract_z
N1 N 0.06709(15) 0.86494(9) 0.82910(8)
N2 N -0.33122(17) 1.08043(11) 0.70316(10)
N3 N 0.57265(16) 0.77050(10) 1.02010(9)
N4 N -0.35542(17) 0.63666(10) 0.62784(9)
C1 C -0.06060(19) 0.97554(11) 0.84120(10)
H1 H 0.0276 1.0403 0.9028
H2 H -0.1979 0.9381 0.8664
C2 C -0.12371(18) 1.05193(11) 0.73030(9)
C3 C 0.0301(2) 1.08962(13) 0.66266(11)
H3 H 0.1778 1.0682 0.6852
C4 C -0.0342(2) 1.15868(13) 0.56205(11)
H4 H 0.0682 1.1850 0.5141
C5 C -0.2479(2) 1.18860(13) 0.53260(11)
H5 H -0.2975 1.2356 0.4638
C6 C -0.3886(2) 1.14866(15) 0.60542(13)
H6 H -0.5361 1.1708 0.5853
C7 C 0.30049(18) 0.87693(12) 0.88620(10)
H7 H 0.3466 0.9697 0.9210
H8 H 0.3888 0.8657 0.8268
C8 C 0.35582(18) 0.77508(11) 0.98025(10)
C9 C 0.1929(2) 0.69437(13) 1.02290(10)
H9 H 0.0399 0.6997 0.9924
C10 C 0.2572(2) 0.60627(13) 1.11034(11)
H10 H 0.1489 0.5497 1.1406
C11 C 0.4801(2) 0.60136(13) 1.15312(11)
H11 H 0.5289 0.5421 1.2136
C12 C 0.6304(2) 0.68481(14) 1.10575(11)
H12 H 0.7842 0.6815 1.1355
C13 C -0.02620(18) 0.75638(11) 0.75404(9)
C14 C 0.09684(19) 0.65650(12) 0.72686(10)
H13 H 0.2510 0.6615 0.7604
C15 C -0.0087(2) 0.55040(12) 0.65065(10)
H14 H 0.0733 0.4825 0.6311
C16 C -0.2325(2) 0.54347(13) 0.60321(11)
H15 H -0.3023 0.4699 0.5511
C17 C -0.25405(19) 0.73953(12) 0.70055(10)
H16 H -0.3412 0.8060 0.7175
loop_
_geom_bond_atom_site_label_1
_geom_bond_atom_site_label_2
_geom_bond_site_symmetry_1
_geom_bond_site_symmetry_2
N1 C1 1_555 1_555
N2 C2 1_555 1_555
N3 C8 1_555 1_555
N4 C16 1_555 1_555
C1 H1 1_555 1_555
H2 C1 1_555 1_555
C2 C1 1_555 1_555
C3 C2 1_555 1_555
H3 C3 1_555 1_555
C4 C3 1_555 1_555
H4 C4 1_555 1_555
C5 C4 1_555 1_555
H5 C5 1_555 1_555
C6 N2 1_555 1_555
H6 C6 1_555 1_555
C7 N1 1_555 1_555
H7 C7 1_555 1_555
H8 C7 1_555 1_555
C8 C7 1_555 1_555
C9 C8 1_555 1_555
H9 C9 1_555 1_555
C10 C9 1_555 1_555
H10 C10 1_555 1_555
C11 C10 1_555 1_555
H11 C11 1_555 1_555
C12 N3 1_555 1_555
H12 C12 1_555 1_555
C13 N1 1_555 1_555
C14 C13 1_555 1_555
H13 C14 1_555 1_555
C15 C14 1_555 1_555
H14 C15 1_555 1_555
C16 C15 1_555 1_555
H15 C16 1_555 1_555
C17 N4 1_555 1_555
H16 C17 1_555 1_555
C5 C6 1_555 1_555
C11 C12 1_555 1_555
C13 C17 1_555 1_555

#END
