
#######################################################################
#
#                 Cambridge Crystallographic Data Centre
#                                CCDC 
#
#######################################################################
#
# If this CIF has been generated from an entry in the Cambridge 
# Structural Database, then it will include bibliographic, chemical, 
# crystal, experimental, refinement or atomic coordinate data resulting 
# from the CCDC's data processing and validation procedures.
#
#######################################################################

data_MIJBAJ
_chemical_formula_moiety         'C18 H24 N2 O3'
_chemical_name_systematic        
1-methyl-2-(\a-methylbutyryl)-1-cyano-6,7-dimethoxy-1,2,3,4-tetrahydroisoquinoline
_symmetry_cell_setting           orthorhombic
_symmetry_space_group_name_H-M   'P 21 21 21'
_symmetry_Int_Tables_number      19
_space_group_name_Hall           'P 2ac 2ab'
loop_
_symmetry_equiv_pos_site_id
_symmetry_equiv_pos_as_xyz
1 x,y,z
2 1/2-x,-y,1/2+z
3 1/2+x,1/2-y,-z
4 -x,1/2+y,1/2-z
_cell_length_a                   13.4677(17)
_cell_length_b                   14.3805(15)
_cell_length_c                   17.864(2)
_cell_angle_alpha                90
_cell_angle_beta                 90
_cell_angle_gamma                90
_cell_volume                     3459.76
_exptl_crystal_colour            colorless
_exptl_crystal_description       prism
_chemical_melting_point          '139-142 deg.C'
_cell_formula_units_Z            8
_exptl_crystal_recrystallization_method ethanol
loop_
_atom_site_label
_atom_site_type_symbol
_atom_site_fract_x
_atom_site_fract_y
_atom_site_fract_z
C1 C 0.44530(17) -0.13795(16) -0.13671(12)
C2 C 0.42742(17) -0.11390(15) -0.05655(14)
C3 C 0.31910(19) -0.23549(17) -0.20856(13)
H1 H 0.2554 -0.2139 -0.187
H2 H 0.3107 -0.3011 -0.2241
C4 C 0.3449(2) -0.17683(16) -0.27609(14)
H3 H 0.4071 -0.1999 -0.2991
H4 H 0.2913 -0.1813 -0.3138
C5 C 0.32577(17) -0.00368(15) -0.29677(12)
H5 H 0.2957 -0.0163 -0.3438
C6 C 0.33685(17) 0.08735(16) -0.27378(12)
C7 C 0.38038(16) 0.10593(15) -0.20368(12)
C8 C 0.41179(16) 0.03293(15) -0.15945(12)
H6 H 0.4413 0.0453 -0.1122
C9 C 0.40063(17) -0.05898(15) -0.18346(12)
C10 C 0.35777(17) -0.07736(16) -0.25234(12)
C11 C 0.2766(2) 0.14703(18) -0.38895(13)
H7 H 0.3299 0.1164 -0.417
H8 H 0.2601 0.2063 -0.413
H9 H 0.2178 0.1069 -0.3884
C12 C 0.4312(2) 0.21871(16) -0.11339(12)
H10 H 0.3908 0.191 -0.0736
H11 H 0.434 0.2863 -0.1065
H12 H 0.4986 0.1931 -0.1113
C13 C 0.55776(17) -0.14121(17) -0.15296(14)
H13 H 0.5889 -0.1888 -0.1215
H14 H 0.5873 -0.0805 -0.1419
H15 H 0.5685 -0.1564 -0.2058
C14 C 0.42053(18) -0.30121(16) -0.10388(12)
C15 C 0.36244(17) -0.39279(16) -0.11129(12)
H16 H 0.2942 -0.3785 -0.1301
C16 C 0.3538(2) -0.43883(17) -0.03530(13)
H17 H 0.4212 -0.45 -0.0151
H18 H 0.3208 -0.4999 -0.0411
C17 C 0.2948(3) -0.3795(2) 0.02056(15)
H19 H 0.3276 -0.3192 0.0269
H20 H 0.2917 -0.4116 0.0689
H21 H 0.2273 -0.3698 0.0015
C18 C 0.4139(2) -0.45708(18) -0.16715(15)
H22 H 0.4806 -0.4722 -0.1489
H23 H 0.4189 -0.4259 -0.2158
H24 H 0.3753 -0.5144 -0.1726
N1 N 0.40917(15) -0.08875(14) 0.00265(11)
N2 N 0.39759(14) -0.22927(13) -0.15149(10)
O1 O 0.48511(12) -0.29244(11) -0.05624(9)
O2 O 0.30873(12) 0.16370(11) -0.31388(8)
O3 O 0.38780(12) 0.19791(10) -0.18474(8)
C19 C -0.07126(18) -0.11490(14) -0.39244(12)
C20 C -0.10013(17) -0.08112(16) -0.46824(13)
C21 C -0.13743(18) -0.22606(16) -0.29790(12)
H25 H -0.0726 -0.2275 -0.2718
H26 H -0.1684 -0.2882 -0.2928
C22 C -0.20340(18) -0.15375(16) -0.26222(12)
H27 H -0.2709 -0.1578 -0.284
H28 H -0.2086 -0.1659 -0.2078
C23 C -0.18243(17) 0.01400(16) -0.22377(12)
H29 H -0.2219 0.0011 -0.1809
C24 C -0.14647(16) 0.10256(16) -0.23421(12)
C25 C -0.09129(16) 0.12262(15) -0.29921(12)
C26 C -0.06959(17) 0.05209(15) -0.34895(12)
H30 H -0.0311 0.0653 -0.3922
C27 C -0.10359(16) -0.03920(15) -0.33653(12)
C28 C -0.16243(17) -0.05787(16) -0.27468(12)
C29 C -0.21321(19) 0.15510(17) -0.11839(12)
H31 H -0.2805 0.1346 -0.1313
H32 H -0.217 0.2112 -0.0873
H33 H -0.1792 0.1057 -0.0906
C30 C -0.0128(2) 0.23660(17) -0.37591(14)
H34 H 0.0492 0.2011 -0.3788
H35 H 0.0022 0.3033 -0.3766
H36 H -0.055 0.221 -0.4188
C31 C 0.04291(17) -0.12707(16) -0.38964(13)
H37 H 0.0635 -0.1723 -0.4276
H38 H 0.0625 -0.1494 -0.34
H39 H 0.075 -0.0672 -0.3996
C32 C -0.11493(18) -0.27202(16) -0.43165(13)
C33 C -0.15470(17) -0.36946(15) -0.41485(12)
H40 H -0.2122 -0.3642 -0.3797
C34 C -0.0713(2) -0.42545(16) -0.37642(14)
H41 H -0.0184 -0.4382 -0.4135
H42 H -0.042 -0.3871 -0.336
C35 C -0.1063(2) -0.51694(19) -0.34336(17)
H43 H -0.1626 -0.5056 -0.3099
H44 H -0.0519 -0.5455 -0.315
H45 H -0.1268 -0.5588 -0.3838
C36 C -0.1897(2) -0.41560(18) -0.48700(13)
H46 H -0.2391 -0.3759 -0.5115
H47 H -0.2195 -0.4761 -0.4754
H48 H -0.1329 -0.4245 -0.5206
N3 N -0.11956(15) -0.04601(14) -0.52411(11)
N4 N -0.12197(14) -0.20504(13) -0.37740(10)
O4 O -0.07793(14) -0.25549(11) -0.49287(9)
O5 O -0.15912(11) 0.17528(10) -0.18556(8)
O6 O -0.06364(12) 0.21377(10) -0.30791(8)
loop_
_geom_bond_atom_site_label_1
_geom_bond_atom_site_label_2
_geom_bond_site_symmetry_1
_geom_bond_site_symmetry_2
C1 C2 1_555 1_555
C2 N1 1_555 1_555
C3 H1 1_555 1_555
H2 C3 1_555 1_555
C4 C3 1_555 1_555
H3 C4 1_555 1_555
H4 C4 1_555 1_555
C5 H5 1_555 1_555
C6 C5 1_555 1_555
C7 C6 1_555 1_555
C8 C7 1_555 1_555
H6 C8 1_555 1_555
C9 C1 1_555 1_555
C10 C4 1_555 1_555
C11 H7 1_555 1_555
H8 C11 1_555 1_555
H9 C11 1_555 1_555
C12 H10 1_555 1_555
H11 C12 1_555 1_555
H12 C12 1_555 1_555
C13 C1 1_555 1_555
H13 C13 1_555 1_555
H14 C13 1_555 1_555
H15 C13 1_555 1_555
C14 C15 1_555 1_555
C15 H16 1_555 1_555
C16 C15 1_555 1_555
H17 C16 1_555 1_555
H18 C16 1_555 1_555
C17 C16 1_555 1_555
H19 C17 1_555 1_555
H20 C17 1_555 1_555
H21 C17 1_555 1_555
C18 C15 1_555 1_555
H22 C18 1_555 1_555
H23 C18 1_555 1_555
H24 C18 1_555 1_555
C19 C20 1_555 1_555
C20 N3 1_555 1_555
C21 H25 1_555 1_555
H26 C21 1_555 1_555
C22 C21 1_555 1_555
H27 C22 1_555 1_555
H28 C22 1_555 1_555
C23 H29 1_555 1_555
C24 C23 1_555 1_555
C25 C24 1_555 1_555
C26 C25 1_555 1_555
H30 C26 1_555 1_555
C27 C19 1_555 1_555
C28 C22 1_555 1_555
C29 H31 1_555 1_555
H32 C29 1_555 1_555
H33 C29 1_555 1_555
C30 H34 1_555 1_555
H35 C30 1_555 1_555
H36 C30 1_555 1_555
C31 C19 1_555 1_555
H37 C31 1_555 1_555
H38 C31 1_555 1_555
H39 C31 1_555 1_555
C32 C33 1_555 1_555
C33 H40 1_555 1_555
C34 C33 1_555 1_555
H41 C34 1_555 1_555
H42 C34 1_555 1_555
C35 C34 1_555 1_555
H43 C35 1_555 1_555
H44 C35 1_555 1_555
H45 C35 1_555 1_555
C36 C33 1_555 1_555
H46 C36 1_555 1_555
H47 C36 1_555 1_555
H48 C36 1_555 1_555
N2 C1 1_555 1_555
N4 C19 1_555 1_555
O1 C14 1_555 1_555
O2 C6 1_555 1_555
O3 C7 1_555 1_555
O4 C32 1_555 1_555
O5 C24 1_555 1_555
O6 C25 1_555 1_555
C3 N2 1_555 1_555
C5 C10 1_555 1_555
C8 C9 1_555 1_555
C9 C10 1_555 1_555
C11 O2 1_555 1_555
C12 O3 1_555 1_555
C14 N2 1_555 1_555
C21 N4 1_555 1_555
C23 C28 1_555 1_555
C26 C27 1_555 1_555
C27 C28 1_555 1_555
C29 O5 1_555 1_555
C30 O6 1_555 1_555
C32 N4 1_555 1_555

#END
