
#######################################################################
#
#                 Cambridge Crystallographic Data Centre
#                                CCDC 
#
#######################################################################
#
# If this CIF has been generated from an entry in the Cambridge 
# Structural Database, then it will include bibliographic, chemical, 
# crystal, experimental, refinement or atomic coordinate data resulting 
# from the CCDC's data processing and validation procedures.
#
#######################################################################

data_MIJDOA
_chemical_formula_moiety         'C23 H16 Br1 F3 N2 O4'
_chemical_name_systematic        
"Ethyl 1'-benzyl-7'-bromo-4-cyano-2'-oxo-2-(trifluoromethyl)-1',2'-dihydrospiro[furan-3,3'-indole]-2-carboxylate"
_symmetry_cell_setting           orthorhombic
_symmetry_space_group_name_H-M   'P 21 21 21'
_symmetry_Int_Tables_number      19
_space_group_name_Hall           'P 2ac 2ab'
loop_
_symmetry_equiv_pos_site_id
_symmetry_equiv_pos_as_xyz
1 x,y,z
2 1/2-x,-y,1/2+z
3 -x,1/2+y,1/2-z
4 1/2+x,1/2-y,-z
_cell_length_a                   8.0616(16)
_cell_length_b                   10.147(2)
_cell_length_c                   26.551(5)
_cell_angle_alpha                90
_cell_angle_beta                 90
_cell_angle_gamma                90
_cell_volume                     2171.9
_exptl_crystal_colour            colorless
_exptl_crystal_description       block
_cell_formula_units_Z            4
loop_
_atom_site_label
_atom_site_type_symbol
_atom_site_fract_x
_atom_site_fract_y
_atom_site_fract_z
Br1 Br 0.74688(4) 0.81553(2) 0.133963(12)
F1 F 0.9775(2) 0.07549(17) 0.22660(7)
F2 F 1.18556(19) 0.14446(16) 0.18280(6)
F3 F 1.04856(19) 0.28010(16) 0.22980(6)
O1 O 0.9304(2) 0.08785(17) 0.12412(7)
O2 O 1.2259(2) 0.40643(18) 0.15084(7)
O3 O 0.6325(2) 0.12654(19) 0.16164(8)
O4 O 0.71467(19) 0.30329(17) 0.20685(7)
N1 N 1.1513(4) 0.3785(3) 0.00046(10)
N2 N 1.0037(2) 0.5468(2) 0.14343(7)
C1 C 1.0345(3) 0.1773(3) 0.19896(10)
C2 C 0.9147(3) 0.2028(2) 0.15515(9)
C3 C 0.9990(3) 0.1234(3) 0.07962(10)
H1 H 1.0270 0.0617 0.0541
C4 C 1.0237(3) 0.2519(2) 0.07469(9)
C5 C 0.9560(3) 0.3250(2) 0.12044(8)
C6 C 1.0943(3) 0.3187(3) 0.03277(10)
C7 C 1.0807(3) 0.4264(2) 0.14134(9)
C8 C 0.8423(3) 0.5413(2) 0.12261(8)
C9 C 0.7225(3) 0.6364(2) 0.11506(9)
C10 C 0.5739(3) 0.6019(3) 0.09156(10)
H2 H 0.4919 0.6676 0.0860
C11 C 0.5438(3) 0.4741(3) 0.07622(10)
H3 H 0.4418 0.4524 0.0603
C12 C 0.6631(3) 0.3769(2) 0.08410(9)
H4 H 0.6439 0.2887 0.0735
C13 C 0.8094(3) 0.4111(2) 0.10751(9)
C14 C 1.0995(3) 0.6638(2) 0.15739(9)
H5 H 1.1924 0.6362 0.1794
H6 H 1.0275 0.7233 0.1773
C15 C 1.1695(3) 0.7400(2) 0.11322(9)
C16 C 1.1534(3) 0.6988(3) 0.06375(10)
H7 H 1.0930 0.6208 0.0563
C17 C 1.2250(4) 0.7710(3) 0.02501(11)
H8 H 1.2133 0.7422 -0.0089
C18 C 1.3131(4) 0.8841(3) 0.03549(13)
H9 H 1.3619 0.9331 0.0089
C19 C 1.3303(3) 0.9261(3) 0.08432(13)
H10 H 1.3919 1.0037 0.0914
C20 C 1.2576(3) 0.8552(2) 0.12368(10)
H11 H 1.2682 0.8852 0.1574
C21 C 0.7343(3) 0.2046(2) 0.17489(9)
C22 C 0.5438(3) 0.3250(3) 0.22476(12)
H12 H 0.5231 0.2729 0.2557
H13 H 0.4632 0.2973 0.1987
C23 C 0.5254(4) 0.4683(3) 0.23552(12)
H14 H 0.5364 0.5183 0.2041
H15 H 0.6117 0.4961 0.2592
H16 H 0.4159 0.4848 0.2503
loop_
_geom_bond_atom_site_label_1
_geom_bond_atom_site_label_2
_geom_bond_site_symmetry_1
_geom_bond_site_symmetry_2
Br1 C9 1_555 1_555
F1 C1 1_555 1_555
F2 C1 1_555 1_555
F3 C1 1_555 1_555
O1 C2 1_555 1_555
O2 C7 1_555 1_555
O3 C21 1_555 1_555
O4 C21 1_555 1_555
N1 C6 1_555 1_555
N2 C7 1_555 1_555
C1 C2 1_555 1_555
C2 C5 1_555 1_555
C3 O1 1_555 1_555
H1 C3 1_555 1_555
C4 C3 1_555 1_555
C5 C4 1_555 1_555
C6 C4 1_555 1_555
C7 C5 1_555 1_555
C8 N2 1_555 1_555
C9 C8 1_555 1_555
C10 C9 1_555 1_555
H2 C10 1_555 1_555
C11 C10 1_555 1_555
H3 C11 1_555 1_555
C12 C11 1_555 1_555
H4 C12 1_555 1_555
C13 C5 1_555 1_555
C14 N2 1_555 1_555
H5 C14 1_555 1_555
H6 C14 1_555 1_555
C15 C14 1_555 1_555
C16 C15 1_555 1_555
H7 C16 1_555 1_555
C17 C16 1_555 1_555
H8 C17 1_555 1_555
C18 C17 1_555 1_555
H9 C18 1_555 1_555
C19 C18 1_555 1_555
H10 C19 1_555 1_555
C20 C15 1_555 1_555
H11 C20 1_555 1_555
C21 C2 1_555 1_555
C22 O4 1_555 1_555
H12 C22 1_555 1_555
H13 C22 1_555 1_555
C23 C22 1_555 1_555
H14 C23 1_555 1_555
H15 C23 1_555 1_555
H16 C23 1_555 1_555
C8 C13 1_555 1_555
C12 C13 1_555 1_555
C19 C20 1_555 1_555

#END
