
#######################################################################
#
#                 Cambridge Crystallographic Data Centre
#                                CCDC 
#
#######################################################################
#
# If this CIF has been generated from an entry in the Cambridge 
# Structural Database, then it will include bibliographic, chemical, 
# crystal, experimental, refinement or atomic coordinate data resulting 
# from the CCDC's data processing and validation procedures.
#
#######################################################################

data_MIJQEE
_chemical_formula_moiety         'C28 H32 Cl4 F6'
_chemical_name_systematic        
1,1'-(2,2,7,7-tetrachloro-1,1,1,8,8,8-hexafluorooctane-4,5-diyl)bis(4-t-butylbenzene)
_symmetry_cell_setting           monoclinic
_symmetry_space_group_name_H-M   'C 2/c'
_symmetry_Int_Tables_number      15
_space_group_name_Hall           '-C 2yn'
loop_
_symmetry_equiv_pos_site_id
_symmetry_equiv_pos_as_xyz
1 x,y,z
2 -x,y,1/2-z
3 1/2+x,1/2+y,z
4 1/2-x,1/2+y,1/2-z
5 -x,-y,-z
6 x,-y,1/2+z
7 1/2-x,1/2-y,-z
8 1/2+x,1/2-y,1/2+z
_cell_length_a                   36.703(6)
_cell_length_b                   8.7686(14)
_cell_length_c                   19.113(3)
_cell_angle_alpha                90
_cell_angle_beta                 91.566(3)
_cell_angle_gamma                90
_cell_volume                     6148.91
_exptl_crystal_description       block
_cell_formula_units_Z            8
loop_
_atom_site_label
_atom_site_type_symbol
_atom_site_fract_x
_atom_site_fract_y
_atom_site_fract_z
Cl1 Cl 0.58880(6) 1.24615(19) 0.61181(14)
Cl2 Cl 0.67981(7) 1.2005(2) 0.50198(16)
Cl3 Cl 0.66945(11) 1.0432(4) 0.37706(16)
F1 F 0.5217(3) 0.9666(10) 0.6946(6)
F2 F 0.5250(3) 1.2120(10) 0.6996(5)
F3 F 0.5154(3) 1.1055(12) 0.5979(6)
C1 C 0.5332(3) 1.0909(13) 0.6615(7)
Cl4 Cl 0.59188(15) 1.0511(6) 0.73295(17)
C2 C 0.7287(4) 1.0036(13) 0.4458(6)
C3 C 0.57036(18) 1.0737(6) 0.6399(4)
C4 C 0.58369(16) 0.9427(7) 0.6040(4)
H1 H 0.571096 0.939346 0.558735
H2 H 0.575816 0.853868 0.629778
C5 C 0.67111(15) 0.8931(6) 0.4964(3)
H3 H 0.683921 0.861608 0.539040
H4 H 0.674388 0.811882 0.462654
C6 C 0.69058(18) 1.0247(6) 0.4702(4)
C7 C 0.54977(18) 0.3977(6) 0.3751(3)
C8 C 0.5098(2) 0.3948(11) 0.3943(7)
H5 H 0.499210 0.493321 0.385741
H6 H 0.507935 0.369453 0.442924
H7 H 0.497135 0.319770 0.366341
C9 C 0.5511(3) 0.4288(12) 0.2963(6)
H8 H 0.535333 0.358450 0.271599
H9 H 0.575600 0.416124 0.280973
H10 H 0.543143 0.531230 0.286822
C10 C 0.5672(3) 0.2485(9) 0.3886(6)
H11 H 0.564717 0.221558 0.436884
H12 H 0.592612 0.254571 0.378090
H13 H 0.555685 0.172278 0.359495
C11 C 0.69092(18) 0.4381(8) 0.7665(4)
C12 C 0.6936(3) 0.2869(10) 0.7278(5)
H14 H 0.700963 0.305241 0.680705
H15 H 0.670314 0.237167 0.726958
H16 H 0.711308 0.222895 0.751292
C13 C 0.7306(2) 0.4722(14) 0.7869(7)
H17 H 0.735384 0.440361 0.834368
H18 H 0.734992 0.579683 0.782951
H19 H 0.746337 0.417843 0.756336
C14 C 0.6674(4) 0.4214(18) 0.8260(7)
H20 H 0.647819 0.493505 0.822165
H21 H 0.681302 0.439777 0.868517
H22 H 0.657708 0.319797 0.826702
C15 C 0.6236(2) 0.9217(8) 0.5909(5)
H23 H 0.635530 1.017748 0.604367
C16 C 0.6323(2) 0.8950(8) 0.5121(5)
H24 H 0.622786 0.986169 0.488131
C17 C 0.61115(14) 0.7622(4) 0.4775(3)
C18 C 0.58031(18) 0.7930(6) 0.4361(4)
H25 H 0.572460 0.893069 0.429901
C19 C 0.56119(18) 0.6742(8) 0.4038(4)
H26 H 0.540558 0.694844 0.376135
C20 C 0.57293(18) 0.5247(7) 0.4130(4)
C21 C 0.60377(15) 0.4939(4) 0.4545(3)
H27 H 0.611620 0.393807 0.460610
C22 C 0.62289(12) 0.6126(4) 0.4867(3)
H28 H 0.643522 0.592030 0.514376
C23 C 0.63953(14) 0.7992(5) 0.6405(3)
C24 C 0.67342(15) 0.8241(6) 0.6728(4)
H29 H 0.685587 0.915698 0.665786
C25 C 0.68912(13) 0.7123(9) 0.7154(4)
H30 H 0.711789 0.728986 0.736924
C26 C 0.67093(16) 0.5755(7) 0.7258(3)
C27 C 0.63704(16) 0.5505(5) 0.6936(3)
H31 H 0.624869 0.458936 0.700532
C28 C 0.62134(12) 0.6623(5) 0.6509(3)
H32 H 0.598667 0.645646 0.629394
F4 F 0.7482(2) 0.9905(16) 0.5097(6)
F5 F 0.7415(3) 1.1253(10) 0.4106(5)
F6 F 0.7338(4) 0.8794(12) 0.4068(5)
H33? H 0.596277 0.886630 0.641124
H34? H 0.561612 0.884972 0.593993
H35? H 0.689240 0.816231 0.508393
H36? H 0.656534 0.852711 0.457538
C29? C 0.6461(4) 0.9064(13) 0.5586(8)
H37? H 0.652669 1.003005 0.581429
C30? C 0.6042(4) 0.9122(14) 0.5474(8)
H38? H 0.600421 1.001877 0.517448
C31? C 0.5899(3) 0.7786(8) 0.5011(5)
C32? C 0.5818(2) 0.6395(9) 0.5319(4)
H39? H 0.585388 0.626197 0.579844
C33? C 0.5683(3) 0.5201(8) 0.4909(5)
H40? H 0.562869 0.427043 0.511451
C34? C 0.5630(3) 0.5399(12) 0.4192(5)
C35? C 0.5711(4) 0.6791(15) 0.3885(4)
H41? H 0.567521 0.692330 0.340492
C36? C 0.5846(3) 0.7984(11) 0.4294(5)
H42? H 0.590039 0.891488 0.408885
C37? C 0.6591(3) 0.7770(7) 0.6117(4)
C38? C 0.6660(3) 0.8128(8) 0.6817(5)
H43? H 0.663444 0.912759 0.697093
C39? C 0.6768(3) 0.6993(12) 0.7286(3)
H44? H 0.681420 0.723261 0.775401
C40? C 0.6806(3) 0.5499(10) 0.7056(4)
C41? C 0.6737(2) 0.5141(7) 0.6356(4)
H45? H 0.676259 0.414202 0.620209
C42? C 0.6629(2) 0.6277(8) 0.5887(3)
H46? H 0.658284 0.603698 0.541900
Cl5? Cl 0.5640(5) 1.096(2) 0.7348(7)
C43? C 0.7315(5) 1.012(2) 0.4785(7)
F7? F 0.5196(8) 0.948(2) 0.6608(10)
F8? F 0.5163(7) 1.197(2) 0.6629(10)
F9? F 0.52576(17) 1.0690(13) 0.5595(4)
C44? C 0.5283(5) 1.078(2) 0.6284(8)
F10? F 0.73074(19) 1.0096(8) 0.5487(4)
F11? F 0.7443(8) 1.136(2) 0.4458(9)
F12? F 0.7367(6) 0.889(2) 0.4376(8)
loop_
_geom_bond_atom_site_label_1
_geom_bond_atom_site_label_2
_geom_bond_site_symmetry_1
_geom_bond_site_symmetry_2
Cl1 C3 1_555 1_555
Cl2 C6 1_555 1_555
Cl3 C6 1_555 1_555
F1 C1 1_555 1_555
F2 C1 1_555 1_555
F3 C1 1_555 1_555
C1 C3 1_555 1_555
Cl4 C3 1_555 1_555
C2 C6 1_555 1_555
C3 C4 1_555 1_555
C4 H1 1_555 1_555
H2 C4 1_555 1_555
C5 H3 1_555 1_555
H4 C5 1_555 1_555
C6 C5 1_555 1_555
C7 C8 1_555 1_555
C8 H5 1_555 1_555
H6 C8 1_555 1_555
H7 C8 1_555 1_555
C9 C7 1_555 1_555
H8 C9 1_555 1_555
H9 C9 1_555 1_555
H10 C9 1_555 1_555
C10 C7 1_555 1_555
H11 C10 1_555 1_555
H12 C10 1_555 1_555
H13 C10 1_555 1_555
C11 C12 1_555 1_555
C12 H14 1_555 1_555
H15 C12 1_555 1_555
H16 C12 1_555 1_555
C13 C11 1_555 1_555
H17 C13 1_555 1_555
H18 C13 1_555 1_555
H19 C13 1_555 1_555
C14 C11 1_555 1_555
H20 C14 1_555 1_555
H21 C14 1_555 1_555
H22 C14 1_555 1_555
C15 C4 1_555 1_555
H23 C15 1_555 1_555
C16 C5 1_555 1_555
H24 C16 1_555 1_555
C17 C16 1_555 1_555
C18 C17 1_555 1_555
H25 C18 1_555 1_555
C19 C18 1_555 1_555
H26 C19 1_555 1_555
C20 C7 1_555 1_555
C21 C20 1_555 1_555
H27 C21 1_555 1_555
C22 C17 1_555 1_555
H28 C22 1_555 1_555
C23 C15 1_555 1_555
C24 C23 1_555 1_555
H29 C24 1_555 1_555
C25 C24 1_555 1_555
H30 C25 1_555 1_555
C26 C11 1_555 1_555
C27 C26 1_555 1_555
H31 C27 1_555 1_555
C28 C23 1_555 1_555
H32 C28 1_555 1_555
F4 C2 1_555 1_555
F5 C2 1_555 1_555
F6 C2 1_555 1_555
C15 C16 1_555 1_555
C19 C20 1_555 1_555
C21 C22 1_555 1_555
C25 C26 1_555 1_555
C27 C28 1_555 1_555

#END
