
#######################################################################
#
#                 Cambridge Crystallographic Data Centre
#                                CCDC 
#
#######################################################################
#
# If this CIF has been generated from an entry in the Cambridge 
# Structural Database, then it will include bibliographic, chemical, 
# crystal, experimental, refinement or atomic coordinate data resulting 
# from the CCDC's data processing and validation procedures.
#
#######################################################################

data_MIJRAY
_chemical_formula_moiety         'C8 H18 B7 Li1 N2'
_chemical_name_systematic        
bis(Acetonitrile)-(6-methyl-nido-5,6,9-tricarbadecaboranyl)-lithium
_symmetry_cell_setting           orthorhombic
_symmetry_space_group_name_H-M   'A b a 2'
_symmetry_Int_Tables_number      41
_space_group_name_Hall           'A 2 -2ab'
loop_
_symmetry_equiv_pos_site_id
_symmetry_equiv_pos_as_xyz
1 x,y,z
2 -x,-y,z
3 1/2-x,1/2+y,z
4 1/2+x,1/2-y,z
5 x,1/2+y,1/2+z
6 -x,1/2-y,1/2+z
7 1/2-x,y,1/2+z
8 1/2+x,-y,1/2+z
_cell_length_a                   13.7522(4)
_cell_length_b                   16.1748(5)
_cell_length_c                   13.2421(4)
_cell_angle_alpha                90
_cell_angle_beta                 90
_cell_angle_gamma                90
_cell_volume                     2945.56
_cell_formula_units_Z            8
_chemical_properties_physical    air-sensitive
_exptl_crystal_recrystallization_method toluene
loop_
_atom_site_label
_atom_site_type_symbol
_atom_site_fract_x
_atom_site_fract_y
_atom_site_fract_z
N1 N 0.8442(4) -0.0467(3) 0.8024(3)
N2 N 0.8498(4) -0.0481(3) 0.5570(3)
C1 C 0.7646(4) 0.1543(3) 0.7747(4)
C2 C 0.8265(2) 0.1495(2) 0.6821(5)
C3 C 0.6437(2) 0.0443(2) 0.6781(4)
C4 C 0.9349(3) 0.1478(3) 0.7125(5)
C5 C 0.8718(3) -0.0804(3) 0.8730(4)
C6 C 0.8972(4) -0.1223(3) 0.9665(4)
C7 C 0.8723(5) -0.0799(3) 0.4865(4)
C8 C 0.9103(5) -0.1223(5) 0.3979(4)
B1 B 0.6519(3) 0.2011(3) 0.7502(3)
B2 B 0.7567(3) 0.2339(2) 0.6905(4)
B3 B 0.6596(4) 0.1988(3) 0.6127(4)
B4 B 0.5819(2) 0.1325(2) 0.6766(4)
B5 B 0.7712(4) 0.1598(3) 0.5881(4)
B6 B 0.6603(4) 0.0960(4) 0.5815(3)
B7 B 0.6597(4) 0.0896(3) 0.7760(4)
Li1 Li 0.7953(4) 0.0116(3) 0.6755(9)
H1 H 0.622(2) 0.245(2) 0.813(2)
H2 H 0.789(3) 0.295(2) 0.659(4)
H3 H 0.620(4) 0.245(3) 0.577(4)
H4 H 0.505(3) 0.135(2) 0.686(5)
H5 H 0.800(2) 0.165(2) 0.849(2)
H6 H 0.822(4) 0.178(4) 0.531(4)
H7 H 0.638(4) 0.076(3) 0.518(4)
H8 H 0.609(2) -0.005(2) 0.660(2)
H9 H 0.643(2) 0.071(2) 0.858(3)
H10 H 0.9573 0.0938 0.7066
H11 H 0.9717 0.1792 0.6555
H12 H 0.9404 0.1743 0.7679
H13 H 0.9648 -0.1167 0.9691
H14 H 0.8786 -0.1774 0.9542
H15 H 0.8633 -0.0956 1.0132
H16 H 0.8602 -0.1612 0.3658
H17 H 0.9654 -0.1563 0.4076
H18 H 0.9258 -0.0864 0.3387
loop_
_geom_bond_atom_site_label_1
_geom_bond_atom_site_label_2
_geom_bond_site_symmetry_1
_geom_bond_site_symmetry_2
N1 C5 1_555 1_555
N2 C7 1_555 1_555
C1 C2 1_555 1_555
C2 C4 1_555 1_555
C3 B4 1_555 1_555
C4 H10 1_555 1_555
C5 C6 1_555 1_555
C6 H13 1_555 1_555
C7 C8 1_555 1_555
C8 H16 1_555 1_555
B1 C1 1_555 1_555
B2 C1 1_555 1_555
B3 B1 1_555 1_555
B4 B1 1_555 1_555
B5 C2 1_555 1_555
B6 C3 1_555 1_555
B7 C1 1_555 1_555
Li1 N1 1_555 1_555
H1 B1 1_555 1_555
H2 B2 1_555 1_555
H3 B3 1_555 1_555
H4 B4 1_555 1_555
H5 C1 1_555 1_555
H6 B5 1_555 1_555
H7 B6 1_555 1_555
H8 C3 1_555 1_555
H9 B7 1_555 1_555
H11 C4 1_555 1_555
H12 C4 1_555 1_555
H14 C6 1_555 1_555
H15 C6 1_555 1_555
H17 C8 1_555 1_555
H18 C8 1_555 1_555
N2 Li1 1_555 1_555
C2 Li1 1_555 1_555
C2 B2 1_555 1_555
C3 B7 1_555 1_555
C3 Li1 1_555 1_555
B1 B2 1_555 1_555
B1 B7 1_555 1_555
B2 B3 1_555 1_555
B2 B5 1_555 1_555
B3 B5 1_555 1_555
B3 B4 1_555 1_555
B3 B6 1_555 1_555
B4 B6 1_555 1_555
B4 B7 1_555 1_555
B5 B6 1_555 1_555

#END
