
#######################################################################
#
#                 Cambridge Crystallographic Data Centre
#                                CCDC 
#
#######################################################################
#
# If this CIF has been generated from an entry in the Cambridge 
# Structural Database, then it will include bibliographic, chemical, 
# crystal, experimental, refinement or atomic coordinate data resulting 
# from the CCDC's data processing and validation procedures.
#
#######################################################################

data_MIJSEG
_chemical_formula_moiety         'C30 H14 F6 N2 O4'
_chemical_name_systematic        
2,2'-[2,6-bis(trifluoromethyl)[1,1'-biphenyl]-4,4'-diyl]bis(1H-isoindole-1,3(2H)-dione)
_symmetry_cell_setting           monoclinic
_symmetry_space_group_name_H-M   'C 2/c'
_symmetry_Int_Tables_number      15
_space_group_name_Hall           '-C 2yn'
loop_
_symmetry_equiv_pos_site_id
_symmetry_equiv_pos_as_xyz
1 x,y,z
2 -x,y,1/2-z
3 1/2+x,1/2+y,z
4 1/2-x,1/2+y,1/2-z
5 -x,-y,-z
6 x,-y,1/2+z
7 1/2-x,1/2-y,-z
8 1/2+x,1/2-y,1/2+z
_cell_length_a                   13.8532(13)
_cell_length_b                   27.451(3)
_cell_length_c                   13.4349(13)
_cell_angle_alpha                90
_cell_angle_beta                 97.046(3)
_cell_angle_gamma                90
_cell_volume                     5070.5
_exptl_crystal_colour            white
_exptl_crystal_description       platy
_cell_formula_units_Z            8
loop_
_atom_site_label
_atom_site_type_symbol
_atom_site_fract_x
_atom_site_fract_y
_atom_site_fract_z
F1 F 0.32621(18) 0.26428(9) 0.1947(2)
F2 F 0.2647(2) 0.25025(12) 0.3269(2)
F3 F 0.36251(18) 0.19856(9) 0.2731(2)
F4 F -0.06692(17) 0.26380(9) 0.0595(2)
F5 F -0.10268(18) 0.19633(9) -0.0116(2)
F6 F -0.0046(2) 0.24459(11) -0.06991(19)
O1 O -0.03127(16) 0.44876(9) 0.1404(2)
O2 O 0.28532(16) 0.45038(10) 0.0726(2)
O3 O -0.04055(17) 0.06141(10) 0.1313(2)
O4 O 0.29321(16) 0.06056(9) 0.1559(2)
N1 N 0.12805(18) 0.43621(11) 0.1095(2)
N2 N 0.12627(17) 0.07484(10) 0.1417(2)
C1 C 0.2070(2) 0.46556(13) 0.0901(3)
C2 C 0.1723(2) 0.51654(13) 0.0925(3)
C3 C 0.2201(3) 0.55979(15) 0.0777(3)
H1 H 0.2862 0.5601 0.0654
C4 C 0.1676(3) 0.60268(14) 0.0816(3)
H2 H 0.1975 0.6329 0.0694
C5 C 0.0715(3) 0.60212(14) 0.1031(3)
H3 H 0.0375 0.6320 0.1061
C6 C 0.0242(2) 0.55846(13) 0.1202(3)
H4 H -0.0409 0.5580 0.1357
C7 C 0.0766(2) 0.51590(12) 0.1136(3)
C8 C 0.0459(2) 0.46465(12) 0.1243(2)
C9 C 0.1306(2) 0.38439(13) 0.1144(2)
C10 C 0.1578(3) 0.35862(13) 0.0351(3)
H5 H 0.1762 0.3750 -0.0221
C11 C 0.1580(3) 0.30805(13) 0.0400(3)
H6 H 0.1767 0.2897 -0.0145
C12 C 0.1311(2) 0.28359(12) 0.1242(2)
C13 C 0.1071(3) 0.31156(13) 0.2046(3)
H7 H 0.0910 0.2958 0.2633
C14 C 0.1065(3) 0.36193(13) 0.1999(3)
H8 H 0.0898 0.3807 0.2547
C15 C 0.1296(2) 0.22916(12) 0.1286(2)
C16 C 0.2046(2) 0.20344(13) 0.1855(3)
C17 C 0.2031(2) 0.15308(13) 0.1919(2)
H9 H 0.2537 0.1365 0.2324
C18 C 0.1268(2) 0.12650(12) 0.1385(2)
C19 C 0.0532(2) 0.15206(13) 0.0814(3)
H10 H 0.0013 0.1347 0.0445
C20 C 0.0547(2) 0.20232(13) 0.0776(3)
C21 C 0.2897(3) 0.22912(14) 0.2446(3)
C22 C -0.0292(3) 0.22709(15) 0.0138(3)
C23 C 0.2107(2) 0.04542(12) 0.1496(3)
C24 C 0.1757(2) -0.00570(12) 0.1490(3)
C25 C 0.2285(2) -0.04849(13) 0.1558(3)
H11 H 0.2975 -0.0483 0.1616
C26 C 0.1761(2) -0.09210(13) 0.1539(3)
H12 H 0.2101 -0.1222 0.1595
C27 C 0.0745(3) -0.09187(14) 0.1438(3)
H13 H 0.0404 -0.1219 0.1429
C28 C 0.0219(3) -0.04813(14) 0.1351(3)
H14 H -0.0472 -0.0478 0.1269
C29 C 0.0755(2) -0.00557(12) 0.1389(3)
C30 C 0.0414(2) 0.04548(13) 0.1364(3)
loop_
_geom_bond_atom_site_label_1
_geom_bond_atom_site_label_2
_geom_bond_site_symmetry_1
_geom_bond_site_symmetry_2
F1 C21 1_555 1_555
F2 C21 1_555 1_555
F3 C21 1_555 1_555
F4 C22 1_555 1_555
F5 C22 1_555 1_555
F6 C22 1_555 1_555
O1 C8 1_555 1_555
O2 C1 1_555 1_555
O3 C30 1_555 1_555
O4 C23 1_555 1_555
N1 C1 1_555 1_555
N2 C18 1_555 1_555
C1 C2 1_555 1_555
C2 C3 1_555 1_555
C3 H1 1_555 1_555
C4 C3 1_555 1_555
H2 C4 1_555 1_555
C5 C4 1_555 1_555
H3 C5 1_555 1_555
C6 C5 1_555 1_555
H4 C6 1_555 1_555
C7 C2 1_555 1_555
C8 N1 1_555 1_555
C9 N1 1_555 1_555
C10 C9 1_555 1_555
H5 C10 1_555 1_555
C11 C10 1_555 1_555
H6 C11 1_555 1_555
C12 C11 1_555 1_555
C13 C12 1_555 1_555
H7 C13 1_555 1_555
C14 C9 1_555 1_555
H8 C14 1_555 1_555
C15 C12 1_555 1_555
C16 C15 1_555 1_555
C17 C16 1_555 1_555
H9 C17 1_555 1_555
C18 C17 1_555 1_555
C19 C18 1_555 1_555
H10 C19 1_555 1_555
C20 C15 1_555 1_555
C21 C16 1_555 1_555
C22 C20 1_555 1_555
C23 N2 1_555 1_555
C24 C23 1_555 1_555
C25 C24 1_555 1_555
H11 C25 1_555 1_555
C26 C25 1_555 1_555
H12 C26 1_555 1_555
C27 C26 1_555 1_555
H13 C27 1_555 1_555
C28 C27 1_555 1_555
H14 C28 1_555 1_555
C29 C24 1_555 1_555
C30 N2 1_555 1_555
C6 C7 1_555 1_555
C7 C8 1_555 1_555
C13 C14 1_555 1_555
C19 C20 1_555 1_555
C28 C29 1_555 1_555
C29 C30 1_555 1_555

#END
