
#######################################################################
#
#                 Cambridge Crystallographic Data Centre
#                                CCDC 
#
#######################################################################
#
# If this CIF has been generated from an entry in the Cambridge 
# Structural Database, then it will include bibliographic, chemical, 
# crystal, experimental, refinement or atomic coordinate data resulting 
# from the CCDC's data processing and validation procedures.
#
#######################################################################

data_MIJWOU
_chemical_formula_moiety         'C24 H20 N4 O4'
_chemical_name_systematic        
3,12-dimethoxy-6,7,8,9-tetrahydrodibenzo[g,k][1,6]dioxacyclododecine-15,15,16,16-tetracarbonitrile
_symmetry_cell_setting           monoclinic
_symmetry_space_group_name_H-M   'P 21/n'
_symmetry_Int_Tables_number      14
_space_group_name_Hall           '-P 2yn'
loop_
_symmetry_equiv_pos_site_id
_symmetry_equiv_pos_as_xyz
1 x,y,z
2 1/2-x,1/2+y,1/2-z
3 -x,-y,-z
4 1/2+x,1/2-y,1/2+z
_cell_length_a                   8.1850(3)
_cell_length_b                   19.0335(7)
_cell_length_c                   14.0560(6)
_cell_angle_alpha                90
_cell_angle_beta                 101.603(3)
_cell_angle_gamma                90
_cell_volume                     2145.02
_exptl_crystal_colour            colorless
_exptl_crystal_description       plate
_cell_formula_units_Z            4
loop_
_atom_site_label
_atom_site_type_symbol
_atom_site_fract_x
_atom_site_fract_y
_atom_site_fract_z
C1 C 0.5808(3) 0.06951(13) 0.14378(16)
H1 H 0.496772 0.09366 0.095267
H2 H 0.605649 0.023614 0.118461
H3 H 0.682782 0.097828 0.157957
C2 C 0.4867(3) 0.11806(12) 0.28065(15)
C3 C 0.4405(3) 0.10349(12) 0.36895(15)
H4 H 0.430276 0.056196 0.388552
C4 C 0.4098(3) 0.15782(11) 0.42752(14)
C5 C 0.4225(3) 0.22819(11) 0.39789(14)
C6 C 0.4645(3) 0.24080(12) 0.30891(15)
H5 H 0.471177 0.287942 0.287806
C7 C 0.4972(3) 0.18640(11) 0.24959(15)
H6 H 0.526327 0.196037 0.188787
C8 C 0.4018(3) 0.28692(11) 0.46819(14)
C9 C 0.2564(3) 0.27499(11) 0.51471(15)
C10 C 0.3611(3) 0.35473(13) 0.41659(16)
C11 C 0.5737(3) 0.30101(11) 0.54813(14)
C12 C 0.6668(3) 0.23441(13) 0.57383(15)
C13 C 0.6822(3) 0.34200(12) 0.49518(16)
C14 C 0.5456(3) 0.34065(11) 0.63776(14)
C15 C 0.4922(3) 0.30293(11) 0.71182(15)
C16 C 0.4673(3) 0.33615(11) 0.79535(14)
H7 H 0.430026 0.310319 0.844751
C17 C 0.4977(3) 0.40783(11) 0.80588(15)
C18 C 0.5487(3) 0.44615(11) 0.73300(15)
H8 H 0.566839 0.495328 0.740151
C19 C 0.5728(3) 0.41235(11) 0.65019(15)
H9 H 0.608777 0.438617 0.600704
C20 C 0.4169(3) 0.40766(12) 0.96028(15)
H10 H 0.30513 0.389684 0.93287
H11 H 0.410928 0.439734 1.014019
H12 H 0.491039 0.368333 0.984332
C21 C 0.4223(3) 0.18875(11) 0.76676(15)
H13 H 0.306042 0.198907 0.772483
H14 H 0.496135 0.197781 0.830521
C22 C 0.4375(3) 0.11295(12) 0.73792(16)
H15 H 0.431824 0.083125 0.79487
H16 H 0.54934 0.10625 0.722617
C23 C 0.3071(3) 0.08607(12) 0.65146(16)
H17 H 0.270107 0.03892 0.668077
H18 H 0.208999 0.11756 0.642866
C24 C 0.3623(3) 0.08089(11) 0.55580(16)
H19 H 0.474676 0.059473 0.565629
H20 H 0.284057 0.050689 0.510618
N1 N 0.1334(3) 0.27097(10) 0.54107(14)
N2 N 0.3307(3) 0.40783(12) 0.37983(15)
N3 N 0.7517(3) 0.18658(11) 0.59239(14)
N4 N 0.7621(3) 0.37285(12) 0.45197(15)
O1 O 0.5180(2) 0.05990(8) 0.23107(11)
O2 O 0.36595(18) 0.14990(7) 0.51528(10)
O3 O 0.46888(19) 0.23305(7) 0.69423(10)
O4 O 0.48047(19) 0.44449(7) 0.88674(10)
loop_
_geom_bond_atom_site_label_1
_geom_bond_atom_site_label_2
_geom_bond_site_symmetry_1
_geom_bond_site_symmetry_2
C1 H1 1_555 1_555
H2 C1 1_555 1_555
H3 C1 1_555 1_555
C2 C3 1_555 1_555
C3 H4 1_555 1_555
C4 C3 1_555 1_555
C5 C4 1_555 1_555
C6 C5 1_555 1_555
H5 C6 1_555 1_555
C7 C2 1_555 1_555
H6 C7 1_555 1_555
C8 C5 1_555 1_555
C9 C8 1_555 1_555
C10 C8 1_555 1_555
C11 C8 1_555 1_555
C12 C11 1_555 1_555
C13 C11 1_555 1_555
C14 C11 1_555 1_555
C15 C14 1_555 1_555
C16 C15 1_555 1_555
H7 C16 1_555 1_555
C17 C16 1_555 1_555
C18 C17 1_555 1_555
H8 C18 1_555 1_555
C19 C14 1_555 1_555
H9 C19 1_555 1_555
C20 H10 1_555 1_555
H11 C20 1_555 1_555
H12 C20 1_555 1_555
C21 H13 1_555 1_555
H14 C21 1_555 1_555
C22 C21 1_555 1_555
H15 C22 1_555 1_555
H16 C22 1_555 1_555
C23 C22 1_555 1_555
H17 C23 1_555 1_555
H18 C23 1_555 1_555
C24 C23 1_555 1_555
H19 C24 1_555 1_555
H20 C24 1_555 1_555
N1 C9 1_555 1_555
N2 C10 1_555 1_555
N3 C12 1_555 1_555
N4 C13 1_555 1_555
O1 C1 1_555 1_555
O2 C4 1_555 1_555
O3 C15 1_555 1_555
O4 C17 1_555 1_555
C2 O1 1_555 1_555
C6 C7 1_555 1_555
C18 C19 1_555 1_555
C20 O4 1_555 1_555
C21 O3 1_555 1_555
C24 O2 1_555 1_555

#END
