
#######################################################################
#
#                 Cambridge Crystallographic Data Centre
#                                CCDC 
#
#######################################################################
#
# If this CIF has been generated from an entry in the Cambridge 
# Structural Database, then it will include bibliographic, chemical, 
# crystal, experimental, refinement or atomic coordinate data resulting 
# from the CCDC's data processing and validation procedures.
#
#######################################################################

data_MIJXAG
_chemical_formula_moiety         'C19 H15 F3 O1 S1'
_chemical_name_systematic        
7-Methoxy-1-((phenylsulfanyl)methyl)-3-(trifluoromethyl)naphthalene
_symmetry_cell_setting           monoclinic
_symmetry_space_group_name_H-M   'P 21/c'
_symmetry_Int_Tables_number      14
_space_group_name_Hall           '-P 2ybc'
loop_
_symmetry_equiv_pos_site_id
_symmetry_equiv_pos_as_xyz
1 x,y,z
2 -x,1/2+y,1/2-z
3 -x,-y,-z
4 x,1/2-y,1/2+z
_cell_length_a                   5.4798(10)
_cell_length_b                   20.226(4)
_cell_length_c                   15.118(3)
_cell_angle_alpha                90
_cell_angle_beta                 96.935(3)
_cell_angle_gamma                90
_cell_volume                     1663.34
_exptl_crystal_colour            colorless
_exptl_crystal_description       block
_cell_formula_units_Z            4
loop_
_atom_site_label
_atom_site_type_symbol
_atom_site_fract_x
_atom_site_fract_y
_atom_site_fract_z
F1 F 0.4920(8) 0.55508(18) 0.0764(3)
F2 F 0.8620(7) 0.58332(18) 0.1124(2)
F3 F 0.6490(7) 0.62624(18) 0.0020(2)
O1 O -0.0446(5) 0.88305(14) 0.3029(2)
S1 S 0.5084(2) 0.67236(6) 0.45372(7)
C1 C 0.5179(7) 0.59228(19) 0.4071(2)
C2 C 0.7128(8) 0.5505(3) 0.4286(3)
H1 H 0.8426 0.5635 0.4704
C3 C 0.7176(10) 0.4893(3) 0.3888(4)
H2 H 0.8539 0.4621 0.4024
C4 C 0.5282(11) 0.4680(2) 0.3304(4)
H3 H 0.5320 0.4263 0.3049
C5 C 0.3332(10) 0.5082(3) 0.3097(4)
H4 H 0.2019 0.4943 0.2692
C6 C 0.3276(8) 0.5696(2) 0.3480(3)
H5 H 0.1910 0.5965 0.3334
C7 C 0.6915(7) 0.71730(19) 0.3803(2)
H6 H 0.7013 0.7635 0.3978
H7 H 0.8571 0.6996 0.3869
C8 C 0.5832(6) 0.71235(17) 0.2847(2)
C9 C 0.6698(7) 0.66656(19) 0.2307(2)
H8 H 0.8042 0.6405 0.2516
C10 C 0.5550(8) 0.6589(2) 0.1431(3)
C11 C 0.3687(6) 0.69357(16) 0.1080(2)
H9 H 0.2998 0.6870 0.0493
C12 C 0.2802(7) 0.73924(18) 0.1597(2)
C13 C 0.3788(6) 0.75129(16) 0.2495(2)
C14 C 0.0734(7) 0.7770(2) 0.1232(3)
H10 H 0.0070 0.7699 0.0644
C15 C -0.0286(7) 0.8230(2) 0.1719(3)
H11 H -0.1654 0.8467 0.1470
C16 C 0.0717(7) 0.83504(19) 0.2603(3)
C17 C 0.2707(7) 0.80015(18) 0.2986(2)
H12 H 0.3349 0.8087 0.3573
C18 C 0.0758(9) 0.9074(2) 0.3860(3)
H13 H 0.0882 0.8725 0.4294
H14 H -0.0176 0.9432 0.4063
H15 H 0.2375 0.9227 0.3779
C19 C 0.6392(11) 0.6063(3) 0.0842(3)
loop_
_geom_bond_atom_site_label_1
_geom_bond_atom_site_label_2
_geom_bond_site_symmetry_1
_geom_bond_site_symmetry_2
F1 C19 1_555 1_555
F2 C19 1_555 1_555
F3 C19 1_555 1_555
O1 C16 1_555 1_555
S1 C1 1_555 1_555
C1 C2 1_555 1_555
C2 H1 1_555 1_555
C3 C2 1_555 1_555
H2 C3 1_555 1_555
C4 C3 1_555 1_555
H3 C4 1_555 1_555
C5 C4 1_555 1_555
H4 C5 1_555 1_555
C6 C1 1_555 1_555
H5 C6 1_555 1_555
C7 S1 1_555 1_555
H6 C7 1_555 1_555
H7 C7 1_555 1_555
C8 C7 1_555 1_555
C9 C8 1_555 1_555
H8 C9 1_555 1_555
C10 C9 1_555 1_555
C11 C10 1_555 1_555
H9 C11 1_555 1_555
C12 C11 1_555 1_555
C13 C8 1_555 1_555
C14 C12 1_555 1_555
H10 C14 1_555 1_555
C15 C14 1_555 1_555
H11 C15 1_555 1_555
C16 C15 1_555 1_555
C17 C13 1_555 1_555
H12 C17 1_555 1_555
C18 O1 1_555 1_555
H13 C18 1_555 1_555
H14 C18 1_555 1_555
H15 C18 1_555 1_555
C19 C10 1_555 1_555
C5 C6 1_555 1_555
C12 C13 1_555 1_555
C16 C17 1_555 1_555

#END
