
#######################################################################
#
#                 Cambridge Crystallographic Data Centre
#                                CCDC 
#
#######################################################################
#
# If this CIF has been generated from an entry in the Cambridge 
# Structural Database, then it will include bibliographic, chemical, 
# crystal, experimental, refinement or atomic coordinate data resulting 
# from the CCDC's data processing and validation procedures.
#
#######################################################################

data_MIKKID
_chemical_formula_moiety         'C45 H61 N5 O3'
_chemical_name_systematic        
'5-[2,6-bis{2-[4-(dimethylamino)phenyl]ethenyl}-1-hexadecylpyridin-4(1H)-ylidene]pyrimidine-2,4,6(1H,3H,5H)-trione unknown solvate'
_symmetry_cell_setting           monoclinic
_symmetry_space_group_name_H-M   'C 2/c'
_symmetry_Int_Tables_number      15
_space_group_name_Hall           '-C 2yn'
loop_
_symmetry_equiv_pos_site_id
_symmetry_equiv_pos_as_xyz
1 x,y,z
2 -x,y,1/2-z
3 1/2+x,1/2+y,z
4 1/2-x,1/2+y,1/2-z
5 -x,-y,-z
6 x,-y,1/2+z
7 1/2-x,1/2-y,-z
8 1/2+x,1/2-y,1/2+z
_cell_length_a                   29.0066(13)
_cell_length_b                   11.9753(4)
_cell_length_c                   29.1138(12)
_cell_angle_alpha                90
_cell_angle_beta                 116.373(2)
_cell_angle_gamma                90
_cell_volume                     9060.5
_exptl_crystal_colour            red
_exptl_crystal_description       block
_cell_formula_units_Z            8
loop_
_atom_site_label
_atom_site_type_symbol
_atom_site_fract_x
_atom_site_fract_y
_atom_site_fract_z
O1 O 0.78238(13) 0.91274(19) 0.83732(9)
O2 O 0.70126(12) 1.08684(18) 0.68428(8)
O3 O 0.74971(12) 0.70528(19) 0.69661(9)
N1 N 0.74217(13) 0.9963(2) 0.75939(9)
H1 H 0.742671 1.060364 0.774440
N2 N 0.76496(14) 0.8115(2) 0.76548(10)
H2 H 0.779899 0.752633 0.784325
N3 N 0.63899(12) 0.8495(3) 0.52068(10)
N4 N 0.40426(16) 1.3898(4) 0.41063(16)
N5 N 0.82046(17) 0.2823(3) 0.48119(15)
C1 C 0.76388(17) 0.9073(3) 0.79033(13)
C2 C 0.71925(16) 0.9957(3) 0.70615(12)
C3 C 0.71871(15) 0.8927(3) 0.68175(12)
C4 C 0.74438(17) 0.8002(3) 0.71307(13)
C5 C 0.69306(14) 0.8823(3) 0.62654(12)
C6 C 0.65153(15) 0.9515(3) 0.59484(11)
H3 H 0.641158 1.010620 0.609949
C7 C 0.62602(15) 0.9355(3) 0.54311(13)
C8 C 0.68018(16) 0.7835(3) 0.54865(13)
C9 C 0.70647(15) 0.8004(3) 0.60135(12)
H4 H 0.734924 0.753538 0.620840
C10 C 0.58294(17) 1.0103(4) 0.51068(14)
H5 H 0.566586 0.994734 0.474967
C11 C 0.56565(16) 1.0930(4) 0.52575(15)
H6 H 0.581807 1.107169 0.561594
C12 C 0.52436(16) 1.1682(4) 0.49490(15)
C13 C 0.51236(19) 1.2600(5) 0.51709(17)
H7 H 0.532098 1.272675 0.552788
C14 C 0.47393(18) 1.3314(4) 0.48996(18)
H8 H 0.467860 1.392458 0.507386
C15 C 0.44266(17) 1.3198(4) 0.43749(17)
C16 C 0.45411(19) 1.2273(4) 0.41525(17)
H9 H 0.433662 1.213471 0.379762
C17 C 0.49420(18) 1.1549(4) 0.44298(17)
H10 H 0.501063 1.094476 0.425754
C18 C 0.39214(19) 1.4814(5) 0.4360(2)
H11 H 0.376840 1.451877 0.457528
H12 H 0.367679 1.531979 0.410241
H13 H 0.423710 1.522316 0.457495
C19 C 0.3751(2) 1.3734(5) 0.3555(2)
H14 H 0.398738 1.372592 0.339759
H15 H 0.350371 1.434533 0.340902
H16 H 0.356648 1.302203 0.348910
C20 C 0.69758(17) 0.6991(3) 0.52388(14)
H17 H 0.691159 0.710042 0.489229
C21 C 0.72212(16) 0.6075(3) 0.54807(14)
H18 H 0.725034 0.595712 0.581521
C22 C 0.74511(16) 0.5228(3) 0.52843(13)
C23 C 0.74071(17) 0.5211(4) 0.47893(14)
H19 H 0.720828 0.577451 0.455556
C24 C 0.76333(18) 0.4433(4) 0.46282(14)
H20 H 0.758109 0.444678 0.428216
C25 C 0.79459(17) 0.3597(4) 0.49577(16)
C26 C 0.79907(18) 0.3584(3) 0.54677(15)
H21 H 0.819040 0.302280 0.570208
C27 C 0.77485(17) 0.4373(3) 0.56180(14)
H22 H 0.778033 0.434754 0.595699
C28 C 0.8095(2) 0.2701(4) 0.42763(19)
H23 H 0.772533 0.280046 0.405983
H24 H 0.819875 0.195422 0.422023
H25 H 0.828666 0.326547 0.418779
C29 C 0.8535(2) 0.2027(4) 0.5161(2)
H26 H 0.879445 0.241101 0.546181
H27 H 0.870569 0.159369 0.499492
H28 H 0.833371 0.152466 0.526743
C30 C 0.60704(18) 0.8202(4) 0.46578(13)
H29 H 0.570564 0.838109 0.456105
H30 H 0.609544 0.738923 0.461075
C31 C 0.6245(2) 0.8840(5) 0.43057(15)
H31 H 0.621406 0.965205 0.434845
H32 H 0.661191 0.867182 0.440725
C32 C 0.5930(5) 0.8532(10) 0.3751(3)
H33 H 0.581991 0.920848 0.353334
H34 H 0.562179 0.809956 0.370416
C33 C 0.6343(7) 0.7724(14) 0.3599(6)
H35 H 0.653461 0.827885 0.349880
H36 H 0.659515 0.742536 0.393391
C34 C 0.6253(6) 0.6757(13) 0.3228(6)
H37 H 0.589768 0.649975 0.313430
H38 H 0.624204 0.710268 0.291434
C35 C 0.6564(5) 0.5704(11) 0.3307(4)
H39 H 0.693154 0.591983 0.345551
H40 H 0.651835 0.524693 0.356683
C36 C 0.6457(5) 0.4982(12) 0.2859(5)
H41 H 0.608186 0.483517 0.268477
H42 H 0.654485 0.540360 0.261676
C37 C 0.6722(6) 0.3913(15) 0.2959(7)
H43 H 0.676874 0.368695 0.265558
H44 H 0.706753 0.399194 0.325240
C38 C 0.6443(8) 0.3073(13) 0.3072(8)
H45 H 0.651121 0.317513 0.343451
H46 H 0.607254 0.323077 0.286058
C39 C 0.6520(9) 0.1935(14) 0.3007(7)
H47 H 0.644435 0.149714 0.325418
H48 H 0.688790 0.182197 0.309554
C40 C 0.6204(8) 0.1475(16) 0.2481(6)
H49 H 0.584806 0.176813 0.234032
H50 H 0.635427 0.169462 0.224887
C41 C 0.6202(9) 0.0249(16) 0.2526(7)
H51 H 0.603629 0.002850 0.274547
H52 H 0.655860 -0.004036 0.268282
C42 C 0.5893(8) -0.0242(18) 0.1972(7)
H53 H 0.558555 0.024112 0.180971
H54 H 0.610769 -0.006912 0.179511
C43 C 0.5695(8) -0.1408(17) 0.1798(7)
H55 H 0.537811 -0.131139 0.147372
H56 H 0.558231 -0.168787 0.205188
C44 C 0.5983(8) -0.2380(17) 0.1703(8)
H57 H 0.598505 -0.225035 0.136767
H58 H 0.634521 -0.234547 0.196769
C45 C 0.5795(10) -0.3540(18) 0.1700(8)
H59 H 0.601693 -0.406847 0.163394
H60 H 0.580353 -0.370422 0.203287
H61 H 0.544150 -0.360861 0.142973
loop_
_geom_bond_atom_site_label_1
_geom_bond_atom_site_label_2
_geom_bond_site_symmetry_1
_geom_bond_site_symmetry_2
O1 C1 1_555 1_555
O2 C2 1_555 1_555
O3 C4 1_555 1_555
N1 H1 1_555 1_555
N2 H2 1_555 1_555
N3 C7 1_555 1_555
N4 C15 1_555 1_555
N5 C25 1_555 1_555
C1 N1 1_555 1_555
C2 N1 1_555 1_555
C3 C2 1_555 1_555
C4 N2 1_555 1_555
C5 C3 1_555 1_555
C6 C5 1_555 1_555
H3 C6 1_555 1_555
C7 C6 1_555 1_555
C8 N3 1_555 1_555
C9 C5 1_555 1_555
H4 C9 1_555 1_555
C10 C7 1_555 1_555
H5 C10 1_555 1_555
C11 C10 1_555 1_555
H6 C11 1_555 1_555
C12 C11 1_555 1_555
C13 C12 1_555 1_555
H7 C13 1_555 1_555
C14 C13 1_555 1_555
H8 C14 1_555 1_555
C15 C14 1_555 1_555
C16 C15 1_555 1_555
H9 C16 1_555 1_555
C17 C12 1_555 1_555
H10 C17 1_555 1_555
C18 N4 1_555 1_555
H11 C18 1_555 1_555
H12 C18 1_555 1_555
H13 C18 1_555 1_555
C19 N4 1_555 1_555
H14 C19 1_555 1_555
H15 C19 1_555 1_555
H16 C19 1_555 1_555
C20 C8 1_555 1_555
H17 C20 1_555 1_555
C21 C20 1_555 1_555
H18 C21 1_555 1_555
C22 C21 1_555 1_555
C23 C22 1_555 1_555
H19 C23 1_555 1_555
C24 C23 1_555 1_555
H20 C24 1_555 1_555
C25 C24 1_555 1_555
C26 C25 1_555 1_555
H21 C26 1_555 1_555
C27 C22 1_555 1_555
H22 C27 1_555 1_555
C28 N5 1_555 1_555
H23 C28 1_555 1_555
H24 C28 1_555 1_555
H25 C28 1_555 1_555
C29 N5 1_555 1_555
H26 C29 1_555 1_555
H27 C29 1_555 1_555
H28 C29 1_555 1_555
C30 N3 1_555 1_555
H29 C30 1_555 1_555
H30 C30 1_555 1_555
C31 C30 1_555 1_555
H31 C31 1_555 1_555
H32 C31 1_555 1_555
C32 C31 1_555 1_555
H33 C32 1_555 1_555
H34 C32 1_555 1_555
C33 C32 1_555 1_555
H35 C33 1_555 1_555
H36 C33 1_555 1_555
C34 C33 1_555 1_555
H37 C34 1_555 1_555
H38 C34 1_555 1_555
C35 C34 1_555 1_555
H39 C35 1_555 1_555
H40 C35 1_555 1_555
C36 C35 1_555 1_555
H41 C36 1_555 1_555
H42 C36 1_555 1_555
C37 C36 1_555 1_555
H43 C37 1_555 1_555
H44 C37 1_555 1_555
C38 C37 1_555 1_555
H45 C38 1_555 1_555
H46 C38 1_555 1_555
C39 C38 1_555 1_555
H47 C39 1_555 1_555
H48 C39 1_555 1_555
C40 C39 1_555 1_555
H49 C40 1_555 1_555
H50 C40 1_555 1_555
C41 C40 1_555 1_555
H51 C41 1_555 1_555
H52 C41 1_555 1_555
C42 C41 1_555 1_555
H53 C42 1_555 1_555
H54 C42 1_555 1_555
C43 C42 1_555 1_555
H55 C43 1_555 1_555
H56 C43 1_555 1_555
C44 C43 1_555 1_555
H57 C44 1_555 1_555
H58 C44 1_555 1_555
C45 C44 1_555 1_555
H59 C45 1_555 1_555
H60 C45 1_555 1_555
H61 C45 1_555 1_555
N2 C1 1_555 1_555
C3 C4 1_555 1_555
C8 C9 1_555 1_555
C16 C17 1_555 1_555
C26 C27 1_555 1_555

#END
