
#######################################################################
#
#                 Cambridge Crystallographic Data Centre
#                                CCDC 
#
#######################################################################
#
# If this CIF has been generated from an entry in the Cambridge 
# Structural Database, then it will include bibliographic, chemical, 
# crystal, experimental, refinement or atomic coordinate data resulting 
# from the CCDC's data processing and validation procedures.
#
#######################################################################

data_MIKKOJ
_chemical_formula_moiety         'C47 H65 N5 O3'
_chemical_name_systematic        
5-[2,6-bis{2-[4-(dimethylamino)phenyl]ethenyl}-1-hexadecylpyridin-4(1H)-ylidene]-1,3-dimethylpyrimidine-2,4,6(1H,3H,5H)-trione
_symmetry_cell_setting           monoclinic
_symmetry_space_group_name_H-M   'P 21/n'
_symmetry_Int_Tables_number      14
_space_group_name_Hall           '-P 2yn'
loop_
_symmetry_equiv_pos_site_id
_symmetry_equiv_pos_as_xyz
1 x,y,z
2 1/2-x,1/2+y,1/2-z
3 -x,-y,-z
4 1/2+x,1/2-y,1/2+z
_cell_length_a                   6.0498(2)
_cell_length_b                   30.1902(7)
_cell_length_c                   27.8869(7)
_cell_angle_alpha                90
_cell_angle_beta                 90.9750(10)
_cell_angle_gamma                90
_cell_volume                     5092.66
_exptl_crystal_description       block
_cell_formula_units_Z            4
loop_
_atom_site_label
_atom_site_type_symbol
_atom_site_fract_x
_atom_site_fract_y
_atom_site_fract_z
O1 O -0.2711(4) 0.81852(8) 0.18702(11)
O2 O -0.1983(5) 0.66318(8) 0.17096(12)
O3 O -0.7531(5) 0.73788(10) 0.09863(11)
N1 N 0.3889(4) 0.74336(8) 0.27081(10)
N2 N -0.5060(4) 0.77759(9) 0.14280(11)
N3 N -0.4766(5) 0.70118(9) 0.13721(11)
N4 N 0.5568(5) 1.02963(9) 0.34381(12)
N5 N 0.6358(4) 0.45243(8) 0.31481(11)
C1 C 0.2796(4) 0.78200(9) 0.26007(12)
C2 C 0.0877(5) 0.78151(10) 0.23304(12)
H1 H 0.014394 0.808770 0.226759
C3 C -0.0051(5) 0.74207(9) 0.21419(12)
C4 C 0.1114(5) 0.70366(10) 0.22758(13)
H2 H 0.055598 0.675936 0.216755
C5 C 0.3016(5) 0.70370(10) 0.25544(12)
C6 C -0.2011(5) 0.74101(9) 0.18409(12)
C7 C -0.3191(5) 0.78107(11) 0.17247(13)
C8 C -0.5882(6) 0.73885(12) 0.12437(14)
C9 C -0.2828(5) 0.70023(11) 0.16503(13)
C10 C -0.6247(6) 0.81843(13) 0.13028(17)
H3 H -0.630930 0.837700 0.158499
H4 H -0.775279 0.811126 0.119428
H5 H -0.547290 0.833751 0.104533
C11 C -0.5678(8) 0.65917(14) 0.1200(2)
H6 H -0.483721 0.648914 0.092448
H7 H -0.723002 0.663323 0.110433
H8 H -0.557956 0.637075 0.145743
C12 C 0.3756(5) 0.82437(10) 0.27583(13)
H9 H 0.528201 0.829250 0.270279
C13 C 0.2640(5) 0.85612(10) 0.29719(12)
H10 H 0.115809 0.849484 0.305312
C14 C 0.3437(5) 0.90019(9) 0.30964(12)
C15 C 0.5435(5) 0.91710(11) 0.29409(14)
H11 H 0.634196 0.898879 0.274823
C16 C 0.6155(5) 0.95888(11) 0.30529(13)
H12 H 0.753395 0.968851 0.293601
C17 C 0.4892(5) 0.98720(10) 0.33372(13)
C18 C 0.2902(6) 0.97020(11) 0.35004(14)
H13 H 0.200947 0.987977 0.370077
C19 C 0.2196(5) 0.92823(11) 0.33786(13)
H14 H 0.081128 0.918181 0.349199
C20 C 0.7612(6) 1.04689(13) 0.32633(19)
H15 H 0.884996 1.030199 0.340503
H16 H 0.774856 1.078184 0.335220
H17 H 0.763516 1.044059 0.291334
C21 C 0.4185(7) 1.05884(15) 0.3712(2)
H18 H 0.277390 1.063262 0.354086
H19 H 0.492877 1.087446 0.375448
H20 H 0.391307 1.045661 0.402668
C22 C 0.4063(6) 0.66233(11) 0.27001(14)
H21 H 0.548163 0.664130 0.285039
C23 C 0.3209(5) 0.62284(11) 0.26409(13)
H22 H 0.180521 0.622233 0.248302
C24 C 0.4079(5) 0.57990(10) 0.27795(12)
C25 C 0.2903(5) 0.54183(11) 0.26617(13)
H23 H 0.153810 0.544679 0.249103
C26 C 0.3638(5) 0.50022(11) 0.27826(13)
H24 H 0.276962 0.475206 0.269434
C27 C 0.5613(5) 0.49385(10) 0.30299(12)
C28 C 0.6824(6) 0.53229(11) 0.31485(15)
H25 H 0.818892 0.529548 0.331936
C29 C 0.6072(5) 0.57349(11) 0.30227(14)
H26 H 0.694692 0.598597 0.310474
C30 C 0.5015(6) 0.41413(11) 0.30479(16)
H27 H 0.365231 0.415830 0.323204
H28 H 0.583265 0.387303 0.313871
H29 H 0.464486 0.413140 0.270455
C31 C 0.8402(6) 0.44604(13) 0.34065(18)
H30 H 0.959068 0.461562 0.324142
H31 H 0.874184 0.414330 0.342259
H32 H 0.826936 0.457848 0.373208
C32 C 0.5974(5) 0.74492(11) 0.29914(13)
H33 H 0.675364 0.772918 0.291982
H34 H 0.693358 0.720132 0.289145
C33 C 0.5627(6) 0.74194(13) 0.35227(14)
H35 H 0.497950 0.712756 0.360061
H36 H 0.457041 0.765140 0.362085
C34 C 0.7809(7) 0.74782(17) 0.38030(18)
H37 H 0.847615 0.776316 0.370601
H38 H 0.746986 0.750052 0.414819
C35 C 0.9495(7) 0.71211(19) 0.37418(19)
H39 H 1.092281 0.722687 0.387739
H40 H 0.969798 0.707178 0.339433
C36 C 0.8950(7) 0.66853(17) 0.39710(19)
H41 H 0.869830 0.673555 0.431659
H42 H 0.754923 0.657372 0.382733
C37 C 1.0688(7) 0.63346(19) 0.39208(18)
H43 H 1.078595 0.625665 0.357699
H44 H 1.212863 0.646342 0.402040
C38 C 1.0353(8) 0.59171(18) 0.41985(19)
H45 H 0.889450 0.579147 0.410709
H46 H 1.031249 0.599188 0.454387
C39 C 1.2081(8) 0.55680(19) 0.41277(18)
H47 H 1.208641 0.548632 0.378393
H48 H 1.354518 0.569722 0.420824
C40 C 1.1799(8) 0.51560(19) 0.4416(2)
H49 H 1.031185 0.503363 0.434440
H50 H 1.184772 0.523701 0.475999
C41 C 1.3480(8) 0.47966(18) 0.43349(18)
H51 H 1.345159 0.472148 0.398927
H52 H 1.496279 0.491877 0.441185
C42 C 1.3210(8) 0.43789(19) 0.46115(19)
H53 H 1.173431 0.425391 0.453355
H54 H 1.323824 0.445225 0.495762
C43 C 1.4925(8) 0.40268(19) 0.4523(2)
H55 H 1.485202 0.394640 0.417941
H56 H 1.640182 0.415739 0.458747
C44 C 1.4748(8) 0.36137(18) 0.4809(2)
H57 H 1.325876 0.348660 0.475123
H58 H 1.486158 0.369276 0.515284
C45 C 1.6417(9) 0.3263(2) 0.4711(2)
H59 H 1.629030 0.318298 0.436732
H60 H 1.790480 0.339262 0.476405
C46 C 1.6283(11) 0.2854(2) 0.4994(3)
H61 H 1.482375 0.271489 0.493288
H62 H 1.638150 0.293065 0.533851
C47 C 1.8073(14) 0.2522(3) 0.4882(4)
H63 H 1.775893 0.238475 0.456997
H64 H 1.811441 0.229233 0.513107
H65 H 1.950667 0.267249 0.487402
loop_
_geom_bond_atom_site_label_1
_geom_bond_atom_site_label_2
_geom_bond_site_symmetry_1
_geom_bond_site_symmetry_2
O1 C7 1_555 1_555
O2 C9 1_555 1_555
O3 C8 1_555 1_555
N1 C1 1_555 1_555
N2 C7 1_555 1_555
N3 C8 1_555 1_555
N4 C17 1_555 1_555
N5 C27 1_555 1_555
C1 C2 1_555 1_555
C2 H1 1_555 1_555
C3 C2 1_555 1_555
C4 C3 1_555 1_555
H2 C4 1_555 1_555
C5 N1 1_555 1_555
C6 C3 1_555 1_555
C7 C6 1_555 1_555
C8 N2 1_555 1_555
C9 N3 1_555 1_555
C10 N2 1_555 1_555
H3 C10 1_555 1_555
H4 C10 1_555 1_555
H5 C10 1_555 1_555
C11 N3 1_555 1_555
H6 C11 1_555 1_555
H7 C11 1_555 1_555
H8 C11 1_555 1_555
C12 C1 1_555 1_555
H9 C12 1_555 1_555
C13 C12 1_555 1_555
H10 C13 1_555 1_555
C14 C13 1_555 1_555
C15 C14 1_555 1_555
H11 C15 1_555 1_555
C16 C15 1_555 1_555
H12 C16 1_555 1_555
C17 C16 1_555 1_555
C18 C17 1_555 1_555
H13 C18 1_555 1_555
C19 C14 1_555 1_555
H14 C19 1_555 1_555
C20 N4 1_555 1_555
H15 C20 1_555 1_555
H16 C20 1_555 1_555
H17 C20 1_555 1_555
C21 N4 1_555 1_555
H18 C21 1_555 1_555
H19 C21 1_555 1_555
H20 C21 1_555 1_555
C22 C5 1_555 1_555
H21 C22 1_555 1_555
C23 C22 1_555 1_555
H22 C23 1_555 1_555
C24 C23 1_555 1_555
C25 C24 1_555 1_555
H23 C25 1_555 1_555
C26 C25 1_555 1_555
H24 C26 1_555 1_555
C27 C26 1_555 1_555
C28 C27 1_555 1_555
H25 C28 1_555 1_555
C29 C24 1_555 1_555
H26 C29 1_555 1_555
C30 N5 1_555 1_555
H27 C30 1_555 1_555
H28 C30 1_555 1_555
H29 C30 1_555 1_555
C31 N5 1_555 1_555
H30 C31 1_555 1_555
H31 C31 1_555 1_555
H32 C31 1_555 1_555
C32 N1 1_555 1_555
H33 C32 1_555 1_555
H34 C32 1_555 1_555
C33 C32 1_555 1_555
H35 C33 1_555 1_555
H36 C33 1_555 1_555
C34 C33 1_555 1_555
H37 C34 1_555 1_555
H38 C34 1_555 1_555
C35 C34 1_555 1_555
H39 C35 1_555 1_555
H40 C35 1_555 1_555
C36 C35 1_555 1_555
H41 C36 1_555 1_555
H42 C36 1_555 1_555
C37 C36 1_555 1_555
H43 C37 1_555 1_555
H44 C37 1_555 1_555
C38 C37 1_555 1_555
H45 C38 1_555 1_555
H46 C38 1_555 1_555
C39 C38 1_555 1_555
H47 C39 1_555 1_555
H48 C39 1_555 1_555
C40 C39 1_555 1_555
H49 C40 1_555 1_555
H50 C40 1_555 1_555
C41 C40 1_555 1_555
H51 C41 1_555 1_555
H52 C41 1_555 1_555
C42 C41 1_555 1_555
H53 C42 1_555 1_555
H54 C42 1_555 1_555
C43 C42 1_555 1_555
H55 C43 1_555 1_555
H56 C43 1_555 1_555
C44 C43 1_555 1_555
H57 C44 1_555 1_555
H58 C44 1_555 1_555
C45 C44 1_555 1_555
H59 C45 1_555 1_555
H60 C45 1_555 1_555
C46 C45 1_555 1_555
H61 C46 1_555 1_555
H62 C46 1_555 1_555
C47 C46 1_555 1_555
H63 C47 1_555 1_555
H64 C47 1_555 1_555
H65 C47 1_555 1_555
C4 C5 1_555 1_555
C6 C9 1_555 1_555
C18 C19 1_555 1_555
C28 C29 1_555 1_555

#END
