
#######################################################################
#
#                 Cambridge Crystallographic Data Centre
#                                CCDC 
#
#######################################################################
#
# If this CIF has been generated from an entry in the Cambridge 
# Structural Database, then it will include bibliographic, chemical, 
# crystal, experimental, refinement or atomic coordinate data resulting 
# from the CCDC's data processing and validation procedures.
#
#######################################################################

data_MIKVOU
_chemical_formula_moiety         'C22 H21 N1 O2'
_chemical_name_systematic        
'ethyl 2-(1-cyano-3-phenylprop-2-en-1-yl)-2,3-dihydro-1H-indene-2-carboxylate'
_symmetry_cell_setting           monoclinic
_symmetry_space_group_name_H-M   'P 21/c'
_symmetry_Int_Tables_number      14
_space_group_name_Hall           '-P 2ybc'
loop_
_symmetry_equiv_pos_site_id
_symmetry_equiv_pos_as_xyz
1 x,y,z
2 -x,1/2+y,1/2-z
3 -x,-y,-z
4 x,1/2-y,1/2+z
_cell_length_a                   9.8138(13)
_cell_length_b                   18.6316(18)
_cell_length_c                   10.3629(15)
_cell_angle_alpha                90
_cell_angle_beta                 110.440(10)
_cell_angle_gamma                90
_cell_volume                     1775.52
_exptl_crystal_colour            colorless
_exptl_crystal_description       prism
_cell_formula_units_Z            4
loop_
_atom_site_label
_atom_site_type_symbol
_atom_site_fract_x
_atom_site_fract_y
_atom_site_fract_z
O1 O 0.07431(10) 0.30864(5) 0.24154(9)
O2 O -0.00155(9) 0.28688(4) 0.01346(8)
N1 N 0.53172(12) 0.30857(6) 0.00375(11)
C1 C 0.23735(11) 0.33452(5) 0.11528(10)
C2 C 0.20648(12) 0.40475(6) 0.02734(11)
H1 H 0.2819(15) 0.4096(8) -0.0176(15)
H2 H 0.1115(17) 0.4047(8) -0.0452(16)
C3 C 0.22397(12) 0.46244(6) 0.13494(11)
C4 C 0.17516(13) 0.53319(6) 0.11825(12)
H3 H 0.1208(18) 0.5524(9) 0.0252(17)
C5 C 0.20300(14) 0.57649(6) 0.23518(14)
H4 H 0.1655(19) 0.6268(10) 0.2247(18)
C6 C 0.27943(14) 0.54936(7) 0.36633(13)
H5 H 0.2967(17) 0.5790(9) 0.4486(16)
C7 C 0.33015(13) 0.47851(6) 0.38299(12)
H6 H 0.3825(17) 0.4601(9) 0.4752(17)
C8 C 0.30208(12) 0.43564(6) 0.26646(11)
C9 C 0.34621(12) 0.35857(6) 0.25711(11)
H7 H 0.3409(15) 0.3300(8) 0.3326(14)
H8 H 0.4480(16) 0.3562(8) 0.2560(15)
C10 C 0.09625(12) 0.30912(6) 0.13364(11)
C11 C -0.13432(14) 0.25509(8) 0.02220(14)
H9 H -0.190(2) 0.2932(11) 0.043(2)
H10 H -0.102(2) 0.2199(11) 0.102(2)
C12 C -0.21566(15) 0.22078(8) -0.11368(15)
H11 H -0.246(3) 0.2558(13) -0.189(2)
H12 H -0.303(2) 0.1995(10) -0.108(2)
H13 H -0.154(2) 0.1869(13) -0.140(2)
C13 C 0.29198(12) 0.27184(6) 0.04573(11)
H14 H 0.2192(16) 0.2618(8) -0.0452(15)
C14 C 0.42658(12) 0.29324(6) 0.02202(11)
C15 C 0.31841(12) 0.20304(6) 0.12984(11)
H15 H 0.4049(18) 0.2007(9) 0.2140(17)
C16 C 0.22562(12) 0.14776(6) 0.09315(11)
H16 H 0.1398(18) 0.1523(9) 0.0096(17)
C17 C 0.23857(12) 0.07963(6) 0.16922(11)
C18 C 0.37326(13) 0.05171(6) 0.25373(12)
H17 H 0.4643(16) 0.0776(8) 0.2637(15)
C19 C 0.37915(14) -0.01384(6) 0.32119(12)
H18 H 0.4752(18) -0.0310(9) 0.3777(16)
C20 C 0.25182(15) -0.05164(6) 0.30583(12)
H19 H 0.2593(19) -0.0958(10) 0.3552(18)
C21 C 0.11799(15) -0.02448(6) 0.22252(13)
H20 H 0.0266(18) -0.0484(9) 0.2121(16)
C22 C 0.11189(13) 0.04055(6) 0.15391(12)
H21 H 0.0176(17) 0.0587(8) 0.0936(16)
loop_
_geom_bond_atom_site_label_1
_geom_bond_atom_site_label_2
_geom_bond_site_symmetry_1
_geom_bond_site_symmetry_2
O1 C10 1_555 1_555
O2 C10 1_555 1_555
N1 C14 1_555 1_555
C1 C2 1_555 1_555
C2 H1 1_555 1_555
H2 C2 1_555 1_555
C3 C2 1_555 1_555
C4 C3 1_555 1_555
H3 C4 1_555 1_555
C5 C4 1_555 1_555
H4 C5 1_555 1_555
C6 C5 1_555 1_555
H5 C6 1_555 1_555
C7 C6 1_555 1_555
H6 C7 1_555 1_555
C8 C3 1_555 1_555
C9 C1 1_555 1_555
H7 C9 1_555 1_555
H8 C9 1_555 1_555
C10 C1 1_555 1_555
C11 O2 1_555 1_555
H9 C11 1_555 1_555
H10 C11 1_555 1_555
C12 C11 1_555 1_555
H11 C12 1_555 1_555
H12 C12 1_555 1_555
H13 C12 1_555 1_555
C13 C1 1_555 1_555
H14 C13 1_555 1_555
C14 C13 1_555 1_555
C15 C13 1_555 1_555
H15 C15 1_555 1_555
C16 C15 1_555 1_555
H16 C16 1_555 1_555
C17 C16 1_555 1_555
C18 C17 1_555 1_555
H17 C18 1_555 1_555
C19 C18 1_555 1_555
H18 C19 1_555 1_555
C20 C19 1_555 1_555
H19 C20 1_555 1_555
C21 C20 1_555 1_555
H20 C21 1_555 1_555
C22 C17 1_555 1_555
H21 C22 1_555 1_555
C7 C8 1_555 1_555
C8 C9 1_555 1_555
C21 C22 1_555 1_555

#END
