
#######################################################################
#
#                 Cambridge Crystallographic Data Centre
#                                CCDC 
#
#######################################################################
#
# If this CIF has been generated from an entry in the Cambridge 
# Structural Database, then it will include bibliographic, chemical, 
# crystal, experimental, refinement or atomic coordinate data resulting 
# from the CCDC's data processing and validation procedures.
#
#######################################################################

data_MIKXAG
_chemical_formula_moiety         'C23 H31 N1 O5'
_chemical_name_systematic        
7-(1-Hydroxyethyl)-3,6-dimethoxy-17-methyl-18,19-dihydro-4,5-epoxy-6,14-ethenomorphinan-19-ol
_symmetry_cell_setting           orthorhombic
_symmetry_space_group_name_H-M   'P 21 21 21'
_symmetry_Int_Tables_number      19
_space_group_name_Hall           'P 2ac 2ab'
loop_
_symmetry_equiv_pos_site_id
_symmetry_equiv_pos_as_xyz
1 x,y,z
2 1/2-x,-y,1/2+z
3 -x,1/2+y,1/2-z
4 1/2+x,1/2-y,-z
_cell_length_a                   8.660(2)
_cell_length_b                   13.876(4)
_cell_length_c                   17.049(5)
_cell_angle_alpha                90
_cell_angle_beta                 90
_cell_angle_gamma                90
_cell_volume                     2048.71
_exptl_crystal_colour            colorless
_exptl_crystal_description       irregular
_cell_formula_units_Z            4
loop_
_atom_site_label
_atom_site_type_symbol
_atom_site_fract_x
_atom_site_fract_y
_atom_site_fract_z
C1 C 0.2165(3) 0.53199(17) 0.30693(17)
H1 H 0.2541 0.4731 0.2892
C2 C 0.1828(3) 0.54423(19) 0.38508(18)
H2 H 0.1922 0.4916 0.4185
C3 C 0.1355(3) 0.63148(19) 0.41620(16)
O1 O 0.1150(2) 0.64675(18) 0.49496(12)
C4 C 0.2438(5) 0.6560(3) 0.5388(2)
H3 H 0.2167 0.6548 0.5934
H4 H 0.2935 0.7160 0.5267
H5 H 0.3129 0.6037 0.5276
C5 C 0.1120(3) 0.70479(16) 0.36322(14)
C6 C 0.1015(2) 0.85540(16) 0.30874(13)
H6 H 0.0083 0.8943 0.3011
O2 O 0.08563(19) 0.79987(12) 0.38150(9)
C7 C 0.2413(2) 0.92109(14) 0.30669(12)
O3 O 0.2276(2) 0.99569(11) 0.36414(9)
C8 C 0.2534(5) 0.9744(2) 0.44431(14)
H7 H 0.2412 1.0320 0.4749
H8 H 0.3562 0.9499 0.4509
H9 H 0.1802 0.9269 0.4615
C9 C 0.2367(2) 0.97151(12) 0.22616(11)
H10 H 0.1318 0.9965 0.2188
C10 C 0.3475(2) 1.05575(14) 0.21672(12)
H11 H 0.4532 1.0318 0.2233
O4 O 0.3210(2) 1.12934(12) 0.27293(12)
H12 H 0.288(4) 1.099(2) 0.3134(19)
C11 C 0.3351(3) 1.10310(17) 0.13794(15)
H13 H 0.4080 1.1551 0.1347
H14 H 0.2325 1.1278 0.1310
H15 H 0.3569 1.0567 0.0976
C12 C 0.2666(3) 0.89648(13) 0.16017(12)
H16 H 0.1881 0.9027 0.1199
H17 H 0.3664 0.9085 0.1363
C13 C 0.2602(3) 0.71272(14) 0.13374(13)
H18 H 0.3549 0.7178 0.1025
C14 C 0.2605(3) 0.61121(14) 0.17340(14)
H19 H 0.2026 0.5672 0.1404
H20 H 0.3662 0.5881 0.1754
C15 C 0.1946(2) 0.60708(14) 0.25444(15)
C16 C 0.1310(2) 0.68971(14) 0.28460(14)
C17 C 0.1139(2) 0.78231(13) 0.24192(12)
C18 C 0.2629(2) 0.79471(13) 0.19421(11)
C19 C -0.0276(3) 0.78467(16) 0.18833(15)
H21 H -0.1189 0.7695 0.2189
H22 H -0.0401 0.8493 0.1676
C20 C -0.0152(3) 0.71488(18) 0.12143(17)
H23 H -0.0223 0.6495 0.1413
H24 H -0.1002 0.7251 0.0853
N1 N 0.1296(3) 0.72711(13) 0.08035(11)
C21 C 0.1366(4) 0.6664(2) 0.01096(15)
H25 H 0.0480 0.6785 -0.0214
H26 H 0.1375 0.5999 0.0265
H27 H 0.2289 0.6807 -0.0180
C22 C 0.4036(2) 0.78868(14) 0.24890(12)
H28 H 0.4077 0.7241 0.2720
O5 O 0.54111(17) 0.80481(10) 0.20564(11)
H29 H 0.591(3) 0.754(2) 0.2085(17)
C23 C 0.3894(2) 0.86251(15) 0.31452(12)
H30 H 0.4776 0.9056 0.3130
H31 H 0.3900 0.8297 0.3647
loop_
_geom_bond_atom_site_label_1
_geom_bond_atom_site_label_2
_geom_bond_site_symmetry_1
_geom_bond_site_symmetry_2
C1 H1 1_555 1_555
C2 C1 1_555 1_555
H2 C2 1_555 1_555
C3 C2 1_555 1_555
O1 C3 1_555 1_555
C4 O1 1_555 1_555
H3 C4 1_555 1_555
H4 C4 1_555 1_555
H5 C4 1_555 1_555
C5 C3 1_555 1_555
C6 H6 1_555 1_555
O2 C5 1_555 1_555
C7 C6 1_555 1_555
O3 C7 1_555 1_555
C8 O3 1_555 1_555
H7 C8 1_555 1_555
H8 C8 1_555 1_555
H9 C8 1_555 1_555
C9 C7 1_555 1_555
H10 C9 1_555 1_555
C10 C9 1_555 1_555
H11 C10 1_555 1_555
O4 C10 1_555 1_555
H12 O4 1_555 1_555
C11 C10 1_555 1_555
H13 C11 1_555 1_555
H14 C11 1_555 1_555
H15 C11 1_555 1_555
C12 C9 1_555 1_555
H16 C12 1_555 1_555
H17 C12 1_555 1_555
C13 H18 1_555 1_555
C14 C13 1_555 1_555
H19 C14 1_555 1_555
H20 C14 1_555 1_555
C15 C1 1_555 1_555
C16 C5 1_555 1_555
C17 C6 1_555 1_555
C18 C12 1_555 1_555
C19 C17 1_555 1_555
H21 C19 1_555 1_555
H22 C19 1_555 1_555
C20 C19 1_555 1_555
H23 C20 1_555 1_555
H24 C20 1_555 1_555
N1 C13 1_555 1_555
C21 N1 1_555 1_555
H25 C21 1_555 1_555
H26 C21 1_555 1_555
H27 C21 1_555 1_555
C22 C18 1_555 1_555
H28 C22 1_555 1_555
O5 C22 1_555 1_555
H29 O5 1_555 1_555
C23 C7 1_555 1_555
H30 C23 1_555 1_555
H31 C23 1_555 1_555
C6 O2 1_555 1_555
C13 C18 1_555 1_555
C14 C15 1_555 1_555
C15 C16 1_555 1_555
C16 C17 1_555 1_555
C17 C18 1_555 1_555
C20 N1 1_555 1_555
C22 C23 1_555 1_555

#END
