
#######################################################################
#
#                 Cambridge Crystallographic Data Centre
#                                CCDC 
#
#######################################################################
#
# If this CIF has been generated from an entry in the Cambridge 
# Structural Database, then it will include bibliographic, chemical, 
# crystal, experimental, refinement or atomic coordinate data resulting 
# from the CCDC's data processing and validation procedures.
#
#######################################################################

data_MILFIX
_chemical_formula_moiety         'C28 H40 N4 O1'
_chemical_name_systematic        
1-decanoyl-4-(4-[(4-ethylphenyl)diazenyl]phenyl)piperazine
_symmetry_cell_setting           orthorhombic
_symmetry_space_group_name_H-M   'P 21 21 21'
_symmetry_Int_Tables_number      19
_space_group_name_Hall           'P 2ac 2ab'
loop_
_symmetry_equiv_pos_site_id
_symmetry_equiv_pos_as_xyz
1 x,y,z
2 1/2-x,-y,1/2+z
3 -x,1/2+y,1/2-z
4 1/2+x,1/2-y,-z
_cell_length_a                   5.7360(4)
_cell_length_b                   7.6130(6)
_cell_length_c                   59.235(5)
_cell_angle_alpha                90
_cell_angle_beta                 90
_cell_angle_gamma                90
_cell_volume                     2586.68
_exptl_crystal_colour            orange
_cell_formula_units_Z            4
_exptl_crystal_recrystallization_method dichloromethane/hexane
loop_
_atom_site_label
_atom_site_type_symbol
_atom_site_fract_x
_atom_site_fract_y
_atom_site_fract_z
O1 O 0.5040(4) -0.0101(3) 0.87926(3)
N1 N 0.5775(4) -0.0927(3) 1.06488(4)
N2 N 0.7331(4) -0.0132(3) 1.05441(4)
N3 N 0.6724(4) 0.0386(3) 0.95978(3)
N4 N 0.6486(4) 0.0880(3) 0.91209(4)
C1 C 0.8339(7) -0.2319(5) 1.16972(5)
H1 H 0.8357(7) -0.2330(5) 1.18592(5)
H2 H 0.9824(7) -0.1925(5) 1.16421(5)
H3 H 0.8037(7) -0.3483(5) 1.16422(5)
C2 C 0.6447(6) -0.1087(5) 1.16152(5)
H4 H 0.4957(6) -0.1478(5) 1.16743(5)
H5 H 0.6744(6) 0.0080(5) 1.16741(5)
C3 C 0.6304(6) -0.0995(4) 1.13605(5)
C4 C 0.8078(6) -0.0269(4) 1.12320(5)
H6 H 0.9378(6) 0.0193(4) 1.13049(5)
C5 C 0.7978(6) -0.0209(4) 1.10008(5)
H7 H 0.9195(6) 0.0291(4) 1.09193(5)
C6 C 0.6055(5) -0.0897(4) 1.08882(4)
C7 C 0.4283(5) -0.1619(4) 1.10131(5)
H8 H 0.2988(5) -0.2087(4) 1.09402(5)
C8 C 0.4403(6) -0.1657(4) 1.12461(5)
H9 H 0.3174(6) -0.2140(4) 1.13275(5)
C9 C 0.7071(5) -0.0128(3) 1.03058(4)
C10 C 0.8794(5) 0.0729(4) 1.01867(5)
H10 H 1.0029(5) 0.1233(4) 1.02651(5)
C11 C 0.8739(5) 0.0860(4) 0.99545(5)
H11 H 0.9940(5) 0.1440(4) 0.98800(5)
C12 C 0.6910(5) 0.0136(3) 0.98291(4)
C13 C 0.5187(5) -0.0746(4) 0.99536(5)
H12 H 0.3950(5) -0.1262(4) 0.98767(5)
C14 C 0.5261(5) -0.0874(4) 1.01843(5)
H13 H 0.4082(5) -0.1469(4) 1.02602(5)
C15 C 0.8758(5) 0.0965(4) 0.94677(4)
H14 H 0.9687(5) -0.0049(4) 0.94259(4)
H15 H 0.9716(5) 0.1726(4) 0.95608(4)
C16 C 0.8037(5) 0.1939(4) 0.92576(4)
H16 H 0.7259(5) 0.3022(4) 0.92995(4)
H17 H 0.9412(5) 0.2240(4) 0.91704(4)
C17 C 0.4462(5) 0.0271(4) 0.92479(4)
H18 H 0.3541(5) -0.0507(4) 0.91537(4)
H19 H 0.3497(5) 0.1269(4) 0.92881(4)
C18 C 0.5182(5) -0.0692(4) 0.94603(4)
H20 H 0.3805(5) -0.0995(4) 0.95470(4)
H21 H 0.5973(5) -0.1773(4) 0.94198(4)
C19 C 0.6557(5) 0.0715(4) 0.88927(5)
C20 C 0.8622(5) 0.1519(4) 0.87712(4)
H22 H 1.0046(5) 0.1044(4) 0.88351(4)
H23 H 0.8624(5) 0.2776(4) 0.87977(4)
C21 C 0.8625(6) 0.1189(4) 0.85174(4)
H24 H 1.0143(6) 0.1515(4) 0.84587(4)
H25 H 0.8434(6) -0.0062(4) 0.84925(4)
C22 C 0.6795(6) 0.2138(4) 0.83817(4)
H26 H 0.7065(6) 0.3393(4) 0.83924(4)
H27 H 0.5273(6) 0.1896(4) 0.84460(4)
C23 C 0.6789(6) 0.1605(5) 0.81340(5)
H28 H 0.8240(6) 0.1989(5) 0.80660(5)
H29 H 0.6744(6) 0.0333(5) 0.81252(5)
C24 C 0.4801(7) 0.2329(5) 0.79975(5)
H30 H 0.4944(7) 0.3598(5) 0.79918(5)
H31 H 0.3351(7) 0.2056(5) 0.80742(5)
C25 C 0.4669(7) 0.1636(5) 0.77591(5)
H32 H 0.6119(7) 0.1922(5) 0.76832(5)
H33 H 0.4560(7) 0.0366(5) 0.77661(5)
C26 C 0.2687(7) 0.2304(6) 0.76167(5)
H34 H 0.1232(7) 0.2023(6) 0.76920(5)
H35 H 0.2797(7) 0.3574(6) 0.76079(5)
C27 C 0.2602(9) 0.1583(6) 0.73820(6)
H36 H 0.2504(9) 0.0313(6) 0.73913(6)
H37 H 0.4056(9) 0.1870(6) 0.73070(6)
C28 C 0.0630(8) 0.2228(8) 0.72384(7)
H38 H 0.0722(8) 0.1695(8) 0.70918(7)
H39 H 0.0729(8) 0.3481(8) 0.72235(7)
H40 H -0.0826(8) 0.1921(8) 0.73080(7)
loop_
_geom_bond_atom_site_label_1
_geom_bond_atom_site_label_2
_geom_bond_site_symmetry_1
_geom_bond_site_symmetry_2
O1 C19 1_555 1_555
N1 N2 1_555 1_555
N2 C9 1_555 1_555
N3 C12 1_555 1_555
N4 C16 1_555 1_555
C1 H1 1_555 1_555
H2 C1 1_555 1_555
H3 C1 1_555 1_555
C2 C1 1_555 1_555
H4 C2 1_555 1_555
H5 C2 1_555 1_555
C3 C2 1_555 1_555
C4 C3 1_555 1_555
H6 C4 1_555 1_555
C5 C4 1_555 1_555
H7 C5 1_555 1_555
C6 N1 1_555 1_555
C7 C6 1_555 1_555
H8 C7 1_555 1_555
C8 C3 1_555 1_555
H9 C8 1_555 1_555
C9 C10 1_555 1_555
C10 H10 1_555 1_555
C11 C10 1_555 1_555
H11 C11 1_555 1_555
C12 C11 1_555 1_555
C13 C12 1_555 1_555
H12 C13 1_555 1_555
C14 C9 1_555 1_555
H13 C14 1_555 1_555
C15 N3 1_555 1_555
H14 C15 1_555 1_555
H15 C15 1_555 1_555
C16 C15 1_555 1_555
H16 C16 1_555 1_555
H17 C16 1_555 1_555
C17 N4 1_555 1_555
H18 C17 1_555 1_555
H19 C17 1_555 1_555
C18 N3 1_555 1_555
H20 C18 1_555 1_555
H21 C18 1_555 1_555
C19 N4 1_555 1_555
C20 C19 1_555 1_555
H22 C20 1_555 1_555
H23 C20 1_555 1_555
C21 C20 1_555 1_555
H24 C21 1_555 1_555
H25 C21 1_555 1_555
C22 C21 1_555 1_555
H26 C22 1_555 1_555
H27 C22 1_555 1_555
C23 C22 1_555 1_555
H28 C23 1_555 1_555
H29 C23 1_555 1_555
C24 C23 1_555 1_555
H30 C24 1_555 1_555
H31 C24 1_555 1_555
C25 C24 1_555 1_555
H32 C25 1_555 1_555
H33 C25 1_555 1_555
C26 C25 1_555 1_555
H34 C26 1_555 1_555
H35 C26 1_555 1_555
C27 C26 1_555 1_555
H36 C27 1_555 1_555
H37 C27 1_555 1_555
C28 C27 1_555 1_555
H38 C28 1_555 1_555
H39 C28 1_555 1_555
H40 C28 1_555 1_555
C5 C6 1_555 1_555
C7 C8 1_555 1_555
C13 C14 1_555 1_555
C17 C18 1_555 1_555

#END
