
#######################################################################
#
#                 Cambridge Crystallographic Data Centre
#                                CCDC 
#
#######################################################################
#
# If this CIF has been generated from an entry in the Cambridge 
# Structural Database, then it will include bibliographic, chemical, 
# crystal, experimental, refinement or atomic coordinate data resulting 
# from the CCDC's data processing and validation procedures.
#
#######################################################################

data_MILFIW
_chemical_formula_moiety         'C26 H30 N4 O6 S1'
_chemical_name_systematic        
'(4S)-Benzofuran-2-carboxylic acid ((S)-3-methyl-1-(3-oxo-1-(pyridin-2-ylsulfonyl)azepan-4-ylcarbamoyl)butyl)amide'
_chemical_properties_biological  
'potent, selective inhibitor of human cathepsin K'
_symmetry_cell_setting           orthorhombic
_symmetry_space_group_name_H-M   'P 21 21 21'
_symmetry_Int_Tables_number      19
_space_group_name_Hall           'P 2ac 2ab'
loop_
_symmetry_equiv_pos_site_id
_symmetry_equiv_pos_as_xyz
1 x,y,z
2 1/2-x,-y,1/2+z
3 1/2+x,1/2-y,-z
4 -x,1/2+y,1/2-z
_cell_length_a                   10.026(3)
_cell_length_b                   19.254(3)
_cell_length_c                   26.975(8)
_cell_angle_alpha                90
_cell_angle_beta                 90
_cell_angle_gamma                90
_cell_volume                     5207.27
_exptl_crystal_colour            colorless
_exptl_crystal_description       plates
_cell_formula_units_Z            8
_exptl_crystal_recrystallization_method dichloroethane/hexane
loop_
_atom_site_label
_atom_site_type_symbol
_atom_site_fract_x
_atom_site_fract_y
_atom_site_fract_z
S1 S 0.0674(3) -0.0756(1) 0.1602(1)
N1 N -0.0053(7) -0.0015(3) 0.1631(3)
N2 N 0.0838(7) 0.1856(3) 0.0879(3)
N3 N 0.1769(6) 0.2709(4) 0.0053(2)
N4 N -0.0917(8) -0.1474(4) 0.2176(3)
O1 O 0.1101(8) -0.0834(4) 0.1105(3)
O2 O 0.1605(7) -0.0791(4) 0.2006(3)
O3 O -0.1348(6) 0.1114(3) 0.0694(2)
O4 O 0.2940(5) 0.1996(3) 0.1158(2)
O5 O 0.3882(5) 0.2444(3) -0.0192(2)
O6 O 0.3116(5) 0.2274(3) -0.1142(2)
C1 C -0.1004(10) 0.0195(5) 0.1245(4)
C2 C -0.0628(8) 0.0881(4) 0.1016(3)
C3 C 0.0599(8) 0.1264(4) 0.1194(3)
C4 C 0.0420(10) 0.1479(5) 0.1742(3)
C5 C 0.0905(9) 0.0989(5) 0.2174(3)
C6 C -0.0284(9) 0.0324(5) 0.2102(3)
C7 C 0.2034(8) 0.2189(4) 0.0884(3)
C8 C 0.2149(8) 0.2830(4) 0.0569(3)
C9 C 0.1378(8) 0.3441(4) 0.0781(3)
C10 C 0.1742(9) 0.3660(5) 0.1305(3)
C11 C 0.0820(11) 0.4228(5) 0.1502(4)
C12 C 0.3210(12) 0.3882(9) 0.1350(5)
C13 C 0.2691(7) 0.2544(4) -0.0295(3)
C14 C 0.2193(8) 0.2488(4) -0.0797(3)
C15 C 0.1004(8) 0.2658(4) -0.1018(3)
C16 C 0.0364(9) 0.2584(5) -0.1959(3)
C17 C 0.0900(10) 0.2397(5) -0.2405(3)
C18 C 0.2209(10) 0.2158(5) -0.2443(4)
C19 C 0.3010(9) 0.2084(5) -0.2042(3)
C20 C 0.2460(8) 0.2278(4) -0.1596(3)
C21 C 0.1169(8) 0.2524(4) -0.1537(3)
C22 C -0.0574(9) -0.1409(4) 0.1702(4)
C23 C -0.1108(11) -0.1760(6) 0.1318(4)
C24 C -0.2105(12) -0.2235(6) 0.1432(5)
C25 C -0.2510(12) -0.2322(5) 0.1905(5)
C26 C -0.1915(11) -0.1941(6) 0.2268(5)
H1 H 0.0360(60) 0.1990(40) 0.0622(17)
H2 H 0.0960(60) 0.2600(70) -0.0040(60)
H3 H -0.1907 0.0231 0.1391
H4 H -0.1032 -0.0166 0.0983
H5 H 0.1383 0.0945 0.1170
H6 H -0.0543 0.1565 0.1795
H7 H 0.0879 0.1930 0.1786
H8 H 0.0840 0.1216 0.2502
H9 H 0.1826 0.0820 0.2120
H10 H -0.0200 -0.0017 0.2376
H11 H -0.1196 0.0521 0.2111
H12 H 0.3112 0.2966 0.0568
H13 H 0.1510 0.3845 0.0560
H14 H 0.0417 0.3324 0.0775
H15 H 0.1618 0.3244 0.1522
H16 H 0.0966 0.4286 0.1858
H17 H -0.0110 0.4097 0.1442
H18 H 0.1014 0.4666 0.1331
H19 H 0.332(14) 0.4000(70) 0.1650(50)
H20 H 0.340(13) 0.4210(70) 0.0980(50)
H21 H 0.371(13) 0.3450(60) 0.1160(50)
H22 H 0.0227 0.2831 -0.0859
H23 H -0.0528 0.2748 -0.1936
H24 H 0.0370 0.2432 -0.2696
H25 H 0.2551 0.2043 -0.2761
H26 H 0.3894 0.1910 -0.2067
H27 H -0.0818 -0.1687 0.0987
H28 H -0.2506 -0.2500 0.1175
H29 H -0.3196 -0.2644 0.1984
H30 H -0.2208 -0.2001 0.2600
S2 S 0.4189(3) 0.5118(1) 0.2735(1)
N5 N 0.4844(7) 0.4850(4) 0.3250(3)
N6 N 0.3855(7) 0.3725(4) 0.4558(3)
N7 N 0.2901(7) 0.2680(3) 0.5185(3)
N8 N 0.5884(11) 0.4594(5) 0.2054(4)
O7 O 0.3336(7) 0.4574(4) 0.2559(3)
O8 O 0.3677(6) 0.5800(4) 0.2823(3)
O9 O 0.5455(8) 0.3218(4) 0.3865(3)
O10 O 0.2088(7) 0.4373(3) 0.4779(3)
O11 O 0.0886(6) 0.2415(3) 0.4862(3)
O12 O 0.1585(5) 0.1079(3) 0.4701(2)
C27 C 0.5241(9) 0.4120(4) 0.3281(3)
C28 C 0.5017(9) 0.3793(5) 0.3777(3)
C29 C 0.4229(9) 0.4188(4) 0.4161(3)
C30 C 0.5068(10) 0.4800(5) 0.4356(4)
C31 C 0.5100(11) 0.5460(5) 0.4057(3)
C32 C 0.5672(10) 0.5353(5) 0.3521(3)
C33 C 0.2790(9) 0.3870(4) 0.4855(3)
C34 C 0.2568(9) 0.3397(4) 0.5287(3)
C35 C 0.3290(9) 0.3659(5) 0.5748(3)
C36 C 0.2759(12) 0.3348(6) 0.6233(4)
C37 C 0.1344(13) 0.3591(8) 0.6348(5)
C38 C 0.3726(14) 0.3549(7) 0.6661(4)
C39 C 0.2039(9) 0.2240(4) 0.4969(3)
C40 C 0.2522(8) 0.1537(4) 0.4892(4)
C41 C 0.3706(9) 0.1208(4) 0.4970(4)
C42 C 0.4288(10) -0.0107(4) 0.4842(4)
C43 C 0.3717(11) -0.0721(5) 0.4711(4)
C44 C 0.2393(10) -0.0748(5) 0.4559(4)
C45 C 0.1601(9) -0.0164(4) 0.4536(3)
C46 C 0.2208(8) 0.0439(4) 0.4678(3)
C47 C 0.3530(8) 0.0496(4) 0.4830(4)
C48 C 0.5546(9) 0.5186(5) 0.2304(3)
C49 C 0.6159(11) 0.5778(4) 0.2269(4)
C50 C 0.7188(14) 0.5806(6) 0.1944(5)
C51 C 0.7600(12) 0.5279(6) 0.1669(4)
C52 C 0.6947(13) 0.4664(7) 0.1720(5)
H31 H 0.4240(80) 0.3330(20) 0.4640(30)
H32 H 0.3590(50) 0.2460(40) 0.5310(30)
H33 H 0.6201 0.4084 0.3198
H34 H 0.4739 0.3854 0.3029
H35 H 0.3402 0.4375 0.4003
H36 H 0.4737 0.4918 0.4692
H37 H 0.5998 0.4636 0.4394
H38 H 0.5652 0.5807 0.4233
H39 H 0.4183 0.5647 0.4032
H40 H 0.5680 0.5802 0.3343
H41 H 0.6600 0.5181 0.3542
H42 H 0.1592 0.3411 0.5362
H43 H 0.3206 0.4171 0.5764
H44 H 0.4251 0.3547 0.5718
H45 H 0.2752 0.2831 0.6200
H46 H 0.1118 0.3468 0.6690
H47 H 0.0716 0.3365 0.6121
H48 H 0.1289 0.4096 0.6307
H49 H 0.4646 0.3448 0.6562
H50 H 0.3503 0.3280 0.6958
H51 H 0.3638 0.4046 0.6733
H52 H 0.4501 0.1413 0.5094
H53 H 0.5197 -0.0091 0.4940
H54 H 0.4229 -0.1135 0.4724
H55 H 0.2022 -0.1184 0.4467
H56 H 0.0698 -0.0179 0.4429
H57 H 0.5900 0.6170 0.2460
H58 H 0.7648 0.6235 0.1912
H59 H 0.8323 0.5329 0.1444
H60 H 0.7215 0.4276 0.1526
C53? C -0.0090(40) 0.1040(20) 0.2058(15)
H61? H -0.0136 0.1894 0.1749
H62? H 0.1278 0.1622 0.1867
H63? H -0.0998 0.1227 0.2109
H64? H 0.0398 0.1155 0.2367
H65? H 0.0309 0.0135 0.2353
H66? H -0.1188 0.0232 0.2218
loop_
_geom_bond_atom_site_label_1
_geom_bond_atom_site_label_2
_geom_bond_site_symmetry_1
_geom_bond_site_symmetry_2
S1 N1 1_555 1_555
N1 C1 1_555 1_555
N2 C3 1_555 1_555
N3 C8 1_555 1_555
N4 C22 1_555 1_555
O1 S1 1_555 1_555
O2 S1 1_555 1_555
O3 C2 1_555 1_555
O4 C7 1_555 1_555
O5 C13 1_555 1_555
O6 C14 1_555 1_555
C1 C2 1_555 1_555
C2 C3 1_555 1_555
C3 C4 1_555 1_555
C4 C5 1_555 1_555
C5 C6 1_555 1_555
C6 N1 1_555 1_555
C7 N2 1_555 1_555
C8 C7 1_555 1_555
C9 C8 1_555 1_555
C10 C9 1_555 1_555
C11 C10 1_555 1_555
C12 C10 1_555 1_555
C13 N3 1_555 1_555
C14 C13 1_555 1_555
C15 C14 1_555 1_555
C16 C17 1_555 1_555
C17 C18 1_555 1_555
C18 C19 1_555 1_555
C19 C20 1_555 1_555
C20 O6 1_555 1_555
C21 C15 1_555 1_555
C22 S1 1_555 1_555
C23 C22 1_555 1_555
C24 C23 1_555 1_555
C25 C24 1_555 1_555
C26 N4 1_555 1_555
H1 N2 1_555 1_555
H2 N3 1_555 1_555
H3 C1 1_555 1_555
H4 C1 1_555 1_555
H5 C3 1_555 1_555
H6 C4 1_555 1_555
H7 C4 1_555 1_555
H8 C5 1_555 1_555
H9 C5 1_555 1_555
H10 C6 1_555 1_555
H11 C6 1_555 1_555
H12 C8 1_555 1_555
H13 C9 1_555 1_555
H14 C9 1_555 1_555
H15 C10 1_555 1_555
H16 C11 1_555 1_555
H17 C11 1_555 1_555
H18 C11 1_555 1_555
H19 C12 1_555 1_555
H20 C12 1_555 1_555
H21 C12 1_555 1_555
H22 C15 1_555 1_555
H23 C16 1_555 1_555
H24 C17 1_555 1_555
H25 C18 1_555 1_555
H26 C19 1_555 1_555
H27 C23 1_555 1_555
H28 C24 1_555 1_555
H29 C25 1_555 1_555
H30 C26 1_555 1_555
S2 N5 1_555 1_555
N5 C27 1_555 1_555
N6 C29 1_555 1_555
N7 C34 1_555 1_555
N8 C48 1_555 1_555
O7 S2 1_555 1_555
O8 S2 1_555 1_555
O9 C28 1_555 1_555
O10 C33 1_555 1_555
O11 C39 1_555 1_555
O12 C40 1_555 1_555
C27 C28 1_555 1_555
C28 C29 1_555 1_555
C29 C30 1_555 1_555
C30 C31 1_555 1_555
C31 C32 1_555 1_555
C32 N5 1_555 1_555
C33 N6 1_555 1_555
C34 C33 1_555 1_555
C35 C34 1_555 1_555
C36 C35 1_555 1_555
C37 C36 1_555 1_555
C38 C36 1_555 1_555
C39 N7 1_555 1_555
C40 C39 1_555 1_555
C41 C40 1_555 1_555
C42 C43 1_555 1_555
C43 C44 1_555 1_555
C44 C45 1_555 1_555
C45 C46 1_555 1_555
C46 O12 1_555 1_555
C47 C41 1_555 1_555
C48 S2 1_555 1_555
C49 C48 1_555 1_555
C50 C49 1_555 1_555
C51 C50 1_555 1_555
C52 N8 1_555 1_555
H31 N6 1_555 1_555
H32 N7 1_555 1_555
H33 C27 1_555 1_555
H34 C27 1_555 1_555
H35 C29 1_555 1_555
H36 C30 1_555 1_555
H37 C30 1_555 1_555
H38 C31 1_555 1_555
H39 C31 1_555 1_555
H40 C32 1_555 1_555
H41 C32 1_555 1_555
H42 C34 1_555 1_555
H43 C35 1_555 1_555
H44 C35 1_555 1_555
H45 C36 1_555 1_555
H46 C37 1_555 1_555
H47 C37 1_555 1_555
H48 C37 1_555 1_555
H49 C38 1_555 1_555
H50 C38 1_555 1_555
H51 C38 1_555 1_555
H52 C41 1_555 1_555
H53 C42 1_555 1_555
H54 C43 1_555 1_555
H55 C44 1_555 1_555
H56 C45 1_555 1_555
H57 C49 1_555 1_555
H58 C50 1_555 1_555
H59 C51 1_555 1_555
H60 C52 1_555 1_555
C16 C21 1_555 1_555
C20 C21 1_555 1_555
C25 C26 1_555 1_555
C42 C47 1_555 1_555
C46 C47 1_555 1_555
C51 C52 1_555 1_555

#END
