
#######################################################################
#
#                 Cambridge Crystallographic Data Centre
#                                CCDC 
#
#######################################################################
#
# If this CIF has been generated from an entry in the Cambridge 
# Structural Database, then it will include bibliographic, chemical, 
# crystal, experimental, refinement or atomic coordinate data resulting 
# from the CCDC's data processing and validation procedures.
#
#######################################################################

data_MILHIB
_chemical_formula_moiety         'C15 H18 O3'
_chemical_name_systematic        
2,2-dimethyl-3a,4,5,8,9,9b-hexahydro-2H,7H-4,9a-ethenonaphtho[1,2-d][1,3]dioxol-7-one
_symmetry_cell_setting           monoclinic
_symmetry_space_group_name_H-M   'P 21'
_symmetry_Int_Tables_number      4
_space_group_name_Hall           'P 2yb'
loop_
_symmetry_equiv_pos_site_id
_symmetry_equiv_pos_as_xyz
1 x,y,z
2 -x,1/2+y,-z
_cell_length_a                   12.1619(3)
_cell_length_b                   8.3569(2)
_cell_length_c                   18.7928(4)
_cell_angle_alpha                90
_cell_angle_beta                 97.273(2)
_cell_angle_gamma                90
_cell_volume                     1894.65
_exptl_crystal_colour            colorless
_exptl_crystal_description       plate
_cell_formula_units_Z            6
loop_
_atom_site_label
_atom_site_type_symbol
_atom_site_fract_x
_atom_site_fract_y
_atom_site_fract_z
O1 O 0.72264(9) 0.14426(15) 0.75102(6)
O2 O 0.90624(10) 0.18891(16) 0.74817(7)
O3 O 0.52344(12) 0.5332(2) 0.98258(7)
C1 C 0.81134(18) 0.5096(2) 0.73607(10)
C2 C 0.70663(16) 0.4774(2) 0.74282(9)
C3 C 0.68680(13) 0.3907(2) 0.81113(8)
C4 C 0.75649(13) 0.2358(2) 0.81370(9)
C5 C 0.87983(14) 0.2755(2) 0.80909(10)
C6 C 0.89346(16) 0.4569(2) 0.79857(10)
C7 C 0.74069(15) 0.4923(2) 0.87323(9)
C8 C 0.85969(16) 0.5354(2) 0.86700(11)
C9 C 0.81976(14) 0.0739(2) 0.72919(10)
C10 C 0.80340(18) 0.0572(3) 0.64852(11)
C11 C 0.84515(16) -0.0819(2) 0.76840(12)
C12 C 0.56349(14) 0.3599(2) 0.81487(9)
C13 C 0.53679(16) 0.3356(2) 0.89124(10)
C14 C 0.57658(16) 0.4770(2) 0.93737(9)
C15 C 0.68717(16) 0.5366(2) 0.92787(9)
H1 H 0.8330 0.5625 0.6953
H2 H 0.6439 0.5060 0.7086
H3 H 0.7480 0.1753 0.8573
H4 H 0.9279 0.2385 0.8530
H5 H 0.9723 0.4821 0.7920
H6 H 0.9064 0.4962 0.9081
H7 H 0.8680 0.6526 0.8655
H8 H 0.8688 0.0098 0.6317
H9 H 0.7914 0.1632 0.6274
H10 H 0.7396 -0.0114 0.6349
H11 H 0.9119 -0.1300 0.7528
H12 H 0.8569 -0.0656 0.8201
H13 H 0.7833 -0.1525 0.7567
H14 H 0.5214 0.4542 0.7946
H15 H 0.5399 0.2637 0.7861
H16 H 0.5759 0.2412 0.9130
H17 H 0.4574 0.3182 0.8929
H18 H 0.7206 0.6077 0.9625
O4 O 0.38068(10) 0.39846(16) 0.53549(7)
O5 O 0.37947(11) 0.13101(16) 0.55568(7)
O6 O -0.05742(15) 0.7370(3) 0.58189(11)
C16 C 0.30444(17) 0.2543(3) 0.68548(10)
C17 C 0.30166(16) 0.4101(3) 0.67128(9)
C18 C 0.22843(15) 0.4592(2) 0.60353(10)
C19 C 0.26791(14) 0.3623(2) 0.54098(9)
C20 C 0.26768(15) 0.1811(2) 0.55746(10)
C21 C 0.23329(17) 0.1531(3) 0.63244(11)
C22 C 0.11396(17) 0.3954(3) 0.61155(11)
C23 C 0.11346(18) 0.2171(3) 0.62891(13)
C24 C 0.43423(15) 0.2521(2) 0.52004(9)
C25 C 0.55409(17) 0.2591(3) 0.55281(12)
C26 C 0.4206(2) 0.2237(3) 0.43962(10)
C27 C 0.23028(17) 0.6403(2) 0.59243(11)
C28 C 0.1264(2) 0.7038(3) 0.54965(13)
C29 C 0.02355(18) 0.6501(3) 0.58044(12)
C30 C 0.02316(17) 0.4837(3) 0.60514(12)
H19 H 0.3458 0.2085 0.7264
H20 H 0.3423 0.4895 0.7010
H21 H 0.2220 0.3881 0.4955
H22 H 0.2178 0.1219 0.5210
H23 H 0.2361 0.0385 0.6443
H24 H 0.0836 0.2005 0.6751
H25 H 0.0672 0.1616 0.5906
H26 H 0.5898 0.1577 0.5448
H27 H 0.5600 0.2778 0.6039
H28 H 0.5907 0.3459 0.5293
H29 H 0.4612 0.1281 0.4304
H30 H 0.4515 0.3128 0.4161
H31 H 0.3420 0.2096 0.4197
H32 H 0.2338 0.6933 0.6420
H33 H 0.2938 0.6698 0.5679
H34 H 0.1288 0.8228 0.5495
H35 H 0.1257 0.6607 0.4987
H36 H -0.0450 0.4403 0.6159
O7 O 0.40044(10) 0.71694(15) 0.81996(6)
O8 O 0.37528(10) 0.98385(16) 0.80668(6)
O9 O 0.12726(16) 0.4185(3) 1.03518(10)
C31 C 0.14938(14) 0.8713(3) 0.77438(9)
C32 C 0.16416(14) 0.7158(2) 0.78525(9)
C33 C 0.21890(13) 0.6678(2) 0.85930(8)
C34 C 0.33101(13) 0.7590(2) 0.87296(8)
C35 C 0.31090(14) 0.9412(2) 0.86223(9)
C36 C 0.18697(15) 0.9747(2) 0.83827(10)
C37 C 0.15053(13) 0.7413(2) 0.91371(9)
C38 C 0.12517(15) 0.9159(3) 0.90035(10)
C39 C 0.45550(14) 0.8608(2) 0.80253(9)
C40 C 0.48017(17) 0.8496(3) 0.72586(10)
C41 C 0.55827(14) 0.8901(2) 0.85537(10)
C42 C 0.23046(16) 0.4859(2) 0.86648(10)
C43 C 0.24795(17) 0.4304(3) 0.94445(10)
C44 C 0.16055(17) 0.4944(3) 0.98665(11)
C45 C 0.12250(16) 0.6576(3) 0.96981(10)
H37 H 0.1185 0.9158 0.7306
H38 H 0.1449 0.6359 0.7506
H39 H 0.3696 0.7363 0.9215
H40 H 0.3365 0.9986 0.9070
H41 H 0.1732 1.0894 0.8278
H42 H 0.1504 0.9770 0.9444
H43 H 0.0451 0.9338 0.8888
H44 H 0.5164 0.9471 0.7120
H45 H 0.5298 0.7593 0.7199
H46 H 0.4133 0.8370 0.6941
H47 H 0.5919 0.9914 0.8426
H48 H 0.5389 0.8941 0.9045
H49 H 0.6108 0.8016 0.8507
H50 H 0.2905 0.4504 0.8410
H51 H 0.1606 0.4381 0.8451
H52 H 0.3208 0.4685 0.9685
H53 H 0.2453 0.3136 0.9473
H54 H 0.0786 0.7062 1.0011
loop_
_geom_bond_atom_site_label_1
_geom_bond_atom_site_label_2
_geom_bond_site_symmetry_1
_geom_bond_site_symmetry_2
O1 C4 1_555 1_555
O2 C5 1_555 1_555
O3 C14 1_555 1_555
C1 C2 1_555 1_555
C2 C3 1_555 1_555
C3 C4 1_555 1_555
C4 C5 1_555 1_555
C5 C6 1_555 1_555
C6 C1 1_555 1_555
C7 C3 1_555 1_555
C8 C6 1_555 1_555
C9 O1 1_555 1_555
C10 C9 1_555 1_555
C11 C9 1_555 1_555
C12 C3 1_555 1_555
C13 C12 1_555 1_555
C14 C13 1_555 1_555
C15 C7 1_555 1_555
H1 C1 1_555 1_555
H2 C2 1_555 1_555
H3 C4 1_555 1_555
H4 C5 1_555 1_555
H5 C6 1_555 1_555
H6 C8 1_555 1_555
H7 C8 1_555 1_555
H8 C10 1_555 1_555
H9 C10 1_555 1_555
H10 C10 1_555 1_555
H11 C11 1_555 1_555
H12 C11 1_555 1_555
H13 C11 1_555 1_555
H14 C12 1_555 1_555
H15 C12 1_555 1_555
H16 C13 1_555 1_555
H17 C13 1_555 1_555
H18 C15 1_555 1_555
O4 C19 1_555 1_555
O5 C20 1_555 1_555
O6 C29 1_555 1_555
C16 C17 1_555 1_555
C17 C18 1_555 1_555
C18 C19 1_555 1_555
C19 C20 1_555 1_555
C20 C21 1_555 1_555
C21 C16 1_555 1_555
C22 C18 1_555 1_555
C23 C21 1_555 1_555
C24 O4 1_555 1_555
C25 C24 1_555 1_555
C26 C24 1_555 1_555
C27 C18 1_555 1_555
C28 C27 1_555 1_555
C29 C28 1_555 1_555
C30 C22 1_555 1_555
H19 C16 1_555 1_555
H20 C17 1_555 1_555
H21 C19 1_555 1_555
H22 C20 1_555 1_555
H23 C21 1_555 1_555
H24 C23 1_555 1_555
H25 C23 1_555 1_555
H26 C25 1_555 1_555
H27 C25 1_555 1_555
H28 C25 1_555 1_555
H29 C26 1_555 1_555
H30 C26 1_555 1_555
H31 C26 1_555 1_555
H32 C27 1_555 1_555
H33 C27 1_555 1_555
H34 C28 1_555 1_555
H35 C28 1_555 1_555
H36 C30 1_555 1_555
O7 C34 1_555 1_555
O8 C35 1_555 1_555
O9 C44 1_555 1_555
C31 C32 1_555 1_555
C32 C33 1_555 1_555
C33 C34 1_555 1_555
C34 C35 1_555 1_555
C35 C36 1_555 1_555
C36 C31 1_555 1_555
C37 C33 1_555 1_555
C38 C36 1_555 1_555
C39 O7 1_555 1_555
C40 C39 1_555 1_555
C41 C39 1_555 1_555
C42 C33 1_555 1_555
C43 C42 1_555 1_555
C44 C43 1_555 1_555
C45 C37 1_555 1_555
H37 C31 1_555 1_555
H38 C32 1_555 1_555
H39 C34 1_555 1_555
H40 C35 1_555 1_555
H41 C36 1_555 1_555
H42 C38 1_555 1_555
H43 C38 1_555 1_555
H44 C40 1_555 1_555
H45 C40 1_555 1_555
H46 C40 1_555 1_555
H47 C41 1_555 1_555
H48 C41 1_555 1_555
H49 C41 1_555 1_555
H50 C42 1_555 1_555
H51 C42 1_555 1_555
H52 C43 1_555 1_555
H53 C43 1_555 1_555
H54 C45 1_555 1_555
O2 C9 1_555 1_555
C7 C8 1_555 1_555
C14 C15 1_555 1_555
O5 C24 1_555 1_555
C22 C23 1_555 1_555
C29 C30 1_555 1_555
O8 C39 1_555 1_555
C37 C38 1_555 1_555
C44 C45 1_555 1_555

#END
