
#######################################################################
#
#                 Cambridge Crystallographic Data Centre
#                                CCDC 
#
#######################################################################
#
# If this CIF has been generated from an entry in the Cambridge 
# Structural Database, then it will include bibliographic, chemical, 
# crystal, experimental, refinement or atomic coordinate data resulting 
# from the CCDC's data processing and validation procedures.
#
#######################################################################

data_MILHUN
_chemical_formula_moiety         'C16 H22 O3'
_chemical_name_systematic        
2,2,8-trimethyl-3a,4,5,8,9,9b-hexahydro-2H,7H-4,9a-ethanonaphtho[1,2-d][1,3]dioxol-7-one
_symmetry_cell_setting           orthorhombic
_symmetry_space_group_name_H-M   'P 21 21 21'
_symmetry_Int_Tables_number      19
_space_group_name_Hall           'P 2ac 2ab'
loop_
_symmetry_equiv_pos_site_id
_symmetry_equiv_pos_as_xyz
1 x,y,z
2 1/2+x,1/2-y,-z
3 -x,1/2+y,1/2-z
4 1/2-x,-y,1/2+z
_cell_length_a                   8.0668(2)
_cell_length_b                   9.8097(3)
_cell_length_c                   18.1236(6)
_cell_angle_alpha                90
_cell_angle_beta                 90
_cell_angle_gamma                90
_cell_volume                     1434.17
_exptl_crystal_colour            colorless
_exptl_crystal_description       lath
_cell_formula_units_Z            4
loop_
_atom_site_label
_atom_site_type_symbol
_atom_site_fract_x
_atom_site_fract_y
_atom_site_fract_z
O1 O 0.31157(13) 0.47330(11) 0.68873(5)
O2 O 0.34453(14) 0.27749(10) 0.62454(6)
O3 O 0.15483(16) 0.95219(13) 0.48885(7)
C1 C 0.00378(18) 0.33789(16) 0.58905(11)
C2 C -0.01557(17) 0.47951(15) 0.62480(9)
C3 C 0.12150(16) 0.57880(13) 0.59996(7)
C4 C 0.29275(16) 0.51275(14) 0.61378(7)
C5 C 0.30664(17) 0.37683(13) 0.56986(8)
C6 C 0.14304(18) 0.34307(16) 0.53169(9)
C7 C 0.11649(17) 0.59348(15) 0.51683(8)
C8 C 0.1067(2) 0.45807(18) 0.47688(9)
C9 C 0.40096(18) 0.34773(15) 0.68867(9)
C10 C 0.3516(3) 0.2678(2) 0.75597(11)
C11 C 0.5862(2) 0.37271(18) 0.68352(11)
C12 C 0.09601(18) 0.71540(14) 0.63897(8)
C13 C 0.18536(17) 0.83709(14) 0.60465(8)
C14 C 0.15391(17) 0.84365(16) 0.52176(8)
C15 C 0.13097(18) 0.71415(17) 0.48303(8)
C16 C 0.1344(2) 0.97055(16) 0.64208(9)
H1 H 0.0310 0.2679 0.6267
H2 H -0.1002 0.3144 0.5655
H3 H -0.0118 0.4710 0.6783
H4 H -0.1216 0.5213 0.6121
H5 H 0.3850 0.5746 0.5990
H6 H 0.3996 0.3836 0.5330
H7 H 0.1549 0.2573 0.5063
H8 H -0.0046 0.4479 0.4572
H9 H 0.1867 0.4593 0.4354
H10 H 0.4168 0.1822 0.7601
H11 H 0.3733 0.3227 0.7997
H12 H 0.2344 0.2494 0.7539
H13 H 0.6442 0.2868 0.6816
H14 H 0.6227 0.4208 0.7273
H15 H 0.6119 0.4256 0.6389
H16 H 0.1268 0.7074 0.6913
H17 H -0.0239 0.7387 0.6363
H18 H 0.3046 0.8234 0.6113
H19 H 0.1283 0.7174 0.4300
H20 H 0.1945 1.0467 0.6237
H21 H 0.1531 0.9634 0.6951
H22 H 0.0173 0.9854 0.6342
loop_
_geom_bond_atom_site_label_1
_geom_bond_atom_site_label_2
_geom_bond_site_symmetry_1
_geom_bond_site_symmetry_2
O1 C4 1_555 1_555
O2 C5 1_555 1_555
O3 C14 1_555 1_555
C1 C2 1_555 1_555
C2 C3 1_555 1_555
C3 C4 1_555 1_555
C4 C5 1_555 1_555
C5 C6 1_555 1_555
C6 C1 1_555 1_555
C7 C3 1_555 1_555
C8 C6 1_555 1_555
C9 O1 1_555 1_555
C10 C9 1_555 1_555
C11 C9 1_555 1_555
C12 C3 1_555 1_555
C13 C12 1_555 1_555
C14 C13 1_555 1_555
C15 C7 1_555 1_555
C16 C13 1_555 1_555
H1 C1 1_555 1_555
H2 C1 1_555 1_555
H3 C2 1_555 1_555
H4 C2 1_555 1_555
H5 C4 1_555 1_555
H6 C5 1_555 1_555
H7 C6 1_555 1_555
H8 C8 1_555 1_555
H9 C8 1_555 1_555
H10 C10 1_555 1_555
H11 C10 1_555 1_555
H12 C10 1_555 1_555
H13 C11 1_555 1_555
H14 C11 1_555 1_555
H15 C11 1_555 1_555
H16 C12 1_555 1_555
H17 C12 1_555 1_555
H18 C13 1_555 1_555
H19 C15 1_555 1_555
H20 C16 1_555 1_555
H21 C16 1_555 1_555
H22 C16 1_555 1_555
O2 C9 1_555 1_555
C7 C8 1_555 1_555
C14 C15 1_555 1_555

#END
