
#######################################################################
#
#                 Cambridge Crystallographic Data Centre
#                                CCDC 
#
#######################################################################
#
# If this CIF has been generated from an entry in the Cambridge 
# Structural Database, then it will include bibliographic, chemical, 
# crystal, experimental, refinement or atomic coordinate data resulting 
# from the CCDC's data processing and validation procedures.
#
#######################################################################

data_MILHOH
_chemical_formula_moiety         'C15 H18 O3'
_chemical_name_systematic        
2,2-dimethyl-3a,4,5,5a,6,9b-hexahydro-2H,7H-4,9a-ethenonaphtho[1,2-d][1,3]dioxol-7-one
_symmetry_cell_setting           monoclinic
_symmetry_space_group_name_H-M   'P 21'
_symmetry_Int_Tables_number      4
_space_group_name_Hall           'P 2yb'
loop_
_symmetry_equiv_pos_site_id
_symmetry_equiv_pos_as_xyz
1 x,y,z
2 -x,1/2+y,-z
_cell_length_a                   6.2911(4)
_cell_length_b                   35.4329(15)
_cell_length_c                   6.4453(4)
_cell_angle_alpha                90
_cell_angle_beta                 118.271(8)
_cell_angle_gamma                90
_cell_volume                     1265.36
_exptl_crystal_colour            colorless
_exptl_crystal_description       needle
_cell_formula_units_Z            4
loop_
_atom_site_label
_atom_site_type_symbol
_atom_site_fract_x
_atom_site_fract_y
_atom_site_fract_z
O1 O 0.4994(7) 0.57136(11) 0.2328(7)
O2 O 0.6401(8) 0.61076(13) 0.5501(8)
O3 O 0.7346(9) 0.39716(13) 0.5317(12)
C1 C 0.4912(10) 0.54341(18) 0.7128(10)
C2 C 0.4275(10) 0.52051(16) 0.5305(11)
C3 C 0.6248(10) 0.51338(16) 0.4644(10)
C4 C 0.7007(9) 0.55233(15) 0.4124(9)
C5 C 0.7871(10) 0.57790(17) 0.6331(10)
C6 C 0.7466(10) 0.55771(18) 0.8193(10)
C7 C 0.8488(9) 0.49722(17) 0.6802(11)
C8 C 0.9161(10) 0.52315(19) 0.8958(10)
C9 C 0.5091(10) 0.61041(17) 0.2998(11)
C10 C 0.2587(11) 0.62370(19) 0.2279(13)
C11 C 0.6340(12) 0.63340(17) 0.1942(13)
C12 C 0.5518(11) 0.48696(17) 0.2582(11)
C13 C 0.5916(12) 0.45009(19) 0.2808(13)
C14 C 0.7150(11) 0.43152(19) 0.5138(14)
C15 C 0.8051(11) 0.45661(19) 0.7256(12)
H1 H 0.3865 0.5503 0.7710
H2 H 0.2759 0.5099 0.4520
H3 H 0.8298 0.5498 0.3668
H4 H 0.9588 0.5845 0.6952
H5 H 0.7833 0.5740 0.9536
H6 H 0.9879 0.4973 0.6475
H7 H 1.0805 0.5319 0.9539
H8 H 0.9028 0.5097 1.0206
H9 H 0.2632 0.6493 0.2790
H10 H 0.1650 0.6227 0.0582
H11 H 0.1844 0.6080 0.2962
H12 H 0.6309 0.6598 0.2287
H13 H 0.5563 0.6300 0.0265
H14 H 0.7987 0.6250 0.2599
H15 H 0.4750 0.4970 0.1071
H16 H 0.5414 0.4352 0.1462
H17 H 0.6801 0.4568 0.7738
H18 H 0.9529 0.4460 0.8501
O4 O 0.0880(7) 0.25890(12) 0.2406(7)
O5 O 0.3114(8) 0.22240(12) 0.5551(8)
O6 O 0.1971(10) 0.43469(14) 0.5213(14)
C16 C 0.6115(9) 0.28880(19) 0.7039(10)
C17 C 0.4839(9) 0.31097(16) 0.5145(9)
C18 C 0.2253(9) 0.31794(16) 0.4671(10)
C19 C 0.1000(9) 0.27955(17) 0.4356(9)
C20 C 0.2508(10) 0.25437(17) 0.6514(10)
C21 C 0.4762(10) 0.27530(18) 0.8275(10)
C22 C 0.2329(10) 0.33540(18) 0.6901(11)
C23 C 0.3839(12) 0.3102(2) 0.9048(12)
C24 C 0.1434(11) 0.22026(17) 0.3128(12)
C25 C 0.2582(14) 0.2024(2) 0.1808(14)
C26 C -0.0818(12) 0.1995(2) 0.2802(13)
C27 C 0.0903(10) 0.34360(18) 0.2578(10)
C28 C 0.0843(14) 0.3810(2) 0.2759(14)
C29 C 0.1989(13) 0.40059(19) 0.5054(17)
C30 C 0.3262(13) 0.37617(19) 0.7252(15)
H19 H 0.7735 0.2822 0.7546
H20 H 0.5451 0.3212 0.4205
H21 H -0.0651 0.2829 0.4161
H22 H 0.1498 0.2468 0.7224
H23 H 0.5782 0.2594 0.9638
H24 H 0.0656 0.3360 0.6672
H25 H 0.5207 0.3242 1.0218
H26 H 0.2829 0.3017 0.9716
H27 H 0.3066 0.1772 0.2372
H28 H 0.3980 0.2169 0.2069
H29 H 0.1458 0.2017 0.0153
H30 H -0.0403 0.1744 0.3416
H31 H -0.1549 0.2126 0.3605
H32 H -0.1952 0.1981 0.1140
H33 H 0.0107 0.3331 0.1082
H34 H 0.0068 0.3956 0.1397
H35 H 0.3075 0.3876 0.8531
H36 H 0.4962 0.3756 0.7680
loop_
_geom_bond_atom_site_label_1
_geom_bond_atom_site_label_2
_geom_bond_site_symmetry_1
_geom_bond_site_symmetry_2
O1 C4 1_555 1_555
O2 C5 1_555 1_555
O3 C14 1_555 1_555
C1 C2 1_555 1_555
C2 C3 1_555 1_555
C3 C4 1_555 1_555
C4 C5 1_555 1_555
C5 C6 1_555 1_555
C6 C1 1_555 1_555
C7 C3 1_555 1_555
C8 C6 1_555 1_555
C9 O1 1_555 1_555
C10 C9 1_555 1_555
C11 C9 1_555 1_555
C12 C3 1_555 1_555
C13 C12 1_555 1_555
C14 C13 1_555 1_555
C15 C7 1_555 1_555
H1 C1 1_555 1_555
H2 C2 1_555 1_555
H3 C4 1_555 1_555
H4 C5 1_555 1_555
H5 C6 1_555 1_555
H6 C7 1_555 1_555
H7 C8 1_555 1_555
H8 C8 1_555 1_555
H9 C10 1_555 1_555
H10 C10 1_555 1_555
H11 C10 1_555 1_555
H12 C11 1_555 1_555
H13 C11 1_555 1_555
H14 C11 1_555 1_555
H15 C12 1_555 1_555
H16 C13 1_555 1_555
H17 C15 1_555 1_555
H18 C15 1_555 1_555
O4 C19 1_555 1_555
O5 C20 1_555 1_555
O6 C29 1_555 1_555
C16 C17 1_555 1_555
C17 C18 1_555 1_555
C18 C19 1_555 1_555
C19 C20 1_555 1_555
C20 C21 1_555 1_555
C21 C16 1_555 1_555
C22 C18 1_555 1_555
C23 C21 1_555 1_555
C24 O4 1_555 1_555
C25 C24 1_555 1_555
C26 C24 1_555 1_555
C27 C18 1_555 1_555
C28 C27 1_555 1_555
C29 C28 1_555 1_555
C30 C22 1_555 1_555
H19 C16 1_555 1_555
H20 C17 1_555 1_555
H21 C19 1_555 1_555
H22 C20 1_555 1_555
H23 C21 1_555 1_555
H24 C22 1_555 1_555
H25 C23 1_555 1_555
H26 C23 1_555 1_555
H27 C25 1_555 1_555
H28 C25 1_555 1_555
H29 C25 1_555 1_555
H30 C26 1_555 1_555
H31 C26 1_555 1_555
H32 C26 1_555 1_555
H33 C27 1_555 1_555
H34 C28 1_555 1_555
H35 C30 1_555 1_555
H36 C30 1_555 1_555
O2 C9 1_555 1_555
C7 C8 1_555 1_555
C14 C15 1_555 1_555
O5 C24 1_555 1_555
C22 C23 1_555 1_555
C29 C30 1_555 1_555

#END
