
#######################################################################
#
#                 Cambridge Crystallographic Data Centre
#                                CCDC 
#
#######################################################################
#
# If this CIF has been generated from an entry in the Cambridge 
# Structural Database, then it will include bibliographic, chemical, 
# crystal, experimental, refinement or atomic coordinate data resulting 
# from the CCDC's data processing and validation procedures.
#
#######################################################################

data_MILJOI
_chemical_formula_moiety         'C20 H22 Br1 N1 O4 S1'
_chemical_name_systematic        
'2-((4-Bromophenyl)sulfonyl)-1,2,3,3a-tetrahydrocyclohepta[c]pyrrol-6-yl pivalate'
_symmetry_cell_setting           orthorhombic
_symmetry_space_group_name_H-M   'P 21 21 21'
_symmetry_Int_Tables_number      19
_space_group_name_Hall           'P 2ac 2ab'
loop_
_symmetry_equiv_pos_site_id
_symmetry_equiv_pos_as_xyz
1 x,y,z
2 1/2-x,-y,1/2+z
3 -x,1/2+y,1/2-z
4 1/2+x,1/2-y,-z
_cell_length_a                   6.2323(9)
_cell_length_b                   9.9199(5)
_cell_length_c                   32.378(3)
_cell_angle_alpha                90
_cell_angle_beta                 90
_cell_angle_gamma                90
_cell_volume                     2001.73
_exptl_crystal_colour            colorless
_exptl_crystal_description       block
_cell_formula_units_Z            4
loop_
_atom_site_label
_atom_site_type_symbol
_atom_site_fract_x
_atom_site_fract_y
_atom_site_fract_z
Br1 Br 0.58473(4) 0.700419(19) 0.103552(6)
S1 S 0.38575(6) 1.12955(4) 0.246137(11)
O1 O 0.57827(19) 1.20308(12) 0.25508(3)
O2 O 0.1906(2) 1.19905(13) 0.23588(4)
O3 O 0.1481(2) 0.65844(16) 0.44323(4)
O4 O -0.1474(3) 0.58218(17) 0.41306(5)
N1 N 0.3349(2) 1.03809(14) 0.28686(4)
C1 C 0.2782(3) 0.97342(18) 0.17987(5)
H1 H 0.1372 1.0080 0.1834
C2 C 0.3209(3) 0.87909(18) 0.14922(5)
H2 H 0.2100 0.8484 0.1314
C3 C 0.5272(3) 0.83095(16) 0.14515(5)
C4 C 0.6945(3) 0.87438(18) 0.16993(5)
H3 H 0.8353 0.8397 0.1662
C5 C 0.6521(3) 0.96978(17) 0.20036(5)
H4 H 0.7644 1.0024 0.2175
C6 C 0.4440(3) 1.01671(16) 0.20536(5)
C7 C 0.5183(3) 0.96594(16) 0.30585(5)
H5 H 0.6094 1.0281 0.3221
H6 H 0.6075 0.9210 0.2846
C8 C 0.4091(3) 0.86447(16) 0.33327(5)
C9 C 0.5048(3) 0.78256(17) 0.36056(5)
H7 H 0.6570 0.7781 0.3603
C10 C 0.3926(3) 0.70097(19) 0.39026(5)
H8 H 0.4567 0.6182 0.3984
C11 C 0.2033(3) 0.73399(19) 0.40732(5)
C12 C 0.0744(3) 0.8526(2) 0.40014(5)
H9 H -0.0109 0.8854 0.4223
C13 C 0.0673(3) 0.91970(18) 0.36410(5)
H10 H -0.0039 1.0043 0.3629
C14 C 0.1698(3) 0.86388(18) 0.32558(5)
H11 H 0.1186 0.7698 0.3204
C15 C 0.1415(3) 0.95000(17) 0.28654(5)
H12 H 0.1377 0.8930 0.2614
H13 H 0.0083 1.0041 0.2879
C16 C -0.0327(3) 0.58623(18) 0.44253(5)
C17 C -0.0708(3) 0.51170(17) 0.48314(5)
C18 C 0.0387(4) 0.3736(2) 0.47891(6)
H14 H 0.1928 0.3863 0.4744
H15 H -0.0232 0.3249 0.4554
H16 H 0.0163 0.3213 0.5042
C19 C 0.0238(4) 0.5887(2) 0.51979(5)
H17 H 0.1793 0.5974 0.5162
H18 H -0.0064 0.5395 0.5454
H19 H -0.0410 0.6786 0.5213
C20 C -0.3126(4) 0.4929(2) 0.48856(7)
H20 H -0.3403 0.4402 0.5136
H21 H -0.3709 0.4453 0.4645
H22 H -0.3817 0.5813 0.4910
loop_
_geom_bond_atom_site_label_1
_geom_bond_atom_site_label_2
_geom_bond_site_symmetry_1
_geom_bond_site_symmetry_2
Br1 C3 1_555 1_555
S1 O1 1_555 1_555
O2 S1 1_555 1_555
O3 C11 1_555 1_555
O4 C16 1_555 1_555
N1 S1 1_555 1_555
C1 H1 1_555 1_555
C2 C1 1_555 1_555
H2 C2 1_555 1_555
C3 C2 1_555 1_555
C4 C3 1_555 1_555
H3 C4 1_555 1_555
C5 C4 1_555 1_555
H4 C5 1_555 1_555
C6 S1 1_555 1_555
C7 N1 1_555 1_555
H5 C7 1_555 1_555
H6 C7 1_555 1_555
C8 C7 1_555 1_555
C9 C8 1_555 1_555
H7 C9 1_555 1_555
C10 C9 1_555 1_555
H8 C10 1_555 1_555
C11 C10 1_555 1_555
C12 C11 1_555 1_555
H9 C12 1_555 1_555
C13 C12 1_555 1_555
H10 C13 1_555 1_555
C14 C8 1_555 1_555
H11 C14 1_555 1_555
C15 N1 1_555 1_555
H12 C15 1_555 1_555
H13 C15 1_555 1_555
C16 O3 1_555 1_555
C17 C16 1_555 1_555
C18 C17 1_555 1_555
H14 C18 1_555 1_555
H15 C18 1_555 1_555
H16 C18 1_555 1_555
C19 C17 1_555 1_555
H17 C19 1_555 1_555
H18 C19 1_555 1_555
H19 C19 1_555 1_555
C20 C17 1_555 1_555
H20 C20 1_555 1_555
H21 C20 1_555 1_555
H22 C20 1_555 1_555
C1 C6 1_555 1_555
C5 C6 1_555 1_555
C13 C14 1_555 1_555
C14 C15 1_555 1_555

#END
