
#######################################################################
#
#                 Cambridge Crystallographic Data Centre
#                                CCDC 
#
#######################################################################
#
# If this CIF has been generated from an entry in the Cambridge 
# Structural Database, then it will include bibliographic, chemical, 
# crystal, experimental, refinement or atomic coordinate data resulting 
# from the CCDC's data processing and validation procedures.
#
#######################################################################

data_MILQEF
_chemical_name_common            
'N-Benzyl-tetra-homodiaza-p-t-butylcalix[4]arene ethyl acetate solvate'
_chemical_formula_moiety         'C60 H74 N2 O4,C4 H8 O2'
_chemical_name_systematic        
'9,23-Dibenzyl-5,13,19,27-tetra-t-butyl-9,23-diazapentacyclo[23.3.1.1^3,7^.1^11,15^.1^17,21^]dotriaconta-1(29),3(32),4,6,11(31),12,14,17(30),18,20,25,27-dodecaene-29,30,31,32-tetrol ethyl acetate solvate'
_symmetry_cell_setting           monoclinic
_symmetry_space_group_name_H-M   'P 21/c'
_symmetry_Int_Tables_number      14
_space_group_name_Hall           '-P 2ybc'
loop_
_symmetry_equiv_pos_site_id
_symmetry_equiv_pos_as_xyz
1 x,y,z
2 -x,1/2+y,1/2-z
3 -x,-y,-z
4 x,1/2-y,1/2+z
_cell_length_a                   16.2968(11)
_cell_length_b                   17.1132(11)
_cell_length_c                   22.2781(14)
_cell_angle_alpha                90
_cell_angle_beta                 108.064(2)
_cell_angle_gamma                90
_cell_volume                     5906.91
_exptl_crystal_colour            yellow
_exptl_crystal_description       plate
_cell_formula_units_Z            4
loop_
_atom_site_label
_atom_site_type_symbol
_atom_site_fract_x
_atom_site_fract_y
_atom_site_fract_z
C1 C 0.3296(2) 0.6889(2) 0.16390(14)
C2 C 0.4050(2) 0.73155(19) 0.18613(15)
C3 C 0.4779(2) 0.7027(2) 0.17512(15)
H1 H 0.5282 0.7323 0.1884
C4 C 0.4805(2) 0.6319(2) 0.14533(16)
C5 C 0.4034(2) 0.5921(2) 0.12307(15)
H2 H 0.4025 0.5449 0.1022
C6 C 0.3271(2) 0.6201(2) 0.13064(14)
C7 C 0.5624(3) 0.5979(3) 0.1372(2)
C8 C 0.5862(4) 0.5250(5) 0.1775(3)
H3 H 0.6290 0.4961 0.1654
H4 H 0.5358 0.4932 0.1716
H5 H 0.6090 0.5397 0.2212
C9 C 0.6323(4) 0.6531(4) 0.1514(5)
H6 H 0.6129 0.7007 0.1287
H7 H 0.6792 0.6317 0.1392
H8 H 0.6514 0.6636 0.1960
C10 C 0.5483(3) 0.5682(3) 0.0718(2)
H9 H 0.5248 0.6091 0.0420
H10 H 0.5088 0.5250 0.0638
H11 H 0.6024 0.5512 0.0675
C11 C 0.2429(2) 0.58052(19) 0.09899(15)
H12 H 0.2132 0.6088 0.0607
H13 H 0.2543 0.5282 0.0869
C12 C 0.2256(2) 0.52117(19) 0.19137(15)
H14 H 0.2775 0.5454 0.2188
H15 H 0.2431 0.4745 0.1738
C13 C 0.1378(2) 0.55083(19) 0.26479(14)
C14 C 0.1705(2) 0.4966(2) 0.23123(15)
C15 C 0.1575(2) 0.41732(19) 0.23911(15)
H16 H 0.1788 0.3813 0.2164
C16 C 0.1144(2) 0.39012(19) 0.27910(15)
C17 C 0.0825(2) 0.4460(2) 0.31111(14)
H17 H 0.0532 0.4291 0.3385
C18 C 0.0919(2) 0.52542(19) 0.30460(14)
C19 C 0.1036(3) 0.3030(2) 0.29100(16)
C20 C 0.1548(3) 0.2835(2) 0.35942(17)
H18 H 0.2148 0.2945 0.3665
H19 H 0.1477 0.2292 0.3673
H20 H 0.1339 0.3147 0.3875
C21 C 0.1354(3) 0.2506(2) 0.24694(19)
H21 H 0.1950 0.2617 0.2523
H22 H 0.1016 0.2605 0.2039
H23 H 0.1294 0.1968 0.2570
C22 C 0.0090(3) 0.2841(2) 0.27949(19)
H24 H 0.0027 0.2291 0.2853
H25 H -0.0234 0.2984 0.2371
H26 H -0.0120 0.3128 0.3087
C23 C 0.0524(2) 0.58305(18) 0.33964(14)
H27 H 0.0349 0.6294 0.3137
H28 H 0.0008 0.5598 0.3450
C24 C 0.1597(2) 0.67496(19) 0.41084(15)
C25 C 0.1112(2) 0.60753(19) 0.40365(15)
C26 C 0.1181(2) 0.56373(19) 0.45710(15)
H29 H 0.0857 0.5181 0.4527
C27 C 0.1706(2) 0.5840(2) 0.51707(16)
C28 C 0.2161(2) 0.6538(2) 0.52168(15)
H30 H 0.2511 0.6698 0.5612
C29 C 0.2114(2) 0.70023(19) 0.47014(16)
C30 C 0.1793(3) 0.5346(2) 0.57660(17)
C31 C 0.1330(3) 0.4559(2) 0.56063(17)
H31 H 0.0722 0.4646 0.5418
H32 H 0.1426 0.4258 0.5985
H33 H 0.1550 0.4280 0.5315
C32 C 0.1395(3) 0.5806(2) 0.61988(19)
H34 H 0.1716 0.6279 0.6333
H35 H 0.1414 0.5494 0.6561
H36 H 0.0806 0.5932 0.5972
C33 C 0.2755(3) 0.5188(3) 0.61161(18)
H37 H 0.3021 0.4959 0.5830
H38 H 0.2804 0.4836 0.6461
H39 H 0.3038 0.5672 0.6276
C34 C 0.2557(2) 0.77789(19) 0.47728(15)
H40 H 0.2138 0.8186 0.4760
H41 H 0.2994 0.7801 0.5183
C35 C 0.3700(2) 0.74009(19) 0.43627(15)
H42 H 0.3479 0.6873 0.4274
H43 H 0.4059 0.7417 0.4801
C36 C 0.3917(2) 0.76867(18) 0.32998(17)
C37 C 0.4254(2) 0.75796(18) 0.39499(16)
C38 C 0.5137(2) 0.76291(18) 0.42165(16)
H44 H 0.5371 0.7551 0.4649
C39 C 0.5693(2) 0.77905(18) 0.38704(17)
C40 C 0.5310(2) 0.79448(18) 0.32385(17)
H45 H 0.5664 0.8084 0.2999
C41 C 0.4438(2) 0.79045(17) 0.29418(16)
C42 C 0.6667(3) 0.7806(2) 0.41644(18)
C43 C 0.6978(3) 0.7412(5) 0.4775(3)
H46 H 0.7597 0.7425 0.4922
H47 H 0.6784 0.6879 0.4730
H48 H 0.6756 0.7674 0.5073
C44 C 0.6960(3) 0.8625(3) 0.4268(4)
H49 H 0.7521 0.8672 0.4216
H50 H 0.6990 0.8782 0.4688
H51 H 0.6560 0.8956 0.3968
C45 C 0.7106(3) 0.7431(4) 0.3748(3)
H52 H 0.6992 0.7725 0.3364
H53 H 0.6894 0.6907 0.3652
H54 H 0.7717 0.7418 0.3959
C46 C 0.4082(2) 0.80532(18) 0.22417(14)
H55 H 0.4440 0.8437 0.2121
H56 H 0.3505 0.8268 0.2145
C47 C 0.0991(2) 0.5501(2) 0.10024(15)
H57 H 0.0634 0.5413 0.1273
H58 H 0.1036 0.5011 0.0796
C48 C 0.0566(2) 0.6113(2) 0.05054(17)
C49 C 0.0443(2) 0.5981(2) -0.01232(18)
H59 H 0.0594 0.5498 -0.0249
C50 C 0.0103(3) 0.6544(3) -0.0574(2)
H60 H 0.0043 0.6449 -0.0996
C51 C -0.0150(3) 0.7255(4) -0.0388(3)
H61 H -0.0392 0.7638 -0.0687
C52 C -0.0042(3) 0.7390(3) 0.0234(3)
H62 H -0.0206 0.7868 0.0360
C53 C 0.0310(3) 0.6819(3) 0.06783(19)
H63 H 0.0375 0.6915 0.1101
C54 C 0.3219(2) 0.87698(19) 0.43048(16)
H64 H 0.3640 0.8836 0.4082
H65 H 0.3491 0.8920 0.4741
C55 C 0.2462(2) 0.9301(2) 0.40167(17)
C56 C 0.1955(3) 0.9197(2) 0.33970(19)
H66 H 0.2070 0.8786 0.3162
C57 C 0.1283(3) 0.9694(3) 0.3127(2)
H67 H 0.0942 0.9615 0.2712
C58 C 0.1105(3) 1.0318(3) 0.3468(3)
H68 H 0.0652 1.0658 0.3284
C59 C 0.1609(3) 1.0420(2) 0.4077(2)
H69 H 0.1497 1.0832 0.4313
C60 C 0.2284(3) 0.9916(2) 0.43466(17)
H70 H 0.2625 0.9997 0.4762
N1 N 0.18581(18) 0.57545(15) 0.13899(12)
N2 N 0.29674(18) 0.79366(15) 0.42808(11)
O1 O 0.25623(14) 0.71640(12) 0.17580(11)
H71 H 0.2213 0.6807 0.1714
O2 O 0.15147(17) 0.62807(12) 0.25512(10)
H72 H 0.1574 0.6525 0.2878
O3 O 0.15501(15) 0.71823(13) 0.35767(9)
H73 H 0.1987 0.7449 0.3642
O4 O 0.30387(15) 0.75891(15) 0.30396(10)
H74 H 0.2924 0.7490 0.2662
C61 C 0.4733(5) 0.5523(5) 0.3143(3)
H75 H 0.4982 0.5482 0.2807
H76 H 0.5176 0.5644 0.3530
H77 H 0.4308 0.5932 0.3048
C62 C 0.4259(7) 0.4664(12) 0.3222(7)
C63 C 0.3938(11) 0.4520(14) 0.4307(13)
H78 H 0.3929 0.3975 0.4187
H79 H 0.4366 0.4613 0.4714
C64 C 0.3256(4) 0.4777(5) 0.4263(5)
H80 H 0.3314 0.5312 0.4399
H81 H 0.2997 0.4481 0.4523
H82 H 0.2897 0.4750 0.3831
O5 O 0.3993(5) 0.5182(4) 0.3709(3)
O6 O 0.4351(11) 0.4006(8) 0.3604(12)
loop_
_geom_bond_atom_site_label_1
_geom_bond_atom_site_label_2
_geom_bond_site_symmetry_1
_geom_bond_site_symmetry_2
C1 C2 1_555 1_555
C2 C3 1_555 1_555
C3 H1 1_555 1_555
C4 C3 1_555 1_555
C5 C4 1_555 1_555
H2 C5 1_555 1_555
C6 C1 1_555 1_555
C7 C4 1_555 1_555
C8 C7 1_555 1_555
H3 C8 1_555 1_555
H4 C8 1_555 1_555
H5 C8 1_555 1_555
C9 C7 1_555 1_555
H6 C9 1_555 1_555
H7 C9 1_555 1_555
H8 C9 1_555 1_555
C10 C7 1_555 1_555
H9 C10 1_555 1_555
H10 C10 1_555 1_555
H11 C10 1_555 1_555
C11 C6 1_555 1_555
H12 C11 1_555 1_555
H13 C11 1_555 1_555
C12 H14 1_555 1_555
H15 C12 1_555 1_555
C13 C14 1_555 1_555
C14 C12 1_555 1_555
C15 C14 1_555 1_555
H16 C15 1_555 1_555
C16 C15 1_555 1_555
C17 C16 1_555 1_555
H17 C17 1_555 1_555
C18 C13 1_555 1_555
C19 C16 1_555 1_555
C20 C19 1_555 1_555
H18 C20 1_555 1_555
H19 C20 1_555 1_555
H20 C20 1_555 1_555
C21 C19 1_555 1_555
H21 C21 1_555 1_555
H22 C21 1_555 1_555
H23 C21 1_555 1_555
C22 C19 1_555 1_555
H24 C22 1_555 1_555
H25 C22 1_555 1_555
H26 C22 1_555 1_555
C23 C18 1_555 1_555
H27 C23 1_555 1_555
H28 C23 1_555 1_555
C24 C25 1_555 1_555
C25 C23 1_555 1_555
C26 C25 1_555 1_555
H29 C26 1_555 1_555
C27 C26 1_555 1_555
C28 C27 1_555 1_555
H30 C28 1_555 1_555
C29 C24 1_555 1_555
C30 C27 1_555 1_555
C31 C30 1_555 1_555
H31 C31 1_555 1_555
H32 C31 1_555 1_555
H33 C31 1_555 1_555
C32 C30 1_555 1_555
H34 C32 1_555 1_555
H35 C32 1_555 1_555
H36 C32 1_555 1_555
C33 C30 1_555 1_555
H37 C33 1_555 1_555
H38 C33 1_555 1_555
H39 C33 1_555 1_555
C34 C29 1_555 1_555
H40 C34 1_555 1_555
H41 C34 1_555 1_555
C35 H42 1_555 1_555
H43 C35 1_555 1_555
C36 C37 1_555 1_555
C37 C35 1_555 1_555
C38 C37 1_555 1_555
H44 C38 1_555 1_555
C39 C38 1_555 1_555
C40 C39 1_555 1_555
H45 C40 1_555 1_555
C41 C36 1_555 1_555
C42 C39 1_555 1_555
C43 C42 1_555 1_555
H46 C43 1_555 1_555
H47 C43 1_555 1_555
H48 C43 1_555 1_555
C44 C42 1_555 1_555
H49 C44 1_555 1_555
H50 C44 1_555 1_555
H51 C44 1_555 1_555
C45 C42 1_555 1_555
H52 C45 1_555 1_555
H53 C45 1_555 1_555
H54 C45 1_555 1_555
C46 C2 1_555 1_555
H55 C46 1_555 1_555
H56 C46 1_555 1_555
C47 H57 1_555 1_555
H58 C47 1_555 1_555
C48 C47 1_555 1_555
C49 C48 1_555 1_555
H59 C49 1_555 1_555
C50 C49 1_555 1_555
H60 C50 1_555 1_555
C51 C50 1_555 1_555
H61 C51 1_555 1_555
C52 C51 1_555 1_555
H62 C52 1_555 1_555
C53 C48 1_555 1_555
H63 C53 1_555 1_555
C54 H64 1_555 1_555
H65 C54 1_555 1_555
C55 C54 1_555 1_555
C56 C55 1_555 1_555
H66 C56 1_555 1_555
C57 C56 1_555 1_555
H67 C57 1_555 1_555
C58 C57 1_555 1_555
H68 C58 1_555 1_555
C59 C58 1_555 1_555
H69 C59 1_555 1_555
C60 C55 1_555 1_555
H70 C60 1_555 1_555
N1 C11 1_555 1_555
N2 C34 1_555 1_555
O1 C1 1_555 1_555
H71 O1 1_555 1_555
O2 C13 1_555 1_555
H72 O2 1_555 1_555
O3 C24 1_555 1_555
H73 O3 1_555 1_555
O4 C36 1_555 1_555
H74 O4 1_555 1_555
C61 H75 1_555 1_555
H76 C61 1_555 1_555
H77 C61 1_555 1_555
C62 C61 1_555 1_555
C63 H78 1_555 1_555
H79 C63 1_555 1_555
C64 C63 1_555 1_555
H80 C64 1_555 1_555
H81 C64 1_555 1_555
H82 C64 1_555 1_555
O5 C62 1_555 1_555
O6 C62 1_555 1_555
C5 C6 1_555 1_555
C12 N1 1_555 1_555
C17 C18 1_555 1_555
C28 C29 1_555 1_555
C35 N2 1_555 1_555
C40 C41 1_555 1_555
C41 C46 1_555 1_555
C47 N1 1_555 1_555
C52 C53 1_555 1_555
C54 N2 1_555 1_555
C59 C60 1_555 1_555
C63 O5 1_555 1_555

#END
