
#######################################################################
#
#                 Cambridge Crystallographic Data Centre
#                                CCDC 
#
#######################################################################
#
# If this CIF has been generated from an entry in the Cambridge 
# Structural Database, then it will include bibliographic, chemical, 
# crystal, experimental, refinement or atomic coordinate data resulting 
# from the CCDC's data processing and validation procedures.
#
#######################################################################

data_MILTOR
_chemical_formula_moiety         'C32 H30 Cl6,C2 H3 N1'
_chemical_name_systematic        
'2,3,6,7,10,11-hexakis(Chloromethyl)-4b,8b,12b,12d-tetramethyl-4b,8b,12b,12d-tetrahydrodibenzo(2,3:4,5)pentaleno(1,6-ab)indene acetonitrile solvate'
_symmetry_cell_setting           monoclinic
_symmetry_space_group_name_H-M   'P 21/c'
_symmetry_Int_Tables_number      14
_space_group_name_Hall           '-P 2ybc'
loop_
_symmetry_equiv_pos_site_id
_symmetry_equiv_pos_as_xyz
1 x,y,z
2 -x,1/2+y,1/2-z
3 -x,-y,-z
4 x,1/2-y,1/2+z
_cell_length_a                   12.273(3)
_cell_length_b                   21.104(5)
_cell_length_c                   12.788(3)
_cell_angle_alpha                90
_cell_angle_beta                 101.141(4)
_cell_angle_gamma                90
_cell_volume                     3249.79
_exptl_crystal_colour            colorless
_chemical_melting_point          '276-278 deg.C(dec.)'
_cell_formula_units_Z            4
loop_
_atom_site_label
_atom_site_type_symbol
_atom_site_fract_x
_atom_site_fract_y
_atom_site_fract_z
Cl1 Cl 0.02171(12) 0.82477(9) 0.61804(12)
Cl2 Cl 0.28278(15) 1.03480(7) 0.65479(13)
Cl3 Cl 0.96205(11) 0.86979(9) 0.91489(15)
Cl4 Cl 0.82783(14) 0.69044(8) 0.71853(12)
Cl5 Cl 0.35144(18) 0.47136(6) 0.88078(13)
Cl6 Cl 0.06791(15) 0.55074(10) 0.86322(13)
C1 C 0.4457(3) 0.79545(18) 1.0438(3)
C2 C 0.3207(3) 0.78523(18) 0.9841(3)
C3 C 0.4953(3) 0.85065(17) 0.9814(3)
C4 C 0.5114(3) 0.73286(17) 1.0247(3)
C5 C 0.4556(4) 0.8113(2) 1.1622(3)
H1 H 0.4303 0.7759 1.1983
H2 H 0.4109 0.8478 1.1695
H3 H 0.5317 0.8201 1.1931
C6 C 0.2306(4) 0.7962(2) 1.0512(3)
H4 H 0.1588 0.7870 1.0089
H5 H 0.2327 0.8396 1.0741
H6 H 0.2441 0.7689 1.1124
C7 C 0.5287(4) 0.91191(19) 1.0437(4)
H7 H 0.5876 0.9031 1.1031
H8 H 0.4659 0.9286 1.0691
H9 H 0.5537 0.9424 0.9978
C8 C 0.5652(4) 0.6969(2) 1.1259(3)
H10 H 0.6067 0.6616 1.1068
H11 H 0.5085 0.6818 1.1618
H12 H 0.6143 0.7248 1.1722
C9 C 0.3069(3) 0.83068(17) 0.8905(3)
C10 C 0.2137(3) 0.8379(2) 0.8109(3)
H13 H 0.1494 0.8153 0.8145
C11 C 0.2155(3) 0.8784(2) 0.7259(3)
C12 C 0.3131(3) 0.91190(19) 0.7205(3)
C13 C 0.4048(3) 0.90485(18) 0.8016(3)
H14 H 0.4691 0.9276 0.7989
C14 C 0.4029(3) 0.86436(17) 0.8871(3)
C15 C 0.1126(5) 0.8881(3) 0.6408(5)
H15 H 0.1357 0.8984 0.5745
H16 H 0.0726 0.9245 0.6606
C16 C 0.3218(4) 0.9552(2) 0.6297(4)
H17 H 0.2741 0.9397 0.5654
H18 H 0.3976 0.9550 0.6181
C17 C 0.5935(3) 0.81997(17) 0.9464(3)
C18 C 0.6726(3) 0.84904(19) 0.8988(3)
H19 H 0.6684 0.8925 0.8863
C19 C 0.7576(3) 0.8146(2) 0.8695(3)
C20 C 0.7643(3) 0.7493(2) 0.8877(3)
C21 C 0.6852(3) 0.72056(19) 0.9369(3)
H20 H 0.6895 0.6772 0.9503
C22 C 0.5998(3) 0.75545(18) 0.9663(3)
C23 C 0.8405(4) 0.8491(3) 0.8189(4)
H21 H 0.8068 0.8873 0.7849
H22 H 0.8618 0.8225 0.7642
C24 C 0.8546(4) 0.7094(2) 0.8585(4)
H23 H 0.8612 0.6704 0.8995
H24 H 0.9247 0.7319 0.8766
C25 C 0.4235(3) 0.69124(17) 0.9579(3)
C26 C 0.4384(3) 0.63254(18) 0.9152(3)
H25 H 0.5089 0.6146 0.9263
C27 C 0.3488(4) 0.59992(18) 0.8557(3)
C28 C 0.2420(3) 0.62620(19) 0.8422(3)
C29 C 0.2293(3) 0.68487(19) 0.8859(3)
H26 H 0.1586 0.7024 0.8776
C30 C 0.3190(3) 0.71831(18) 0.9419(3)
C31 C 0.3724(4) 0.5384(2) 0.8050(4)
H27 H 0.4488 0.5386 0.7950
H28 H 0.3248 0.5352 0.7352
C32 C 0.1405(4) 0.5939(2) 0.7803(4)
H29 H 0.1626 0.5653 0.7287
H30 H 0.0913 0.6255 0.7413
N1 N 0.7751(6) 1.0221(3) -0.0574(5)
C33 C 0.8181(5) 1.0033(3) 0.0200(4)
C34 C 0.8721(6) 0.9796(3) 0.1194(5)
H31 H 0.8805 0.9345 0.1147
H32 H 0.8286 0.9891 0.1723
H33 H 0.9439 0.9990 0.1391
loop_
_geom_bond_atom_site_label_1
_geom_bond_atom_site_label_2
_geom_bond_site_symmetry_1
_geom_bond_site_symmetry_2
Cl1 C15 1_555 1_555
Cl2 C16 1_555 1_555
Cl3 C23 1_555 1_555
Cl4 C24 1_555 1_555
Cl5 C31 1_555 1_555
Cl6 C32 1_555 1_555
N1 C33 1_555 1_555
C1 C2 1_555 1_555
C2 C6 1_555 1_555
C3 C1 1_555 1_555
C4 C1 1_555 1_555
C5 C1 1_555 1_555
H1 C5 1_555 1_555
H2 C5 1_555 1_555
H3 C5 1_555 1_555
C6 H4 1_555 1_555
H5 C6 1_555 1_555
H6 C6 1_555 1_555
C7 C3 1_555 1_555
H7 C7 1_555 1_555
H8 C7 1_555 1_555
H9 C7 1_555 1_555
C8 C4 1_555 1_555
H10 C8 1_555 1_555
H11 C8 1_555 1_555
H12 C8 1_555 1_555
C9 C2 1_555 1_555
C10 C9 1_555 1_555
H13 C10 1_555 1_555
C11 C10 1_555 1_555
C12 C11 1_555 1_555
C13 C12 1_555 1_555
H14 C13 1_555 1_555
C14 C3 1_555 1_555
C15 C11 1_555 1_555
H15 C15 1_555 1_555
H16 C15 1_555 1_555
C16 C12 1_555 1_555
H17 C16 1_555 1_555
H18 C16 1_555 1_555
C17 C3 1_555 1_555
C18 C17 1_555 1_555
H19 C18 1_555 1_555
C19 C18 1_555 1_555
C20 C19 1_555 1_555
C21 C20 1_555 1_555
H20 C21 1_555 1_555
C22 C4 1_555 1_555
C23 C19 1_555 1_555
H21 C23 1_555 1_555
H22 C23 1_555 1_555
C24 C20 1_555 1_555
H23 C24 1_555 1_555
H24 C24 1_555 1_555
C25 C4 1_555 1_555
C26 C25 1_555 1_555
H25 C26 1_555 1_555
C27 C26 1_555 1_555
C28 C27 1_555 1_555
C29 C28 1_555 1_555
H26 C29 1_555 1_555
C30 C2 1_555 1_555
C31 C27 1_555 1_555
H27 C31 1_555 1_555
H28 C31 1_555 1_555
C32 C28 1_555 1_555
H29 C32 1_555 1_555
H30 C32 1_555 1_555
C33 C34 1_555 1_555
C34 H31 1_555 1_555
H32 C34 1_555 1_555
H33 C34 1_555 1_555
C9 C14 1_555 1_555
C13 C14 1_555 1_555
C17 C22 1_555 1_555
C21 C22 1_555 1_555
C25 C30 1_555 1_555
C29 C30 1_555 1_555

#END
