
#######################################################################
#
#                 Cambridge Crystallographic Data Centre
#                                CCDC 
#
#######################################################################
#
# If this CIF has been generated from an entry in the Cambridge 
# Structural Database, then it will include bibliographic, chemical, 
# crystal, experimental, refinement or atomic coordinate data resulting 
# from the CCDC's data processing and validation procedures.
#
#######################################################################

data_MILTUX
_chemical_formula_moiety         'C41 H48 S6,2(C1 H1 Cl3)'
_chemical_name_systematic        
'4b,8b,12b,12d-Tetramethyl-4b,8b,12b,12d-tetrahydro-2,11:3,6:7,10-tris(methanothiopropanothiomethano)dibenzo(2,3:4,5)pentaleno(1,6-ab)indene chloroform clathrate'
_symmetry_cell_setting           triclinic
_symmetry_space_group_name_H-M   'P -1'
_symmetry_Int_Tables_number      2
_space_group_name_Hall           '-P 1'
loop_
_symmetry_equiv_pos_site_id
_symmetry_equiv_pos_as_xyz
1 x,y,z
2 -x,-y,-z
_cell_length_a                   11.5676(9)
_cell_length_b                   11.7065(9)
_cell_length_c                   17.1424(15)
_cell_angle_alpha                80.568(4)
_cell_angle_beta                 83.110(4)
_cell_angle_gamma                82.016(4)
_cell_volume                     2256.52
_exptl_crystal_colour            colorless
_chemical_melting_point          'above 360 deg.C'
_cell_formula_units_Z            2
loop_
_atom_site_label
_atom_site_type_symbol
_atom_site_fract_x
_atom_site_fract_y
_atom_site_fract_z
S1 S 0.83944(9) 0.53568(8) 0.09078(6)
S2 S 0.40857(9) 0.82503(10) 0.11370(6)
S3 S 0.44612(9) 0.86124(10) 0.47697(6)
S4 S 0.83941(10) 0.72568(9) 0.56654(6)
S5 S 1.22676(9) 0.66654(9) 0.40084(6)
S6 S 1.13102(10) 0.49330(9) 0.13607(7)
C1 C 0.8664(3) 1.0923(3) 0.19382(18)
C2 C 0.8847(3) 1.2175(3) 0.1566(2)
H1 H 0.9275 1.2171 0.1051
H2 H 0.9281 1.2502 0.1900
H3 H 0.8098 1.2636 0.1514
C3 C 0.7966(3) 1.0319(3) 0.14066(18)
C4 C 0.7941(3) 1.0857(3) 0.27909(19)
C5 C 0.9876(3) 1.0102(3) 0.20468(18)
C6 C 0.8791(3) 0.9250(3) 0.12224(18)
C7 C 0.6915(3) 0.9948(3) 0.19580(18)
C8 C 0.6908(3) 1.0220(3) 0.27148(19)
C9 C 0.8780(3) 1.0091(3) 0.33382(19)
C10 C 0.9799(3) 0.9660(3) 0.29354(19)
C11 C 0.9825(3) 0.9126(3) 0.15739(18)
C12 C 0.8593(3) 0.8419(3) 0.07752(19)
C13 C 0.9402(3) 0.7442(3) 0.06854(19)
C14 C 1.0483(3) 0.7346(3) 0.10086(19)
C15 C 1.0672(3) 0.8190(3) 0.1454(2)
C16 C 0.6033(3) 0.9367(3) 0.1776(2)
C17 C 0.5147(3) 0.9031(3) 0.2354(2)
C18 C 0.5136(3) 0.9309(3) 0.3124(2)
C19 C 0.6015(3) 0.9908(3) 0.3295(2)
C20 C 0.8577(3) 0.9773(3) 0.4156(2)
H4 H 0.7899 1.0095 0.4430
C21 C 0.9387(3) 0.8972(3) 0.45706(19)
C22 C 1.0409(3) 0.8506(3) 0.41574(19)
C23 C 1.0626(3) 0.8881(3) 0.33413(19)
H5 H 1.1327 0.8608 0.3068
C24 C 0.7576(3) 1.1055(3) 0.0630(2)
H6 H 0.7155 1.0604 0.0367
H7 H 0.8255 1.1276 0.0289
H8 H 0.7077 1.1742 0.0751
C25 C 0.7511(3) 1.2024(3) 0.3091(2)
H9 H 0.7017 1.2505 0.2724
H10 H 0.8173 1.2412 0.3135
H11 H 0.7074 1.1882 0.3603
C26 C 1.0991(3) 1.0682(3) 0.1773(2)
H12 H 1.1666 1.0117 0.1861
H13 H 1.1005 1.1308 0.2069
H14 H 1.1003 1.0985 0.1217
C27 C 0.6867(3) 0.5673(4) 0.0720(3)
H15 H 0.6823 0.5703 0.0155
H16 H 0.6459 0.5029 0.0995
C28 C 0.6217(3) 0.6801(3) 0.0969(2)
H17 H 0.6433 0.6880 0.1486
H18 H 0.6466 0.7456 0.0593
C29 C 0.4904(4) 0.6856(4) 0.1013(3)
H19 H 0.4650 0.6283 0.1454
H20 H 0.4706 0.6631 0.0531
C30 C 0.4187(3) 0.8381(4) 0.2162(2)
H21 H 0.3439 0.8762 0.2366
H22 H 0.4285 0.7598 0.2458
C31 C 0.4128(3) 0.9030(4) 0.3752(2)
H23 H 0.3771 0.8403 0.3605
H24 H 0.3542 0.9710 0.3731
C32 C 0.5257(4) 0.7167(4) 0.4748(3)
H25 H 0.4708 0.6593 0.4876
H26 H 0.5631 0.7115 0.4216
C33 C 0.6191(4) 0.6886(4) 0.5335(3)
H27 H 0.5819 0.6924 0.5870
H28 H 0.6576 0.6099 0.5317
C34 C 0.7094(4) 0.7731(4) 0.5141(3)
H29 H 0.6741 0.8484 0.5276
H30 H 0.7325 0.7830 0.4574
C35 C 0.9071(3) 0.8605(3) 0.5448(2)
H31 H 0.8534 0.9223 0.5655
H32 H 0.9775 0.8502 0.5720
C36 C 1.1268(3) 0.7585(3) 0.4597(2)
H33 H 1.0816 0.7086 0.4991
H34 H 1.1729 0.7981 0.4881
C37 C 1.1244(4) 0.5975(3) 0.3572(2)
H35 H 1.1013 0.5305 0.3940
H36 H 1.0546 0.6521 0.3478
C38 C 1.1788(4) 0.5585(4) 0.2793(2)
H37 H 1.2412 0.4952 0.2898
H38 H 1.2128 0.6227 0.2455
C39 C 1.0876(4) 0.5181(4) 0.2368(2)
H39 H 1.0189 0.5760 0.2368
H40 H 1.0643 0.4462 0.2674
C40 C 1.1479(3) 0.6405(3) 0.0857(2)
H41 H 1.2186 0.6630 0.1010
H42 H 1.1599 0.6383 0.0290
C41 C 0.9102(3) 0.6520(3) 0.0251(2)
H43 H 0.9815 0.6175 -0.0023
H44 H 0.8582 0.6886 -0.0146
H47 H 0.791(4) 0.855(4) 0.055(3)
H48 H 1.142(4) 0.812(4) 0.162(3)
H49 H 0.608(4) 0.916(4) 0.129(3)
H50 H 0.598(4) 1.014(4) 0.381(3)
Cl1 Cl 0.49178(15) 0.34262(14) 0.15101(13)
Cl2 Cl 0.37930(13) 0.16243(13) 0.10680(8)
Cl3 Cl 0.32634(12) 0.22485(12) 0.26373(8)
C42 C 0.4330(4) 0.2113(4) 0.1856(3)
H45 H 0.4967 0.1529 0.2046
Cl4 Cl 0.8135(2) 0.48106(14) 0.39336(9)
Cl5 Cl 0.77534(12) 0.69968(11) 0.29126(8)
Cl6 Cl 0.61295(16) 0.53007(15) 0.30613(11)
C43 C 0.7600(5) 0.5522(4) 0.3060(3)
H46 H 0.8056 0.5177 0.2618
loop_
_geom_bond_atom_site_label_1
_geom_bond_atom_site_label_2
_geom_bond_site_symmetry_1
_geom_bond_site_symmetry_2
S1 C27 1_555 1_555
S2 C29 1_555 1_555
S3 C31 1_555 1_555
S4 C34 1_555 1_555
S5 C36 1_555 1_555
S6 C39 1_555 1_555
Cl1 C42 1_555 1_555
Cl2 C42 1_555 1_555
Cl3 C42 1_555 1_555
Cl4 C43 1_555 1_555
Cl5 C43 1_555 1_555
Cl6 C43 1_555 1_555
C1 C2 1_555 1_555
C2 H1 1_555 1_555
H2 C2 1_555 1_555
H3 C2 1_555 1_555
C3 C1 1_555 1_555
C4 C1 1_555 1_555
C5 C1 1_555 1_555
C6 C3 1_555 1_555
C7 C3 1_555 1_555
C8 C4 1_555 1_555
C9 C4 1_555 1_555
C10 C5 1_555 1_555
C11 C5 1_555 1_555
C12 C6 1_555 1_555
C13 C12 1_555 1_555
C14 C13 1_555 1_555
C15 C11 1_555 1_555
C16 C7 1_555 1_555
C17 C16 1_555 1_555
C18 C17 1_555 1_555
C19 C8 1_555 1_555
C20 C9 1_555 1_555
H4 C20 1_555 1_555
C21 C20 1_555 1_555
C22 C21 1_555 1_555
C23 C10 1_555 1_555
H5 C23 1_555 1_555
C24 C3 1_555 1_555
H6 C24 1_555 1_555
H7 C24 1_555 1_555
H8 C24 1_555 1_555
C25 C4 1_555 1_555
H9 C25 1_555 1_555
H10 C25 1_555 1_555
H11 C25 1_555 1_555
C26 C5 1_555 1_555
H12 C26 1_555 1_555
H13 C26 1_555 1_555
H14 C26 1_555 1_555
C27 H15 1_555 1_555
H16 C27 1_555 1_555
C28 C27 1_555 1_555
H17 C28 1_555 1_555
H18 C28 1_555 1_555
C29 C28 1_555 1_555
H19 C29 1_555 1_555
H20 C29 1_555 1_555
C30 S2 1_555 1_555
H21 C30 1_555 1_555
H22 C30 1_555 1_555
C31 C18 1_555 1_555
H23 C31 1_555 1_555
H24 C31 1_555 1_555
C32 S3 1_555 1_555
H25 C32 1_555 1_555
H26 C32 1_555 1_555
C33 C32 1_555 1_555
H27 C33 1_555 1_555
H28 C33 1_555 1_555
C34 C33 1_555 1_555
H29 C34 1_555 1_555
H30 C34 1_555 1_555
C35 S4 1_555 1_555
H31 C35 1_555 1_555
H32 C35 1_555 1_555
C36 C22 1_555 1_555
H33 C36 1_555 1_555
H34 C36 1_555 1_555
C37 S5 1_555 1_555
H35 C37 1_555 1_555
H36 C37 1_555 1_555
C38 C37 1_555 1_555
H37 C38 1_555 1_555
H38 C38 1_555 1_555
C39 C38 1_555 1_555
H39 C39 1_555 1_555
H40 C39 1_555 1_555
C40 S6 1_555 1_555
H41 C40 1_555 1_555
H42 C40 1_555 1_555
C41 S1 1_555 1_555
H43 C41 1_555 1_555
H44 C41 1_555 1_555
C42 H45 1_555 1_555
C43 H46 1_555 1_555
H47 C12 1_555 1_555
H48 C15 1_555 1_555
H49 C16 1_555 1_555
H50 C19 1_555 1_555
C6 C11 1_555 1_555
C7 C8 1_555 1_555
C9 C10 1_555 1_555
C13 C41 1_555 1_555
C14 C15 1_555 1_555
C14 C40 1_555 1_555
C17 C30 1_555 1_555
C18 C19 1_555 1_555
C21 C35 1_555 1_555
C22 C23 1_555 1_555

#END
