
#######################################################################
#
#                 Cambridge Crystallographic Data Centre
#                                CCDC 
#
#######################################################################
#
# If this CIF has been generated from an entry in the Cambridge 
# Structural Database, then it will include bibliographic, chemical, 
# crystal, experimental, refinement or atomic coordinate data resulting 
# from the CCDC's data processing and validation procedures.
#
#######################################################################

data_MILVAF
_chemical_formula_moiety         'C32 H36 O6,2(H2 O1)'
_chemical_name_systematic        
'2,3,6,7,10,11-hexakis(Hydroxymethyl)-4b,8b,12b,12d-tetramethyl-4b,8b,12b,12d-tetrahydrodibenzo(2,3:4,5)pentaleno(1,6-ab)indene dihydrate'
_symmetry_cell_setting           triclinic
_symmetry_space_group_name_H-M   'P -1'
_symmetry_Int_Tables_number      2
_space_group_name_Hall           '-P 1'
loop_
_symmetry_equiv_pos_site_id
_symmetry_equiv_pos_as_xyz
1 x,y,z
2 -x,-y,-z
_cell_length_a                   10.1378(4)
_cell_length_b                   11.5653(4)
_cell_length_c                   12.6616(5)
_cell_angle_alpha                75.685(2)
_cell_angle_beta                 79.458(2)
_cell_angle_gamma                68.905(2)
_cell_volume                     1334.77
_cell_formula_units_Z            2
loop_
_atom_site_label
_atom_site_type_symbol
_atom_site_fract_x
_atom_site_fract_y
_atom_site_fract_z
C1 C 0.5734(3) 1.0168(2) 0.20199(19)
O1 O 1.1467(2) 0.39704(19) 0.14595(17)
H1 H 1.1002 0.3497 0.1544
C2 C 0.7046(3) 0.9821(2) 0.35364(18)
C3 C 0.9414(3) 0.6906(2) 0.39640(19)
H2 H 0.9481 0.7232 0.4546
C4 C 0.8215(3) 0.7464(2) 0.33979(19)
O2 O 1.0280(2) 0.75446(19) -0.17393(16)
H3 H 1.0858 0.7116 -0.1300
C5 C 1.0514(3) 0.5866(2) 0.3670(2)
C6 C 0.7755(3) 1.0153(2) 0.4194(2)
H4 H 0.8298 0.9532 0.4712
C7 C 0.6787(3) 0.9963(2) 0.09889(18)
C8 C 0.8136(3) 0.6989(2) 0.25201(19)
C9 C 0.5918(3) 0.8768(2) 0.26854(19)
C10 C 0.6142(3) 1.1992(2) 0.2644(2)
H5 H 0.5592 1.2609 0.2127
C11 C 0.8406(3) 0.8342(2) 0.00741(19)
H6 H 0.8818 0.7489 0.0044
C12 C 0.6867(3) 0.7838(2) 0.18972(19)
C13 C 0.7172(3) 1.0878(2) 0.0183(2)
H7 H 0.6754 1.1728 0.0224
C14 C 0.6874(3) 0.8547(2) 0.36363(19)
C15 C 0.9206(3) 0.5925(2) 0.2235(2)
H8 H 0.9122 0.5594 0.1661
C16 C 0.8813(3) 0.9234(3) -0.07411(19)
C17 C 0.6292(3) 1.0734(2) 0.27291(19)
C18 C 0.7394(3) 0.8704(2) 0.09321(18)
C19 C 0.8188(3) 1.0519(3) -0.0687(2)
C20 C 0.6208(3) 0.8169(3) 0.4813(2)
H9 H 0.6030 0.7391 0.4883
H10 H 0.5330 0.8821 0.4958
H11 H 0.6852 0.8059 0.5328
O3 O 0.7702(3) 1.2751(2) -0.14943(18)
H12 H 0.7581 1.3181 -0.2112
C21 C 1.0397(3) 0.5355(2) 0.2806(2)
C22 C 0.6803(3) 1.2341(2) 0.3318(2)
O4 O 0.9710(3) 1.2025(3) 0.41101(18)
H13 H 0.9547 1.2278 0.3467
C23 C 0.7657(3) 1.1408(2) 0.4082(2)
C24 C 0.4498(3) 0.8560(3) 0.3129(2)
H14 H 0.3970 0.8688 0.2529
H15 H 0.3965 0.9148 0.3595
H16 H 0.4667 0.7712 0.3541
O5 O 1.2903(2) 0.5854(2) 0.3651(2)
H17 H 1.3692 0.5352 0.3785
C25 C 1.1831(3) 0.5336(2) 0.4259(2)
H18 H 1.1601 0.5541 0.4983
H19 H 1.2190 0.4423 0.4345
C26 C 1.1569(3) 0.4185(3) 0.2499(2)
H20 H 1.2485 0.4278 0.2488
H21 H 1.1524 0.3452 0.3057
C27 C 0.4244(3) 1.0978(3) 0.1699(2)
H22 H 0.3593 1.1088 0.2348
H23 H 0.3943 1.0566 0.1263
H24 H 0.4263 1.1789 0.1283
C28 C 0.9893(3) 0.8840(3) -0.1693(2)
H25 H 0.9510 0.9350 -0.2370
H26 H 1.0743 0.9019 -0.1646
C29 C 0.6127(3) 0.7110(3) 0.1493(2)
H27 H 0.6776 0.6631 0.0980
H28 H 0.5313 0.7696 0.1142
H29 H 0.5829 0.6547 0.2105
C30 C 0.8525(3) 1.1721(3) 0.4755(2)
H30 H 0.7923 1.2431 0.5087
H31 H 0.8866 1.1003 0.5340
C31 C 0.8619(3) 1.1509(3) -0.1571(2)
H32 H 0.9585 1.1439 -0.1505
H33 H 0.8602 1.1351 -0.2285
C32 C 0.6569(4) 1.3745(3) 0.3229(3)
O7 O 0.5649(4) 1.4286(3) 0.4079(3)
H34 H 0.6084 1.4118 0.4613
H35 H 0.735(3) 1.399(3) 0.311(3)
O6 O 0.2069(3) 0.5985(2) 0.9925(2)
O8? O 0.5040(12) 0.4938(13) 0.9496(7)
O9? O 0.5218(9) 1.4482(6) 0.2750(6)
loop_
_geom_bond_atom_site_label_1
_geom_bond_atom_site_label_2
_geom_bond_site_symmetry_1
_geom_bond_site_symmetry_2
C1 C7 1_555 1_555
O1 H1 1_555 1_555
C2 C6 1_555 1_555
C3 H2 1_555 1_555
C4 C3 1_555 1_555
O2 H3 1_555 1_555
C5 C3 1_555 1_555
C6 H4 1_555 1_555
C7 C13 1_555 1_555
C8 C4 1_555 1_555
C9 C1 1_555 1_555
C10 H5 1_555 1_555
C11 H6 1_555 1_555
C12 C8 1_555 1_555
C13 H7 1_555 1_555
C14 C2 1_555 1_555
C15 C8 1_555 1_555
H8 C15 1_555 1_555
C16 C11 1_555 1_555
C17 C1 1_555 1_555
C18 C7 1_555 1_555
C19 C13 1_555 1_555
C20 C14 1_555 1_555
H9 C20 1_555 1_555
H10 C20 1_555 1_555
H11 C20 1_555 1_555
O3 H12 1_555 1_555
C21 C5 1_555 1_555
C22 C10 1_555 1_555
O4 H13 1_555 1_555
C23 C6 1_555 1_555
C24 C9 1_555 1_555
H14 C24 1_555 1_555
H15 C24 1_555 1_555
H16 C24 1_555 1_555
O5 H17 1_555 1_555
C25 C5 1_555 1_555
H18 C25 1_555 1_555
H19 C25 1_555 1_555
C26 O1 1_555 1_555
H20 C26 1_555 1_555
H21 C26 1_555 1_555
C27 C1 1_555 1_555
H22 C27 1_555 1_555
H23 C27 1_555 1_555
H24 C27 1_555 1_555
C28 O2 1_555 1_555
H25 C28 1_555 1_555
H26 C28 1_555 1_555
C29 C12 1_555 1_555
H27 C29 1_555 1_555
H28 C29 1_555 1_555
H29 C29 1_555 1_555
C30 O4 1_555 1_555
H30 C30 1_555 1_555
H31 C30 1_555 1_555
C31 C19 1_555 1_555
H32 C31 1_555 1_555
H33 C31 1_555 1_555
C32 C22 1_555 1_555
O7 C32 1_555 1_555
H34 O7 1_555 1_555
H35 C32 1_555 1_555
C2 C17 1_555 1_555
C4 C14 1_555 1_555
C9 C12 1_555 1_555
C9 C14 1_555 1_555
C10 C17 1_555 1_555
C11 C18 1_555 1_555
C12 C18 1_555 1_555
C15 C21 1_555 1_555
C16 C19 1_555 1_555
C16 C28 1_555 1_555
O3 C31 1_555 1_555
C21 C26 1_555 1_555
C22 C23 1_555 1_555
C23 C30 1_555 1_555
O5 C25 1_555 1_555

#END
