
#######################################################################
#
#                 Cambridge Crystallographic Data Centre
#                                CCDC 
#
#######################################################################
#
# If this CIF has been generated from an entry in the Cambridge 
# Structural Database, then it will include bibliographic, chemical, 
# crystal, experimental, refinement or atomic coordinate data resulting 
# from the CCDC's data processing and validation procedures.
#
#######################################################################

data_MIMFOG
_chemical_formula_moiety         'C16 H13 N5'
_chemical_name_systematic        
3-methyl-1-phenyl-4-(1H-pyrazol-1-yl)-1H-pyrazolo[3,4-b]pyridine
_symmetry_cell_setting           monoclinic
_symmetry_space_group_name_H-M   'P 21/c'
_symmetry_Int_Tables_number      14
_space_group_name_Hall           '-P 2ybc'
loop_
_symmetry_equiv_pos_site_id
_symmetry_equiv_pos_as_xyz
1 x,y,z
2 -x,1/2+y,1/2-z
3 -x,-y,-z
4 x,1/2-y,1/2+z
_cell_length_a                   18.0593(2)
_cell_length_b                   7.84090(10)
_cell_length_c                   19.3817(3)
_cell_angle_alpha                90
_cell_angle_beta                 104.4230(10)
_cell_angle_gamma                90
_cell_volume                     2657.97
_exptl_crystal_colour            brown
_exptl_crystal_description       block
_cell_formula_units_Z            8
loop_
_atom_site_label
_atom_site_type_symbol
_atom_site_fract_x
_atom_site_fract_y
_atom_site_fract_z
N1 N 0.36408(7) 0.75786(14) 0.36452(6)
N2 N 0.38080(6) 0.41659(13) 0.15050(6)
N3 N 0.33632(6) 0.36073(13) 0.19418(6)
N4 N 0.36846(6) 0.86140(13) 0.30929(6)
C1 C 0.39292(7) 0.79635(16) 0.25096(7)
N5 N 0.44494(6) 0.67587(14) 0.13230(6)
C2 C 0.40504(7) 0.58029(16) 0.16775(7)
C3 C 0.37625(7) 0.62871(16) 0.22624(7)
C4 C 0.45178(8) 0.32836(17) 0.06481(7)
H1 H 0.489438 0.412596 0.082831
C5 C 0.43376(8) 0.89876(17) 0.21543(7)
H2 H 0.445576 1.012993 0.230544
C6 C 0.45755(8) 0.83418(17) 0.15745(8)
H3 H 0.484866 0.908835 0.134073
C7 C 0.33292(7) 0.48430(16) 0.23954(7)
C8 C 0.38879(7) 0.31091(16) 0.09292(7)
C9 C 0.28471(8) 0.45650(17) 0.29074(8)
H4 H 0.254485 0.352267 0.277867
H5 H 0.250317 0.553956 0.288985
H6 H 0.317637 0.445007 0.339025
C10 C 0.40470(8) 0.09703(17) -0.01604(8)
H7 H 0.410688 0.022218 -0.052823
C11 C 0.34372(8) 0.86193(18) 0.41023(8)
H8 H 0.335892 0.826125 0.454704
C12 C 0.45911(8) 0.22112(18) 0.00995(8)
H9 H 0.501860 0.232900 -0.009978
C13 C 0.35203(8) 1.02652(17) 0.32126(8)
H10 H 0.352382 1.120690 0.290505
C14 C 0.33270(8) 0.18958(16) 0.06634(8)
H11 H 0.289063 0.180087 0.085148
C15 C 0.33496(8) 1.03070(18) 0.38592(8)
H12 H 0.320356 1.126818 0.409307
C16 C 0.34155(8) 0.08284(17) 0.01197(8)
H13 H 0.303819 -0.001098 -0.006296
N6 N 0.01388(6) 0.36346(14) 0.41621(6)
N7 N 0.05467(6) 0.85895(13) 0.31434(6)
N8 N -0.05957(6) 0.41475(13) 0.41454(6)
N9 N -0.13605(6) 0.66810(14) 0.38340(6)
C17 C -0.07684(8) 0.16275(17) 0.48047(7)
H14 H -0.022931 0.147988 0.493782
C18 C -0.07210(7) 0.57680(16) 0.38762(7)
C19 C -0.00506(7) 0.62794(16) 0.36862(7)
N10 N 0.09819(7) 0.75838(15) 0.28272(7)
C20 C -0.13287(8) 0.82405(17) 0.35677(7)
H15 H -0.175701 0.896545 0.353790
C21 C 0.04711(7) 0.48865(16) 0.38971(7)
C22 C -0.00690(7) 0.79129(16) 0.33841(7)
C23 C -0.07180(8) 0.88937(17) 0.33293(7)
H16 H -0.074756 1.000653 0.313045
C24 C -0.10877(8) 0.30068(16) 0.43853(7)
C25 C -0.18768(8) 0.32342(18) 0.41932(8)
H17 H -0.209754 0.416983 0.390261
C26 C 0.12909(8) 0.46919(18) 0.38876(8)
H18 H 0.150694 0.369073 0.416927
H19 H 0.157547 0.571289 0.409187
H20 H 0.132845 0.454431 0.339533
C27 C 0.13793(8) 1.03242(18) 0.28793(8)
H21 H 0.167100 1.130139 0.282572
C28 C -0.23367(8) 0.20705(19) 0.44332(8)
H22 H -0.287528 0.222816 0.431057
C29 C -0.20257(9) 0.06905(19) 0.48464(8)
H23 H -0.234706 -0.009843 0.500479
C30 C 0.07718(8) 1.02542(17) 0.31736(8)
H24 H 0.054762 1.118215 0.336318
C31 C 0.14840(9) 0.86548(19) 0.26723(8)
H25 H 0.187161 0.832433 0.244595
C32 C -0.12393(9) 0.04668(18) 0.50282(8)
H26 H -0.102167 -0.048803 0.530781
loop_
_geom_bond_atom_site_label_1
_geom_bond_atom_site_label_2
_geom_bond_site_symmetry_1
_geom_bond_site_symmetry_2
N1 N4 1_555 1_555
N2 N3 1_555 1_555
N3 C7 1_555 1_555
N4 C1 1_555 1_555
C1 C3 1_555 1_555
N5 C2 1_555 1_555
C2 N2 1_555 1_555
C3 C2 1_555 1_555
C4 H1 1_555 1_555
C5 C1 1_555 1_555
H2 C5 1_555 1_555
C6 N5 1_555 1_555
H3 C6 1_555 1_555
C7 C3 1_555 1_555
C8 N2 1_555 1_555
C9 C7 1_555 1_555
H4 C9 1_555 1_555
H5 C9 1_555 1_555
H6 C9 1_555 1_555
C10 H7 1_555 1_555
C11 N1 1_555 1_555
H8 C11 1_555 1_555
C12 C4 1_555 1_555
H9 C12 1_555 1_555
C13 N4 1_555 1_555
H10 C13 1_555 1_555
C14 C8 1_555 1_555
H11 C14 1_555 1_555
C15 C11 1_555 1_555
H12 C15 1_555 1_555
C16 C10 1_555 1_555
H13 C16 1_555 1_555
N6 N8 1_555 1_555
N7 N10 1_555 1_555
N8 C18 1_555 1_555
N9 C18 1_555 1_555
C17 H14 1_555 1_555
C18 C19 1_555 1_555
C19 C21 1_555 1_555
N10 C31 1_555 1_555
C20 N9 1_555 1_555
H15 C20 1_555 1_555
C21 N6 1_555 1_555
C22 N7 1_555 1_555
C23 C20 1_555 1_555
H16 C23 1_555 1_555
C24 N8 1_555 1_555
C25 C24 1_555 1_555
H17 C25 1_555 1_555
C26 C21 1_555 1_555
H18 C26 1_555 1_555
H19 C26 1_555 1_555
H20 C26 1_555 1_555
C27 H21 1_555 1_555
C28 C25 1_555 1_555
H22 C28 1_555 1_555
C29 C28 1_555 1_555
H23 C29 1_555 1_555
C30 N7 1_555 1_555
H24 C30 1_555 1_555
C31 C27 1_555 1_555
H25 C31 1_555 1_555
C32 C17 1_555 1_555
H26 C32 1_555 1_555
C4 C8 1_555 1_555
C5 C6 1_555 1_555
C10 C12 1_555 1_555
C13 C15 1_555 1_555
C14 C16 1_555 1_555
C17 C24 1_555 1_555
C19 C22 1_555 1_555
C22 C23 1_555 1_555
C27 C30 1_555 1_555
C29 C32 1_555 1_555

#END
