
#######################################################################
#
#                 Cambridge Crystallographic Data Centre
#                                CCDC 
#
#######################################################################
#
# If this CIF has been generated from an entry in the Cambridge 
# Structural Database, then it will include bibliographic, chemical, 
# crystal, experimental, refinement or atomic coordinate data resulting 
# from the CCDC's data processing and validation procedures.
#
#######################################################################

data_MIMHUN
_chemical_formula_moiety         'C6 H14 Mg1 N8 O8'
_chemical_name_systematic        
Tetra-aqua-bis(1H-tetrazol-1-ylacetato)-magnesium
_symmetry_cell_setting           triclinic
_symmetry_space_group_name_H-M   'P -1'
_symmetry_Int_Tables_number      2
_space_group_name_Hall           '-P 1'
loop_
_symmetry_equiv_pos_site_id
_symmetry_equiv_pos_as_xyz
1 x,y,z
2 -x,-y,-z
_cell_length_a                   6.133(2)
_cell_length_b                   6.488(2)
_cell_length_c                   9.271(4)
_cell_angle_alpha                77.282(10)
_cell_angle_beta                 85.181(9)
_cell_angle_gamma                76.002(8)
_cell_volume                     348.98
_exptl_crystal_colour            colorless
_exptl_crystal_description       Chunk
_cell_formula_units_Z            1
loop_
_atom_site_label
_atom_site_type_symbol
_atom_site_fract_x
_atom_site_fract_y
_atom_site_fract_z
Mg1 Mg 0.0000 0.5000 0.5000
O1 O 0.26913(19) 0.28628(18) 0.42266(13)
O2 O 0.46325(19) 0.50029(18) 0.26874(12)
O3 O 0.1875(2) 0.7395(2) 0.44659(14)
O4 O 0.1399(2) 0.3930(2) 0.70555(14)
N1 N 0.7505(2) 0.1558(2) 0.17990(15)
N2 N 0.9651(2) 0.1103(2) 0.22189(16)
N3 N 1.0839(2) 0.1763(2) 0.10631(16)
N4 N 0.9492(2) 0.2669(2) -0.01219(16)
C1 C 0.7446(3) 0.2519(3) 0.03705(18)
H1 H 0.6136 0.3016 -0.0202
C2 C 0.5677(3) 0.1130(3) 0.28478(18)
H2 H 0.6318 0.0102 0.3749
H3 H 0.4712 0.0430 0.2404
C3 C 0.4228(3) 0.3193(3) 0.32863(17)
H4 H 0.285(4) 0.687(4) 0.384(3)
H5 H 0.122(4) 0.863(5) 0.404(3)
H6 H 0.073(4) 0.363(4) 0.790(3)
H7 H 0.259(5) 0.429(4) 0.722(3)
O1A O -0.26913(19) 0.71372(18) 0.57734(13)
O2A O -0.46325(19) 0.49971(18) 0.73126(12)
O3A O -0.1875(2) 0.2605(2) 0.55341(14)
O4A O -0.1399(2) 0.6070(2) 0.29445(14)
N1A N -0.7505(2) 0.8442(2) 0.82010(15)
N2A N -0.9651(2) 0.8897(2) 0.77811(16)
N3A N -1.0839(2) 0.8237(2) 0.89369(16)
N4A N -0.9492(2) 0.7331(2) 1.01219(16)
C1A C -0.7446(3) 0.7481(3) 0.96295(18)
H1A H -0.6136 0.6984 1.0202
C2A C -0.5677(3) 0.8870(3) 0.71522(18)
H2A H -0.6318 0.9898 0.6251
H3A H -0.4712 0.9570 0.7596
C3A C -0.4228(3) 0.6807(3) 0.67137(17)
H4A H -0.285(4) 0.313(4) 0.616(3)
H5A H -0.122(4) 0.137(5) 0.596(3)
H6A H -0.073(4) 0.637(4) 0.210(3)
H7A H -0.259(5) 0.571(4) 0.278(3)
loop_
_geom_bond_atom_site_label_1
_geom_bond_atom_site_label_2
_geom_bond_site_symmetry_1
_geom_bond_site_symmetry_2
Mg1 O1 1_555 1_555
O1 C3 1_555 1_555
O2 C3 1_555 1_555
O3 Mg1 1_555 1_555
O4 Mg1 1_555 1_555
N1 N2 1_555 1_555
N2 N3 1_555 1_555
N3 N4 1_555 1_555
N4 C1 1_555 1_555
C1 N1 1_555 1_555
H1 C1 1_555 1_555
C2 N1 1_555 1_555
H2 C2 1_555 1_555
H3 C2 1_555 1_555
C3 C2 1_555 1_555
H4 O3 1_555 1_555
H5 O3 1_555 1_555
H6 O4 1_555 1_555
H7 O4 1_555 1_555
O1A Mg1 1_555 1_555
O2A C3A 1_555 1_555
O3A Mg1 1_555 1_555
O4A Mg1 1_555 1_555
N1A N2A 1_555 1_555
N2A N3A 1_555 1_555
N3A N4A 1_555 1_555
N4A C1A 1_555 1_555
C1A N1A 1_555 1_555
H1A C1A 1_555 1_555
C2A N1A 1_555 1_555
H2A C2A 1_555 1_555
H3A C2A 1_555 1_555
C3A O1A 1_555 1_555
H4A O3A 1_555 1_555
H5A O3A 1_555 1_555
H6A O4A 1_555 1_555
H7A O4A 1_555 1_555
C2A C3A 1_555 1_555

#END
