
#######################################################################
#
#                 Cambridge Crystallographic Data Centre
#                                CCDC 
#
#######################################################################
#
# If this CIF has been generated from an entry in the Cambridge 
# Structural Database, then it will include bibliographic, chemical, 
# crystal, experimental, refinement or atomic coordinate data resulting 
# from the CCDC's data processing and validation procedures.
#
#######################################################################

data_MIMJAV
_chemical_formula_moiety         'C28 H22 Cl1 F4 N3 O2,0.5(C3 H6 O1)'
_chemical_name_systematic        
'(R)-1-acetyl-6-(2-chloro-4-fluorophenyl)-4-methyl-N--((R)-1-phenylethyl)-2-(2,4,6-trifluorophenyl)-1,6-dihydropyrimidine-5-carboxamide acetone solvate'
_symmetry_cell_setting           monoclinic
_symmetry_space_group_name_H-M   'P 21'
_symmetry_Int_Tables_number      4
_space_group_name_Hall           'P 2yb'
loop_
_symmetry_equiv_pos_site_id
_symmetry_equiv_pos_as_xyz
1 x,y,z
2 -x,1/2+y,-z
_cell_length_a                   12.2113(11)
_cell_length_b                   9.4956(9)
_cell_length_c                   25.484(2)
_cell_angle_alpha                90
_cell_angle_beta                 98.4860(10)
_cell_angle_gamma                90
_cell_volume                     2922.61
_exptl_crystal_colour            colorless
_exptl_crystal_description       block
_chemical_melting_point          '456.7 K'
_cell_formula_units_Z            4
loop_
_atom_site_label
_atom_site_type_symbol
_atom_site_fract_x
_atom_site_fract_y
_atom_site_fract_z
C1 C 0.9945(4) 0.5611(5) 0.39537(17)
H1 H 0.9697 0.6593 0.3923
C2 C 1.1618(4) 0.4472(5) 0.37149(17)
C3 C 1.1517(4) 0.4772(5) 0.46124(16)
C4 C 1.0526(3) 0.5406(4) 0.45095(16)
C5 C 0.8910(4) 0.4681(6) 0.38438(16)
C6 C 0.7851(4) 0.5226(7) 0.3763(2)
Cl1 Cl 0.7662(5) 0.7097(6) 0.3709(2)
C7 C 0.6923(5) 0.4375(9) 0.3704(3)
H2 H 0.6213 0.4754 0.3648
C8 C 0.7093(5) 0.2943(8) 0.3730(2)
C9 C 0.8123(5) 0.2333(7) 0.3781(2)
H3 H 0.8209 0.1361 0.3771
C10 C 0.9027(4) 0.3230(6) 0.38470(19)
H4 H 0.9736 0.2845 0.3895
C11 C 1.0545(5) 0.6224(5) 0.31114(19)
C12 C 1.1467(5) 0.6423(6) 0.2783(2)
H5 H 1.1528 0.5595 0.2573
H6 H 1.2152 0.6577 0.3014
H7 H 1.1306 0.7222 0.2554
C13 C 1.2095(4) 0.3702(5) 0.32933(19)
C14 C 1.1470(4) 0.2858(5) 0.2920(2)
C15 C 1.1906(5) 0.2059(7) 0.2552(2)
H8 H 1.1468 0.1479 0.2313
C16 C 1.3059(5) 0.2174(7) 0.2560(2)
C17 C 1.3734(5) 0.2970(7) 0.2915(2)
H9 H 1.4494 0.3014 0.2910
C18 C 1.3237(4) 0.3713(6) 0.32839(19)
C19 C 1.2202(3) 0.4593(5) 0.51350(17)
H10 H 1.1871 0.5095 0.5399
H11 H 1.2931 0.4956 0.5122
H12 H 1.2250 0.3610 0.5225
C20 C 0.9886(3) 0.5976(4) 0.49221(15)
C21 C 0.8828(4) 0.5359(5) 0.56426(19)
H13 H 0.8826 0.6382 0.5694
C22 C 0.9211(5) 0.4679(7) 0.6170(2)
H14 H 0.9238 0.3677 0.6125
H15 H 0.8705 0.4906 0.6412
H16 H 0.9936 0.5021 0.6308
C23 C 0.7654(4) 0.4902(5) 0.5403(2)
C24 C 0.6802(5) 0.5803(8) 0.5391(5)
H17 H 0.6919 0.6686 0.5547
C25 C 0.5737(6) 0.5428(11) 0.5144(5)
H18 H 0.5177 0.6098 0.5120
C26 C 0.5492(6) 0.4117(10) 0.4938(3)
H19 H 0.4775 0.3857 0.4797
C27 C 0.6340(7) 0.3235(11) 0.4952(4)
H20 H 0.6226 0.2348 0.4800
C28 C 0.7427(6) 0.3627(9) 0.5199(4)
H21 H 0.7994 0.2968 0.5217
F1 F 0.6204(3) 0.2053(6) 0.36653(16)
F2 F 1.0370(3) 0.2800(4) 0.29223(14)
F3 F 1.3516(4) 0.1395(5) 0.22079(17)
F4 F 1.3886(2) 0.4518(4) 0.36247(12)
N1 N 1.0739(3) 0.5406(4) 0.35764(15)
N2 N 1.1999(3) 0.4141(4) 0.41951(14)
N3 N 0.9595(3) 0.5027(4) 0.52689(14)
H22 H 0.9770 0.4200 0.5249
O1 O 0.9671(3) 0.6816(4) 0.30069(14)
O2 O 0.9613(3) 0.7218(3) 0.49168(12)
C30 C -0.0042(3) 0.8040(5) 0.11164(18)
H23 H 0.0243 0.9004 0.1162
Cl3 Cl 0.23311(13) 0.9283(2) 0.14616(11)
C31 C -0.1758(3) 0.6907(6) 0.13118(17)
C32 C -0.1588(3) 0.7283(4) 0.04232(16)
C33 C -0.0597(3) 0.7888(5) 0.05411(17)
C34 C 0.0937(3) 0.7043(6) 0.12452(17)
C35 C 0.2010(4) 0.7505(7) 0.1419(2)
C36 C 0.2878(4) 0.6539(9) 0.1552(2)
H24 H 0.3592 0.6854 0.1673
C37 C 0.2662(4) 0.5160(8) 0.1503(2)
C38 C 0.1618(4) 0.4621(7) 0.13116(18)
H25 H 0.1490 0.3659 0.1270
C39 C 0.0782(3) 0.5600(6) 0.11877(17)
H26 H 0.0076 0.5273 0.1058
C40 C -0.0790(4) 0.8729(6) 0.19184(18)
C41 C -0.1744(4) 0.8862(7) 0.22255(19)
H27 H -0.1679 0.8161 0.2500
H28 H -0.2427 0.8729 0.1991
H29 H -0.1736 0.9782 0.2382
C42 C -0.2243(4) 0.6014(7) 0.17141(19)
C43 C -0.1638(4) 0.5036(6) 0.20254(19)
C44 C -0.2105(5) 0.4058(8) 0.2338(2)
H30 H -0.1657 0.3441 0.2558
C45 C -0.3188(6) 0.4025(9) 0.2316(2)
F5 F -0.3685(4) 0.3080(8) 0.25889(17)
C46 C -0.3865(6) 0.5020(12) 0.2033(3)
H31 H -0.4623 0.5046 0.2043
C47 C -0.3352(5) 0.5991(10) 0.1730(3)
F6 F -0.3993(10) 0.729(3) 0.1510(5)
C48 C -0.2250(3) 0.7158(5) -0.01152(17)
H32 H -0.1917 0.7721 -0.0362
H33 H -0.2991 0.7482 -0.0104
H34 H -0.2269 0.6192 -0.0226
C49 C 0.0104(3) 0.8436(5) 0.01543(17)
C50 C 0.1241(4) 0.7810(5) -0.05265(19)
H35 H 0.1216 0.8816 -0.0614
C51 C 0.0995(4) 0.6967(7) -0.10422(19)
H36 H 0.0948 0.5984 -0.0961
H37 H 0.1578 0.7114 -0.1251
H38 H 0.0304 0.7275 -0.1238
C52 C 0.2378(4) 0.7467(5) -0.0234(2)
C53 C 0.2595(4) 0.6291(6) 0.0072(2)
H39 H 0.2017 0.5686 0.0117
C54 C 0.3663(5) 0.5976(7) 0.0319(3)
H40 H 0.3791 0.5143 0.0511
C55 C 0.4500(5) 0.6847(8) 0.0285(3)
H41 H 0.5202 0.6653 0.0466
C56 C 0.4313(6) 0.8039(9) -0.0020(4)
H42 H 0.4899 0.8639 -0.0055
C57 C 0.3246(5) 0.8362(7) -0.0278(3)
H43 H 0.3126 0.9180 -0.0479
F7 F 0.3507(3) 0.4241(6) 0.16281(16)
F8 F -0.0555(3) 0.4976(4) 0.20173(13)
N4 N -0.0881(3) 0.7858(5) 0.14783(15)
N5 N -0.2099(3) 0.6622(4) 0.08238(14)
N6 N 0.0377(3) 0.7509(4) -0.02000(14)
H44 H 0.0160 0.6599 -0.0148
O3 O 0.0054(3) 0.9409(4) 0.20362(13)
O4 O 0.0458(3) 0.9660(3) 0.01832(15)
O5 O 0.6672(9) 0.1370(11) 0.1684(4)
C59 C 0.5961(11) 0.0985(16) 0.1341(5)
C60 C 0.4918(18) 0.169(3) 0.1257(9)
H45 H 0.4961 0.2485 0.1029
H46 H 0.4734 0.2002 0.1591
H47 H 0.4358 0.1052 0.1094
C61 C 0.6288(16) -0.016(2) 0.0995(7)
H48 H 0.6904 -0.0667 0.1181
H49 H 0.6495 0.0247 0.0678
H50 H 0.5675 -0.0788 0.0902
O6 O 0.4367(8) 0.6963(13) 0.2797(3)
C62 C 0.4667(8) 0.7957(15) 0.2995(5)
C63 C 0.5431(10) 0.8924(16) 0.2708(5)
H51 H 0.6177 0.8867 0.2888
H52 H 0.5177 0.9880 0.2713
H53 H 0.5407 0.8619 0.2348
C64 C 0.4486(14) 0.837(2) 0.3503(8)
H54 H 0.4140 0.7614 0.3667
H55 H 0.4013 0.9182 0.3475
H56 H 0.5182 0.8597 0.3714
C29? C 0.7851(4) 0.5226(7) 0.3763(2)
Cl2? Cl 0.7470(17) 0.687(3) 0.3844(13)
C58? C -0.3352(5) 0.5991(10) 0.1730(3)
F9? F -0.3997(11) 0.649(3) 0.1345(10)
loop_
_geom_bond_atom_site_label_1
_geom_bond_atom_site_label_2
_geom_bond_site_symmetry_1
_geom_bond_site_symmetry_2
C1 H1 1_555 1_555
C2 C13 1_555 1_555
C3 C4 1_555 1_555
C4 C1 1_555 1_555
C5 C1 1_555 1_555
C6 C5 1_555 1_555
Cl1 C6 1_555 1_555
C7 C6 1_555 1_555
H2 C7 1_555 1_555
C8 C7 1_555 1_555
C9 C8 1_555 1_555
H3 C9 1_555 1_555
C10 C5 1_555 1_555
H4 C10 1_555 1_555
C11 C12 1_555 1_555
C12 H5 1_555 1_555
H6 C12 1_555 1_555
H7 C12 1_555 1_555
C13 C14 1_555 1_555
C14 C15 1_555 1_555
C15 H8 1_555 1_555
C16 C15 1_555 1_555
C17 C16 1_555 1_555
H9 C17 1_555 1_555
C18 C13 1_555 1_555
C19 C3 1_555 1_555
H10 C19 1_555 1_555
H11 C19 1_555 1_555
H12 C19 1_555 1_555
C20 C4 1_555 1_555
C21 H13 1_555 1_555
C22 C21 1_555 1_555
H14 C22 1_555 1_555
H15 C22 1_555 1_555
H16 C22 1_555 1_555
C23 C21 1_555 1_555
C24 C23 1_555 1_555
H17 C24 1_555 1_555
C25 C24 1_555 1_555
H18 C25 1_555 1_555
C26 C25 1_555 1_555
H19 C26 1_555 1_555
C27 C26 1_555 1_555
H20 C27 1_555 1_555
C28 C23 1_555 1_555
H21 C28 1_555 1_555
F1 C8 1_555 1_555
F2 C14 1_555 1_555
F3 C16 1_555 1_555
F4 C18 1_555 1_555
N1 C1 1_555 1_555
N2 C2 1_555 1_555
N3 C20 1_555 1_555
H22 N3 1_555 1_555
O1 C11 1_555 1_555
O2 C20 1_555 1_555
C30 H23 1_555 1_555
Cl3 C35 1_555 1_555
C31 C42 1_555 1_555
C32 C33 1_555 1_555
C33 C30 1_555 1_555
C34 C30 1_555 1_555
C35 C34 1_555 1_555
C36 C35 1_555 1_555
H24 C36 1_555 1_555
C37 C36 1_555 1_555
C38 C37 1_555 1_555
H25 C38 1_555 1_555
C39 C34 1_555 1_555
H26 C39 1_555 1_555
C40 C41 1_555 1_555
C41 H27 1_555 1_555
H28 C41 1_555 1_555
H29 C41 1_555 1_555
C42 C43 1_555 1_555
C43 C44 1_555 1_555
C44 H30 1_555 1_555
C45 C44 1_555 1_555
F5 C45 1_555 1_555
C46 C45 1_555 1_555
H31 C46 1_555 1_555
C47 C42 1_555 1_555
F6 C47 1_555 1_555
C48 C32 1_555 1_555
H32 C48 1_555 1_555
H33 C48 1_555 1_555
H34 C48 1_555 1_555
C49 C33 1_555 1_555
C50 H35 1_555 1_555
C51 C50 1_555 1_555
H36 C51 1_555 1_555
H37 C51 1_555 1_555
H38 C51 1_555 1_555
C52 C50 1_555 1_555
C53 C52 1_555 1_555
H39 C53 1_555 1_555
C54 C53 1_555 1_555
H40 C54 1_555 1_555
C55 C54 1_555 1_555
H41 C55 1_555 1_555
C56 C55 1_555 1_555
H42 C56 1_555 1_555
C57 C52 1_555 1_555
H43 C57 1_555 1_555
F7 C37 1_555 1_555
F8 C43 1_555 1_555
N4 C30 1_555 1_555
N5 C31 1_555 1_555
N6 C49 1_555 1_555
H44 N6 1_555 1_555
O3 C40 1_555 1_555
O4 C49 1_555 1_555
O5 C59 1_555 1_555
C59 C60 1_555 1_555
C60 H45 1_555 1_555
H46 C60 1_555 1_555
H47 C60 1_555 1_555
C61 C59 1_555 1_555
H48 C61 1_555 1_555
H49 C61 1_555 1_555
H50 C61 1_555 1_555
O6 C62 1_555 1_555
C62 C63 1_555 1_555
C63 H51 1_555 1_555
H52 C63 1_555 1_555
H53 C63 1_555 1_555
C64 C62 1_555 1_555
H54 C64 1_555 1_555
H55 C64 1_555 1_555
H56 C64 1_555 1_555
C2 N1 1_555 1_555
C3 N2 1_555 1_555
C9 C10 1_555 1_555
C11 N1 1_555 1_555
C17 C18 1_555 1_555
C21 N3 1_555 1_555
C27 C28 1_555 1_555
C31 N4 1_555 1_555
C32 N5 1_555 1_555
C38 C39 1_555 1_555
C40 N4 1_555 1_555
C46 C47 1_555 1_555
C50 N6 1_555 1_555
C56 C57 1_555 1_555

#END
