
#######################################################################
#
#                 Cambridge Crystallographic Data Centre
#                                CCDC 
#
#######################################################################
#
# If this CIF has been generated from an entry in the Cambridge 
# Structural Database, then it will include bibliographic, chemical, 
# crystal, experimental, refinement or atomic coordinate data resulting 
# from the CCDC's data processing and validation procedures.
#
#######################################################################

data_MIMJEY
_chemical_formula_moiety         'C11 H12 N2 O2,H2 O1'
_chemical_name_systematic        
'1-Oxo-1,3-dihydro-isoindole-2-carboxylic acid ethylamide monohydrate'
_symmetry_cell_setting           monoclinic
_symmetry_space_group_name_H-M   'P 21/c'
_symmetry_Int_Tables_number      14
_space_group_name_Hall           '-P 2ybc'
loop_
_symmetry_equiv_pos_site_id
_symmetry_equiv_pos_as_xyz
1 x,y,z
2 -x,1/2+y,1/2-z
3 -x,-y,-z
4 x,1/2-y,1/2+z
_cell_length_a                   11.847(2)
_cell_length_b                   20.188(4)
_cell_length_c                   4.7067(9)
_cell_angle_alpha                90
_cell_angle_beta                 95.051(3)
_cell_angle_gamma                90
_cell_volume                     1121.32
_exptl_crystal_colour            colorless
_exptl_crystal_description       block
_chemical_melting_point          '108-109 deg.C'
_cell_formula_units_Z            4
loop_
_atom_site_label
_atom_site_type_symbol
_atom_site_fract_x
_atom_site_fract_y
_atom_site_fract_z
C1 C 0.33531(14) 0.58477(8) 0.0488(3)
C2 C 0.39728(16) 0.62595(9) -0.1144(4)
H1 H 0.4756 0.6220 -0.1105
C3 C 0.33924(19) 0.67315(9) -0.2832(4)
H2 H 0.3792 0.7012 -0.3946
C4 C 0.22280(17) 0.67924(9) -0.2891(4)
H3 H 0.1856 0.7110 -0.4060
C5 C 0.16101(16) 0.63887(8) -0.1240(4)
H4 H 0.0827 0.6430 -0.1265
C6 C 0.21977(14) 0.59203(7) 0.0454(3)
C7 C 0.17522(13) 0.54410(7) 0.2431(3)
C8 C 0.37410(14) 0.52925(8) 0.2447(4)
H5 H 0.4073 0.4936 0.1417
H6 H 0.4288 0.5445 0.3960
C9 C 0.27035(13) 0.45581(7) 0.5546(3)
C10 C 0.16212(16) 0.38903(9) 0.8650(4)
H7 H 0.1147 0.4033 1.0113
H8 H 0.2361 0.3779 0.9573
C11 C 0.1110(2) 0.32863(10) 0.7190(6)
H9 H 0.0382 0.3396 0.6249
H10 H 0.1022 0.2946 0.8578
H11 H 0.1598 0.3130 0.5809
N1 N 0.26861(11) 0.50829(6) 0.3574(3)
N2 N 0.17367(13) 0.44302(7) 0.6654(3)
H12 H 0.1139(17) 0.4657(10) 0.612(4)
O1 O 0.07824(10) 0.53622(6) 0.2992(3)
O2 O 0.35969(10) 0.42633(6) 0.6132(3)
O3 O 0.4016(2) 0.28552(9) 0.5397(4)
H13 H 0.388(3) 0.327(2) 0.571(9)
H14 H 0.388(3) 0.263(2) 0.693(9)
loop_
_geom_bond_atom_site_label_1
_geom_bond_atom_site_label_2
_geom_bond_site_symmetry_1
_geom_bond_site_symmetry_2
C1 C2 1_555 1_555
C2 H1 1_555 1_555
C3 C2 1_555 1_555
H2 C3 1_555 1_555
C4 C3 1_555 1_555
H3 C4 1_555 1_555
C5 C4 1_555 1_555
H4 C5 1_555 1_555
C6 C1 1_555 1_555
C7 C6 1_555 1_555
C8 C1 1_555 1_555
H5 C8 1_555 1_555
H6 C8 1_555 1_555
C9 N1 1_555 1_555
C10 H7 1_555 1_555
H8 C10 1_555 1_555
C11 C10 1_555 1_555
H9 C11 1_555 1_555
H10 C11 1_555 1_555
H11 C11 1_555 1_555
N1 C7 1_555 1_555
N2 C9 1_555 1_555
H12 N2 1_555 1_555
O1 C7 1_555 1_555
O2 C9 1_555 1_555
O3 H13 1_555 1_555
H14 O3 1_555 1_555
C5 C6 1_555 1_555
C8 N1 1_555 1_555
C10 N2 1_555 1_555

#END
