
#######################################################################
#
#                 Cambridge Crystallographic Data Centre
#                                CCDC 
#
#######################################################################
#
# If this CIF has been generated from an entry in the Cambridge 
# Structural Database, then it will include bibliographic, chemical, 
# crystal, experimental, refinement or atomic coordinate data resulting 
# from the CCDC's data processing and validation procedures.
#
#######################################################################

data_MIMMAX
_chemical_formula_moiety         'C15 H9 N5 O3 S1,2(C3 H7 N1 O1),2(H2 O1)'
_chemical_name_systematic        
"2-Amino-5-oxo-7-thioxo-spiro((3'H)-indol-3',4,4(H)-5,6,7,8-tetrahydropyrano(2,3-d)pyramidine)-(1'H)-2'-one-3-carbonitrile dimethylformamide solvate dihydrate"
_symmetry_cell_setting           monoclinic
_symmetry_space_group_name_H-M   'P 21/c'
_symmetry_Int_Tables_number      14
_space_group_name_Hall           '-P 2ybc'
loop_
_symmetry_equiv_pos_site_id
_symmetry_equiv_pos_as_xyz
1 x,y,z
2 -x,1/2+y,1/2-z
3 -x,-y,-z
4 x,1/2-y,1/2+z
_cell_length_a                   8.6650(12)
_cell_length_b                   16.830(2)
_cell_length_c                   17.602(3)
_cell_angle_alpha                90
_cell_angle_beta                 94.640(3)
_cell_angle_gamma                90
_cell_volume                     2558.52
_exptl_crystal_colour            colorless
_exptl_crystal_description       block
_chemical_melting_point          '238-242 deg.C'
_cell_formula_units_Z            4
loop_
_atom_site_label
_atom_site_type_symbol
_atom_site_fract_x
_atom_site_fract_y
_atom_site_fract_z
S1 S 1.23167(8) 0.42551(4) 0.49583(4)
O1 O 1.1249(2) 0.66170(10) 0.64173(10)
O2 O 0.9056(2) 0.41749(11) 0.71257(11)
O3 O 1.1024(2) 0.52722(13) 0.85343(11)
N1 N 1.0566(2) 0.42904(13) 0.61316(12)
H1 H 1.0458 0.3777 0.6050
N2 N 1.1586(2) 0.54855(12) 0.57966(11)
H2 H 1.2132 0.5780 0.5503
N3 N 1.1426(3) 0.77583(14) 0.70383(14)
H3 H 1.1257 0.8094 0.7405
H4 H 1.1988 0.7904 0.6668
N4 N 0.9289(4) 0.75687(16) 0.86766(16)
N5 N 0.8379(3) 0.52525(14) 0.85809(12)
H5 H 0.8332 0.5025 0.9028
C1 C 1.0835(3) 0.70319(15) 0.70434(14)
C2 C 0.9947(3) 0.66978(15) 0.75595(14)
C3 C 0.9301(3) 0.58584(15) 0.74973(13)
C4 C 1.0025(3) 0.54447(15) 0.68573(13)
C5 C 1.0900(3) 0.58350(14) 0.63813(13)
C6 C 0.9817(3) 0.46072(15) 0.67341(14)
C7 C 1.1449(3) 0.46959(15) 0.56561(13)
C8 C 0.9578(4) 0.71773(17) 0.81770(16)
C9 C 0.9706(3) 0.54153(16) 0.82665(14)
C10 C 0.7076(3) 0.54911(16) 0.81073(14)
C11 C 0.5522(3) 0.54209(18) 0.82365(16)
H6 H 0.5207 0.5172 0.8683
C12 C 0.4448(3) 0.57291(19) 0.76864(18)
H7 H 0.3376 0.5691 0.7759
C13 C 0.4901(3) 0.60880(19) 0.70381(18)
H8 H 0.4141 0.6294 0.6671
C14 C 0.6471(3) 0.61526(16) 0.69147(15)
H9 H 0.6787 0.6404 0.6470
C15 C 0.7546(3) 0.58440(15) 0.74524(14)
O4 O 0.3071(3) 0.64833(12) 0.49092(12)
N6 N 0.4229(3) 0.66252(15) 0.38046(13)
C16 C 0.3681(3) 0.62107(18) 0.43480(16)
H10 H 0.3754 0.5649 0.4312
C17 C 0.4957(4) 0.6244(2) 0.31838(19)
H11 H 0.4904 0.5666 0.3242
H12 H 0.6043 0.6410 0.3195
H13 H 0.4415 0.6400 0.2696
C18 C 0.4095(7) 0.7484(3) 0.3776(3)
H14 H 0.3372 0.7660 0.4142
H15 H 0.3708 0.7648 0.3262
H16 H 0.5113 0.7723 0.3906
O6 O 0.4830(4) 0.3995(3) 0.9675(2)
N7 N 0.2312(4) 0.3445(3) 0.93478(17)
C19 C 0.2658(9) 0.3451(6) 0.8608(5)
C20 C 0.3504(6) 0.3816(3) 0.9830(3)
C21 C 0.0714(19) 0.3344(17) 0.9605(13)
O7 O 0.7691(3) 0.4608(2) 0.99644(14)
O8 O 0.6679(4) 0.2913(2) 0.9177(2)
O5? O 0.4012(8) 0.3344(4) 0.8547(3)
C22? C 0.0698(16) 0.3432(11) 0.9500(10)
C23? C 0.3154(10) 0.3033(7) 1.0003(5)
C24? C 0.256(2) 0.3480(14) 0.8526(9)
loop_
_geom_bond_atom_site_label_1
_geom_bond_atom_site_label_2
_geom_bond_site_symmetry_1
_geom_bond_site_symmetry_2
S1 C7 1_555 1_555
O1 C1 1_555 1_555
O2 C6 1_555 1_555
O3 C9 1_555 1_555
O4 C16 1_555 1_555
O6 C20 1_555 1_555
N1 H1 1_555 1_555
N2 H2 1_555 1_555
N3 H3 1_555 1_555
H4 N3 1_555 1_555
N4 C8 1_555 1_555
N5 H5 1_555 1_555
N6 C16 1_555 1_555
N7 C19 1_555 1_555
C1 N3 1_555 1_555
C2 C1 1_555 1_555
C3 C2 1_555 1_555
C4 C3 1_555 1_555
C5 O1 1_555 1_555
C6 N1 1_555 1_555
C7 N1 1_555 1_555
C8 C2 1_555 1_555
C9 N5 1_555 1_555
C10 N5 1_555 1_555
C11 C10 1_555 1_555
H6 C11 1_555 1_555
C12 C11 1_555 1_555
H7 C12 1_555 1_555
C13 C12 1_555 1_555
H8 C13 1_555 1_555
C14 C13 1_555 1_555
H9 C14 1_555 1_555
C15 C3 1_555 1_555
C16 H10 1_555 1_555
C17 N6 1_555 1_555
H11 C17 1_555 1_555
H12 C17 1_555 1_555
H13 C17 1_555 1_555
C18 N6 1_555 1_555
H14 C18 1_555 1_555
H15 C18 1_555 1_555
H16 C18 1_555 1_555
C20 N7 1_555 1_555
C21 N7 1_555 1_555
N2 C5 1_555 1_555
N2 C7 1_555 1_555
C3 C9 1_555 1_555
C4 C5 1_555 1_555
C4 C6 1_555 1_555
C10 C15 1_555 1_555
C14 C15 1_555 1_555

#END
