
#######################################################################
#
#                 Cambridge Crystallographic Data Centre
#                                CCDC 
#
#######################################################################
#
# If this CIF has been generated from an entry in the Cambridge 
# Structural Database, then it will include bibliographic, chemical, 
# crystal, experimental, refinement or atomic coordinate data resulting 
# from the CCDC's data processing and validation procedures.
#
#######################################################################

data_MINGEV
_chemical_formula_moiety         'C32 H28 N2 O6 S2'
_chemical_name_systematic        
"Diethyl 6,6'-bi(4-methyl-5-oxo-2-phenyl-5,6-dihydro-4H-thieno(3,2-b)pyrrolyl)-6,6'-dicarboxylate"
_symmetry_cell_setting           triclinic
_symmetry_space_group_name_H-M   'P -1'
_symmetry_Int_Tables_number      2
_space_group_name_Hall           '-P 1'
loop_
_symmetry_equiv_pos_site_id
_symmetry_equiv_pos_as_xyz
1 x,y,z
2 -x,-y,-z
_cell_length_a                   8.187(2)
_cell_length_b                   9.357(3)
_cell_length_c                   10.880(3)
_cell_angle_alpha                109.46(2)
_cell_angle_beta                 100.41(2)
_cell_angle_gamma                106.86(2)
_cell_volume                     715.681
_exptl_crystal_colour            colorless
_cell_formula_units_Z            1
loop_
_atom_site_label
_atom_site_type_symbol
_atom_site_fract_x
_atom_site_fract_y
_atom_site_fract_z
S1 S 0.22096(16) 0.30099(14) 0.18282(11)
N1 N 0.6370(5) 0.6942(4) 0.3521(3)
O1 O 0.8093(4) 0.7446(4) 0.5645(3)
O2 O 0.5705(4) 0.2456(4) 0.4422(3)
O3 O 0.7402(5) 0.3871(4) 0.3511(4)
C1 C 0.0907(6) 0.3226(5) -0.0617(4)
C2 C 0.0848(7) 0.4076(6) -0.1454(5)
C3 C -0.0531(8) 0.3373(7) -0.2683(5)
C4 C -0.1846(8) 0.1889(6) -0.3075(5)
C5 C -0.1796(8) 0.1046(7) -0.2263(5)
C6 C -0.0429(7) 0.1709(6) -0.1046(5)
C7 C 0.2348(6) 0.3961(5) 0.0702(4)
C8 C 0.3788(6) 0.5400(6) 0.1248(4)
C9 C 0.4770(6) 0.5729(5) 0.2582(4)
C10 C 0.7284(9) 0.8484(7) 0.3458(7)
C11 C 0.4084(5) 0.4579(5) 0.3045(4)
C12 C 0.6807(6) 0.6606(5) 0.4635(5)
C13 C 0.5378(5) 0.4929(5) 0.4390(4)
C14 C 0.6182(6) 0.3607(6) 0.4143(4)
C15 C 0.8110(10) 0.2603(9) 0.3066(9)
C16 C 0.6985(16) 0.1335(12) 0.1703(10)
H1 H 0.189(7) 0.519(6) -0.120(5)
H2 H -0.046(6) 0.391(6) -0.323(5)
H3 H -0.280(7) 0.138(6) -0.392(6)
H4 H -0.260(7) 0.005(6) -0.262(5)
H5 H -0.044(6) 0.110(6) -0.050(5)
H6 H 0.406(5) 0.606(4) 0.081(4)
H7 H 0.814(9) 0.913(7) 0.425(7)
H8 H 0.760(7) 0.833(7) 0.268(6)
H9 H 0.652(8) 0.905(7) 0.350(6)
H10 H 0.828(8) 0.236(7) 0.383(6)
H11 H 0.928(8) 0.318(6) 0.310(5)
H12 H 0.743(9) 0.048(9) 0.133(7)
H13 H 0.700(8) 0.184(8) 0.106(7)
H14 H 0.583(8) 0.072(7) 0.177(6)
C13A C 0.4622(5) 0.5071(5) 0.5610(4)
C11A C 0.5916(5) 0.5421(5) 0.6955(4)
S1A S 0.77904(16) 0.69901(14) 0.81718(11)
C7A C 0.7652(6) 0.6039(5) 0.9298(4)
C1A C 0.9093(6) 0.6774(5) 1.0617(4)
C2A C 0.9152(7) 0.5924(6) 1.1454(5)
C3A C 1.0531(8) 0.6627(7) 1.2683(5)
C4A C 1.1846(8) 0.8111(6) 1.3075(5)
C5A C 1.1796(8) 0.8954(7) 1.2263(5)
C6A C 1.0429(7) 0.8291(6) 1.1046(5)
H5A H 1.044(6) 0.890(6) 1.050(5)
H4A H 1.260(7) 0.995(6) 1.262(5)
H3A H 1.280(7) 0.862(6) 1.392(6)
H2A H 1.046(6) 0.609(6) 1.323(5)
H1A H 0.811(7) 0.481(6) 1.120(5)
C8A C 0.6212(6) 0.4600(6) 0.8752(4)
C9A C 0.5230(6) 0.4271(5) 0.7418(4)
N1A N 0.3630(5) 0.3058(4) 0.6479(3)
C10A C 0.2716(9) 0.1516(7) 0.6542(7)
H7A H 0.186(9) 0.087(7) 0.575(7)
H8A H 0.240(7) 0.167(7) 0.732(6)
H9A H 0.348(8) 0.095(7) 0.650(6)
C12A C 0.3193(6) 0.3394(5) 0.5365(5)
O1A O 0.1907(4) 0.2554(4) 0.4355(3)
C14A C 0.3818(6) 0.6393(6) 0.5857(4)
O2A O 0.4295(4) 0.7544(4) 0.5578(3)
O3A O 0.2598(5) 0.6129(4) 0.6489(4)
C15A C 0.1890(10) 0.7397(9) 0.6934(9)
C16A C 0.3015(16) 0.8665(12) 0.8297(10)
H12A H 0.257(9) 0.952(9) 0.867(7)
H13A H 0.300(8) 0.816(8) 0.894(7)
H14A H 0.417(8) 0.928(7) 0.823(6)
H10A H 0.172(8) 0.764(7) 0.617(6)
H11A H 0.072(8) 0.682(6) 0.690(5)
H6A H 0.594(5) 0.394(4) 0.919(4)
loop_
_geom_bond_atom_site_label_1
_geom_bond_atom_site_label_2
_geom_bond_site_symmetry_1
_geom_bond_site_symmetry_2
S1 C7 1_555 1_555
N1 C9 1_555 1_555
O1 C12 1_555 1_555
O2 C14 1_555 1_555
O3 C14 1_555 1_555
C1 C2 1_555 1_555
C2 C3 1_555 1_555
C3 C4 1_555 1_555
C4 C5 1_555 1_555
C5 C6 1_555 1_555
C6 C1 1_555 1_555
C7 C1 1_555 1_555
C8 C7 1_555 1_555
C9 C8 1_555 1_555
C10 N1 1_555 1_555
C11 S1 1_555 1_555
C12 N1 1_555 1_555
C13 C11 1_555 1_555
C14 C13 1_555 1_555
C15 O3 1_555 1_555
C16 C15 1_555 1_555
H1 C2 1_555 1_555
H2 C3 1_555 1_555
H3 C4 1_555 1_555
H4 C5 1_555 1_555
H5 C6 1_555 1_555
H6 C8 1_555 1_555
H7 C10 1_555 1_555
H8 C10 1_555 1_555
H9 C10 1_555 1_555
H10 C15 1_555 1_555
H11 C15 1_555 1_555
H12 C16 1_555 1_555
H13 C16 1_555 1_555
H14 C16 1_555 1_555
C13A C13 1_555 1_555
C11A C13A 1_555 1_555
S1A C11A 1_555 1_555
C7A S1A 1_555 1_555
C1A C7A 1_555 1_555
C2A C1A 1_555 1_555
C3A C2A 1_555 1_555
C4A C3A 1_555 1_555
C5A C4A 1_555 1_555
C6A C1A 1_555 1_555
H5A C6A 1_555 1_555
H4A C5A 1_555 1_555
H3A C4A 1_555 1_555
H2A C3A 1_555 1_555
H1A C2A 1_555 1_555
C8A C7A 1_555 1_555
C9A C11A 1_555 1_555
N1A C9A 1_555 1_555
C10A N1A 1_555 1_555
H7A C10A 1_555 1_555
H8A C10A 1_555 1_555
H9A C10A 1_555 1_555
C12A C13A 1_555 1_555
O1A C12A 1_555 1_555
C14A C13A 1_555 1_555
O2A C14A 1_555 1_555
O3A C14A 1_555 1_555
C15A O3A 1_555 1_555
C16A C15A 1_555 1_555
H12A C16A 1_555 1_555
H13A C16A 1_555 1_555
H14A C16A 1_555 1_555
H10A C15A 1_555 1_555
H11A C15A 1_555 1_555
H6A C8A 1_555 1_555
C9 C11 1_555 1_555
C12 C13 1_555 1_555
C5A C6A 1_555 1_555
C8A C9A 1_555 1_555
N1A C12A 1_555 1_555

#END
