
#######################################################################
#
#                 Cambridge Crystallographic Data Centre
#                                CCDC 
#
#######################################################################
#
# If this CIF has been generated from an entry in the Cambridge 
# Structural Database, then it will include bibliographic, chemical, 
# crystal, experimental, refinement or atomic coordinate data resulting 
# from the CCDC's data processing and validation procedures.
#
#######################################################################

data_MINJAX
_chemical_formula_moiety         'C7 H14 N1 O1 1+,Cl1 O4 1-'
_chemical_name_systematic        
'1-hydroxy-1-azabicyclo[2.2.2]octan-1-ium perchlorate'
_symmetry_cell_setting           orthorhombic
_symmetry_space_group_name_H-M   'P n m a'
_symmetry_Int_Tables_number      62
_space_group_name_Hall           '-P 2ac 2n'
loop_
_symmetry_equiv_pos_site_id
_symmetry_equiv_pos_as_xyz
1 x,y,z
2 1/2-x,-y,1/2+z
3 -x,1/2+y,-z
4 1/2+x,1/2-y,1/2-z
5 -x,-y,-z
6 1/2+x,y,1/2-z
7 x,1/2-y,z
8 1/2-x,1/2+y,1/2+z
_cell_length_a                   11.7255(6)
_cell_length_b                   8.2616(6)
_cell_length_c                   10.4236(7)
_cell_angle_alpha                90
_cell_angle_beta                 90
_cell_angle_gamma                90
_cell_volume                     1009.75
_exptl_crystal_colour            colorless
_exptl_crystal_description       block
_cell_formula_units_Z            4
loop_
_atom_site_label
_atom_site_type_symbol
_atom_site_fract_x
_atom_site_fract_y
_atom_site_fract_z
Cl1 Cl 0.08692(9) 0.2500 0.13300(12)
O1 O 0.2022(7) 0.2500 0.0917(8)
O2 O 0.0662(10) 0.1192(8) 0.2128(11)
O3 O 0.0248(7) 0.2500 0.0255(9)
O2F O 0.0662(10) 0.3808(8) 0.2128(11)
N1 N 0.2296(3) 0.2500 0.7491(4)
C1 C 0.3167(4) 0.2500 0.6446(5)
H1 H 0.3652 0.1538 0.6514
C2 C 0.2542(5) 0.2500 0.5171(6)
H2 H 0.2759 0.1540 0.4677
C3 C 0.1253(4) 0.2500 0.5389(6)
H3 H 0.0847 0.2500 0.4556
O4 O 0.2948(3) 0.2500 0.8646(3)
C4 C 0.0938(3) 0.0995(8) 0.6160(5)
H4 H 0.1139 0.0020 0.5674
H5 H 0.0114 0.0978 0.6319
C5 C 0.1582(3) 0.1017(5) 0.7435(3)
H6 H 0.1040 0.1010 0.8150
H7 H 0.2066 0.0054 0.7505
H1F H 0.3652 0.3462 0.6514
H2F H 0.2759 0.3460 0.4677
C4F C 0.0938(3) 0.4005(8) 0.6160(5)
H4F H 0.1139 0.4980 0.5674
H5F H 0.0114 0.4022 0.6319
C5F C 0.1582(3) 0.3983(5) 0.7435(3)
H6F H 0.1040 0.3990 0.8150
H7F H 0.2066 0.4946 0.7505
H8? H 0.3652 0.1538 0.6514
H9? H 0.2759 0.1540 0.4677
H10? H 0.2548 0.2162 0.9246
loop_
_geom_bond_atom_site_label_1
_geom_bond_atom_site_label_2
_geom_bond_site_symmetry_1
_geom_bond_site_symmetry_2
Cl1 O1 1_555 1_555
O2 Cl1 1_555 1_555
O3 Cl1 1_555 1_555
N1 C1 1_555 1_555
C1 H1 1_555 1_555
C2 C1 1_555 1_555
H2 C2 1_555 1_555
C3 C2 1_555 1_555
H3 C3 1_555 1_555
O4 N1 1_555 1_555
C4 C3 1_555 1_555
H4 C4 1_555 1_555
H5 C4 1_555 1_555
C5 N1 1_555 1_555
H6 C5 1_555 1_555
H7 C5 1_555 1_555
O2F Cl1 1_555 1_555
H1F C1 1_555 1_555
H2F C2 1_555 1_555
C4F C3 1_555 1_555
H4F C4F 1_555 1_555
H5F C4F 1_555 1_555
C5F N1 1_555 1_555
H6F C5F 1_555 1_555
H7F C5F 1_555 1_555
C4 C5 1_555 1_555
C4F C5F 1_555 1_555

#END
