
#######################################################################
#
#                 Cambridge Crystallographic Data Centre
#                                CCDC 
#
#######################################################################
#
# If this CIF has been generated from an entry in the Cambridge 
# Structural Database, then it will include bibliographic, chemical, 
# crystal, experimental, refinement or atomic coordinate data resulting 
# from the CCDC's data processing and validation procedures.
#
#######################################################################

data_MINPEH
_chemical_formula_moiety         'C14 H20 O3'
_chemical_name_systematic        
2,2-dimethyl-3',3a',5',6'-tetrahydrospiro[1,3-dioxane-5,4'-inden]-1'(2'H)-one
_symmetry_cell_setting           monoclinic
_symmetry_space_group_name_H-M   'P 21'
_symmetry_Int_Tables_number      4
_space_group_name_Hall           'P 2yb'
loop_
_symmetry_equiv_pos_site_id
_symmetry_equiv_pos_as_xyz
1 x,y,z
2 -x,1/2+y,-z
_cell_length_a                   6.5160(2)
_cell_length_b                   11.9339(4)
_cell_length_c                   8.0629(3)
_cell_angle_alpha                90
_cell_angle_beta                 93.570(2)
_cell_angle_gamma                90
_cell_volume                     625.765
_exptl_crystal_colour            white
_exptl_crystal_description       block
_cell_formula_units_Z            2
loop_
_atom_site_label
_atom_site_type_symbol
_atom_site_fract_x
_atom_site_fract_y
_atom_site_fract_z
C1 C 0.7186(2) 0.66770(13) -0.04494(17)
C2 C 0.7812(2) 0.61205(15) -0.17565(17)
H1 H 0.7548 0.6418 -0.2814
C3 C 0.8929(2) 0.50289(15) -0.15693(18)
H2 H 1.0327 0.5128 -0.1891
H3 H 0.8264 0.4483 -0.2316
C4 C 0.8982(2) 0.45726(12) 0.02145(18)
H4 H 1.0056 0.4011 0.0350
H5 H 0.7682 0.4208 0.0387
C5 C 0.9371(2) 0.54878(11) 0.15528(16)
C6 C 0.75573(19) 0.63148(12) 0.13472(15)
H6 H 0.6323 0.5916 0.1657
C7 C 0.7622(2) 0.74479(13) 0.22838(17)
H7 H 0.7247 0.7353 0.3421
H8 H 0.8980 0.7781 0.2291
C8 C 0.6030(2) 0.81710(13) 0.12879(18)
H9 H 0.4657 0.8037 0.1644
H10 H 0.6349 0.8961 0.1415
C9 C 0.6206(2) 0.77986(13) -0.04917(17)
C10 C 1.1479(2) 0.60195(12) 0.13844(16)
H11 H 1.2485 0.5432 0.1256
H12 H 1.1434 0.6479 0.0390
C11 C 0.9451(2) 0.49192(12) 0.32548(17)
H13 H 0.8109 0.4614 0.3451
H14 H 1.0425 0.4304 0.3269
C12 C 1.2034(2) 0.61674(14) 0.43745(17)
C13 C 1.2228(3) 0.71139(17) 0.5621(2)
H15 H 1.1127 0.7638 0.5400
H16 H 1.3522 0.7487 0.5530
H17 H 1.2158 0.6818 0.6723
C14 C 1.3733(2) 0.53029(15) 0.46664(17)
H18 H 1.3611 0.4953 0.5728
H19 H 1.5047 0.5665 0.4647
H20 H 1.3612 0.4745 0.3809
O1 O 1.21193(15) 0.66976(9) 0.27900(12)
O2 O 1.00499(14) 0.56938(9) 0.45451(11)
O3 O 0.56510(18) 0.83343(11) -0.17257(14)
loop_
_geom_bond_atom_site_label_1
_geom_bond_atom_site_label_2
_geom_bond_site_symmetry_1
_geom_bond_site_symmetry_2
C1 C2 1_555 1_555
C2 H1 1_555 1_555
C3 C2 1_555 1_555
H2 C3 1_555 1_555
H3 C3 1_555 1_555
C4 C3 1_555 1_555
H4 C4 1_555 1_555
H5 C4 1_555 1_555
C5 C4 1_555 1_555
C6 C1 1_555 1_555
H6 C6 1_555 1_555
C7 C6 1_555 1_555
H7 C7 1_555 1_555
H8 C7 1_555 1_555
C8 C7 1_555 1_555
H9 C8 1_555 1_555
H10 C8 1_555 1_555
C9 C1 1_555 1_555
C10 C5 1_555 1_555
H11 C10 1_555 1_555
H12 C10 1_555 1_555
C11 C5 1_555 1_555
H13 C11 1_555 1_555
H14 C11 1_555 1_555
C12 C13 1_555 1_555
C13 H15 1_555 1_555
H16 C13 1_555 1_555
H17 C13 1_555 1_555
C14 C12 1_555 1_555
H18 C14 1_555 1_555
H19 C14 1_555 1_555
H20 C14 1_555 1_555
O1 C10 1_555 1_555
O2 C11 1_555 1_555
O3 C9 1_555 1_555
C5 C6 1_555 1_555
C8 C9 1_555 1_555
C12 O1 1_555 1_555
C12 O2 1_555 1_555

#END
