
#######################################################################
#
#                 Cambridge Crystallographic Data Centre
#                                CCDC 
#
#######################################################################
#
# If this CIF has been generated from an entry in the Cambridge 
# Structural Database, then it will include bibliographic, chemical, 
# crystal, experimental, refinement or atomic coordinate data resulting 
# from the CCDC's data processing and validation procedures.
#
#######################################################################

data_MINTOV
_chemical_formula_moiety         'C38 H26 N2 O4 S1'
_chemical_name_systematic        
2,8-bis(1-methyl-10H-phenoxazin-10-yl)-5H-5\l^6^-dibenzo[b,d]thiophene-5,5-dione
_symmetry_cell_setting           triclinic
_symmetry_space_group_name_H-M   'P -1'
_symmetry_Int_Tables_number      2
_space_group_name_Hall           '-P 1'
loop_
_symmetry_equiv_pos_site_id
_symmetry_equiv_pos_as_xyz
1 x,y,z
2 -x,-y,-z
_cell_length_a                   10.4124(5)
_cell_length_b                   12.8726(6)
_cell_length_c                   12.8871(6)
_cell_angle_alpha                113.2929(17)
_cell_angle_beta                 105.3552(18)
_cell_angle_gamma                103.0857(18)
_cell_volume                     1418.97
_exptl_crystal_colour            colorless
_exptl_crystal_description       lath
_cell_formula_units_Z            2
_exptl_crystal_recrystallization_method 
'Re-crystallisation from solvent: deuterochloroform, 2,2,4-trimethylpentane'
_exptl_crystal_preparation       Luminescent
loop_
_atom_site_label
_atom_site_type_symbol
_atom_site_fract_x
_atom_site_fract_y
_atom_site_fract_z
S1 S 0.33435(6) 0.00654(5) 0.26970(5)
O1 O 0.20961(17) 0.00251(14) 0.18401(14)
O2 O 0.44439(18) -0.01608(15) 0.22710(15)
O3 O 0.33391(16) -0.27256(14) 0.71909(14)
O4 O 0.78508(19) 0.45754(16) 0.94743(15)
N1 N 0.16087(19) -0.25193(16) 0.53235(16)
N2 N 0.5421(2) 0.42586(16) 0.77068(17)
C1 C 0.2834(2) -0.0854(2) 0.33443(19)
C2 C 0.2235(2) -0.2103(2) 0.2773(2)
H1 H 0.2081 -0.2580 0.1938
C3 C 0.1857(2) -0.2656(2) 0.3432(2)
H2 H 0.1439 -0.3520 0.3041
C4 C 0.2078(2) -0.19682(19) 0.4666(2)
C5 C 0.2759(2) -0.07002(19) 0.5247(2)
H3 H 0.2960 -0.0218 0.6093
C6 C 0.3136(2) -0.01511(19) 0.45856(19)
C7 C 0.3852(2) 0.11605(19) 0.50327(19)
C8 C 0.4330(2) 0.20917(19) 0.62172(19)
H4 H 0.4216 0.1914 0.6844
C9 C 0.4984(2) 0.33010(19) 0.6498(2)
C10 C 0.5162(2) 0.3541(2) 0.5560(2)
H5 H 0.5615 0.4357 0.5743
C11 C 0.4683(2) 0.2597(2) 0.4373(2)
H6 H 0.4803 0.2762 0.3741
C12 C 0.4032(2) 0.1418(2) 0.41175(19)
C13 C 0.1781(2) -0.17784(19) 0.6563(2)
C14 C 0.1016(2) -0.1015(2) 0.6851(2)
C15 C 0.1257(3) -0.0339(2) 0.8086(2)
H7 H 0.0754 0.0190 0.8301
C16 C 0.2200(3) -0.0417(2) 0.9001(2)
H8 H 0.2366 0.0076 0.9836
C17 C 0.2911(3) -0.1210(2) 0.8710(2)
H9 H 0.3545 -0.1286 0.9333
C18 C 0.2674(2) -0.1888(2) 0.7491(2)
C19 C 0.2534(2) -0.3766(2) 0.6055(2)
C20 C 0.1633(2) -0.3697(2) 0.5096(2)
C21 C 0.0776(3) -0.4767(2) 0.3994(2)
H10 H 0.0085 -0.4753 0.3353
C22 C 0.0937(3) -0.5857(2) 0.3835(3)
H11 H 0.0386 -0.6582 0.3070
C23 C 0.1895(3) -0.5889(2) 0.4786(3)
H12 H 0.2014 -0.6633 0.4665
C24 C 0.2681(3) -0.4845(2) 0.5916(3)
H13 H 0.3310 -0.4872 0.6581
C25 C -0.0016(3) -0.0902(2) 0.5897(2)
H14 H 0.0485 -0.0236 0.5787
H15 H -0.0782 -0.0729 0.6156
H16 H -0.0432 -0.1668 0.5118
C26 C 0.5285(3) 0.3896(2) 0.8611(2)
C27 C 0.3952(3) 0.3393(2) 0.8620(2)
C28 C 0.3936(3) 0.2946(2) 0.9441(2)
H17 H 0.3044 0.2572 0.9450
C29 C 0.5179(4) 0.3032(3) 1.0237(3)
H18 H 0.5127 0.2705 1.0776
C30 C 0.6494(4) 0.3580(3) 1.0274(2)
H19 H 0.7355 0.3663 1.0845
C31 C 0.6522(3) 0.4010(2) 0.9446(2)
C32 C 0.7892(3) 0.5443(2) 0.9083(2)
C33 C 0.6686(3) 0.5317(2) 0.8205(2)
C34 C 0.6712(3) 0.6253(2) 0.7902(2)
H20 H 0.5873 0.6183 0.7316
C35 C 0.7953(3) 0.7277(2) 0.8452(3)
H21 H 0.7975 0.7916 0.8254
C36 C 0.9152(3) 0.7350(3) 0.9288(3)
H22 H 1.0013 0.8042 0.9648
C37 C 0.9153(3) 0.6456(3) 0.9626(3)
H23 H 0.9995 0.6532 1.0213
C38 C 0.2578(3) 0.3264(2) 0.7760(2)
H24 H 0.2745 0.3939 0.7575
H25 H 0.1879 0.3278 0.8141
H26 H 0.2205 0.2488 0.6996
loop_
_geom_bond_atom_site_label_1
_geom_bond_atom_site_label_2
_geom_bond_site_symmetry_1
_geom_bond_site_symmetry_2
S1 O1 1_555 1_555
O2 S1 1_555 1_555
O3 C18 1_555 1_555
O4 C31 1_555 1_555
N1 C4 1_555 1_555
N2 C9 1_555 1_555
C1 S1 1_555 1_555
C2 C1 1_555 1_555
H1 C2 1_555 1_555
C3 C2 1_555 1_555
H2 C3 1_555 1_555
C4 C3 1_555 1_555
C5 C4 1_555 1_555
H3 C5 1_555 1_555
C6 C1 1_555 1_555
C7 C6 1_555 1_555
C8 C7 1_555 1_555
H4 C8 1_555 1_555
C9 C8 1_555 1_555
C10 C9 1_555 1_555
H5 C10 1_555 1_555
C11 C10 1_555 1_555
H6 C11 1_555 1_555
C12 S1 1_555 1_555
C13 N1 1_555 1_555
C14 C13 1_555 1_555
C15 C14 1_555 1_555
H7 C15 1_555 1_555
C16 C15 1_555 1_555
H8 C16 1_555 1_555
C17 C16 1_555 1_555
H9 C17 1_555 1_555
C18 C13 1_555 1_555
C19 O3 1_555 1_555
C20 N1 1_555 1_555
C21 C20 1_555 1_555
H10 C21 1_555 1_555
C22 C21 1_555 1_555
H11 C22 1_555 1_555
C23 C22 1_555 1_555
H12 C23 1_555 1_555
C24 C19 1_555 1_555
H13 C24 1_555 1_555
C25 C14 1_555 1_555
H14 C25 1_555 1_555
H15 C25 1_555 1_555
H16 C25 1_555 1_555
C26 N2 1_555 1_555
C27 C26 1_555 1_555
C28 C27 1_555 1_555
H17 C28 1_555 1_555
C29 C28 1_555 1_555
H18 C29 1_555 1_555
C30 C29 1_555 1_555
H19 C30 1_555 1_555
C31 C26 1_555 1_555
C32 O4 1_555 1_555
C33 N2 1_555 1_555
C34 C33 1_555 1_555
H20 C34 1_555 1_555
C35 C34 1_555 1_555
H21 C35 1_555 1_555
C36 C35 1_555 1_555
H22 C36 1_555 1_555
C37 C32 1_555 1_555
H23 C37 1_555 1_555
C38 C27 1_555 1_555
H24 C38 1_555 1_555
H25 C38 1_555 1_555
H26 C38 1_555 1_555
C5 C6 1_555 1_555
C7 C12 1_555 1_555
C11 C12 1_555 1_555
C17 C18 1_555 1_555
C19 C20 1_555 1_555
C23 C24 1_555 1_555
C30 C31 1_555 1_555
C32 C33 1_555 1_555
C36 C37 1_555 1_555

#END
