
#######################################################################
#
#                 Cambridge Crystallographic Data Centre
#                                CCDC 
#
#######################################################################
#
# If this CIF has been generated from an entry in the Cambridge 
# Structural Database, then it will include bibliographic, chemical, 
# crystal, experimental, refinement or atomic coordinate data resulting 
# from the CCDC's data processing and validation procedures.
#
#######################################################################

data_MINVEL
_chemical_formula_moiety         'C49 H56 O1 Si1'
_chemical_name_systematic        
2-(2-(4'-(4''-(2-(Trimethylsilyl)ethynyl)biphenyl))ethynyl)-7-(2'-(2''-hydroxyisopropyl)ethynyl)-9,9-dihexylfluorene
_symmetry_cell_setting           triclinic
_symmetry_space_group_name_H-M   'P -1'
_symmetry_Int_Tables_number      2
_space_group_name_Hall           '-P 1'
loop_
_symmetry_equiv_pos_site_id
_symmetry_equiv_pos_as_xyz
1 x,y,z
2 -x,-y,-z
_cell_length_a                   10.359(1)
_cell_length_b                   12.820(1)
_cell_length_c                   17.950(2)
_cell_angle_alpha                96.43(1)
_cell_angle_beta                 99.59(1)
_cell_angle_gamma                112.65(1)
_cell_volume                     2128.18
_exptl_crystal_colour            'light yellow'
_exptl_crystal_description       plate
_chemical_melting_point          '492.0 K'
_cell_formula_units_Z            2
loop_
_atom_site_label
_atom_site_type_symbol
_atom_site_fract_x
_atom_site_fract_y
_atom_site_fract_z
Si1 Si 0.64638(8) -0.43703(6) 0.27962(4)
O1 O 1.0328(3) 1.66762(18) 0.98002(12)
H1 H 1.0623 1.6438 1.0186
C1 C 0.8002(3) 0.8320(2) 0.69185(13)
H2 H 0.7996 0.7831 0.7279
C2 C 0.7896(2) 0.7932(2) 0.61391(13)
C3 C 0.7926(2) 0.8666(2) 0.56155(13)
H3 H 0.7857 0.8400 0.5088
C4 C 0.8041(2) 0.9764(2) 0.58509(12)
H4 H 0.8058 1.0257 0.5491
C5 C 0.8240(2) 1.2213(2) 0.67587(13)
H5 H 0.8205 1.2246 0.6230
C6 C 0.8314(3) 1.3142(2) 0.72679(13)
H6 H 0.8330 1.3814 0.7087
C7 C 0.8385(3) 1.3101(2) 0.80477(14)
C8 C 0.8373(3) 1.2107(2) 0.83181(14)
H7 H 0.8427 1.2076 0.8848
C9 C 0.8228(3) 1.0021(2) 0.79630(14)
C10 C 0.8126(3) 0.9419(2) 0.71593(13)
C11 C 0.8132(2) 1.0147(2) 0.66233(12)
C12 C 0.8228(2) 1.12368(19) 0.70286(12)
C13 C 0.8284(3) 1.1179(2) 0.78062(13)
C14 C 0.9571(4) 1.0144(2) 0.85439(15)
H8 H 0.9607 1.0577 0.9045
H9 H 0.9467 0.9365 0.8619
C15 C 1.0990(4) 1.0738(2) 0.83361(16)
H10 H 1.1170 1.1428 0.8167
H11 H 1.0982 1.0294 0.7853
C16 C 1.2469(6) 1.0991(4) 0.8932(2)
H12 H 1.2369 1.0399 0.8988
H13 H 1.2426 1.1448 0.9367
C17 C 1.3916(5) 1.1620(5) 0.8722(3)
H14 H 1.3975 1.1122 0.8277
H15 H 1.3946 1.2340 0.8559
C18 C 1.5180(11) 1.1731(9) 0.9318(5)
H16 H 1.6049 1.2009 0.9106
H17 H 1.5061 1.0977 0.9454
C19 C 1.5391(10) 1.2609(7) 1.0006(5)
H18 H 1.6292 1.2719 1.0351
H19 H 1.4594 1.2290 1.0258
H20 H 1.5454 1.3352 0.9887
C20 C 0.7121(4) 0.9338(3) 0.8332(2)
H21 H 0.7235 0.9776 0.8847
H22 H 0.7225 0.8617 0.8401
C21 C 0.5637(4) 0.9052(3) 0.7851(2)
H23 H 0.5565 0.8581 0.7356
H24 H 0.5508 0.9749 0.7736
C22 C 0.4426(4) 0.8359(3) 0.8215(2)
H25 H 0.4567 0.7670 0.8336
H26 H 0.4495 0.8835 0.8707
C23 C 0.2932(4) 0.7971(4) 0.7712(2)
H27 H 0.2879 0.7523 0.7213
H28 H 0.2781 0.8663 0.7608
C24 C 0.1725(5) 0.7239(4) 0.8060(3)
H29 H 0.1930 0.6608 0.8245
H30 H 0.1627 0.7718 0.8502
C36 C 0.0398(3) 0.6777(3) 0.74526(19)
H55 H -0.0388 0.6311 0.7654
H56 H 0.0210 0.7397 0.7279
H57 H 0.0505 0.6313 0.7029
C37 C 0.7737(2) 0.6782(2) 0.58716(13)
C38 C 0.7581(2) 0.5817(2) 0.56252(13)
C39 C 0.7424(2) 0.4680(2) 0.53152(13)
C40 C 0.6113(2) 0.3833(2) 0.48911(14)
H61 H 0.5282 0.3991 0.4830
C41 C 0.6003(2) 0.2773(2) 0.45604(14)
H62 H 0.5098 0.2210 0.4270
C42 C 0.7203(2) 0.2506(2) 0.46357(13)
C43 C 0.8510(2) 0.3356(2) 0.50701(13)
H63 H 0.9344 0.3202 0.5135
C44 C 0.8629(2) 0.4417(2) 0.54073(13)
H64 H 0.9529 0.4971 0.5709
C45 C 0.7081(2) 0.1363(2) 0.42919(13)
C46 C 0.5808(3) 0.0376(2) 0.41809(16)
H65 H 0.4992 0.0449 0.4314
C47 C 0.5702(3) -0.0693(2) 0.38816(17)
H66 H 0.4825 -0.1350 0.3822
C48 C 0.6870(2) -0.0827(2) 0.36683(14)
C49 C 0.8147(2) 0.0151(2) 0.37688(13)
H67 H 0.8951 0.0077 0.3619
C50 C 0.8252(2) 0.1219(2) 0.40750(12)
H68 H 0.9135 0.1873 0.4146
C51 C 0.6762(3) -0.1950(2) 0.33733(15)
C52 C 0.6649(3) -0.2913(2) 0.31305(15)
C53 C 0.4696(3) -0.5397(3) 0.28981(19)
H69 H 0.4641 -0.5272 0.3439
H70 H 0.4588 -0.6189 0.2738
H71 H 0.3925 -0.5274 0.2576
C54 C 0.6573(4) -0.4515(3) 0.17817(18)
H72 H 0.5851 -0.4317 0.1478
H73 H 0.6402 -0.5312 0.1581
H74 H 0.7534 -0.3994 0.1744
C55 C 0.7957(3) -0.4564(3) 0.3411(2)
H75 H 0.8872 -0.4086 0.3297
H76 H 0.7798 -0.5376 0.3301
H77 H 0.7989 -0.4337 0.3957
C56 C 0.8473(3) 1.4089(2) 0.85660(15)
C57 C 0.8593(4) 1.4936(2) 0.89808(15)
C58 C 0.8801(5) 1.6007(3) 0.95023(17)
C59 C 0.8101(5) 1.5719(3) 1.0155(2)
H78 H 0.8456 1.5226 1.0427
H79 H 0.7060 1.5310 0.9950
H80 H 0.8308 1.6428 1.0514
C60 C 0.8306(6) 1.6779(3) 0.90514(19)
H81 H 0.8447 1.7480 0.9399
H82 H 0.7281 1.6348 0.8810
H83 H 0.8844 1.6988 0.8651
C25? C 1.1842(8) 1.0741(6) 0.9066(4)
H31? H 1.1608 0.9950 0.9164
H32? H 1.1711 1.1212 0.9500
C26? C 1.3348(9) 1.1291(7) 0.8914(4)
H33? H 1.3406 1.0833 0.8448
H34? H 1.3538 1.2076 0.8818
C27? C 1.4515(8) 1.1409(7) 0.9610(5)
H35? H 1.4527 1.1952 1.0052
H36? H 1.4229 1.0641 0.9753
C28? C 1.5993(11) 1.1911(10) 0.9484(7)
H37? H 1.6647 1.1927 0.9952
H38? H 1.6305 1.2684 0.9362
H39? H 1.6002 1.1371 0.9055
C29? C 0.6539(7) 0.9402(5) 0.8173(4)
H40? H 0.6357 0.8598 0.8221
H41? H 0.6609 0.9814 0.8689
C30? C 0.5173(6) 0.9344(5) 0.7662(4)
H42? H 0.5301 1.0153 0.7675
H43? H 0.5070 0.8999 0.7122
C31? C 0.3763(7) 0.8689(5) 0.7900(4)
H44? H 0.3883 0.8994 0.8450
H45? H 0.2975 0.8832 0.7599
C32? C 0.3337(7) 0.7431(6) 0.7799(4)
H46? H 0.4066 0.7281 0.8147
H47? H 0.3328 0.7139 0.7262
C33? C 0.1825(7) 0.6767(6) 0.7945(4)
H48? H 0.1884 0.7067 0.8488
H49? H 0.1680 0.5952 0.7911
C34? C 1.5243(13) 1.2250(11) 0.9467(7)
H50? H 1.6097 1.2836 0.9348
H51? H 1.4926 1.2613 0.9875
C35? C 1.558(2) 1.1306(15) 0.9780(11)
H52? H 1.6408 1.1748 1.0190
H53? H 1.4808 1.0836 0.9990
H54? H 1.5809 1.0822 0.9426
H58? H -0.0415 0.6314 0.7636
H59? H 0.0475 0.7553 0.7505
H60? H 0.0276 0.6469 0.6920
loop_
_geom_bond_atom_site_label_1
_geom_bond_atom_site_label_2
_geom_bond_site_symmetry_1
_geom_bond_site_symmetry_2
Si1 C52 1_555 1_555
O1 H1 1_555 1_555
C1 H2 1_555 1_555
C2 C1 1_555 1_555
C3 C2 1_555 1_555
H3 C3 1_555 1_555
C4 C3 1_555 1_555
H4 C4 1_555 1_555
C5 H5 1_555 1_555
C6 C5 1_555 1_555
H6 C6 1_555 1_555
C7 C6 1_555 1_555
C8 C7 1_555 1_555
H7 C8 1_555 1_555
C9 C10 1_555 1_555
C10 C1 1_555 1_555
C11 C4 1_555 1_555
C12 C5 1_555 1_555
C13 C8 1_555 1_555
C14 C9 1_555 1_555
H8 C14 1_555 1_555
H9 C14 1_555 1_555
C15 C14 1_555 1_555
H10 C15 1_555 1_555
H11 C15 1_555 1_555
C16 C15 1_555 1_555
H12 C16 1_555 1_555
H13 C16 1_555 1_555
C17 C16 1_555 1_555
H14 C17 1_555 1_555
H15 C17 1_555 1_555
C18 C17 1_555 1_555
H16 C18 1_555 1_555
H17 C18 1_555 1_555
C19 C18 1_555 1_555
H18 C19 1_555 1_555
H19 C19 1_555 1_555
H20 C19 1_555 1_555
C20 C9 1_555 1_555
H21 C20 1_555 1_555
H22 C20 1_555 1_555
C21 C20 1_555 1_555
H23 C21 1_555 1_555
H24 C21 1_555 1_555
C22 C21 1_555 1_555
H25 C22 1_555 1_555
H26 C22 1_555 1_555
C23 C22 1_555 1_555
H27 C23 1_555 1_555
H28 C23 1_555 1_555
C24 C23 1_555 1_555
H29 C24 1_555 1_555
H30 C24 1_555 1_555
C36 C24 1_555 1_555
H55 C36 1_555 1_555
H56 C36 1_555 1_555
H57 C36 1_555 1_555
C37 C2 1_555 1_555
C38 C37 1_555 1_555
C39 C38 1_555 1_555
C40 C39 1_555 1_555
H61 C40 1_555 1_555
C41 C40 1_555 1_555
H62 C41 1_555 1_555
C42 C41 1_555 1_555
C43 C42 1_555 1_555
H63 C43 1_555 1_555
C44 C39 1_555 1_555
H64 C44 1_555 1_555
C45 C42 1_555 1_555
C46 C45 1_555 1_555
H65 C46 1_555 1_555
C47 C46 1_555 1_555
H66 C47 1_555 1_555
C48 C47 1_555 1_555
C49 C48 1_555 1_555
H67 C49 1_555 1_555
C50 C45 1_555 1_555
H68 C50 1_555 1_555
C51 C48 1_555 1_555
C52 C51 1_555 1_555
C53 Si1 1_555 1_555
H69 C53 1_555 1_555
H70 C53 1_555 1_555
H71 C53 1_555 1_555
C54 Si1 1_555 1_555
H72 C54 1_555 1_555
H73 C54 1_555 1_555
H74 C54 1_555 1_555
C55 Si1 1_555 1_555
H75 C55 1_555 1_555
H76 C55 1_555 1_555
H77 C55 1_555 1_555
C56 C7 1_555 1_555
C57 C56 1_555 1_555
C58 O1 1_555 1_555
C59 C58 1_555 1_555
H78 C59 1_555 1_555
H79 C59 1_555 1_555
H80 C59 1_555 1_555
C60 C58 1_555 1_555
H81 C60 1_555 1_555
H82 C60 1_555 1_555
H83 C60 1_555 1_555
C9 C13 1_555 1_555
C10 C11 1_555 1_555
C11 C12 1_555 1_555
C12 C13 1_555 1_555
C43 C44 1_555 1_555
C49 C50 1_555 1_555
C57 C58 1_555 1_555

#END
