
#######################################################################
#
#                 Cambridge Crystallographic Data Centre
#                                CCDC 
#
#######################################################################
#
# If this CIF has been generated from an entry in the Cambridge 
# Structural Database, then it will include bibliographic, chemical, 
# crystal, experimental, refinement or atomic coordinate data resulting 
# from the CCDC's data processing and validation procedures.
#
#######################################################################

data_MIPDOF
_chemical_formula_moiety         'C9 H17 N3 S1 2+,C7 H7 O3 S1 1-,Br1 1-'
_chemical_name_systematic        
'3-Methyl-2-((2S)-(pyrrolidinium-2-yl)methylthio)-3H-imidazol-1-ium toluene-4-sulfonate bromide'
_symmetry_cell_setting           orthorhombic
_symmetry_space_group_name_H-M   'P 21 21 21'
_symmetry_Int_Tables_number      19
_space_group_name_Hall           'P 2ac 2ab'
loop_
_symmetry_equiv_pos_site_id
_symmetry_equiv_pos_as_xyz
1 x,y,z
2 1/2-x,-y,1/2+z
3 -x,1/2+y,1/2-z
4 1/2+x,1/2-y,-z
_cell_length_a                   7.022(7)
_cell_length_b                   7.332(8)
_cell_length_c                   38.75(4)
_cell_angle_alpha                90
_cell_angle_beta                 90
_cell_angle_gamma                90
_cell_volume                     1995.06
_exptl_crystal_colour            colorless
_exptl_crystal_description       prismatic
_cell_formula_units_Z            4
loop_
_atom_site_label
_atom_site_type_symbol
_atom_site_fract_x
_atom_site_fract_y
_atom_site_fract_z
Br1 Br 0.43368(12) -0.32068(9) 0.203548(18)
S1 S 0.5916(2) 0.15859(16) 0.14831(4)
N1 N 0.1839(6) 0.0146(6) 0.17800(11)
H1 H 0.1559 0.0228 0.1554
H2 H 0.2680 -0.0767 0.1810
N2 N 0.3995(9) 0.4167(7) 0.11114(13)
N3 N 0.6723(6) 0.5142(6) 0.12895(11)
C1 C 0.0064(9) -0.0217(9) 0.19852(17)
H3 H -0.1050 -0.0191 0.1837
H4 H 0.0133 -0.1400 0.2097
C2 C -0.0027(15) 0.1237(13) 0.2241(2)
H5 H -0.0992 0.2118 0.2176
H6 H -0.0367 0.0735 0.2464
C3 C 0.1781(9) 0.2106(10) 0.22615(16)
H7 H 0.2571 0.1514 0.2434
H8 H 0.1633 0.3378 0.2324
C4 C 0.2679(7) 0.1942(7) 0.19091(13)
H9 H 0.2238 0.2944 0.1762
C5 C 0.4831(8) 0.1884(8) 0.19068(13)
H10 H 0.5245 0.0892 0.2055
H11 H 0.5305 0.3010 0.2006
C6 C 0.5526(8) 0.3704(7) 0.12926(13)
C7 C 0.4200(10) 0.5918(8) 0.09925(15)
H12 H 0.3332 0.6569 0.0860
C8 C 0.5897(10) 0.6509(7) 0.11054(15)
H13 H 0.6419 0.7655 0.1065
C9 C 0.8531(8) 0.5277(9) 0.14791(18)
H14 H 0.8278 0.5590 0.1715
H15 H 0.9312 0.6203 0.1376
H16 H 0.9182 0.4127 0.1470
H24 H 0.319(9) 0.374(8) 0.1082(15)
S2 S 0.00494(19) 0.05620(18) 0.08938(3)
O1 O 0.0300(9) -0.1104(6) 0.10852(12)
O2 O -0.1851(6) 0.0901(9) 0.07888(11)
O3 O 0.0868(7) 0.2046(6) 0.10912(10)
C10 C 0.1483(7) 0.0359(7) 0.05164(13)
C11 C 0.0665(10) 0.0456(9) 0.01950(13)
H17 H -0.0633 0.0679 0.0172
C12 C 0.1774(11) 0.0222(10) -0.00906(15)
H18 H 0.1217 0.0282 -0.0308
C13 C 0.3727(10) -0.0106(9) -0.00638(15)
C14 C 0.4506(9) -0.0135(8) 0.02629(15)
H19 H 0.5810 -0.0320 0.0286
C15 C 0.3439(8) 0.0094(8) 0.05518(14)
H20 H 0.4002 0.0076 0.0769
C16 C 0.4981(13) -0.0395(11) -0.03815(17)
H21 H 0.6281 -0.0125 -0.0324
H22 H 0.4566 0.0398 -0.0564
H23 H 0.4884 -0.1640 -0.0456
loop_
_geom_bond_atom_site_label_1
_geom_bond_atom_site_label_2
_geom_bond_site_symmetry_1
_geom_bond_site_symmetry_2
S1 C5 1_555 1_555
S2 O1 1_555 1_555
O2 S2 1_555 1_555
O3 S2 1_555 1_555
N1 H1 1_555 1_555
H2 N1 1_555 1_555
N2 C6 1_555 1_555
N3 C6 1_555 1_555
C1 N1 1_555 1_555
H3 C1 1_555 1_555
H4 C1 1_555 1_555
C2 C1 1_555 1_555
H5 C2 1_555 1_555
H6 C2 1_555 1_555
C3 C2 1_555 1_555
H7 C3 1_555 1_555
H8 C3 1_555 1_555
C4 N1 1_555 1_555
H9 C4 1_555 1_555
C5 C4 1_555 1_555
H10 C5 1_555 1_555
H11 C5 1_555 1_555
C6 S1 1_555 1_555
C7 N2 1_555 1_555
H12 C7 1_555 1_555
C8 N3 1_555 1_555
H13 C8 1_555 1_555
C9 N3 1_555 1_555
H14 C9 1_555 1_555
H15 C9 1_555 1_555
H16 C9 1_555 1_555
C10 S2 1_555 1_555
C11 C10 1_555 1_555
H17 C11 1_555 1_555
C12 C11 1_555 1_555
H18 C12 1_555 1_555
C13 C12 1_555 1_555
C14 C13 1_555 1_555
H19 C14 1_555 1_555
C15 C10 1_555 1_555
H20 C15 1_555 1_555
C16 C13 1_555 1_555
H21 C16 1_555 1_555
H22 C16 1_555 1_555
H23 C16 1_555 1_555
H24 N2 1_555 1_555
C3 C4 1_555 1_555
C7 C8 1_555 1_555
C14 C15 1_555 1_555

#END
