
#######################################################################
#
#                 Cambridge Crystallographic Data Centre
#                                CCDC 
#
#######################################################################
#
# If this CIF has been generated from an entry in the Cambridge 
# Structural Database, then it will include bibliographic, chemical, 
# crystal, experimental, refinement or atomic coordinate data resulting 
# from the CCDC's data processing and validation procedures.
#
#######################################################################

data_MIPFUP
_chemical_formula_moiety         'C23 H25 B1 F3 N1 O3'
_chemical_name_systematic        
'(S)-1-methyl-3-phenyl-3-((4,4,5,5-tetramethyl-1,3,2-dioxaborolan-2-yl)methyl)-6- (trifluoromethyl)indolin-2-one'
_symmetry_cell_setting           orthorhombic
_symmetry_space_group_name_H-M   'P 21 21 21'
_symmetry_Int_Tables_number      19
_space_group_name_Hall           'P 2ac 2ab'
loop_
_symmetry_equiv_pos_site_id
_symmetry_equiv_pos_as_xyz
1 x,y,z
2 1/2-x,-y,1/2+z
3 -x,1/2+y,1/2-z
4 1/2+x,1/2-y,-z
_cell_length_a                   10.5786(2)
_cell_length_b                   17.7356(3)
_cell_length_c                   23.8520(4)
_cell_angle_alpha                90
_cell_angle_beta                 90
_cell_angle_gamma                90
_cell_volume                     4475.06
_exptl_crystal_colour            colorless
_exptl_crystal_description       Block
_cell_formula_units_Z            8
_exptl_crystal_recrystallization_method 
'Re-crystallisation from solvent: deuterochloroform'
loop_
_atom_site_label
_atom_site_type_symbol
_atom_site_fract_x
_atom_site_fract_y
_atom_site_fract_z
F1 F 0.57396(19) 0.61331(13) 0.34317(8)
F2 F 0.62459(15) 0.51760(11) 0.39161(12)
F3 F 0.56389(15) 0.61854(10) 0.43163(7)
O1 O -0.00753(15) 0.38954(9) 0.27788(6)
O2 O -0.08263(16) 0.64518(9) 0.35629(7)
O3 O 0.01419(16) 0.57951(9) 0.28627(6)
N1 N 0.19210(17) 0.43533(10) 0.29495(7)
C1 C 0.04564(19) 0.44578(12) 0.36976(8)
C2 C 0.16916(19) 0.48440(12) 0.38305(9)
C3 C 0.2062(2) 0.52569(13) 0.42904(9)
H1 H 0.149885 0.533168 0.459564
C4 C 0.3275(2) 0.55643(13) 0.43022(9)
H2 H 0.354396 0.584877 0.461790
C5 C 0.4086(2) 0.54560(12) 0.38562(10)
C6 C 0.3718(2) 0.50604(12) 0.33749(9)
H3 H 0.426843 0.500200 0.306315
C7 C 0.2517(2) 0.47602(12) 0.33771(8)
C8 C 0.0689(2) 0.41960(12) 0.30861(8)
C9 C 0.5410(2) 0.57374(14) 0.38818(11)
C10 C 0.2478(3) 0.42198(16) 0.24030(10)
H4 H 0.319461 0.387320 0.244112
H5 H 0.277296 0.469868 0.224508
H6 H 0.184385 0.399733 0.215346
C11 C 0.0180(2) 0.37599(12) 0.40562(9)
C12 C 0.0983(2) 0.35115(14) 0.44753(10)
H7 H 0.174686 0.377625 0.454628
C13 C 0.0684(3) 0.28777(15) 0.47949(11)
H8 H 0.124156 0.271639 0.508338
C14 C -0.0415(3) 0.24847(14) 0.46939(11)
H9 H -0.062045 0.205499 0.491349
C15 C -0.1210(3) 0.27173(15) 0.42746(12)
H10 H -0.196054 0.244116 0.419863
C16 C -0.0928(2) 0.33516(14) 0.39614(11)
H11 H -0.149632 0.351193 0.367722
C17 C -0.0658(2) 0.50219(12) 0.37163(9)
H12 H -0.082276 0.515720 0.411222
H13 H -0.142309 0.476774 0.357025
C18 C -0.0617(2) 0.69941(13) 0.31084(10)
C19 C 0.0403(2) 0.65924(13) 0.27485(10)
C20 C -0.0208(3) 0.77326(14) 0.33704(11)
H14 H 0.001197 0.809234 0.307421
H15 H 0.053006 0.764629 0.361027
H16 H -0.090161 0.793721 0.359641
C21 C -0.1867(3) 0.70840(16) 0.28047(13)
H17 H -0.177137 0.745257 0.250147
H18 H -0.251150 0.726027 0.306889
H19 H -0.212462 0.659738 0.264726
C22 C 0.1754(3) 0.67281(17) 0.29487(13)
H20 H 0.198583 0.725510 0.288047
H21 H 0.233177 0.639627 0.274328
H22 H 0.181089 0.662012 0.335081
C23 C 0.0317(3) 0.67394(16) 0.21251(10)
H23 H 0.041742 0.728020 0.205356
H24 H -0.050898 0.657259 0.198641
H25 H 0.098697 0.646060 0.193127
B1 B -0.0442(2) 0.57652(14) 0.33740(10)
F4 F 0.4040(2) 0.56786(13) 0.56770(10)
F5 F 0.34374(18) 0.4861(2) 0.62764(9)
F6 F 0.35533(18) 0.45794(12) 0.54095(9)
O4 O 1.01428(15) 0.46063(10) 0.71643(7)
O5 O 1.0196(3) 0.57252(11) 0.53142(8)
O6 O 0.9553(2) 0.58324(10) 0.61996(8)
N2 N 0.80500(17) 0.47673(12) 0.69534(7)
C24 C 0.9269(2) 0.41191(12) 0.62763(9)
C25 C 0.7941(2) 0.42705(12) 0.60708(9)
C26 C 0.7378(3) 0.41299(14) 0.55607(10)
H26 H 0.783095 0.388286 0.527004
C27 C 0.6122(3) 0.43584(15) 0.54789(11)
H27 H 0.571769 0.426727 0.512978
C28 C 0.5477(2) 0.47132(16) 0.59020(11)
C29 C 0.6040(2) 0.48842(15) 0.64160(10)
H28 H 0.559381 0.514233 0.670356
C30 C 0.7279(2) 0.46577(13) 0.64839(9)
C31 C 0.9251(2) 0.45193(13) 0.68507(9)
C32 C 0.4134(3) 0.4950(2) 0.58195(13)
C33 C 0.7748(3) 0.52635(18) 0.74166(10)
H29 H 0.688120 0.516659 0.754233
H30 H 0.782262 0.578916 0.729425
H31 H 0.833587 0.517066 0.772651
C34 C 0.9586(2) 0.32862(13) 0.63705(9)
C35 C 0.8773(3) 0.27086(14) 0.62194(11)
H32 H 0.797664 0.282472 0.605687
C36 C 0.9114(3) 0.19609(15) 0.63039(13)
H33 H 0.855125 0.157104 0.619297
C37 C 1.0251(3) 0.17761(16) 0.65451(13)
H34 H 1.047726 0.126300 0.659965
C38 C 1.1061(3) 0.23479(16) 0.67077(13)
H35 H 1.184218 0.222830 0.688306
C39 C 1.0737(2) 0.30940(15) 0.66155(12)
H36 H 1.130905 0.348153 0.672110
C40 C 1.0255(2) 0.45071(13) 0.58957(10)
H37 H 1.026727 0.424756 0.552832
H38 H 1.110180 0.444803 0.606675
B2 B 0.9997(2) 0.53699(15) 0.57969(11)
C41 C 0.9565(8) 0.6454(3) 0.5352(3)
C42 C 0.9743(8) 0.6589(4) 0.5977(3)
C43 C 0.8100(7) 0.6399(4) 0.5223(5)
H39 H 0.797515 0.617864 0.485012
H40 H 0.772688 0.690501 0.523265
H41 H 0.769057 0.608068 0.550505
C44 C 1.0286(11) 0.6944(8) 0.4945(7)
H42 H 1.119513 0.688723 0.501150
H43 H 1.004320 0.747189 0.499887
H44 H 1.008714 0.678926 0.456053
C45 C 0.8793(9) 0.7094(6) 0.6239(5)
H45 H 0.796397 0.684708 0.623643
H46 H 0.874568 0.756675 0.602759
H47 H 0.904138 0.720134 0.662687
C46 C 1.1153(7) 0.6865(3) 0.6063(4)
H48 H 1.139465 0.679715 0.645681
H49 H 1.121844 0.739891 0.596301
H50 H 1.171780 0.656796 0.582390
C47? C 1.0267(8) 0.6584(3) 0.5484(3)
C48? C 0.9130(8) 0.6555(5) 0.5903(4)
C49? C 0.7844(7) 0.6529(5) 0.5729(7)
H51? H 0.775818 0.617917 0.541323
H52? H 0.757226 0.703358 0.561256
H53? H 0.731671 0.635643 0.604128
C50? C 0.9758(16) 0.6998(11) 0.4943(9)
H54? H 0.959881 0.753017 0.502966
H55? H 0.896944 0.675961 0.481998
H56? H 1.038837 0.696272 0.464299
C51? C 0.9340(13) 0.7158(6) 0.6395(5)
H57? H 0.865011 0.711656 0.666796
H58? H 0.934968 0.766774 0.623677
H59? H 1.014736 0.705806 0.658244
C52? C 1.1481(7) 0.6862(4) 0.5688(4)
H60? H 1.141493 0.740311 0.576789
H61? H 1.213097 0.677855 0.540232
H62? H 1.171136 0.659266 0.603194
loop_
_geom_bond_atom_site_label_1
_geom_bond_atom_site_label_2
_geom_bond_site_symmetry_1
_geom_bond_site_symmetry_2
F1 C9 1_555 1_555
F2 C9 1_555 1_555
F3 C9 1_555 1_555
O1 C8 1_555 1_555
O2 C18 1_555 1_555
O3 C19 1_555 1_555
N1 C7 1_555 1_555
C1 C2 1_555 1_555
C2 C3 1_555 1_555
C3 H1 1_555 1_555
C4 C3 1_555 1_555
H2 C4 1_555 1_555
C5 C4 1_555 1_555
C6 C5 1_555 1_555
H3 C6 1_555 1_555
C7 C2 1_555 1_555
C8 N1 1_555 1_555
C9 C5 1_555 1_555
C10 N1 1_555 1_555
H4 C10 1_555 1_555
H5 C10 1_555 1_555
H6 C10 1_555 1_555
C11 C1 1_555 1_555
C12 C11 1_555 1_555
H7 C12 1_555 1_555
C13 C12 1_555 1_555
H8 C13 1_555 1_555
C14 C13 1_555 1_555
H9 C14 1_555 1_555
C15 C14 1_555 1_555
H10 C15 1_555 1_555
C16 C11 1_555 1_555
H11 C16 1_555 1_555
C17 C1 1_555 1_555
H12 C17 1_555 1_555
H13 C17 1_555 1_555
C18 C19 1_555 1_555
C19 C22 1_555 1_555
C20 C18 1_555 1_555
H14 C20 1_555 1_555
H15 C20 1_555 1_555
H16 C20 1_555 1_555
C21 C18 1_555 1_555
H17 C21 1_555 1_555
H18 C21 1_555 1_555
H19 C21 1_555 1_555
C22 H20 1_555 1_555
H21 C22 1_555 1_555
H22 C22 1_555 1_555
C23 C19 1_555 1_555
H23 C23 1_555 1_555
H24 C23 1_555 1_555
H25 C23 1_555 1_555
B1 O2 1_555 1_555
F4 C32 1_555 1_555
F5 C32 1_555 1_555
F6 C32 1_555 1_555
O4 C31 1_555 1_555
O5 B2 1_555 1_555
O6 B2 1_555 1_555
N2 C30 1_555 1_555
C24 C25 1_555 1_555
C25 C26 1_555 1_555
C26 H26 1_555 1_555
C27 C26 1_555 1_555
H27 C27 1_555 1_555
C28 C27 1_555 1_555
C29 C28 1_555 1_555
H28 C29 1_555 1_555
C30 C25 1_555 1_555
C31 N2 1_555 1_555
C32 C28 1_555 1_555
C33 N2 1_555 1_555
H29 C33 1_555 1_555
H30 C33 1_555 1_555
H31 C33 1_555 1_555
C34 C24 1_555 1_555
C35 C34 1_555 1_555
H32 C35 1_555 1_555
C36 C35 1_555 1_555
H33 C36 1_555 1_555
C37 C36 1_555 1_555
H34 C37 1_555 1_555
C38 C37 1_555 1_555
H35 C38 1_555 1_555
C39 C34 1_555 1_555
H36 C39 1_555 1_555
C40 C24 1_555 1_555
H37 C40 1_555 1_555
H38 C40 1_555 1_555
B2 C40 1_555 1_555
C41 O5 1_555 1_555
C42 O6 1_555 1_555
C43 C41 1_555 1_555
H39 C43 1_555 1_555
H40 C43 1_555 1_555
H41 C43 1_555 1_555
C44 C41 1_555 1_555
H42 C44 1_555 1_555
H43 C44 1_555 1_555
H44 C44 1_555 1_555
C45 C42 1_555 1_555
H45 C45 1_555 1_555
H46 C45 1_555 1_555
H47 C45 1_555 1_555
C46 C42 1_555 1_555
H48 C46 1_555 1_555
H49 C46 1_555 1_555
H50 C46 1_555 1_555
O3 B1 1_555 1_555
C1 C8 1_555 1_555
C6 C7 1_555 1_555
C15 C16 1_555 1_555
C17 B1 1_555 1_555
C24 C31 1_555 1_555
C29 C30 1_555 1_555
C38 C39 1_555 1_555
C41 C42 1_555 1_555

#END
