
#######################################################################
#
#                 Cambridge Crystallographic Data Centre
#                                CCDC 
#
#######################################################################
#
# If this CIF has been generated from an entry in the Cambridge 
# Structural Database, then it will include bibliographic, chemical, 
# crystal, experimental, refinement or atomic coordinate data resulting 
# from the CCDC's data processing and validation procedures.
#
#######################################################################

data_MIPJEC
_chemical_formula_moiety         'C36 H46 Li1 N1 O2 P2 Si1'
_chemical_name_systematic        
(5,5-dimethyl-1,1,3,3-tetraphenyl-4-aza-1,3\l^5^-diphospha-5-silahex-3-en-2-yl)-bis(tetrahydrofuran)-lithium
_symmetry_cell_setting           triclinic
_symmetry_space_group_name_H-M   'P -1'
_symmetry_Int_Tables_number      2
_space_group_name_Hall           '-P 1'
loop_
_symmetry_equiv_pos_site_id
_symmetry_equiv_pos_as_xyz
1 x,y,z
2 -x,-y,-z
_cell_length_a                   10.7296(19)
_cell_length_b                   10.880(2)
_cell_length_c                   16.270(3)
_cell_angle_alpha                95.857(4)
_cell_angle_beta                 100.286(3)
_cell_angle_gamma                96.741(3)
_cell_volume                     1841.12
_exptl_crystal_colour            colorless
_exptl_crystal_description       block
_cell_formula_units_Z            2
loop_
_atom_site_label
_atom_site_type_symbol
_atom_site_fract_x
_atom_site_fract_y
_atom_site_fract_z
Li1 Li 0.4928(11) 0.2148(12) 0.2477(8)
N1 N 0.6327(5) 0.2644(5) 0.3514(3)
P1 P 0.73394(16) 0.30729(16) 0.29747(11)
P2 P 0.68954(18) 0.34081(17) 0.11117(11)
Si1 Si 0.6360(2) 0.2446(2) 0.45385(13)
C1 C 0.6778(6) 0.2505(6) 0.1935(4)
H1 H 0.7092 0.1710 0.1809
C2 C 0.7691(6) 0.4751(6) 0.3053(4)
C3 C 0.6886(8) 0.5505(7) 0.3362(4)
H2 H 0.6174 0.5138 0.3544
C4 C 0.7106(12) 0.6783(9) 0.3406(5)
H3 H 0.6541 0.7264 0.3613
C5 C 0.8139(13) 0.7347(10) 0.3153(7)
H4 H 0.8286 0.8212 0.3191
C6 C 0.8948(11) 0.6662(11) 0.2848(7)
H5 H 0.9656 0.7054 0.2674
C7 C 0.8734(8) 0.5340(8) 0.2786(5)
H6 H 0.9295 0.4870 0.2566
C8 C 0.8833(6) 0.2587(7) 0.3434(4)
C9 C 0.9087(8) 0.1402(8) 0.3201(5)
H7 H 0.8552 0.0909 0.2743
C10 C 1.0136(9) 0.0922(10) 0.3639(8)
H8 H 1.0262 0.0103 0.3494
C11 C 1.0981(9) 0.1677(12) 0.4290(8)
H9 H 1.1682 0.1372 0.4582
C12 C 1.0775(9) 0.2856(12) 0.4495(7)
H10 H 1.1341 0.3369 0.4928
C13 C 0.9739(7) 0.3307(8) 0.4071(5)
H11 H 0.9637 0.4134 0.4216
C14 C 0.8171(7) 0.2887(9) 0.0596(5)
C15 C 0.8822(9) 0.1967(10) 0.0801(7)
H12 H 0.8606 0.1507 0.1218
C16 C 0.9831(14) 0.1664(17) 0.0408(11)
H13 H 1.0243 0.0991 0.0557
C17 C 1.0198(15) 0.230(2) -0.0157(12)
H14 H 1.0874 0.2094 -0.0406
C18 C 0.9586(14) 0.326(2) -0.0378(10)
H15 H 0.9845 0.3716 -0.0786
C19 C 0.8562(10) 0.3596(13) -0.0008(7)
H16 H 0.8157 0.4271 -0.0161
C20 C 0.5515(6) 0.2739(7) 0.0287(4)
C21 C 0.5120(8) 0.3429(7) -0.0364(5)
H17 H 0.5604 0.4187 -0.0388
C22 C 0.4032(9) 0.3030(10) -0.0977(5)
H18 H 0.3788 0.3522 -0.1397
C23 C 0.3325(8) 0.1915(10) -0.0960(5)
H19 H 0.2600 0.1634 -0.1373
C24 C 0.3687(8) 0.1205(8) -0.0328(5)
H20 H 0.3209 0.0440 -0.0314
C25 C 0.4762(7) 0.1632(7) 0.0284(5)
H21 H 0.4984 0.1146 0.0712
C26 C 0.7030(14) 0.3823(10) 0.5290(6)
H22 H 0.6590 0.4511 0.5142
H23 H 0.7922 0.4027 0.5280
H24 H 0.6933 0.3656 0.5845
C27 C 0.7283(10) 0.1161(10) 0.4873(6)
H25 H 0.8159 0.1368 0.4824
H26 H 0.6920 0.0397 0.4519
H27 H 0.7241 0.1061 0.5448
C28 C 0.4696(9) 0.1969(11) 0.4660(6)
H28 H 0.4181 0.2599 0.4494
H29 H 0.4685 0.1866 0.5238
H30 H 0.4358 0.1194 0.4311
C29 C 0.2936(13) -0.0128(13) 0.1891(11)
H31 H 0.2884 -0.0279 0.1287
H32 H 0.2309 0.0408 0.2003
C30 C 0.2717(18) -0.1273(18) 0.2229(15)
H33 H 0.2210 -0.1174 0.2663
H34 H 0.2251 -0.1917 0.1789
C31 C 0.3895(19) -0.1617(13) 0.2569(11)
H35 H 0.4075 -0.2330 0.2223
H36 H 0.3900 -0.1830 0.3134
C32 C 0.4810(12) -0.0559(11) 0.2581(9)
H37 H 0.5407 -0.0760 0.2222
H38 H 0.5287 -0.0299 0.3150
C33 C 0.2685(16) 0.3315(19) 0.2723(12)
H39 H 0.3138 0.3555 0.3299
H40 H 0.2107 0.2554 0.2707
C34 C 0.1960(14) 0.4279(18) 0.2464(11)
H41 H 0.1106 0.3942 0.2160
H42 H 0.1904 0.4873 0.2939
C35 C 0.268(2) 0.4781(17) 0.1965(12)
H43 H 0.3206 0.5529 0.2272
H44 H 0.2122 0.5026 0.1488
C36 C 0.3463(13) 0.3974(12) 0.1667(8)
H45 H 0.3091 0.3585 0.1099
H46 H 0.4303 0.4417 0.1669
O1 O 0.4148(6) 0.0415(6) 0.2287(4)
O2 O 0.3542(5) 0.3095(6) 0.2221(4)
loop_
_geom_bond_atom_site_label_1
_geom_bond_atom_site_label_2
_geom_bond_site_symmetry_1
_geom_bond_site_symmetry_2
Li1 N1 1_555 1_555
N1 P1 1_555 1_555
P1 C1 1_555 1_555
P2 C1 1_555 1_555
Si1 N1 1_555 1_555
C1 Li1 1_555 1_555
H1 C1 1_555 1_555
C2 P1 1_555 1_555
C3 C2 1_555 1_555
H2 C3 1_555 1_555
C4 C3 1_555 1_555
H3 C4 1_555 1_555
C5 C4 1_555 1_555
H4 C5 1_555 1_555
C6 C5 1_555 1_555
H5 C6 1_555 1_555
C7 C2 1_555 1_555
H6 C7 1_555 1_555
C8 P1 1_555 1_555
C9 C8 1_555 1_555
H7 C9 1_555 1_555
C10 C9 1_555 1_555
H8 C10 1_555 1_555
C11 C10 1_555 1_555
H9 C11 1_555 1_555
C12 C11 1_555 1_555
H10 C12 1_555 1_555
C13 C8 1_555 1_555
H11 C13 1_555 1_555
C14 P2 1_555 1_555
C15 C14 1_555 1_555
H12 C15 1_555 1_555
C16 C15 1_555 1_555
H13 C16 1_555 1_555
C17 C16 1_555 1_555
H14 C17 1_555 1_555
C18 C17 1_555 1_555
H15 C18 1_555 1_555
C19 C14 1_555 1_555
H16 C19 1_555 1_555
C20 P2 1_555 1_555
C21 C20 1_555 1_555
H17 C21 1_555 1_555
C22 C21 1_555 1_555
H18 C22 1_555 1_555
C23 C22 1_555 1_555
H19 C23 1_555 1_555
C24 C23 1_555 1_555
H20 C24 1_555 1_555
C25 C20 1_555 1_555
H21 C25 1_555 1_555
C26 Si1 1_555 1_555
H22 C26 1_555 1_555
H23 C26 1_555 1_555
H24 C26 1_555 1_555
C27 Si1 1_555 1_555
H25 C27 1_555 1_555
H26 C27 1_555 1_555
H27 C27 1_555 1_555
C28 Si1 1_555 1_555
H28 C28 1_555 1_555
H29 C28 1_555 1_555
H30 C28 1_555 1_555
C29 H31 1_555 1_555
H32 C29 1_555 1_555
C30 C29 1_555 1_555
H33 C30 1_555 1_555
H34 C30 1_555 1_555
C31 C30 1_555 1_555
H35 C31 1_555 1_555
H36 C31 1_555 1_555
C32 C31 1_555 1_555
H37 C32 1_555 1_555
H38 C32 1_555 1_555
C33 H39 1_555 1_555
H40 C33 1_555 1_555
C34 C33 1_555 1_555
H41 C34 1_555 1_555
H42 C34 1_555 1_555
C35 C34 1_555 1_555
H43 C35 1_555 1_555
H44 C35 1_555 1_555
C36 C35 1_555 1_555
H45 C36 1_555 1_555
H46 C36 1_555 1_555
O1 Li1 1_555 1_555
O2 Li1 1_555 1_555
C6 C7 1_555 1_555
C12 C13 1_555 1_555
C18 C19 1_555 1_555
C24 C25 1_555 1_555
C29 O1 1_555 1_555
C32 O1 1_555 1_555
C33 O2 1_555 1_555
C36 O2 1_555 1_555

#END
