
#######################################################################
#
#                 Cambridge Crystallographic Data Centre
#                                CCDC 
#
#######################################################################
#
# If this CIF has been generated from an entry in the Cambridge 
# Structural Database, then it will include bibliographic, chemical, 
# crystal, experimental, refinement or atomic coordinate data resulting 
# from the CCDC's data processing and validation procedures.
#
#######################################################################

data_MIPLAZ
_chemical_formula_moiety         'C13 H14 Br1 N1 O4'
_chemical_name_systematic        
(2S,4S)-4-Bromo-2-((R)-hydroxy-(4-nitrophenyl)methyl)cyclohexanone
_symmetry_cell_setting           orthorhombic
_symmetry_space_group_name_H-M   'P 21 21 21'
_symmetry_Int_Tables_number      19
_space_group_name_Hall           'P 2ac 2ab'
loop_
_symmetry_equiv_pos_site_id
_symmetry_equiv_pos_as_xyz
1 x,y,z
2 1/2-x,-y,1/2+z
3 -x,1/2+y,1/2-z
4 1/2+x,1/2-y,-z
_cell_length_a                   7.2324(14)
_cell_length_b                   9.6314(19)
_cell_length_c                   19.391(4)
_cell_angle_alpha                90
_cell_angle_beta                 90
_cell_angle_gamma                90
_cell_volume                     1350.74
_exptl_crystal_colour            colorless
_exptl_crystal_description       block
_cell_formula_units_Z            4
loop_
_atom_site_label
_atom_site_type_symbol
_atom_site_fract_x
_atom_site_fract_y
_atom_site_fract_z
Br1 Br 0.47919(6) 0.43239(5) 0.765349(19)
N1 N 0.0675(4) 1.0800(3) 0.65999(16)
O1 O 0.4158(5) 0.3019(3) 0.51178(13)
O2 O 0.0725(4) 0.4712(2) 0.53505(14)
H1 H 0.0106 0.5119 0.5060
O3 O 0.1258(5) 1.1825(3) 0.6321(2)
O4 O -0.0154(5) 1.0820(3) 0.71462(14)
C1 C 0.4451(6) 0.3397(3) 0.57049(18)
C2 C 0.5709(7) 0.2615(4) 0.6184(2)
H2 H 0.6345 0.1898 0.5924
H3 H 0.4966 0.2160 0.6534
C3 C 0.7123(7) 0.3522(5) 0.6533(2)
H4 H 0.8068 0.3777 0.6201
H5 H 0.7714 0.3001 0.6899
C4 C 0.6277(6) 0.4833(4) 0.6832(2)
H6 H 0.7281 0.5448 0.6980
C5 C 0.5095(5) 0.5603(4) 0.63264(17)
H7 H 0.5878 0.5977 0.5965
H8 H 0.4513 0.6379 0.6560
C6 C 0.3593(5) 0.4704(3) 0.59967(17)
H9 H 0.2774 0.4408 0.6372
C7 C 0.2373(5) 0.5451(3) 0.54703(17)
H10 H 0.3052 0.5542 0.5035
C8 C 0.1832(5) 0.6885(3) 0.57248(16)
C9 C 0.2572(5) 0.8072(4) 0.54415(17)
H11 H 0.3364 0.8001 0.5065
C10 C 0.2155(5) 0.9370(4) 0.57077(17)
H12 H 0.2640 1.0172 0.5511
C11 C 0.1009(5) 0.9435(3) 0.62683(17)
C12 C 0.0231(5) 0.8286(3) 0.65609(16)
H13 H -0.0553 0.8364 0.6939
C13 C 0.0639(5) 0.7008(3) 0.62809(17)
H14 H 0.0106 0.6214 0.6468
loop_
_geom_bond_atom_site_label_1
_geom_bond_atom_site_label_2
_geom_bond_site_symmetry_1
_geom_bond_site_symmetry_2
Br1 C4 1_555 1_555
N1 O3 1_555 1_555
O1 C1 1_555 1_555
O2 H1 1_555 1_555
O4 N1 1_555 1_555
C1 C2 1_555 1_555
C2 H2 1_555 1_555
H3 C2 1_555 1_555
C3 C2 1_555 1_555
H4 C3 1_555 1_555
H5 C3 1_555 1_555
C4 C3 1_555 1_555
H6 C4 1_555 1_555
C5 C4 1_555 1_555
H7 C5 1_555 1_555
H8 C5 1_555 1_555
C6 C1 1_555 1_555
H9 C6 1_555 1_555
C7 O2 1_555 1_555
H10 C7 1_555 1_555
C8 C7 1_555 1_555
C9 C8 1_555 1_555
H11 C9 1_555 1_555
C10 C9 1_555 1_555
H12 C10 1_555 1_555
C11 N1 1_555 1_555
C12 C11 1_555 1_555
H13 C12 1_555 1_555
C13 C8 1_555 1_555
H14 C13 1_555 1_555
C5 C6 1_555 1_555
C6 C7 1_555 1_555
C10 C11 1_555 1_555
C12 C13 1_555 1_555

#END
