
#######################################################################
#
#                 Cambridge Crystallographic Data Centre
#                                CCDC 
#
#######################################################################
#
# If this CIF has been generated from an entry in the Cambridge 
# Structural Database, then it will include bibliographic, chemical, 
# crystal, experimental, refinement or atomic coordinate data resulting 
# from the CCDC's data processing and validation procedures.
#
#######################################################################

data_MIPYOC
_chemical_formula_moiety         'C64 H50 N2'
_chemical_name_systematic        
4,7-bis[4-(triphenylethenyl)phenyl]spiro[benzimidazole-2,1'-cyclohexane]
_symmetry_cell_setting           monoclinic
_symmetry_space_group_name_H-M   'P 21'
_symmetry_Int_Tables_number      4
_space_group_name_Hall           'P 2yb'
loop_
_symmetry_equiv_pos_site_id
_symmetry_equiv_pos_as_xyz
1 x,y,z
2 -x,1/2+y,-z
_cell_length_a                   5.6778(4)
_cell_length_b                   16.7503(15)
_cell_length_c                   28.114(3)
_cell_angle_alpha                90
_cell_angle_beta                 93.123(7)
_cell_angle_gamma                90
_cell_volume                     2669.81
_exptl_crystal_colour            'light red'
_exptl_crystal_description       needle
_cell_formula_units_Z            2
loop_
_atom_site_label
_atom_site_type_symbol
_atom_site_fract_x
_atom_site_fract_y
_atom_site_fract_z
C1 C -0.872(4) -0.4765(17) -0.0594(9)
C2 C -1.632(4) -1.0191(17) -0.4399(10)
C3 C -1.564(4) -0.9599(17) -0.4007(9)
C4 C -1.628(4) -1.0966(19) -0.4371(10)
C5 C -0.954(5) -0.5253(14) -0.0998(10)
C6 C -1.706(4) -0.9744(16) -0.4841(9)
C7 C -0.786(5) -0.5184(15) -0.0134(10)
C8 C -1.294(5) -0.9155(18) -0.3392(10)
H1 H -1.150907 -0.922923 -0.322220
C9 C -1.631(5) -0.8456(18) -0.3485(11)
H2 H -1.733109 -0.806458 -0.338528
C10 C -0.818(5) -0.5922(17) -0.1128(9)
H3 H -0.674943 -0.601655 -0.095887
C11 C -0.873(5) -0.3913(16) -0.0637(10)
C12 C -1.712(4) -0.8991(15) -0.3904(8)
H4 H -1.853928 -0.890558 -0.407687
C13 C -1.677(5) -1.1486(15) -0.4786(10)
C14 C -0.884(4) -0.6422(14) -0.1480(8)
H5 H -0.788653 -0.685320 -0.154942
C15 C -1.575(5) -0.9144(17) -0.4995(11)
H6 H -1.438904 -0.899291 -0.481679
C16 C -1.244(4) -0.5653(16) -0.1608(9)
H7 H -1.390674 -0.555737 -0.175920
C17 C -1.418(6) -0.8527(18) -0.3255(11)
C18 C -1.351(5) -0.7960(18) -0.2897(9)
C19 C -0.832(5) -0.3389(19) -0.0192(11)
C20 C -1.929(4) -0.9848(18) -0.5095(9)
H8 H -2.033927 -1.021058 -0.497258
C21 C -1.343(4) -0.9700(15) -0.3735(9)
H9 H -1.240440 -1.011744 -0.379286
C22 C -0.583(5) -0.4987(19) 0.0105(10)
H10 H -0.487002 -0.457850 0.000205
C23 C -1.099(4) -0.6297(16) -0.1746(10)
C24 C -1.155(5) -0.5175(18) -0.1236(9)
H11 H -1.250295 -0.475411 -0.114829
C25 C -0.938(5) -0.5758(18) 0.0050(9)
H12 H -1.080538 -0.588525 -0.011109
C26 C -1.190(5) -0.6870(18) -0.2117(10)
C27 C -0.639(4) -0.2850(18) -0.0184(9)
H13 H -0.544909 -0.282358 -0.044419
C28 C -2.001(5) -0.945(2) -0.5507(10)
H14 H -2.144628 -0.956596 -0.566648
C29 C -0.909(4) -0.3516(15) -0.1080(10)
C30 C -1.897(5) -1.2543(15) -0.5196(9)
H15 H -2.027740 -1.287860 -0.520526
C31 C -0.945(5) -0.3473(18) 0.0201(10)
H16 H -1.062020 -0.385907 0.021218
C32 C -0.733(6) -0.2478(17) 0.0598(10)
H17 H -0.706193 -0.215535 0.086456
C33 C -1.585(6) -1.1411(19) -0.3906(12)
C34 C -0.755(5) -0.3659(16) -0.1468(10)
H18 H -0.632361 -0.402331 -0.142361
C35 C -0.523(5) -0.5430(18) 0.0519(11)
H19 H -0.378755 -0.532639 0.067822
C36 C -1.092(5) -0.3025(16) -0.1166(11)
H20 H -1.202083 -0.292657 -0.093933
C37 C -1.751(6) -1.2512(18) -0.5582(11)
H21 H -1.769936 -1.287265 -0.583277
C38 C -1.845(4) -1.2070(19) -0.4801(10)
H22 H -1.929557 -1.215375 -0.453081
C39 C -1.725(5) -1.1283(19) -0.3535(12)
H23 H -1.849611 -1.092447 -0.357862
C40 C -0.874(5) -0.611(2) 0.0454(10)
H24 H -0.980336 -0.645958 0.058259
C41 C -0.591(5) -0.237(2) 0.0198(13)
H25 H -0.471932 -0.199086 0.020025
C42 C -1.640(5) -0.8718(19) -0.5439(12)
H26 H -1.540862 -0.833813 -0.556146
C43 C -0.662(6) -0.599(2) 0.0700(11)
H27 H -0.616711 -0.628446 0.097141
C44 C -1.854(6) -0.8899(19) -0.5669(10)
H28 H -1.899150 -0.862656 -0.594756
C45 C -0.894(6) -0.300(2) 0.0600(11)
H29 H -0.979430 -0.306864 0.087026
N1 N -1.582(4) -0.6796(13) -0.3192(8)
C46 C -1.570(5) -1.1904(19) -0.5578(10)
H30 H -1.487897 -1.181570 -0.585046
C47 C -1.518(5) -1.1453(19) -0.5173(10)
H31 H -1.384015 -1.113366 -0.515023
C48 C -1.406(6) -1.191(2) -0.3819(12)
H32 H -1.311548 -1.201941 -0.407149
C49 C -1.695(7) -1.163(2) -0.3122(14)
H33 H -1.804138 -1.155403 -0.289242
C50 C -1.610(5) -0.5956(17) -0.3058(11)
C51 C -1.195(5) -0.8164(16) -0.2512(10)
H34 H -1.122391 -0.866286 -0.250604
C52 C -1.343(6) -1.230(2) -0.3382(12)
H35 H -1.212493 -1.263611 -0.334330
C53 C -1.109(7) -0.268(2) -0.1605(15)
H36 H -1.235118 -0.233249 -0.166619
C54 C -1.435(5) -0.7155(17) -0.2872(10)
C55 C -0.784(6) -0.328(2) -0.1886(12)
H37 H -0.678254 -0.338974 -0.211959
C56 C -1.342(5) -0.6579(19) -0.2513(11)
C57 C -1.144(5) -0.7611(19) -0.2128(11)
H38 H -1.069136 -0.782289 -0.185439
C58 C -0.952(7) -0.279(3) -0.1980(14)
H39 H -0.969849 -0.251723 -0.226956
C59 C -1.491(7) -1.215(2) -0.3017(12)
H40 H -1.461438 -1.236379 -0.271454
C60 C -1.528(5) -0.5313(16) -0.3440(9)
H41 H -1.362599 -0.538746 -0.349674
H42 H -1.618927 -0.537950 -0.373951
N2 N -1.440(4) -0.5842(14) -0.2593(8)
C61 C -1.568(5) -0.4475(16) -0.3239(10)
H43 H -1.526090 -0.407856 -0.347114
H44 H -1.466356 -0.439846 -0.295400
C62 C -1.884(5) -0.4941(18) -0.2711(13)
H45 H -2.040911 -0.486049 -0.260139
H46 H -1.769807 -0.488017 -0.244325
C63 C -1.832(5) -0.4349(18) -0.3114(12)
H47 H -1.856452 -0.380406 -0.300992
H48 H -1.936799 -0.445020 -0.339195
C64 C -1.861(5) -0.5780(19) -0.2948(11)
H49 H -1.916279 -0.618654 -0.273482
H50 H -1.960010 -0.579815 -0.323992
loop_
_geom_bond_atom_site_label_1
_geom_bond_atom_site_label_2
_geom_bond_site_symmetry_1
_geom_bond_site_symmetry_2
C1 C5 1_555 1_555
C2 C3 1_555 1_555
C3 C12 1_555 1_555
C4 C2 1_555 1_555
C5 C10 1_555 1_555
C6 C2 1_555 1_555
C7 C1 1_555 1_555
C8 H1 1_555 1_555
C9 H2 1_555 1_555
C10 H3 1_555 1_555
C11 C1 1_555 1_555
C12 C9 1_555 1_555
H4 C12 1_555 1_555
C13 C4 1_555 1_555
C14 C10 1_555 1_555
H5 C14 1_555 1_555
C15 C6 1_555 1_555
H6 C15 1_555 1_555
C16 H7 1_555 1_555
C17 C8 1_555 1_555
C18 C17 1_555 1_555
C19 C11 1_555 1_555
C20 C6 1_555 1_555
H8 C20 1_555 1_555
C21 C3 1_555 1_555
H9 C21 1_555 1_555
C22 C7 1_555 1_555
H10 C22 1_555 1_555
C23 C14 1_555 1_555
C24 C5 1_555 1_555
H11 C24 1_555 1_555
C25 C7 1_555 1_555
H12 C25 1_555 1_555
C26 C23 1_555 1_555
C27 C19 1_555 1_555
H13 C27 1_555 1_555
C28 C20 1_555 1_555
H14 C28 1_555 1_555
C29 C11 1_555 1_555
C30 H15 1_555 1_555
C31 C19 1_555 1_555
H16 C31 1_555 1_555
C32 H17 1_555 1_555
C33 C4 1_555 1_555
C34 C29 1_555 1_555
H18 C34 1_555 1_555
C35 C22 1_555 1_555
H19 C35 1_555 1_555
C36 C29 1_555 1_555
H20 C36 1_555 1_555
C37 C30 1_555 1_555
H21 C37 1_555 1_555
C38 C13 1_555 1_555
H22 C38 1_555 1_555
C39 C33 1_555 1_555
H23 C39 1_555 1_555
C40 C25 1_555 1_555
H24 C40 1_555 1_555
C41 C27 1_555 1_555
H25 C41 1_555 1_555
C42 C15 1_555 1_555
H26 C42 1_555 1_555
C43 C35 1_555 1_555
H27 C43 1_555 1_555
C44 C28 1_555 1_555
H28 C44 1_555 1_555
C45 C31 1_555 1_555
H29 C45 1_555 1_555
N1 C50 1_555 1_555
C46 C37 1_555 1_555
H30 C46 1_555 1_555
C47 C13 1_555 1_555
H31 C47 1_555 1_555
C48 C33 1_555 1_555
H32 C48 1_555 1_555
C49 C39 1_555 1_555
H33 C49 1_555 1_555
C50 C60 1_555 1_555
C51 C18 1_555 1_555
H34 C51 1_555 1_555
C52 C48 1_555 1_555
H35 C52 1_555 1_555
C53 C36 1_555 1_555
H36 C53 1_555 1_555
C54 C18 1_555 1_555
C55 C34 1_555 1_555
H37 C55 1_555 1_555
C56 C26 1_555 1_555
C57 C26 1_555 1_555
H38 C57 1_555 1_555
C58 C53 1_555 1_555
H39 C58 1_555 1_555
C59 C49 1_555 1_555
H40 C59 1_555 1_555
C60 H41 1_555 1_555
H42 C60 1_555 1_555
N2 C50 1_555 1_555
C61 C60 1_555 1_555
H43 C61 1_555 1_555
H44 C61 1_555 1_555
C62 H45 1_555 1_555
H46 C62 1_555 1_555
C63 C61 1_555 1_555
H47 C63 1_555 1_555
H48 C63 1_555 1_555
C64 C50 1_555 1_555
H49 C64 1_555 1_555
H50 C64 1_555 1_555
C8 C21 1_555 1_555
C9 C17 1_555 1_555
C16 C23 1_555 1_555
C16 C24 1_555 1_555
C30 C38 1_555 1_555
C32 C41 1_555 1_555
C32 C45 1_555 1_555
C40 C43 1_555 1_555
C42 C44 1_555 1_555
N1 C54 1_555 1_555
C46 C47 1_555 1_555
C51 C57 1_555 1_555
C52 C59 1_555 1_555
C54 C56 1_555 1_555
C55 C58 1_555 1_555
C56 N2 1_555 1_555
C62 C63 1_555 1_555
C62 C64 1_555 1_555

#END
