
#######################################################################
#
#                 Cambridge Crystallographic Data Centre
#                                CCDC 
#
#######################################################################
#
# If this CIF has been generated from an entry in the Cambridge 
# Structural Database, then it will include bibliographic, chemical, 
# crystal, experimental, refinement or atomic coordinate data resulting 
# from the CCDC's data processing and validation procedures.
#
#######################################################################

data_MIPZIX
_chemical_formula_moiety         'C3 H2 N5 O5 1-,H4 N1 1+'
_chemical_name_systematic        
'ammonium dinitro(5-oxo-4,5-dihydro-1H-1,2,4-triazol-3-yl)methanide'
_symmetry_cell_setting           triclinic
_symmetry_space_group_name_H-M   'P -1'
_symmetry_Int_Tables_number      2
_space_group_name_Hall           '-P 1'
loop_
_symmetry_equiv_pos_site_id
_symmetry_equiv_pos_as_xyz
1 x,y,z
2 -x,-y,-z
_cell_length_a                   6.785(2)
_cell_length_b                   7.137(2)
_cell_length_c                   7.965(2)
_cell_angle_alpha                85.052(5)
_cell_angle_beta                 74.005(5)
_cell_angle_gamma                84.941(5)
_cell_volume                     368.551
_exptl_crystal_colour            yellow
_exptl_crystal_description       irregular
_cell_formula_units_Z            2
loop_
_atom_site_label
_atom_site_type_symbol
_atom_site_fract_x
_atom_site_fract_y
_atom_site_fract_z
N1 N 0.6437(4) 0.2529(3) 0.4763(3)
H1 H 0.617(5) 0.329(5) 0.394(4)
C1 C 0.7301(4) 0.0702(4) 0.4634(3)
N2 N 0.7541(4) 0.0002(3) 0.6154(3)
N3 N 0.6813(4) 0.1443(3) 0.7259(3)
H2 H 0.683(4) 0.124(4) 0.848(4)
C2 C 0.6098(4) 0.2996(4) 0.6460(4)
O1 O 0.5297(3) 0.4487(3) 0.7127(3)
C3 C 0.7802(4) -0.0310(4) 0.3039(3)
N4 N 0.7412(4) 0.0546(3) 0.1524(3)
O2 O 0.7515(4) -0.0379(3) 0.0230(3)
O3 O 0.6874(4) 0.2255(3) 0.1476(3)
N5 N 0.8638(4) -0.2190(3) 0.3029(3)
O4 O 0.9267(3) -0.3021(3) 0.1647(3)
O5 O 0.8788(4) -0.2992(3) 0.4439(3)
N6 N 0.1937(5) 1.3582(4) 0.1748(4)
H3 H 0.212(5) 1.314(5) 0.061(5)
H4 H 0.184(5) 1.258(6) 0.249(5)
H5 H 0.099(6) 1.442(5) 0.187(4)
H6 H 0.320(5) 1.419(5) 0.171(4)
loop_
_geom_bond_atom_site_label_1
_geom_bond_atom_site_label_2
_geom_bond_site_symmetry_1
_geom_bond_site_symmetry_2
N1 H1 1_555 1_555
C1 N1 1_555 1_555
N2 C1 1_555 1_555
N3 N2 1_555 1_555
H2 N3 1_555 1_555
C2 N1 1_555 1_555
O1 C2 1_555 1_555
C3 C1 1_555 1_555
N4 C3 1_555 1_555
O2 N4 1_555 1_555
O3 N4 1_555 1_555
N5 C3 1_555 1_555
O4 N5 1_555 1_555
O5 N5 1_555 1_555
N6 H3 1_555 1_555
H4 N6 1_555 1_555
H5 N6 1_555 1_555
H6 N6 1_555 1_555
N3 C2 1_555 1_555

#END
