
#######################################################################
#
#                 Cambridge Crystallographic Data Centre
#                                CCDC 
#
#######################################################################
#
# If this CIF has been generated from an entry in the Cambridge 
# Structural Database, then it will include bibliographic, chemical, 
# crystal, experimental, refinement or atomic coordinate data resulting 
# from the CCDC's data processing and validation procedures.
#
#######################################################################

data_MIQBAS
_chemical_formula_moiety         'C22 H13 N3 O2,C1 H4 O1'
_chemical_name_systematic        
'2,3-diphenyl-6H-pyrrolo[3,4-g]quinoxaline-6,8(7H)-dione methanol solvate'
_symmetry_cell_setting           monoclinic
_symmetry_space_group_name_H-M   'P 21'
_symmetry_Int_Tables_number      4
_space_group_name_Hall           'P 2yb'
loop_
_symmetry_equiv_pos_site_id
_symmetry_equiv_pos_as_xyz
1 x,y,z
2 -x,1/2+y,-z
_cell_length_a                   10.830(8)
_cell_length_b                   7.650(6)
_cell_length_c                   12.063(9)
_cell_angle_alpha                90
_cell_angle_beta                 103.07(3)
_cell_angle_gamma                90
_cell_volume                     973.523
_exptl_crystal_description       block
_cell_formula_units_Z            2
loop_
_atom_site_label
_atom_site_type_symbol
_atom_site_fract_x
_atom_site_fract_y
_atom_site_fract_z
O1 O -0.8734(2) -0.2143(4) -0.9695(2)
H1 H -0.898598 -0.170507 -1.032664
C1 C -0.9390(3) -0.1368(6) -0.8912(3)
H2 H -1.024791 -0.178556 -0.906929
H3 H -0.938991 -0.011942 -0.899249
H4 H -0.897130 -0.167916 -0.814826
N1 N -0.0875(2) -0.5507(3) -0.80641(18)
N2 N -0.1177(2) -0.4471(4) -0.59059(19)
C2 C 0.1881(3) -0.7710(4) -0.6583(3)
H5 H 0.161670 -0.793665 -0.591528
C3 C 0.1229(2) -0.6501(4) -0.7358(2)
C4 C -0.2003(3) -0.4842(4) -0.7919(2)
C5 C 0.2922(3) -0.8578(5) -0.6798(3)
H6 H 0.335033 -0.939122 -0.627741
C6 C 0.0065(3) -0.5628(4) -0.7174(2)
C7 C -0.5610(3) -0.3025(4) -0.7687(3)
C8 C 0.2127(3) -0.4005(5) -0.5238(3)
H7 H 0.223775 -0.378650 -0.596737
C9 C 0.1645(3) -0.6173(4) -0.8361(2)
H8 H 0.121415 -0.537454 -0.889102
C10 C -0.2169(3) -0.4416(4) -0.6811(2)
C11 C -0.3352(3) -0.3825(5) -0.6652(2)
H9 H -0.347324 -0.356898 -0.593057
C12 C -0.3002(3) -0.4635(5) -0.8867(2)
H10 H -0.290723 -0.489642 -0.959601
C13 C 0.2695(3) -0.7040(5) -0.8556(3)
H11 H 0.297531 -0.680851 -0.921531
C14 C -0.0067(3) -0.4975(4) -0.6069(2)
C15 C -0.4292(3) -0.3647(4) -0.7577(2)
C16 C 0.3079(3) -0.3618(6) -0.4307(3)
H12 H 0.383435 -0.313169 -0.440491
C17 C 0.3329(3) -0.8243(5) -0.7785(3)
H13 H 0.402907 -0.882967 -0.792725
C18 C 0.0837(3) -0.5043(5) -0.3994(3)
H14 H 0.007740 -0.550935 -0.389036
C19 C 0.1003(3) -0.4720(4) -0.5088(2)
C20 C 0.2911(4) -0.3952(6) -0.3229(3)
H15 H 0.355752 -0.368961 -0.260144
C21 C 0.1800(4) -0.4670(6) -0.3068(3)
H16 H 0.170076 -0.490087 -0.233660
C22 C -0.5332(3) -0.3671(5) -0.9492(3)
C23 C -0.4123(3) -0.4037(4) -0.8684(2)
O2 O -0.6141(2) -0.2595(4) -0.6946(2)
O3 O -0.5590(2) -0.3886(6) -1.0509(2)
N3 N -0.6147(2) -0.3057(4) -0.8847(2)
H17 H -0.691119 -0.272817 -0.913627
loop_
_geom_bond_atom_site_label_1
_geom_bond_atom_site_label_2
_geom_bond_site_symmetry_1
_geom_bond_site_symmetry_2
O1 H1 1_555 1_555
C1 O1 1_555 1_555
H2 C1 1_555 1_555
H3 C1 1_555 1_555
H4 C1 1_555 1_555
N1 C4 1_555 1_555
N2 C10 1_555 1_555
C2 H5 1_555 1_555
C3 C2 1_555 1_555
C4 C10 1_555 1_555
C5 C2 1_555 1_555
H6 C5 1_555 1_555
C6 N1 1_555 1_555
C7 C15 1_555 1_555
C8 H7 1_555 1_555
C9 C3 1_555 1_555
H8 C9 1_555 1_555
C10 C11 1_555 1_555
C11 H9 1_555 1_555
C12 C4 1_555 1_555
H10 C12 1_555 1_555
C13 C9 1_555 1_555
H11 C13 1_555 1_555
C14 N2 1_555 1_555
C15 C11 1_555 1_555
C16 C8 1_555 1_555
H12 C16 1_555 1_555
C17 C5 1_555 1_555
H13 C17 1_555 1_555
C18 H14 1_555 1_555
C19 C8 1_555 1_555
C20 C16 1_555 1_555
H15 C20 1_555 1_555
C21 C18 1_555 1_555
H16 C21 1_555 1_555
C22 C23 1_555 1_555
C23 C12 1_555 1_555
O2 C7 1_555 1_555
O3 C22 1_555 1_555
N3 C7 1_555 1_555
H17 N3 1_555 1_555
C3 C6 1_555 1_555
C6 C14 1_555 1_555
C13 C17 1_555 1_555
C14 C19 1_555 1_555
C15 C23 1_555 1_555
C18 C19 1_555 1_555
C20 C21 1_555 1_555
C22 N3 1_555 1_555

#END
