
#######################################################################
#
#                 Cambridge Crystallographic Data Centre
#                                CCDC 
#
#######################################################################
#
# If this CIF has been generated from an entry in the Cambridge 
# Structural Database, then it will include bibliographic, chemical, 
# crystal, experimental, refinement or atomic coordinate data resulting 
# from the CCDC's data processing and validation procedures.
#
#######################################################################

data_MIQFAW
_chemical_formula_moiety         'C17 H18 O3'
_chemical_name_systematic        
"(2'-methoxy-3-methylbiphenyl-2-yl)methyl acetate"
_symmetry_cell_setting           monoclinic
_symmetry_space_group_name_H-M   'P 21/c'
_symmetry_Int_Tables_number      14
_space_group_name_Hall           '-P 2ybc'
loop_
_symmetry_equiv_pos_site_id
_symmetry_equiv_pos_as_xyz
1 x,y,z
2 -x,1/2+y,1/2-z
3 -x,-y,-z
4 x,1/2-y,1/2+z
_cell_length_a                   7.5923(4)
_cell_length_b                   22.4597(11)
_cell_length_c                   8.4023(4)
_cell_angle_alpha                90
_cell_angle_beta                 94.659(2)
_cell_angle_gamma                90
_cell_volume                     1428.03
_exptl_crystal_colour            colorless
_exptl_crystal_description       prismatic
_cell_formula_units_Z            4
loop_
_atom_site_label
_atom_site_type_symbol
_atom_site_fract_x
_atom_site_fract_y
_atom_site_fract_z
O1 O 0.63673(14) 0.55144(4) 0.40535(14)
O2 O 0.64162(13) 0.57085(5) 0.76506(13)
O3 O 0.93293(15) 0.55766(6) 0.80139(16)
C1 C 0.69429(19) 0.59861(6) 0.32245(17)
C2 C 0.8237(2) 0.59496(8) 0.21471(19)
H1 H 0.8784 0.5587 0.1977
C3 C 0.8709(2) 0.64502(9) 0.1330(2)
H2 H 0.9578 0.6424 0.0615
C4 C 0.7906(2) 0.69871(8) 0.15651(19)
H3 H 0.8225 0.7323 0.1010
C5 C 0.6614(2) 0.70237(7) 0.26380(18)
H4 H 0.6068 0.7388 0.2788
C6 C 0.61173(19) 0.65325(6) 0.34923(16)
C7 C 0.46694(19) 0.65919(6) 0.45826(16)
C8 C 0.3013(2) 0.67698(7) 0.39139(19)
H5 H 0.2840 0.6831 0.2818
C9 C 0.1631(2) 0.68556(8) 0.4850(2)
H6 H 0.0527 0.6966 0.4384
C10 C 0.1883(2) 0.67774(7) 0.6474(2)
H7 H 0.0945 0.6842 0.7100
C11 C 0.35080(19) 0.66047(6) 0.71974(17)
C12 C 0.49141(18) 0.65022(6) 0.62433(16)
C13 C 0.66682(19) 0.63000(6) 0.70101(17)
H8 H 0.7539 0.6289 0.6228
H9 H 0.7079 0.6571 0.7859
C14 C 0.7858(2) 0.53943(7) 0.80969(17)
C15 C 0.7393(3) 0.47956(8) 0.8708(2)
H10 H 0.7318 0.4515 0.7844
H11 H 0.6275 0.4817 0.9162
H12 H 0.8288 0.4670 0.9511
C16 C 0.3709(2) 0.65403(9) 0.89880(19)
H13 H 0.4585 0.6816 0.9428
H14 H 0.4071 0.6141 0.9263
H15 H 0.2600 0.6623 0.9415
C17 C 0.7258(2) 0.49575(7) 0.3958(2)
H16 H 0.7130 0.4815 0.2877
H17 H 0.6753 0.4674 0.4645
H18 H 0.8489 0.5009 0.4287
loop_
_geom_bond_atom_site_label_1
_geom_bond_atom_site_label_2
_geom_bond_site_symmetry_1
_geom_bond_site_symmetry_2
O1 C1 1_555 1_555
O2 C13 1_555 1_555
O3 C14 1_555 1_555
C1 C2 1_555 1_555
C2 H1 1_555 1_555
C3 C2 1_555 1_555
H2 C3 1_555 1_555
C4 C3 1_555 1_555
H3 C4 1_555 1_555
C5 C4 1_555 1_555
H4 C5 1_555 1_555
C6 C1 1_555 1_555
C7 C6 1_555 1_555
C8 C7 1_555 1_555
H5 C8 1_555 1_555
C9 C8 1_555 1_555
H6 C9 1_555 1_555
C10 C9 1_555 1_555
H7 C10 1_555 1_555
C11 C10 1_555 1_555
C12 C7 1_555 1_555
C13 C12 1_555 1_555
H8 C13 1_555 1_555
H9 C13 1_555 1_555
C14 O2 1_555 1_555
C15 C14 1_555 1_555
H10 C15 1_555 1_555
H11 C15 1_555 1_555
H12 C15 1_555 1_555
C16 C11 1_555 1_555
H13 C16 1_555 1_555
H14 C16 1_555 1_555
H15 C16 1_555 1_555
C17 O1 1_555 1_555
H16 C17 1_555 1_555
H17 C17 1_555 1_555
H18 C17 1_555 1_555
C5 C6 1_555 1_555
C11 C12 1_555 1_555

#END
