
#######################################################################
#
#                 Cambridge Crystallographic Data Centre
#                                CCDC 
#
#######################################################################
#
# If this CIF has been generated from an entry in the Cambridge 
# Structural Database, then it will include bibliographic, chemical, 
# crystal, experimental, refinement or atomic coordinate data resulting 
# from the CCDC's data processing and validation procedures.
#
#######################################################################

data_MIQHUS
_chemical_formula_moiety         'C27 H47 N1 O5 Si1'
_chemical_name_systematic        
't-butyl 7-((t-butyl(dimethyl)silyl)oxy)-13-hydroxy-8-oxodecahydro-1H,8H-7a,11-methanoindeno[1,7a-e]azonine-4(5H)-carboxylate'
_symmetry_cell_setting           monoclinic
_symmetry_space_group_name_H-M   'P 21/c'
_symmetry_Int_Tables_number      14
_space_group_name_Hall           '-P 2ybc'
loop_
_symmetry_equiv_pos_site_id
_symmetry_equiv_pos_as_xyz
1 x,y,z
2 -x,1/2+y,1/2-z
3 -x,-y,-z
4 x,1/2-y,1/2+z
_cell_length_a                   9.5274(4)
_cell_length_b                   13.5631(5)
_cell_length_c                   21.7771(9)
_cell_angle_alpha                90
_cell_angle_beta                 97.4170(10)
_cell_angle_gamma                90
_cell_volume                     2790.51
_exptl_crystal_colour            colorless
_exptl_crystal_description       prism
_cell_formula_units_Z            4
loop_
_atom_site_label
_atom_site_type_symbol
_atom_site_fract_x
_atom_site_fract_y
_atom_site_fract_z
C1 C 0.4558(2) 0.3212(2) 0.89557(11)
H1 H 0.4193 0.3697 0.8642
H2 H 0.4303 0.3411 0.9359
H3 H 0.4147 0.2564 0.8844
C2 C 0.7172(3) 0.21499(19) 0.95550(11)
H4 H 0.6848 0.1508 0.9385
H5 H 0.6800 0.2259 0.9949
H6 H 0.8209 0.2161 0.9624
C3 C 0.7334(2) 0.43728(16) 0.92296(10)
C4 C 0.8916(2) 0.4383(2) 0.91775(13)
H7 H 0.9064 0.4235 0.8750
H8 H 0.9394 0.3884 0.9456
H9 H 0.9305 0.5035 0.9294
C5 C 0.7138(3) 0.4599(2) 0.99028(12)
H10 H 0.7536 0.5250 1.0017
H11 H 0.7627 0.4098 1.0175
H12 H 0.6127 0.4595 0.9946
C6 C 0.6612(3) 0.51775(18) 0.88052(13)
H13 H 0.6700 0.5017 0.8373
H14 H 0.7067 0.5814 0.8912
H15 H 0.5608 0.5216 0.8859
C7 C 0.65977(18) 0.20520(13) 0.79394(8)
H16 H 0.6444 0.1521 0.8242
C8 C 0.51327(19) 0.22038(14) 0.75443(9)
H17 H 0.5146 0.1840 0.7151
H18 H 0.4411 0.1885 0.7767
C9 C 0.4622(2) 0.32586(14) 0.73801(9)
H19 H 0.3652 0.3334 0.7490
H20 H 0.5239 0.3726 0.7639
C10 C 0.3428(2) 0.33209(14) 0.63458(9)
C11 C 0.2188(2) 0.36469(15) 0.53104(10)
C12 C 0.0913(2) 0.41145(19) 0.55431(11)
H21 H 0.0119 0.4126 0.5209
H22 H 0.1146 0.4790 0.5680
H23 H 0.0648 0.3730 0.5891
C13 C 0.1918(3) 0.25786(18) 0.51305(12)
H24 H 0.1256 0.2546 0.4747
H25 H 0.1510 0.2236 0.5462
H26 H 0.2812 0.2263 0.5066
C14 C 0.2649(3) 0.42289(19) 0.47770(11)
H27 H 0.3507 0.3933 0.4653
H28 H 0.2845 0.4912 0.4908
H29 H 0.1893 0.4218 0.4426
C15 C 0.5693(2) 0.42220(15) 0.65631(11)
H30 H 0.5459 0.4900 0.6684
H31 H 0.5703 0.4212 0.6109
C16 C 0.71445(19) 0.39395(14) 0.68859(10)
H32 H 0.7121 0.3944 0.7339
H33 H 0.7840 0.4442 0.6791
C17 C 0.76406(19) 0.29246(13) 0.66949(9)
H34 H 0.8118 0.3005 0.6320
H35 H 0.6796 0.2506 0.6580
C18 C 0.86576(18) 0.23752(13) 0.71910(8)
C19 C 0.96990(19) 0.31031(13) 0.75501(9)
H36 H 0.9129 0.3557 0.7782
C20 C 1.0757(2) 0.25767(15) 0.80308(10)
H37 H 1.1735 0.2728 0.7953
H38 H 1.0640 0.2815 0.8451
C21 C 1.0513(2) 0.14702(15) 0.79934(9)
H39 H 1.1216 0.1126 0.8301
C22 C 1.0685(2) 0.11296(15) 0.73395(10)
H40 H 1.0665 0.0400 0.7321
H41 H 1.1609 0.1355 0.7230
C23 C 0.9475(2) 0.15552(14) 0.68731(9)
H42 H 0.9853 0.1822 0.6499
C24 C 0.8331(2) 0.07826(15) 0.66891(10)
H43 H 0.7775 0.0950 0.6287
H44 H 0.8754 0.0120 0.6659
C25 C 0.78717(19) 0.17024(13) 0.76241(8)
C26 C 0.7422(2) 0.08191(13) 0.72029(9)
C27 C 0.9015(2) 0.12646(14) 0.81358(9)
H45 H 0.8892 0.1557 0.8542
H46 H 0.8875 0.0544 0.8164
N1 N 0.46092(16) 0.35356(12) 0.67285(7)
O1 O 0.70103(12) 0.29052(9) 0.83108(6)
O2 O 0.24669(14) 0.28047(10) 0.64919(6)
O3 O 0.34261(14) 0.37320(11) 0.57828(6)
O4 O 1.03821(14) 0.36955(10) 0.71350(7)
H47 H 1.100(3) 0.3337(11) 0.6969(10)
O5 O 0.64970(16) 0.02408(10) 0.72812(7)
Si1 Si 0.65224(6) 0.31419(4) 0.89986(2)
loop_
_geom_bond_atom_site_label_1
_geom_bond_atom_site_label_2
_geom_bond_site_symmetry_1
_geom_bond_site_symmetry_2
C1 H1 1_555 1_555
H2 C1 1_555 1_555
H3 C1 1_555 1_555
C2 H4 1_555 1_555
H5 C2 1_555 1_555
H6 C2 1_555 1_555
C3 C4 1_555 1_555
C4 H7 1_555 1_555
H8 C4 1_555 1_555
H9 C4 1_555 1_555
C5 C3 1_555 1_555
H10 C5 1_555 1_555
H11 C5 1_555 1_555
H12 C5 1_555 1_555
C6 C3 1_555 1_555
H13 C6 1_555 1_555
H14 C6 1_555 1_555
H15 C6 1_555 1_555
C7 H16 1_555 1_555
C8 C7 1_555 1_555
H17 C8 1_555 1_555
H18 C8 1_555 1_555
C9 C8 1_555 1_555
H19 C9 1_555 1_555
H20 C9 1_555 1_555
C10 N1 1_555 1_555
C11 C12 1_555 1_555
C12 H21 1_555 1_555
H22 C12 1_555 1_555
H23 C12 1_555 1_555
C13 C11 1_555 1_555
H24 C13 1_555 1_555
H25 C13 1_555 1_555
H26 C13 1_555 1_555
C14 C11 1_555 1_555
H27 C14 1_555 1_555
H28 C14 1_555 1_555
H29 C14 1_555 1_555
C15 H30 1_555 1_555
H31 C15 1_555 1_555
C16 C15 1_555 1_555
H32 C16 1_555 1_555
H33 C16 1_555 1_555
C17 C16 1_555 1_555
H34 C17 1_555 1_555
H35 C17 1_555 1_555
C18 C17 1_555 1_555
C19 C18 1_555 1_555
H36 C19 1_555 1_555
C20 C19 1_555 1_555
H37 C20 1_555 1_555
H38 C20 1_555 1_555
C21 C20 1_555 1_555
H39 C21 1_555 1_555
C22 C21 1_555 1_555
H40 C22 1_555 1_555
H41 C22 1_555 1_555
C23 C18 1_555 1_555
H42 C23 1_555 1_555
C24 C23 1_555 1_555
H43 C24 1_555 1_555
H44 C24 1_555 1_555
C25 C7 1_555 1_555
C26 C24 1_555 1_555
C27 C21 1_555 1_555
H45 C27 1_555 1_555
H46 C27 1_555 1_555
N1 C9 1_555 1_555
O1 C7 1_555 1_555
O2 C10 1_555 1_555
O3 C10 1_555 1_555
O4 C19 1_555 1_555
H47 O4 1_555 1_555
O5 C26 1_555 1_555
Si1 C1 1_555 1_555
C2 Si1 1_555 1_555
C3 Si1 1_555 1_555
C11 O3 1_555 1_555
C15 N1 1_555 1_555
C18 C25 1_555 1_555
C22 C23 1_555 1_555
C25 C26 1_555 1_555
C25 C27 1_555 1_555
O1 Si1 1_555 1_555

#END
