
#######################################################################
#
#                 Cambridge Crystallographic Data Centre
#                                CCDC 
#
#######################################################################
#
# If this CIF has been generated from an entry in the Cambridge 
# Structural Database, then it will include bibliographic, chemical, 
# crystal, experimental, refinement or atomic coordinate data resulting 
# from the CCDC's data processing and validation procedures.
#
#######################################################################

data_MIQKEE02
_chemical_name_common            '2,3,5-trichlorosalicylic acid'
_chemical_formula_moiety         'C7 H3 Cl3 O3'
_chemical_name_systematic        '2,3,5-Trichloro-6-hydroxybenzoic acid'
_symmetry_cell_setting           monoclinic
_symmetry_space_group_name_H-M   'P 21/c'
_symmetry_Int_Tables_number      14
_space_group_name_Hall           '-P 2ybc'
loop_
_symmetry_equiv_pos_site_id
_symmetry_equiv_pos_as_xyz
1 x,y,z
2 -x,1/2+y,1/2-z
3 -x,-y,-z
4 x,1/2-y,1/2+z
_cell_length_a                   4.9531(14)
_cell_length_b                   24.020(6)
_cell_length_c                   8.007(3)
_cell_angle_alpha                90
_cell_angle_beta                 118.88(2)
_cell_angle_gamma                90
_cell_volume                     834.146
_exptl_crystal_colour            colorless
_exptl_crystal_description       plate
_cell_formula_units_Z            4
loop_
_atom_site_label
_atom_site_type_symbol
_atom_site_fract_x
_atom_site_fract_y
_atom_site_fract_z
Cl1 Cl 0.33056(14) -0.16431(3) -0.28796(10)
Cl2 Cl 1.67156(14) -0.10400(3) 0.32792(9)
Cl3 Cl 0.69502(16) -0.23939(3) 0.06467(10)
O1 O 0.3808(4) -0.05513(8) -0.3912(3)
H1 H 0.3208 -0.0334 -0.4860
O2 O 0.8313(4) -0.01544(8) -0.3165(3)
O3 O 1.3017(4) -0.03746(8) 0.0007(3)
H2 H 1.1977 -0.0250 -0.0971
C1 C 0.8341(5) -0.09385(10) -0.1350(3)
C2 C 0.6953(5) -0.14378(10) -0.1192(4)
C3 C 0.8580(6) -0.17924(10) 0.0340(4)
C4 C 1.1582(6) -0.16703(10) 0.1731(4)
H3 H 1.2642 -0.1911 0.2753
C5 C 1.2966(6) -0.11904(11) 0.1582(4)
C6 C 1.1426(6) -0.08242(10) 0.0042(4)
C7 C 0.6803(6) -0.05190(10) -0.2896(4)
loop_
_geom_bond_atom_site_label_1
_geom_bond_atom_site_label_2
_geom_bond_site_symmetry_1
_geom_bond_site_symmetry_2
Cl1 C2 1_555 1_555
Cl2 C5 1_555 1_555
Cl3 C3 1_555 1_555
O1 H1 1_555 1_555
O2 C7 1_555 1_555
O3 H2 1_555 1_555
C1 C2 1_555 1_555
C2 C3 1_555 1_555
C3 C4 1_555 1_555
C4 H3 1_555 1_555
C5 C4 1_555 1_555
C6 O3 1_555 1_555
C7 O1 1_555 1_555
C1 C6 1_555 1_555
C1 C7 1_555 1_555
C5 C6 1_555 1_555

#END
