
#######################################################################
#
#                 Cambridge Crystallographic Data Centre
#                                CCDC 
#
#######################################################################
#
# If this CIF has been generated from an entry in the Cambridge 
# Structural Database, then it will include bibliographic, chemical, 
# crystal, experimental, refinement or atomic coordinate data resulting 
# from the CCDC's data processing and validation procedures.
#
#######################################################################

data_MIQMUV
_chemical_formula_moiety         'C22 H15 N5'
_chemical_name_systematic        
(4-(3,3-Dicyano-1-(4-(dimethylamino)phenyl)prop-2-en-1-ylidene)cyclohexa-2,5-dien-1-ylidene)malononitrile
_symmetry_cell_setting           triclinic
_symmetry_space_group_name_H-M   'P -1'
_symmetry_Int_Tables_number      2
_space_group_name_Hall           '-P 1'
loop_
_symmetry_equiv_pos_site_id
_symmetry_equiv_pos_as_xyz
1 x,y,z
2 -x,-y,-z
_cell_length_a                   8.8680(13)
_cell_length_b                   9.2552(14)
_cell_length_c                   11.7022(14)
_cell_angle_alpha                101.406(2)
_cell_angle_beta                 93.315(12)
_cell_angle_gamma                94.983(2)
_cell_volume                     935.162
_exptl_crystal_colour            black
_chemical_melting_point          211deg.C
_cell_formula_units_Z            2
loop_
_atom_site_label
_atom_site_type_symbol
_atom_site_fract_x
_atom_site_fract_y
_atom_site_fract_z
N1 N 1.17695(17) -0.2377(2) 0.25841(15)
N2 N 0.83857(15) -0.12378(17) 0.50771(13)
N3 N 0.65950(14) 0.45958(13) 0.60782(10)
N4 N -0.06010(16) -0.18005(16) -0.08226(14)
N5 N 0.19906(17) -0.54665(14) -0.21706(14)
C1 C 0.69385(15) -0.02242(14) 0.23212(11)
C2 C 0.84043(15) -0.08326(14) 0.21641(12)
H1 H 0.8770 -0.0954 0.1416
C3 C 0.92582(15) -0.12272(15) 0.30128(12)
C4 C 1.06633(17) -0.18562(18) 0.27801(14)
C5 C 0.87627(15) -0.12065(16) 0.41656(13)
C6 C 0.68424(14) 0.09805(14) 0.33023(11)
C7 C 0.55193(14) 0.11606(14) 0.39132(11)
H2 H 0.4665 0.0466 0.3680
C8 C 0.54431(15) 0.23160(15) 0.48349(12)
H3 H 0.4553 0.2380 0.5233
C9 C 0.66826(15) 0.34168(14) 0.51986(11)
C10 C 0.80185(15) 0.32298(15) 0.46019(12)
H4 H 0.8867 0.3934 0.4824
C11 C 0.80981(15) 0.20443(15) 0.37075(12)
H5 H 0.9016 0.1934 0.3352
C12 C 0.7901(2) 0.56715(18) 0.64941(16)
H6 H 0.8702 0.5189 0.6821
H7 H 0.7610 0.6461 0.7091
H8 H 0.8263 0.6082 0.5847
C13 C 0.5297(2) 0.46782(19) 0.67830(15)
H9 H 0.4367 0.4475 0.6275
H10 H 0.5334 0.5662 0.7268
H11 H 0.5323 0.3952 0.7277
C14 C 0.57160(15) -0.08518(14) 0.15108(11)
C15 C 0.43557(15) -0.01489(14) 0.13960(11)
H12 H 0.4295 0.0799 0.1852
C16 C 0.31556(15) -0.08027(14) 0.06532(11)
H13 H 0.2284 -0.0302 0.0604
C17 C 0.31914(15) -0.22447(13) -0.00589(11)
C18 C 0.45716(15) -0.29256(14) -0.00006(12)
H14 H 0.4648 -0.3852 -0.0485
C19 C 0.57723(16) -0.22588(14) 0.07406(12)
H15 H 0.6669 -0.2730 0.0751
C20 C 0.19269(15) -0.29457(14) -0.07890(12)
C21 C 0.05278(16) -0.23121(15) -0.08051(12)
C22 C 0.19611(16) -0.43492(15) -0.15518(13)
loop_
_geom_bond_atom_site_label_1
_geom_bond_atom_site_label_2
_geom_bond_site_symmetry_1
_geom_bond_site_symmetry_2
N1 C4 1_555 1_555
N2 C5 1_555 1_555
N3 C9 1_555 1_555
N4 C21 1_555 1_555
N5 C22 1_555 1_555
C1 C2 1_555 1_555
C2 H1 1_555 1_555
C3 C2 1_555 1_555
C4 C3 1_555 1_555
C5 C3 1_555 1_555
C6 C1 1_555 1_555
C7 C6 1_555 1_555
H2 C7 1_555 1_555
C8 C7 1_555 1_555
H3 C8 1_555 1_555
C9 C8 1_555 1_555
C10 C9 1_555 1_555
H4 C10 1_555 1_555
C11 C6 1_555 1_555
H5 C11 1_555 1_555
C12 N3 1_555 1_555
H6 C12 1_555 1_555
H7 C12 1_555 1_555
H8 C12 1_555 1_555
C13 N3 1_555 1_555
H9 C13 1_555 1_555
H10 C13 1_555 1_555
H11 C13 1_555 1_555
C14 C1 1_555 1_555
C15 C14 1_555 1_555
H12 C15 1_555 1_555
C16 C15 1_555 1_555
H13 C16 1_555 1_555
C17 C16 1_555 1_555
C18 C17 1_555 1_555
H14 C18 1_555 1_555
C19 C14 1_555 1_555
H15 C19 1_555 1_555
C20 C17 1_555 1_555
C21 C20 1_555 1_555
C22 C20 1_555 1_555
C10 C11 1_555 1_555
C18 C19 1_555 1_555

#END
