
#######################################################################
#
#                 Cambridge Crystallographic Data Centre
#                                CCDC 
#
#######################################################################
#
# If this CIF has been generated from an entry in the Cambridge 
# Structural Database, then it will include bibliographic, chemical, 
# crystal, experimental, refinement or atomic coordinate data resulting 
# from the CCDC's data processing and validation procedures.
#
#######################################################################

data_MIQNAC
_chemical_formula_moiety         'C28 H19 N5,0.5(C2 H2 Cl4)'
_chemical_name_systematic        
'(4-(3,3-Dicyano-1-(4-(dimethylamino)phenyl)-2-phenylprop-2-en-1-ylidene)cyclohexa-2,5-dien-1-ylidene)malononitrile 1,1,2,2-tetrachloroethane solvate'
_symmetry_cell_setting           triclinic
_symmetry_space_group_name_H-M   'P -1'
_symmetry_Int_Tables_number      2
_space_group_name_Hall           '-P 1'
loop_
_symmetry_equiv_pos_site_id
_symmetry_equiv_pos_as_xyz
1 x,y,z
2 -x,-y,-z
_cell_length_a                   11.1429(14)
_cell_length_b                   16.3191(15)
_cell_length_c                   22.2110(17)
_cell_angle_alpha                82.970(11)
_cell_angle_beta                 85.747(12)
_cell_angle_gamma                81.416(11)
_cell_volume                     3957.19
_exptl_crystal_colour            black
_cell_formula_units_Z            6
loop_
_atom_site_label
_atom_site_type_symbol
_atom_site_fract_x
_atom_site_fract_y
_atom_site_fract_z
N1 N 0.2262(6) 0.1155(4) 0.0891(3)
N2 N 0.5172(7) 0.1245(6) -0.0461(3)
N3 N 0.6164(5) -0.2177(3) 0.3330(2)
N4 N 0.1111(6) 0.3599(4) 0.3651(3)
N5 N 0.2034(6) 0.5117(4) 0.1951(3)
C1 C 0.3296(7) 0.1107(4) 0.0819(3)
C2 C 0.4591(6) 0.1005(4) 0.0687(3)
C3 C 0.4962(7) 0.1137(5) 0.0052(3)
C4 C 0.5386(6) 0.0803(3) 0.1135(3)
C5 C 0.4942(5) 0.0805(3) 0.1774(2)
C6 C 0.5279(5) 0.0049(3) 0.2172(3)
C7 C 0.5605(5) 0.0056(4) 0.2770(3)
H1 H 0.5620 0.0576 0.2919
C8 C 0.5905(5) -0.0674(4) 0.3150(3)
H2 H 0.6143 -0.0648 0.3548
C9 C 0.5862(5) -0.1450(4) 0.2952(3)
C10 C 0.6176(7) -0.2974(4) 0.3122(3)
H3 H 0.5385 -0.3003 0.2967
H4 H 0.6341 -0.3414 0.3459
H5 H 0.6812 -0.3051 0.2796
C11 C 0.6474(7) -0.2137(5) 0.3949(3)
H6 H 0.7198 -0.1860 0.3942
H7 H 0.6639 -0.2703 0.4159
H8 H 0.5794 -0.1820 0.4165
C12 C 0.5553(5) -0.1471(4) 0.2349(3)
H9 H 0.5533 -0.1991 0.2201
C13 C 0.5284(5) -0.0741(4) 0.1977(3)
H10 H 0.5092 -0.0769 0.1571
C14 C 0.4258(5) 0.1528(3) 0.1973(3)
C15 C 0.3585(5) 0.1507(4) 0.2555(2)
H11 H 0.3603 0.0993 0.2809
C16 C 0.2939(5) 0.2195(4) 0.2744(3)
H12 H 0.2504 0.2155 0.3128
C17 C 0.2879(5) 0.2983(4) 0.2390(3)
C18 C 0.2209(6) 0.3704(4) 0.2605(3)
C19 C 0.1597(6) 0.3660(4) 0.3180(3)
C20 C 0.2107(6) 0.4480(4) 0.2245(4)
C21 C 0.3524(5) 0.3015(4) 0.1812(3)
H13 H 0.3497 0.3533 0.1563
C22 C 0.4177(5) 0.2321(4) 0.1610(3)
H14 H 0.4589 0.2362 0.1220
C23 C 0.6706(6) 0.0556(3) 0.1006(3)
C24 C 0.7538(6) 0.0789(4) 0.1376(3)
H15 H 0.7257 0.1118 0.1696
C25 C 0.8768(6) 0.0537(4) 0.1271(3)
H16 H 0.9336 0.0699 0.1516
C26 C 0.9174(7) 0.0050(5) 0.0809(3)
H17 H 1.0020 -0.0123 0.0741
C27 C 0.8376(8) -0.0182(5) 0.0452(4)
H18 H 0.8670 -0.0515 0.0136
C28 C 0.7145(7) 0.0058(4) 0.0543(3)
H19 H 0.6594 -0.0112 0.0293
N6 N 0.4213(7) 0.3688(5) 0.8298(3)
N7 N 0.3325(8) 0.3022(5) 1.0156(3)
N8 N 0.0562(5) 0.7050(3) 0.7564(2)
N9 N -0.0113(6) 0.1347(4) 0.5721(3)
N10 N 0.1359(6) -0.0504(4) 0.7180(3)
C29 C 0.3432(7) 0.3543(5) 0.8645(3)
C30 C 0.2511(6) 0.3322(4) 0.9085(3)
C31 C 0.2929(8) 0.3143(5) 0.9690(4)
C32 C 0.1373(6) 0.3294(4) 0.8917(3)
C33 C 0.1116(6) 0.3584(4) 0.8259(3)
C34 C 0.1054(5) 0.4456(4) 0.8080(3)
C35 C 0.1352(5) 0.4803(4) 0.7476(3)
H20 H 0.1650 0.4437 0.7180
C36 C 0.1225(6) 0.5647(4) 0.7307(3)
H21 H 0.1444 0.5854 0.6902
C37 C 0.0769(6) 0.6214(4) 0.7734(3)
C38 C 0.0080(7) 0.7627(4) 0.8004(4)
H22 H 0.0695 0.7638 0.8295
H23 H -0.0649 0.7444 0.8221
H24 H -0.0129 0.8187 0.7792
C39 C 0.0899(7) 0.7420(4) 0.6948(3)
H25 H 0.0208 0.7468 0.6691
H26 H 0.1592 0.7062 0.6775
H27 H 0.1121 0.7974 0.6967
C40 C 0.0545(6) 0.5879(4) 0.8339(3)
H28 H 0.0283 0.6248 0.8637
C41 C 0.0691(6) 0.5049(4) 0.8508(3)
H29 H 0.0550 0.4852 0.8924
C42 C 0.0985(5) 0.2965(4) 0.7894(3)
C43 C 0.0485(5) 0.3140(3) 0.7306(3)
H30 H 0.0194 0.3702 0.7163
C44 C 0.0412(5) 0.2538(4) 0.6951(3)
H31 H 0.0085 0.2687 0.6563
C45 C 0.0818(5) 0.1675(4) 0.7145(3)
C46 C 0.0747(5) 0.1041(4) 0.6787(3)
C47 C 0.0280(6) 0.1205(4) 0.6197(3)
C48 C 0.1094(6) 0.0186(4) 0.6995(3)
C49 C 0.1271(5) 0.1496(4) 0.7746(3)
H32 H 0.1530 0.0932 0.7898
C50 C 0.1338(6) 0.2098(4) 0.8098(3)
H33 H 0.1628 0.1947 0.8493
C51 C 0.0358(7) 0.3011(4) 0.9315(3)
C52 C -0.0823(7) 0.3255(4) 0.9163(3)
H34 H -0.0981 0.3615 0.8800
C53 C -0.1776(8) 0.2996(6) 0.9519(4)
H35 H -0.2585 0.3183 0.9405
C54 C -0.1562(9) 0.2455(6) 1.0051(4)
H36 H -0.2218 0.2266 1.0300
C55 C -0.0385(9) 0.2204(5) 1.0204(4)
H37 H -0.0228 0.1837 1.0564
C56 C 0.0559(8) 0.2466(4) 0.9852(3)
H38 H 0.1367 0.2281 0.9970
N11 N 0.4330(6) 0.4057(4) 0.5407(3)
N12 N 0.7387(6) 0.3962(4) 0.4127(3)
N13 N 0.7832(5) 0.1088(3) 0.7948(3)
N14 N 0.3118(7) 0.7227(5) 0.8042(4)
N15 N 0.4164(8) 0.8430(5) 0.6272(4)
C57 C 0.5361(6) 0.4028(4) 0.5353(3)
C58 C 0.6665(5) 0.3996(4) 0.5253(3)
C59 C 0.7096(6) 0.3974(4) 0.4624(3)
C60 C 0.7381(5) 0.3997(3) 0.5716(3)
C61 C 0.6835(5) 0.4049(3) 0.6347(3)
C62 C 0.7103(5) 0.3295(3) 0.6762(3)
C63 C 0.7216(5) 0.3310(4) 0.7392(3)
H39 H 0.7121 0.3832 0.7551
C64 C 0.7456(6) 0.2594(4) 0.7777(3)
H40 H 0.7526 0.2629 0.8197
C65 C 0.7602(5) 0.1804(4) 0.7566(3)
C66 C 0.7985(7) 0.0283(4) 0.7730(4)
H41 H 0.8659 0.0246 0.7421
H42 H 0.7236 0.0206 0.7552
H43 H 0.8164 -0.0153 0.8069
C67 C 0.7898(8) 0.1127(5) 0.8593(3)
H44 H 0.7130 0.1416 0.8754
H45 H 0.8565 0.1430 0.8658
H46 H 0.8046 0.0560 0.8802
C68 C 0.7515(6) 0.1788(4) 0.6940(3)
H47 H 0.7613 0.1266 0.6782
C69 C 0.7290(5) 0.2507(4) 0.6553(3)
H48 H 0.7261 0.2471 0.6131
C70 C 0.6133(5) 0.4792(4) 0.6497(3)
C71 C 0.5384(5) 0.4840(4) 0.7057(3)
H49 H 0.5322 0.4345 0.7324
C72 C 0.4776(6) 0.5568(4) 0.7208(3)
H50 H 0.4302 0.5575 0.7581
C73 C 0.4824(6) 0.6329(4) 0.6824(3)
C74 C 0.4226(6) 0.7093(4) 0.6987(4)
C75 C 0.3608(7) 0.7158(5) 0.7580(4)
C76 C 0.4193(7) 0.7827(5) 0.6590(4)
C77 C 0.5504(6) 0.6291(4) 0.6258(3)
H51 H 0.5522 0.6785 0.5984
C78 C 0.6136(5) 0.5550(4) 0.6100(3)
H52 H 0.6584 0.5542 0.5719
C79 C 0.8711(5) 0.3959(4) 0.5632(3)
C80 C 0.9276(6) 0.4493(4) 0.5924(3)
H53 H 0.8808 0.4836 0.6197
C81 C 1.0498(6) 0.4531(4) 0.5824(3)
H54 H 1.0864 0.4919 0.6008
C82 C 1.1194(6) 0.3997(5) 0.5451(3)
H55 H 1.2042 0.4015 0.5385
C83 C 1.0662(6) 0.3439(5) 0.5177(3)
H56 H 1.1151 0.3068 0.4930
C84 C 0.9416(6) 0.3413(4) 0.5256(3)
H57 H 0.9049 0.3034 0.5062
Cl1 Cl 0.7137(4) 1.0030(2) 0.45745(14)
Cl2 Cl 0.7036(4) 0.8526(2) 0.54496(15)
Cl3 Cl 0.6636(3) 1.0267(2) 0.60094(16)
Cl4 Cl 0.8968(3) 0.9244(2) 0.61920(14)
C85 C 0.8032(11) 0.9824(8) 0.5710(8)
H58 H 0.8466 1.0293 0.5518
C86 C 0.7855(12) 0.9342(8) 0.5221(6)
H59 H 0.8680 0.9092 0.5070
Cl5 Cl 0.6096(7) 0.4914(4) 0.9188(3)
Cl6 Cl 0.3537(8) 0.5475(5) 0.9426(3)
C87 C 0.511(2) 0.5155(14) 0.9725(7)
H60 H 0.5322 0.5710 0.9794
Cl5A Cl 0.3904(7) 0.5086(4) 1.0812(3)
Cl6A Cl 0.6463(8) 0.4525(5) 1.0574(3)
C87A C 0.489(2) 0.4845(14) 1.0275(7)
H60A H 0.4678 0.4290 1.0206
loop_
_geom_bond_atom_site_label_1
_geom_bond_atom_site_label_2
_geom_bond_site_symmetry_1
_geom_bond_site_symmetry_2
N1 C1 1_555 1_555
N2 C3 1_555 1_555
N3 C9 1_555 1_555
N4 C19 1_555 1_555
N5 C20 1_555 1_555
C1 C2 1_555 1_555
C2 C3 1_555 1_555
C4 C2 1_555 1_555
C5 C4 1_555 1_555
C6 C5 1_555 1_555
C7 C6 1_555 1_555
H1 C7 1_555 1_555
C8 C7 1_555 1_555
H2 C8 1_555 1_555
C9 C8 1_555 1_555
C10 N3 1_555 1_555
H3 C10 1_555 1_555
H4 C10 1_555 1_555
H5 C10 1_555 1_555
C11 N3 1_555 1_555
H6 C11 1_555 1_555
H7 C11 1_555 1_555
H8 C11 1_555 1_555
C12 C9 1_555 1_555
H9 C12 1_555 1_555
C13 C6 1_555 1_555
H10 C13 1_555 1_555
C14 C5 1_555 1_555
C15 C14 1_555 1_555
H11 C15 1_555 1_555
C16 C15 1_555 1_555
H12 C16 1_555 1_555
C17 C16 1_555 1_555
C18 C17 1_555 1_555
C19 C18 1_555 1_555
C20 C18 1_555 1_555
C21 C17 1_555 1_555
H13 C21 1_555 1_555
C22 C14 1_555 1_555
H14 C22 1_555 1_555
C23 C4 1_555 1_555
C24 C23 1_555 1_555
H15 C24 1_555 1_555
C25 C24 1_555 1_555
H16 C25 1_555 1_555
C26 C25 1_555 1_555
H17 C26 1_555 1_555
C27 C26 1_555 1_555
H18 C27 1_555 1_555
C28 C23 1_555 1_555
H19 C28 1_555 1_555
N6 C29 1_555 1_555
N7 C31 1_555 1_555
N8 C37 1_555 1_555
N9 C47 1_555 1_555
N10 C48 1_555 1_555
C29 C30 1_555 1_555
C30 C31 1_555 1_555
C32 C30 1_555 1_555
C33 C32 1_555 1_555
C34 C33 1_555 1_555
C35 C34 1_555 1_555
H20 C35 1_555 1_555
C36 C35 1_555 1_555
H21 C36 1_555 1_555
C37 C36 1_555 1_555
C38 N8 1_555 1_555
H22 C38 1_555 1_555
H23 C38 1_555 1_555
H24 C38 1_555 1_555
C39 N8 1_555 1_555
H25 C39 1_555 1_555
H26 C39 1_555 1_555
H27 C39 1_555 1_555
C40 C37 1_555 1_555
H28 C40 1_555 1_555
C41 C34 1_555 1_555
H29 C41 1_555 1_555
C42 C33 1_555 1_555
C43 C42 1_555 1_555
H30 C43 1_555 1_555
C44 C43 1_555 1_555
H31 C44 1_555 1_555
C45 C44 1_555 1_555
C46 C45 1_555 1_555
C47 C46 1_555 1_555
C48 C46 1_555 1_555
C49 C45 1_555 1_555
H32 C49 1_555 1_555
C50 C42 1_555 1_555
H33 C50 1_555 1_555
C51 C32 1_555 1_555
C52 C51 1_555 1_555
H34 C52 1_555 1_555
C53 C52 1_555 1_555
H35 C53 1_555 1_555
C54 C53 1_555 1_555
H36 C54 1_555 1_555
C55 C54 1_555 1_555
H37 C55 1_555 1_555
C56 C51 1_555 1_555
H38 C56 1_555 1_555
N11 C57 1_555 1_555
N12 C59 1_555 1_555
N13 C65 1_555 1_555
N14 C75 1_555 1_555
N15 C76 1_555 1_555
C57 C58 1_555 1_555
C58 C59 1_555 1_555
C60 C58 1_555 1_555
C61 C60 1_555 1_555
C62 C61 1_555 1_555
C63 C62 1_555 1_555
H39 C63 1_555 1_555
C64 C63 1_555 1_555
H40 C64 1_555 1_555
C65 C64 1_555 1_555
C66 N13 1_555 1_555
H41 C66 1_555 1_555
H42 C66 1_555 1_555
H43 C66 1_555 1_555
C67 N13 1_555 1_555
H44 C67 1_555 1_555
H45 C67 1_555 1_555
H46 C67 1_555 1_555
C68 C65 1_555 1_555
H47 C68 1_555 1_555
C69 C62 1_555 1_555
H48 C69 1_555 1_555
C70 C61 1_555 1_555
C71 C70 1_555 1_555
H49 C71 1_555 1_555
C72 C71 1_555 1_555
H50 C72 1_555 1_555
C73 C72 1_555 1_555
C74 C73 1_555 1_555
C75 C74 1_555 1_555
C76 C74 1_555 1_555
C77 C73 1_555 1_555
H51 C77 1_555 1_555
C78 C70 1_555 1_555
H52 C78 1_555 1_555
C79 C60 1_555 1_555
C80 C79 1_555 1_555
H53 C80 1_555 1_555
C81 C80 1_555 1_555
H54 C81 1_555 1_555
C82 C81 1_555 1_555
H55 C82 1_555 1_555
C83 C82 1_555 1_555
H56 C83 1_555 1_555
C84 C79 1_555 1_555
H57 C84 1_555 1_555
Cl1 C86 1_555 1_555
Cl2 C86 1_555 1_555
Cl3 C85 1_555 1_555
Cl4 C85 1_555 1_555
C85 H58 1_555 1_555
C86 C85 1_555 1_555
H59 C86 1_555 1_555
Cl5 C87 1_555 1_555
Cl6 C87 1_555 1_555
C87 H60 1_555 1_555
Cl5A C87A 1_555 1_555
Cl6A C87A 1_555 1_555
C87A C87 1_555 1_555
H60A C87A 1_555 1_555
C12 C13 1_555 1_555
C21 C22 1_555 1_555
C27 C28 1_555 1_555
C40 C41 1_555 1_555
C49 C50 1_555 1_555
C55 C56 1_555 1_555
C68 C69 1_555 1_555
C77 C78 1_555 1_555
C83 C84 1_555 1_555

#END
