
#######################################################################
#
#                 Cambridge Crystallographic Data Centre
#                                CCDC 
#
#######################################################################
#
# If this CIF has been generated from an entry in the Cambridge 
# Structural Database, then it will include bibliographic, chemical, 
# crystal, experimental, refinement or atomic coordinate data resulting 
# from the CCDC's data processing and validation procedures.
#
#######################################################################

data_MIQRAG
_chemical_formula_moiety         'C11 H15 N1 O2 S1'
_chemical_name_systematic        3,5-Diacetyl-2-(ethylamino)-4-methylthiophene
_symmetry_cell_setting           monoclinic
_symmetry_space_group_name_H-M   'P 21/n'
_symmetry_Int_Tables_number      14
_space_group_name_Hall           '-P 2yn'
loop_
_symmetry_equiv_pos_site_id
_symmetry_equiv_pos_as_xyz
1 x,y,z
2 1/2-x,1/2+y,1/2-z
3 -x,-y,-z
4 1/2+x,1/2-y,1/2+z
_cell_length_a                   5.4217(9)
_cell_length_b                   19.233(3)
_cell_length_c                   10.9100(19)
_cell_angle_alpha                90
_cell_angle_beta                 96.859(3)
_cell_angle_gamma                90
_cell_volume                     1129.5
_exptl_crystal_colour            'light yellow'
_chemical_melting_point          122-123deg.C
_cell_formula_units_Z            4
loop_
_atom_site_label
_atom_site_type_symbol
_atom_site_fract_x
_atom_site_fract_y
_atom_site_fract_z
S1 S 0.2435(2) 0.96148(6) 0.21966(11)
O1 O -0.0612(6) 0.77844(18) 0.1527(3)
C1 C 0.9131(6) 0.92479(18) 0.4946(3)
H1 H 0.9421 0.9572 0.4310
H2 H 1.0693 0.9082 0.5346
H3 H 0.8236 0.9474 0.5541
C2 C 0.5675(7) 0.8889(2) 0.3617(4)
C3 C 0.3933(7) 0.8402(2) 0.3028(4)
C4 C 0.5078(8) 0.9584(2) 0.3249(4)
N1 N 0.6284(7) 1.01626(19) 0.3614(4)
C5 C 0.7918(8) 0.8760(2) 0.4491(4)
C6 C 0.2069(8) 0.8712(2) 0.2245(4)
C7 C -0.0101(8) 0.8404(3) 0.1495(4)
C8 C 0.4064(9) 0.7629(2) 0.3203(5)
H4 H 0.2635 0.7417 0.2748
H5 H 0.4096 0.7522 0.4064
H6 H 0.5544 0.7454 0.2909
O2 O 0.8767(9) 0.8033(3) 0.4848(5)
C9 C 0.5634(9) 1.0846(2) 0.3118(5)
H7 H 0.6100 1.1193 0.3748
H8 H 0.3848 1.0872 0.2900
C10 C -0.1727(10) 0.8868(3) 0.0649(5)
H9 H -0.3204 0.8621 0.0330
H10 H -0.0850 0.9011 -0.0022
H11 H -0.2172 0.9270 0.1095
C11 C 0.6900(11) 1.1008(3) 0.1994(6)
H12 H 0.8667 1.1017 0.2219
H13 H 0.6354 1.1454 0.1671
H14 H 0.6486 1.0658 0.1378
loop_
_geom_bond_atom_site_label_1
_geom_bond_atom_site_label_2
_geom_bond_site_symmetry_1
_geom_bond_site_symmetry_2
S1 C4 1_555 1_555
O1 C7 1_555 1_555
C1 H1 1_555 1_555
H2 C1 1_555 1_555
H3 C1 1_555 1_555
C2 C3 1_555 1_555
C3 C6 1_555 1_555
C4 C2 1_555 1_555
N1 C4 1_555 1_555
C5 C1 1_555 1_555
C6 S1 1_555 1_555
C7 C6 1_555 1_555
C8 C3 1_555 1_555
H4 C8 1_555 1_555
H5 C8 1_555 1_555
H6 C8 1_555 1_555
O2 C5 1_555 1_555
C9 N1 1_555 1_555
H7 C9 1_555 1_555
H8 C9 1_555 1_555
C10 C7 1_555 1_555
H9 C10 1_555 1_555
H10 C10 1_555 1_555
H11 C10 1_555 1_555
C11 C9 1_555 1_555
H12 C11 1_555 1_555
H13 C11 1_555 1_555
H14 C11 1_555 1_555
C2 C5 1_555 1_555

#END
