
#######################################################################
#
#                 Cambridge Crystallographic Data Centre
#                                CCDC 
#
#######################################################################
#
# If this CIF has been generated from an entry in the Cambridge 
# Structural Database, then it will include bibliographic, chemical, 
# crystal, experimental, refinement or atomic coordinate data resulting 
# from the CCDC's data processing and validation procedures.
#
#######################################################################

data_MIQVUF02
_chemical_formula_moiety         'C18 H12 N2'
_chemical_name_systematic        11,12-dihydroindolo[2,3-a]carbazole
_symmetry_cell_setting           monoclinic
_symmetry_space_group_name_H-M   'P 21/c'
_symmetry_Int_Tables_number      14
_space_group_name_Hall           '-P 2ybc'
loop_
_symmetry_equiv_pos_site_id
_symmetry_equiv_pos_as_xyz
1 x,y,z
2 -x,1/2+y,1/2-z
3 -x,-y,-z
4 x,1/2-y,1/2+z
_cell_length_a                   5.6973(14)
_cell_length_b                   26.882(8)
_cell_length_c                   15.983(6)
_cell_angle_alpha                90
_cell_angle_beta                 93.72(2)
_cell_angle_gamma                90
_cell_volume                     2442.72
_exptl_crystal_colour            colorless
_exptl_crystal_description       block
_cell_formula_units_Z            8
_exptl_crystal_recrystallization_method Acetonitrile
loop_
_atom_site_label
_atom_site_type_symbol
_atom_site_fract_x
_atom_site_fract_y
_atom_site_fract_z
C1 C 0.5776(4) 0.13449(10) 0.47272(19)
C2 C 0.5411(4) 0.08657(10) 0.5018(2)
H1 H 0.4094 0.0789 0.5329
C3 C 0.7029(4) 0.05053(11) 0.4837(2)
H2 H 0.6843 0.0177 0.5044
C4 C 0.8939(4) 0.06118(11) 0.4356(2)
H3 H 1.0 0.0354 0.4229
C5 C 0.9291(4) 0.10857(11) 0.4067(2)
H4 H 1.0596 0.1158 0.3746
C6 C 0.7705(4) 0.14590(11) 0.42513(19)
C7 C 0.7617(4) 0.19844(10) 0.40857(18)
C8 C 0.5630(4) 0.21661(10) 0.44679(19)
C9 C 0.5211(4) 0.26750(10) 0.44660(18)
C10 C 0.6761(4) 0.29905(10) 0.40767(18)
C11 C 0.8703(4) 0.28038(11) 0.36757(19)
H5 H 0.9708 0.3024 0.3403
C12 C 0.9136(4) 0.23058(11) 0.36803(18)
H6 H 1.0447 0.2176 0.3413
C13 C 0.5932(4) 0.34904(10) 0.41999(19)
C14 C 0.3906(4) 0.34517(10) 0.46622(19)
C15 C 0.2652(4) 0.38666(11) 0.4888(2)
H7 H 0.1291 0.3836 0.5198
C16 C 0.3452(5) 0.43243(11) 0.4648(2)
H8 H 0.262 0.4615 0.4794
C17 C 0.5470(4) 0.43738(12) 0.4191(2)
H9 H 0.5985 0.4695 0.4034
C18 C 0.6698(4) 0.39577(10) 0.39728(19)
H10 H 0.8065 0.3991 0.3667
N1 N 0.4510(3) 0.17757(8) 0.48400(16)
H11 H 0.3207 0.1798 0.5105
N2 N 0.3529(3) 0.29543(8) 0.48304(16)
H12 H 0.2398 0.2836 0.5123
C19 C 0.3205(4) 0.22936(11) 0.69982(19)
C20 C 0.4221(4) 0.18241(11) 0.71184(19)
H13 H 0.5723 0.1785 0.7405
C21 C 0.2961(4) 0.14205(11) 0.6805(2)
H14 H 0.3599 0.1097 0.6892
C22 C 0.0743(4) 0.14718(12) 0.6357(2)
H15 H -0.0071 0.1185 0.6145
C23 C -0.0230(4) 0.19368(11) 0.62298(19)
H16 H -0.1708 0.1974 0.5925
C24 C 0.0983(4) 0.23561(11) 0.65551(19)
C25 C 0.0453(4) 0.28733(11) 0.65621(18)
C26 C 0.2366(4) 0.31087(11) 0.70130(19)
C27 C 0.2259(4) 0.36164(11) 0.71607(18)
C28 C 0.0244(4) 0.38826(11) 0.68558(19)
C29 C -0.1646(4) 0.36452(11) 0.64010(19)
H17 H -0.2982 0.3832 0.6199
C30 C -0.1543(4) 0.31472(11) 0.62532(19)
H18 H -0.2801 0.2984 0.5945
C31 C 0.0612(4) 0.43913(11) 0.71174(19)
C32 C 0.2825(4) 0.44117(11) 0.75739(19)
C33 C 0.3689(4) 0.48498(11) 0.7940(2)
H19 H 0.517 0.4863 0.8248
C34 C 0.2280(5) 0.52642(11) 0.7831(2)
H20 H 0.2821 0.557 0.807
C35 C 0.0075(5) 0.52538(11) 0.7381(2)
H21 H -0.0844 0.5548 0.7328
C36 C -0.0756(4) 0.48194(11) 0.7017(2)
H22 H -0.2231 0.4811 0.6703
N3 N 0.4014(3) 0.27509(9) 0.72699(16)
H23 H 0.5355 0.2808 0.7559
N4 N 0.3811(3) 0.39415(9) 0.75954(16)
H24 H 0.5184 0.3861 0.7842
loop_
_geom_bond_atom_site_label_1
_geom_bond_atom_site_label_2
_geom_bond_site_symmetry_1
_geom_bond_site_symmetry_2
C1 C2 1_555 1_555
C2 H1 1_555 1_555
C3 C2 1_555 1_555
H2 C3 1_555 1_555
C4 C3 1_555 1_555
H3 C4 1_555 1_555
C5 C4 1_555 1_555
H4 C5 1_555 1_555
C6 C1 1_555 1_555
C7 C6 1_555 1_555
C8 C7 1_555 1_555
C9 C8 1_555 1_555
C10 C9 1_555 1_555
C11 C10 1_555 1_555
H5 C11 1_555 1_555
C12 C7 1_555 1_555
H6 C12 1_555 1_555
C13 C10 1_555 1_555
C14 C13 1_555 1_555
C15 C14 1_555 1_555
H7 C15 1_555 1_555
C16 C15 1_555 1_555
H8 C16 1_555 1_555
C17 C16 1_555 1_555
H9 C17 1_555 1_555
C18 C13 1_555 1_555
H10 C18 1_555 1_555
N1 C1 1_555 1_555
H11 N1 1_555 1_555
N2 C9 1_555 1_555
H12 N2 1_555 1_555
C19 C20 1_555 1_555
C20 H13 1_555 1_555
C21 C20 1_555 1_555
H14 C21 1_555 1_555
C22 C21 1_555 1_555
H15 C22 1_555 1_555
C23 C22 1_555 1_555
H16 C23 1_555 1_555
C24 C19 1_555 1_555
C25 C24 1_555 1_555
C26 C25 1_555 1_555
C27 C26 1_555 1_555
C28 C27 1_555 1_555
C29 C28 1_555 1_555
H17 C29 1_555 1_555
C30 C25 1_555 1_555
H18 C30 1_555 1_555
C31 C28 1_555 1_555
C32 C31 1_555 1_555
C33 C32 1_555 1_555
H19 C33 1_555 1_555
C34 C33 1_555 1_555
H20 C34 1_555 1_555
C35 C34 1_555 1_555
H21 C35 1_555 1_555
C36 C31 1_555 1_555
H22 C36 1_555 1_555
N3 C19 1_555 1_555
H23 N3 1_555 1_555
N4 C27 1_555 1_555
H24 N4 1_555 1_555
C5 C6 1_555 1_555
C8 N1 1_555 1_555
C11 C12 1_555 1_555
C14 N2 1_555 1_555
C17 C18 1_555 1_555
C23 C24 1_555 1_555
C26 N3 1_555 1_555
C29 C30 1_555 1_555
C32 N4 1_555 1_555
C35 C36 1_555 1_555

#END
