
#######################################################################
#
#                 Cambridge Crystallographic Data Centre
#                                CCDC 
#
#######################################################################
#
# If this CIF has been generated from an entry in the Cambridge 
# Structural Database, then it will include bibliographic, chemical, 
# crystal, experimental, refinement or atomic coordinate data resulting 
# from the CCDC's data processing and validation procedures.
#
#######################################################################

data_MIQWUE01
_chemical_formula_moiety         'C21 H19 N1 O3'
_chemical_name_systematic        
3,2',2''-Trimethyl-4-nitro-4''-hydroxyterphenyl
_symmetry_cell_setting           monoclinic
_symmetry_space_group_name_H-M   'P 21/n'
_symmetry_Int_Tables_number      14
_space_group_name_Hall           '-P 2yn'
loop_
_symmetry_equiv_pos_site_id
_symmetry_equiv_pos_as_xyz
1 x,y,z
2 1/2-x,1/2+y,1/2-z
3 -x,-y,-z
4 1/2+x,1/2-y,1/2+z
_cell_length_a                   8.3411(3)
_cell_length_b                   11.494(1)
_cell_length_c                   17.698(1)
_cell_angle_alpha                90
_cell_angle_beta                 92.327(2)
_cell_angle_gamma                90
_cell_volume                     1695.35
_exptl_crystal_colour            colorless
_exptl_crystal_description       plate
_cell_formula_units_Z            4
loop_
_atom_site_label
_atom_site_type_symbol
_atom_site_fract_x
_atom_site_fract_y
_atom_site_fract_z
O1 O 1.0295(2) 0.0224(2) -0.1478(1)
O2 O 1.1883(2) 0.1029(2) -0.0682(1)
O3 O -0.2511(2) 0.5965(1) 0.26065(9)
N1 N 1.0544(2) 0.0804(2) -0.0915(1)
C1 C 0.9192(2) 0.1292(2) -0.0523(1)
C2 C 0.9537(2) 0.2183(2) -0.0022(1)
C3 C 0.8328(2) 0.2732(2) 0.0334(1)
C4 C 0.6759(2) 0.2401(2) 0.0183(1)
C5 C 0.6464(2) 0.1473(2) -0.0301(1)
C6 C 0.7648(2) 0.0871(2) -0.0668(1)
C7 C 0.7191(3) -0.0171(2) -0.1138(1)
C8 C 0.5415(2) 0.3004(2) 0.0551(1)
C9 C 0.5405(2) 0.3036(2) 0.1333(1)
C10 C 0.4145(2) 0.3502(2) 0.1703(1)
C11 C 0.2857(2) 0.3984(2) 0.1300(1)
C12 C 0.2928(2) 0.4001(2) 0.0514(1)
C13 C 0.4172(2) 0.3529(2) 0.0126(1)
C14 C 0.4152(2) 0.3608(2) -0.0724(1)
C15 C 0.1453(2) 0.4468(2) 0.1674(1)
C16 C 0.0996(2) 0.5604(2) 0.1527(1)
C17 C -0.0313(2) 0.6100(2) 0.1841(1)
C18 C -0.1212(2) 0.5436(2) 0.2312(1)
C19 C -0.0799(2) 0.4307(2) 0.2460(1)
C20 C 0.0529(2) 0.3797(2) 0.2158(1)
C21 C 0.0906(3) 0.2559(2) 0.2344(2)
H1 H 1.0618 0.2417 0.0076
H2 H 0.8567 0.3340 0.0685
H3 H 0.5383 0.1233 -0.0388
H4 H 0.7308 0.0005 -0.1657
H5 H 0.6107 -0.0372 -0.1057
H6 H 0.7869 -0.0805 -0.0997
H7 H 0.6293 0.2728 0.1620
H8 H 0.4157 0.3493 0.2240
H9 H 0.2071 0.4357 0.0230
H10 H 0.3684 0.4326 -0.0882
H11 H 0.5219 0.3565 -0.0890
H12 H 0.3540 0.2983 -0.0936
H13 H 0.1612 0.6057 0.1196
H14 H -0.0594 0.6886 0.1735
H15 H -0.1445 0.3859 0.2780
H16 H 0.1622 0.2529 0.2775
H17 H -0.0056 0.2159 0.2450
H18 H 0.1391 0.2202 0.1927
H19 H -0.3022 0.5470 0.2977
loop_
_geom_bond_atom_site_label_1
_geom_bond_atom_site_label_2
_geom_bond_site_symmetry_1
_geom_bond_site_symmetry_2
O1 N1 1_555 1_555
O2 N1 1_555 1_555
O3 C18 1_555 1_555
N1 C1 1_555 1_555
C1 C2 1_555 1_555
C2 C3 1_555 1_555
C3 C4 1_555 1_555
C4 C5 1_555 1_555
C5 C6 1_555 1_555
C6 C1 1_555 1_555
C7 C6 1_555 1_555
C8 C4 1_555 1_555
C9 C8 1_555 1_555
C10 C9 1_555 1_555
C11 C10 1_555 1_555
C12 C11 1_555 1_555
C13 C8 1_555 1_555
C14 C13 1_555 1_555
C15 C11 1_555 1_555
C16 C15 1_555 1_555
C17 C16 1_555 1_555
C18 C17 1_555 1_555
C19 C18 1_555 1_555
C20 C15 1_555 1_555
C21 C20 1_555 1_555
H1 C2 1_555 1_555
H2 C3 1_555 1_555
H3 C5 1_555 1_555
H4 C7 1_555 1_555
H5 C7 1_555 1_555
H6 C7 1_555 1_555
H7 C9 1_555 1_555
H8 C10 1_555 1_555
H9 C12 1_555 1_555
H10 C14 1_555 1_555
H11 C14 1_555 1_555
H12 C14 1_555 1_555
H13 C16 1_555 1_555
H14 C17 1_555 1_555
H15 C19 1_555 1_555
H16 C21 1_555 1_555
H17 C21 1_555 1_555
H18 C21 1_555 1_555
H19 O3 1_555 1_555
C12 C13 1_555 1_555
C19 C20 1_555 1_555

#END
