
#######################################################################
#
#                 Cambridge Crystallographic Data Centre
#                                CCDC 
#
#######################################################################
#
# If this CIF has been generated from an entry in the Cambridge 
# Structural Database, then it will include bibliographic, chemical, 
# crystal, experimental, refinement or atomic coordinate data resulting 
# from the CCDC's data processing and validation procedures.
#
#######################################################################

data_MIQWOB
_chemical_formula_moiety         'C20 H19 N1 O4'
_chemical_name_systematic        
1-benzyl-3-hydroxy-3-(5-methyl-3-oxooxolan-2-yl)-1,3-dihydro-2H-indol-2-one
_symmetry_cell_setting           monoclinic
_symmetry_space_group_name_H-M   'P 21/n'
_symmetry_Int_Tables_number      14
_space_group_name_Hall           '-P 2yn'
loop_
_symmetry_equiv_pos_site_id
_symmetry_equiv_pos_as_xyz
1 x,y,z
2 1/2-x,1/2+y,1/2-z
3 -x,-y,-z
4 1/2+x,1/2-y,1/2+z
_cell_length_a                   9.28160(10)
_cell_length_b                   8.02640(10)
_cell_length_c                   22.3617(2)
_cell_angle_alpha                90
_cell_angle_beta                 93.7820(10)
_cell_angle_gamma                90
_cell_volume                     1662.27
_exptl_crystal_colour            colorless
_exptl_crystal_description       block
_cell_formula_units_Z            4
loop_
_atom_site_label
_atom_site_type_symbol
_atom_site_fract_x
_atom_site_fract_y
_atom_site_fract_z
O1 O 0.25973(9) 0.10839(10) 0.61739(4)
O2 O 0.40239(9) 0.25074(11) 0.47591(4)
H1 H 0.411826 0.154914 0.464069
O3 O 0.59551(9) 0.07103(11) 0.56857(4)
O4 O 0.07578(10) 0.17567(13) 0.47759(4)
N1 N 0.55810(10) 0.31924(12) 0.61611(4)
C1 C 0.35940(12) 0.42157(15) 0.56157(5)
C2 C 0.45882(12) 0.45271(15) 0.60969(5)
C3 C 0.52614(13) 0.19880(15) 0.57478(5)
C4 C 0.63532(13) 0.27509(15) 0.72350(5)
C5 C 0.45523(13) 0.59538(16) 0.64378(6)
H2 H 0.521045 0.612998 0.676345
C6 C 0.25558(13) 0.53922(16) 0.54515(6)
H3 H 0.190075 0.521231 0.512501
C7 C 0.26892(13) 0.12200(15) 0.55420(5)
H4 H 0.293519 0.012594 0.538298
C8 C 0.38588(12) 0.24960(15) 0.53778(5)
C9 C 0.67922(13) 0.31174(16) 0.66070(5)
H5 H 0.730112 0.417319 0.661027
H6 H 0.745622 0.226012 0.649163
C10 C 0.51337(13) 0.18105(16) 0.73318(6)
H7 H 0.453765 0.144560 0.700744
C11 C 0.34877(14) 0.71225(16) 0.62740(6)
H8 H 0.343034 0.809816 0.649546
C12 C 0.13904(13) 0.20787(16) 0.63609(5)
H9 H 0.170011 0.323777 0.641960
C13 C 0.25113(14) 0.68554(16) 0.57859(6)
H10 H 0.182023 0.766111 0.568092
C14 C 0.11669(13) 0.16835(16) 0.52990(6)
C15 C 0.72233(13) 0.33077(17) 0.77267(6)
H11 H 0.803173 0.395599 0.766686
C16 C 0.48020(14) 0.14138(17) 0.79115(6)
H12 H 0.398323 0.078525 0.797316
C17 C 0.02762(14) 0.19759(18) 0.58311(6)
H13 H -0.038943 0.106198 0.588034
H14 H -0.026772 0.300512 0.578553
C18 C 0.09326(14) 0.13805(18) 0.69444(6)
H15 H 0.064509 0.023928 0.688825
H16 H 0.013533 0.201566 0.707521
H17 H 0.172585 0.144170 0.724164
C19 C 0.68904(15) 0.29000(18) 0.83059(6)
H18 H 0.748054 0.326802 0.863154
C20 C 0.56830(15) 0.19481(18) 0.83988(6)
H19 H 0.546334 0.166808 0.878597
loop_
_geom_bond_atom_site_label_1
_geom_bond_atom_site_label_2
_geom_bond_site_symmetry_1
_geom_bond_site_symmetry_2
O1 C7 1_555 1_555
O2 H1 1_555 1_555
O3 C3 1_555 1_555
O4 C14 1_555 1_555
N1 C2 1_555 1_555
C1 C2 1_555 1_555
C2 C5 1_555 1_555
C3 N1 1_555 1_555
C4 C9 1_555 1_555
C5 H2 1_555 1_555
C6 C1 1_555 1_555
H3 C6 1_555 1_555
C7 H4 1_555 1_555
C8 O2 1_555 1_555
C9 N1 1_555 1_555
H5 C9 1_555 1_555
H6 C9 1_555 1_555
C10 C4 1_555 1_555
H7 C10 1_555 1_555
C11 C5 1_555 1_555
H8 C11 1_555 1_555
C12 O1 1_555 1_555
H9 C12 1_555 1_555
C13 C6 1_555 1_555
H10 C13 1_555 1_555
C14 C7 1_555 1_555
C15 C4 1_555 1_555
H11 C15 1_555 1_555
C16 C10 1_555 1_555
H12 C16 1_555 1_555
C17 C12 1_555 1_555
H13 C17 1_555 1_555
H14 C17 1_555 1_555
C18 C12 1_555 1_555
H15 C18 1_555 1_555
H16 C18 1_555 1_555
H17 C18 1_555 1_555
C19 C15 1_555 1_555
H18 C19 1_555 1_555
C20 C16 1_555 1_555
H19 C20 1_555 1_555
C1 C8 1_555 1_555
C3 C8 1_555 1_555
C7 C8 1_555 1_555
C11 C13 1_555 1_555
C14 C17 1_555 1_555
C19 C20 1_555 1_555

#END
