
#######################################################################
#
#                 Cambridge Crystallographic Data Centre
#                                CCDC 
#
#######################################################################
#
# If this CIF has been generated from an entry in the Cambridge 
# Structural Database, then it will include bibliographic, chemical, 
# crystal, experimental, refinement or atomic coordinate data resulting 
# from the CCDC's data processing and validation procedures.
#
#######################################################################

data_MIQYOA
_chemical_formula_moiety         'C68 H52 O12,2(C4 H8 O1)'
_chemical_name_systematic        
'3,5,7,11,13,15,18,20,22,25,27,29-Decaoxa-1(1,5,4,2),2(1,2),6(1,2),9(1,2,5,4),12(1,2),14(1,2),19(1,2),21(1,2),26(12,),28(1,2)decabenzenatricyclo (7.7.7.7)tricosaphane tetrahydrofuran solvate'
_symmetry_cell_setting           triclinic
_symmetry_space_group_name_H-M   'P -1'
_symmetry_Int_Tables_number      2
_space_group_name_Hall           '-P 1'
loop_
_symmetry_equiv_pos_site_id
_symmetry_equiv_pos_as_xyz
1 x,y,z
2 -x,-y,-z
_cell_length_a                   14.155(4)
_cell_length_b                   15.692(3)
_cell_length_c                   16.908(4)
_cell_angle_alpha                66.607(7)
_cell_angle_beta                 86.20(2)
_cell_angle_gamma                65.27(2)
_cell_volume                     3108.26
_exptl_crystal_colour            colorless
_chemical_melting_point          'above 290deg.C(dec.)'
_cell_formula_units_Z            2
loop_
_atom_site_label
_atom_site_type_symbol
_atom_site_fract_x
_atom_site_fract_y
_atom_site_fract_z
C1 C 0.5742(6) 0.3640(6) 0.5007(6)
C2 C 0.6332(7) 0.3758(7) 0.5631(6)
O1 O 0.7452(5) 0.3202(5) 0.5654(4)
C3 C 0.7849(7) 0.2149(8) 0.6002(6)
C4 C 0.7817(8) 0.1597(9) 0.6855(7)
C5 C 0.8309(9) 0.0522(11) 0.7184(8)
C6 C 0.8814(9) 0.0008(9) 0.6676(9)
C7 C 0.8844(8) 0.0580(10) 0.5835(9)
C8 C 0.8371(8) 0.1646(9) 0.5491(7)
O2 O 0.8386(5) 0.2194(5) 0.4603(4)
C9 C 0.9313(7) 0.2268(7) 0.4344(7)
C10 C 1.0164(8) 0.1935(8) 0.4878(6)
C11 C 1.1026(8) 0.2063(9) 0.4549(7)
C12 C 1.1038(8) 0.2527(9) 0.3680(8)
C13 C 1.0167(7) 0.2861(7) 0.3120(6)
C14 C 0.9299(7) 0.2734(7) 0.3449(6)
O3 O 0.8401(4) 0.3023(5) 0.2943(4)
C15 C 0.8293(7) 0.3633(7) 0.2033(6)
C16 C 0.7201(7) 0.3917(8) 0.1688(5)
C17 C 0.6439(8) 0.4920(7) 0.1412(5)
C18 C 0.5410(7) 0.5198(7) 0.1156(5)
C19 C 0.4596(7) 0.6262(8) 0.0956(6)
O4 O 0.5069(5) 0.6956(5) 0.0677(4)
C20 C 0.4399(8) 0.7942(8) 0.0562(7)
C21 C 0.3899(8) 0.8668(9) -0.0241(7)
C22 C 0.3262(9) 0.9658(9) -0.0361(7)
C23 C 0.3110(9) 0.9929(8) 0.0326(8)
C24 C 0.3608(8) 0.9210(9) 0.1152(7)
C25 C 0.4262(7) 0.8216(8) 0.1259(7)
O5 O 0.4756(5) 0.7482(5) 0.2091(4)
C26 C 0.5836(8) 0.7149(8) 0.2211(6)
C27 C 0.6299(8) 0.7792(7) 0.1800(6)
C28 C 0.7366(9) 0.7452(8) 0.1939(6)
C29 C 0.7960(8) 0.6459(9) 0.2476(6)
C30 C 0.7507(7) 0.5790(7) 0.2890(6)
C31 C 0.6435(7) 0.6124(7) 0.2785(5)
O6 O 0.5917(4) 0.5533(5) 0.3166(4)
C32 C 0.6574(7) 0.4488(7) 0.3738(6)
C33 C 0.5909(6) 0.3927(6) 0.4135(6)
C34 C 0.5531(7) 0.3583(7) 0.3637(6)
C35 C 0.4918(7) 0.3036(7) 0.3951(6)
C36 C 0.4661(8) 0.2552(8) 0.3421(6)
O7 O 0.5234(5) 0.1461(5) 0.3870(4)
C37 C 0.4868(8) 0.0896(7) 0.3622(6)
C38 C 0.4069(8) 0.0654(9) 0.4012(6)
C39 C 0.3745(9) 0.0037(10) 0.3828(8)
C40 C 0.4233(10) -0.0335(8) 0.3232(8)
C41 C 0.5013(9) -0.0090(8) 0.2815(7)
C42 C 0.5355(8) 0.0489(8) 0.3032(7)
O8 O 0.6088(6) 0.0809(5) 0.2606(4)
C43 C 0.7110(8) 0.0079(8) 0.2682(6)
C44 C 0.7472(9) -0.0958(8) 0.3168(6)
C45 C 0.8507(9) -0.1616(8) 0.3174(7)
C46 C 0.9156(8) -0.1214(9) 0.2726(7)
C47 C 0.8803(9) -0.0186(10) 0.2263(7)
C48 C 0.7789(9) 0.0458(8) 0.2219(6)
O9 O 0.7390(5) 0.1510(5) 0.1707(4)
C49 C 0.7693(8) 0.2054(8) 0.2036(7)
C50 C 0.6914(7) 0.3173(7) 0.1672(5)
C51 C 0.5879(7) 0.3462(7) 0.1378(5)
C52 C 0.5128(6) 0.4460(8) 0.1131(5)
C53 C 0.4035(6) 0.4698(7) 0.0858(5)
O10 O 0.3438(5) 0.4748(5) 0.1575(3)
C54 C 0.2414(7) 0.4939(7) 0.1452(6)
C55 C 0.1863(7) 0.5239(7) 0.0679(6)
C56 C 0.0826(8) 0.5422(8) 0.0620(8)
C57 C 0.0340(8) 0.5293(9) 0.1364(9)
C58 C 0.0881(8) 0.4972(8) 0.2142(7)
C59 C 0.1892(7) 0.4811(7) 0.2205(6)
O11 O 0.2491(5) 0.4473(6) 0.2973(4)
C60 C 0.2011(8) 0.4714(10) 0.3649(7)
C61 C 0.1359(9) 0.5700(9) 0.3524(8)
C62 C 0.0944(8) 0.5885(9) 0.4216(9)
C63 C 0.1196(9) 0.5125(11) 0.5027(8)
C64 C 0.1855(9) 0.4152(9) 0.5138(7)
C65 C 0.2292(7) 0.3930(8) 0.4461(6)
O12 O 0.2919(5) 0.2924(5) 0.4568(4)
C66 C 0.3889(7) 0.2417(7) 0.5146(5)
C67 C 0.4624(7) 0.2895(6) 0.4784(5)
C68 C 0.5070(7) 0.3168(6) 0.5304(6)
loop_
_geom_bond_atom_site_label_1
_geom_bond_atom_site_label_2
_geom_bond_site_symmetry_1
_geom_bond_site_symmetry_2
C1 C2 1_555 1_555
C2 O1 1_555 1_555
O1 C3 1_555 1_555
C3 C4 1_555 1_555
C4 C5 1_555 1_555
C5 C6 1_555 1_555
C6 C7 1_555 1_555
C7 C8 1_555 1_555
C8 C3 1_555 1_555
O2 C8 1_555 1_555
C9 O2 1_555 1_555
C10 C9 1_555 1_555
C11 C10 1_555 1_555
C12 C11 1_555 1_555
C13 C12 1_555 1_555
C14 C9 1_555 1_555
O3 C14 1_555 1_555
C15 O3 1_555 1_555
C16 C15 1_555 1_555
C17 C16 1_555 1_555
C18 C17 1_555 1_555
C19 C18 1_555 1_555
O4 C19 1_555 1_555
C20 O4 1_555 1_555
C21 C20 1_555 1_555
C22 C21 1_555 1_555
C23 C22 1_555 1_555
C24 C23 1_555 1_555
C25 C20 1_555 1_555
O5 C25 1_555 1_555
C26 O5 1_555 1_555
C27 C26 1_555 1_555
C28 C27 1_555 1_555
C29 C28 1_555 1_555
C30 C29 1_555 1_555
C31 C26 1_555 1_555
O6 C31 1_555 1_555
C32 O6 1_555 1_555
C33 C1 1_555 1_555
C34 C33 1_555 1_555
C35 C34 1_555 1_555
C36 C35 1_555 1_555
O7 C36 1_555 1_555
C37 O7 1_555 1_555
C38 C37 1_555 1_555
C39 C38 1_555 1_555
C40 C39 1_555 1_555
C41 C40 1_555 1_555
C42 C37 1_555 1_555
O8 C42 1_555 1_555
C43 O8 1_555 1_555
C44 C43 1_555 1_555
C45 C44 1_555 1_555
C46 C45 1_555 1_555
C47 C46 1_555 1_555
C48 C43 1_555 1_555
O9 C48 1_555 1_555
C49 O9 1_555 1_555
C50 C16 1_555 1_555
C51 C50 1_555 1_555
C52 C18 1_555 1_555
C53 C52 1_555 1_555
O10 C53 1_555 1_555
C54 O10 1_555 1_555
C55 C54 1_555 1_555
C56 C55 1_555 1_555
C57 C56 1_555 1_555
C58 C57 1_555 1_555
C59 C54 1_555 1_555
O11 C59 1_555 1_555
C60 O11 1_555 1_555
C61 C60 1_555 1_555
C62 C61 1_555 1_555
C63 C62 1_555 1_555
C64 C63 1_555 1_555
C65 C60 1_555 1_555
O12 C65 1_555 1_555
C66 O12 1_555 1_555
C67 C35 1_555 1_555
C68 C1 1_555 1_555
C13 C14 1_555 1_555
C24 C25 1_555 1_555
C30 C31 1_555 1_555
C32 C33 1_555 1_555
C41 C42 1_555 1_555
C47 C48 1_555 1_555
C49 C50 1_555 1_555
C51 C52 1_555 1_555
C58 C59 1_555 1_555
C64 C65 1_555 1_555
C66 C67 1_555 1_555
C67 C68 1_555 1_555

#END
