
#######################################################################
#
#                 Cambridge Crystallographic Data Centre
#                                CCDC 
#
#######################################################################
#
# If this CIF has been generated from an entry in the Cambridge 
# Structural Database, then it will include bibliographic, chemical, 
# crystal, experimental, refinement or atomic coordinate data resulting 
# from the CCDC's data processing and validation procedures.
#
#######################################################################

data_MIRQOV02
_chemical_formula_moiety         'C6 H4 Br1 Cl1 O1'
_chemical_name_systematic        4-Bromo-3-chlorophenol
_symmetry_cell_setting           tetragonal
_symmetry_space_group_name_H-M   'I 41/a'
_symmetry_Int_Tables_number      88
_space_group_name_Hall           '-I 4ad'
loop_
_symmetry_equiv_pos_site_id
_symmetry_equiv_pos_as_xyz
1 x,y,z
2 1/2-x,-y,1/2+z
3 3/4-y,1/4+x,1/4+z
4 3/4+y,3/4-x,3/4+z
5 1/2+x,1/2+y,1/2+z
6 -x,1/2-y,z
7 1/4-y,3/4+x,3/4+z
8 1/4+y,1/4-x,1/4+z
9 -x,-y,-z
10 1/2+x,y,1/2-z
11 1/4+y,3/4-x,3/4-z
12 1/4-y,1/4+x,1/4-z
13 1/2-x,1/2-y,1/2-z
14 x,1/2+y,-z
15 3/4+y,1/4-x,1/4-z
16 3/4-y,3/4+x,3/4-z
_cell_length_a                   26.65(3)
_cell_length_b                   26.65(3)
_cell_length_c                   3.965(3)
_cell_angle_alpha                90
_cell_angle_beta                 90
_cell_angle_gamma                90
_cell_volume                     2816.03
_exptl_crystal_colour            colorless
_exptl_crystal_description       needle
_cell_formula_units_Z            16
loop_
_atom_site_label
_atom_site_type_symbol
_atom_site_fract_x
_atom_site_fract_y
_atom_site_fract_z
O1 O 0.78837(11) 0.94322(13) 0.6398(9)
H1 H 0.7954(13) 0.9672(13) 0.717(9)
C1 C 0.82922(14) 0.91893(15) 0.4978(10)
C2 C 0.87070(15) 0.94529(15) 0.3907(10)
H2 H 0.8714 0.9801 0.4095
C3 C 0.91139(15) 0.91998(15) 0.2548(10)
C4 C 0.91027(14) 0.86793(15) 0.2216(9)
C5 C 0.86793(15) 0.84190(15) 0.3274(11)
H3 H 0.8667 0.8072 0.3034
C6 C 0.82745(14) 0.86714(15) 0.4687(10)
H4 H 0.7995 0.8495 0.5429
Cl1 Cl 0.96324(4) 0.95445(5) 0.1267(4)
Br1 Br 0.965886(17) 0.832445(18) 0.04163(12)
loop_
_geom_bond_atom_site_label_1
_geom_bond_atom_site_label_2
_geom_bond_site_symmetry_1
_geom_bond_site_symmetry_2
O1 H1 1_555 1_555
C1 O1 1_555 1_555
C2 C1 1_555 1_555
H2 C2 1_555 1_555
C3 C2 1_555 1_555
C4 C3 1_555 1_555
C5 C4 1_555 1_555
H3 C5 1_555 1_555
C6 C1 1_555 1_555
H4 C6 1_555 1_555
Cl1 C3 1_555 1_555
Br1 C4 1_555 1_555
C5 C6 1_555 1_555

#END
