
#######################################################################
#
#                 Cambridge Crystallographic Data Centre
#                                CCDC 
#
#######################################################################
#
# If this CIF has been generated from an entry in the Cambridge 
# Structural Database, then it will include bibliographic, chemical, 
# crystal, experimental, refinement or atomic coordinate data resulting 
# from the CCDC's data processing and validation procedures.
#
#######################################################################

data_MIRQOV
_chemical_formula_moiety         'C6 H4 Br1 Cl1 O1'
_chemical_name_systematic        4-Bromo-3-chlorophenol
_symmetry_cell_setting           tetragonal
_symmetry_space_group_name_H-M   'I 41/a'
_symmetry_Int_Tables_number      88
_space_group_name_Hall           '-I 4ad'
loop_
_symmetry_equiv_pos_site_id
_symmetry_equiv_pos_as_xyz
1 x,y,z
2 1/2-x,-y,1/2+z
3 3/4-y,1/4+x,1/4+z
4 3/4+y,3/4-x,3/4+z
5 1/2+x,1/2+y,1/2+z
6 -x,1/2-y,z
7 1/4-y,3/4+x,3/4+z
8 1/4+y,1/4-x,1/4+z
9 -x,-y,-z
10 1/2+x,y,1/2-z
11 1/4+y,3/4-x,3/4-z
12 1/4-y,1/4+x,1/4-z
13 1/2-x,1/2-y,1/2-z
14 x,1/2+y,-z
15 3/4+y,1/4-x,1/4-z
16 3/4-y,3/4+x,3/4-z
_cell_length_a                   26.419(5)
_cell_length_b                   26.419(5)
_cell_length_c                   3.8824(6)
_cell_angle_alpha                90
_cell_angle_beta                 90
_cell_angle_gamma                90
_cell_volume                     2709.77
_exptl_crystal_colour            colorless
_exptl_crystal_description       needle
_cell_formula_units_Z            16
loop_
_atom_site_label
_atom_site_type_symbol
_atom_site_fract_x
_atom_site_fract_y
_atom_site_fract_z
O1 O 0.78791(9) 0.55694(10) 0.6526(7)
H1 H 0.7967(14) 0.5311(15) 0.722(10)
Br1 Br 0.966336(12) 0.668431(13) 0.04029(9)
Cl1 Cl 0.96379(3) 0.54578(3) 0.1281(3)
C1 C 0.91149(12) 0.58070(12) 0.2564(8)
C2 C 0.87068(12) 0.55467(12) 0.3941(8)
H2 H 0.8714 0.5196 0.4111
C3 C 0.82882(11) 0.58164(12) 0.5061(8)
C4 C 0.82728(12) 0.63367(12) 0.4758(8)
H3 H 0.7991 0.6515 0.5532
C5 C 0.91041(12) 0.63287(12) 0.2225(8)
C6 C 0.86761(12) 0.65942(12) 0.3303(9)
H4 H 0.8662 0.6944 0.3045
loop_
_geom_bond_atom_site_label_1
_geom_bond_atom_site_label_2
_geom_bond_site_symmetry_1
_geom_bond_site_symmetry_2
O1 H1 1_555 1_555
Br1 C5 1_555 1_555
Cl1 C1 1_555 1_555
C1 C2 1_555 1_555
C2 H2 1_555 1_555
C3 O1 1_555 1_555
C4 C3 1_555 1_555
H3 C4 1_555 1_555
C5 C1 1_555 1_555
C6 C4 1_555 1_555
H4 C6 1_555 1_555
C2 C3 1_555 1_555
C5 C6 1_555 1_555

#END
