
#######################################################################
#
#                 Cambridge Crystallographic Data Centre
#                                CCDC 
#
#######################################################################
#
# If this CIF has been generated from an entry in the Cambridge 
# Structural Database, then it will include bibliographic, chemical, 
# crystal, experimental, refinement or atomic coordinate data resulting 
# from the CCDC's data processing and validation procedures.
#
#######################################################################

data_MIRREM01
_chemical_formula_moiety         'C6 H4 Cl1 I1 O1'
_chemical_name_systematic        4-Chloro-3-iodophenol
_symmetry_cell_setting           monoclinic
_symmetry_space_group_name_H-M   'P 21/c'
_symmetry_Int_Tables_number      14
_space_group_name_Hall           '-P 2ybc'
loop_
_symmetry_equiv_pos_site_id
_symmetry_equiv_pos_as_xyz
1 x,y,z
2 -x,1/2+y,1/2-z
3 -x,-y,-z
4 x,1/2-y,1/2+z
_cell_length_a                   11.242(18)
_cell_length_b                   4.286(7)
_cell_length_c                   15.87(2)
_cell_angle_alpha                90
_cell_angle_beta                 107.016(18)
_cell_angle_gamma                90
_cell_volume                     731.193
_exptl_crystal_colour            colorless
_exptl_crystal_description       needle
_cell_formula_units_Z            4
loop_
_atom_site_label
_atom_site_type_symbol
_atom_site_fract_x
_atom_site_fract_y
_atom_site_fract_z
C1 C 0.3375(4) 0.5104(10) -0.2217(3)
C2 C 0.3574(4) 0.3888(10) -0.1383(3)
H1 H 0.4292 0.2750 -0.1122
C3 C 0.2700(4) 0.4367(10) -0.0935(3)
C4 C 0.1630(4) 0.6041(11) -0.1337(3)
C5 C 0.1449(5) 0.7276(9) -0.2166(4)
H2 H 0.0737 0.8437 -0.2424
C6 C 0.2318(5) 0.6805(11) -0.2619(3)
H3 H 0.2191 0.7617 -0.3182
O1 O 0.4239(3) 0.4721(7) -0.2676(2)
H4 H 0.4669 0.3183 -0.2488
Cl1 Cl 0.04922(12) 0.6667(4) -0.08245(9)
I1 I 0.30915(3) 0.25670(6) 0.03422(2)
loop_
_geom_bond_atom_site_label_1
_geom_bond_atom_site_label_2
_geom_bond_site_symmetry_1
_geom_bond_site_symmetry_2
C1 C2 1_555 1_555
C2 H1 1_555 1_555
C3 C2 1_555 1_555
C4 C3 1_555 1_555
C5 C4 1_555 1_555
H2 C5 1_555 1_555
C6 C1 1_555 1_555
H3 C6 1_555 1_555
O1 C1 1_555 1_555
H4 O1 1_555 1_555
Cl1 C4 1_555 1_555
I1 C3 1_555 1_555
C5 C6 1_555 1_555

#END
