
#######################################################################
#
#                 Cambridge Crystallographic Data Centre
#                                CCDC 
#
#######################################################################
#
# If this CIF has been generated from an entry in the Cambridge 
# Structural Database, then it will include bibliographic, chemical, 
# crystal, experimental, refinement or atomic coordinate data resulting 
# from the CCDC's data processing and validation procedures.
#
#######################################################################

data_MIRSOY
_chemical_formula_moiety         'C13 H17 B1 O4'
_chemical_name_systematic        
2-hydroxy-5-(4,4,5,5-tetramethyl-1,3,2-dioxaborolan-2-yl)benzaldehyde
_symmetry_cell_setting           triclinic
_symmetry_space_group_name_H-M   'P -1'
_symmetry_Int_Tables_number      2
_space_group_name_Hall           '-P 1'
loop_
_symmetry_equiv_pos_site_id
_symmetry_equiv_pos_as_xyz
1 x,y,z
2 -x,-y,-z
_cell_length_a                   9.9937(4)
_cell_length_b                   11.7457(5)
_cell_length_c                   12.1945(5)
_cell_angle_alpha                88.725(4)
_cell_angle_beta                 71.853(3)
_cell_angle_gamma                73.444(3)
_cell_volume                     1300.36
_exptl_crystal_colour            colorless
_exptl_crystal_description       plank
_cell_formula_units_Z            4
loop_
_atom_site_label
_atom_site_type_symbol
_atom_site_fract_x
_atom_site_fract_y
_atom_site_fract_z
B1 B 0.2162(2) 0.3332(2) 1.02173(17)
O1 O 0.23595(12) 0.26191(11) 0.92737(10)
O2 O 0.15601(13) 0.28947(11) 1.12519(10)
C1 C 0.16495(18) 0.16881(17) 0.96999(15)
C2 C 0.16174(19) 0.16635(17) 1.09858(15)
C3 C 0.2553(2) 0.05481(18) 0.89613(16)
H1 H 0.213585 -0.009817 0.926857
H2 H 0.356998 0.035031 0.897079
H3 H 0.253855 0.065180 0.816495
C4 C 0.0128(2) 0.21100(19) 0.95608(17)
H4 H -0.038236 0.150355 0.980943
H5 H 0.022540 0.224232 0.874680
H6 H -0.043984 0.285599 1.003651
C5 C 0.0292(2) 0.13866(18) 1.18226(16)
H7 H 0.028798 0.058545 1.161851
H8 H -0.061052 0.196982 1.178008
H9 H 0.033911 0.142523 1.261111
C6 C 0.3037(2) 0.08699(18) 1.11396(17)
H10 H 0.310681 0.003284 1.100270
H11 H 0.303537 0.101045 1.192926
H12 H 0.388214 0.105597 1.058586
C7 C 0.26048(18) 0.44981(17) 1.01512(15)
C8 C 0.33020(18) 0.48960(17) 0.91090(16)
H13 H 0.346979 0.445996 0.840790
C9 C 0.37676(19) 0.59230(18) 0.90579(15)
C10 C 0.35148(19) 0.65686(17) 1.00961(16)
C11 C 0.28253(19) 0.61914(18) 1.11519(16)
H14 H 0.266039 0.662304 1.185470
C12 C 0.23827(19) 0.51790(17) 1.11648(16)
H15 H 0.190587 0.492898 1.189084
C13 C 0.4534(2) 0.6280(2) 0.79559(17)
H16 H 0.467021 0.581925 0.727768
O3 O 0.50206(16) 0.71418(14) 0.78387(12)
O4 O 0.39375(15) 0.75757(12) 1.00885(13)
H17 H 0.435(3) 0.766(3) 0.923(3)
B2 B 0.7343(2) 0.3353(2) 0.49983(17)
O5 O 0.68929(13) 0.30912(11) 0.61315(10)
O6 O 0.73025(12) 0.25398(11) 0.42362(10)
C14 C 0.67933(18) 0.18650(16) 0.61171(15)
C15 C 0.65631(18) 0.17267(16) 0.49261(15)
C16 C 0.5528(2) 0.17700(19) 0.71616(16)
H18 H 0.538468 0.098235 0.712139
H19 H 0.462588 0.238585 0.716716
H20 H 0.575544 0.188040 0.787056
C17 C 0.82473(19) 0.10586(17) 0.61906(16)
H21 H 0.821102 0.023324 0.623068
H22 H 0.841947 0.130442 0.688520
H23 H 0.904901 0.111823 0.550327
C18 C 0.7275(2) 0.04886(17) 0.43226(17)
H24 H 0.688079 -0.008437 0.481995
H25 H 0.834303 0.027542 0.416593
H26 H 0.706340 0.047377 0.359159
C19 C 0.49598(19) 0.21809(19) 0.49776(17)
H27 H 0.442218 0.164690 0.540927
H28 H 0.489932 0.220549 0.419022
H29 H 0.452363 0.298340 0.536660
C20 C 0.78562(17) 0.44621(17) 0.46103(15)
C21 C 0.79530(18) 0.52494(16) 0.53912(15)
H30 H 0.769703 0.509655 0.618672
C22 C 0.84120(17) 0.62606(16) 0.50577(15)
C23 C 0.87798(18) 0.64940(17) 0.38792(15)
C24 C 0.86968(19) 0.57212(17) 0.30731(15)
H31 H 0.894379 0.587469 0.227775
C25 C 0.82522(19) 0.47285(17) 0.34388(15)
H32 H 0.821077 0.420176 0.287844
C26 C 0.84682(19) 0.70585(17) 0.59153(16)
H33 H 0.822791 0.685668 0.669706
O7 O 0.88102(14) 0.79872(12) 0.56913(11)
O8 O 0.92158(15) 0.74614(12) 0.35053(12)
H34 H 0.922(3) 0.786(2) 0.417(2)
loop_
_geom_bond_atom_site_label_1
_geom_bond_atom_site_label_2
_geom_bond_site_symmetry_1
_geom_bond_site_symmetry_2
B1 O1 1_555 1_555
O1 C1 1_555 1_555
O2 B1 1_555 1_555
C1 C2 1_555 1_555
C2 O2 1_555 1_555
C3 C1 1_555 1_555
H1 C3 1_555 1_555
H2 C3 1_555 1_555
H3 C3 1_555 1_555
C4 C1 1_555 1_555
H4 C4 1_555 1_555
H5 C4 1_555 1_555
H6 C4 1_555 1_555
C5 C2 1_555 1_555
H7 C5 1_555 1_555
H8 C5 1_555 1_555
H9 C5 1_555 1_555
C6 C2 1_555 1_555
H10 C6 1_555 1_555
H11 C6 1_555 1_555
H12 C6 1_555 1_555
C7 B1 1_555 1_555
C8 C7 1_555 1_555
H13 C8 1_555 1_555
C9 C8 1_555 1_555
C10 C9 1_555 1_555
C11 C10 1_555 1_555
H14 C11 1_555 1_555
C12 C7 1_555 1_555
H15 C12 1_555 1_555
C13 C9 1_555 1_555
H16 C13 1_555 1_555
O3 C13 1_555 1_555
O4 C10 1_555 1_555
H17 O4 1_555 1_555
B2 O5 1_555 1_555
O5 C14 1_555 1_555
O6 B2 1_555 1_555
C14 C15 1_555 1_555
C15 O6 1_555 1_555
C16 C14 1_555 1_555
H18 C16 1_555 1_555
H19 C16 1_555 1_555
H20 C16 1_555 1_555
C17 C14 1_555 1_555
H21 C17 1_555 1_555
H22 C17 1_555 1_555
H23 C17 1_555 1_555
C18 C15 1_555 1_555
H24 C18 1_555 1_555
H25 C18 1_555 1_555
H26 C18 1_555 1_555
C19 C15 1_555 1_555
H27 C19 1_555 1_555
H28 C19 1_555 1_555
H29 C19 1_555 1_555
C20 B2 1_555 1_555
C21 C20 1_555 1_555
H30 C21 1_555 1_555
C22 C21 1_555 1_555
C23 C22 1_555 1_555
C24 C23 1_555 1_555
H31 C24 1_555 1_555
C25 C20 1_555 1_555
H32 C25 1_555 1_555
C26 C22 1_555 1_555
H33 C26 1_555 1_555
O7 C26 1_555 1_555
O8 C23 1_555 1_555
H34 O8 1_555 1_555
C11 C12 1_555 1_555
C24 C25 1_555 1_555

#END
