
#######################################################################
#
#                 Cambridge Crystallographic Data Centre
#                                CCDC 
#
#######################################################################
#
# If this CIF has been generated from an entry in the Cambridge 
# Structural Database, then it will include bibliographic, chemical, 
# crystal, experimental, refinement or atomic coordinate data resulting 
# from the CCDC's data processing and validation procedures.
#
#######################################################################

data_MIRZUJ
_chemical_compound_source        'Aspergillus variecolor B-17'
_chemical_name_common            'Questinol monohydrate'
_chemical_formula_moiety         'C16 H12 O6,H2 O1'
_chemical_name_systematic        
'1,6-Dihydroxy-3-hydroxymethyl-8-methoxyanthracene-9,10-dione monohydrate'
_symmetry_cell_setting           monoclinic
_symmetry_space_group_name_H-M   'P 21/c'
_symmetry_Int_Tables_number      14
_space_group_name_Hall           '-P 2ybc'
loop_
_symmetry_equiv_pos_site_id
_symmetry_equiv_pos_as_xyz
1 x,y,z
2 -x,1/2+y,1/2-z
3 -x,-y,-z
4 x,1/2-y,1/2+z
_cell_length_a                   11.3317(11)
_cell_length_b                   16.7515(19)
_cell_length_c                   7.2193(9)
_cell_angle_alpha                90
_cell_angle_beta                 95.453(2)
_cell_angle_gamma                90
_cell_volume                     1364.19
_exptl_crystal_colour            yellow
_exptl_crystal_description       flake
_cell_formula_units_Z            4
_exptl_crystal_recrystallization_method chloroform/methanol
loop_
_atom_site_label
_atom_site_type_symbol
_atom_site_fract_x
_atom_site_fract_y
_atom_site_fract_z
O1 O 0.47014(19) 0.62825(13) 0.9624(3)
H1 H 0.4927 0.5828 0.9423
O2 O 0.4486(2) 0.91888(13) 0.8924(3)
H2 H 0.4215 0.9337 0.7887
O3 O 0.9454(2) 0.74461(14) 0.7759(4)
O4 O 1.1510(2) 0.48495(14) 0.6863(3)
H3 H 1.1898 0.5246 0.6644
O5 O 0.77278(19) 0.40952(13) 0.8557(3)
O6 O 0.6237(2) 0.52178(13) 0.9245(3)
C1 C 0.5559(3) 0.6817(2) 0.9249(4)
C2 C 0.5248(3) 0.76155(18) 0.9251(4)
H6 H 0.4486 0.7763 0.9485
C3 C 0.6068(3) 0.8194(2) 0.8904(4)
C4 C 0.7203(3) 0.79692(18) 0.8534(4)
H7 H 0.7757 0.8358 0.8308
C5 C 0.7514(3) 0.7171(2) 0.8500(4)
C6 C 0.8705(3) 0.6940(2) 0.8020(4)
C7 C 0.9000(3) 0.60779(19) 0.7896(4)
C8 C 1.0101(3) 0.5876(2) 0.7384(4)
H8 H 1.0626 0.6274 0.7094
C9 C 1.0428(3) 0.5076(2) 0.7301(4)
C10 C 0.9635(3) 0.4471(2) 0.7656(4)
H9 H 0.9851 0.3939 0.7549
C11 C 0.8527(3) 0.4668(2) 0.8167(4)
C12 C 0.8161(3) 0.54798(19) 0.8292(4)
C13 C 0.7004(3) 0.5714(2) 0.8841(4)
C14 C 0.6699(3) 0.65733(19) 0.8854(4)
C15 C 0.5733(3) 0.90622(19) 0.8933(4)
H10 H 0.6132 0.9309 1.0036
H11 H 0.6010 0.9324 0.7856
C16 C 0.8055(3) 0.3271(2) 0.8389(5)
H12 H 0.8225 0.3165 0.7135
H13 H 0.7413 0.2936 0.8694
H14 H 0.8746 0.3160 0.9226
O7 O 0.2909(2) 0.61113(14) 0.6547(3)
H4 H 0.3423 0.6145 0.7481
H5 H 0.3279 0.6016 0.5601
loop_
_geom_bond_atom_site_label_1
_geom_bond_atom_site_label_2
_geom_bond_site_symmetry_1
_geom_bond_site_symmetry_2
O1 H1 1_555 1_555
O2 H2 1_555 1_555
O3 C6 1_555 1_555
O4 H3 1_555 1_555
O5 C11 1_555 1_555
O6 C13 1_555 1_555
O7 H4 1_555 1_555
H5 O7 1_555 1_555
C1 O1 1_555 1_555
C2 C1 1_555 1_555
H6 C2 1_555 1_555
C3 C2 1_555 1_555
C4 C3 1_555 1_555
H7 C4 1_555 1_555
C5 C4 1_555 1_555
C6 C5 1_555 1_555
C7 C6 1_555 1_555
C8 C7 1_555 1_555
H8 C8 1_555 1_555
C9 O4 1_555 1_555
C10 C9 1_555 1_555
H9 C10 1_555 1_555
C11 C10 1_555 1_555
C12 C7 1_555 1_555
C13 C12 1_555 1_555
C14 C1 1_555 1_555
C15 O2 1_555 1_555
H10 C15 1_555 1_555
H11 C15 1_555 1_555
C16 O5 1_555 1_555
H12 C16 1_555 1_555
H13 C16 1_555 1_555
H14 C16 1_555 1_555
C3 C15 1_555 1_555
C5 C14 1_555 1_555
C8 C9 1_555 1_555
C11 C12 1_555 1_555
C13 C14 1_555 1_555

#END
