
#######################################################################
#
#                 Cambridge Crystallographic Data Centre
#                                CCDC 
#
#######################################################################
#
# If this CIF has been generated from an entry in the Cambridge 
# Structural Database, then it will include bibliographic, chemical, 
# crystal, experimental, refinement or atomic coordinate data resulting 
# from the CCDC's data processing and validation procedures.
#
#######################################################################

data_MISCUP
_chemical_formula_moiety         'C21 H27 N1 O4'
_chemical_name_systematic        
"methyl 5a,10b,11b-trimethyl-1,5,5a,7,9,10a,10b,11,11a,11b-decahydro-4H-furo[4',3',2':8,9]phenanthro[2,1-c][1,2]oxazole-8-carboxylate"
_symmetry_cell_setting           monoclinic
_symmetry_space_group_name_H-M   'P 21'
_symmetry_Int_Tables_number      4
_space_group_name_Hall           'P 2yb'
loop_
_symmetry_equiv_pos_site_id
_symmetry_equiv_pos_as_xyz
1 x,y,z
2 -x,1/2+y,-z
_cell_length_a                   7.3514(3)
_cell_length_b                   7.7395(3)
_cell_length_c                   16.0309(6)
_cell_angle_alpha                90
_cell_angle_beta                 94.117(4)
_cell_angle_gamma                90
_cell_volume                     909.743
_cell_formula_units_Z            2
loop_
_atom_site_label
_atom_site_type_symbol
_atom_site_fract_x
_atom_site_fract_y
_atom_site_fract_z
O1 O -0.63183(18) -1.02357(17) -0.05246(8)
O2 O -0.46858(15) -0.44449(18) -0.27522(7)
O3 O -0.7672(2) -0.4861(2) -0.59091(8)
O4 O -0.54324(19) -0.32242(19) -0.53067(8)
N1 N -0.8175(2) -1.0447(2) -0.08364(9)
C1 C -0.8794(2) -0.8969(2) -0.10567(9)
C2 C -0.7853(2) -0.6613(2) -0.00867(10)
H1 H -0.9084 -0.6190 -0.0119
H2 H -0.7024 -0.5667 0.0018
H3 H -0.7691 -0.7437 0.0360
C3 C -1.0677(2) -0.8641(2) -0.14341(10)
H4 H -1.1383 -0.8044 -0.1035
H5 H -1.1275 -0.9731 -0.1575
C4 C -1.0547(2) -0.4602(2) -0.15522(10)
H6 H -1.0901 -0.5193 -0.1063
H7 H -1.1616 -0.4206 -0.1875
H8 H -0.9792 -0.3631 -0.1387
C5 C -1.0582(2) -0.7533(2) -0.22280(10)
H9 H -1.1813 -0.7237 -0.2439
H10 H -1.0039 -0.8214 -0.2653
C6 C -0.6361(2) -0.4686(2) -0.15250(9)
H11 H -0.6943 -0.3957 -0.1130
H12 H -0.5177 -0.5022 -0.1270
C7 C -0.9472(2) -0.5850(2) -0.20848(9)
C8 C -0.7517(2) -0.6303(2) -0.16927(9)
H13 H -0.6924 -0.6953 -0.2122
C9 C -0.7470(2) -0.7488(2) -0.09186(9)
C10 C -0.5721(2) -0.8560(2) -0.08046(11)
H14 H -0.5145 -0.8662 -0.1328
H15 H -0.4863 -0.8039 -0.0390
C11 C -0.9180(2) -0.4983(2) -0.29257(10)
C12 C -0.7768(2) -0.3536(2) -0.29566(9)
C13 C -0.6097(2) -0.3658(2) -0.23104(10)
H16 H -0.5713 -0.2485 -0.2149
C14 C -0.4831(2) -0.3670(3) -0.35674(10)
H17 H -0.4206 -0.4355 -0.3966
H18 H -0.4340 -0.2507 -0.3553
C15 C -0.6850(2) -0.3665(2) -0.37750(10)
C16 C -0.7830(2) -0.3985(2) -0.44953(10)
C17 C -0.9817(2) -0.4478(3) -0.44620(10)
H19 H -1.0568 -0.3450 -0.4527
H20 H -1.0166 -0.5255 -0.4921
C18 C -1.0150(2) -0.5347(2) -0.36420(10)
H21 H -1.1069 -0.6171 -0.3635
C19 C -0.7014(3) -0.4097(2) -0.53070(11)
C20 C -0.4452(3) -0.3372(3) -0.60498(13)
H22 H -0.5178 -0.2903 -0.6518
H23 H -0.4200 -0.4567 -0.6153
H24 H -0.3326 -0.2745 -0.5974
C21 C -0.8721(3) -0.1763(2) -0.29043(11)
H25 H -0.7848 -0.0857 -0.2966
H26 H -0.9229 -0.1653 -0.2372
H27 H -0.9678 -0.1676 -0.3343
loop_
_geom_bond_atom_site_label_1
_geom_bond_atom_site_label_2
_geom_bond_site_symmetry_1
_geom_bond_site_symmetry_2
O1 N1 1_555 1_555
O2 C13 1_555 1_555
O3 C19 1_555 1_555
O4 C19 1_555 1_555
N1 C1 1_555 1_555
C1 C3 1_555 1_555
C2 H1 1_555 1_555
H2 C2 1_555 1_555
H3 C2 1_555 1_555
C3 H4 1_555 1_555
H5 C3 1_555 1_555
C4 H6 1_555 1_555
H7 C4 1_555 1_555
H8 C4 1_555 1_555
C5 C3 1_555 1_555
H9 C5 1_555 1_555
H10 C5 1_555 1_555
C6 H11 1_555 1_555
H12 C6 1_555 1_555
C7 C4 1_555 1_555
C8 C6 1_555 1_555
H13 C8 1_555 1_555
C9 C1 1_555 1_555
C10 O1 1_555 1_555
H14 C10 1_555 1_555
H15 C10 1_555 1_555
C11 C7 1_555 1_555
C12 C11 1_555 1_555
C13 C6 1_555 1_555
H16 C13 1_555 1_555
C14 O2 1_555 1_555
H17 C14 1_555 1_555
H18 C14 1_555 1_555
C15 C12 1_555 1_555
C16 C15 1_555 1_555
C17 C16 1_555 1_555
H19 C17 1_555 1_555
H20 C17 1_555 1_555
C18 C11 1_555 1_555
H21 C18 1_555 1_555
C19 C16 1_555 1_555
C20 O4 1_555 1_555
H22 C20 1_555 1_555
H23 C20 1_555 1_555
H24 C20 1_555 1_555
C21 C12 1_555 1_555
H25 C21 1_555 1_555
H26 C21 1_555 1_555
H27 C21 1_555 1_555
C2 C9 1_555 1_555
C5 C7 1_555 1_555
C7 C8 1_555 1_555
C8 C9 1_555 1_555
C9 C10 1_555 1_555
C12 C13 1_555 1_555
C14 C15 1_555 1_555
C17 C18 1_555 1_555

#END
