
#######################################################################
#
#                 Cambridge Crystallographic Data Centre
#                                CCDC 
#
#######################################################################
#
# If this CIF has been generated from an entry in the Cambridge 
# Structural Database, then it will include bibliographic, chemical, 
# crystal, experimental, refinement or atomic coordinate data resulting 
# from the CCDC's data processing and validation procedures.
#
#######################################################################

data_MISDAW
_chemical_formula_moiety         'C16 H23 N1 O2'
_chemical_name_systematic        
6-ethenyl-5a,7,9b-trimethyl-1,4,5,5a,8,9,9a,9b-octahydronaphtho[2,1-c][1,2]oxazol-8-ol
_symmetry_cell_setting           orthorhombic
_symmetry_space_group_name_H-M   'P 21 21 21'
_symmetry_Int_Tables_number      19
_space_group_name_Hall           'P 2ac 2ab'
loop_
_symmetry_equiv_pos_site_id
_symmetry_equiv_pos_as_xyz
1 x,y,z
2 1/2-x,-y,1/2+z
3 1/2+x,1/2-y,-z
4 -x,1/2+y,1/2-z
_cell_length_a                   7.3868(4)
_cell_length_b                   17.0662(9)
_cell_length_c                   23.1039(11)
_cell_angle_alpha                90
_cell_angle_beta                 90
_cell_angle_gamma                90
_cell_volume                     2912.58
_exptl_crystal_colour            'light colorless'
_exptl_crystal_description       block
_cell_formula_units_Z            8
loop_
_atom_site_label
_atom_site_type_symbol
_atom_site_fract_x
_atom_site_fract_y
_atom_site_fract_z
O1 O -0.6094(5) -0.6817(2) -0.35587(13)
O2 O -0.8950(3) -0.32968(14) -0.46537(10)
H1 H -0.8244 -0.3196 -0.4917
N1 N -0.6526(5) -0.7255(2) -0.40684(18)
C1 C -0.6232(6) -0.5998(3) -0.36975(17)
H2 H -0.5262 -0.5707 -0.3514
H3 H -0.7380 -0.5790 -0.3564
C2 C -0.6093(5) -0.5932(2) -0.43545(15)
C3 C -0.6512(5) -0.6778(3) -0.44952(19)
C4 C -0.7017(6) -0.7003(2) -0.50961(19)
H4 H -0.7439 -0.7541 -0.5101
H5 H -0.5962 -0.6968 -0.5345
C5 C -0.8495(6) -0.6467(2) -0.53241(18)
H6 H -0.9610 -0.6581 -0.5119
H7 H -0.8694 -0.6584 -0.5730
C6 C -0.8076(5) -0.5586(2) -0.52618(15)
C7 C -0.7621(5) -0.5422(2) -0.46179(15)
H8 H -0.8713 -0.5575 -0.4405
C8 C -0.7426(5) -0.4548(2) -0.45073(15)
H9 H -0.7050 -0.4463 -0.4110
H10 H -0.6500 -0.4335 -0.4760
C9 C -0.9195(5) -0.4131(2) -0.46154(15)
H11 H -0.9957 -0.4226 -0.4275
C10 C -1.0227(5) -0.4444(2) -0.51337(16)
C11 C -0.9737(5) -0.5092(2) -0.54201(16)
C12 C -0.4142(5) -0.5717(3) -0.45319(18)
H12 H -0.3975 -0.5825 -0.4936
H13 H -0.3301 -0.6022 -0.4309
H14 H -0.3937 -0.5170 -0.4461
C13 C -0.6558(5) -0.5358(2) -0.56964(15)
H15 H -0.6150 -0.4835 -0.5615
H16 H -0.7023 -0.5381 -0.6084
H17 H -0.5563 -0.5716 -0.5658
C14 C -1.0774(6) -0.5383(3) -0.5931(2)
H18 H -1.1343 -0.5867 -0.5898
C15 C -1.1932(5) -0.3988(3) -0.5266(2)
H19 H -1.2644 -0.4270 -0.5544
H20 H -1.1615 -0.3484 -0.5421
H21 H -1.2620 -0.3919 -0.4917
C16 C -1.0939(9) -0.5021(3) -0.6410(2)
H22 H -1.0390 -0.4535 -0.6460
H23 H -1.1610 -0.5241 -0.6709
O3 O -0.3863(5) -0.4278(2) -0.82647(13)
O4 O -0.6419(3) -0.29606(15) -0.55417(9)
H24 H -0.5771 -0.2579 -0.5482
N2 N -0.4176(5) -0.3532(3) -0.85361(15)
C17 C -0.4186(7) -0.4179(3) -0.76554(18)
H25 H -0.3346 -0.4493 -0.7431
H26 H -0.5411 -0.4334 -0.7557
C18 C -0.3900(5) -0.3308(2) -0.75335(15)
C19 C -0.4203(5) -0.3009(3) -0.81406(16)
C20 C -0.4588(6) -0.2171(3) -0.82496(16)
H27 H -0.4957 -0.2098 -0.8649
H28 H -0.3505 -0.1862 -0.8183
C21 C -0.6109(6) -0.1897(3) -0.78408(15)
H29 H -0.7228 -0.2155 -0.7949
H30 H -0.6281 -0.1337 -0.7888
C22 C -0.5702(5) -0.2074(2) -0.71947(15)
C23 C -0.5355(5) -0.2964(2) -0.71276(13)
H31 H -0.6490 -0.3216 -0.7244
C24 C -0.5105(5) -0.3178(2) -0.64921(14)
H32 H -0.4802 -0.3729 -0.6460
H33 H -0.4112 -0.2877 -0.6331
C25 C -0.6819(5) -0.3012(2) -0.61528(14)
H34 H -0.7619 -0.3465 -0.6205
C26 C -0.7845(5) -0.2298(2) -0.63605(15)
C27 C -0.7372(5) -0.1880(2) -0.68228(16)
C28 C -0.9528(5) -0.2128(3) -0.60046(16)
H35 H -1.0257 -0.2592 -0.5980
H36 H -1.0212 -0.1718 -0.6187
H37 H -0.9180 -0.1965 -0.5623
C29 C -0.1917(5) -0.3155(3) -0.73415(19)
H38 H -0.1692 -0.2601 -0.7336
H39 H -0.1103 -0.3403 -0.7609
H40 H -0.1731 -0.3367 -0.6961
C30 C -0.4176(6) -0.1529(2) -0.69837(18)
H41 H -0.3821 -0.1678 -0.6599
H42 H -0.4600 -0.0998 -0.6982
H43 H -0.3155 -0.1573 -0.7239
C31 C -0.8149(15) -0.1068(8) -0.6907(5)
H44 H -0.7678 -0.0648 -0.6699
C32 C -0.9536(14) -0.0946(8) -0.7287(4)
H45 H -1.0011 -0.1363 -0.7496
H46 H -1.0007 -0.0445 -0.7336
C33? C -0.904(2) -0.0681(8) -0.6845(6)
H47? H -0.8487 -0.0545 -0.6497
H48? H -0.9864 -0.0342 -0.7017
C34? C -0.869(2) -0.1301(8) -0.7073(7)
H49? H -0.9255 -0.1424 -0.7420
loop_
_geom_bond_atom_site_label_1
_geom_bond_atom_site_label_2
_geom_bond_site_symmetry_1
_geom_bond_site_symmetry_2
O1 N1 1_555 1_555
O2 H1 1_555 1_555
N1 C3 1_555 1_555
C1 O1 1_555 1_555
H2 C1 1_555 1_555
H3 C1 1_555 1_555
C2 C1 1_555 1_555
C3 C2 1_555 1_555
C4 C3 1_555 1_555
H4 C4 1_555 1_555
H5 C4 1_555 1_555
C5 C4 1_555 1_555
H6 C5 1_555 1_555
H7 C5 1_555 1_555
C6 C5 1_555 1_555
C7 C2 1_555 1_555
H8 C7 1_555 1_555
C8 C7 1_555 1_555
H9 C8 1_555 1_555
H10 C8 1_555 1_555
C9 O2 1_555 1_555
H11 C9 1_555 1_555
C10 C9 1_555 1_555
C11 C6 1_555 1_555
C12 C2 1_555 1_555
H12 C12 1_555 1_555
H13 C12 1_555 1_555
H14 C12 1_555 1_555
C13 C6 1_555 1_555
H15 C13 1_555 1_555
H16 C13 1_555 1_555
H17 C13 1_555 1_555
C14 C11 1_555 1_555
H18 C14 1_555 1_555
C15 C10 1_555 1_555
H19 C15 1_555 1_555
H20 C15 1_555 1_555
H21 C15 1_555 1_555
C16 C14 1_555 1_555
H22 C16 1_555 1_555
H23 C16 1_555 1_555
O3 N2 1_555 1_555
O4 H24 1_555 1_555
N2 C19 1_555 1_555
C17 O3 1_555 1_555
H25 C17 1_555 1_555
H26 C17 1_555 1_555
C18 C17 1_555 1_555
C19 C18 1_555 1_555
C20 C19 1_555 1_555
H27 C20 1_555 1_555
H28 C20 1_555 1_555
C21 C20 1_555 1_555
H29 C21 1_555 1_555
H30 C21 1_555 1_555
C22 C21 1_555 1_555
C23 C18 1_555 1_555
H31 C23 1_555 1_555
C24 C23 1_555 1_555
H32 C24 1_555 1_555
H33 C24 1_555 1_555
C25 O4 1_555 1_555
H34 C25 1_555 1_555
C26 C25 1_555 1_555
C27 C22 1_555 1_555
C28 C26 1_555 1_555
H35 C28 1_555 1_555
H36 C28 1_555 1_555
H37 C28 1_555 1_555
C29 C18 1_555 1_555
H38 C29 1_555 1_555
H39 C29 1_555 1_555
H40 C29 1_555 1_555
C30 C22 1_555 1_555
H41 C30 1_555 1_555
H42 C30 1_555 1_555
H43 C30 1_555 1_555
C31 C27 1_555 1_555
H44 C31 1_555 1_555
C32 C31 1_555 1_555
H45 C32 1_555 1_555
H46 C32 1_555 1_555
C6 C7 1_555 1_555
C8 C9 1_555 1_555
C10 C11 1_555 1_555
C22 C23 1_555 1_555
C24 C25 1_555 1_555
C26 C27 1_555 1_555

#END
