
#######################################################################
#
#                 Cambridge Crystallographic Data Centre
#                                CCDC 
#
#######################################################################
#
# If this CIF has been generated from an entry in the Cambridge 
# Structural Database, then it will include bibliographic, chemical, 
# crystal, experimental, refinement or atomic coordinate data resulting 
# from the CCDC's data processing and validation procedures.
#
#######################################################################

data_MISDEA
_chemical_formula_moiety         'C16 H23 N1 O2'
_chemical_name_systematic        
6-ethenyl-5a,7,9b-trimethyl-1,4,5,5a,8,9,9a,9b-octahydronaphtho[2,1-c][1,2]oxazol-8-ol
_symmetry_cell_setting           orthorhombic
_symmetry_space_group_name_H-M   'P 21 21 21'
_symmetry_Int_Tables_number      19
_space_group_name_Hall           'P 2ac 2ab'
loop_
_symmetry_equiv_pos_site_id
_symmetry_equiv_pos_as_xyz
1 x,y,z
2 1/2-x,-y,1/2+z
3 1/2+x,1/2-y,-z
4 -x,1/2+y,1/2-z
_cell_length_a                   9.8834(3)
_cell_length_b                   10.2262(3)
_cell_length_c                   13.9008(4)
_cell_angle_alpha                90
_cell_angle_beta                 90
_cell_angle_gamma                90
_cell_volume                     1404.95
_exptl_crystal_colour            'light colorless'
_exptl_crystal_description       block
_cell_formula_units_Z            4
loop_
_atom_site_label
_atom_site_type_symbol
_atom_site_fract_x
_atom_site_fract_y
_atom_site_fract_z
O1 O -0.03160(18) -0.20675(18) -0.03395(13)
O2 O 0.45300(19) 0.05893(19) 0.08923(12)
H1 H 0.477(4) -0.017(4) 0.089(2)
N1 N 0.0331(2) -0.2821(2) -0.10892(15)
C1 C 0.1228(2) -0.2102(2) -0.14834(16)
C2 C 0.2142(2) -0.2552(2) -0.22619(18)
H2 H 0.1888 -0.2125 -0.2875
H3 H 0.2052 -0.3509 -0.2345
C3 C 0.3619(2) -0.2207(2) -0.20056(18)
H4 H 0.4209 -0.2428 -0.2558
H5 H 0.3909 -0.2746 -0.1451
C4 C 0.3808(2) -0.0744(2) -0.17524(16)
C5 C 0.5269(2) -0.0486(2) -0.14093(17)
C6 C 0.5575(2) 0.0308(2) -0.06718(16)
C7 C 0.4520(2) 0.1028(2) -0.00893(16)
H6 H 0.4779 0.1974 -0.0086
C8 C 0.3106(2) 0.0937(2) -0.05108(16)
H7 H 0.3006 0.1580 -0.1038
H8 H 0.2429 0.1145 -0.0009
C9 C 0.2859(2) -0.0436(2) -0.08947(15)
H9 H 0.3148 -0.1039 -0.0367
C10 C 0.1349(2) -0.0742(2) -0.10678(15)
C11 C 0.0579(2) -0.0993(3) -0.01298(17)
H10 H 0.1211 -0.1225 0.0395
H11 H 0.0058 -0.0209 0.0063
C12 C 0.0564(2) 0.0243(2) -0.16929(18)
H12 H 0.0925 0.0231 -0.2349
H13 H 0.0663 0.1123 -0.1422
H14 H -0.0396 0.0003 -0.1705
C13 C 0.3574(3) 0.0084(3) -0.26592(17)
H15 H 0.4301 -0.0083 -0.3123
H16 H 0.3571 0.1013 -0.2486
H17 H 0.2702 -0.0149 -0.2947
C14 C 0.7005(2) 0.0556(3) -0.0334(2)
H18 H 0.7442 -0.0279 -0.0182
H19 H 0.6986 0.1107 0.0243
H20 H 0.7513 0.1001 -0.0843
C15 C 0.6448(9) -0.1239(8) -0.1831(5)
H21 H 0.6833 -0.1912 -0.1448
C16 C 0.6978(5) -0.1035(5) -0.2678(4)
H22 H 0.6623 -0.0371 -0.3083
H23 H 0.7720 -0.1552 -0.2889
C17? C 0.6246(11) -0.0985(10) -0.2137(7)
H24? H 0.6072 -0.0828 -0.2799
C18? C 0.7365(6) -0.1648(7) -0.1889(5)
H25? H 0.7554 -0.1813 -0.1230
H26? H 0.7967 -0.1952 -0.2372
loop_
_geom_bond_atom_site_label_1
_geom_bond_atom_site_label_2
_geom_bond_site_symmetry_1
_geom_bond_site_symmetry_2
O1 N1 1_555 1_555
O2 H1 1_555 1_555
N1 C1 1_555 1_555
C1 C2 1_555 1_555
C2 H2 1_555 1_555
H3 C2 1_555 1_555
C3 C2 1_555 1_555
H4 C3 1_555 1_555
H5 C3 1_555 1_555
C4 C3 1_555 1_555
C5 C4 1_555 1_555
C6 C5 1_555 1_555
C7 O2 1_555 1_555
H6 C7 1_555 1_555
C8 C7 1_555 1_555
H7 C8 1_555 1_555
H8 C8 1_555 1_555
C9 C4 1_555 1_555
H9 C9 1_555 1_555
C10 C1 1_555 1_555
C11 O1 1_555 1_555
H10 C11 1_555 1_555
H11 C11 1_555 1_555
C12 C10 1_555 1_555
H12 C12 1_555 1_555
H13 C12 1_555 1_555
H14 C12 1_555 1_555
C13 C4 1_555 1_555
H15 C13 1_555 1_555
H16 C13 1_555 1_555
H17 C13 1_555 1_555
C14 C6 1_555 1_555
H18 C14 1_555 1_555
H19 C14 1_555 1_555
H20 C14 1_555 1_555
C15 C5 1_555 1_555
H21 C15 1_555 1_555
C16 C15 1_555 1_555
H22 C16 1_555 1_555
H23 C16 1_555 1_555
C6 C7 1_555 1_555
C8 C9 1_555 1_555
C9 C10 1_555 1_555
C10 C11 1_555 1_555

#END
