
#######################################################################
#
#                 Cambridge Crystallographic Data Centre
#                                CCDC 
#
#######################################################################
#
# If this CIF has been generated from an entry in the Cambridge 
# Structural Database, then it will include bibliographic, chemical, 
# crystal, experimental, refinement or atomic coordinate data resulting 
# from the CCDC's data processing and validation procedures.
#
#######################################################################

data_MISHUU
_chemical_formula_moiety         'C16 H15 N1 O2'
_chemical_name_systematic        
3-(3,4-dimethoxyphenyl)bicyclo[2.2.1]hepta-2,5-diene-2-carbonitrile
_symmetry_cell_setting           monoclinic
_symmetry_space_group_name_H-M   'P 21/c'
_symmetry_Int_Tables_number      14
_space_group_name_Hall           '-P 2ybc'
loop_
_symmetry_equiv_pos_site_id
_symmetry_equiv_pos_as_xyz
1 x,y,z
2 -x,1/2+y,1/2-z
3 -x,-y,-z
4 x,1/2-y,1/2+z
_cell_length_a                   14.9437(4)
_cell_length_b                   9.3159(3)
_cell_length_c                   9.3747(3)
_cell_angle_alpha                90
_cell_angle_beta                 93.538(3)
_cell_angle_gamma                90
_cell_volume                     1302.6
_exptl_crystal_colour            colorless
_exptl_crystal_description       plate
_cell_formula_units_Z            4
loop_
_atom_site_label
_atom_site_type_symbol
_atom_site_fract_x
_atom_site_fract_y
_atom_site_fract_z
C1 C 0.28954(8) 0.08652(13) 1.12301(12)
C2 C 0.37165(8) 0.02421(14) 1.13642(13)
C3 C 0.42035(9) 0.08056(15) 1.27489(14)
H1 H 0.4870 0.0690 1.2841
C4 C 0.36814(10) 0.02327(17) 1.39696(15)
H2 H 0.3893 -0.0433 1.4681
C5 C 0.28842(10) 0.08298(16) 1.38567(14)
H3 H 0.2412 0.0669 1.4471
C6 C 0.28520(9) 0.18313(14) 1.25592(13)
H4 H 0.2376 0.2588 1.2519
C7 C 0.38367(10) 0.23642(15) 1.26810(15)
H5 H 0.3987 0.2922 1.3562
H6 H 0.4009 0.2900 1.1828
C8 C 0.40829(8) -0.08385(14) 1.05162(14)
N1 N 0.43912(8) -0.17302(14) 0.98528(14)
C9 C 0.21688(8) 0.07112(13) 1.01249(12)
C10 C 0.22738(8) -0.01782(12) 0.89322(12)
H7 H 0.2812 -0.0712 0.8873
C11 C 0.16123(8) -0.02901(12) 0.78501(12)
C12 C 0.08116(8) 0.04998(14) 0.79162(13)
C13 C 0.06983(8) 0.13702(15) 0.90849(14)
H8 H 0.0160 0.1903 0.9143
C14 C 0.13714(8) 0.14701(14) 1.01803(13)
H9 H 0.1283 0.2069 1.0980
O1 O 0.16745(6) -0.11108(10) 0.66557(9)
C15 C 0.24771(10) -0.19254(16) 0.65693(15)
H10 H 0.2994 -0.1276 0.6613
H11 H 0.2454 -0.2457 0.5666
H12 H 0.2535 -0.2602 0.7370
O2 O 0.02177(6) 0.03267(11) 0.67718(10)
C16 C -0.05870(9) 0.11592(19) 0.67447(16)
H13 H -0.0940 0.0878 0.7547
H14 H -0.0939 0.0989 0.5843
H15 H -0.0434 0.2180 0.6826
loop_
_geom_bond_atom_site_label_1
_geom_bond_atom_site_label_2
_geom_bond_site_symmetry_1
_geom_bond_site_symmetry_2
C1 C2 1_555 1_555
C2 C3 1_555 1_555
C3 H1 1_555 1_555
C4 C3 1_555 1_555
H2 C4 1_555 1_555
C5 C4 1_555 1_555
H3 C5 1_555 1_555
C6 C1 1_555 1_555
H4 C6 1_555 1_555
C7 C3 1_555 1_555
H5 C7 1_555 1_555
H6 C7 1_555 1_555
C8 C2 1_555 1_555
N1 C8 1_555 1_555
C9 C1 1_555 1_555
C10 C9 1_555 1_555
H7 C10 1_555 1_555
C11 C10 1_555 1_555
C12 C11 1_555 1_555
C13 C12 1_555 1_555
H8 C13 1_555 1_555
C14 C9 1_555 1_555
H9 C14 1_555 1_555
O1 C11 1_555 1_555
C15 O1 1_555 1_555
H10 C15 1_555 1_555
H11 C15 1_555 1_555
H12 C15 1_555 1_555
O2 C12 1_555 1_555
C16 O2 1_555 1_555
H13 C16 1_555 1_555
H14 C16 1_555 1_555
H15 C16 1_555 1_555
C5 C6 1_555 1_555
C6 C7 1_555 1_555
C13 C14 1_555 1_555

#END
