
#######################################################################
#
#                 Cambridge Crystallographic Data Centre
#                                CCDC 
#
#######################################################################
#
# If this CIF has been generated from an entry in the Cambridge 
# Structural Database, then it will include bibliographic, chemical, 
# crystal, experimental, refinement or atomic coordinate data resulting 
# from the CCDC's data processing and validation procedures.
#
#######################################################################

data_MISWIV
_chemical_formula_moiety         'C62 H72 N4 O4,2(C1 H2 Cl2)'
_chemical_name_systematic        
'1^5^,7^5^,11^5^,17^5^-Tetra-t-butyl-1^2^,7^2^,11^2^,17^2^-tetrahydroxy-3,5,13,15-tetra-aza-4,14(1,2)dibenzena-1,7,11,17(1,3)tetrabenzenacycloicosaphane-2,5,12,15-tetraene dichloromethane solvate'
_symmetry_cell_setting           triclinic
_symmetry_space_group_name_H-M   'P -1'
_symmetry_Int_Tables_number      2
_space_group_name_Hall           '-P 1'
loop_
_symmetry_equiv_pos_site_id
_symmetry_equiv_pos_as_xyz
1 x,y,z
2 -x,-y,-z
_cell_length_a                   9.6084(12)
_cell_length_b                   10.9452(12)
_cell_length_c                   14.349(2)
_cell_angle_alpha                91.968(8)
_cell_angle_beta                 101.050(7)
_cell_angle_gamma                103.511(8)
_cell_volume                     1435.1
_exptl_crystal_colour            yellow
_exptl_crystal_description       parallelepiped
_chemical_melting_point          '232-233 deg.C(dec.)'
_cell_formula_units_Z            1
_exptl_crystal_recrystallization_method dichloromethane/methanol
loop_
_atom_site_label
_atom_site_type_symbol
_atom_site_fract_x
_atom_site_fract_y
_atom_site_fract_z
N1 N 0.2319(2) 0.47490(17) 0.94963(13)
N2 N 0.4351(2) 0.49719(17) 0.83655(13)
O1 O 0.33695(17) 0.71214(14) 1.00169(11)
H1 H 0.3186 0.6375 0.9663
O2 O 0.60521(17) 0.71414(14) 0.91771(10)
H2 H 0.5493 0.6339 0.9146
C1 C 0.3097(2) 0.7912(2) 1.15134(16)
C2 C 0.2803(2) 0.6909(2) 1.08053(16)
C3 C 0.1993(2) 0.5699(2) 1.09427(16)
C4 C 0.1488(2) 0.5502(2) 1.17960(16)
H3 H 0.0957 0.4702 1.1884
C5 C 0.1757(2) 0.6462(2) 1.25078(15)
C6 C 0.2574(2) 0.7653(2) 1.23425(16)
H4 H 0.2775 0.8307 1.2817
C7 C 0.1283(2) 0.6247(2) 1.34649(16)
C8 C 0.0334(3) 0.4922(2) 1.34739(18)
H5 H 0.0872 0.4314 1.3359
H6 H -0.0534 0.4792 1.2985
H7 H 0.0067 0.4824 1.4083
C9 C 0.2650(3) 0.6438(2) 1.42594(17)
H8 H 0.2363 0.6315 1.4861
H9 H 0.3245 0.7278 1.4274
H10 H 0.3198 0.5841 1.4141
C10 C 0.0409(3) 0.7193(2) 1.36793(17)
H11 H 0.0178 0.7084 1.4298
H12 H -0.0480 0.7051 1.3207
H13 H 0.0982 0.8036 1.3667
C11 C 0.1817(2) 0.4627(2) 1.02707(16)
H14 H 0.1331 0.3832 1.0400
C12 C 0.2291(2) 0.3671(2) 0.89120(15)
C13 C 0.3363(2) 0.3776(2) 0.83550(15)
C14 C 0.3469(2) 0.2712(2) 0.78394(16)
H15 H 0.4209 0.2776 0.7497
C15 C 0.2492(2) 0.1563(2) 0.78304(16)
H16 H 0.2581 0.0855 0.7492
C16 C 0.1372(2) 0.1473(2) 0.83324(16)
H17 H 0.0691 0.0708 0.8310
C17 C 0.1266(2) 0.2510(2) 0.88627(16)
H18 H 0.0509 0.2439 0.9191
C18 C 0.4765(2) 0.5290(2) 0.75857(16)
H19 H 0.4404 0.4730 0.7044
C19 C 0.5767(2) 0.6482(2) 0.75186(15)
C20 C 0.6352(2) 0.7376(2) 0.83053(15)
C21 C 0.7259(2) 0.8545(2) 0.82054(15)
C22 C 0.7573(2) 0.8778(2) 0.73105(15)
H20 H 0.8170 0.9557 0.7240
C23 C 0.7040(2) 0.7907(2) 0.65108(16)
C24 C 0.6125(2) 0.6763(2) 0.66317(16)
H21 H 0.5739 0.6168 0.6113
C25 C 0.7452(2) 0.8241(2) 0.55511(16)
C26 C 0.6718(3) 0.9280(2) 0.51659(18)
H22 H 0.7028 1.0005 0.5620
H23 H 0.5675 0.8974 0.5063
H24 H 0.6992 0.9510 0.4575
C27 C 0.6970(3) 0.7101(2) 0.48107(16)
H25 H 0.7279 0.7344 0.4232
H26 H 0.5924 0.6807 0.4686
H27 H 0.7406 0.6440 0.5051
C28 C 0.9125(3) 0.8719(2) 0.56976(17)
H28 H 0.9450 0.9457 0.6139
H29 H 0.9385 0.8925 0.5099
H30 H 0.9581 0.8073 0.5947
C29 C 0.7856(2) 0.9524(2) 0.90489(16)
H31 H 0.8587 1.0206 0.8880
H32 H 0.8337 0.9143 0.9578
C30 C 0.6679(2) 1.0074(2) 0.93724(16)
H33 H 0.7119 1.0614 0.9955
H34 H 0.5929 0.9388 0.9517
C31 C 0.4043(2) 0.9164(2) 1.13703(16)
H35 H 0.4355 0.9668 1.1977
H36 H 0.4913 0.9022 1.1181
N1A N 0.7681(2) 1.52510(17) 1.05037(13)
N2A N 0.5649(2) 1.50281(17) 1.16345(13)
O1A O 0.66305(17) 1.28786(14) 0.99831(11)
H1A H 0.6814 1.3625 1.0337
O2A O 0.39479(17) 1.28586(14) 1.08229(10)
H2A H 0.4507 1.3661 1.0854
C1A C 0.6903(2) 1.2088(2) 0.84866(16)
C2A C 0.7197(2) 1.3091(2) 0.91947(16)
C3A C 0.8007(2) 1.4301(2) 0.90573(16)
C4A C 0.8512(2) 1.4498(2) 0.82040(16)
H3A H 0.9043 1.5298 0.8116
C5A C 0.8243(2) 1.3538(2) 0.74922(15)
C6A C 0.7426(2) 1.2347(2) 0.76575(16)
H4A H 0.7225 1.1693 0.7183
C7A C 0.8717(2) 1.3753(2) 0.65351(16)
C8A C 0.9666(3) 1.5078(2) 0.65261(18)
H5A H 0.9128 1.5686 0.6641
H6A H 1.0534 1.5208 0.7015
H7A H 0.9933 1.5176 0.5917
C9A C 0.7350(3) 1.3562(2) 0.57406(17)
H8A H 0.7637 1.3685 0.5139
H9A H 0.6755 1.2722 0.5726
H10A H 0.6802 1.4159 0.5859
C10A C 0.9591(3) 1.2807(2) 0.63207(17)
H11A H 0.9822 1.2916 0.5702
H12A H 1.0480 1.2949 0.6793
H13A H 0.9018 1.1964 0.6333
C11A C 0.8183(2) 1.5373(2) 0.97293(16)
H14A H 0.8669 1.6168 0.9600
C12A C 0.7709(2) 1.6329(2) 1.10880(15)
C13A C 0.6637(2) 1.6224(2) 1.16450(15)
C14A C 0.6531(2) 1.7288(2) 1.21606(16)
H15A H 0.5791 1.7224 1.2503
C15A C 0.7508(2) 1.8437(2) 1.21696(16)
H16A H 0.7419 1.9145 1.2508
C16A C 0.8628(2) 1.8527(2) 1.16676(16)
H17A H 0.9309 1.9292 1.1690
C17A C 0.8734(2) 1.7490(2) 1.11373(16)
H18A H 0.9491 1.7561 1.0809
C18A C 0.5235(2) 1.4710(2) 1.24143(16)
H19A H 0.5596 1.5270 1.2956
C19A C 0.4233(2) 1.3518(2) 1.24814(15)
C20A C 0.3648(2) 1.2624(2) 1.16947(15)
C21A C 0.2741(2) 1.1455(2) 1.17946(15)
C22A C 0.2427(2) 1.1222(2) 1.26895(15)
H20A H 0.1830 1.0443 1.2760
C23A C 0.2960(2) 1.2093(2) 1.34892(16)
C24A C 0.3875(2) 1.3237(2) 1.33683(16)
H21A H 0.4261 1.3832 1.3887
C25A C 0.2548(2) 1.1759(2) 1.44489(16)
C26A C 0.3282(3) 1.0720(2) 1.48341(18)
H22A H 0.2972 0.9995 1.4380
H23A H 0.4325 1.1026 1.4937
H24A H 0.3008 1.0490 1.5425
C27A C 0.3030(3) 1.2899(2) 1.51893(16)
H25A H 0.2721 1.2656 1.5768
H26A H 0.4076 1.3193 1.5314
H27A H 0.2594 1.3560 1.4949
C28A C 0.0875(3) 1.1281(2) 1.43024(17)
H28A H 0.0550 1.0543 1.3861
H29A H 0.0615 1.1075 1.4901
H30A H 0.0419 1.1927 1.4053
C29A C 0.2144(2) 1.0476(2) 1.09511(16)
H31A H 0.1413 0.9794 1.1120
H32A H 0.1663 1.0857 1.0422
C30A C 0.3321(2) 0.9926(2) 1.06276(16)
H33A H 0.2881 0.9386 1.0045
H34A H 0.4071 1.0612 1.0483
C31A C 0.5957(2) 1.0836(2) 0.86297(16)
H35A H 0.5645 1.0332 0.8023
H36A H 0.5087 1.0978 0.8819
Cl1 Cl 0.70691(7) 0.17842(6) 0.31760(5)
Cl2 Cl 0.90377(7) 0.20025(6) 0.18296(4)
C32 C 0.7318(3) 0.2150(3) 0.20188(18)
H37 H 0.6550 0.1590 0.1551
H38 H 0.7237 0.3007 0.1928
loop_
_geom_bond_atom_site_label_1
_geom_bond_atom_site_label_2
_geom_bond_site_symmetry_1
_geom_bond_site_symmetry_2
N1 C11 1_555 1_555
N2 C13 1_555 1_555
O1 H1 1_555 1_555
O2 H2 1_555 1_555
C1 C2 1_555 1_555
C2 O1 1_555 1_555
C3 C2 1_555 1_555
C4 C3 1_555 1_555
H3 C4 1_555 1_555
C5 C4 1_555 1_555
C6 C1 1_555 1_555
H4 C6 1_555 1_555
C7 C5 1_555 1_555
C8 C7 1_555 1_555
H5 C8 1_555 1_555
H6 C8 1_555 1_555
H7 C8 1_555 1_555
C9 C7 1_555 1_555
H8 C9 1_555 1_555
H9 C9 1_555 1_555
H10 C9 1_555 1_555
C10 C7 1_555 1_555
H11 C10 1_555 1_555
H12 C10 1_555 1_555
H13 C10 1_555 1_555
C11 C3 1_555 1_555
H14 C11 1_555 1_555
C12 N1 1_555 1_555
C13 C12 1_555 1_555
C14 C13 1_555 1_555
H15 C14 1_555 1_555
C15 C14 1_555 1_555
H16 C15 1_555 1_555
C16 C15 1_555 1_555
H17 C16 1_555 1_555
C17 C12 1_555 1_555
H18 C17 1_555 1_555
C18 N2 1_555 1_555
H19 C18 1_555 1_555
C19 C18 1_555 1_555
C20 O2 1_555 1_555
C21 C20 1_555 1_555
C22 C21 1_555 1_555
H20 C22 1_555 1_555
C23 C22 1_555 1_555
C24 C19 1_555 1_555
H21 C24 1_555 1_555
C25 C23 1_555 1_555
C26 C25 1_555 1_555
H22 C26 1_555 1_555
H23 C26 1_555 1_555
H24 C26 1_555 1_555
C27 C25 1_555 1_555
H25 C27 1_555 1_555
H26 C27 1_555 1_555
H27 C27 1_555 1_555
C28 C25 1_555 1_555
H28 C28 1_555 1_555
H29 C28 1_555 1_555
H30 C28 1_555 1_555
C29 C21 1_555 1_555
H31 C29 1_555 1_555
H32 C29 1_555 1_555
C30 C29 1_555 1_555
H33 C30 1_555 1_555
H34 C30 1_555 1_555
C31 C1 1_555 1_555
H35 C31 1_555 1_555
H36 C31 1_555 1_555
Cl1 C32 1_555 1_555
Cl2 C32 1_555 1_555
C32 H37 1_555 1_555
H38 C32 1_555 1_555
N1A C11A 1_555 1_555
N2A C13A 1_555 1_555
O1A H1A 1_555 1_555
O2A H2A 1_555 1_555
C1A C2A 1_555 1_555
C2A O1A 1_555 1_555
C3A C2A 1_555 1_555
C4A C3A 1_555 1_555
H3A C4A 1_555 1_555
C5A C4A 1_555 1_555
C6A C1A 1_555 1_555
H4A C6A 1_555 1_555
C7A C5A 1_555 1_555
C8A C7A 1_555 1_555
H5A C8A 1_555 1_555
H6A C8A 1_555 1_555
H7A C8A 1_555 1_555
C9A C7A 1_555 1_555
H8A C9A 1_555 1_555
H9A C9A 1_555 1_555
H10A C9A 1_555 1_555
C10A C7A 1_555 1_555
H11A C10A 1_555 1_555
H12A C10A 1_555 1_555
H13A C10A 1_555 1_555
C11A C3A 1_555 1_555
H14A C11A 1_555 1_555
C12A N1A 1_555 1_555
C13A C12A 1_555 1_555
C14A C13A 1_555 1_555
H15A C14A 1_555 1_555
C15A C14A 1_555 1_555
H16A C15A 1_555 1_555
C16A C15A 1_555 1_555
H17A C16A 1_555 1_555
C17A C12A 1_555 1_555
H18A C17A 1_555 1_555
C18A N2A 1_555 1_555
H19A C18A 1_555 1_555
C19A C18A 1_555 1_555
C20A O2A 1_555 1_555
C21A C20A 1_555 1_555
C22A C21A 1_555 1_555
H20A C22A 1_555 1_555
C23A C22A 1_555 1_555
C24A C19A 1_555 1_555
H21A C24A 1_555 1_555
C25A C23A 1_555 1_555
C26A C25A 1_555 1_555
H22A C26A 1_555 1_555
H23A C26A 1_555 1_555
H24A C26A 1_555 1_555
C27A C25A 1_555 1_555
H25A C27A 1_555 1_555
H26A C27A 1_555 1_555
H27A C27A 1_555 1_555
C28A C25A 1_555 1_555
H28A C28A 1_555 1_555
H29A C28A 1_555 1_555
H30A C28A 1_555 1_555
C29A C21A 1_555 1_555
H31A C29A 1_555 1_555
H32A C29A 1_555 1_555
C30A C31 1_555 1_555
H33A C30A 1_555 1_555
H34A C30A 1_555 1_555
C31A C30 1_555 1_555
H35A C31A 1_555 1_555
H36A C31A 1_555 1_555
C5 C6 1_555 1_555
C16 C17 1_555 1_555
C19 C20 1_555 1_555
C23 C24 1_555 1_555
C1A C31A 1_555 1_555
C5A C6A 1_555 1_555
C16A C17A 1_555 1_555
C19A C20A 1_555 1_555
C23A C24A 1_555 1_555
C29A C30A 1_555 1_555

#END
