
#######################################################################
#
#                 Cambridge Crystallographic Data Centre
#                                CCDC 
#
#######################################################################
#
# If this CIF has been generated from an entry in the Cambridge 
# Structural Database, then it will include bibliographic, chemical, 
# crystal, experimental, refinement or atomic coordinate data resulting 
# from the CCDC's data processing and validation procedures.
#
#######################################################################

data_MISXUH
_chemical_formula_moiety         'C11 H9 Br2 N1 O3'
_chemical_name_systematic        
(Z)-2-Acetyl-1,3-dibromo-3-(p-nitrophenyl)propene
_symmetry_cell_setting           orthorhombic
_symmetry_space_group_name_H-M   'P b c a'
_symmetry_Int_Tables_number      61
_space_group_name_Hall           '-P 2ac 2ab'
loop_
_symmetry_equiv_pos_site_id
_symmetry_equiv_pos_as_xyz
1 x,y,z
2 1/2-x,1/2+y,z
3 x,1/2-y,1/2+z
4 1/2+x,y,1/2-z
5 -x,-y,-z
6 1/2+x,1/2-y,-z
7 -x,1/2+y,1/2-z
8 1/2-x,-y,1/2+z
_cell_length_a                   13.988(4)
_cell_length_b                   17.119(6)
_cell_length_c                   10.524(4)
_cell_angle_alpha                90
_cell_angle_beta                 90
_cell_angle_gamma                90
_cell_volume                     2520.08
_exptl_crystal_colour            colorless
_exptl_crystal_description       prismatic
_chemical_melting_point          121-124deg.C
_cell_formula_units_Z            8
loop_
_atom_site_label
_atom_site_type_symbol
_atom_site_fract_x
_atom_site_fract_y
_atom_site_fract_z
Br1 Br 0.12260(6) 0.23032(5) 0.22719(7)
Br2 Br 0.08998(6) 0.08004(4) -0.07311(7)
O1 O -0.1166(3) 0.2566(2) 0.2136(4)
O2 O -0.2223(4) -0.0179(3) 0.6295(5)
O3 O -0.1242(5) 0.0433(3) 0.7519(5)
N1 N -0.1557(5) 0.0276(3) 0.6471(6)
C1 C -0.1139(4) 0.2203(3) 0.1146(5)
C2 C -0.0314(4) 0.1664(3) 0.0909(5)
C3 C 0.0309(4) 0.1451(3) 0.2002(5)
C4 C -0.1899(5) 0.2305(4) 0.0161(6)
C5 C -0.0162(5) 0.1419(4) -0.0256(6)
C6 C -0.0198(4) 0.1211(3) 0.3220(5)
C7 C -0.1056(5) 0.0807(3) 0.3113(5)
C8 C -0.1506(5) 0.0492(4) 0.4169(6)
C9 C -0.1101(5) 0.0611(3) 0.5338(6)
C10 C -0.0256(5) 0.1010(4) 0.5492(5)
C11 C 0.0183(4) 0.1316(3) 0.4433(5)
H1 H 0.0632 0.1031 0.1809
H2 H -0.1637 0.2533 -0.0648
H3 H -0.2178 0.1813 -0.0089
H4 H -0.2334 0.2694 0.0474
H5 H -0.0494 0.1572 -0.0954
H6 H -0.1397 0.0717 0.2371
H7 H -0.2075 0.0213 0.4036
H8 H 0.0029 0.1085 0.6311
H9 H 0.0732 0.1544 0.4560
loop_
_geom_bond_atom_site_label_1
_geom_bond_atom_site_label_2
_geom_bond_site_symmetry_1
_geom_bond_site_symmetry_2
Br1 C3 1_555 1_555
Br2 C5 1_555 1_555
O1 C1 1_555 1_555
O2 N1 1_555 1_555
O3 N1 1_555 1_555
N1 C9 1_555 1_555
C1 C2 1_555 1_555
C2 C3 1_555 1_555
C3 C6 1_555 1_555
C4 C1 1_555 1_555
C5 C2 1_555 1_555
C6 C7 1_555 1_555
C7 C8 1_555 1_555
C8 C9 1_555 1_555
C9 C10 1_555 1_555
C10 C11 1_555 1_555
C11 C6 1_555 1_555
H1 C3 1_555 1_555
H2 C4 1_555 1_555
H3 C4 1_555 1_555
H4 C4 1_555 1_555
H5 C5 1_555 1_555
H6 C7 1_555 1_555
H7 C8 1_555 1_555
H8 C10 1_555 1_555
H9 C11 1_555 1_555

#END
