
#######################################################################
#
#                 Cambridge Crystallographic Data Centre
#                                CCDC 
#
#######################################################################
#
# If this CIF has been generated from an entry in the Cambridge 
# Structural Database, then it will include bibliographic, chemical, 
# crystal, experimental, refinement or atomic coordinate data resulting 
# from the CCDC's data processing and validation procedures.
#
#######################################################################

data_MITJUW
_chemical_name_common            'PDB Chemical Component code: 308'
_chemical_formula_moiety         '2(C10 H17 N1),I3'
_chemical_name_systematic        'amantadine triiodide'
_symmetry_cell_setting           monoclinic
_symmetry_space_group_name_H-M   'C 2/m'
_symmetry_Int_Tables_number      12
_space_group_name_Hall           '-C 2y'
loop_
_symmetry_equiv_pos_site_id
_symmetry_equiv_pos_as_xyz
1 x,y,z
2 -x,y,-z
3 1/2+x,1/2+y,z
4 1/2-x,1/2+y,-z
5 -x,-y,-z
6 x,-y,z
7 1/2-x,1/2-y,-z
8 1/2+x,1/2-y,z
_cell_length_a                   21.722(5)
_cell_length_b                   6.6635(15)
_cell_length_c                   8.4085(18)
_cell_angle_alpha                90
_cell_angle_beta                 92.342(3)
_cell_angle_gamma                90
_cell_volume                     1216.07
_exptl_crystal_colour            'brown red'
_cell_formula_units_Z            2
_exptl_crystal_recrystallization_method Chloroform/dichloromethane
loop_
_atom_site_label
_atom_site_type_symbol
_atom_site_fract_x
_atom_site_fract_y
_atom_site_fract_z
C1 C 0.3925(3) 0.0000 0.4143(8)
C2 C 0.3276(3) 0.0000 0.4798(8)
H1 H 0.3224 -0.1179 0.5456
C3 C 0.2799(3) 0.0000 0.3452(9)
H2 H 0.2387 0.0000 0.3889
C4 C 0.2872(3) 0.1862(8) 0.2432(7)
H3 H 0.2817 0.3057 0.3070
H4 H 0.2562 0.1868 0.1568
C5 C 0.3520(3) 0.1861(8) 0.1753(6)
H5 H 0.3571 0.3059 0.1096
C6 C 0.4001(2) 0.1868(7) 0.3128(6)
H6 H 0.4411 0.1893 0.2713
H7 H 0.3951 0.3058 0.3774
C7 C 0.3602(4) 0.0000 0.0750(9)
H8 H 0.4010 0.0000 0.0322
H9 H 0.3301 0.0000 -0.0135
H10 H 0.437(3) 0.109(10) 0.620(9)
N1 N 0.4401(3) 0.0000 0.5462(8)
H1E H 0.3224 0.1179 0.5456
C4E C 0.2872(3) -0.1862(8) 0.2432(7)
H3E H 0.2817 -0.3057 0.3070
H4E H 0.2562 -0.1868 0.1568
C5E C 0.3520(3) -0.1861(8) 0.1753(6)
H5E H 0.3571 -0.3059 0.1096
C6E C 0.4001(2) -0.1868(7) 0.3128(6)
H6E H 0.4411 -0.1893 0.2713
H7E H 0.3951 -0.3058 0.3774
H10E H 0.437(3) -0.109(10) 0.620(9)
I1 I 0.0000 0.0000 0.0000
I2 I 0.09721(2) 0.0000 0.24676(6)
I2A I -0.09721(2) 0.0000 -0.24676(6)
H11? H 0.3224 -0.1179 0.5456
loop_
_geom_bond_atom_site_label_1
_geom_bond_atom_site_label_2
_geom_bond_site_symmetry_1
_geom_bond_site_symmetry_2
C1 C2 1_555 1_555
C2 H1 1_555 1_555
C3 C2 1_555 1_555
H2 C3 1_555 1_555
C4 C3 1_555 1_555
H3 C4 1_555 1_555
H4 C4 1_555 1_555
C5 C4 1_555 1_555
H5 C5 1_555 1_555
C6 C1 1_555 1_555
H6 C6 1_555 1_555
H7 C6 1_555 1_555
C7 C5 1_555 1_555
H8 C7 1_555 1_555
H9 C7 1_555 1_555
H10 N1 1_555 1_555
N1 C1 1_555 1_555
I1 I2 1_555 1_555
H1E C2 1_555 1_555
C4E C3 1_555 1_555
H3E C4E 1_555 1_555
H4E C4E 1_555 1_555
C5E C7 1_555 1_555
H5E C5E 1_555 1_555
C6E C1 1_555 1_555
H6E C6E 1_555 1_555
H7E C6E 1_555 1_555
H10E N1 1_555 1_555
I2A I1 1_555 1_555
C5 C6 1_555 1_555
C4E C5E 1_555 1_555
C5E C6E 1_555 1_555

#END
