
#######################################################################
#
#                 Cambridge Crystallographic Data Centre
#                                CCDC 
#
#######################################################################
#
# If this CIF has been generated from an entry in the Cambridge 
# Structural Database, then it will include bibliographic, chemical, 
# crystal, experimental, refinement or atomic coordinate data resulting 
# from the CCDC's data processing and validation procedures.
#
#######################################################################

data_MITYAQ
_chemical_name_common            
'2-acetyl-9-phenyl-1,10-phenanthroline (2,6-diethylanil)'
_chemical_formula_moiety         'C30 H27 N3'
_chemical_name_systematic        
2,6-diethyl-N-[1-(9-phenyl-1,10-phenanthrolin-2-yl)ethylidene]aniline
_symmetry_cell_setting           triclinic
_symmetry_space_group_name_H-M   'P -1'
_symmetry_Int_Tables_number      2
_space_group_name_Hall           '-P 1'
loop_
_symmetry_equiv_pos_site_id
_symmetry_equiv_pos_as_xyz
1 x,y,z
2 -x,-y,-z
_cell_length_a                   7.869(2)
_cell_length_b                   11.840(3)
_cell_length_c                   13.547(4)
_cell_angle_alpha                105.675(5)
_cell_angle_beta                 94.203(5)
_cell_angle_gamma                99.069(5)
_cell_volume                     1191.08
_exptl_crystal_colour            yellow
_exptl_crystal_description       block
_chemical_melting_point          '181-183 deg.C'
_cell_formula_units_Z            2
_exptl_crystal_recrystallization_method dichloromethane/hexane
loop_
_atom_site_label
_atom_site_type_symbol
_atom_site_fract_x
_atom_site_fract_y
_atom_site_fract_z
N1 N 0.2336(2) 0.08626(16) 0.55934(13)
N2 N 0.1383(2) 0.22546(15) 0.73724(13)
N3 N -0.0515(2) 0.28967(16) 0.96932(14)
C1 C 0.2731(3) 0.0182(2) 0.47178(16)
C2 C 0.3380(3) 0.0677(2) 0.39459(18)
H1 H 0.3655 0.0187 0.3340
C3 C 0.3596(3) 0.1873(2) 0.41012(18)
H2 H 0.4023 0.2204 0.3600
C4 C 0.3180(3) 0.2614(2) 0.50136(18)
C5 C 0.3388(3) 0.3874(2) 0.5211(2)
H3 H 0.3792 0.4227 0.4717
C6 C 0.3006(3) 0.4562(2) 0.6107(2)
H4 H 0.3174 0.5386 0.6227
C7 C 0.2346(3) 0.4046(2) 0.68739(18)
C8 C 0.1881(3) 0.4729(2) 0.77972(19)
H5 H 0.2070 0.5556 0.7950
C9 C 0.1158(3) 0.4184(2) 0.84675(18)
H6 H 0.0833 0.4631 0.9077
C10 C 0.0907(3) 0.2926(2) 0.82228(17)
C11 C 0.2089(3) 0.27969(19) 0.66964(17)
C12 C 0.2542(3) 0.2057(2) 0.57452(17)
C13 C 0.2467(3) -0.1120(2) 0.45883(16)
C14 C 0.1638(3) -0.1585(2) 0.53012(18)
H7 H 0.1269 -0.1074 0.5861
C15 C 0.1355(3) -0.2796(2) 0.5188(2)
H8 H 0.0806 -0.3096 0.5674
C16 C 0.1885(3) -0.3561(2) 0.4356(2)
H9 H 0.1679 -0.4377 0.4277
C17 C 0.2711(3) -0.3124(2) 0.3648(2)
H10 H 0.3070 -0.3641 0.3088
C18 C 0.3012(3) -0.1907(2) 0.37665(18)
H11 H 0.3590 -0.1613 0.3288
C19 C 0.0059(3) 0.2283(2) 0.89108(17)
C20 C -0.0076(3) 0.0949(2) 0.86176(19)
H12 H -0.0879 0.0618 0.9011
H13 H 0.1043 0.0762 0.8760
H14 H -0.0477 0.0617 0.7894
C21 C -0.1368(4) 0.23570(19) 1.03860(18)
C22 C -0.0395(4) 0.2221(2) 1.1238(2)
C23 C -0.1258(5) 0.1799(2) 1.1954(2)
H15 H -0.0625 0.1722 1.2531
C24 C -0.3012(5) 0.1494(3) 1.1832(3)
H16 H -0.3571 0.1215 1.2325
C25 C -0.3968(4) 0.1599(3) 1.0974(3)
H17 H -0.5169 0.1376 1.0892
C26 C -0.3169(4) 0.2033(2) 1.0229(2)
C27 C -0.4234(4) 0.2123(3) 0.9279(3)
H18 H -0.3672 0.1821 0.8673
H19 H -0.5370 0.1626 0.9191
C28 C -0.4441(5) 0.3375(4) 0.9356(3)
H20 H -0.5153 0.3386 0.8753
H21 H -0.3323 0.3861 0.9404
H22 H -0.4981 0.3683 0.9960
C29 C 0.1561(4) 0.2498(3) 1.1386(2)
H23 H 0.1985 0.1988 1.1762
H24 H 0.1973 0.2309 1.0714
C30 C 0.2298(5) 0.3754(3) 1.1948(3)
H25 H 0.3538 0.3853 1.2066
H26 H 0.1844 0.3965 1.2598
H27 H 0.1993 0.4262 1.1544
loop_
_geom_bond_atom_site_label_1
_geom_bond_atom_site_label_2
_geom_bond_site_symmetry_1
_geom_bond_site_symmetry_2
N1 C1 1_555 1_555
N2 C10 1_555 1_555
N3 C19 1_555 1_555
C1 C2 1_555 1_555
C2 H1 1_555 1_555
C3 C2 1_555 1_555
H2 C3 1_555 1_555
C4 C3 1_555 1_555
C5 C4 1_555 1_555
H3 C5 1_555 1_555
C6 C5 1_555 1_555
H4 C6 1_555 1_555
C7 C6 1_555 1_555
C8 C7 1_555 1_555
H5 C8 1_555 1_555
C9 C8 1_555 1_555
H6 C9 1_555 1_555
C10 C9 1_555 1_555
C11 N2 1_555 1_555
C12 N1 1_555 1_555
C13 C1 1_555 1_555
C14 C13 1_555 1_555
H7 C14 1_555 1_555
C15 C14 1_555 1_555
H8 C15 1_555 1_555
C16 C15 1_555 1_555
H9 C16 1_555 1_555
C17 C16 1_555 1_555
H10 C17 1_555 1_555
C18 C13 1_555 1_555
H11 C18 1_555 1_555
C19 C10 1_555 1_555
C20 C19 1_555 1_555
H12 C20 1_555 1_555
H13 C20 1_555 1_555
H14 C20 1_555 1_555
C21 N3 1_555 1_555
C22 C21 1_555 1_555
C23 C22 1_555 1_555
H15 C23 1_555 1_555
C24 C23 1_555 1_555
H16 C24 1_555 1_555
C25 C24 1_555 1_555
H17 C25 1_555 1_555
C26 C21 1_555 1_555
C27 C26 1_555 1_555
H18 C27 1_555 1_555
H19 C27 1_555 1_555
C28 C27 1_555 1_555
H20 C28 1_555 1_555
H21 C28 1_555 1_555
H22 C28 1_555 1_555
C29 C22 1_555 1_555
H23 C29 1_555 1_555
H24 C29 1_555 1_555
C30 C29 1_555 1_555
H25 C30 1_555 1_555
H26 C30 1_555 1_555
H27 C30 1_555 1_555
C4 C12 1_555 1_555
C7 C11 1_555 1_555
C11 C12 1_555 1_555
C17 C18 1_555 1_555
C25 C26 1_555 1_555

#END
