
#######################################################################
#
#                 Cambridge Crystallographic Data Centre
#                                CCDC 
#
#######################################################################
#
# If this CIF has been generated from an entry in the Cambridge 
# Structural Database, then it will include bibliographic, chemical, 
# crystal, experimental, refinement or atomic coordinate data resulting 
# from the CCDC's data processing and validation procedures.
#
#######################################################################

data_MIWXUL
_chemical_formula_moiety         'C11 H14 O3 S1'
_chemical_name_systematic        
1,7-Dimethyl-2,6,13-trioxa-4-thiapentacyclo[5.5.1.0^3,11^.0^5,9^.0^8,12^]tridecane
_symmetry_cell_setting           monoclinic
_symmetry_space_group_name_H-M   'P 21/c'
_symmetry_Int_Tables_number      14
_space_group_name_Hall           '-P 2ybc'
loop_
_symmetry_equiv_pos_site_id
_symmetry_equiv_pos_as_xyz
1 x,y,z
2 -x,1/2+y,1/2-z
3 -x,-y,-z
4 x,1/2-y,1/2+z
_cell_length_a                   14.4821(9)
_cell_length_b                   13.7358(9)
_cell_length_c                   11.2219(7)
_cell_angle_alpha                90
_cell_angle_beta                 110.069(1)
_cell_angle_gamma                90
_cell_volume                     2096.75
_exptl_crystal_colour            colorless
_exptl_crystal_description       equant
_chemical_melting_point          103-104deg.C
_cell_formula_units_Z            8
loop_
_atom_site_label
_atom_site_type_symbol
_atom_site_fract_x
_atom_site_fract_y
_atom_site_fract_z
S1 S 0.8351(1) 1.1776(1) 0.9982(1)
O1 O 0.5842(2) 1.2381(2) 0.8607(2)
O2 O 0.6627(2) 1.0902(2) 0.8577(2)
O3 O 0.7146(2) 1.3320(2) 0.9911(2)
C1 C 0.5843(3) 1.1368(2) 0.8855(3)
C2 C 0.7454(3) 1.0809(3) 0.9727(3)
C3 C 0.7862(3) 1.2695(3) 1.0766(3)
C4 C 0.6183(3) 1.2957(3) 0.9727(3)
C5 C 0.6064(2) 1.1253(3) 1.0281(3)
C6 C 0.7029(3) 1.0692(3) 1.0791(3)
C7 C 0.7617(3) 1.1207(3) 1.2021(3)
C8 C 0.7375(3) 1.2276(3) 1.1661(3)
C9 C 0.6287(3) 1.2275(3) 1.0841(3)
C10 C 0.5504(3) 1.3818(3) 0.9546(4)
C11 C 0.4893(3) 1.0956(3) 0.7971(3)
H1 H 0.7789 1.0251 0.9600
H2 H 0.8378 1.3098 1.1169
H3 H 0.5499 1.0923 1.0416
H4 H 0.6950 1.0011 1.0931
H5 H 0.7326 1.1037 1.2698
H6 H 0.8360 1.1048 1.2302
H7 H 0.7499 1.2660 1.2299
H8 H 0.5874 1.2425 1.1303
H9 H 0.5585 1.4231 0.8881
H10 H 0.5740 1.4217 1.0312
H11 H 0.4820 1.3543 0.9435
H12 H 0.4844 1.0279 0.8110
H13 H 0.4831 1.1015 0.7147
H14 H 0.4289 1.1222 0.8137
S2 S 0.8322(1) 0.9184(1) 0.7201(1)
O4 O 0.7952(2) 0.6770(2) 0.5851(2)
O5 O 0.9355(2) 0.7522(2) 0.7267(2)
O6 O 0.6878(2) 0.8098(2) 0.5522(3)
C12 C 0.8961(2) 0.7000(3) 0.6100(3)
C13 C 0.9362(3) 0.8537(3) 0.7044(3)
C14 C 0.7402(3) 0.8998(3) 0.5646(4)
C15 C 0.7301(2) 0.7392(3) 0.4914(3)
C16 C 0.8996(2) 0.7695(3) 0.5061(3)
C17 C 0.9461(2) 0.8640(3) 0.5730(3)
C18 C 0.8838(3) 0.9454(3) 0.4910(4)
C19 C 0.7802(3) 0.9026(3) 0.4552(4)
C20 C 0.7922(2) 0.7949(3) 0.4299(3)
C21 C 0.6471(3) 0.6774(3) 0.4080(4)
C22 C 0.9522(3) 0.6062(3) 0.6263(4)
H15 H 0.9930 0.8808 0.7726
H16 H 0.6915 0.9486 0.5620
H17 H 0.9364 0.7395 0.4567
H18 H 1.0168 0.8710 0.5799
H19 H 0.8930 1.0067 0.5329
H20 H 0.9025 0.9513 0.4125
H21 H 0.7332 0.9381 0.3826
H22 H 0.7762 0.7801 0.3455
H23 H 0.6025 0.7168 0.3413
H24 H 0.6720 0.6226 0.3751
H25 H 0.6162 0.6511 0.4637
H26 H 0.9393 0.5709 0.6944
H27 H 1.0214 0.6193 0.6482
H28 H 0.9298 0.5664 0.5523
loop_
_geom_bond_atom_site_label_1
_geom_bond_atom_site_label_2
_geom_bond_site_symmetry_1
_geom_bond_site_symmetry_2
S1 C2 1_555 1_555
S2 C13 1_555 1_555
O1 C1 1_555 1_555
O2 C1 1_555 1_555
O3 C3 1_555 1_555
O4 C12 1_555 1_555
O5 C12 1_555 1_555
O6 C14 1_555 1_555
C1 C5 1_555 1_555
C2 O2 1_555 1_555
C3 S1 1_555 1_555
C4 O1 1_555 1_555
C5 C6 1_555 1_555
C6 C2 1_555 1_555
C7 C6 1_555 1_555
C8 C3 1_555 1_555
C9 C4 1_555 1_555
C10 C4 1_555 1_555
C11 C1 1_555 1_555
C12 C16 1_555 1_555
C13 O5 1_555 1_555
C14 S2 1_555 1_555
C15 O4 1_555 1_555
C16 C17 1_555 1_555
C17 C13 1_555 1_555
C18 C17 1_555 1_555
C19 C14 1_555 1_555
C20 C15 1_555 1_555
C21 C15 1_555 1_555
C22 C12 1_555 1_555
H1 C2 1_555 1_555
H2 C3 1_555 1_555
H3 C5 1_555 1_555
H4 C6 1_555 1_555
H5 C7 1_555 1_555
H6 C7 1_555 1_555
H7 C8 1_555 1_555
H8 C9 1_555 1_555
H9 C10 1_555 1_555
H10 C10 1_555 1_555
H11 C10 1_555 1_555
H12 C11 1_555 1_555
H13 C11 1_555 1_555
H14 C11 1_555 1_555
H15 C13 1_555 1_555
H16 C14 1_555 1_555
H17 C16 1_555 1_555
H18 C17 1_555 1_555
H19 C18 1_555 1_555
H20 C18 1_555 1_555
H21 C19 1_555 1_555
H22 C20 1_555 1_555
H23 C21 1_555 1_555
H24 C21 1_555 1_555
H25 C21 1_555 1_555
H26 C22 1_555 1_555
H27 C22 1_555 1_555
H28 C22 1_555 1_555
O3 C4 1_555 1_555
O6 C15 1_555 1_555
C5 C9 1_555 1_555
C7 C8 1_555 1_555
C8 C9 1_555 1_555
C16 C20 1_555 1_555
C18 C19 1_555 1_555
C19 C20 1_555 1_555

#END
