
#######################################################################
#
#                 Cambridge Crystallographic Data Centre
#                                CCDC 
#
#######################################################################
#
# If this CIF has been generated from an entry in the Cambridge 
# Structural Database, then it will include bibliographic, chemical, 
# crystal, experimental, refinement or atomic coordinate data resulting 
# from the CCDC's data processing and validation procedures.
#
#######################################################################

data_MIWYEY
_chemical_formula_moiety         'C18 H20 O7'
_chemical_name_systematic        
'Methyl 6-methoxy-4-(1-methoxy-1,3-dioxobutan-2-yl)-2-methyl-4H-chromene-3-carboxylate'
_symmetry_cell_setting           triclinic
_symmetry_space_group_name_H-M   'P -1'
_symmetry_Int_Tables_number      2
_space_group_name_Hall           '-P 1'
loop_
_symmetry_equiv_pos_site_id
_symmetry_equiv_pos_as_xyz
1 x,y,z
2 -x,-y,-z
_cell_length_a                   9.0528(4)
_cell_length_b                   9.1110(4)
_cell_length_c                   11.9970(5)
_cell_angle_alpha                80.134(2)
_cell_angle_beta                 68.141(2)
_cell_angle_gamma                72.313(2)
_cell_volume                     873.06
_cell_formula_units_Z            2
loop_
_atom_site_label
_atom_site_type_symbol
_atom_site_fract_x
_atom_site_fract_y
_atom_site_fract_z
C1 C 0.28456(16) 0.40001(15) 0.51476(11)
C2 C 0.26381(15) 0.27541(14) 0.48259(10)
C3 C 0.21945(16) 0.27832(13) 0.37226(11)
H1 H 0.1256 0.2332 0.3971
C4 C 0.16509(16) 0.44237(14) 0.32399(11)
C5 C 0.09418(18) 0.47605(17) 0.23515(13)
H2 H 0.0753 0.3970 0.2069
C6 C 0.0508(2) 0.62734(19) 0.18753(14)
C7 C 0.0783(2) 0.74582(17) 0.22883(15)
H3 H 0.0512 0.8465 0.1964
C8 C 0.1461(2) 0.71323(16) 0.31808(15)
H4 H 0.1633 0.7925 0.3474
C9 C 0.18914(17) 0.56289(15) 0.36480(12)
C10 C 0.28533(17) 0.12794(15) 0.55562(11)
C11 C 0.2390(3) -0.12070(18) 0.59065(17)
H5 H 0.3527 -0.1718 0.5795
H6 H 0.1932 -0.1824 0.5618
H7 H 0.1789 -0.1068 0.6747
C12 C 0.3362(2) 0.41260(19) 0.61625(14)
H8 H 0.4539 0.3744 0.5939
H9 H 0.2844 0.3528 0.6858
H10 H 0.3036 0.5188 0.6345
C13 C -0.0629(4) 0.7957(3) 0.0474(2)
H11 H 0.0347 0.8307 0.0046
H12 H -0.1363 0.8648 0.1089
H13 H -0.1167 0.7937 -0.0075
C14 C 0.46579(19) 0.26724(15) 0.17603(12)
C15 C 0.36679(17) 0.17447(14) 0.27640(11)
H14 H 0.4409 0.1080 0.3178
C16 C 0.3134(2) 0.06877(15) 0.22118(13)
C17 C 0.4458(3) -0.06990(19) 0.16577(17)
H15 H 0.4753 -0.1406 0.2279
H16 H 0.5410 -0.0381 0.1112
H17 H 0.4060 -0.1197 0.1227
C18 C 0.6192(3) 0.4517(3) 0.13036(18)
H18 H 0.6785 0.4059 0.0544
H19 H 0.6950 0.4747 0.1591
H20 H 0.5390 0.5453 0.1204
O1 O 0.25784(14) 0.54135(11) 0.45426(10)
O2 O 0.34680(16) 0.09508(13) 0.63344(10)
O3 O 0.22725(14) 0.02815(11) 0.52434(9)
O4 O 0.53658(14) 0.34511(13) 0.21649(9)
O5 O 0.4763(2) 0.27370(17) 0.07276(10)
O6 O 0.17337(18) 0.09384(14) 0.22441(13)
O7 O -0.01896(19) 0.64544(17) 0.10099(12)
loop_
_geom_bond_atom_site_label_1
_geom_bond_atom_site_label_2
_geom_bond_site_symmetry_1
_geom_bond_site_symmetry_2
C1 C2 1_555 1_555
C2 C3 1_555 1_555
C3 H1 1_555 1_555
C4 C3 1_555 1_555
C5 C4 1_555 1_555
H2 C5 1_555 1_555
C6 C5 1_555 1_555
C7 C6 1_555 1_555
H3 C7 1_555 1_555
C8 C7 1_555 1_555
H4 C8 1_555 1_555
C9 C4 1_555 1_555
C10 C2 1_555 1_555
C11 H5 1_555 1_555
H6 C11 1_555 1_555
H7 C11 1_555 1_555
C12 C1 1_555 1_555
H8 C12 1_555 1_555
H9 C12 1_555 1_555
H10 C12 1_555 1_555
C13 H11 1_555 1_555
H12 C13 1_555 1_555
H13 C13 1_555 1_555
C14 C15 1_555 1_555
C15 C3 1_555 1_555
H14 C15 1_555 1_555
C16 C15 1_555 1_555
C17 C16 1_555 1_555
H15 C17 1_555 1_555
H16 C17 1_555 1_555
H17 C17 1_555 1_555
C18 H18 1_555 1_555
H19 C18 1_555 1_555
H20 C18 1_555 1_555
O1 C1 1_555 1_555
O2 C10 1_555 1_555
O3 C10 1_555 1_555
O4 C14 1_555 1_555
O5 C14 1_555 1_555
O6 C16 1_555 1_555
O7 C6 1_555 1_555
C8 C9 1_555 1_555
C9 O1 1_555 1_555
C11 O3 1_555 1_555
C13 O7 1_555 1_555
C18 O4 1_555 1_555

#END
