
#######################################################################
#
#                 Cambridge Crystallographic Data Centre
#                                CCDC 
#
#######################################################################
#
# If this CIF has been generated from an entry in the Cambridge 
# Structural Database, then it will include bibliographic, chemical, 
# crystal, experimental, refinement or atomic coordinate data resulting 
# from the CCDC's data processing and validation procedures.
#
#######################################################################

data_MIWYAS
_chemical_formula_moiety         'C12 H14 O2 S3'
_chemical_name_systematic        
3-Acetyl-4-methyl-octahydro-2H-1,5,6-trithiadicyclopenta[cd,gh]pentalen-2-one
_symmetry_cell_setting           monoclinic
_symmetry_space_group_name_H-M   'P 21/n'
_symmetry_Int_Tables_number      14
_space_group_name_Hall           '-P 2yn'
loop_
_symmetry_equiv_pos_site_id
_symmetry_equiv_pos_as_xyz
1 x,y,z
2 1/2-x,1/2+y,1/2-z
3 -x,-y,-z
4 1/2+x,1/2-y,1/2+z
_cell_length_a                   9.8391(8)
_cell_length_b                   10.3365(8)
_cell_length_c                   12.6170(10)
_cell_angle_alpha                90
_cell_angle_beta                 99.802(2)
_cell_angle_gamma                90
_cell_volume                     1264.44
_exptl_crystal_colour            white
_chemical_melting_point          208-209deg.C
_cell_formula_units_Z            4
loop_
_atom_site_label
_atom_site_type_symbol
_atom_site_fract_x
_atom_site_fract_y
_atom_site_fract_z
S1 S 0.2126(1) 0.1234(1) 0.7126(1)
S2 S 0.0092(1) 0.3298(1) 0.6133(1)
S3 S -0.0031(1) 0.1692(1) 0.4027(1)
O1 O 0.4238(2) 0.0082(2) 0.6520(1)
O2 O 0.4802(2) 0.3992(2) 0.3943(2)
C1 C 0.3596(2) 0.1081(2) 0.6522(1)
C2 C 0.1825(2) 0.2934(2) 0.6777(2)
C3 C 0.0444(2) 0.3182(2) 0.4765(2)
C4 C 0.1729(2) 0.1102(2) 0.4151(1)
C5 C 0.2631(2) 0.2327(2) 0.4193(1)
C6 C 0.2011(2) 0.3390(2) 0.4817(2)
C7 C 0.2806(2) 0.3333(2) 0.5993(1)
C8 C 0.3957(2) 0.2337(2) 0.6004(1)
C9 C 0.4097(2) 0.2110(2) 0.4809(1)
C10 C 0.5143(2) 0.3063(2) 0.4501(2)
C11 C 0.6626(2) 0.2816(3) 0.4943(2)
C12 C 0.1889(3) 0.0200(2) 0.3229(2)
H1 H 0.1937 0.3444 0.7500
H2 H -0.0063 0.3971 0.4361
H3 H 0.1942 0.0595 0.4863
H4 H 0.2672 0.2602 0.3418
H5 H 0.2183 0.4254 0.4541
H6 H 0.3176 0.4196 0.6213
H7 H 0.4858 0.2629 0.6419
H8 H 0.4495 0.1190 0.4708
H9 H 0.6800 0.2072 0.5319
H10 H 0.7219 0.3475 0.4739
H11 H 0.6778 0.3293 0.5625
H12 H 0.1374 -0.0578 0.3292
H13 H 0.2855 -0.0133 0.3282
H14 H 0.1642 0.0715 0.2524
loop_
_geom_bond_atom_site_label_1
_geom_bond_atom_site_label_2
_geom_bond_site_symmetry_1
_geom_bond_site_symmetry_2
S1 C1 1_555 1_555
S2 C2 1_555 1_555
S3 C3 1_555 1_555
O1 C1 1_555 1_555
O2 C10 1_555 1_555
C1 C8 1_555 1_555
C2 S1 1_555 1_555
C3 S2 1_555 1_555
C4 S3 1_555 1_555
C5 C4 1_555 1_555
C6 C3 1_555 1_555
C7 C2 1_555 1_555
C8 C7 1_555 1_555
C9 C5 1_555 1_555
C10 C9 1_555 1_555
C11 C10 1_555 1_555
C12 C4 1_555 1_555
H1 C2 1_555 1_555
H2 C3 1_555 1_555
H3 C4 1_555 1_555
H4 C5 1_555 1_555
H5 C6 1_555 1_555
H6 C7 1_555 1_555
H7 C8 1_555 1_555
H8 C9 1_555 1_555
H9 C11 1_555 1_555
H10 C11 1_555 1_555
H11 C11 1_555 1_555
H12 C12 1_555 1_555
H13 C12 1_555 1_555
H14 C12 1_555 1_555
C5 C6 1_555 1_555
C6 C7 1_555 1_555
C8 C9 1_555 1_555

#END
