
#######################################################################
#
#                 Cambridge Crystallographic Data Centre
#                                CCDC 
#
#######################################################################
#
# If this CIF has been generated from an entry in the Cambridge 
# Structural Database, then it will include bibliographic, chemical, 
# crystal, experimental, refinement or atomic coordinate data resulting 
# from the CCDC's data processing and validation procedures.
#
#######################################################################

data_MIWYOI
_chemical_formula_moiety         'C17 H17 Cl1 O6'
_chemical_name_systematic        
'Methyl 6-chloro-4-(1-methoxy-1,3-dioxobutan-2-yl)-2-methyl-4H-chromene-3-carboxylate'
_symmetry_cell_setting           triclinic
_symmetry_space_group_name_H-M   'P -1'
_symmetry_Int_Tables_number      2
_space_group_name_Hall           '-P 1'
loop_
_symmetry_equiv_pos_site_id
_symmetry_equiv_pos_as_xyz
1 x,y,z
2 -x,-y,-z
_cell_length_a                   8.4753(3)
_cell_length_b                   9.1065(3)
_cell_length_c                   12.4545(4)
_cell_angle_alpha                78.551(2)
_cell_angle_beta                 75.245(2)
_cell_angle_gamma                66.078(2)
_cell_volume                     844.75
_cell_formula_units_Z            2
loop_
_atom_site_label
_atom_site_type_symbol
_atom_site_fract_x
_atom_site_fract_y
_atom_site_fract_z
C1 C 0.76685(19) 0.42721(18) 0.48826(12)
C2 C 0.74742(18) 0.30530(17) 0.45550(11)
C3 C 0.70131(18) 0.31512(16) 0.34414(11)
H1 H 0.6013 0.2811 0.3587
C4 C 0.64207(18) 0.48756(17) 0.29021(12)
C5 C 0.5654(2) 0.53187(19) 0.19624(13)
H2 H 0.5472 0.4554 0.1664
C6 C 0.5162(2) 0.6905(2) 0.14737(14)
C7 C 0.5431(3) 0.8059(2) 0.18908(16)
H3 H 0.5111 0.9114 0.1547
C8 C 0.6175(3) 0.7635(2) 0.28158(16)
H4 H 0.6357 0.8404 0.3109
C9 C 0.6657(2) 0.60508(18) 0.33149(13)
C10 C 0.77501(19) 0.15149(18) 0.52852(12)
C11 C 0.7265(3) -0.0933(2) 0.56071(17)
H5 H 0.8494 -0.1602 0.5506
H6 H 0.6648 -0.1436 0.5351
H7 H 0.6803 -0.0798 0.6385
C12 C 0.8172(2) 0.4336(2) 0.59321(14)
H8 H 0.7743 0.3664 0.6530
H9 H 0.7666 0.5430 0.6115
H10 H 0.9430 0.3954 0.5827
C13 C 0.9595(2) 0.27831(19) 0.17872(13)
C14 C 0.85683(19) 0.19506(17) 0.26761(12)
H11 H 0.9378 0.1195 0.3153
C15 C 0.7968(3) 0.09466(19) 0.21355(13)
C16 C 0.9400(3) -0.0503(3) 0.16412(19)
H12 H 0.9700 -0.1378 0.2221
H13 H 1.0417 -0.0246 0.1287
H14 H 0.9003 -0.0816 0.1099
C17 C 1.1265(4) 0.4422(4) 0.1472(2)
H15 H 1.0437 0.5287 0.1083
H16 H 1.2187 0.3759 0.0944
H17 H 1.1760 0.4861 0.1882
O1 O 0.73776(17) 0.57433(13) 0.42527(10)
O2 O 0.85203(17) 0.10569(15) 0.60569(10)
O3 O 0.70372(15) 0.06275(13) 0.49748(9)
O4 O 1.03786(16) 0.34544(17) 0.22384(10)
O5 O 0.9672(2) 0.2872(2) 0.08052(11)
O6 O 0.6435(2) 0.12798(16) 0.21538(12)
Cl1 Cl 0.41850(8) 0.74407(7) 0.03139(5)
loop_
_geom_bond_atom_site_label_1
_geom_bond_atom_site_label_2
_geom_bond_site_symmetry_1
_geom_bond_site_symmetry_2
C1 C2 1_555 1_555
C2 C3 1_555 1_555
C3 H1 1_555 1_555
C4 C3 1_555 1_555
C5 C4 1_555 1_555
H2 C5 1_555 1_555
C6 C5 1_555 1_555
C7 C6 1_555 1_555
H3 C7 1_555 1_555
C8 C7 1_555 1_555
H4 C8 1_555 1_555
C9 C4 1_555 1_555
C10 C2 1_555 1_555
C11 H5 1_555 1_555
H6 C11 1_555 1_555
H7 C11 1_555 1_555
C12 C1 1_555 1_555
H8 C12 1_555 1_555
H9 C12 1_555 1_555
H10 C12 1_555 1_555
C13 C14 1_555 1_555
C14 C3 1_555 1_555
H11 C14 1_555 1_555
C15 C14 1_555 1_555
C16 C15 1_555 1_555
H12 C16 1_555 1_555
H13 C16 1_555 1_555
H14 C16 1_555 1_555
C17 H15 1_555 1_555
H16 C17 1_555 1_555
H17 C17 1_555 1_555
O1 C1 1_555 1_555
O2 C10 1_555 1_555
O3 C10 1_555 1_555
O4 C13 1_555 1_555
O5 C13 1_555 1_555
O6 C15 1_555 1_555
Cl1 C6 1_555 1_555
C8 C9 1_555 1_555
C9 O1 1_555 1_555
C11 O3 1_555 1_555
C17 O4 1_555 1_555

#END
