
#######################################################################
#
#                 Cambridge Crystallographic Data Centre
#                                CCDC 
#
#######################################################################
#
# If this CIF has been generated from an entry in the Cambridge 
# Structural Database, then it will include bibliographic, chemical, 
# crystal, experimental, refinement or atomic coordinate data resulting 
# from the CCDC's data processing and validation procedures.
#
#######################################################################

data_MIWZIB
_chemical_name_common            
'Pentacyclo[32.4.0.0$6,11!.0$14,19!.0$24,29!]octatriaconta-1(34),6,8,10,14,16,18,24,26,28,34,36-dodecaen-2,4,12,20,22,30,32-heptayne dichloromethane solvate'
_chemical_formula_moiety         'C38 H16,C1 H2 Cl2'
_chemical_name_systematic        
'Tetrabenzo[e,k,q,u]-1,3,7,9,13,15,19-heptadehydro[22]annulene dichloromethane solvate'
_symmetry_cell_setting           monoclinic
_symmetry_space_group_name_H-M   'P 2/n'
_symmetry_Int_Tables_number      13
_space_group_name_Hall           '-P 2yac'
loop_
_symmetry_equiv_pos_site_id
_symmetry_equiv_pos_as_xyz
1 x,y,z
2 1/2-x,y,1/2-z
3 -x,-y,-z
4 1/2+x,-y,1/2+z
_cell_length_a                   10.9543(8)
_cell_length_b                   10.8855(9)
_cell_length_c                   12.8149(11)
_cell_angle_alpha                90
_cell_angle_beta                 103.354(7)
_cell_angle_gamma                90
_cell_volume                     1486.77
_exptl_crystal_colour            'pale yellow'
_exptl_crystal_description       tablet
_cell_formula_units_Z            2
loop_
_atom_site_label
_atom_site_type_symbol
_atom_site_fract_x
_atom_site_fract_y
_atom_site_fract_z
Cl1 Cl 0.1184(3) 0.6280(3) 0.2489(3)
C20 C 0.2500 0.5321(14) 0.2500
H9 H 0.266 0.482 0.312
Cl1A Cl 0.3816(3) 0.6280(3) 0.2511(3)
H9A H 0.234 0.482 0.188
C1 C 0.2131(3) 0.2682(3) 0.7082(3)
C2 C 0.1244(3) 0.2701(3) 0.6063(3)
C3 C 0.0316(4) 0.1803(4) 0.5793(3)
C4 C -0.0544(4) 0.1826(4) 0.4823(3)
C5 C -0.0490(4) 0.2745(4) 0.4089(3)
C6 C 0.0421(4) 0.3633(4) 0.4336(3)
C7 C 0.1302(3) 0.3636(3) 0.5325(3)
C8 C 0.2245(3) 0.4564(3) 0.5561(3)
C9 C 0.3006(4) 0.5364(4) 0.5739(3)
C10 C 0.3845(4) 0.6324(4) 0.5917(3)
C11 C 0.4549(4) 0.7178(4) 0.6041(3)
C12 C 0.5361(3) 0.8223(3) 0.6120(3)
C13 C 0.6485(4) 0.8138(4) 0.5789(4)
C14 C 0.7217(4) 0.9167(5) 0.5798(4)
C15 C 0.6868(4) 1.0271(5) 0.6131(4)
C16 C 0.5770(4) 1.0365(4) 0.6473(3)
C17 C 0.5010(3) 0.9357(3) 0.6486(3)
C18 C 0.3903(3) 0.9443(3) 0.6884(3)
C19 C 0.3000(3) 0.9500(3) 0.7271(3)
H1 H 0.013(4) 0.119(4) 0.626(3)
H2 H -0.125(4) 0.119(4) 0.463(4)
H3 H -0.113(4) 0.278(4) 0.333(4)
H4 H 0.055(3) 0.428(3) 0.383(3)
H5 H 0.674(3) 0.734(4) 0.555(3)
H6 H 0.796(5) 0.900(5) 0.564(4)
H7 H 0.736(4) 1.098(4) 0.617(3)
H8 H 0.553(4) 1.115(3) 0.672(3)
C1A C 0.2869(3) 0.2682(3) 0.7918(3)
C2A C 0.3756(3) 0.2701(3) 0.8937(3)
C3A C 0.4684(4) 0.1803(4) 0.9207(3)
C4A C 0.5544(4) 0.1826(4) 1.0177(3)
C5A C 0.5490(4) 0.2745(4) 1.0911(3)
C6A C 0.4579(4) 0.3633(4) 1.0664(3)
C7A C 0.3698(3) 0.3636(3) 0.9675(3)
C8A C 0.2755(3) 0.4564(3) 0.9439(3)
C9A C 0.1994(4) 0.5364(4) 0.9261(3)
C10A C 0.1155(4) 0.6324(4) 0.9083(3)
C11A C 0.0451(4) 0.7178(4) 0.8959(3)
C12A C -0.0361(3) 0.8223(3) 0.8880(3)
C13A C -0.1485(4) 0.8138(4) 0.9211(4)
C14A C -0.2217(4) 0.9167(5) 0.9202(4)
C15A C -0.1868(4) 1.0271(5) 0.8869(4)
C16A C -0.0770(4) 1.0365(4) 0.8527(3)
C17A C -0.0010(3) 0.9357(3) 0.8514(3)
C18A C 0.1097(3) 0.9443(3) 0.8116(3)
C19A C 0.2000(3) 0.9500(3) 0.7729(3)
H8A H -0.053(4) 1.115(3) 0.828(3)
H7A H -0.236(4) 1.098(4) 0.883(3)
H6A H -0.296(5) 0.900(5) 0.936(4)
H5A H -0.174(3) 0.734(4) 0.945(3)
H4A H 0.445(3) 0.428(3) 1.117(3)
H3A H 0.613(4) 0.278(4) 1.167(4)
H2A H 0.625(4) 0.119(4) 1.037(4)
H1A H 0.487(4) 0.119(4) 0.874(3)
loop_
_geom_bond_atom_site_label_1
_geom_bond_atom_site_label_2
_geom_bond_site_symmetry_1
_geom_bond_site_symmetry_2
Cl1 C20 1_555 1_555
C1 C2 1_555 1_555
C2 C3 1_555 1_555
C3 C4 1_555 1_555
C4 C5 1_555 1_555
C5 C6 1_555 1_555
C6 C7 1_555 1_555
C7 C2 1_555 1_555
C8 C7 1_555 1_555
C9 C8 1_555 1_555
C10 C9 1_555 1_555
C11 C10 1_555 1_555
C12 C11 1_555 1_555
C13 C12 1_555 1_555
C14 C13 1_555 1_555
C15 C14 1_555 1_555
C16 C15 1_555 1_555
C17 C12 1_555 1_555
C18 C17 1_555 1_555
C19 C18 1_555 1_555
C20 H9 1_555 1_555
H1 C3 1_555 1_555
H2 C4 1_555 1_555
H3 C5 1_555 1_555
H4 C6 1_555 1_555
H5 C13 1_555 1_555
H6 C14 1_555 1_555
H7 C15 1_555 1_555
H8 C16 1_555 1_555
Cl1A C20 1_555 1_555
H9A C20 1_555 1_555
C1A C1 1_555 1_555
C2A C1A 1_555 1_555
C3A C2A 1_555 1_555
C4A C3A 1_555 1_555
C5A C4A 1_555 1_555
C6A C5A 1_555 1_555
C7A C2A 1_555 1_555
C8A C7A 1_555 1_555
C9A C8A 1_555 1_555
C10A C9A 1_555 1_555
C11A C10A 1_555 1_555
C12A C11A 1_555 1_555
C13A C12A 1_555 1_555
C14A C13A 1_555 1_555
C15A C14A 1_555 1_555
C16A C15A 1_555 1_555
C17A C12A 1_555 1_555
C18A C17A 1_555 1_555
C19A C19 1_555 1_555
H8A C16A 1_555 1_555
H7A C15A 1_555 1_555
H6A C14A 1_555 1_555
H5A C13A 1_555 1_555
H4A C6A 1_555 1_555
H3A C5A 1_555 1_555
H2A C4A 1_555 1_555
H1A C3A 1_555 1_555
C16 C17 1_555 1_555
C6A C7A 1_555 1_555
C16A C17A 1_555 1_555
C18A C19A 1_555 1_555

#END
