
#######################################################################
#
#                 Cambridge Crystallographic Data Centre
#                                CCDC 
#
#######################################################################
#
# If this CIF has been generated from an entry in the Cambridge 
# Structural Database, then it will include bibliographic, chemical, 
# crystal, experimental, refinement or atomic coordinate data resulting 
# from the CCDC's data processing and validation procedures.
#
#######################################################################

data_MIXBUS
_chemical_formula_moiety         'C24 H15 N3 O2'
_chemical_name_systematic        6-Nitro-9H-3,9'-bicarbazole
_symmetry_cell_setting           monoclinic
_symmetry_space_group_name_H-M   'P 21/c'
_symmetry_Int_Tables_number      14
_space_group_name_Hall           '-P 2ybc'
loop_
_symmetry_equiv_pos_site_id
_symmetry_equiv_pos_as_xyz
1 x,y,z
2 -x,1/2+y,1/2-z
3 -x,-y,-z
4 x,1/2-y,1/2+z
_cell_length_a                   12.7311(10)
_cell_length_b                   15.7373(13)
_cell_length_c                   9.2462(7)
_cell_angle_alpha                90
_cell_angle_beta                 104.025(2)
_cell_angle_gamma                90
_cell_volume                     1797.28
_exptl_crystal_colour            red
_exptl_crystal_description       needle
_cell_formula_units_Z            4
loop_
_atom_site_label
_atom_site_type_symbol
_atom_site_fract_x
_atom_site_fract_y
_atom_site_fract_z
N1 N 0.42093(12) 0.12357(9) 0.98506(14)
N2 N 0.12467(12) 0.25102(10) 0.48908(15)
N3 N 0.02230(13) -0.06887(10) 0.24846(17)
O1 O 0.06816(12) -0.12971(9) 0.32096(16)
O2 O -0.04290(12) -0.07768(9) 0.12558(15)
C1 C 0.39219(14) 0.05883(11) 1.07253(18)
C2 C 0.29645(15) 0.01216(11) 1.05038(19)
H1 H 0.2383 0.0213 0.9656
C3 C 0.28961(17) -0.04804(12) 1.1569(2)
H2 H 0.2252 -0.0806 1.1445
C4 C 0.37445(19) -0.06239(13) 1.2818(2)
H3 H 0.3675 -0.1048 1.3521
C5 C 0.46797(18) -0.01544(13) 1.30371(19)
H4 H 0.5257 -0.0251 1.3889
C6 C 0.47736(15) 0.04663(11) 1.19944(18)
C7 C 0.56129(15) 0.10658(11) 1.19017(18)
C8 C 0.66306(16) 0.12469(12) 1.2821(2)
H5 H 0.6878 0.0960 1.3745
C9 C 0.72707(16) 0.18455(13) 1.2372(2)
H6 H 0.7962 0.1975 1.2995
C10 C 0.69173(16) 0.22652(12) 1.1009(2)
H7 H 0.7383 0.2665 1.0709
C11 C 0.59040(15) 0.21124(11) 1.0083(2)
H8 H 0.5666 0.2402 0.9160
C12 C 0.52485(14) 0.15197(11) 1.05565(18)
C13 C 0.35040(14) 0.15982(11) 0.85637(18)
C14 C 0.29157(14) 0.10690(11) 0.74645(18)
H9 H 0.3019 0.0471 0.7526
C15 C 0.21691(14) 0.14293(10) 0.62662(18)
C16 C 0.14322(14) 0.10797(11) 0.49633(17)
C17 C 0.12064(14) 0.02589(11) 0.44237(19)
H10 H 0.1553 -0.0219 0.4962
C18 C 0.04578(15) 0.01644(11) 0.30737(18)
C19 C -0.00791(15) 0.08505(12) 0.22489(19)
H11 H -0.0588 0.0753 0.1327
C20 C 0.01320(14) 0.16664(11) 0.27773(18)
H12 H -0.0224 0.2139 0.2232
C21 C 0.08838(14) 0.17769(11) 0.41369(18)
C22 C 0.20408(14) 0.23179(11) 0.61742(18)
C23 C 0.26584(14) 0.28546(11) 0.72487(18)
H13 H 0.2586 0.3454 0.7161
C24 C 0.33795(15) 0.24879(11) 0.84454(18)
H14 H 0.3799 0.2841 0.9202
H15 H 0.1046(17) 0.3029(14) 0.455(2)
loop_
_geom_bond_atom_site_label_1
_geom_bond_atom_site_label_2
_geom_bond_site_symmetry_1
_geom_bond_site_symmetry_2
N1 C1 1_555 1_555
N2 C21 1_555 1_555
N3 O1 1_555 1_555
O2 N3 1_555 1_555
C1 C2 1_555 1_555
C2 H1 1_555 1_555
C3 C2 1_555 1_555
H2 C3 1_555 1_555
C4 C3 1_555 1_555
H3 C4 1_555 1_555
C5 C4 1_555 1_555
H4 C5 1_555 1_555
C6 C1 1_555 1_555
C7 C6 1_555 1_555
C8 C7 1_555 1_555
H5 C8 1_555 1_555
C9 C8 1_555 1_555
H6 C9 1_555 1_555
C10 C9 1_555 1_555
H7 C10 1_555 1_555
C11 C10 1_555 1_555
H8 C11 1_555 1_555
C12 N1 1_555 1_555
C13 N1 1_555 1_555
C14 C13 1_555 1_555
H9 C14 1_555 1_555
C15 C14 1_555 1_555
C16 C15 1_555 1_555
C17 C16 1_555 1_555
H10 C17 1_555 1_555
C18 N3 1_555 1_555
C19 C18 1_555 1_555
H11 C19 1_555 1_555
C20 C19 1_555 1_555
H12 C20 1_555 1_555
C21 C16 1_555 1_555
C22 N2 1_555 1_555
C23 C22 1_555 1_555
H13 C23 1_555 1_555
C24 C13 1_555 1_555
H14 C24 1_555 1_555
H15 N2 1_555 1_555
C5 C6 1_555 1_555
C7 C12 1_555 1_555
C11 C12 1_555 1_555
C15 C22 1_555 1_555
C17 C18 1_555 1_555
C20 C21 1_555 1_555
C23 C24 1_555 1_555

#END
