
#######################################################################
#
#                 Cambridge Crystallographic Data Centre
#                                CCDC 
#
#######################################################################
#
# If this CIF has been generated from an entry in the Cambridge 
# Structural Database, then it will include bibliographic, chemical, 
# crystal, experimental, refinement or atomic coordinate data resulting 
# from the CCDC's data processing and validation procedures.
#
#######################################################################

data_MIXCAZ
_chemical_formula_moiety         'C25 H18 N2 O1'
_chemical_name_systematic        6-Methoxy-9H-2,9'-bicarbazole
_symmetry_cell_setting           monoclinic
_symmetry_space_group_name_H-M   'P 21/c'
_symmetry_Int_Tables_number      14
_space_group_name_Hall           '-P 2ybc'
loop_
_symmetry_equiv_pos_site_id
_symmetry_equiv_pos_as_xyz
1 x,y,z
2 -x,1/2+y,1/2-z
3 -x,-y,-z
4 x,1/2-y,1/2+z
_cell_length_a                   12.6024(5)
_cell_length_b                   7.6803(2)
_cell_length_c                   19.0480(7)
_cell_angle_alpha                90
_cell_angle_beta                 102.443(2)
_cell_angle_gamma                90
_cell_volume                     1800.35
_exptl_crystal_colour            colorless
_exptl_crystal_description       block
_cell_formula_units_Z            4
loop_
_atom_site_label
_atom_site_type_symbol
_atom_site_fract_x
_atom_site_fract_y
_atom_site_fract_z
N1 N 0.71488(8) 0.58607(13) 0.31377(5)
N2 N 0.87789(8) 0.01201(13) 0.28981(6)
O1 O 1.24213(7) -0.24089(12) 0.47574(5)
C1 C 0.64705(9) 0.66351(15) 0.35372(7)
C2 C 0.62769(10) 0.61700(17) 0.42069(7)
H1 H 0.6668 0.5251 0.4481
C3 C 0.54923(11) 0.71000(18) 0.44554(7)
H2 H 0.5336 0.6799 0.4906
C4 C 0.49220(10) 0.84729(19) 0.40603(7)
H3 H 0.4380 0.9073 0.4243
C5 C 0.51381(10) 0.89649(17) 0.34076(7)
H4 H 0.4761 0.9911 0.3145
C6 C 0.59230(9) 0.80420(15) 0.31423(7)
C7 C 0.63141(9) 0.81559(15) 0.24847(6)
C8 C 0.61209(10) 0.93200(16) 0.19088(7)
H5 H 0.5620 1.0250 0.1894
C9 C 0.66706(10) 0.90993(17) 0.13590(7)
H6 H 0.6555 0.9895 0.0968
C10 C 0.73971(10) 0.77067(17) 0.13765(7)
H7 H 0.7758 0.7569 0.0991
C11 C 0.76037(10) 0.65283(16) 0.19396(7)
H8 H 0.8094 0.5586 0.1945
C12 C 0.70629(9) 0.67822(15) 0.24977(6)
C13 C 0.78991(9) 0.44769(15) 0.33727(6)
C14 C 0.78451(9) 0.29754(15) 0.29624(6)
H9 H 0.7299 0.2820 0.2538
C15 C 0.86298(9) 0.17049(15) 0.32016(6)
C16 C 0.96694(9) -0.07072(15) 0.33233(6)
C17 C 1.01383(10) -0.23065(16) 0.32246(7)
H10 H 0.9840 -0.3030 0.2826
C18 C 1.10509(10) -0.28033(16) 0.37251(7)
H11 H 1.1385 -0.3888 0.3668
C19 C 1.14982(9) -0.17470(16) 0.43162(7)
C20 C 1.10257(9) -0.01674(15) 0.44262(6)
H12 H 1.1315 0.0534 0.4833
C21 C 1.01041(9) 0.03590(15) 0.39150(6)
C22 C 0.94399(9) 0.19138(15) 0.38371(6)
C23 C 0.94570(10) 0.34342(16) 0.42410(6)
H13 H 0.9989 0.3589 0.4673
C24 C 0.86924(10) 0.47088(16) 0.40055(7)
H14 H 0.8703 0.5753 0.4274
C25 C 1.29560(10) -0.13277(19) 0.53331(8)
H15 H 1.3135 -0.0208 0.5141
H16 H 1.3625 -0.1898 0.5587
H17 H 1.2476 -0.1133 0.5667
H18 H 0.8357(13) -0.029(2) 0.2512(9)
loop_
_geom_bond_atom_site_label_1
_geom_bond_atom_site_label_2
_geom_bond_site_symmetry_1
_geom_bond_site_symmetry_2
N1 C1 1_555 1_555
N2 C15 1_555 1_555
O1 C19 1_555 1_555
C1 C2 1_555 1_555
C2 H1 1_555 1_555
C3 C2 1_555 1_555
H2 C3 1_555 1_555
C4 C3 1_555 1_555
H3 C4 1_555 1_555
C5 C4 1_555 1_555
H4 C5 1_555 1_555
C6 C1 1_555 1_555
C7 C6 1_555 1_555
C8 C7 1_555 1_555
H5 C8 1_555 1_555
C9 C8 1_555 1_555
H6 C9 1_555 1_555
C10 C9 1_555 1_555
H7 C10 1_555 1_555
C11 C10 1_555 1_555
H8 C11 1_555 1_555
C12 N1 1_555 1_555
C13 N1 1_555 1_555
C14 C13 1_555 1_555
H9 C14 1_555 1_555
C15 C14 1_555 1_555
C16 N2 1_555 1_555
C17 C16 1_555 1_555
H10 C17 1_555 1_555
C18 C17 1_555 1_555
H11 C18 1_555 1_555
C19 C18 1_555 1_555
C20 C19 1_555 1_555
H12 C20 1_555 1_555
C21 C16 1_555 1_555
C22 C15 1_555 1_555
C23 C22 1_555 1_555
H13 C23 1_555 1_555
C24 C13 1_555 1_555
H14 C24 1_555 1_555
C25 O1 1_555 1_555
H15 C25 1_555 1_555
H16 C25 1_555 1_555
H17 C25 1_555 1_555
H18 N2 1_555 1_555
C5 C6 1_555 1_555
C7 C12 1_555 1_555
C11 C12 1_555 1_555
C20 C21 1_555 1_555
C21 C22 1_555 1_555
C23 C24 1_555 1_555

#END
