
#######################################################################
#
#                 Cambridge Crystallographic Data Centre
#                                CCDC 
#
#######################################################################
#
# If this CIF has been generated from an entry in the Cambridge 
# Structural Database, then it will include bibliographic, chemical, 
# crystal, experimental, refinement or atomic coordinate data resulting 
# from the CCDC's data processing and validation procedures.
#
#######################################################################

data_MIXFOQ
_chemical_formula_moiety         'C29 H37 N1 O7'
_chemical_name_systematic        
4-(4-Nitrophenoxy)-3-(2-(3,3,6a,10b-tetramethyl-8-methylenedecahydro-1H-naphtho[2,1-d][1,3]dioxin-7-yl)ethylidene)dihydrofuran-2(3H)-one
_symmetry_cell_setting           monoclinic
_symmetry_space_group_name_H-M   'P 21'
_symmetry_Int_Tables_number      4
_space_group_name_Hall           'P 2yb'
loop_
_symmetry_equiv_pos_site_id
_symmetry_equiv_pos_as_xyz
1 x,y,z
2 -x,1/2+y,-z
_cell_length_a                   10.115(2)
_cell_length_b                   8.7910(18)
_cell_length_c                   15.671(3)
_cell_angle_alpha                90
_cell_angle_beta                 103.74(3)
_cell_angle_gamma                90
_cell_volume                     1353.6
_cell_formula_units_Z            2
loop_
_atom_site_label
_atom_site_type_symbol
_atom_site_fract_x
_atom_site_fract_y
_atom_site_fract_z
N1 N 0.3463(7) 0.4038(8) 0.6748(5)
O1 O 0.0295(5) 0.6278(6) 0.0959(3)
C1 C 0.1794(7) 0.4182(8) 0.1458(4)
O2 O 0.1774(4) 0.6511(5) 0.2318(3)
C2 C 0.1354(8) 0.5435(10) 0.0746(5)
H1 H 0.2118 0.6096 0.0735
H2 H 0.1044 0.4974 0.0171
O3 O 1.0170(5) 0.1245(7) 0.4936(4)
C3 C 0.0722(7) 0.7187(9) 0.1684(5)
O4 O 1.0519(5) 0.0981(7) 0.3601(3)
C4 C 0.1627(7) 0.4901(8) 0.2342(5)
H3 H 0.0717 0.4659 0.2421
O5 O 0.6892(4) 0.2259(6) 0.4613(3)
C5 C 0.2649(5) 0.4307(9) 0.3094(4)
H4 H 0.2499 0.3224 0.3142
H5 H 0.2512 0.4784 0.3624
O6 O 0.2251(6) 0.3837(9) 0.6462(4)
C6 C 0.4127(5) 0.4558(8) 0.3050(4)
H6 H 0.4690 0.3830 0.3438
H7 H 0.4401 0.5565 0.3277
C7 C 0.4445(5) 0.4410(8) 0.2101(4)
O7 O 0.3921(7) 0.4659(7) 0.7444(4)
C8 C 0.3173(6) 0.3587(9) 0.1518(4)
H8 H 0.3166 0.2601 0.1809
C9 C 0.5739(6) 0.3483(8) 0.2152(4)
H9 H 0.5585 0.2486 0.2392
C10 C 0.5945(9) 0.3195(14) 0.1216(6)
C11 C 0.4793(8) 0.2290(12) 0.0704(6)
H10 H 0.4738 0.1331 0.1000
H11 H 0.4944 0.2069 0.0128
C12 C 0.3460(7) 0.3152(13) 0.0602(5)
H12 H 0.2718 0.2530 0.0276
H13 H 0.3493 0.4073 0.0266
C13 C -0.0519(8) 0.7508(13) 0.2063(5)
H14 H -0.0880 0.6564 0.2217
H15 H -0.1204 0.8025 0.1631
H16 H -0.0249 0.8133 0.2577
C14 C 0.1354(10) 0.8708(10) 0.1449(6)
H17 H 0.2140 0.8488 0.1227
H18 H 0.1617 0.9328 0.1966
H19 H 0.0694 0.9242 0.1010
C15 C 0.0706(8) 0.2851(9) 0.1257(6)
H20 H 0.0958 0.2068 0.1692
H21 H 0.0676 0.2435 0.0686
H22 H -0.0174 0.3244 0.1270
C16 C 0.4636(6) 0.6013(8) 0.1766(4)
H23 H 0.4815 0.5948 0.1192
H24 H 0.5389 0.6499 0.2161
H25 H 0.3824 0.6597 0.1735
C17 C 0.6996(8) 0.3823(17) 0.0943(5)
H26 H 0.7053 0.3707 0.0362
H27 H 0.7661 0.4370 0.1335
C18 C 0.6967(6) 0.4162(10) 0.2779(5)
H28 H 0.6685 0.4527 0.3292
H29 H 0.7261 0.5039 0.2496
C19 C 0.8186(6) 0.3116(8) 0.3087(4)
H30 H 0.8632 0.2819 0.2660
C20 C 0.8680(5) 0.2589(8) 0.3867(4)
C21 C 0.8234(5) 0.2901(8) 0.4692(3)
H31 H 0.8200 0.4002 0.4781
C22 C 0.9318(6) 0.2223(11) 0.5406(4)
H32 H 0.8922 0.1607 0.5794
H33 H 0.9871 0.3014 0.5748
C23 C 0.9852(6) 0.1538(11) 0.4086(5)
C24 C 0.6133(6) 0.2673(8) 0.5181(4)
C25 C 0.4762(6) 0.2288(8) 0.4945(4)
H34 H 0.4429 0.1730 0.4435
C26 C 0.3876(7) 0.2729(8) 0.5463(4)
H35 H 0.2964 0.2449 0.5310
C27 C 0.4384(6) 0.3589(8) 0.6206(4)
C28 C 0.5713(6) 0.3943(8) 0.6437(4)
H36 H 0.6041 0.4465 0.6961
C29 C 0.6623(6) 0.3563(8) 0.5926(4)
H37 H 0.7523 0.3891 0.6076
loop_
_geom_bond_atom_site_label_1
_geom_bond_atom_site_label_2
_geom_bond_site_symmetry_1
_geom_bond_site_symmetry_2
N1 O6 1_555 1_555
O1 C2 1_555 1_555
C1 C2 1_555 1_555
O2 C3 1_555 1_555
C2 H1 1_555 1_555
H2 C2 1_555 1_555
O3 C22 1_555 1_555
C3 O1 1_555 1_555
O4 C23 1_555 1_555
C4 C1 1_555 1_555
H3 C4 1_555 1_555
O5 C21 1_555 1_555
C5 C4 1_555 1_555
H4 C5 1_555 1_555
H5 C5 1_555 1_555
C6 C5 1_555 1_555
H6 C6 1_555 1_555
H7 C6 1_555 1_555
C7 C6 1_555 1_555
O7 N1 1_555 1_555
C8 C1 1_555 1_555
H8 C8 1_555 1_555
C9 C7 1_555 1_555
H9 C9 1_555 1_555
C10 C9 1_555 1_555
C11 C10 1_555 1_555
H10 C11 1_555 1_555
H11 C11 1_555 1_555
C12 C8 1_555 1_555
H12 C12 1_555 1_555
H13 C12 1_555 1_555
C13 C3 1_555 1_555
H14 C13 1_555 1_555
H15 C13 1_555 1_555
H16 C13 1_555 1_555
C14 C3 1_555 1_555
H17 C14 1_555 1_555
H18 C14 1_555 1_555
H19 C14 1_555 1_555
C15 C1 1_555 1_555
H20 C15 1_555 1_555
H21 C15 1_555 1_555
H22 C15 1_555 1_555
C16 C7 1_555 1_555
H23 C16 1_555 1_555
H24 C16 1_555 1_555
H25 C16 1_555 1_555
C17 C10 1_555 1_555
H26 C17 1_555 1_555
H27 C17 1_555 1_555
C18 C9 1_555 1_555
H28 C18 1_555 1_555
H29 C18 1_555 1_555
C19 C18 1_555 1_555
H30 C19 1_555 1_555
C20 C19 1_555 1_555
C21 C20 1_555 1_555
H31 C21 1_555 1_555
C22 C21 1_555 1_555
H32 C22 1_555 1_555
H33 C22 1_555 1_555
C23 O3 1_555 1_555
C24 O5 1_555 1_555
C25 C24 1_555 1_555
H34 C25 1_555 1_555
C26 C25 1_555 1_555
H35 C26 1_555 1_555
C27 N1 1_555 1_555
C28 C27 1_555 1_555
H36 C28 1_555 1_555
C29 C24 1_555 1_555
H37 C29 1_555 1_555
O2 C4 1_555 1_555
C7 C8 1_555 1_555
C11 C12 1_555 1_555
C20 C23 1_555 1_555
C26 C27 1_555 1_555
C28 C29 1_555 1_555

#END
