
#######################################################################
#
#                 Cambridge Crystallographic Data Centre
#                                CCDC 
#
#######################################################################
#
# If this CIF has been generated from an entry in the Cambridge 
# Structural Database, then it will include bibliographic, chemical, 
# crystal, experimental, refinement or atomic coordinate data resulting 
# from the CCDC's data processing and validation procedures.
#
#######################################################################

data_MIXMIR
_chemical_formula_moiety         'C20 H21 N3 O2'
_chemical_name_systematic        
N'-((8-hydroxy-2,3,6,7-tetrahydro-1H,5H-pyrido[3,2,1-ij]quinolin-9-yl)methylene)benzohydrazide
_symmetry_cell_setting           orthorhombic
_symmetry_space_group_name_H-M   'P b c a'
_symmetry_Int_Tables_number      61
_space_group_name_Hall           '-P 2ac 2ab'
loop_
_symmetry_equiv_pos_site_id
_symmetry_equiv_pos_as_xyz
1 x,y,z
2 1/2-x,-y,1/2+z
3 -x,1/2+y,1/2-z
4 1/2+x,1/2-y,-z
5 -x,-y,-z
6 1/2+x,y,1/2-z
7 x,1/2-y,1/2+z
8 1/2-x,1/2+y,z
_cell_length_a                   12.835(3)
_cell_length_b                   9.3810(19)
_cell_length_c                   28.713(6)
_cell_angle_alpha                90
_cell_angle_beta                 90
_cell_angle_gamma                90
_cell_volume                     3457.19
_exptl_crystal_description       needle
_cell_formula_units_Z            8
loop_
_atom_site_label
_atom_site_type_symbol
_atom_site_fract_x
_atom_site_fract_y
_atom_site_fract_z
C1 C 0.3126(3) 0.1612(3) 0.27232(11)
C2 C 0.3014(3) 0.0541(4) 0.23956(11)
H1 H 0.2461 -0.0126 0.2425
C3 C 0.3698(3) 0.0430(4) 0.20258(12)
H2 H 0.3615 -0.0321 0.1807
C4 C 0.4490(3) 0.1383(5) 0.19703(13)
H3 H 0.4951 0.1304 0.1713
C5 C 0.4619(3) 0.2467(4) 0.22920(13)
H4 H 0.5173 0.3131 0.2257
C6 C 0.3937(3) 0.2586(4) 0.26670(11)
H5 H 0.4025 0.3336 0.2886
C7 C 0.2419(3) 0.1596(4) 0.31353(11)
C8 C 0.2067(2) 0.3809(4) 0.40991(11)
H6 H 0.2517 0.4545 0.3994
C9 C 0.1621(2) 0.3916(3) 0.45553(11)
C10 C 0.0974(2) 0.2862(3) 0.47489(12)
C11 C 0.0607(3) 0.2935(3) 0.52035(12)
C12 C -0.0045(3) 0.1744(4) 0.53947(9)
H7 H 0.0204 0.0825 0.5266
H8 H -0.0778 0.1875 0.5296
C13 C 0.0009(3) 0.1697(4) 0.59298(9)
H9 H -0.0533 0.1045 0.6051
H10 H 0.0698 0.1333 0.6029
C14 C -0.0157(3) 0.3167(4) 0.61237(12)
H11 H -0.0865 0.3500 0.6041
H12 H -0.0108 0.3133 0.6468
C15 C 0.0824(3) 0.5408(4) 0.62317(12)
H13 H 0.0854 0.5115 0.6563
H14 H 0.0251 0.6107 0.6197
C16 C 0.1836(3) 0.6096(4) 0.60980(10)
H15 H 0.2418 0.5427 0.6155
H16 H 0.1951 0.6959 0.6290
C17 C 0.1802(3) 0.6505(4) 0.55799(9)
H17 H 0.1274 0.7259 0.5530
H18 H 0.2489 0.6883 0.5483
C18 C 0.1534(2) 0.5219(3) 0.52928(12)
C19 C 0.1886(3) 0.5071(3) 0.48423(11)
H19 H 0.2331 0.5788 0.4720
C20 C 0.0907(2) 0.4112(4) 0.54807(11)
N1 N 0.2401(2) 0.2774(3) 0.34005(9)
H20 H 0.274(2) 0.362(4) 0.3319(11)
N2 N 0.1876(2) 0.2742(3) 0.38259(9)
N3 N 0.0610(2) 0.4169(3) 0.59437(9)
O1 O 0.19021(17) 0.0525(2) 0.32391(7)
O2 O 0.06790(18) 0.1708(2) 0.44898(7)
H21 H 0.0948 0.1762 0.4224
loop_
_geom_bond_atom_site_label_1
_geom_bond_atom_site_label_2
_geom_bond_site_symmetry_1
_geom_bond_site_symmetry_2
C1 C2 1_555 1_555
C2 H1 1_555 1_555
C3 C2 1_555 1_555
H2 C3 1_555 1_555
C4 C3 1_555 1_555
H3 C4 1_555 1_555
C5 C4 1_555 1_555
H4 C5 1_555 1_555
C6 C1 1_555 1_555
H5 C6 1_555 1_555
C7 C1 1_555 1_555
C8 H6 1_555 1_555
C9 C8 1_555 1_555
C10 C9 1_555 1_555
C11 C10 1_555 1_555
C12 C11 1_555 1_555
H7 C12 1_555 1_555
H8 C12 1_555 1_555
C13 C12 1_555 1_555
H9 C13 1_555 1_555
H10 C13 1_555 1_555
C14 C13 1_555 1_555
H11 C14 1_555 1_555
H12 C14 1_555 1_555
C15 H13 1_555 1_555
H14 C15 1_555 1_555
C16 C15 1_555 1_555
H15 C16 1_555 1_555
H16 C16 1_555 1_555
C17 C16 1_555 1_555
H17 C17 1_555 1_555
H18 C17 1_555 1_555
C18 C17 1_555 1_555
C19 C9 1_555 1_555
H19 C19 1_555 1_555
C20 C11 1_555 1_555
N1 C7 1_555 1_555
H20 N1 1_555 1_555
N2 C8 1_555 1_555
N3 C14 1_555 1_555
O1 C7 1_555 1_555
O2 C10 1_555 1_555
H21 O2 1_555 1_555
C5 C6 1_555 1_555
C15 N3 1_555 1_555
C18 C19 1_555 1_555
C18 C20 1_555 1_555
C20 N3 1_555 1_555
N1 N2 1_555 1_555

#END
