
#######################################################################
#
#                 Cambridge Crystallographic Data Centre
#                                CCDC 
#
#######################################################################
#
# If this CIF has been generated from an entry in the Cambridge 
# Structural Database, then it will include bibliographic, chemical, 
# crystal, experimental, refinement or atomic coordinate data resulting 
# from the CCDC's data processing and validation procedures.
#
#######################################################################

data_MIXROC
_chemical_formula_moiety         'C18 H21 N1 O3 S2'
_chemical_name_systematic        
1-(t-butylsulfinyl)-2-phenyl-3-(phenylsulfonyl)aziridine
_symmetry_cell_setting           orthorhombic
_symmetry_space_group_name_H-M   'P 21 21 21'
_symmetry_Int_Tables_number      19
_space_group_name_Hall           'P 2ac 2ab'
loop_
_symmetry_equiv_pos_site_id
_symmetry_equiv_pos_as_xyz
1 x,y,z
2 1/2-x,-y,1/2+z
3 -x,1/2+y,1/2-z
4 1/2+x,1/2-y,-z
_cell_length_a                   6.4368(4)
_cell_length_b                   14.3488(9)
_cell_length_c                   20.3824(13)
_cell_angle_alpha                90
_cell_angle_beta                 90
_cell_angle_gamma                90
_cell_volume                     1882.53
_exptl_crystal_colour            colorless
_exptl_crystal_description       prismatic
_cell_formula_units_Z            4
loop_
_atom_site_label
_atom_site_type_symbol
_atom_site_fract_x
_atom_site_fract_y
_atom_site_fract_z
S1 S 0.52654(7) -0.02910(3) 0.81166(2)
S2 S 0.19445(9) -0.03635(3) 0.98091(2)
O1 O 0.7295(2) 0.01621(13) 0.82003(7)
O2 O 0.0094(3) 0.01782(10) 0.97404(8)
O3 O 0.2778(3) -0.05256(10) 1.04491(6)
N1 N 0.3500(2) 0.02209(9) 0.86384(6)
C1 C 0.3983(3) 0.01129(12) 0.93312(8)
H1 H 0.5346 -0.0167 0.9416
C2 C 0.4082(3) 0.10576(12) 0.90125(8)
H2 H 0.5506 0.1265 0.8925
C3 C 0.2584(3) 0.18355(11) 0.90608(8)
C4 C 0.3208(3) 0.26499(12) 0.93710(8)
H3 H 0.4523 0.2687 0.9558
C5 C 0.1883(4) 0.34037(12) 0.94030(9)
H4 H 0.2305 0.3943 0.9618
C6 C -0.0052(4) 0.33656(13) 0.91211(9)
H5 H -0.0938 0.3877 0.9144
C7 C -0.0673(3) 0.25636(14) 0.88043(9)
H6 H -0.1976 0.2537 0.8608
C8 C 0.0630(3) 0.17983(13) 0.87762(9)
H7 H 0.0194 0.1257 0.8566
C9 C 0.4168(3) 0.01437(16) 0.73465(8)
C10 C 0.4328(5) 0.11924(19) 0.73206(12)
H8 H 0.3954 0.1406 0.6890
H9 H 0.5728 0.1378 0.7417
H10 H 0.3402 0.1460 0.7638
C11 C 0.5566(4) -0.0318(2) 0.68263(10)
H11 H 0.5116 -0.0134 0.6396
H12 H 0.5474 -0.0983 0.6866
H13 H 0.6978 -0.0125 0.6892
C12 C 0.1954(4) -0.0217(2) 0.72961(12)
H14 H 0.1121 0.0061 0.7634
H15 H 0.1951 -0.0882 0.7348
H16 H 0.1393 -0.0059 0.6874
C13 C 0.1567(3) -0.14363(12) 0.94155(9)
C14 C 0.0196(3) -0.14826(16) 0.88969(11)
H17 H -0.0554 -0.0960 0.8767
C15 C -0.0036(4) -0.2315(2) 0.85781(14)
H18 H -0.0972 -0.2362 0.8232
C16 C 0.1090(5) -0.3078(2) 0.87621(16)
H19 H 0.0931 -0.3637 0.8536
C17 C 0.2429(4) -0.30273(17) 0.92679(16)
H20 H 0.3167 -0.3555 0.9393
C18 C 0.2721(4) -0.22068(15) 0.96014(12)
H21 H 0.3671 -0.2169 0.9944
loop_
_geom_bond_atom_site_label_1
_geom_bond_atom_site_label_2
_geom_bond_site_symmetry_1
_geom_bond_site_symmetry_2
S1 O1 1_555 1_555
S2 O2 1_555 1_555
O3 S2 1_555 1_555
N1 S1 1_555 1_555
C1 S2 1_555 1_555
H1 C1 1_555 1_555
C2 N1 1_555 1_555
H2 C2 1_555 1_555
C3 C2 1_555 1_555
C4 C3 1_555 1_555
H3 C4 1_555 1_555
C5 C4 1_555 1_555
H4 C5 1_555 1_555
C6 C5 1_555 1_555
H5 C6 1_555 1_555
C7 C6 1_555 1_555
H6 C7 1_555 1_555
C8 C3 1_555 1_555
H7 C8 1_555 1_555
C9 S1 1_555 1_555
C10 C9 1_555 1_555
H8 C10 1_555 1_555
H9 C10 1_555 1_555
H10 C10 1_555 1_555
C11 C9 1_555 1_555
H11 C11 1_555 1_555
H12 C11 1_555 1_555
H13 C11 1_555 1_555
C12 C9 1_555 1_555
H14 C12 1_555 1_555
H15 C12 1_555 1_555
H16 C12 1_555 1_555
C13 S2 1_555 1_555
C14 C13 1_555 1_555
H17 C14 1_555 1_555
C15 C14 1_555 1_555
H18 C15 1_555 1_555
C16 C15 1_555 1_555
H19 C16 1_555 1_555
C17 C16 1_555 1_555
H20 C17 1_555 1_555
C18 C13 1_555 1_555
H21 C18 1_555 1_555
N1 C1 1_555 1_555
C1 C2 1_555 1_555
C7 C8 1_555 1_555
C17 C18 1_555 1_555

#END
