
#######################################################################
#
#                 Cambridge Crystallographic Data Centre
#                                CCDC 
#
#######################################################################
#
# If this CIF has been generated from an entry in the Cambridge 
# Structural Database, then it will include bibliographic, chemical, 
# crystal, experimental, refinement or atomic coordinate data resulting 
# from the CCDC's data processing and validation procedures.
#
#######################################################################

data_MIXWIB
_chemical_formula_moiety         'C19 H18 Cl2 N2 O3'
_chemical_name_systematic        
1-(3-(bis(2-chloroethyl)amino)phenyl)-3-(4-nitrophenyl)prop-2-en-1-one
_symmetry_cell_setting           triclinic
_symmetry_space_group_name_H-M   'P -1'
_symmetry_Int_Tables_number      2
_space_group_name_Hall           '-P 1'
loop_
_symmetry_equiv_pos_site_id
_symmetry_equiv_pos_as_xyz
1 x,y,z
2 -x,-y,-z
_cell_length_a                   8.2636(19)
_cell_length_b                   9.447(2)
_cell_length_c                   12.137(3)
_cell_angle_alpha                75.701(3)
_cell_angle_beta                 88.461(4)
_cell_angle_gamma                87.110(4)
_cell_volume                     916.867
_cell_formula_units_Z            2
loop_
_atom_site_label
_atom_site_type_symbol
_atom_site_fract_x
_atom_site_fract_y
_atom_site_fract_z
Cl1 Cl 0.20052(8) 0.95414(8) 0.92548(5)
Cl2 Cl -0.45080(9) 1.16171(7) 0.76711(6)
N1 N 0.5509(2) 0.3350(3) 1.31531(17)
N2 N -0.1267(2) 1.02493(18) 0.67998(15)
O1 O 0.5509(3) 0.4361(3) 1.35910(17)
O2 O 0.6228(3) 0.2175(3) 1.35338(17)
O3 O 0.0295(3) 0.38794(17) 0.71705(16)
C1 C 0.1228(3) 1.0231(2) 0.78531(18)
H1 H 0.1575 1.1218 0.7541
H2 H 0.1644 0.9623 0.7362
C2 C -0.0600(3) 1.0233(2) 0.79024(17)
H3 H -0.0939 0.9370 0.8459
H4 H -0.1023 1.1086 0.8145
C3 C -0.2008(3) 1.1604(2) 0.61406(19)
H5 H -0.1716 1.1706 0.5346
H6 H -0.1559 1.2410 0.6376
C4 C -0.3825(3) 1.1728(3) 0.6246(2)
H7 H -0.4285 1.0952 0.5978
H8 H -0.4215 1.2653 0.5763
C5 C -0.1255(2) 0.8967(2) 0.64425(16)
C6 C -0.1992(2) 0.8883(2) 0.54333(17)
H9 H -0.2496 0.9715 0.4974
C7 C -0.1976(3) 0.7582(2) 0.51177(17)
H10 H -0.2479 0.7553 0.4448
C8 C -0.1238(3) 0.6321(2) 0.57629(17)
H11 H -0.1246 0.5450 0.5538
C9 C -0.0483(2) 0.6380(2) 0.67557(16)
C10 C -0.0501(2) 0.7684(2) 0.70820(16)
H12 H 0.0008 0.7705 0.7751
C11 C 0.0335(3) 0.5022(2) 0.74520(18)
C12 C 0.1198(3) 0.5066(2) 0.84932(18)
H13 H 0.1157 0.5933 0.8727
C13 C 0.2009(3) 0.3941(2) 0.90938(18)
H14 H 0.2025 0.3097 0.8828
C14 C 0.2903(2) 0.3834(2) 1.01388(17)
C15 C 0.3716(3) 0.2520(2) 1.06459(18)
H15 H 0.3688 0.1736 1.0311
C16 C 0.4558(3) 0.2358(2) 1.16295(18)
H16 H 0.5093 0.1473 1.1966
C17 C 0.4597(2) 0.3517(2) 1.21050(17)
C18 C 0.3813(3) 0.4843(2) 1.16349(18)
H17 H 0.3854 0.5619 1.1977
C19 C 0.2971(3) 0.4992(2) 1.06516(18)
H18 H 0.2439 0.5881 1.0323
loop_
_geom_bond_atom_site_label_1
_geom_bond_atom_site_label_2
_geom_bond_site_symmetry_1
_geom_bond_site_symmetry_2
Cl1 C1 1_555 1_555
Cl2 C4 1_555 1_555
N1 O1 1_555 1_555
N2 C2 1_555 1_555
O2 N1 1_555 1_555
O3 C11 1_555 1_555
C1 H1 1_555 1_555
H2 C1 1_555 1_555
C2 C1 1_555 1_555
H3 C2 1_555 1_555
H4 C2 1_555 1_555
C3 N2 1_555 1_555
H5 C3 1_555 1_555
H6 C3 1_555 1_555
C4 C3 1_555 1_555
H7 C4 1_555 1_555
H8 C4 1_555 1_555
C5 N2 1_555 1_555
C6 C5 1_555 1_555
H9 C6 1_555 1_555
C7 C6 1_555 1_555
H10 C7 1_555 1_555
C8 C7 1_555 1_555
H11 C8 1_555 1_555
C9 C8 1_555 1_555
C10 C5 1_555 1_555
H12 C10 1_555 1_555
C11 C9 1_555 1_555
C12 C11 1_555 1_555
H13 C12 1_555 1_555
C13 C12 1_555 1_555
H14 C13 1_555 1_555
C14 C13 1_555 1_555
C15 C14 1_555 1_555
H15 C15 1_555 1_555
C16 C15 1_555 1_555
H16 C16 1_555 1_555
C17 N1 1_555 1_555
C18 C17 1_555 1_555
H17 C18 1_555 1_555
C19 C14 1_555 1_555
H18 C19 1_555 1_555
C9 C10 1_555 1_555
C16 C17 1_555 1_555
C18 C19 1_555 1_555

#END
