
#######################################################################
#
#                 Cambridge Crystallographic Data Centre
#                                CCDC 
#
#######################################################################
#
# If this CIF has been generated from an entry in the Cambridge 
# Structural Database, then it will include bibliographic, chemical, 
# crystal, experimental, refinement or atomic coordinate data resulting 
# from the CCDC's data processing and validation procedures.
#
#######################################################################

data_MIXXAU
_chemical_formula_moiety         'C22 H22 Cl1 N3'
_chemical_name_systematic        
12-(4-chlorophenyl)-1,2,3,4,7,8,9,10-octahydrodibenzo[b,g][1,8]naphthyridin-11-amine
_symmetry_cell_setting           monoclinic
_symmetry_space_group_name_H-M   'P 21/c'
_symmetry_Int_Tables_number      14
_space_group_name_Hall           '-P 2ybc'
loop_
_symmetry_equiv_pos_site_id
_symmetry_equiv_pos_as_xyz
1 x,y,z
2 -x,1/2+y,1/2-z
3 -x,-y,-z
4 x,1/2-y,1/2+z
_cell_length_a                   12.238(3)
_cell_length_b                   9.804(3)
_cell_length_c                   14.837(4)
_cell_angle_alpha                90
_cell_angle_beta                 96.980(4)
_cell_angle_gamma                90
_cell_volume                     1766.97
_exptl_crystal_colour            colorless
_exptl_crystal_description       Platelet
_cell_formula_units_Z            4
loop_
_atom_site_label
_atom_site_type_symbol
_atom_site_fract_x
_atom_site_fract_y
_atom_site_fract_z
Cl1 Cl -0.01088(4) 0.40147(6) 0.12552(3)
N1 N 0.44284(10) 0.39696(12) 0.63191(8)
N2 N 0.57076(9) 0.25244(12) 0.58463(8)
N3 N 0.43199(11) 0.26873(15) 0.31241(8)
C1 C 0.34973(12) 0.46647(14) 0.61784(9)
C2 C 0.31317(13) 0.53103(17) 0.70174(9)
H1 H 0.3755 0.5834 0.7334
H2 H 0.2947 0.4577 0.7432
C3 C 0.21446(13) 0.62547(18) 0.68287(10)
H3 H 0.1825 0.6424 0.7400
H4 H 0.2388 0.7141 0.6603
C4 C 0.12752(13) 0.56451(19) 0.61331(11)
H5 H 0.0623 0.6251 0.6050
H6 H 0.1041 0.4749 0.6349
C5 C 0.17355(13) 0.54701(17) 0.52324(10)
H7 H 0.1201 0.4947 0.4812
H8 H 0.1821 0.6380 0.4961
C6 C 0.28378(11) 0.47409(15) 0.53245(9)
C7 C 0.32107(11) 0.40797(14) 0.45907(9)
C8 C 0.42264(11) 0.33538(14) 0.47105(9)
C9 C 0.47940(11) 0.32915(14) 0.56100(9)
C10 C 0.46986(11) 0.25843(14) 0.40227(9)
C11 C 0.55532(11) 0.16732(15) 0.43013(9)
C12 C 0.59391(12) 0.06911(15) 0.36187(10)
H9 H 0.6315 0.1211 0.3174
H10 H 0.5290 0.0238 0.3283
C13 C 0.67201(12) -0.03927(15) 0.40564(10)
H11 H 0.7091 -0.0852 0.3583
H12 H 0.6296 -0.1088 0.4350
C14 C 0.75821(12) 0.02364(16) 0.47616(10)
H13 H 0.7978 0.0975 0.4482
H14 H 0.8125 -0.0464 0.4999
C15 C 0.70023(12) 0.08093(16) 0.55331(10)
H15 H 0.6743 0.0042 0.5885
H16 H 0.7539 0.1340 0.5946
C16 C 0.60341(11) 0.17132(15) 0.52101(9)
C17 C 0.24353(11) 0.40562(15) 0.37229(9)
C18 C 0.22279(12) 0.52248(16) 0.32032(10)
H17 H 0.2631 0.6035 0.3362
C19 C 0.14294(12) 0.52118(17) 0.24499(10)
H18 H 0.1276 0.6017 0.2101
C20 C 0.08643(12) 0.40279(18) 0.22146(10)
C21 C 0.10633(12) 0.28479(18) 0.27132(10)
H19 H 0.0670 0.2035 0.2540
C22 C 0.18470(12) 0.28691(16) 0.34712(10)
H20 H 0.1985 0.2065 0.3824
H21 H 0.3867(15) 0.3361(19) 0.2953(12)
H22 H 0.4603(15) 0.2184(18) 0.2735(12)
loop_
_geom_bond_atom_site_label_1
_geom_bond_atom_site_label_2
_geom_bond_site_symmetry_1
_geom_bond_site_symmetry_2
Cl1 C20 1_555 1_555
N1 C1 1_555 1_555
N2 C9 1_555 1_555
N3 C10 1_555 1_555
C1 C2 1_555 1_555
C2 H1 1_555 1_555
H2 C2 1_555 1_555
C3 C2 1_555 1_555
H3 C3 1_555 1_555
H4 C3 1_555 1_555
C4 C3 1_555 1_555
H5 C4 1_555 1_555
H6 C4 1_555 1_555
C5 C4 1_555 1_555
H7 C5 1_555 1_555
H8 C5 1_555 1_555
C6 C1 1_555 1_555
C7 C6 1_555 1_555
C8 C7 1_555 1_555
C9 N1 1_555 1_555
C10 C8 1_555 1_555
C11 C10 1_555 1_555
C12 C11 1_555 1_555
H9 C12 1_555 1_555
H10 C12 1_555 1_555
C13 C12 1_555 1_555
H11 C13 1_555 1_555
H12 C13 1_555 1_555
C14 C13 1_555 1_555
H13 C14 1_555 1_555
H14 C14 1_555 1_555
C15 C14 1_555 1_555
H15 C15 1_555 1_555
H16 C15 1_555 1_555
C16 N2 1_555 1_555
C17 C7 1_555 1_555
C18 C17 1_555 1_555
H17 C18 1_555 1_555
C19 C18 1_555 1_555
H18 C19 1_555 1_555
C20 C19 1_555 1_555
C21 C20 1_555 1_555
H19 C21 1_555 1_555
C22 C17 1_555 1_555
H20 C22 1_555 1_555
H21 N3 1_555 1_555
H22 N3 1_555 1_555
C5 C6 1_555 1_555
C8 C9 1_555 1_555
C11 C16 1_555 1_555
C15 C16 1_555 1_555
C21 C22 1_555 1_555

#END
