
#######################################################################
#
#                 Cambridge Crystallographic Data Centre
#                                CCDC 
#
#######################################################################
#
# If this CIF has been generated from an entry in the Cambridge 
# Structural Database, then it will include bibliographic, chemical, 
# crystal, experimental, refinement or atomic coordinate data resulting 
# from the CCDC's data processing and validation procedures.
#
#######################################################################

data_MIYFIJ
_chemical_formula_moiety         'C21 H16 O3'
_chemical_name_systematic        
13c-Methoxy-1,2,3,13c-tetrahydrodibenzo(a,kl)xanthan-1-one
_symmetry_cell_setting           monoclinic
_symmetry_space_group_name_H-M   'P 21/n'
_symmetry_Int_Tables_number      14
_space_group_name_Hall           '-P 2yn'
loop_
_symmetry_equiv_pos_site_id
_symmetry_equiv_pos_as_xyz
1 x,y,z
2 1/2+x,1/2-y,1/2+z
3 -x,-y,-z
4 1/2-x,1/2+y,1/2-z
_cell_length_a                   7.736(4)
_cell_length_b                   11.104(6)
_cell_length_c                   18.183(9)
_cell_angle_alpha                90
_cell_angle_beta                 96.570(11)
_cell_angle_gamma                90
_cell_volume                     1551.67
_exptl_crystal_colour            colorless
_exptl_crystal_description       column
_chemical_melting_point          427-428K
_cell_formula_units_Z            4
_exptl_crystal_recrystallization_method methanol
loop_
_atom_site_label
_atom_site_type_symbol
_atom_site_fract_x
_atom_site_fract_y
_atom_site_fract_z
O1 O 0.51108(19) 0.89425(14) 0.24474(8)
O2 O 0.02682(18) 0.84231(13) 0.29130(8)
O3 O 0.1503(2) 1.11628(15) 0.35660(9)
C1 C 0.3752(3) 0.9294(2) 0.19416(12)
C2 C 0.4122(4) 0.9473(2) 0.12249(14)
H1 H 0.5213 0.9281 0.1089
C3 C 0.2847(4) 0.9942(3) 0.07145(14)
H2 H 0.3092 1.0084 0.0233
C4 C 0.1214(4) 1.0204(2) 0.09044(14)
H3 H 0.0379 1.0538 0.0555
C5 C 0.0814(3) 0.9972(2) 0.16133(12)
C6 C 0.2114(3) 0.94939(18) 0.21410(11)
C7 C 0.1668(3) 0.92797(18) 0.29168(11)
C8 C 0.0826(3) 1.04767(19) 0.31029(13)
C9 C -0.0833(3) 1.0780(2) 0.26218(13)
H4 H -0.0925 1.1648 0.2574
H5 H -0.1813 1.0502 0.2865
C10 C -0.0951(3) 1.0222(2) 0.18475(14)
H6 H -0.1604 0.9476 0.1843
H7 H -0.1577 1.0767 0.1495
C11 C 0.0695(3) 0.7243(2) 0.27040(14)
H8 H -0.0299 0.6728 0.2717
H9 H 0.1642 0.6944 0.3041
H10 H 0.1029 0.7255 0.2212
C12 C 0.4830(3) 0.87999(19) 0.31825(12)
C13 C 0.3243(3) 0.89315(18) 0.34337(11)
C14 C 0.3144(3) 0.86835(19) 0.42057(12)
C15 C 0.1566(3) 0.8709(2) 0.45268(13)
H11 H 0.0545 0.8930 0.4238
C16 C 0.1507(4) 0.8417(3) 0.52522(14)
H12 H 0.0448 0.8432 0.5448
C17 C 0.3016(4) 0.8095(3) 0.57033(14)
H13 H 0.2958 0.7885 0.6195
C18 C 0.4574(4) 0.8088(2) 0.54223(13)
H14 H 0.5584 0.7900 0.5729
C19 C 0.4669(3) 0.8364(2) 0.46712(12)
C20 C 0.6268(3) 0.8297(2) 0.43747(14)
H15 H 0.7277 0.8115 0.4683
C21 C 0.6353(3) 0.8497(2) 0.36420(14)
H16 H 0.7409 0.8433 0.3447
loop_
_geom_bond_atom_site_label_1
_geom_bond_atom_site_label_2
_geom_bond_site_symmetry_1
_geom_bond_site_symmetry_2
O1 C1 1_555 1_555
O2 C7 1_555 1_555
O3 C8 1_555 1_555
C1 C2 1_555 1_555
C2 H1 1_555 1_555
C3 C2 1_555 1_555
H2 C3 1_555 1_555
C4 C3 1_555 1_555
H3 C4 1_555 1_555
C5 C4 1_555 1_555
C6 C1 1_555 1_555
C7 C6 1_555 1_555
C8 C7 1_555 1_555
C9 C8 1_555 1_555
H4 C9 1_555 1_555
H5 C9 1_555 1_555
C10 C5 1_555 1_555
H6 C10 1_555 1_555
H7 C10 1_555 1_555
C11 O2 1_555 1_555
H8 C11 1_555 1_555
H9 C11 1_555 1_555
H10 C11 1_555 1_555
C12 O1 1_555 1_555
C13 C7 1_555 1_555
C14 C13 1_555 1_555
C15 C14 1_555 1_555
H11 C15 1_555 1_555
C16 C15 1_555 1_555
H12 C16 1_555 1_555
C17 C16 1_555 1_555
H13 C17 1_555 1_555
C18 C17 1_555 1_555
H14 C18 1_555 1_555
C19 C14 1_555 1_555
C20 C19 1_555 1_555
H15 C20 1_555 1_555
C21 C12 1_555 1_555
H16 C21 1_555 1_555
C5 C6 1_555 1_555
C9 C10 1_555 1_555
C12 C13 1_555 1_555
C18 C19 1_555 1_555
C20 C21 1_555 1_555

#END
