
#######################################################################
#
#                 Cambridge Crystallographic Data Centre
#                                CCDC 
#
#######################################################################
#
# If this CIF has been generated from an entry in the Cambridge 
# Structural Database, then it will include bibliographic, chemical, 
# crystal, experimental, refinement or atomic coordinate data resulting 
# from the CCDC's data processing and validation procedures.
#
#######################################################################

data_MIYJIO
_chemical_name_common            
N-(1-(2-Methyl-1-methylcarbamoylpropylcarbamoyl)-2,3-diphenylcyclopropyl)benzamide
_chemical_formula_moiety         'C29 H31 N3 O3'
_chemical_name_systematic        
'(N-Benzoyl-\a-(1,2-diphenylethane-1,2-diyl)glycinyl)-valine N-methylamide'
_symmetry_cell_setting           orthorhombic
_symmetry_space_group_name_H-M   'P 21 21 21'
_symmetry_Int_Tables_number      19
_space_group_name_Hall           'P 2ac 2ab'
loop_
_symmetry_equiv_pos_site_id
_symmetry_equiv_pos_as_xyz
1 x,y,z
2 1/2+x,1/2-y,-z
3 -x,1/2+y,1/2-z
4 1/2-x,-y,1/2+z
_cell_length_a                   11.0855(11)
_cell_length_b                   18.7756(19)
_cell_length_c                   24.434(2)
_cell_angle_alpha                90
_cell_angle_beta                 90
_cell_angle_gamma                90
_cell_volume                     5085.62
_exptl_crystal_colour            colorless
_exptl_crystal_description       block
_cell_formula_units_Z            8
loop_
_atom_site_label
_atom_site_type_symbol
_atom_site_fract_x
_atom_site_fract_y
_atom_site_fract_z
O1 O 0.4021(3) 0.56716(14) 0.45848(11)
O2 O 0.3634(2) 0.63435(13) 0.32954(11)
O3 O 0.6303(3) 0.63662(13) 0.22936(11)
N1 N 0.3286(3) 0.47647(15) 0.40834(12)
H1 H 0.3182 0.4304 0.4040
N2 N 0.4850(3) 0.53773(16) 0.33314(13)
H2 H 0.4885 0.4916 0.3394
N3 N 0.5645(3) 0.52397(16) 0.22189(13)
H3 H 0.5371 0.4859 0.2389
C1 C 0.2851(3) 0.52666(18) 0.36870(14)
C2 C 0.1599(3) 0.5591(2) 0.37625(15)
H7 H 0.1527 0.6094 0.3632
C3 C 0.1807(3) 0.50559(19) 0.33137(15)
H8 H 0.1467 0.4574 0.3393
C4 C 0.3866(3) 0.5030(2) 0.45303(15)
C5 C 0.4369(3) 0.45098(19) 0.49325(15)
C6 C 0.3878(4) 0.3841(2) 0.50306(15)
H9 H 0.3181 0.3692 0.4835
C7 C 0.4402(4) 0.3389(2) 0.54136(16)
H10 H 0.4061 0.2933 0.5481
C8 C 0.5416(4) 0.3601(2) 0.56948(16)
H11 H 0.5779 0.3288 0.5952
C9 C 0.5909(4) 0.4270(2) 0.56053(16)
H12 H 0.6603 0.4417 0.5803
C10 C 0.5388(4) 0.4721(2) 0.52283(16)
H13 H 0.5725 0.5179 0.5169
C11 C 0.3806(3) 0.57132(19) 0.34275(15)
C12 C 0.5928(3) 0.57316(19) 0.31303(15)
H14 H 0.5940 0.6222 0.3290
C13 C 0.5951(3) 0.58100(19) 0.25116(15)
C14 C 0.5753(4) 0.5230(2) 0.16232(16)
H15 H 0.5177 0.5567 0.1464
H16 H 0.5579 0.4749 0.1487
H17 H 0.6574 0.5366 0.1518
C15 C 0.7058(3) 0.5339(2) 0.33399(16)
H18 H 0.7038 0.4846 0.3184
C16 C 0.7061(5) 0.5267(3) 0.39582(18)
H19 H 0.7803 0.5027 0.4075
H20 H 0.6361 0.4987 0.4074
H21 H 0.7023 0.5741 0.4125
C17 C 0.8214(4) 0.5693(3) 0.3137(2)
H22 H 0.8201 0.5718 0.2737
H23 H 0.8913 0.5412 0.3256
H24 H 0.8271 0.6175 0.3289
C18 C 0.0845(4) 0.5423(2) 0.42510(16)
C19 C 0.0510(4) 0.4738(2) 0.43892(18)
H25 H 0.0781 0.4348 0.4173
C20 C -0.0221(5) 0.4613(3) 0.4843(2)
H26 H -0.0439 0.4138 0.4934
C21 C -0.0630(5) 0.5159(4) 0.51581(19)
H27 H -0.1132 0.5068 0.5465
C22 C -0.0303(5) 0.5850(3) 0.5025(2)
H28 H -0.0580 0.6238 0.5241
C23 C 0.0433(5) 0.5973(3) 0.45756(19)
H29 H 0.0658 0.6448 0.4489
C24 C 0.1781(3) 0.52540(19) 0.27199(15)
C25 C 0.1061(4) 0.5803(2) 0.25281(16)
H30 H 0.0617 0.6086 0.2780
C26 C 0.0981(4) 0.5944(2) 0.19709(16)
H31 H 0.0479 0.6320 0.1845
C27 C 0.1625(4) 0.5542(2) 0.15993(17)
H32 H 0.1556 0.5633 0.1218
C28 C 0.2368(4) 0.5010(2) 0.17881(15)
H33 H 0.2826 0.4738 0.1535
C29 C 0.2456(4) 0.4867(2) 0.23404(15)
H34 H 0.2981 0.4500 0.2464
O4 O 0.4431(3) 0.37581(14) 0.16907(11)
O5 O 0.4738(2) 0.38704(13) 0.29983(11)
O6 O 0.2321(3) 0.32864(14) 0.40030(11)
N4 N 0.5320(3) 0.27166(15) 0.18903(12)
H4 H 0.5518 0.2280 0.1794
N5 N 0.3702(3) 0.28786(15) 0.27554(12)
H5 H 0.3733 0.2471 0.2578
N6 N 0.3170(3) 0.22395(17) 0.37701(13)
H6 H 0.3380 0.1950 0.3503
C30 C 0.5701(3) 0.30086(18) 0.24056(15)
C31 C 0.6928(3) 0.33569(19) 0.24673(15)
H35 H 0.6938 0.3755 0.2739
C32 C 0.6702(3) 0.2636(2) 0.27220(16)
H36 H 0.7084 0.2232 0.2519
C33 C 0.4645(4) 0.3136(2) 0.15574(15)
C34 C 0.4133(4) 0.2819(2) 0.10519(15)
C35 C 0.3084(4) 0.3131(3) 0.08451(18)
H37 H 0.2749 0.3535 0.1023
C36 C 0.2531(4) 0.2860(3) 0.03858(19)
H38 H 0.1815 0.3074 0.0249
C37 C 0.3023(4) 0.2277(3) 0.01265(18)
H39 H 0.2634 0.2083 -0.0186
C38 C 0.4074(4) 0.1974(2) 0.03158(17)
H40 H 0.4419 0.1582 0.0127
C39 C 0.4630(4) 0.2239(2) 0.07822(15)
H41 H 0.5348 0.2024 0.0916
C40 C 0.4673(4) 0.33013(19) 0.27424(15)
C41 C 0.2599(3) 0.30553(19) 0.30468(15)
H42 H 0.2479 0.3582 0.3018
C42 C 0.2704(3) 0.2873(2) 0.36470(15)
C43 C 0.3341(4) 0.2014(2) 0.43351(16)
H43 H 0.3996 0.2291 0.4501
H44 H 0.3547 0.1507 0.4344
H45 H 0.2594 0.2094 0.4541
C44 C 0.1496(3) 0.2692(2) 0.27849(16)
H46 H 0.1570 0.2167 0.2842
C45 C 0.0334(4) 0.2947(3) 0.3063(2)
H47 H 0.0368 0.2835 0.3455
H48 H -0.0360 0.2707 0.2898
H49 H 0.0252 0.3463 0.3015
C46 C 0.1444(5) 0.2835(3) 0.21725(18)
H50 H 0.0714 0.2617 0.2020
H51 H 0.2157 0.2629 0.1996
H52 H 0.1426 0.3350 0.2108
C47 C 0.7784(3) 0.3458(2) 0.20075(16)
C48 C 0.8351(4) 0.4115(2) 0.19525(18)
H53 H 0.8159 0.4487 0.2200
C49 C 0.9194(4) 0.4236(3) 0.15418(19)
H54 H 0.9575 0.4688 0.1514
C50 C 0.9480(4) 0.3710(3) 0.11777(19)
H55 H 1.0054 0.3795 0.0897
C51 C 0.8926(4) 0.3055(2) 0.12222(17)
H56 H 0.9117 0.2689 0.0968
C52 C 0.8092(4) 0.2924(2) 0.16335(16)
H57 H 0.7727 0.2468 0.1661
C53 C 0.6617(3) 0.2521(2) 0.33230(15)
C54 C 0.6415(4) 0.1840(2) 0.35185(16)
H58 H 0.6328 0.1458 0.3267
C55 C 0.6337(4) 0.1705(2) 0.40732(17)
H59 H 0.6207 0.1232 0.4198
C56 C 0.6447(4) 0.2251(3) 0.44483(18)
H60 H 0.6386 0.2156 0.4829
C57 C 0.6644(4) 0.2929(2) 0.42659(17)
H61 H 0.6714 0.3309 0.4521
C58 C 0.6741(4) 0.3066(2) 0.37071(17)
H62 H 0.6895 0.3538 0.3586
loop_
_geom_bond_atom_site_label_1
_geom_bond_atom_site_label_2
_geom_bond_site_symmetry_1
_geom_bond_site_symmetry_2
O1 C4 1_555 1_555
O2 C11 1_555 1_555
O3 C13 1_555 1_555
O4 C33 1_555 1_555
O5 C40 1_555 1_555
O6 C42 1_555 1_555
N1 H1 1_555 1_555
N2 H2 1_555 1_555
N3 H3 1_555 1_555
N4 H4 1_555 1_555
N5 H5 1_555 1_555
N6 H6 1_555 1_555
C1 N1 1_555 1_555
C2 C1 1_555 1_555
H7 C2 1_555 1_555
C3 C1 1_555 1_555
H8 C3 1_555 1_555
C4 N1 1_555 1_555
C5 C4 1_555 1_555
C6 C5 1_555 1_555
H9 C6 1_555 1_555
C7 C6 1_555 1_555
H10 C7 1_555 1_555
C8 C7 1_555 1_555
H11 C8 1_555 1_555
C9 C8 1_555 1_555
H12 C9 1_555 1_555
C10 C5 1_555 1_555
H13 C10 1_555 1_555
C11 N2 1_555 1_555
C12 N2 1_555 1_555
H14 C12 1_555 1_555
C13 N3 1_555 1_555
C14 N3 1_555 1_555
H15 C14 1_555 1_555
H16 C14 1_555 1_555
H17 C14 1_555 1_555
C15 C12 1_555 1_555
H18 C15 1_555 1_555
C16 C15 1_555 1_555
H19 C16 1_555 1_555
H20 C16 1_555 1_555
H21 C16 1_555 1_555
C17 C15 1_555 1_555
H22 C17 1_555 1_555
H23 C17 1_555 1_555
H24 C17 1_555 1_555
C18 C2 1_555 1_555
C19 C18 1_555 1_555
H25 C19 1_555 1_555
C20 C19 1_555 1_555
H26 C20 1_555 1_555
C21 C20 1_555 1_555
H27 C21 1_555 1_555
C22 C21 1_555 1_555
H28 C22 1_555 1_555
C23 C18 1_555 1_555
H29 C23 1_555 1_555
C24 C3 1_555 1_555
C25 C24 1_555 1_555
H30 C25 1_555 1_555
C26 C25 1_555 1_555
H31 C26 1_555 1_555
C27 C26 1_555 1_555
H32 C27 1_555 1_555
C28 C27 1_555 1_555
H33 C28 1_555 1_555
C29 C24 1_555 1_555
H34 C29 1_555 1_555
C30 N4 1_555 1_555
C31 C30 1_555 1_555
H35 C31 1_555 1_555
C32 C30 1_555 1_555
H36 C32 1_555 1_555
C33 N4 1_555 1_555
C34 C33 1_555 1_555
C35 C34 1_555 1_555
H37 C35 1_555 1_555
C36 C35 1_555 1_555
H38 C36 1_555 1_555
C37 C36 1_555 1_555
H39 C37 1_555 1_555
C38 C37 1_555 1_555
H40 C38 1_555 1_555
C39 C34 1_555 1_555
H41 C39 1_555 1_555
C40 N5 1_555 1_555
C41 N5 1_555 1_555
H42 C41 1_555 1_555
C42 N6 1_555 1_555
C43 N6 1_555 1_555
H43 C43 1_555 1_555
H44 C43 1_555 1_555
H45 C43 1_555 1_555
C44 C41 1_555 1_555
H46 C44 1_555 1_555
C45 C44 1_555 1_555
H47 C45 1_555 1_555
H48 C45 1_555 1_555
H49 C45 1_555 1_555
C46 C44 1_555 1_555
H50 C46 1_555 1_555
H51 C46 1_555 1_555
H52 C46 1_555 1_555
C47 C31 1_555 1_555
C48 C47 1_555 1_555
H53 C48 1_555 1_555
C49 C48 1_555 1_555
H54 C49 1_555 1_555
C50 C49 1_555 1_555
H55 C50 1_555 1_555
C51 C50 1_555 1_555
H56 C51 1_555 1_555
C52 C47 1_555 1_555
H57 C52 1_555 1_555
C53 C32 1_555 1_555
C54 C53 1_555 1_555
H58 C54 1_555 1_555
C55 C54 1_555 1_555
H59 C55 1_555 1_555
C56 C55 1_555 1_555
H60 C56 1_555 1_555
C57 C56 1_555 1_555
H61 C57 1_555 1_555
C58 C53 1_555 1_555
H62 C58 1_555 1_555
C1 C11 1_555 1_555
C2 C3 1_555 1_555
C9 C10 1_555 1_555
C12 C13 1_555 1_555
C22 C23 1_555 1_555
C28 C29 1_555 1_555
C30 C40 1_555 1_555
C31 C32 1_555 1_555
C38 C39 1_555 1_555
C41 C42 1_555 1_555
C51 C52 1_555 1_555
C57 C58 1_555 1_555

#END
