
#######################################################################
#
#                 Cambridge Crystallographic Data Centre
#                                CCDC 
#
#######################################################################
#
# If this CIF has been generated from an entry in the Cambridge 
# Structural Database, then it will include bibliographic, chemical, 
# crystal, experimental, refinement or atomic coordinate data resulting 
# from the CCDC's data processing and validation procedures.
#
#######################################################################

data_MIYKAG
_chemical_formula_moiety         'C16 H17 N1 O1'
_chemical_name_systematic        N-(2-Methyl-1-(2-naphthyl)propenyl)acetamide
_symmetry_cell_setting           orthorhombic
_symmetry_space_group_name_H-M   'P 21 21 21'
_symmetry_Int_Tables_number      19
_space_group_name_Hall           'P 2ac 2ab'
loop_
_symmetry_equiv_pos_site_id
_symmetry_equiv_pos_as_xyz
1 x,y,z
2 1/2-x,-y,1/2+z
3 -x,1/2+y,1/2-z
4 1/2+x,1/2-y,-z
_cell_length_a                   8.9766(14)
_cell_length_b                   12.3744(19)
_cell_length_c                   12.4145(18)
_cell_angle_alpha                90
_cell_angle_beta                 90
_cell_angle_gamma                90
_cell_volume                     1379
_exptl_crystal_colour            colorless
_exptl_crystal_description       needle
_cell_formula_units_Z            4
_exptl_crystal_recrystallization_method 'ethyl acetate/hexane'
loop_
_atom_site_label
_atom_site_type_symbol
_atom_site_fract_x
_atom_site_fract_y
_atom_site_fract_z
O1 O 0.4357(2) 0.67851(15) 0.49420(15)
N1 N 0.2095(2) 0.72939(16) 0.43428(15)
H1 H 0.1294 0.7645 0.4492
C1 C 0.2496(3) 0.7499(2) 0.24112(18)
C2 C 0.1689(3) 0.7496(2) 0.14753(19)
H2 H 0.0888 0.7024 0.1416
C3 C 0.2021(3) 0.8177(2) 0.0599(2)
C4 C 0.1207(3) 0.8155(2) -0.0374(2)
H3 H 0.0397 0.7690 -0.0440
C5 C 0.1584(4) 0.8793(3) -0.1208(2)
H4 H 0.1034 0.8766 -0.1842
C6 C 0.2783(4) 0.9491(3) -0.1129(2)
H5 H 0.3047 0.9914 -0.1718
C7 C 0.3581(3) 0.9565(2) -0.0200(2)
H6 H 0.4363 1.0056 -0.0149
C8 C 0.3225(3) 0.8899(2) 0.0688(2)
C9 C 0.4010(3) 0.8934(2) 0.1664(2)
H7 H 0.4770 0.9438 0.1750
C10 C 0.3684(3) 0.8249(2) 0.2489(2)
H8 H 0.4252 0.8273 0.3115
C11 C 0.2185(3) 0.6760(2) 0.33180(19)
C12 C 0.1977(3) 0.5698(2) 0.3247(2)
C13 C 0.2180(4) 0.5066(2) 0.22083(18)
H9 H 0.2714 0.5500 0.1697
H10 H 0.1222 0.4881 0.1919
H11 H 0.2733 0.4418 0.2353
C14 C 0.1606(3) 0.5007(2) 0.4207(2)
H12 H 0.1307 0.5461 0.4796
H13 H 0.2466 0.4595 0.4413
H14 H 0.0807 0.4525 0.4026
C15 C 0.3184(3) 0.7280(2) 0.5082(2)
C16 C 0.2898(3) 0.7921(2) 0.60835(17)
H15 H 0.3324 0.7554 0.6691
H16 H 0.1844 0.7998 0.6188
H17 H 0.3344 0.8623 0.6014
loop_
_geom_bond_atom_site_label_1
_geom_bond_atom_site_label_2
_geom_bond_site_symmetry_1
_geom_bond_site_symmetry_2
O1 C15 1_555 1_555
N1 H1 1_555 1_555
C1 C2 1_555 1_555
C2 H2 1_555 1_555
C3 C2 1_555 1_555
C4 C3 1_555 1_555
H3 C4 1_555 1_555
C5 C4 1_555 1_555
H4 C5 1_555 1_555
C6 C5 1_555 1_555
H5 C6 1_555 1_555
C7 C6 1_555 1_555
H6 C7 1_555 1_555
C8 C3 1_555 1_555
C9 C8 1_555 1_555
H7 C9 1_555 1_555
C10 C1 1_555 1_555
H8 C10 1_555 1_555
C11 N1 1_555 1_555
C12 C11 1_555 1_555
C13 C12 1_555 1_555
H9 C13 1_555 1_555
H10 C13 1_555 1_555
H11 C13 1_555 1_555
C14 C12 1_555 1_555
H12 C14 1_555 1_555
H13 C14 1_555 1_555
H14 C14 1_555 1_555
C15 N1 1_555 1_555
C16 C15 1_555 1_555
H15 C16 1_555 1_555
H16 C16 1_555 1_555
H17 C16 1_555 1_555
C1 C11 1_555 1_555
C7 C8 1_555 1_555
C9 C10 1_555 1_555

#END
