
#######################################################################
#
#                 Cambridge Crystallographic Data Centre
#                                CCDC 
#
#######################################################################
#
# If this CIF has been generated from an entry in the Cambridge 
# Structural Database, then it will include bibliographic, chemical, 
# crystal, experimental, refinement or atomic coordinate data resulting 
# from the CCDC's data processing and validation procedures.
#
#######################################################################

data_MIYLUC
_chemical_formula_moiety         'C72 H144 Mg2 O10 P4 4+,4(Cl1 1-)'
_chemical_name_systematic        
'bis(\m~2~-Aqua)-tetra-aqua-tetrakis(tricyclohexylphosphine oxide)-di-magnesium tetrachloride'
_symmetry_cell_setting           monoclinic
_symmetry_space_group_name_H-M   'P 21/n'
_symmetry_Int_Tables_number      14
_space_group_name_Hall           '-P 2yn'
loop_
_symmetry_equiv_pos_site_id
_symmetry_equiv_pos_as_xyz
1 x,y,z
2 1/2-x,1/2+y,1/2-z
3 -x,-y,-z
4 1/2+x,1/2-y,1/2+z
_cell_length_a                   15.281(5)
_cell_length_b                   15.179(4)
_cell_length_c                   18.947(6)
_cell_angle_alpha                90
_cell_angle_beta                 113.436(6)
_cell_angle_gamma                90
_cell_volume                     4032.22
_exptl_crystal_colour            colorless
_exptl_crystal_description       needle
_cell_formula_units_Z            2
loop_
_atom_site_label
_atom_site_type_symbol
_atom_site_fract_x
_atom_site_fract_y
_atom_site_fract_z
Mg1 Mg 0.50227(19) 0.4769(2) 0.09541(16)
P1 P 0.31725(18) 0.52344(19) 0.15047(15)
P2 P 0.66297(16) 0.35729(17) 0.24674(14)
O1 O 0.4006(4) 0.5147(4) 0.1276(3)
O2 O 0.5928(4) 0.4181(4) 0.1884(3)
O3 O 0.4338(5) 0.3619(5) 0.0479(4)
O4 O 0.5707(4) 0.5962(4) 0.1253(3)
O5 O 0.4147(4) 0.5444(4) -0.0240(3)
C1 C 0.3532(8) 0.5082(8) 0.2517(6)
H1 H 0.349(6) 0.444(7) 0.258(5)
C2 C 0.4546(8) 0.5301(8) 0.2985(6)
H2 H 0.4644 0.5927 0.2946
H3 H 0.4949 0.4987 0.2784
C3 C 0.4832(9) 0.5057(11) 0.3826(6)
H4 H 0.5473 0.5264 0.4127
H5 H 0.4823 0.4422 0.3879
C4 C 0.4120(10) 0.5487(10) 0.4127(6)
H6 H 0.4277 0.5294 0.4652
H7 H 0.4196 0.6122 0.4135
C5 C 0.3136(10) 0.5272(9) 0.3668(7)
H8 H 0.2729 0.5598 0.3859
H9 H 0.3035 0.4648 0.3722
C6 C 0.2865(8) 0.5475(8) 0.2861(6)
H10 H 0.2851 0.6110 0.2799
H11 H 0.2224 0.5257 0.2572
C7 C 0.2288(7) 0.4402(7) 0.1021(7)
H12 H 0.217(6) 0.446(6) 0.048(5)
C8 C 0.2651(7) 0.3472(7) 0.1225(6)
H13 H 0.3260 0.3412 0.1182
H14 H 0.2749 0.3351 0.1754
C9 C 0.1961(7) 0.2818(8) 0.0706(7)
H15 H 0.2201 0.2228 0.0870
H16 H 0.1925 0.2899 0.0187
C10 C 0.0979(8) 0.2892(8) 0.0694(8)
H17 H 0.0988 0.2722 0.1190
H18 H 0.0550 0.2498 0.0308
C11 C 0.0611(8) 0.3872(8) 0.0506(8)
H19 H 0.0524 0.4014 -0.0018
H20 H -0.0002 0.3928 0.0542
C12 C 0.1309(7) 0.4514(7) 0.1053(7)
H21 H 0.1359 0.4407 0.1573
H22 H 0.1083 0.5112 0.0912
C13 C 0.2611(7) 0.6303(7) 0.1246(6)
H23 H 0.210(6) 0.632(6) 0.143(5)
C14 C 0.2155(6) 0.6460(7) 0.0392(5)
H24 H 0.2640 0.6439 0.0182
H25 H 0.1696 0.5997 0.0150
C15 C 0.1663(7) 0.7335(7) 0.0212(6)
H26 H 0.1403 0.7427 -0.0340
H27 H 0.1136 0.7330 0.0374
C16 C 0.2307(8) 0.8075(8) 0.0594(6)
H28 H 0.1944 0.8619 0.0486
H29 H 0.2790 0.8128 0.0384
C17 C 0.2778(7) 0.7948(7) 0.1436(6)
H30 H 0.2302 0.7974 0.1654
H31 H 0.3229 0.8423 0.1659
C18 C 0.3298(7) 0.7071(7) 0.1643(6)
H32 H 0.3554 0.6991 0.2196
H33 H 0.3826 0.7071 0.1482
C19 C 0.7556(7) 0.3291(6) 0.2154(5)
H34 H 0.723(6) 0.315(6) 0.161(5)
C20 C 0.8178(6) 0.2464(6) 0.2521(5)
H35 H 0.8533 0.2564 0.3067
H36 H 0.7766 0.1959 0.2462
C21 C 0.8865(7) 0.2268(7) 0.2151(6)
H37 H 0.8506 0.2074 0.1627
H38 H 0.9277 0.1787 0.2426
C22 C 0.9479(7) 0.3048(7) 0.2139(6)
H39 H 0.9924 0.3179 0.2659
H40 H 0.9845 0.2900 0.1839
C23 C 0.8884(7) 0.3842(7) 0.1801(6)
H41 H 0.8517 0.3743 0.1257
H42 H 0.9299 0.4343 0.1853
C24 C 0.8213(7) 0.4053(7) 0.2181(6)
H43 H 0.7830 0.4559 0.1928
H44 H 0.8582 0.4210 0.2714
C25 C 0.6084(7) 0.2579(7) 0.2576(6)
H45 H 0.659(6) 0.223(6) 0.296(5)
C26 C 0.5293(7) 0.2693(7) 0.2879(7)
H46 H 0.5554 0.2997 0.3369
H47 H 0.4790 0.3057 0.2522
C27 C 0.4874(7) 0.1826(8) 0.2981(7)
H48 H 0.4352 0.1938 0.3138
H49 H 0.5356 0.1491 0.3386
C28 C 0.4511(8) 0.1290(8) 0.2248(7)
H50 H 0.4290 0.0722 0.2345
H51 H 0.3974 0.1591 0.1860
C29 C 0.5281(7) 0.1153(8) 0.1948(6)
H52 H 0.5016 0.0844 0.1460
H53 H 0.5785 0.0792 0.2308
C30 C 0.5698(7) 0.2037(7) 0.1839(5)
H54 H 0.6208 0.1928 0.1668
H55 H 0.5206 0.2371 0.1441
C31 C 0.7109(6) 0.4107(7) 0.3390(5)
H56 H 0.657(6) 0.413(6) 0.354(5)
C32 C 0.7872(7) 0.3575(7) 0.4045(5)
H57 H 0.7629 0.2990 0.4066
H58 H 0.8438 0.3514 0.3936
C33 C 0.8138(8) 0.4026(8) 0.4823(5)
H59 H 0.7596 0.4007 0.4967
H60 H 0.8659 0.3707 0.5210
C34 C 0.8434(8) 0.4975(8) 0.4806(6)
H61 H 0.9026 0.4989 0.4731
H62 H 0.8550 0.5248 0.5298
C35 C 0.7676(8) 0.5501(7) 0.4168(6)
H63 H 0.7117 0.5561 0.4286
H64 H 0.7920 0.6087 0.4151
C36 C 0.7388(7) 0.5075(7) 0.3387(5)
H65 H 0.7914 0.5115 0.3225
H66 H 0.6852 0.5395 0.3017
H67 H 0.389(7) 0.370(8) 0.016(6)
H68 H 0.478(6) 0.299(7) 0.027(5)
H70 H 0.363(5) 0.524(5) -0.057(4)
Mg1B Mg 0.49773(19) 0.5231(2) -0.09541(16)
P1B P 0.68275(18) 0.47656(19) -0.15047(15)
P2B P 0.33703(16) 0.64271(17) -0.24674(14)
O1B O 0.5994(4) 0.4853(4) -0.1276(3)
O2B O 0.4072(4) 0.5819(4) -0.1884(3)
O3B O 0.5662(5) 0.6381(5) -0.0479(4)
O4B O 0.4293(4) 0.4038(4) -0.1253(3)
O5B O 0.5853(4) 0.4556(4) 0.0240(3)
C1B C 0.6468(8) 0.4918(8) -0.2517(6)
H1B H 0.651(6) 0.556(7) -0.258(5)
C2B C 0.5454(8) 0.4699(8) -0.2985(6)
H2B H 0.5356 0.4073 -0.2946
H3B H 0.5051 0.5013 -0.2784
C3B C 0.5168(9) 0.4943(11) -0.3826(6)
H4B H 0.4527 0.4736 -0.4127
H5B H 0.5177 0.5578 -0.3879
C4B C 0.5880(10) 0.4513(10) -0.4127(6)
H6B H 0.5723 0.4706 -0.4652
H7B H 0.5804 0.3878 -0.4135
C5B C 0.6864(10) 0.4728(9) -0.3668(7)
H8B H 0.7271 0.4402 -0.3859
H9B H 0.6965 0.5352 -0.3722
C6B C 0.7135(8) 0.4525(8) -0.2861(6)
H10B H 0.7149 0.3890 -0.2799
H11B H 0.7776 0.4743 -0.2572
C7B C 0.7712(7) 0.5598(7) -0.1021(7)
H12B H 0.783(6) 0.554(6) -0.048(5)
C8B C 0.7349(7) 0.6528(7) -0.1225(6)
H13B H 0.6740 0.6588 -0.1182
H14B H 0.7251 0.6649 -0.1754
C9B C 0.8039(7) 0.7182(8) -0.0706(7)
H15B H 0.7799 0.7772 -0.0870
H16B H 0.8075 0.7101 -0.0187
C10B C 0.9021(8) 0.7108(8) -0.0694(8)
H17B H 0.9012 0.7278 -0.1190
H18B H 0.9450 0.7502 -0.0308
C11B C 0.9389(8) 0.6128(8) -0.0506(8)
H19B H 0.9476 0.5986 0.0018
H20B H 1.0002 0.6072 -0.0542
C12B C 0.8691(7) 0.5486(7) -0.1053(7)
H21B H 0.8641 0.5593 -0.1573
H22B H 0.8917 0.4888 -0.0912
C13B C 0.7389(7) 0.3697(7) -0.1246(6)
H23B H 0.790(6) 0.368(6) -0.143(5)
C14B C 0.7845(6) 0.3540(7) -0.0392(5)
H24B H 0.7360 0.3561 -0.0182
H25B H 0.8304 0.4003 -0.0150
C15B C 0.8337(7) 0.2665(7) -0.0212(6)
H26B H 0.8597 0.2573 0.0340
H27B H 0.8864 0.2670 -0.0374
C16B C 0.7693(8) 0.1925(8) -0.0594(6)
H28B H 0.8056 0.1381 -0.0486
H29B H 0.7210 0.1872 -0.0384
C17B C 0.7222(7) 0.2052(7) -0.1436(6)
H30B H 0.7698 0.2026 -0.1654
H31B H 0.6771 0.1577 -0.1659
C18B C 0.6702(7) 0.2929(7) -0.1643(6)
H32B H 0.6446 0.3009 -0.2196
H33B H 0.6174 0.2929 -0.1482
C19B C 0.2444(7) 0.6709(6) -0.2154(5)
H34B H 0.277(6) 0.685(6) -0.161(5)
C20B C 0.1822(6) 0.7536(6) -0.2521(5)
H35B H 0.1467 0.7436 -0.3067
H36B H 0.2234 0.8041 -0.2462
C21B C 0.1135(7) 0.7732(7) -0.2151(6)
H37B H 0.1494 0.7926 -0.1627
H38B H 0.0723 0.8213 -0.2426
C22B C 0.0521(7) 0.6952(7) -0.2139(6)
H39B H 0.0076 0.6821 -0.2659
H40B H 0.0155 0.7100 -0.1839
C23B C 0.1116(7) 0.6158(7) -0.1801(6)
H41B H 0.1483 0.6257 -0.1257
H42B H 0.0701 0.5657 -0.1853
C24B C 0.1787(7) 0.5947(7) -0.2181(6)
H43B H 0.2170 0.5441 -0.1928
H44B H 0.1418 0.5790 -0.2714
C25B C 0.3916(7) 0.7421(7) -0.2576(6)
H45B H 0.341(6) 0.777(6) -0.296(5)
C26B C 0.4707(7) 0.7307(7) -0.2879(7)
H46B H 0.4446 0.7003 -0.3369
H47B H 0.5210 0.6943 -0.2522
C27B C 0.5126(7) 0.8174(8) -0.2981(7)
H48B H 0.5648 0.8062 -0.3138
H49B H 0.4644 0.8509 -0.3386
C28B C 0.5489(8) 0.8710(8) -0.2248(7)
H50B H 0.5710 0.9278 -0.2345
H51B H 0.6026 0.8409 -0.1860
C29B C 0.4719(7) 0.8847(8) -0.1948(6)
H52B H 0.4984 0.9156 -0.1460
H53B H 0.4215 0.9208 -0.2308
C30B C 0.4302(7) 0.7963(7) -0.1839(5)
H54B H 0.3792 0.8072 -0.1668
H55B H 0.4794 0.7629 -0.1441
C31B C 0.2891(6) 0.5893(7) -0.3390(5)
H56B H 0.343(6) 0.587(6) -0.354(5)
C32B C 0.2128(7) 0.6425(7) -0.4045(5)
H57B H 0.2371 0.7010 -0.4066
H58B H 0.1562 0.6486 -0.3936
C33B C 0.1862(8) 0.5974(8) -0.4823(5)
H59B H 0.2404 0.5993 -0.4967
H60B H 0.1341 0.6293 -0.5210
C34B C 0.1566(8) 0.5025(8) -0.4806(6)
H61B H 0.0974 0.5011 -0.4731
H62B H 0.1450 0.4752 -0.5298
C35B C 0.2324(8) 0.4499(7) -0.4168(6)
H63B H 0.2883 0.4439 -0.4286
H64B H 0.2080 0.3913 -0.4151
C36B C 0.2612(7) 0.4925(7) -0.3387(5)
H65B H 0.2086 0.4885 -0.3225
H66B H 0.3148 0.4605 -0.3017
H67B H 0.611(7) 0.630(8) -0.016(6)
H68B H 0.522(6) 0.701(7) -0.027(5)
H70B H 0.637(5) 0.476(5) 0.057(4)
Cl1 Cl 0.24536(14) 0.40975(15) 0.91136(12)
Cl2 Cl 0.55709(15) 0.25728(15) 0.98330(12)
H69? H 0.721(19) 0.561(19) 0.123(16)
loop_
_geom_bond_atom_site_label_1
_geom_bond_atom_site_label_2
_geom_bond_site_symmetry_1
_geom_bond_site_symmetry_2
Mg1 O1 1_555 1_555
P1 O1 1_555 1_555
P2 O2 1_555 1_555
O2 Mg1 1_555 1_555
O3 Mg1 1_555 1_555
O4 Mg1 1_555 1_555
O5 Mg1 1_555 1_555
C1 P1 1_555 1_555
H1 C1 1_555 1_555
C2 C1 1_555 1_555
H2 C2 1_555 1_555
H3 C2 1_555 1_555
C3 C2 1_555 1_555
H4 C3 1_555 1_555
H5 C3 1_555 1_555
C4 C3 1_555 1_555
H6 C4 1_555 1_555
H7 C4 1_555 1_555
C5 C4 1_555 1_555
H8 C5 1_555 1_555
H9 C5 1_555 1_555
C6 C1 1_555 1_555
H10 C6 1_555 1_555
H11 C6 1_555 1_555
C7 P1 1_555 1_555
H12 C7 1_555 1_555
C8 C7 1_555 1_555
H13 C8 1_555 1_555
H14 C8 1_555 1_555
C9 C8 1_555 1_555
H15 C9 1_555 1_555
H16 C9 1_555 1_555
C10 C9 1_555 1_555
H17 C10 1_555 1_555
H18 C10 1_555 1_555
C11 C10 1_555 1_555
H19 C11 1_555 1_555
H20 C11 1_555 1_555
C12 C7 1_555 1_555
H21 C12 1_555 1_555
H22 C12 1_555 1_555
C13 P1 1_555 1_555
H23 C13 1_555 1_555
C14 C13 1_555 1_555
H24 C14 1_555 1_555
H25 C14 1_555 1_555
C15 C14 1_555 1_555
H26 C15 1_555 1_555
H27 C15 1_555 1_555
C16 C15 1_555 1_555
H28 C16 1_555 1_555
H29 C16 1_555 1_555
C17 C16 1_555 1_555
H30 C17 1_555 1_555
H31 C17 1_555 1_555
C18 C13 1_555 1_555
H32 C18 1_555 1_555
H33 C18 1_555 1_555
C19 P2 1_555 1_555
H34 C19 1_555 1_555
C20 C19 1_555 1_555
H35 C20 1_555 1_555
H36 C20 1_555 1_555
C21 C20 1_555 1_555
H37 C21 1_555 1_555
H38 C21 1_555 1_555
C22 C21 1_555 1_555
H39 C22 1_555 1_555
H40 C22 1_555 1_555
C23 C22 1_555 1_555
H41 C23 1_555 1_555
H42 C23 1_555 1_555
C24 C19 1_555 1_555
H43 C24 1_555 1_555
H44 C24 1_555 1_555
C25 P2 1_555 1_555
H45 C25 1_555 1_555
C26 C25 1_555 1_555
H46 C26 1_555 1_555
H47 C26 1_555 1_555
C27 C26 1_555 1_555
H48 C27 1_555 1_555
H49 C27 1_555 1_555
C28 C27 1_555 1_555
H50 C28 1_555 1_555
H51 C28 1_555 1_555
C29 C28 1_555 1_555
H52 C29 1_555 1_555
H53 C29 1_555 1_555
C30 C25 1_555 1_555
H54 C30 1_555 1_555
H55 C30 1_555 1_555
C31 P2 1_555 1_555
H56 C31 1_555 1_555
C32 C31 1_555 1_555
H57 C32 1_555 1_555
H58 C32 1_555 1_555
C33 C32 1_555 1_555
H59 C33 1_555 1_555
H60 C33 1_555 1_555
C34 C33 1_555 1_555
H61 C34 1_555 1_555
H62 C34 1_555 1_555
C35 C34 1_555 1_555
H63 C35 1_555 1_555
H64 C35 1_555 1_555
C36 C31 1_555 1_555
H65 C36 1_555 1_555
H66 C36 1_555 1_555
H67 O3 1_555 1_555
H68 O3 1_555 1_555
H70 O5 1_555 1_555
Mg1B O5 1_555 1_555
P1B O1B 1_555 1_555
P2B O2B 1_555 1_555
O1B Mg1B 1_555 1_555
O2B Mg1B 1_555 1_555
O3B Mg1B 1_555 1_555
O4B Mg1B 1_555 1_555
O5B Mg1 1_555 1_555
C1B P1B 1_555 1_555
H1B C1B 1_555 1_555
C2B C1B 1_555 1_555
H2B C2B 1_555 1_555
H3B C2B 1_555 1_555
C3B C2B 1_555 1_555
H4B C3B 1_555 1_555
H5B C3B 1_555 1_555
C4B C3B 1_555 1_555
H6B C4B 1_555 1_555
H7B C4B 1_555 1_555
C5B C4B 1_555 1_555
H8B C5B 1_555 1_555
H9B C5B 1_555 1_555
C6B C1B 1_555 1_555
H10B C6B 1_555 1_555
H11B C6B 1_555 1_555
C7B P1B 1_555 1_555
H12B C7B 1_555 1_555
C8B C7B 1_555 1_555
H13B C8B 1_555 1_555
H14B C8B 1_555 1_555
C9B C8B 1_555 1_555
H15B C9B 1_555 1_555
H16B C9B 1_555 1_555
C10B C9B 1_555 1_555
H17B C10B 1_555 1_555
H18B C10B 1_555 1_555
C11B C10B 1_555 1_555
H19B C11B 1_555 1_555
H20B C11B 1_555 1_555
C12B C7B 1_555 1_555
H21B C12B 1_555 1_555
H22B C12B 1_555 1_555
C13B P1B 1_555 1_555
H23B C13B 1_555 1_555
C14B C13B 1_555 1_555
H24B C14B 1_555 1_555
H25B C14B 1_555 1_555
C15B C14B 1_555 1_555
H26B C15B 1_555 1_555
H27B C15B 1_555 1_555
C16B C15B 1_555 1_555
H28B C16B 1_555 1_555
H29B C16B 1_555 1_555
C17B C16B 1_555 1_555
H30B C17B 1_555 1_555
H31B C17B 1_555 1_555
C18B C13B 1_555 1_555
H32B C18B 1_555 1_555
H33B C18B 1_555 1_555
C19B P2B 1_555 1_555
H34B C19B 1_555 1_555
C20B C19B 1_555 1_555
H35B C20B 1_555 1_555
H36B C20B 1_555 1_555
C21B C20B 1_555 1_555
H37B C21B 1_555 1_555
H38B C21B 1_555 1_555
C22B C21B 1_555 1_555
H39B C22B 1_555 1_555
H40B C22B 1_555 1_555
C23B C22B 1_555 1_555
H41B C23B 1_555 1_555
H42B C23B 1_555 1_555
C24B C19B 1_555 1_555
H43B C24B 1_555 1_555
H44B C24B 1_555 1_555
C25B P2B 1_555 1_555
H45B C25B 1_555 1_555
C26B C25B 1_555 1_555
H46B C26B 1_555 1_555
H47B C26B 1_555 1_555
C27B C26B 1_555 1_555
H48B C27B 1_555 1_555
H49B C27B 1_555 1_555
C28B C27B 1_555 1_555
H50B C28B 1_555 1_555
H51B C28B 1_555 1_555
C29B C28B 1_555 1_555
H52B C29B 1_555 1_555
H53B C29B 1_555 1_555
C30B C25B 1_555 1_555
H54B C30B 1_555 1_555
H55B C30B 1_555 1_555
C31B P2B 1_555 1_555
H56B C31B 1_555 1_555
C32B C31B 1_555 1_555
H57B C32B 1_555 1_555
H58B C32B 1_555 1_555
C33B C32B 1_555 1_555
H59B C33B 1_555 1_555
H60B C33B 1_555 1_555
C34B C33B 1_555 1_555
H61B C34B 1_555 1_555
H62B C34B 1_555 1_555
C35B C34B 1_555 1_555
H63B C35B 1_555 1_555
H64B C35B 1_555 1_555
C36B C31B 1_555 1_555
H65B C36B 1_555 1_555
H66B C36B 1_555 1_555
H67B O3B 1_555 1_555
H68B O3B 1_555 1_555
H70B O5B 1_555 1_555
C5 C6 1_555 1_555
C11 C12 1_555 1_555
C17 C18 1_555 1_555
C23 C24 1_555 1_555
C29 C30 1_555 1_555
C35 C36 1_555 1_555
Mg1B O5B 1_555 1_555
C5B C6B 1_555 1_555
C11B C12B 1_555 1_555
C17B C18B 1_555 1_555
C23B C24B 1_555 1_555
C29B C30B 1_555 1_555
C35B C36B 1_555 1_555

#END
