
#######################################################################
#
#                 Cambridge Crystallographic Data Centre
#                                CCDC 
#
#######################################################################
#
# If this CIF has been generated from an entry in the Cambridge 
# Structural Database, then it will include bibliographic, chemical, 
# crystal, experimental, refinement or atomic coordinate data resulting 
# from the CCDC's data processing and validation procedures.
#
#######################################################################

data_MIYNUD
_chemical_formula_moiety         'C24 F20 O2 Te2,2(C7 H8)'
_chemical_name_systematic        
'bis(\m~2~-Oxo)-tetrakis(pentafluorophenyl)-di-tellurium toluene solvate'
_symmetry_cell_setting           triclinic
_symmetry_space_group_name_H-M   'P -1'
_symmetry_Int_Tables_number      2
_space_group_name_Hall           '-P 1'
loop_
_symmetry_equiv_pos_site_id
_symmetry_equiv_pos_as_xyz
1 x,y,z
2 -x,-y,-z
_cell_length_a                   8.0439(13)
_cell_length_b                   11.040(2)
_cell_length_c                   12.140(2)
_cell_angle_alpha                68.278(13)
_cell_angle_beta                 74.158(13)
_cell_angle_gamma                85.411(14)
_cell_volume                     963.227
_exptl_crystal_colour            colorless
_cell_formula_units_Z            1
loop_
_atom_site_label
_atom_site_type_symbol
_atom_site_fract_x
_atom_site_fract_y
_atom_site_fract_z
Te1 Te 0.05063(12) 0.42544(9) 0.90468(9)
O1 O 0.1228(12) 0.5824(10) 0.9547(9)
C1 C -0.0094(19) 0.5768(14) 0.7535(13)
C2 C -0.1044(20) 0.6882(15) 0.7578(14)
F1 F -0.1817(15) 0.7001(10) 0.8641(9)
C3 C -0.1227(24) 0.7886(19) 0.6495(18)
F2 F -0.2090(17) 0.8922(11) 0.6546(12)
C4 C -0.0504(27) 0.7727(20) 0.5395(16)
F3 F -0.0648(20) 0.8730(14) 0.4352(12)
C5 C 0.0417(27) 0.6693(23) 0.5324(15)
F4 F 0.1151(18) 0.6564(15) 0.4226(10)
C6 C 0.0644(23) 0.5717(18) 0.6376(16)
F5 F 0.1545(15) 0.4653(11) 0.6315(10)
C7 C -0.1188(17) 0.2931(13) 0.8834(13)
C8 C -0.2899(20) 0.3114(15) 0.8871(15)
F6 F -0.3625(13) 0.4215(10) 0.8971(11)
C9 C -0.3903(22) 0.2217(19) 0.8801(17)
F7 F -0.5574(14) 0.2435(14) 0.8841(15)
C10 C -0.3228(24) 0.1093(18) 0.8709(18)
F8 F -0.4212(16) 0.0186(12) 0.8664(13)
C11 C -0.1493(28) 0.0858(16) 0.8647(17)
F9 F -0.0795(19) -0.0255(12) 0.8510(14)
C12 C -0.0495(20) 0.1733(14) 0.8722(15)
F10 F 0.1201(13) 0.1536(11) 0.8631(13)
Te1A Te -0.05063(12) 0.57456(9) 1.09532(9)
O1A O -0.1228(12) 0.4176(10) 1.0453(9)
C1A C 0.0094(19) 0.4232(14) 1.2465(13)
C2A C 0.1044(20) 0.3118(15) 1.2422(14)
F1A F 0.1817(15) 0.2999(10) 1.1359(9)
C3A C 0.1227(24) 0.2114(19) 1.3505(18)
F2A F 0.2090(17) 0.1078(11) 1.3454(12)
C4A C 0.0504(27) 0.2273(20) 1.4605(16)
F3A F 0.0648(20) 0.1270(14) 1.5648(12)
C5A C -0.0417(27) 0.3307(23) 1.4676(15)
F4A F -0.1151(18) 0.3436(15) 1.5774(10)
C6A C -0.0644(23) 0.4283(18) 1.3624(16)
F5A F -0.1545(15) 0.5347(11) 1.3685(10)
C7A C 0.1188(17) 0.7069(13) 1.1166(13)
C8A C 0.2899(20) 0.6886(15) 1.1129(15)
F6A F 0.3625(13) 0.5785(10) 1.1029(11)
C9A C 0.3903(22) 0.7783(19) 1.1199(17)
F7A F 0.5574(14) 0.7565(14) 1.1159(15)
C10A C 0.3228(24) 0.8907(18) 1.1291(18)
F8A F 0.4212(16) 0.9814(12) 1.1336(13)
C11A C 0.1493(28) 0.9142(16) 1.1353(17)
F9A F 0.0795(19) 1.0255(12) 1.1490(14)
C12A C 0.0495(20) 0.8267(14) 1.1278(15)
F10A F -0.1201(13) 0.8464(11) 1.1369(13)
C13 C 0.3299(31) -0.1264(33) 0.7520(26)
H1 H 0.3393(31) -0.1786(33) 0.8331(26)
H2 H 0.2118(31) -0.1024(33) 0.7552(26)
H3 H 0.4013(31) -0.0491(33) 0.7204(26)
C14 C 0.3890(24) -0.2043(18) 0.6683(23)
C15 C 0.4596(31) -0.3293(24) 0.7036(25)
H4 H 0.4636(31) -0.3726(24) 0.7847(25)
C16 C 0.5227(32) -0.3877(28) 0.6189(35)
H5 H 0.5685(32) -0.4706(28) 0.6422(35)
C17 C 0.5175(38) -0.3252(36) 0.5049(35)
H6 H 0.5624(38) -0.3662(36) 0.4489(35)
C18 C 0.4527(43) -0.2073(33) 0.4631(25)
H7 H 0.4526(43) -0.1674(33) 0.3809(25)
C19 C 0.3857(27) -0.1464(20) 0.5459(22)
H8 H 0.3372(27) -0.0649(20) 0.5193(22)
loop_
_geom_bond_atom_site_label_1
_geom_bond_atom_site_label_2
_geom_bond_site_symmetry_1
_geom_bond_site_symmetry_2
Te1 O1 1_555 1_555
O1 Te1A 1_555 1_555
C1 Te1 1_555 1_555
C2 C1 1_555 1_555
F1 C2 1_555 1_555
C3 C2 1_555 1_555
F2 C3 1_555 1_555
C4 C3 1_555 1_555
F3 C4 1_555 1_555
C5 C4 1_555 1_555
F4 C5 1_555 1_555
C6 C1 1_555 1_555
F5 C6 1_555 1_555
C7 Te1 1_555 1_555
C8 C7 1_555 1_555
F6 C8 1_555 1_555
C9 C8 1_555 1_555
F7 C9 1_555 1_555
C10 C9 1_555 1_555
F8 C10 1_555 1_555
C11 C10 1_555 1_555
F9 C11 1_555 1_555
C12 C7 1_555 1_555
F10 C12 1_555 1_555
C13 H1 1_555 1_555
H2 C13 1_555 1_555
H3 C13 1_555 1_555
C14 C13 1_555 1_555
C15 C14 1_555 1_555
H4 C15 1_555 1_555
C16 C15 1_555 1_555
H5 C16 1_555 1_555
C17 C16 1_555 1_555
H6 C17 1_555 1_555
C18 C17 1_555 1_555
H7 C18 1_555 1_555
C19 C14 1_555 1_555
H8 C19 1_555 1_555
Te1A Te1 1_555 1_555
O1A Te1 1_555 1_555
C1A Te1A 1_555 1_555
C2A C1A 1_555 1_555
F1A C2A 1_555 1_555
C3A C2A 1_555 1_555
F2A C3A 1_555 1_555
C4A C3A 1_555 1_555
F3A C4A 1_555 1_555
C5A C4A 1_555 1_555
F4A C5A 1_555 1_555
C6A C1A 1_555 1_555
F5A C6A 1_555 1_555
C7A Te1A 1_555 1_555
C8A C7A 1_555 1_555
F6A C8A 1_555 1_555
C9A C8A 1_555 1_555
F7A C9A 1_555 1_555
C10A C9A 1_555 1_555
F8A C10A 1_555 1_555
C11A C10A 1_555 1_555
F9A C11A 1_555 1_555
C12A C7A 1_555 1_555
F10A C12A 1_555 1_555
C5 C6 1_555 1_555
C11 C12 1_555 1_555
C18 C19 1_555 1_555
Te1A O1A 1_555 1_555
C5A C6A 1_555 1_555
C11A C12A 1_555 1_555

#END
