
#######################################################################
#
#                 Cambridge Crystallographic Data Centre
#                                CCDC 
#
#######################################################################
#
# If this CIF has been generated from an entry in the Cambridge 
# Structural Database, then it will include bibliographic, chemical, 
# crystal, experimental, refinement or atomic coordinate data resulting 
# from the CCDC's data processing and validation procedures.
#
#######################################################################

data_MIYWUO
_chemical_name_common            'PDB Chemical Component code: 2R8'
_chemical_formula_moiety         'C35 H47 N5 O9 S1,0.5(C2 H6 O1)'
_chemical_name_systematic        
'N-(t-Butoxycarbonyl)-3-methylvalyl-N-(1-((cyclopropylsulfonyl)carbamoyl)-2-vinylcyclopropyl)-4-((6-methoxyisoquinolin-1-yl)oxy)prolinamide ethanol solvate'
_symmetry_cell_setting           monoclinic
_symmetry_space_group_name_H-M   'C 2'
_symmetry_Int_Tables_number      5
_space_group_name_Hall           'C 2y'
loop_
_symmetry_equiv_pos_site_id
_symmetry_equiv_pos_as_xyz
1 x,y,z
2 -x,y,-z
3 1/2+x,1/2+y,z
4 1/2-x,1/2+y,-z
_cell_length_a                   24.1692(3)
_cell_length_b                   10.1510(1)
_cell_length_c                   16.3514(2)
_cell_angle_alpha                90
_cell_angle_beta                 94.164(1)
_cell_angle_gamma                90
_cell_volume                     4001.09
_exptl_crystal_colour            colorless
_exptl_crystal_description       Block
_cell_formula_units_Z            4
_chemical_properties_physical    Air-sensitive
_exptl_crystal_recrystallization_method EtOH
loop_
_atom_site_label
_atom_site_type_symbol
_atom_site_fract_x
_atom_site_fract_y
_atom_site_fract_z
S1 S 0.36879(3) 0.10248(10) 0.58118(4)
O1 O 0.34779(7) 0.25300(19) 0.36465(10)
O2 O 0.45176(9) 0.3862(2) 0.14513(12)
O3 O 0.49225(8) 0.4881(2) 0.25669(12)
O4 O 0.25028(8) 0.03417(18) 0.34192(11)
O5 O 0.25909(9) -0.01048(19) 0.58429(12)
O6 O 0.40786(9) 0.1950(3) 0.55592(14)
O7 O 0.38080(13) -0.0333(3) 0.58139(18)
O8 O 0.23180(8) 0.40890(19) 0.12573(11)
O9 O 0.18553(10) 1.0027(2) 0.03287(14)
N1 N 0.30004(8) 0.2325(2) 0.24239(11)
N2 N 0.44012(9) 0.3145(2) 0.27405(13)
H1 H 0.4458 0.3386 0.3303
N3 N 0.22230(8) 0.2072(2) 0.41602(11)
H2 H 0.2199 0.2995 0.4187
N4 N 0.31266(9) 0.1329(2) 0.52008(13)
H3 H 0.3149 0.1996 0.4780
N5 N 0.14342(12) 0.3850(3) 0.06517(17)
C1 C 0.24710(9) 0.2491(2) 0.27912(13)
H4 H 0.2434 0.3396 0.2989
C2 C 0.20476(11) 0.2227(3) 0.20653(15)
H5 H 0.1957 0.1297 0.2024
H6 H 0.1709 0.2723 0.2120
C3 C 0.23341(12) 0.2678(3) 0.13332(15)
H7 H 0.2178 0.2251 0.0831
C4 C 0.29312(12) 0.2282(3) 0.15292(15)
H8 H 0.3000 0.1402 0.1328
H9 H 0.3181 0.2893 0.1288
C5 C 0.34776(10) 0.2339(2) 0.29020(14)
C6 C 0.40215(11) 0.2095(3) 0.24999(16)
H10 H 0.3941 0.2154 0.1905
C7 C 0.42566(14) 0.0703(3) 0.2694(2)
C8 C 0.38145(17) -0.0307(4) 0.2370(3)
H11 H 0.3490 -0.0219 0.2670
H12 H 0.3961 -0.1182 0.2439
H13 H 0.3718 -0.0146 0.1798
C9 C 0.4421(2) 0.0518(5) 0.3596(3)
H14 H 0.4695 0.1163 0.3771
H15 H 0.4573 -0.0349 0.3685
H16 H 0.4101 0.0622 0.3904
C10 C 0.47686(15) 0.0518(4) 0.2202(3)
H17 H 0.5053 0.1127 0.2395
H18 H 0.4669 0.0678 0.1631
H19 H 0.4904 -0.0367 0.2271
C11 C 0.46015(10) 0.3957(3) 0.21832(17)
C12 C 0.51879(12) 0.5920(3) 0.2120(2)
C13 C 0.4762(2) 0.6695(4) 0.1605(3)
H20 H 0.4497 0.7064 0.1951
H21 H 0.4574 0.6124 0.1207
H22 H 0.4942 0.7392 0.1329
C14 C 0.56028(18) 0.5355(5) 0.1589(3)
H23 H 0.5416 0.4824 0.1168
H24 H 0.5862 0.4821 0.1915
H25 H 0.5798 0.6057 0.1341
C15 C 0.54604(19) 0.6772(4) 0.2791(3)
H26 H 0.5181 0.7144 0.3109
H27 H 0.5664 0.7467 0.2551
H28 H 0.5710 0.6245 0.3138
C16 C 0.24098(10) 0.1517(2) 0.34850(14)
C17 C 0.21308(10) 0.1316(2) 0.48701(14)
C18 C 0.16662(12) 0.1839(3) 0.53881(17)
H29 H 0.1459 0.2578 0.5130
C19 C 0.15922(12) 0.0594(3) 0.49249(19)
H30 H 0.1333 0.0596 0.4443
H31 H 0.1601 -0.0219 0.5237
C20 C 0.17373(14) 0.1942(4) 0.62954(19)
H32 H 0.1912 0.2690 0.6519
C21 C 0.15734(18) 0.1066(5) 0.6793(2)
H33 H 0.1397 0.0307 0.6590
H34 H 0.1631 0.1192 0.7356
C22 C 0.26249(11) 0.0765(2) 0.53331(15)
C23 C 0.34945(14) 0.1475(4) 0.67854(18)
H35 H 0.3286 0.0817 0.7075
C24 C 0.38811(16) 0.2319(5) 0.7302(2)
H36 H 0.3911 0.2163 0.7889
H37 H 0.4222 0.2597 0.7075
C25 C 0.33607(17) 0.2852(4) 0.6936(2)
H38 H 0.3380 0.3467 0.6485
H39 H 0.3069 0.3033 0.7298
C26 C 0.18473(13) 0.4623(3) 0.08906(15)
C27 C 0.18527(11) 0.6018(3) 0.07849(14)
C28 C 0.22981(13) 0.6829(3) 0.10504(17)
H40 H 0.2609 0.6465 0.1333
C29 C 0.22793(14) 0.8142(3) 0.08992(19)
H41 H 0.2577 0.8673 0.1080
C30 C 0.18103(13) 0.8707(3) 0.04695(16)
C31 C 0.13670(12) 0.7958(3) 0.02234(15)
H42 H 0.1057 0.8343 -0.0049
C32 C 0.13740(12) 0.6587(3) 0.03804(15)
C33 C 0.09262(14) 0.5748(4) 0.0141(2)
H43 H 0.0599 0.6090 -0.0109
C34 C 0.09792(17) 0.4441(4) 0.0279(3)
H44 H 0.0681 0.3905 0.0106
C35 C 0.14361(16) 1.0614(3) -0.0211(2)
H45 H 0.1512 1.1537 -0.0267
H46 H 0.1081 1.0502 0.0008
H47 H 0.1432 1.0199 -0.0739
H48? H 0.5306 0.5960 0.5353
H49? H 0.5035 0.5960 0.4453
H50? H 0.4363 0.3299 0.4694
H51? H 0.4659 0.5960 0.5194
H52? H 0.5338 0.4018 0.4804
H53? H 0.4963 0.4018 0.5542
O10? O 0.4533(2) 0.3859(7) 0.4453(3)
C36? C 0.5000 0.4352(15) 0.5000
C37? C 0.5000 0.564(2) 0.5000
loop_
_geom_bond_atom_site_label_1
_geom_bond_atom_site_label_2
_geom_bond_site_symmetry_1
_geom_bond_site_symmetry_2
S1 O6 1_555 1_555
O1 C5 1_555 1_555
O2 C11 1_555 1_555
O3 C11 1_555 1_555
O4 C16 1_555 1_555
O5 C22 1_555 1_555
O7 S1 1_555 1_555
O8 C3 1_555 1_555
O9 C30 1_555 1_555
N1 C1 1_555 1_555
N2 H1 1_555 1_555
N3 H2 1_555 1_555
N4 S1 1_555 1_555
H3 N4 1_555 1_555
N5 C26 1_555 1_555
C1 H4 1_555 1_555
C2 C1 1_555 1_555
H5 C2 1_555 1_555
H6 C2 1_555 1_555
C3 C2 1_555 1_555
H7 C3 1_555 1_555
C4 N1 1_555 1_555
H8 C4 1_555 1_555
H9 C4 1_555 1_555
C5 N1 1_555 1_555
C6 N2 1_555 1_555
H10 C6 1_555 1_555
C7 C6 1_555 1_555
C8 C7 1_555 1_555
H11 C8 1_555 1_555
H12 C8 1_555 1_555
H13 C8 1_555 1_555
C9 C7 1_555 1_555
H14 C9 1_555 1_555
H15 C9 1_555 1_555
H16 C9 1_555 1_555
C10 C7 1_555 1_555
H17 C10 1_555 1_555
H18 C10 1_555 1_555
H19 C10 1_555 1_555
C11 N2 1_555 1_555
C12 O3 1_555 1_555
C13 C12 1_555 1_555
H20 C13 1_555 1_555
H21 C13 1_555 1_555
H22 C13 1_555 1_555
C14 C12 1_555 1_555
H23 C14 1_555 1_555
H24 C14 1_555 1_555
H25 C14 1_555 1_555
C15 C12 1_555 1_555
H26 C15 1_555 1_555
H27 C15 1_555 1_555
H28 C15 1_555 1_555
C16 N3 1_555 1_555
C17 N3 1_555 1_555
C18 C17 1_555 1_555
H29 C18 1_555 1_555
C19 C17 1_555 1_555
H30 C19 1_555 1_555
H31 C19 1_555 1_555
C20 C18 1_555 1_555
H32 C20 1_555 1_555
C21 C20 1_555 1_555
H33 C21 1_555 1_555
H34 C21 1_555 1_555
C22 N4 1_555 1_555
C23 S1 1_555 1_555
H35 C23 1_555 1_555
C24 C23 1_555 1_555
H36 C24 1_555 1_555
H37 C24 1_555 1_555
C25 C23 1_555 1_555
H38 C25 1_555 1_555
H39 C25 1_555 1_555
C26 O8 1_555 1_555
C27 C26 1_555 1_555
C28 C27 1_555 1_555
H40 C28 1_555 1_555
C29 C28 1_555 1_555
H41 C29 1_555 1_555
C30 C29 1_555 1_555
C31 C30 1_555 1_555
H42 C31 1_555 1_555
C32 C27 1_555 1_555
C33 C32 1_555 1_555
H43 C33 1_555 1_555
C34 N5 1_555 1_555
H44 C34 1_555 1_555
C35 O9 1_555 1_555
H45 C35 1_555 1_555
H46 C35 1_555 1_555
H47 C35 1_555 1_555
C1 C16 1_555 1_555
C3 C4 1_555 1_555
C5 C6 1_555 1_555
C17 C22 1_555 1_555
C18 C19 1_555 1_555
C24 C25 1_555 1_555
C31 C32 1_555 1_555
C33 C34 1_555 1_555

#END
