
#######################################################################
#
#                 Cambridge Crystallographic Data Centre
#                                CCDC 
#
#######################################################################
#
# If this CIF has been generated from an entry in the Cambridge 
# Structural Database, then it will include bibliographic, chemical, 
# crystal, experimental, refinement or atomic coordinate data resulting 
# from the CCDC's data processing and validation procedures.
#
#######################################################################

data_MIYWIC
_chemical_name_common            
'(4bS,5aR)-12-cyclohexyl-N-(N,N-dimethylsulfamoyl)-3-methoxy-5a-((1R,5S)-3-methyl-3,8-diazabicyclo[3.2.1]octane-8-carbonyl)-4b,5,5a,6-tetrahydrobenzo[3,4]cyclopropa[5,6]azepino[1,2-a]indole-9-carboxamide chloride monohydrate'
_chemical_formula_moiety         'C36 H46 N5 O5 S1 1+,H2 O1,Cl1 1-'
_chemical_name_systematic        
'8-((8-Cyclohexyl-5-((dimethylsulfamoyl)carbamoyl)-11-methoxy-1,12b-dihydrocyclopropa[d]indolo[2,1-a][2]benzazepin-1a(2H)-yl)carbonyl)-3-methyl-8-aza-3-azoniabicyclo[3.2.1]octane chloride monohydrate'
_symmetry_cell_setting           monoclinic
_symmetry_space_group_name_H-M   'C 2'
_symmetry_Int_Tables_number      5
_space_group_name_Hall           'C 2y'
loop_
_symmetry_equiv_pos_site_id
_symmetry_equiv_pos_as_xyz
1 x,y,z
2 -x,y,-z
3 1/2+x,1/2+y,z
4 1/2-x,1/2+y,-z
_cell_length_a                   28.0870(13)
_cell_length_b                   11.9998(6)
_cell_length_c                   10.9846(6)
_cell_angle_alpha                90
_cell_angle_beta                 90.761(2)
_cell_angle_gamma                90
_cell_volume                     3701.91
_exptl_crystal_colour            colorless
_exptl_crystal_description       blade
_cell_formula_units_Z            4
_exptl_crystal_recrystallization_method 'Vapour Deposition'
loop_
_atom_site_label
_atom_site_type_symbol
_atom_site_fract_x
_atom_site_fract_y
_atom_site_fract_z
O1 O 0.54860(13) 0.8494(4) 1.2429(3)
S1 S 0.75837(5) 1.10394(13) 0.13353(12)
C1 C 0.6926(3) 1.1511(12) -0.0147(8)
H1 H 0.6624 1.1358 0.0216
H2 H 0.6890 1.1518 -0.1018
H3 H 0.7040 1.2225 0.0125
C2 C 0.7156(3) 0.9482(8) -0.0009(7)
H4 H 0.7214 0.9311 -0.0848
H5 H 0.6825 0.9373 0.0161
H6 H 0.7345 0.9002 0.0502
N1 N 0.7282(2) 1.0614(6) 0.0225(5)
O2 O 0.77814(14) 1.2071(4) 0.1128(4)
O3 O 0.79171(16) 1.0159(5) 0.1639(4)
N2 N 0.72212(16) 1.1254(4) 0.2500(4)
H7 H 0.7177 1.1928 0.2738
C3 C 0.69865(19) 1.0415(4) 0.3108(4)
O4 O 0.70459(19) 0.9445(4) 0.2816(4)
C4 C 0.66841(17) 1.0742(4) 0.4143(4)
C5 C 0.66409(17) 0.9968(4) 0.5063(4)
H8 H 0.6803 0.9294 0.5034
C6 C 0.6139(2) 1.2001(5) 0.5149(5)
H9 H 0.5975 1.2674 0.5162
C7 C 0.63491(16) 1.0221(4) 0.6036(4)
C8 C 0.64352(19) 1.1756(5) 0.4205(5)
H10 H 0.6473 1.2276 0.3586
C9 C 0.60852(16) 1.1225(4) 0.6103(4)
C10 C 0.58140(16) 1.1180(4) 0.7211(4)
C11 C 0.59320(16) 1.0197(4) 0.7775(4)
C12 C 0.5769(2) 1.3090(5) 0.8132(5)
H11 H 0.5935 1.3428 0.7458
H12 H 0.6004 1.2856 0.8734
C13 C 0.54881(17) 1.2080(4) 0.7680(5)
H13 H 0.5328 1.1768 0.8391
C14 C 0.5433(3) 1.3948(6) 0.8697(6)
H14 H 0.5300 1.3639 0.9435
H15 H 0.5613 1.4608 0.8920
C15 C 0.5095(2) 1.2429(6) 0.6782(5)
H16 H 0.5236 1.2754 0.6063
H17 H 0.4912 1.1780 0.6533
C16 C 0.5030(3) 1.4277(6) 0.7835(8)
H18 H 0.4811 1.4764 0.8256
H19 H 0.5158 1.4685 0.7152
C17 C 0.4768(3) 1.3275(7) 0.7378(8)
H20 H 0.4527 1.3509 0.6791
H21 H 0.4608 1.2922 0.8053
N3 N 0.62582(14) 0.9615(3) 0.7076(3)
C18 C 0.57023(14) 0.8610(4) 0.9172(4)
C19 C 0.55835(17) 0.8972(5) 1.1320(4)
C20 C 0.64515(15) 0.8531(4) 0.7364(4)
H22 H 0.6578 0.8530 0.8190
H23 H 0.6709 0.8358 0.6816
C21 C 0.60671(15) 0.7664(4) 0.7242(4)
C22 C 0.57873(15) 0.9739(4) 0.8978(4)
C23 C 0.57614(17) 1.0460(4) 0.9980(4)
H24 H 0.5819 1.1215 0.9863
C24 C 0.60185(18) 0.6774(4) 0.8227(5)
H25 H 0.5898 0.6048 0.7983
H26 H 0.6256 0.6759 0.8876
C25 C 0.56783(16) 0.7739(5) 0.8190(4)
H27 H 0.5357 0.7561 0.7891
C26 C 0.56064(15) 0.8231(5) 1.0349(4)
H28 H 0.5557 0.7475 1.0483
C27 C 0.56542(18) 1.0091(5) 1.1130(4)
H29 H 0.5630 1.0593 1.1771
C28 C 0.5385(2) 0.9230(6) 1.3425(5)
H30 H 0.5138 0.9743 1.3184
H31 H 0.5667 0.9638 1.3644
H32 H 0.5281 0.8803 1.4110
C29 C 0.59009(18) 0.7309(4) 0.5992(4)
O5 O 0.54877(14) 0.7318(5) 0.5677(4)
N4 N 0.62558(14) 0.7004(4) 0.5202(3)
N5 N 0.69639(19) 0.6344(5) 0.3468(4)
H33 H 0.6947(17) 0.565(5) 0.342(4)
C30 C 0.66711(18) 0.6339(4) 0.5607(4)
H34 H 0.6753 0.6498 0.6459
C31 C 0.70848(19) 0.6635(5) 0.4772(5)
H35 H 0.7152 0.7426 0.4834
H36 H 0.7368 0.6230 0.5030
C32 C 0.6118(2) 0.6419(6) 0.4063(5)
H37 H 0.5797 0.6641 0.3803
C33 C 0.6507(2) 0.5134(5) 0.5453(5)
H38 H 0.6370 0.4853 0.6199
H39 H 0.6769 0.4657 0.5224
C34 C 0.6126(2) 0.5195(6) 0.4419(6)
H40 H 0.6215 0.4731 0.3736
H41 H 0.5817 0.4959 0.4708
C35 C 0.7339(3) 0.6767(6) 0.2650(7)
H42 H 0.7339 0.7566 0.2661
H43 H 0.7277 0.6509 0.1835
H44 H 0.7644 0.6497 0.2923
C36 C 0.6474(2) 0.6741(6) 0.3114(5)
H45 H 0.6476 0.7544 0.3022
H46 H 0.6381 0.6416 0.2338
Cl1 Cl 0.72505(6) 0.38979(13) 0.31504(17)
O6 O 0.6538(4) 0.4614(12) 0.0903(10)
loop_
_geom_bond_atom_site_label_1
_geom_bond_atom_site_label_2
_geom_bond_site_symmetry_1
_geom_bond_site_symmetry_2
O1 C19 1_555 1_555
S1 N1 1_555 1_555
C1 H1 1_555 1_555
H2 C1 1_555 1_555
H3 C1 1_555 1_555
C2 H4 1_555 1_555
H5 C2 1_555 1_555
H6 C2 1_555 1_555
N1 C1 1_555 1_555
O2 S1 1_555 1_555
O3 S1 1_555 1_555
N2 S1 1_555 1_555
H7 N2 1_555 1_555
C3 N2 1_555 1_555
O4 C3 1_555 1_555
C4 C3 1_555 1_555
C5 C4 1_555 1_555
H8 C5 1_555 1_555
C6 H9 1_555 1_555
C7 C5 1_555 1_555
C8 C4 1_555 1_555
H10 C8 1_555 1_555
C9 C6 1_555 1_555
C10 C9 1_555 1_555
C11 C10 1_555 1_555
C12 H11 1_555 1_555
H12 C12 1_555 1_555
C13 C10 1_555 1_555
H13 C13 1_555 1_555
C14 C12 1_555 1_555
H14 C14 1_555 1_555
H15 C14 1_555 1_555
C15 C13 1_555 1_555
H16 C15 1_555 1_555
H17 C15 1_555 1_555
C16 C14 1_555 1_555
H18 C16 1_555 1_555
H19 C16 1_555 1_555
C17 C15 1_555 1_555
H20 C17 1_555 1_555
H21 C17 1_555 1_555
N3 C7 1_555 1_555
C18 C22 1_555 1_555
C19 C26 1_555 1_555
C20 N3 1_555 1_555
H22 C20 1_555 1_555
H23 C20 1_555 1_555
C21 C20 1_555 1_555
C22 C11 1_555 1_555
C23 C22 1_555 1_555
H24 C23 1_555 1_555
C24 C21 1_555 1_555
H25 C24 1_555 1_555
H26 C24 1_555 1_555
C25 C18 1_555 1_555
H27 C25 1_555 1_555
C26 C18 1_555 1_555
H28 C26 1_555 1_555
C27 C19 1_555 1_555
H29 C27 1_555 1_555
C28 O1 1_555 1_555
H30 C28 1_555 1_555
H31 C28 1_555 1_555
H32 C28 1_555 1_555
C29 C21 1_555 1_555
O5 C29 1_555 1_555
N4 C29 1_555 1_555
N5 H33 1_555 1_555
C30 N4 1_555 1_555
H34 C30 1_555 1_555
C31 N5 1_555 1_555
H35 C31 1_555 1_555
H36 C31 1_555 1_555
C32 N4 1_555 1_555
H37 C32 1_555 1_555
C33 C30 1_555 1_555
H38 C33 1_555 1_555
H39 C33 1_555 1_555
C34 C32 1_555 1_555
H40 C34 1_555 1_555
H41 C34 1_555 1_555
C35 N5 1_555 1_555
H42 C35 1_555 1_555
H43 C35 1_555 1_555
H44 C35 1_555 1_555
C36 N5 1_555 1_555
H45 C36 1_555 1_555
H46 C36 1_555 1_555
C2 N1 1_555 1_555
C6 C8 1_555 1_555
C7 C9 1_555 1_555
C11 N3 1_555 1_555
C12 C13 1_555 1_555
C16 C17 1_555 1_555
C21 C25 1_555 1_555
C23 C27 1_555 1_555
C24 C25 1_555 1_555
C30 C31 1_555 1_555
C32 C36 1_555 1_555
C33 C34 1_555 1_555

#END
