
#######################################################################
#
#                 Cambridge Crystallographic Data Centre
#                                CCDC 
#
#######################################################################
#
# If this CIF has been generated from an entry in the Cambridge 
# Structural Database, then it will include bibliographic, chemical, 
# crystal, experimental, refinement or atomic coordinate data resulting 
# from the CCDC's data processing and validation procedures.
#
#######################################################################

data_MIZDAA
_chemical_formula_moiety         'C12 H24 K1 O6 1+,C13 F10 P1 S2 1-,C1 H2 Cl2'
_chemical_name_systematic        
'(18-Crown-6)-potassium bis(pentafluorophenyl)phosphanodithioformate dichloromethane solvate'
_symmetry_cell_setting           monoclinic
_symmetry_space_group_name_H-M   'P 21/n'
_symmetry_Int_Tables_number      14
_space_group_name_Hall           '-P 2yn'
loop_
_symmetry_equiv_pos_site_id
_symmetry_equiv_pos_as_xyz
1 x,y,z
2 1/2-x,1/2+y,1/2-z
3 -x,-y,-z
4 1/2+x,1/2-y,1/2+z
_cell_length_a                   11.5177(13)
_cell_length_b                   14.981(2)
_cell_length_c                   20.182(2)
_cell_angle_alpha                90
_cell_angle_beta                 102.579(13)
_cell_angle_gamma                90
_cell_volume                     3398.75
_exptl_crystal_colour            red
_exptl_crystal_description       polyhedral
_cell_formula_units_Z            4
_exptl_crystal_recrystallization_method 'diethyl ether/dichloromethane'
loop_
_atom_site_label
_atom_site_type_symbol
_atom_site_fract_x
_atom_site_fract_y
_atom_site_fract_z
P1 P 0.81857(14) 0.35394(9) 0.98084(8)
C1 C 0.7078(5) 0.2614(4) 0.9740(3)
S1 S 0.66144(14) 0.20790(11) 0.90083(8)
S2 S 0.65390(14) 0.25772(10) 1.04466(7)
C2 C 0.9326(5) 0.3214(4) 1.0551(3)
C3 C 0.9872(5) 0.3879(4) 1.1002(3)
F1 F 0.9612(3) 0.4737(2) 1.0867(2)
C4 C 1.0672(5) 0.3686(4) 1.1593(3)
F2 F 1.1148(4) 0.4332(2) 1.2029(2)
C5 C 1.0984(5) 0.2814(4) 1.1758(3)
F3 F 1.1746(3) 0.2611(2) 1.2337(2)
C6 C 1.0462(5) 0.2139(4) 1.1327(3)
F4 F 1.0759(4) 0.1282(2) 1.1494(2)
C7 C 0.9671(5) 0.2344(4) 1.0744(3)
F5 F 0.9193(3) 0.1654(2) 1.0340(2)
C8 C 0.8917(5) 0.3361(3) 0.9089(3)
C9 C 1.0015(5) 0.2960(4) 0.9084(3)
F6 F 1.0680(3) 0.2605(2) 0.9640(2)
C10 C 1.0460(5) 0.2919(4) 0.8499(3)
F7 F 1.1505(3) 0.2533(3) 0.8512(2)
C11 C 0.9831(6) 0.3293(4) 0.7912(3)
F8 F 1.0271(3) 0.3267(3) 0.7339(2)
C12 C 0.8760(5) 0.3704(4) 0.7891(3)
F9 F 0.8146(3) 0.4065(2) 0.7309(2)
C13 C 0.8316(5) 0.3724(4) 0.8474(3)
F10 F 0.7278(3) 0.4154(2) 0.8433(2)
K1 K 1.39139(11) 0.22622(7) 0.91686(6)
C14 C 1.3149(7) 0.4057(5) 1.0228(4)
H1 H 1.2240(66) 0.4024(40) 1.0028(32)
H2 H 1.3238(41) 0.4532(34) 1.0381(23)
C15 C 1.3530(7) 0.3308(5) 1.0715(4)
H3 H 1.3286(50) 0.3368(34) 1.1039(29)
H4 H 1.4423(63) 0.3316(37) 1.0910(30)
O1 O 1.3122(4) 0.2490(3) 1.0380(2)
C16 C 1.3462(7) 0.1729(5) 1.0812(3)
H5 H 1.4417(67) 0.1720(41) 1.0995(32)
H6 H 1.3232(60) 0.1829(41) 1.1138(35)
C17 C 1.2929(7) 0.0916(5) 1.0447(4)
H7 H 1.2083(53) 0.0946(31) 1.0275(25)
H8 H 1.3065(62) 0.0385(48) 1.0750(37)
O2 O 1.3503(4) 0.0763(2) 0.9898(2)
C18 C 1.3122(10) -0.0044(5) 0.9543(5)
H9 H 1.2348(69) -0.0014(43) 0.9383(36)
H10 H 1.3337(56) -0.0408(43) 0.9822(33)
C19 C 1.3701(9) -0.0084(5) 0.8953(4)
H11 H 1.4661(70) 0.0000(41) 0.9060(34)
H12 H 1.3631(58) -0.0473(44) 0.8838(32)
O3 O 1.3218(4) 0.0593(3) 0.8487(2)
C20 C 1.3597(8) 0.0541(5) 0.7856(4)
H13 H 1.4389(66) 0.0585(42) 0.7954(33)
H14 H 1.3150(65) 0.0044(49) 0.7602(36)
C21 C 1.3091(7) 0.1312(5) 0.7434(4)
H15 H 1.2264(61) 0.1359(38) 0.7417(29)
H16 H 1.3103(72) 0.1377(52) 0.7061(41)
O4 O 1.3703(4) 0.2099(3) 0.7716(2)
C22 C 1.3294(7) 0.2879(5) 0.7340(3)
H17 H 1.3446(57) 0.2828(40) 0.6913(35)
H18 H 1.2334(73) 0.2998(46) 0.7191(35)
C23 C 1.3973(7) 0.3654(5) 0.7683(4)
H19 H 1.3885(45) 0.4133(35) 0.7451(27)
H20 H 1.4827(63) 0.3498(39) 0.7794(31)
O5 O 1.3557(4) 0.3834(3) 0.8286(2)
C24 C 1.4161(7) 0.4552(5) 0.8672(4)
H21 H 1.4124(45) 0.5093(37) 0.8433(27)
H22 H 1.4921(57) 0.4425(35) 0.8816(28)
C25 C 1.3586(8) 0.4725(5) 0.9244(4)
H23 H 1.3789(49) 0.5140(38) 0.9451(28)
H24 H 1.2727(60) 0.4815(36) 0.9102(29)
O6 O 1.3776(4) 0.3989(2) 0.9701(2)
C26 C 1.1295(9) -0.0832(6) 1.1788(4)
H25 H 1.1709(98) -0.0384(72) 1.1884(56)
H26 H 1.1741(68) -0.1339(55) 1.1722(38)
Cl1 Cl 1.0680(2) -0.1023(2) 1.24829(12)
Cl2 Cl 1.0263(3) -0.06798(14) 1.10279(13)
loop_
_geom_bond_atom_site_label_1
_geom_bond_atom_site_label_2
_geom_bond_site_symmetry_1
_geom_bond_site_symmetry_2
P1 C1 1_555 1_555
C1 S1 1_555 1_555
S2 C1 1_555 1_555
C2 P1 1_555 1_555
C3 C2 1_555 1_555
F1 C3 1_555 1_555
C4 C3 1_555 1_555
F2 C4 1_555 1_555
C5 C4 1_555 1_555
F3 C5 1_555 1_555
C6 C5 1_555 1_555
F4 C6 1_555 1_555
C7 C2 1_555 1_555
F5 C7 1_555 1_555
C8 P1 1_555 1_555
C9 C8 1_555 1_555
F6 C9 1_555 1_555
C10 C9 1_555 1_555
F7 C10 1_555 1_555
C11 C10 1_555 1_555
F8 C11 1_555 1_555
C12 C11 1_555 1_555
F9 C12 1_555 1_555
C13 C8 1_555 1_555
F10 C13 1_555 1_555
K1 O1 1_555 1_555
C14 H1 1_555 1_555
H2 C14 1_555 1_555
C15 C14 1_555 1_555
H3 C15 1_555 1_555
H4 C15 1_555 1_555
O1 C15 1_555 1_555
C16 O1 1_555 1_555
H5 C16 1_555 1_555
H6 C16 1_555 1_555
C17 C16 1_555 1_555
H7 C17 1_555 1_555
H8 C17 1_555 1_555
O2 K1 1_555 1_555
C18 O2 1_555 1_555
H9 C18 1_555 1_555
H10 C18 1_555 1_555
C19 C18 1_555 1_555
H11 C19 1_555 1_555
H12 C19 1_555 1_555
O3 K1 1_555 1_555
C20 O3 1_555 1_555
H13 C20 1_555 1_555
H14 C20 1_555 1_555
C21 C20 1_555 1_555
H15 C21 1_555 1_555
H16 C21 1_555 1_555
O4 K1 1_555 1_555
C22 O4 1_555 1_555
H17 C22 1_555 1_555
H18 C22 1_555 1_555
C23 C22 1_555 1_555
H19 C23 1_555 1_555
H20 C23 1_555 1_555
O5 K1 1_555 1_555
C24 O5 1_555 1_555
H21 C24 1_555 1_555
H22 C24 1_555 1_555
C25 C24 1_555 1_555
H23 C25 1_555 1_555
H24 C25 1_555 1_555
O6 K1 1_555 1_555
C26 H25 1_555 1_555
H26 C26 1_555 1_555
Cl1 C26 1_555 1_555
Cl2 C26 1_555 1_555
C6 C7 1_555 1_555
C12 C13 1_555 1_555
C14 O6 1_555 1_555
C17 O2 1_555 1_555
C19 O3 1_555 1_555
C21 O4 1_555 1_555
C23 O5 1_555 1_555
C25 O6 1_555 1_555

#END
