
#######################################################################
#
#                 Cambridge Crystallographic Data Centre
#                                CCDC 
#
#######################################################################
#
# If this CIF has been generated from an entry in the Cambridge 
# Structural Database, then it will include bibliographic, chemical, 
# crystal, experimental, refinement or atomic coordinate data resulting 
# from the CCDC's data processing and validation procedures.
#
#######################################################################

data_MIZFUX
_chemical_formula_moiety         'C40 H52 N10 O16,2(C2 H6 O1),5(H2 O1)'
_chemical_name_systematic        
"(2R,3R,4S)-3-(Acetylamino)-2-(((1R,2R)-1-(((((4'-((((((1R),(2R)-1-(2R,3R,4S)-3-(acetylamino)-4-((amino(imino)methyl)amino)-6-carboxy-3,4-dihydro-2H-pyran-2-yl)-2,3-dihydroxypropyl)oxy)carbonyl)amino)methyl)-1,1'-biphenyl-4-yl)methyl)amino)carbonyl)oxy)-2,3-dihydroxypropyl)-4-((amino(imino)methyl)amino)-3,4-dihydro-2H-pyran-6-carboxylic acid ethanol solvate pentahydrate"
_chemical_properties_biological  
'highly potent neuraminidase (NA) inhibitor and antiviral activity'
_symmetry_cell_setting           monoclinic
_symmetry_space_group_name_H-M   'C 2'
_symmetry_Int_Tables_number      5
_space_group_name_Hall           'C 2y'
loop_
_symmetry_equiv_pos_site_id
_symmetry_equiv_pos_as_xyz
1 x,y,z
2 -x,y,-z
3 1/2+x,1/2+y,z
4 1/2-x,1/2+y,-z
_cell_length_a                   16.4608(17)
_cell_length_b                   7.7062(8)
_cell_length_c                   20.933(2)
_cell_angle_alpha                90
_cell_angle_beta                 96.313(2)
_cell_angle_gamma                90
_cell_volume                     2639.25
_exptl_crystal_colour            colorless
_cell_formula_units_Z            2
_exptl_crystal_recrystallization_method ethanol/water
loop_
_atom_site_label
_atom_site_type_symbol
_atom_site_fract_x
_atom_site_fract_y
_atom_site_fract_z
C1 C 0.5411(3) 0.6564(6) 0.4877(2)
C2 C 0.5491(3) 0.6144(6) 0.4242(2)
C3 C 0.6245(3) 0.6157(7) 0.4002(2)
C4 C 0.6944(3) 0.6631(6) 0.4393(2)
C5 C 0.6870(3) 0.7044(8) 0.5029(2)
C6 C 0.6118(3) 0.7019(7) 0.5269(2)
C7 C 0.7789(3) 0.6695(7) 0.4153(2)
N1 N 0.7801(2) 0.6171(5) 0.34843(18)
C8 C 0.7671(3) 0.7325(7) 0.3006(2)
O1 O 0.7533(2) 0.8865(5) 0.30645(16)
O2 O 0.76788(17) 0.6532(4) 0.24289(13)
C9 C 0.7567(2) 0.7599(6) 0.1855(2)
C10 C 0.6735(3) 0.7186(6) 0.1476(2)
O3 O 0.66235(19) 0.8502(4) 0.09911(15)
C11 C 0.6035(3) 0.7192(7) 0.1880(3)
O4 O 0.5948(2) 0.8800(6) 0.2223(2)
C12 C 0.8276(3) 0.7223(6) 0.1468(2)
O5 O 0.82798(17) 0.5368(4) 0.13592(14)
C13 C 0.8899(2) 0.4846(6) 0.10061(19)
C14 C 0.9574(3) 0.5770(6) 0.0965(2)
C15 C 0.9753(3) 0.7449(6) 0.1320(2)
C16 C 0.9110(3) 0.7803(6) 0.1781(2)
C17 C 0.8755(2) 0.3058(6) 0.0727(2)
O6 O 0.9091(2) 0.2697(4) 0.02357(16)
O7 O 0.83122(18) 0.2047(4) 0.10061(16)
N2 N 1.0568(2) 0.7442(5) 0.16757(18)
C18 C 1.1266(3) 0.7598(6) 0.1401(2)
N3 N 1.1241(2) 0.7959(5) 0.07813(19)
N4 N 1.1974(2) 0.7423(5) 0.17547(19)
N5 N 0.9084(2) 0.9642(5) 0.19474(17)
C19 C 0.9258(3) 1.0271(6) 0.2533(2)
O8 O 0.9497(2) 0.9360(5) 0.30019(18)
C20 C 0.9153(3) 1.2192(7) 0.2617(3)
H1 H 0.5018 0.5839 0.3964
H2 H 0.6281 0.5840 0.3567
H3 H 0.7345 0.7351 0.5306
H4 H 0.6084 0.7316 0.5705
H5 H 0.8002 0.7893 0.4204
H6 H 0.8163 0.5930 0.4427
H7 H 0.7896 0.5079 0.3394
H8 H 0.7580 0.8851 0.1982
H9 H 0.6764 0.6027 0.1265
H10 H 0.6335 0.8109 0.0667
H11 H 0.5522 0.6964 0.1600
H12 H 0.6114 0.6232 0.2196
H13 H 0.6387 0.9024 0.2452
H14 H 0.8167 0.7816 0.1042
H15 H 0.9963 0.5349 0.0699
H16 H 0.9729 0.8411 0.0998
H17 H 0.9251 0.7116 0.2183
H18 H 1.0604 0.7329 0.2096
H19 H 1.1698 0.8083 0.0604
H20 H 1.0767 0.8075 0.0546
H21 H 1.2432 0.7546 0.1579
H22 H 1.1989 0.7183 0.2167
H23 H 0.8941 1.0383 0.1635
H24 H 0.8967 1.2719 0.2200
H25 H 0.9676 1.2707 0.2788
H26 H 0.8746 1.2401 0.2917
C1A C 0.4589(3) 0.6564(6) 0.5123(2)
C2A C 0.4509(3) 0.6144(6) 0.5758(2)
C3A C 0.3755(3) 0.6157(7) 0.5998(2)
C4A C 0.3056(3) 0.6631(6) 0.5607(2)
C5A C 0.3130(3) 0.7044(8) 0.4971(2)
C6A C 0.3882(3) 0.7019(7) 0.4731(2)
C7A C 0.2211(3) 0.6695(7) 0.5847(2)
N1A N 0.2199(2) 0.6171(5) 0.65157(18)
C8A C 0.2329(3) 0.7325(7) 0.6994(2)
O1A O 0.2467(2) 0.8865(5) 0.69355(16)
O2A O 0.23212(17) 0.6532(4) 0.75711(13)
C9A C 0.2433(2) 0.7599(6) 0.8145(2)
C10A C 0.3265(3) 0.7186(6) 0.8524(2)
O3A O 0.33765(19) 0.8502(4) 0.90089(15)
C11A C 0.3965(3) 0.7192(7) 0.8120(3)
O4A O 0.4052(2) 0.8800(6) 0.7777(2)
C12A C 0.1724(3) 0.7223(6) 0.8532(2)
O5A O 0.17202(17) 0.5368(4) 0.86408(14)
C13A C 0.1101(2) 0.4846(6) 0.89939(19)
C14A C 0.0426(3) 0.5770(6) 0.9035(2)
C15A C 0.0247(3) 0.7449(6) 0.8680(2)
C16A C 0.0890(3) 0.7803(6) 0.8219(2)
C17A C 0.1245(2) 0.3058(6) 0.9273(2)
O6A O 0.0909(2) 0.2697(4) 0.97643(16)
O7A O 0.16878(18) 0.2047(4) 0.89939(16)
N2A N -0.0568(2) 0.7442(5) 0.83243(18)
C18A C -0.1266(3) 0.7598(6) 0.8599(2)
N3A N -0.1241(2) 0.7959(5) 0.92187(19)
N4A N -0.1974(2) 0.7423(5) 0.82453(19)
N5A N 0.0916(2) 0.9642(5) 0.80526(17)
C19A C 0.0742(3) 1.0271(6) 0.7467(2)
O8A O 0.0503(2) 0.9360(5) 0.69981(18)
C20A C 0.0847(3) 1.2192(7) 0.7383(3)
H1A H 0.4982 0.5839 0.6036
H2A H 0.3719 0.5840 0.6433
H3A H 0.2655 0.7351 0.4694
H4A H 0.3916 0.7316 0.4295
H5A H 0.1998 0.7893 0.5796
H6A H 0.1837 0.5930 0.5573
H7A H 0.2104 0.5079 0.6606
H8A H 0.2420 0.8851 0.8018
H9A H 0.3236 0.6027 0.8735
H10A H 0.3665 0.8109 0.9333
H11A H 0.4478 0.6964 0.8400
H12A H 0.3886 0.6232 0.7804
H13A H 0.3613 0.9024 0.7548
H14A H 0.1833 0.7816 0.8958
H15A H 0.0037 0.5349 0.9301
H16A H 0.0271 0.8411 0.9002
H17A H 0.0749 0.7116 0.7817
H18A H -0.0604 0.7329 0.7904
H19A H -0.1698 0.8083 0.9396
H20A H -0.0767 0.8075 0.9454
H21A H -0.2432 0.7546 0.8421
H22A H -0.1989 0.7183 0.7833
H23A H 0.1059 1.0383 0.8365
H24A H 0.1033 1.2719 0.7800
H25A H 0.0324 1.2707 0.7212
H26A H 0.1254 1.2401 0.7083
O9 O 1.0000 -0.0104(6) 0.0000
H27 H 0.9594(16) 0.057(5) 0.006(3)
H27A H 1.0406(16) 0.057(5) -0.006(3)
O10 O 0.7706(2) -0.0339(5) 0.00329(16)
H28 H 0.803(3) 0.040(7) 0.025(2)
H29 H 0.738(3) -0.073(7) 0.029(2)
O11 O 1.2334(2) 0.7480(5) 0.3246(2)
H30 H 1.1816(18) 0.748(8) 0.326(3)
H31 H 1.251(3) 0.645(5) 0.333(3)
O12 O 1.0679(2) 0.6975(5) 0.31495(19)
C21 C 1.0430(5) 0.5712(9) 0.3575(4)
C22 C 1.0462(8) 0.6280(12) 0.4225(4)
H32 H 1.0311 0.7729 0.3080
H33 H 1.0783 0.4677 0.3558
H34 H 0.9862 0.5357 0.3426
H35 H 1.0286 0.5336 0.4491
H36 H 1.0099 0.7280 0.4250
H37 H 1.1023 0.6615 0.4380
loop_
_geom_bond_atom_site_label_1
_geom_bond_atom_site_label_2
_geom_bond_site_symmetry_1
_geom_bond_site_symmetry_2
C1 C2 1_555 1_555
C2 C3 1_555 1_555
C3 C4 1_555 1_555
C4 C5 1_555 1_555
C5 C6 1_555 1_555
C6 C1 1_555 1_555
C7 C4 1_555 1_555
N1 C7 1_555 1_555
C8 N1 1_555 1_555
O1 C8 1_555 1_555
O2 C8 1_555 1_555
C9 O2 1_555 1_555
C10 C9 1_555 1_555
O3 C10 1_555 1_555
C11 C10 1_555 1_555
O4 C11 1_555 1_555
C12 C9 1_555 1_555
O5 C12 1_555 1_555
C13 O5 1_555 1_555
C14 C13 1_555 1_555
C15 C14 1_555 1_555
C16 C12 1_555 1_555
C17 C13 1_555 1_555
O6 C17 1_555 1_555
O7 C17 1_555 1_555
N2 C15 1_555 1_555
C18 N2 1_555 1_555
N3 C18 1_555 1_555
N4 C18 1_555 1_555
N5 C16 1_555 1_555
C19 N5 1_555 1_555
O8 C19 1_555 1_555
C20 C19 1_555 1_555
H1 C2 1_555 1_555
H2 C3 1_555 1_555
H3 C5 1_555 1_555
H4 C6 1_555 1_555
H5 C7 1_555 1_555
H6 C7 1_555 1_555
H7 N1 1_555 1_555
H8 C9 1_555 1_555
H9 C10 1_555 1_555
H10 O3 1_555 1_555
H11 C11 1_555 1_555
H12 C11 1_555 1_555
H13 O4 1_555 1_555
H14 C12 1_555 1_555
H15 C14 1_555 1_555
H16 C15 1_555 1_555
H17 C16 1_555 1_555
H18 N2 1_555 1_555
H19 N3 1_555 1_555
H20 N3 1_555 1_555
H21 N4 1_555 1_555
H22 N4 1_555 1_555
H23 N5 1_555 1_555
H24 C20 1_555 1_555
H25 C20 1_555 1_555
H26 C20 1_555 1_555
O9 H27 1_555 1_555
O10 H28 1_555 1_555
H29 O10 1_555 1_555
O11 H30 1_555 1_555
H31 O11 1_555 1_555
O12 C21 1_555 1_555
C21 C22 1_555 1_555
C22 H35 1_555 1_555
H32 O12 1_555 1_555
H33 C21 1_555 1_555
H34 C21 1_555 1_555
H36 C22 1_555 1_555
H37 C22 1_555 1_555
C1A C1 1_555 1_555
C2A C1A 1_555 1_555
C3A C2A 1_555 1_555
C4A C3A 1_555 1_555
C5A C4A 1_555 1_555
C6A C1A 1_555 1_555
C7A C4A 1_555 1_555
N1A C7A 1_555 1_555
C8A N1A 1_555 1_555
O1A C8A 1_555 1_555
O2A C8A 1_555 1_555
C9A O2A 1_555 1_555
C10A C9A 1_555 1_555
O3A C10A 1_555 1_555
C11A C10A 1_555 1_555
O4A C11A 1_555 1_555
C12A C9A 1_555 1_555
O5A C12A 1_555 1_555
C13A O5A 1_555 1_555
C14A C13A 1_555 1_555
C15A C14A 1_555 1_555
C16A C12A 1_555 1_555
C17A C13A 1_555 1_555
O6A C17A 1_555 1_555
O7A C17A 1_555 1_555
N2A C15A 1_555 1_555
C18A N2A 1_555 1_555
N3A C18A 1_555 1_555
N4A C18A 1_555 1_555
N5A C16A 1_555 1_555
C19A N5A 1_555 1_555
O8A C19A 1_555 1_555
C20A C19A 1_555 1_555
H1A C2A 1_555 1_555
H2A C3A 1_555 1_555
H3A C5A 1_555 1_555
H4A C6A 1_555 1_555
H5A C7A 1_555 1_555
H6A C7A 1_555 1_555
H7A N1A 1_555 1_555
H8A C9A 1_555 1_555
H9A C10A 1_555 1_555
H10A O3A 1_555 1_555
H11A C11A 1_555 1_555
H12A C11A 1_555 1_555
H13A O4A 1_555 1_555
H14A C12A 1_555 1_555
H15A C14A 1_555 1_555
H16A C15A 1_555 1_555
H17A C16A 1_555 1_555
H18A N2A 1_555 1_555
H19A N3A 1_555 1_555
H20A N3A 1_555 1_555
H21A N4A 1_555 1_555
H22A N4A 1_555 1_555
H23A N5A 1_555 1_555
H24A C20A 1_555 1_555
H25A C20A 1_555 1_555
H26A C20A 1_555 1_555
H27A O9 1_555 1_555
C15 C16 1_555 1_555
C5A C6A 1_555 1_555
C15A C16A 1_555 1_555

#END
