
#######################################################################
#
#                 Cambridge Crystallographic Data Centre
#                                CCDC 
#
#######################################################################
#
# If this CIF has been generated from an entry in the Cambridge 
# Structural Database, then it will include bibliographic, chemical, 
# crystal, experimental, refinement or atomic coordinate data resulting 
# from the CCDC's data processing and validation procedures.
#
#######################################################################

data_MIZGIN
_chemical_formula_moiety         'C10 H8 F3 N1 O1'
_chemical_name_systematic        3-Phenyl-2-(trifluoromethyl)acrylamide
_symmetry_cell_setting           triclinic
_symmetry_space_group_name_H-M   'P -1'
_symmetry_Int_Tables_number      2
_space_group_name_Hall           '-P 1'
loop_
_symmetry_equiv_pos_site_id
_symmetry_equiv_pos_as_xyz
1 x,y,z
2 -x,-y,-z
_cell_length_a                   5.1491(18)
_cell_length_b                   8.215(4)
_cell_length_c                   23.503(9)
_cell_angle_alpha                89.92(3)
_cell_angle_beta                 89.79(3)
_cell_angle_gamma                84.28(4)
_cell_volume                     989.216
_cell_formula_units_Z            4
loop_
_atom_site_label
_atom_site_type_symbol
_atom_site_fract_x
_atom_site_fract_y
_atom_site_fract_z
O1 O 0.7934(14) 0.0757(9) 0.0600(3)
F1 F 0.6412(14) 0.0408(9) 0.1765(3)
N1 N 1.2337(17) 0.0785(10) 0.0530(3)
F2 F 0.9443(15) 0.0693(9) 0.2364(3)
C1 C 1.007(2) 0.1015(12) 0.0811(4)
F3 F 0.9985(15) -0.1141(10) 0.1745(3)
C2 C 1.1225(19) 0.2815(12) 0.1643(4)
C3 C 1.0185(18) 0.1524(11) 0.1424(4)
C4 C 1.243(2) 0.4119(12) 0.1337(4)
C5 C 1.172(2) 0.4706(14) 0.0810(5)
C6 C 1.436(2) 0.4844(15) 0.1648(5)
C7 C 1.563(3) 0.6130(16) 0.1399(5)
C8 C 0.900(2) 0.0406(15) 0.1814(5)
C9 C 1.303(3) 0.5976(17) 0.0562(6)
C10 C 1.493(3) 0.6662(16) 0.0874(6)
O2 O 0.7926(15) 0.5764(9) 0.4398(3)
N2 N 1.2325(16) 0.5787(10) 0.4470(3)
F4 F 0.9974(15) 0.3859(9) 0.3256(3)
F5 F 0.6417(15) 0.5407(9) 0.3235(3)
F6 F 0.9408(15) 0.5700(9) 0.2642(3)
C11 C 1.009(2) 0.6016(12) 0.4178(4)
C12 C 1.1216(19) 0.7833(12) 0.3356(4)
C13 C 1.0198(19) 0.6541(12) 0.3569(4)
C14 C 1.243(2) 0.9121(12) 0.3660(4)
C15 C 1.171(2) 0.9702(14) 0.4198(5)
C16 C 0.901(2) 0.5422(15) 0.3186(5)
C17 C 1.436(2) 0.9848(15) 0.3349(5)
C18 C 1.562(3) 1.1129(16) 0.3602(6)
C19 C 1.490(2) 1.1682(15) 0.4124(5)
C20 C 1.302(3) 1.0981(17) 0.4445(6)
loop_
_geom_bond_atom_site_label_1
_geom_bond_atom_site_label_2
_geom_bond_site_symmetry_1
_geom_bond_site_symmetry_2
O1 C1 1_555 1_555
F1 C8 1_555 1_555
N1 C1 1_555 1_555
F2 C8 1_555 1_555
C1 C3 1_555 1_555
F3 C8 1_555 1_555
C2 C3 1_555 1_555
C3 C8 1_555 1_555
C4 C2 1_555 1_555
C5 C4 1_555 1_555
C6 C4 1_555 1_555
C7 C6 1_555 1_555
C9 C5 1_555 1_555
C10 C7 1_555 1_555
O2 C11 1_555 1_555
N2 C11 1_555 1_555
F4 C16 1_555 1_555
F5 C16 1_555 1_555
F6 C16 1_555 1_555
C11 C13 1_555 1_555
C12 C13 1_555 1_555
C13 C16 1_555 1_555
C14 C12 1_555 1_555
C15 C14 1_555 1_555
C17 C14 1_555 1_555
C18 C17 1_555 1_555
C19 C18 1_555 1_555
C20 C15 1_555 1_555
C9 C10 1_555 1_555
C19 C20 1_555 1_555

#END
