
#######################################################################
#
#                 Cambridge Crystallographic Data Centre
#                                CCDC 
#
#######################################################################
#
# If this CIF has been generated from an entry in the Cambridge 
# Structural Database, then it will include bibliographic, chemical, 
# crystal, experimental, refinement or atomic coordinate data resulting 
# from the CCDC's data processing and validation procedures.
#
#######################################################################

data_MIZHOU
_chemical_name_common            
'(R,Z)-3-(4-(4-chlorophenyl)-5,5,5-trifluoro-4-(nitromethyl)pentan-2-ylidene)indolin-2-one dihydrate'
_chemical_formula_moiety         'C20 H16 Cl1 F3 N2 O3,2(H2 O1)'
_chemical_name_systematic        
'(R,Z)-3-(4-(4-Chlorophenyl)-5,5,5-trifluoro-4-(nitromethyl)pentan-2-ylidene)-1,3-dihydro-2H-indol-2-one dihydrate'
_symmetry_cell_setting           orthorhombic
_symmetry_space_group_name_H-M   'P 2 21 21'
_symmetry_Int_Tables_number      18
_space_group_name_Hall           'P 2bc 2'
loop_
_symmetry_equiv_pos_site_id
_symmetry_equiv_pos_as_xyz
1 x,y,z
2 -x,1/2-y,1/2+z
3 x,-y,-z
4 -x,1/2+y,1/2-z
_cell_length_a                   7.6488(11)
_cell_length_b                   16.8386(13)
_cell_length_c                   17.9210(19)
_cell_angle_alpha                90
_cell_angle_beta                 90
_cell_angle_gamma                90
_cell_volume                     2308.14
_exptl_crystal_colour            yellow
_exptl_crystal_description       block
_cell_formula_units_Z            4
loop_
_atom_site_label
_atom_site_type_symbol
_atom_site_fract_x
_atom_site_fract_y
_atom_site_fract_z
Cl1 Cl 0.7739(5) 0.82849(16) 0.62192(19)
F1 F 0.9388(11) 0.3519(4) 0.6497(4)
F2 F 1.0191(10) 0.4496(4) 0.5804(4)
F3 F 0.7457(10) 0.4211(4) 0.5903(4)
O1 O 0.8483(12) 0.5005(4) 0.8960(4)
O2 O 1.2631(14) 0.5527(8) 0.7029(9)
O3 O 1.2957(13) 0.4280(8) 0.6880(6)
N1 N 0.8014(14) 0.3982(5) 0.9800(5)
H1 H 0.8226 0.4232 1.0209
N2 N 1.2156(13) 0.4825(8) 0.7099(7)
C1 C 0.7543(14) 0.3198(6) 0.9745(6)
C2 C 0.7475(18) 0.2672(7) 1.0321(8)
H2 H 0.7747 0.2844 1.0800
C3 C 0.700(2) 0.1876(9) 1.0207(9)
H3 H 0.6861 0.1524 1.0602
C4 C 0.678(2) 0.1655(8) 0.9506(10)
H4 H 0.6545 0.1123 0.9411
C5 C 0.6867(19) 0.2171(7) 0.8907(8)
H5 H 0.6676 0.1981 0.8427
C6 C 0.7231(17) 0.2956(6) 0.9011(8)
C7 C 0.7414(17) 0.3651(5) 0.8556(6)
C8 C 0.8093(17) 0.4309(6) 0.9076(7)
C9 C 0.7084(15) 0.3772(6) 0.7822(6)
C10 C 0.6286(18) 0.3122(8) 0.7373(7)
H6 H 0.5286 0.2915 0.7631
H7 H 0.7128 0.2706 0.7302
H8 H 0.5930 0.3326 0.6896
C11 C 0.7223(13) 0.4591(6) 0.7456(6)
H9 H 0.7126 0.4981 0.7852
H10 H 0.6200 0.4655 0.7142
C12 C 0.8850(13) 0.4829(6) 0.6974(6)
C13 C 1.0427(14) 0.4641(7) 0.7485(7)
H11 H 1.0338 0.4952 0.7939
H12 H 1.0400 0.4084 0.7622
C14 C 0.9017(18) 0.4281(6) 0.6291(7)
C15 C 0.8644(15) 0.5688(6) 0.6763(6)
C16 C 0.8221(19) 0.5938(6) 0.6055(6)
H13 H 0.8054 0.5556 0.5687
C17 C 0.8028(18) 0.6742(7) 0.5860(6)
H14 H 0.7842 0.6890 0.5366
C18 C 0.8119(15) 0.7302(6) 0.6413(6)
C19 C 0.8429(19) 0.7074(7) 0.7144(7)
H15 H 0.8461 0.7447 0.7525
C20 C 0.869(2) 0.6260(6) 0.7295(6)
H16 H 0.8915 0.6108 0.7785
loop_
_geom_bond_atom_site_label_1
_geom_bond_atom_site_label_2
_geom_bond_site_symmetry_1
_geom_bond_site_symmetry_2
Cl1 C18 1_555 1_555
F1 C14 1_555 1_555
F2 C14 1_555 1_555
F3 C14 1_555 1_555
O1 C8 1_555 1_555
O2 N2 1_555 1_555
O3 N2 1_555 1_555
N1 H1 1_555 1_555
N2 C13 1_555 1_555
C1 N1 1_555 1_555
C2 C1 1_555 1_555
H2 C2 1_555 1_555
C3 C2 1_555 1_555
H3 C3 1_555 1_555
C4 C3 1_555 1_555
H4 C4 1_555 1_555
C5 C4 1_555 1_555
H5 C5 1_555 1_555
C6 C1 1_555 1_555
C7 C6 1_555 1_555
C8 N1 1_555 1_555
C9 C7 1_555 1_555
C10 C9 1_555 1_555
H6 C10 1_555 1_555
H7 C10 1_555 1_555
H8 C10 1_555 1_555
C11 C9 1_555 1_555
H9 C11 1_555 1_555
H10 C11 1_555 1_555
C12 C11 1_555 1_555
C13 C12 1_555 1_555
H11 C13 1_555 1_555
H12 C13 1_555 1_555
C14 C12 1_555 1_555
C15 C12 1_555 1_555
C16 C15 1_555 1_555
H13 C16 1_555 1_555
C17 C16 1_555 1_555
H14 C17 1_555 1_555
C18 C17 1_555 1_555
C19 C18 1_555 1_555
H15 C19 1_555 1_555
C20 C15 1_555 1_555
H16 C20 1_555 1_555
C5 C6 1_555 1_555
C7 C8 1_555 1_555
C19 C20 1_555 1_555

#END
