
#######################################################################
#
#                 Cambridge Crystallographic Data Centre
#                                CCDC 
#
#######################################################################
#
# If this CIF has been generated from an entry in the Cambridge 
# Structural Database, then it will include bibliographic, chemical, 
# crystal, experimental, refinement or atomic coordinate data resulting 
# from the CCDC's data processing and validation procedures.
#
#######################################################################

data_MIZKAJ
_chemical_formula_moiety         'C19 H19 Cl1 O4'
_chemical_name_systematic        
9-(2-Chlorophenyl)-4a-hydroxy-3,4,4a,5,6,7,9,9a-octahydro-1H-xanthene-1,8(2H)-dione
_symmetry_cell_setting           monoclinic
_symmetry_space_group_name_H-M   'P 21/c'
_symmetry_Int_Tables_number      14
_space_group_name_Hall           '-P 2ybc'
loop_
_symmetry_equiv_pos_site_id
_symmetry_equiv_pos_as_xyz
1 x,y,z
2 -x,1/2+y,1/2-z
3 -x,-y,-z
4 x,1/2-y,1/2+z
_cell_length_a                   15.3099(13)
_cell_length_b                   9.2815(8)
_cell_length_c                   12.3216(11)
_cell_angle_alpha                90
_cell_angle_beta                 110.7160(10)
_cell_angle_gamma                90
_cell_volume                     1637.68
_exptl_crystal_colour            colorless
_exptl_crystal_description       block
_cell_formula_units_Z            4
loop_
_atom_site_label
_atom_site_type_symbol
_atom_site_fract_x
_atom_site_fract_y
_atom_site_fract_z
C1 C 0.36292(16) 0.6212(3) 0.22858(19)
C2 C 0.4586(2) 0.5704(3) 0.3045(3)
H1 H 0.4519 0.5038 0.3618
H2 H 0.4865 0.5178 0.2569
C3 C 0.5220(3) 0.6854(6) 0.3646(6)
H3 H 0.5405 0.7363 0.3075
H4 H 0.5778 0.6441 0.4211
C4 C 0.48086(16) 0.7929(3) 0.4227(2)
H5 H 0.5185 0.8798 0.4380
H6 H 0.4826 0.7543 0.4966
C5 C 0.38240(15) 0.8304(2) 0.35106(17)
C6 C 0.32588(14) 0.7506(2) 0.26163(17)
C7 C 0.22743(14) 0.7965(2) 0.19183(17)
H7 H 0.2224 0.7950 0.1103
C8 C 0.21218(14) 0.9542(2) 0.21988(16)
H8 H 0.1447 0.9677 0.1986
C9 C 0.24489(16) 1.0626(3) 0.14999(18)
C10 C 0.2394(2) 1.2177(3) 0.1799(2)
H9 H 0.1745 1.2456 0.1591
H10 H 0.2671 1.2769 0.1357
C11 C 0.29051(17) 1.2435(3) 0.3093(2)
H11 H 0.3568 1.2265 0.3284
H12 H 0.2822 1.3429 0.3278
C12 C 0.25337(16) 1.1442(3) 0.38055(19)
H13 H 0.2898 1.1578 0.4621
H14 H 0.1893 1.1705 0.3685
C13 C 0.25672(14) 0.9869(2) 0.35002(17)
C14 C 0.15332(15) 0.6935(2) 0.20126(18)
C15 C 0.06507(16) 0.6870(2) 0.11488(19)
C16 C -0.00219(17) 0.5888(3) 0.1178(2)
H15 H -0.0601 0.5866 0.0582
C17 C 0.01752(18) 0.4942(3) 0.2097(2)
H16 H -0.0268 0.4268 0.2119
C18 C 0.10288(18) 0.5000(3) 0.2982(2)
H17 H 0.1157 0.4378 0.3611
C19 C 0.17003(16) 0.5983(2) 0.29409(19)
H18 H 0.2275 0.6007 0.3545
Cl1 Cl 0.03711(4) 0.80536(8) -0.00262(5)
O1 O 0.35645(10) 0.95441(16) 0.38789(12)
O2 O 0.31864(12) 0.55190(18) 0.14146(13)
O3 O 0.27329(14) 1.0251(2) 0.07442(15)
O4 O 0.21588(11) 0.89704(16) 0.40837(12)
H19 H 0.2496 0.8920 0.4769
C20? C 0.4986(10) 0.6331(16) 0.4163(11)
H20? H 0.5649 0.6240 0.4362
H21? H 0.4820 0.5808 0.4733
loop_
_geom_bond_atom_site_label_1
_geom_bond_atom_site_label_2
_geom_bond_site_symmetry_1
_geom_bond_site_symmetry_2
C1 C2 1_555 1_555
C2 H1 1_555 1_555
H2 C2 1_555 1_555
C3 C2 1_555 1_555
H3 C3 1_555 1_555
H4 C3 1_555 1_555
C4 C3 1_555 1_555
H5 C4 1_555 1_555
H6 C4 1_555 1_555
C5 C4 1_555 1_555
C6 C1 1_555 1_555
C7 C6 1_555 1_555
H7 C7 1_555 1_555
C8 C7 1_555 1_555
H8 C8 1_555 1_555
C9 C8 1_555 1_555
C10 C9 1_555 1_555
H9 C10 1_555 1_555
H10 C10 1_555 1_555
C11 C10 1_555 1_555
H11 C11 1_555 1_555
H12 C11 1_555 1_555
C12 C11 1_555 1_555
H13 C12 1_555 1_555
H14 C12 1_555 1_555
C13 C8 1_555 1_555
C14 C7 1_555 1_555
C15 C14 1_555 1_555
C16 C15 1_555 1_555
H15 C16 1_555 1_555
C17 C16 1_555 1_555
H16 C17 1_555 1_555
C18 C17 1_555 1_555
H17 C18 1_555 1_555
C19 C14 1_555 1_555
H18 C19 1_555 1_555
Cl1 C15 1_555 1_555
O1 C5 1_555 1_555
O2 C1 1_555 1_555
O3 C9 1_555 1_555
O4 C13 1_555 1_555
H19 O4 1_555 1_555
C5 C6 1_555 1_555
C12 C13 1_555 1_555
C13 O1 1_555 1_555
C18 C19 1_555 1_555

#END
