
#######################################################################
#
#                 Cambridge Crystallographic Data Centre
#                                CCDC 
#
#######################################################################
#
# If this CIF has been generated from an entry in the Cambridge 
# Structural Database, then it will include bibliographic, chemical, 
# crystal, experimental, refinement or atomic coordinate data resulting 
# from the CCDC's data processing and validation procedures.
#
#######################################################################

data_MIZWEZ
_chemical_formula_moiety         'C88 H16,2(C1 H1 Cl3)'
_chemical_name_systematic        
"(+-)-in,in-1',1'',4',4''-Tetrahydrobis(1,4)methanonaphtho(2',3':8,25:2'',3'':33,34)-D~5h~-(5,6)-C70fullerene chloroform solvate"
_symmetry_cell_setting           monoclinic
_symmetry_space_group_name_H-M   'C 2/c'
_symmetry_Int_Tables_number      15
_space_group_name_Hall           '-C 2yn'
loop_
_symmetry_equiv_pos_site_id
_symmetry_equiv_pos_as_xyz
1 x,y,z
2 -x,y,1/2-z
3 1/2+x,1/2+y,z
4 1/2-x,1/2+y,1/2-z
5 -x,-y,-z
6 x,-y,1/2+z
7 1/2-x,1/2-y,-z
8 1/2+x,1/2-y,1/2+z
_cell_length_a                   27.1086(3)
_cell_length_b                   10.14850(10)
_cell_length_c                   20.2045(2)
_cell_angle_alpha                90
_cell_angle_beta                 110.2920(10)
_cell_angle_gamma                90
_cell_volume                     5213.52
_exptl_crystal_colour            'dark brown'
_exptl_crystal_description       plate
_cell_formula_units_Z            4
loop_
_atom_site_label
_atom_site_type_symbol
_atom_site_fract_x
_atom_site_fract_y
_atom_site_fract_z
C1 C 0.62608(7) 0.88446(18) 0.72265(8)
C2 C 0.65031(6) 0.82412(18) 0.79126(8)
C3 C 0.65398(7) 0.92179(18) 0.84415(9)
C4 C 0.63130(8) 1.04178(18) 0.80834(9)
C5 C 0.61434(7) 1.01867(18) 0.73287(9)
C6 C 0.63832(6) 0.69548(17) 0.80224(8)
C7 C 0.63091(6) 0.65765(16) 0.86727(8)
C8 C 0.63524(6) 0.75003(16) 0.91861(8)
C9 C 0.64543(6) 0.88479(17) 0.90592(8)
C10 C 0.61481(7) 0.96834(16) 0.93450(8)
C11 C 0.59331(8) 1.08590(16) 0.90012(8)
C12 C 0.60167(8) 1.12206(16) 0.83546(9)
C13 C 0.59327(6) 0.81051(17) 0.66427(8)
C14 C 0.58121(6) 0.67429(16) 0.67582(8)
C15 C 0.60240(6) 0.62096(15) 0.74491(8)
C16 C 0.57194(6) 0.53795(14) 0.77284(7)
C17 C 0.58886(6) 0.55845(14) 0.84834(7)
C18 C 0.55261(6) 0.55710(13) 0.88134(7)
C19 C 0.55822(6) 0.63585(14) 0.94746(7)
C20 C 0.60444(6) 0.74373(15) 0.96879(7)
C21 C 0.58491(7) 0.88538(15) 0.96390(7)
C22 C 0.53417(7) 0.91994(15) 0.95545(7)
C23 C 0.51132(8) 1.03920(16) 0.91869(8)
C24 C 0.54087(8) 1.12143(15) 0.89242(8)
C25 C 0.51624(9) 1.18264(15) 0.82358(9)
C26 C 0.55400(9) 1.18285(15) 0.78885(9)
C27 C 0.53803(9) 1.16842(15) 0.71410(9)
C28 C 0.56955(8) 1.08268(17) 0.68570(9)
C29 C 0.54348(7) 1.01593(16) 0.62105(8)
C30 C 0.55527(7) 0.88240(16) 0.61066(8)
C31 C 0.50791(6) 0.82109(15) 0.56359(7)
C32 C 0.53232(6) 0.62156(14) 0.63202(7)
C33 C 0.50178(6) 0.53820(13) 0.65964(7)
C34 C 0.51926(6) 0.50598(13) 0.73257(7)
C35 C 0.50311(6) 0.69273(15) 0.92653(7)
C36 C 0.63741(7) 0.70297(16) 1.04732(8)
H1 H 0.6609 0.7711 1.0759
C37 C 0.66314(7) 0.57272(17) 1.04359(8)
C38 C 0.71443(7) 0.5392(2) 1.05285(10)
H2 H 0.7407 0.6029 1.0631
C39 C 0.72570(8) 0.4074(2) 1.04647(11)
H3 H 0.7601 0.3821 1.0536
C40 C 0.68636(9) 0.3128(2) 1.02959(10)
H4 H 0.6949 0.2250 1.0258
C41 C 0.63403(8) 0.34706(18) 1.01821(8)
H5 H 0.6075 0.2840 1.0060
C42 C 0.62328(7) 0.47818(16) 1.02583(8)
C43 C 0.57283(6) 0.54980(15) 1.01717(7)
H6 H 0.5443 0.4950 1.0214
C44 C 0.59306(7) 0.65784(16) 1.07361(8)
H7 H 0.6062 0.6229 1.1212
H8 H 0.5672 0.7262 1.0698
C1A C 0.37392(7) 0.88446(18) 0.77735(8)
C2A C 0.34969(6) 0.82412(18) 0.70874(8)
C3A C 0.34602(7) 0.92179(18) 0.65585(9)
C4A C 0.36870(8) 1.04178(18) 0.69166(9)
C5A C 0.38566(7) 1.01867(18) 0.76713(9)
C6A C 0.36168(6) 0.69548(17) 0.69776(8)
C7A C 0.36909(6) 0.65765(16) 0.63273(8)
C8A C 0.36476(6) 0.75003(16) 0.58139(8)
C9A C 0.35457(6) 0.88479(17) 0.59408(8)
C10A C 0.38519(7) 0.96834(16) 0.56550(8)
C11A C 0.40669(8) 1.08590(16) 0.59988(8)
C12A C 0.39833(8) 1.12206(16) 0.66454(9)
C13A C 0.40673(6) 0.81051(17) 0.83573(8)
C14A C 0.41879(6) 0.67429(16) 0.82418(8)
C15A C 0.39760(6) 0.62096(15) 0.75509(8)
C16A C 0.42806(6) 0.53795(14) 0.72716(7)
C17A C 0.41114(6) 0.55845(14) 0.65166(7)
C18A C 0.44739(6) 0.55710(13) 0.61866(7)
C19A C 0.44178(6) 0.63585(14) 0.55254(7)
C20A C 0.39556(6) 0.74373(15) 0.53121(7)
C21A C 0.41509(7) 0.88538(15) 0.53610(7)
C22A C 0.46583(7) 0.91994(15) 0.54455(7)
C23A C 0.48868(8) 1.03920(16) 0.58131(8)
C24A C 0.45913(8) 1.12143(15) 0.60758(8)
C25A C 0.48376(9) 1.18264(15) 0.67642(9)
C26A C 0.44600(9) 1.18285(15) 0.71115(9)
C27A C 0.46197(9) 1.16842(15) 0.78590(9)
C28A C 0.43045(8) 1.08268(17) 0.81430(9)
C29A C 0.45652(7) 1.01593(16) 0.87895(8)
C30A C 0.44473(7) 0.88240(16) 0.88934(8)
C31A C 0.49209(6) 0.82109(15) 0.93641(7)
C32A C 0.46768(6) 0.62156(14) 0.86798(7)
C33A C 0.49822(6) 0.53820(13) 0.84036(7)
C34A C 0.48074(6) 0.50598(13) 0.76743(7)
C35A C 0.49689(6) 0.69273(15) 0.57347(7)
C36A C 0.36259(7) 0.70297(16) 0.45268(8)
H1A H 0.3391 0.7711 0.4241
C37A C 0.33686(7) 0.57272(17) 0.45641(8)
C38A C 0.28557(7) 0.5392(2) 0.44715(10)
H2A H 0.2593 0.6029 0.4369
C39A C 0.27430(8) 0.4074(2) 0.45353(11)
H3A H 0.2399 0.3821 0.4464
C40A C 0.31364(9) 0.3128(2) 0.47041(10)
H4A H 0.3051 0.2250 0.4742
C41A C 0.36597(8) 0.34706(18) 0.48179(8)
H5A H 0.3925 0.2840 0.4940
C42A C 0.37672(7) 0.47818(16) 0.47417(8)
C43A C 0.42717(6) 0.54980(15) 0.48283(7)
H6A H 0.4557 0.4950 0.4786
C44A C 0.40694(7) 0.65784(16) 0.42639(8)
H7A H 0.3938 0.6229 0.3788
H8A H 0.4328 0.7262 0.4302
C45 C 0.74794(9) 0.4095(3) 0.80781(13)
Cl1 Cl 0.69271(15) 0.3416(4) 0.8233(3)
Cl2 Cl 0.73084(11) 0.4659(6) 0.72397(15)
Cl3 Cl 0.7570(5) 0.5128(11) 0.8874(6)
H9 H 0.7789(16) 0.337(4) 0.823(2)
Cl4? Cl 0.7197(6) 0.4295(15) 0.8699(4)
Cl5? Cl 0.7062(5) 0.3041(10) 0.7527(6)
Cl6? Cl 0.7365(3) 0.5197(8) 0.7325(4)
Cl7? Cl 0.7837(2) 0.5115(4) 0.87069(13)
Cl8? Cl 0.7657(3) 0.5289(7) 0.8781(4)
Cl9? Cl 0.7486(5) 0.5555(10) 0.7579(7)
Cl10? Cl 0.6951(3) 0.3269(8) 0.8042(7)
loop_
_geom_bond_atom_site_label_1
_geom_bond_atom_site_label_2
_geom_bond_site_symmetry_1
_geom_bond_site_symmetry_2
C1 C2 1_555 1_555
C2 C3 1_555 1_555
C3 C4 1_555 1_555
C4 C5 1_555 1_555
C5 C1 1_555 1_555
C6 C2 1_555 1_555
C7 C6 1_555 1_555
C8 C7 1_555 1_555
C9 C3 1_555 1_555
C10 C9 1_555 1_555
C11 C10 1_555 1_555
C12 C4 1_555 1_555
C13 C1 1_555 1_555
C14 C13 1_555 1_555
C15 C6 1_555 1_555
C16 C15 1_555 1_555
C17 C7 1_555 1_555
C18 C17 1_555 1_555
C19 C18 1_555 1_555
C20 C8 1_555 1_555
C21 C10 1_555 1_555
C22 C21 1_555 1_555
C23 C22 1_555 1_555
C24 C11 1_555 1_555
C25 C24 1_555 1_555
C26 C12 1_555 1_555
C27 C26 1_555 1_555
C28 C5 1_555 1_555
C29 C28 1_555 1_555
C30 C13 1_555 1_555
C31 C30 1_555 1_555
C32 C14 1_555 1_555
C33 C32 1_555 1_555
C34 C16 1_555 1_555
C35 C19 1_555 1_555
C36 C20 1_555 1_555
H1 C36 1_555 1_555
C37 C36 1_555 1_555
C38 C37 1_555 1_555
H2 C38 1_555 1_555
C39 C38 1_555 1_555
H3 C39 1_555 1_555
C40 C39 1_555 1_555
H4 C40 1_555 1_555
C41 C40 1_555 1_555
H5 C41 1_555 1_555
C42 C37 1_555 1_555
C43 C19 1_555 1_555
H6 C43 1_555 1_555
C44 C36 1_555 1_555
H7 C44 1_555 1_555
H8 C44 1_555 1_555
C45 Cl1 1_555 1_555
Cl2 C45 1_555 1_555
Cl3 C45 1_555 1_555
H9 C45 1_555 1_555
C1A C2A 1_555 1_555
C2A C3A 1_555 1_555
C3A C4A 1_555 1_555
C4A C5A 1_555 1_555
C5A C1A 1_555 1_555
C6A C2A 1_555 1_555
C7A C6A 1_555 1_555
C8A C7A 1_555 1_555
C9A C3A 1_555 1_555
C10A C9A 1_555 1_555
C11A C10A 1_555 1_555
C12A C4A 1_555 1_555
C13A C1A 1_555 1_555
C14A C13A 1_555 1_555
C15A C6A 1_555 1_555
C16A C15A 1_555 1_555
C17A C7A 1_555 1_555
C18A C33 1_555 1_555
C19A C18A 1_555 1_555
C20A C8A 1_555 1_555
C21A C10A 1_555 1_555
C22A C31 1_555 1_555
C23A C29 1_555 1_555
C24A C11A 1_555 1_555
C25A C27 1_555 1_555
C26A C12A 1_555 1_555
C27A C25 1_555 1_555
C28A C5A 1_555 1_555
C29A C23 1_555 1_555
C30A C13A 1_555 1_555
C31A C22 1_555 1_555
C32A C35 1_555 1_555
C33A C18 1_555 1_555
C34A C34 1_555 1_555
C35A C31 1_555 1_555
C36A C20A 1_555 1_555
H1A C36A 1_555 1_555
C37A C36A 1_555 1_555
C38A C37A 1_555 1_555
H2A C38A 1_555 1_555
C39A C38A 1_555 1_555
H3A C39A 1_555 1_555
C40A C39A 1_555 1_555
H4A C40A 1_555 1_555
C41A C40A 1_555 1_555
H5A C41A 1_555 1_555
C42A C37A 1_555 1_555
C43A C19A 1_555 1_555
H6A C43A 1_555 1_555
C44A C36A 1_555 1_555
H7A C44A 1_555 1_555
H8A C44A 1_555 1_555
C8 C9 1_555 1_555
C11 C12 1_555 1_555
C14 C15 1_555 1_555
C16 C17 1_555 1_555
C19 C20 1_555 1_555
C20 C21 1_555 1_555
C23 C24 1_555 1_555
C25 C26 1_555 1_555
C27 C28 1_555 1_555
C29 C30 1_555 1_555
C32 C35A 1_555 1_555
C33 C34 1_555 1_555
C35 C31A 1_555 1_555
C41 C42 1_555 1_555
C42 C43 1_555 1_555
C43 C44 1_555 1_555
C8A C9A 1_555 1_555
C11A C12A 1_555 1_555
C14A C15A 1_555 1_555
C14A C32A 1_555 1_555
C16A C17A 1_555 1_555
C16A C34A 1_555 1_555
C17A C18A 1_555 1_555
C19A C20A 1_555 1_555
C19A C35A 1_555 1_555
C20A C21A 1_555 1_555
C21A C22A 1_555 1_555
C22A C23A 1_555 1_555
C23A C24A 1_555 1_555
C24A C25A 1_555 1_555
C25A C26A 1_555 1_555
C26A C27A 1_555 1_555
C27A C28A 1_555 1_555
C28A C29A 1_555 1_555
C29A C30A 1_555 1_555
C30A C31A 1_555 1_555
C32A C33A 1_555 1_555
C33A C34A 1_555 1_555
C41A C42A 1_555 1_555
C42A C43A 1_555 1_555
C43A C44A 1_555 1_555

#END
