
#######################################################################
#
#                 Cambridge Crystallographic Data Centre
#                                CCDC 
#
#######################################################################
#
# If this CIF has been generated from an entry in the Cambridge 
# Structural Database, then it will include bibliographic, chemical, 
# crystal, experimental, refinement or atomic coordinate data resulting 
# from the CCDC's data processing and validation procedures.
#
#######################################################################

data_MIZXEA
_chemical_formula_moiety         'C28 H30 O7'
_chemical_name_systematic        
10-methoxy-8,8-bis(3-methylbut-2-en-1-yl)-6a,12a-dihydrochromeno[2,3-c][1,3]dioxolo[4,5-g]chromene-9,12(6H,8H)-dione
_symmetry_cell_setting           monoclinic
_symmetry_space_group_name_H-M   'P 21/c'
_symmetry_Int_Tables_number      14
_space_group_name_Hall           '-P 2ybc'
loop_
_symmetry_equiv_pos_site_id
_symmetry_equiv_pos_as_xyz
1 x,y,z
2 -x,1/2+y,1/2-z
3 -x,-y,-z
4 x,1/2-y,1/2+z
_cell_length_a                   12.6740(2)
_cell_length_b                   18.0944(3)
_cell_length_c                   21.0316(3)
_cell_angle_alpha                90
_cell_angle_beta                 92.1420(10)
_cell_angle_gamma                90
_cell_volume                     4819.77
_exptl_crystal_colour            colorless
_exptl_crystal_description       plate
_cell_formula_units_Z            8
loop_
_atom_site_label
_atom_site_type_symbol
_atom_site_fract_x
_atom_site_fract_y
_atom_site_fract_z
O1 O 0.46780(13) 0.23966(10) 0.51088(7)
O2 O 0.65133(13) 0.23617(10) 0.51299(7)
O3 O 0.68094(9) 0.18379(7) 0.73643(6)
O4 O 0.57390(8) 0.05935(6) 0.76451(5)
O5 O 0.52030(9) -0.17533(7) 0.67075(6)
O6 O 0.31859(9) -0.15145(7) 0.64485(6)
O7 O 0.27748(9) 0.12471(7) 0.70741(6)
C1 C 0.45156(15) 0.20326(10) 0.62339(9)
H1 H 0.3766 0.2015 0.6215
C2 C 0.50865(14) 0.18818(10) 0.68039(9)
C3 C 0.50636(17) 0.22055(12) 0.57092(10)
C4 C 0.5581(2) 0.24057(17) 0.47248(12)
H2 H 0.559 0.2867 0.4472
H3 H 0.5555 0.1982 0.4427
C5 C 0.61560(18) 0.22046(12) 0.57255(10)
C6 C 0.67414(16) 0.20811(11) 0.62702(10)
H4 H 0.7491 0.2092 0.6277
C7 C 0.61872(14) 0.19373(10) 0.68191(9)
C8 C 0.62624(14) 0.17860(10) 0.79475(9)
H5 H 0.6034 0.2285 0.8079
H6 H 0.6745 0.1587 0.8287
C9 C 0.53221(13) 0.12939(10) 0.78671(9)
H7 H 0.4988 0.1222 0.8286
C10 C 0.50702(13) 0.01301(9) 0.73345(7)
C11 C 0.55893(13) -0.05982(9) 0.72045(8)
C12 C 0.48540(14) -0.11466(10) 0.68573(8)
C13 C 0.37509(14) -0.09435(10) 0.67175(8)
C14 C 0.33952(13) -0.02621(10) 0.68477(8)
H8 H 0.268 -0.0145 0.6741
C15 C 0.40657(13) 0.03023(9) 0.71456(8)
C16 C 0.36859(13) 0.10595(10) 0.72036(8)
C17 C 0.45266(13) 0.16231(10) 0.73896(8)
H9 H 0.4181 0.2058 0.7589
C18 C 0.20986(14) -0.13825(12) 0.62852(10)
H10 H 0.1738 -0.1212 0.6662
H11 H 0.177 -0.1841 0.6128
H12 H 0.2042 -0.1003 0.5953
C19 C 0.65525(13) -0.04651(10) 0.67789(8)
H13 H 0.7097 -0.0188 0.7031
H14 H 0.6859 -0.0951 0.6672
C20 C 0.63201(14) -0.00532(10) 0.61732(9)
H15 H 0.6023 0.0426 0.6214
C21 C 0.64829(14) -0.02816(11) 0.55856(9)
C22 C 0.68843(18) -0.10384(12) 0.54285(10)
H16 H 0.7647 -0.1015 0.5369
H17 H 0.6526 -0.1216 0.5036
H18 H 0.6742 -0.1378 0.5778
C23 C 0.63284(18) 0.02290(15) 0.50248(10)
H19 H 0.6006 0.0691 0.5164
H20 H 0.5865 -0.0007 0.4701
H21 H 0.7014 0.0335 0.4844
C24 C 0.59882(14) -0.09599(10) 0.78382(8)
H22 H 0.629 -0.1451 0.7746
H23 H 0.656 -0.0651 0.8032
C25 C 0.51383(14) -0.10491(10) 0.83049(8)
H24 H 0.4594 -0.1392 0.8193
C26 C 0.50560(14) -0.07031(10) 0.88594(8)
C27 C 0.41321(16) -0.08349(12) 0.92704(9)
H25 H 0.3677 -0.1218 0.9077
H26 H 0.3729 -0.0376 0.9309
H27 H 0.4386 -0.0997 0.9693
C28 C 0.58396(17) -0.01595(12) 0.91322(10)
H28 H 0.641 -0.0091 0.8836
H29 H 0.6134 -0.0346 0.9539
H30 H 0.5488 0.0315 0.9201
O8 O 0.20506(14) 0.15216(8) 1.11017(6)
O9 O 0.05641(14) 0.22255(9) 1.12454(7)
O10 O 0.02675(10) 0.29776(7) 0.90526(6)
O11 O 0.03371(9) 0.18421(7) 0.81743(6)
O12 O -0.09069(10) -0.05010(7) 0.74909(6)
O13 O 0.08862(10) -0.11655(7) 0.77874(6)
O14 O 0.31642(10) 0.09545(7) 0.87597(6)
C29 C 0.21418(16) 0.17538(11) 0.99434(9)
H31 H 0.2748 0.1455 0.9889
C30 C 0.16392(14) 0.21166(10) 0.94216(8)
C31 C 0.17318(18) 0.18438(11) 1.05291(9)
C32 C 0.1486(2) 0.19198(13) 1.15649(10)
H32 H 0.1932 0.2319 1.1752
H33 H 0.1279 0.1585 1.1911
C33 C 0.08484(18) 0.22676(11) 1.06155(9)
C34 C 0.03495(16) 0.26427(11) 1.01301(9)
H34 H -0.0257 0.2938 1.0196
C35 C 0.07788(15) 0.25705(10) 0.95280(9)
C36 C 0.08083(15) 0.30525(10) 0.84716(9)
H35 H 0.1392 0.3413 0.8532
H36 H 0.0314 0.3245 0.8136
C37 C 0.12465(14) 0.23236(10) 0.82641(9)
H37 H 0.1595 0.2388 0.7849
C38 C 0.05258(13) 0.11091(10) 0.81244(8)
C39 C -0.04064(13) 0.07052(10) 0.78368(8)
C40 C -0.02006(14) -0.01165(10) 0.77262(8)
C41 C 0.08298(14) -0.04274(10) 0.79199(8)
C42 C 0.15879(14) -0.00036(10) 0.81941(8)
H38 H 0.2241 -0.0227 0.832
C43 C 0.14495(13) 0.07822(10) 0.83059(8)
C44 C 0.20436(14) 0.20208(10) 0.87557(8)
H39 H 0.271 0.2313 0.8727
C45 C 0.22972(14) 0.12156(10) 0.86119(8)
C46 C 0.17908(17) -0.15485(11) 0.80410(10)
H40 H 0.2431 -0.1327 0.7876
H41 H 0.1751 -0.2069 0.7915
H42 H 0.1813 -0.1513 0.8506
C47 C -0.13556(14) 0.07728(11) 0.82828(8)
H43 H -0.1496 0.1304 0.8355
H44 H -0.1989 0.0562 0.8061
C48 C -0.12125(14) 0.04020(11) 0.89150(9)
H45 H -0.0953 -0.009 0.891
C49 C -0.14050(14) 0.06796(11) 0.94811(9)
C50 C -0.1792(2) 0.14520(13) 0.95801(11)
H46 H -0.1642 0.1753 0.9207
H47 H -0.1432 0.1664 0.9958
H48 H -0.2555 0.1444 0.964
C51 C -0.13099(17) 0.02197(15) 1.00768(10)
H49 H -0.1032 -0.027 0.9974
H50 H -0.2007 0.0166 1.0258
H51 H -0.0829 0.0463 1.0387
C52 C -0.07260(14) 0.10502(10) 0.71790(8)
H52 H -0.1354 0.0788 0.6999
H53 H -0.0922 0.1574 0.724
C53 C 0.01417(14) 0.10072(10) 0.67183(8)
H54 H 0.0764 0.1279 0.6827
C54 C 0.01451(15) 0.06348(11) 0.61751(9)
C55 C 0.10816(16) 0.06541(12) 0.57632(9)
H55 H 0.164 0.0954 0.5969
H56 H 0.0877 0.0871 0.535
H57 H 0.1341 0.015 0.5701
C56 C -0.0739(2) 0.01641(16) 0.59203(11)
H58 H -0.1276 0.0117 0.6242
H59 H -0.0468 -0.0327 0.5816
H60 H -0.1055 0.0393 0.5536
loop_
_geom_bond_atom_site_label_1
_geom_bond_atom_site_label_2
_geom_bond_site_symmetry_1
_geom_bond_site_symmetry_2
O1 C3 1_555 1_555
O2 C4 1_555 1_555
O3 C7 1_555 1_555
O4 C9 1_555 1_555
O5 C12 1_555 1_555
O6 C13 1_555 1_555
O7 C16 1_555 1_555
C1 H1 1_555 1_555
C2 C1 1_555 1_555
C3 C1 1_555 1_555
C4 O1 1_555 1_555
H2 C4 1_555 1_555
H3 C4 1_555 1_555
C5 O2 1_555 1_555
C6 C5 1_555 1_555
H4 C6 1_555 1_555
C7 C2 1_555 1_555
C8 O3 1_555 1_555
H5 C8 1_555 1_555
H6 C8 1_555 1_555
C9 C8 1_555 1_555
H7 C9 1_555 1_555
C10 O4 1_555 1_555
C11 C10 1_555 1_555
C12 C11 1_555 1_555
C13 C12 1_555 1_555
C14 C13 1_555 1_555
H8 C14 1_555 1_555
C15 C10 1_555 1_555
C16 C15 1_555 1_555
C17 C2 1_555 1_555
H9 C17 1_555 1_555
C18 O6 1_555 1_555
H10 C18 1_555 1_555
H11 C18 1_555 1_555
H12 C18 1_555 1_555
C19 C11 1_555 1_555
H13 C19 1_555 1_555
H14 C19 1_555 1_555
C20 C19 1_555 1_555
H15 C20 1_555 1_555
C21 C20 1_555 1_555
C22 C21 1_555 1_555
H16 C22 1_555 1_555
H17 C22 1_555 1_555
H18 C22 1_555 1_555
C23 C21 1_555 1_555
H19 C23 1_555 1_555
H20 C23 1_555 1_555
H21 C23 1_555 1_555
C24 C11 1_555 1_555
H22 C24 1_555 1_555
H23 C24 1_555 1_555
C25 C24 1_555 1_555
H24 C25 1_555 1_555
C26 C25 1_555 1_555
C27 C26 1_555 1_555
H25 C27 1_555 1_555
H26 C27 1_555 1_555
H27 C27 1_555 1_555
C28 C26 1_555 1_555
H28 C28 1_555 1_555
H29 C28 1_555 1_555
H30 C28 1_555 1_555
O8 C31 1_555 1_555
O9 C32 1_555 1_555
O10 C35 1_555 1_555
O11 C37 1_555 1_555
O12 C40 1_555 1_555
O13 C41 1_555 1_555
O14 C45 1_555 1_555
C29 H31 1_555 1_555
C30 C29 1_555 1_555
C31 C29 1_555 1_555
C32 O8 1_555 1_555
H32 C32 1_555 1_555
H33 C32 1_555 1_555
C33 O9 1_555 1_555
C34 C33 1_555 1_555
H34 C34 1_555 1_555
C35 C30 1_555 1_555
C36 O10 1_555 1_555
H35 C36 1_555 1_555
H36 C36 1_555 1_555
C37 C36 1_555 1_555
H37 C37 1_555 1_555
C38 O11 1_555 1_555
C39 C38 1_555 1_555
C40 C39 1_555 1_555
C41 C40 1_555 1_555
C42 C41 1_555 1_555
H38 C42 1_555 1_555
C43 C38 1_555 1_555
C44 C30 1_555 1_555
H39 C44 1_555 1_555
C45 C43 1_555 1_555
C46 O13 1_555 1_555
H40 C46 1_555 1_555
H41 C46 1_555 1_555
H42 C46 1_555 1_555
C47 C39 1_555 1_555
H43 C47 1_555 1_555
H44 C47 1_555 1_555
C48 C47 1_555 1_555
H45 C48 1_555 1_555
C49 C48 1_555 1_555
C50 C49 1_555 1_555
H46 C50 1_555 1_555
H47 C50 1_555 1_555
H48 C50 1_555 1_555
C51 C49 1_555 1_555
H49 C51 1_555 1_555
H50 C51 1_555 1_555
H51 C51 1_555 1_555
C52 C39 1_555 1_555
H52 C52 1_555 1_555
H53 C52 1_555 1_555
C53 C52 1_555 1_555
H54 C53 1_555 1_555
C54 C53 1_555 1_555
C55 C54 1_555 1_555
H55 C55 1_555 1_555
H56 C55 1_555 1_555
H57 C55 1_555 1_555
C56 C54 1_555 1_555
H58 C56 1_555 1_555
H59 C56 1_555 1_555
H60 C56 1_555 1_555
C3 C5 1_555 1_555
C6 C7 1_555 1_555
C9 C17 1_555 1_555
C14 C15 1_555 1_555
C16 C17 1_555 1_555
C31 C33 1_555 1_555
C34 C35 1_555 1_555
C37 C44 1_555 1_555
C42 C43 1_555 1_555
C44 C45 1_555 1_555

#END
