
#######################################################################
#
#                 Cambridge Crystallographic Data Centre
#                                CCDC 
#
#######################################################################
#
# If this CIF has been generated from an entry in the Cambridge 
# Structural Database, then it will include bibliographic, chemical, 
# crystal, experimental, refinement or atomic coordinate data resulting 
# from the CCDC's data processing and validation procedures.
#
#######################################################################

data_MIZXOK
_chemical_formula_moiety         'C15 H12 N2 O3'
_chemical_name_systematic        '3-(2-(phenyl-NNO-azoxy)phenyl)acrylic acid'
_symmetry_cell_setting           monoclinic
_symmetry_space_group_name_H-M   'P 21/n'
_symmetry_Int_Tables_number      14
_space_group_name_Hall           '-P 2yn'
loop_
_symmetry_equiv_pos_site_id
_symmetry_equiv_pos_as_xyz
1 x,y,z
2 1/2-x,1/2+y,1/2-z
3 -x,-y,-z
4 1/2+x,1/2-y,1/2+z
_cell_length_a                   5.1332(14)
_cell_length_b                   35.283(10)
_cell_length_c                   7.131(2)
_cell_angle_alpha                90
_cell_angle_beta                 101.075(5)
_cell_angle_gamma                90
_cell_volume                     1267.48
_exptl_crystal_colour            orange
_exptl_crystal_description       block
_cell_formula_units_Z            4
loop_
_atom_site_label
_atom_site_type_symbol
_atom_site_fract_x
_atom_site_fract_y
_atom_site_fract_z
N1 N 0.5655(7) 0.86951(10) 0.9355(5)
N2 N 0.6059(8) 0.83417(10) 0.9341(5)
O1 O 1.2804(6) 1.00915(9) 0.7783(4)
H1 H 1.4216 1.0155 0.8520
O2 O 1.2673(6) 0.96738(8) 1.0128(4)
O3 O 0.6069(7) 0.89149(9) 1.0784(4)
C1 C 1.1720(8) 0.98096(12) 0.8524(6)
C2 C 0.9260(8) 0.96586(12) 0.7358(6)
H2 H 0.8498 0.9782 0.6199
C3 C 0.8096(8) 0.93556(12) 0.7888(6)
H3 H 0.8902 0.9240 0.9060
C4 C 0.5658(8) 0.91797(12) 0.6825(5)
C5 C 0.4396(9) 0.93194(12) 0.5030(6)
H4 H 0.5128 0.9533 0.4508
C6 C 0.2127(9) 0.91546(13) 0.4011(6)
H5 H 0.1321 0.9256 0.2805
C7 C 0.1009(9) 0.88414(13) 0.4726(6)
H6 H -0.0580 0.8733 0.4031
C8 C 0.2232(9) 0.86882(12) 0.6469(6)
H7 H 0.1527 0.8468 0.6955
C9 C 0.4499(8) 0.88609(11) 0.7493(6)
C10 C 0.6918(9) 0.81674(12) 1.1167(6)
C11 C 0.5655(9) 0.82179(12) 1.2709(6)
H8 H 0.4231 0.8393 1.2623
C12 C 0.6482(10) 0.80114(12) 1.4377(6)
H9 H 0.5611 0.8043 1.5428
C13 C 0.8587(9) 0.77591(12) 1.4503(6)
H10 H 0.9195 0.7623 1.5654
C14 C 0.9795(9) 0.77065(14) 1.2945(6)
H11 H 1.1206 0.7530 1.3021
C15 C 0.8963(9) 0.79087(13) 1.1289(6)
H12 H 0.9799 0.7870 1.0225
loop_
_geom_bond_atom_site_label_1
_geom_bond_atom_site_label_2
_geom_bond_site_symmetry_1
_geom_bond_site_symmetry_2
N1 N2 1_555 1_555
N2 C10 1_555 1_555
O1 H1 1_555 1_555
O2 C1 1_555 1_555
O3 N1 1_555 1_555
C1 O1 1_555 1_555
C2 C1 1_555 1_555
H2 C2 1_555 1_555
C3 C2 1_555 1_555
H3 C3 1_555 1_555
C4 C3 1_555 1_555
C5 C4 1_555 1_555
H4 C5 1_555 1_555
C6 C5 1_555 1_555
H5 C6 1_555 1_555
C7 C6 1_555 1_555
H6 C7 1_555 1_555
C8 C7 1_555 1_555
H7 C8 1_555 1_555
C9 N1 1_555 1_555
C10 C11 1_555 1_555
C11 H8 1_555 1_555
C12 C11 1_555 1_555
H9 C12 1_555 1_555
C13 C12 1_555 1_555
H10 C13 1_555 1_555
C14 C13 1_555 1_555
H11 C14 1_555 1_555
C15 C10 1_555 1_555
H12 C15 1_555 1_555
C4 C9 1_555 1_555
C8 C9 1_555 1_555
C14 C15 1_555 1_555

#END
