
#######################################################################
#
#                 Cambridge Crystallographic Data Centre
#                                CCDC 
#
#######################################################################
#
# If this CIF has been generated from an entry in the Cambridge 
# Structural Database, then it will include bibliographic, chemical, 
# crystal, experimental, refinement or atomic coordinate data resulting 
# from the CCDC's data processing and validation procedures.
#
#######################################################################

data_MIZXIE
_chemical_formula_moiety         'C15 H18 O4'
_chemical_name_systematic        
1,12-Dihydroxy-8,9,11-trimethyltricyclo[6.2.2.0^4,9^]dodeca-3,5-diene-2,7-dione
_symmetry_cell_setting           monoclinic
_symmetry_space_group_name_H-M   'P 21'
_symmetry_Int_Tables_number      4
_space_group_name_Hall           'P 2yb'
loop_
_symmetry_equiv_pos_site_id
_symmetry_equiv_pos_as_xyz
1 x,y,z
2 -x,1/2+y,-z
_cell_length_a                   7.618(5)
_cell_length_b                   8.981(5)
_cell_length_c                   18.678(12)
_cell_angle_alpha                90
_cell_angle_beta                 93.644(10)
_cell_angle_gamma                90
_cell_volume                     1275.31
_exptl_crystal_colour            colorless
_exptl_crystal_description       Prism
_cell_formula_units_Z            4
loop_
_atom_site_label
_atom_site_type_symbol
_atom_site_fract_x
_atom_site_fract_y
_atom_site_fract_z
O1 O -0.3316(2) 2.0068(2) 0.01065(9)
O2 O -0.3484(3) 1.3084(2) 0.17617(10)
O3 O -0.2030(2) 1.5003(2) 0.27093(8)
H1 H -0.263(5) 1.409(5) 0.2739(18)
O4 O -0.54833(17) 1.87609(18) 0.14250(7)
H2 H -0.513(4) 1.932(4) 0.1834(16)
C1 C -0.2645(3) 1.6235(3) -0.02246(11)
H3 H -0.2677 1.5563 -0.0604
C2 C -0.3063(3) 1.7656(3) -0.03360(11)
H4 H -0.3421 1.7959 -0.0799
C3 C -0.2982(3) 1.8769(3) 0.02412(10)
C4 C -0.2534(2) 1.8236(2) 0.10146(9)
C5 C -0.1211(2) 1.6911(2) 0.09830(10)
C6 C -0.0796(2) 1.6258(3) 0.17258(11)
H5 H 0.0131 1.5522 0.1705
H6 H -0.0385 1.7040 0.2053
C7 C -0.2411(2) 1.5542(2) 0.19970(10)
C8 C -0.2887(3) 1.4214(2) 0.15137(11)
C9 C -0.2710(3) 1.4448(3) 0.07495(12)
H7 H -0.2999 1.3683 0.0428
C10 C -0.2136(3) 1.5751(3) 0.05052(11)
C11 C -0.3933(2) 1.6687(2) 0.20057(9)
H8 H -0.3605 1.7396 0.2390
C12 C -0.4255(2) 1.7614(2) 0.13145(9)
H9 H -0.4796 1.6948 0.0948
C13 C -0.5651(3) 1.5966(3) 0.22016(12)
H10 H -0.6498 1.6728 0.2287
H11 H -0.5442 1.5377 0.2627
H12 H -0.6094 1.5341 0.1814
C14 C -0.1809(3) 1.9551(3) 0.14580(11)
H13 H -0.2659 2.0341 0.1441
H14 H -0.0743 1.9897 0.1266
H15 H -0.1568 1.9243 0.1947
C15 C 0.0510(3) 1.7376(3) 0.06670(14)
H16 H 0.1161 1.6504 0.0549
H17 H 0.1196 1.7961 0.1012
H18 H 0.0254 1.7955 0.0241
O5 O 0.5686(2) 0.7475(2) 0.40173(10)
O6 O -0.18688(18) 1.1934(2) 0.31405(8)
O7 O 0.08663(19) 1.36355(17) 0.36172(8)
H19 H 0.012(4) 1.397(4) 0.3286(16)
O8 O 0.50401(17) 1.00740(18) 0.28131(7)
H20 H 0.565(4) 1.070(4) 0.2899(16)
C16 C 0.1029(3) 0.7441(2) 0.38966(9)
H21 H 0.0090 0.6778 0.3860
C17 C 0.2684(3) 0.6940(2) 0.39037(10)
H22 H 0.2883 0.5924 0.3859
C18 C 0.4207(2) 0.7965(2) 0.39817(9)
C19 C 0.3840(2) 0.9649(2) 0.39905(8)
C20 C 0.2111(2) 0.9920(2) 0.43768(8)
C21 C 0.1632(2) 1.1558(2) 0.43717(9)
H23 H 0.2623 1.2134 0.4571
H24 H 0.0651 1.1718 0.4669
C22 C 0.1136(2) 1.2084(2) 0.36098(9)
C23 C -0.0587(2) 1.1271(2) 0.34051(9)
C24 C -0.0600(2) 0.9675(2) 0.35454(9)
H25 H -0.1531 0.9098 0.3356
C25 C 0.0719(2) 0.9025(2) 0.39459(9)
C26 C 0.2654(2) 1.1728(2) 0.31146(8)
H26 H 0.3597 1.2438 0.3248
C27 C 0.3487(2) 1.0168(2) 0.31960(8)
H27 H 0.2641 0.9465 0.2968
C28 C 0.2111(3) 1.2037(3) 0.23286(10)
H28 H 0.3119 1.1948 0.2048
H29 H 0.1641 1.3026 0.2281
H30 H 0.1233 1.1330 0.2162
C29 C 0.5413(2) 1.0455(3) 0.43628(10)
H31 H 0.6483 1.0065 0.4191
H32 H 0.5412 1.0304 0.4872
H33 H 0.5333 1.1500 0.4259
C30 C 0.2241(3) 0.9372(3) 0.51593(9)
H34 H 0.1088 0.9349 0.5339
H35 H 0.2979 1.0035 0.5447
H36 H 0.2738 0.8389 0.5180
loop_
_geom_bond_atom_site_label_1
_geom_bond_atom_site_label_2
_geom_bond_site_symmetry_1
_geom_bond_site_symmetry_2
O1 C3 1_555 1_555
O2 C8 1_555 1_555
O3 H1 1_555 1_555
O4 H2 1_555 1_555
C1 H3 1_555 1_555
C2 C1 1_555 1_555
H4 C2 1_555 1_555
C3 C2 1_555 1_555
C4 C3 1_555 1_555
C5 C4 1_555 1_555
C6 C5 1_555 1_555
H5 C6 1_555 1_555
H6 C6 1_555 1_555
C7 O3 1_555 1_555
C8 C7 1_555 1_555
C9 C8 1_555 1_555
H7 C9 1_555 1_555
C10 C1 1_555 1_555
C11 C7 1_555 1_555
H8 C11 1_555 1_555
C12 O4 1_555 1_555
H9 C12 1_555 1_555
C13 C11 1_555 1_555
H10 C13 1_555 1_555
H11 C13 1_555 1_555
H12 C13 1_555 1_555
C14 C4 1_555 1_555
H13 C14 1_555 1_555
H14 C14 1_555 1_555
H15 C14 1_555 1_555
C15 C5 1_555 1_555
H16 C15 1_555 1_555
H17 C15 1_555 1_555
H18 C15 1_555 1_555
O5 C18 1_555 1_555
O6 C23 1_555 1_555
O7 H19 1_555 1_555
O8 H20 1_555 1_555
C16 H21 1_555 1_555
C17 C16 1_555 1_555
H22 C17 1_555 1_555
C18 C17 1_555 1_555
C19 C18 1_555 1_555
C20 C19 1_555 1_555
C21 C20 1_555 1_555
H23 C21 1_555 1_555
H24 C21 1_555 1_555
C22 O7 1_555 1_555
C23 C22 1_555 1_555
C24 C23 1_555 1_555
H25 C24 1_555 1_555
C25 C16 1_555 1_555
C26 C22 1_555 1_555
H26 C26 1_555 1_555
C27 O8 1_555 1_555
H27 C27 1_555 1_555
C28 C26 1_555 1_555
H28 C28 1_555 1_555
H29 C28 1_555 1_555
H30 C28 1_555 1_555
C29 C19 1_555 1_555
H31 C29 1_555 1_555
H32 C29 1_555 1_555
H33 C29 1_555 1_555
C30 C20 1_555 1_555
H34 C30 1_555 1_555
H35 C30 1_555 1_555
H36 C30 1_555 1_555
C4 C12 1_555 1_555
C5 C10 1_555 1_555
C6 C7 1_555 1_555
C9 C10 1_555 1_555
C11 C12 1_555 1_555
C19 C27 1_555 1_555
C20 C25 1_555 1_555
C21 C22 1_555 1_555
C24 C25 1_555 1_555
C26 C27 1_555 1_555

#END
