
#######################################################################
#
#                 Cambridge Crystallographic Data Centre
#                                CCDC 
#
#######################################################################
#
# If this CIF has been generated from an entry in the Cambridge 
# Structural Database, then it will include bibliographic, chemical, 
# crystal, experimental, refinement or atomic coordinate data resulting 
# from the CCDC's data processing and validation procedures.
#
#######################################################################

data_MNANDO
_chemical_formula_moiety         'C21 H30 O2'
_chemical_name_systematic        
(+-)-4\a,8\a,14\b-Trimethyl-18-nor-5\a,13\b-androst-9(11)-en-3,17-dione
_symmetry_cell_setting           monoclinic
_symmetry_space_group_name_H-M   'C 2/c'
_symmetry_Int_Tables_number      15
_space_group_name_Hall           '-C 2yn'
loop_
_symmetry_equiv_pos_site_id
_symmetry_equiv_pos_as_xyz
1 x,y,z
2 1/2+x,1/2+y,z
3 -x,y,1/2-z
4 1/2-x,1/2+y,1/2-z
5 -x,-y,-z
6 1/2-x,1/2-y,-z
7 x,-y,1/2+z
8 1/2+x,1/2-y,1/2+z
_cell_length_a                   19.562(6)
_cell_length_b                   11.915(4)
_cell_length_c                   15.623(4)
_cell_angle_alpha                90
_cell_angle_beta                 107.84(4)
_cell_angle_gamma                90
_cell_volume                     3466.33
_cell_formula_units_Z            8
loop_
_atom_site_label
_atom_site_type_symbol
_atom_site_fract_x
_atom_site_fract_y
_atom_site_fract_z
C1 C 0.12410 0.35480 0.14870
C2 C 0.17470 0.45580 0.17480
C3 C 0.26320 0.33850 0.12720
C4 C 0.32820 0.31420 0.09820
C5 C 0.37940 0.41320 0.10780
C6 C 0.36130 0.52120 0.15150
C7 C 0.40420 0.61290 0.11890
C8 C 0.41780 0.57010 0.03370
C9 C 0.39520 0.44980 0.02510
C10 C 0.20250 0.46560 0.27850
C11 C 0.05500 0.36930 0.17430
C12 C 0.01740 0.47750 0.14240
C13 C 0.02140 0.68360 0.11280
C14 C 0.25020 0.56050 0.01570
C15 C 0.38850 0.51010 0.25370
C16 C 0.06390 0.58100 0.15860
C17 C 0.13250 0.56100 0.13070
C18 C 0.17890 0.66750 0.14530
C19 C 0.25950 0.64660 0.16410
C20 C 0.27750 0.54190 0.11820
C21 C 0.23940 0.43910 0.13970
H1 H 0.11100 0.34500 0.07600
H2 H 0.27900 0.71800 0.13400
H3 H 0.23700 0.27000 0.13800
H4 H 0.31000 0.28900 0.02500
H5 H 0.36300 0.24200 0.14700
H6 H 0.43300 0.38700 0.15000
H7 H 0.37300 0.69400 0.10300
H8 H 0.45400 0.62700 0.16900
H9 H 0.38400 0.61200 -0.03200
H10 H 0.47100 0.57900 0.03800
H11 H -0.02800 0.69300 0.13100
H12 H 0.15200 0.28000 0.18400
H13 H 0.01300 0.67600 0.03700
H14 H 0.05300 0.76300 0.14300
H15 H 0.23100 0.53700 0.30100
H16 H 0.15900 0.47000 0.31200
H17 H 0.24100 0.39100 0.31000
H18 H 0.19200 0.57300 -0.00400
H19 H 0.27800 0.63700 -0.00100
H20 H 0.26000 0.48400 -0.02100
H21 H 0.44200 0.47500 0.27500
H22 H 0.35700 0.44300 0.28100
H23 H 0.01800 0.30400 0.13900
H24 H 0.38900 0.58600 0.28900
H25 H 0.07000 0.36600 0.25000
H26 H 0.08100 0.59600 0.23200
H27 H 0.11200 0.54500 0.05500
H28 H 0.15900 0.72600 0.08800
H29 H 0.16800 0.71000 0.20500
H30 H 0.28300 0.63800 0.23500
O1 O 0.39040 0.39180 -0.03990
O2 O -0.04740 0.48220 0.10850
loop_
_geom_bond_atom_site_label_1
_geom_bond_atom_site_label_2
_geom_bond_site_symmetry_1
_geom_bond_site_symmetry_2
C1 C2 1_555 1_555
C2 C10 1_555 1_555
C3 C4 1_555 1_555
C4 C5 1_555 1_555
C5 C6 1_555 1_555
C6 C7 1_555 1_555
C7 C8 1_555 1_555
C8 C9 1_555 1_555
C9 C5 1_555 1_555
C10 H15 1_555 1_555
C11 C1 1_555 1_555
C12 C11 1_555 1_555
C13 C16 1_555 1_555
C14 C20 1_555 1_555
C15 C6 1_555 1_555
C16 C12 1_555 1_555
C17 C2 1_555 1_555
C18 C17 1_555 1_555
C19 C18 1_555 1_555
C20 C6 1_555 1_555
C21 C2 1_555 1_555
H1 C1 1_555 1_555
H2 C19 1_555 1_555
H3 C3 1_555 1_555
H4 C4 1_555 1_555
H5 C4 1_555 1_555
H6 C5 1_555 1_555
H7 C7 1_555 1_555
H8 C7 1_555 1_555
H9 C8 1_555 1_555
H10 C8 1_555 1_555
H11 C13 1_555 1_555
H12 C1 1_555 1_555
H13 C13 1_555 1_555
H14 C13 1_555 1_555
H16 C10 1_555 1_555
H17 C10 1_555 1_555
H18 C14 1_555 1_555
H19 C14 1_555 1_555
H20 C14 1_555 1_555
H21 C15 1_555 1_555
H22 C15 1_555 1_555
H23 C11 1_555 1_555
H24 C15 1_555 1_555
H25 C11 1_555 1_555
H26 C16 1_555 1_555
H27 C17 1_555 1_555
H28 C18 1_555 1_555
H29 C18 1_555 1_555
H30 C19 1_555 1_555
O1 C9 1_555 1_555
O2 C12 1_555 1_555
C3 C21 1_555 1_555
C16 C17 1_555 1_555
C19 C20 1_555 1_555
C20 C21 1_555 1_555

#END
