
#######################################################################
#
#                 Cambridge Crystallographic Data Centre
#                                CCDC 
#
#######################################################################
#
# If this CIF has been generated from an entry in the Cambridge 
# Structural Database, then it will include bibliographic, chemical, 
# crystal, experimental, refinement or atomic coordinate data resulting 
# from the CCDC's data processing and validation procedures.
#
#######################################################################

data_MNBZAC01
_chemical_formula_moiety         'C7 H5 N1 O4'
_chemical_name_systematic        'm-Nitrobenzoic acid'
_symmetry_cell_setting           monoclinic
_symmetry_space_group_name_H-M   'P 21/n'
_symmetry_Int_Tables_number      14
_space_group_name_Hall           '-P 2yn'
loop_
_symmetry_equiv_pos_site_id
_symmetry_equiv_pos_as_xyz
1 x,y,z
2 1/2-x,1/2+y,1/2-z
3 -x,-y,-z
4 1/2+x,1/2-y,1/2+z
_cell_length_a                   7.78(1)
_cell_length_b                   11.15(1)
_cell_length_c                   17.15(1)
_cell_angle_alpha                90
_cell_angle_beta                 93.4(3)
_cell_angle_gamma                90
_cell_volume                     1485.09
_cell_formula_units_Z            8
loop_
_atom_site_label
_atom_site_type_symbol
_atom_site_fract_x
_atom_site_fract_y
_atom_site_fract_z
C1 C -0.47550 0.24860 0.44910
C3 C -0.52080 0.13480 0.42160
C5 C -0.67310 0.08710 0.44280
C7 C -0.78200 0.14610 0.49110
C9 C -0.73410 0.25890 0.51840
C11 C -0.58320 0.31220 0.49740
C13 C -0.31090 0.30230 0.42610
H1 H -0.45000 0.10000 0.38600
H3 H -0.88200 0.10800 0.49900
H5 H -0.81000 0.29200 0.55600
H7 H -0.55000 0.38700 0.51500
N1 N -0.72180 -0.03270 0.41330
O1 O -0.27520 0.40820 0.44600
O3 O -0.21300 0.23720 0.38860
O5 O -0.62530 -0.08600 0.37390
O7 O -0.85920 -0.07460 0.42970
C2 C 0.26050 0.48460 0.32400
C4 C 0.36500 0.40820 0.28530
C6 C 0.51490 0.45200 0.25800
C8 C 0.56420 0.56960 0.26820
C10 C 0.45780 0.64680 0.30590
C12 C 0.30430 0.60520 0.33390
C14 C 0.10090 0.43680 0.35460
H2 H 0.34500 0.33900 0.28200
H4 H 0.67600 0.58000 0.25100
H6 H 0.47500 0.72500 0.31000
H8 H 0.24200 0.64700 0.35600
N2 N 0.62920 0.37130 0.21800
O2 O 0.00780 0.50390 0.39500
O4 O 0.06360 0.32850 0.34080
O6 O 0.58630 0.26570 0.21160
O8 O 0.76090 0.41110 0.19480
loop_
_geom_bond_atom_site_label_1
_geom_bond_atom_site_label_2
_geom_bond_site_symmetry_1
_geom_bond_site_symmetry_2
C1 C3 1_555 1_555
C2 C4 1_555 1_555
C3 C5 1_555 1_555
C4 C6 1_555 1_555
C5 C7 1_555 1_555
C6 C8 1_555 1_555
C7 C9 1_555 1_555
C8 C10 1_555 1_555
C9 C11 1_555 1_555
C10 C12 1_555 1_555
C11 C1 1_555 1_555
C12 C2 1_555 1_555
C13 C1 1_555 1_555
C14 C2 1_555 1_555
H1 C3 1_555 1_555
H2 C4 1_555 1_555
H3 C7 1_555 1_555
H4 C8 1_555 1_555
H5 C9 1_555 1_555
H6 C10 1_555 1_555
H7 C11 1_555 1_555
H8 C12 1_555 1_555
N1 C5 1_555 1_555
N2 C6 1_555 1_555
O1 C13 1_555 1_555
O2 C14 1_555 1_555
O3 C13 1_555 1_555
O4 C14 1_555 1_555
O5 N1 1_555 1_555
O6 N2 1_555 1_555
O7 N1 1_555 1_555
O8 N2 1_555 1_555

#END
