
#######################################################################
#
#                 Cambridge Crystallographic Data Centre
#                                CCDC 
#
#######################################################################
#
# If this CIF has been generated from an entry in the Cambridge 
# Structural Database, then it will include bibliographic, chemical, 
# crystal, experimental, refinement or atomic coordinate data resulting 
# from the CCDC's data processing and validation procedures.
#
#######################################################################

data_MNPHOL10
_chemical_formula_moiety         'C6 H5 N1 O3'
_chemical_name_systematic        m-Nitrophenol
_symmetry_cell_setting           monoclinic
_symmetry_space_group_name_H-M   'P 21/n'
_symmetry_Int_Tables_number      14
_space_group_name_Hall           '-P 2yn'
loop_
_symmetry_equiv_pos_site_id
_symmetry_equiv_pos_as_xyz
1 x,y,z
2 1/2-x,1/2+y,1/2-z
3 -x,-y,-z
4 1/2+x,1/2-y,1/2+z
_cell_length_a                   11.240(4)
_cell_length_b                   6.891(2)
_cell_length_c                   8.154(3)
_cell_angle_alpha                90
_cell_angle_beta                 98.05(3)
_cell_angle_gamma                90
_cell_volume                     625.343
_cell_formula_units_Z            4
_exptl_crystal_recrystallization_method benzene
loop_
_atom_site_label
_atom_site_type_symbol
_atom_site_fract_x
_atom_site_fract_y
_atom_site_fract_z
C1 C 0.14840 -0.11660 -0.12400
C2 C 0.18930 -0.08220 -0.27390
C3 C 0.12400 -0.15700 -0.41510
C4 C 0.02120 -0.26410 -0.41490
C5 C -0.01700 -0.29860 -0.26330
C6 C 0.04600 -0.22520 -0.11930
H1 H 0.18600 -0.07700 0.08600
H2 H 0.25800 -0.01200 -0.27700
H3 H -0.02200 -0.31300 -0.51600
H4 H -0.08700 -0.37300 -0.26200
H5 H 0.02000 -0.25000 -0.01600
N1 N 0.16800 -0.11950 -0.57410
O1 O 0.21410 -0.03930 0.01350
O2 O 0.10910 -0.18480 -0.70030
O3 O 0.25840 -0.02520 -0.57500
loop_
_geom_bond_atom_site_label_1
_geom_bond_atom_site_label_2
_geom_bond_site_symmetry_1
_geom_bond_site_symmetry_2
C1 C2 1_555 1_555
C2 C3 1_555 1_555
C3 C4 1_555 1_555
C4 C5 1_555 1_555
C5 C6 1_555 1_555
C6 C1 1_555 1_555
H1 O1 1_555 1_555
H2 C2 1_555 1_555
H3 C4 1_555 1_555
H4 C5 1_555 1_555
H5 C6 1_555 1_555
N1 C3 1_555 1_555
O1 C1 1_555 1_555
O2 N1 1_555 1_555
O3 N1 1_555 1_555

#END
