
#######################################################################
#
#                 Cambridge Crystallographic Data Centre
#                                CCDC 
#
#######################################################################
#
# If this CIF has been generated from an entry in the Cambridge 
# Structural Database, then it will include bibliographic, chemical, 
# crystal, experimental, refinement or atomic coordinate data resulting 
# from the CCDC's data processing and validation procedures.
#
#######################################################################

data_MOBPEY
_chemical_formula_moiety         'C10 H18 N2 O2'
_chemical_name_systematic        1,1-bis(Morpholino)ethene
_symmetry_cell_setting           orthorhombic
_symmetry_space_group_name_H-M   'P b c a'
_symmetry_Int_Tables_number      61
_space_group_name_Hall           '-P 2ac 2ab'
loop_
_symmetry_equiv_pos_site_id
_symmetry_equiv_pos_as_xyz
1 x,y,z
2 1/2-x,1/2+y,z
3 x,1/2-y,1/2+z
4 1/2+x,y,1/2-z
5 -x,-y,-z
6 1/2+x,1/2-y,-z
7 -x,1/2+y,1/2-z
8 1/2-x,-y,1/2+z
_cell_length_a                   7.822(1)
_cell_length_b                   12.941(2)
_cell_length_c                   21.172(3)
_cell_angle_alpha                90
_cell_angle_beta                 90
_cell_angle_gamma                90
_cell_volume                     2143.13
_exptl_crystal_colour            yellow
_exptl_crystal_description       tablets
_cell_formula_units_Z            8
loop_
_atom_site_label
_atom_site_type_symbol
_atom_site_fract_x
_atom_site_fract_y
_atom_site_fract_z
O1 O 0.1393(2) 0.3088(1) 0.05660(8)
O2 O 0.8494(3) -0.0601(2) 0.10349(10)
N1 N 0.3884(3) 0.2047(2) 0.13121(10)
N2 N 0.5746(3) 0.0655(2) 0.14602(10)
C1 C 0.4750(3) 0.1430(2) 0.1754(1)
C2 C 0.4665(4) 0.1559(2) 0.2378(1)
C3 C 0.2998(3) 0.2956(2) 0.1548(1)
C4 C 0.2455(4) 0.3627(2) 0.1002(1)
C5 C 0.2291(4) 0.2215(2) 0.0329(1)
C6 C 0.2814(4) 0.1493(2) 0.0853(1)
C7 C 0.6479(4) -0.0146(2) 0.1860(1)
C8 C 0.7234(4) -0.0991(2) 0.1458(2)
C9 C 0.7743(4) 0.0157(2) 0.0639(2)
C10 C 0.7033(4) 0.1042(2) 0.1011(1)
H1 H 0.5296 0.1117 0.2650
H2 H 0.3975 0.2092 0.2551
H3 H 0.2017 0.2747 0.1780
H4 H 0.3741 0.3336 0.1816
H5 H 0.3447 0.3862 0.0787
H6 H 0.1841 0.4204 0.1163
H7 H 0.1573 0.1853 0.0043
H8 H 0.3286 0.2445 0.0114
H9 H 0.3443 0.0932 0.0681
H10 H 0.1822 0.1237 0.1059
H11 H 0.7351 0.0146 0.2116
H12 H 0.5611 -0.0428 0.2122
H13 H 0.6345 -0.1306 0.1220
H14 H 0.7747 -0.1492 0.1726
H15 H 0.8588 0.0412 0.0356
H16 H 0.6843 -0.0153 0.0404
H17 H 0.6515 0.1524 0.0732
H18 H 0.7931 0.1371 0.1236
loop_
_geom_bond_atom_site_label_1
_geom_bond_atom_site_label_2
_geom_bond_site_symmetry_1
_geom_bond_site_symmetry_2
O1 C4 1_555 1_555
O2 C8 1_555 1_555
N1 C1 1_555 1_555
N2 C1 1_555 1_555
C1 C2 1_555 1_555
C2 H1 1_555 1_555
C3 N1 1_555 1_555
C4 C3 1_555 1_555
C5 O1 1_555 1_555
C6 N1 1_555 1_555
C7 N2 1_555 1_555
C8 C7 1_555 1_555
C9 O2 1_555 1_555
C10 N2 1_555 1_555
H2 C2 1_555 1_555
H3 C3 1_555 1_555
H4 C3 1_555 1_555
H5 C4 1_555 1_555
H6 C4 1_555 1_555
H7 C5 1_555 1_555
H8 C5 1_555 1_555
H9 C6 1_555 1_555
H10 C6 1_555 1_555
H11 C7 1_555 1_555
H12 C7 1_555 1_555
H13 C8 1_555 1_555
H14 C8 1_555 1_555
H15 C9 1_555 1_555
H16 C9 1_555 1_555
H17 C10 1_555 1_555
H18 C10 1_555 1_555
C5 C6 1_555 1_555
C9 C10 1_555 1_555

#END
