
#######################################################################
#
#                 Cambridge Crystallographic Data Centre
#                                CCDC 
#
#######################################################################
#
# If this CIF has been generated from an entry in the Cambridge 
# Structural Database, then it will include bibliographic, chemical, 
# crystal, experimental, refinement or atomic coordinate data resulting 
# from the CCDC's data processing and validation procedures.
#
#######################################################################

data_MOBQAX
_chemical_formula_moiety         'C32 H40 N2'
_chemical_name_systematic        
N-Cyclohexyl-N-phenyl-2-(3,3a,5,6,7,8-hexahydro-4aH-spiro[benzo[1,4]cyclobuta[1,2-b]pyrrole-4,1'-cyclopentan]-2-yl)aniline
_symmetry_cell_setting           monoclinic
_symmetry_space_group_name_H-M   'P 21/n'
_symmetry_Int_Tables_number      14
_space_group_name_Hall           '-P 2yn'
loop_
_symmetry_equiv_pos_site_id
_symmetry_equiv_pos_as_xyz
1 x,y,z
2 1/2-x,1/2+y,1/2-z
3 -x,-y,-z
4 1/2+x,1/2-y,1/2+z
_cell_length_a                   14.099(3)
_cell_length_b                   9.5380(19)
_cell_length_c                   19.487(4)
_cell_angle_alpha                90
_cell_angle_beta                 110.00(3)
_cell_angle_gamma                90
_cell_volume                     2462.5
_cell_formula_units_Z            4
loop_
_atom_site_label
_atom_site_type_symbol
_atom_site_fract_x
_atom_site_fract_y
_atom_site_fract_z
N1 N 1.0922(2) 0.2786(3) 0.19232(17)
N2 N 0.8536(2) 0.5631(3) 0.18216(16)
C1 C 1.1953(3) 0.4788(4) 0.1229(2)
C2 C 1.2332(3) 0.5617(4) 0.0703(2)
H1 H 1.3079 0.5641 0.0877
H2 H 1.2083 0.5199 0.0208
C3 C 1.1900(3) 0.7082(4) 0.0698(2)
H3 H 1.1217 0.7152 0.0325
H4 H 1.2341 0.7794 0.0591
C4 C 1.1854(3) 0.7301(4) 0.1473(2)
H5 H 1.1168 0.7591 0.1447
H6 H 1.2343 0.8026 0.1740
C5 C 1.2130(3) 0.5855(4) 0.1851(2)
H7 H 1.2844 0.5841 0.2178
H8 H 1.1695 0.5642 0.2143
C6 C 1.2342(3) 0.3263(4) 0.1454(2)
H9 H 1.2737 0.3190 0.1988
C7 C 1.1232(3) 0.2769(4) 0.1272(2)
C8 C 1.0918(3) 0.1354(4) 0.0898(2)
H10 H 1.1036 0.0619 0.1277
H11 H 1.0185 0.1376 0.0618
C9 C 1.1474(3) 0.0964(4) 0.0389(2)
H12 H 1.1275 0.1601 -0.0038
H13 H 1.1298 -0.0006 0.0210
C10 C 1.2600(3) 0.1072(4) 0.0792(2)
H14 H 1.2785 0.0507 0.1244
H15 H 1.2968 0.0692 0.0482
C11 C 1.2903(3) 0.2583(4) 0.0981(2)
H16 H 1.2760 0.3128 0.0525
H17 H 1.3639 0.2626 0.1249
C12 C 1.0850(3) 0.4174(4) 0.0888(2)
H18 H 1.0602 0.4114 0.0343
C13 C 1.0049(3) 0.4694(4) 0.1200(2)
H19 H 1.0134 0.5703 0.1325
H20 H 0.9356 0.4526 0.0857
C14 C 1.0287(3) 0.3785(4) 0.1879(2)
C15 C 0.9904(3) 0.3975(4) 0.2496(2)
C16 C 0.9102(3) 0.4874(4) 0.2480(2)
C17 C 0.8838(3) 0.5044(4) 0.3103(2)
H21 H 0.8289 0.5638 0.3084
C18 C 0.9360(3) 0.4365(4) 0.3744(2)
H22 H 0.9190 0.4512 0.4170
C19 C 1.0135(3) 0.3466(4) 0.3759(2)
H23 H 1.0490 0.2975 0.4196
C20 C 1.0397(3) 0.3277(4) 0.3150(2)
H24 H 1.0932 0.2651 0.3174
C21 C 0.7550(3) 0.5060(4) 0.1379(2)
H25 H 0.7377 0.5497 0.0885
C22 C 0.6671(3) 0.5413(4) 0.1653(2)
H26 H 0.6773 0.4924 0.2121
H27 H 0.6660 0.6434 0.1740
C23 C 0.5670(3) 0.4963(4) 0.1093(2)
H28 H 0.5550 0.5495 0.0635
H29 H 0.5115 0.5180 0.1279
C24 C 0.5674(3) 0.3393(4) 0.0937(2)
H30 H 0.5709 0.2862 0.1382
H31 H 0.5037 0.3138 0.0546
C25 C 0.6564(3) 0.2987(4) 0.0704(2)
H32 H 0.6478 0.3411 0.0223
H33 H 0.6579 0.1955 0.0652
C26 C 0.7569(3) 0.3483(4) 0.1265(2)
H34 H 0.7687 0.2995 0.1735
H35 H 0.8131 0.3244 0.1089
C27 C 0.8725(3) 0.7069(4) 0.1808(2)
C28 C 0.9649(3) 0.7619(4) 0.2268(2)
H36 H 1.0127 0.7016 0.2599
C29 C 0.9869(3) 0.9012(4) 0.2246(2)
H37 H 1.0499 0.9359 0.2562
C30 C 0.9193(3) 0.9930(4) 0.1773(2)
H38 H 0.9349 1.0897 0.1763
C31 C 0.8284(3) 0.9392(4) 0.1317(2)
H39 H 0.7813 1.0002 0.0986
C32 C 0.8046(3) 0.7995(4) 0.1331(2)
H40 H 0.7414 0.7658 0.1013
loop_
_geom_bond_atom_site_label_1
_geom_bond_atom_site_label_2
_geom_bond_site_symmetry_1
_geom_bond_site_symmetry_2
N1 C7 1_555 1_555
N2 C16 1_555 1_555
C1 C2 1_555 1_555
C2 H1 1_555 1_555
H2 C2 1_555 1_555
C3 C2 1_555 1_555
H3 C3 1_555 1_555
H4 C3 1_555 1_555
C4 C3 1_555 1_555
H5 C4 1_555 1_555
H6 C4 1_555 1_555
C5 C1 1_555 1_555
H7 C5 1_555 1_555
H8 C5 1_555 1_555
C6 C1 1_555 1_555
H9 C6 1_555 1_555
C7 C6 1_555 1_555
C8 C7 1_555 1_555
H10 C8 1_555 1_555
H11 C8 1_555 1_555
C9 C8 1_555 1_555
H12 C9 1_555 1_555
H13 C9 1_555 1_555
C10 C9 1_555 1_555
H14 C10 1_555 1_555
H15 C10 1_555 1_555
C11 C6 1_555 1_555
H16 C11 1_555 1_555
H17 C11 1_555 1_555
C12 C1 1_555 1_555
H18 C12 1_555 1_555
C13 C12 1_555 1_555
H19 C13 1_555 1_555
H20 C13 1_555 1_555
C14 N1 1_555 1_555
C15 C14 1_555 1_555
C16 C15 1_555 1_555
C17 C16 1_555 1_555
H21 C17 1_555 1_555
C18 C17 1_555 1_555
H22 C18 1_555 1_555
C19 C18 1_555 1_555
H23 C19 1_555 1_555
C20 C15 1_555 1_555
H24 C20 1_555 1_555
C21 N2 1_555 1_555
H25 C21 1_555 1_555
C22 C21 1_555 1_555
H26 C22 1_555 1_555
H27 C22 1_555 1_555
C23 C22 1_555 1_555
H28 C23 1_555 1_555
H29 C23 1_555 1_555
C24 C23 1_555 1_555
H30 C24 1_555 1_555
H31 C24 1_555 1_555
C25 C24 1_555 1_555
H32 C25 1_555 1_555
H33 C25 1_555 1_555
C26 C21 1_555 1_555
H34 C26 1_555 1_555
H35 C26 1_555 1_555
C27 N2 1_555 1_555
C28 C27 1_555 1_555
H36 C28 1_555 1_555
C29 C28 1_555 1_555
H37 C29 1_555 1_555
C30 C29 1_555 1_555
H38 C30 1_555 1_555
C31 C30 1_555 1_555
H39 C31 1_555 1_555
C32 C27 1_555 1_555
H40 C32 1_555 1_555
C4 C5 1_555 1_555
C7 C12 1_555 1_555
C10 C11 1_555 1_555
C13 C14 1_555 1_555
C19 C20 1_555 1_555
C25 C26 1_555 1_555
C31 C32 1_555 1_555

#END
