
#######################################################################
#
#                 Cambridge Crystallographic Data Centre
#                                CCDC 
#
#######################################################################
#
# If this CIF has been generated from an entry in the Cambridge 
# Structural Database, then it will include bibliographic, chemical, 
# crystal, experimental, refinement or atomic coordinate data resulting 
# from the CCDC's data processing and validation procedures.
#
#######################################################################

data_MOCKIZ
_chemical_formula_moiety         'C16 H10 N2 O9,4(C4 H9 N1 O1)'
_chemical_name_systematic        
"Azoxybenzene-3,3',5,5'-tetracarboxylic acid dimethylacetamide solvate"
_symmetry_cell_setting           triclinic
_symmetry_space_group_name_H-M   'P -1'
_symmetry_Int_Tables_number      2
_space_group_name_Hall           '-P 1'
loop_
_symmetry_equiv_pos_site_id
_symmetry_equiv_pos_as_xyz
1 x,y,z
2 -x,-y,-z
_cell_length_a                   6.289(3)
_cell_length_b                   8.009(3)
_cell_length_c                   18.625(7)
_cell_angle_alpha                78.018(8)
_cell_angle_beta                 88.648(9)
_cell_angle_gamma                89.537(8)
_cell_volume                     917.416
_cell_formula_units_Z            1
loop_
_atom_site_label
_atom_site_type_symbol
_atom_site_fract_x
_atom_site_fract_y
_atom_site_fract_z
N1 N 0.7212(10) -0.2084(8) 0.1313(3)
O4 O 0.4133(8) -0.0666(7) 0.1138(3)
C9 C 0.5378(11) -0.1541(10) 0.1567(4)
C10 C 0.7660(14) -0.1626(12) 0.0506(4)
H6 H 0.6522 -0.0931 0.0270
H7 H 0.7775 -0.2648 0.0315
H8 H 0.8971 -0.1004 0.0414
C11 C 0.8738(11) -0.3140(10) 0.1753(4)
H9 H 0.8248 -0.3386 0.2256
H10 H 1.0075 -0.2555 0.1715
H11 H 0.8913 -0.4187 0.1584
C12 C 0.4873(12) -0.2065(11) 0.2366(4)
H12 H 0.3513 -0.1606 0.2471
H13 H 0.5946 -0.1639 0.2638
H14 H 0.4833 -0.3288 0.2504
O6 O 0.1933(9) 0.2483(10) 0.4724(3)
N3 N -0.0886(11) 0.2611(10) 0.5464(4)
C13 C -0.0086(18) 0.2374(13) 0.4850(5)
C14 C -0.3107(16) 0.2546(18) 0.5695(6)
H15 H -0.3962 0.2298 0.5310
H16 H -0.3527 0.3627 0.5799
H17 H -0.3303 0.1669 0.6128
C15 C 0.0529(17) 0.2960(15) 0.6035(5)
H18 H 0.1976 0.3005 0.5856
H19 H 0.0385 0.2069 0.6466
H20 H 0.0146 0.4035 0.6155
C16 C -0.1491(15) 0.1959(16) 0.4284(5)
H21 H -0.0657 0.1879 0.3854
H22 H -0.2543 0.2840 0.4160
H23 H -0.2182 0.0888 0.4473
O1 O 0.0781(8) 0.1130(6) 0.1209(3)
H1 H 0.1801 0.0479 0.1291
O2 O 0.0316(8) 0.0339(7) 0.2411(3)
C1 C -0.2250(11) 0.2174(9) 0.1728(4)
C2 C -0.3502(10) 0.2198(9) 0.2338(4)
H2 H -0.3093 0.1602 0.2797
C3 C -0.5420(11) 0.3139(9) 0.2261(4)
C4 C -0.5962(11) 0.4037(9) 0.1577(4)
H3 H -0.7181 0.4713 0.1529
O3 O -0.6187(8) 0.2244(9) 0.3521(3)
H4 H -0.6899 0.2435 0.3870
C5 C -0.4771(11) 0.3961(9) 0.0973(4)
N2 N -0.5583(11) 0.4937(8) 0.0284(3)
O5 O -0.8344(9) 0.4191(8) 0.2880(3)
C6 C -0.0265(11) 0.1126(9) 0.1814(4)
C7 C -0.2865(12) 0.3021(10) 0.1033(4)
H5 H -0.2033 0.2965 0.0619
C8 C -0.6779(11) 0.3269(11) 0.2921(4)
O7 O -0.7667(18) 0.5485(19) 0.0397(6)
O1A O -1.0781(8) 0.8870(6) -0.1209(3)
H1A H -1.1801 0.9521 -0.1291
O2A O -1.0316(8) 0.9661(7) -0.2411(3)
C1A C -0.7750(11) 0.7826(9) -0.1728(4)
C2A C -0.6498(10) 0.7802(9) -0.2338(4)
H2A H -0.6907 0.8398 -0.2797
C3A C -0.4580(11) 0.6861(9) -0.2261(4)
C4A C -0.4038(11) 0.5963(9) -0.1577(4)
H3A H -0.2819 0.5287 -0.1529
O3A O -0.3813(8) 0.7756(9) -0.3521(3)
H4A H -0.3101 0.7565 -0.3870
C5A C -0.5229(11) 0.6039(9) -0.0973(4)
N2A N -0.4417(11) 0.5063(8) -0.0284(3)
O5A O -0.1656(9) 0.5809(8) -0.2880(3)
C6A C -0.9735(11) 0.8874(9) -0.1814(4)
C7A C -0.7135(12) 0.6979(10) -0.1033(4)
H5A H -0.7967 0.7035 -0.0619
C8A C -0.3221(11) 0.6731(11) -0.2921(4)
O7A O -0.2333(18) 0.4515(19) -0.0397(6)
loop_
_geom_bond_atom_site_label_1
_geom_bond_atom_site_label_2
_geom_bond_site_symmetry_1
_geom_bond_site_symmetry_2
O1 H1 1_555 1_555
O2 C6 1_555 1_555
C1 C2 1_555 1_555
C2 H2 1_555 1_555
C3 C2 1_555 1_555
N1 C9 1_555 1_555
C4 C3 1_555 1_555
H3 C4 1_555 1_555
O3 H4 1_555 1_555
O4 C9 1_555 1_555
C5 C4 1_555 1_555
N2 C5 1_555 1_555
O5 C8 1_555 1_555
C6 O1 1_555 1_555
C7 C1 1_555 1_555
H5 C7 1_555 1_555
C8 C3 1_555 1_555
C9 C12 1_555 1_555
C10 N1 1_555 1_555
H6 C10 1_555 1_555
H7 C10 1_555 1_555
H8 C10 1_555 1_555
C11 N1 1_555 1_555
H9 C11 1_555 1_555
H10 C11 1_555 1_555
H11 C11 1_555 1_555
C12 H12 1_555 1_555
H13 C12 1_555 1_555
H14 C12 1_555 1_555
O6 C13 1_555 1_555
N3 C13 1_555 1_555
C13 C16 1_555 1_555
C14 N3 1_555 1_555
H15 C14 1_555 1_555
H16 C14 1_555 1_555
H17 C14 1_555 1_555
C15 N3 1_555 1_555
H18 C15 1_555 1_555
H19 C15 1_555 1_555
H20 C15 1_555 1_555
C16 H21 1_555 1_555
H22 C16 1_555 1_555
H23 C16 1_555 1_555
O7 N2 1_555 1_555
O1A H1A 1_555 1_555
O2A C6A 1_555 1_555
C1A C2A 1_555 1_555
C2A H2A 1_555 1_555
C3A C2A 1_555 1_555
C4A C3A 1_555 1_555
H3A C4A 1_555 1_555
O3A H4A 1_555 1_555
C5A C4A 1_555 1_555
N2A N2 1_555 1_555
O5A C8A 1_555 1_555
C6A O1A 1_555 1_555
C7A C1A 1_555 1_555
H5A C7A 1_555 1_555
C8A C3A 1_555 1_555
O7A N2A 1_555 1_555
C1 C6 1_555 1_555
O3 C8 1_555 1_555
C5 C7 1_555 1_555
C1A C6A 1_555 1_555
O3A C8A 1_555 1_555
C5A N2A 1_555 1_555
C5A C7A 1_555 1_555

#END
