
#######################################################################
#
#                 Cambridge Crystallographic Data Centre
#                                CCDC 
#
#######################################################################
#
# If this CIF has been generated from an entry in the Cambridge 
# Structural Database, then it will include bibliographic, chemical, 
# crystal, experimental, refinement or atomic coordinate data resulting 
# from the CCDC's data processing and validation procedures.
#
#######################################################################

data_MOCLIA
_chemical_formula_moiety         'C19 H25 N1 O4 S1'
_chemical_name_systematic        
N-p-Tosyl-5-aza-9-hydroxy-1-methyltricyclo[7.3.0.0^2,7^]dodecan-12-one
_symmetry_cell_setting           triclinic
_symmetry_space_group_name_H-M   'P -1'
_symmetry_Int_Tables_number      2
_space_group_name_Hall           '-P 1'
loop_
_symmetry_equiv_pos_site_id
_symmetry_equiv_pos_as_xyz
1 x,y,z
2 -x,-y,-z
_cell_length_a                   6.3978(13)
_cell_length_b                   8.4177(17)
_cell_length_c                   17.485(4)
_cell_angle_alpha                83.29(3)
_cell_angle_beta                 84.99(3)
_cell_angle_gamma                70.12(3)
_cell_volume                     878.326
_exptl_crystal_colour            colorless
_exptl_crystal_description       plate
_chemical_melting_point          '428 K'
_cell_formula_units_Z            2
_exptl_crystal_recrystallization_method 'ethyl acetate/petroleum ether'
loop_
_atom_site_label
_atom_site_type_symbol
_atom_site_fract_x
_atom_site_fract_y
_atom_site_fract_z
S1 S 0.70772(10) 0.36840(8) 0.16996(3)
O1 O 0.9270(3) 0.3762(2) 0.15269(10)
O2 O 0.5340(3) 0.5122(2) 0.19589(10)
O3 O 0.4555(3) -0.2633(2) 0.45031(10)
O4 O 1.1729(3) -0.4501(2) 0.41583(10)
H1 H 1.2539 -0.3954 0.4255
N1 N 0.7284(3) 0.2130(3) 0.23766(11)
C1 C 0.4169(6) 0.1558(4) -0.11124(18)
H2 H 0.5485 0.0907 -0.1413
H3 H 0.3291 0.2550 -0.1437
H4 H 0.3262 0.0842 -0.0933
C2 C 0.4894(5) 0.2136(3) -0.04269(15)
C3 C 0.3343(5) 0.3085(3) 0.00903(16)
H5 H 0.1806 0.3408 -0.0001
C4 C 0.3977(4) 0.3576(3) 0.07386(15)
H6 H 0.2887 0.4218 0.1090
C5 C 0.6221(4) 0.3118(3) 0.08659(14)
C6 C 0.7806(4) 0.2198(3) 0.03468(14)
H7 H 0.9345 0.1900 0.0430
C7 C 0.7129(5) 0.1718(3) -0.02930(15)
H8 H 0.8219 0.1089 -0.0648
C8 C 0.5146(4) 0.1948(3) 0.26994(14)
H9 H 0.4549 0.1425 0.2330
H10 H 0.4052 0.3082 0.2778
C9 C 0.5474(4) 0.0846(3) 0.34658(14)
H11 H 0.5938 0.1411 0.3853
H12 H 0.4062 0.0667 0.3659
C10 C 0.7255(4) -0.0842(3) 0.33361(13)
H13 H 0.6729 -0.1356 0.2936
C11 C 0.8030(4) -0.2233(3) 0.40163(13)
C12 C 0.6360(4) -0.3177(3) 0.41698(13)
C13 C 0.7279(4) -0.4858(3) 0.38299(15)
H14 H 0.6136 -0.5056 0.3543
H15 H 0.7793 -0.5800 0.4239
C14 C 0.9219(4) -0.4721(3) 0.32885(15)
H16 H 0.8710 -0.4276 0.2763
H17 H 1.0386 -0.5846 0.3262
C15 C 1.0127(4) -0.3492(3) 0.36254(14)
C16 C 1.1071(4) -0.2403(3) 0.30018(14)
H18 H 1.2574 -0.2454 0.3127
H19 H 1.1167 -0.2813 0.2488
C17 C 0.9434(4) -0.0592(3) 0.30144(13)
H20 H 0.9932 -0.0005 0.3391
C18 C 0.9091(4) 0.0510(3) 0.22545(14)
H21 H 1.0482 0.0732 0.2069
H22 H 0.8684 -0.0075 0.1861
C19 C 0.8428(4) -0.1568(3) 0.47448(14)
H23 H 0.7018 -0.0796 0.4947
H24 H 0.9493 -0.0958 0.4623
H25 H 0.9027 -0.2522 0.5132
loop_
_geom_bond_atom_site_label_1
_geom_bond_atom_site_label_2
_geom_bond_site_symmetry_1
_geom_bond_site_symmetry_2
S1 O1 1_555 1_555
O2 S1 1_555 1_555
O3 C12 1_555 1_555
O4 H1 1_555 1_555
N1 S1 1_555 1_555
C1 H2 1_555 1_555
H3 C1 1_555 1_555
H4 C1 1_555 1_555
C2 C1 1_555 1_555
C3 C2 1_555 1_555
H5 C3 1_555 1_555
C4 C3 1_555 1_555
H6 C4 1_555 1_555
C5 S1 1_555 1_555
C6 C5 1_555 1_555
H7 C6 1_555 1_555
C7 C2 1_555 1_555
H8 C7 1_555 1_555
C8 N1 1_555 1_555
H9 C8 1_555 1_555
H10 C8 1_555 1_555
C9 C8 1_555 1_555
H11 C9 1_555 1_555
H12 C9 1_555 1_555
C10 C9 1_555 1_555
H13 C10 1_555 1_555
C11 C10 1_555 1_555
C12 C11 1_555 1_555
C13 C12 1_555 1_555
H14 C13 1_555 1_555
H15 C13 1_555 1_555
C14 C13 1_555 1_555
H16 C14 1_555 1_555
H17 C14 1_555 1_555
C15 O4 1_555 1_555
C16 C15 1_555 1_555
H18 C16 1_555 1_555
H19 C16 1_555 1_555
C17 C10 1_555 1_555
H20 C17 1_555 1_555
C18 N1 1_555 1_555
H21 C18 1_555 1_555
H22 C18 1_555 1_555
C19 C11 1_555 1_555
H23 C19 1_555 1_555
H24 C19 1_555 1_555
H25 C19 1_555 1_555
C4 C5 1_555 1_555
C6 C7 1_555 1_555
C11 C15 1_555 1_555
C14 C15 1_555 1_555
C16 C17 1_555 1_555
C17 C18 1_555 1_555

#END
