
#######################################################################
#
#                 Cambridge Crystallographic Data Centre
#                                CCDC 
#
#######################################################################
#
# If this CIF has been generated from an entry in the Cambridge 
# Structural Database, then it will include bibliographic, chemical, 
# crystal, experimental, refinement or atomic coordinate data resulting 
# from the CCDC's data processing and validation procedures.
#
#######################################################################

data_MOCXOS
_chemical_compound_source        
'dried leaves and stems of Clausena excavata (Rutaceae)'
_chemical_formula_moiety         'C20 H20 O7'
_chemical_name_systematic        '(R*,R*,S*)-Clauslactone R'
_symmetry_cell_setting           monoclinic
_symmetry_space_group_name_H-M   'P 21'
_symmetry_Int_Tables_number      4
_space_group_name_Hall           'P 2yb'
loop_
_symmetry_equiv_pos_site_id
_symmetry_equiv_pos_as_xyz
1 x,y,z
2 -x,1/2+y,-z
_cell_length_a                   6.825(4)
_cell_length_b                   13.239(7)
_cell_length_c                   9.997(6)
_cell_angle_alpha                90
_cell_angle_beta                 91.418(10)
_cell_angle_gamma                90
_cell_volume                     903.014
_exptl_crystal_colour            colorless
_exptl_crystal_description       prismatic
_chemical_melting_point          '123-125 deg.C'
_cell_formula_units_Z            2
_exptl_crystal_recrystallization_method acetone
loop_
_atom_site_label
_atom_site_type_symbol
_atom_site_fract_x
_atom_site_fract_y
_atom_site_fract_z
O1 O 1.2189(6) 0.2238(3) 0.8847(4)
O2 O 1.4227(7) 0.1261(4) 1.0018(5)
O3 O 0.9070(6) 0.2342(3) 0.7137(4)
O4 O 0.7090(6) 0.4077(3) 0.6794(4)
O5 O 0.5467(6) 0.5762(3) 0.4452(4)
O6 O 0.8239(6) 0.7527(3) 0.7098(4)
O7 O 1.0613(6) 0.7659(3) 0.8670(4)
C1 C 1.3727(9) 0.2126(5) 0.9769(6)
C2 C 1.4655(10) 0.3028(5) 1.0273(7)
H1 H 1.5793 0.2973 1.0800
C3 C 1.3927(10) 0.3936(5) 1.0006(6)
H2 H 1.4543 0.4506 1.0361
C4 C 1.1250(10) 0.4964(5) 0.8901(6)
H3 H 1.1775 0.5559 0.9253
C5 C 0.9537(10) 0.5008(5) 0.8114(6)
H4 H 0.8911 0.5622 0.7955
C6 C 0.8785(9) 0.4124(5) 0.7575(6)
C7 C 0.9735(9) 0.3193(5) 0.7756(6)
C8 C 0.7637(10) 0.1810(5) 0.7879(6)
H5 H 0.8074 0.1754 0.8797
H6 H 0.7455 0.1147 0.7508
H7 H 0.6417 0.2171 0.7833
C9 C 0.5854(9) 0.4960(5) 0.6740(6)
H8 H 0.5851 0.5276 0.7615
H9 H 0.4521 0.4757 0.6512
C10 C 0.6536(11) 0.5712(6) 0.5727(7)
C11 C 0.5433(10) 0.6635(5) 0.5364(6)
C12 C 0.3500(9) 0.6845(5) 0.5948(6)
H10 H 0.2742 0.7265 0.5348
H11 H 0.3687 0.7186 0.6789
H12 H 0.2820 0.6220 0.6086
C13 C 0.6616(9) 0.7531(5) 0.4927(6)
H13 H 0.7762 0.7296 0.4463
H14 H 0.5835 0.7936 0.4306
C14 C 0.7258(11) 0.8173(6) 0.6101(7)
C15 C 0.8743(10) 0.9002(5) 0.5851(6)
H15 H 0.9528 0.8845 0.5082
H16 H 0.8100 0.9647 0.5705
C16 C 0.9970(11) 0.9013(6) 0.7110(7)
C17 C 0.9713(10) 0.8043(5) 0.7747(6)
C18 C 1.1218(10) 0.9712(6) 0.7582(7)
H17 H 1.1969 0.9584 0.8352
H18 H 1.1337 1.0326 0.7139
C19 C 1.2199(9) 0.4048(4) 0.9175(6)
C20 C 1.1369(9) 0.3175(5) 0.8606(6)
H19 H 0.780(7) 0.576(4) 0.564(5)
H20 H 0.608(7) 0.845(4) 0.663(4)
loop_
_geom_bond_atom_site_label_1
_geom_bond_atom_site_label_2
_geom_bond_site_symmetry_1
_geom_bond_site_symmetry_2
O1 C1 1_555 1_555
O2 C1 1_555 1_555
O3 C7 1_555 1_555
O4 C6 1_555 1_555
O5 C10 1_555 1_555
O6 C14 1_555 1_555
O7 C17 1_555 1_555
C1 C2 1_555 1_555
C2 H1 1_555 1_555
C3 C2 1_555 1_555
H2 C3 1_555 1_555
C4 H3 1_555 1_555
C5 C4 1_555 1_555
H4 C5 1_555 1_555
C6 C5 1_555 1_555
C7 C6 1_555 1_555
C8 O3 1_555 1_555
H5 C8 1_555 1_555
H6 C8 1_555 1_555
H7 C8 1_555 1_555
C9 O4 1_555 1_555
H8 C9 1_555 1_555
H9 C9 1_555 1_555
C10 C9 1_555 1_555
C11 O5 1_555 1_555
C12 C11 1_555 1_555
H10 C12 1_555 1_555
H11 C12 1_555 1_555
H12 C12 1_555 1_555
C13 C11 1_555 1_555
H13 C13 1_555 1_555
H14 C13 1_555 1_555
C14 C13 1_555 1_555
C15 C14 1_555 1_555
H15 C15 1_555 1_555
H16 C15 1_555 1_555
C16 C15 1_555 1_555
C17 O6 1_555 1_555
C18 C16 1_555 1_555
H17 C18 1_555 1_555
H18 C18 1_555 1_555
C19 C3 1_555 1_555
C20 O1 1_555 1_555
H19 C10 1_555 1_555
H20 C14 1_555 1_555
C4 C19 1_555 1_555
C7 C20 1_555 1_555
C10 C11 1_555 1_555
C16 C17 1_555 1_555
C19 C20 1_555 1_555

#END
