
#######################################################################
#
#                 Cambridge Crystallographic Data Centre
#                                CCDC 
#
#######################################################################
#
# If this CIF has been generated from an entry in the Cambridge 
# Structural Database, then it will include bibliographic, chemical, 
# crystal, experimental, refinement or atomic coordinate data resulting 
# from the CCDC's data processing and validation procedures.
#
#######################################################################

data_MODDOA01
_chemical_formula_moiety         'C34 H30 N2 O6'
_chemical_name_systematic        
2,7-bis(4-butoxyphenyl)benzo[lmn][3,8]phenanthroline-1,3,6,8(2H,7H)-tetrone
_symmetry_cell_setting           monoclinic
_symmetry_space_group_name_H-M   'P 21/c'
_symmetry_Int_Tables_number      14
_space_group_name_Hall           '-P 2ybc'
loop_
_symmetry_equiv_pos_site_id
_symmetry_equiv_pos_as_xyz
1 x,y,z
2 -x,1/2+y,1/2-z
3 -x,-y,-z
4 x,1/2-y,1/2+z
_cell_length_a                   5.026(2)
_cell_length_b                   33.756(5)
_cell_length_c                   7.9533(14)
_cell_angle_alpha                90
_cell_angle_beta                 99.997(10)
_cell_angle_gamma                90
_cell_volume                     1328.85
_exptl_crystal_colour            yellow
_exptl_crystal_description       blade
_cell_formula_units_Z            2
_exptl_crystal_recrystallization_method chloroform
loop_
_atom_site_label
_atom_site_type_symbol
_atom_site_fract_x
_atom_site_fract_y
_atom_site_fract_z
O1 O 0.67779(19) 0.60970(3) 0.79878(11)
O2 O -0.06737(18) 0.53784(3) 0.58139(11)
O3 O 0.10927(19) 0.67389(3) 0.11841(11)
N1 N 0.3241(2) 0.57126(3) 0.67603(12)
C1 C 0.5495(2) 0.57933(3) 0.80167(15)
C2 C 0.1436(2) 0.53964(3) 0.68085(14)
C3 C 0.2281(2) 0.50886(3) 0.81278(14)
C4 C 0.4620(2) 0.51462(3) 0.93653(14)
C5 C 0.0766(2) 0.47482(4) 0.81341(14)
H1 H -0.0799 0.4710 0.7290
C6 C 0.1535(2) 0.44565(3) 0.93893(15)
H2 H 0.0492 0.4222 0.9383
C7 C 0.3789(2) 0.45097(3) 1.06267(14)
C8 C 0.2705(2) 0.59806(3) 0.53116(15)
C9 C 0.4228(2) 0.59426(4) 0.40310(15)
H3 H 0.5592 0.5745 0.4112
C10 C 0.3760(3) 0.61941(4) 0.26201(15)
H4 H 0.4811 0.6170 0.1741
C11 C 0.1740(2) 0.64807(3) 0.25072(15)
C12 C 0.0216(3) 0.65157(3) 0.38130(15)
H5 H -0.1157 0.6712 0.3737
C13 C 0.0696(3) 0.62665(3) 0.52167(15)
H6 H -0.0337 0.6291 0.6105
C14 C 0.2537(3) 0.67025(4) -0.02198(15)
H7 H 0.2266 0.6435 -0.0733
H8 H 0.4495 0.6743 0.0180
C15 C 0.1438(3) 0.70155(4) -0.15208(15)
H9 H -0.0530 0.6973 -0.1871
H10 H 0.2286 0.6980 -0.2545
C16 C 0.1918(3) 0.74411(4) -0.08836(16)
H11 H 0.0864 0.7622 -0.1725
H12 H 0.1230 0.7470 0.0203
C17 C 0.4865(3) 0.75662(5) -0.0599(2)
H13 H 0.5930 0.7387 0.0227
H14 H 0.5031 0.7838 -0.0156
H15 H 0.5537 0.7554 -0.1683
O1B O 0.32221(19) 0.39030(3) 1.20122(11)
O2B O 1.06737(18) 0.46216(3) 1.41861(11)
O3B O 0.89073(19) 0.32611(3) 1.88159(11)
N1B N 0.6759(2) 0.42874(3) 1.32397(12)
C1B C 0.4505(2) 0.42067(3) 1.19833(15)
C2B C 0.8564(2) 0.46036(3) 1.31915(14)
C3B C 0.7719(2) 0.49114(3) 1.18722(14)
C4B C 0.5380(2) 0.48538(3) 1.06347(14)
C5B C 0.9234(2) 0.52518(4) 1.18659(14)
H1B H 1.0799 0.5290 1.2710
C6B C 0.8465(2) 0.55435(3) 1.06107(15)
H2B H 0.9508 0.5778 1.0617
C7B C 0.6211(2) 0.54903(3) 0.93733(14)
C8B C 0.7295(2) 0.40194(3) 1.46884(15)
C9B C 0.5772(2) 0.40574(4) 1.59690(15)
H3B H 0.4408 0.4255 1.5888
C10B C 0.6240(3) 0.38059(4) 1.73799(15)
H4B H 0.5189 0.3830 1.8259
C11B C 0.8260(2) 0.35193(3) 1.74928(15)
C12B C 0.9784(3) 0.34843(3) 1.61870(15)
H5B H 1.1157 0.3288 1.6263
C13B C 0.9304(3) 0.37335(3) 1.47833(15)
H6B H 1.0337 0.3709 1.3895
C14B C 0.7463(3) 0.32975(4) 2.02198(15)
H7B H 0.7734 0.3565 2.0733
H8B H 0.5505 0.3257 1.9820
C15B C 0.8562(3) 0.29845(4) 2.15208(15)
H9B H 1.0530 0.3027 2.1871
H10B H 0.7714 0.3020 2.2545
C16B C 0.8082(3) 0.25589(4) 2.08836(16)
H11B H 0.9136 0.2378 2.1725
H12B H 0.8770 0.2530 1.9797
C17B C 0.5135(3) 0.24338(5) 2.0599(2)
H13B H 0.4070 0.2613 1.9773
H14B H 0.4969 0.2162 2.0156
H15B H 0.4463 0.2446 2.1683
loop_
_geom_bond_atom_site_label_1
_geom_bond_atom_site_label_2
_geom_bond_site_symmetry_1
_geom_bond_site_symmetry_2
O1 C1 1_555 1_555
O2 C2 1_555 1_555
O3 C11 1_555 1_555
N1 C1 1_555 1_555
C1 C7B 1_555 1_555
C2 N1 1_555 1_555
C3 C2 1_555 1_555
C4 C3 1_555 1_555
C5 C3 1_555 1_555
H1 C5 1_555 1_555
C6 C5 1_555 1_555
H2 C6 1_555 1_555
C7 C6 1_555 1_555
C8 N1 1_555 1_555
C9 C8 1_555 1_555
H3 C9 1_555 1_555
C10 C9 1_555 1_555
H4 C10 1_555 1_555
C11 C10 1_555 1_555
C12 C11 1_555 1_555
H5 C12 1_555 1_555
C13 C8 1_555 1_555
H6 C13 1_555 1_555
C14 O3 1_555 1_555
H7 C14 1_555 1_555
H8 C14 1_555 1_555
C15 C14 1_555 1_555
H9 C15 1_555 1_555
H10 C15 1_555 1_555
C16 C15 1_555 1_555
H11 C16 1_555 1_555
H12 C16 1_555 1_555
C17 C16 1_555 1_555
H13 C17 1_555 1_555
H14 C17 1_555 1_555
H15 C17 1_555 1_555
O1B C1B 1_555 1_555
O2B C2B 1_555 1_555
O3B C11B 1_555 1_555
N1B C1B 1_555 1_555
C1B C7 1_555 1_555
C2B N1B 1_555 1_555
C3B C2B 1_555 1_555
C4B C4 1_555 1_555
C5B C3B 1_555 1_555
H1B C5B 1_555 1_555
C6B C5B 1_555 1_555
H2B C6B 1_555 1_555
C7B C4 1_555 1_555
C8B N1B 1_555 1_555
C9B C8B 1_555 1_555
H3B C9B 1_555 1_555
C10B C9B 1_555 1_555
H4B C10B 1_555 1_555
C11B C10B 1_555 1_555
C12B C11B 1_555 1_555
H5B C12B 1_555 1_555
C13B C8B 1_555 1_555
H6B C13B 1_555 1_555
C14B O3B 1_555 1_555
H7B C14B 1_555 1_555
H8B C14B 1_555 1_555
C15B C14B 1_555 1_555
H9B C15B 1_555 1_555
H10B C15B 1_555 1_555
C16B C15B 1_555 1_555
H11B C16B 1_555 1_555
H12B C16B 1_555 1_555
C17B C16B 1_555 1_555
H13B C17B 1_555 1_555
H14B C17B 1_555 1_555
H15B C17B 1_555 1_555
C7 C4B 1_555 1_555
C12 C13 1_555 1_555
C3B C4B 1_555 1_555
C6B C7B 1_555 1_555
C12B C13B 1_555 1_555

#END
