
#######################################################################
#
#                 Cambridge Crystallographic Data Centre
#                                CCDC 
#
#######################################################################
#
# If this CIF has been generated from an entry in the Cambridge 
# Structural Database, then it will include bibliographic, chemical, 
# crystal, experimental, refinement or atomic coordinate data resulting 
# from the CCDC's data processing and validation procedures.
#
#######################################################################

data_MODDOA02
_chemical_formula_moiety         'C34 H30 N2 O6'
_chemical_name_systematic        
2,7-bis(4-butoxyphenyl)benzo[lmn][3,8]phenanthroline-1,3,6,8(2H,7H)-tetrone
_symmetry_cell_setting           triclinic
_symmetry_space_group_name_H-M   'P -1'
_symmetry_Int_Tables_number      2
_space_group_name_Hall           '-P 1'
loop_
_symmetry_equiv_pos_site_id
_symmetry_equiv_pos_as_xyz
1 x,y,z
2 -x,-y,-z
_cell_length_a                   4.1636(8)
_cell_length_b                   8.1371(18)
_cell_length_c                   20.104(5)
_cell_angle_alpha                100.182(11)
_cell_angle_beta                 93.124(14)
_cell_angle_gamma                94.102(14)
_cell_volume                     667.106
_exptl_crystal_colour            orange
_cell_formula_units_Z            1
_exptl_crystal_recrystallization_method chloroform
loop_
_atom_site_label
_atom_site_type_symbol
_atom_site_fract_x
_atom_site_fract_y
_atom_site_fract_z
O1 O 0.6252(2) 1.01365(11) 0.70924(4)
O2 O -0.0723(2) 0.63226(11) 0.57043(4)
O3 O 0.1453(2) 0.41476(11) 0.83759(4)
N1 N 0.3144(3) 0.80567(12) 0.63843(5)
C1 C 0.5169(3) 0.95419(14) 0.65216(6)
C2 C 0.1415(3) 0.74407(14) 0.57577(6)
C3 C 0.2342(3) 0.82118(14) 0.51740(6)
C4 C 0.1014(3) 0.75410(15) 0.45315(6)
H1 H -0.0499 0.6586 0.4465
C5 C 0.1888(3) 0.82643(15) 0.39758(6)
H2 H 0.0990 0.7784 0.3534
C6 C 0.4038(3) 0.96659(14) 0.40676(6)
C7 C 0.5420(3) 1.03681(14) 0.47210(6)
C8 C 0.2784(3) 0.70653(15) 0.69140(6)
C9 C 0.1262(3) 0.76481(15) 0.74961(6)
H3 H 0.0472 0.8728 0.7562
C10 C 0.0904(3) 0.66481(15) 0.79792(6)
H4 H -0.0115 0.7047 0.8381
C11 C 0.2029(3) 0.50563(15) 0.78809(6)
C12 C 0.3613(3) 0.44887(15) 0.73016(6)
H5 H 0.4429 0.3415 0.7236
C13 C 0.3987(3) 0.55103(15) 0.68201(6)
H6 H 0.5075 0.5136 0.6425
C14 C 0.2785(3) 0.25521(15) 0.83178(6)
H7 H 0.5149 0.2689 0.8284
H8 H 0.1820 0.1785 0.7906
C15 C 0.2025(3) 0.18434(16) 0.89444(6)
H9 H 0.2988 0.0759 0.8924
H10 H -0.0343 0.1627 0.8950
C16 C 0.3296(3) 0.30131(17) 0.95968(6)
H11 H 0.2278 0.4083 0.9622
H12 H 0.5651 0.3260 0.9582
C17 C 0.2660(4) 0.2306(2) 1.02350(7)
H13 H 0.0327 0.2120 1.0269
H14 H 0.3601 0.3102 1.0633
H15 H 0.3643 0.1240 1.0213
O1A O 0.3748(2) 0.98635(11) 0.29076(4)
O2A O 1.0723(2) 1.36774(11) 0.42957(4)
O3A O 0.8547(2) 1.58524(11) 0.16241(4)
N1A N 0.6856(3) 1.19433(12) 0.36157(5)
C1A C 0.4831(3) 1.04581(14) 0.34784(6)
C2A C 0.8585(3) 1.25593(14) 0.42423(6)
C3A C 0.7658(3) 1.17882(14) 0.48260(6)
C4A C 0.8986(3) 1.24590(15) 0.54685(6)
H1A H 1.0499 1.3414 0.5535
C5A C 0.8112(3) 1.17357(15) 0.60242(6)
H2A H 0.9010 1.2216 0.6466
C6A C 0.5962(3) 1.03341(14) 0.59324(6)
C7A C 0.4580(3) 0.96319(14) 0.52790(6)
C8A C 0.7216(3) 1.29347(15) 0.30860(6)
C9A C 0.8738(3) 1.23519(15) 0.25039(6)
H3A H 0.9528 1.1272 0.2438
C10A C 0.9096(3) 1.33519(15) 0.20208(6)
H4A H 1.0115 1.2953 0.1619
C11A C 0.7971(3) 1.49437(15) 0.21191(6)
C12A C 0.6387(3) 1.55113(15) 0.26984(6)
H5A H 0.5571 1.6585 0.2764
C13A C 0.6013(3) 1.44897(15) 0.31799(6)
H6A H 0.4925 1.4864 0.3575
C14A C 0.7215(3) 1.74479(15) 0.16822(6)
H7A H 0.4851 1.7311 0.1716
H8A H 0.8180 1.8215 0.2094
C15A C 0.7975(3) 1.81566(16) 0.10556(6)
H9A H 0.7012 1.9241 0.1076
H10A H 1.0343 1.8373 0.1050
C16A C 0.6704(3) 1.69869(17) 0.04032(6)
H11A H 0.7722 1.5917 0.0378
H12A H 0.4349 1.6740 0.0418
C17A C 0.7340(4) 1.7694(2) -0.02350(7)
H13A H 0.9673 1.7880 -0.0269
H14A H 0.6399 1.6898 -0.0633
H15A H 0.6357 1.8760 -0.0213
loop_
_geom_bond_atom_site_label_1
_geom_bond_atom_site_label_2
_geom_bond_site_symmetry_1
_geom_bond_site_symmetry_2
O1 C1 1_555 1_555
O2 C2 1_555 1_555
O3 C11 1_555 1_555
N1 C1 1_555 1_555
C1 C6A 1_555 1_555
C2 N1 1_555 1_555
C3 C2 1_555 1_555
C4 C3 1_555 1_555
H1 C4 1_555 1_555
C5 C4 1_555 1_555
H2 C5 1_555 1_555
C6 C5 1_555 1_555
C7 C6 1_555 1_555
C8 N1 1_555 1_555
C9 C8 1_555 1_555
H3 C9 1_555 1_555
C10 C9 1_555 1_555
H4 C10 1_555 1_555
C11 C10 1_555 1_555
C12 C11 1_555 1_555
H5 C12 1_555 1_555
C13 C8 1_555 1_555
H6 C13 1_555 1_555
C14 O3 1_555 1_555
H7 C14 1_555 1_555
H8 C14 1_555 1_555
C15 C14 1_555 1_555
H9 C15 1_555 1_555
H10 C15 1_555 1_555
C16 C15 1_555 1_555
H11 C16 1_555 1_555
H12 C16 1_555 1_555
C17 C16 1_555 1_555
H13 C17 1_555 1_555
H14 C17 1_555 1_555
H15 C17 1_555 1_555
O1A C1A 1_555 1_555
O2A C2A 1_555 1_555
O3A C11A 1_555 1_555
N1A C1A 1_555 1_555
C1A C6 1_555 1_555
C2A N1A 1_555 1_555
C3A C7 1_555 1_555
C4A C3A 1_555 1_555
H1A C4A 1_555 1_555
C5A C4A 1_555 1_555
H2A C5A 1_555 1_555
C6A C5A 1_555 1_555
C7A C3 1_555 1_555
C8A N1A 1_555 1_555
C9A C8A 1_555 1_555
H3A C9A 1_555 1_555
C10A C9A 1_555 1_555
H4A C10A 1_555 1_555
C11A C10A 1_555 1_555
C12A C11A 1_555 1_555
H5A C12A 1_555 1_555
C13A C8A 1_555 1_555
H6A C13A 1_555 1_555
C14A O3A 1_555 1_555
H7A C14A 1_555 1_555
H8A C14A 1_555 1_555
C15A C14A 1_555 1_555
H9A C15A 1_555 1_555
H10A C15A 1_555 1_555
C16A C15A 1_555 1_555
H11A C16A 1_555 1_555
H12A C16A 1_555 1_555
C17A C16A 1_555 1_555
H13A C17A 1_555 1_555
H14A C17A 1_555 1_555
H15A C17A 1_555 1_555
C7 C7A 1_555 1_555
C12 C13 1_555 1_555
C2A C3A 1_555 1_555
C6A C7A 1_555 1_555
C12A C13A 1_555 1_555

#END
