
#######################################################################
#
#                 Cambridge Crystallographic Data Centre
#                                CCDC 
#
#######################################################################
#
# If this CIF has been generated from an entry in the Cambridge 
# Structural Database, then it will include bibliographic, chemical, 
# crystal, experimental, refinement or atomic coordinate data resulting 
# from the CCDC's data processing and validation procedures.
#
#######################################################################

data_MODFUG01
_chemical_formula_moiety         'C27 H21 N3'
_chemical_name_systematic        
5-(1,4-Dimethyl-4-phenyl-1,2,3,4-tetrahydronaphthalen-1-yl)benzene-1,2,4-tricarbonitrile
_symmetry_cell_setting           monoclinic
_symmetry_space_group_name_H-M   'P 21/c'
_symmetry_Int_Tables_number      14
_space_group_name_Hall           '-P 2ybc'
loop_
_symmetry_equiv_pos_site_id
_symmetry_equiv_pos_as_xyz
1 x,y,z
2 -x,1/2+y,1/2-z
3 -x,-y,-z
4 x,1/2-y,1/2+z
_cell_length_a                   9.0828(13)
_cell_length_b                   8.2753(12)
_cell_length_c                   28.513(4)
_cell_angle_alpha                90
_cell_angle_beta                 97.494(3)
_cell_angle_gamma                90
_cell_volume                     2124.81
_cell_formula_units_Z            4
loop_
_atom_site_label
_atom_site_type_symbol
_atom_site_fract_x
_atom_site_fract_y
_atom_site_fract_z
C1 C 0.6749(3) 0.5655(3) 0.39125(8)
H1 H 0.7706 0.5385 0.4047
C2 C 0.5950(3) 0.4556(3) 0.36263(9)
H2 H 0.6365 0.3561 0.3567
C3 C 0.4525(3) 0.4927(3) 0.34249(8)
H3 H 0.3965 0.4183 0.3232
C4 C 0.3946(3) 0.6415(3) 0.35140(8)
H4 H 0.2983 0.6666 0.3382
C5 C 0.4038(2) 0.9186(3) 0.38792(7)
C6 C 0.5232(3) 1.0443(3) 0.40487(8)
H5 H 0.5777 1.0722 0.3789
H6 H 0.4758 1.1416 0.4145
C7 C 0.6304(3) 0.9808(3) 0.44601(8)
H7 H 0.5752 0.9526 0.4717
H8 H 0.6996 1.0660 0.4571
C8 C 0.7181(2) 0.8328(3) 0.43316(8)
C9 C 0.6185(2) 0.7165(3) 0.40104(7)
C10 C 0.4761(2) 0.7554(3) 0.37960(7)
C11 C 0.0946(2) 1.1115(3) 0.30175(9)
C12 C 0.1504(2) 1.1037(3) 0.25871(8)
C13 C 0.2910(2) 1.0414(3) 0.25748(8)
H9 H 0.3305 1.0375 0.2290
C14 C 0.3733(2) 0.9846(3) 0.29855(8)
C15 C 0.3163(2) 0.9843(3) 0.34256(7)
C16 C 0.1762(2) 1.0526(3) 0.34232(8)
H10 H 0.1361 1.0589 0.3707
C17 C -0.0502(3) 1.1796(4) 0.30441(10)
C18 C 0.0626(3) 1.1553(3) 0.21540(10)
C19 C 0.5199(3) 0.9243(3) 0.29329(7)
C20 C 0.2991(3) 0.8910(3) 0.42574(8)
H11 H 0.2164 0.8259 0.4126
H12 H 0.2637 0.9933 0.4355
H13 H 0.3522 0.8368 0.4525
C21 C 0.7776(3) 0.7473(3) 0.47959(8)
C22 C 0.9243(3) 0.7576(3) 0.49982(10)
H14 H 0.9927 0.8134 0.4843
C23 C 0.9696(4) 0.6852(4) 0.54295(12)
H15 H 1.0682 0.6943 0.5564
C24 C 0.8728(5) 0.6008(4) 0.56627(11)
H16 H 0.9052 0.5511 0.5950
C25 C 0.7266(4) 0.5899(4) 0.54678(10)
H17 H 0.6590 0.5340 0.5625
C26 C 0.6808(3) 0.6618(3) 0.50415(9)
H18 H 0.5817 0.6531 0.4912
C27 C 0.8439(3) 0.8882(4) 0.40562(9)
H19 H 0.9016 0.7964 0.3986
H20 H 0.9064 0.9637 0.4245
H21 H 0.8021 0.9393 0.3767
N1 N -0.1630(3) 1.2338(4) 0.30692(11)
N2 N -0.0105(3) 1.1906(4) 0.18156(10)
N3 N 0.6349(2) 0.8832(3) 0.28610(7)
loop_
_geom_bond_atom_site_label_1
_geom_bond_atom_site_label_2
_geom_bond_site_symmetry_1
_geom_bond_site_symmetry_2
C1 H1 1_555 1_555
C2 C1 1_555 1_555
H2 C2 1_555 1_555
C3 C2 1_555 1_555
H3 C3 1_555 1_555
C4 C3 1_555 1_555
H4 C4 1_555 1_555
C5 C6 1_555 1_555
C6 H5 1_555 1_555
H6 C6 1_555 1_555
C7 C6 1_555 1_555
H7 C7 1_555 1_555
H8 C7 1_555 1_555
C8 C7 1_555 1_555
C9 C1 1_555 1_555
C10 C4 1_555 1_555
C11 C12 1_555 1_555
C12 C13 1_555 1_555
C13 H9 1_555 1_555
C14 C13 1_555 1_555
C15 C5 1_555 1_555
C16 C11 1_555 1_555
H10 C16 1_555 1_555
C17 C11 1_555 1_555
C18 C12 1_555 1_555
C19 C14 1_555 1_555
C20 C5 1_555 1_555
H11 C20 1_555 1_555
H12 C20 1_555 1_555
H13 C20 1_555 1_555
C21 C8 1_555 1_555
C22 C21 1_555 1_555
H14 C22 1_555 1_555
C23 C22 1_555 1_555
H15 C23 1_555 1_555
C24 C23 1_555 1_555
H16 C24 1_555 1_555
C25 C24 1_555 1_555
H17 C25 1_555 1_555
C26 C21 1_555 1_555
H18 C26 1_555 1_555
C27 C8 1_555 1_555
H19 C27 1_555 1_555
H20 C27 1_555 1_555
H21 C27 1_555 1_555
N1 C17 1_555 1_555
N2 C18 1_555 1_555
N3 C19 1_555 1_555
C5 C10 1_555 1_555
C8 C9 1_555 1_555
C9 C10 1_555 1_555
C14 C15 1_555 1_555
C15 C16 1_555 1_555
C25 C26 1_555 1_555

#END
