
#######################################################################
#
#                 Cambridge Crystallographic Data Centre
#                                CCDC 
#
#######################################################################
#
# If this CIF has been generated from an entry in the Cambridge 
# Structural Database, then it will include bibliographic, chemical, 
# crystal, experimental, refinement or atomic coordinate data resulting 
# from the CCDC's data processing and validation procedures.
#
#######################################################################

data_MODFAM
_chemical_formula_moiety         'C14 H18 N2 O2 2+,2(Cl1 1-)'
_chemical_name_systematic        
'meso-1,2-(2-Hydroxyphenyl)-1,2-ethylenediammonium dichloride'
_symmetry_cell_setting           rhombohedral
_symmetry_space_group_name_H-M   'R -3'
_symmetry_Int_Tables_number      148
_space_group_name_Hall           '-R 3'
loop_
_symmetry_equiv_pos_site_id
_symmetry_equiv_pos_as_xyz
1 x,y,z
2 -y,x-y,z
3 -x+y,-x,z
4 2/3+x,1/3+y,1/3+z
5 2/3-y,1/3+x-y,1/3+z
6 2/3-x+y,1/3-x,1/3+z
7 1/3+x,2/3+y,2/3+z
8 2/3+y,1/3-x+y,1/3-z
9 2/3+x-y,1/3+x,1/3-z
10 -x,-y,-z
11 y,-x+y,-z
12 x-y,x,-z
13 1/3-x,2/3-y,2/3-z
14 1/3+y,2/3-x+y,2/3-z
15 1/3+x-y,2/3+x,2/3-z
16 2/3-x,1/3-y,1/3-z
17 1/3-y,2/3+x-y,2/3+z
18 1/3-x+y,2/3-x,2/3+z
_cell_length_a                   21.8715(7)
_cell_length_b                   21.8715(7)
_cell_length_c                   7.8297(3)
_cell_angle_alpha                90
_cell_angle_beta                 90
_cell_angle_gamma                120.00
_cell_volume                     3243.64
_exptl_crystal_colour            colorless
_exptl_crystal_description       needle
_cell_formula_units_Z            9
_exptl_crystal_recrystallization_method water
loop_
_atom_site_label
_atom_site_type_symbol
_atom_site_fract_x
_atom_site_fract_y
_atom_site_fract_z
Cl1 Cl 0.212429(14) 0.264395(14) 0.37680(3)
O1 O 0.35544(5) 0.38971(4) 0.49886(12)
C1 C 0.41919(6) 0.51335(6) 0.52595(15)
C2 C 0.35630(6) 0.45206(6) 0.48185(15)
C3 C 0.29891(6) 0.45669(6) 0.42185(16)
H1 H 0.2561 0.4149 0.3942
C4 C 0.30403(7) 0.52200(7) 0.40231(19)
H2 H 0.2650 0.5250 0.3595
C5 C 0.36618(7) 0.58318(7) 0.4453(2)
H3 H 0.3696 0.6280 0.4322
C6 C 0.42322(6) 0.57865(6) 0.50728(18)
H4 H 0.4655 0.6205 0.5374
C7 C 0.48415(6) 0.50996(6) 0.57596(14)
H5 H 0.5206 0.5578 0.6172
N1 N 0.47017(5) 0.45783(5) 0.71739(13)
H6 H 0.5118 0.4672 0.7656
H7 H 0.4480 0.4133 0.6739
H8 H 0.4423 0.4616 0.7981
H9 H 0.3132(10) 0.3542(10) 0.462(2)
C7I C 0.51585(6) 0.49004(6) 0.42404(14)
C1I C 0.58081(6) 0.48665(6) 0.47405(15)
C2I C 0.64370(6) 0.54794(6) 0.51815(15)
O1I O 0.64456(5) 0.61029(4) 0.50114(12)
H9I H 0.6868(10) 0.6458(10) 0.538(2)
C3I C 0.70109(6) 0.54331(6) 0.57815(16)
H1I H 0.7439 0.5851 0.6058
C4I C 0.69597(7) 0.47800(7) 0.59769(19)
H2I H 0.7350 0.4750 0.6405
C5I C 0.63382(7) 0.41682(7) 0.5547(2)
H3I H 0.6304 0.3720 0.5678
C6I C 0.57678(6) 0.42135(6) 0.49272(18)
H4I H 0.5345 0.3795 0.4626
H5I H 0.4794 0.4422 0.3828
N1I N 0.52983(5) 0.54217(5) 0.28261(13)
H6I H 0.4882 0.5328 0.2344
H7I H 0.5520 0.5867 0.3261
H8I H 0.5577 0.5384 0.2019
loop_
_geom_bond_atom_site_label_1
_geom_bond_atom_site_label_2
_geom_bond_site_symmetry_1
_geom_bond_site_symmetry_2
O1 C2 1_555 1_555
C1 C2 1_555 1_555
C2 C3 1_555 1_555
C3 H1 1_555 1_555
C4 C3 1_555 1_555
H2 C4 1_555 1_555
C5 C4 1_555 1_555
H3 C5 1_555 1_555
C6 C1 1_555 1_555
H4 C6 1_555 1_555
C7 C1 1_555 1_555
H5 C7 1_555 1_555
N1 C7 1_555 1_555
H6 N1 1_555 1_555
H7 N1 1_555 1_555
H8 N1 1_555 1_555
H9 O1 1_555 1_555
C7I C7 1_555 1_555
C1I C7I 1_555 1_555
C2I C1I 1_555 1_555
O1I C2I 1_555 1_555
H9I O1I 1_555 1_555
C3I C2I 1_555 1_555
H1I C3I 1_555 1_555
C4I C3I 1_555 1_555
H2I C4I 1_555 1_555
C5I C4I 1_555 1_555
H3I C5I 1_555 1_555
C6I C1I 1_555 1_555
H4I C6I 1_555 1_555
H5I C7I 1_555 1_555
N1I C7I 1_555 1_555
H6I N1I 1_555 1_555
H7I N1I 1_555 1_555
H8I N1I 1_555 1_555
C5 C6 1_555 1_555
C5I C6I 1_555 1_555

#END
