
#######################################################################
#
#                 Cambridge Crystallographic Data Centre
#                                CCDC 
#
#######################################################################
#
# If this CIF has been generated from an entry in the Cambridge 
# Structural Database, then it will include bibliographic, chemical, 
# crystal, experimental, refinement or atomic coordinate data resulting 
# from the CCDC's data processing and validation procedures.
#
#######################################################################

data_MODGER
_chemical_formula_moiety         'C21 H25 I1 N2 O1'
_chemical_name_systematic        
4-(5-(Dimethylamino)-2-(4-(dimethylamino)-2-iodophenylmethyl)phenyl)-(3E)-3-buten-2-one
_symmetry_cell_setting           triclinic
_symmetry_space_group_name_H-M   'P -1'
_symmetry_Int_Tables_number      2
_space_group_name_Hall           '-P 1'
loop_
_symmetry_equiv_pos_site_id
_symmetry_equiv_pos_as_xyz
1 x,y,z
2 -x,-y,-z
_cell_length_a                   9.168(3)
_cell_length_b                   10.8840(10)
_cell_length_c                   10.969(2)
_cell_angle_alpha                84.830(10)
_cell_angle_beta                 82.21(2)
_cell_angle_gamma                65.51(2)
_cell_volume                     986.174
_exptl_crystal_colour            brown
_exptl_crystal_description       plate
_chemical_melting_point          437-438K
_cell_formula_units_Z            2
_exptl_crystal_recrystallization_method 'ethyl acetate'
loop_
_atom_site_label
_atom_site_type_symbol
_atom_site_fract_x
_atom_site_fract_y
_atom_site_fract_z
I1 I 0.32012(3) 0.26835(3) 0.97653(3)
N1 N 0.8990(4) 0.0835(4) 1.1479(3)
N2 N 0.8529(4) 0.5409(3) 0.3573(3)
O1 O 0.8223(4) -0.0984(3) 0.5422(3)
C1 C 1.0574(5) 0.0737(4) 1.1539(4)
H1 H 1.0515 0.1501 1.1950
H2 H 1.1104 0.0723 1.0720
H3 H 1.1171 -0.0079 1.1987
C2 C 0.8401(5) 0.0056(5) 1.2351(4)
H4 H 0.7557 0.0646 1.2913
H5 H 0.9263 -0.0559 1.2799
H6 H 0.7987 -0.0446 1.1930
C3 C 0.7987(4) 0.1759(4) 1.0673(3)
C4 C 0.8456(4) 0.2650(4) 0.9901(3)
H7 H 0.9454 0.2665 0.9945
C5 C 0.7459(4) 0.3507(3) 0.9074(3)
H8 H 0.7815 0.4085 0.8571
C6 C 0.5961(4) 0.3555(3) 0.8951(3)
C7 C 0.5481(4) 0.2733(3) 0.9733(3)
C8 C 0.6438(4) 0.1837(4) 1.0578(3)
H9 H 0.6049 0.1284 1.1087
C9 C 0.4930(4) 0.4572(4) 0.8025(3)
H10 H 0.4140 0.4266 0.7823
H11 H 0.4348 0.5434 0.8411
C10 C 0.5877(4) 0.4775(3) 0.6851(3)
C11 C 0.6601(4) 0.3758(3) 0.5967(3)
C12 C 0.7471(4) 0.3991(3) 0.4904(3)
H12 H 0.7926 0.3323 0.4325
C13 C 0.7693(4) 0.5182(3) 0.4666(3)
C14 C 0.7001(4) 0.6166(3) 0.5554(3)
H13 H 0.7136 0.6971 0.5435
C15 C 0.6120(4) 0.5944(3) 0.6606(3)
H14 H 0.5667 0.6618 0.7179
C16 C 0.8916(4) 0.6558(4) 0.3420(4)
H15 H 0.7946 0.7364 0.3546
H16 H 0.9430 0.6590 0.2602
H17 H 0.9632 0.6493 0.4009
C17 C 0.9421(5) 0.4316(4) 0.2774(4)
H18 H 1.0231 0.3609 0.3204
H19 H 0.9929 0.4629 0.2066
H20 H 0.8704 0.3976 0.2515
C18 C 0.6433(4) 0.2480(3) 0.6166(3)
H21 H 0.5523 0.2492 0.6665
C19 C 0.7429(4) 0.1313(3) 0.5716(3)
H22 H 0.8352 0.1294 0.5232
C20 C 0.7237(5) 0.0044(4) 0.5898(3)
C21 C 0.5803(5) -0.0020(4) 0.6708(5)
H23 H 0.5956 -0.0946 0.6856
H24 H 0.4846 0.0463 0.6305
H25 H 0.5694 0.0383 0.7477
loop_
_geom_bond_atom_site_label_1
_geom_bond_atom_site_label_2
_geom_bond_site_symmetry_1
_geom_bond_site_symmetry_2
I1 C7 1_555 1_555
N1 C1 1_555 1_555
N2 C13 1_555 1_555
O1 C20 1_555 1_555
C1 H1 1_555 1_555
H2 C1 1_555 1_555
H3 C1 1_555 1_555
C2 N1 1_555 1_555
H4 C2 1_555 1_555
H5 C2 1_555 1_555
H6 C2 1_555 1_555
C3 N1 1_555 1_555
C4 C3 1_555 1_555
H7 C4 1_555 1_555
C5 C4 1_555 1_555
H8 C5 1_555 1_555
C6 C5 1_555 1_555
C7 C6 1_555 1_555
C8 C3 1_555 1_555
H9 C8 1_555 1_555
C9 C6 1_555 1_555
H10 C9 1_555 1_555
H11 C9 1_555 1_555
C10 C9 1_555 1_555
C11 C10 1_555 1_555
C12 C11 1_555 1_555
H12 C12 1_555 1_555
C13 C12 1_555 1_555
C14 C13 1_555 1_555
H13 C14 1_555 1_555
C15 C10 1_555 1_555
H14 C15 1_555 1_555
C16 N2 1_555 1_555
H15 C16 1_555 1_555
H16 C16 1_555 1_555
H17 C16 1_555 1_555
C17 N2 1_555 1_555
H18 C17 1_555 1_555
H19 C17 1_555 1_555
H20 C17 1_555 1_555
C18 C11 1_555 1_555
H21 C18 1_555 1_555
C19 C18 1_555 1_555
H22 C19 1_555 1_555
C20 C19 1_555 1_555
C21 C20 1_555 1_555
H23 C21 1_555 1_555
H24 C21 1_555 1_555
H25 C21 1_555 1_555
C7 C8 1_555 1_555
C14 C15 1_555 1_555

#END
