
#######################################################################
#
#                 Cambridge Crystallographic Data Centre
#                                CCDC 
#
#######################################################################
#
# If this CIF has been generated from an entry in the Cambridge 
# Structural Database, then it will include bibliographic, chemical, 
# crystal, experimental, refinement or atomic coordinate data resulting 
# from the CCDC's data processing and validation procedures.
#
#######################################################################

data_MODHUJ
_chemical_formula_moiety         'C12 H16 Mg1 N2 O4 2+,2(C8 H5 Cl2 O2 1-)'
_chemical_name_systematic        
"Tetraaqua-(1,10-phenanthroline-\k^2^N,N')-magnesium(ii) bis((2,4-dichlorophenyl)acetate)"
_symmetry_cell_setting           monoclinic
_symmetry_space_group_name_H-M   'C 2/c'
_symmetry_Int_Tables_number      15
_space_group_name_Hall           '-C 2yn'
loop_
_symmetry_equiv_pos_site_id
_symmetry_equiv_pos_as_xyz
1 x,y,z
2 1/2+x,1/2+y,z
3 -x,y,1/2-z
4 1/2-x,1/2+y,1/2-z
5 -x,-y,-z
6 1/2-x,1/2-y,-z
7 x,-y,1/2+z
8 1/2+x,1/2-y,1/2+z
_cell_length_a                   28.9260(10)
_cell_length_b                   14.0447(6)
_cell_length_c                   7.6074(3)
_cell_angle_alpha                90
_cell_angle_beta                 94.7850(10)
_cell_angle_gamma                90
_cell_volume                     3079.79
_exptl_crystal_colour            colorless
_exptl_crystal_description       Prism
_cell_formula_units_Z            4
loop_
_atom_site_label
_atom_site_type_symbol
_atom_site_fract_x
_atom_site_fract_y
_atom_site_fract_z
Mg1 Mg 0.5000 0.70119(6) 0.2500
O2 O 0.44481(6) 0.61206(10) 0.20734(19)
O3 O 0.50764(5) 0.69659(11) -0.01445(17)
N1 N 0.45496(5) 0.82808(11) 0.1896(2)
C1 C 0.41135(7) 0.82785(17) 0.1205(3)
H1 H 0.3966 0.7697 0.0991
C2 C 0.38664(9) 0.9115(2) 0.0787(4)
H2 H 0.3562 0.9084 0.0293
C3 C 0.40715(9) 0.9969(2) 0.1101(3)
H3 H 0.3907 1.0527 0.0846
C4 C 0.45322(8) 1.00081(15) 0.1812(3)
C5 C 0.47614(6) 0.91362(12) 0.2161(2)
C6 C 0.47783(10) 1.08762(15) 0.2176(4)
H4 H 0.4627 1.1453 0.1957
H10 H 0.4831(4) 0.6910(16) -0.083(2)
H11 H 0.5312(4) 0.6889(16) -0.071(2)
H12 H 0.4397(8) 0.5689(12) 0.2818(19)
H13 H 0.4390(8) 0.5895(14) 0.1044(13)
O2B O 0.55519(6) 0.61206(10) 0.29266(19)
O3B O 0.49236(5) 0.69659(11) 0.51445(17)
N1B N 0.54504(5) 0.82808(11) 0.3104(2)
C1B C 0.58865(7) 0.82785(17) 0.3795(3)
H1B H 0.6034 0.7697 0.4009
C2B C 0.61336(9) 0.9115(2) 0.4213(4)
H2B H 0.6438 0.9084 0.4707
C3B C 0.59285(9) 0.9969(2) 0.3899(3)
H3B H 0.6093 1.0527 0.4154
C4B C 0.54678(8) 1.00081(15) 0.3188(3)
C5B C 0.52386(6) 0.91362(12) 0.2839(2)
C6B C 0.52217(10) 1.08762(15) 0.2824(4)
H4B H 0.5373 1.1453 0.3043
H10B H 0.5169(4) 0.6910(16) 0.583(2)
H11B H 0.4688(4) 0.6889(16) 0.571(2)
H12B H 0.5603(8) 0.5689(12) 0.2182(19)
H13B H 0.5610(8) 0.5895(14) 0.3956(13)
Cl1 Cl 0.30958(2) 0.68124(5) 0.95908(8)
Cl2 Cl 0.25982(3) 0.96821(5) 0.52259(13)
O1 O 0.42857(5) 0.68303(10) 0.76580(19)
O4 O 0.41678(5) 0.54277(10) 0.88709(19)
C7 C 0.33544(7) 0.68867(14) 0.6254(3)
C8 C 0.31108(6) 0.73310(14) 0.7514(3)
C9 C 0.28790(7) 0.81845(15) 0.7222(3)
H5 H 0.2720 0.8466 0.8101
C10 C 0.28898(7) 0.86044(16) 0.5596(3)
C11 C 0.31228(9) 0.81981(19) 0.4301(3)
H6 H 0.3128 0.8491 0.3206
C12 C 0.33515(8) 0.73431(19) 0.4637(3)
H7 H 0.3508 0.7066 0.3750
C13 C 0.36083(7) 0.59691(15) 0.6623(3)
H8 H 0.3682 0.5690 0.5514
H9 H 0.3406 0.5530 0.7176
C14 C 0.40558(7) 0.60887(14) 0.7815(2)
loop_
_geom_bond_atom_site_label_1
_geom_bond_atom_site_label_2
_geom_bond_site_symmetry_1
_geom_bond_site_symmetry_2
Mg1 O2 1_555 1_555
Cl1 C8 1_555 1_555
Cl2 C10 1_555 1_555
O1 C14 1_555 1_555
O2 H12 1_555 1_555
O3 Mg1 1_555 1_555
O4 C14 1_555 1_555
N1 Mg1 1_555 1_555
C1 N1 1_555 1_555
H1 C1 1_555 1_555
C2 C1 1_555 1_555
H2 C2 1_555 1_555
C3 C2 1_555 1_555
H3 C3 1_555 1_555
C4 C3 1_555 1_555
C5 N1 1_555 1_555
C6 C4 1_555 1_555
H4 C6 1_555 1_555
C7 C8 1_555 1_555
C8 C9 1_555 1_555
C9 H5 1_555 1_555
C10 C9 1_555 1_555
C11 C10 1_555 1_555
H6 C11 1_555 1_555
C12 C7 1_555 1_555
H7 C12 1_555 1_555
C13 C7 1_555 1_555
H8 C13 1_555 1_555
H9 C13 1_555 1_555
C14 C13 1_555 1_555
H10 O3 1_555 1_555
H11 O3 1_555 1_555
H13 O2 1_555 1_555
O2B Mg1 1_555 1_555
O3B Mg1 1_555 1_555
N1B Mg1 1_555 1_555
C1B N1B 1_555 1_555
H1B C1B 1_555 1_555
C2B C1B 1_555 1_555
H2B C2B 1_555 1_555
C3B C2B 1_555 1_555
H3B C3B 1_555 1_555
C4B C3B 1_555 1_555
C5B C5 1_555 1_555
C6B C6 1_555 1_555
H4B C6B 1_555 1_555
H10B O3B 1_555 1_555
H11B O3B 1_555 1_555
H12B O2B 1_555 1_555
H13B O2B 1_555 1_555
C4 C5 1_555 1_555
C11 C12 1_555 1_555
N1B C5B 1_555 1_555
C4B C5B 1_555 1_555
C4B C6B 1_555 1_555

#END
