
#######################################################################
#
#                 Cambridge Crystallographic Data Centre
#                                CCDC 
#
#######################################################################
#
# If this CIF has been generated from an entry in the Cambridge 
# Structural Database, then it will include bibliographic, chemical, 
# crystal, experimental, refinement or atomic coordinate data resulting 
# from the CCDC's data processing and validation procedures.
#
#######################################################################

data_MODKIZ
_chemical_formula_moiety         'C18 H22 Cl1 N3 O2'
_chemical_name_systematic        
'Ethyl (2E)-3-(4-chlorophenyl)-2-cyano-5,5-bis(dimethylamino)-2,4-pentadienoate'
_symmetry_cell_setting           triclinic
_symmetry_space_group_name_H-M   'P -1'
_symmetry_Int_Tables_number      2
_space_group_name_Hall           '-P 1'
loop_
_symmetry_equiv_pos_site_id
_symmetry_equiv_pos_as_xyz
1 x,y,z
2 -x,-y,-z
_cell_length_a                   9.8380(6)
_cell_length_b                   10.0950(5)
_cell_length_c                   11.5722(6)
_cell_angle_alpha                69.649(5)
_cell_angle_beta                 68.819(4)
_cell_angle_gamma                62.700(4)
_cell_volume                     929.014
_exptl_crystal_colour            yellow
_chemical_melting_point          187deg.C(dec.)
_cell_formula_units_Z            2
_exptl_crystal_recrystallization_method 'ethyl acetate'
loop_
_atom_site_label
_atom_site_type_symbol
_atom_site_fract_x
_atom_site_fract_y
_atom_site_fract_z
Cl1 Cl 0.3224(1) 0.8538(1) 0.0695(1)
O1 O 0.2656(2) 0.1538(2) 0.7977(2)
C1 C 0.2157(2) 0.3939(3) 0.6482(2)
N1 N 0.0494(4) 0.6791(3) 0.6394(3)
C2 C 0.3354(2) 0.3486(3) 0.5377(2)
O2 O 0.0913(2) 0.3704(2) 0.8625(2)
N2 N 0.5748(2) 0.1854(2) 0.3176(2)
N3 N 0.7269(2) 0.0679(2) 0.4636(2)
C3 C 0.4538(3) 0.2050(3) 0.5405(2)
C4 C 0.5848(3) 0.1540(3) 0.4380(2)
C5 C 0.1980(3) 0.2921(3) 0.7714(2)
C6 C 0.1223(3) 0.5513(3) 0.6440(2)
C7 C 0.0703(4) 0.2825(4) 0.9928(3)
C8 C 0.1907(6) 0.2633(5) 1.0537(4)
C9 C 0.4344(3) 0.2076(3) 0.2858(3)
C10 C 0.6998(4) 0.2130(4) 0.2087(3)
C11 C 0.7659(3) 0.0752(4) 0.5713(3)
C12 C 0.8513(3) -0.0456(4) 0.3922(3)
C13 C 0.3335(2) 0.4702(3) 0.4193(2)
C14 C 0.2012(3) 0.5485(3) 0.3688(2)
C15 C 0.1986(3) 0.6638(3) 0.2602(2)
C16 C 0.3283(3) 0.7024(3) 0.2014(2)
C17 C 0.4620(3) 0.6263(3) 0.2479(2)
C18 C 0.4642(3) 0.5105(3) 0.3559(2)
H1 H 0.4478(3) 0.1339(3) 0.6173(2)
H2 H 0.0785(4) 0.1827(4) 0.9937(3)
H3 H -0.0343(4) 0.3341(4) 1.0416(3)
H4 H 0.1736(6) 0.2050(5) 1.1393(4)
H5 H 0.1816(6) 0.3619(5) 1.0543(4)
H6 H 0.2943(6) 0.2107(5) 1.0065(4)
H7 H 0.4522(3) 0.2287(3) 0.1952(3)
H8 H 0.3468(3) 0.2921(3) 0.3178(3)
H9 H 0.4115(3) 0.1168(3) 0.3234(3)
H13 H 0.6708(4) 0.2332(4) 0.1317(3)
H14 H 0.7960(4) 0.1244(4) 0.2118(3)
H15 H 0.7148(4) 0.2994(4) 0.2110(3)
H19 H 0.8723(3) 0.0057(4) 0.5738(3)
H20 H 0.6951(3) 0.0474(4) 0.6488(3)
H21 H 0.7561(3) 0.1773(4) 0.5621(3)
H25 H 0.9424(3) -0.0934(4) 0.4266(3)
H26 H 0.8788(3) 0.0036(4) 0.3046(3)
H27 H 0.8146(3) -0.1216(4) 0.3984(3)
H31 H 0.1132(3) 0.5227(3) 0.4088(2)
H32 H 0.1098(3) 0.7148(3) 0.2273(2)
H33 H 0.5496(3) 0.6527(3) 0.2070(2)
H34 H 0.5545(3) 0.4584(3) 0.3870(2)
H10? H 0.3548(3) 0.1963(3) 0.3624(3)
H11? H 0.4602(3) 0.1329(3) 0.2398(3)
H12? H 0.3955(3) 0.3082(3) 0.2342(3)
H16? H 0.7836(4) 0.2048(4) 0.2380(3)
H17? H 0.6585(4) 0.3136(4) 0.1579(3)
H18? H 0.7396(4) 0.1386(4) 0.1586(3)
H22? H 0.6767(3) 0.1479(4) 0.6160(3)
H23? H 0.8539(3) 0.1062(4) 0.5409(3)
H24? H 0.7929(3) -0.0237(4) 0.6277(3)
H28? H 0.8148(3) -0.0475(4) 0.3265(3)
H29? H 0.8784(3) -0.1445(4) 0.4485(3)
H30? H 0.9426(3) -0.0193(4) 0.3547(3)
loop_
_geom_bond_atom_site_label_1
_geom_bond_atom_site_label_2
_geom_bond_site_symmetry_1
_geom_bond_site_symmetry_2
Cl1 C16 1_555 1_555
O1 C5 1_555 1_555
C1 C2 1_555 1_555
N1 C6 1_555 1_555
C2 C3 1_555 1_555
O2 C5 1_555 1_555
N2 C4 1_555 1_555
N3 C4 1_555 1_555
C3 C4 1_555 1_555
C5 C1 1_555 1_555
C6 C1 1_555 1_555
C7 O2 1_555 1_555
C8 C7 1_555 1_555
C9 N2 1_555 1_555
C10 N2 1_555 1_555
C11 N3 1_555 1_555
C12 N3 1_555 1_555
C13 C2 1_555 1_555
C14 C13 1_555 1_555
C15 C14 1_555 1_555
C16 C15 1_555 1_555
C17 C16 1_555 1_555
C18 C13 1_555 1_555
H1 C3 1_555 1_555
H2 C7 1_555 1_555
H3 C7 1_555 1_555
H4 C8 1_555 1_555
H5 C8 1_555 1_555
H6 C8 1_555 1_555
H7 C9 1_555 1_555
H8 C9 1_555 1_555
H9 C9 1_555 1_555
H13 C10 1_555 1_555
H14 C10 1_555 1_555
H15 C10 1_555 1_555
H19 C11 1_555 1_555
H20 C11 1_555 1_555
H21 C11 1_555 1_555
H25 C12 1_555 1_555
H26 C12 1_555 1_555
H27 C12 1_555 1_555
H31 C14 1_555 1_555
H32 C15 1_555 1_555
H33 C17 1_555 1_555
H34 C18 1_555 1_555
C17 C18 1_555 1_555

#END
