
#######################################################################
#
#                 Cambridge Crystallographic Data Centre
#                                CCDC 
#
#######################################################################
#
# If this CIF has been generated from an entry in the Cambridge 
# Structural Database, then it will include bibliographic, chemical, 
# crystal, experimental, refinement or atomic coordinate data resulting 
# from the CCDC's data processing and validation procedures.
#
#######################################################################

data_MODKUL
_chemical_formula_moiety         'C20 H37 N3 O3 Si1'
_chemical_name_systematic        
'Ethyl (2E)-2-cyano-5,5-bis(N,N-dimethylamino)-3-(1-ethyl-1-(trimethylsilyloxy)propyl)-2,4-pentadienoate'
_symmetry_cell_setting           orthorhombic
_symmetry_space_group_name_H-M   'P n a 21'
_symmetry_Int_Tables_number      33
_space_group_name_Hall           'P 2c -2n'
loop_
_symmetry_equiv_pos_site_id
_symmetry_equiv_pos_as_xyz
1 x,y,z
2 -x,-y,1/2+z
3 1/2-x,1/2+y,1/2+z
4 1/2+x,1/2-y,z
_cell_length_a                   14.780(2)
_cell_length_b                   12.319(2)
_cell_length_c                   13.283(2)
_cell_angle_alpha                90
_cell_angle_beta                 90
_cell_angle_gamma                90
_cell_volume                     2418.5
_exptl_crystal_colour            orange
_chemical_melting_point          128deg.C
_cell_formula_units_Z            4
_exptl_crystal_recrystallization_method 'ethyl acetate'
loop_
_atom_site_label
_atom_site_type_symbol
_atom_site_fract_x
_atom_site_fract_y
_atom_site_fract_z
Si1 Si 0.1333(1) 0.2181(1) 0.6794(1)
O1 O 0.1735(1) 0.0965(1) 0.7001(1)
N1 N 0.1177(1) -0.2889(1) 0.7701(2)
C1 C 0.0427(3) 0.1961(4) 0.5865(4)
O2 O 0.2881(2) -0.2858(2) 0.6496(2)
N2 N 0.0862(2) -0.2544(2) 0.6026(2)
C2 C 0.0825(4) 0.2784(3) 0.7960(4)
O3 O 0.3826(2) -0.3140(2) 0.7783(2)
N3 N 0.4227(2) -0.0914(2) 0.9079(2)
C3 C 0.2185(3) 0.3148(3) 0.6297(4)
C4 C 0.3356(2) 0.0713(2) 0.6810(4)
C5 C 0.3307(3) 0.0338(3) 0.5738(3)
C6 C 0.2611(2) 0.0907(2) 0.8524(3)
C7 C 0.1896(4) 0.0543(3) 0.9258(3)
C8 C 0.2507(2) 0.0463(2) 0.7450(2)
C9 C 0.2342(1) -0.0781(1) 0.7423(2)
C10 C 0.1560(1) -0.1126(1) 0.6985(2)
C11 C 0.1216(1) -0.2226(2) 0.6911(2)
C12 C 0.3050(1) -0.1499(2) 0.7763(2)
C13 C 0.3692(2) -0.1186(2) 0.8489(2)
C14 C 0.3206(2) -0.2532(2) 0.7274(2)
C15 C 0.4037(3) -0.4187(2) 0.7346(4)
C16 C 0.4091(7) -0.4971(3) 0.8139(6)
C17 C 0.1114(3) -0.1992(3) 0.5102(2)
C18 C 0.0121(2) -0.3329(3) 0.5927(3)
C19 C 0.1247(2) -0.4068(2) 0.7609(4)
C20 C 0.1227(2) -0.2496(3) 0.8731(2)
H1 H -0.0008(3) 0.1460(4) 0.6133(4)
H2 H 0.0681(3) 0.1669(4) 0.5258(4)
H3 H 0.0135(3) 0.2639(4) 0.5720(4)
H4 H 0.1291(4) 0.2903(3) 0.8451(4)
H5 H 0.0381(4) 0.2295(3) 0.8230(4)
H6 H 0.0542(4) 0.3463(3) 0.7797(4)
H7 H 0.2652(3) 0.3254(3) 0.6790(4)
H8 H 0.1899(3) 0.3830(3) 0.6154(4)
H9 H 0.2445(3) 0.2860(3) 0.5691(4)
H10 H 0.3457(2) 0.1491(2) 0.6815(4)
H11 H 0.3875(2) 0.0373(2) 0.7127(4)
H12 H 0.3859(3) 0.0524(3) 0.5397(3)
H13 H 0.2807(3) 0.0685(3) 0.5408(3)
H14 H 0.3226(3) -0.0435(3) 0.5721(3)
H15 H 0.3197(2) 0.0687(2) 0.8781(3)
H16 H 0.2605(2) 0.1693(2) 0.8495(3)
H17 H 0.2013(4) 0.0857(3) 0.9906(3)
H18 H 0.1906(4) -0.0234(3) 0.9311(3)
H19 H 0.1312(4) 0.0774(3) 0.9025(3)
H20 H 0.1201(1) -0.0589(1) 0.6696(2)
H21 H 0.3570(3) -0.4395(2) 0.6871(4)
H22 H 0.4609(3) -0.4151(2) 0.6990(4)
H23 H 0.4231(7) -0.5670(3) 0.7860(6)
H24 H 0.3521(7) -0.5006(3) 0.8485(6)
H25 H 0.4557(7) -0.4763(3) 0.8604(6)
H26 H 0.0802(3) -0.2319(3) 0.4545(2)
H27 H 0.1755(3) -0.2054(3) 0.5002(2)
H28 H 0.0951(3) -0.1240(3) 0.5148(2)
H29 H -0.0018(2) -0.3430(3) 0.5228(3)
H30 H -0.0404(2) -0.3060(3) 0.6272(3)
H31 H 0.0301(2) -0.4009(3) 0.6217(3)
H35 H 0.1203(2) -0.4393(2) 0.8264(4)
H36 H 0.1819(2) -0.4253(2) 0.7313(4)
H37 H 0.0767(2) -0.4333(2) 0.7190(4)
H41 H 0.1186(2) -0.3099(3) 0.9187(2)
H42 H 0.0736(2) -0.2003(3) 0.8854(2)
H43 H 0.1791(2) -0.2126(3) 0.8831(2)
H32? H -0.0062(2) -0.3569(3) 0.6583(3)
H33? H 0.0323(2) -0.3939(3) 0.5539(3)
H34? H -0.0381(2) -0.2990(3) 0.5594(3)
H38? H 0.1323(2) -0.4260(2) 0.6914(4)
H39? H 0.0706(2) -0.4400(2) 0.7865(4)
H40? H 0.1759(2) -0.4320(2) 0.7988(4)
H44? H 0.1289(2) -0.1720(3) 0.8728(2)
H45? H 0.1739(2) -0.2815(3) 0.9060(2)
H46? H 0.0684(2) -0.2693(3) 0.9084(2)
loop_
_geom_bond_atom_site_label_1
_geom_bond_atom_site_label_2
_geom_bond_site_symmetry_1
_geom_bond_site_symmetry_2
Si1 O1 1_555 1_555
O1 C8 1_555 1_555
N1 C11 1_555 1_555
C1 Si1 1_555 1_555
O2 C14 1_555 1_555
N2 C11 1_555 1_555
C2 Si1 1_555 1_555
O3 C14 1_555 1_555
N3 C13 1_555 1_555
C3 Si1 1_555 1_555
C4 C5 1_555 1_555
C5 H12 1_555 1_555
C6 C7 1_555 1_555
C7 H17 1_555 1_555
C8 C4 1_555 1_555
C9 C8 1_555 1_555
C10 C9 1_555 1_555
C11 C10 1_555 1_555
C12 C9 1_555 1_555
C13 C12 1_555 1_555
C14 C12 1_555 1_555
C15 O3 1_555 1_555
C16 C15 1_555 1_555
C17 N2 1_555 1_555
C18 N2 1_555 1_555
C19 N1 1_555 1_555
C20 N1 1_555 1_555
H1 C1 1_555 1_555
H2 C1 1_555 1_555
H3 C1 1_555 1_555
H4 C2 1_555 1_555
H5 C2 1_555 1_555
H6 C2 1_555 1_555
H7 C3 1_555 1_555
H8 C3 1_555 1_555
H9 C3 1_555 1_555
H10 C4 1_555 1_555
H11 C4 1_555 1_555
H13 C5 1_555 1_555
H14 C5 1_555 1_555
H15 C6 1_555 1_555
H16 C6 1_555 1_555
H18 C7 1_555 1_555
H19 C7 1_555 1_555
H20 C10 1_555 1_555
H21 C15 1_555 1_555
H22 C15 1_555 1_555
H23 C16 1_555 1_555
H24 C16 1_555 1_555
H25 C16 1_555 1_555
H26 C17 1_555 1_555
H27 C17 1_555 1_555
H28 C17 1_555 1_555
H29 C18 1_555 1_555
H30 C18 1_555 1_555
H31 C18 1_555 1_555
H35 C19 1_555 1_555
H36 C19 1_555 1_555
H37 C19 1_555 1_555
H41 C20 1_555 1_555
H42 C20 1_555 1_555
H43 C20 1_555 1_555
C6 C8 1_555 1_555

#END
