
#######################################################################
#
#                 Cambridge Crystallographic Data Centre
#                                CCDC 
#
#######################################################################
#
# If this CIF has been generated from an entry in the Cambridge 
# Structural Database, then it will include bibliographic, chemical, 
# crystal, experimental, refinement or atomic coordinate data resulting 
# from the CCDC's data processing and validation procedures.
#
#######################################################################

data_MODKAT
_chemical_formula_moiety         'C76 H66'
_chemical_name_systematic        
2,5,8,11,14-Penta-t-butyl-16,17-(9,10-dihydroanthracene-9,10-diyl)hexabenzo[bc,ef,hi,kl,no,qr]coronene
_symmetry_cell_setting           triclinic
_symmetry_space_group_name_H-M   'P -1'
_symmetry_Int_Tables_number      2
_space_group_name_Hall           '-P 1'
loop_
_symmetry_equiv_pos_site_id
_symmetry_equiv_pos_as_xyz
1 x,y,z
2 -x,-y,-z
_cell_length_a                   10.200(6)
_cell_length_b                   17.444(11)
_cell_length_c                   23.569(15)
_cell_angle_alpha                98.346(9)
_cell_angle_beta                 90.707(9)
_cell_angle_gamma                94.151(9)
_cell_volume                     4137.2
_cell_formula_units_Z            2
loop_
_atom_site_label
_atom_site_type_symbol
_atom_site_fract_x
_atom_site_fract_y
_atom_site_fract_z
C1 C 1.1090(4) 0.4483(2) 0.10430(18)
C2 C 1.1353(4) 0.5230(3) 0.08954(18)
H1 H 1.1734 0.5279 0.0544
C3 C 1.1070(4) 0.5896(2) 0.12511(17)
C4 C 1.0340(4) 0.5820(2) 0.17608(16)
C5 C 1.0095(4) 0.5081(2) 0.19171(18)
C6 C 1.0498(4) 0.4437(2) 0.15558(19)
H2 H 1.0356 0.3950 0.1670
C7 C 1.1384(4) 0.6665(2) 0.10999(18)
C8 C 1.2336(4) 0.6806(2) 0.06878(18)
C9 C 1.2432(4) 0.7523(3) 0.0492(2)
C10 C 1.1656(5) 0.8094(3) 0.0692(2)
H3 H 1.1680 0.8546 0.0525
C11 C 1.0795(4) 0.8011(2) 0.11622(18)
C12 C 1.0694(4) 0.7281(2) 0.13643(16)
C13 C 1.0071(4) 0.8643(2) 0.14188(18)
C14 C 1.0007(5) 0.9327(3) 0.1187(2)
H4 H 1.0456 0.9374 0.0852
C15 C 0.9326(6) 0.9934(3) 0.1424(2)
C16 C 0.8720(5) 0.9863(3) 0.1933(2)
H5 H 0.8285 1.0279 0.2113
C17 C 0.8729(5) 0.9184(3) 0.2195(2)
C18 C 0.9387(4) 0.8561(2) 0.19268(16)
C19 C 0.8094(5) 0.9152(2) 0.2730(2)
C20 C 0.7488(6) 0.9759(3) 0.3037(3)
H6 H 0.7494 1.0222 0.2883
C21 C 0.6881(7) 0.9734(3) 0.3548(3)
C22 C 0.6811(6) 0.9010(4) 0.3748(3)
H7 H 0.6370 0.8964 0.4085
C23 C 0.7364(6) 0.8366(3) 0.3468(2)
C24 C 0.8026(5) 0.8435(3) 0.29512(19)
C25 C 0.7269(6) 0.7639(3) 0.3689(2)
C26 C 0.6705(8) 0.7537(4) 0.4208(3)
H8 H 0.6421 0.7973 0.4434
C27 C 0.6538(9) 0.6842(5) 0.4410(3)
C28 C 0.7070(8) 0.6219(4) 0.4102(3)
H9 H 0.7020 0.5750 0.4247
C29 C 0.7692(6) 0.6256(3) 0.3575(2)
C30 C 0.7816(5) 0.6992(3) 0.3375(2)
C31 C 0.8197(5) 0.5587(3) 0.3261(2)
C32 C 0.8049(7) 0.4870(3) 0.3413(2)
H10 H 0.7589 0.4818 0.3745
C33 C 0.8523(7) 0.4205(4) 0.3117(3)
C34 C 0.9192(6) 0.4301(3) 0.2626(2)
H11 H 0.9510 0.3867 0.2411
C35 C 0.9416(5) 0.5013(2) 0.24382(18)
C36 C 0.8902(5) 0.5669(3) 0.27490(19)
C37 C 0.9920(4) 0.7201(2) 0.18626(16)
C38 C 0.9336(4) 0.7837(2) 0.21441(17)
C39 C 0.8621(4) 0.7768(2) 0.26526(18)
C40 C 0.8508(4) 0.7052(2) 0.28565(18)
C41 C 0.9062(4) 0.6410(2) 0.25576(16)
C42 C 0.9790(4) 0.6474(2) 0.20592(16)
C43 C 1.1471(5) 0.3787(3) 0.0651(2)
C44 C 1.2966(6) 0.3818(3) 0.0591(2)
H12 H 1.3280 0.4320 0.0504
H13 H 1.3186 0.3424 0.0286
H14 H 1.3368 0.3730 0.0944
C45 C 1.1000(7) 0.3025(3) 0.0846(3)
H15 H 1.1285 0.3027 0.1236
H16 H 1.1358 0.2603 0.0604
H17 H 1.0058 0.2963 0.0820
C46 C 1.0807(6) 0.3787(3) 0.0058(2)
H18 H 0.9875 0.3684 0.0084
H19 H 1.1147 0.3392 -0.0216
H20 H 1.0990 0.4285 -0.0064
C47 C 1.3471(5) 0.6308(3) 0.0473(2)
H21 H 1.3470 0.5815 0.0626
C48 C 1.3469(5) 0.7595(3) 0.0053(2)
H22 H 1.3463 0.8082 -0.0108
C49 C 1.3325(4) 0.6215(3) -0.0168(2)
C50 C 1.3341(5) 0.6904(3) -0.0391(2)
C51 C 1.3184(6) 0.6903(4) -0.0950(3)
H23 H 1.3158 0.7371 -0.1094
C52 C 1.3061(6) 0.6207(5) -0.1321(3)
H24 H 1.2979 0.6207 -0.1715
C53 C 1.3059(6) 0.5528(4) -0.1107(3)
H25 H 1.2969 0.5064 -0.1360
C54 C 1.3185(5) 0.5497(3) -0.0539(2)
H26 H 1.3179 0.5026 -0.0398
C55 C 1.4760(5) 0.7526(3) 0.0385(2)
C56 C 1.4716(5) 0.6830(3) 0.0612(2)
C57 C 1.5768(6) 0.6684(4) 0.0943(2)
H27 H 1.5756 0.6234 0.1112
C58 C 1.6830(7) 0.7216(6) 0.1016(3)
H28 H 1.7558 0.7117 0.1228
C59 C 1.6845(9) 0.7900(6) 0.0783(4)
H29 H 1.7569 0.8259 0.0853
C60 C 1.5825(7) 0.8058(4) 0.0454(3)
H30 H 1.5850 0.8507 0.0284
C61 C 0.9193(9) 1.0656(4) 0.1144(3)
C62 C 1.0613(12) 1.0867(12) 0.1023(8)
H31 H 1.1023 1.0418 0.0846
H32 H 1.1053 1.1065 0.1382
H33 H 1.0671 1.1259 0.0776
C63 C 0.831(2) 1.0412(17) 0.0616(8)
H34 H 0.8477 1.0782 0.0356
H35 H 0.7394 1.0371 0.0697
H36 H 0.8573 0.9914 0.0444
C64 C 0.858(2) 1.1293(12) 0.1526(10)
H37 H 0.8972 1.1413 0.1903
H38 H 0.7670 1.1118 0.1553
H39 H 0.8639 1.1751 0.1342
C65 C 0.6285(9) 1.0437(4) 0.3887(4)
C66 C 0.6372(18) 1.1149(8) 0.3621(7)
H40 H 0.5726 1.1487 0.3780
H41 H 0.6220 1.1020 0.3214
H42 H 0.7234 1.1407 0.3695
C67 C 0.706(2) 1.0567(12) 0.4480(8)
H43 H 0.7752 1.0969 0.4477
H44 H 0.7431 1.0091 0.4534
H45 H 0.6479 1.0713 0.4788
C68 C 0.4812(13) 1.0199(8) 0.4033(8)
H46 H 0.4385 1.0655 0.4185
H47 H 0.4808 0.9850 0.4312
H48 H 0.4351 0.9947 0.3691
C69 C 0.5939(11) 0.6774(6) 0.4999(4)
C70 C 0.5261(19) 0.7449(7) 0.5267(7)
H49 H 0.4490 0.7510 0.5045
H50 H 0.5848 0.7909 0.5288
H51 H 0.5013 0.7370 0.5647
C71 C 0.4944(18) 0.6053(9) 0.4904(8)
H52 H 0.4481 0.6009 0.5251
H53 H 0.5402 0.5594 0.4795
H54 H 0.4329 0.6110 0.4604
C72 C 0.7082(18) 0.6617(16) 0.5387(9)
H55 H 0.7643 0.7083 0.5495
H56 H 0.7583 0.6220 0.5189
H57 H 0.6719 0.6444 0.5725
C73 C 0.8292(9) 0.3389(5) 0.3296(3)
C74 C 0.7462(17) 0.3355(7) 0.3806(6)
H58 H 0.7413 0.2838 0.3904
H59 H 0.6594 0.3493 0.3723
H60 H 0.7844 0.3713 0.4123
C75 C 0.7770(19) 0.2822(8) 0.2774(5)
H61 H 0.7638 0.2310 0.2877
H62 H 0.8395 0.2818 0.2472
H63 H 0.6950 0.2980 0.2644
C76 C 0.9692(12) 0.3200(12) 0.3457(10)
H64 H 0.9920 0.3452 0.3838
H65 H 1.0305 0.3385 0.3192
H66 H 0.9723 0.2649 0.3440
C77? C 0.939(3) 1.1364(10) 0.1620(9)
H67? H 1.0279 1.1403 0.1766
H68? H 0.8795 1.1288 0.1923
H69? H 0.9220 1.1834 0.1474
C78? C 1.0153(14) 1.0783(7) 0.0694(5)
H70? H 0.9964 1.1236 0.0529
H71? H 1.0105 1.0339 0.0399
H72? H 1.1021 1.0857 0.0865
C79? C 0.7767(15) 1.0597(18) 0.0930(14)
H73? H 0.7632 1.1018 0.0720
H74? H 0.7171 1.0614 0.1243
H75? H 0.7609 1.0112 0.0681
C80? C 0.5395(18) 1.0798(11) 0.3481(6)
H76? H 0.5157 1.1294 0.3667
H77? H 0.4615 1.0461 0.3382
H78? H 0.5864 1.0865 0.3139
C81? C 0.7518(14) 1.1054(9) 0.4033(8)
H79? H 0.7979 1.1109 0.3686
H80? H 0.8095 1.0876 0.4302
H81? H 0.7223 1.1547 0.4195
C82? C 0.566(2) 1.0336(9) 0.4443(7)
H82? H 0.6340 1.0281 0.4717
H83? H 0.5066 0.9879 0.4392
H84? H 0.5194 1.0781 0.4579
C83? C 0.4599(17) 0.7032(16) 0.4861(12)
H85? H 0.4143 0.7164 0.5211
H86? H 0.4099 0.6620 0.4619
H87? H 0.4709 0.7479 0.4667
C84? C 0.591(2) 0.6008(8) 0.5211(7)
H88? H 0.5613 0.6059 0.5598
H89? H 0.6782 0.5828 0.5199
H90? H 0.5328 0.5642 0.4969
C85? C 0.661(3) 0.7420(12) 0.5445(8)
H91? H 0.6295 0.7913 0.5395
H92? H 0.7539 0.7434 0.5388
H93? H 0.6423 0.7315 0.5825
C86? C 0.6808(12) 0.3230(13) 0.3311(12)
H94? H 0.6612 0.2722 0.3414
H95? H 0.6428 0.3252 0.2940
H96? H 0.6449 0.3611 0.3590
C87? C 0.894(2) 0.2759(8) 0.2935(8)
H97? H 0.9009 0.2329 0.3144
H98? H 0.9808 0.2953 0.2843
H99? H 0.8437 0.2591 0.2588
C88? C 0.886(3) 0.3527(15) 0.3910(7)
H100? H 0.8772 0.4058 0.4072
H101? H 0.9780 0.3432 0.3902
H102? H 0.8408 0.3188 0.4140
loop_
_geom_bond_atom_site_label_1
_geom_bond_atom_site_label_2
_geom_bond_site_symmetry_1
_geom_bond_site_symmetry_2
C1 C2 1_555 1_555
C2 H1 1_555 1_555
C3 C2 1_555 1_555
C4 C3 1_555 1_555
C5 C4 1_555 1_555
C6 C1 1_555 1_555
H2 C6 1_555 1_555
C7 C3 1_555 1_555
C8 C7 1_555 1_555
C9 C8 1_555 1_555
C10 C9 1_555 1_555
H3 C10 1_555 1_555
C11 C10 1_555 1_555
C12 C7 1_555 1_555
C13 C11 1_555 1_555
C14 C13 1_555 1_555
H4 C14 1_555 1_555
C15 C14 1_555 1_555
C16 C15 1_555 1_555
H5 C16 1_555 1_555
C17 C16 1_555 1_555
C18 C13 1_555 1_555
C19 C17 1_555 1_555
C20 C19 1_555 1_555
H6 C20 1_555 1_555
C21 C20 1_555 1_555
C22 C21 1_555 1_555
H7 C22 1_555 1_555
C23 C22 1_555 1_555
C24 C19 1_555 1_555
C25 C23 1_555 1_555
C26 C25 1_555 1_555
H8 C26 1_555 1_555
C27 C26 1_555 1_555
C28 C27 1_555 1_555
H9 C28 1_555 1_555
C29 C28 1_555 1_555
C30 C25 1_555 1_555
C31 C29 1_555 1_555
C32 C31 1_555 1_555
H10 C32 1_555 1_555
C33 C32 1_555 1_555
C34 C33 1_555 1_555
H11 C34 1_555 1_555
C35 C5 1_555 1_555
C36 C31 1_555 1_555
C37 C12 1_555 1_555
C38 C18 1_555 1_555
C39 C24 1_555 1_555
C40 C30 1_555 1_555
C41 C36 1_555 1_555
C42 C4 1_555 1_555
C43 C1 1_555 1_555
C44 C43 1_555 1_555
H12 C44 1_555 1_555
H13 C44 1_555 1_555
H14 C44 1_555 1_555
C45 C43 1_555 1_555
H15 C45 1_555 1_555
H16 C45 1_555 1_555
H17 C45 1_555 1_555
C46 C43 1_555 1_555
H18 C46 1_555 1_555
H19 C46 1_555 1_555
H20 C46 1_555 1_555
C47 C8 1_555 1_555
H21 C47 1_555 1_555
C48 C9 1_555 1_555
H22 C48 1_555 1_555
C49 C47 1_555 1_555
C50 C48 1_555 1_555
C51 C50 1_555 1_555
H23 C51 1_555 1_555
C52 C51 1_555 1_555
H24 C52 1_555 1_555
C53 C52 1_555 1_555
H25 C53 1_555 1_555
C54 C49 1_555 1_555
H26 C54 1_555 1_555
C55 C48 1_555 1_555
C56 C47 1_555 1_555
C57 C56 1_555 1_555
H27 C57 1_555 1_555
C58 C57 1_555 1_555
H28 C58 1_555 1_555
C59 C58 1_555 1_555
H29 C59 1_555 1_555
C60 C55 1_555 1_555
H30 C60 1_555 1_555
C61 C15 1_555 1_555
C62 C61 1_555 1_555
H31 C62 1_555 1_555
H32 C62 1_555 1_555
H33 C62 1_555 1_555
C63 C61 1_555 1_555
H34 C63 1_555 1_555
H35 C63 1_555 1_555
H36 C63 1_555 1_555
C64 C61 1_555 1_555
H37 C64 1_555 1_555
H38 C64 1_555 1_555
H39 C64 1_555 1_555
C65 C21 1_555 1_555
C66 C65 1_555 1_555
H40 C66 1_555 1_555
H41 C66 1_555 1_555
H42 C66 1_555 1_555
C67 C65 1_555 1_555
H43 C67 1_555 1_555
H44 C67 1_555 1_555
H45 C67 1_555 1_555
C68 C65 1_555 1_555
H46 C68 1_555 1_555
H47 C68 1_555 1_555
H48 C68 1_555 1_555
C69 C27 1_555 1_555
C70 C69 1_555 1_555
H49 C70 1_555 1_555
H50 C70 1_555 1_555
H51 C70 1_555 1_555
C71 C69 1_555 1_555
H52 C71 1_555 1_555
H53 C71 1_555 1_555
H54 C71 1_555 1_555
C72 C69 1_555 1_555
H55 C72 1_555 1_555
H56 C72 1_555 1_555
H57 C72 1_555 1_555
C73 C33 1_555 1_555
C74 C73 1_555 1_555
H58 C74 1_555 1_555
H59 C74 1_555 1_555
H60 C74 1_555 1_555
C75 C73 1_555 1_555
H61 C75 1_555 1_555
H62 C75 1_555 1_555
H63 C75 1_555 1_555
C76 C73 1_555 1_555
H64 C76 1_555 1_555
H65 C76 1_555 1_555
H66 C76 1_555 1_555
C5 C6 1_555 1_555
C11 C12 1_555 1_555
C17 C18 1_555 1_555
C23 C24 1_555 1_555
C29 C30 1_555 1_555
C34 C35 1_555 1_555
C35 C36 1_555 1_555
C37 C38 1_555 1_555
C37 C42 1_555 1_555
C38 C39 1_555 1_555
C39 C40 1_555 1_555
C40 C41 1_555 1_555
C41 C42 1_555 1_555
C49 C50 1_555 1_555
C53 C54 1_555 1_555
C55 C56 1_555 1_555
C59 C60 1_555 1_555

#END
