
#######################################################################
#
#                 Cambridge Crystallographic Data Centre
#                                CCDC 
#
#######################################################################
#
# If this CIF has been generated from an entry in the Cambridge 
# Structural Database, then it will include bibliographic, chemical, 
# crystal, experimental, refinement or atomic coordinate data resulting 
# from the CCDC's data processing and validation procedures.
#
#######################################################################

data_MODMOJ
_chemical_formula_moiety         'C23 H26 N2 O4 S1'
_chemical_name_systematic        
'Methyl 16-((4-methylphenyl)sulfonyl)-8,16-diazatetracyclo[7.4.3.0^1,9^.0^2,7^]hexadeca-2,4,6-triene-13-carboxylate'
_symmetry_cell_setting           triclinic
_symmetry_space_group_name_H-M   'P -1'
_symmetry_Int_Tables_number      2
_space_group_name_Hall           '-P 1'
loop_
_symmetry_equiv_pos_site_id
_symmetry_equiv_pos_as_xyz
1 x,y,z
2 -x,-y,-z
_cell_length_a                   8.6117(2)
_cell_length_b                   11.5635(3)
_cell_length_c                   12.3095(3)
_cell_angle_alpha                113.4110(10)
_cell_angle_beta                 99.1470(10)
_cell_angle_gamma                104.6650(10)
_cell_volume                     1040.69
_exptl_crystal_colour            colorless
_exptl_crystal_description       block
_cell_formula_units_Z            2
loop_
_atom_site_label
_atom_site_type_symbol
_atom_site_fract_x
_atom_site_fract_y
_atom_site_fract_z
S1 S 0.83407(3) 1.16257(2) 0.45378(2)
O1 O 0.27830(12) 0.51267(8) -0.11269(8)
O2 O 0.32607(11) 0.71570(8) -0.10341(7)
O3 O 0.77212(10) 1.27112(7) 0.50445(7)
O4 O 0.87715(9) 1.09806(7) 0.52745(6)
N1 N 0.69627(10) 1.04708(8) 0.32696(7)
N2 N 0.79735(10) 0.85396(8) 0.28178(7)
H1 H 0.8710 0.8832 0.3501
C1 C 0.16164(17) 0.45575(11) -0.23465(11)
H2 H 0.1157 0.3577 -0.2688
H3 H 0.2202 0.4794 -0.2890
H4 H 0.0700 0.4917 -0.2286
C2 C 0.34830(11) 0.64690(9) -0.05452(9)
C3 C 0.45206(11) 0.69488(9) 0.07730(8)
H5 H 0.5277 0.6411 0.0712
C4 C 0.56872(10) 0.84468(8) 0.13940(8)
C5 C 0.65346(11) 0.89679(9) 0.28065(8)
C6 C 1.01505(12) 1.22893(9) 0.41698(8)
C7 C 1.13919(12) 1.17148(9) 0.41175(9)
H6 H 1.1255 1.0944 0.4250
C8 C 1.28362(13) 1.22807(10) 0.38693(9)
H7 H 1.3690 1.1896 0.3841
C9 C 1.30513(13) 1.34059(9) 0.36603(9)
C10 C 1.46232(15) 1.40243(11) 0.34033(11)
H8 H 1.4971 1.5007 0.3841
H9 H 1.4403 1.3728 0.2511
H10 H 1.5519 1.3741 0.3690
C11 C 0.62637(12) 1.08256(9) 0.23200(8)
H11 H 0.7127 1.1130 0.1954
H12 H 0.5780 1.1535 0.2666
C12 C 0.49051(11) 0.94915(9) 0.13719(9)
H13 H 0.4657 0.9447 0.0540
H14 H 0.3858 0.9359 0.1616
C13 C 0.85029(11) 0.85101(9) 0.17897(8)
C14 C 0.72241(11) 0.85068(9) 0.09272(8)
C15 C 0.74485(12) 0.84569(9) -0.01802(8)
H15 H 0.6593 0.8475 -0.0758
C16 C 0.89547(13) 0.83790(11) -0.04301(9)
H16 H 0.9131 0.8347 -0.1183
C17 C 1.02029(12) 0.83483(11) 0.04221(9)
H17 H 1.1209 0.8270 0.0230
C18 C 1.00049(12) 0.84294(10) 0.15510(9)
H18 H 1.0869 0.8429 0.2136
C19 C 0.54099(12) 0.85034(10) 0.35028(9)
H19 H 0.6108 0.8741 0.4334
H20 H 0.4599 0.8983 0.3616
C20 C 0.44530(13) 0.69934(10) 0.28197(9)
H21 H 0.3722 0.6736 0.3291
H22 H 0.5257 0.6508 0.2754
C21 C 0.33832(12) 0.65948(10) 0.15263(10)
H23 H 0.2576 0.7077 0.1590
H24 H 0.2739 0.5617 0.1101
C22 C 1.03301(14) 1.34070(10) 0.39528(10)
H25 H 0.9473 1.3789 0.3979
C23 C 1.17759(14) 1.39522(10) 0.36989(10)
H26 H 1.1900 1.4711 0.3549
loop_
_geom_bond_atom_site_label_1
_geom_bond_atom_site_label_2
_geom_bond_site_symmetry_1
_geom_bond_site_symmetry_2
S1 O3 1_555 1_555
O1 C1 1_555 1_555
O2 C2 1_555 1_555
O4 S1 1_555 1_555
N1 S1 1_555 1_555
N2 H1 1_555 1_555
C1 H2 1_555 1_555
H3 C1 1_555 1_555
H4 C1 1_555 1_555
C2 O1 1_555 1_555
C3 C2 1_555 1_555
H5 C3 1_555 1_555
C4 C3 1_555 1_555
C5 N1 1_555 1_555
C6 S1 1_555 1_555
C7 C6 1_555 1_555
H6 C7 1_555 1_555
C8 C7 1_555 1_555
H7 C8 1_555 1_555
C9 C8 1_555 1_555
C10 C9 1_555 1_555
H8 C10 1_555 1_555
H9 C10 1_555 1_555
H10 C10 1_555 1_555
C11 N1 1_555 1_555
H11 C11 1_555 1_555
H12 C11 1_555 1_555
C12 C4 1_555 1_555
H13 C12 1_555 1_555
H14 C12 1_555 1_555
C13 N2 1_555 1_555
C14 C4 1_555 1_555
C15 C14 1_555 1_555
H15 C15 1_555 1_555
C16 C15 1_555 1_555
H16 C16 1_555 1_555
C17 C16 1_555 1_555
H17 C17 1_555 1_555
C18 C13 1_555 1_555
H18 C18 1_555 1_555
C19 C5 1_555 1_555
H19 C19 1_555 1_555
H20 C19 1_555 1_555
C20 C19 1_555 1_555
H21 C20 1_555 1_555
H22 C20 1_555 1_555
C21 C3 1_555 1_555
H23 C21 1_555 1_555
H24 C21 1_555 1_555
C22 C6 1_555 1_555
H25 C22 1_555 1_555
C23 C9 1_555 1_555
H26 C23 1_555 1_555
N2 C5 1_555 1_555
C4 C5 1_555 1_555
C11 C12 1_555 1_555
C13 C14 1_555 1_555
C17 C18 1_555 1_555
C20 C21 1_555 1_555
C22 C23 1_555 1_555

#END
