
#######################################################################
#
#                 Cambridge Crystallographic Data Centre
#                                CCDC 
#
#######################################################################
#
# If this CIF has been generated from an entry in the Cambridge 
# Structural Database, then it will include bibliographic, chemical, 
# crystal, experimental, refinement or atomic coordinate data resulting 
# from the CCDC's data processing and validation procedures.
#
#######################################################################

data_MODPIG
_chemical_formula_moiety         'C12 H12 Br1 Cl1 N2 O1'
_chemical_name_systematic        
1-(5-(bromomethyl)-3-(4-chlorophenyl)-2,5-dihydro-1H-pyrazol-1-yl)ethanone
_symmetry_cell_setting           monoclinic
_symmetry_space_group_name_H-M   'P 21/n'
_symmetry_Int_Tables_number      14
_space_group_name_Hall           '-P 2yn'
loop_
_symmetry_equiv_pos_site_id
_symmetry_equiv_pos_as_xyz
1 x,y,z
2 1/2-x,1/2+y,1/2-z
3 -x,-y,-z
4 1/2+x,1/2-y,1/2+z
_cell_length_a                   5.3163(16)
_cell_length_b                   15.218(5)
_cell_length_c                   15.904(5)
_cell_angle_alpha                90
_cell_angle_beta                 99.62
_cell_angle_gamma                90
_cell_volume                     1268.59
_cell_formula_units_Z            4
loop_
_atom_site_label
_atom_site_type_symbol
_atom_site_fract_x
_atom_site_fract_y
_atom_site_fract_z
Br1 Br 0.75655(6) 0.00691(2) 0.10680(2)
C1 C 0.7355(6) 0.22659(19) 0.49194(18)
C2 C 0.6510(6) 0.1422(2) 0.4974(2)
H1 H 0.5368 0.1281 0.5336
C3 C 0.7391(6) 0.07830(18) 0.44775(19)
H2 H 0.6823 0.0208 0.4507
C4 C 0.9115(5) 0.09830(18) 0.39331(16)
C5 C 0.9990(6) 0.18406(19) 0.39176(19)
H3 H 1.1171 0.1984 0.3569
C6 C 0.9134(6) 0.2481(2) 0.4410(2)
H4 H 0.9745 0.3053 0.4401
C7 C 0.9934(6) 0.03232(19) 0.33742(17)
C8 C 1.1833(6) 0.0481(2) 0.2778(2)
H5 H 1.2741 0.0990 0.2708
C9 C 1.1899(6) -0.0392(2) 0.23220(19)
H6 H 1.3632 -0.0632 0.2445
C10 C 0.9907(6) -0.1821(2) 0.2660(2)
C11 C 0.8045(7) -0.2258(2) 0.3125(2)
H7 H 0.6343 -0.2090 0.2875
H8 H 0.8370 -0.2082 0.3713
H9 H 0.8220 -0.2884 0.3088
C12 C 1.1031(6) -0.0374(2) 0.13698(19)
H10 H 1.1114 -0.0963 0.1144
H11 H 1.2175 -0.0004 0.1110
Cl1 Cl 0.6156(2) 0.30802(5) 0.55120(6)
N1 N 0.9050(5) -0.04665(15) 0.33420(15)
N2 N 1.0190(5) -0.09345(16) 0.27589(15)
O1 O 1.1167(5) -0.22051(16) 0.21951(16)
loop_
_geom_bond_atom_site_label_1
_geom_bond_atom_site_label_2
_geom_bond_site_symmetry_1
_geom_bond_site_symmetry_2
Br1 C12 1_555 1_555
C1 C2 1_555 1_555
C2 H1 1_555 1_555
C3 C2 1_555 1_555
H2 C3 1_555 1_555
C4 C3 1_555 1_555
C5 C4 1_555 1_555
H3 C5 1_555 1_555
C6 C1 1_555 1_555
H4 C6 1_555 1_555
C7 C4 1_555 1_555
C8 C7 1_555 1_555
H5 C8 1_555 1_555
C9 C8 1_555 1_555
H6 C9 1_555 1_555
C10 C11 1_555 1_555
C11 H7 1_555 1_555
H8 C11 1_555 1_555
H9 C11 1_555 1_555
C12 C9 1_555 1_555
H10 C12 1_555 1_555
H11 C12 1_555 1_555
Cl1 C1 1_555 1_555
N1 C7 1_555 1_555
N2 C9 1_555 1_555
O1 C10 1_555 1_555
C5 C6 1_555 1_555
C10 N2 1_555 1_555
N1 N2 1_555 1_555

#END
