
#######################################################################
#
#                 Cambridge Crystallographic Data Centre
#                                CCDC 
#
#######################################################################
#
# If this CIF has been generated from an entry in the Cambridge 
# Structural Database, then it will include bibliographic, chemical, 
# crystal, experimental, refinement or atomic coordinate data resulting 
# from the CCDC's data processing and validation procedures.
#
#######################################################################

data_MODPAX
_chemical_formula_moiety         'C8 H10 O5,C7 H6 N2 S1'
_chemical_name_systematic        
'rac-7-Oxabicyclo(2.2.1)heptane-2,3-dicarboxylic acid 2-aminobenzothiazole'
_symmetry_cell_setting           triclinic
_symmetry_space_group_name_H-M   'P -1'
_symmetry_Int_Tables_number      2
_space_group_name_Hall           '-P 1'
loop_
_symmetry_equiv_pos_site_id
_symmetry_equiv_pos_as_xyz
1 x,y,z
2 -x,-y,-z
_cell_length_a                   8.30820(10)
_cell_length_b                   9.04280(10)
_cell_length_c                   11.0438(2)
_cell_angle_alpha                67.1546(8)
_cell_angle_beta                 83.0101(8)
_cell_angle_gamma                86.9193(9)
_cell_volume                     758.926
_exptl_crystal_colour            colorless
_exptl_crystal_description       block
_cell_formula_units_Z            2
loop_
_atom_site_label
_atom_site_type_symbol
_atom_site_fract_x
_atom_site_fract_y
_atom_site_fract_z
S1 S 0.41626(8) 0.33690(10) 0.46435(8)
N1 N 0.5173(3) 0.4819(3) 0.2070(3)
H1 H 0.5827 0.4957 0.1369
H2 H 0.4338 0.5433 0.2033
N2 N 0.6705(2) 0.2670(2) 0.33434(19)
C9 C 0.5451(3) 0.3664(3) 0.3202(3)
C10 C 0.6687(3) 0.1569(3) 0.4631(2)
C11 C 0.7797(4) 0.0351(3) 0.5088(3)
H13 H 0.8695 0.0243 0.4536
C12 C 0.7536(5) -0.0717(4) 0.6404(3)
H14 H 0.8273 -0.1547 0.6738
C13 C 0.6181(5) -0.0553(4) 0.7222(3)
H15 H 0.6013 -0.1294 0.8089
C14 C 0.5100(5) 0.0671(5) 0.6778(3)
H16 H 0.4208 0.0778 0.7335
C15 C 0.5351(3) 0.1745(3) 0.5489(3)
O1 O 0.2197(2) 0.5380(2) -0.00822(19)
O2 O 0.28892(19) 1.05947(19) -0.01033(17)
H3 H 0.385(2) 1.090(4) -0.025(3)
O3 O 0.1725(2) 0.7920(2) -0.13815(17)
H4 H 0.227(4) 0.770(4) -0.200(3)
O4 O 0.40832(17) 0.81995(19) 0.06576(18)
O5 O 0.17176(18) 0.58165(18) 0.27645(15)
C1 C 0.2856(2) 0.9053(2) 0.0535(2)
C2 C 0.1220(2) 0.8368(2) 0.1213(2)
H5 H 0.0424 0.9240 0.1093
C3 C 0.1319(3) 0.7405(3) 0.2703(2)
H6 H 0.2094 0.7840 0.3079
C4 C -0.0397(3) 0.7220(3) 0.3424(2)
H7 H -0.1005 0.8219 0.3116
H8 H -0.0381 0.6847 0.4373
C5 C -0.1091(3) 0.5947(3) 0.3034(3)
H9 H -0.1388 0.4980 0.3802
H10 H -0.2028 0.6353 0.2554
C6 C 0.0343(3) 0.5643(3) 0.2149(2)
H11 H 0.0305 0.4601 0.2074
C7 C 0.0545(2) 0.7055(3) 0.0818(2)
H12 H -0.0530 0.7396 0.0525
C8 C 0.1598(3) 0.6691(3) -0.0256(2)
loop_
_geom_bond_atom_site_label_1
_geom_bond_atom_site_label_2
_geom_bond_site_symmetry_1
_geom_bond_site_symmetry_2
S1 C9 1_555 1_555
N1 H1 1_555 1_555
H2 N1 1_555 1_555
N2 C9 1_555 1_555
O1 C8 1_555 1_555
O2 H3 1_555 1_555
O3 H4 1_555 1_555
O4 C1 1_555 1_555
O5 C3 1_555 1_555
C1 O2 1_555 1_555
C2 C1 1_555 1_555
H5 C2 1_555 1_555
C3 C2 1_555 1_555
H6 C3 1_555 1_555
C4 C3 1_555 1_555
H7 C4 1_555 1_555
H8 C4 1_555 1_555
C5 C4 1_555 1_555
H9 C5 1_555 1_555
H10 C5 1_555 1_555
C6 O5 1_555 1_555
H11 C6 1_555 1_555
C7 C2 1_555 1_555
H12 C7 1_555 1_555
C8 O3 1_555 1_555
C9 N1 1_555 1_555
C10 N2 1_555 1_555
C11 C10 1_555 1_555
H13 C11 1_555 1_555
C12 C11 1_555 1_555
H14 C12 1_555 1_555
C13 C12 1_555 1_555
H15 C13 1_555 1_555
C14 C13 1_555 1_555
H16 C14 1_555 1_555
C15 S1 1_555 1_555
C5 C6 1_555 1_555
C6 C7 1_555 1_555
C7 C8 1_555 1_555
C10 C15 1_555 1_555
C14 C15 1_555 1_555

#END
