
#######################################################################
#
#                 Cambridge Crystallographic Data Centre
#                                CCDC 
#
#######################################################################
#
# If this CIF has been generated from an entry in the Cambridge 
# Structural Database, then it will include bibliographic, chemical, 
# crystal, experimental, refinement or atomic coordinate data resulting 
# from the CCDC's data processing and validation procedures.
#
#######################################################################

data_MODQEC
_chemical_formula_moiety         'C18 H14 N3 O1 1+,Cl1 O4 1-,C1 H4 O1'
_chemical_name_systematic        
'9-(2-Pyridylmethoxy)-1,10-phenanthrolin-1-ium perchlorate methanol solvate'
_symmetry_cell_setting           triclinic
_symmetry_space_group_name_H-M   'P -1'
_symmetry_Int_Tables_number      2
_space_group_name_Hall           '-P 1'
loop_
_symmetry_equiv_pos_site_id
_symmetry_equiv_pos_as_xyz
1 x,y,z
2 -x,-y,-z
_cell_length_a                   7.0765(15)
_cell_length_b                   10.597(2)
_cell_length_c                   14.164(3)
_cell_angle_alpha                110.003(3)
_cell_angle_beta                 94.999(3)
_cell_angle_gamma                105.304(3)
_cell_volume                     944.061
_exptl_crystal_colour            yellow
_exptl_crystal_description       block
_cell_formula_units_Z            2
loop_
_atom_site_label
_atom_site_type_symbol
_atom_site_fract_x
_atom_site_fract_y
_atom_site_fract_z
C1 C 0.2377(5) 0.4244(3) 0.6774(2)
H1 H 0.2292 0.4775 0.7435
C2 C 0.2448(5) 0.4829(3) 0.6041(3)
H2 H 0.2393 0.5744 0.6204
C3 C 0.2598(5) 0.4057(3) 0.5080(2)
H3 H 0.2663 0.4450 0.4584
C4 C 0.2655(4) 0.2661(3) 0.4831(2)
C5 C 0.2549(4) 0.2104(3) 0.55982(18)
C6 C 0.2521(3) 0.0678(3) 0.53855(18)
C7 C 0.2587(4) -0.0143(3) 0.43867(19)
C8 C 0.2705(4) 0.0441(3) 0.3616(2)
H4 H 0.2750 -0.0120 0.2955
C9 C 0.2753(4) 0.1789(3) 0.3827(2)
H5 H 0.2851 0.2153 0.3315
C10 C 0.2529(4) -0.1564(3) 0.4190(2)
H6 H 0.2592 -0.2151 0.3541
C11 C 0.2382(4) -0.2049(3) 0.4948(2)
H7 H 0.2333 -0.2976 0.4831
C12 C 0.2304(4) -0.1128(3) 0.59278(19)
C13 C 0.2012(4) -0.0886(3) 0.7665(2)
H8 H 0.1173 -0.1480 0.7956
H9 H 0.1426 -0.0160 0.7652
C14 C 0.4068(4) -0.0208(3) 0.8319(2)
C15 C 0.5178(5) -0.1004(3) 0.8526(2)
H10 H 0.4653 -0.1986 0.8265
C16 C 0.7067(5) -0.0345(4) 0.9121(3)
H11 H 0.7833 -0.0868 0.9270
C17 C 0.7788(6) 0.1094(4) 0.9488(3)
H12 H 0.9061 0.1570 0.9890
C18 C 0.6621(6) 0.1827(4) 0.9257(3)
H13 H 0.7132 0.2808 0.9511
N1 N 0.2429(3) 0.2941(2) 0.65502(16)
H17 H 0.2362 0.2694 0.7032
N2 N 0.2387(3) 0.0189(2) 0.61631(15)
N3 N 0.4780(4) 0.1207(3) 0.86832(19)
O1 O 0.2091(3) -0.17350(18) 0.66282(14)
C19 C 0.2308(7) 0.3748(4) 0.9157(3)
H14 H 0.2483 0.3543 0.9762
H15 H 0.1107 0.4000 0.9102
H16 H 0.3431 0.4521 0.9197
O6 O 0.2165(4) 0.2545(2) 0.82875(15)
H18 H 0.3072 0.2151 0.8417
Cl1 Cl 0.20777(12) 0.45705(7) 0.21213(5)
O2 O 0.2322(8) 0.5077(4) 0.3177(2)
O3 O 0.2709(7) 0.5724(3) 0.1857(3)
O4 O 0.3128(7) 0.3648(4) 0.1769(3)
O5 O 0.0081(6) 0.3882(4) 0.1659(3)
loop_
_geom_bond_atom_site_label_1
_geom_bond_atom_site_label_2
_geom_bond_site_symmetry_1
_geom_bond_site_symmetry_2
C1 H1 1_555 1_555
C2 C1 1_555 1_555
H2 C2 1_555 1_555
C3 C2 1_555 1_555
H3 C3 1_555 1_555
C4 C3 1_555 1_555
C5 C4 1_555 1_555
C6 C5 1_555 1_555
C7 C6 1_555 1_555
C8 C7 1_555 1_555
H4 C8 1_555 1_555
C9 C4 1_555 1_555
H5 C9 1_555 1_555
C10 C7 1_555 1_555
H6 C10 1_555 1_555
C11 C10 1_555 1_555
H7 C11 1_555 1_555
C12 C11 1_555 1_555
C13 H8 1_555 1_555
H9 C13 1_555 1_555
C14 C13 1_555 1_555
C15 C14 1_555 1_555
H10 C15 1_555 1_555
C16 C15 1_555 1_555
H11 C16 1_555 1_555
C17 C16 1_555 1_555
H12 C17 1_555 1_555
C18 C17 1_555 1_555
H13 C18 1_555 1_555
C19 H14 1_555 1_555
H15 C19 1_555 1_555
H16 C19 1_555 1_555
Cl1 O2 1_555 1_555
N1 C1 1_555 1_555
H17 N1 1_555 1_555
N2 C6 1_555 1_555
N3 C14 1_555 1_555
O1 C12 1_555 1_555
O3 Cl1 1_555 1_555
O4 Cl1 1_555 1_555
O5 Cl1 1_555 1_555
O6 C19 1_555 1_555
H18 O6 1_555 1_555
C5 N1 1_555 1_555
C8 C9 1_555 1_555
C12 N2 1_555 1_555
C13 O1 1_555 1_555
C18 N3 1_555 1_555

#END
