
#######################################################################
#
#                 Cambridge Crystallographic Data Centre
#                                CCDC 
#
#######################################################################
#
# If this CIF has been generated from an entry in the Cambridge 
# Structural Database, then it will include bibliographic, chemical, 
# crystal, experimental, refinement or atomic coordinate data resulting 
# from the CCDC's data processing and validation procedures.
#
#######################################################################

data_MODSAZ01
_chemical_formula_moiety         'C12 H16 N8'
_chemical_name_systematic        
3,6-bis(3,5-Dimethyl-1H-pyrazol-1-yl)-1,4-dihydro-1,2,4,5-tetrazine
_symmetry_cell_setting           monoclinic
_symmetry_space_group_name_H-M   'P 21/c'
_symmetry_Int_Tables_number      14
_space_group_name_Hall           '-P 2ybc'
loop_
_symmetry_equiv_pos_site_id
_symmetry_equiv_pos_as_xyz
1 x,y,z
2 -x,1/2+y,1/2-z
3 -x,-y,-z
4 x,1/2-y,1/2+z
_cell_length_a                   12.776(4)
_cell_length_b                   11.426(3)
_cell_length_c                   9.095(3)
_cell_angle_alpha                90
_cell_angle_beta                 94.808(4)
_cell_angle_gamma                90
_cell_volume                     1323
_exptl_crystal_colour            colorless
_exptl_crystal_description       Chunk
_cell_formula_units_Z            4
loop_
_atom_site_label
_atom_site_type_symbol
_atom_site_fract_x
_atom_site_fract_y
_atom_site_fract_z
N1 N 0.45922(8) 0.81018(9) 0.45283(12)
N2 N 0.49980(8) 0.85199(9) 0.58807(11)
N3 N 0.64984(8) 0.86390(9) 0.75174(11)
N4 N 0.76198(8) 0.84562(9) 0.75835(12)
N5 N 0.65945(8) 0.77286(9) 0.52333(11)
N6 N 0.73986(8) 0.69484(9) 0.58322(11)
N7 N 0.87703(8) 0.68315(9) 0.76742(11)
N8 N 0.93002(8) 0.73970(9) 0.88448(11)
C1 C 0.43161(9) 0.92766(10) 0.64952(14)
C2 C 0.34515(10) 0.93250(11) 0.55097(14)
H1 H 0.2832 0.9767 0.5609
C3 C 0.36525(10) 0.85928(11) 0.43127(15)
C4 C 0.45234(10) 0.98485(12) 0.79647(15)
H2 H 0.3938 1.0370 0.8142
H3 H 0.5175 1.0303 0.7982
H4 H 0.4593 0.9248 0.8736
C5 C 0.29747(10) 0.83508(12) 0.29262(16)
H5 H 0.3395 0.7975 0.2207
H6 H 0.2687 0.9088 0.2518
H7 H 0.2398 0.7831 0.3145
C6 C 0.60603(9) 0.82981(10) 0.62782(13)
C7 C 0.78901(9) 0.73908(11) 0.69761(13)
C8 C 0.92528(10) 0.57962(10) 0.73406(14)
C9 C 1.01120(10) 0.57091(11) 0.83363(14)
H8 H 1.0613 0.5093 0.8404
C10 C 1.01102(9) 0.67132(11) 0.92459(14)
C11 C 0.88671(10) 0.49850(11) 0.61334(15)
H9 H 0.9302 0.4277 0.6176
H10 H 0.8910 0.5372 0.5179
H11 H 0.8136 0.4772 0.6252
C12 C 1.08649(10) 0.70451(12) 1.05175(14)
H12 H 1.1484 0.7415 1.0150
H13 H 1.1080 0.6343 1.1083
H14 H 1.0527 0.7595 1.1155
H15 H 0.6178(13) 0.7391(14) 0.4437(18)
H16 H 0.7899(13) 0.8511(14) 0.856(2)
loop_
_geom_bond_atom_site_label_1
_geom_bond_atom_site_label_2
_geom_bond_site_symmetry_1
_geom_bond_site_symmetry_2
N1 N2 1_555 1_555
N2 C1 1_555 1_555
N3 N4 1_555 1_555
N4 C7 1_555 1_555
N5 N6 1_555 1_555
N6 C7 1_555 1_555
N7 N8 1_555 1_555
N8 C10 1_555 1_555
C1 C2 1_555 1_555
C2 H1 1_555 1_555
C3 N1 1_555 1_555
C4 C1 1_555 1_555
H2 C4 1_555 1_555
H3 C4 1_555 1_555
H4 C4 1_555 1_555
C5 C3 1_555 1_555
H5 C5 1_555 1_555
H6 C5 1_555 1_555
H7 C5 1_555 1_555
C6 N2 1_555 1_555
C7 N7 1_555 1_555
C8 N7 1_555 1_555
C9 C8 1_555 1_555
H8 C9 1_555 1_555
C10 C9 1_555 1_555
C11 C8 1_555 1_555
H9 C11 1_555 1_555
H10 C11 1_555 1_555
H11 C11 1_555 1_555
C12 C10 1_555 1_555
H12 C12 1_555 1_555
H13 C12 1_555 1_555
H14 C12 1_555 1_555
H15 N5 1_555 1_555
H16 N4 1_555 1_555
N3 C6 1_555 1_555
N5 C6 1_555 1_555
C2 C3 1_555 1_555

#END
