
#######################################################################
#
#                 Cambridge Crystallographic Data Centre
#                                CCDC 
#
#######################################################################
#
# If this CIF has been generated from an entry in the Cambridge 
# Structural Database, then it will include bibliographic, chemical, 
# crystal, experimental, refinement or atomic coordinate data resulting 
# from the CCDC's data processing and validation procedures.
#
#######################################################################

data_MODVAC
_chemical_formula_moiety         
'C21 H25 N2 1+,C15 H23 O1 1-,0.5(C7 H8),0.37(C6 H14)'
_chemical_name_systematic        
'1,3-Dimesityl-imidazol-2-ylideneium 2,6-di-t-butyl-4-methylphenolate toluene hexane solvate'
_symmetry_cell_setting           trigonal
_symmetry_space_group_name_H-M   'P -3'
_symmetry_Int_Tables_number      147
_space_group_name_Hall           '-P 3'
loop_
_symmetry_equiv_pos_site_id
_symmetry_equiv_pos_as_xyz
1 x,y,z
2 -y,x-y,z
3 -x+y,-x,z
4 -x,-y,-z
5 y,-x+y,-z
6 x-y,x,-z
_cell_length_a                   27.008(9)
_cell_length_b                   27.008(9)
_cell_length_c                   17.684(9)
_cell_angle_alpha                90
_cell_angle_beta                 90
_cell_angle_gamma                120
_cell_volume                     11171.1
_exptl_crystal_colour            yellow
_exptl_crystal_description       block
_chemical_melting_point          '470-472 K'
_cell_formula_units_Z            12
loop_
_atom_site_label
_atom_site_type_symbol
_atom_site_fract_x
_atom_site_fract_y
_atom_site_fract_z
C1 C 0.20948(8) -0.11810(9) 0.27333(10)
H1 H 0.1710(10) -0.1470(10) 0.2721(12)
N1 N 0.23117(7) -0.06566(7) 0.24503(9)
N2 N 0.25308(6) -0.12230(7) 0.30264(9)
C2 C 0.28996(9) -0.03551(9) 0.25647(12)
H2 H 0.3127(11) 0.0025(11) 0.2390(14)
C3 C 0.30352(9) -0.07078(9) 0.29208(12)
H3 H 0.3393(11) -0.0668(11) 0.3074(14)
C4 C 0.20078(9) -0.04318(9) 0.20277(12)
C5 C 0.19471(12) 0.00054(11) 0.23504(14)
C6 C 0.16842(13) 0.02374(12) 0.19132(15)
H4 H 0.1639 0.0538 0.2118
C7 C 0.14859(11) 0.00432(10) 0.11876(14)
C8 C 0.15579(9) -0.03929(9) 0.08930(12)
H5 H 0.1422 -0.0528 0.0397
C9 C 0.18221(8) -0.06389(8) 0.12991(11)
C10 C 0.21592(18) 0.02183(16) 0.31409(18)
H6 H 0.2026 0.0479 0.3300
H7 H 0.2578 0.0421 0.3146
H8 H 0.2011 -0.0107 0.3489
C11 C 0.11969(14) 0.02984(12) 0.07278(17)
H9 H 0.1279 0.0288 0.0190
H10 H 0.1341 0.0695 0.0884
H11 H 0.0783 0.0077 0.0811
C12 C 0.19061(9) -0.11033(9) 0.09654(12)
H12 H 0.2313 -0.0986 0.0978
H13 H 0.1771 -0.1172 0.0441
H14 H 0.1689 -0.1455 0.1260
C13 C 0.24869(8) -0.17257(8) 0.33772(11)
C14 C 0.26273(8) -0.16993(9) 0.41424(11)
C15 C 0.25897(9) -0.21876(9) 0.44623(12)
H15 H 0.2685 -0.2180 0.4981
C16 C 0.24184(9) -0.26845(9) 0.40509(12)
C17 C 0.22726(8) -0.26941(9) 0.32935(12)
H16 H 0.2148 -0.3035 0.3010
C18 C 0.23050(8) -0.22173(8) 0.29408(11)
C19 C 0.27864(10) -0.11741(10) 0.46142(12)
H17 H 0.2867 -0.1239 0.5134
H18 H 0.2468 -0.1097 0.4616
H19 H 0.3127 -0.0846 0.4399
C20 C 0.23859(11) -0.32053(11) 0.44154(15)
H20 H 0.2084 -0.3356 0.4800
H21 H 0.2754 -0.3100 0.4653
H22 H 0.2299 -0.3498 0.4030
C21 C 0.21356(9) -0.22401(9) 0.21231(11)
H23 H 0.1773 -0.2240 0.2094
H24 H 0.2090 -0.2589 0.1889
H25 H 0.2433 -0.1906 0.1855
O1 O 0.09503(6) -0.20461(6) 0.26038(8)
C22 C 0.04132(8) -0.23187(8) 0.28129(11)
C23 C 0.02486(8) -0.23924(9) 0.35977(11)
C24 C -0.03268(8) -0.27215(9) 0.37892(12)
H26 H -0.0427 -0.2774 0.4310
C25 C -0.07603(8) -0.29763(9) 0.32590(12)
C26 C -0.06053(8) -0.28787(9) 0.25008(12)
H27 H -0.0898 -0.3038 0.2129
C27 C -0.00401(8) -0.25579(8) 0.22615(11)
C28 C 0.07045(9) -0.21110(10) 0.42215(12)
C29 C -0.13804(9) -0.33384(11) 0.34936(14)
H28 H -0.1406 -0.3358 0.4047
H29 H -0.1537 -0.3725 0.3287
H30 H -0.1600 -0.3166 0.3299
C30 C 0.01037(9) -0.24506(9) 0.14109(11)
C31 C 0.11095(9) -0.23545(11) 0.42047(13)
H31 H 0.1399 -0.2173 0.4602
H32 H 0.1298 -0.2278 0.3711
H33 H 0.0891 -0.2768 0.4291
C32 C 0.04424(10) -0.22265(11) 0.50186(12)
H34 H 0.0178 -0.2078 0.5055
H35 H 0.0748 -0.2036 0.5394
H36 H 0.0235 -0.2639 0.5115
C33 C 0.10338(10) -0.14571(11) 0.41172(14)
H37 H 0.0765 -0.1314 0.4130
H38 H 0.1233 -0.1362 0.3629
H39 H 0.1314 -0.1280 0.4526
C34 C -0.04314(10) -0.27385(11) 0.09063(13)
H40 H -0.0691 -0.2598 0.1044
H41 H -0.0626 -0.3154 0.0978
H42 H -0.0319 -0.2647 0.0375
C35 C 0.03967(10) -0.18050(10) 0.12565(14)
H43 H 0.0478 -0.1734 0.0715
H44 H 0.0755 -0.1608 0.1542
H45 H 0.0144 -0.1661 0.1414
C36 C 0.04902(9) -0.26860(10) 0.11677(12)
H46 H 0.0596 -0.2592 0.0635
H47 H 0.0286 -0.3102 0.1233
H48 H 0.0837 -0.2514 0.1479
O2 O 0.45252(6) 0.01561(6) 0.26072(8)
C58 C 0.42740(8) 0.04123(8) 0.22993(11)
C59 C 0.40552(9) 0.02876(8) 0.15334(11)
C60 C 0.37637(9) 0.05484(9) 0.12434(11)
H74 H 0.3620 0.0457 0.0742
C61 C 0.36724(9) 0.09362(9) 0.16499(12)
C62 C 0.38984(9) 0.10716(8) 0.23760(12)
H75 H 0.3852 0.1345 0.2657
C63 C 0.41910(8) 0.08244(8) 0.27121(11)
C64 C 0.41480(10) -0.01319(10) 0.10504(11)
C65 C 0.33373(12) 0.11983(12) 0.13189(14)
H76 H 0.3213 0.1052 0.0805
H77 H 0.3581 0.1615 0.1303
H78 H 0.3002 0.1097 0.1635
C66 C 0.44281(8) 0.09924(8) 0.35230(11)
C67 C 0.38720(11) -0.07235(10) 0.14243(13)
H79 H 0.4048 -0.0692 0.1920
H80 H 0.3930 -0.0986 0.1103
H81 H 0.3461 -0.0870 0.1489
C68 C 0.38847(12) -0.02176(11) 0.02573(12)
H82 H 0.3471 -0.0375 0.0302
H83 H 0.3960 -0.0483 -0.0030
H84 H 0.4055 0.0151 -0.0006
C69 C 0.47949(11) 0.01090(12) 0.09476(13)
H85 H 0.4977 0.0167 0.1444
H86 H 0.4961 0.0475 0.0679
H87 H 0.4859 -0.0162 0.0654
C70 C 0.42947(10) 0.14322(9) 0.38792(13)
H88 H 0.4454 0.1775 0.3562
H89 H 0.4465 0.1535 0.4385
H90 H 0.3880 0.1267 0.3918
C71 C 0.50815(9) 0.12657(10) 0.35028(13)
H91 H 0.5243 0.1599 0.3167
H92 H 0.5183 0.0986 0.3315
H93 H 0.5236 0.1386 0.4014
C72 C 0.41697(10) 0.04665(9) 0.40479(12)
H94 H 0.4327 0.0584 0.4558
H95 H 0.4264 0.0184 0.3854
H96 H 0.3753 0.0298 0.4065
N3 N 0.59910(7) 0.02751(7) 0.28921(9)
C37 C 0.54455(9) -0.00681(8) 0.26986(11)
H49 H 0.5160(10) 0.0044(10) 0.2616(13)
N4 N 0.53648(7) -0.05978(7) 0.26364(9)
C38 C 0.62656(9) -0.00403(9) 0.29624(12)
H50 H 0.6677(11) 0.0158(10) 0.3081(13)
C39 C 0.58752(9) -0.05861(9) 0.27992(12)
H51 H 0.5916(11) -0.0925(11) 0.2781(14)
C40 C 0.62546(9) 0.08839(9) 0.30186(12)
C41 C 0.61993(9) 0.10684(10) 0.37334(12)
C42 C 0.64455(10) 0.16543(11) 0.38366(15)
H52 H 0.6414 0.1794 0.4317
C43 C 0.67350(10) 0.20410(10) 0.32638(18)
C44 C 0.67890(10) 0.18365(10) 0.25677(17)
H53 H 0.6995 0.2101 0.2176
C45 C 0.65489(10) 0.12531(9) 0.24263(14)
C46 C 0.58655(11) 0.06448(12) 0.43467(13)
H54 H 0.5469 0.0401 0.4181
H55 H 0.5873 0.0850 0.4807
H56 H 0.6038 0.0407 0.4451
C47 C 0.69819(13) 0.26795(12) 0.3386(2)
H57 H 0.6674 0.2771 0.3365
H58 H 0.7263 0.2892 0.2990
H59 H 0.7168 0.2787 0.3882
C48 C 0.65985(14) 0.10291(12) 0.16647(15)
H60 H 0.6776 0.0792 0.1726
H61 H 0.6835 0.1351 0.1329
H62 H 0.6217 0.0799 0.1444
C49 C 0.48346(9) -0.10999(8) 0.24242(11)
C50 C 0.43746(9) -0.13203(9) 0.29313(12)
C51 C 0.38764(9) -0.18087(9) 0.27151(13)
H63 H 0.3558 -0.1966 0.3048
C52 C 0.38288(9) -0.20762(9) 0.20247(13)
C53 C 0.42943(9) -0.18406(9) 0.15359(12)
H64 H 0.4265 -0.2023 0.1066
C54 C 0.48027(9) -0.13438(8) 0.17160(12)
C55 C 0.44109(11) -0.10308(10) 0.36737(13)
H65 H 0.4050 -0.1249 0.3949
H66 H 0.4483 -0.0643 0.3579
H67 H 0.4724 -0.1012 0.3976
C56 C 0.32758(10) -0.25993(10) 0.18029(17)
H68 H 0.3118 -0.2855 0.2240
H69 H 0.3347 -0.2799 0.1392
H70 H 0.3003 -0.2484 0.1633
C57 C 0.52860(9) -0.10779(9) 0.11563(12)
H71 H 0.5148 -0.1249 0.0657
H72 H 0.5594 -0.1145 0.1319
H73 H 0.5431 -0.0666 0.1128
C73 C 0.30405(13) 0.52808(14) 0.91341(17)
C74 C 0.27423(15) 0.47640(14) 0.94995(17)
H97 H 0.2856 0.4486 0.9437
C75 C 0.22776(16) 0.46421(16) 0.99594(18)
H98 H 0.2077 0.4282 1.0206
C76 C 0.21087(15) 0.50355(18) 1.00582(19)
H99 H 0.1791 0.4952 1.0371
C77 C 0.24033(17) 0.55531(18) 0.9700(2)
H100 H 0.2289 0.5831 0.9769
C78 C 0.28639(16) 0.56762(14) 0.92423(19)
H101 H 0.3062 0.6037 0.8998
C79 C 0.35459(17) 0.54120(18) 0.8629(3)
H102 H 0.3709 0.5801 0.8428
H103 H 0.3418 0.5138 0.8210
H104 H 0.3837 0.5382 0.8923
C80 C 0.0581(14) -0.0290(15) 0.5554(11)
H105 H 0.0487 -0.0009 0.5756
H106 H 0.0228 -0.0656 0.5479
H107 H 0.0779 -0.0154 0.5069
C81 C 0.0978(6) -0.0371(7) 0.6124(9)
H108 H 0.0776 -0.0785 0.6240
H109 H 0.1320 -0.0294 0.5828
C82 C 0.1184(4) -0.0107(5) 0.6799(7)
H110 H 0.1599 0.0133 0.6705
H111 H 0.1144 -0.0421 0.7129
C83 C 0.1059(6) 0.0256(4) 0.7329(7)
H112 H 0.0953 0.0066 0.7829
H113 H 0.1414 0.0628 0.7397
C84 C 0.0601(10) 0.0364(12) 0.7078(17)
H114 H 0.0429 0.0447 0.7519
H115 H 0.0297 0.0022 0.6817
C85 C 0.0866(6) 0.0886(6) 0.6526(8)
H116 H 0.0782 0.0748 0.6003
H117 H 0.1281 0.1106 0.6600
H118 H 0.0701 0.1130 0.6629
loop_
_geom_bond_atom_site_label_1
_geom_bond_atom_site_label_2
_geom_bond_site_symmetry_1
_geom_bond_site_symmetry_2
C1 H1 1_555 1_555
N1 C1 1_555 1_555
O1 C22 1_555 1_555
N2 C1 1_555 1_555
C2 N1 1_555 1_555
H2 C2 1_555 1_555
C3 N2 1_555 1_555
H3 C3 1_555 1_555
C4 N1 1_555 1_555
C5 C4 1_555 1_555
C6 C5 1_555 1_555
H4 C6 1_555 1_555
C7 C6 1_555 1_555
C8 C7 1_555 1_555
H5 C8 1_555 1_555
C9 C4 1_555 1_555
C10 C5 1_555 1_555
H6 C10 1_555 1_555
H7 C10 1_555 1_555
H8 C10 1_555 1_555
C11 C7 1_555 1_555
H9 C11 1_555 1_555
H10 C11 1_555 1_555
H11 C11 1_555 1_555
C12 C9 1_555 1_555
H12 C12 1_555 1_555
H13 C12 1_555 1_555
H14 C12 1_555 1_555
C13 N2 1_555 1_555
C14 C13 1_555 1_555
C15 C14 1_555 1_555
H15 C15 1_555 1_555
C16 C15 1_555 1_555
C17 C16 1_555 1_555
H16 C17 1_555 1_555
C18 C13 1_555 1_555
C19 C14 1_555 1_555
H17 C19 1_555 1_555
H18 C19 1_555 1_555
H19 C19 1_555 1_555
C20 C16 1_555 1_555
H20 C20 1_555 1_555
H21 C20 1_555 1_555
H22 C20 1_555 1_555
C21 C18 1_555 1_555
H23 C21 1_555 1_555
H24 C21 1_555 1_555
H25 C21 1_555 1_555
C22 C23 1_555 1_555
C23 C24 1_555 1_555
C24 H26 1_555 1_555
C25 C24 1_555 1_555
C26 C25 1_555 1_555
H27 C26 1_555 1_555
C27 C22 1_555 1_555
C28 C23 1_555 1_555
C29 C25 1_555 1_555
H28 C29 1_555 1_555
H29 C29 1_555 1_555
H30 C29 1_555 1_555
C30 C27 1_555 1_555
C31 C28 1_555 1_555
H31 C31 1_555 1_555
H32 C31 1_555 1_555
H33 C31 1_555 1_555
C32 C28 1_555 1_555
H34 C32 1_555 1_555
H35 C32 1_555 1_555
H36 C32 1_555 1_555
C33 C28 1_555 1_555
H37 C33 1_555 1_555
H38 C33 1_555 1_555
H39 C33 1_555 1_555
C34 C30 1_555 1_555
H40 C34 1_555 1_555
H41 C34 1_555 1_555
H42 C34 1_555 1_555
C35 C30 1_555 1_555
H43 C35 1_555 1_555
H44 C35 1_555 1_555
H45 C35 1_555 1_555
C36 C30 1_555 1_555
H46 C36 1_555 1_555
H47 C36 1_555 1_555
H48 C36 1_555 1_555
O2 C58 1_555 1_555
N3 C37 1_555 1_555
C37 H49 1_555 1_555
N4 C37 1_555 1_555
C38 N3 1_555 1_555
H50 C38 1_555 1_555
C39 N4 1_555 1_555
H51 C39 1_555 1_555
C40 N3 1_555 1_555
C41 C40 1_555 1_555
C42 C41 1_555 1_555
H52 C42 1_555 1_555
C43 C42 1_555 1_555
C44 C43 1_555 1_555
H53 C44 1_555 1_555
C45 C40 1_555 1_555
C46 C41 1_555 1_555
H54 C46 1_555 1_555
H55 C46 1_555 1_555
H56 C46 1_555 1_555
C47 C43 1_555 1_555
H57 C47 1_555 1_555
H58 C47 1_555 1_555
H59 C47 1_555 1_555
C48 C45 1_555 1_555
H60 C48 1_555 1_555
H61 C48 1_555 1_555
H62 C48 1_555 1_555
C49 N4 1_555 1_555
C50 C49 1_555 1_555
C51 C50 1_555 1_555
H63 C51 1_555 1_555
C52 C51 1_555 1_555
C53 C52 1_555 1_555
H64 C53 1_555 1_555
C54 C49 1_555 1_555
C55 C50 1_555 1_555
H65 C55 1_555 1_555
H66 C55 1_555 1_555
H67 C55 1_555 1_555
C56 C52 1_555 1_555
H68 C56 1_555 1_555
H69 C56 1_555 1_555
H70 C56 1_555 1_555
C57 C54 1_555 1_555
H71 C57 1_555 1_555
H72 C57 1_555 1_555
H73 C57 1_555 1_555
C58 C59 1_555 1_555
C59 C60 1_555 1_555
C60 H74 1_555 1_555
C61 C60 1_555 1_555
C62 C61 1_555 1_555
H75 C62 1_555 1_555
C63 C58 1_555 1_555
C64 C59 1_555 1_555
C65 C61 1_555 1_555
H76 C65 1_555 1_555
H77 C65 1_555 1_555
H78 C65 1_555 1_555
C66 C63 1_555 1_555
C67 C64 1_555 1_555
H79 C67 1_555 1_555
H80 C67 1_555 1_555
H81 C67 1_555 1_555
C68 C64 1_555 1_555
H82 C68 1_555 1_555
H83 C68 1_555 1_555
H84 C68 1_555 1_555
C69 C64 1_555 1_555
H85 C69 1_555 1_555
H86 C69 1_555 1_555
H87 C69 1_555 1_555
C70 C66 1_555 1_555
H88 C70 1_555 1_555
H89 C70 1_555 1_555
H90 C70 1_555 1_555
C71 C66 1_555 1_555
H91 C71 1_555 1_555
H92 C71 1_555 1_555
H93 C71 1_555 1_555
C72 C66 1_555 1_555
H94 C72 1_555 1_555
H95 C72 1_555 1_555
H96 C72 1_555 1_555
C73 C74 1_555 1_555
C74 H97 1_555 1_555
C75 C74 1_555 1_555
H98 C75 1_555 1_555
C76 C75 1_555 1_555
H99 C76 1_555 1_555
C77 C76 1_555 1_555
H100 C77 1_555 1_555
C78 C73 1_555 1_555
H101 C78 1_555 1_555
C79 C73 1_555 1_555
H102 C79 1_555 1_555
H103 C79 1_555 1_555
H104 C79 1_555 1_555
C80 H105 1_555 1_555
H106 C80 1_555 1_555
H107 C80 1_555 1_555
C81 C80 1_555 1_555
H108 C81 1_555 1_555
H109 C81 1_555 1_555
C82 C81 1_555 1_555
H110 C82 1_555 1_555
H111 C82 1_555 1_555
C83 C82 1_555 1_555
H112 C83 1_555 1_555
H113 C83 1_555 1_555
C84 C83 1_555 1_555
H114 C84 1_555 1_555
H115 C84 1_555 1_555
C85 C84 1_555 1_555
H116 C85 1_555 1_555
H117 C85 1_555 1_555
H118 C85 1_555 1_555
C2 C3 1_555 1_555
C8 C9 1_555 1_555
C17 C18 1_555 1_555
C26 C27 1_555 1_555
C38 C39 1_555 1_555
C44 C45 1_555 1_555
C53 C54 1_555 1_555
C62 C63 1_555 1_555
C77 C78 1_555 1_555

#END
