
#######################################################################
#
#                 Cambridge Crystallographic Data Centre
#                                CCDC 
#
#######################################################################
#
# If this CIF has been generated from an entry in the Cambridge 
# Structural Database, then it will include bibliographic, chemical, 
# crystal, experimental, refinement or atomic coordinate data resulting 
# from the CCDC's data processing and validation procedures.
#
#######################################################################

data_MODWUY
_chemical_formula_moiety         'C22 H26 N2 O2'
_chemical_name_systematic        
(E,E)-N,N'-Bis(4-methoxybenzylidene)cyclohexane-1,2-diamine
_symmetry_cell_setting           orthorhombic
_symmetry_space_group_name_H-M   'P c c n'
_symmetry_Int_Tables_number      56
_space_group_name_Hall           '-P 2ab 2ac'
loop_
_symmetry_equiv_pos_site_id
_symmetry_equiv_pos_as_xyz
1 x,y,z
2 1/2-x,1/2-y,z
3 1/2+x,-y,1/2-z
4 -x,1/2+y,1/2-z
5 -x,-y,-z
6 1/2+x,1/2+y,-z
7 1/2-x,y,1/2+z
8 x,1/2-y,1/2+z
_cell_length_a                   19.674(3)
_cell_length_b                   5.4097(9)
_cell_length_c                   18.662(3)
_cell_angle_alpha                90
_cell_angle_beta                 90
_cell_angle_gamma                90
_cell_volume                     1986.2
_exptl_crystal_colour            colorless
_exptl_crystal_description       Block
_cell_formula_units_Z            4
_exptl_crystal_recrystallization_method ethanol
loop_
_atom_site_label
_atom_site_type_symbol
_atom_site_fract_x
_atom_site_fract_y
_atom_site_fract_z
O1 O 0.47992(8) 0.4625(3) 0.41000(8)
N1 N 0.32205(8) 0.3062(3) 0.11039(9)
C1 C 0.36446(9) 0.4561(4) 0.22382(10)
C2 C 0.32123(10) 0.3262(5) -0.02019(11)
H1 H 0.3454 0.1699 -0.0204
H2 H 0.3547 0.4577 -0.0203
C3 C 0.45135(10) 0.2643(4) 0.29659(11)
H3 H 0.4827 0.1380 0.3034
C4 C 0.32303(10) 0.4677(4) 0.15823(10)
H4 H 0.2955 0.6057 0.1519
C5 C 0.44380(10) 0.4485(4) 0.34762(10)
C6 C 0.41180(10) 0.2704(4) 0.23553(10)
H5 H 0.4170 0.1467 0.2014
C7 C 0.27888(9) 0.3439(4) 0.04791(10)
H6 H 0.2592 0.5101 0.0506
C8 C 0.35804(10) 0.6392(4) 0.27558(11)
H7 H 0.3270 0.7666 0.2688
C9 C 0.27826(11) 0.3452(4) -0.08769(11)
H8 H 0.2587 0.5095 -0.0908
H9 H 0.3069 0.3204 -0.1294
C10 C 0.52945(14) 0.2748(6) 0.42442(13)
H10 H 0.5509 0.3076 0.4696
H11 H 0.5631 0.2746 0.3872
H12 H 0.5075 0.1164 0.4262
C11 C 0.39688(10) 0.6346(4) 0.33659(11)
H13 H 0.3916 0.7580 0.3708
O1A O 0.02008(8) 0.0375(3) 0.41000(8)
N1A N 0.17795(8) 0.1938(3) 0.11039(9)
C1A C 0.13554(9) 0.0439(4) 0.22382(10)
C2A C 0.17877(10) 0.1738(5) -0.02019(11)
H1A H 0.1546 0.3301 -0.0204
H2A H 0.1453 0.0423 -0.0203
C3A C 0.04865(10) 0.2357(4) 0.29659(11)
H3A H 0.0173 0.3620 0.3034
C4A C 0.17697(10) 0.0323(4) 0.15823(10)
H4A H 0.2045 -0.1057 0.1519
C5A C 0.05620(10) 0.0515(4) 0.34762(10)
C6A C 0.08820(10) 0.2296(4) 0.23553(10)
H5A H 0.0830 0.3533 0.2014
C7A C 0.22112(9) 0.1561(4) 0.04791(10)
H6A H 0.2408 -0.0101 0.0506
C8A C 0.14196(10) -0.1392(4) 0.27558(11)
H7A H 0.1730 -0.2666 0.2688
C9A C 0.22174(11) 0.1548(4) -0.08769(11)
H8A H 0.2413 -0.0095 -0.0908
H9A H 0.1931 0.1796 -0.1294
C10A C -0.02945(14) 0.2252(6) 0.42442(13)
H10A H -0.0509 0.1924 0.4696
H11A H -0.0631 0.2254 0.3872
H12A H -0.0075 0.3836 0.4262
C11A C 0.10312(10) -0.1346(4) 0.33659(11)
H13A H 0.1084 -0.2580 0.3708
loop_
_geom_bond_atom_site_label_1
_geom_bond_atom_site_label_2
_geom_bond_site_symmetry_1
_geom_bond_site_symmetry_2
O1 C5 1_555 1_555
N1 C4 1_555 1_555
C1 C4 1_555 1_555
C2 H1 1_555 1_555
H2 C2 1_555 1_555
C3 H3 1_555 1_555
C4 H4 1_555 1_555
C5 C3 1_555 1_555
C6 C1 1_555 1_555
H5 C6 1_555 1_555
C7 N1 1_555 1_555
H6 C7 1_555 1_555
C8 C1 1_555 1_555
H7 C8 1_555 1_555
C9 C2 1_555 1_555
H8 C9 1_555 1_555
H9 C9 1_555 1_555
C10 O1 1_555 1_555
H10 C10 1_555 1_555
H11 C10 1_555 1_555
H12 C10 1_555 1_555
C11 C5 1_555 1_555
H13 C11 1_555 1_555
O1A C5A 1_555 1_555
N1A C4A 1_555 1_555
C1A C4A 1_555 1_555
C2A H1A 1_555 1_555
H2A C2A 1_555 1_555
C3A H3A 1_555 1_555
C4A H4A 1_555 1_555
C5A C3A 1_555 1_555
C6A C1A 1_555 1_555
H5A C6A 1_555 1_555
C7A C7 1_555 1_555
H6A C7A 1_555 1_555
C8A C1A 1_555 1_555
H7A C8A 1_555 1_555
C9A C9 1_555 1_555
H8A C9A 1_555 1_555
H9A C9A 1_555 1_555
C10A O1A 1_555 1_555
H10A C10A 1_555 1_555
H11A C10A 1_555 1_555
H12A C10A 1_555 1_555
C11A C5A 1_555 1_555
H13A C11A 1_555 1_555
C2 C7 1_555 1_555
C3 C6 1_555 1_555
C8 C11 1_555 1_555
N1A C7A 1_555 1_555
C2A C7A 1_555 1_555
C2A C9A 1_555 1_555
C3A C6A 1_555 1_555
C8A C11A 1_555 1_555

#END
