
#######################################################################
#
#                 Cambridge Crystallographic Data Centre
#                                CCDC 
#
#######################################################################
#
# If this CIF has been generated from an entry in the Cambridge 
# Structural Database, then it will include bibliographic, chemical, 
# crystal, experimental, refinement or atomic coordinate data resulting 
# from the CCDC's data processing and validation procedures.
#
#######################################################################

data_MOFBUF02
_chemical_formula_moiety         'C8 H6 N2 O2'
_chemical_name_systematic        quinazoline-2,4(1H,3H)-dione
_symmetry_cell_setting           monoclinic
_symmetry_space_group_name_H-M   'P 21/c'
_symmetry_Int_Tables_number      14
_space_group_name_Hall           '-P 2ybc'
loop_
_symmetry_equiv_pos_site_id
_symmetry_equiv_pos_as_xyz
1 x,y,z
2 -x,1/2+y,1/2-z
3 -x,-y,-z
4 x,1/2-y,1/2+z
_cell_length_a                   10.855(4)
_cell_length_b                   5.2489(4)
_cell_length_c                   12.6831(10)
_cell_angle_alpha                90
_cell_angle_beta                 99.516(14)
_cell_angle_gamma                90
_cell_volume                     712.699
_exptl_crystal_description       'pale yellow'
_cell_formula_units_Z            4
loop_
_atom_site_label
_atom_site_type_symbol
_atom_site_fract_x
_atom_site_fract_y
_atom_site_fract_z
O1 O 0.76940(14) 0.7978(3) -0.08057(10)
O2 O 0.48132(12) 0.6345(3) 0.12957(10)
N1 N 0.62515(14) 0.7301(3) 0.02490(11)
H1 H 0.5922 0.6159 -0.0196
N2 N 0.61952(13) 0.9528(3) 0.18022(11)
H2 H 0.5865 0.9818 0.2362
C1 C 0.57049(17) 0.7661(3) 0.11340(13)
C2 C 0.72064(16) 1.1011(3) 0.16353(13)
C3 C 0.76548(18) 1.2917(4) 0.23606(14)
H3 H 0.7285 1.3205 0.2961
C4 C 0.86474(18) 1.4362(4) 0.21778(16)
H4 H 0.8949 1.5641 0.2659
C5 C 0.92136(19) 1.3955(4) 0.12870(17)
H5 H 0.9888 1.4952 0.1175
C6 C 0.87722(18) 1.2076(4) 0.05756(15)
H6 H 0.9149 1.1797 -0.0022
C7 C 0.77653(16) 1.0586(3) 0.07418(13)
C8 C 0.72763(17) 0.8574(3) -0.00081(13)
loop_
_geom_bond_atom_site_label_1
_geom_bond_atom_site_label_2
_geom_bond_site_symmetry_1
_geom_bond_site_symmetry_2
O1 C8 1_555 1_555
O2 C1 1_555 1_555
N1 H1 1_555 1_555
N2 H2 1_555 1_555
C1 N1 1_555 1_555
C2 N2 1_555 1_555
C3 C2 1_555 1_555
H3 C3 1_555 1_555
C4 C3 1_555 1_555
H4 C4 1_555 1_555
C5 C4 1_555 1_555
H5 C5 1_555 1_555
C6 C5 1_555 1_555
H6 C6 1_555 1_555
C7 C2 1_555 1_555
C8 N1 1_555 1_555
N2 C1 1_555 1_555
C6 C7 1_555 1_555
C7 C8 1_555 1_555

#END
