
#######################################################################
#
#                 Cambridge Crystallographic Data Centre
#                                CCDC 
#
#######################################################################
#
# If this CIF has been generated from an entry in the Cambridge 
# Structural Database, then it will include bibliographic, chemical, 
# crystal, experimental, refinement or atomic coordinate data resulting 
# from the CCDC's data processing and validation procedures.
#
#######################################################################

data_MOFBUF01
_chemical_formula_moiety         'C8 H6 N2 O2'
_chemical_name_systematic        quinazoline-2,4(1H,3H)-dione
_symmetry_cell_setting           monoclinic
_symmetry_space_group_name_H-M   'P 21/c'
_symmetry_Int_Tables_number      14
_space_group_name_Hall           '-P 2ybc'
loop_
_symmetry_equiv_pos_site_id
_symmetry_equiv_pos_as_xyz
1 x,y,z
2 -x,1/2+y,1/2-z
3 -x,-y,-z
4 x,1/2-y,1/2+z
_cell_length_a                   10.763(2)
_cell_length_b                   5.2736(11)
_cell_length_c                   12.493(3)
_cell_angle_alpha                90
_cell_angle_beta                 99.49(3)
_cell_angle_gamma                90
_cell_volume                     699.395
_cell_formula_units_Z            4
loop_
_atom_site_label
_atom_site_type_symbol
_atom_site_fract_x
_atom_site_fract_y
_atom_site_fract_z
O1 O 0.4814(1) 0.3657(3) 0.1299(1)
O2 O 0.7698(1) 0.2021(3) -0.0807(1)
N1 N 0.6194(1) 0.0474(3) 0.1801(1)
N2 N 0.6254(1) 0.2704(3) 0.0245(1)
C1 C 0.7209(2) -0.1021(3) 0.1641(1)
C2 C 0.7653(2) -0.2914(4) 0.2361(1)
C3 C 0.8647(2) -0.4369(4) 0.2182(2)
C4 C 0.9218(2) -0.3964(4) 0.1283(2)
C5 C 0.8770(2) -0.2081(4) 0.0572(2)
C6 C 0.7768(2) -0.0582(3) 0.0735(1)
C7 C 0.7274(2) 0.1431(4) -0.0006(1)
C8 C 0.5703(2) 0.2339(3) 0.1137(1)
loop_
_geom_bond_atom_site_label_1
_geom_bond_atom_site_label_2
_geom_bond_site_symmetry_1
_geom_bond_site_symmetry_2
O1 C8 1_555 1_555
O2 C7 1_555 1_555
N1 C1 1_555 1_555
N2 C7 1_555 1_555
C1 C2 1_555 1_555
C2 C3 1_555 1_555
C3 C4 1_555 1_555
C4 C5 1_555 1_555
C5 C6 1_555 1_555
C6 C1 1_555 1_555
C7 C6 1_555 1_555
C8 N1 1_555 1_555
N2 C8 1_555 1_555

#END
