
#######################################################################
#
#                 Cambridge Crystallographic Data Centre
#                                CCDC 
#
#######################################################################
#
# If this CIF has been generated from an entry in the Cambridge 
# Structural Database, then it will include bibliographic, chemical, 
# crystal, experimental, refinement or atomic coordinate data resulting 
# from the CCDC's data processing and validation procedures.
#
#######################################################################

data_MOFCEQ
_chemical_name_common            4-((E)-3-phenoxybenzylideneamino)antipyrine
_chemical_formula_moiety         'C24 H21 N3 O2'
_chemical_name_systematic        
1,5-Dimethyl-4-((E)-3-phenoxybenzylideneamino)-2-phenyl-1H-pyrazol-3(2H)-one
_symmetry_cell_setting           triclinic
_symmetry_space_group_name_H-M   'P -1'
_symmetry_Int_Tables_number      2
_space_group_name_Hall           '-P 1'
loop_
_symmetry_equiv_pos_site_id
_symmetry_equiv_pos_as_xyz
1 x,y,z
2 -x,-y,-z
_cell_length_a                   7.6640(12)
_cell_length_b                   8.3593(14)
_cell_length_c                   16.731(3)
_cell_angle_alpha                77.396(3)
_cell_angle_beta                 77.587(2)
_cell_angle_gamma                76.240(3)
_cell_volume                     1000.89
_exptl_crystal_colour            colorless
_exptl_crystal_description       block
_chemical_melting_point          '425-427 K'
_cell_formula_units_Z            2
_exptl_crystal_recrystallization_method ethanol
loop_
_atom_site_label
_atom_site_type_symbol
_atom_site_fract_x
_atom_site_fract_y
_atom_site_fract_z
O1 O -0.09698(15) 0.55049(16) 1.14179(8)
O2 O -0.41493(16) 1.0621(2) 0.79039(8)
N1 N 0.17090(17) 0.46344(17) 1.19591(8)
N2 N 0.34291(17) 0.50949(17) 1.17773(9)
N3 N 0.15472(18) 0.75399(18) 1.00126(8)
C1 C 0.1017(2) 0.3971(2) 1.27873(10)
C2 C 0.1611(2) 0.4293(2) 1.34520(11)
H1 H 0.2455 0.4978 1.3359
C3 C 0.0942(3) 0.3590(3) 1.42535(12)
H2 H 0.1348 0.3798 1.4699
C4 C -0.0311(3) 0.2590(3) 1.43974(13)
H3 H -0.0752 0.2118 1.4938
C5 C -0.0915(3) 0.2288(3) 1.37361(13)
H4 H -0.1778 0.1620 1.3833
C6 C -0.0253(2) 0.2967(2) 1.29318(11)
H5 H -0.0659 0.2749 1.2488
C7 C 0.0644(2) 0.5536(2) 1.13636(10)
C8 C 0.1860(2) 0.6450(2) 1.07513(10)
C9 C 0.3485(2) 0.6120(2) 1.10112(10)
C10 C 0.5167(2) 0.6735(3) 1.05804(11)
H6 H 0.6070 0.5828 1.0386
H7 H 0.5625 0.7175 1.0960
H8 H 0.4894 0.7600 1.0117
C11 C 0.4972(2) 0.3701(2) 1.19262(13)
H9 H 0.5038 0.2889 1.1588
H10 H 0.4801 0.3187 1.2502
H11 H 0.6084 0.4116 1.1786
C12 C 0.0019(2) 0.7838(2) 0.97743(10)
H12 H -0.0906 0.7318 1.0099
C13 C -0.0321(2) 0.8980(2) 0.90021(10)
C14 C 0.1005(2) 0.9784(2) 0.84859(11)
H13 H 0.2152 0.9607 0.8628
C15 C 0.0622(2) 1.0844(2) 0.77623(12)
H14 H 0.1519 1.1379 0.7420
C16 C -0.1063(2) 1.1126(2) 0.75369(11)
H15 H -0.1304 1.1832 0.7044
C17 C -0.2385(2) 1.0347(2) 0.80524(11)
C18 C -0.2022(2) 0.9280(2) 0.87751(11)
H16 H -0.2927 0.8753 0.9115
C19 C -0.4469(2) 1.1295(2) 0.71019(11)
C20 C -0.3803(3) 1.0387(3) 0.64795(13)
H17 H -0.3083 0.9324 0.6586
C21 C -0.4186(3) 1.1025(3) 0.57065(14)
H18 H -0.3719 1.0402 0.5283
C22 C -0.5239(3) 1.2556(4) 0.55469(15)
H19 H -0.5492 1.2985 0.5013
C23 C -0.5939(3) 1.3483(3) 0.61630(18)
H20 H -0.6673 1.4536 0.6049
C24 C -0.5555(3) 1.2854(2) 0.69626(14)
H21 H -0.6020 1.3472 0.7388
loop_
_geom_bond_atom_site_label_1
_geom_bond_atom_site_label_2
_geom_bond_site_symmetry_1
_geom_bond_site_symmetry_2
O1 C7 1_555 1_555
O2 C17 1_555 1_555
N1 N2 1_555 1_555
N2 C9 1_555 1_555
N3 C8 1_555 1_555
C1 N1 1_555 1_555
C2 C1 1_555 1_555
H1 C2 1_555 1_555
C3 C2 1_555 1_555
H2 C3 1_555 1_555
C4 C3 1_555 1_555
H3 C4 1_555 1_555
C5 C4 1_555 1_555
H4 C5 1_555 1_555
C6 C1 1_555 1_555
H5 C6 1_555 1_555
C7 N1 1_555 1_555
C8 C7 1_555 1_555
C9 C8 1_555 1_555
C10 C9 1_555 1_555
H6 C10 1_555 1_555
H7 C10 1_555 1_555
H8 C10 1_555 1_555
C11 N2 1_555 1_555
H9 C11 1_555 1_555
H10 C11 1_555 1_555
H11 C11 1_555 1_555
C12 N3 1_555 1_555
H12 C12 1_555 1_555
C13 C12 1_555 1_555
C14 C13 1_555 1_555
H13 C14 1_555 1_555
C15 C14 1_555 1_555
H14 C15 1_555 1_555
C16 C15 1_555 1_555
H15 C16 1_555 1_555
C17 C16 1_555 1_555
C18 C13 1_555 1_555
H16 C18 1_555 1_555
C19 O2 1_555 1_555
C20 C19 1_555 1_555
H17 C20 1_555 1_555
C21 C20 1_555 1_555
H18 C21 1_555 1_555
C22 C21 1_555 1_555
H19 C22 1_555 1_555
C23 C22 1_555 1_555
H20 C23 1_555 1_555
C24 C19 1_555 1_555
H21 C24 1_555 1_555
C5 C6 1_555 1_555
C17 C18 1_555 1_555
C23 C24 1_555 1_555

#END
