
#######################################################################
#
#                 Cambridge Crystallographic Data Centre
#                                CCDC 
#
#######################################################################
#
# If this CIF has been generated from an entry in the Cambridge 
# Structural Database, then it will include bibliographic, chemical, 
# crystal, experimental, refinement or atomic coordinate data resulting 
# from the CCDC's data processing and validation procedures.
#
#######################################################################

data_MOFYUD
_chemical_compound_source        
'cupules of Lithocarpus polystachyus Wall Reld (Fagaceae)'
_chemical_name_common            
'(24R)-25-hydroxy-21,24-epoxy-3,4-seco-cycloart-4(28)-ene-3-oic acid acetonitrile solvate hemihydrate'
_chemical_formula_moiety         'C30 H48 O4,0.5(C2 H3 N1),0.5(H2 O1)'
_chemical_name_systematic        
'3-(1-(6-(2-Hydroxypropan-2-yl)tetrahydro-2H-pyran-3-yl)-3a,9a-dimethyl-6-(prop-1-en-2-yl)decahydro-1H-cyclopenta[a]cyclopropa[e]naphthalen-6a(7H)-yl)propanoic acid acetonitrile solvate hemihydrate'
_chemical_properties_biological  'antibacterial activity'
_symmetry_cell_setting           monoclinic
_symmetry_space_group_name_H-M   'P 21'
_symmetry_Int_Tables_number      4
_space_group_name_Hall           'P 2yb'
loop_
_symmetry_equiv_pos_site_id
_symmetry_equiv_pos_as_xyz
1 x,y,z
2 -x,1/2+y,-z
_cell_length_a                   16.5653(2)
_cell_length_b                   7.60490(10)
_cell_length_c                   23.1068(3)
_cell_angle_alpha                90
_cell_angle_beta                 98.4080(10)
_cell_angle_gamma                90
_cell_volume                     2879.65
_exptl_crystal_colour            colorless
_exptl_crystal_description       block
_chemical_melting_point          '235-237 deg.C'
_cell_formula_units_Z            4
_chemical_properties_physical    Heat-sensitive
loop_
_atom_site_label
_atom_site_type_symbol
_atom_site_fract_x
_atom_site_fract_y
_atom_site_fract_z
N1 N 0.5572(3) 0.7225(7) 0.4323(2)
C1 C 0.6078(3) 0.4438(8) 0.4908(2)
H1 H 0.6242 0.3560 0.4637
H2 H 0.5637 0.3960 0.5102
H3 H 0.6546 0.4732 0.5203
C2 C 0.5795(3) 0.6006(7) 0.4586(2)
O1 O 0.36360(15) 0.7093(4) 0.31627(14)
O2 O 1.18612(16) -0.0565(4) 0.27791(10)
O3 O 1.27135(13) -0.0677(4) 0.36196(9)
H4 H 1.2979 -0.1372 0.3436
O4 O 0.61709(13) 0.1723(4) 0.34934(10)
O5 O 0.49240(15) -0.0592(4) 0.31898(12)
H5 H 0.4484 -0.1149 0.3178
C3 C 1.16377(17) 0.1809(4) 0.40658(11)
H6 H 1.1252 0.0830 0.4095
H7 H 1.2133 0.1585 0.4352
C4 C 1.1873(2) 0.1830(5) 0.34437(13)
H8 H 1.1395 0.2210 0.3163
H9 H 1.2313 0.2703 0.3429
C5 C 1.21543(17) 0.0078(4) 0.32583(12)
C6 C 1.25880(18) 0.4880(4) 0.46949(13)
C7 C 1.18294(17) 0.5081(4) 0.42428(12)
H10 H 1.2026 0.5104 0.3854
C8 C 1.14020(18) 0.6846(4) 0.42980(13)
H11 H 1.1209 0.6923 0.4683
H12 H 1.1789 0.7823 0.4269
C9 C 1.06819(18) 0.6989(4) 0.38104(13)
H13 H 1.0863 0.6724 0.3430
H14 H 1.0465 0.8204 0.3794
C10 C 1.00122(17) 0.5705(4) 0.39173(11)
H15 H 0.9832 0.6094 0.4292
C11 C 1.03254(17) 0.3796(4) 0.40297(12)
C12 C 1.12493(17) 0.3515(4) 0.42241(11)
C13 C 0.98566(18) 0.2317(4) 0.36717(13)
H16 H 0.9966 0.1204 0.3892
H17 H 1.0085 0.2191 0.3301
C14 C 0.89203(18) 0.2528(4) 0.35183(13)
H18 H 0.8755 0.2203 0.3103
H19 H 0.8652 0.1696 0.3759
C15 C 0.86102(17) 0.4397(4) 0.36156(11)
C16 C 0.92418(18) 0.5768(4) 0.34571(12)
C17 C 0.87692(19) 0.7506(4) 0.34593(13)
H20 H 0.8984 0.8391 0.3207
H21 H 0.8808 0.7983 0.3861
C18 C 0.78769(19) 0.7016(5) 0.32159(14)
H22 H 0.7729 0.7484 0.2815
H23 H 0.7499 0.7519 0.3467
C19 C 0.78200(18) 0.4971(5) 0.32117(13)
H24 H 0.7872 0.4570 0.2807
C20 C 0.84808(17) 0.4554(5) 0.42644(12)
H25 H 0.8980 0.4192 0.4518
H26 H 0.8028 0.3792 0.4335
H27 H 0.8353 0.5776 0.4350
C21 C 1.06568(17) 0.3373(4) 0.46617(12)
H28 H 1.0659 0.4328 0.4953
H29 H 1.0547 0.2186 0.4808
C22 C 0.69944(18) 0.4313(5) 0.33496(14)
H30 H 0.6911 0.4783 0.3741
C23 C 0.69425(19) 0.2321(5) 0.33665(15)
H31 H 0.7036 0.1841 0.2984
H32 H 0.7379 0.1866 0.3668
C24 C 0.6297(2) 0.4987(6) 0.28887(17)
H33 H 0.6269 0.6285 0.2910
H34 H 0.6410 0.4665 0.2493
C25 C 0.5475(2) 0.4202(6) 0.29872(19)
H35 H 0.5316 0.4689 0.3351
H36 H 0.5051 0.4532 0.2658
C26 C 0.55281(19) 0.2204(6) 0.30333(15)
H37 H 0.5664 0.1730 0.2656
C27 C 0.4759(2) 0.1265(6) 0.31732(16)
C28 C 0.4528(3) 0.1824(9) 0.37579(19)
H38 H 0.4038 0.1186 0.3829
H39 H 0.4419 0.3091 0.3752
H40 H 0.4978 0.1556 0.4070
C29 C 0.4059(2) 0.1514(8) 0.2665(2)
H41 H 0.3570 0.0910 0.2756
H42 H 0.4218 0.1019 0.2306
H43 H 0.3943 0.2771 0.2608
C30 C 1.3330(2) 0.5091(6) 0.45431(17)
H44 H 1.3801 0.4981 0.4829
H45 H 1.3387 0.5351 0.4149
C31 C 1.2480(2) 0.4472(6) 0.53098(13)
H46 H 1.3017 0.4374 0.5551
H47 H 1.2186 0.3358 0.5320
H48 H 1.2168 0.5416 0.5462
C32 C 0.9452(2) 0.5495(5) 0.28326(12)
H49 H 0.9849 0.6384 0.2752
H50 H 0.8954 0.5607 0.2548
H51 H 0.9685 0.4320 0.2802
O6 O 1.16682(17) 0.6089(4) 0.24272(13)
H52 H 1.1861 0.7099 0.2500
O7 O 1.2851(2) 0.5710(8) 0.2137(2)
O8 O 0.6104(2) 0.4316(6) 0.0801(2)
C33 C 1.1575(2) 0.3619(5) 0.12657(15)
H53 H 1.1206 0.4641 0.1185
H54 H 1.2059 0.3827 0.1070
C34 C 1.1849(3) 0.3466(6) 0.19344(17)
H55 H 1.1380 0.3087 0.2125
H56 H 1.2281 0.2562 0.2013
C35 C 1.2166(2) 0.5185(6) 0.21889(17)
C36 C 1.2413(3) 0.0377(6) 0.07542(19)
C37 C 1.1695(3) 0.0342(5) 0.10903(14)
H57 H 1.1938 0.0327 0.1513
C38 C 1.1219(3) -0.1383(5) 0.09855(17)
H58 H 1.1007 -0.1505 0.0564
H59 H 1.1587 -0.2388 0.1102
C39 C 1.0519(3) -0.1402(5) 0.13364(17)
H60 H 1.0720 -0.1102 0.1749
H61 H 1.0276 -0.2593 0.1326
C40 C 0.9868(2) -0.0067(5) 0.10813(13)
H62 H 0.9677 -0.0466 0.0672
C41 C 1.0219(2) 0.1800(5) 0.10247(13)
C42 C 1.1139(2) 0.1970(5) 0.10148(13)
C43 C 0.9793(2) 0.3328(5) 0.12860(16)
H63 H 0.9921 0.4421 0.1085
H64 H 1.0032 0.3445 0.1703
C44 C 0.8851(3) 0.3204(5) 0.12525(16)
H65 H 0.8702 0.3568 0.1634
H66 H 0.8596 0.4049 0.0955
C45 C 0.8496(2) 0.1382(5) 0.11013(13)
C46 C 0.9105(2) -0.0053(5) 0.13876(13)
C47 C 0.8594(3) -0.1737(5) 0.13043(16)
H67 H 0.8624 -0.2267 0.0917
H68 H 0.8787 -0.2608 0.1612
C48 C 0.7720(3) -0.1154(6) 0.13504(19)
H69 H 0.7552 -0.1611 0.1716
H70 H 0.7338 -0.1616 0.1015
C49 C 0.7702(3) 0.0895(6) 0.13497(14)
H71 H 0.7782 0.1276 0.1768
C50 C 0.8332(2) 0.1200(5) 0.04291(14)
H72 H 0.7951 0.2119 0.0265
H73 H 0.8095 0.0042 0.0325
H74 H 0.8846 0.1324 0.0271
C51 C 1.0539(2) 0.2172(5) 0.04598(14)
H75 H 1.0454 0.3367 0.0292
H76 H 1.0509 0.1213 0.0168
C52 C 0.6884(3) 0.1650(6) 0.10659(15)
H77 H 0.6779 0.1221 0.0653
C53 C 0.6875(3) 0.3653(7) 0.1052(2)
H78 H 0.7013 0.4109 0.1455
H79 H 0.7296 0.4075 0.0822
C54 C 0.6191(3) 0.0982(8) 0.13798(18)
H80 H 0.6139 -0.0307 0.1328
H81 H 0.6327 0.1225 0.1804
C55 C 0.5384(3) 0.1851(8) 0.1147(2)
H82 H 0.5188 0.1405 0.0748
H83 H 0.4973 0.1546 0.1401
C56 C 0.5480(3) 0.3828(9) 0.1127(4)
H84 H 0.5566 0.4354 0.1528
C57 C 0.4759(5) 0.4720(15) 0.0725(4)
C58 C 0.4899(4) 0.6581(14) 0.0662(4)
H85 H 0.4441 0.7097 0.0401
H86 H 0.5404 0.6758 0.0495
H87 H 0.4948 0.7149 0.1046
C59 C 0.4553(4) 0.4001(13) 0.0129(3)
H88 H 0.4104 0.4682 -0.0086
H89 H 0.4386 0.2770 0.0152
H90 H 0.5031 0.4075 -0.0074
O9 O 0.3998(5) 0.4478(15) 0.1040(4)
H91 H 0.3590 0.4945 0.0839
C60 C 1.2396(4) 0.1249(8) 0.02313(19)
H92 H 1.2856 0.1208 0.0030
H93 H 1.1924 0.1892 0.0071
C61 C 1.3123(4) -0.0587(13) 0.0993(4)
H94 H 1.3544 -0.0452 0.0738
H95 H 1.2984 -0.1834 0.1020
H96 H 1.3330 -0.0136 0.1384
C62 C 0.9333(3) 0.0241(6) 0.20556(14)
H97 H 0.9713 -0.0680 0.2220
H98 H 0.8838 0.0194 0.2242
H99 H 0.9593 0.1394 0.2127
O10? O 0.4123(4) 0.4193(14) 0.1576(4)
H100? H 0.3824 0.5001 0.1673
C63? C 0.4893(8) 0.678(2) 0.1384(6)
H101? H 0.4399 0.7461 0.1418
H102? H 0.5189 0.7337 0.1096
H103? H 0.5242 0.6748 0.1765
C64? C 0.4654(6) 0.4891(19) 0.1187(5)
C65? C 0.4298(9) 0.476(2) 0.0566(6)
H104? H 0.3773 0.5374 0.0502
H105? H 0.4215 0.3517 0.0459
H106? H 0.4670 0.5292 0.0324
loop_
_geom_bond_atom_site_label_1
_geom_bond_atom_site_label_2
_geom_bond_site_symmetry_1
_geom_bond_site_symmetry_2
N1 C2 1_555 1_555
C1 H1 1_555 1_555
H2 C1 1_555 1_555
H3 C1 1_555 1_555
C2 C1 1_555 1_555
O2 C5 1_555 1_555
O3 H4 1_555 1_555
O4 C23 1_555 1_555
O5 H5 1_555 1_555
C3 H6 1_555 1_555
H7 C3 1_555 1_555
C4 C3 1_555 1_555
H8 C4 1_555 1_555
H9 C4 1_555 1_555
C5 O3 1_555 1_555
C6 C7 1_555 1_555
C7 H10 1_555 1_555
C8 C7 1_555 1_555
H11 C8 1_555 1_555
H12 C8 1_555 1_555
C9 C8 1_555 1_555
H13 C9 1_555 1_555
H14 C9 1_555 1_555
C10 C9 1_555 1_555
H15 C10 1_555 1_555
C11 C10 1_555 1_555
C12 C3 1_555 1_555
C13 C11 1_555 1_555
H16 C13 1_555 1_555
H17 C13 1_555 1_555
C14 C13 1_555 1_555
H18 C14 1_555 1_555
H19 C14 1_555 1_555
C15 C14 1_555 1_555
C16 C10 1_555 1_555
C17 C16 1_555 1_555
H20 C17 1_555 1_555
H21 C17 1_555 1_555
C18 C17 1_555 1_555
H22 C18 1_555 1_555
H23 C18 1_555 1_555
C19 C15 1_555 1_555
H24 C19 1_555 1_555
C20 C15 1_555 1_555
H25 C20 1_555 1_555
H26 C20 1_555 1_555
H27 C20 1_555 1_555
C21 C11 1_555 1_555
H28 C21 1_555 1_555
H29 C21 1_555 1_555
C22 C19 1_555 1_555
H30 C22 1_555 1_555
C23 C22 1_555 1_555
H31 C23 1_555 1_555
H32 C23 1_555 1_555
C24 C22 1_555 1_555
H33 C24 1_555 1_555
H34 C24 1_555 1_555
C25 C24 1_555 1_555
H35 C25 1_555 1_555
H36 C25 1_555 1_555
C26 O4 1_555 1_555
H37 C26 1_555 1_555
C27 O5 1_555 1_555
C28 C27 1_555 1_555
H38 C28 1_555 1_555
H39 C28 1_555 1_555
H40 C28 1_555 1_555
C29 C27 1_555 1_555
H41 C29 1_555 1_555
H42 C29 1_555 1_555
H43 C29 1_555 1_555
C30 C6 1_555 1_555
H44 C30 1_555 1_555
H45 C30 1_555 1_555
C31 C6 1_555 1_555
H46 C31 1_555 1_555
H47 C31 1_555 1_555
H48 C31 1_555 1_555
C32 C16 1_555 1_555
H49 C32 1_555 1_555
H50 C32 1_555 1_555
H51 C32 1_555 1_555
O6 H52 1_555 1_555
O7 C35 1_555 1_555
O8 C53 1_555 1_555
C33 H53 1_555 1_555
H54 C33 1_555 1_555
C34 C33 1_555 1_555
H55 C34 1_555 1_555
H56 C34 1_555 1_555
C35 O6 1_555 1_555
C36 C37 1_555 1_555
C37 H57 1_555 1_555
C38 C37 1_555 1_555
H58 C38 1_555 1_555
H59 C38 1_555 1_555
C39 C38 1_555 1_555
H60 C39 1_555 1_555
H61 C39 1_555 1_555
C40 C39 1_555 1_555
H62 C40 1_555 1_555
C41 C40 1_555 1_555
C42 C33 1_555 1_555
C43 C41 1_555 1_555
H63 C43 1_555 1_555
H64 C43 1_555 1_555
C44 C43 1_555 1_555
H65 C44 1_555 1_555
H66 C44 1_555 1_555
C45 C44 1_555 1_555
C46 C40 1_555 1_555
C47 C46 1_555 1_555
H67 C47 1_555 1_555
H68 C47 1_555 1_555
C48 C47 1_555 1_555
H69 C48 1_555 1_555
H70 C48 1_555 1_555
C49 C45 1_555 1_555
H71 C49 1_555 1_555
C50 C45 1_555 1_555
H72 C50 1_555 1_555
H73 C50 1_555 1_555
H74 C50 1_555 1_555
C51 C41 1_555 1_555
H75 C51 1_555 1_555
H76 C51 1_555 1_555
C52 C49 1_555 1_555
H77 C52 1_555 1_555
C53 C52 1_555 1_555
H78 C53 1_555 1_555
H79 C53 1_555 1_555
C54 C52 1_555 1_555
H80 C54 1_555 1_555
H81 C54 1_555 1_555
C55 C54 1_555 1_555
H82 C55 1_555 1_555
H83 C55 1_555 1_555
C56 O8 1_555 1_555
H84 C56 1_555 1_555
C57 C56 1_555 1_555
C58 C57 1_555 1_555
H85 C58 1_555 1_555
H86 C58 1_555 1_555
H87 C58 1_555 1_555
C59 C57 1_555 1_555
H88 C59 1_555 1_555
H89 C59 1_555 1_555
H90 C59 1_555 1_555
O9 C57 1_555 1_555
H91 O9 1_555 1_555
C60 C36 1_555 1_555
H92 C60 1_555 1_555
H93 C60 1_555 1_555
C61 C36 1_555 1_555
H94 C61 1_555 1_555
H95 C61 1_555 1_555
H96 C61 1_555 1_555
C62 C46 1_555 1_555
H97 C62 1_555 1_555
H98 C62 1_555 1_555
H99 C62 1_555 1_555
C4 C5 1_555 1_555
C7 C12 1_555 1_555
C11 C12 1_555 1_555
C12 C21 1_555 1_555
C15 C16 1_555 1_555
C18 C19 1_555 1_555
C25 C26 1_555 1_555
C26 C27 1_555 1_555
C34 C35 1_555 1_555
C37 C42 1_555 1_555
C41 C42 1_555 1_555
C42 C51 1_555 1_555
C45 C46 1_555 1_555
C48 C49 1_555 1_555
C55 C56 1_555 1_555

#END
