
#######################################################################
#
#                 Cambridge Crystallographic Data Centre
#                                CCDC 
#
#######################################################################
#
# If this CIF has been generated from an entry in the Cambridge 
# Structural Database, then it will include bibliographic, chemical, 
# crystal, experimental, refinement or atomic coordinate data resulting 
# from the CCDC's data processing and validation procedures.
#
#######################################################################

data_MOFYIQ
_chemical_compound_source        'roots of Aconitum szechenyianum Gay'
_chemical_formula_moiety         'C24 H33 N1 O4'
_chemical_name_systematic        15-acetylsongorine
_chemical_properties_biological  
'possible bioactivity, roots used in folk medicine for the treatment of pain'
_symmetry_cell_setting           triclinic
_symmetry_space_group_name_H-M   'P 1'
_symmetry_Int_Tables_number      1
_space_group_name_Hall           'P 1'
loop_
_symmetry_equiv_pos_site_id
_symmetry_equiv_pos_as_xyz
1 x,y,z
_cell_length_a                   9.360(8)
_cell_length_b                   11.593(9)
_cell_length_c                   11.830(16)
_cell_angle_alpha                113.223(15)
_cell_angle_beta                 105.950(16)
_cell_angle_gamma                101.296(12)
_cell_volume                     1064.9
_exptl_crystal_colour            colorless
_exptl_crystal_description       prism
_cell_formula_units_Z            2
_exptl_crystal_recrystallization_method acetonitrile/water
loop_
_atom_site_label
_atom_site_type_symbol
_atom_site_fract_x
_atom_site_fract_y
_atom_site_fract_z
N1 N 0.2337(5) 1.0979(4) 0.0488(4)
O1 O 0.3465(4) 1.0559(3) 0.3324(3)
H1 H 0.4091 1.1076 0.4095
O2 O 0.1149(5) 0.6045(4) 0.2331(4)
O3 O -0.3170(4) 0.6801(3) -0.0736(3)
O4 O -0.464(3) 0.550(7) -0.293(3)
C1 C 0.2095(5) 1.0964(4) 0.3035(4)
H2 H 0.1564 1.0902 0.3627
C2 C 0.2657(6) 1.2401(5) 0.3331(5)
H3 H 0.3445 1.2527 0.2963
H4 H 0.3154 1.2973 0.4291
C3 C 0.1308(6) 1.2811(5) 0.2749(5)
H5 H 0.1738 1.3710 0.2886
H6 H 0.0610 1.2825 0.3223
C4 C 0.0357(6) 1.1874(5) 0.1266(5)
C5 C -0.0370(5) 1.0452(4) 0.1040(4)
H7 H -0.1130 1.0423 0.1465
C6 C -0.1141(5) 0.9429(5) -0.0446(4)
H8 H -0.1276 0.9869 -0.0996
H9 H -0.2165 0.8820 -0.0660
C7 C 0.0035(5) 0.8680(5) -0.0656(4)
H10 H 0.0056 0.8343 -0.1550
C8 C -0.0227(5) 0.7635(4) -0.0188(4)
C9 C 0.0145(5) 0.8526(4) 0.1329(4)
H11 H -0.0867 0.8485 0.1427
C10 C 0.0966(5) 0.9979(4) 0.1593(4)
C11 C 0.1060(6) 0.8032(5) 0.2237(4)
H12 H 0.2180 0.8527 0.2576
H13 H 0.0759 0.8259 0.2998
C12 C 0.0836(6) 0.6582(5) 0.1629(5)
C13 C 0.0262(6) 0.5845(5) 0.0154(5)
H14 H 0.0540 0.5036 -0.0162
C14 C 0.0866(6) 0.6793(5) -0.0345(5)
H15 H 0.0735 0.6311 -0.1269
H16 H 0.1969 0.7343 0.0202
C15 C -0.1824(6) 0.6471(5) -0.0932(5)
H17 H -0.2048 0.6027 -0.1890
C16 C -0.1515(6) 0.5548(5) -0.0377(5)
C17 C -0.2547(8) 0.4757(6) -0.0218(6)
H18 H -0.3589 0.4735 -0.0460
H19 H -0.2242 0.4216 0.0138
C18 C -0.0946(7) 1.2394(6) 0.0778(6)
H20 H -0.1585 1.2460 0.1296
H21 H -0.1598 1.1787 -0.0147
H22 H -0.0471 1.3260 0.0878
C19 C 0.1365(6) 1.1808(5) 0.0444(5)
H23 H 0.0671 1.1470 -0.0479
H24 H 0.2051 1.2708 0.0757
C20 C 0.1621(5) 0.9749(5) 0.0498(4)
H25 H 0.2410 0.9318 0.0621
C21 C 0.3001(7) 1.0792(8) -0.0517(6)
H26 H 0.2180 1.0135 -0.1381
H27 H 0.3300 1.1628 -0.0543
C22 C 0.4344(12) 1.0371(18) -0.0334(10)
H28 H 0.5109 1.0936 0.0565
H29 H 0.4808 1.0433 -0.0948
H30 H 0.4019 0.9463 -0.0497
C24 C -0.4510(6) 0.6329(7) -0.1809(6)
C25 C -0.5850(7) 0.6533(8) -0.1425(7)
H34 H -0.6711 0.6402 -0.2180
H35 H -0.5523 0.7425 -0.0712
H36 H -0.6186 0.5903 -0.1132
N2 N 0.6102(5) 1.0947(4) 0.5695(4)
O6 O 0.5221(4) 0.9290(3) 0.2114(3)
H37 H 0.4856 0.9862 0.2055
O7 O 0.4374(5) 0.4662(4) 0.0710(4)
O8 O 0.9199(4) 0.7137(4) 0.5017(3)
O9 O 1.0023(6) 0.6216(5) 0.6307(4)
C26 C 0.6816(5) 0.9924(4) 0.3084(4)
H38 H 0.7489 0.9650 0.2599
C27 C 0.7279(6) 1.1438(5) 0.3650(5)
H39 H 0.7316 1.1664 0.2949
H40 H 0.6473 1.1720 0.3936
C28 C 0.8858(6) 1.2189(5) 0.4813(5)
H41 H 0.9038 1.3140 0.5189
H42 H 0.9687 1.2024 0.4496
C29 C 0.8960(6) 1.1785(5) 0.5903(4)
C30 C 0.8761(5) 1.0298(4) 0.5331(4)
H43 H 0.9616 1.0130 0.5037
C31 C 0.8687(6) 0.9803(5) 0.6335(4)
H44 H 0.8992 1.0544 0.7217
H45 H 0.9373 0.9282 0.6388
C32 C 0.6951(5) 0.8937(5) 0.5776(4)
H46 H 0.6564 0.8896 0.6455
C33 C 0.6659(5) 0.7583(4) 0.4648(4)
C34 C 0.6933(5) 0.7941(4) 0.3564(4)
H47 H 0.7951 0.7867 0.3542
C35 C 0.7113(5) 0.9454(4) 0.4141(4)
C36 C 0.5654(6) 0.6995(5) 0.2161(4)
H48 H 0.4791 0.7340 0.2045
H49 H 0.6095 0.7014 0.1514
C37 C 0.4989(6) 0.5572(5) 0.1846(5)
C38 C 0.5038(6) 0.5360(5) 0.3028(5)
H50 H 0.4193 0.4548 0.2777
C39 C 0.4990(6) 0.6579(5) 0.4105(5)
H51 H 0.4791 0.6401 0.4793
H52 H 0.4187 0.6897 0.3742
C40 C 0.7602(6) 0.6700(5) 0.4914(5)
H53 H 0.7594 0.6650 0.5720
C41 C 0.6686(7) 0.5333(6) 0.3685(5)
C42 C 0.7192(11) 0.4364(8) 0.3203(8)
H54 H 0.8239 0.4457 0.3618
H55 H 0.6511 0.3572 0.2440
C43 C 1.0585(7) 1.2678(5) 0.7052(6)
H56 H 1.1394 1.2674 0.6699
H57 H 1.0782 1.2342 0.7681
H58 H 1.0591 1.3575 0.7491
C44 C 0.7683(6) 1.2012(5) 0.6458(5)
H59 H 0.8067 1.2132 0.7361
H60 H 0.7554 1.2841 0.6517
C45 C 0.6115(5) 0.9587(4) 0.4987(4)
H61 H 0.5024 0.8982 0.4406
C46 C 0.5205(7) 1.1012(6) 0.6542(5)
H62 H 0.4353 1.0162 0.6118
H63 H 0.5897 1.1131 0.7388
C47 C 0.4533(10) 1.2071(9) 0.6807(8)
H64 H 0.5330 1.2898 0.7083
H65 H 0.4155 1.2158 0.7503
H66 H 0.3670 1.1856 0.6010
C48 C 1.0307(7) 0.6812(6) 0.5719(5)
C49 C 1.192(2) 0.746(4) 0.575(2)
H67 H 1.2660 0.7076 0.6062
H68 H 1.2299 0.8403 0.6333
H69 H 1.1814 0.7297 0.4862
O5? O -0.448(4) 0.618(8) -0.285(4)
C23? C 0.455(4) 1.147(5) -0.021(3)
H31? H 0.4712 1.1305 -0.1013
H32? H 0.5233 1.1178 0.0298
H33? H 0.4776 1.2414 0.0318
C50? C 1.164(6) 0.684(8) 0.541(5)
H70? H 1.1699 0.7328 0.4924
H71? H 1.1574 0.5940 0.4875
H72? H 1.2572 0.7263 0.6222
loop_
_geom_bond_atom_site_label_1
_geom_bond_atom_site_label_2
_geom_bond_site_symmetry_1
_geom_bond_site_symmetry_2
N1 C19 1_555 1_555
O1 H1 1_555 1_555
O2 C12 1_555 1_555
O3 C15 1_555 1_555
O4 C24 1_555 1_555
C1 O1 1_555 1_555
H2 C1 1_555 1_555
C2 C1 1_555 1_555
H3 C2 1_555 1_555
H4 C2 1_555 1_555
C3 C2 1_555 1_555
H5 C3 1_555 1_555
H6 C3 1_555 1_555
C4 C3 1_555 1_555
C5 C4 1_555 1_555
H7 C5 1_555 1_555
C6 C5 1_555 1_555
H8 C6 1_555 1_555
H9 C6 1_555 1_555
C7 C6 1_555 1_555
H10 C7 1_555 1_555
C8 C7 1_555 1_555
C9 C8 1_555 1_555
H11 C9 1_555 1_555
C10 C1 1_555 1_555
C11 C9 1_555 1_555
H12 C11 1_555 1_555
H13 C11 1_555 1_555
C12 C11 1_555 1_555
C13 C12 1_555 1_555
H14 C13 1_555 1_555
C14 C8 1_555 1_555
H15 C14 1_555 1_555
H16 C14 1_555 1_555
C15 C8 1_555 1_555
H17 C15 1_555 1_555
C16 C13 1_555 1_555
C17 C16 1_555 1_555
H18 C17 1_555 1_555
H19 C17 1_555 1_555
C18 C4 1_555 1_555
H20 C18 1_555 1_555
H21 C18 1_555 1_555
H22 C18 1_555 1_555
C19 C4 1_555 1_555
H23 C19 1_555 1_555
H24 C19 1_555 1_555
C20 N1 1_555 1_555
H25 C20 1_555 1_555
C21 N1 1_555 1_555
H26 C21 1_555 1_555
H27 C21 1_555 1_555
C22 C21 1_555 1_555
H28 C22 1_555 1_555
H29 C22 1_555 1_555
H30 C22 1_555 1_555
C24 O3 1_555 1_555
C25 C24 1_555 1_555
H34 C25 1_555 1_555
H35 C25 1_555 1_555
H36 C25 1_555 1_555
N2 C44 1_555 1_555
O6 H37 1_555 1_555
O7 C37 1_555 1_555
O8 C40 1_555 1_555
O9 C48 1_555 1_555
C26 O6 1_555 1_555
H38 C26 1_555 1_555
C27 C26 1_555 1_555
H39 C27 1_555 1_555
H40 C27 1_555 1_555
C28 C27 1_555 1_555
H41 C28 1_555 1_555
H42 C28 1_555 1_555
C29 C28 1_555 1_555
C30 C29 1_555 1_555
H43 C30 1_555 1_555
C31 C30 1_555 1_555
H44 C31 1_555 1_555
H45 C31 1_555 1_555
C32 C31 1_555 1_555
H46 C32 1_555 1_555
C33 C32 1_555 1_555
C34 C33 1_555 1_555
H47 C34 1_555 1_555
C35 C26 1_555 1_555
C36 C34 1_555 1_555
H48 C36 1_555 1_555
H49 C36 1_555 1_555
C37 C36 1_555 1_555
C38 C37 1_555 1_555
H50 C38 1_555 1_555
C39 C33 1_555 1_555
H51 C39 1_555 1_555
H52 C39 1_555 1_555
C40 C33 1_555 1_555
H53 C40 1_555 1_555
C41 C38 1_555 1_555
C42 C41 1_555 1_555
H54 C42 1_555 1_555
H55 C42 1_555 1_555
C43 C29 1_555 1_555
H56 C43 1_555 1_555
H57 C43 1_555 1_555
H58 C43 1_555 1_555
C44 C29 1_555 1_555
H59 C44 1_555 1_555
H60 C44 1_555 1_555
C45 N2 1_555 1_555
H61 C45 1_555 1_555
C46 N2 1_555 1_555
H62 C46 1_555 1_555
H63 C46 1_555 1_555
C47 C46 1_555 1_555
H64 C47 1_555 1_555
H65 C47 1_555 1_555
H66 C47 1_555 1_555
C48 O8 1_555 1_555
C49 C48 1_555 1_555
H67 C49 1_555 1_555
H68 C49 1_555 1_555
H69 C49 1_555 1_555
C5 C10 1_555 1_555
C7 C20 1_555 1_555
C9 C10 1_555 1_555
C10 C20 1_555 1_555
C13 C14 1_555 1_555
C15 C16 1_555 1_555
C30 C35 1_555 1_555
C32 C45 1_555 1_555
C34 C35 1_555 1_555
C35 C45 1_555 1_555
C38 C39 1_555 1_555
C40 C41 1_555 1_555

#END
