
#######################################################################
#
#                 Cambridge Crystallographic Data Centre
#                                CCDC 
#
#######################################################################
#
# If this CIF has been generated from an entry in the Cambridge 
# Structural Database, then it will include bibliographic, chemical, 
# crystal, experimental, refinement or atomic coordinate data resulting 
# from the CCDC's data processing and validation procedures.
#
#######################################################################

data_MOFYOX
_chemical_compound_source        
'cupules of Lithocarpus polystachyus Wall Reld (Fagaceae)'
_chemical_name_common            
'(24S)-24,25-Dihydroxy-3,4-seco-cycloar-4(28)-ene-3-oic acid'
_chemical_formula_moiety         'C30 H50 O4'
_chemical_name_systematic        
'3-(1-(5,6-Dihydroxy-6-methylheptan-2-yl)-3a,9a-dimethyl-6-(prop-1-en-2-yl)decahydro-1H-cyclopenta[a]cyclopropa[e]naphthalen-6a(7H)-yl)propanoic acid'
_chemical_properties_biological  'antibacterial activity'
_symmetry_cell_setting           orthorhombic
_symmetry_space_group_name_H-M   'P 21 21 21'
_symmetry_Int_Tables_number      19
_space_group_name_Hall           'P 2ac 2ab'
loop_
_symmetry_equiv_pos_site_id
_symmetry_equiv_pos_as_xyz
1 x,y,z
2 1/2+x,1/2-y,-z
3 -x,1/2+y,1/2-z
4 1/2-x,-y,1/2+z
_cell_length_a                   8.5098(2)
_cell_length_b                   12.7020(3)
_cell_length_c                   25.9391(4)
_cell_angle_alpha                90
_cell_angle_beta                 90
_cell_angle_gamma                90
_cell_volume                     2803.8
_exptl_crystal_colour            colorless
_exptl_crystal_description       block
_chemical_melting_point          '250-253 deg.C'
_cell_formula_units_Z            4
_chemical_properties_physical    Heat-sensitive
_exptl_crystal_recrystallization_method acetone
loop_
_atom_site_label
_atom_site_type_symbol
_atom_site_fract_x
_atom_site_fract_y
_atom_site_fract_z
O1 O 0.8052(2) -0.03579(17) 0.45645(8)
O2 O 1.0014(2) -0.02552(17) 0.39930(7)
H1 H 1.0312 -0.0809 0.4140
O3 O -0.3512(2) 0.23271(17) 0.00301(6)
H2 H -0.3322 0.1711 -0.0070
O4 O -0.0939(2) 0.30067(16) 0.05822(7)
H3 H -0.0301 0.2755 0.0368
C1 C 0.6825(3) 0.1623(2) 0.42796(8)
H4 H 0.5944 0.1117 0.4305
H5 H 0.7186 0.1781 0.4634
C2 C 0.8169(4) 0.1108(2) 0.39828(10)
H6 H 0.7821 0.0976 0.3624
H7 H 0.9065 0.1604 0.3969
C3 C 0.8719(3) 0.0091(2) 0.42142(9)
C4 C 0.8071(5) 0.3895(3) 0.45128(11)
C5 C 0.7496(3) 0.3473(2) 0.39975(9)
H8 H 0.8425 0.3118 0.3838
C6 C 0.7082(3) 0.4385(2) 0.36352(9)
H9 H 0.6241 0.4820 0.3791
H10 H 0.8016 0.4837 0.3582
C7 C 0.6532(4) 0.3947(3) 0.31219(9)
H11 H 0.7312 0.3435 0.2991
H12 H 0.6443 0.4526 0.2868
C8 C 0.4942(3) 0.3409(2) 0.31843(8)
H13 H 0.4195 0.3969 0.3300
C9 C 0.4941(3) 0.2560(2) 0.36163(8)
C10 C 0.6228(3) 0.2630(2) 0.40342(8)
C11 C 0.4334(3) 0.1462(2) 0.34723(9)
H14 H 0.3982 0.1111 0.3793
H15 H 0.5231 0.1050 0.3336
C12 C 0.2971(3) 0.1392(2) 0.30736(9)
H16 H 0.3214 0.0825 0.2824
H17 H 0.1996 0.1192 0.3257
C13 C 0.2670(3) 0.2418(2) 0.27735(8)
C14 C 0.4276(3) 0.2974(2) 0.26749(8)
C15 C 0.3836(3) 0.3852(2) 0.22893(9)
H18 H 0.4756 0.4058 0.2079
H19 H 0.3432 0.4480 0.2472
C16 C 0.2541(3) 0.3350(3) 0.19495(9)
H20 H 0.2953 0.3210 0.1599
H21 H 0.1633 0.3834 0.1920
C17 C 0.2028(3) 0.2304(2) 0.22105(8)
H22 H 0.2635 0.1724 0.2042
C18 C 0.1548(3) 0.3107(2) 0.30927(9)
H23 H 0.0518 0.2765 0.3114
H24 H 0.1435 0.3797 0.2927
H25 H 0.1976 0.3200 0.3441
C19 C 0.4550(3) 0.2956(2) 0.41520(8)
H26 H 0.3922 0.2490 0.4378
H27 H 0.4332 0.3717 0.4193
C20 C 0.0275(3) 0.2073(2) 0.21213(9)
H28 H -0.0345 0.2683 0.2256
C21 C -0.0290(3) 0.1080(3) 0.23951(10)
H29 H 0.0381 0.0486 0.2298
H30 H -0.1378 0.0931 0.2295
H31 H -0.0237 0.1185 0.2769
C22 C -0.0023(3) 0.1987(2) 0.15343(9)
H32 H 0.0655 0.2505 0.1356
H33 H 0.0300 0.1277 0.1418
C23 C -0.1721(3) 0.2172(2) 0.13695(9)
H34 H -0.2087 0.2854 0.1511
H35 H -0.2393 0.1610 0.1515
C24 C -0.1897(3) 0.2184(2) 0.07843(8)
H36 H -0.1501 0.1498 0.0647
C25 C -0.3583(3) 0.2347(2) 0.05876(9)
C26 C -0.4229(3) 0.3419(3) 0.07286(11)
H37 H -0.3511 0.3967 0.0605
H38 H -0.4332 0.3471 0.1104
H39 H -0.5262 0.3513 0.0568
C27 C -0.4669(4) 0.1476(3) 0.07692(11)
H40 H -0.5709 0.1569 0.0613
H41 H -0.4764 0.1504 0.1145
H42 H -0.4237 0.0793 0.0667
C28 C 0.9645(7) 0.4170(6) 0.45397(16)
H43 H 1.0061 0.4459 0.4849
H44 H 1.0308 0.4069 0.4249
C29 C 0.7034(5) 0.4030(3) 0.49360(11)
H45 H 0.7638 0.4221 0.5244
H46 H 0.6466 0.3371 0.4999
H47 H 0.6280 0.4591 0.4857
C30 C 0.5459(3) 0.2242(2) 0.24058(9)
H48 H 0.6433 0.2628 0.2337
H49 H 0.5011 0.1992 0.2080
H50 H 0.5685 0.1638 0.2629
loop_
_geom_bond_atom_site_label_1
_geom_bond_atom_site_label_2
_geom_bond_site_symmetry_1
_geom_bond_site_symmetry_2
O1 C3 1_555 1_555
O2 H1 1_555 1_555
O3 H2 1_555 1_555
O4 H3 1_555 1_555
C1 H4 1_555 1_555
H5 C1 1_555 1_555
C2 C1 1_555 1_555
H6 C2 1_555 1_555
H7 C2 1_555 1_555
C3 O2 1_555 1_555
C4 C5 1_555 1_555
C5 H8 1_555 1_555
C6 C5 1_555 1_555
H9 C6 1_555 1_555
H10 C6 1_555 1_555
C7 C6 1_555 1_555
H11 C7 1_555 1_555
H12 C7 1_555 1_555
C8 C7 1_555 1_555
H13 C8 1_555 1_555
C9 C8 1_555 1_555
C10 C1 1_555 1_555
C11 C9 1_555 1_555
H14 C11 1_555 1_555
H15 C11 1_555 1_555
C12 C11 1_555 1_555
H16 C12 1_555 1_555
H17 C12 1_555 1_555
C13 C12 1_555 1_555
C14 C8 1_555 1_555
C15 C14 1_555 1_555
H18 C15 1_555 1_555
H19 C15 1_555 1_555
C16 C15 1_555 1_555
H20 C16 1_555 1_555
H21 C16 1_555 1_555
C17 C13 1_555 1_555
H22 C17 1_555 1_555
C18 C13 1_555 1_555
H23 C18 1_555 1_555
H24 C18 1_555 1_555
H25 C18 1_555 1_555
C19 C9 1_555 1_555
H26 C19 1_555 1_555
H27 C19 1_555 1_555
C20 C17 1_555 1_555
H28 C20 1_555 1_555
C21 C20 1_555 1_555
H29 C21 1_555 1_555
H30 C21 1_555 1_555
H31 C21 1_555 1_555
C22 C20 1_555 1_555
H32 C22 1_555 1_555
H33 C22 1_555 1_555
C23 C22 1_555 1_555
H34 C23 1_555 1_555
H35 C23 1_555 1_555
C24 O4 1_555 1_555
H36 C24 1_555 1_555
C25 O3 1_555 1_555
C26 C25 1_555 1_555
H37 C26 1_555 1_555
H38 C26 1_555 1_555
H39 C26 1_555 1_555
C27 C25 1_555 1_555
H40 C27 1_555 1_555
H41 C27 1_555 1_555
H42 C27 1_555 1_555
C28 C4 1_555 1_555
H43 C28 1_555 1_555
H44 C28 1_555 1_555
C29 C4 1_555 1_555
H45 C29 1_555 1_555
H46 C29 1_555 1_555
H47 C29 1_555 1_555
C30 C14 1_555 1_555
H48 C30 1_555 1_555
H49 C30 1_555 1_555
H50 C30 1_555 1_555
C2 C3 1_555 1_555
C5 C10 1_555 1_555
C9 C10 1_555 1_555
C10 C19 1_555 1_555
C13 C14 1_555 1_555
C16 C17 1_555 1_555
C23 C24 1_555 1_555
C24 C25 1_555 1_555

#END
