
#######################################################################
#
#                 Cambridge Crystallographic Data Centre
#                                CCDC 
#
#######################################################################
#
# If this CIF has been generated from an entry in the Cambridge 
# Structural Database, then it will include bibliographic, chemical, 
# crystal, experimental, refinement or atomic coordinate data resulting 
# from the CCDC's data processing and validation procedures.
#
#######################################################################

data_MOFZAK
_chemical_compound_source        
'cupules of Lithocarpus polystachyus Wall Reld (Fagaceae)'
_chemical_name_common            
'24,25-Dihydroxy-21,23-epoxy-3,4-seco-cycloart-4(28)-3-oic acid monohydrate'
_chemical_formula_moiety         'C30 H48 O5,H2 O1'
_chemical_name_systematic        
'3-(1-(5-(1,2-Dihydroxy-2-methylpropyl)tetrahydrofuran-3-yl)-3a,9a-dimethyl-6-(prop-1-en-2-yl)decahydro-1H-cyclopenta[a]cyclopropa[e]naphthalen-6a(7H)-yl)propanoic acid monohydrate'
_symmetry_cell_setting           orthorhombic
_symmetry_space_group_name_H-M   'P 21 21 21'
_symmetry_Int_Tables_number      19
_space_group_name_Hall           'P 2ac 2ab'
loop_
_symmetry_equiv_pos_site_id
_symmetry_equiv_pos_as_xyz
1 x,y,z
2 1/2+x,1/2-y,-z
3 -x,1/2+y,1/2-z
4 1/2-x,-y,1/2+z
_cell_length_a                   7.6982(12)
_cell_length_b                   19.440(3)
_cell_length_c                   21.085(3)
_cell_angle_alpha                90
_cell_angle_beta                 90
_cell_angle_gamma                90
_cell_volume                     3155.43
_exptl_crystal_colour            colorless
_chemical_melting_point          '220-223 deg.C'
_cell_formula_units_Z            4
_chemical_properties_physical    Heat-sensitive
_exptl_crystal_recrystallization_method acetone
loop_
_atom_site_label
_atom_site_type_symbol
_atom_site_fract_x
_atom_site_fract_y
_atom_site_fract_z
O1 O 0.455(3) 0.585(2) 0.184(2)
O2 O -0.0598(17) 0.1847(8) 0.7434(5)
O3 O 0.1054(12) 0.1687(6) 0.6618(5)
H1 H 0.0122 0.1643 0.6434
O4 O 0.3546(11) 0.7385(5) 0.8176(4)
H2 H 0.2988 0.7066 0.8025
O5 O 0.3960(19) 0.8667(5) 0.8646(5)
H3 H 0.2939 0.8786 0.8651
C1 C 0.545(2) 0.0376(12) 0.8178(12)
H4 H 0.5311 -0.0087 0.8277
H5 H 0.5775 0.0505 0.7770
C2 C 0.078(3) 0.1799(8) 0.7204(7)
C3 C 0.2446(18) 0.1908(9) 0.7576(6)
H6 H 0.2898 0.2363 0.7483
H7 H 0.3303 0.1574 0.7439
C4 C 0.2184(17) 0.1839(8) 0.8306(5)
H8 H 0.1205 0.2121 0.8434
H9 H 0.1908 0.1365 0.8407
C5 C 0.3762(16) 0.2054(7) 0.8677(5)
C6 C 0.3931(19) 0.2831(8) 0.8867(6)
C7 C 0.5805(15) 0.3099(7) 0.8983(7)
H10 H 0.5991 0.3100 0.9443
C8 C 0.5901(16) 0.3865(8) 0.8757(6)
C9 C 0.4409(15) 0.4276(7) 0.9053(6)
C10 C 0.4991(16) 0.5032(8) 0.8895(6)
H11 H 0.4910 0.5091 0.8435
C11 C 0.4042(19) 0.5637(8) 0.9203(6)
H12 H 0.4124 0.5579 0.9664
C12 C 0.481(2) 0.6335(8) 0.9040(7)
H13 H 0.5831 0.6433 0.9293
H14 H 0.5103 0.6366 0.8593
C13 C 0.335(2) 0.6801(9) 0.9204(6)
H15 H 0.3392 0.6903 0.9659
C14 C 0.3099(18) 0.7466(8) 0.8845(7)
H16 H 0.1867 0.7590 0.8870
C15 C 0.4195(19) 0.8114(9) 0.9057(8)
C16 C 0.612(2) 0.7889(9) 0.9108(8)
H17 H 0.6628 0.8089 0.9480
H18 H 0.6738 0.8042 0.8739
H19 H 0.6179 0.7397 0.9136
C17 C 0.373(3) 0.8322(11) 0.9713(9)
H20 H 0.3771 0.8814 0.9746
H21 H 0.4549 0.8124 1.0005
H22 H 0.2586 0.8163 0.9811
O6 O 0.1764(11) 0.6426(6) 0.9070(4)
C18 C 0.220(2) 0.5712(9) 0.9043(6)
H23 H 0.1987 0.5534 0.8621
H24 H 0.1495 0.5455 0.9341
C19 C 0.6972(15) 0.5015(8) 0.9073(7)
H25 H 0.7638 0.5297 0.8781
H26 H 0.7148 0.5187 0.9500
C20 C 0.7548(16) 0.4247(8) 0.9025(6)
H27 H 0.7867 0.4068 0.9438
H28 H 0.8528 0.4197 0.8739
C21 C 0.2695(18) 0.4058(7) 0.8726(6)
H29 H 0.1721 0.4229 0.8972
H30 H 0.2639 0.4267 0.8309
C22 C 0.2533(19) 0.3291(8) 0.8659(7)
H31 H 0.1491 0.3155 0.8885
H32 H 0.2327 0.3197 0.8214
C23 C 0.4214(17) 0.4146(8) 0.9745(6)
H33 H 0.5301 0.4230 0.9954
H34 H 0.3872 0.3677 0.9811
H35 H 0.3343 0.4447 0.9915
C24 C 0.5924(19) 0.3881(8) 0.8016(5)
H36 H 0.6149 0.4341 0.7874
H37 H 0.4818 0.3731 0.7857
H38 H 0.6818 0.3580 0.7863
C25 C 0.7269(18) 0.2662(8) 0.8688(7)
H39 H 0.7254 0.2706 0.8230
H40 H 0.8390 0.2817 0.8842
C26 C 0.6978(16) 0.1934(9) 0.8873(6)
H41 H 0.6805 0.1906 0.9328
H42 H 0.7996 0.1664 0.8766
C27 C 0.5402(16) 0.1640(9) 0.8535(6)
H43 H 0.5624 0.1696 0.8081
C28 C 0.5150(19) 0.0880(12) 0.8643(8)
C29 C 0.462(2) 0.0660(8) 0.9294(8)
H44 H 0.4392 0.0175 0.9294
H45 H 0.3594 0.0904 0.9418
H46 H 0.5543 0.0759 0.9587
C30 C 0.339(2) 0.2280(9) 0.9341(8)
H47 H 0.4223 0.2153 0.9666
H48 H 0.2189 0.2276 0.9479
loop_
_geom_bond_atom_site_label_1
_geom_bond_atom_site_label_2
_geom_bond_site_symmetry_1
_geom_bond_site_symmetry_2
O2 C2 1_555 1_555
O3 H1 1_555 1_555
O4 H2 1_555 1_555
O5 H3 1_555 1_555
C1 H4 1_555 1_555
H5 C1 1_555 1_555
C2 O3 1_555 1_555
C3 C2 1_555 1_555
H6 C3 1_555 1_555
H7 C3 1_555 1_555
C4 C3 1_555 1_555
H8 C4 1_555 1_555
H9 C4 1_555 1_555
C5 C4 1_555 1_555
C6 C5 1_555 1_555
C7 C6 1_555 1_555
H10 C7 1_555 1_555
C8 C7 1_555 1_555
C9 C8 1_555 1_555
C10 C9 1_555 1_555
H11 C10 1_555 1_555
C11 C10 1_555 1_555
H12 C11 1_555 1_555
C12 C11 1_555 1_555
H13 C12 1_555 1_555
H14 C12 1_555 1_555
C13 C12 1_555 1_555
H15 C13 1_555 1_555
C14 O4 1_555 1_555
H16 C14 1_555 1_555
C15 O5 1_555 1_555
C16 C15 1_555 1_555
H17 C16 1_555 1_555
H18 C16 1_555 1_555
H19 C16 1_555 1_555
C17 C15 1_555 1_555
H20 C17 1_555 1_555
H21 C17 1_555 1_555
H22 C17 1_555 1_555
O6 C13 1_555 1_555
C18 C11 1_555 1_555
H23 C18 1_555 1_555
H24 C18 1_555 1_555
C19 C10 1_555 1_555
H25 C19 1_555 1_555
H26 C19 1_555 1_555
C20 C8 1_555 1_555
H27 C20 1_555 1_555
H28 C20 1_555 1_555
C21 C9 1_555 1_555
H29 C21 1_555 1_555
H30 C21 1_555 1_555
C22 C6 1_555 1_555
H31 C22 1_555 1_555
H32 C22 1_555 1_555
C23 C9 1_555 1_555
H33 C23 1_555 1_555
H34 C23 1_555 1_555
H35 C23 1_555 1_555
C24 C8 1_555 1_555
H36 C24 1_555 1_555
H37 C24 1_555 1_555
H38 C24 1_555 1_555
C25 C7 1_555 1_555
H39 C25 1_555 1_555
H40 C25 1_555 1_555
C26 C25 1_555 1_555
H41 C26 1_555 1_555
H42 C26 1_555 1_555
C27 C5 1_555 1_555
H43 C27 1_555 1_555
C28 C1 1_555 1_555
C29 C28 1_555 1_555
H44 C29 1_555 1_555
H45 C29 1_555 1_555
H46 C29 1_555 1_555
C30 C5 1_555 1_555
H47 C30 1_555 1_555
H48 C30 1_555 1_555
C6 C30 1_555 1_555
C13 C14 1_555 1_555
C14 C15 1_555 1_555
O6 C18 1_555 1_555
C19 C20 1_555 1_555
C21 C22 1_555 1_555
C26 C27 1_555 1_555
C27 C28 1_555 1_555

#END
