
#######################################################################
#
#                 Cambridge Crystallographic Data Centre
#                                CCDC 
#
#######################################################################
#
# If this CIF has been generated from an entry in the Cambridge 
# Structural Database, then it will include bibliographic, chemical, 
# crystal, experimental, refinement or atomic coordinate data resulting 
# from the CCDC's data processing and validation procedures.
#
#######################################################################

data_MOGHUN
_chemical_formula_moiety         'C20 H26 N4 O4 Si1'
_chemical_name_systematic        
1-(2,4-Dinitrophenyl)-2-(1-(5-silaspiro[4.5]dec-7-en-7-yl)pent-4-en-1-ylidene)hydrazine
_symmetry_cell_setting           triclinic
_symmetry_space_group_name_H-M   'P -1'
_symmetry_Int_Tables_number      2
_space_group_name_Hall           '-P 1'
loop_
_symmetry_equiv_pos_site_id
_symmetry_equiv_pos_as_xyz
1 x,y,z
2 -x,-y,-z
_cell_length_a                   10.743(3)
_cell_length_b                   14.579(3)
_cell_length_c                   14.860(4)
_cell_angle_alpha                82.65(3)
_cell_angle_beta                 73.58(3)
_cell_angle_gamma                70.58(3)
_cell_volume                     2103.99
_exptl_crystal_colour            'light red'
_exptl_crystal_description       plate
_cell_formula_units_Z            4
loop_
_atom_site_label
_atom_site_type_symbol
_atom_site_fract_x
_atom_site_fract_y
_atom_site_fract_z
Si1 Si 0.73366(10) 0.52752(6) 0.35262(5)
O1 O 0.8954(2) 0.68662(15) -0.22320(13)
O2 O 0.9947(2) 0.78682(14) -0.30747(13)
O3 O 1.1802(2) 0.95854(13) -0.03119(17)
O4 O 1.1720(3) 0.98132(14) -0.17717(17)
N1 N 0.8588(2) 0.61488(14) 0.04420(14)
N2 N 0.8920(2) 0.65292(14) -0.04565(15)
H1 H 0.881(3) 0.6356(19) -0.097(2)
N3 N 0.9578(3) 0.74656(16) -0.23180(15)
N4 N 1.1489(3) 0.94089(15) -0.0997(2)
C1 C 0.6642(3) 0.6304(2) 0.43436(19)
H2 H 0.6667 0.6925 0.3993
H3 H 0.5688 0.6366 0.4696
C2 C 0.7582(4) 0.6039(2) 0.5013(2)
H4 H 0.8347 0.6313 0.4757
H5 H 0.7064 0.6316 0.5633
C3 C 0.8135(4) 0.4940(2) 0.5115(2)
H6 H 0.7399 0.4676 0.5488
H7 H 0.8873 0.4753 0.5443
C4 C 0.8689(4) 0.4532(2) 0.4130(2)
H8 H 0.8785 0.3830 0.4152
H9 H 0.9583 0.4626 0.3813
C5 C 0.8020(3) 0.55725(19) 0.22652(17)
H10 H 0.7640 0.6284 0.2158
H11 H 0.9021 0.5417 0.2143
C6 C 0.7738(3) 0.50642(16) 0.15413(17)
C7 C 0.7156(3) 0.43539(17) 0.17655(19)
H12 H 0.7056 0.4078 0.1255
C8 C 0.6645(3) 0.39412(19) 0.27225(19)
H13 H 0.7406 0.3401 0.2883
H14 H 0.5927 0.3666 0.2703
C9 C 0.6064(4) 0.4678(2) 0.3498(2)
H15 H 0.5810 0.4342 0.4112
H16 H 0.5229 0.5177 0.3389
C10 C 0.8133(3) 0.54043(16) 0.05595(16)
C11 C 0.7982(3) 0.49525(16) -0.02475(17)
H17 H 0.7986 0.4275 -0.0063
H18 H 0.8776 0.4930 -0.0791
C12 C 0.6663(3) 0.55139(17) -0.05452(18)
H19 H 0.5866 0.5501 -0.0015
H20 H 0.6630 0.6202 -0.0695
C13 C 0.6569(3) 0.5092(2) -0.1381(2)
H21 H 0.6436 0.4472 -0.1297
C14 C 0.6655(4) 0.5513(2) -0.2215(2)
H22 H 0.6788 0.6134 -0.2326
H23 H 0.6585 0.5198 -0.2712
C15 C 0.9514(3) 0.72454(16) -0.06044(17)
C16 C 0.9871(3) 0.77012(17) -0.14956(18)
C17 C 1.0520(3) 0.84024(16) -0.16191(19)
H24 H 1.0767 0.8695 -0.2224
C18 C 1.0804(3) 0.86739(17) -0.0869(2)
C19 C 1.0443(3) 0.82548(16) 0.00239(19)
H25 H 1.0635 0.8454 0.0540
C20 C 0.9815(3) 0.75575(16) 0.01533(18)
H26 H 0.9573 0.7275 0.0764
Si2 Si 0.11322(10) 0.82375(5) 0.33768(6)
O5 O 0.5655(2) 1.21318(13) 0.14245(14)
O6 O 0.6426(2) 1.27931(12) 0.00844(13)
O7 O 0.4131(2) 1.15269(15) -0.27038(15)
O8 O 0.5237(3) 1.25197(16) -0.26617(15)
N5 N 0.3219(2) 1.05269(13) 0.20337(15)
N6 N 0.3978(3) 1.11294(15) 0.15842(16)
H27 H 0.449(4) 1.134(2) 0.183(2)
N7 N 0.5737(2) 1.22924(14) 0.05727(17)
N8 N 0.4626(3) 1.19375(18) -0.22826(18)
C21 C 0.1698(3) 0.72431(19) 0.2527(2)
H28 H 0.1976 0.7491 0.1874
H29 H 0.2475 0.6700 0.2665
C22 C 0.0446(3) 0.6914(2) 0.2674(2)
H30 H 0.0511 0.6586 0.2111
H31 H 0.0391 0.6447 0.3218
C23 C -0.0818(3) 0.7803(2) 0.2849(2)
H32 H -0.1651 0.7600 0.3063
H33 H -0.0859 0.8206 0.2262
C24 C -0.0733(3) 0.8393(2) 0.3610(2)
H34 H -0.1084 0.8135 0.4247
H35 H -0.1264 0.9088 0.3554
C25 C 0.1624(3) 0.93443(19) 0.2852(2)
H36 H 0.2297 0.9174 0.2239
H37 H 0.0803 0.9849 0.2727
C26 C 0.2223(3) 0.97842(18) 0.34301(19)
C27 C 0.2112(3) 0.95692(19) 0.4349(2)
H38 H 0.2483 0.9908 0.4656
C28 C 0.1469(3) 0.88544(19) 0.4947(2)
H39 H 0.0467 0.9165 0.5139
H40 H 0.1801 0.8686 0.5523
C29 C 0.1783(4) 0.79192(19) 0.44450(19)
H41 H 0.1338 0.7472 0.4867
H42 H 0.2780 0.7587 0.4269
C30 C 0.2940(3) 1.04826(18) 0.2952(2)
C31 C 0.3302(3) 1.1121(2) 0.3507(2)
H43 H 0.2632 1.1231 0.4128
H44 H 0.3227 1.1761 0.3173
C32 C 0.4745(4) 1.0675(2) 0.3652(2)
H45 H 0.4825 1.0043 0.4003
H46 H 0.5425 1.0561 0.3036
C33 C 0.5020(4) 1.1373(2) 0.4200(2)
H47 H 0.4498 1.1487 0.4831
C34 C 0.5906(4) 1.1809(2) 0.3860(3)
H48 H 0.6443 1.1709 0.3231
H49 H 0.6032 1.2236 0.4236
C35 C 0.4174(3) 1.13097(15) 0.06458(18)
C36 C 0.4988(3) 1.18906(16) 0.01354(18)
C37 C 0.5127(3) 1.20944(17) -0.08214(19)
H50 H 0.5668 1.2490 -0.1155
C38 C 0.4472(3) 1.17170(17) -0.12761(18)
C39 C 0.3676(3) 1.11328(17) -0.08093(19)
H51 H 0.3243 1.0871 -0.1142
C40 C 0.3524(3) 1.09397(16) 0.01294(18)
H52 H 0.2971 1.0548 0.0448
loop_
_geom_bond_atom_site_label_1
_geom_bond_atom_site_label_2
_geom_bond_site_symmetry_1
_geom_bond_site_symmetry_2
Si1 C1 1_555 1_555
O1 N3 1_555 1_555
O2 N3 1_555 1_555
O3 N4 1_555 1_555
O4 N4 1_555 1_555
N1 N2 1_555 1_555
N2 H1 1_555 1_555
N3 C16 1_555 1_555
N4 C18 1_555 1_555
C1 H2 1_555 1_555
H3 C1 1_555 1_555
C2 C1 1_555 1_555
H4 C2 1_555 1_555
H5 C2 1_555 1_555
C3 C2 1_555 1_555
H6 C3 1_555 1_555
H7 C3 1_555 1_555
C4 Si1 1_555 1_555
H8 C4 1_555 1_555
H9 C4 1_555 1_555
C5 Si1 1_555 1_555
H10 C5 1_555 1_555
H11 C5 1_555 1_555
C6 C5 1_555 1_555
C7 C6 1_555 1_555
H12 C7 1_555 1_555
C8 C7 1_555 1_555
H13 C8 1_555 1_555
H14 C8 1_555 1_555
C9 Si1 1_555 1_555
H15 C9 1_555 1_555
H16 C9 1_555 1_555
C10 N1 1_555 1_555
C11 C10 1_555 1_555
H17 C11 1_555 1_555
H18 C11 1_555 1_555
C12 C11 1_555 1_555
H19 C12 1_555 1_555
H20 C12 1_555 1_555
C13 C12 1_555 1_555
H21 C13 1_555 1_555
C14 C13 1_555 1_555
H22 C14 1_555 1_555
H23 C14 1_555 1_555
C15 N2 1_555 1_555
C16 C15 1_555 1_555
C17 C16 1_555 1_555
H24 C17 1_555 1_555
C18 C17 1_555 1_555
C19 C18 1_555 1_555
H25 C19 1_555 1_555
C20 C15 1_555 1_555
H26 C20 1_555 1_555
Si2 C21 1_555 1_555
O5 N7 1_555 1_555
O6 N7 1_555 1_555
O7 N8 1_555 1_555
O8 N8 1_555 1_555
N5 N6 1_555 1_555
N6 H27 1_555 1_555
N7 C36 1_555 1_555
N8 C38 1_555 1_555
C21 H28 1_555 1_555
H29 C21 1_555 1_555
C22 C21 1_555 1_555
H30 C22 1_555 1_555
H31 C22 1_555 1_555
C23 C22 1_555 1_555
H32 C23 1_555 1_555
H33 C23 1_555 1_555
C24 Si2 1_555 1_555
H34 C24 1_555 1_555
H35 C24 1_555 1_555
C25 Si2 1_555 1_555
H36 C25 1_555 1_555
H37 C25 1_555 1_555
C26 C25 1_555 1_555
C27 C26 1_555 1_555
H38 C27 1_555 1_555
C28 C27 1_555 1_555
H39 C28 1_555 1_555
H40 C28 1_555 1_555
C29 Si2 1_555 1_555
H41 C29 1_555 1_555
H42 C29 1_555 1_555
C30 N5 1_555 1_555
C31 C30 1_555 1_555
H43 C31 1_555 1_555
H44 C31 1_555 1_555
C32 C31 1_555 1_555
H45 C32 1_555 1_555
H46 C32 1_555 1_555
C33 C32 1_555 1_555
H47 C33 1_555 1_555
C34 C33 1_555 1_555
H48 C34 1_555 1_555
H49 C34 1_555 1_555
C35 N6 1_555 1_555
C36 C35 1_555 1_555
C37 C36 1_555 1_555
H50 C37 1_555 1_555
C38 C37 1_555 1_555
C39 C38 1_555 1_555
H51 C39 1_555 1_555
C40 C35 1_555 1_555
H52 C40 1_555 1_555
C3 C4 1_555 1_555
C6 C10 1_555 1_555
C8 C9 1_555 1_555
C19 C20 1_555 1_555
C23 C24 1_555 1_555
C26 C30 1_555 1_555
C28 C29 1_555 1_555
C39 C40 1_555 1_555

#END
