
#######################################################################
#
#                 Cambridge Crystallographic Data Centre
#                                CCDC 
#
#######################################################################
#
# If this CIF has been generated from an entry in the Cambridge 
# Structural Database, then it will include bibliographic, chemical, 
# crystal, experimental, refinement or atomic coordinate data resulting 
# from the CCDC's data processing and validation procedures.
#
#######################################################################

data_MOGJEX
_chemical_formula_moiety         'C19 H22 B1 N1 O3'
_chemical_name_systematic        
2-(3-(4,4,5,5-Tetramethyl-1,3,2-dioxaborolan-2-yl)benzylidene)aminophenol
_symmetry_cell_setting           triclinic
_symmetry_space_group_name_H-M   'P -1'
_symmetry_Int_Tables_number      2
_space_group_name_Hall           '-P 1'
loop_
_symmetry_equiv_pos_site_id
_symmetry_equiv_pos_as_xyz
1 x,y,z
2 -x,-y,-z
_cell_length_a                   11.9420(6)
_cell_length_b                   13.0871(7)
_cell_length_c                   13.2720(7)
_cell_angle_alpha                70.9830(10)
_cell_angle_beta                 67.7930(10)
_cell_angle_gamma                78.3800(10)
_cell_volume                     1808.29
_exptl_crystal_colour            colorless
_exptl_crystal_description       irregular
_chemical_melting_point          116-117deg.C
_cell_formula_units_Z            4
_exptl_crystal_recrystallization_method dichloromethane
loop_
_atom_site_label
_atom_site_type_symbol
_atom_site_fract_x
_atom_site_fract_y
_atom_site_fract_z
B1 B 0.75132(11) 0.83878(10) 0.19060(11)
O1 O 0.63889(8) 0.89036(7) 0.19669(10)
C1 C 0.65497(12) 1.00345(11) 0.13146(15)
C2 C 0.78136(10) 1.01863(9) 0.12853(10)
O2 O 0.84123(7) 0.90747(6) 0.14190(7)
C3 C 0.55076(15) 1.07367(14) 0.1944(3)
H1 H 0.4761 1.0692 0.1822
H2 H 0.5707 1.1492 0.1658
H3 H 0.5388 1.0475 0.2756
C4 C 0.6545(3) 1.0104(2) 0.0142(2)
H4 H 0.7281 0.9705 -0.0246
H5 H 0.6521 1.0866 -0.0301
H6 H 0.5829 0.9786 0.0224
C5 C 0.77865(19) 1.05264(13) 0.22966(15)
H7 H 0.7279 1.0060 0.3000
H8 H 0.7449 1.1284 0.2225
H9 H 0.8614 1.0453 0.2311
C6 C 0.85737(14) 1.09335(12) 0.02038(13)
H10 H 0.9341 1.0996 0.0278
H11 H 0.8130 1.1653 0.0066
H12 H 0.8742 1.0635 -0.0432
C7 C 0.77051(9) 0.71267(8) 0.23323(9)
C8 C 0.66902(9) 0.65270(9) 0.27673(9)
C9 C 0.67941(9) 0.53947(8) 0.31448(9)
C10 C 0.79398(10) 0.48413(9) 0.30922(11)
C11 C 0.89553(11) 0.54201(10) 0.26727(12)
C12 C 0.88415(10) 0.65524(9) 0.22960(10)
C13 C 0.56951(10) 0.48186(9) 0.35697(9)
N1 N 0.57214(8) 0.37895(7) 0.38470(8)
C14 C 0.46445(9) 0.32623(9) 0.42316(9)
C15 C 0.48293(9) 0.21265(9) 0.44638(9)
C16 C 0.38462(10) 0.15053(10) 0.48443(10)
C17 C 0.26800(10) 0.20193(11) 0.50012(10)
C18 C 0.24862(10) 0.31412(11) 0.47739(11)
C19 C 0.34595(10) 0.37637(10) 0.43865(11)
O3 O 0.59640(7) 0.15994(7) 0.43232(8)
H25 H 0.5896(12) 0.6886(11) 0.2782(11)
H26 H 0.7992(14) 0.4057(13) 0.3363(13)
H27 H 0.9783(14) 0.5011(12) 0.2635(13)
H28 H 0.9581(14) 0.6954(12) 0.1969(13)
H29 H 0.4918(15) 0.5347(13) 0.3624(14)
H30 H 0.3973(15) 0.0690(13) 0.4947(14)
H31 H 0.1975(14) 0.1586(12) 0.5276(13)
H32 H 0.1651(14) 0.3474(12) 0.4899(13)
H33 H 0.3328(14) 0.4514(13) 0.4228(13)
H34 H 0.6470(18) 0.2086(15) 0.4146(17)
B2 B -0.05359(10) 0.21188(10) 0.41351(10)
O4 O -0.00659(7) 0.19305(9) 0.49809(7)
C20 C -0.10998(11) 0.19026(15) 0.60278(11)
C21 C -0.21270(9) 0.15764(10) 0.57708(9)
O5 O -0.17636(6) 0.20273(6) 0.45280(6)
C22 C -0.07476(16) 0.1077(3) 0.70005(14)
H13 H -0.0390 0.0401 0.6791
H14 H -0.1472 0.0933 0.7678
H15 H -0.0154 0.1368 0.7156
C23 C -0.13373(16) 0.3050(2) 0.61568(18)
H16 H -0.0600 0.3264 0.6164
H17 H -0.1998 0.3071 0.6869
H18 H -0.1567 0.3553 0.5521
C24 C -0.21379(14) 0.03549(12) 0.60026(14)
H19 H -0.2700 0.0222 0.5689
H20 H -0.2401 0.0015 0.6821
H21 H -0.1319 0.0044 0.5646
C25 C -0.33952(10) 0.20743(13) 0.63301(12)
H22 H -0.3426 0.2866 0.6031
H23 H -0.3576 0.1874 0.7151
H24 H -0.3997 0.1802 0.6167
C26 C 0.02987(9) 0.24259(8) 0.28647(9)
C27 C 0.14975(9) 0.26424(9) 0.26052(9)
C28 C 0.23044(9) 0.29279(9) 0.14920(9)
C29 C 0.18997(11) 0.29970(11) 0.06045(10)
C30 C 0.07182(12) 0.27897(13) 0.08417(11)
C31 C -0.00815(11) 0.25121(10) 0.19597(10)
C32 C 0.35283(9) 0.31736(9) 0.13096(9)
N2 N 0.43483(8) 0.34169(7) 0.03335(8)
C33 C 0.55088(9) 0.36654(8) 0.02008(9)
C34 C 0.63129(10) 0.38787(9) -0.09267(9)
C35 C 0.74915(10) 0.41419(11) -0.12028(11)
C36 C 0.78718(11) 0.41890(10) -0.03513(11)
C37 C 0.70852(11) 0.39919(10) 0.07634(11)
C38 C 0.59093(11) 0.37317(10) 0.10393(10)
O6 O 0.59252(9) 0.38325(9) -0.17562(8)
H35 H 0.5133(18) 0.3679(14) -0.1356(16)
H36 H 0.1802(13) 0.2612(12) 0.3205(12)
H37 H 0.2448(14) 0.3226(12) -0.0224(13)
H38 H 0.0443(16) 0.2862(14) 0.0174(16)
H39 H -0.0934(13) 0.2369(11) 0.2153(12)
H40 H 0.3644(13) 0.3150(11) 0.2013(12)
H41 H 0.8024(14) 0.4314(12) -0.2007(14)
H42 H 0.8655(15) 0.4389(13) -0.0535(13)
H43 H 0.7339(13) 0.4072(11) 0.1407(12)
H44 H 0.5362(14) 0.3615(12) 0.1796(14)
loop_
_geom_bond_atom_site_label_1
_geom_bond_atom_site_label_2
_geom_bond_site_symmetry_1
_geom_bond_site_symmetry_2
B1 O1 1_555 1_555
O1 C1 1_555 1_555
C1 C2 1_555 1_555
C2 O2 1_555 1_555
O2 B1 1_555 1_555
C3 C1 1_555 1_555
H1 C3 1_555 1_555
H2 C3 1_555 1_555
H3 C3 1_555 1_555
C4 C1 1_555 1_555
H4 C4 1_555 1_555
H5 C4 1_555 1_555
H6 C4 1_555 1_555
C5 C2 1_555 1_555
H7 C5 1_555 1_555
H8 C5 1_555 1_555
H9 C5 1_555 1_555
C6 C2 1_555 1_555
H10 C6 1_555 1_555
H11 C6 1_555 1_555
H12 C6 1_555 1_555
C7 B1 1_555 1_555
C8 C7 1_555 1_555
C9 C8 1_555 1_555
C10 C9 1_555 1_555
C11 C10 1_555 1_555
C12 C7 1_555 1_555
C13 C9 1_555 1_555
N1 C13 1_555 1_555
C14 N1 1_555 1_555
C15 C14 1_555 1_555
C16 C15 1_555 1_555
C17 C16 1_555 1_555
C18 C17 1_555 1_555
C19 C14 1_555 1_555
O3 C15 1_555 1_555
B2 O4 1_555 1_555
O4 C20 1_555 1_555
C20 C21 1_555 1_555
C21 O5 1_555 1_555
O5 B2 1_555 1_555
C22 C20 1_555 1_555
H13 C22 1_555 1_555
H14 C22 1_555 1_555
H15 C22 1_555 1_555
C23 C20 1_555 1_555
H16 C23 1_555 1_555
H17 C23 1_555 1_555
H18 C23 1_555 1_555
C24 C21 1_555 1_555
H19 C24 1_555 1_555
H20 C24 1_555 1_555
H21 C24 1_555 1_555
C25 C21 1_555 1_555
H22 C25 1_555 1_555
H23 C25 1_555 1_555
H24 C25 1_555 1_555
C26 B2 1_555 1_555
C27 C26 1_555 1_555
C28 C27 1_555 1_555
C29 C28 1_555 1_555
C30 C29 1_555 1_555
C31 C26 1_555 1_555
C32 C28 1_555 1_555
N2 C32 1_555 1_555
C33 N2 1_555 1_555
C34 C33 1_555 1_555
C35 C34 1_555 1_555
C36 C35 1_555 1_555
C37 C36 1_555 1_555
C38 C33 1_555 1_555
O6 C34 1_555 1_555
H25 C8 1_555 1_555
H26 C10 1_555 1_555
H27 C11 1_555 1_555
H28 C12 1_555 1_555
H29 C13 1_555 1_555
H30 C16 1_555 1_555
H31 C17 1_555 1_555
H32 C18 1_555 1_555
H33 C19 1_555 1_555
H34 O3 1_555 1_555
H35 O6 1_555 1_555
H36 C27 1_555 1_555
H37 C29 1_555 1_555
H38 C30 1_555 1_555
H39 C31 1_555 1_555
H40 C32 1_555 1_555
H41 C35 1_555 1_555
H42 C36 1_555 1_555
H43 C37 1_555 1_555
H44 C38 1_555 1_555
C11 C12 1_555 1_555
C18 C19 1_555 1_555
C30 C31 1_555 1_555
C37 C38 1_555 1_555

#END
