
#######################################################################
#
#                 Cambridge Crystallographic Data Centre
#                                CCDC 
#
#######################################################################
#
# If this CIF has been generated from an entry in the Cambridge 
# Structural Database, then it will include bibliographic, chemical, 
# crystal, experimental, refinement or atomic coordinate data resulting 
# from the CCDC's data processing and validation procedures.
#
#######################################################################

data_MOGJAV
_chemical_formula_moiety         'C19 H24 N4 O4'
_chemical_name_systematic        
1-(1-(5,5-Dimethylcyclohex-1-en-1-yl)pent-4-en-1-ylidene)-2-(2,4-dinitrophenyl)hydrazine
_symmetry_cell_setting           triclinic
_symmetry_space_group_name_H-M   'P -1'
_symmetry_Int_Tables_number      2
_space_group_name_Hall           '-P 1'
loop_
_symmetry_equiv_pos_site_id
_symmetry_equiv_pos_as_xyz
1 x,y,z
2 -x,-y,-z
_cell_length_a                   17.6528(7)
_cell_length_b                   21.4017(9)
_cell_length_c                   22.7819(10)
_cell_angle_alpha                63.3330(10)
_cell_angle_beta                 86.908(2)
_cell_angle_gamma                84.006(2)
_cell_volume                     7649.18
_exptl_crystal_colour            orange
_exptl_crystal_description       block
_cell_formula_units_Z            16
loop_
_atom_site_label
_atom_site_type_symbol
_atom_site_fract_x
_atom_site_fract_y
_atom_site_fract_z
C1 C 0.38578(11) 0.13316(11) 0.18743(10)
H1 H 0.4226 0.1198 0.1604
H2 H 0.3996 0.1761 0.1880
H3 H 0.3347 0.1415 0.1690
C2 C 0.36368(11) 0.00820(11) 0.25500(11)
H4 H 0.3110 0.0162 0.2400
H5 H 0.3680 -0.0313 0.2990
H6 H 0.3975 -0.0026 0.2246
C3 C 0.38642(9) 0.07437(9) 0.25714(9)
C4 C 0.46646(9) 0.06046(9) 0.28665(8)
H7 H 0.5010 0.0373 0.2652
H8 H 0.4858 0.1060 0.2765
C5 C 0.46926(9) 0.01515(9) 0.36034(8)
C6 C 0.40542(10) 0.00343(11) 0.39670(9)
H9 H 0.4098 -0.0275 0.4422
C7 C 0.32769(11) 0.03582(12) 0.37047(10)
H10 H 0.3019 0.0550 0.3993
H11 H 0.2973 -0.0009 0.3713
C8 C 0.33031(11) 0.09431(11) 0.30056(10)
H12 H 0.3452 0.1371 0.3016
H13 H 0.2788 0.1052 0.2813
C9 C 0.54446(9) -0.01210(8) 0.39125(8)
C10 C 0.55148(10) -0.06084(9) 0.46397(8)
H14 H 0.5038 -0.0552 0.4868
H15 H 0.5936 -0.0481 0.4823
C11 C 0.56674(10) -0.13723(9) 0.47618(8)
H16 H 0.5255 -0.1485 0.4557
H17 H 0.6151 -0.1423 0.4539
C12 C 0.57198(10) -0.18961(9) 0.54702(9)
H18 H 0.5804 -0.2376 0.5560
C13 C 0.56616(10) -0.17630(11) 0.59798(9)
H19 H 0.5577 -0.1292 0.5918
H20 H 0.5704 -0.2138 0.6411
C14 C 0.73724(9) 0.00992(8) 0.34915(8)
C15 C 0.81044(9) -0.01166(8) 0.37826(8)
C16 C 0.87504(9) 0.01809(8) 0.34361(8)
H21 H 0.9236 0.0034 0.3639
C17 C 0.86803(9) 0.06870(8) 0.28005(8)
C18 C 0.79765(9) 0.08971(8) 0.24849(8)
H22 H 0.7941 0.1238 0.2038
C19 C 0.73396(9) 0.06080(8) 0.28249(8)
H23 H 0.6862 0.0752 0.2608
N1 N 0.60299(7) 0.00842(7) 0.35269(7)
N2 N 0.67307(8) -0.01582(7) 0.38245(7)
H24 H 0.6773(10) -0.0452(10) 0.4216(9)
N3 N 0.82261(8) -0.06500(7) 0.44508(7)
N4 N 0.93622(8) 0.10034(8) 0.24524(7)
O1 O 0.76663(7) -0.08805(7) 0.48112(6)
O2 O 0.88838(7) -0.08616(7) 0.46437(6)
O3 O 0.99730(7) 0.07952(7) 0.27469(7)
O4 O 0.92944(7) 0.14628(7) 0.18824(6)
N5 N 1.07747(8) 0.40811(7) 0.31192(7)
C20 C 0.67239(12) 0.19261(11) 0.57648(10)
H25 H 0.7089 0.2000 0.6032
H26 H 0.6916 0.1523 0.5687
H27 H 0.6233 0.1835 0.5997
C21 C 0.62979(10) 0.32054(10) 0.52298(9)
H28 H 0.5795 0.3116 0.5439
H29 H 0.6252 0.3630 0.4810
H30 H 0.6641 0.3271 0.5518
C22 C 0.66192(10) 0.25803(9) 0.51092(9)
C23 C 0.73961(9) 0.27239(9) 0.47561(9)
H31 H 0.7713 0.2902 0.4983
H32 H 0.7656 0.2275 0.4793
C24 C 0.73469(9) 0.32457(9) 0.40373(9)
C25 C 0.67010(10) 0.33868(10) 0.37020(10)
H33 H 0.6704 0.3708 0.3249
C26 C 0.59733(10) 0.30686(11) 0.39980(10)
H34 H 0.5759 0.2903 0.3705
H35 H 0.5602 0.3435 0.4024
C27 C 0.60730(11) 0.24591(11) 0.46780(10)
H36 H 0.6267 0.2031 0.4634
H37 H 0.5569 0.2376 0.4899
C28 C 0.80472(9) 0.35709(9) 0.37134(8)
C29 C 0.80328(10) 0.41879(9) 0.30316(9)
H38 H 0.8389 0.4523 0.3016
H39 H 0.7515 0.4435 0.2943
C30 C 0.82565(10) 0.39517(10) 0.24980(9)
H40 H 0.8752 0.3665 0.2611
H41 H 0.7872 0.3653 0.2486
C31 C 0.83160(11) 0.45598(10) 0.18330(9)
H42 H 0.7857 0.4835 0.1641
C32 C 0.89379(13) 0.47444(12) 0.14955(11)
H43 H 0.9411 0.4485 0.1668
H44 H 0.8921 0.5140 0.1076
C33 C 0.99984(9) 0.33023(8) 0.40729(8)
C34 C 1.07126(9) 0.35376(8) 0.37860(8)
C35 C 1.13882(9) 0.32571(8) 0.41320(8)
H45 H 1.1861 0.3419 0.3932
C36 C 1.13609(9) 0.27438(9) 0.47656(8)
C37 C 1.06684(9) 0.25012(8) 0.50708(8)
H46 H 1.0662 0.2146 0.5512
C38 C 1.00067(9) 0.27760(8) 0.47345(8)
H47 H 0.9539 0.2612 0.4947
N6 N 0.86648(7) 0.32886(7) 0.40512(7)
N7 N 0.93334(8) 0.35620(8) 0.37489(7)
H48 H 0.9347(10) 0.3891(10) 0.3346(9)
N8 N 1.20602(8) 0.24512(8) 0.51370(7)
O5 O 1.01844(7) 0.43676(7) 0.27948(6)
O6 O 1.14101(6) 0.42472(6) 0.28903(6)
O7 O 1.26679(7) 0.26662(7) 0.48720(6)
O8 O 1.20118(7) 0.19938(7) 0.57109(6)
C39 C 1.09619(10) 0.33234(9) 0.16962(9)
H49 H 1.0854 0.3711 0.1815
H50 H 1.0565 0.3345 0.1401
H51 H 1.1458 0.3362 0.1474
C40 C 1.11658(10) 0.20181(9) 0.21389(9)
H52 H 1.1676 0.2051 0.1941
H53 H 1.0792 0.2043 0.1824
H54 H 1.1152 0.1571 0.2536
C41 C 1.09743(9) 0.26248(9) 0.23171(8)
C42 C 1.01813(9) 0.25733(9) 0.26450(8)
H55 H 0.9984 0.3045 0.2595
H56 H 0.9832 0.2434 0.2408
C43 C 1.01617(9) 0.20627(9) 0.33645(8)
C44 C 1.07975(9) 0.17967(9) 0.37183(8)
H57 H 1.0748 0.1482 0.4171
C45 C 1.15822(9) 0.19621(9) 0.34473(8)
H58 H 1.1842 0.1554 0.3400
H59 H 1.1877 0.2041 0.3762
C46 C 1.15755(9) 0.26080(9) 0.27842(8)
H60 H 1.2084 0.2621 0.2576
H61 H 1.1479 0.3034 0.2855
C47 C 0.94083(9) 0.18679(9) 0.36678(8)
C48 C 0.93101(10) 0.15251(9) 0.44077(8)
H62 H 0.8833 0.1734 0.4522
H63 H 0.9739 0.1626 0.4606
C49 C 0.92810(10) 0.07329(9) 0.47004(9)
H64 H 0.8852 0.0629 0.4506
H65 H 0.9758 0.0520 0.4590
C50 C 0.91822(10) 0.04136(9) 0.54384(9)
H66 H 0.9537 0.0511 0.5679
C51 C 0.86475(11) 0.00142(10) 0.57719(10)
H67 H 0.8281 -0.0096 0.5550
H68 H 0.8625 -0.0166 0.6236
C52 C 0.75260(9) 0.19888(8) 0.31829(8)
C53 C 0.68042(9) 0.17385(8) 0.34380(8)
C54 C 0.61583(9) 0.19663(8) 0.30465(8)
H69 H 0.5680 0.1799 0.3225
C55 C 0.62249(9) 0.24359(8) 0.23991(8)
C56 C 0.69294(9) 0.26707(8) 0.21198(8)
H70 H 0.6966 0.2984 0.1666
C57 C 0.75616(9) 0.24474(8) 0.25018(8)
H71 H 0.8039 0.2603 0.2307
N9 N 0.88472(7) 0.20214(7) 0.32688(7)
N10 N 0.81523(8) 0.18070(7) 0.35561(7)
H72 H 0.8105(10) 0.1535(10) 0.3970(9)
N11 N 0.67101(8) 0.12134(7) 0.41076(7)
N12 N 0.55517(8) 0.26922(8) 0.19896(7)
O9 O 0.72675(6) 0.10001(6) 0.44829(6)
O10 O 0.60831(6) 0.09922(6) 0.42877(6)
O11 O 0.49320(7) 0.24929(7) 0.22362(6)
O12 O 0.56325(7) 0.31064(7) 0.14059(6)
C58 C 0.61328(11) 0.60960(10) 0.48363(9)
H73 H 0.6486 0.6034 0.4515
H74 H 0.6224 0.6526 0.4864
H75 H 0.5607 0.6131 0.4698
C59 C 0.61058(10) 0.48006(10) 0.54633(9)
H76 H 0.6406 0.4770 0.5101
H77 H 0.5563 0.4817 0.5382
H78 H 0.6249 0.4388 0.5876
C60 C 0.62609(9) 0.54645(9) 0.55112(8)
C61 C 0.70863(9) 0.54125(9) 0.57197(8)
H79 H 0.7429 0.5247 0.5449
H80 H 0.7216 0.5887 0.5628
C62 C 0.72325(9) 0.49226(8) 0.64389(8)
C63 C 0.66557(10) 0.47174(9) 0.68704(9)
H81 H 0.6776 0.4399 0.7313
C64 C 0.58331(10) 0.49566(10) 0.67009(9)
H82 H 0.5592 0.5100 0.7029
H83 H 0.5571 0.4559 0.6724
C65 C 0.57265(10) 0.55679(10) 0.60186(9)
H84 H 0.5824 0.6007 0.6035
H85 H 0.5192 0.5617 0.5881
C66 C 0.80310(9) 0.46933(8) 0.66509(8)
C67 C 0.82337(10) 0.42244(9) 0.73591(8)
H86 H 0.7810 0.4272 0.7644
H87 H 0.8692 0.4380 0.7468
C68 C 0.83888(10) 0.34481(9) 0.75060(8)
H88 H 0.7924 0.3283 0.7418
H89 H 0.8800 0.3399 0.7213
C69 C 0.86175(11) 0.30062(9) 0.82069(9)
H90 H 0.8251 0.2974 0.8538
C70 C 0.92878(13) 0.26606(10) 0.83950(12)
H91 H 0.9668 0.2681 0.8077
H92 H 0.9394 0.2390 0.8849
C71 C 0.98510(9) 0.50268(8) 0.59472(8)
C72 C 1.06355(9) 0.48424(8) 0.61033(8)
C73 C 1.12005(9) 0.51822(9) 0.56581(9)
H93 H 1.1723 0.5052 0.5770
C74 C 1.09879(9) 0.57096(9) 0.50529(8)
C75 C 1.02237(9) 0.59074(8) 0.48797(8)
H94 H 1.0090 0.6273 0.4458
C76 C 0.96681(9) 0.55759(8) 0.53155(8)
H95 H 0.9149 0.5716 0.5194
N13 N 0.85387(7) 0.49296(7) 0.61867(7)
N14 N 0.92874(8) 0.47187(7) 0.63755(7)
H96 H 0.9423(10) 0.4387(10) 0.6743(9)
N15 N 1.08946(8) 0.42973(7) 0.67368(7)
N16 N 1.15771(8) 0.60783(8) 0.45869(8)
O13 O 1.04203(7) 0.39392(7) 0.71339(6)
O14 O 1.15765(7) 0.41996(7) 0.68645(6)
O15 O 1.22440(7) 0.59034(7) 0.47574(7)
O16 O 1.13726(7) 0.65443(7) 0.40461(7)
C77 C -0.07517(11) 0.16939(10) 0.63454(9)
H97 H -0.1264 0.1915 0.6193
H98 H -0.0572 0.1408 0.6121
H99 H -0.0405 0.2058 0.6247
C78 C -0.10361(11) 0.16908(11) 0.74232(10)
H100 H -0.0695 0.2065 0.7298
H101 H -0.1025 0.1406 0.7901
H102 H -0.1556 0.1899 0.7287
C79 C -0.07736(10) 0.12273(9) 0.70870(9)
C80 C 0.00240(9) 0.08680(9) 0.73258(9)
H103 H 0.0251 0.0698 0.7011
H104 H 0.0347 0.1221 0.7323
C81 C 0.00406(10) 0.02584(9) 0.80051(9)
C82 C -0.05964(11) -0.00400(11) 0.82898(10)
H105 H -0.0559 -0.0413 0.8722
C83 C -0.13606(11) 0.01736(11) 0.79746(10)
H106 H -0.1688 0.0417 0.8189
H107 H -0.1602 -0.0252 0.8043
C84 C -0.13130(11) 0.06556(10) 0.72420(10)
H108 H -0.1828 0.0879 0.7078
H109 H -0.1133 0.0373 0.7009
C85 C 0.07819(10) -0.00069(10) 0.83390(9)
C86 C 0.08442(11) -0.06073(12) 0.90165(10)
H110 H 0.1344 -0.0884 0.9071
H111 H 0.0437 -0.0921 0.9093
C87 C 0.07609(16) -0.02836(15) 0.95115(13)
H112 H 0.1158 0.0043 0.9420
H113 H 0.0257 -0.0014 0.9458
C88 C 0.08390(14) -0.08535(14) 1.02017(12)
H114 H 0.0468 -0.1185 1.0358
C89 C 0.1373(2) -0.0928(2) 1.05989(17)
H115 H 0.1754 -0.0607 1.0460
H116 H 0.1386 -0.1303 1.1031
C90 C 0.26714(10) 0.04138(9) 0.79314(9)
C91 C 0.34264(10) 0.02517(9) 0.81784(9)
C92 C 0.40289(10) 0.06037(9) 0.77939(9)
H117 H 0.4530 0.0494 0.7965
C93 C 0.38887(9) 0.11086(9) 0.71661(9)
C94 C 0.31632(10) 0.12585(9) 0.68922(9)
H118 H 0.3083 0.1597 0.6449
C95 C 0.25730(10) 0.09155(9) 0.72662(9)
H119 H 0.2082 0.1015 0.7076
N17 N 0.13530(8) 0.03245(8) 0.80042(8)
N18 N 0.20598(8) 0.01149(8) 0.82948(8)
H120 H 0.2121(11) -0.0212(10) 0.8685(10)
N19 N 0.36136(9) -0.02811(8) 0.88363(8)
N20 N 0.45031(8) 0.15129(8) 0.67757(8)
O17 O 0.30862(8) -0.05641(7) 0.92168(6)
O18 O 0.42860(7) -0.04402(7) 0.89987(7)
O19 O 0.51570(7) 0.12970(8) 0.69686(8)
O20 O 0.43352(8) 0.20553(7) 0.62747(7)
C99 C 0.65753(10) 0.27243(10) 0.71065(9)
H128 H 0.6243 0.2716 0.6779
H129 H 0.7109 0.2655 0.6989
H130 H 0.6484 0.3178 0.7118
C100 C 0.65842(10) 0.14268(9) 0.77716(9)
H131 H 0.6341 0.1436 0.7391
H132 H 0.6390 0.1056 0.8175
H133 H 0.7137 0.1333 0.7742
C101 C 0.64038(9) 0.21366(9) 0.77822(8)
C102 C 0.55545(9) 0.22343(9) 0.79390(8)
H134 H 0.5413 0.2738 0.7814
H135 H 0.5252 0.2101 0.7666
C103 C 0.53415(9) 0.18093(9) 0.86547(8)
C104 C 0.58723(9) 0.15366(9) 0.91244(8)
H136 H 0.5709 0.1280 0.9566
C105 C 0.67054(9) 0.16110(10) 0.89954(9)
H137 H 0.6966 0.1154 0.9054
H138 H 0.6914 0.1731 0.9323
C106 C 0.68794(9) 0.21708(9) 0.83082(8)
H139 H 0.7427 0.2108 0.8209
H140 H 0.6775 0.2640 0.8296
C107 C 0.45256(9) 0.17144(8) 0.88092(8)
C108 C 0.42361(9) 0.13870(9) 0.95073(8)
H141 H 0.3779 0.1680 0.9540
H142 H 0.4630 0.1399 0.9795
C109 C 0.40291(10) 0.06260(9) 0.97725(9)
H143 H 0.3615 0.0606 0.9507
H144 H 0.4478 0.0324 0.9741
C110 C 0.37752(11) 0.03649(10) 1.04776(9)
H145 H 0.4160 0.0216 1.0801
C111 C 0.30716(12) 0.03270(11) 1.06790(11)
H146 H 0.2671 0.0471 1.0371
H147 H 0.2958 0.0155 1.1134
C112 C 0.28330(9) 0.21135(8) 0.79204(8)
C113 C 0.20516(9) 0.19825(8) 0.79986(8)
C114 C 0.15589(10) 0.22703(9) 0.74683(8)
H148 H 0.1038 0.2179 0.7528
C115 C 0.18366(10) 0.26862(9) 0.68606(8)
C116 C 0.26000(10) 0.28248(9) 0.67550(8)
H149 H 0.2779 0.3113 0.6326
C117 C 0.30875(10) 0.25409(8) 0.72759(8)
H150 H 0.3608 0.2633 0.7204
N21 N 0.40871(7) 0.19451(7) 0.83029(7)
N22 N 0.33242(8) 0.18536(7) 0.84293(7)
H151 H 0.3149(10) 0.1614(9) 0.8812(9)
N23 N 0.17253(8) 0.15268(7) 0.86249(7)
N24 N 0.13140(10) 0.29954(8) 0.63106(8)
O21 O 0.21517(7) 0.12308(7) 0.91123(6)
O22 O 0.10455(6) 0.14464(7) 0.86591(6)
O23 O 0.06591(8) 0.28205(8) 0.64009(7)
O24 O 0.15533(8) 0.34237(7) 0.57782(7)
C118 C 0.13994(11) 0.17695(10) 1.05759(10)
H152 H 0.0881 0.1729 1.0758
H153 H 0.1757 0.1724 1.0910
H154 H 0.1535 0.1396 1.0442
C119 C 0.11735(10) 0.30625(10) 1.01836(10)
H155 H 0.1200 0.3522 0.9804
H156 H 0.1503 0.3027 1.0532
H157 H 0.0647 0.3009 1.0346
C120 C 0.14384(10) 0.24838(10) 0.99802(9)
C121 C 0.22655(9) 0.25606(9) 0.97306(8)
H158 H 0.2569 0.2636 1.0043
H159 H 0.2478 0.2116 0.9726
C122 C 0.23555(10) 0.31555(9) 0.90522(9)
C123 C 0.17648(10) 0.34366(11) 0.86404(9)
H160 H 0.1853 0.3803 0.8216
C124 C 0.09758(11) 0.32100(13) 0.88077(10)
H161 H 0.0779 0.3149 0.8440
H162 H 0.0642 0.3585 0.8856
C125 C 0.09345(10) 0.25305(11) 0.94341(10)
H163 H 0.1092 0.2130 0.9335
H164 H 0.0400 0.2490 0.9592
C126 C 0.31211(10) 0.34029(9) 0.88551(8)
C127 C 0.32573(10) 0.40280(9) 0.82090(8)
H165 H 0.3647 0.4293 0.8271
H166 H 0.2780 0.4342 0.8073
C128 C 0.35218(10) 0.38275(9) 0.76601(9)
H167 H 0.3948 0.3454 0.7821
H168 H 0.3098 0.3638 0.7541
C129 C 0.37771(11) 0.44459(10) 0.70609(9)
H169 H 0.4191 0.4669 0.7109
C130 C 0.34764(13) 0.46991(11) 0.64823(10)
H170 H 0.3062 0.4490 0.6414
H171 H 0.3671 0.5093 0.6127
C131 C 0.49564(9) 0.29283(8) 0.95241(8)
C132 C 0.57292(9) 0.30678(8) 0.93627(8)
C133 C 0.63054(9) 0.27392(8) 0.98246(8)
H172 H 0.6820 0.2836 0.9709
C134 C 0.61151(9) 0.22747(9) 1.04481(8)
C135 C 0.53590(9) 0.21322(9) 1.06325(8)
H173 H 0.5240 0.1814 1.1071
C136 C 0.47957(9) 0.24506(8) 1.01822(8)
H174 H 0.4284 0.2351 1.0311
N25 N 0.43848(8) 0.32350(8) 0.90869(7)
H175 H 0.4508(10) 0.3513(10) 0.8706(10)
N26 N 0.59602(8) 0.35609(7) 0.87132(7)
N27 N 0.67068(9) 0.19253(8) 1.09356(7)
O25 O 0.54666(7) 0.38723(7) 0.82827(6)
O26 O 0.66374(7) 0.36591(6) 0.86053(6)
O27 O 0.73723(7) 0.20339(8) 1.07741(7)
O28 O 0.65111(7) 0.15240(7) 1.14966(6)
N28 N 0.36555(8) 0.30427(7) 0.92708(7)
C137 C 0.85203(10) 0.32624(10) 1.09271(9)
H176 H 0.8367 0.3576 1.1128
H177 H 0.9030 0.3031 1.1079
H178 H 0.8156 0.2907 1.1053
C138 C 0.87584(10) 0.31876(10) 0.98719(10)
H179 H 0.9275 0.2967 1.0008
H180 H 0.8743 0.3453 0.9392
H181 H 0.8402 0.2824 1.0018
C139 C 0.85319(9) 0.36871(9) 1.01813(8)
C140 C 0.77358(9) 0.40662(9) 0.99451(8)
H182 H 0.7383 0.3715 0.9996
H183 H 0.7546 0.4290 1.0229
C141 C 0.77271(9) 0.46209(8) 0.92364(8)
C142 C 0.83710(10) 0.48840(9) 0.89283(9)
H184 H 0.8338 0.5221 0.8480
C143 C 0.91374(10) 0.46835(10) 0.92415(9)
H185 H 0.9386 0.5115 0.9141
H186 H 0.9457 0.4411 0.9051
C144 C 0.90945(10) 0.42482(9) 0.99849(9)
H187 H 0.8934 0.4562 1.0191
H188 H 0.9606 0.4018 1.0152
C145 C 0.69864(9) 0.48853(8) 0.89038(8)
C146 C 0.69407(9) 0.53703(9) 0.81757(8)
H189 H 0.6526 0.5245 0.7983
H190 H 0.7425 0.5306 0.7961
C147 C 0.67913(10) 0.61422(9) 0.80379(8)
H191 H 0.6327 0.6194 0.8282
H192 H 0.7223 0.6269 0.8211
C148 C 0.66906(9) 0.66481(9) 0.73282(9)
H193 H 0.6563 0.7127 0.7231
C149 C 0.67603(10) 0.65011(10) 0.68255(9)
H194 H 0.6888 0.6031 0.6895
H195 H 0.6683 0.6865 0.6392
C150 C 0.50409(9) 0.47448(8) 0.92866(8)
C151 C 0.43165(9) 0.50198(9) 0.89825(8)
C152 C 0.36477(9) 0.47697(9) 0.93151(9)
H196 H 0.3169 0.4963 0.9108
C153 C 0.36823(9) 0.42436(9) 0.99418(9)
C154 C 0.43797(9) 0.39673(9) 1.02671(8)
H197 H 0.4393 0.3607 1.0706
C155 C 0.50402(9) 0.42202(8) 0.99474(8)
H198 H 0.5510 0.4040 1.0173
N29 N 0.63899(7) 0.46861(7) 0.92794(7)
N30 N 0.56985(8) 0.49622(8) 0.89644(7)
H199 H 0.5680(10) 0.5293(10) 0.8565(9)
N31 N 0.42360(8) 0.55581(7) 0.83110(7)
N32 N 0.29768(9) 0.39578(9) 1.02673(8)
O29 O 0.48146(7) 0.57972(7) 0.79857(6)
O30 O 0.35927(7) 0.57614(7) 0.80778(7)
O31 O 0.23703(7) 0.42727(8) 1.00073(8)
O32 O 0.30269(8) 0.34123(8) 1.07829(7)
H121? H 0.1400 -0.0729 0.9079
H122? H 0.0652 -0.0997 0.8963
C96? C 0.0551(5) -0.0718(6) 0.9697(4)
H123? H 0.0008 -0.0541 0.9685
H124? H 0.0615 -0.1220 1.0019
C97? C 0.1059(5) -0.0286(5) 0.9855(5)
H125? H 0.1109 0.0185 0.9541
C98? C 0.1427(8) -0.0534(10) 1.0400(7)
H126? H 0.1384 -0.1005 1.0721
H127? H 0.1740 -0.0246 1.0481
loop_
_geom_bond_atom_site_label_1
_geom_bond_atom_site_label_2
_geom_bond_site_symmetry_1
_geom_bond_site_symmetry_2
C1 H1 1_555 1_555
H2 C1 1_555 1_555
H3 C1 1_555 1_555
C2 H4 1_555 1_555
H5 C2 1_555 1_555
H6 C2 1_555 1_555
C3 C1 1_555 1_555
C4 C3 1_555 1_555
H7 C4 1_555 1_555
H8 C4 1_555 1_555
C5 C4 1_555 1_555
C6 C5 1_555 1_555
H9 C6 1_555 1_555
C7 C6 1_555 1_555
H10 C7 1_555 1_555
H11 C7 1_555 1_555
C8 C3 1_555 1_555
H12 C8 1_555 1_555
H13 C8 1_555 1_555
C9 C5 1_555 1_555
C10 C9 1_555 1_555
H14 C10 1_555 1_555
H15 C10 1_555 1_555
C11 C10 1_555 1_555
H16 C11 1_555 1_555
H17 C11 1_555 1_555
C12 C11 1_555 1_555
H18 C12 1_555 1_555
C13 C12 1_555 1_555
H19 C13 1_555 1_555
H20 C13 1_555 1_555
C14 C15 1_555 1_555
C15 C16 1_555 1_555
C16 H21 1_555 1_555
C17 C16 1_555 1_555
C18 C17 1_555 1_555
H22 C18 1_555 1_555
C19 C14 1_555 1_555
H23 C19 1_555 1_555
N1 C9 1_555 1_555
N2 C14 1_555 1_555
H24 N2 1_555 1_555
N3 C15 1_555 1_555
N4 C17 1_555 1_555
O1 N3 1_555 1_555
O2 N3 1_555 1_555
O3 N4 1_555 1_555
O4 N4 1_555 1_555
N5 C34 1_555 1_555
C20 H25 1_555 1_555
H26 C20 1_555 1_555
H27 C20 1_555 1_555
C21 H28 1_555 1_555
H29 C21 1_555 1_555
H30 C21 1_555 1_555
C22 C20 1_555 1_555
C23 C22 1_555 1_555
H31 C23 1_555 1_555
H32 C23 1_555 1_555
C24 C23 1_555 1_555
C25 C24 1_555 1_555
H33 C25 1_555 1_555
C26 C25 1_555 1_555
H34 C26 1_555 1_555
H35 C26 1_555 1_555
C27 C22 1_555 1_555
H36 C27 1_555 1_555
H37 C27 1_555 1_555
C28 C24 1_555 1_555
C29 C28 1_555 1_555
H38 C29 1_555 1_555
H39 C29 1_555 1_555
C30 C29 1_555 1_555
H40 C30 1_555 1_555
H41 C30 1_555 1_555
C31 C30 1_555 1_555
H42 C31 1_555 1_555
C32 C31 1_555 1_555
H43 C32 1_555 1_555
H44 C32 1_555 1_555
C33 C34 1_555 1_555
C34 C35 1_555 1_555
C35 H45 1_555 1_555
C36 C35 1_555 1_555
C37 C36 1_555 1_555
H46 C37 1_555 1_555
C38 C33 1_555 1_555
H47 C38 1_555 1_555
N6 C28 1_555 1_555
N7 C33 1_555 1_555
H48 N7 1_555 1_555
N8 C36 1_555 1_555
O5 N5 1_555 1_555
O6 N5 1_555 1_555
O7 N8 1_555 1_555
O8 N8 1_555 1_555
C39 H49 1_555 1_555
H50 C39 1_555 1_555
H51 C39 1_555 1_555
C40 H52 1_555 1_555
H53 C40 1_555 1_555
H54 C40 1_555 1_555
C41 C39 1_555 1_555
C42 C41 1_555 1_555
H55 C42 1_555 1_555
H56 C42 1_555 1_555
C43 C42 1_555 1_555
C44 C43 1_555 1_555
H57 C44 1_555 1_555
C45 C44 1_555 1_555
H58 C45 1_555 1_555
H59 C45 1_555 1_555
C46 C41 1_555 1_555
H60 C46 1_555 1_555
H61 C46 1_555 1_555
C47 C43 1_555 1_555
C48 C47 1_555 1_555
H62 C48 1_555 1_555
H63 C48 1_555 1_555
C49 C48 1_555 1_555
H64 C49 1_555 1_555
H65 C49 1_555 1_555
C50 C49 1_555 1_555
H66 C50 1_555 1_555
C51 C50 1_555 1_555
H67 C51 1_555 1_555
H68 C51 1_555 1_555
C52 C53 1_555 1_555
C53 C54 1_555 1_555
C54 H69 1_555 1_555
C55 C54 1_555 1_555
C56 C55 1_555 1_555
H70 C56 1_555 1_555
C57 C52 1_555 1_555
H71 C57 1_555 1_555
N9 C47 1_555 1_555
N10 C52 1_555 1_555
H72 N10 1_555 1_555
N11 C53 1_555 1_555
N12 C55 1_555 1_555
O9 N11 1_555 1_555
O10 N11 1_555 1_555
O11 N12 1_555 1_555
O12 N12 1_555 1_555
C58 H73 1_555 1_555
H74 C58 1_555 1_555
H75 C58 1_555 1_555
C59 H76 1_555 1_555
H77 C59 1_555 1_555
H78 C59 1_555 1_555
C60 C58 1_555 1_555
C61 C60 1_555 1_555
H79 C61 1_555 1_555
H80 C61 1_555 1_555
C62 C61 1_555 1_555
C63 C62 1_555 1_555
H81 C63 1_555 1_555
C64 C63 1_555 1_555
H82 C64 1_555 1_555
H83 C64 1_555 1_555
C65 C60 1_555 1_555
H84 C65 1_555 1_555
H85 C65 1_555 1_555
C66 C62 1_555 1_555
C67 C66 1_555 1_555
H86 C67 1_555 1_555
H87 C67 1_555 1_555
C68 C67 1_555 1_555
H88 C68 1_555 1_555
H89 C68 1_555 1_555
C69 C68 1_555 1_555
H90 C69 1_555 1_555
C70 C69 1_555 1_555
H91 C70 1_555 1_555
H92 C70 1_555 1_555
C71 C72 1_555 1_555
C72 C73 1_555 1_555
C73 H93 1_555 1_555
C74 C73 1_555 1_555
C75 C74 1_555 1_555
H94 C75 1_555 1_555
C76 C71 1_555 1_555
H95 C76 1_555 1_555
N13 C66 1_555 1_555
N14 C71 1_555 1_555
H96 N14 1_555 1_555
N15 C72 1_555 1_555
N16 C74 1_555 1_555
O13 N15 1_555 1_555
O14 N15 1_555 1_555
O15 N16 1_555 1_555
O16 N16 1_555 1_555
C77 H97 1_555 1_555
H98 C77 1_555 1_555
H99 C77 1_555 1_555
C78 H100 1_555 1_555
H101 C78 1_555 1_555
H102 C78 1_555 1_555
C79 C77 1_555 1_555
C80 C79 1_555 1_555
H103 C80 1_555 1_555
H104 C80 1_555 1_555
C81 C80 1_555 1_555
C82 C81 1_555 1_555
H105 C82 1_555 1_555
C83 C82 1_555 1_555
H106 C83 1_555 1_555
H107 C83 1_555 1_555
C84 C79 1_555 1_555
H108 C84 1_555 1_555
H109 C84 1_555 1_555
C85 C81 1_555 1_555
C86 C85 1_555 1_555
H110 C86 1_555 1_555
H111 C86 1_555 1_555
C87 C86 1_555 1_555
H112 C87 1_555 1_555
H113 C87 1_555 1_555
C88 C87 1_555 1_555
H114 C88 1_555 1_555
C89 C88 1_555 1_555
H115 C89 1_555 1_555
H116 C89 1_555 1_555
C90 C91 1_555 1_555
C91 C92 1_555 1_555
C92 H117 1_555 1_555
C93 C92 1_555 1_555
C94 C93 1_555 1_555
H118 C94 1_555 1_555
C95 C90 1_555 1_555
H119 C95 1_555 1_555
N17 C85 1_555 1_555
N18 C90 1_555 1_555
H120 N18 1_555 1_555
N19 C91 1_555 1_555
N20 C93 1_555 1_555
O17 N19 1_555 1_555
O18 N19 1_555 1_555
O19 N20 1_555 1_555
O20 N20 1_555 1_555
C99 H128 1_555 1_555
H129 C99 1_555 1_555
H130 C99 1_555 1_555
C100 H131 1_555 1_555
H132 C100 1_555 1_555
H133 C100 1_555 1_555
C101 C99 1_555 1_555
C102 C101 1_555 1_555
H134 C102 1_555 1_555
H135 C102 1_555 1_555
C103 C102 1_555 1_555
C104 C103 1_555 1_555
H136 C104 1_555 1_555
C105 C104 1_555 1_555
H137 C105 1_555 1_555
H138 C105 1_555 1_555
C106 C101 1_555 1_555
H139 C106 1_555 1_555
H140 C106 1_555 1_555
C107 C103 1_555 1_555
C108 C107 1_555 1_555
H141 C108 1_555 1_555
H142 C108 1_555 1_555
C109 C108 1_555 1_555
H143 C109 1_555 1_555
H144 C109 1_555 1_555
C110 C109 1_555 1_555
H145 C110 1_555 1_555
C111 C110 1_555 1_555
H146 C111 1_555 1_555
H147 C111 1_555 1_555
C112 C113 1_555 1_555
C113 C114 1_555 1_555
C114 H148 1_555 1_555
C115 C114 1_555 1_555
C116 C115 1_555 1_555
H149 C116 1_555 1_555
C117 C112 1_555 1_555
H150 C117 1_555 1_555
N21 C107 1_555 1_555
N22 C112 1_555 1_555
H151 N22 1_555 1_555
N23 C113 1_555 1_555
N24 C115 1_555 1_555
O21 N23 1_555 1_555
O22 N23 1_555 1_555
O23 N24 1_555 1_555
O24 N24 1_555 1_555
C118 H152 1_555 1_555
H153 C118 1_555 1_555
H154 C118 1_555 1_555
C119 H155 1_555 1_555
H156 C119 1_555 1_555
H157 C119 1_555 1_555
C120 C118 1_555 1_555
C121 C120 1_555 1_555
H158 C121 1_555 1_555
H159 C121 1_555 1_555
C122 C121 1_555 1_555
C123 C122 1_555 1_555
H160 C123 1_555 1_555
C124 C123 1_555 1_555
H161 C124 1_555 1_555
H162 C124 1_555 1_555
C125 C120 1_555 1_555
H163 C125 1_555 1_555
H164 C125 1_555 1_555
C126 C122 1_555 1_555
C127 C126 1_555 1_555
H165 C127 1_555 1_555
H166 C127 1_555 1_555
C128 C127 1_555 1_555
H167 C128 1_555 1_555
H168 C128 1_555 1_555
C129 C128 1_555 1_555
H169 C129 1_555 1_555
C130 C129 1_555 1_555
H170 C130 1_555 1_555
H171 C130 1_555 1_555
C131 C132 1_555 1_555
C132 C133 1_555 1_555
C133 H172 1_555 1_555
C134 C133 1_555 1_555
C135 C134 1_555 1_555
H173 C135 1_555 1_555
C136 C131 1_555 1_555
H174 C136 1_555 1_555
N25 C131 1_555 1_555
H175 N25 1_555 1_555
N26 C132 1_555 1_555
N27 C134 1_555 1_555
O25 N26 1_555 1_555
O26 N26 1_555 1_555
O27 N27 1_555 1_555
O28 N27 1_555 1_555
N28 C126 1_555 1_555
C137 H176 1_555 1_555
H177 C137 1_555 1_555
H178 C137 1_555 1_555
C138 H179 1_555 1_555
H180 C138 1_555 1_555
H181 C138 1_555 1_555
C139 C137 1_555 1_555
C140 C139 1_555 1_555
H182 C140 1_555 1_555
H183 C140 1_555 1_555
C141 C140 1_555 1_555
C142 C141 1_555 1_555
H184 C142 1_555 1_555
C143 C142 1_555 1_555
H185 C143 1_555 1_555
H186 C143 1_555 1_555
C144 C139 1_555 1_555
H187 C144 1_555 1_555
H188 C144 1_555 1_555
C145 C141 1_555 1_555
C146 C145 1_555 1_555
H189 C146 1_555 1_555
H190 C146 1_555 1_555
C147 C146 1_555 1_555
H191 C147 1_555 1_555
H192 C147 1_555 1_555
C148 C147 1_555 1_555
H193 C148 1_555 1_555
C149 C148 1_555 1_555
H194 C149 1_555 1_555
H195 C149 1_555 1_555
C150 C151 1_555 1_555
C151 C152 1_555 1_555
C152 H196 1_555 1_555
C153 C152 1_555 1_555
C154 C153 1_555 1_555
H197 C154 1_555 1_555
C155 C150 1_555 1_555
H198 C155 1_555 1_555
N29 C145 1_555 1_555
N30 C150 1_555 1_555
H199 N30 1_555 1_555
N31 C151 1_555 1_555
N32 C153 1_555 1_555
O29 N31 1_555 1_555
O30 N31 1_555 1_555
O31 N32 1_555 1_555
O32 N32 1_555 1_555
C2 C3 1_555 1_555
C7 C8 1_555 1_555
C18 C19 1_555 1_555
N1 N2 1_555 1_555
C21 C22 1_555 1_555
C26 C27 1_555 1_555
C37 C38 1_555 1_555
N6 N7 1_555 1_555
C40 C41 1_555 1_555
C45 C46 1_555 1_555
C56 C57 1_555 1_555
N9 N10 1_555 1_555
C59 C60 1_555 1_555
C64 C65 1_555 1_555
C75 C76 1_555 1_555
N13 N14 1_555 1_555
C78 C79 1_555 1_555
C83 C84 1_555 1_555
C94 C95 1_555 1_555
N17 N18 1_555 1_555
C100 C101 1_555 1_555
C105 C106 1_555 1_555
C116 C117 1_555 1_555
N21 N22 1_555 1_555
C119 C120 1_555 1_555
C124 C125 1_555 1_555
C135 C136 1_555 1_555
N25 N28 1_555 1_555
C138 C139 1_555 1_555
C143 C144 1_555 1_555
C154 C155 1_555 1_555
N29 N30 1_555 1_555

#END
