
#######################################################################
#
#                 Cambridge Crystallographic Data Centre
#                                CCDC 
#
#######################################################################
#
# If this CIF has been generated from an entry in the Cambridge 
# Structural Database, then it will include bibliographic, chemical, 
# crystal, experimental, refinement or atomic coordinate data resulting 
# from the CCDC's data processing and validation procedures.
#
#######################################################################

data_MOGKUQ
_chemical_formula_moiety         'C16 H24 O2'
_chemical_name_systematic        '(2,3,5,6-Tetraethylphenyl)acetic acid'
_symmetry_cell_setting           triclinic
_symmetry_space_group_name_H-M   'P -1'
_symmetry_Int_Tables_number      2
_space_group_name_Hall           '-P 1'
loop_
_symmetry_equiv_pos_site_id
_symmetry_equiv_pos_as_xyz
1 x,y,z
2 -x,-y,-z
_cell_length_a                   4.876(3)
_cell_length_b                   9.006(6)
_cell_length_c                   16.659(10)
_cell_angle_alpha                97.066(14)
_cell_angle_beta                 94.054(8)
_cell_angle_gamma                94.822(15)
_cell_volume                     720.992
_exptl_crystal_colour            colorless
_exptl_crystal_description       platelet
_cell_formula_units_Z            2
loop_
_atom_site_label
_atom_site_type_symbol
_atom_site_fract_x
_atom_site_fract_y
_atom_site_fract_z
O1 O 0.0466(2) 0.09484(11) 0.59084(6)
O2 O 0.2992(3) 0.12981(13) 0.48681(7)
C1 C 0.2451(3) 0.15785(16) 0.56347(9)
C2 C 0.4553(3) 0.27198(16) 0.61222(9)
C3 C 0.3760(3) 0.33525(15) 0.69506(9)
C4 C 0.1975(3) 0.45122(16) 0.69988(9)
C5 C 0.1289(3) 0.51632(16) 0.77610(9)
C6 C 0.2406(3) 0.46230(16) 0.84480(9)
C7 C 0.4165(3) 0.34755(16) 0.84141(9)
C8 C 0.4879(3) 0.28259(16) 0.76560(9)
C9 C 0.0843(3) 0.50998(16) 0.62379(9)
C10 C 0.2705(4) 0.64092(17) 0.60015(10)
C11 C -0.0605(4) 0.64228(17) 0.78324(10)
C12 C -0.0828(4) 0.72018(19) 0.86886(10)
C13 C 0.5229(4) 0.29928(17) 0.92120(9)
C14 C 0.3827(5) 0.15024(19) 0.93901(11)
C15 C 0.6867(3) 0.16101(16) 0.76038(10)
C16 C 0.5521(4) 0.00275(17) 0.72859(10)
H1 H 0.170(5) 0.053(3) 0.4619(14)
H2 H 0.4913 0.3564 0.5804
H3 H 0.6302 0.2250 0.6196
H4 H 0.1949 0.5056 0.8965
H5 H -0.1006 0.5436 0.6326
H6 H 0.0621 0.4270 0.5783
H7 H 0.3053 0.7204 0.6464
H8 H 0.1788 0.6808 0.5542
H9 H 0.4461 0.6052 0.5847
H10 H -0.2479 0.6007 0.7601
H11 H 0.0052 0.7190 0.7495
H12 H -0.2001 0.8029 0.8665
H13 H 0.1017 0.7599 0.8933
H14 H -0.1641 0.6478 0.9019
H15 H 0.4958 0.3786 0.9659
H16 H 0.7238 0.2908 0.9204
H17 H 0.4249 0.0690 0.8983
H18 H 0.1825 0.1555 0.9371
H19 H 0.4507 0.1305 0.9931
H20 H 0.7790 0.1592 0.8151
H21 H 0.8311 0.1880 0.7244
H22 H 0.6904 -0.0698 0.7314
H23 H 0.4781 0.0001 0.6721
H24 H 0.4018 -0.0233 0.7619
loop_
_geom_bond_atom_site_label_1
_geom_bond_atom_site_label_2
_geom_bond_site_symmetry_1
_geom_bond_site_symmetry_2
O1 C1 1_555 1_555
O2 C1 1_555 1_555
C1 C2 1_555 1_555
C2 C3 1_555 1_555
C3 C4 1_555 1_555
C4 C5 1_555 1_555
C5 C6 1_555 1_555
C6 C7 1_555 1_555
C7 C8 1_555 1_555
C8 C3 1_555 1_555
C9 C4 1_555 1_555
C10 C9 1_555 1_555
C11 C5 1_555 1_555
C12 C11 1_555 1_555
C13 C7 1_555 1_555
C14 C13 1_555 1_555
C15 C8 1_555 1_555
C16 C15 1_555 1_555
H1 O2 1_555 1_555
H2 C2 1_555 1_555
H3 C2 1_555 1_555
H4 C6 1_555 1_555
H5 C9 1_555 1_555
H6 C9 1_555 1_555
H7 C10 1_555 1_555
H8 C10 1_555 1_555
H9 C10 1_555 1_555
H10 C11 1_555 1_555
H11 C11 1_555 1_555
H12 C12 1_555 1_555
H13 C12 1_555 1_555
H14 C12 1_555 1_555
H15 C13 1_555 1_555
H16 C13 1_555 1_555
H17 C14 1_555 1_555
H18 C14 1_555 1_555
H19 C14 1_555 1_555
H20 C15 1_555 1_555
H21 C15 1_555 1_555
H22 C16 1_555 1_555
H23 C16 1_555 1_555
H24 C16 1_555 1_555

#END
