
#######################################################################
#
#                 Cambridge Crystallographic Data Centre
#                                CCDC 
#
#######################################################################
#
# If this CIF has been generated from an entry in the Cambridge 
# Structural Database, then it will include bibliographic, chemical, 
# crystal, experimental, refinement or atomic coordinate data resulting 
# from the CCDC's data processing and validation procedures.
#
#######################################################################

data_MOHCUH
_chemical_formula_moiety         '2(C1 H6 N3 1+),C20 H20 O12 S2 2-'
_chemical_name_systematic        
"bis(Guanidinium) bis(4-sulfonatobenzyl) O,O'-dimethyl-L-tartrate"
_symmetry_cell_setting           monoclinic
_symmetry_space_group_name_H-M   'P 21'
_symmetry_Int_Tables_number      4
_space_group_name_Hall           'P 2yb'
loop_
_symmetry_equiv_pos_site_id
_symmetry_equiv_pos_as_xyz
1 x,y,z
2 -x,1/2+y,-z
_cell_length_a                   8.029(2)
_cell_length_b                   20.895(5)
_cell_length_c                   9.033(2)
_cell_angle_alpha                90
_cell_angle_beta                 98.312(5)
_cell_angle_gamma                90
_cell_volume                     1499.51
_exptl_crystal_colour            colorless
_cell_formula_units_Z            2
_exptl_crystal_recrystallization_method methanol/1,4-dioxane
loop_
_atom_site_label
_atom_site_type_symbol
_atom_site_fract_x
_atom_site_fract_y
_atom_site_fract_z
S1 S 0.36349(14) 0.24288(6) 0.84082(13)
S2 S 1.19505(14) 0.59941(6) -0.34835(14)
O1 O 0.7593(3) 0.47306(14) 0.5252(3)
O2 O 1.3460(3) 0.60030(15) -0.4197(3)
O3 O 0.2123(3) 0.25858(13) 0.9028(3)
O4 O 1.1466(3) 0.40632(14) 0.2296(3)
O5 O 0.8052(3) 0.48867(14) 0.1388(3)
O6 O 1.0451(3) 0.58382(14) -0.4548(3)
O7 O 0.6134(4) 0.53433(16) 0.3468(3)
O8 O 0.9536(3) 0.34093(15) 0.0991(3)
C1 C 1.2169(5) 0.5373(2) -0.2138(5)
O9 O 1.1759(3) 0.65829(14) -0.2702(3)
O10 O 0.7226(4) 0.37323(14) 0.2841(3)
O11 O 0.4947(3) 0.21623(15) 0.9533(3)
O12 O 0.3286(4) 0.20091(16) 0.7110(3)
C2 C 0.9933(5) 0.3793(2) 0.1982(5)
C3 C 0.3930(5) 0.3376(2) 0.6352(5)
H1 H 0.3147 0.3150 0.5693
C4 C 0.4451(5) 0.3138(2) 0.7810(5)
C5 C 0.4567(5) 0.3934(2) 0.5912(5)
H2 H 0.4202 0.4082 0.4949
C6 C 1.2676(5) 0.3930(2) 0.1256(5)
H3 H 1.2450 0.3513 0.0799
H4 H 1.3813 0.3929 0.1794
C7 C 0.5736(5) 0.4291(2) 0.6836(5)
C8 C 1.2509(5) 0.4438(2) 0.0072(5)
C9 C 0.5598(5) 0.3501(2) 0.8748(4)
H5 H 0.5942 0.3359 0.9720
C10 C 0.8555(5) 0.4746(2) 0.2924(4)
H6 H 0.9629 0.4960 0.3262
C11 C 0.7255(6) 0.4982(2) 0.3860(5)
C12 C 0.6458(5) 0.4886(2) 0.6331(5)
H7 H 0.5564 0.5164 0.5868
H8 H 0.7073 0.5109 0.7180
C13 C 1.1294(5) 0.4821(2) -0.2363(5)
H9 H 1.0575 0.4760 -0.3256
C14 C 0.6239(5) 0.4060(2) 0.8289(5)
H10 H 0.7015 0.4290 0.8946
C15 C 1.3236(5) 0.5478(2) -0.0789(5)
H11 H 1.3832 0.5859 -0.0621
C16 C 0.8809(5) 0.4028(2) 0.3048(5)
H12 H 0.9353 0.3932 0.4066
C17 C 1.1448(5) 0.4343(2) -0.1286(5)
H13 H 1.0853 0.3962 -0.1463
C18 C 0.8460(7) 0.5512(2) 0.0951(5)
H14 H 0.7872 0.5821 0.1470
H15 H 0.8133 0.5560 -0.0108
H16 H 0.9651 0.5579 0.1195
C19 C 1.3384(6) 0.5006(3) 0.0280(5)
H17 H 1.4098 0.5071 0.1174
C20 C 0.7220(7) 0.3115(3) 0.3498(7)
H18 H 0.7899 0.2830 0.3004
H19 H 0.6087 0.2956 0.3393
H20 H 0.7670 0.3142 0.4540
C21 C 0.2767(6) 0.1772(2) 0.2761(5)
N1 N 0.2556(4) 0.14728(18) 0.4013(4)
H21 H 0.3412 0.1388 0.4672
H22 H 0.1563 0.1363 0.4168
N2 N 0.1437(4) 0.18873(19) 0.1740(4)
H23 H 0.1565 0.2074 0.0914
H24 H 0.0449 0.1776 0.1904
N3 N 0.4274(4) 0.19420(19) 0.2508(4)
H25 H 0.5139 0.1860 0.3159
H26 H 0.4397 0.2136 0.1691
C22 C 0.8283(5) 0.1824(2) 0.7709(5)
N4 N 0.8377(4) 0.22220(18) 0.8864(4)
H27 H 0.7566 0.2241 0.9389
H28 H 0.9250 0.2461 0.9087
N5 N 0.6969(4) 0.14544(17) 0.7344(4)
H29 H 0.6931 0.1199 0.6593
H30 H 0.6145 0.1468 0.7854
N6 N 0.9541(4) 0.1804(2) 0.6930(4)
H31 H 0.9504 0.1548 0.6180
H32 H 1.0403 0.2046 0.7171
loop_
_geom_bond_atom_site_label_1
_geom_bond_atom_site_label_2
_geom_bond_site_symmetry_1
_geom_bond_site_symmetry_2
S1 O3 1_555 1_555
S2 O2 1_555 1_555
O1 C11 1_555 1_555
O4 C2 1_555 1_555
O5 C10 1_555 1_555
O6 S2 1_555 1_555
O7 C11 1_555 1_555
O8 C2 1_555 1_555
C1 S2 1_555 1_555
O9 S2 1_555 1_555
O10 C16 1_555 1_555
O11 S1 1_555 1_555
O12 S1 1_555 1_555
C2 C16 1_555 1_555
C3 H1 1_555 1_555
C4 S1 1_555 1_555
C5 C3 1_555 1_555
H2 C5 1_555 1_555
C6 O4 1_555 1_555
H3 C6 1_555 1_555
H4 C6 1_555 1_555
C7 C5 1_555 1_555
C8 C6 1_555 1_555
C9 C4 1_555 1_555
H5 C9 1_555 1_555
C10 H6 1_555 1_555
C11 C10 1_555 1_555
C12 O1 1_555 1_555
H7 C12 1_555 1_555
H8 C12 1_555 1_555
C13 C1 1_555 1_555
H9 C13 1_555 1_555
C14 C7 1_555 1_555
H10 C14 1_555 1_555
C15 C1 1_555 1_555
H11 C15 1_555 1_555
C16 C10 1_555 1_555
H12 C16 1_555 1_555
C17 C8 1_555 1_555
H13 C17 1_555 1_555
C18 O5 1_555 1_555
H14 C18 1_555 1_555
H15 C18 1_555 1_555
H16 C18 1_555 1_555
C19 C8 1_555 1_555
H17 C19 1_555 1_555
C20 O10 1_555 1_555
H18 C20 1_555 1_555
H19 C20 1_555 1_555
H20 C20 1_555 1_555
C21 N1 1_555 1_555
N1 H21 1_555 1_555
H22 N1 1_555 1_555
N2 C21 1_555 1_555
H23 N2 1_555 1_555
H24 N2 1_555 1_555
N3 C21 1_555 1_555
H25 N3 1_555 1_555
H26 N3 1_555 1_555
C22 N4 1_555 1_555
N4 H27 1_555 1_555
H28 N4 1_555 1_555
N5 C22 1_555 1_555
H29 N5 1_555 1_555
H30 N5 1_555 1_555
N6 C22 1_555 1_555
H31 N6 1_555 1_555
H32 N6 1_555 1_555
C3 C4 1_555 1_555
C7 C12 1_555 1_555
C9 C14 1_555 1_555
C13 C17 1_555 1_555
C15 C19 1_555 1_555

#END
