
#######################################################################
#
#                 Cambridge Crystallographic Data Centre
#                                CCDC 
#
#######################################################################
#
# If this CIF has been generated from an entry in the Cambridge 
# Structural Database, then it will include bibliographic, chemical, 
# crystal, experimental, refinement or atomic coordinate data resulting 
# from the CCDC's data processing and validation procedures.
#
#######################################################################

data_MOHFIY
_chemical_formula_moiety         'C40 H46 N4 O4'
_chemical_name_systematic        
2,7,7,12,17,17-Hexamethyl-2,12-(m-phenylene-bis(carbonyloxypropyl))calix(4)pyrrole
_symmetry_cell_setting           monoclinic
_symmetry_space_group_name_H-M   'P 21/n'
_symmetry_Int_Tables_number      14
_space_group_name_Hall           '-P 2yn'
loop_
_symmetry_equiv_pos_site_id
_symmetry_equiv_pos_as_xyz
1 x,y,z
2 1/2-x,1/2+y,1/2-z
3 -x,-y,-z
4 1/2+x,1/2-y,1/2+z
_cell_length_a                   10.3355(17)
_cell_length_b                   16.519(3)
_cell_length_c                   20.329(3)
_cell_angle_alpha                90
_cell_angle_beta                 95.297(14)
_cell_angle_gamma                90
_cell_volume                     3455.99
_cell_formula_units_Z            4
loop_
_atom_site_label
_atom_site_type_symbol
_atom_site_fract_x
_atom_site_fract_y
_atom_site_fract_z
N1 N 0.0694(4) 0.9003(3) 0.1241(2)
H1 H 0.0884 0.9096 0.1655
N2 N 0.3039(4) 0.7812(3) 0.1680(2)
H2 H 0.2451 0.7572 0.1423
N3 N 0.1426(4) 0.7104(2) 0.30687(19)
H3 H 0.1881 0.7442 0.3314
N4 N -0.1010(4) 0.8222(3) 0.2355(2)
H4 H -0.0712 0.7817 0.2150
O1 O 0.1864(4) 0.4581(2) 0.1324(2)
O2 O 0.1923(4) 0.3272(3) 0.1017(2)
O3 O -0.2269(5) 0.6072(3) 0.0819(4)
O4 O -0.3715(6) 0.5625(4) 0.0070(3)
C1 C 0.1597(5) 0.8928(3) 0.0784(2)
C2 C 0.0907(6) 0.8781(4) 0.0199(3)
H5 H 0.1259 0.8703 -0.0201
C3 C -0.0425(6) 0.8765(4) 0.0287(3)
H6 H -0.1101 0.8675 -0.0039
C4 C -0.0543(5) 0.8907(3) 0.0949(3)
C5 C -0.1765(5) 0.8976(3) 0.1302(3)
C6 C -0.1514(5) 0.8906(3) 0.2048(3)
C7 C -0.1838(6) 0.9417(4) 0.2543(3)
H7 H -0.2189 0.9933 0.2487
C8 C -0.1536(6) 0.9008(4) 0.3158(3)
H8 H -0.1655 0.9212 0.3574
C9 C -0.1036(5) 0.8258(4) 0.3025(3)
C10 C -0.0714(5) 0.7528(4) 0.3456(3)
C11 C 0.0117(5) 0.6973(3) 0.3084(2)
C12 C -0.0217(5) 0.6394(3) 0.2624(3)
H9 H -0.1046 0.6181 0.2529
C13 C 0.0894(6) 0.6169(3) 0.2313(3)
H10 H 0.0926 0.5791 0.1976
C14 C 0.1906(5) 0.6605(3) 0.2596(2)
C15 C 0.3349(5) 0.6636(3) 0.2475(2)
C16 C 0.3671(5) 0.7473(3) 0.2240(2)
C17 C 0.4540(5) 0.8045(4) 0.2496(3)
H11 H 0.5124 0.7985 0.2869
C18 C 0.4392(5) 0.8744(4) 0.2091(3)
H12 H 0.4845 0.9227 0.2159
C19 C 0.3478(5) 0.8585(3) 0.1588(3)
C20 C 0.3041(5) 0.9057(3) 0.0970(2)
C21 C -0.2398(6) 0.9798(4) 0.1134(3)
H13 H -0.3180 0.9847 0.1351
H14 H -0.2602 0.9838 0.0665
H15 H -0.1807 1.0223 0.1281
C22 C -0.2031(5) 0.7087(4) 0.3548(3)
H16 H -0.1866 0.6619 0.3822
H17 H -0.2434 0.6923 0.3124
H18 H -0.2599 0.7450 0.3752
C23 C -0.0062(6) 0.7760(4) 0.4135(3)
H19 H 0.0118 0.7279 0.4393
H20 H -0.0630 0.8106 0.4355
H21 H 0.0736 0.8040 0.4082
C24 C 0.4221(5) 0.6452(4) 0.3118(3)
H22 H 0.4022 0.5922 0.3275
H23 H 0.4064 0.6846 0.3448
H24 H 0.5118 0.6472 0.3031
C25 C 0.3769(6) 0.8747(4) 0.0396(3)
H25 H 0.3493 0.9046 0.0003
H26 H 0.3582 0.8183 0.0324
H27 H 0.4687 0.8818 0.0501
C26 C 0.3325(6) 0.9958(3) 0.1074(3)
H28 H 0.3047 1.0249 0.0676
H29 H 0.4241 1.0035 0.1179
H30 H 0.2864 1.0156 0.1430
C27 C -0.2720(5) 0.8294(4) 0.1049(3)
H31 H -0.3473 0.8321 0.1300
H32 H -0.3015 0.8409 0.0592
C28 C -0.2200(7) 0.7421(4) 0.1088(4)
H33 H -0.1372 0.7413 0.0898
H34 H -0.2030 0.7278 0.1551
C29 C -0.2951(9) 0.6840(5) 0.0792(7)
H35 H -0.3187 0.6987 0.0335
H36 H -0.3743 0.6789 0.1010
C30 C -0.2752(6) 0.5519(4) 0.0420(4)
C31 C -0.1930(6) 0.4783(4) 0.0399(3)
C32 C -0.2403(7) 0.4164(4) 0.0017(3)
H37 H -0.3221 0.4208 -0.0213
C33 C -0.1696(8) 0.3471(5) -0.0036(3)
H38 H -0.2035 0.3048 -0.0300
C34 C -0.0481(7) 0.3396(4) 0.0302(3)
H39 H -0.0010 0.2920 0.0272
C35 C 0.0043(6) 0.4043(3) 0.0690(3)
C36 C -0.0684(6) 0.4729(3) 0.0738(3)
H40 H -0.0354 0.5160 0.0996
C37 C 0.1377(5) 0.3908(3) 0.1023(3)
C38 C 0.3205(6) 0.4500(4) 0.1630(3)
H41 H 0.3811 0.4577 0.1299
H42 H 0.3335 0.3961 0.1814
C39 C 0.3448(5) 0.5116(3) 0.2162(3)
H43 H 0.4245 0.4970 0.2426
H44 H 0.2748 0.5082 0.2448
C40 C 0.3563(6) 0.5999(3) 0.1944(3)
H45 H 0.2936 0.6092 0.1567
H46 H 0.4422 0.6079 0.1798
loop_
_geom_bond_atom_site_label_1
_geom_bond_atom_site_label_2
_geom_bond_site_symmetry_1
_geom_bond_site_symmetry_2
N1 H1 1_555 1_555
N2 H2 1_555 1_555
N3 H3 1_555 1_555
N4 H4 1_555 1_555
O1 C37 1_555 1_555
O2 C37 1_555 1_555
O3 C29 1_555 1_555
O4 C30 1_555 1_555
C1 N1 1_555 1_555
C2 C1 1_555 1_555
H5 C2 1_555 1_555
C3 C2 1_555 1_555
H6 C3 1_555 1_555
C4 N1 1_555 1_555
C5 C4 1_555 1_555
C6 N4 1_555 1_555
C7 C6 1_555 1_555
H7 C7 1_555 1_555
C8 C7 1_555 1_555
H8 C8 1_555 1_555
C9 N4 1_555 1_555
C10 C9 1_555 1_555
C11 N3 1_555 1_555
C12 C11 1_555 1_555
H9 C12 1_555 1_555
C13 C12 1_555 1_555
H10 C13 1_555 1_555
C14 N3 1_555 1_555
C15 C14 1_555 1_555
C16 N2 1_555 1_555
C17 C16 1_555 1_555
H11 C17 1_555 1_555
C18 C17 1_555 1_555
H12 C18 1_555 1_555
C19 N2 1_555 1_555
C20 C1 1_555 1_555
C21 C5 1_555 1_555
H13 C21 1_555 1_555
H14 C21 1_555 1_555
H15 C21 1_555 1_555
C22 C10 1_555 1_555
H16 C22 1_555 1_555
H17 C22 1_555 1_555
H18 C22 1_555 1_555
C23 C10 1_555 1_555
H19 C23 1_555 1_555
H20 C23 1_555 1_555
H21 C23 1_555 1_555
C24 C15 1_555 1_555
H22 C24 1_555 1_555
H23 C24 1_555 1_555
H24 C24 1_555 1_555
C25 C20 1_555 1_555
H25 C25 1_555 1_555
H26 C25 1_555 1_555
H27 C25 1_555 1_555
C26 C20 1_555 1_555
H28 C26 1_555 1_555
H29 C26 1_555 1_555
H30 C26 1_555 1_555
C27 C5 1_555 1_555
H31 C27 1_555 1_555
H32 C27 1_555 1_555
C28 C27 1_555 1_555
H33 C28 1_555 1_555
H34 C28 1_555 1_555
C29 C28 1_555 1_555
H35 C29 1_555 1_555
H36 C29 1_555 1_555
C30 O3 1_555 1_555
C31 C30 1_555 1_555
C32 C31 1_555 1_555
H37 C32 1_555 1_555
C33 C32 1_555 1_555
H38 C33 1_555 1_555
C34 C33 1_555 1_555
H39 C34 1_555 1_555
C35 C34 1_555 1_555
C36 C31 1_555 1_555
H40 C36 1_555 1_555
C37 C35 1_555 1_555
C38 O1 1_555 1_555
H41 C38 1_555 1_555
H42 C38 1_555 1_555
C39 C38 1_555 1_555
H43 C39 1_555 1_555
H44 C39 1_555 1_555
C40 C15 1_555 1_555
H45 C40 1_555 1_555
H46 C40 1_555 1_555
C3 C4 1_555 1_555
C5 C6 1_555 1_555
C8 C9 1_555 1_555
C10 C11 1_555 1_555
C13 C14 1_555 1_555
C15 C16 1_555 1_555
C18 C19 1_555 1_555
C19 C20 1_555 1_555
C35 C36 1_555 1_555
C39 C40 1_555 1_555

#END
