
#######################################################################
#
#                 Cambridge Crystallographic Data Centre
#                                CCDC 
#
#######################################################################
#
# If this CIF has been generated from an entry in the Cambridge 
# Structural Database, then it will include bibliographic, chemical, 
# crystal, experimental, refinement or atomic coordinate data resulting 
# from the CCDC's data processing and validation procedures.
#
#######################################################################

data_MOHSUZ
_chemical_formula_moiety         'C21 H14 O6'
_chemical_name_systematic        '3,5-bis(Benzoyloxy)benzoic acid'
_symmetry_cell_setting           monoclinic
_symmetry_space_group_name_H-M   'P 21/n'
_symmetry_Int_Tables_number      14
_space_group_name_Hall           '-P 2yn'
loop_
_symmetry_equiv_pos_site_id
_symmetry_equiv_pos_as_xyz
1 x,y,z
2 1/2-x,1/2+y,1/2-z
3 -x,-y,-z
4 1/2+x,1/2-y,1/2+z
_cell_length_a                   11.890(6)
_cell_length_b                   32.794(16)
_cell_length_c                   13.403(6)
_cell_angle_alpha                90
_cell_angle_beta                 105.436(7)
_cell_angle_gamma                90
_cell_volume                     5037.59
_exptl_crystal_colour            colorless
_exptl_crystal_description       needle
_cell_formula_units_Z            12
loop_
_atom_site_label
_atom_site_type_symbol
_atom_site_fract_x
_atom_site_fract_y
_atom_site_fract_z
C1 C 0.5740(4) 0.46064(13) 0.9321(4)
C2 C 0.6258(4) 0.42907(13) 0.8775(3)
C3 C 0.6111(4) 0.43094(14) 0.7712(4)
H1 H 0.5699 0.4529 0.7314
C4 C 0.6583(4) 0.39979(14) 0.7249(3)
C5 C 0.7207(4) 0.36792(14) 0.7807(4)
H2 H 0.7547 0.3474 0.748
C6 C 0.7320(4) 0.36692(14) 0.8865(4)
C7 C 0.6858(4) 0.39682(13) 0.9358(4)
H3 H 0.6946 0.3955 1.0082
C8 C 0.7877(4) 0.29827(16) 0.9247(4)
C9 C 0.8711(4) 0.27188(15) 1.0007(4)
C10 C 0.9433(4) 0.28632(16) 1.0928(4)
H4 H 0.9414 0.3143 1.1105
C11 C 1.0172(5) 0.26010(18) 1.1579(4)
H5 H 1.066 0.2699 1.2215
C12 C 1.0216(5) 0.21987(17) 1.1324(5)
H6 H 1.0746 0.2022 1.1781
C13 C 0.9512(5) 0.20461(16) 1.0422(5)
H7 H 0.9547 0.1765 1.0259
C14 C 0.8740(5) 0.23064(17) 0.9742(4)
H8 H 0.8245 0.2206 0.9113
C15 C 0.6742(4) 0.42714(14) 0.5652(4)
C16 C 0.6490(4) 0.41860(13) 0.4529(3)
C17 C 0.6720(4) 0.44948(15) 0.3895(4)
H9 H 0.7013 0.4751 0.4183
C18 C 0.6519(5) 0.44258(17) 0.2846(4)
H10 H 0.6688 0.4633 0.2412
C19 C 0.6075(4) 0.40588(16) 0.2429(4)
H11 H 0.5925 0.4017 0.1704
C20 C 0.5839(5) 0.37478(16) 0.3048(4)
H12 H 0.5542 0.3493 0.2756
C21 C 0.6047(4) 0.38167(15) 0.4091(4)
H13 H 0.5883 0.3607 0.4522
O1 O 0.5239(3) 0.49115(9) 0.8721(2)
H14 H 0.4908 0.5066 0.9054
O2 O 0.5787(3) 0.45810(9) 1.0239(2)
O3 O 0.8016(3) 0.33768(10) 0.9514(3)
O4 O 0.7160(3) 0.28609(11) 0.8496(3)
O5 O 0.6349(3) 0.39654(9) 0.6153(2)
O6 O 0.7250(3) 0.45645(10) 0.6084(3)
C22 C -0.1088(4) 0.46604(13) 0.9708(4)
C23 C -0.0515(4) 0.43771(13) 0.9152(3)
C24 C -0.0524(4) 0.44466(13) 0.8130(3)
H15 H -0.0909 0.4679 0.7773
C25 C 0.0029(4) 0.41756(13) 0.7641(3)
C26 C 0.0574(4) 0.38297(14) 0.8126(4)
H16 H 0.0936 0.3642 0.7768
C27 C 0.0580(4) 0.37645(13) 0.9140(3)
C28 C 0.0049(4) 0.40309(13) 0.9668(3)
H17 H 0.0065 0.3981 1.037
C29 C 0.1150(4) 0.30598(13) 0.9302(4)
C30 C 0.1983(4) 0.27798(14) 0.9987(4)
C31 C 0.2741(4) 0.28995(14) 1.0921(4)
H18 H 0.2768 0.3177 1.1126
C32 C 0.3460(4) 0.26172(15) 1.1558(4)
H19 H 0.3958 0.2699 1.2205
C33 C 0.3443(4) 0.22149(14) 1.1242(4)
H20 H 0.3932 0.202 1.1674
C34 C 0.2715(4) 0.20959(14) 1.0297(4)
H21 H 0.2723 0.1821 1.0074
C35 C 0.1976(4) 0.23760(13) 0.9674(4)
H22 H 0.1465 0.2292 0.9034
C36 C -0.0414(4) 0.40442(14) 0.5838(4)
C37 C -0.0189(4) 0.41934(13) 0.4863(4)
C38 C 0.0532(4) 0.45230(13) 0.4855(4)
H23 H 0.0896 0.4661 0.5481
C39 C 0.0724(4) 0.46538(15) 0.3918(4)
H24 H 0.1217 0.4881 0.3905
C40 C 0.0188(4) 0.44498(15) 0.3012(4)
H25 H 0.0317 0.4539 0.2376
C41 C -0.0534(4) 0.41176(16) 0.3016(4)
H26 H -0.0901 0.3981 0.2389
C42 C -0.0714(4) 0.39866(16) 0.3951(4)
H27 H -0.1195 0.3757 0.3966
O7 O -0.1489(3) 0.49908(9) 0.9164(2)
H28 H -0.1807 0.5144 0.9511
O8 O -0.1178(3) 0.45994(9) 1.0589(2)
O9 O 0.1236(3) 0.34486(9) 0.9720(2)
O10 O 0.0466(3) 0.29733(10) 0.8501(3)
O11 O 0.0128(3) 0.42832(9) 0.6655(2)
O12 O -0.1017(3) 0.37597(10) 0.5928(3)
C43 C 0.2625(4) 0.45552(13) 0.9004(3)
C44 C 0.3099(4) 0.42300(13) 0.8477(3)
C45 C 0.3478(4) 0.42107(14) 0.5346(4)
C46 C 0.3198(4) 0.41264(14) 0.4233(4)
C47 C 0.3504(4) 0.44218(14) 0.3595(4)
H29 H 0.389 0.4664 0.3889
C48 C 0.3245(4) 0.43596(15) 0.2551(4)
H30 H 0.3472 0.4556 0.2122
C49 C 0.2652(4) 0.40105(15) 0.2112(4)
H31 H 0.2453 0.3973 0.1383
C50 C 0.2353(5) 0.37168(16) 0.2741(4)
H32 H 0.1964 0.3475 0.2444
C51 C 0.2620(4) 0.37756(14) 0.3804(4)
H33 H 0.2407 0.3576 0.4235
O13 O 0.3276(6) 0.3875(2) 0.5893(5)
C52 C 0.2962(10) 0.4255(3) 0.7427(8)
H34 H 0.2648 0.4493 0.7054
C53 C 0.3286(12) 0.3931(4) 0.6933(5)
C54 C 0.3788(9) 0.3581(3) 0.7453(7)
H35 H 0.4043 0.3366 0.7094
C55 C 0.3904(9) 0.3556(2) 0.8502(7)
C56 C 0.3577(12) 0.3876(3) 0.9031(8)
H36 H 0.3671 0.3859 0.9756
O14 O 0.4342(6) 0.3182(2) 0.8964(5)
O15 O 0.5316(6) 0.34408(18) 1.0512(5)
C57 C 0.5059(8) 0.3155(2) 0.9923(6)
C58 C 0.5486(7) 0.27323(16) 1.0170(5)
C59 C 0.6230(7) 0.2652(2) 1.1141(5)
H37 H 0.6459 0.2867 1.163
C60 C 0.6639(9) 0.2259(3) 1.1397(7)
H38 H 0.7148 0.2204 1.206
C61 C 0.6304(10) 0.1945(2) 1.0682(8)
H39 H 0.6584 0.1676 1.0856
C62 C 0.5560(7) 0.20250(17) 0.9711(7)
H40 H 0.5331 0.1811 0.9222
C63 C 0.5151(6) 0.24186(19) 0.9455(5)
H41 H 0.4643 0.2473 0.8791
O16 O 0.2138(3) 0.48634(9) 0.8405(2)
H42 H 0.1865 0.5031 0.8753
O17 O 0.2667(3) 0.45380(10) 0.9928(2)
O18 O 0.3937(3) 0.45158(10) 0.5770(3)
O19? O 0.3041(8) 0.3912(3) 0.5877(7)
C64? C 0.2967(12) 0.4227(4) 0.7416(9)
H43? H 0.2556 0.444 0.6992
C65? C 0.3443(15) 0.3909(5) 0.6984(6)
C66? C 0.4011(11) 0.3595(4) 0.7617(9)
H44? H 0.4314 0.337 0.7325
C67? C 0.4135(11) 0.3609(3) 0.8660(8)
C68? C 0.3681(15) 0.3919(3) 0.9124(10)
H45? H 0.3759 0.3921 0.9848
O20? O 0.4778(8) 0.3326(2) 0.9342(7)
O21? O 0.3943(7) 0.2784(2) 0.8404(6)
C69? C 0.4628(9) 0.2925(3) 0.9148(7)
C70? C 0.5416(9) 0.2680(2) 0.9970(6)
C71? C 0.5437(9) 0.2260(2) 0.9829(8)
H46? H 0.4971 0.2141 0.921
C72? C 0.6138(12) 0.2016(2) 1.0592(10)
H47? H 0.6153 0.1729 1.0495
C73? C 0.6819(12) 0.2190(3) 1.1497(9)
H48? H 0.7299 0.2023 1.2018
C74? C 0.6798(8) 0.2610(4) 1.1638(7)
H49? H 0.7263 0.2729 1.2257
C75? C 0.6096(8) 0.2855(2) 1.0875(7)
H50? H 0.6082 0.3141 1.0972
loop_
_geom_bond_atom_site_label_1
_geom_bond_atom_site_label_2
_geom_bond_site_symmetry_1
_geom_bond_site_symmetry_2
C1 C2 1_555 1_555
C2 C3 1_555 1_555
C3 H1 1_555 1_555
C4 C3 1_555 1_555
C5 C4 1_555 1_555
H2 C5 1_555 1_555
C6 C5 1_555 1_555
C7 C2 1_555 1_555
H3 C7 1_555 1_555
C8 C9 1_555 1_555
C9 C10 1_555 1_555
C10 H4 1_555 1_555
C11 C10 1_555 1_555
H5 C11 1_555 1_555
C12 C11 1_555 1_555
H6 C12 1_555 1_555
C13 C12 1_555 1_555
H7 C13 1_555 1_555
C14 C9 1_555 1_555
H8 C14 1_555 1_555
C15 C16 1_555 1_555
C16 C17 1_555 1_555
C17 H9 1_555 1_555
C18 C17 1_555 1_555
H10 C18 1_555 1_555
C19 C18 1_555 1_555
H11 C19 1_555 1_555
C20 C19 1_555 1_555
H12 C20 1_555 1_555
C21 C16 1_555 1_555
H13 C21 1_555 1_555
O1 C1 1_555 1_555
H14 O1 1_555 1_555
O2 C1 1_555 1_555
O3 C6 1_555 1_555
O4 C8 1_555 1_555
O5 C4 1_555 1_555
O6 C15 1_555 1_555
C22 C23 1_555 1_555
C23 C24 1_555 1_555
C24 H15 1_555 1_555
C25 C24 1_555 1_555
C26 C25 1_555 1_555
H16 C26 1_555 1_555
C27 C26 1_555 1_555
C28 C23 1_555 1_555
H17 C28 1_555 1_555
C29 C30 1_555 1_555
C30 C31 1_555 1_555
C31 H18 1_555 1_555
C32 C31 1_555 1_555
H19 C32 1_555 1_555
C33 C32 1_555 1_555
H20 C33 1_555 1_555
C34 C33 1_555 1_555
H21 C34 1_555 1_555
C35 C30 1_555 1_555
H22 C35 1_555 1_555
C36 C37 1_555 1_555
C37 C38 1_555 1_555
C38 H23 1_555 1_555
C39 C38 1_555 1_555
H24 C39 1_555 1_555
C40 C39 1_555 1_555
H25 C40 1_555 1_555
C41 C40 1_555 1_555
H26 C41 1_555 1_555
C42 C37 1_555 1_555
H27 C42 1_555 1_555
O7 C22 1_555 1_555
H28 O7 1_555 1_555
O8 C22 1_555 1_555
O9 C27 1_555 1_555
O10 C29 1_555 1_555
O11 C25 1_555 1_555
O12 C36 1_555 1_555
C43 C44 1_555 1_555
C44 C52 1_555 1_555
C45 C46 1_555 1_555
C46 C47 1_555 1_555
C47 H29 1_555 1_555
C48 C47 1_555 1_555
H30 C48 1_555 1_555
C49 C48 1_555 1_555
H31 C49 1_555 1_555
C50 C49 1_555 1_555
H32 C50 1_555 1_555
C51 C46 1_555 1_555
H33 C51 1_555 1_555
O13 C45 1_555 1_555
C52 H34 1_555 1_555
C53 O13 1_555 1_555
C54 C53 1_555 1_555
H35 C54 1_555 1_555
C55 C54 1_555 1_555
C56 C44 1_555 1_555
H36 C56 1_555 1_555
O14 C55 1_555 1_555
O15 C57 1_555 1_555
C57 O14 1_555 1_555
C58 C57 1_555 1_555
C59 C58 1_555 1_555
H37 C59 1_555 1_555
C60 C59 1_555 1_555
H38 C60 1_555 1_555
C61 C60 1_555 1_555
H39 C61 1_555 1_555
C62 C61 1_555 1_555
H40 C62 1_555 1_555
C63 C58 1_555 1_555
H41 C63 1_555 1_555
O16 C43 1_555 1_555
H42 O16 1_555 1_555
O17 C43 1_555 1_555
O18 C45 1_555 1_555
C6 C7 1_555 1_555
C8 O3 1_555 1_555
C13 C14 1_555 1_555
C15 O5 1_555 1_555
C20 C21 1_555 1_555
C27 C28 1_555 1_555
C29 O9 1_555 1_555
C34 C35 1_555 1_555
C36 O11 1_555 1_555
C41 C42 1_555 1_555
C50 C51 1_555 1_555
C52 C53 1_555 1_555
C55 C56 1_555 1_555
C62 C63 1_555 1_555

#END
