
#######################################################################
#
#                 Cambridge Crystallographic Data Centre
#                                CCDC 
#
#######################################################################
#
# If this CIF has been generated from an entry in the Cambridge 
# Structural Database, then it will include bibliographic, chemical, 
# crystal, experimental, refinement or atomic coordinate data resulting 
# from the CCDC's data processing and validation procedures.
#
#######################################################################

data_MOHWEM
_chemical_formula_moiety         'C28 H19 N3'
_chemical_name_systematic        
12-Methyl-12H-dinaphtho[1',2':6,7;2'',1'':4,5][1,3]diazepino[1,2-a]benzimidazole
_symmetry_cell_setting           monoclinic
_symmetry_space_group_name_H-M   'P 21/n'
_symmetry_Int_Tables_number      14
_space_group_name_Hall           '-P 2yn'
loop_
_symmetry_equiv_pos_site_id
_symmetry_equiv_pos_as_xyz
1 x,y,z
2 1/2-x,1/2+y,1/2-z
3 -x,-y,-z
4 1/2+x,1/2-y,1/2+z
_cell_length_a                   8.7871(8)
_cell_length_b                   25.373(3)
_cell_length_c                   9.3514(9)
_cell_angle_alpha                90
_cell_angle_beta                 101.837(2)
_cell_angle_gamma                90
_cell_volume                     2040.61
_exptl_crystal_colour            colorless
_exptl_crystal_description       prismatic
_chemical_melting_point          '248.4-249.5 deg.C'
_cell_formula_units_Z            4
_exptl_crystal_recrystallization_method 'dichloromethane/petroleum ether'
loop_
_atom_site_label
_atom_site_type_symbol
_atom_site_fract_x
_atom_site_fract_y
_atom_site_fract_z
N1 N 0.8279(2) 0.13527(9) 0.55367(19)
N2 N 0.6333(2) 0.09302(8) 0.40351(17)
N3 N 0.6361(2) 0.18906(9) 0.41486(18)
C1 C 0.6937(3) 0.14357(11) 0.4505(2)
C2 C 0.7265(3) 0.05505(10) 0.4935(2)
C3 C 0.7091(3) 0.00134(11) 0.5042(3)
H1 H 0.6302 -0.0166 0.4414
C4 C 0.8136(4) -0.02516(13) 0.6121(3)
H2 H 0.8055 -0.0614 0.6224
C5 C 0.9300(4) 0.00264(15) 0.7044(3)
H3 H 0.9980 -0.0158 0.7766
C6 C 0.9493(3) 0.05592(14) 0.6939(3)
H4 H 1.0288 0.0738 0.7561
C7 C 0.8442(3) 0.08200(11) 0.5861(2)
C8 C 0.9104(3) 0.17811(13) 0.6409(3)
H5 H 0.8515 0.2101 0.6206
H6 H 1.0106 0.1827 0.6167
H7 H 0.9233 0.1697 0.7428
C9 C 0.5876(3) 0.08666(10) 0.2463(2)
C10 C 0.6610(3) 0.04739(10) 0.1780(2)
H8 H 0.7259 0.0227 0.2335
C11 C 0.6352(3) 0.04610(11) 0.0282(2)
H9 H 0.6794 0.0193 -0.0175
C12 C 0.5446(3) 0.08408(10) -0.0566(2)
C13 C 0.5273(3) 0.08609(12) -0.2109(3)
H10 H 0.5758 0.0607 -0.2576
C14 C 0.4426(3) 0.12384(13) -0.2909(3)
H11 H 0.4329 0.1241 -0.3918
C15 C 0.3691(3) 0.16264(11) -0.2237(2)
H12 H 0.3123 0.1889 -0.2802
C16 C 0.3799(3) 0.16235(10) -0.0751(2)
H13 H 0.3295 0.1882 -0.0318
C17 C 0.4672(3) 0.12293(10) 0.0124(2)
C18 C 0.4844(3) 0.12160(9) 0.1694(2)
C19 C 0.3964(3) 0.15870(9) 0.2454(2)
C20 C 0.2289(3) 0.15974(10) 0.2112(2)
C21 C 0.1401(3) 0.12429(10) 0.1105(2)
H14 H 0.1904 0.1002 0.0612
C22 C -0.0190(3) 0.12509(11) 0.0850(3)
H15 H -0.0755 0.1019 0.0174
C23 C -0.0970(3) 0.16015(12) 0.1587(3)
H16 H -0.2051 0.1600 0.1410
C24 C -0.0159(3) 0.19451(12) 0.2562(3)
H17 H -0.0691 0.2177 0.3056
C25 C 0.1488(3) 0.19578(10) 0.2844(2)
C26 C 0.2351(4) 0.23155(11) 0.3848(3)
H18 H 0.1831 0.2567 0.4290
C27 C 0.3927(4) 0.22984(10) 0.4180(2)
H19 H 0.4472 0.2541 0.4835
C28 C 0.4755(3) 0.19133(10) 0.3539(2)
loop_
_geom_bond_atom_site_label_1
_geom_bond_atom_site_label_2
_geom_bond_site_symmetry_1
_geom_bond_site_symmetry_2
N1 C1 1_555 1_555
N2 C1 1_555 1_555
N3 C1 1_555 1_555
C2 N2 1_555 1_555
C3 C2 1_555 1_555
H1 C3 1_555 1_555
C4 C3 1_555 1_555
H2 C4 1_555 1_555
C5 C4 1_555 1_555
H3 C5 1_555 1_555
C6 C5 1_555 1_555
H4 C6 1_555 1_555
C7 N1 1_555 1_555
C8 N1 1_555 1_555
H5 C8 1_555 1_555
H6 C8 1_555 1_555
H7 C8 1_555 1_555
C9 N2 1_555 1_555
C10 C9 1_555 1_555
H8 C10 1_555 1_555
C11 C10 1_555 1_555
H9 C11 1_555 1_555
C12 C11 1_555 1_555
C13 C12 1_555 1_555
H10 C13 1_555 1_555
C14 C13 1_555 1_555
H11 C14 1_555 1_555
C15 C14 1_555 1_555
H12 C15 1_555 1_555
C16 C15 1_555 1_555
H13 C16 1_555 1_555
C17 C12 1_555 1_555
C18 C9 1_555 1_555
C19 C18 1_555 1_555
C20 C19 1_555 1_555
C21 C20 1_555 1_555
H14 C21 1_555 1_555
C22 C21 1_555 1_555
H15 C22 1_555 1_555
C23 C22 1_555 1_555
H16 C23 1_555 1_555
C24 C23 1_555 1_555
H17 C24 1_555 1_555
C25 C20 1_555 1_555
C26 C25 1_555 1_555
H18 C26 1_555 1_555
C27 C26 1_555 1_555
H19 C27 1_555 1_555
C28 N3 1_555 1_555
C2 C7 1_555 1_555
C6 C7 1_555 1_555
C16 C17 1_555 1_555
C17 C18 1_555 1_555
C19 C28 1_555 1_555
C24 C25 1_555 1_555
C27 C28 1_555 1_555

#END
