
#######################################################################
#
#                 Cambridge Crystallographic Data Centre
#                                CCDC 
#
#######################################################################
#
# If this CIF has been generated from an entry in the Cambridge 
# Structural Database, then it will include bibliographic, chemical, 
# crystal, experimental, refinement or atomic coordinate data resulting 
# from the CCDC's data processing and validation procedures.
#
#######################################################################

data_MOJBOD
_chemical_formula_moiety         'C48 H36 N4'
_chemical_name_systematic        
2,4,6,8-Tetraphenyl-1,5(1,4),3,7(1,3)-tetrabenzena-2,4,6,8-tetra-azacyclo-octaphane
_symmetry_cell_setting           triclinic
_symmetry_space_group_name_H-M   'P -1'
_symmetry_Int_Tables_number      2
_space_group_name_Hall           '-P 1'
loop_
_symmetry_equiv_pos_site_id
_symmetry_equiv_pos_as_xyz
1 x,y,z
2 -x,-y,-z
_cell_length_a                   10.8537(8)
_cell_length_b                   13.5650(10)
_cell_length_c                   13.8048(10)
_cell_angle_alpha                72.199(2)
_cell_angle_beta                 76.431(1)
_cell_angle_gamma                68.571(1)
_cell_volume                     1783.99
_chemical_melting_point          '373 deg.C'
_cell_formula_units_Z            2
loop_
_atom_site_label
_atom_site_type_symbol
_atom_site_fract_x
_atom_site_fract_y
_atom_site_fract_z
N1 N 0.6667(2) 1.07494(18) 0.41194(17)
N2 N 1.0397(2) 0.67980(18) 0.33148(17)
N3 N 0.9427(2) 0.7975(2) -0.01815(18)
N4 N 0.5902(2) 1.19991(19) 0.05682(17)
C1 C 0.5432(3) 1.2064(2) 0.1606(2)
C2 C 0.9894(2) 0.7132(2) 0.0654(2)
C3 C 0.9983(2) 0.7356(2) 0.1549(2)
H1 H 0.9781 0.8078 0.1569
C4 C 0.6241(3) 1.1427(2) 0.2351(2)
H2 H 0.7086 1.0972 0.2158
C5 C 0.5832(2) 1.1441(2) 0.3385(2)
C6 C 0.6574(2) 1.00074(18) 0.09426(17)
H3 H 0.5865 1.0010 0.1474
C7 C 0.4586(3) 1.2170(2) 0.3652(2)
H4 H 0.4287 1.2205 0.4333
C8 C 0.4198(2) 1.27917(19) 0.18796(19)
H5 H 0.3647 1.3242 0.1386
C9 C 1.0365(2) 0.6532(2) 0.2409(2)
C10 C 0.7185(2) 0.89952(18) 0.37073(16)
H6 H 0.6285 0.9152 0.3673
C11 C 0.8099(2) 0.80289(18) 0.35222(17)
H7 H 0.7802 0.7535 0.3376
C12 C 0.5244(3) 1.2835(2) -0.0232(2)
C13 C 0.6739(2) 1.09825(18) 0.03517(17)
C14 C 0.6550(2) 1.0970(2) 0.50847(19)
C15 C 1.0729(2) 0.5444(2) 0.23630(18)
H8 H 1.0992 0.4876 0.2931
C16 C 0.6387(2) 1.2017(2) 0.51506(19)
H9 H 0.6364 1.2578 0.4557
C17 C 0.7441(2) 0.90301(18) 0.07606(17)
H10 H 0.7324 0.8380 0.1181
C18 C 0.3805(3) 1.2834(2) 0.2901(2)
H11 H 0.2987 1.3327 0.3084
C19 C 0.8942(2) 0.9484(2) 0.39923(19)
H12 H 0.9233 0.9972 0.4154
C20 C 0.9849(3) 0.78290(19) -0.12054(18)
C21 C 0.7608(2) 0.97335(19) 0.39441(17)
C22 C 0.9444(2) 0.77798(18) 0.35497(17)
C23 C 1.1323(3) 0.6107(2) 0.3988(2)
C24 C 1.2635(3) 0.5608(2) 0.3608(2)
H13 H 1.2908 0.5743 0.2903
C25 C 1.0277(3) 0.6040(2) 0.0613(2)
H14 H 1.0251 0.5869 0.0016
C26 C 0.9859(2) 0.8514(2) 0.38035(19)
H15 H 1.0757 0.8354 0.3847
C27 C 0.8607(3) 0.9978(2) -0.06742(19)
H16 H 0.9275 0.9978 -0.1237
C28 C 0.8494(2) 0.90007(19) -0.00471(18)
C29 C 0.7740(2) 1.09651(19) -0.04820(18)
H17 H 0.7833 1.1618 -0.0915
C30 C 1.0688(3) 0.5229(2) 0.1453(2)
H18 H 1.0950 0.4506 0.1414
C31 C 0.6604(3) 1.0150(2) 0.5968(2)
H19 H 0.6718 0.9447 0.5937
C32 C 1.0952(3) 0.5909(3) 0.5042(2)
H20 H 1.0078 0.6238 0.5312
C33 C 1.1197(3) 0.7480(2) -0.15636(19)
H21 H 1.1829 0.7335 -0.1143
C34 C 0.5468(3) 1.3828(3) -0.0563(3)
H22 H 0.6081 1.3953 -0.0282
C35 C 0.6260(3) 1.2223(3) 0.6091(3)
H23 H 0.6138 1.2926 0.6130
C36 C 1.3163(3) 0.4720(2) 0.5315(3)
H24 H 1.3775 0.4252 0.5759
C37 C 1.1591(3) 0.7349(2) -0.2556(2)
H25 H 1.2498 0.7119 -0.2803
C38 C 1.1876(4) 0.5222(3) 0.5694(3)
H26 H 1.1619 0.5101 0.6400
C39 C 0.8932(3) 0.8005(2) -0.1819(2)
H27 H 0.8026 0.8211 -0.1566
C40 C 1.0681(3) 0.7551(2) -0.3179(2)
H28 H 1.0966 0.7466 -0.3848
C41 C 1.3540(3) 0.4914(3) 0.4271(3)
H29 H 1.4414 0.4575 0.4008
C42 C 0.3699(4) 1.3476(3) -0.1432(3)
H30 H 0.3104 1.3346 -0.1728
C43 C 0.4365(3) 1.2671(3) -0.0685(3)
H31 H 0.4219 1.1998 -0.0480
C44 C 0.4776(4) 1.4644(3) -0.1320(3)
H32 H 0.4917 1.5319 -0.1536
C45 C 0.6490(3) 1.0371(3) 0.6906(2)
H33 H 0.6533 0.9813 0.7503
C46 C 0.6312(3) 1.1413(4) 0.6960(3)
H34 H 0.6228 1.1559 0.7593
C47 C 0.9345(3) 0.7878(3) -0.2820(2)
H35 H 0.8717 0.8014 -0.3242
C48 C 0.3896(4) 1.4461(3) -0.1746(3)
H36 H 0.3432 1.5009 -0.2250
loop_
_geom_bond_atom_site_label_1
_geom_bond_atom_site_label_2
_geom_bond_site_symmetry_1
_geom_bond_site_symmetry_2
N1 C5 1_555 1_555
N2 C9 1_555 1_555
N3 C2 1_555 1_555
N4 C1 1_555 1_555
C1 C4 1_555 1_555
C2 C3 1_555 1_555
C3 H1 1_555 1_555
C4 H2 1_555 1_555
C5 C4 1_555 1_555
C6 H3 1_555 1_555
C7 C5 1_555 1_555
H4 C7 1_555 1_555
C8 C1 1_555 1_555
H5 C8 1_555 1_555
C9 C3 1_555 1_555
C10 H6 1_555 1_555
C11 C10 1_555 1_555
H7 C11 1_555 1_555
C12 N4 1_555 1_555
C13 N4 1_555 1_555
C14 N1 1_555 1_555
C15 C9 1_555 1_555
H8 C15 1_555 1_555
C16 C14 1_555 1_555
H9 C16 1_555 1_555
C17 C6 1_555 1_555
H10 C17 1_555 1_555
C18 C7 1_555 1_555
H11 C18 1_555 1_555
C19 H12 1_555 1_555
C20 N3 1_555 1_555
C21 N1 1_555 1_555
C22 N2 1_555 1_555
C23 N2 1_555 1_555
C24 C23 1_555 1_555
H13 C24 1_555 1_555
C25 C2 1_555 1_555
H14 C25 1_555 1_555
C26 C19 1_555 1_555
H15 C26 1_555 1_555
C27 H16 1_555 1_555
C28 N3 1_555 1_555
C29 C13 1_555 1_555
H17 C29 1_555 1_555
C30 C15 1_555 1_555
H18 C30 1_555 1_555
C31 C14 1_555 1_555
H19 C31 1_555 1_555
C32 C23 1_555 1_555
H20 C32 1_555 1_555
C33 C20 1_555 1_555
H21 C33 1_555 1_555
C34 C12 1_555 1_555
H22 C34 1_555 1_555
C35 C16 1_555 1_555
H23 C35 1_555 1_555
C36 H24 1_555 1_555
C37 C33 1_555 1_555
H25 C37 1_555 1_555
C38 C32 1_555 1_555
H26 C38 1_555 1_555
C39 C20 1_555 1_555
H27 C39 1_555 1_555
C40 C37 1_555 1_555
H28 C40 1_555 1_555
C41 C24 1_555 1_555
H29 C41 1_555 1_555
C42 H30 1_555 1_555
C43 C12 1_555 1_555
H31 C43 1_555 1_555
C44 C34 1_555 1_555
H32 C44 1_555 1_555
C45 C31 1_555 1_555
H33 C45 1_555 1_555
C46 C35 1_555 1_555
H34 C46 1_555 1_555
C47 C39 1_555 1_555
H35 C47 1_555 1_555
C48 C42 1_555 1_555
H36 C48 1_555 1_555
C6 C13 1_555 1_555
C8 C18 1_555 1_555
C10 C21 1_555 1_555
C11 C22 1_555 1_555
C17 C28 1_555 1_555
C19 C21 1_555 1_555
C22 C26 1_555 1_555
C25 C30 1_555 1_555
C27 C28 1_555 1_555
C27 C29 1_555 1_555
C36 C38 1_555 1_555
C36 C41 1_555 1_555
C40 C47 1_555 1_555
C42 C43 1_555 1_555
C44 C48 1_555 1_555
C45 C46 1_555 1_555

#END
