
#######################################################################
#
#                 Cambridge Crystallographic Data Centre
#                                CCDC 
#
#######################################################################
#
# If this CIF has been generated from an entry in the Cambridge 
# Structural Database, then it will include bibliographic, chemical, 
# crystal, experimental, refinement or atomic coordinate data resulting 
# from the CCDC's data processing and validation procedures.
#
#######################################################################

data_MOJCOF
_chemical_formula_moiety         'C17 H11 N5,C4 H8 O1'
_chemical_name_systematic        
2,6-Diamino-4-(naphthalen-1-yl)pyridine-3,5-dicarbonitrile
_symmetry_cell_setting           monoclinic
_symmetry_space_group_name_H-M   'P 21/n'
_symmetry_Int_Tables_number      14
_space_group_name_Hall           '-P 2yn'
loop_
_symmetry_equiv_pos_site_id
_symmetry_equiv_pos_as_xyz
1 x,y,z
2 1/2-x,1/2+y,1/2-z
3 -x,-y,-z
4 1/2+x,1/2-y,1/2+z
_cell_length_a                   6.8023(15)
_cell_length_b                   11.459(3)
_cell_length_c                   23.775(5)
_cell_angle_alpha                90
_cell_angle_beta                 97.832(2)
_cell_angle_gamma                90
_cell_volume                     1835.92
_exptl_crystal_colour            colorless
_exptl_crystal_description       Prism
_chemical_melting_point          '586 K'
_cell_formula_units_Z            4
_chemical_properties_physical    Photo-sensitive
_exptl_crystal_recrystallization_method tetrahydrofuran
_exptl_crystal_preparation       Luminescent
loop_
_atom_site_label
_atom_site_type_symbol
_atom_site_fract_x
_atom_site_fract_y
_atom_site_fract_z
N1 N 0.59129(19) 0.84036(11) 0.01785(5)
N2 N 0.8366(2) 0.73960(12) -0.01844(6)
N3 N 0.3514(2) 0.94723(12) 0.05359(6)
N4 N 0.8492(2) 0.44970(12) 0.03882(6)
N5 N 0.1460(2) 0.78433(12) 0.15433(7)
C1 C 0.6971(2) 0.74154(12) 0.01622(6)
C2 C 0.6640(2) 0.64253(12) 0.05021(6)
C3 C 0.5236(2) 0.65006(12) 0.08776(6)
C4 C 0.4145(2) 0.75276(12) 0.08909(6)
C5 C 0.4523(2) 0.84707(12) 0.05282(6)
C6 C 0.7671(2) 0.53562(12) 0.04449(6)
C7 C 0.2669(2) 0.76669(12) 0.12598(6)
C8 C 0.4888(2) 0.55135(12) 0.12603(6)
C9 C 0.3103(2) 0.49376(13) 0.11705(6)
H1 H 0.2140 0.5155 0.0861
C10 C 0.2690(2) 0.40254(14) 0.15351(7)
H2 H 0.1458 0.3625 0.1466
C11 C 0.4044(3) 0.37147(13) 0.19860(7)
H3 H 0.3736 0.3108 0.2232
C12 C 0.5907(2) 0.42851(12) 0.20936(6)
C13 C 0.7333(3) 0.39799(13) 0.25632(6)
H4 H 0.7044 0.3376 0.2813
C14 C 0.9111(3) 0.45428(15) 0.26603(7)
H5 H 1.0057 0.4322 0.2974
C15 C 0.9556(2) 0.54530(14) 0.22972(7)
H6 H 1.0800 0.5841 0.2369
C16 C 0.8211(2) 0.57797(13) 0.18437(6)
H7 H 0.8522 0.6400 0.1606
C17 C 0.6356(2) 0.52023(12) 0.17249(6)
H8 H 0.248(3) 0.9554(17) 0.0747(8)
H9 H 0.376(3) 1.008(2) 0.0326(10)
H10 H 0.851(3) 0.7991(19) -0.0409(9)
H11 H 0.915(3) 0.678(2) -0.0191(9)
O1 O 1.05209(17) 0.08186(11) 0.10288(5)
C18 C 1.1081(3) 0.09729(15) 0.16253(7)
H12 H 1.2354 0.1402 0.1697
H13 H 1.1257 0.0204 0.1815
C19 C 0.9472(3) 0.16518(16) 0.18559(9)
H14 H 0.9002 0.1233 0.2176
H15 H 0.9954 0.2434 0.1987
C20 C 0.7874(4) 0.1746(2) 0.13700(12)
H16 H 0.7875 0.2527 0.1191
H17 H 0.6559 0.1605 0.1491
C21 C 0.8376(3) 0.0800(3) 0.09639(10)
H18 H 0.7880 0.0030 0.1070
H19 H 0.7802 0.0982 0.0568
loop_
_geom_bond_atom_site_label_1
_geom_bond_atom_site_label_2
_geom_bond_site_symmetry_1
_geom_bond_site_symmetry_2
N1 C1 1_555 1_555
N2 C1 1_555 1_555
N3 C5 1_555 1_555
N4 C6 1_555 1_555
N5 C7 1_555 1_555
C1 C2 1_555 1_555
C2 C3 1_555 1_555
C3 C4 1_555 1_555
C4 C5 1_555 1_555
C5 N1 1_555 1_555
C6 C2 1_555 1_555
C7 C4 1_555 1_555
C8 C3 1_555 1_555
C9 C8 1_555 1_555
H1 C9 1_555 1_555
C10 C9 1_555 1_555
H2 C10 1_555 1_555
C11 C10 1_555 1_555
H3 C11 1_555 1_555
C12 C11 1_555 1_555
C13 C12 1_555 1_555
H4 C13 1_555 1_555
C14 C13 1_555 1_555
H5 C14 1_555 1_555
C15 C14 1_555 1_555
H6 C15 1_555 1_555
C16 C15 1_555 1_555
H7 C16 1_555 1_555
C17 C8 1_555 1_555
H8 N3 1_555 1_555
H9 N3 1_555 1_555
H10 N2 1_555 1_555
H11 N2 1_555 1_555
O1 C18 1_555 1_555
C18 H12 1_555 1_555
H13 C18 1_555 1_555
C19 C18 1_555 1_555
H14 C19 1_555 1_555
H15 C19 1_555 1_555
C20 C19 1_555 1_555
H16 C20 1_555 1_555
H17 C20 1_555 1_555
C21 O1 1_555 1_555
H18 C21 1_555 1_555
H19 C21 1_555 1_555
C12 C17 1_555 1_555
C16 C17 1_555 1_555
C20 C21 1_555 1_555

#END
