
#######################################################################
#
#                 Cambridge Crystallographic Data Centre
#                                CCDC 
#
#######################################################################
#
# If this CIF has been generated from an entry in the Cambridge 
# Structural Database, then it will include bibliographic, chemical, 
# crystal, experimental, refinement or atomic coordinate data resulting 
# from the CCDC's data processing and validation procedures.
#
#######################################################################

data_MOJFEX
_chemical_formula_moiety         'C16 H9 N3 S2'
_chemical_name_systematic        6H-Pyrrolo(3,2-b:4,5-b')bis(1,4)benzothiazine
_symmetry_cell_setting           monoclinic
_symmetry_space_group_name_H-M   'P 21/n'
_symmetry_Int_Tables_number      14
_space_group_name_Hall           '-P 2yn'
loop_
_symmetry_equiv_pos_site_id
_symmetry_equiv_pos_as_xyz
1 x,y,z
2 1/2-x,1/2+y,1/2-z
3 -x,-y,-z
4 1/2+x,1/2-y,1/2+z
_cell_length_a                   4.7896(10)
_cell_length_b                   23.389(5)
_cell_length_c                   11.493(2)
_cell_angle_alpha                90
_cell_angle_beta                 97.35(3)
_cell_angle_gamma                90
_cell_volume                     1276.91
_cell_formula_units_Z            4
_exptl_crystal_recrystallization_method sublimation
loop_
_atom_site_label
_atom_site_type_symbol
_atom_site_fract_x
_atom_site_fract_y
_atom_site_fract_z
S1 S 0.1977(2) 0.99794(4) 0.87928(9)
S2 S 0.6677(2) 0.87815(4) 0.93068(9)
N1 N 0.2636(7) 1.02313(13) 0.6093(3)
N2 N 0.5884(6) 0.94792(13) 0.6188(3)
H1 H 0.6287 0.9507 0.5482
N3 N 0.8826(7) 0.87002(13) 0.6763(3)
C1 C 0.0226(8) 1.04864(15) 0.7819(3)
C2 C -0.1720(8) 1.08354(16) 0.8287(4)
H2 H -0.2035 1.0788 0.9063
C3 C -0.3170(8) 1.12478(16) 0.7608(4)
H3 H -0.4442 1.1483 0.7926
C4 C -0.2729(8) 1.13131(16) 0.6438(4)
H4 H -0.3737 1.1585 0.5967
C5 C -0.0787(8) 1.09703(16) 0.5986(4)
H5 H -0.0488 1.1020 0.5209
C6 C 0.0736(8) 1.05539(15) 0.6655(4)
C7 C 0.4028(8) 0.98247(15) 0.6663(4)
C8 C 0.3987(8) 0.96373(15) 0.7876(3)
C9 C 0.5795(8) 0.91911(15) 0.8071(3)
C10 C 0.7019(8) 0.90811(16) 0.6991(4)
C11 C 0.9839(8) 0.83172(16) 0.7660(4)
C12 C 1.1804(8) 0.79146(16) 0.7375(4)
H6 H 1.2327 0.7916 0.6623
C13 C 1.2991(9) 0.75154(17) 0.8177(4)
H7 H 1.4273 0.7250 0.7960
C14 C 1.2261(9) 0.75134(17) 0.9304(4)
H8 H 1.3070 0.7248 0.9849
C15 C 1.0326(9) 0.79055(17) 0.9620(4)
H9 H 0.9834 0.7902 1.0376
C16 C 0.9108(8) 0.83076(16) 0.8806(4)
loop_
_geom_bond_atom_site_label_1
_geom_bond_atom_site_label_2
_geom_bond_site_symmetry_1
_geom_bond_site_symmetry_2
S1 C1 1_555 1_555
S2 C9 1_555 1_555
N1 C6 1_555 1_555
N2 H1 1_555 1_555
N3 C10 1_555 1_555
C1 C2 1_555 1_555
C2 H2 1_555 1_555
C3 C2 1_555 1_555
H3 C3 1_555 1_555
C4 C3 1_555 1_555
H4 C4 1_555 1_555
C5 C4 1_555 1_555
H5 C5 1_555 1_555
C6 C1 1_555 1_555
C7 N1 1_555 1_555
C8 S1 1_555 1_555
C9 C8 1_555 1_555
C10 N2 1_555 1_555
C11 N3 1_555 1_555
C12 C11 1_555 1_555
H6 C12 1_555 1_555
C13 C12 1_555 1_555
H7 C13 1_555 1_555
C14 C13 1_555 1_555
H8 C14 1_555 1_555
C15 C14 1_555 1_555
H9 C15 1_555 1_555
C16 S2 1_555 1_555
N2 C7 1_555 1_555
C5 C6 1_555 1_555
C7 C8 1_555 1_555
C9 C10 1_555 1_555
C11 C16 1_555 1_555
C15 C16 1_555 1_555

#END
