
#######################################################################
#
#                 Cambridge Crystallographic Data Centre
#                                CCDC 
#
#######################################################################
#
# If this CIF has been generated from an entry in the Cambridge 
# Structural Database, then it will include bibliographic, chemical, 
# crystal, experimental, refinement or atomic coordinate data resulting 
# from the CCDC's data processing and validation procedures.
#
#######################################################################

data_MOJGOI
_chemical_formula_moiety         'C42 H36 F6 N1 1+,Br1 1-,C1 H2 Cl2,0.5(H2 O1)'
_chemical_name_systematic        
"(S)-Di-n-butyl-(3,3'-bis(3,4,5-trifluorophenyl)-2,2'-dimethylene-1,1'-binaphthyl)ammonium bromide dichloromethane solvate hemihydrate"
_symmetry_cell_setting           monoclinic
_symmetry_space_group_name_H-M   'P 21'
_symmetry_Int_Tables_number      4
_space_group_name_Hall           'P 2yb'
loop_
_symmetry_equiv_pos_site_id
_symmetry_equiv_pos_as_xyz
1 x,y,z
2 -x,1/2+y,-z
_cell_length_a                   11.5878(2)
_cell_length_b                   16.7648(3)
_cell_length_c                   20.4005(4)
_cell_angle_alpha                90
_cell_angle_beta                 101.5860(10)
_cell_angle_gamma                90
_cell_volume                     3882.4
_exptl_crystal_colour            colorless
_exptl_crystal_description       prism
_cell_formula_units_Z            4
_exptl_crystal_recrystallization_method CH2Cl2/hexane
loop_
_atom_site_label
_atom_site_type_symbol
_atom_site_fract_x
_atom_site_fract_y
_atom_site_fract_z
Br1 Br 1.05065(9) 0.48084(7) 0.44918(5)
Br2 Br 1.13292(17) 0.60328(10) 0.81093(8)
Br3 Br 1.9579(4) 0.9617(3) 0.39633(19)
Br4 Br 1.0964(5) 0.0202(3) 0.2966(2)
Cl1 Cl 0.99688(15) 0.18749(10) -0.00845(6)
Cl2 Cl 0.93129(17) 0.31368(12) 0.07457(8)
C85 C 0.9102(8) 0.2151(5) 0.0494(4)
H73 H 0.8260 0.2068 0.0290
H74 H 0.9297 0.1801 0.0892
Cl3 Cl 0.5641(2) 0.16035(16) 0.04168(11)
Cl4 Cl 0.50991(17) 0.18210(14) 0.17425(11)
C86 C 0.5715(10) 0.1218(6) 0.1224(5)
H75 H 0.5311 0.0695 0.1186
H76 H 0.6552 0.1125 0.1432
F1 F 0.7445(3) 0.7562(3) -0.09653(16)
F2 F 0.7813(3) 0.9034(3) -0.14131(15)
F3 F 0.7568(4) 1.0333(3) -0.0665(2)
F4 F 1.2960(2) 0.8950(2) 0.44757(15)
F5 F 1.4521(2) 0.7763(2) 0.44456(15)
F6 F 1.3758(2) 0.6306(2) 0.39653(16)
N1 N 0.9604(3) 0.8235(2) 0.19195(16)
C1 C 0.8501(4) 0.7804(3) 0.1529(2)
H1 H 0.8517 0.7809 0.1045
H2 H 0.8512 0.7241 0.1676
C2 C 0.7377(3) 0.8199(3) 0.1638(2)
C3 C 0.6680(4) 0.8667(3) 0.1122(2)
C4 C 0.5703(4) 0.9046(3) 0.1266(2)
H3 H 0.5217 0.9344 0.0920
C5 C 0.5390(4) 0.9015(3) 0.1892(2)
C6 C 0.4427(4) 0.9447(3) 0.2023(3)
H4 H 0.3952 0.9750 0.1677
C7 C 0.4159(4) 0.9435(4) 0.2663(3)
H5 H 0.3514 0.9734 0.2756
C8 C 0.4853(4) 0.8976(3) 0.3164(3)
H6 H 0.4679 0.8974 0.3600
C9 C 0.5781(4) 0.8528(3) 0.3043(2)
H7 H 0.6228 0.8214 0.3391
C10 C 0.6077(4) 0.8531(3) 0.2399(2)
C11 C 0.7055(3) 0.8103(3) 0.2248(2)
C12 C 0.7782(3) 0.7568(3) 0.2755(2)
C13 C 0.7274(4) 0.6887(3) 0.3006(2)
C14 C 0.6066(4) 0.6682(3) 0.2816(2)
H8 H 0.5566 0.6991 0.2486
C15 C 0.5606(4) 0.6047(3) 0.3100(2)
H9 H 0.4790 0.5928 0.2972
C16 C 0.6334(4) 0.5569(3) 0.3582(2)
H10 H 0.6001 0.5141 0.3787
C17 C 0.7514(4) 0.5718(3) 0.3757(2)
H11 H 0.8008 0.5376 0.4063
C18 C 0.8001(4) 0.6383(3) 0.3480(2)
C19 C 0.9213(4) 0.6571(3) 0.3683(2)
H12 H 0.9698 0.6238 0.4001
C20 C 0.9710(4) 0.7220(3) 0.34325(19)
C21 C 0.8981(4) 0.7727(3) 0.2958(2)
C22 C 0.9456(4) 0.8422(3) 0.2635(2)
H13 H 1.0230 0.8577 0.2908
H14 H 0.8916 0.8881 0.2624
C23 C 0.6946(4) 0.8762(3) 0.0441(2)
C24 C 0.7039(4) 0.8095(4) 0.0039(2)
H15 H 0.6909 0.7573 0.0190
C25 C 0.7320(4) 0.8208(4) -0.0580(2)
C26 C 0.7513(5) 0.8950(4) -0.0815(3)
C27 C 0.7381(5) 0.9590(4) -0.0437(3)
C28 C 0.7129(5) 0.9513(4) 0.0205(3)
H16 H 0.7085 0.9971 0.0472
C29 C 1.0982(4) 0.7375(3) 0.3696(2)
C30 C 1.1373(4) 0.8127(3) 0.3965(2)
H17 H 1.0827 0.8548 0.3972
C31 C 1.2557(4) 0.8241(3) 0.4217(2)
C32 C 1.3368(4) 0.7628(3) 0.4208(2)
C33 C 1.2973(4) 0.6901(3) 0.3965(2)
C34 C 1.1790(4) 0.6772(3) 0.3712(2)
H18 H 1.1531 0.6259 0.3546
C35 C 1.0635(4) 0.7678(3) 0.1923(2)
H19 H 1.0615 0.7503 0.1457
H20 H 1.0520 0.7198 0.2185
C36 C 1.1859(4) 0.8011(3) 0.2205(2)
H21 H 1.1916 0.8157 0.2680
H22 H 1.1987 0.8499 0.1956
C37 C 1.2810(4) 0.7398(4) 0.2148(3)
H23 H 1.3561 0.7573 0.2435
H24 H 1.2592 0.6883 0.2326
C38 C 1.3014(5) 0.7264(5) 0.1445(3)
H25 H 1.2489 0.6841 0.1228
H26 H 1.3835 0.7105 0.1466
H27 H 1.2851 0.7758 0.1186
C39 C 0.9772(4) 0.9042(3) 0.1601(2)
H28 H 0.9031 0.9349 0.1560
H29 H 1.0393 0.9339 0.1909
C40 C 1.0103(4) 0.9010(3) 0.0917(2)
H30 H 0.9465 0.8752 0.0591
H31 H 1.0831 0.8693 0.0942
C41 C 1.0300(4) 0.9861(3) 0.0686(2)
H32 H 1.0431 0.9840 0.0222
H33 H 0.9575 1.0176 0.0681
C42 C 1.1325(4) 1.0289(4) 0.1116(3)
H34 H 1.1048 1.0585 0.1469
H35 H 1.1672 1.0660 0.0840
H36 H 1.1919 0.9898 0.1320
F7 F 0.6441(3) 0.3620(3) -0.00439(14)
F8 F 0.6872(4) 0.5194(3) -0.01490(17)
F9 F 0.6765(4) 0.6176(2) 0.08844(19)
F10 F 1.2222(2) 0.3353(2) 0.54945(14)
F11 F 1.3440(2) 0.2047(2) 0.52592(16)
F12 F 1.2294(2) 0.0779(2) 0.46010(15)
N2 N 0.8571(3) 0.3406(2) 0.29510(16)
C43 C 0.7458(3) 0.3089(3) 0.25016(19)
H37 H 0.7493 0.3203 0.2030
H38 H 0.7431 0.2503 0.2554
C44 C 0.6345(3) 0.3444(3) 0.2650(2)
C45 C 0.5669(4) 0.4014(3) 0.2204(2)
C46 C 0.4653(4) 0.4318(3) 0.2354(2)
H39 H 0.4171 0.4656 0.2039
C47 C 0.4300(4) 0.4143(3) 0.2965(2)
C48 C 0.3315(4) 0.4517(3) 0.3142(3)
H40 H 0.2829 0.4854 0.2828
C49 C 0.3051(4) 0.4401(3) 0.3756(3)
H41 H 0.2392 0.4662 0.3872
C50 C 0.3768(4) 0.3887(3) 0.4224(2)
H42 H 0.3600 0.3821 0.4657
C51 C 0.4698(4) 0.3488(3) 0.4055(2)
H43 H 0.5153 0.3135 0.4369
C52 C 0.4988(3) 0.3595(3) 0.3422(2)
C53 C 0.5979(3) 0.3221(3) 0.32302(19)
C54 C 0.6659(4) 0.2591(3) 0.3673(2)
C55 C 0.6077(4) 0.1896(3) 0.3844(2)
C56 C 0.4858(4) 0.1722(3) 0.3585(2)
H44 H 0.4411 0.2065 0.3259
C57 C 0.4330(4) 0.1072(3) 0.3800(2)
H45 H 0.3525 0.0962 0.3618
C58 C 0.4971(4) 0.0562(3) 0.4289(3)
H46 H 0.4578 0.0134 0.4457
C59 C 0.6149(4) 0.0673(3) 0.4526(2)
H47 H 0.6583 0.0308 0.4837
C60 C 0.6723(4) 0.1344(3) 0.4301(2)
C61 C 0.7957(4) 0.1464(3) 0.4532(2)
H48 H 0.8393 0.1089 0.4833
C62 C 0.8525(4) 0.2106(3) 0.4332(2)
C63 C 0.7873(4) 0.2694(3) 0.38980(19)
C64 C 0.8431(3) 0.3418(3) 0.36861(18)
H49 H 0.9219 0.3483 0.3977
H50 H 0.7951 0.3887 0.3755
C65 C 0.6018(4) 0.4302(3) 0.1577(2)
C66 C 0.6077(4) 0.3788(4) 0.1049(2)
H51 H 0.5924 0.3234 0.1082
C67 C 0.6363(5) 0.4101(4) 0.0473(2)
C68 C 0.6599(5) 0.4895(4) 0.0411(2)
C69 C 0.6511(5) 0.5407(4) 0.0937(3)
C70 C 0.6231(4) 0.5112(3) 0.1520(2)
H52 H 0.6186 0.5462 0.1880
C71 C 1.0431(4) 0.2785(3) 0.4916(2)
H53 H 1.0014 0.3251 0.4997
C72 C 1.1628(4) 0.2742(3) 0.5138(2)
C73 C 1.2259(4) 0.2074(3) 0.5030(2)
C74 C 1.1670(4) 0.1441(3) 0.4696(2)
C75 C 1.0472(4) 0.1450(3) 0.4462(2)
H54 H 1.0083 0.1003 0.4232
C76 C 0.9826(4) 0.2140(3) 0.4571(2)
C77 C 0.9549(3) 0.2824(3) 0.2871(2)
H55 H 0.9387 0.2306 0.3067
H56 H 0.9509 0.2737 0.2387
C78 C 1.0799(3) 0.3076(3) 0.3187(2)
H57 H 1.0844 0.3198 0.3667
H58 H 1.1005 0.3566 0.2966
C79 C 1.1684(4) 0.2415(3) 0.3121(2)
H59 H 1.2457 0.2552 0.3403
H60 H 1.1416 0.1910 0.3293
C80 C 1.1838(5) 0.2287(4) 0.2407(3)
H61 H 1.1261 0.1895 0.2187
H62 H 1.2635 0.2091 0.2410
H63 H 1.1716 0.2793 0.2162
C81 C 0.8833(4) 0.4255(3) 0.2784(2)
H64 H 0.9475 0.4456 0.3141
H65 H 0.8125 0.4581 0.2796
C82 C 0.9185(4) 0.4393(3) 0.2114(2)
H66 H 0.8519 0.4258 0.1745
H67 H 0.9860 0.4046 0.2077
C83 C 0.9523(5) 0.5264(3) 0.2063(3)
H68 H 1.0211 0.5387 0.2422
H69 H 0.8861 0.5607 0.2130
C84 C 0.9827(6) 0.5453(4) 0.1381(3)
H70 H 1.0670 0.5360 0.1403
H71 H 0.9639 0.6012 0.1266
H72 H 0.9367 0.5106 0.1038
O1 O 1.7629(5) 0.0114(4) 0.2971(3)
loop_
_geom_bond_atom_site_label_1
_geom_bond_atom_site_label_2
_geom_bond_site_symmetry_1
_geom_bond_site_symmetry_2
Cl1 C85 1_555 1_555
Cl2 C85 1_555 1_555
Cl3 C86 1_555 1_555
Cl4 C86 1_555 1_555
F1 C25 1_555 1_555
F2 C26 1_555 1_555
F3 C27 1_555 1_555
F4 C31 1_555 1_555
F5 C32 1_555 1_555
F6 C33 1_555 1_555
F7 C67 1_555 1_555
F8 C68 1_555 1_555
F9 C69 1_555 1_555
F10 C72 1_555 1_555
F11 C73 1_555 1_555
F12 C74 1_555 1_555
N1 C1 1_555 1_555
N2 C43 1_555 1_555
C1 H1 1_555 1_555
H2 C1 1_555 1_555
C2 C1 1_555 1_555
C3 C2 1_555 1_555
C4 C3 1_555 1_555
H3 C4 1_555 1_555
C5 C4 1_555 1_555
C6 C5 1_555 1_555
H4 C6 1_555 1_555
C7 C6 1_555 1_555
H5 C7 1_555 1_555
C8 C7 1_555 1_555
H6 C8 1_555 1_555
C9 C8 1_555 1_555
H7 C9 1_555 1_555
C10 C5 1_555 1_555
C11 C2 1_555 1_555
C12 C11 1_555 1_555
C13 C12 1_555 1_555
C14 C13 1_555 1_555
H8 C14 1_555 1_555
C15 C14 1_555 1_555
H9 C15 1_555 1_555
C16 C15 1_555 1_555
H10 C16 1_555 1_555
C17 C16 1_555 1_555
H11 C17 1_555 1_555
C18 C13 1_555 1_555
C19 C18 1_555 1_555
H12 C19 1_555 1_555
C20 C19 1_555 1_555
C21 C12 1_555 1_555
C22 N1 1_555 1_555
H13 C22 1_555 1_555
H14 C22 1_555 1_555
C23 C3 1_555 1_555
C24 C23 1_555 1_555
H15 C24 1_555 1_555
C25 C24 1_555 1_555
C26 C25 1_555 1_555
C27 C26 1_555 1_555
C28 C23 1_555 1_555
H16 C28 1_555 1_555
C29 C20 1_555 1_555
C30 C29 1_555 1_555
H17 C30 1_555 1_555
C31 C30 1_555 1_555
C32 C31 1_555 1_555
C33 C32 1_555 1_555
C34 C29 1_555 1_555
H18 C34 1_555 1_555
C35 N1 1_555 1_555
H19 C35 1_555 1_555
H20 C35 1_555 1_555
C36 C35 1_555 1_555
H21 C36 1_555 1_555
H22 C36 1_555 1_555
C37 C36 1_555 1_555
H23 C37 1_555 1_555
H24 C37 1_555 1_555
C38 C37 1_555 1_555
H25 C38 1_555 1_555
H26 C38 1_555 1_555
H27 C38 1_555 1_555
C39 N1 1_555 1_555
H28 C39 1_555 1_555
H29 C39 1_555 1_555
C40 C39 1_555 1_555
H30 C40 1_555 1_555
H31 C40 1_555 1_555
C41 C40 1_555 1_555
H32 C41 1_555 1_555
H33 C41 1_555 1_555
C42 C41 1_555 1_555
H34 C42 1_555 1_555
H35 C42 1_555 1_555
H36 C42 1_555 1_555
C43 H37 1_555 1_555
H38 C43 1_555 1_555
C44 C43 1_555 1_555
C45 C44 1_555 1_555
C46 C45 1_555 1_555
H39 C46 1_555 1_555
C47 C46 1_555 1_555
C48 C47 1_555 1_555
H40 C48 1_555 1_555
C49 C48 1_555 1_555
H41 C49 1_555 1_555
C50 C49 1_555 1_555
H42 C50 1_555 1_555
C51 C50 1_555 1_555
H43 C51 1_555 1_555
C52 C47 1_555 1_555
C53 C44 1_555 1_555
C54 C53 1_555 1_555
C55 C54 1_555 1_555
C56 C55 1_555 1_555
H44 C56 1_555 1_555
C57 C56 1_555 1_555
H45 C57 1_555 1_555
C58 C57 1_555 1_555
H46 C58 1_555 1_555
C59 C58 1_555 1_555
H47 C59 1_555 1_555
C60 C55 1_555 1_555
C61 C60 1_555 1_555
H48 C61 1_555 1_555
C62 C61 1_555 1_555
C63 C54 1_555 1_555
C64 N2 1_555 1_555
H49 C64 1_555 1_555
H50 C64 1_555 1_555
C65 C45 1_555 1_555
C66 C65 1_555 1_555
H51 C66 1_555 1_555
C67 C66 1_555 1_555
C68 C67 1_555 1_555
C69 C68 1_555 1_555
C70 C65 1_555 1_555
H52 C70 1_555 1_555
C71 H53 1_555 1_555
C72 C71 1_555 1_555
C73 C72 1_555 1_555
C74 C73 1_555 1_555
C75 C74 1_555 1_555
H54 C75 1_555 1_555
C76 C62 1_555 1_555
C77 N2 1_555 1_555
H55 C77 1_555 1_555
H56 C77 1_555 1_555
C78 C77 1_555 1_555
H57 C78 1_555 1_555
H58 C78 1_555 1_555
C79 C78 1_555 1_555
H59 C79 1_555 1_555
H60 C79 1_555 1_555
C80 C79 1_555 1_555
H61 C80 1_555 1_555
H62 C80 1_555 1_555
H63 C80 1_555 1_555
C81 N2 1_555 1_555
H64 C81 1_555 1_555
H65 C81 1_555 1_555
C82 C81 1_555 1_555
H66 C82 1_555 1_555
H67 C82 1_555 1_555
C83 C82 1_555 1_555
H68 C83 1_555 1_555
H69 C83 1_555 1_555
C84 C83 1_555 1_555
H70 C84 1_555 1_555
H71 C84 1_555 1_555
H72 C84 1_555 1_555
C85 H73 1_555 1_555
H74 C85 1_555 1_555
C86 H75 1_555 1_555
H76 C86 1_555 1_555
C9 C10 1_555 1_555
C10 C11 1_555 1_555
C17 C18 1_555 1_555
C20 C21 1_555 1_555
C21 C22 1_555 1_555
C27 C28 1_555 1_555
C33 C34 1_555 1_555
C51 C52 1_555 1_555
C52 C53 1_555 1_555
C59 C60 1_555 1_555
C62 C63 1_555 1_555
C63 C64 1_555 1_555
C69 C70 1_555 1_555
C71 C76 1_555 1_555
C75 C76 1_555 1_555

#END
