
#######################################################################
#
#                 Cambridge Crystallographic Data Centre
#                                CCDC 
#
#######################################################################
#
# If this CIF has been generated from an entry in the Cambridge 
# Structural Database, then it will include bibliographic, chemical, 
# crystal, experimental, refinement or atomic coordinate data resulting 
# from the CCDC's data processing and validation procedures.
#
#######################################################################

data_MOJHAW
_chemical_formula_moiety         'C18 H14 Cl1 F3 O2'
_chemical_name_systematic        
(R,E)-1-(4-Chlorophenyl)-6,6,6-trifluoro-5-hydroxy-5-phenylhex-1-en-3-one
_symmetry_cell_setting           monoclinic
_symmetry_space_group_name_H-M   'C 2'
_symmetry_Int_Tables_number      5
_space_group_name_Hall           'C 2y'
loop_
_symmetry_equiv_pos_site_id
_symmetry_equiv_pos_as_xyz
1 x,y,z
2 -x,y,-z
3 1/2+x,1/2+y,z
4 1/2-x,1/2+y,-z
_cell_length_a                   16.9285(4)
_cell_length_b                   5.8669(2)
_cell_length_c                   16.8320(5)
_cell_angle_alpha                90
_cell_angle_beta                 100.035(3)
_cell_angle_gamma                90
_cell_volume                     1646.14
_exptl_crystal_colour            colorless
_cell_formula_units_Z            4
loop_
_atom_site_label
_atom_site_type_symbol
_atom_site_fract_x
_atom_site_fract_y
_atom_site_fract_z
Cl1 Cl 0.41986(7) 1.5399(4) 0.92369(9)
C1 C -0.0550(3) 0.7246(8) 0.7372(3)
H1 H -0.0468 0.8382 0.6976
H2 H -0.0968 0.7811 0.7648
C2 C 0.3407(3) 1.3507(10) 0.9027(3)
C3 C -0.0851(3) 0.5075(9) 0.6927(3)
O1 O 0.0325(2) 0.5401(8) 0.8439(2)
C4 C 0.1475(3) 0.8834(10) 0.8563(3)
H3 H 0.1545 0.7542 0.8888
F1 F 0.04478(18) 0.4307(8) 0.6645(2)
C5 C 0.2124(3) 1.0483(11) 0.8707(3)
O2 O -0.0789(3) 0.3152(7) 0.7446(3)
H4 H -0.0427 0.3360 0.7831
C6 C 0.2750(3) 1.4050(11) 0.8451(3)
H5 H 0.2733 1.5425 0.8174
C7 C 0.2796(3) 1.0003(12) 0.9286(3)
H6 H 0.2813 0.8649 0.9576
C8 C 0.0801(3) 0.8908(10) 0.8037(3)
H7 H 0.0694 1.0159 0.7696
C9 C -0.1726(2) 0.5305(9) 0.6516(3)
C10 C -0.1998(3) 0.7233(10) 0.6068(3)
H8 H -0.1642 0.8403 0.6009
C11 C 0.2121(3) 1.2547(11) 0.8290(3)
H9 H 0.1683 1.2908 0.7895
F2 F -0.0356(2) 0.6091(10) 0.5751(2)
C12 C -0.2799(4) 0.7419(11) 0.5709(4)
H10 H -0.2976 0.8708 0.5409
F3 F -0.0533(3) 0.2551(8) 0.5926(3)
C13 C -0.3328(3) 0.5705(11) 0.5796(4)
H11 H -0.3867 0.5856 0.5569
C14 C -0.2263(3) 0.3587(10) 0.6575(3)
H12 H -0.2088 0.2273 0.6862
C15 C 0.0217(3) 0.7044(10) 0.7983(3)
C16 C 0.3436(3) 1.1476(12) 0.9443(3)
H13 H 0.3884 1.1105 0.9825
C17 C -0.3065(3) 0.3780(12) 0.6214(4)
H14 H -0.3421 0.2599 0.6259
C18 C -0.0328(3) 0.4527(13) 0.6309(4)
loop_
_geom_bond_atom_site_label_1
_geom_bond_atom_site_label_2
_geom_bond_site_symmetry_1
_geom_bond_site_symmetry_2
Cl1 C2 1_555 1_555
C1 H1 1_555 1_555
H2 C1 1_555 1_555
C2 C6 1_555 1_555
C3 C1 1_555 1_555
O1 C15 1_555 1_555
C4 H3 1_555 1_555
F1 C18 1_555 1_555
C5 C4 1_555 1_555
O2 C3 1_555 1_555
H4 O2 1_555 1_555
C6 H5 1_555 1_555
C7 C5 1_555 1_555
H6 C7 1_555 1_555
C8 C4 1_555 1_555
H7 C8 1_555 1_555
C9 C3 1_555 1_555
C10 C9 1_555 1_555
H8 C10 1_555 1_555
C11 C5 1_555 1_555
H9 C11 1_555 1_555
F2 C18 1_555 1_555
C12 C10 1_555 1_555
H10 C12 1_555 1_555
F3 C18 1_555 1_555
C13 C12 1_555 1_555
H11 C13 1_555 1_555
C14 C9 1_555 1_555
H12 C14 1_555 1_555
C15 C1 1_555 1_555
C16 C2 1_555 1_555
H13 C16 1_555 1_555
C17 C13 1_555 1_555
H14 C17 1_555 1_555
C18 C3 1_555 1_555
C6 C11 1_555 1_555
C7 C16 1_555 1_555
C8 C15 1_555 1_555
C14 C17 1_555 1_555

#END
