
#######################################################################
#
#                 Cambridge Crystallographic Data Centre
#                                CCDC 
#
#######################################################################
#
# If this CIF has been generated from an entry in the Cambridge 
# Structural Database, then it will include bibliographic, chemical, 
# crystal, experimental, refinement or atomic coordinate data resulting 
# from the CCDC's data processing and validation procedures.
#
#######################################################################

data_MOJHAV
_chemical_formula_moiety         'C78 H48,0.5(C1 H2 Cl2)'
_chemical_name_systematic        
'1,3,5-tris(9-(1-naphthyl)anthracen-10-yl)benzene dichloromethane solvate'
_symmetry_cell_setting           triclinic
_symmetry_space_group_name_H-M   'P -1'
_symmetry_Int_Tables_number      2
_space_group_name_Hall           '-P 1'
loop_
_symmetry_equiv_pos_site_id
_symmetry_equiv_pos_as_xyz
1 x,y,z
2 -x,-y,-z
_cell_length_a                   15.3491(10)
_cell_length_b                   15.7065(10)
_cell_length_c                   15.7888(10)
_cell_angle_alpha                66.0330(10)
_cell_angle_beta                 61.6080(10)
_cell_angle_gamma                62.4360(10)
_cell_volume                     2882.62
_exptl_crystal_colour            'pale yellow'
_exptl_crystal_description       block
_cell_formula_units_Z            2
_exptl_crystal_recrystallization_method dichloromethane/hexane
loop_
_atom_site_label
_atom_site_type_symbol
_atom_site_fract_x
_atom_site_fract_y
_atom_site_fract_z
C1 C 1.3580(7) 0.3524(9) 0.2214(6)
H1 H 1.4128 0.2926 0.2257
C2 C 1.3752(7) 0.4413(13) 0.2015(10)
H2 H 1.4391 0.4419 0.1933
C3 C 1.2915(5) 0.5252(8) 0.1954(6)
H3 H 1.3000 0.5846 0.1829
C4 C 1.1973(4) 0.5297(5) 0.2061(4)
H4 H 1.1441 0.5904 0.2004
C5 C 1.1795(4) 0.4429(5) 0.2256(4)
C6 C 1.2656(6) 0.3521(6) 0.2340(5)
C7 C 1.2507(8) 0.2625(11) 0.2533(8)
H5 H 1.3054 0.2030 0.2596
C8 C 1.1550(11) 0.2618(5) 0.2633(7)
H6 H 1.1466 0.2028 0.2740
C9 C 1.0723(5) 0.3523(3) 0.2566(5)
H7 H 1.0076 0.3528 0.2660
C10 C 1.0864(4) 0.4446(4) 0.2355(4)
C11 C 0.9954(3) 0.5402(3) 0.2310(3)
C12 C 0.9269(3) 0.5737(3) 0.3189(3)
C13 C 0.9359(3) 0.5184(3) 0.4123(3)
H8 H 0.9890 0.4574 0.4171
C14 C 0.8689(4) 0.5523(3) 0.4946(3)
H9 H 0.8776 0.5146 0.5550
C15 C 0.7869(3) 0.6426(3) 0.4917(3)
H10 H 0.7414 0.6647 0.5493
C16 C 0.7742(3) 0.6976(3) 0.4038(3)
H11 H 0.7202 0.7582 0.4019
C17 C 0.8410(2) 0.6655(2) 0.3144(2)
C18 C 0.8242(2) 0.7195(2) 0.2253(2)
C19 C 0.8894(2) 0.6843(2) 0.1386(2)
C20 C 0.8714(3) 0.7330(3) 0.0486(3)
H12 H 0.8148 0.7914 0.0454
C21 C 0.9348(3) 0.6970(3) -0.0339(3)
H13 H 0.9205 0.7304 -0.0922
C22 C 1.0222(3) 0.6092(3) -0.0316(3)
H14 H 1.0651 0.5850 -0.0884
C23 C 1.0435(3) 0.5605(3) 0.0524(3)
H15 H 1.1026 0.5040 0.0521
C24 C 0.9777(3) 0.5932(2) 0.1419(3)
C25 C 0.7341(2) 0.8154(2) 0.2221(2)
C26 C 0.6384(2) 0.8185(2) 0.2299(2)
H16 H 0.6298 0.7605 0.2381
C27 C 0.5554(2) 0.9076(2) 0.2257(2)
C28 C 0.5694(2) 0.9938(2) 0.2140(2)
H17 H 0.5146 1.0537 0.2106
C29 C 0.6644(2) 0.9921(2) 0.2072(2)
C30 C 0.7450(2) 0.9032(2) 0.2113(2)
H18 H 0.8084 0.9013 0.2068
C31 C 0.6756(2) 1.0854(2) 0.1986(3)
C32 C 0.6122(2) 1.1349(2) 0.2754(3)
C33 C 0.5380(3) 1.0988(3) 0.3646(3)
H19 H 0.5312 1.0399 0.3728
C34 C 0.4771(3) 1.1476(3) 0.4379(3)
H20 H 0.4296 1.1217 0.4953
C35 C 0.4851(3) 1.2364(3) 0.4281(4)
H21 H 0.4436 1.2690 0.4793
C36 C 0.5536(3) 1.2753(3) 0.3439(4)
H22 H 0.5567 1.3355 0.3373
C37 C 0.6203(3) 1.2258(3) 0.2659(3)
C38 C 0.6958(3) 1.2639(3) 0.1799(3)
C39 C 0.7627(3) 1.2118(2) 0.1059(3)
C40 C 0.8439(3) 1.2437(3) 0.0215(3)
H23 H 0.8525 1.3010 0.0156
C41 C 0.9081(3) 1.1937(3) -0.0494(3)
H24 H 0.9608 1.2161 -0.1031
C42 C 0.8965(3) 1.1076(3) -0.0433(3)
H25 H 0.9411 1.0735 -0.0932
C43 C 0.8209(3) 1.0739(3) 0.0345(3)
H26 H 0.8132 1.0178 0.0363
C44 C 0.7523(2) 1.1220(2) 0.1143(3)
C45 C 0.6974(4) 1.3647(4) 0.1638(5)
C46 C 0.6610(4) 1.4459(3) 0.0894(4)
H27 H 0.6387 1.4356 0.0501
C47 C 0.6591(7) 1.5432(5) 0.0757(9)
H28 H 0.6350 1.5947 0.0274
C48 C 0.6914(8) 1.5627(10) 0.1313(11)
H29 H 0.6915 1.6252 0.1217
C49 C 0.7254(6) 1.4785(6) 0.2062(8)
C50 C 0.7294(4) 1.3827(5) 0.2195(7)
C51 C 0.7692(4) 1.3039(5) 0.2930(4)
H30 H 0.7764 1.2383 0.3050
C52 C 0.7944(5) 1.3350(8) 0.3417(8)
H31 H 0.8232 1.2849 0.3879
C53 C 0.7861(8) 1.4251(11) 0.3368(10)
H32 H 0.8008 1.4382 0.3802
C54 C 0.7535(7) 1.4976(8) 0.2606(9)
H33 H 0.7516 1.5615 0.2481
C55 C 0.4536(2) 0.9110(3) 0.2337(3)
C56 C 0.3646(3) 0.9303(3) 0.3187(3)
C57 C 0.3666(3) 0.9451(4) 0.4010(3)
H34 H 0.4300 0.9410 0.3989
C58 C 0.2802(4) 0.9647(5) 0.4815(4)
H35 H 0.2851 0.9720 0.5345
C59 C 0.1826(4) 0.9743(7) 0.4861(5)
H36 H 0.1231 0.9879 0.5420
C60 C 0.1751(4) 0.9637(7) 0.4094(5)
H37 H 0.1095 0.9730 0.4122
C61 C 0.2640(3) 0.9391(5) 0.3254(4)
C62 C 0.2578(4) 0.9261(5) 0.2454(4)
C63 C 0.3491(3) 0.8921(4) 0.1676(3)
C64 C 0.3469(4) 0.8658(5) 0.0927(4)
H38 H 0.2833 0.8678 0.0972
C65 C 0.4338(4) 0.8383(5) 0.0157(4)
H39 H 0.4316 0.8158 -0.0291
C66 C 0.5284(4) 0.8436(4) 0.0032(3)
H40 H 0.5874 0.8292 -0.0529
C67 C 0.5347(3) 0.8692(3) 0.0714(3)
H41 H 0.5973 0.8745 0.0604
C68 C 0.4481(3) 0.8881(3) 0.1591(3)
C69 C 0.1464(4) 0.9579(4) 0.2441(4)
C70 C 0.0949(4) 1.0373(4) 0.2021(5)
H42 H 0.1311 1.0819 0.1623
C71 C -0.0066(4) 1.0722(3) 0.2031(4)
H43 H -0.0359 1.1368 0.1711
C72 C -0.0635(5) 1.0062(5) 0.2545(4)
H44 H -0.1318 1.0242 0.2582
C73 C -0.0037(3) 0.8999(4) 0.3053(3)
C74 C 0.0943(3) 0.8913(3) 0.2926(3)
C75 C 0.1477(6) 0.7872(6) 0.3495(6)
H45 H 0.2133 0.7704 0.3516
C76 C 0.0945(6) 0.7211(5) 0.3963(8)
H46 H 0.1242 0.6577 0.4302
C77 C 0.0031(8) 0.7473(7) 0.3929(9)
H47 H -0.0256 0.6974 0.4186
C78 C -0.0543(7) 0.8350(9) 0.3582(6)
H48 H -0.1246 0.8508 0.3694
C79 C 0.544(2) 0.433(2) 0.587(2)
H49 H 0.4766 0.4608 0.6349
H50 H 0.5361 0.4632 0.5232
Cl1 Cl 0.6223(6) 0.4810(6) 0.5834(9)
Cl2 Cl 0.5544(6) 0.3348(5) 0.6070(7)
loop_
_geom_bond_atom_site_label_1
_geom_bond_atom_site_label_2
_geom_bond_site_symmetry_1
_geom_bond_site_symmetry_2
C1 H1 1_555 1_555
C2 C1 1_555 1_555
H2 C2 1_555 1_555
C3 C2 1_555 1_555
H3 C3 1_555 1_555
C4 C3 1_555 1_555
H4 C4 1_555 1_555
C5 C4 1_555 1_555
C6 C1 1_555 1_555
C7 C6 1_555 1_555
H5 C7 1_555 1_555
C8 C7 1_555 1_555
H6 C8 1_555 1_555
C9 C8 1_555 1_555
H7 C9 1_555 1_555
C10 C5 1_555 1_555
C11 C10 1_555 1_555
C12 C11 1_555 1_555
C13 C12 1_555 1_555
H8 C13 1_555 1_555
C14 C13 1_555 1_555
H9 C14 1_555 1_555
C15 C14 1_555 1_555
H10 C15 1_555 1_555
C16 C15 1_555 1_555
H11 C16 1_555 1_555
C17 C12 1_555 1_555
C18 C17 1_555 1_555
C19 C18 1_555 1_555
C20 C19 1_555 1_555
H12 C20 1_555 1_555
C21 C20 1_555 1_555
H13 C21 1_555 1_555
C22 C21 1_555 1_555
H14 C22 1_555 1_555
C23 C22 1_555 1_555
H15 C23 1_555 1_555
C24 C11 1_555 1_555
C25 C18 1_555 1_555
C26 C25 1_555 1_555
H16 C26 1_555 1_555
C27 C26 1_555 1_555
C28 C27 1_555 1_555
H17 C28 1_555 1_555
C29 C28 1_555 1_555
C30 C25 1_555 1_555
H18 C30 1_555 1_555
C31 C29 1_555 1_555
C32 C31 1_555 1_555
C33 C32 1_555 1_555
H19 C33 1_555 1_555
C34 C33 1_555 1_555
H20 C34 1_555 1_555
C35 C34 1_555 1_555
H21 C35 1_555 1_555
C36 C35 1_555 1_555
H22 C36 1_555 1_555
C37 C32 1_555 1_555
C38 C37 1_555 1_555
C39 C38 1_555 1_555
C40 C39 1_555 1_555
H23 C40 1_555 1_555
C41 C40 1_555 1_555
H24 C41 1_555 1_555
C42 C41 1_555 1_555
H25 C42 1_555 1_555
C43 C42 1_555 1_555
H26 C43 1_555 1_555
C44 C31 1_555 1_555
C45 C38 1_555 1_555
C46 C45 1_555 1_555
H27 C46 1_555 1_555
C47 C46 1_555 1_555
H28 C47 1_555 1_555
C48 C47 1_555 1_555
H29 C48 1_555 1_555
C49 C48 1_555 1_555
C50 C45 1_555 1_555
C51 C50 1_555 1_555
H30 C51 1_555 1_555
C52 C51 1_555 1_555
H31 C52 1_555 1_555
C53 C52 1_555 1_555
H32 C53 1_555 1_555
C54 C49 1_555 1_555
H33 C54 1_555 1_555
C55 C27 1_555 1_555
C56 C55 1_555 1_555
C57 C56 1_555 1_555
H34 C57 1_555 1_555
C58 C57 1_555 1_555
H35 C58 1_555 1_555
C59 C58 1_555 1_555
H36 C59 1_555 1_555
C60 C59 1_555 1_555
H37 C60 1_555 1_555
C61 C56 1_555 1_555
C62 C61 1_555 1_555
C63 C62 1_555 1_555
C64 C63 1_555 1_555
H38 C64 1_555 1_555
C65 C64 1_555 1_555
H39 C65 1_555 1_555
C66 C65 1_555 1_555
H40 C66 1_555 1_555
C67 C66 1_555 1_555
H41 C67 1_555 1_555
C68 C55 1_555 1_555
C69 C62 1_555 1_555
C70 C69 1_555 1_555
H42 C70 1_555 1_555
C71 C70 1_555 1_555
H43 C71 1_555 1_555
C72 C71 1_555 1_555
H44 C72 1_555 1_555
C73 C72 1_555 1_555
C74 C69 1_555 1_555
C75 C74 1_555 1_555
H45 C75 1_555 1_555
C76 C75 1_555 1_555
H46 C76 1_555 1_555
C77 C76 1_555 1_555
H47 C77 1_555 1_555
C78 C73 1_555 1_555
H48 C78 1_555 1_555
C79 H49 1_555 1_555
H50 C79 1_555 1_555
Cl1 C79 1_555 1_555
Cl2 C79 1_555 1_555
C5 C6 1_555 1_555
C9 C10 1_555 1_555
C16 C17 1_555 1_555
C19 C24 1_555 1_555
C23 C24 1_555 1_555
C29 C30 1_555 1_555
C36 C37 1_555 1_555
C39 C44 1_555 1_555
C43 C44 1_555 1_555
C49 C50 1_555 1_555
C53 C54 1_555 1_555
C60 C61 1_555 1_555
C63 C68 1_555 1_555
C67 C68 1_555 1_555
C73 C74 1_555 1_555
C77 C78 1_555 1_555

#END
