
#######################################################################
#
#                 Cambridge Crystallographic Data Centre
#                                CCDC 
#
#######################################################################
#
# If this CIF has been generated from an entry in the Cambridge 
# Structural Database, then it will include bibliographic, chemical, 
# crystal, experimental, refinement or atomic coordinate data resulting 
# from the CCDC's data processing and validation procedures.
#
#######################################################################

data_MOJKIG
_chemical_formula_moiety         'C32 H29 N1 O2'
_chemical_name_systematic        
1-((S)-(2'-Benzoxy)phenyl((1'S)-1'-phenylethylamino))methyl-2-naphthol
_symmetry_cell_setting           monoclinic
_symmetry_space_group_name_H-M   'P 21'
_symmetry_Int_Tables_number      4
_space_group_name_Hall           'P 2yb'
loop_
_symmetry_equiv_pos_site_id
_symmetry_equiv_pos_as_xyz
1 x,y,z
2 -x,1/2+y,-z
_cell_length_a                   11.509(3)
_cell_length_b                   11.795(3)
_cell_length_c                   19.503(6)
_cell_angle_alpha                90
_cell_angle_beta                 106.381(5)
_cell_angle_gamma                90
_cell_volume                     2540.04
_exptl_crystal_colour            colorless
_chemical_melting_point          156-158deg.C
_cell_formula_units_Z            4
_exptl_crystal_recrystallization_method 'petroleum ether/ether'
loop_
_atom_site_label
_atom_site_type_symbol
_atom_site_fract_x
_atom_site_fract_y
_atom_site_fract_z
O1 O 0.4995(4) 0.5840(5) 0.0187(3)
O2 O 0.8386(5) 0.3277(4) -0.0073(3)
N1 N 0.6481(4) 0.4153(4) 0.0517(2)
C1 C 0.5894(7) 0.6464(6) 0.0641(4)
C2 C 0.5535(8) 0.7500(8) 0.0900(4)
H1 H 0.4729 0.7728 0.0754
C3 C 0.6358(9) 0.8136(7) 0.1349(4)
H2 H 0.6113 0.8811 0.1512
C4 C 0.7580(7) 0.7830(6) 0.1587(3)
C5 C 0.8405(9) 0.8492(7) 0.2104(4)
H3 H 0.8152 0.9154 0.2278
C6 C 0.9568(11) 0.8148(8) 0.2343(5)
H4 H 1.0114 0.8583 0.2685
C7 C 0.9975(8) 0.7161(7) 0.2093(4)
H5 H 1.0782 0.6944 0.2263
C8 C 0.9169(7) 0.6508(6) 0.1588(3)
H6 H 0.9445 0.5857 0.1415
C9 C 0.7951(6) 0.6801(5) 0.1332(3)
C10 C 0.7078(6) 0.6109(5) 0.0830(3)
C11 C 0.7441(5) 0.5013(5) 0.0543(3)
H7 H 0.8204 0.4747 0.0870
C12 C 0.7603(6) 0.5135(5) -0.0205(3)
C13 C 0.7317(5) 0.6111(6) -0.0617(3)
H8 H 0.7013 0.6736 -0.0433
C14 C 0.7470(7) 0.6172(7) -0.1282(4)
H9 H 0.7255 0.6832 -0.1548
C15 C 0.7934(7) 0.5281(8) -0.1565(4)
H10 H 0.8039 0.5329 -0.2019
C16 C 0.8239(7) 0.4329(8) -0.1173(4)
H11 H 0.8546 0.3716 -0.1366
C17 C 0.8106(6) 0.4240(6) -0.0487(4)
C18 C 0.9559(8) 0.2755(6) -0.0024(4)
H12 H 0.9580 0.2513 -0.0496
H13 H 0.9661 0.2089 0.0279
C19 C 1.0559(7) 0.3554(6) 0.0271(4)
C20 C 1.1302(7) 0.3941(7) -0.0128(4)
H14 H 1.1156 0.3672 -0.0592
C21 C 1.2205(8) 0.4666(9) 0.0105(5)
H15 H 1.2672 0.4895 -0.0189
C22 C 1.2438(8) 0.5073(9) 0.0789(7)
H16 H 1.3048 0.5606 0.0956
C23 C 1.1753(10) 0.4685(10) 0.1241(6)
C24 C 1.0821(8) 0.3932(8) 0.0971(5)
H17 H 1.0362 0.3674 0.1262
C25 C 0.6482(5) 0.3736(5) 0.1243(3)
H18 H 0.6434 0.4400 0.1536
C26 C 0.5354(6) 0.3040(6) 0.1167(3)
H19 H 0.4655 0.3486 0.0940
H20 H 0.5313 0.2807 0.1631
H21 H 0.5378 0.2382 0.0881
C27 C 0.7652(6) 0.3107(5) 0.1608(3)
C28 C 0.8486(7) 0.3582(6) 0.2187(3)
H22 H 0.8316 0.4276 0.2363
C29 C 0.9566(7) 0.3051(9) 0.2509(4)
H23 H 1.0129 0.3396 0.2889
C30 C 0.9804(8) 0.2032(8) 0.2272(4)
H24 H 1.0518 0.1656 0.2503
C31 C 0.8996(9) 0.1543(7) 0.1692(5)
H25 H 0.9180 0.0853 0.1517
C32 C 0.7916(7) 0.2069(6) 0.1367(4)
H26 H 0.7361 0.1722 0.0984
H54 H 1.197(7) 0.526(4) 0.161(3)
H55 H 0.516(6) 0.516(3) 0.003(3)
H56 H 0.661(4) 0.358(3) 0.024(2)
O3 O -0.0014(5) 0.8442(6) 0.5270(4)
O4 O 0.3387(4) 0.5880(4) 0.4943(2)
N2 N 0.1448(4) 0.6738(4) 0.5516(3)
C33 C 0.0920(7) 0.9046(7) 0.5716(4)
C34 C 0.0594(9) 1.0100(8) 0.5995(5)
H27 H -0.0207 1.0342 0.5873
C35 C 0.1466(12) 1.0716(7) 0.6431(5)
H28 H 0.1256 1.1401 0.6600
C36 C 0.2696(9) 1.0379(7) 0.6648(4)
C37 C 0.3575(11) 1.1032(7) 0.7148(4)
H29 H 0.3348 1.1694 0.7335
C38 C 0.4709(12) 1.0699(9) 0.7347(5)
H30 H 0.5288 1.1135 0.7668
C39 C 0.5048(8) 0.9704(8) 0.7083(4)
H31 H 0.5851 0.9470 0.7236
C40 C 0.4219(7) 0.9057(6) 0.6598(3)
H32 H 0.4472 0.8401 0.6418
C41 C 0.2998(7) 0.9372(6) 0.6371(3)
C42 C 0.2096(6) 0.8692(5) 0.5888(3)
C43 C 0.2431(5) 0.7592(5) 0.5572(3)
H33 H 0.3179 0.7296 0.5899
C44 C 0.2631(5) 0.7731(5) 0.4834(3)
C45 C 0.2331(5) 0.8728(6) 0.4441(3)
H34 H 0.2007 0.9333 0.4632
C46 C 0.2512(6) 0.8831(7) 0.3761(4)
H35 H 0.2308 0.9494 0.3496
C47 C 0.2995(7) 0.7933(9) 0.3503(4)
H36 H 0.3118 0.7993 0.3053
C48 C 0.3307(7) 0.6951(8) 0.3873(4)
H37 H 0.3637 0.6354 0.3679
C49 C 0.3125(6) 0.6852(6) 0.4546(4)
C50 C 0.4529(7) 0.5356(7) 0.4985(4)
H38 H 0.4544 0.5127 0.4510
H39 H 0.4614 0.4679 0.5278
C51 C 0.5569(7) 0.6123(7) 0.5294(4)
C52 C 0.6282(8) 0.6524(8) 0.4896(5)
H40 H 0.6119 0.6288 0.4423
C53 C 0.7219(8) 0.7252(10) 0.5155(6)
H41 H 0.7712 0.7487 0.4878
C54 C 0.7404(8) 0.7624(9) 0.5839(7)
H42 H 0.8007 0.8161 0.6011
C55 C 0.6768(10) 0.7262(11) 0.6284(6)
H43 H 0.6955 0.7506 0.6756
C56 C 0.5801(9) 0.6492(8) 0.5998(5)
H44 H 0.5325 0.6236 0.6281
C57 C 0.1435(5) 0.6249(5) 0.6218(3)
H45 H 0.1367 0.6880 0.6531
C58 C 0.0305(6) 0.5536(6) 0.6099(3)
H46 H -0.0391 0.5988 0.5873
H47 H 0.0238 0.5265 0.6550
H48 H 0.0351 0.4903 0.5798
C59 C 0.2581(6) 0.5602(6) 0.6584(3)
C60 C 0.3374(6) 0.6021(6) 0.7198(3)
H49 H 0.3190 0.6691 0.7396
C61 C 0.4436(7) 0.5461(7) 0.7523(4)
H50 H 0.4973 0.5770 0.7929
C62 C 0.4709(7) 0.4469(7) 0.7259(4)
H51 H 0.5416 0.4085 0.7491
C63 C 0.3937(8) 0.4028(7) 0.6646(4)
H52 H 0.4139 0.3363 0.6450
C64 C 0.2865(7) 0.4572(6) 0.6321(4)
H53 H 0.2325 0.4249 0.5923
H57 H 0.026(7) 0.774(3) 0.522(4)
H58 H 0.154(5) 0.617(3) 0.523(2)
loop_
_geom_bond_atom_site_label_1
_geom_bond_atom_site_label_2
_geom_bond_site_symmetry_1
_geom_bond_site_symmetry_2
O1 C1 1_555 1_555
O2 C17 1_555 1_555
O3 C33 1_555 1_555
O4 C49 1_555 1_555
N1 C11 1_555 1_555
N2 C43 1_555 1_555
C1 C2 1_555 1_555
C2 H1 1_555 1_555
C3 C2 1_555 1_555
H2 C3 1_555 1_555
C4 C3 1_555 1_555
C5 C4 1_555 1_555
H3 C5 1_555 1_555
C6 C5 1_555 1_555
H4 C6 1_555 1_555
C7 C6 1_555 1_555
H5 C7 1_555 1_555
C8 C7 1_555 1_555
H6 C8 1_555 1_555
C9 C4 1_555 1_555
C10 C1 1_555 1_555
C11 C10 1_555 1_555
H7 C11 1_555 1_555
C12 C11 1_555 1_555
C13 C12 1_555 1_555
H8 C13 1_555 1_555
C14 C13 1_555 1_555
H9 C14 1_555 1_555
C15 C14 1_555 1_555
H10 C15 1_555 1_555
C16 C15 1_555 1_555
H11 C16 1_555 1_555
C17 C12 1_555 1_555
C18 O2 1_555 1_555
H12 C18 1_555 1_555
H13 C18 1_555 1_555
C19 C18 1_555 1_555
C20 C19 1_555 1_555
H14 C20 1_555 1_555
C21 C20 1_555 1_555
H15 C21 1_555 1_555
C22 C21 1_555 1_555
H16 C22 1_555 1_555
C23 C22 1_555 1_555
C24 C19 1_555 1_555
H17 C24 1_555 1_555
C25 N1 1_555 1_555
H18 C25 1_555 1_555
C26 C25 1_555 1_555
H19 C26 1_555 1_555
H20 C26 1_555 1_555
H21 C26 1_555 1_555
C27 C25 1_555 1_555
C28 C27 1_555 1_555
H22 C28 1_555 1_555
C29 C28 1_555 1_555
H23 C29 1_555 1_555
C30 C29 1_555 1_555
H24 C30 1_555 1_555
C31 C30 1_555 1_555
H25 C31 1_555 1_555
C32 C27 1_555 1_555
H26 C32 1_555 1_555
C33 C34 1_555 1_555
C34 H27 1_555 1_555
C35 C34 1_555 1_555
H28 C35 1_555 1_555
C36 C35 1_555 1_555
C37 C36 1_555 1_555
H29 C37 1_555 1_555
C38 C37 1_555 1_555
H30 C38 1_555 1_555
C39 C38 1_555 1_555
H31 C39 1_555 1_555
C40 C39 1_555 1_555
H32 C40 1_555 1_555
C41 C36 1_555 1_555
C42 C33 1_555 1_555
C43 C42 1_555 1_555
H33 C43 1_555 1_555
C44 C43 1_555 1_555
C45 C44 1_555 1_555
H34 C45 1_555 1_555
C46 C45 1_555 1_555
H35 C46 1_555 1_555
C47 C46 1_555 1_555
H36 C47 1_555 1_555
C48 C47 1_555 1_555
H37 C48 1_555 1_555
C49 C44 1_555 1_555
C50 O4 1_555 1_555
H38 C50 1_555 1_555
H39 C50 1_555 1_555
C51 C50 1_555 1_555
C52 C51 1_555 1_555
H40 C52 1_555 1_555
C53 C52 1_555 1_555
H41 C53 1_555 1_555
C54 C53 1_555 1_555
H42 C54 1_555 1_555
C55 C54 1_555 1_555
H43 C55 1_555 1_555
C56 C51 1_555 1_555
H44 C56 1_555 1_555
C57 N2 1_555 1_555
H45 C57 1_555 1_555
C58 C57 1_555 1_555
H46 C58 1_555 1_555
H47 C58 1_555 1_555
H48 C58 1_555 1_555
C59 C57 1_555 1_555
C60 C59 1_555 1_555
H49 C60 1_555 1_555
C61 C60 1_555 1_555
H50 C61 1_555 1_555
C62 C61 1_555 1_555
H51 C62 1_555 1_555
C63 C62 1_555 1_555
H52 C63 1_555 1_555
C64 C59 1_555 1_555
H53 C64 1_555 1_555
H54 C23 1_555 1_555
H55 O1 1_555 1_555
H56 N1 1_555 1_555
H57 O3 1_555 1_555
H58 N2 1_555 1_555
C8 C9 1_555 1_555
C9 C10 1_555 1_555
C16 C17 1_555 1_555
C23 C24 1_555 1_555
C31 C32 1_555 1_555
C40 C41 1_555 1_555
C41 C42 1_555 1_555
C48 C49 1_555 1_555
C55 C56 1_555 1_555
C63 C64 1_555 1_555

#END
