
#######################################################################
#
#                 Cambridge Crystallographic Data Centre
#                                CCDC 
#
#######################################################################
#
# If this CIF has been generated from an entry in the Cambridge 
# Structural Database, then it will include bibliographic, chemical, 
# crystal, experimental, refinement or atomic coordinate data resulting 
# from the CCDC's data processing and validation procedures.
#
#######################################################################

data_MOJLAZ
_chemical_formula_moiety         'C30 H31 N1 O2'
_chemical_name_systematic        
1-((S)-2'-Cyclopentoxyphenyl((1'S)-1'-phenylethylamino)methyl)-2-naphthol
_symmetry_cell_setting           orthorhombic
_symmetry_space_group_name_H-M   'P 21 21 21'
_symmetry_Int_Tables_number      19
_space_group_name_Hall           'P 2ac 2ab'
loop_
_symmetry_equiv_pos_site_id
_symmetry_equiv_pos_as_xyz
1 x,y,z
2 1/2-x,-y,1/2+z
3 -x,1/2+y,1/2-z
4 1/2+x,1/2-y,-z
_cell_length_a                   14.933(4)
_cell_length_b                   15.898(4)
_cell_length_c                   31.185(8)
_cell_angle_alpha                90
_cell_angle_beta                 90
_cell_angle_gamma                90
_cell_volume                     7403.47
_exptl_crystal_colour            colorless
_chemical_melting_point          156-158deg.C
_cell_formula_units_Z            12
_exptl_crystal_recrystallization_method 'petroleum ether/ether'
loop_
_atom_site_label
_atom_site_type_symbol
_atom_site_fract_x
_atom_site_fract_y
_atom_site_fract_z
O1 O 0.0261(3) 0.3692(2) 0.24295(11)
O2 O 0.0841(2) 0.1701(2) 0.09688(10)
N1 N 0.1290(3) 0.3132(2) 0.18325(13)
C1 C -0.0374(3) 0.3799(3) 0.21255(16)
C2 C -0.1114(3) 0.4296(3) 0.22471(16)
H3 H -0.1133 0.4539 0.2518
C3 C -0.1798(3) 0.4419(3) 0.19669(18)
H4 H -0.2286 0.4742 0.2051
C4 C -0.1788(3) 0.4070(3) 0.15521(17)
C5 C -0.2507(3) 0.4198(3) 0.1259(2)
H5 H -0.2995 0.4525 0.1340
C6 C -0.2487(4) 0.3850(4) 0.08655(18)
H6 H -0.2957 0.3938 0.0675
C7 C -0.1755(4) 0.3353(3) 0.07434(17)
H7 H -0.1752 0.3105 0.0473
C8 C -0.1048(3) 0.3226(3) 0.10111(15)
H8 H -0.0566 0.2903 0.0920
C9 C -0.1040(3) 0.3580(3) 0.14251(15)
C10 C -0.0316(3) 0.3443(3) 0.17214(14)
C11 C 0.0465(3) 0.2894(3) 0.15865(14)
H9 H 0.0578 0.2987 0.1281
C12 C 0.0275(3) 0.1960(3) 0.16563(14)
C13 C -0.0064(3) 0.1678(3) 0.20340(14)
H10 H -0.0188 0.2061 0.2251
C14 C -0.0229(3) 0.0831(3) 0.21015(16)
H11 H -0.0454 0.0648 0.2363
C15 C -0.0060(3) 0.0268(3) 0.17815(16)
H12 H -0.0182 -0.0300 0.1823
C16 C 0.0289(3) 0.0539(3) 0.14000(15)
H13 H 0.0414 0.0151 0.1185
C17 C 0.0460(3) 0.1387(3) 0.13309(15)
C18 C 0.1022(4) 0.1156(3) 0.06122(17)
H14 H 0.1302 0.0632 0.0709
C19 C 0.1619(4) 0.1609(4) 0.02984(17)
H15 H 0.2043 0.1968 0.0447
H16 H 0.1945 0.1214 0.0120
C20 C 0.0988(6) 0.2112(4) 0.0039(2)
H17 H 0.0868 0.2647 0.0178
H18 H 0.1236 0.2220 -0.0243
C21 C 0.0196(5) 0.1636(7) 0.0007(3)
H19 H 0.0168 0.1358 -0.0270
H20 H -0.0324 0.1997 0.0036
C22 C 0.0214(4) 0.0983(4) 0.0368(2)
H21 H -0.0312 0.1038 0.0549
H22 H 0.0230 0.0417 0.0252
C23 C 0.1749(3) 0.3892(3) 0.16666(19)
H23 H 0.1320 0.4359 0.1675
C24 C 0.2503(3) 0.4091(3) 0.19842(18)
H24 H 0.2259 0.4138 0.2268
H25 H 0.2783 0.4612 0.1906
H26 H 0.2938 0.3647 0.1978
C25 C 0.2079(4) 0.3805(3) 0.1211(2)
C26 C 0.2790(4) 0.3308(4) 0.1099(2)
H27 H 0.3074 0.2996 0.1312
C27 C 0.3099(4) 0.3253(4) 0.0689(2)
H28 H 0.3582 0.2904 0.0628
C28 C 0.2705(4) 0.3707(4) 0.0365(2)
H29 H 0.2918 0.3675 0.0085
C29 C 0.1985(5) 0.4209(4) 0.0468(3)
H30 H 0.1698 0.4512 0.0254
C30 C 0.1682(4) 0.4270(4) 0.0888(2)
H31 H 0.1207 0.4627 0.0953
H91 H 0.1684(19) 0.2709(16) 0.1800(11)
H93 H 0.069(2) 0.338(3) 0.2302(14)
O3 O 0.9988(2) 0.8083(2) -0.08729(9)
H1 H 0.9554 0.7812 -0.0790
O4 O 0.9054(2) 0.66092(19) 0.07044(10)
N2 N 0.8748(3) 0.7726(2) -0.03285(12)
C31 C 1.0495(3) 0.8315(3) -0.05295(17)
C32 C 1.1264(4) 0.8781(3) -0.06306(18)
H32 H 1.1386 0.8921 -0.0914
C33 C 1.1832(3) 0.9026(3) -0.0314(2)
H33 H 1.2346 0.9325 -0.0386
C34 C 1.1665(4) 0.8840(3) 0.0118(2)
C35 C 1.2248(4) 0.9081(3) 0.0449(3)
H34 H 1.2771 0.9370 0.0381
C36 C 1.2071(4) 0.8906(4) 0.0864(2)
H35 H 1.2468 0.9073 0.1077
C37 C 1.1288(4) 0.8473(3) 0.09713(17)
H36 H 1.1162 0.8362 0.1258
C38 C 1.0700(3) 0.8207(3) 0.06587(16)
H37 H 1.0190 0.7909 0.0736
C39 C 1.0864(3) 0.8384(3) 0.02215(16)
C40 C 1.0287(3) 0.8111(3) -0.01110(15)
C41 C 0.9461(3) 0.7585(3) -0.00032(14)
H38 H 0.9234 0.7763 0.0277
C42 C 0.9640(3) 0.6647(3) 0.00117(15)
C43 C 0.9986(3) 0.6224(3) -0.03389(15)
H39 H 1.0140 0.6531 -0.0582
C44 C 1.0111(3) 0.5364(3) -0.03428(17)
H40 H 1.0357 0.5101 -0.0582
C45 C 0.9874(4) 0.4912(3) 0.00038(19)
H41 H 0.9938 0.4330 -0.0002
C46 C 0.9537(3) 0.5291(3) 0.03662(17)
H42 H 0.9395 0.4972 0.0607
C47 C 0.9412(3) 0.6160(3) 0.03666(15)
C48 C 0.8877(4) 0.6162(3) 0.11035(15)
H43 H 0.8551 0.5636 0.1054
C49 C 0.9748(4) 0.6013(4) 0.13462(17)
H44 H 1.0259 0.6077 0.1157
H45 H 0.9759 0.5453 0.1470
C50 C 0.9758(5) 0.6682(5) 0.1697(2)
H46 H 0.9680 0.6423 0.1976
H47 H 1.0324 0.6981 0.1695
C51 C 0.9004(5) 0.7278(4) 0.1607(2)
H48 H 0.8756 0.7496 0.1872
H49 H 0.9207 0.7746 0.1433
C52 C 0.8335(4) 0.6776(4) 0.13756(16)
H50 H 0.7966 0.7133 0.1196
H51 H 0.7952 0.6476 0.1575
C53 C 0.8274(3) 0.8549(3) -0.02870(17)
H52 H 0.8692 0.8987 -0.0381
C54 C 0.7486(3) 0.8538(3) -0.06101(16)
H53 H 0.7708 0.8406 -0.0891
H54 H 0.7204 0.9081 -0.0615
H55 H 0.7057 0.8121 -0.0524
C55 C 0.7995(3) 0.8762(3) 0.01567(18)
C56 C 0.8393(4) 0.9404(3) 0.0385(2)
H56 H 0.8827 0.9729 0.0251
C57 C 0.8176(5) 0.9584(4) 0.0802(2)
H57 H 0.8472 1.0017 0.0944
C58 C 0.7531(4) 0.9135(4) 0.1012(2)
H58 H 0.7370 0.9272 0.1291
C59 C 0.7124(3) 0.8478(4) 0.0803(2)
H59 H 0.6695 0.8153 0.0942
C60 C 0.7356(3) 0.8305(3) 0.03841(19)
H60 H 0.7072 0.7860 0.0246
H92 H 0.831(2) 0.735(2) -0.0294(13)
O5 O 0.5398(2) 0.1802(2) 0.09592(9)
H2 H 0.5799 0.2080 0.1070
O6 O 0.5765(2) 0.38009(18) 0.24277(10)
N3 N 0.6340(3) 0.2336(2) 0.15985(12)
C61 C 0.4724(4) 0.1690(3) 0.12467(15)
C62 C 0.3991(4) 0.1221(3) 0.10991(16)
H61 H 0.3998 0.1007 0.0822
C63 C 0.3275(4) 0.1073(3) 0.13515(18)
H62 H 0.2793 0.0770 0.1243
C64 C 0.3247(3) 0.1370(3) 0.17757(17)
C65 C 0.2512(3) 0.1216(3) 0.20479(19)
H63 H 0.2026 0.0909 0.1946
C66 C 0.2505(4) 0.1507(3) 0.2453(2)
H64 H 0.2022 0.1388 0.2631
C67 C 0.3212(4) 0.1984(3) 0.26073(17)
H65 H 0.3196 0.2189 0.2886
C68 C 0.3937(3) 0.2155(3) 0.23503(15)
H66 H 0.4405 0.2476 0.2459
C69 C 0.3990(3) 0.1852(3) 0.19224(15)
C70 C 0.4736(3) 0.2030(2) 0.16499(14)
C71 C 0.5495(3) 0.2584(2) 0.18129(13)
H67 H 0.5560 0.2503 0.2123
C72 C 0.5312(3) 0.3511(3) 0.17220(15)
C73 C 0.5041(3) 0.3793(3) 0.13255(15)
H68 H 0.4937 0.3404 0.1109
C74 C 0.4920(3) 0.4636(4) 0.12408(17)
H69 H 0.4738 0.4812 0.0970
C75 C 0.5068(3) 0.5211(3) 0.15584(18)
H70 H 0.4992 0.5781 0.1502
C76 C 0.5328(3) 0.4956(3) 0.19564(16)
H71 H 0.5418 0.5353 0.2171
C77 C 0.5459(3) 0.4107(3) 0.20448(16)
C78 C 0.5826(3) 0.4354(3) 0.27878(16)
H72 H 0.6130 0.4877 0.2708
C79 C 0.6338(4) 0.3900(4) 0.31330(17)
H73 H 0.6707 0.3460 0.3009
H74 H 0.6723 0.4288 0.3286
C80 C 0.5696(6) 0.3550(6) 0.3413(2)
H75 H 0.5857 0.3685 0.3706
H76 H 0.5701 0.2943 0.3383
C81 C 0.4801(5) 0.3861(5) 0.3326(2)
H77 H 0.4536 0.4101 0.3582
H78 H 0.4417 0.3413 0.3222
C82 C 0.4930(4) 0.4536(3) 0.29809(18)
H79 H 0.4462 0.4501 0.2766
H80 H 0.4920 0.5094 0.3107
C83 C 0.6777(3) 0.1593(3) 0.17936(16)
H81 H 0.6339 0.1134 0.1793
C84 C 0.7546(3) 0.1332(3) 0.15024(15)
H82 H 0.7327 0.1261 0.1215
H83 H 0.7795 0.0812 0.1603
H84 H 0.8000 0.1760 0.1506
C85 C 0.7075(3) 0.1721(3) 0.22498(17)
C86 C 0.7765(3) 0.2268(3) 0.23481(16)
H85 H 0.8033 0.2570 0.2128
C87 C 0.8067(3) 0.2378(3) 0.27586(19)
H86 H 0.8536 0.2748 0.2813
C88 C 0.7679(4) 0.1947(4) 0.30861(17)
H87 H 0.7884 0.2014 0.3366
C89 C 0.6971(4) 0.1405(3) 0.2998(2)
H88 H 0.6687 0.1119 0.3219
C90 C 0.6692(4) 0.1295(3) 0.2581(2)
H89 H 0.6229 0.0919 0.2524
H90 H 0.6738(18) 0.2748(16) 0.1607(11)
loop_
_geom_bond_atom_site_label_1
_geom_bond_atom_site_label_2
_geom_bond_site_symmetry_1
_geom_bond_site_symmetry_2
O1 C1 1_555 1_555
O2 C17 1_555 1_555
O3 H1 1_555 1_555
O4 C47 1_555 1_555
O5 H2 1_555 1_555
O6 C77 1_555 1_555
N1 C11 1_555 1_555
N2 C41 1_555 1_555
N3 C71 1_555 1_555
C1 C2 1_555 1_555
C2 H3 1_555 1_555
C3 C2 1_555 1_555
H4 C3 1_555 1_555
C4 C3 1_555 1_555
C5 C4 1_555 1_555
H5 C5 1_555 1_555
C6 C5 1_555 1_555
H6 C6 1_555 1_555
C7 C6 1_555 1_555
H7 C7 1_555 1_555
C8 C7 1_555 1_555
H8 C8 1_555 1_555
C9 C4 1_555 1_555
C10 C1 1_555 1_555
C11 C10 1_555 1_555
H9 C11 1_555 1_555
C12 C11 1_555 1_555
C13 C12 1_555 1_555
H10 C13 1_555 1_555
C14 C13 1_555 1_555
H11 C14 1_555 1_555
C15 C14 1_555 1_555
H12 C15 1_555 1_555
C16 C15 1_555 1_555
H13 C16 1_555 1_555
C17 C12 1_555 1_555
C18 O2 1_555 1_555
H14 C18 1_555 1_555
C19 C18 1_555 1_555
H15 C19 1_555 1_555
H16 C19 1_555 1_555
C20 C19 1_555 1_555
H17 C20 1_555 1_555
H18 C20 1_555 1_555
C21 C20 1_555 1_555
H19 C21 1_555 1_555
H20 C21 1_555 1_555
C22 C18 1_555 1_555
H21 C22 1_555 1_555
H22 C22 1_555 1_555
C23 N1 1_555 1_555
H23 C23 1_555 1_555
C24 C23 1_555 1_555
H24 C24 1_555 1_555
H25 C24 1_555 1_555
H26 C24 1_555 1_555
C25 C23 1_555 1_555
C26 C25 1_555 1_555
H27 C26 1_555 1_555
C27 C26 1_555 1_555
H28 C27 1_555 1_555
C28 C27 1_555 1_555
H29 C28 1_555 1_555
C29 C28 1_555 1_555
H30 C29 1_555 1_555
C30 C25 1_555 1_555
H31 C30 1_555 1_555
C31 O3 1_555 1_555
C32 C31 1_555 1_555
H32 C32 1_555 1_555
C33 C32 1_555 1_555
H33 C33 1_555 1_555
C34 C33 1_555 1_555
C35 C34 1_555 1_555
H34 C35 1_555 1_555
C36 C35 1_555 1_555
H35 C36 1_555 1_555
C37 C36 1_555 1_555
H36 C37 1_555 1_555
C38 C37 1_555 1_555
H37 C38 1_555 1_555
C39 C34 1_555 1_555
C40 C31 1_555 1_555
C41 C40 1_555 1_555
H38 C41 1_555 1_555
C42 C41 1_555 1_555
C43 C42 1_555 1_555
H39 C43 1_555 1_555
C44 C43 1_555 1_555
H40 C44 1_555 1_555
C45 C44 1_555 1_555
H41 C45 1_555 1_555
C46 C45 1_555 1_555
H42 C46 1_555 1_555
C47 C42 1_555 1_555
C48 O4 1_555 1_555
H43 C48 1_555 1_555
C49 C48 1_555 1_555
H44 C49 1_555 1_555
H45 C49 1_555 1_555
C50 C49 1_555 1_555
H46 C50 1_555 1_555
H47 C50 1_555 1_555
C51 C50 1_555 1_555
H48 C51 1_555 1_555
H49 C51 1_555 1_555
C52 C48 1_555 1_555
H50 C52 1_555 1_555
H51 C52 1_555 1_555
C53 N2 1_555 1_555
H52 C53 1_555 1_555
C54 C53 1_555 1_555
H53 C54 1_555 1_555
H54 C54 1_555 1_555
H55 C54 1_555 1_555
C55 C53 1_555 1_555
C56 C55 1_555 1_555
H56 C56 1_555 1_555
C57 C56 1_555 1_555
H57 C57 1_555 1_555
C58 C57 1_555 1_555
H58 C58 1_555 1_555
C59 C58 1_555 1_555
H59 C59 1_555 1_555
C60 C55 1_555 1_555
H60 C60 1_555 1_555
C61 O5 1_555 1_555
C62 C61 1_555 1_555
H61 C62 1_555 1_555
C63 C62 1_555 1_555
H62 C63 1_555 1_555
C64 C63 1_555 1_555
C65 C64 1_555 1_555
H63 C65 1_555 1_555
C66 C65 1_555 1_555
H64 C66 1_555 1_555
C67 C66 1_555 1_555
H65 C67 1_555 1_555
C68 C67 1_555 1_555
H66 C68 1_555 1_555
C69 C64 1_555 1_555
C70 C61 1_555 1_555
C71 C70 1_555 1_555
H67 C71 1_555 1_555
C72 C71 1_555 1_555
C73 C72 1_555 1_555
H68 C73 1_555 1_555
C74 C73 1_555 1_555
H69 C74 1_555 1_555
C75 C74 1_555 1_555
H70 C75 1_555 1_555
C76 C75 1_555 1_555
H71 C76 1_555 1_555
C77 C72 1_555 1_555
C78 O6 1_555 1_555
H72 C78 1_555 1_555
C79 C78 1_555 1_555
H73 C79 1_555 1_555
H74 C79 1_555 1_555
C80 C79 1_555 1_555
H75 C80 1_555 1_555
H76 C80 1_555 1_555
C81 C80 1_555 1_555
H77 C81 1_555 1_555
H78 C81 1_555 1_555
C82 C78 1_555 1_555
H79 C82 1_555 1_555
H80 C82 1_555 1_555
C83 N3 1_555 1_555
H81 C83 1_555 1_555
C84 C83 1_555 1_555
H82 C84 1_555 1_555
H83 C84 1_555 1_555
H84 C84 1_555 1_555
C85 C83 1_555 1_555
C86 C85 1_555 1_555
H85 C86 1_555 1_555
C87 C86 1_555 1_555
H86 C87 1_555 1_555
C88 C87 1_555 1_555
H87 C88 1_555 1_555
C89 C88 1_555 1_555
H88 C89 1_555 1_555
C90 C85 1_555 1_555
H89 C90 1_555 1_555
H90 N3 1_555 1_555
H91 N1 1_555 1_555
H92 N2 1_555 1_555
H93 O1 1_555 1_555
C8 C9 1_555 1_555
C9 C10 1_555 1_555
C16 C17 1_555 1_555
C21 C22 1_555 1_555
C29 C30 1_555 1_555
C38 C39 1_555 1_555
C39 C40 1_555 1_555
C46 C47 1_555 1_555
C51 C52 1_555 1_555
C59 C60 1_555 1_555
C68 C69 1_555 1_555
C69 C70 1_555 1_555
C76 C77 1_555 1_555
C81 C82 1_555 1_555
C89 C90 1_555 1_555

#END
