
#######################################################################
#
#                 Cambridge Crystallographic Data Centre
#                                CCDC 
#
#######################################################################
#
# If this CIF has been generated from an entry in the Cambridge 
# Structural Database, then it will include bibliographic, chemical, 
# crystal, experimental, refinement or atomic coordinate data resulting 
# from the CCDC's data processing and validation procedures.
#
#######################################################################

data_MOJPOR
_chemical_formula_moiety         'C27 H27 N1 O5 S1'
_chemical_name_systematic        
rac-4-Acetyl-1-benzyl-3-methyl-6-((4-methylphenyl)sulfonyl)-6,7,7a,8-tetrahydropyrano[4',3':1,5]cyclopenta[1,2-c]pyrrol-9(5H)-one
_symmetry_cell_setting           monoclinic
_symmetry_space_group_name_H-M   'P 21/c'
_symmetry_Int_Tables_number      14
_space_group_name_Hall           '-P 2ybc'
loop_
_symmetry_equiv_pos_site_id
_symmetry_equiv_pos_as_xyz
1 x,y,z
2 -x,1/2+y,1/2-z
3 -x,-y,-z
4 x,1/2-y,1/2+z
_cell_length_a                   11.7673(11)
_cell_length_b                   11.8246(11)
_cell_length_c                   17.7386(16)
_cell_angle_alpha                90
_cell_angle_beta                 100.036(2)
_cell_angle_gamma                90
_cell_volume                     2430.45
_exptl_crystal_colour            colorless
_exptl_crystal_description       prism
_cell_formula_units_Z            4
loop_
_atom_site_label
_atom_site_type_symbol
_atom_site_fract_x
_atom_site_fract_y
_atom_site_fract_z
S1 S 0.31749(6) 0.77482(5) 0.01665(3)
O1 O 0.45571(18) 0.99071(16) 0.30105(11)
O2 O 0.50115(13) 0.62910(14) 0.34666(9)
O3 O 0.13701(18) 0.57294(18) 0.19896(13)
O4 O 0.43755(16) 0.77691(16) 0.01483(10)
O5 O 0.24421(19) 0.86156(14) -0.02080(10)
N1 N 0.30475(15) 0.77899(15) 0.10610(9)
C1 C 0.32790(17) 0.72164(17) 0.23621(11)
C2 C 0.36186(19) 0.69061(19) 0.15783(11)
H1 H 0.4449 0.6927 0.1607
H2 H 0.3337 0.6160 0.1411
C3 C 0.19100(19) 0.7980(2) 0.12792(12)
H3 H 0.1391 0.7350 0.1129
H4 H 0.1557 0.8673 0.1058
C4 C 0.22400(19) 0.80659(19) 0.21422(12)
H5 H 0.1591 0.7859 0.2394
C5 C 0.2705(2) 0.9238(2) 0.23951(15)
H6 H 0.2658 0.9731 0.1954
H7 H 0.2247 0.9567 0.2744
C6 C 0.3924(2) 0.9125(2) 0.27811(13)
C7 C 0.41922(19) 0.79052(19) 0.28506(12)
C8 C 0.50137(19) 0.7438(2) 0.33473(13)
C9 C 0.39797(19) 0.57178(19) 0.32820(12)
C10 C 0.30854(18) 0.61496(17) 0.28014(11)
C11 C 0.1966(2) 0.55742(19) 0.26047(15)
C12 C 0.1496(3) 0.4828(3) 0.31560(18)
H8 H 0.0668 0.4860 0.3055
H9 H 0.1775 0.5080 0.3669
H10 H 0.1744 0.4064 0.3099
C13 C 0.4116(2) 0.4607(2) 0.36845(15)
H11 H 0.3892 0.4680 0.4178
H12 H 0.4907 0.4371 0.3748
H13 H 0.3635 0.4054 0.3387
C14 C 0.5975(2) 0.7991(3) 0.38849(16)
H14 H 0.5782 0.7990 0.4395
H15 H 0.6032 0.8773 0.3731
C15 C 0.7133(2) 0.7440(2) 0.39198(13)
C16 C 0.7877(3) 0.7801(3) 0.34756(19)
H16 H 0.7670 0.8390 0.3132
C17 C 0.8961(3) 0.7293(5) 0.3528(2)
H17 H 0.9477 0.7529 0.3218
C18 C 0.9246(3) 0.6429(4) 0.4054(3)
H18 H 0.9962 0.6077 0.4100
C19 C 0.8503(4) 0.6101(3) 0.4495(2)
H19 H 0.8707 0.5533 0.4856
C20 C 0.7461(3) 0.6584(3) 0.44201(17)
H20 H 0.6944 0.6324 0.4722
C21 C 0.26477(19) 0.64384(18) -0.02085(11)
C22 C 0.1475(2) 0.6266(2) -0.04232(15)
H21 H 0.0957 0.6840 -0.0366
C23 C 0.1081(2) 0.5236(3) -0.07220(16)
H22 H 0.0290 0.5122 -0.0862
C24 C 0.1820(2) 0.4377(2) -0.08180(13)
C25 C 0.2984(2) 0.4563(2) -0.05929(13)
H23 H 0.3501 0.3987 -0.0648
C26 C 0.3399(2) 0.5580(2) -0.02881(13)
H24 H 0.4189 0.5686 -0.0136
C27 C 0.1383(3) 0.3269(3) -0.1170(2)
H25 H 0.1046 0.2839 -0.0806
H26 H 0.2013 0.2851 -0.1312
H27 H 0.0811 0.3408 -0.1617
loop_
_geom_bond_atom_site_label_1
_geom_bond_atom_site_label_2
_geom_bond_site_symmetry_1
_geom_bond_site_symmetry_2
S1 O4 1_555 1_555
O1 C6 1_555 1_555
O2 C8 1_555 1_555
O3 C11 1_555 1_555
O5 S1 1_555 1_555
N1 S1 1_555 1_555
C1 C2 1_555 1_555
C2 N1 1_555 1_555
H1 C2 1_555 1_555
H2 C2 1_555 1_555
C3 N1 1_555 1_555
H3 C3 1_555 1_555
H4 C3 1_555 1_555
C4 C1 1_555 1_555
H5 C4 1_555 1_555
C5 C4 1_555 1_555
H6 C5 1_555 1_555
H7 C5 1_555 1_555
C6 C5 1_555 1_555
C7 C1 1_555 1_555
C8 C7 1_555 1_555
C9 O2 1_555 1_555
C10 C1 1_555 1_555
C11 C10 1_555 1_555
C12 C11 1_555 1_555
H8 C12 1_555 1_555
H9 C12 1_555 1_555
H10 C12 1_555 1_555
C13 C9 1_555 1_555
H11 C13 1_555 1_555
H12 C13 1_555 1_555
H13 C13 1_555 1_555
C14 C8 1_555 1_555
H14 C14 1_555 1_555
H15 C14 1_555 1_555
C15 C14 1_555 1_555
C16 C15 1_555 1_555
H16 C16 1_555 1_555
C17 C16 1_555 1_555
H17 C17 1_555 1_555
C18 C17 1_555 1_555
H18 C18 1_555 1_555
C19 C18 1_555 1_555
H19 C19 1_555 1_555
C20 C15 1_555 1_555
H20 C20 1_555 1_555
C21 S1 1_555 1_555
C22 C21 1_555 1_555
H21 C22 1_555 1_555
C23 C22 1_555 1_555
H22 C23 1_555 1_555
C24 C23 1_555 1_555
C25 C24 1_555 1_555
H23 C25 1_555 1_555
C26 C21 1_555 1_555
H24 C26 1_555 1_555
C27 C24 1_555 1_555
H25 C27 1_555 1_555
H26 C27 1_555 1_555
H27 C27 1_555 1_555
C3 C4 1_555 1_555
C6 C7 1_555 1_555
C9 C10 1_555 1_555
C19 C20 1_555 1_555
C25 C26 1_555 1_555

#END
