
#######################################################################
#
#                 Cambridge Crystallographic Data Centre
#                                CCDC 
#
#######################################################################
#
# If this CIF has been generated from an entry in the Cambridge 
# Structural Database, then it will include bibliographic, chemical, 
# crystal, experimental, refinement or atomic coordinate data resulting 
# from the CCDC's data processing and validation procedures.
#
#######################################################################

data_MOJSUB
_chemical_formula_moiety         'C58 H68 N6 Na2 O2'
_chemical_name_systematic        
(\m-2,2'-(dihydropyrimidine-1,3(2H,4H)-diylbis(methylene))bis(4,6-di-t-butylphenolato))-bis(1,10-phenanthroline)-di-sodium
_symmetry_cell_setting           triclinic
_symmetry_space_group_name_H-M   'P -1'
_symmetry_Int_Tables_number      2
_space_group_name_Hall           '-P 1'
loop_
_symmetry_equiv_pos_site_id
_symmetry_equiv_pos_as_xyz
1 x,y,z
2 -x,-y,-z
_cell_length_a                   15.382(6)
_cell_length_b                   20.714(8)
_cell_length_c                   23.715(9)
_cell_angle_alpha                69.891(5)
_cell_angle_beta                 79.869(6)
_cell_angle_gamma                83.652(6)
_cell_volume                     6974.62
_cell_formula_units_Z            4
_chemical_properties_physical    Moisture-sensitive
loop_
_atom_site_label
_atom_site_type_symbol
_atom_site_fract_x
_atom_site_fract_y
_atom_site_fract_z
Na1 Na 0.21669(18) 0.13911(13) 0.82995(13)
Na2 Na 0.27705(18) 0.22992(14) 0.68836(13)
O1 O 0.3526(3) 0.1602(2) 0.7567(2)
O2 O 0.1451(3) 0.2073(2) 0.7441(2)
N1 N 0.2459(4) 0.0190(3) 0.9071(3)
N2 N 0.0763(4) 0.0752(3) 0.8999(3)
N3 N 0.2929(4) 0.2519(4) 0.5790(3)
N4 N 0.3243(4) 0.3478(3) 0.6283(3)
N5 N 0.1764(4) 0.2521(3) 0.8471(3)
N6 N 0.3218(4) 0.2072(3) 0.8649(3)
C1 C -0.0867(6) 0.1147(5) 0.7160(5)
H1 H -0.1153 0.0925 0.7566
H2 H -0.0752 0.0822 0.6946
H3 H -0.1246 0.1523 0.6954
C2 C 0.3012(6) 0.1970(4) 0.9297(4)
H4 H 0.3180 0.2366 0.9375
H5 H 0.3346 0.1567 0.9521
C3 C 0.3689(7) 0.4822(5) 0.5517(6)
H6 H 0.3818 0.5268 0.5268
C4 C 0.3490(7) 0.4524(6) 0.4612(5)
H7 H 0.3620 0.4967 0.4355
C5 C 0.1763(4) -0.0248(4) 0.9225(3)
C6 C 0.3304(7) 0.4062(7) 0.4399(5)
H8 H 0.3302 0.4187 0.3983
C7 C 0.4592(8) -0.0365(6) 0.7272(7)
H9 H 0.5223 -0.0348 0.7169
H10 H 0.4357 -0.0479 0.6971
H11 H 0.4446 -0.0710 0.7661
C8 C 0.4394(6) 0.0878(6) 0.6652(5)
H12 H 0.4141 0.1324 0.6649
H13 H 0.4148 0.0739 0.6370
H14 H 0.5023 0.0898 0.6537
C9 C 0.0624(5) 0.2236(3) 0.7613(3)
C10 C 0.0885(4) 0.0051(4) 0.9194(3)
C11 C 0.0199(5) -0.0379(4) 0.9355(3)
C12 C 0.6217(11) -0.0761(7) 0.9044(10)
H15 H 0.6104 -0.0930 0.8736
H16 H 0.5717 -0.0833 0.9360
H17 H 0.6732 -0.1002 0.9211
C13 C 0.7211(8) 0.0222(10) 0.8345(8)
H18 H 0.7227 0.0104 0.7986
H19 H 0.7713 0.0002 0.8541
H20 H 0.7230 0.0712 0.8236
C14 C 0.6544(12) 0.0233(10) 0.9287(9)
H21 H 0.6060 0.0125 0.9614
H22 H 0.6603 0.0722 0.9131
H23 H 0.7080 0.0008 0.9433
C15 C -0.2230(9) 0.2472(9) 0.8999(6)
H24 H -0.2159 0.1981 0.9092
H25 H -0.2812 0.2592 0.9169
H26 H -0.1797 0.2620 0.9168
C16 C -0.2795(7) 0.2675(9) 0.7960(8)
H27 H -0.2767 0.2192 0.8019
H28 H -0.2664 0.2929 0.7535
H29 H -0.3378 0.2815 0.8115
C17 C -0.0112(5) 0.1948(4) 0.7531(3)
C18 C -0.2172(9) 0.3633(7) 0.8175(8)
H30 H -0.1734 0.3754 0.8358
H31 H -0.2750 0.3767 0.8341
H32 H -0.2074 0.3867 0.7744
C19 C 0.4174(5) 0.1212(4) 0.7849(4)
C20 C 0.0446(5) 0.2710(3) 0.7951(3)
C21 C 0.0009(5) 0.1421(4) 0.7184(4)
C22 C 0.1916(5) -0.0964(4) 0.9426(4)
C23 C -0.0408(5) 0.2912(4) 0.8144(4)
H33 H -0.0496 0.3241 0.8337
C24 C 0.4527(5) 0.1412(4) 0.8283(4)
C25 C -0.0974(5) 0.2158(4) 0.7742(3)
H34 H -0.1453 0.1976 0.7670
C26 C -0.0067(5) 0.1028(4) 0.8993(4)
H35 H -0.0152 0.1504 0.8884
C27 C 0.4520(5) 0.0594(4) 0.7748(4)
C28 C 0.3278(5) 0.3674(4) 0.5640(4)
C29 C -0.0698(5) -0.0067(5) 0.9331(4)
H36 H -0.1180 -0.0341 0.9443
C30 C 0.1197(6) -0.1394(4) 0.9596(4)
H37 H 0.1298 -0.1869 0.9733
C31 C 0.1224(5) 0.3022(4) 0.8040(4)
H38 H 0.1593 0.3208 0.7651
H39 H 0.1013 0.3401 0.8189
C32 C 0.5199(5) 0.1034(4) 0.8561(4)
H40 H 0.5427 0.1189 0.8827
C33 C 0.3101(5) 0.3166(5) 0.5414(4)
C34 C -0.0819(5) 0.0634(5) 0.9143(4)
H41 H -0.1383 0.0847 0.9114
C35 C 0.5578(5) 0.0412(5) 0.8473(4)
C36 C 0.3266(5) -0.0078(5) 0.9128(4)
H42 H 0.3726 0.0214 0.9039
C37 C 0.2681(5) 0.2673(4) 0.8312(4)
H43 H 0.2774 0.3071 0.8410
H44 H 0.2860 0.2769 0.7884
C38 C 0.2021(6) 0.1876(4) 0.9511(4)
H45 H 0.1879 0.1868 0.9928
H46 H 0.1876 0.1438 0.9498
C39 C 0.0382(6) -0.1122(4) 0.9561(4)
H47 H -0.0085 -0.1411 0.9670
C40 C 0.2740(6) 0.2049(5) 0.5561(5)
H48 H 0.2639 0.1603 0.5822
C41 C 0.3690(7) 0.4634(5) 0.6130(6)
H49 H 0.3837 0.4942 0.6301
C42 C -0.1135(6) 0.2638(4) 0.8059(4)
C43 C 0.3459(6) 0.3953(5) 0.6498(4)
H50 H 0.3458 0.3829 0.6914
C44 C 0.2800(6) -0.1231(5) 0.9466(4)
H51 H 0.2922 -0.1705 0.9592
C45 C 0.4174(5) 0.2081(4) 0.8395(4)
H52 H 0.4507 0.2160 0.8675
H53 H 0.4264 0.2461 0.8015
C46 C 0.6366(6) -0.0017(6) 0.8775(5)
C47 C 0.3094(5) 0.3351(6) 0.4782(4)
C48 C 0.3490(6) 0.4334(5) 0.5254(5)
C49 C 0.0606(6) 0.0771(4) 0.7517(4)
H54 H 0.0323 0.0558 0.7925
H55 H 0.1174 0.0916 0.7525
H56 H 0.0680 0.0447 0.7302
C50 C 0.5217(5) 0.0225(4) 0.8056(4)
H57 H 0.5455 -0.0172 0.7976
C51 C 0.1466(5) 0.2451(4) 0.9118(4)
H58 H 0.0847 0.2347 0.9227
H59 H 0.1530 0.2880 0.9182
C52 C 0.3460(6) -0.0809(5) 0.9323(4)
H60 H 0.4040 -0.0986 0.9349
C53 C 0.4183(5) 0.0352(5) 0.7296(5)
C54 C -0.2101(6) 0.2824(5) 0.8307(5)
C55 C 0.0474(6) 0.1770(4) 0.6521(4)
H61 H 0.0120 0.2167 0.6321
H62 H 0.0543 0.1448 0.6303
H63 H 0.1045 0.1908 0.6531
C56 C 0.2878(6) 0.2836(7) 0.4554(5)
H64 H 0.2872 0.2941 0.4141
C57 C 0.3162(6) 0.0259(5) 0.7465(5)
H65 H 0.2862 0.0686 0.7479
H66 H 0.3041 -0.0089 0.7855
H67 H 0.2957 0.0124 0.7165
C58 C 0.2689(6) 0.2211(7) 0.4935(6)
H68 H 0.2524 0.1882 0.4793
Na3 Na 0.91222(19) 0.34987(14) 0.28073(13)
Na4 Na 0.88893(19) 0.40111(14) 0.39961(13)
O3 O 0.7964(3) 0.3909(3) 0.3413(2)
O4 O 1.0022(3) 0.3474(3) 0.3596(2)
N7 N 0.8885(4) 0.5160(3) 0.4163(3)
N8 N 0.8614(4) 0.3911(4) 0.5068(3)
N9 N 0.8084(5) 0.3141(4) 0.2189(3)
N10 N 0.9735(5) 0.2530(3) 0.2362(3)
N11 N 0.8925(4) 0.4787(3) 0.2238(3)
N12 N 1.0384(4) 0.4345(3) 0.2317(3)
C59 C 0.8582(6) 0.3776(7) 0.6286(5)
H69 H 0.8582 0.3735 0.6689
C60 C 0.8455(7) 0.3217(6) 0.6149(5)
H70 H 0.8350 0.2793 0.6449
C61 C 1.0201(7) 0.2273(5) 0.4824(4)
H71 H 1.0756 0.2262 0.4961
H72 H 0.9802 0.1986 0.5149
H73 H 0.9952 0.2737 0.4702
C62 C 0.9430(6) 0.2029(5) 0.4047(5)
H74 H 0.9514 0.1870 0.3705
H75 H 0.9185 0.2495 0.3932
H76 H 0.9032 0.1741 0.4371
C63 C 0.6462(8) 0.3294(6) 0.4473(5)
H77 H 0.6039 0.3649 0.4537
H78 H 0.7049 0.3439 0.4427
H79 H 0.6376 0.2880 0.4815
C64 C 0.5392(6) 0.2872(5) 0.3997(6)
H80 H 0.4951 0.3206 0.4081
H81 H 0.5354 0.2452 0.4336
H82 H 0.5295 0.2786 0.3641
C65 C 0.6991(6) 0.2579(4) 0.3748(5)
H83 H 0.7585 0.2722 0.3670
H84 H 0.6858 0.2498 0.3398
H85 H 0.6932 0.2163 0.4091
C66 C 0.6623(7) 0.3114(6) 0.1947(5)
H86 H 0.6076 0.3339 0.1874
C67 C 0.7864(8) 0.1490(5) 0.1940(5)
H87 H 0.7449 0.1267 0.1843
C68 C 0.8690(9) 0.1190(5) 0.2013(5)
H88 H 0.8827 0.0760 0.1969
C69 C 1.0211(8) 0.1224(5) 0.2232(5)
H89 H 1.0364 0.0789 0.2201
C70 C 1.0812(8) 0.1582(6) 0.2353(6)
H90 H 1.1390 0.1401 0.2381
C71 C 1.0558(7) 0.2237(5) 0.2436(5)
H91 H 1.0962 0.2461 0.2542
C72 C 0.8855(5) 0.5120(4) 0.4752(4)
C73 C 0.4898(13) 0.4823(11) 0.1723(9)
H92 H 0.4822 0.4337 0.1892
H93 H 0.5432 0.4908 0.1436
H94 H 0.4402 0.5048 0.1521
C74 C 0.4162(9) 0.5079(12) 0.2688(9)
H95 H 0.4261 0.5274 0.2983
H96 H 0.4018 0.4607 0.2887
H97 H 0.3681 0.5333 0.2484
C75 C 0.6431(5) 0.3833(4) 0.3346(4)
C76 C 0.5036(8) 0.5829(6) 0.1855(8)
H98 H 0.5130 0.6104 0.2089
H99 H 0.4501 0.5993 0.1681
H100 H 0.5526 0.5859 0.1536
C77 C 0.8715(5) 0.4461(4) 0.5228(4)
C78 C 1.3746(8) 0.1703(8) 0.3490(6)
H101 H 1.3349 0.1349 0.3727
H102 H 1.3835 0.1974 0.3730
H103 H 1.4303 0.1496 0.3366
C79 C 1.0779(5) 0.3160(4) 0.3452(4)
C80 C 0.7304(5) 0.4795(4) 0.2655(4)
C81 C 1.4052(8) 0.2721(7) 0.2574(9)
H104 H 1.4598 0.2489 0.2465
H105 H 1.4142 0.2963 0.2837
H106 H 1.3855 0.3042 0.2213
C82 C 1.3205(8) 0.1776(8) 0.2514(7)
H107 H 1.2772 0.1442 0.2729
H108 H 1.3755 0.1545 0.2412
H109 H 1.3004 0.2083 0.2149
C83 C 1.0992(5) 0.2448(4) 0.3752(4)
C84 C 1.0679(7) 0.1244(5) 0.4528(5)
H110 H 1.1237 0.1220 0.4664
H111 H 1.0747 0.1035 0.4218
H112 H 1.0255 0.1005 0.4864
C85 C 1.2471(5) 0.2542(5) 0.3096(4)
C86 C 0.9731(5) 0.4881(4) 0.2416(4)
H113 H 0.9637 0.4843 0.2837
H114 H 0.9936 0.5329 0.2179
C87 C 0.7274(5) 0.4161(4) 0.3158(4)
C88 C 1.1398(5) 0.3537(4) 0.2964(4)
C89 C 0.8966(5) 0.5719(5) 0.4896(4)
C90 C 0.9133(6) 0.2184(4) 0.2231(3)
C91 C 1.1833(6) 0.2170(4) 0.3568(4)
H115 H 1.1975 0.1709 0.3771
C92 C 0.8711(5) 0.4414(5) 0.5836(4)
C93 C 1.2220(5) 0.3236(4) 0.2806(4)
H116 H 1.2619 0.3505 0.2496
C94 C 0.5758(5) 0.4769(4) 0.2541(4)
C95 C 0.8278(5) 0.2484(4) 0.2142(4)
C96 C 0.6587(6) 0.5078(4) 0.2373(4)
H117 H 0.6642 0.5494 0.2055
C97 C 0.7640(6) 0.2144(4) 0.2014(4)
C98 C 0.5732(5) 0.4148(4) 0.3034(4)
H118 H 0.5200 0.3929 0.3161
C99 C 1.1178(6) 0.4275(4) 0.2645(4)
H119 H 1.1682 0.4479 0.2354
H120 H 1.1041 0.4519 0.2937
C100 C 0.9079(5) 0.6387(4) 0.3837(4)
H121 H 0.9149 0.6801 0.3518
C101 C 0.8153(5) 0.5151(4) 0.2491(4)
H122 H 0.8290 0.5216 0.2851
H123 H 0.8066 0.5604 0.2196
C102 C 0.9036(6) 0.4939(5) 0.1574(4)
H124 H 0.9162 0.5419 0.1366
H125 H 0.8495 0.4856 0.1459
C103 C 0.6333(6) 0.3156(5) 0.3887(5)
C104 C 0.9797(6) 0.4478(5) 0.1390(4)
H126 H 0.9613 0.4009 0.1529
H127 H 0.9933 0.4628 0.0951
C105 C 0.7279(6) 0.3437(5) 0.2088(4)
H128 H 0.7146 0.3877 0.2113
C106 C 0.8991(5) 0.5772(5) 0.3743(4)
H129 H 0.9009 0.5794 0.3343
C107 C 0.8950(5) 0.5619(6) 0.5556(5)
H130 H 0.9014 0.5995 0.5671
C108 C 1.0354(5) 0.2000(4) 0.4269(4)
C109 C 1.3337(5) 0.2180(5) 0.2909(5)
C110 C 0.8491(6) 0.3309(5) 0.5529(6)
H131 H 0.8425 0.2923 0.5428
C111 C 0.9366(7) 0.1527(4) 0.2157(4)
C112 C 0.8849(6) 0.5014(6) 0.5971(4)
H132 H 0.8868 0.4971 0.6373
C113 C 0.4959(6) 0.5114(6) 0.2246(5)
C114 C 1.0616(6) 0.4492(5) 0.1651(5)
H133 H 1.1057 0.4150 0.1570
H134 H 1.0863 0.4941 0.1463
C115 C 0.9056(5) 0.6346(4) 0.4432(5)
H135 H 0.9101 0.6743 0.4522
C116 C 0.6811(6) 0.2466(6) 0.1921(5)
H136 H 0.6384 0.2239 0.1841
loop_
_geom_bond_atom_site_label_1
_geom_bond_atom_site_label_2
_geom_bond_site_symmetry_1
_geom_bond_site_symmetry_2
Na1 O1 1_555 1_555
Na2 O1 1_555 1_555
O1 C19 1_555 1_555
O2 Na1 1_555 1_555
N1 Na1 1_555 1_555
N2 Na1 1_555 1_555
N3 Na2 1_555 1_555
N4 Na2 1_555 1_555
N5 Na1 1_555 1_555
N6 Na1 1_555 1_555
C1 H1 1_555 1_555
H2 C1 1_555 1_555
H3 C1 1_555 1_555
C2 N6 1_555 1_555
H4 C2 1_555 1_555
H5 C2 1_555 1_555
C3 H6 1_555 1_555
C4 H7 1_555 1_555
C5 N1 1_555 1_555
C6 C4 1_555 1_555
H8 C6 1_555 1_555
C7 H9 1_555 1_555
H10 C7 1_555 1_555
H11 C7 1_555 1_555
C8 H12 1_555 1_555
H13 C8 1_555 1_555
H14 C8 1_555 1_555
C9 O2 1_555 1_555
C10 N2 1_555 1_555
C11 C10 1_555 1_555
C12 H15 1_555 1_555
H16 C12 1_555 1_555
H17 C12 1_555 1_555
C13 H18 1_555 1_555
H19 C13 1_555 1_555
H20 C13 1_555 1_555
C14 H21 1_555 1_555
H22 C14 1_555 1_555
H23 C14 1_555 1_555
C15 H24 1_555 1_555
H25 C15 1_555 1_555
H26 C15 1_555 1_555
C16 H27 1_555 1_555
H28 C16 1_555 1_555
H29 C16 1_555 1_555
C17 C9 1_555 1_555
C18 H30 1_555 1_555
H31 C18 1_555 1_555
H32 C18 1_555 1_555
C19 C24 1_555 1_555
C20 C9 1_555 1_555
C21 C1 1_555 1_555
C22 C5 1_555 1_555
C23 C20 1_555 1_555
H33 C23 1_555 1_555
C24 C32 1_555 1_555
C25 C17 1_555 1_555
H34 C25 1_555 1_555
C26 N2 1_555 1_555
H35 C26 1_555 1_555
C27 C19 1_555 1_555
C28 N4 1_555 1_555
C29 C11 1_555 1_555
H36 C29 1_555 1_555
C30 C22 1_555 1_555
H37 C30 1_555 1_555
C31 N5 1_555 1_555
H38 C31 1_555 1_555
H39 C31 1_555 1_555
C32 H40 1_555 1_555
C33 N3 1_555 1_555
C34 C26 1_555 1_555
H41 C34 1_555 1_555
C35 C32 1_555 1_555
C36 N1 1_555 1_555
H42 C36 1_555 1_555
C37 N5 1_555 1_555
H43 C37 1_555 1_555
H44 C37 1_555 1_555
C38 C2 1_555 1_555
H45 C38 1_555 1_555
H46 C38 1_555 1_555
C39 C11 1_555 1_555
H47 C39 1_555 1_555
C40 N3 1_555 1_555
H48 C40 1_555 1_555
C41 C3 1_555 1_555
H49 C41 1_555 1_555
C42 C23 1_555 1_555
C43 N4 1_555 1_555
H50 C43 1_555 1_555
C44 C22 1_555 1_555
H51 C44 1_555 1_555
C45 N6 1_555 1_555
H52 C45 1_555 1_555
H53 C45 1_555 1_555
C46 C12 1_555 1_555
C47 C6 1_555 1_555
C48 C3 1_555 1_555
C49 C21 1_555 1_555
H54 C49 1_555 1_555
H55 C49 1_555 1_555
H56 C49 1_555 1_555
C50 C27 1_555 1_555
H57 C50 1_555 1_555
C51 N5 1_555 1_555
H58 C51 1_555 1_555
H59 C51 1_555 1_555
C52 C36 1_555 1_555
H60 C52 1_555 1_555
C53 C7 1_555 1_555
C54 C15 1_555 1_555
C55 C21 1_555 1_555
H61 C55 1_555 1_555
H62 C55 1_555 1_555
H63 C55 1_555 1_555
C56 C47 1_555 1_555
H64 C56 1_555 1_555
C57 C53 1_555 1_555
H65 C57 1_555 1_555
H66 C57 1_555 1_555
H67 C57 1_555 1_555
C58 C40 1_555 1_555
H68 C58 1_555 1_555
Na3 O3 1_555 1_555
Na4 O3 1_555 1_555
O3 C87 1_555 1_555
O4 Na3 1_555 1_555
N7 Na4 1_555 1_555
N8 Na4 1_555 1_555
N9 Na3 1_555 1_555
N10 Na3 1_555 1_555
N11 Na3 1_555 1_555
N12 Na3 1_555 1_555
C59 H69 1_555 1_555
C60 C59 1_555 1_555
H70 C60 1_555 1_555
C61 H71 1_555 1_555
H72 C61 1_555 1_555
H73 C61 1_555 1_555
C62 H74 1_555 1_555
H75 C62 1_555 1_555
H76 C62 1_555 1_555
C63 H77 1_555 1_555
H78 C63 1_555 1_555
H79 C63 1_555 1_555
C64 H80 1_555 1_555
H81 C64 1_555 1_555
H82 C64 1_555 1_555
C65 H83 1_555 1_555
H84 C65 1_555 1_555
H85 C65 1_555 1_555
C66 H86 1_555 1_555
C67 H87 1_555 1_555
C68 C67 1_555 1_555
H88 C68 1_555 1_555
C69 H89 1_555 1_555
C70 C69 1_555 1_555
H90 C70 1_555 1_555
C71 N10 1_555 1_555
H91 C71 1_555 1_555
C72 N7 1_555 1_555
C73 H92 1_555 1_555
H93 C73 1_555 1_555
H94 C73 1_555 1_555
C74 H95 1_555 1_555
H96 C74 1_555 1_555
H97 C74 1_555 1_555
C75 C87 1_555 1_555
C76 H98 1_555 1_555
H99 C76 1_555 1_555
H100 C76 1_555 1_555
C77 N8 1_555 1_555
C78 H101 1_555 1_555
H102 C78 1_555 1_555
H103 C78 1_555 1_555
C79 O4 1_555 1_555
C80 C87 1_555 1_555
C81 H104 1_555 1_555
H105 C81 1_555 1_555
H106 C81 1_555 1_555
C82 H107 1_555 1_555
H108 C82 1_555 1_555
H109 C82 1_555 1_555
C83 C79 1_555 1_555
C84 H110 1_555 1_555
H111 C84 1_555 1_555
H112 C84 1_555 1_555
C85 C91 1_555 1_555
C86 N11 1_555 1_555
H113 C86 1_555 1_555
H114 C86 1_555 1_555
C88 C79 1_555 1_555
C89 C72 1_555 1_555
C90 N10 1_555 1_555
C91 C83 1_555 1_555
H115 C91 1_555 1_555
C92 C59 1_555 1_555
C93 C85 1_555 1_555
H116 C93 1_555 1_555
C94 C96 1_555 1_555
C95 N9 1_555 1_555
C96 C80 1_555 1_555
H117 C96 1_555 1_555
C97 C67 1_555 1_555
C98 C75 1_555 1_555
H118 C98 1_555 1_555
C99 N12 1_555 1_555
H119 C99 1_555 1_555
H120 C99 1_555 1_555
C100 H121 1_555 1_555
C101 N11 1_555 1_555
H122 C101 1_555 1_555
H123 C101 1_555 1_555
C102 N11 1_555 1_555
H124 C102 1_555 1_555
H125 C102 1_555 1_555
C103 C63 1_555 1_555
C104 C102 1_555 1_555
H126 C104 1_555 1_555
H127 C104 1_555 1_555
C105 N9 1_555 1_555
H128 C105 1_555 1_555
C106 N7 1_555 1_555
H129 C106 1_555 1_555
C107 C89 1_555 1_555
H130 C107 1_555 1_555
C108 C61 1_555 1_555
C109 C78 1_555 1_555
C110 N8 1_555 1_555
H131 C110 1_555 1_555
C111 C68 1_555 1_555
C112 C92 1_555 1_555
H132 C112 1_555 1_555
C113 C73 1_555 1_555
C114 N12 1_555 1_555
H133 C114 1_555 1_555
H134 C114 1_555 1_555
C115 C89 1_555 1_555
H135 C115 1_555 1_555
C116 C66 1_555 1_555
H136 C116 1_555 1_555
Na2 O2 1_555 1_555
N6 C37 1_555 1_555
C4 C48 1_555 1_555
C5 C10 1_555 1_555
C8 C53 1_555 1_555
C13 C46 1_555 1_555
C14 C46 1_555 1_555
C16 C54 1_555 1_555
C17 C21 1_555 1_555
C18 C54 1_555 1_555
C20 C31 1_555 1_555
C24 C45 1_555 1_555
C25 C42 1_555 1_555
C27 C53 1_555 1_555
C28 C33 1_555 1_555
C28 C48 1_555 1_555
C29 C34 1_555 1_555
C30 C39 1_555 1_555
C33 C47 1_555 1_555
C35 C46 1_555 1_555
C35 C50 1_555 1_555
C38 C51 1_555 1_555
C41 C43 1_555 1_555
C42 C54 1_555 1_555
C44 C52 1_555 1_555
C56 C58 1_555 1_555
Na4 O4 1_555 1_555
N12 C86 1_555 1_555
C60 C110 1_555 1_555
C62 C108 1_555 1_555
C64 C103 1_555 1_555
C65 C103 1_555 1_555
C66 C105 1_555 1_555
C69 C111 1_555 1_555
C70 C71 1_555 1_555
C72 C77 1_555 1_555
C74 C113 1_555 1_555
C75 C103 1_555 1_555
C76 C113 1_555 1_555
C77 C92 1_555 1_555
C80 C101 1_555 1_555
C81 C109 1_555 1_555
C82 C109 1_555 1_555
C83 C108 1_555 1_555
C84 C108 1_555 1_555
C85 C109 1_555 1_555
C88 C93 1_555 1_555
C88 C99 1_555 1_555
C90 C95 1_555 1_555
C90 C111 1_555 1_555
C94 C98 1_555 1_555
C94 C113 1_555 1_555
C95 C97 1_555 1_555
C97 C116 1_555 1_555
C100 C106 1_555 1_555
C100 C115 1_555 1_555
C104 C114 1_555 1_555
C107 C112 1_555 1_555

#END
