
#######################################################################
#
#                 Cambridge Crystallographic Data Centre
#                                CCDC 
#
#######################################################################
#
# If this CIF has been generated from an entry in the Cambridge 
# Structural Database, then it will include bibliographic, chemical, 
# crystal, experimental, refinement or atomic coordinate data resulting 
# from the CCDC's data processing and validation procedures.
#
#######################################################################

data_MOKBAR02
_chemical_formula_moiety         'C26 H16 N4 O4'
_chemical_name_systematic        
2,7-bis(pyridin-4-ylmethyl)benzo[lmn][3,8]phenanthroline-1,3,6,8(2H,7H)-tetrone
_symmetry_cell_setting           triclinic
_symmetry_space_group_name_H-M   'P -1'
_symmetry_Int_Tables_number      2
_space_group_name_Hall           '-P 1'
loop_
_symmetry_equiv_pos_site_id
_symmetry_equiv_pos_as_xyz
1 x,y,z
2 -x,-y,-z
_cell_length_a                   5.588(3)
_cell_length_b                   7.545(4)
_cell_length_c                   11.984(6)
_cell_angle_alpha                77.113(11)
_cell_angle_beta                 88.392(13)
_cell_angle_gamma                87.412(12)
_cell_volume                     491.95
_exptl_crystal_colour            orange
_exptl_crystal_description       block
_cell_formula_units_Z            1
loop_
_atom_site_label
_atom_site_type_symbol
_atom_site_fract_x
_atom_site_fract_y
_atom_site_fract_z
C1 C 0.4786(3) 0.9432(2) 0.96175(11)
C2 C 0.2825(3) 0.9862(2) 0.88685(12)
C3 C 0.6319(3) 0.7893(2) 0.96211(12)
C4 C 0.5897(3) 0.6698(3) 0.88203(13)
C5 C 0.8216(3) 0.7503(3) 1.03621(13)
H1 H 0.9223 0.6488 1.0359
C6 C 0.2329(3) 0.8647(3) 0.80935(12)
C7 C 0.1368(3) 1.1378(3) 0.88830(13)
H2 H 0.0090 1.1661 0.8385
C8 C 0.3400(3) 0.5969(3) 0.73270(14)
H3 H 0.1703 0.5738 0.7375
H4 H 0.4269 0.4811 0.7573
C9 C 0.4081(3) 0.6785(3) 0.60947(13)
C10 C 0.6216(3) 0.7655(3) 0.57813(14)
H5 H 0.7279 0.7794 0.6336
C11 C 0.2595(3) 0.6639(3) 0.52181(15)
H6 H 0.1143 0.6072 0.5382
C12 C 0.6736(4) 0.8310(3) 0.46359(16)
H7 H 0.8170 0.8893 0.4444
C13 C 0.3289(4) 0.7343(3) 0.40959(16)
H8 H 0.2258 0.7231 0.3522
O1 O 0.0602(2) 0.88923(19) 0.74719(9)
O2 O 0.7183(2) 0.5365(2) 0.87774(11)
N1 N 0.3918(2) 0.7155(2) 0.81097(10)
N2 N 0.5320(3) 0.8165(3) 0.37839(13)
C1A C 0.5214(3) 1.0568(2) 1.03825(11)
C2A C 0.7175(3) 1.0138(2) 1.11315(12)
C3A C 0.3681(3) 1.2107(2) 1.03789(12)
C4A C 0.4103(3) 1.3302(3) 1.11797(13)
C5A C 0.1784(3) 1.2497(3) 0.96379(13)
H1A H 0.0777 1.3512 0.9641
C6A C 0.7671(3) 1.1353(3) 1.19065(12)
C7A C 0.8632(3) 0.8622(3) 1.11170(13)
H2A H 0.9910 0.8339 1.1615
C8A C 0.6600(3) 1.4031(3) 1.26730(14)
H3A H 0.8297 1.4262 1.2625
H4A H 0.5731 1.5189 1.2427
C9A C 0.5919(3) 1.3215(3) 1.39053(13)
C10A C 0.3784(3) 1.2345(3) 1.42187(14)
H5A H 0.2721 1.2206 1.3664
C11A C 0.7405(3) 1.3361(3) 1.47819(15)
H6A H 0.8857 1.3928 1.4618
C12A C 0.3264(4) 1.1690(3) 1.53641(16)
H7A H 0.1830 1.1107 1.5556
C13A C 0.6711(4) 1.2657(3) 1.59041(16)
H8A H 0.7742 1.2769 1.6478
O1A O 0.9398(2) 1.11077(19) 1.25281(9)
O2A O 0.2817(2) 1.4635(2) 1.12226(11)
N1A N 0.6082(2) 1.2845(2) 1.18903(10)
N2A N 0.4680(3) 1.1835(3) 1.62161(13)
loop_
_geom_bond_atom_site_label_1
_geom_bond_atom_site_label_2
_geom_bond_site_symmetry_1
_geom_bond_site_symmetry_2
C1 C2 1_555 1_555
C2 C6 1_555 1_555
C3 C1 1_555 1_555
C4 C3 1_555 1_555
C5 C3 1_555 1_555
H1 C5 1_555 1_555
C6 O1 1_555 1_555
C7 C2 1_555 1_555
H2 C7 1_555 1_555
C8 H3 1_555 1_555
H4 C8 1_555 1_555
C9 C8 1_555 1_555
C10 C9 1_555 1_555
H5 C10 1_555 1_555
C11 C9 1_555 1_555
H6 C11 1_555 1_555
C12 C10 1_555 1_555
H7 C12 1_555 1_555
C13 C11 1_555 1_555
H8 C13 1_555 1_555
O2 C4 1_555 1_555
N1 C4 1_555 1_555
N2 C12 1_555 1_555
C1A C1 1_555 1_555
C2A C1A 1_555 1_555
C3A C1A 1_555 1_555
C4A C3A 1_555 1_555
C5A C7 1_555 1_555
H1A C5A 1_555 1_555
C6A C2A 1_555 1_555
C7A C5 1_555 1_555
H2A C7A 1_555 1_555
C8A H3A 1_555 1_555
H4A C8A 1_555 1_555
C9A C8A 1_555 1_555
C10A C9A 1_555 1_555
H5A C10A 1_555 1_555
C11A C9A 1_555 1_555
H6A C11A 1_555 1_555
C12A C10A 1_555 1_555
H7A C12A 1_555 1_555
C13A C11A 1_555 1_555
H8A C13A 1_555 1_555
O1A C6A 1_555 1_555
O2A C4A 1_555 1_555
N1A C4A 1_555 1_555
N2A C12A 1_555 1_555
C6 N1 1_555 1_555
C8 N1 1_555 1_555
C13 N2 1_555 1_555
C2A C7A 1_555 1_555
C3A C5A 1_555 1_555
C6A N1A 1_555 1_555
C8A N1A 1_555 1_555
C13A N2A 1_555 1_555

#END
