
#######################################################################
#
#                 Cambridge Crystallographic Data Centre
#                                CCDC 
#
#######################################################################
#
# If this CIF has been generated from an entry in the Cambridge 
# Structural Database, then it will include bibliographic, chemical, 
# crystal, experimental, refinement or atomic coordinate data resulting 
# from the CCDC's data processing and validation procedures.
#
#######################################################################

data_MOKBAR01
_chemical_formula_moiety         'C26 H16 N4 O4'
_chemical_name_systematic        
2,7-bis(pyridin-4-ylmethyl)benzo[lmn][3,8]phenanthroline-1,3,6,8(2H,7H)-tetrone
_symmetry_cell_setting           monoclinic
_symmetry_space_group_name_H-M   'C 2/c'
_symmetry_Int_Tables_number      15
_space_group_name_Hall           '-C 2yn'
loop_
_symmetry_equiv_pos_site_id
_symmetry_equiv_pos_as_xyz
1 x,y,z
2 -x,y,1/2-z
3 1/2+x,1/2+y,z
4 1/2-x,1/2+y,1/2-z
5 -x,-y,-z
6 x,-y,1/2+z
7 1/2-x,1/2-y,-z
8 1/2+x,1/2-y,1/2+z
_cell_length_a                   22.760(8)
_cell_length_b                   4.6927(12)
_cell_length_c                   21.335(8)
_cell_angle_alpha                90
_cell_angle_beta                 115.96(5)
_cell_angle_gamma                90
_cell_volume                     2048.78
_exptl_crystal_colour            orange
_exptl_crystal_description       block
_cell_formula_units_Z            4
loop_
_atom_site_label
_atom_site_type_symbol
_atom_site_fract_x
_atom_site_fract_y
_atom_site_fract_z
O1 O 0.8144(2) -0.0339(8) -0.0048(2)
N1 N 0.8934(2) 0.2668(8) 0.0658(2)
O2 O 0.9725(2) 0.5652(9) 0.1362(2)
C1 C 1.0016(2) 0.2587(10) 0.0669(2)
C2 C 0.9787(2) 0.0523(9) 0.0135(2)
C3 C 0.9138(2) -0.0473(10) -0.0141(2)
C4 C 0.9567(3) 0.3774(12) 0.0930(3)
C5 C 0.8693(3) 0.0552(11) 0.0143(3)
C6 C 0.8463(3) 0.1997(11) 0.1504(3)
C7 C 0.8483(3) 0.3763(11) 0.0930(3)
H1 H 0.8047 0.3857 0.0550
H2 H 0.8613 0.5687 0.1101
C8 C 1.1075(3) 0.2444(10) 0.0673(3)
H3 H 1.1504 0.3088 0.0859
C9 C 1.0652(3) 0.3489(11) 0.0938(3)
H4 H 1.0804 0.4808 0.1300
N2 N 0.8406(4) -0.1064(14) 0.2600(3)
C10 C 0.8990(3) 0.0555(14) 0.1978(3)
H5 H 0.9384 0.0574 0.1942
C11 C 0.8940(4) -0.0922(16) 0.2505(3)
H6 H 0.9308 -0.1893 0.2818
C12 C 0.7915(3) 0.1940(14) 0.1604(4)
H7 H 0.7546 0.2934 0.1302
C13 C 0.7900(4) 0.0427(18) 0.2148(5)
H8 H 0.7517 0.0447 0.2204
O1D O 1.1856(2) 0.0339(8) 0.0048(2)
N1D N 1.1066(2) -0.2668(8) -0.0658(2)
O2D O 1.0275(2) -0.5652(9) -0.1362(2)
C1D C 0.9984(2) -0.2587(10) -0.0669(2)
C2D C 1.0213(2) -0.0523(9) -0.0135(2)
C3D C 1.0862(2) 0.0473(10) 0.0141(2)
C4D C 1.0433(3) -0.3774(12) -0.0930(3)
C5D C 1.1307(3) -0.0552(11) -0.0143(3)
C6D C 1.1537(3) -0.1997(11) -0.1504(3)
C7D C 1.1517(3) -0.3763(11) -0.0930(3)
H1D H 1.1953 -0.3857 -0.0550
H2D H 1.1387 -0.5687 -0.1101
C8D C 0.8925(3) -0.2444(10) -0.0673(3)
H3D H 0.8496 -0.3088 -0.0859
C9D C 0.9348(3) -0.3489(11) -0.0938(3)
H4D H 0.9196 -0.4808 -0.1300
N2D N 1.1594(4) 0.1064(14) -0.2600(3)
C10D C 1.1010(3) -0.0555(14) -0.1978(3)
H5D H 1.0616 -0.0574 -0.1942
C11D C 1.1060(4) 0.0922(16) -0.2505(3)
H6D H 1.0692 0.1893 -0.2818
C12D C 1.2085(3) -0.1940(14) -0.1604(4)
H7D H 1.2454 -0.2934 -0.1302
C13D C 1.2100(4) -0.0427(18) -0.2148(5)
H8D H 1.2483 -0.0447 -0.2204
loop_
_geom_bond_atom_site_label_1
_geom_bond_atom_site_label_2
_geom_bond_site_symmetry_1
_geom_bond_site_symmetry_2
O1 C5 1_555 1_555
N1 C4 1_555 1_555
O2 C4 1_555 1_555
C1 C2 1_555 1_555
C2 C3 1_555 1_555
C3 C5 1_555 1_555
C4 C1 1_555 1_555
C5 N1 1_555 1_555
C6 C7 1_555 1_555
C7 N1 1_555 1_555
H1 C7 1_555 1_555
H2 C7 1_555 1_555
C8 H3 1_555 1_555
C9 C1 1_555 1_555
H4 C9 1_555 1_555
N2 C11 1_555 1_555
C10 C6 1_555 1_555
H5 C10 1_555 1_555
C11 C10 1_555 1_555
H6 C11 1_555 1_555
C12 C6 1_555 1_555
H7 C12 1_555 1_555
C13 N2 1_555 1_555
H8 C13 1_555 1_555
O1D C5D 1_555 1_555
N1D C4D 1_555 1_555
O2D C4D 1_555 1_555
C1D C2D 1_555 1_555
C2D C2 1_555 1_555
C3D C8 1_555 1_555
C4D C1D 1_555 1_555
C5D N1D 1_555 1_555
C6D C7D 1_555 1_555
C7D N1D 1_555 1_555
H1D C7D 1_555 1_555
H2D C7D 1_555 1_555
C8D C3 1_555 1_555
H3D C8D 1_555 1_555
C9D C1D 1_555 1_555
H4D C9D 1_555 1_555
N2D C11D 1_555 1_555
C10D C6D 1_555 1_555
H5D C10D 1_555 1_555
C11D C10D 1_555 1_555
H6D C11D 1_555 1_555
C12D C6D 1_555 1_555
H7D C12D 1_555 1_555
C13D N2D 1_555 1_555
H8D C13D 1_555 1_555
C8 C9 1_555 1_555
C12 C13 1_555 1_555
C2D C3D 1_555 1_555
C3D C5D 1_555 1_555
C8D C9D 1_555 1_555
C12D C13D 1_555 1_555

#END
