
#######################################################################
#
#                 Cambridge Crystallographic Data Centre
#                                CCDC 
#
#######################################################################
#
# If this CIF has been generated from an entry in the Cambridge 
# Structural Database, then it will include bibliographic, chemical, 
# crystal, experimental, refinement or atomic coordinate data resulting 
# from the CCDC's data processing and validation procedures.
#
#######################################################################

data_MOKMAC
_chemical_formula_moiety         'C38 H30 S2'
_chemical_name_systematic        
5,11-Dimesitylindeno[2,1-b]indeno[1',2':4,5]thieno[2,3-d]thiophene
_symmetry_cell_setting           triclinic
_symmetry_space_group_name_H-M   'P -1'
_symmetry_Int_Tables_number      2
_space_group_name_Hall           '-P 1'
loop_
_symmetry_equiv_pos_site_id
_symmetry_equiv_pos_as_xyz
1 x,y,z
2 -x,-y,-z
_cell_length_a                   7.0732(12)
_cell_length_b                   7.9974(14)
_cell_length_c                   12.843(2)
_cell_angle_alpha                83.771(13)
_cell_angle_beta                 88.008(13)
_cell_angle_gamma                79.973(14)
_cell_volume                     711.079
_exptl_crystal_colour            black
_exptl_crystal_description       prism
_cell_formula_units_Z            1
_chemical_properties_physical    'Air-sensitive, Light-sensitive'
_exptl_crystal_recrystallization_method chloroform/acetonitrile
loop_
_atom_site_label
_atom_site_type_symbol
_atom_site_fract_x
_atom_site_fract_y
_atom_site_fract_z
S1 S 0.57230(19) 0.29078(14) 0.11718(9)
C1 C 0.5896(7) 0.4366(5) 0.0071(4)
C2 C 0.3397(7) 0.3947(5) 0.1445(4)
C3 C 0.2774(7) 0.5404(5) 0.0669(4)
C4 C 0.0842(7) 0.6128(5) 0.0989(4)
C5 C -0.0472(8) 0.7487(6) 0.0560(4)
H1 H -0.0169 0.8154 -0.0061
C6 C -0.2253(8) 0.7859(7) 0.1057(4)
H2 H -0.3171 0.8796 0.0775
C7 C -0.2702(8) 0.6888(7) 0.1952(4)
H3 H -0.3935 0.7150 0.2271
C8 C -0.1361(8) 0.5511(6) 0.2403(4)
H4 H -0.1663 0.4861 0.3031
C9 C 0.0380(7) 0.5133(6) 0.1916(4)
C10 C 0.2060(7) 0.3774(5) 0.2195(4)
C11 C 0.2193(6) 0.2569(5) 0.3164(4)
C12 C 0.2344(7) 0.3187(6) 0.4137(4)
C13 C 0.2483(7) 0.2047(7) 0.5049(4)
H5 H 0.2568 0.2476 0.5704
C14 C 0.2501(7) 0.0347(7) 0.5032(4)
C15 C 0.2390(7) -0.0261(6) 0.4058(4)
H6 H 0.2427 -0.1448 0.4028
C16 C 0.2228(7) 0.0827(6) 0.3130(4)
C17 C 0.2456(10) 0.5036(6) 0.4211(5)
H7 H 0.3501 0.5363 0.3755
H8 H 0.2701 0.5197 0.4937
H9 H 0.1238 0.5751 0.3988
C18 C 0.2671(8) -0.0863(7) 0.6019(4)
H10 H 0.4030 -0.1256 0.6180
H11 H 0.2064 -0.1846 0.5921
H12 H 0.2028 -0.0275 0.6599
C19 C 0.2027(10) 0.0098(7) 0.2118(5)
H13 H 0.2088 -0.1140 0.2254
H14 H 0.3071 0.0341 0.1634
H15 H 0.0790 0.0617 0.1806
S1A S 0.42770(19) 0.70922(14) -0.11718(9)
C1A C 0.4104(7) 0.5634(5) -0.0071(4)
C2A C 0.6603(7) 0.6053(5) -0.1445(4)
C3A C 0.7226(7) 0.4596(5) -0.0669(4)
C4A C 0.9158(7) 0.3872(5) -0.0989(4)
C5A C 1.0472(8) 0.2513(6) -0.0560(4)
H1A H 1.0169 0.1846 0.0061
C6A C 1.2253(8) 0.2141(7) -0.1057(4)
H2A H 1.3171 0.1204 -0.0775
C7A C 1.2702(8) 0.3112(7) -0.1952(4)
H3A H 1.3935 0.2850 -0.2271
C8A C 1.1361(8) 0.4489(6) -0.2403(4)
H4A H 1.1663 0.5139 -0.3031
C9A C 0.9620(7) 0.4867(6) -0.1916(4)
C10A C 0.7940(7) 0.6226(5) -0.2195(4)
C11A C 0.7807(6) 0.7431(5) -0.3164(4)
C12A C 0.7656(7) 0.6813(6) -0.4137(4)
C13A C 0.7517(7) 0.7953(7) -0.5049(4)
H5A H 0.7432 0.7524 -0.5704
C14A C 0.7499(7) 0.9653(7) -0.5032(4)
C15A C 0.7610(7) 1.0261(6) -0.4058(4)
H6A H 0.7573 1.1448 -0.4028
C16A C 0.7772(7) 0.9173(6) -0.3130(4)
C17A C 0.7544(10) 0.4964(6) -0.4211(5)
H7A H 0.6499 0.4637 -0.3755
H8A H 0.7299 0.4803 -0.4937
H9A H 0.8762 0.4249 -0.3988
C18A C 0.7329(8) 1.0863(7) -0.6019(4)
H10A H 0.5970 1.1256 -0.6180
H11A H 0.7936 1.1846 -0.5921
H12A H 0.7972 1.0275 -0.6599
C19A C 0.7973(10) 0.9902(7) -0.2118(5)
H13A H 0.7912 1.1140 -0.2254
H14A H 0.6929 0.9659 -0.1634
H15A H 0.9210 0.9383 -0.1806
loop_
_geom_bond_atom_site_label_1
_geom_bond_atom_site_label_2
_geom_bond_site_symmetry_1
_geom_bond_site_symmetry_2
S1 C1 1_555 1_555
C1 C1A 1_555 1_555
C2 S1 1_555 1_555
C3 C2 1_555 1_555
C4 C3 1_555 1_555
C5 C4 1_555 1_555
H1 C5 1_555 1_555
C6 C5 1_555 1_555
H2 C6 1_555 1_555
C7 C6 1_555 1_555
H3 C7 1_555 1_555
C8 C7 1_555 1_555
H4 C8 1_555 1_555
C9 C4 1_555 1_555
C10 C2 1_555 1_555
C11 C10 1_555 1_555
C12 C11 1_555 1_555
C13 C12 1_555 1_555
H5 C13 1_555 1_555
C14 C13 1_555 1_555
C15 C14 1_555 1_555
H6 C15 1_555 1_555
C16 C11 1_555 1_555
C17 C12 1_555 1_555
H7 C17 1_555 1_555
H8 C17 1_555 1_555
H9 C17 1_555 1_555
C18 C14 1_555 1_555
H10 C18 1_555 1_555
H11 C18 1_555 1_555
H12 C18 1_555 1_555
C19 C16 1_555 1_555
H13 C19 1_555 1_555
H14 C19 1_555 1_555
H15 C19 1_555 1_555
S1A C1A 1_555 1_555
C1A C3 1_555 1_555
C2A S1A 1_555 1_555
C3A C1 1_555 1_555
C4A C3A 1_555 1_555
C5A C4A 1_555 1_555
H1A C5A 1_555 1_555
C6A C5A 1_555 1_555
H2A C6A 1_555 1_555
C7A C6A 1_555 1_555
H3A C7A 1_555 1_555
C8A C7A 1_555 1_555
H4A C8A 1_555 1_555
C9A C4A 1_555 1_555
C10A C2A 1_555 1_555
C11A C10A 1_555 1_555
C12A C11A 1_555 1_555
C13A C12A 1_555 1_555
H5A C13A 1_555 1_555
C14A C13A 1_555 1_555
C15A C14A 1_555 1_555
H6A C15A 1_555 1_555
C16A C11A 1_555 1_555
C17A C12A 1_555 1_555
H7A C17A 1_555 1_555
H8A C17A 1_555 1_555
H9A C17A 1_555 1_555
C18A C14A 1_555 1_555
H10A C18A 1_555 1_555
H11A C18A 1_555 1_555
H12A C18A 1_555 1_555
C19A C16A 1_555 1_555
H13A C19A 1_555 1_555
H14A C19A 1_555 1_555
H15A C19A 1_555 1_555
C8 C9 1_555 1_555
C9 C10 1_555 1_555
C15 C16 1_555 1_555
C2A C3A 1_555 1_555
C8A C9A 1_555 1_555
C9A C10A 1_555 1_555
C15A C16A 1_555 1_555

#END
