
#######################################################################
#
#                 Cambridge Crystallographic Data Centre
#                                CCDC 
#
#######################################################################
#
# If this CIF has been generated from an entry in the Cambridge 
# Structural Database, then it will include bibliographic, chemical, 
# crystal, experimental, refinement or atomic coordinate data resulting 
# from the CCDC's data processing and validation procedures.
#
#######################################################################

data_MOKNAB
_chemical_formula_moiety         'C20 H15 F3 N4 O3 S1'
_chemical_name_systematic        
4-((1-Benzotriazine)benzoylmethyl)-1-(trifluoromethanesulfonyl)-1,4-dihyrdopyridine
_symmetry_cell_setting           orthorhombic
_symmetry_space_group_name_H-M   'P n a 21'
_symmetry_Int_Tables_number      33
_space_group_name_Hall           'P 2c -2n'
loop_
_symmetry_equiv_pos_site_id
_symmetry_equiv_pos_as_xyz
1 x,y,z
2 -x,-y,1/2+z
3 1/2-x,1/2+y,1/2+z
4 1/2+x,1/2-y,z
_cell_length_a                   16.035(11)
_cell_length_b                   8.478(5)
_cell_length_c                   29.206(19)
_cell_angle_alpha                90
_cell_angle_beta                 90
_cell_angle_gamma                90
_cell_volume                     3970.4
_chemical_melting_point          125-126deg.C
_cell_formula_units_Z            8
loop_
_atom_site_label
_atom_site_type_symbol
_atom_site_fract_x
_atom_site_fract_y
_atom_site_fract_z
S1 S 0.0586(2) 0.4451(4) 0.2082(1)
O1 O 0.1151(7) 0.4971(12) 0.1756(4)
O2 O 0.0224(5) 0.2946(10) 0.2085(3)
C1 C 0.1144(9) 0.4614(16) 0.2618(6)
F1 F 0.1478(5) 0.5976(9) 0.2688(3)
F2 F 0.0635(6) 0.4296(11) 0.2982(3)
F3 F 0.1776(5) 0.3554(9) 0.2629(3)
N1 N -0.0140(6) 0.5750(10) 0.2141(4)
C2 C -0.0004(9) 0.7386(13) 0.2047(5)
C3 C -0.0549(8) 0.8487(17) 0.2159(4)
C4 C -0.1352(8) 0.8175(13) 0.2433(4)
C5 C -0.1505(10) 0.6450(15) 0.2443(5)
C6 C -0.0922(9) 0.5327(14) 0.2329(4)
C7 C -0.1377(7) 0.8820(12) 0.2927(6)
C8 C -0.1386(8) 1.0581(15) 0.2971(5)
O3 O -0.1329(6) 1.1433(9) 0.2626(3)
N2 N -0.0661(6) 0.8216(9) 0.3209(3)
N3 N -0.0830(8) 0.7018(12) 0.3505(4)
N4 N -0.0125(8) 0.6743(13) 0.3740(4)
C9 C 0.0492(8) 0.7684(15) 0.3583(5)
C10 C 0.1314(9) 0.7808(16) 0.3729(5)
C11 C 0.1821(9) 0.8958(16) 0.3511(5)
C12 C 0.1470(8) 0.9916(15) 0.3171(5)
C13 C 0.0643(8) 0.9870(15) 0.3025(5)
C14 C 0.0151(8) 0.8670(13) 0.3247(4)
C15 C -0.1555(8) 1.1346(18) 0.3435(5)
C16 C -0.1846(8) 1.0464(15) 0.3800(5)
C17 C -0.2031(9) 1.1200(17) 0.4209(6)
C18 C -0.1825(9) 1.2739(18) 0.4286(6)
C19 C -0.1486(8) 1.3598(15) 0.3931(5)
C20 C -0.1353(7) 1.2879(15) 0.3504(5)
H1 H 0.0497 0.7691 0.1898
H2 H -0.0439 0.9539 0.2065
H3 H -0.1824 0.8670 0.2261
H4 H -0.2042 0.6096 0.2535
H5 H -0.1047 0.4244 0.2377
H6 H -0.1901 0.8419 0.3071
H7 H 0.1529 0.7150 0.3965
H8 H 0.2390 0.9076 0.3595
H9 H 0.1827 1.0663 0.3028
H10 H 0.0424 1.0564 0.2799
H11 H -0.1918 0.9357 0.3769
H12 H -0.2308 1.0622 0.4443
H13 H -0.1913 1.3207 0.4577
H14 H -0.1342 1.4675 0.3976
H15 H -0.1118 1.3475 0.3260
S2 S 0.2147(2) -0.0460(4) 0.1449(1)
O4 O 0.2485(6) -0.2022(10) 0.1445(3)
O5 O 0.1573(6) 0.0045(10) 0.1793(3)
C21 C 0.1581(8) -0.0328(18) 0.0899(5)
F4 F 0.1258(5) 0.1158(9) 0.0859(3)
F5 F 0.2071(5) -0.0553(10) 0.0558(3)
F6 F 0.0943(5) -0.1334(10) 0.0899(3)
N5 N 0.2895(6) 0.0823(11) 0.1394(4)
C22 C 0.3691(8) 0.0386(15) 0.1208(4)
C23 C 0.4248(8) 0.1502(15) 0.1103(4)
C24 C 0.4039(8) 0.3279(12) 0.1123(4)
C25 C 0.3265(9) 0.3612(15) 0.1374(4)
C26 C 0.2706(9) 0.2444(16) 0.1506(5)
C27 C 0.4078(7) 0.3910(12) 0.0618(4)
C28 C 0.4117(7) 0.5722(14) 0.0569(5)
O6 O 0.4059(5) 0.6549(10) 0.0921(3)
N6 N 0.3373(6) 0.3367(10) 0.0342(4)
N7 N 0.3525(7) 0.2212(12) 0.0012(4)
N8 N 0.2852(7) 0.1923(11) -0.0202(3)
C29 C 0.2238(8) 0.2921(15) -0.0060(5)
C30 C 0.1397(10) 0.2995(18) -0.0182(5)
C31 C 0.0930(10) 0.4046(19) 0.0027(6)
C32 C 0.1262(9) 0.5057(15) 0.0396(6)
C33 C 0.2058(9) 0.4964(15) 0.0528(5)
C34 C 0.2560(8) 0.3835(13) 0.0308(4)
C35 C 0.4210(8) 0.6410(13) 0.0105(4)
C36 C 0.3998(9) 0.8045(18) 0.0041(5)
C37 C 0.4121(8) 0.8696(15) -0.0391(5)
C38 C 0.4418(9) 0.7745(16) -0.0746(6)
C39 C 0.4645(7) 0.6222(15) -0.0687(6)
C40 C 0.4559(8) 0.5542(14) -0.0252(5)
H16 H 0.3822 -0.0694 0.1160
H17 H 0.4793 0.1190 0.1012
H18 H 0.4502 0.3803 0.1295
H19 H 0.3141 0.4676 0.1450
H20 H 0.2210 0.2706 0.1667
H21 H 0.4596 0.3473 0.0476
H22 H 0.1171 0.2311 -0.0407
H23 H 0.0363 0.4160 -0.0063
H24 H 0.0902 0.5788 0.0543
H25 H 0.2276 0.5634 0.0759
H26 H 0.3781 0.8659 0.0286
H27 H 0.4003 0.9779 -0.0445
H28 H 0.4463 0.8191 -0.1043
H29 H 0.4859 0.5624 -0.0936
H30 H 0.4738 0.4489 -0.0201
loop_
_geom_bond_atom_site_label_1
_geom_bond_atom_site_label_2
_geom_bond_site_symmetry_1
_geom_bond_site_symmetry_2
S1 O1 1_555 1_555
O2 S1 1_555 1_555
C1 S1 1_555 1_555
F1 C1 1_555 1_555
F2 C1 1_555 1_555
F3 C1 1_555 1_555
N1 S1 1_555 1_555
C2 N1 1_555 1_555
C3 C2 1_555 1_555
C4 C3 1_555 1_555
C5 C4 1_555 1_555
C6 N1 1_555 1_555
C7 C4 1_555 1_555
C8 C7 1_555 1_555
O3 C8 1_555 1_555
N2 C7 1_555 1_555
N3 N2 1_555 1_555
N4 N3 1_555 1_555
C9 N4 1_555 1_555
C10 C9 1_555 1_555
C11 C10 1_555 1_555
C12 C11 1_555 1_555
C13 C12 1_555 1_555
C14 N2 1_555 1_555
C15 C8 1_555 1_555
C16 C15 1_555 1_555
C17 C16 1_555 1_555
C18 C17 1_555 1_555
C19 C18 1_555 1_555
C20 C15 1_555 1_555
S2 O4 1_555 1_555
O5 S2 1_555 1_555
C21 S2 1_555 1_555
F4 C21 1_555 1_555
F5 C21 1_555 1_555
F6 C21 1_555 1_555
N5 S2 1_555 1_555
C22 N5 1_555 1_555
C23 C22 1_555 1_555
C24 C23 1_555 1_555
C25 C24 1_555 1_555
C26 N5 1_555 1_555
C27 C24 1_555 1_555
C28 C27 1_555 1_555
O6 C28 1_555 1_555
N6 C27 1_555 1_555
N7 N6 1_555 1_555
N8 N7 1_555 1_555
C29 N8 1_555 1_555
C30 C29 1_555 1_555
C31 C30 1_555 1_555
C32 C31 1_555 1_555
C33 C32 1_555 1_555
C34 N6 1_555 1_555
C35 C28 1_555 1_555
C36 C35 1_555 1_555
C37 C36 1_555 1_555
C38 C37 1_555 1_555
C39 C38 1_555 1_555
C40 C35 1_555 1_555
H1 C2 1_555 1_555
H2 C3 1_555 1_555
H3 C4 1_555 1_555
H4 C5 1_555 1_555
H5 C6 1_555 1_555
H6 C7 1_555 1_555
H7 C10 1_555 1_555
H8 C11 1_555 1_555
H9 C12 1_555 1_555
H10 C13 1_555 1_555
H11 C16 1_555 1_555
H12 C17 1_555 1_555
H13 C18 1_555 1_555
H14 C19 1_555 1_555
H15 C20 1_555 1_555
H16 C22 1_555 1_555
H17 C23 1_555 1_555
H18 C24 1_555 1_555
H19 C25 1_555 1_555
H20 C26 1_555 1_555
H21 C27 1_555 1_555
H22 C30 1_555 1_555
H23 C31 1_555 1_555
H24 C32 1_555 1_555
H25 C33 1_555 1_555
H26 C36 1_555 1_555
H27 C37 1_555 1_555
H28 C38 1_555 1_555
H29 C39 1_555 1_555
H30 C40 1_555 1_555
C5 C6 1_555 1_555
C9 C14 1_555 1_555
C13 C14 1_555 1_555
C19 C20 1_555 1_555
C25 C26 1_555 1_555
C29 C34 1_555 1_555
C33 C34 1_555 1_555
C39 C40 1_555 1_555

#END
