
#######################################################################
#
#                 Cambridge Crystallographic Data Centre
#                                CCDC 
#
#######################################################################
#
# If this CIF has been generated from an entry in the Cambridge 
# Structural Database, then it will include bibliographic, chemical, 
# crystal, experimental, refinement or atomic coordinate data resulting 
# from the CCDC's data processing and validation procedures.
#
#######################################################################

data_MOKPAD
_chemical_formula_moiety         'C32 H21 Cl1 O2'
_chemical_name_systematic        
7-Chloro-2-phenyldispiro[cyclobuta[a]indene-1,9'-phenanthrene-10',2''-[1,3]dioxolane]
_symmetry_cell_setting           monoclinic
_symmetry_space_group_name_H-M   'P 21/n'
_symmetry_Int_Tables_number      14
_space_group_name_Hall           '-P 2yn'
loop_
_symmetry_equiv_pos_site_id
_symmetry_equiv_pos_as_xyz
1 x,y,z
2 1/2-x,1/2+y,1/2-z
3 -x,-y,-z
4 1/2+x,1/2-y,1/2+z
_cell_length_a                   11.523(2)
_cell_length_b                   11.887(2)
_cell_length_c                   17.376(3)
_cell_angle_alpha                90
_cell_angle_beta                 102.10(1)
_cell_angle_gamma                90
_cell_volume                     2327.18
_exptl_crystal_colour            yellow
_chemical_melting_point          246-247deg.C
_cell_formula_units_Z            4
loop_
_atom_site_label
_atom_site_type_symbol
_atom_site_fract_x
_atom_site_fract_y
_atom_site_fract_z
Cl1 Cl 0.2278(1) 0.9632(1) 0.3632(1)
O1 O 0.0468(2) 1.2352(2) 0.4534(1)
O2 O -0.1134(2) 1.3136(2) 0.3703(1)
C1 C 0.0510(3) 1.2480(3) 0.3152(2)
C2 C 0.1309(3) 1.3560(3) 0.3267(2)
C3 C 0.2326(3) 1.2951(3) 0.3448(2)
C4 C 0.3600(3) 1.2751(3) 0.3685(2)
C5 C 0.4602(3) 1.3417(3) 0.3823(2)
C6 C 0.5700(3) 1.2911(4) 0.4051(3)
C7 C 0.5812(4) 1.1764(4) 0.4150(3)
C8 C 0.4818(3) 1.1073(4) 0.4012(2)
C9 C 0.3714(3) 1.1566(3) 0.3779(2)
C10 C 0.2512(3) 1.1052(3) 0.3579(2)
C11 C 0.1737(3) 1.1888(3) 0.3383(2)
C12 C -0.0247(3) 1.2274(3) 0.3769(2)
C13 C 0.0180(4) 1.3358(4) 0.4878(2)
C14 C -0.1044(4) 1.3602(4) 0.4463(2)
C15 C -0.0837(3) 1.1125(3) 0.3659(2)
C16 C -0.1095(3) 1.0547(3) 0.4297(2)
C17 C -0.1673(3) 0.9529(3) 0.4198(3)
C18 C -0.1983(3) 0.9062(3) 0.3457(3)
C19 C -0.1740(3) 0.9624(3) 0.2817(2)
C20 C -0.1190(3) 1.0682(3) 0.2893(2)
C21 C -0.0978(3) 1.1327(3) 0.2213(2)
C22 C -0.1570(3) 1.1076(3) 0.1448(2)
C23 C -0.1357(4) 1.1668(4) 0.0814(2)
C24 C -0.0528(4) 1.2529(4) 0.0931(2)
C25 C 0.0061(3) 1.2794(3) 0.1684(2)
C26 C -0.0162(3) 1.2207(3) 0.2327(2)
C27 C 0.1039(3) 1.4756(3) 0.3211(2)
C28 C -0.0097(3) 1.5162(3) 0.2927(2)
C29 C -0.0316(4) 1.6303(3) 0.2884(2)
C30 C 0.0585(4) 1.7060(3) 0.3124(3)
C31 C 0.1728(4) 1.6672(3) 0.3406(3)
C32 C 0.1951(3) 1.5534(3) 0.3446(2)
H1 H 0.4540(3) 1.4193(3) 0.3763(2)
H2 H 0.6379(3) 1.3356(4) 0.4141(3)
H3 H 0.6563(4) 1.1448(4) 0.4310(3)
H4 H 0.4894(3) 1.0298(4) 0.4076(2)
H5 H 0.0713(4) 1.3960(4) 0.4803(2)
H6 H 0.0222(4) 1.3260(4) 0.5438(2)
H7 H -0.1612(4) 1.3256(4) 0.4730(2)
H8 H -0.1186(4) 1.4407(4) 0.4431(2)
H9 H -0.0872(3) 1.0853(3) 0.4799(2)
H10 H -0.1855(3) 0.9158(3) 0.4629(3)
H11 H -0.2357(3) 0.8364(3) 0.3390(3)
H12 H -0.1945(3) 0.9294(3) 0.2322(2)
H13 H -0.2122(3) 1.0495(3) 0.1366(2)
H14 H -0.1767(4) 1.1491(4) 0.0308(2)
H15 H -0.0370(4) 1.2927(4) 0.0503(2)
H16 H 0.0614(3) 1.3375(3) 0.1762(2)
H17 H -0.0718(3) 1.4660(3) 0.2763(2)
H18 H -0.1084(4) 1.6562(3) 0.2690(2)
H19 H 0.0430(4) 1.7828(3) 0.3098(3)
H20 H 0.2345(4) 1.7180(3) 0.3567(3)
H21 H 0.2722(3) 1.5280(3) 0.3634(2)
loop_
_geom_bond_atom_site_label_1
_geom_bond_atom_site_label_2
_geom_bond_site_symmetry_1
_geom_bond_site_symmetry_2
Cl1 C10 1_555 1_555
O1 C12 1_555 1_555
O2 C12 1_555 1_555
C1 C2 1_555 1_555
C2 C3 1_555 1_555
C3 C4 1_555 1_555
C4 C5 1_555 1_555
C5 C6 1_555 1_555
C6 C7 1_555 1_555
C7 C8 1_555 1_555
C8 C9 1_555 1_555
C9 C4 1_555 1_555
C10 C9 1_555 1_555
C11 C1 1_555 1_555
C12 C1 1_555 1_555
C13 O1 1_555 1_555
C14 O2 1_555 1_555
C15 C12 1_555 1_555
C16 C15 1_555 1_555
C17 C16 1_555 1_555
C18 C17 1_555 1_555
C19 C18 1_555 1_555
C20 C15 1_555 1_555
C21 C20 1_555 1_555
C22 C21 1_555 1_555
C23 C22 1_555 1_555
C24 C23 1_555 1_555
C25 C24 1_555 1_555
C26 C1 1_555 1_555
C27 C2 1_555 1_555
C28 C27 1_555 1_555
C29 C28 1_555 1_555
C30 C29 1_555 1_555
C31 C30 1_555 1_555
C32 C27 1_555 1_555
H1 C5 1_555 1_555
H2 C6 1_555 1_555
H3 C7 1_555 1_555
H4 C8 1_555 1_555
H5 C13 1_555 1_555
H6 C13 1_555 1_555
H7 C14 1_555 1_555
H8 C14 1_555 1_555
H9 C16 1_555 1_555
H10 C17 1_555 1_555
H11 C18 1_555 1_555
H12 C19 1_555 1_555
H13 C22 1_555 1_555
H14 C23 1_555 1_555
H15 C24 1_555 1_555
H16 C25 1_555 1_555
H17 C28 1_555 1_555
H18 C29 1_555 1_555
H19 C30 1_555 1_555
H20 C31 1_555 1_555
H21 C32 1_555 1_555
C3 C11 1_555 1_555
C10 C11 1_555 1_555
C13 C14 1_555 1_555
C19 C20 1_555 1_555
C21 C26 1_555 1_555
C25 C26 1_555 1_555
C31 C32 1_555 1_555

#END
