
#######################################################################
#
#                 Cambridge Crystallographic Data Centre
#                                CCDC 
#
#######################################################################
#
# If this CIF has been generated from an entry in the Cambridge 
# Structural Database, then it will include bibliographic, chemical, 
# crystal, experimental, refinement or atomic coordinate data resulting 
# from the CCDC's data processing and validation procedures.
#
#######################################################################

data_MOKRIN
_chemical_formula_moiety         'C15 H10 Cl1 N1 O1'
_chemical_name_systematic        3-Phenyl-5-(4-chlorophenyl)isoxazole
_symmetry_cell_setting           triclinic
_symmetry_space_group_name_H-M   'P -1'
_symmetry_Int_Tables_number      2
_space_group_name_Hall           '-P 1'
loop_
_symmetry_equiv_pos_site_id
_symmetry_equiv_pos_as_xyz
1 x,y,z
2 -x,-y,-z
_cell_length_a                   5.695(2)
_cell_length_b                   7.270(3)
_cell_length_c                   14.650(5)
_cell_angle_alpha                77.911(5)
_cell_angle_beta                 82.300(4)
_cell_angle_gamma                89.904(5)
_cell_volume                     587.532
_cell_formula_units_Z            2
loop_
_atom_site_label
_atom_site_type_symbol
_atom_site_fract_x
_atom_site_fract_y
_atom_site_fract_z
Cl1 Cl 0.4226(1) 0.7820(1) 0.9653(1)
O1 O 1.0419(2) 1.2048(2) 0.5532(1)
N1 N 1.0995(2) 1.2976(2) 0.4578(1)
C1 C 0.8960(3) 1.3285(2) 0.4252(1)
C2 C 0.7024(3) 1.2595(2) 0.4961(1)
C3 C 0.8029(3) 1.1840(2) 0.5735(1)
C4 C 0.8894(3) 1.4216(2) 0.3255(1)
C5 C 0.6894(3) 1.5173(2) 0.2981(1)
C6 C 0.6833(3) 1.6018(2) 0.2041(1)
C7 C 0.8751(3) 1.5907(2) 0.1359(1)
C8 C 1.0742(3) 1.4948(2) 0.1631(1)
C9 C 1.0824(3) 1.4117(2) 0.2569(1)
C10 C 0.7101(3) 1.0880(2) 0.6700(1)
C11 C 0.4895(3) 0.9957(2) 0.6884(1)
C12 C 0.4007(3) 0.9023(2) 0.7789(1)
C13 C 0.5330(3) 0.9024(2) 0.8518(1)
C14 C 0.7528(3) 0.9939(2) 0.8357(1)
C15 C 0.8399(3) 1.0864(2) 0.7448(1)
H1 H 0.5383 1.2652 0.4903
H2 H 0.5568 1.5248 0.3439
H3 H 0.5470 1.6678 0.1862
H4 H 0.8700 1.6478 0.0717
H5 H 1.2057 1.4861 0.1170
H6 H 1.2201 1.3476 0.2747
H7 H 0.3989 0.9967 0.6383
H8 H 0.2505 0.8388 0.7910
H9 H 0.8421 0.9932 0.8860
H10 H 0.9902 1.1498 0.7331
loop_
_geom_bond_atom_site_label_1
_geom_bond_atom_site_label_2
_geom_bond_site_symmetry_1
_geom_bond_site_symmetry_2
Cl1 C13 1_555 1_555
O1 N1 1_555 1_555
N1 C1 1_555 1_555
C1 C2 1_555 1_555
C2 C3 1_555 1_555
C3 O1 1_555 1_555
C4 C1 1_555 1_555
C5 C4 1_555 1_555
C6 C5 1_555 1_555
C7 C6 1_555 1_555
C8 C7 1_555 1_555
C9 C4 1_555 1_555
C10 C3 1_555 1_555
C11 C10 1_555 1_555
C12 C11 1_555 1_555
C13 C12 1_555 1_555
C14 C13 1_555 1_555
C15 C10 1_555 1_555
H1 C2 1_555 1_555
H2 C5 1_555 1_555
H3 C6 1_555 1_555
H4 C7 1_555 1_555
H5 C8 1_555 1_555
H6 C9 1_555 1_555
H7 C11 1_555 1_555
H8 C12 1_555 1_555
H9 C14 1_555 1_555
H10 C15 1_555 1_555
C8 C9 1_555 1_555
C14 C15 1_555 1_555

#END
