
#######################################################################
#
#                 Cambridge Crystallographic Data Centre
#                                CCDC 
#
#######################################################################
#
# If this CIF has been generated from an entry in the Cambridge 
# Structural Database, then it will include bibliographic, chemical, 
# crystal, experimental, refinement or atomic coordinate data resulting 
# from the CCDC's data processing and validation procedures.
#
#######################################################################

data_MOKSAH
_chemical_formula_moiety         'C21 H19 Cl1 O3'
_chemical_name_systematic        
'Ethyl 6-r-(2-chlorophenyl)-2-oxo-4-phenylcyclohex-3-ene-1-t-carboxylate'
_symmetry_cell_setting           triclinic
_symmetry_space_group_name_H-M   'P -1'
_symmetry_Int_Tables_number      2
_space_group_name_Hall           '-P 1'
loop_
_symmetry_equiv_pos_site_id
_symmetry_equiv_pos_as_xyz
1 x,y,z
2 -x,-y,-z
_cell_length_a                   8.0115(3)
_cell_length_b                   11.3525(4)
_cell_length_c                   11.6386(4)
_cell_angle_alpha                62.261(2)
_cell_angle_beta                 77.975(2)
_cell_angle_gamma                75.297(2)
_cell_volume                     901.163
_exptl_crystal_colour            yellow
_exptl_crystal_description       prism
_chemical_melting_point          '389 K'
_cell_formula_units_Z            2
loop_
_atom_site_label
_atom_site_type_symbol
_atom_site_fract_x
_atom_site_fract_y
_atom_site_fract_z
Cl1 Cl 0.13654(11) 0.11707(7) 0.54241(6)
O1 O -0.1208(2) 0.14508(16) 0.06258(18)
O2 O -0.2286(2) 0.41679(16) 0.13239(17)
O3 O -0.2157(2) 0.21683(16) 0.30479(16)
C1 C 0.0078(3) 0.13601(19) 0.10828(19)
C2 C 0.1564(3) 0.02735(19) 0.12187(19)
C3 C 0.3039(2) 0.01717(17) 0.16536(17)
C4 C 0.3214(2) 0.11953(19) 0.20808(19)
C5 C 0.1463(2) 0.18685(17) 0.25162(17)
C6 C 0.0221(2) 0.24349(17) 0.14675(18)
C7 C -0.1553(3) 0.30400(19) 0.1907(2)
C8 C -0.3782(3) 0.2616(3) 0.3678(3)
C9 C -0.3479(5) 0.3014(5) 0.4614(4)
C10 C 0.4544(2) -0.09227(18) 0.17178(18)
C11 C 0.4368(3) -0.2036(2) 0.1583(3)
C12 C 0.5756(3) -0.3071(2) 0.1670(3)
C13 C 0.7342(3) -0.3016(2) 0.1883(2)
C14 C 0.7554(3) -0.1921(2) 0.1997(2)
C15 C 0.6165(3) -0.0874(2) 0.1915(2)
C16 C 0.1649(2) 0.29528(18) 0.28709(18)
C17 C 0.1578(3) 0.2746(2) 0.4147(2)
C18 C 0.1702(3) 0.3765(3) 0.4449(2)
C19 C 0.1925(3) 0.5008(2) 0.3465(3)
C20 C 0.2043(3) 0.5233(2) 0.2197(3)
C21 C 0.1904(3) 0.42222(19) 0.1901(2)
H1 H 0.14847 -0.03916 0.09893
H2 H 0.37937 0.18852 0.13632
H3 H 0.39318 0.07510 0.27967
H4 H 0.09611 0.11693 0.33016
H5 H 0.06963 0.31586 0.06916
H6 H -0.44593 0.33752 0.30241
H7 H -0.44441 0.18881 0.41165
H8 H -0.27789 0.22713 0.52462
H9 H -0.45689 0.32657 0.50465
H10 H -0.28870 0.37710 0.41723
H11 H 0.32983 -0.20837 0.14306
H12 H 0.56122 -0.38122 0.15832
H13 H 0.82717 -0.37205 0.19504
H14 H 0.86358 -0.18757 0.21314
H15 H 0.63254 -0.01326 0.19924
H16 H 0.16326 0.36044 0.53153
H17 H 0.19970 0.56973 0.36623
H18 H 0.22178 0.60725 0.15288
H19 H 0.19836 0.43932 0.10300
loop_
_geom_bond_atom_site_label_1
_geom_bond_atom_site_label_2
_geom_bond_site_symmetry_1
_geom_bond_site_symmetry_2
Cl1 C17 1_555 1_555
O1 C1 1_555 1_555
O2 C7 1_555 1_555
O3 C7 1_555 1_555
C1 C2 1_555 1_555
C2 C3 1_555 1_555
C3 C4 1_555 1_555
C4 C5 1_555 1_555
C5 C6 1_555 1_555
C6 C1 1_555 1_555
C7 C6 1_555 1_555
C8 O3 1_555 1_555
C9 C8 1_555 1_555
C10 C3 1_555 1_555
C11 C10 1_555 1_555
C12 C11 1_555 1_555
C13 C12 1_555 1_555
C14 C13 1_555 1_555
C15 C10 1_555 1_555
C16 C5 1_555 1_555
C17 C16 1_555 1_555
C18 C17 1_555 1_555
C19 C18 1_555 1_555
C20 C19 1_555 1_555
C21 C16 1_555 1_555
H1 C2 1_555 1_555
H2 C4 1_555 1_555
H3 C4 1_555 1_555
H4 C5 1_555 1_555
H5 C6 1_555 1_555
H6 C8 1_555 1_555
H7 C8 1_555 1_555
H8 C9 1_555 1_555
H9 C9 1_555 1_555
H10 C9 1_555 1_555
H11 C11 1_555 1_555
H12 C12 1_555 1_555
H13 C13 1_555 1_555
H14 C14 1_555 1_555
H15 C15 1_555 1_555
H16 C18 1_555 1_555
H17 C19 1_555 1_555
H18 C20 1_555 1_555
H19 C21 1_555 1_555
C14 C15 1_555 1_555
C20 C21 1_555 1_555

#END
