
#######################################################################
#
#                 Cambridge Crystallographic Data Centre
#                                CCDC 
#
#######################################################################
#
# If this CIF has been generated from an entry in the Cambridge 
# Structural Database, then it will include bibliographic, chemical, 
# crystal, experimental, refinement or atomic coordinate data resulting 
# from the CCDC's data processing and validation procedures.
#
#######################################################################

data_MOKSIO
_chemical_formula_moiety         'C6 H16 N1 1+,C16 H21 N2 O4 1-'
_chemical_name_systematic        
"Di-isopropylammonium 4,4,4',4'-tetramethylazo(cyclohexan-2,6-dioate)"
_symmetry_cell_setting           orthorhombic
_symmetry_space_group_name_H-M   'P b c n'
_symmetry_Int_Tables_number      60
_space_group_name_Hall           '-P 2n 2ab'
loop_
_symmetry_equiv_pos_site_id
_symmetry_equiv_pos_as_xyz
1 x,y,z
2 1/2-x,1/2-y,1/2+z
3 1/2+x,1/2-y,-z
4 -x,y,1/2-z
5 -x,-y,-z
6 1/2+x,1/2+y,1/2-z
7 1/2-x,1/2+y,z
8 x,-y,1/2+z
_cell_length_a                   18.631(2)
_cell_length_b                   10.067(5)
_cell_length_c                   12.5880(8)
_cell_angle_alpha                90
_cell_angle_beta                 90
_cell_angle_gamma                90
_cell_volume                     2360.98
_exptl_crystal_colour            orange
_exptl_crystal_description       prism
_chemical_melting_point          155-156deg.C(dec.)
_cell_formula_units_Z            4
_exptl_crystal_recrystallization_method 'ethyl acetate'
loop_
_atom_site_label
_atom_site_type_symbol
_atom_site_fract_x
_atom_site_fract_y
_atom_site_fract_z
O1 O 0.46187(7) 0.84360(13) 0.36613(13)
O2 O 0.41245(7) 1.29924(12) 0.37628(12)
N2 N 0.48277(13) 1.1313(3) 0.2757(2)
C2 C 0.29698(11) 1.0142(3) 0.6310(2)
C3 C 0.32838(7) 1.03179(15) 0.52018(10)
C4 C 0.36778(9) 1.1632(2) 0.51244(13)
C5 C 0.44214(7) 1.07136(15) 0.36469(10)
C7 C 0.26826(8) 1.0265(2) 0.43732(13)
C8 C 0.38323(9) 0.9223(2) 0.50027(14)
C10 C 0.43134(8) 0.9420(2) 0.40559(13)
C11 C 0.40898(8) 1.18378(15) 0.41161(12)
H2 H 0.3377(14) 1.0092(22) 0.6825(20)
H3 H 0.2671(17) 1.0548(31) 0.6394(23)
H4 H 0.2578(15) 0.9245(23) 0.6335(18)
H5 H 0.3360(9) 1.2463(16) 0.5215(12)
H6 H 0.4047(9) 1.1716(15) 0.5752(12)
H7 H 0.2338(10) 1.1028(17) 0.4430(13)
H8 H 0.2883(9) 1.0487(16) 0.3573(14)
H9 H 0.2415(10) 0.9476(17) 0.4453(14)
H10 H 0.4153(10) 0.9095(17) 0.5599(14)
H11 H 0.3660(9) 0.8248(18) 0.4871(14)
N2C N 0.51723(13) 1.1313(3) 0.2243(2)
C5C C 0.55786(7) 1.07136(15) 0.13531(10)
C10C C 0.56866(8) 0.9420(2) 0.09441(13)
O1C O 0.53813(7) 0.84360(13) 0.13387(13)
C8C C 0.61677(9) 0.9223(2) -0.00027(14)
C3C C 0.67162(7) 1.03179(15) -0.02018(10)
C2C C 0.70302(11) 1.0142(3) -0.1310(2)
H2C H 0.6623(14) 1.0092(22) -0.1825(20)
H3C H 0.7329(17) 1.0548(31) -0.1394(23)
H4C H 0.7422(15) 0.9245(23) -0.1335(18)
C4C C 0.63222(9) 1.1632(2) -0.01244(13)
C11C C 0.59102(8) 1.18378(15) 0.08839(12)
O2C O 0.58755(7) 1.29924(12) 0.12372(12)
H5C H 0.6640(9) 1.2463(16) -0.0215(12)
H6C H 0.5953(9) 1.1716(15) -0.0752(12)
C7C C 0.73174(8) 1.0265(2) 0.06268(13)
H7C H 0.7662(10) 1.1028(17) 0.0570(13)
H8C H 0.7117(9) 1.0487(16) 0.1427(14)
H9C H 0.7585(10) 0.9476(17) 0.0547(14)
H10C H 0.5847(10) 0.9095(17) -0.0599(14)
H11C H 0.6340(9) 0.8248(18) 0.0129(14)
N1 N 0.5000 0.4483(2) 0.2500
C1 C 0.38985(9) 0.5846(2) 0.24630(14)
C6 C 0.42213(10) 0.4354(2) 0.09394(14)
C9 C 0.44990(7) 0.52709(14) 0.17987(11)
H1 H 0.5259(8) 0.3876(15) 0.2046(12)
H12 H 0.4090(10) 0.6410(18) 0.3069(15)
H13 H 0.3518(10) 0.6359(18) 0.1976(15)
H14 H 0.3604(10) 0.5057(19) 0.2780(15)
H15 H 0.3891(10) 0.4871(17) 0.0406(14)
H16 H 0.4650(11) 0.3910(19) 0.0547(14)
H17 H 0.3971(10) 0.3617(19) 0.1331(15)
H18 H 0.4818(8) 0.6060(15) 0.1476(12)
C9C C 0.55010(7) 0.52709(14) 0.32013(11)
C1C C 0.61015(9) 0.5846(2) 0.25370(14)
H12C H 0.5910(10) 0.6410(18) 0.1931(15)
H13C H 0.6482(10) 0.6359(18) 0.3024(15)
H14C H 0.6396(10) 0.5057(19) 0.2220(15)
C6C C 0.57787(10) 0.4354(2) 0.40606(14)
H15C H 0.6109(10) 0.4871(17) 0.4594(14)
H16C H 0.5350(11) 0.3910(19) 0.4453(14)
H17C H 0.6029(10) 0.3617(19) 0.3669(15)
H18C H 0.5182(8) 0.6060(15) 0.3524(12)
H1C H 0.4741(8) 0.3876(15) 0.2954(12)
N3? N 0.48613(14) 1.0388(3) 0.2783(2)
H19? H 0.5000 0.9499(21) 0.2500
loop_
_geom_bond_atom_site_label_1
_geom_bond_atom_site_label_2
_geom_bond_site_symmetry_1
_geom_bond_site_symmetry_2
O1 C10 1_555 1_555
O2 C11 1_555 1_555
N1 C9 1_555 1_555
N2 C5 1_555 1_555
C1 C9 1_555 1_555
C2 C3 1_555 1_555
C3 C4 1_555 1_555
C4 C11 1_555 1_555
C5 C10 1_555 1_555
C6 C9 1_555 1_555
C7 C3 1_555 1_555
C8 C3 1_555 1_555
C9 H18 1_555 1_555
C10 C8 1_555 1_555
C11 C5 1_555 1_555
H1 N1 1_555 1_555
H2 C2 1_555 1_555
H3 C2 1_555 1_555
H4 C2 1_555 1_555
H5 C4 1_555 1_555
H6 C4 1_555 1_555
H7 C7 1_555 1_555
H8 C7 1_555 1_555
H9 C7 1_555 1_555
H10 C8 1_555 1_555
H11 C8 1_555 1_555
H12 C1 1_555 1_555
H13 C1 1_555 1_555
H14 C1 1_555 1_555
H15 C6 1_555 1_555
H16 C6 1_555 1_555
H17 C6 1_555 1_555
N2C N2 1_555 1_555
C5C N2C 1_555 1_555
C10C C5C 1_555 1_555
O1C C10C 1_555 1_555
C8C C10C 1_555 1_555
C3C C8C 1_555 1_555
C2C C3C 1_555 1_555
H2C C2C 1_555 1_555
H3C C2C 1_555 1_555
H4C C2C 1_555 1_555
C4C C3C 1_555 1_555
C11C C5C 1_555 1_555
O2C C11C 1_555 1_555
H5C C4C 1_555 1_555
H6C C4C 1_555 1_555
C7C C3C 1_555 1_555
H7C C7C 1_555 1_555
H8C C7C 1_555 1_555
H9C C7C 1_555 1_555
H10C C8C 1_555 1_555
H11C C8C 1_555 1_555
C9C N1 1_555 1_555
C1C C9C 1_555 1_555
H12C C1C 1_555 1_555
H13C C1C 1_555 1_555
H14C C1C 1_555 1_555
C6C C9C 1_555 1_555
H15C C6C 1_555 1_555
H16C C6C 1_555 1_555
H17C C6C 1_555 1_555
H18C C9C 1_555 1_555
H1C N1 1_555 1_555
C4C C11C 1_555 1_555

#END
