
#######################################################################
#
#                 Cambridge Crystallographic Data Centre
#                                CCDC 
#
#######################################################################
#
# If this CIF has been generated from an entry in the Cambridge 
# Structural Database, then it will include bibliographic, chemical, 
# crystal, experimental, refinement or atomic coordinate data resulting 
# from the CCDC's data processing and validation procedures.
#
#######################################################################

data_MOLCIB
_chemical_formula_moiety         'C76 H66,C1 H1 Cl3'
_chemical_name_systematic        
"9,18-bis(4-t-butylphenyl)-5,14-bis((4-t-butylphenyl)ethynyl)dinaphtho[3,2,1-de:3',2',1'-mn]tetracene chloroform solvate"
_symmetry_cell_setting           triclinic
_symmetry_space_group_name_H-M   'P -1'
_symmetry_Int_Tables_number      2
_space_group_name_Hall           '-P 1'
loop_
_symmetry_equiv_pos_site_id
_symmetry_equiv_pos_as_xyz
1 x,y,z
2 -x,-y,-z
_cell_length_a                   13.823(2)
_cell_length_b                   14.027(2)
_cell_length_c                   18.664(3)
_cell_angle_alpha                99.528(6)
_cell_angle_beta                 105.932(5)
_cell_angle_gamma                114.262(5)
_cell_volume                     3008.37
_cell_formula_units_Z            2
loop_
_atom_site_label
_atom_site_type_symbol
_atom_site_fract_x
_atom_site_fract_y
_atom_site_fract_z
C1 C 1.10246 0.970686 0.18219
C2 C 1.07995 1.0186 0.243916
C3 C 1.09768 1.129 0.260009
H1 H 1.12852 1.17267 0.22994
C4 C 1.07116 1.17253 0.317596
H2 H 1.08511 1.24661 0.328177
C5 C 1.02273 1.10786 0.361993
H3 H 1.00114 1.13766 0.40055
C6 C 1.00708 1.00313 0.349524
H4 H 0.974413 0.960754 0.37964
C7 C 1.0386 0.955791 0.29235
C8 C 1.02852 0.848898 0.280956
C9 C 1.03256 0.796314 0.211518
C10 C 0.996381 0.680222 0.189573
C11 C 1.01179 0.633134 0.125172
H5 H 0.991089 0.557139 0.111529
C12 C 1.05765 0.69591 0.079429
H6 H 1.06899 0.66201 0.036301
C13 C 1.08585 0.804471 0.096345
H7 H 1.11385 0.844771 0.063759
C14 C 1.07361 0.858209 0.162756
C15 C 0.940389 0.615485 0.234222
C16 C 0.947179 0.66833 0.30598
C17 C 1.01824 0.789209 0.338787
C18 C 1.08247 0.836279 0.418313
C19 C 1.06956 0.767007 0.469164
C20 C 0.970449 0.658903 0.439192
C21 C 0.900477 0.613435 0.358862
C22 C 0.790749 0.51897 0.333847
C23 C 0.703776 0.485184 0.258731
H8 H 0.720069 0.525185 0.223336
C24 C 0.597515 0.396815 0.23614
H9 H 0.540369 0.377229 0.186137
C25 C 0.572382 0.334286 0.287196
H10 H 0.499514 0.270824 0.270354
C26 C 0.652267 0.364724 0.360419
H11 H 0.634295 0.322082 0.394092
C27 C 0.762615 0.45979 0.387285
C28 C 0.842068 0.498169 0.465797
C29 C 0.945022 0.59881 0.492755
C30 C 1.02671 0.641291 0.571076
H12 H 1.01213 0.601152 0.606653
C31 C 1.12571 0.738768 0.59601
H13 H 1.18143 0.763368 0.647547
C32 C 1.14602 0.803304 0.54591
H14 H 1.21337 0.872921 0.565199
C33 C 0.886712 0.493295 0.201149
C34 C 0.921548 0.43261 0.243732
H15 H 0.979881 0.46946 0.294975
C35 C 0.872157 0.31894 0.212291
H16 H 0.896402 0.279115 0.242776
C36 C 0.787203 0.26188 0.136422
C37 C 0.754077 0.322945 0.093605
H17 H 0.697288 0.286432 0.041795
C38 C 0.802619 0.436489 0.1253
H18 H 0.778201 0.476262 0.094853
C39 C 0.730695 0.135727 0.103594
C40 C 0.6577 0.092932 0.014289
H19 H 0.626086 0.012819 -0.005421
H20 H 0.706108 0.12814 -0.013362
H21 H 0.594771 0.110791 0.005209
C41 C 0.822949 0.099035 0.112325
H22 H 0.86867 0.119246 0.168201
H23 H 0.873087 0.135584 0.086089
H24 H 0.785807 0.018919 0.088243
C42 C 0.65296 0.08558 0.144955
H25 H 0.698249 0.109174 0.201299
H26 H 0.615135 0.005003 0.123634
H27 H 0.594815 0.10987 0.136898
C43 C 1.16873 0.955161 0.45538
C44 C 1.25467 1.00562 0.427963
H28 H 1.26341 0.962158 0.387975
C45 C 1.328 1.11893 0.458378
H29 H 1.3857 1.15141 0.438442
C46 C 1.31884 1.18595 0.517412
C47 C 1.23561 1.1342 0.547161
H30 H 1.22911 1.17716 0.588782
C48 C 1.16235 1.02124 0.516972
H31 H 1.10691 0.988193 0.538499
C49 C 1.39362 1.31198 0.548161
C50 C 1.47962 1.35299 0.508004
H32 H 1.52902 1.31862 0.516508
H33 H 1.52691 1.43331 0.53047
H34 H 1.43761 1.3331 0.451503
C51 C 1.31465 1.36296 0.529732
H35 H 1.2721 1.33769 0.472836
H36 H 1.36075 1.44352 0.548514
H37 H 1.26049 1.34034 0.556035
C52 C 1.46288 1.34956 0.636518
H38 H 1.41033 1.33128 0.664311
H39 H 1.51373 1.42947 0.655231
H40 H 1.50891 1.312 0.646563
C53 C 1.15103 1.0345 0.136462
C54 C 1.19168 1.08456 0.096957
C55 C 1.2387 1.14008 0.046874
C56 C 1.35501 1.18076 0.060462
H41 H 1.40419 1.17559 0.104745
C57 C 1.39891 1.22887 0.009199
H42 H 1.47823 1.25645 0.019101
C58 C 1.32894 1.23745 -0.056405
C59 C 1.21349 1.19767 -0.068055
H43 H 1.16434 1.20368 -0.111877
C60 C 1.16845 1.14969 -0.017598
H44 H 1.08939 1.12329 -0.027067
C61 C 1.37417 1.2878 -0.114767
C62 C 1.49782 1.31279 -0.097596
H45 H 1.54767 1.36968 -0.046336
H46 H 1.52178 1.33918 -0.138475
H47 H 1.5036 1.24559 -0.096923
C63 C 1.36972 1.39535 -0.107511
H48 H 1.40969 1.44223 -0.052425
H49 H 1.28953 1.37963 -0.125841
H50 H 1.40707 1.43352 -0.139589
C64 C 1.30107 1.2085 -0.197397
H51 H 1.33933 1.23342 -0.23297
H52 H 1.22616 1.206 -0.214457
H53 H 1.29038 1.13472 -0.19828
C65 C 0.814571 0.436458 0.517959
C66 C 0.78418 0.380898 0.558078
C67 C 0.736243 0.308018 0.599474
C68 C 0.772008 0.340623 0.680975
H54 H 0.834069 0.412148 0.711544
C69 C 0.717846 0.269601 0.718104
H55 H 0.744927 0.293264 0.773849
C70 C 0.625275 0.165038 0.676027
C71 C 0.591043 0.132441 0.594233
H56 H 0.528717 0.061047 0.563677
C72 C 0.645772 0.201682 0.556727
H57 H 0.621454 0.176516 0.501177
C73 C 0.559604 0.087013 0.714811
C74 C 0.608422 0.136359 0.803736
H58 H 0.689339 0.154702 0.824748
H59 H 0.565388 0.082811 0.825918
H60 H 0.602019 0.203381 0.81788
C75 C 0.564921 -0.021468 0.694837
H61 H 0.531732 -0.055956 0.637686
H62 H 0.521359 -0.071663 0.71874
H63 H 0.64505 -0.00571 0.715395
C76 C 0.434604 0.062213 0.682557
H64 H 0.430629 0.130352 0.698026
H65 H 0.389973 0.008348 0.703852
H66 H 0.403039 0.032032 0.625106
C77 C 0.191963 0.403966 0.100217
H67 H 0.166936 0.343604 0.051303
Cl1 Cl 0.084397 0.363785 0.139415
Cl2 Cl 0.322477 0.426757 0.166022
Cl3 Cl 0.207091 0.524147 0.075043
loop_
_geom_bond_atom_site_label_1
_geom_bond_atom_site_label_2
_geom_bond_site_symmetry_1
_geom_bond_site_symmetry_2
C1 C2 1_555 1_555
C2 C3 1_555 1_555
C3 H1 1_555 1_555
C4 C3 1_555 1_555
H2 C4 1_555 1_555
C5 C4 1_555 1_555
H3 C5 1_555 1_555
C6 C5 1_555 1_555
H4 C6 1_555 1_555
C7 C2 1_555 1_555
C8 C7 1_555 1_555
C9 C8 1_555 1_555
C10 C9 1_555 1_555
C11 C10 1_555 1_555
H5 C11 1_555 1_555
C12 C11 1_555 1_555
H6 C12 1_555 1_555
C13 C12 1_555 1_555
H7 C13 1_555 1_555
C14 C1 1_555 1_555
C15 C10 1_555 1_555
C16 C15 1_555 1_555
C17 C8 1_555 1_555
C18 C17 1_555 1_555
C19 C18 1_555 1_555
C20 C19 1_555 1_555
C21 C16 1_555 1_555
C22 C21 1_555 1_555
C23 C22 1_555 1_555
H8 C23 1_555 1_555
C24 C23 1_555 1_555
H9 C24 1_555 1_555
C25 C24 1_555 1_555
H10 C25 1_555 1_555
C26 C25 1_555 1_555
H11 C26 1_555 1_555
C27 C22 1_555 1_555
C28 C27 1_555 1_555
C29 C20 1_555 1_555
C30 C29 1_555 1_555
H12 C30 1_555 1_555
C31 C30 1_555 1_555
H13 C31 1_555 1_555
C32 C19 1_555 1_555
H14 C32 1_555 1_555
C33 C15 1_555 1_555
C34 C33 1_555 1_555
H15 C34 1_555 1_555
C35 C34 1_555 1_555
H16 C35 1_555 1_555
C36 C35 1_555 1_555
C37 C36 1_555 1_555
H17 C37 1_555 1_555
C38 C33 1_555 1_555
H18 C38 1_555 1_555
C39 C36 1_555 1_555
C40 C39 1_555 1_555
H19 C40 1_555 1_555
H20 C40 1_555 1_555
H21 C40 1_555 1_555
C41 C39 1_555 1_555
H22 C41 1_555 1_555
H23 C41 1_555 1_555
H24 C41 1_555 1_555
C42 C39 1_555 1_555
H25 C42 1_555 1_555
H26 C42 1_555 1_555
H27 C42 1_555 1_555
C43 C18 1_555 1_555
C44 C43 1_555 1_555
H28 C44 1_555 1_555
C45 C44 1_555 1_555
H29 C45 1_555 1_555
C46 C45 1_555 1_555
C47 C46 1_555 1_555
H30 C47 1_555 1_555
C48 C43 1_555 1_555
H31 C48 1_555 1_555
C49 C46 1_555 1_555
C50 C49 1_555 1_555
H32 C50 1_555 1_555
H33 C50 1_555 1_555
H34 C50 1_555 1_555
C51 C49 1_555 1_555
H35 C51 1_555 1_555
H36 C51 1_555 1_555
H37 C51 1_555 1_555
C52 C49 1_555 1_555
H38 C52 1_555 1_555
H39 C52 1_555 1_555
H40 C52 1_555 1_555
C53 C1 1_555 1_555
C54 C53 1_555 1_555
C55 C54 1_555 1_555
C56 C55 1_555 1_555
H41 C56 1_555 1_555
C57 C56 1_555 1_555
H42 C57 1_555 1_555
C58 C57 1_555 1_555
C59 C58 1_555 1_555
H43 C59 1_555 1_555
C60 C55 1_555 1_555
H44 C60 1_555 1_555
C61 C58 1_555 1_555
C62 C61 1_555 1_555
H45 C62 1_555 1_555
H46 C62 1_555 1_555
H47 C62 1_555 1_555
C63 C61 1_555 1_555
H48 C63 1_555 1_555
H49 C63 1_555 1_555
H50 C63 1_555 1_555
C64 C61 1_555 1_555
H51 C64 1_555 1_555
H52 C64 1_555 1_555
H53 C64 1_555 1_555
C65 C28 1_555 1_555
C66 C65 1_555 1_555
C67 C66 1_555 1_555
C68 C67 1_555 1_555
H54 C68 1_555 1_555
C69 C68 1_555 1_555
H55 C69 1_555 1_555
C70 C69 1_555 1_555
C71 C70 1_555 1_555
H56 C71 1_555 1_555
C72 C67 1_555 1_555
H57 C72 1_555 1_555
C73 C70 1_555 1_555
C74 C73 1_555 1_555
H58 C74 1_555 1_555
H59 C74 1_555 1_555
H60 C74 1_555 1_555
C75 C73 1_555 1_555
H61 C75 1_555 1_555
H62 C75 1_555 1_555
H63 C75 1_555 1_555
C76 C73 1_555 1_555
H64 C76 1_555 1_555
H65 C76 1_555 1_555
H66 C76 1_555 1_555
C77 H67 1_555 1_555
Cl1 C77 1_555 1_555
Cl2 C77 1_555 1_555
Cl3 C77 1_555 1_555
C6 C7 1_555 1_555
C9 C14 1_555 1_555
C13 C14 1_555 1_555
C16 C17 1_555 1_555
C20 C21 1_555 1_555
C26 C27 1_555 1_555
C28 C29 1_555 1_555
C31 C32 1_555 1_555
C37 C38 1_555 1_555
C47 C48 1_555 1_555
C59 C60 1_555 1_555
C71 C72 1_555 1_555

#END
