
#######################################################################
#
#                 Cambridge Crystallographic Data Centre
#                                CCDC 
#
#######################################################################
#
# If this CIF has been generated from an entry in the Cambridge 
# Structural Database, then it will include bibliographic, chemical, 
# crystal, experimental, refinement or atomic coordinate data resulting 
# from the CCDC's data processing and validation procedures.
#
#######################################################################

data_MOLKUU
_chemical_formula_moiety         'C11 H16 O3'
_chemical_name_systematic        
'(2SR,4aSR,8aSR)-6-oxoperhydronaphthalene-2-carboxylic acid'
_symmetry_cell_setting           monoclinic
_symmetry_space_group_name_H-M   'P 21/n'
_symmetry_Int_Tables_number      14
_space_group_name_Hall           '-P 2yn'
loop_
_symmetry_equiv_pos_site_id
_symmetry_equiv_pos_as_xyz
1 x,y,z
2 1/2-x,1/2+y,1/2-z
3 -x,-y,-z
4 1/2+x,1/2-y,1/2+z
_cell_length_a                   5.35680(10)
_cell_length_b                   22.3758(2)
_cell_length_c                   8.33760(10)
_cell_angle_alpha                90
_cell_angle_beta                 99.5930(10)
_cell_angle_gamma                90
_cell_volume                     985.392
_exptl_crystal_colour            colorless
_exptl_crystal_description       plate
_chemical_melting_point          '399 K'
_cell_formula_units_Z            4
_exptl_crystal_recrystallization_method 'methyl pivalate'
loop_
_atom_site_label
_atom_site_type_symbol
_atom_site_fract_x
_atom_site_fract_y
_atom_site_fract_z
C1 C 1.0882(2) 0.57235(6) 0.84872(15)
H1 H 1.1496 0.5305 0.8541
H2 H 0.9463 0.5749 0.9108
O1 O 1.1205(2) 0.70766(5) 1.31469(12)
O2 O 0.62595(18) 0.52821(4) 0.67302(11)
C2 C 0.9937(2) 0.58935(6) 0.67109(15)
H3 H 1.1366 0.5844 0.6088
O3 O 0.76368(19) 0.54230(4) 0.43725(11)
H4 H 0.636(4) 0.5206(8) 0.403(2)
C3 C 0.9059(3) 0.65526(6) 0.65699(15)
H5 H 0.8545 0.6660 0.5410
H6 H 0.7576 0.6606 0.7123
C4 C 1.1206(3) 0.69626(6) 0.73474(16)
H7 H 1.0582 0.7380 0.7307
H8 H 1.2600 0.6943 0.6705
C5 C 1.2244(3) 0.67983(6) 0.91180(15)
H9 H 1.3801 0.7043 0.9468
C6 C 1.0342(3) 0.69538(6) 1.02598(16)
H10 H 1.0079 0.7392 1.0253
H11 H 0.8694 0.6763 0.9842
C7 C 1.1230(3) 0.67503(6) 1.19831(16)
C8 C 1.2161(3) 0.61130(6) 1.21789(16)
H12 H 1.0700 0.5837 1.1948
H13 H 1.2991 0.6047 1.3318
C9 C 1.4047(3) 0.59715(6) 1.10296(16)
H14 H 1.5640 0.6193 1.1397
H15 H 1.4443 0.5539 1.1091
C10 C 1.3030(2) 0.61380(6) 0.92609(15)
H16 H 1.4454 0.6086 0.8635
C11 C 0.7790(2) 0.54990(6) 0.59572(15)
loop_
_geom_bond_atom_site_label_1
_geom_bond_atom_site_label_2
_geom_bond_site_symmetry_1
_geom_bond_site_symmetry_2
C1 H1 1_555 1_555
H2 C1 1_555 1_555
O1 C7 1_555 1_555
O2 C11 1_555 1_555
C2 C1 1_555 1_555
H3 C2 1_555 1_555
O3 H4 1_555 1_555
C3 C2 1_555 1_555
H5 C3 1_555 1_555
H6 C3 1_555 1_555
C4 C3 1_555 1_555
H7 C4 1_555 1_555
H8 C4 1_555 1_555
C5 C4 1_555 1_555
H9 C5 1_555 1_555
C6 C5 1_555 1_555
H10 C6 1_555 1_555
H11 C6 1_555 1_555
C7 C6 1_555 1_555
C8 C7 1_555 1_555
H12 C8 1_555 1_555
H13 C8 1_555 1_555
C9 C8 1_555 1_555
H14 C9 1_555 1_555
H15 C9 1_555 1_555
C10 C1 1_555 1_555
H16 C10 1_555 1_555
C11 C2 1_555 1_555
O3 C11 1_555 1_555
C5 C10 1_555 1_555
C9 C10 1_555 1_555

#END
