
#######################################################################
#
#                 Cambridge Crystallographic Data Centre
#                                CCDC 
#
#######################################################################
#
# If this CIF has been generated from an entry in the Cambridge 
# Structural Database, then it will include bibliographic, chemical, 
# crystal, experimental, refinement or atomic coordinate data resulting 
# from the CCDC's data processing and validation procedures.
#
#######################################################################

data_MOLKUT
_chemical_formula_moiety         'C20 H21 N1 O3 S1'
_chemical_name_systematic        
N-Benzyl-5-methyl-3-p-tosyl-1,2,3,4-tetrahydropyridin-2-one
_symmetry_cell_setting           triclinic
_symmetry_space_group_name_H-M   'P -1'
_symmetry_Int_Tables_number      2
_space_group_name_Hall           '-P 1'
loop_
_symmetry_equiv_pos_site_id
_symmetry_equiv_pos_as_xyz
1 x,y,z
2 -x,-y,-z
_cell_length_a                   8.532(2)
_cell_length_b                   10.503(3)
_cell_length_c                   10.944(2)
_cell_angle_alpha                96.26(2)
_cell_angle_beta                 99.56(2)
_cell_angle_gamma                108.41(2)
_cell_volume                     903.824
_exptl_crystal_colour            colorless
_exptl_crystal_description       prism
_cell_formula_units_Z            2
loop_
_atom_site_label
_atom_site_type_symbol
_atom_site_fract_x
_atom_site_fract_y
_atom_site_fract_z
S1 S 0.63830(6) 0.70641(4) 0.83006(4)
O1 O 0.3116(2) 0.4226(1) 0.8216(1)
O2 O 0.5708(2) 0.7025(2) 0.6998(1)
O3 O 0.8125(2) 0.7855(1) 0.8814(2)
N1 N 0.4399(2) 0.3818(1) 0.6630(1)
C1 C 0.4396(2) 0.4398(2) 0.7806(2)
C2 C 0.6103(2) 0.5331(2) 0.8569(1)
C3 C 0.7595(2) 0.4916(2) 0.8304(2)
C4 C 0.7430(2) 0.4483(2) 0.6930(2)
C5 C 0.5904(2) 0.3983(2) 0.6189(2)
C6 C 0.2788(2) 0.2961(2) 0.5793(2)
C7 C 0.2362(2) 0.1470(2) 0.5878(2)
C8 C 0.1300(2) 0.0887(2) 0.6638(2)
C9 C 0.0928(3) -0.0483(3) 0.6729(2)
C10 C 0.1616(3) -0.1260(2) 0.6053(2)
C11 C 0.2669(3) -0.0689(2) 0.5280(2)
C12 C 0.3034(2) 0.0663(2) 0.5188(2)
C13 C 0.5123(2) 0.7620(2) 0.9204(2)
C14 C 0.5806(2) 0.8246(2) 1.0443(2)
C15 C 0.4797(3) 0.8664(2) 1.1146(2)
C16 C 0.3137(3) 0.8467(2) 1.0647(2)
C17 C 0.2479(3) 0.7849(2) 0.9389(2)
C18 C 0.3456(3) 0.7427(2) 0.8670(2)
C19 C 0.2015(4) 0.8866(3) 1.1426(3)
C20 C 0.9012(3) 0.4621(3) 0.6447(3)
H1 H 0.6084 0.5317 0.9433
H2 H 0.8611 0.5670 0.8613
H3 H 0.7642 0.4180 0.8725
H4 H 0.5817 0.3723 0.5314
H5 H 0.1912 0.3255 0.6015
H6 H 0.2858 0.3070 0.4951
H7 H 0.0817 0.1426 0.7103
H8 H 0.0199 -0.0878 0.7257
H9 H 0.1369 -0.2194 0.6117
H10 H 0.3141 -0.1233 0.4810
H11 H 0.3750 0.1049 0.4649
H12 H 0.6952 0.8386 1.0805
H13 H 0.5265 0.9098 1.1996
H14 H 0.1337 0.7719 0.9024
H15 H 0.2994 0.7006 0.7815
H16 H 0.2646 0.9264 1.2256
H17 H 0.1592 0.9503 1.1060
H18 H 0.1095 0.8078 1.1455
H19 H 0.8979 0.3748 0.6081
H20 H 0.9089 0.5196 0.5831
H21 H 0.9967 0.5006 0.7124
loop_
_geom_bond_atom_site_label_1
_geom_bond_atom_site_label_2
_geom_bond_site_symmetry_1
_geom_bond_site_symmetry_2
S1 O2 1_555 1_555
O1 C1 1_555 1_555
O3 S1 1_555 1_555
N1 C1 1_555 1_555
C1 C2 1_555 1_555
C2 S1 1_555 1_555
C3 C2 1_555 1_555
C4 C3 1_555 1_555
C5 N1 1_555 1_555
C6 N1 1_555 1_555
C7 C6 1_555 1_555
C8 C7 1_555 1_555
C9 C8 1_555 1_555
C10 C9 1_555 1_555
C11 C10 1_555 1_555
C12 C7 1_555 1_555
C13 S1 1_555 1_555
C14 C13 1_555 1_555
C15 C14 1_555 1_555
C16 C15 1_555 1_555
C17 C16 1_555 1_555
C18 C13 1_555 1_555
C19 C16 1_555 1_555
C20 C4 1_555 1_555
H1 C2 1_555 1_555
H2 C3 1_555 1_555
H3 C3 1_555 1_555
H4 C5 1_555 1_555
H5 C6 1_555 1_555
H6 C6 1_555 1_555
H7 C8 1_555 1_555
H8 C9 1_555 1_555
H9 C10 1_555 1_555
H10 C11 1_555 1_555
H11 C12 1_555 1_555
H12 C14 1_555 1_555
H13 C15 1_555 1_555
H14 C17 1_555 1_555
H15 C18 1_555 1_555
H16 C19 1_555 1_555
H17 C19 1_555 1_555
H18 C19 1_555 1_555
H19 C20 1_555 1_555
H20 C20 1_555 1_555
H21 C20 1_555 1_555
C4 C5 1_555 1_555
C11 C12 1_555 1_555
C17 C18 1_555 1_555

#END
