
#######################################################################
#
#                 Cambridge Crystallographic Data Centre
#                                CCDC 
#
#######################################################################
#
# If this CIF has been generated from an entry in the Cambridge 
# Structural Database, then it will include bibliographic, chemical, 
# crystal, experimental, refinement or atomic coordinate data resulting 
# from the CCDC's data processing and validation procedures.
#
#######################################################################

data_MOLQAH
_chemical_compound_source        'fungus Penicillium brocae MA-231'
_chemical_name_common            'Brocazine E'
_chemical_formula_moiety         'C18 H20 N2 O6 S2'
_chemical_name_systematic        
5,8,15,18-tetrahydroxy-21,22-dithia-3,13-diazahexacyclo[9.9.2.0^1,13^.0^3,11^.0^4,9^.0^14,19^]docosa-6,16-diene-2,12-dione
_chemical_properties_biological  'cytotoxic activity'
_symmetry_cell_setting           monoclinic
_symmetry_space_group_name_H-M   'C 2'
_symmetry_Int_Tables_number      5
_space_group_name_Hall           'C 2y'
loop_
_symmetry_equiv_pos_site_id
_symmetry_equiv_pos_as_xyz
1 x,y,z
2 -x,y,-z
3 1/2+x,1/2+y,z
4 1/2-x,1/2+y,-z
_cell_length_a                   16.7824(11)
_cell_length_b                   8.1768(4)
_cell_length_c                   7.5091(3)
_cell_angle_alpha                90
_cell_angle_beta                 107.502(2)
_cell_angle_gamma                90
_cell_volume                     982.743
_chemical_melting_point          '240-242 deg.C'
_cell_formula_units_Z            2
loop_
_atom_site_label
_atom_site_type_symbol
_atom_site_fract_x
_atom_site_fract_y
_atom_site_fract_z
N1 N 0.5851(2) 0.3163(7) 0.5323(6)
O1 O 0.5612(2) 0.3733(7) 0.2253(6)
O2 O 0.7286(2) 0.3974(6) 0.3453(6)
H1 H 0.6794 0.4182 0.2913
O3 O 0.8072(2) 0.2541(6) 1.0973(6)
H2 H 0.7917 0.2961 1.1804
S1 S 0.52976(9) 0.0286(3) 0.6430(2)
C1 C 0.5374(3) 0.3230(9) 0.3532(7)
C2 C 0.5495(3) 0.2528(9) 0.6744(7)
C3 C 0.6150(3) 0.2891(9) 0.8577(8)
H3 H 0.6138 0.2093 0.9524
H4 H 0.6080 0.3978 0.9026
C4 C 0.6962(3) 0.2761(8) 0.8023(7)
H5 H 0.7061 0.1603 0.7827
C5 C 0.6738(3) 0.3620(8) 0.6132(7)
H6 H 0.6785 0.4807 0.6317
C6 C 0.7342(3) 0.3053(8) 0.5100(7)
H7 H 0.7250 0.1891 0.4784
C7 C 0.8210(3) 0.3297(9) 0.6423(9)
H8 H 0.8648 0.3345 0.5904
C8 C 0.8399(4) 0.3446(10) 0.8232(10)
H9 H 0.8961 0.3538 0.8912
C9 C 0.7764(3) 0.3478(9) 0.9294(8)
H10 H 0.7667 0.4610 0.9606
N1A N 0.4149(2) 0.3163(7) 0.4677(6)
O1A O 0.4388(2) 0.3733(7) 0.7747(6)
O2A O 0.2714(2) 0.3974(6) 0.6547(6)
H1A H 0.3206 0.4182 0.7087
O3A O 0.1928(2) 0.2541(6) -0.0973(6)
H2A H 0.2083 0.2961 -0.1804
S1A S 0.47024(9) 0.0286(3) 0.3570(2)
C1A C 0.4626(3) 0.3230(9) 0.6468(7)
C2A C 0.4505(3) 0.2528(9) 0.3256(7)
C3A C 0.3850(3) 0.2891(9) 0.1423(8)
H3A H 0.3862 0.2093 0.0476
H4A H 0.3920 0.3978 0.0974
C4A C 0.3038(3) 0.2761(8) 0.1977(7)
H5A H 0.2939 0.1603 0.2173
C5A C 0.3262(3) 0.3620(8) 0.3868(7)
H6A H 0.3215 0.4807 0.3683
C6A C 0.2658(3) 0.3053(8) 0.4900(7)
H7A H 0.2750 0.1891 0.5216
C7A C 0.1790(3) 0.3297(9) 0.3577(9)
H8A H 0.1352 0.3345 0.4096
C8A C 0.1601(4) 0.3446(10) 0.1768(10)
H9A H 0.1039 0.3538 0.1088
C9A C 0.2236(3) 0.3478(9) 0.0706(8)
H10A H 0.2333 0.4610 0.0394
loop_
_geom_bond_atom_site_label_1
_geom_bond_atom_site_label_2
_geom_bond_site_symmetry_1
_geom_bond_site_symmetry_2
N1 C1 1_555 1_555
O1 C1 1_555 1_555
O2 H1 1_555 1_555
O3 H2 1_555 1_555
S1 C2 1_555 1_555
C1 C2A 1_555 1_555
C2 N1 1_555 1_555
C3 C2 1_555 1_555
H3 C3 1_555 1_555
H4 C3 1_555 1_555
C4 C3 1_555 1_555
H5 C4 1_555 1_555
C5 N1 1_555 1_555
H6 C5 1_555 1_555
C6 O2 1_555 1_555
H7 C6 1_555 1_555
C7 C6 1_555 1_555
H8 C7 1_555 1_555
C8 C7 1_555 1_555
H9 C8 1_555 1_555
C9 O3 1_555 1_555
H10 C9 1_555 1_555
N1A C1A 1_555 1_555
O1A C1A 1_555 1_555
O2A H1A 1_555 1_555
O3A H2A 1_555 1_555
S1A S1 1_555 1_555
C1A C2 1_555 1_555
C2A N1A 1_555 1_555
C3A C2A 1_555 1_555
H3A C3A 1_555 1_555
H4A C3A 1_555 1_555
C4A C3A 1_555 1_555
H5A C4A 1_555 1_555
C5A N1A 1_555 1_555
H6A C5A 1_555 1_555
C6A O2A 1_555 1_555
H7A C6A 1_555 1_555
C7A C6A 1_555 1_555
H8A C7A 1_555 1_555
C8A C7A 1_555 1_555
H9A C8A 1_555 1_555
C9A O3A 1_555 1_555
H10A C9A 1_555 1_555
C4 C5 1_555 1_555
C4 C9 1_555 1_555
C5 C6 1_555 1_555
C8 C9 1_555 1_555
S1A C2A 1_555 1_555
C4A C5A 1_555 1_555
C4A C9A 1_555 1_555
C5A C6A 1_555 1_555
C8A C9A 1_555 1_555

#END
