
#######################################################################
#
#                 Cambridge Crystallographic Data Centre
#                                CCDC 
#
#######################################################################
#
# If this CIF has been generated from an entry in the Cambridge 
# Structural Database, then it will include bibliographic, chemical, 
# crystal, experimental, refinement or atomic coordinate data resulting 
# from the CCDC's data processing and validation procedures.
#
#######################################################################

data_MOLTUE
_chemical_formula_moiety         'C7 H7 Cl2 N1 O1'
_chemical_name_systematic        
6-(dichloromethylene)-3a,4,5,6-tetrahydro-3H-cyclopenta[c][1,2]oxazole
_symmetry_cell_setting           triclinic
_symmetry_space_group_name_H-M   'P -1'
_symmetry_Int_Tables_number      2
_space_group_name_Hall           '-P 1'
loop_
_symmetry_equiv_pos_site_id
_symmetry_equiv_pos_as_xyz
1 x,y,z
2 -x,-y,-z
_cell_length_a                   7.5070(18)
_cell_length_b                   7.670(2)
_cell_length_c                   8.786(3)
_cell_angle_alpha                90.53(2)
_cell_angle_beta                 114.04(3)
_cell_angle_gamma                118.45(3)
_cell_volume                     392.974
_exptl_crystal_colour            colorless
_exptl_crystal_description       plate
_cell_formula_units_Z            2
loop_
_atom_site_label
_atom_site_type_symbol
_atom_site_fract_x
_atom_site_fract_y
_atom_site_fract_z
N1 N 0.6005(5) 0.2969(4) -0.0221(3)
O1 O 0.3863(4) 0.1125(4) -0.1294(3)
C1 C 0.2383(6) 0.0588(5) -0.0472(4)
H1 H 0.1542 -0.0908 -0.0589
H2 H 0.1261 0.1016 -0.0993
C2 C 0.4012(6) 0.1749(6) 0.1404(5)
H3 H 0.4419 0.0844 0.2092
C3 C 0.3718(6) 0.3103(6) 0.2428(5)
H4 H 0.2999 0.2347 0.3126
H5 H 0.2739 0.3567 0.1648
C4 C 0.6161(6) 0.4956(5) 0.3609(4)
H6 H 0.6136 0.6226 0.3748
H7 H 0.6816 0.4721 0.4760
C5 C 0.7546(6) 0.5110(5) 0.2689(4)
C6 C 0.6046(6) 0.3342(5) 0.1194(4)
C7 C 0.9721(6) 0.6529(5) 0.3200(4)
Cl1 Cl 1.12991(13) 0.84872(11) 0.50368(9)
Cl2 Cl 1.12091(12) 0.65709(11) 0.21275(9)
H8? H 0.2418 -0.0463 0.0165
H9? H 0.0780 0.0106 -0.1317
H10? H 0.3452 0.1888 0.2903
H11? H 0.2552 0.3423 0.2337
C8? C 0.357(2) 0.271(2) 0.0764(18)
H12? H 0.3155 0.3618 0.0090
loop_
_geom_bond_atom_site_label_1
_geom_bond_atom_site_label_2
_geom_bond_site_symmetry_1
_geom_bond_site_symmetry_2
N1 O1 1_555 1_555
O1 C1 1_555 1_555
C1 H1 1_555 1_555
H2 C1 1_555 1_555
C2 C1 1_555 1_555
H3 C2 1_555 1_555
C3 C2 1_555 1_555
H4 C3 1_555 1_555
H5 C3 1_555 1_555
C4 C3 1_555 1_555
H6 C4 1_555 1_555
H7 C4 1_555 1_555
C5 C4 1_555 1_555
C6 N1 1_555 1_555
C7 C5 1_555 1_555
Cl1 C7 1_555 1_555
Cl2 C7 1_555 1_555
C2 C6 1_555 1_555
C5 C6 1_555 1_555

#END
