
#######################################################################
#
#                 Cambridge Crystallographic Data Centre
#                                CCDC 
#
#######################################################################
#
# If this CIF has been generated from an entry in the Cambridge 
# Structural Database, then it will include bibliographic, chemical, 
# crystal, experimental, refinement or atomic coordinate data resulting 
# from the CCDC's data processing and validation procedures.
#
#######################################################################

data_MOLWAN01
_chemical_formula_moiety         'C42 H39 N5 O3 S1'
_chemical_name_systematic        
2-((3-(1,3-benzothiazol-2-yl)-2-hydroxybenzylidene)amino)-3',6'-bis(diethylamino)spiro[isoindole-1,9'-xanthen]-3(2H)-one
_symmetry_cell_setting           orthorhombic
_symmetry_space_group_name_H-M   'P b c n'
_symmetry_Int_Tables_number      60
_space_group_name_Hall           '-P 2n 2ab'
loop_
_symmetry_equiv_pos_site_id
_symmetry_equiv_pos_as_xyz
1 x,y,z
2 1/2-x,1/2-y,1/2+z
3 1/2+x,1/2-y,-z
4 -x,y,1/2-z
5 -x,-y,-z
6 1/2+x,1/2+y,1/2-z
7 1/2-x,1/2+y,z
8 x,-y,1/2+z
_cell_length_a                   31.381(2)
_cell_length_b                   12.5934(8)
_cell_length_c                   18.1882(16)
_cell_angle_alpha                90
_cell_angle_beta                 90
_cell_angle_gamma                90
_cell_volume                     7187.86
_exptl_crystal_colour            'light red'
_exptl_crystal_description       block
_cell_formula_units_Z            8
loop_
_atom_site_label
_atom_site_type_symbol
_atom_site_fract_x
_atom_site_fract_y
_atom_site_fract_z
S1 S 0.08165(4) 0.44065(9) -0.00344(8)
O1 O 0.08482(9) 0.6489(2) -0.04447(17)
O2 O 0.21475(8) 0.73007(19) -0.12210(15)
C1 C 0.15032(12) 0.5495(3) -0.2301(2)
N1 N 0.11022(9) 0.9149(2) -0.14052(17)
N2 N 0.09547(9) 0.8443(2) -0.08829(17)
C2 C 0.18166(11) 0.5924(3) -0.1843(2)
H1 H 0.2024 0.5485 -0.1642
C3 C 0.18763(11) 0.9100(3) -0.1208(2)
C4 C 0.04759(11) 0.7991(3) 0.0079(2)
C5 C 0.18189(11) 0.6998(3) -0.16881(19)
C6 C 0.15307(11) 0.7712(3) -0.19666(19)
N3 N 0.28078(11) 0.9662(3) 0.04359(19)
N4 N 0.14924(11) 0.4426(3) -0.24730(19)
C7 C 0.15231(10) 0.8871(3) -0.17480(19)
C8 C 0.06577(11) 0.8734(3) -0.0444(2)
H2 H 0.0558 0.9429 -0.0461
C9 C 0.21540(11) 0.8330(3) -0.0964(2)
C10 C 0.15129(11) 0.9621(3) -0.2404(2)
C11 C 0.24618(11) 0.8507(3) -0.0434(2)
H3 H 0.2638 0.7953 -0.0288
C12 C 0.08553(13) 0.9835(3) -0.1813(2)
C13 C 0.19365(12) 1.0099(3) -0.0899(2)
H4 H 0.1763 1.0654 -0.1055
C14 C 0.12026(11) 0.6207(3) -0.2593(2)
H5 H 0.0988 0.5955 -0.2900
C15 C 0.03714(11) 0.6194(3) 0.0537(2)
N5 N 0.02571(12) 0.4421(3) 0.1011(2)
O3 O 0.04915(9) 1.0101(2) -0.16701(17)
C16 C 0.28477(13) 1.0667(3) 0.0820(3)
H6 H 0.2921 1.0528 0.1329
H7 H 0.2574 1.1024 0.0815
C17 C 0.04534(12) 0.5044(3) 0.0542(2)
C18 C 0.22395(13) 1.0305(3) -0.0373(2)
H8 H 0.2266 1.0988 -0.0183
C19 C 0.25107(12) 0.9495(3) -0.0118(2)
C20 C 0.12219(11) 0.7266(3) -0.2433(2)
H9 H 0.1020 0.7714 -0.2643
C21 C 0.11282(12) 1.0157(3) -0.2439(2)
C22 C 0.11205(13) 0.3976(3) -0.2835(2)
H10 H 0.1194 0.3277 -0.3021
H11 H 0.1048 0.4418 -0.3254
C23 C 0.10311(13) 1.0846(3) -0.3006(2)
H12 H 0.0770 1.1194 -0.3024
C24 C 0.01863(12) 0.8359(3) 0.0595(2)
H13 H 0.0120 0.9078 0.0612
C25 C 0.00838(12) 0.6603(4) 0.1045(2)
H14 H -0.0053 0.6142 0.1368
C26 C 0.05700(11) 0.6894(3) 0.0049(2)
C27 C 0.13338(15) 1.0999(3) -0.3541(2)
H15 H 0.1277 1.1456 -0.3930
C28 C 0.18161(13) 0.9789(3) -0.2938(2)
H16 H 0.2078 0.9447 -0.2916
C29 C 0.30860(13) 0.8815(3) 0.0685(3)
H17 H 0.3341 0.9125 0.0898
H18 H 0.3172 0.8392 0.0265
C30 C 0.03931(15) 0.3385(4) 0.0931(3)
C31 C 0.06971(15) 0.3222(4) 0.0413(3)
C32 C 0.07168(18) 0.1380(4) 0.0739(3)
H19 H 0.0829 0.0700 0.0687
C33 C 0.08756(17) 0.2200(4) 0.0291(3)
H20 H 0.1084 0.2081 -0.0064
C34 C -0.00044(13) 0.7673(3) 0.1081(2)
H21 H -0.0193 0.7931 0.1433
C35 C 0.17211(14) 1.0482(3) -0.3510(2)
H22 H 0.1922 1.0599 -0.3877
C36 C 0.04106(19) 0.1543(5) 0.1240(3)
H23 H 0.0312 0.0967 0.1511
C37 C 0.28787(17) 0.8100(4) 0.1246(3)
H24 H 0.2608 0.7865 0.1064
H25 H 0.2838 0.8484 0.1696
H26 H 0.3058 0.7496 0.1335
C38 C 0.02351(17) 0.2527(4) 0.1368(3)
H27 H 0.0024 0.2629 0.1721
C39 C 0.31775(14) 1.1393(4) 0.0493(3)
H28 H 0.3104 1.1549 -0.0007
H29 H 0.3451 1.1053 0.0508
H30 H 0.3188 1.2041 0.0771
C40 C 0.07335(16) 0.3878(4) -0.2345(3)
H31 H 0.0505 0.3553 -0.2614
H32 H 0.0647 0.4571 -0.2183
H33 H 0.0803 0.3448 -0.1926
C41 C 0.1710(4) 0.3661(11) -0.1962(8)
H34 H 0.1887 0.4071 -0.1629
H35 H 0.1492 0.3320 -0.1668
C42 C 0.1969(4) 0.2850(10) -0.2275(7)
H36 H 0.1817 0.2512 -0.2669
H37 H 0.2037 0.2333 -0.1905
H38 H 0.2227 0.3157 -0.2461
H39 H 0.0934(16) 0.710(3) -0.074(3)
C43? C 0.1653(4) 0.3126(12) -0.1569(8)
H40? H 0.1425 0.2675 -0.1730
H41? H 0.1545 0.3633 -0.1221
H42? H 0.1870 0.2703 -0.1340
C44? C 0.1842(5) 0.3715(12) -0.2234(7)
H43? H 0.2092 0.4120 -0.2094
H44? H 0.1920 0.3222 -0.2622
loop_
_geom_bond_atom_site_label_1
_geom_bond_atom_site_label_2
_geom_bond_site_symmetry_1
_geom_bond_site_symmetry_2
S1 C17 1_555 1_555
O1 C26 1_555 1_555
O2 C5 1_555 1_555
C1 C2 1_555 1_555
N1 N2 1_555 1_555
N2 C8 1_555 1_555
C2 H1 1_555 1_555
C3 C7 1_555 1_555
C4 C8 1_555 1_555
C5 C2 1_555 1_555
C6 C5 1_555 1_555
N3 C16 1_555 1_555
N4 C1 1_555 1_555
C7 N1 1_555 1_555
C8 H2 1_555 1_555
C9 O2 1_555 1_555
C10 C7 1_555 1_555
C11 C9 1_555 1_555
H3 C11 1_555 1_555
C12 N1 1_555 1_555
C13 C3 1_555 1_555
H4 C13 1_555 1_555
C14 C1 1_555 1_555
H5 C14 1_555 1_555
C15 C17 1_555 1_555
N5 C17 1_555 1_555
O3 C12 1_555 1_555
C16 H6 1_555 1_555
H7 C16 1_555 1_555
C18 C13 1_555 1_555
H8 C18 1_555 1_555
C19 N3 1_555 1_555
C20 C6 1_555 1_555
H9 C20 1_555 1_555
C21 C10 1_555 1_555
C22 N4 1_555 1_555
H10 C22 1_555 1_555
H11 C22 1_555 1_555
C23 C21 1_555 1_555
H12 C23 1_555 1_555
C24 C4 1_555 1_555
H13 C24 1_555 1_555
C25 C15 1_555 1_555
H14 C25 1_555 1_555
C26 C4 1_555 1_555
C27 C23 1_555 1_555
H15 C27 1_555 1_555
C28 C10 1_555 1_555
H16 C28 1_555 1_555
C29 N3 1_555 1_555
H17 C29 1_555 1_555
H18 C29 1_555 1_555
C30 N5 1_555 1_555
C31 S1 1_555 1_555
C32 H19 1_555 1_555
C33 C31 1_555 1_555
H20 C33 1_555 1_555
C34 C24 1_555 1_555
H21 C34 1_555 1_555
C35 C27 1_555 1_555
H22 C35 1_555 1_555
C36 C32 1_555 1_555
H23 C36 1_555 1_555
C37 C29 1_555 1_555
H24 C37 1_555 1_555
H25 C37 1_555 1_555
H26 C37 1_555 1_555
C38 C30 1_555 1_555
H27 C38 1_555 1_555
C39 C16 1_555 1_555
H28 C39 1_555 1_555
H29 C39 1_555 1_555
H30 C39 1_555 1_555
C40 C22 1_555 1_555
H31 C40 1_555 1_555
H32 C40 1_555 1_555
H33 C40 1_555 1_555
C41 N4 1_555 1_555
H34 C41 1_555 1_555
H35 C41 1_555 1_555
C42 C41 1_555 1_555
H36 C42 1_555 1_555
H37 C42 1_555 1_555
H38 C42 1_555 1_555
H39 O1 1_555 1_555
C3 C9 1_555 1_555
C6 C7 1_555 1_555
C11 C19 1_555 1_555
C12 C21 1_555 1_555
C14 C20 1_555 1_555
C15 C26 1_555 1_555
C18 C19 1_555 1_555
C25 C34 1_555 1_555
C28 C35 1_555 1_555
C30 C31 1_555 1_555
C32 C33 1_555 1_555
C36 C38 1_555 1_555

#END
