
#######################################################################
#
#                 Cambridge Crystallographic Data Centre
#                                CCDC 
#
#######################################################################
#
# If this CIF has been generated from an entry in the Cambridge 
# Structural Database, then it will include bibliographic, chemical, 
# crystal, experimental, refinement or atomic coordinate data resulting 
# from the CCDC's data processing and validation procedures.
#
#######################################################################

data_MOMJUV
_chemical_formula_moiety         'C24 H17 N1 O3'
_chemical_name_systematic        
2-Ethyl-6-(2-naphthyloxy)-1H-benzo[de]isoquinoline-1,3(2H)-dione
_symmetry_cell_setting           orthorhombic
_symmetry_space_group_name_H-M   'P b c a'
_symmetry_Int_Tables_number      61
_space_group_name_Hall           '-P 2ac 2ab'
loop_
_symmetry_equiv_pos_site_id
_symmetry_equiv_pos_as_xyz
1 x,y,z
2 1/2-x,-y,1/2+z
3 1/2+x,1/2-y,-z
4 -x,1/2+y,1/2-z
5 -x,-y,-z
6 1/2+x,y,1/2-z
7 1/2-x,1/2+y,z
8 x,1/2-y,1/2+z
_cell_length_a                   11.7618(10)
_cell_length_b                   10.4957(9)
_cell_length_c                   29.307(3)
_cell_angle_alpha                90
_cell_angle_beta                 90
_cell_angle_gamma                90
_cell_volume                     3617.9
_cell_formula_units_Z            8
loop_
_atom_site_label
_atom_site_type_symbol
_atom_site_fract_x
_atom_site_fract_y
_atom_site_fract_z
C1 C 0.1494(8) 0.2034(9) 0.6455(3)
H1 H 0.2291 0.2137 0.6532
H2 H 0.1089 0.2828 0.6504
C2 C 0.0992(10) 0.1006(10) 0.6679(4)
H3 H 0.1006 0.1152 0.7002
H4 H 0.1405 0.0242 0.6609
H5 H 0.0219 0.0917 0.6579
C3 C 0.0449(3) 0.1750(3) 0.52072(13)
C4 C 0.2176(3) 0.0466(4) 0.52909(13)
C5 C 0.1319(3) 0.0780(3) 0.45390(13)
O1 O -0.0299(3) 0.2618(4) 0.58844(12)
O2 O 0.2105(3) -0.0196(3) 0.38980(10)
C6 C 0.1322(3) 0.1005(3) 0.50124(13)
C7 C 0.2192(4) -0.0001(4) 0.43569(13)
C8 C 0.2995(4) -0.0287(4) 0.51009(14)
H6 H 0.3556 -0.0639 0.5285
C9 C 0.0436(4) 0.1991(4) 0.57016(15)
C10 C 0.0459(4) 0.1330(4) 0.42689(14)
H7 H 0.0458 0.1202 0.3955
C11 C -0.0377(3) 0.2259(4) 0.49354(15)
H8 H -0.0950 0.2752 0.5065
C12 C -0.0373(4) 0.2050(4) 0.44667(15)
H9 H -0.0942 0.2403 0.4286
C13 C 0.2935(4) -0.0899(4) 0.36628(13)
C14 C 0.3000(4) -0.0535(4) 0.46284(15)
H10 H 0.3554 -0.1061 0.4503
C15 C 0.2582(4) -0.1925(4) 0.34337(13)
H11 H 0.1836 -0.2208 0.3461
C16 C 0.2175(4) 0.0697(5) 0.57808(15)
C17 C 0.4491(4) -0.2135(4) 0.31156(13)
C18 C 0.3360(3) -0.2573(4) 0.31491(13)
N1 N 0.1305(4) 0.1469(4) 0.59579(13)
O3 O 0.2890(3) 0.0251(5) 0.60360(12)
C19 C 0.4053(4) -0.0445(4) 0.36367(14)
H12 H 0.4270 0.0274 0.3800
C20 C 0.4819(4) -0.1068(4) 0.33689(14)
H13 H 0.5566 -0.0782 0.3355
C21 C 0.3025(4) -0.3653(5) 0.28933(16)
H14 H 0.2280 -0.3945 0.2910
C22 C 0.5248(4) -0.2793(6) 0.28281(17)
H15 H 0.5996 -0.2517 0.2802
C23 C 0.3782(6) -0.4257(6) 0.2625(2)
H16 H 0.3556 -0.4975 0.2463
C24 C 0.4894(6) -0.3826(7) 0.2588(2)
H17 H 0.5401 -0.4248 0.2396
loop_
_geom_bond_atom_site_label_1
_geom_bond_atom_site_label_2
_geom_bond_site_symmetry_1
_geom_bond_site_symmetry_2
C1 H1 1_555 1_555
H2 C1 1_555 1_555
C2 C1 1_555 1_555
H3 C2 1_555 1_555
H4 C2 1_555 1_555
H5 C2 1_555 1_555
C3 C6 1_555 1_555
C4 C6 1_555 1_555
C5 C6 1_555 1_555
O1 C9 1_555 1_555
O2 C7 1_555 1_555
C7 C5 1_555 1_555
C8 C4 1_555 1_555
H6 C8 1_555 1_555
C9 C3 1_555 1_555
C10 C5 1_555 1_555
H7 C10 1_555 1_555
C11 C3 1_555 1_555
H8 C11 1_555 1_555
C12 C10 1_555 1_555
H9 C12 1_555 1_555
C13 O2 1_555 1_555
C14 C7 1_555 1_555
H10 C14 1_555 1_555
C15 C13 1_555 1_555
H11 C15 1_555 1_555
C16 C4 1_555 1_555
C17 C18 1_555 1_555
C18 C15 1_555 1_555
N1 C1 1_555 1_555
O3 C16 1_555 1_555
C19 C13 1_555 1_555
H12 C19 1_555 1_555
C20 C17 1_555 1_555
H13 C20 1_555 1_555
C21 C18 1_555 1_555
H14 C21 1_555 1_555
C22 C17 1_555 1_555
H15 C22 1_555 1_555
C23 C21 1_555 1_555
H16 C23 1_555 1_555
C24 C22 1_555 1_555
H17 C24 1_555 1_555
C8 C14 1_555 1_555
C9 N1 1_555 1_555
C11 C12 1_555 1_555
C16 N1 1_555 1_555
C19 C20 1_555 1_555
C23 C24 1_555 1_555

#END
