
#######################################################################
#
#                 Cambridge Crystallographic Data Centre
#                                CCDC 
#
#######################################################################
#
# If this CIF has been generated from an entry in the Cambridge 
# Structural Database, then it will include bibliographic, chemical, 
# crystal, experimental, refinement or atomic coordinate data resulting 
# from the CCDC's data processing and validation procedures.
#
#######################################################################

data_MOMPAF01
_chemical_formula_moiety         'C34 H20'
_chemical_name_systematic        
1-ethynyl-4-(tris(4-ethynylphenyl)vinyl)benzene
_symmetry_cell_setting           monoclinic
_symmetry_space_group_name_H-M   'I 2'
_symmetry_Int_Tables_number      5
_space_group_name_Hall           'I 2y'
loop_
_symmetry_equiv_pos_site_id
_symmetry_equiv_pos_as_xyz
1 x,y,z
2 -x,y,-z
3 1/2+x,1/2+y,1/2+z
4 1/2-x,1/2+y,1/2-z
_cell_length_a                   11.177(3)
_cell_length_b                   8.834(3)
_cell_length_c                   12.887(4)
_cell_angle_alpha                90
_cell_angle_beta                 93.357(5)
_cell_angle_gamma                90
_cell_volume                     1270.25
_exptl_crystal_colour            yellow
_exptl_crystal_description       needle
_cell_formula_units_Z            2
loop_
_atom_site_label
_atom_site_type_symbol
_atom_site_fract_x
_atom_site_fract_y
_atom_site_fract_z
C1 C 0.0560(2) 0.5122(4) 0.4835(2)
C2 C 0.1644(3) 0.5087(4) 0.5583(2)
C3 C 0.1765(3) 0.4042(4) 0.6388(3)
H1 H 0.1187 0.3296 0.6450
C4 C 0.2735(3) 0.4102(4) 0.7096(3)
H2 H 0.2796 0.3393 0.7630
C5 C 0.3622(3) 0.5186(4) 0.7038(2)
C6 C 0.3523(3) 0.6196(4) 0.6223(3)
H3 H 0.4111 0.6930 0.6159
C7 C 0.2560(3) 0.6134(3) 0.5497(3)
H4 H 0.2526 0.6806 0.4940
C8 C 0.4562(3) 0.5307(5) 0.7832(3)
C9 C 0.5294(3) 0.5412(5) 0.8502(3)
H5 H 0.5882 0.5497 0.9039
C10 C 0.0836(2) 0.5222(4) 0.3717(2)
C11 C 0.1593(3) 0.4156(4) 0.3303(3)
H6 H 0.1941 0.3406 0.3728
C12 C 0.1829(3) 0.4207(4) 0.2259(3)
H7 H 0.2316 0.3472 0.1987
C13 C 0.1353(3) 0.5329(5) 0.1622(3)
C14 C 0.0640(3) 0.6425(4) 0.2042(3)
H8 H 0.0333 0.7210 0.1625
C15 C 0.0379(2) 0.6360(4) 0.3081(2)
H9 H -0.0111 0.7096 0.3350
C16 C 0.1632(3) 0.5396(5) 0.0545(3)
C17 C 0.1867(3) 0.5497(5) -0.0318(3)
H10 H 0.2056 0.5578 -0.1010
C1A C -0.0560(2) 0.5122(4) 0.5165(2)
C2A C -0.1644(3) 0.5087(4) 0.4417(2)
C3A C -0.1765(3) 0.4042(4) 0.3612(3)
H1A H -0.1187 0.3296 0.3550
C4A C -0.2735(3) 0.4102(4) 0.2904(3)
H2A H -0.2796 0.3393 0.2370
C5A C -0.3622(3) 0.5186(4) 0.2962(2)
C6A C -0.3523(3) 0.6196(4) 0.3777(3)
H3A H -0.4111 0.6930 0.3841
C7A C -0.2560(3) 0.6134(3) 0.4503(3)
H4A H -0.2526 0.6806 0.5060
C8A C -0.4562(3) 0.5307(5) 0.2168(3)
C9A C -0.5294(3) 0.5412(5) 0.1498(3)
H5A H -0.5882 0.5497 0.0961
C10A C -0.0836(2) 0.5222(4) 0.6283(2)
C11A C -0.1593(3) 0.4156(4) 0.6697(3)
H6A H -0.1941 0.3406 0.6272
C12A C -0.1829(3) 0.4207(4) 0.7741(3)
H7A H -0.2316 0.3472 0.8013
C13A C -0.1353(3) 0.5329(5) 0.8378(3)
C14A C -0.0640(3) 0.6425(4) 0.7958(3)
H8A H -0.0333 0.7210 0.8375
C15A C -0.0379(2) 0.6360(4) 0.6919(2)
H9A H 0.0111 0.7096 0.6650
C16A C -0.1632(3) 0.5396(5) 0.9455(3)
C17A C -0.1867(3) 0.5497(5) 1.0318(3)
H10A H -0.2056 0.5578 1.1010
loop_
_geom_bond_atom_site_label_1
_geom_bond_atom_site_label_2
_geom_bond_site_symmetry_1
_geom_bond_site_symmetry_2
C1 C2 1_555 1_555
C2 C3 1_555 1_555
C3 H1 1_555 1_555
C4 C3 1_555 1_555
H2 C4 1_555 1_555
C5 C4 1_555 1_555
C6 C5 1_555 1_555
H3 C6 1_555 1_555
C7 C2 1_555 1_555
H4 C7 1_555 1_555
C8 C5 1_555 1_555
C9 C8 1_555 1_555
H5 C9 1_555 1_555
C10 C1 1_555 1_555
C11 C10 1_555 1_555
H6 C11 1_555 1_555
C12 C11 1_555 1_555
H7 C12 1_555 1_555
C13 C12 1_555 1_555
C14 C13 1_555 1_555
H8 C14 1_555 1_555
C15 C10 1_555 1_555
H9 C15 1_555 1_555
C16 C13 1_555 1_555
C17 C16 1_555 1_555
H10 C17 1_555 1_555
C1A C1 1_555 1_555
C2A C1A 1_555 1_555
C3A C2A 1_555 1_555
H1A C3A 1_555 1_555
C4A C3A 1_555 1_555
H2A C4A 1_555 1_555
C5A C4A 1_555 1_555
C6A C5A 1_555 1_555
H3A C6A 1_555 1_555
C7A C2A 1_555 1_555
H4A C7A 1_555 1_555
C8A C5A 1_555 1_555
C9A C8A 1_555 1_555
H5A C9A 1_555 1_555
C10A C1A 1_555 1_555
C11A C10A 1_555 1_555
H6A C11A 1_555 1_555
C12A C11A 1_555 1_555
H7A C12A 1_555 1_555
C13A C12A 1_555 1_555
C14A C13A 1_555 1_555
H8A C14A 1_555 1_555
C15A C10A 1_555 1_555
H9A C15A 1_555 1_555
C16A C13A 1_555 1_555
C17A C16A 1_555 1_555
H10A C17A 1_555 1_555
C6 C7 1_555 1_555
C14 C15 1_555 1_555
C6A C7A 1_555 1_555
C14A C15A 1_555 1_555

#END
