
#######################################################################
#
#                 Cambridge Crystallographic Data Centre
#                                CCDC 
#
#######################################################################
#
# If this CIF has been generated from an entry in the Cambridge 
# Structural Database, then it will include bibliographic, chemical, 
# crystal, experimental, refinement or atomic coordinate data resulting 
# from the CCDC's data processing and validation procedures.
#
#######################################################################

data_MOMPIP
_chemical_formula_moiety         'C24 H25 N3 O2'
_chemical_name_systematic        
'ethyl cyano(3-(2-(4-(1H-imidazol-1-yl)phenyl)vinyl)-5,5-dimethylcyclohex-2-en-1-ylidene)acetate'
_symmetry_cell_setting           triclinic
_symmetry_space_group_name_H-M   'P -1'
_symmetry_Int_Tables_number      2
_space_group_name_Hall           '-P 1'
loop_
_symmetry_equiv_pos_site_id
_symmetry_equiv_pos_as_xyz
1 x,y,z
2 -x,-y,-z
_cell_length_a                   7.516(5)
_cell_length_b                   8.738(5)
_cell_length_c                   16.992(5)
_cell_angle_alpha                98.617(5)
_cell_angle_beta                 97.284(5)
_cell_angle_gamma                97.346(5)
_cell_volume                     1082.11
_exptl_crystal_colour            yellow
_exptl_crystal_description       block
_cell_formula_units_Z            2
loop_
_atom_site_label
_atom_site_type_symbol
_atom_site_fract_x
_atom_site_fract_y
_atom_site_fract_z
N1 N 0.2549(3) -0.7437(3) -0.02315(12)
C1 C 0.3776(3) 0.1064(3) 0.24675(14)
C2 C 0.3886(3) -0.3061(3) 0.13216(13)
C3 C 0.4324(3) -0.1583(3) 0.18780(14)
H1 H 0.5400 -0.1434 0.2235
C4 C 0.4710(3) -0.4345(3) 0.14719(15)
H2 H 0.5579 -0.4233 0.1926
C5 C 0.3017(3) -0.5967(3) 0.02882(14)
C6 C 0.3331(3) -0.0421(3) 0.19256(14)
H3 H 0.2243 -0.0580 0.1575
C7 C 0.2655(3) -0.3269(3) 0.06134(14)
H4 H 0.2105 -0.2427 0.0482
C8 C 0.2612(4) 0.2119(3) 0.24328(14)
H5 H 0.1517 0.1824 0.2088
C9 C 0.4289(3) -0.5774(3) 0.09751(15)
H6 H 0.4856 -0.6611 0.1099
C10 C 0.1737(4) 0.4682(3) 0.28207(15)
C11 C 0.2970(4) 0.3665(3) 0.28959(14)
C12 C 0.5500(4) 0.2734(3) 0.37550(16)
C13 C 0.2235(3) -0.4685(3) 0.01046(15)
H7 H 0.1420 -0.4784 -0.0367
N2 N 0.1437(3) -0.9208(3) -0.13213(16)
C14 C 0.4782(4) 0.4113(3) 0.34303(17)
H8 H 0.4670 0.4902 0.3881
H9 H 0.5658 0.4576 0.3128
C15 C 0.1651(4) -0.7732(4) -0.09971(17)
H10 H 0.1233 -0.6962 -0.1263
C16 C 0.5515(4) 0.1425(4) 0.30487(17)
H11 H 0.6504 0.1725 0.2761
H12 H 0.5743 0.0484 0.3258
O1 O 0.0464(4) 0.6921(2) 0.30926(18)
C17 C 0.1994(6) 0.6321(4) 0.32307(18)
C18 C 0.0068(4) 0.4174(3) 0.22859(17)
N3 N -0.1289(4) 0.3754(3) 0.18607(18)
O2 O 0.3384(4) 0.7047(3) 0.36233(15)
C19 C 0.2939(5) -0.8869(4) -0.00758(19)
H13 H 0.3558 -0.9074 0.0398
C20 C 0.2251(5) -0.9911(4) -0.0742(2)
H14 H 0.2322 -1.0975 -0.0800
C21 C 0.7447(5) 0.3284(4) 0.4193(2)
H15 H 0.7449 0.4138 0.4621
H16 H 0.8207 0.3624 0.3820
H17 H 0.7901 0.2435 0.4412
C22 C 0.4315(5) 0.2155(4) 0.43440(18)
H18 H 0.4734 0.1253 0.4522
H19 H 0.3081 0.1877 0.4083
H20 H 0.4382 0.2967 0.4799
C23 C 0.0389(9) 0.8551(4) 0.3458(3)
H21 H 0.1504 0.8982 0.3820
H22 H 0.0239 0.9194 0.3043
C24 C -0.1167(8) 0.8526(6) 0.3906(4)
H23 H -0.2206 0.7877 0.3580
H24 H -0.1433 0.9571 0.4040
H25 H -0.0876 0.8113 0.4392
loop_
_geom_bond_atom_site_label_1
_geom_bond_atom_site_label_2
_geom_bond_site_symmetry_1
_geom_bond_site_symmetry_2
N1 C5 1_555 1_555
C1 C6 1_555 1_555
C2 C3 1_555 1_555
C3 H1 1_555 1_555
C4 C2 1_555 1_555
H2 C4 1_555 1_555
C5 C9 1_555 1_555
C6 C3 1_555 1_555
H3 C6 1_555 1_555
C7 C2 1_555 1_555
H4 C7 1_555 1_555
C8 C1 1_555 1_555
H5 C8 1_555 1_555
C9 C4 1_555 1_555
H6 C9 1_555 1_555
C10 C11 1_555 1_555
C11 C8 1_555 1_555
C12 C14 1_555 1_555
C13 C5 1_555 1_555
H7 C13 1_555 1_555
N2 C15 1_555 1_555
C14 C11 1_555 1_555
H8 C14 1_555 1_555
H9 C14 1_555 1_555
C15 N1 1_555 1_555
H10 C15 1_555 1_555
C16 C1 1_555 1_555
H11 C16 1_555 1_555
H12 C16 1_555 1_555
O1 C17 1_555 1_555
C17 C10 1_555 1_555
C18 C10 1_555 1_555
N3 C18 1_555 1_555
O2 C17 1_555 1_555
C19 N1 1_555 1_555
H13 C19 1_555 1_555
C20 N2 1_555 1_555
H14 C20 1_555 1_555
C21 C12 1_555 1_555
H15 C21 1_555 1_555
H16 C21 1_555 1_555
H17 C21 1_555 1_555
C22 C12 1_555 1_555
H18 C22 1_555 1_555
H19 C22 1_555 1_555
H20 C22 1_555 1_555
C23 O1 1_555 1_555
H21 C23 1_555 1_555
H22 C23 1_555 1_555
C24 C23 1_555 1_555
H23 C24 1_555 1_555
H24 C24 1_555 1_555
H25 C24 1_555 1_555
C7 C13 1_555 1_555
C12 C16 1_555 1_555
C19 C20 1_555 1_555

#END
