
#######################################################################
#
#                 Cambridge Crystallographic Data Centre
#                                CCDC 
#
#######################################################################
#
# If this CIF has been generated from an entry in the Cambridge 
# Structural Database, then it will include bibliographic, chemical, 
# crystal, experimental, refinement or atomic coordinate data resulting 
# from the CCDC's data processing and validation procedures.
#
#######################################################################

data_MOMPEL
_chemical_formula_moiety         'C33 H30 N2 O2'
_chemical_name_systematic        
'ethyl (3-(2-(4-(9H-carbazol-9-yl)phenyl)vinyl)-5,5-dimethylcyclohex-2-en-1-ylidene)(cyano)acetate'
_symmetry_cell_setting           monoclinic
_symmetry_space_group_name_H-M   'P 21/n'
_symmetry_Int_Tables_number      14
_space_group_name_Hall           '-P 2yn'
loop_
_symmetry_equiv_pos_site_id
_symmetry_equiv_pos_as_xyz
1 x,y,z
2 1/2-x,1/2+y,1/2-z
3 -x,-y,-z
4 1/2+x,1/2-y,1/2+z
_cell_length_a                   14.110(5)
_cell_length_b                   11.504(5)
_cell_length_c                   17.793(5)
_cell_angle_alpha                90
_cell_angle_beta                 111.155(5)
_cell_angle_gamma                90
_cell_volume                     2693.54
_exptl_crystal_colour            yellow
_exptl_crystal_description       diamond
_cell_formula_units_Z            4
loop_
_atom_site_label
_atom_site_type_symbol
_atom_site_fract_x
_atom_site_fract_y
_atom_site_fract_z
N1 N 0.01108(14) 0.25962(15) 0.62659(11)
C1 C 0.52496(16) 0.43807(19) 0.34832(12)
C2 C 0.42742(16) 0.33917(18) 0.42011(13)
O1 O 0.60591(13) 0.65919(17) 0.24116(11)
C3 C 0.24646(17) 0.26988(18) 0.53282(12)
C4 C -0.05046(17) 0.16356(19) 0.62430(13)
C5 C 0.09126(17) 0.26376(18) 0.59603(13)
C6 C 0.54144(17) 0.5397(2) 0.31473(13)
C7 C 0.24389(18) 0.18528(19) 0.58804(14)
H1 H 0.2950 0.1295 0.6042
C8 C 0.32784(18) 0.26712(19) 0.50031(13)
H2 H 0.3734 0.2056 0.5170
C9 C 0.61898(19) 0.5570(2) 0.27773(13)
C10 C 0.34426(17) 0.34231(19) 0.44974(13)
H3 H 0.2979 0.4029 0.4316
C11 C -0.02257(17) 0.35328(19) 0.66076(13)
C12 C -0.12324(17) 0.1961(2) 0.65775(13)
C13 C 0.44346(17) 0.43097(19) 0.37938(13)
H4 H 0.3994 0.4939 0.3706
C14 C 0.58464(18) 0.3281(2) 0.35414(13)
H5 H 0.6512 0.3478 0.3536
H6 H 0.5505 0.2806 0.3071
C15 C 0.09266(18) 0.34872(19) 0.54131(14)
H7 H 0.0412 0.4041 0.5251
C16 C 0.59771(18) 0.2573(2) 0.42950(14)
O2 O 0.68501(15) 0.48930(18) 0.27900(12)
C17 C 0.4778(2) 0.6377(2) 0.31249(14)
C18 C 0.16901(18) 0.35223(19) 0.51068(14)
H8 H 0.1690 0.4106 0.4745
C19 C -0.10526(17) 0.3170(2) 0.68006(13)
C20 C -0.0474(2) 0.0526(2) 0.59525(14)
H9 H 0.0001 0.0323 0.5724
C21 C 0.49445(19) 0.2342(2) 0.43523(16)
H10 H 0.4601 0.1745 0.3965
H11 H 0.5045 0.2043 0.4885
C22 C 0.16793(18) 0.18175(19) 0.61941(14)
H12 H 0.1682 0.1243 0.6563
N2 N 0.4268(2) 0.7140(2) 0.31289(17)
C23 C -0.19247(19) 0.1145(3) 0.66301(16)
H13 H -0.2409 0.1346 0.6850
C24 C 0.0179(2) 0.4640(2) 0.67889(16)
H14 H 0.0747 0.4862 0.6675
C25 C -0.1514(2) 0.3966(3) 0.71616(16)
H15 H -0.2074 0.3751 0.7289
C26 C -0.1176(2) -0.0270(2) 0.60155(16)
H16 H -0.1174 -0.1025 0.5829
C27 C -0.0285(2) 0.5400(2) 0.71430(17)
H17 H -0.0033 0.6151 0.7265
C28 C 0.6478(2) 0.1398(2) 0.42539(19)
H18 H 0.7150 0.1529 0.4253
H19 H 0.6079 0.0998 0.3769
H20 H 0.6518 0.0935 0.4713
C29 C 0.6645(2) 0.3243(3) 0.50413(16)
H21 H 0.6724 0.2797 0.5516
H22 H 0.6330 0.3974 0.5068
H23 H 0.7300 0.3380 0.5008
C30 C -0.1121(2) 0.5064(3) 0.73206(19)
H24 H -0.1425 0.5599 0.7555
C31 C -0.1892(2) 0.0045(3) 0.63569(17)
H25 H -0.2353 -0.0507 0.6398
C32 C 0.6722(2) 0.6854(4) 0.1963(2)
H26 H 0.7307 0.7291 0.2303
H27 H 0.6964 0.6134 0.1811
C33 C 0.6208(3) 0.7489(4) 0.1280(3)
H28 H 0.5680 0.7020 0.0913
H29 H 0.6673 0.7725 0.1026
H30 H 0.5914 0.8166 0.1425
loop_
_geom_bond_atom_site_label_1
_geom_bond_atom_site_label_2
_geom_bond_site_symmetry_1
_geom_bond_site_symmetry_2
N1 C4 1_555 1_555
C1 C6 1_555 1_555
C2 C10 1_555 1_555
O1 C9 1_555 1_555
C3 C7 1_555 1_555
C4 C12 1_555 1_555
C5 N1 1_555 1_555
C6 C9 1_555 1_555
C7 H1 1_555 1_555
C8 C3 1_555 1_555
H2 C8 1_555 1_555
C9 O2 1_555 1_555
C10 C8 1_555 1_555
H3 C10 1_555 1_555
C11 N1 1_555 1_555
C12 C19 1_555 1_555
C13 C1 1_555 1_555
H4 C13 1_555 1_555
C14 C1 1_555 1_555
H5 C14 1_555 1_555
H6 C14 1_555 1_555
C15 C5 1_555 1_555
H7 C15 1_555 1_555
C16 C14 1_555 1_555
C17 C6 1_555 1_555
C18 C3 1_555 1_555
H8 C18 1_555 1_555
C19 C11 1_555 1_555
C20 C4 1_555 1_555
H9 C20 1_555 1_555
C21 C2 1_555 1_555
H10 C21 1_555 1_555
H11 C21 1_555 1_555
C22 C5 1_555 1_555
H12 C22 1_555 1_555
N2 C17 1_555 1_555
C23 C12 1_555 1_555
H13 C23 1_555 1_555
C24 C11 1_555 1_555
H14 C24 1_555 1_555
C25 C19 1_555 1_555
H15 C25 1_555 1_555
C26 C20 1_555 1_555
H16 C26 1_555 1_555
C27 C24 1_555 1_555
H17 C27 1_555 1_555
C28 C16 1_555 1_555
H18 C28 1_555 1_555
H19 C28 1_555 1_555
H20 C28 1_555 1_555
C29 C16 1_555 1_555
H21 C29 1_555 1_555
H22 C29 1_555 1_555
H23 C29 1_555 1_555
C30 C25 1_555 1_555
H24 C30 1_555 1_555
C31 C23 1_555 1_555
H25 C31 1_555 1_555
C32 O1 1_555 1_555
H26 C32 1_555 1_555
H27 C32 1_555 1_555
C33 C32 1_555 1_555
H28 C33 1_555 1_555
H29 C33 1_555 1_555
H30 C33 1_555 1_555
C2 C13 1_555 1_555
C7 C22 1_555 1_555
C15 C18 1_555 1_555
C16 C21 1_555 1_555
C26 C31 1_555 1_555
C27 C30 1_555 1_555

#END
