
#######################################################################
#
#                 Cambridge Crystallographic Data Centre
#                                CCDC 
#
#######################################################################
#
# If this CIF has been generated from an entry in the Cambridge 
# Structural Database, then it will include bibliographic, chemical, 
# crystal, experimental, refinement or atomic coordinate data resulting 
# from the CCDC's data processing and validation procedures.
#
#######################################################################

data_MOMQAH
_chemical_formula_moiety         'C13 H3 B1 Br6 F2 N2 S1'
_chemical_name_systematic        
2,3,5,6-Tetrabromo-4,4-difluoro-8-(2,5-dibromo-3-thienyl)-4-bora-3a,4a-diaza-s-indacene
_symmetry_cell_setting           triclinic
_symmetry_space_group_name_H-M   'P -1'
_symmetry_Int_Tables_number      2
_space_group_name_Hall           '-P 1'
loop_
_symmetry_equiv_pos_site_id
_symmetry_equiv_pos_as_xyz
1 x,y,z
2 -x,-y,-z
_cell_length_a                   9.105(2)
_cell_length_b                   10.694(3)
_cell_length_c                   10.835(3)
_cell_angle_alpha                113.405(4)
_cell_angle_beta                 99.852(3)
_cell_angle_gamma                90.766(4)
_cell_volume                     950.042
_cell_formula_units_Z            2
loop_
_atom_site_label
_atom_site_type_symbol
_atom_site_fract_x
_atom_site_fract_y
_atom_site_fract_z
B1 B 0.1889(12) -1.0407(12) 0.3801(11)
F1 F 0.2304(6) -1.0607(6) 0.4977(5)
F2 F 0.2908(5) -1.0852(6) 0.2957(5)
N1 N 0.1673(7) -0.8881(8) 0.4135(7)
N2 N 0.0325(8) -1.1193(8) 0.3020(7)
C1 C 0.2619(9) -0.7770(10) 0.4890(9)
C2 C 0.2066(10) -0.6590(10) 0.4858(10)
C3 C 0.0691(9) -0.6946(9) 0.4048(9)
H1 H 0.0040 -0.6356 0.3833
C4 C 0.0426(8) -0.8373(9) 0.3590(8)
C5 C -0.0834(9) -0.9253(9) 0.2789(8)
C6 C -0.0905(9) -1.0635(9) 0.2534(9)
C7 C -0.2058(11) -1.1663(9) 0.1778(9)
H2 H -0.3008 -1.1561 0.1345
C8 C -0.1528(11) -1.2862(9) 0.1791(10)
C9 C -0.0069(11) -1.2514(10) 0.2563(10)
Br1 Br 0.45283(10) -0.79331(12) 0.57686(11)
Br2 Br 0.30915(11) -0.48436(11) 0.57183(12)
Br3 Br -0.25560(16) -1.45916(12) 0.09650(16)
Br4 Br 0.12009(14) -1.37435(12) 0.29045(14)
S1 S -0.3794(2) -0.7858(2) 0.0580(2)
C10 C -0.2119(9) -0.8742(8) 0.2150(8)
C11 C -0.3597(9) -0.8782(9) 0.2430(9)
H3 H -0.3844 -0.9089 0.3077
C12 C -0.4572(9) -0.8341(9) 0.1681(8)
C13 C -0.2096(8) -0.8250(8) 0.1183(8)
Br5 Br -0.04624(10) -0.80422(11) 0.04226(10)
Br6 Br -0.66119(10) -0.81685(12) 0.17016(11)
loop_
_geom_bond_atom_site_label_1
_geom_bond_atom_site_label_2
_geom_bond_site_symmetry_1
_geom_bond_site_symmetry_2
B1 F1 1_555 1_555
F2 B1 1_555 1_555
N1 B1 1_555 1_555
N2 B1 1_555 1_555
C1 N1 1_555 1_555
C2 C1 1_555 1_555
C3 C2 1_555 1_555
H1 C3 1_555 1_555
C4 N1 1_555 1_555
C5 C4 1_555 1_555
C6 N2 1_555 1_555
C7 C6 1_555 1_555
H2 C7 1_555 1_555
C8 C7 1_555 1_555
C9 N2 1_555 1_555
Br1 C1 1_555 1_555
Br2 C2 1_555 1_555
Br3 C8 1_555 1_555
Br4 C9 1_555 1_555
S1 C12 1_555 1_555
C10 C5 1_555 1_555
C11 C10 1_555 1_555
H3 C11 1_555 1_555
C12 C11 1_555 1_555
C13 S1 1_555 1_555
Br5 C13 1_555 1_555
Br6 C12 1_555 1_555
C3 C4 1_555 1_555
C5 C6 1_555 1_555
C8 C9 1_555 1_555
C10 C13 1_555 1_555

#END
