
#######################################################################
#
#                 Cambridge Crystallographic Data Centre
#                                CCDC 
#
#######################################################################
#
# If this CIF has been generated from an entry in the Cambridge 
# Structural Database, then it will include bibliographic, chemical, 
# crystal, experimental, refinement or atomic coordinate data resulting 
# from the CCDC's data processing and validation procedures.
#
#######################################################################

data_MOMQOV
_chemical_formula_moiety         'C13 H9 B1 F2 N2 S1'
_chemical_name_systematic        
4,4-Difluoro-8-(3-thienyl)-4-bora-3a,4a-diaza-s-indacene
_symmetry_cell_setting           monoclinic
_symmetry_space_group_name_H-M   'C c'
_symmetry_Int_Tables_number      9
_space_group_name_Hall           'C -2yc'
loop_
_symmetry_equiv_pos_site_id
_symmetry_equiv_pos_as_xyz
1 x,y,z
2 x,-y,1/2+z
3 1/2+x,1/2+y,z
4 1/2+x,1/2-y,1/2+z
_cell_length_a                   16.7431(10)
_cell_length_b                   10.1739(7)
_cell_length_c                   7.7513(5)
_cell_angle_alpha                90.00
_cell_angle_beta                 111.6450(10)
_cell_angle_gamma                90.00
_cell_volume                     1227.27
_cell_formula_units_Z            4
loop_
_atom_site_label
_atom_site_type_symbol
_atom_site_fract_x
_atom_site_fract_y
_atom_site_fract_z
N1 N 0.38760(17) 1.2928(2) 0.7443(4)
N2 N 0.28980(16) 1.1275(2) 0.5430(3)
B1 B 0.3009(2) 1.2766(4) 0.5796(6)
F1 F 0.23550(16) 1.3259(2) 0.6272(4)
F2 F 0.30459(18) 1.3391(2) 0.4237(3)
C1 C 0.4180(3) 1.4029(3) 0.8408(6)
H1 H 0.3900 1.4847 0.8172
C2 C 0.4965(3) 1.3789(3) 0.9797(6)
H2 H 0.5303 1.4409 1.0656
C3 C 0.5166(2) 1.2481(3) 0.9708(5)
H3 H 0.5661 1.2041 1.0490
C4 C 0.44825(19) 1.1939(3) 0.8212(4)
C5 C 0.43065(18) 1.0626(3) 0.7589(4)
C6 C 0.35152(19) 1.0305(3) 0.6211(4)
C7 C 0.3169(2) 0.9097(3) 0.5342(4)
H4 H 0.3447 0.8277 0.5584
C8 C 0.2353(2) 0.9340(4) 0.4081(4)
H5 H 0.1967 0.8723 0.3312
C9 C 0.2215(2) 1.0691(4) 0.4173(4)
H6 H 0.1708 1.1130 0.3447
S1 S 0.56773(9) 0.74728(9) 0.99109(14)
C10 C 0.49606(18) 0.9614(3) 0.8416(4)
C11 C 0.5854(2) 0.9786(3) 0.8817(4)
H7 H 0.6088 1.0563 0.8543
C12 C 0.6363(2) 0.8673(3) 0.9671(4)
H8 H 0.6963 0.8603 1.0039
C13 C 0.4785(2) 0.8386(3) 0.8932(4)
H9 H 0.4229 0.8090 0.8756
loop_
_geom_bond_atom_site_label_1
_geom_bond_atom_site_label_2
_geom_bond_site_symmetry_1
_geom_bond_site_symmetry_2
N1 B1 1_555 1_555
N2 B1 1_555 1_555
B1 F1 1_555 1_555
F2 B1 1_555 1_555
C1 N1 1_555 1_555
H1 C1 1_555 1_555
C2 C1 1_555 1_555
H2 C2 1_555 1_555
C3 C2 1_555 1_555
H3 C3 1_555 1_555
C4 N1 1_555 1_555
C5 C4 1_555 1_555
C6 N2 1_555 1_555
C7 C6 1_555 1_555
H4 C7 1_555 1_555
C8 C7 1_555 1_555
H5 C8 1_555 1_555
C9 N2 1_555 1_555
H6 C9 1_555 1_555
S1 C12 1_555 1_555
C10 C5 1_555 1_555
C11 C10 1_555 1_555
H7 C11 1_555 1_555
C12 C11 1_555 1_555
H8 C12 1_555 1_555
C13 S1 1_555 1_555
H9 C13 1_555 1_555
C3 C4 1_555 1_555
C5 C6 1_555 1_555
C8 C9 1_555 1_555
C10 C13 1_555 1_555

#END
