
#######################################################################
#
#                 Cambridge Crystallographic Data Centre
#                                CCDC 
#
#######################################################################
#
# If this CIF has been generated from an entry in the Cambridge 
# Structural Database, then it will include bibliographic, chemical, 
# crystal, experimental, refinement or atomic coordinate data resulting 
# from the CCDC's data processing and validation procedures.
#
#######################################################################

data_MOMWUI
_chemical_formula_moiety         'C20 H22 N2 O5'
_chemical_name_systematic        
'methyl 3a-ethyl-1-(methoxyamino)-2,6-dioxo-2,3,3a,4,5,6-hexahydro-1H-pyrido[3,2,1-jk]carbazole-1-carboxylate'
_symmetry_cell_setting           monoclinic
_symmetry_space_group_name_H-M   'P 21/c'
_symmetry_Int_Tables_number      14
_space_group_name_Hall           '-P 2ybc'
loop_
_symmetry_equiv_pos_site_id
_symmetry_equiv_pos_as_xyz
1 x,y,z
2 -x,1/2+y,1/2-z
3 -x,-y,-z
4 x,1/2-y,1/2+z
_cell_length_a                   9.6837(8)
_cell_length_b                   9.5017(8)
_cell_length_c                   20.5631(17)
_cell_angle_alpha                90
_cell_angle_beta                 92.0440(10)
_cell_angle_gamma                90
_cell_volume                     1890.84
_cell_formula_units_Z            4
loop_
_atom_site_label
_atom_site_type_symbol
_atom_site_fract_x
_atom_site_fract_y
_atom_site_fract_z
C1 C 0.02826(18) 0.67205(19) 0.16489(9)
C2 C -0.0628(2) 0.7795(2) 0.17853(10)
H1 H -0.1592 0.7710 0.1691
C3 C -0.0066(2) 0.9001(2) 0.20666(10)
H2 H -0.0659 0.9765 0.2163
C4 C 0.1345(2) 0.9124(2) 0.22122(10)
H3 H 0.1697 0.9973 0.2398
C5 C 0.2240(2) 0.8031(2) 0.20908(10)
H4 H 0.3199 0.8112 0.2200
C6 C 0.17072(18) 0.68052(19) 0.18046(9)
C7 C 0.23161(18) 0.54816(19) 0.16212(9)
C8 C 0.13056(18) 0.46564(19) 0.13692(9)
C9 C -0.12347(19) 0.4791(2) 0.11888(10)
C10 C -0.1210(2) 0.3251(2) 0.10146(11)
H5 H -0.1245 0.3164 0.0534
H6 H -0.2054 0.2802 0.1177
C11 C 0.00515(19) 0.2440(2) 0.12851(10)
H7 H 0.0046 0.1478 0.1100
H8 H -0.0001 0.2357 0.1764
C12 C 0.14055(19) 0.3184(2) 0.11190(9)
C13 C 0.1637(2) 0.3211(2) 0.03763(10)
H9 H 0.0899 0.3790 0.0164
H10 H 0.2529 0.3684 0.0303
C14 C 0.1650(3) 0.1783(3) 0.00434(12)
H11 H 0.2351 0.1183 0.0258
H12 H 0.1868 0.1905 -0.0415
H13 H 0.0740 0.1341 0.0072
C15 C 0.26564(19) 0.25290(19) 0.14932(10)
H14 H 0.2407 0.2361 0.1949
H15 H 0.2868 0.1606 0.1297
C16 C 0.3934(2) 0.3437(2) 0.14908(9)
C17 C 0.38003(17) 0.50289(19) 0.16848(9)
C18 C 0.43947(18) 0.51438(19) 0.23850(10)
C19 C 0.4170(3) 0.6856(3) 0.02702(12)
H16 H 0.3432 0.7427 0.0450
H17 H 0.3937 0.6638 -0.0186
H18 H 0.5041 0.7381 0.0299
C20 C 0.4029(2) 0.4570(2) 0.34802(10)
H19 H 0.4675 0.3784 0.3546
H20 H 0.3244 0.4448 0.3763
H21 H 0.4501 0.5456 0.3588
N1 N 0.00364(15) 0.53735(16) 0.13730(8)
N2 N 0.46749(16) 0.59306(17) 0.12954(8)
H22 H 0.5573 0.5611 0.1341
O1 O -0.22709(13) 0.55046(16) 0.11673(8)
O2 O 0.50616(14) 0.29958(15) 0.13639(8)
O3 O 0.43118(15) 0.55978(15) 0.06255(7)
O4 O 0.35372(14) 0.46014(15) 0.28063(7)
O5 O 0.55105(14) 0.56103(17) 0.25230(7)
loop_
_geom_bond_atom_site_label_1
_geom_bond_atom_site_label_2
_geom_bond_site_symmetry_1
_geom_bond_site_symmetry_2
C1 C2 1_555 1_555
C2 H1 1_555 1_555
C3 C2 1_555 1_555
H2 C3 1_555 1_555
C4 C3 1_555 1_555
H3 C4 1_555 1_555
C5 C4 1_555 1_555
H4 C5 1_555 1_555
C6 C1 1_555 1_555
C7 C6 1_555 1_555
C8 C7 1_555 1_555
C9 C10 1_555 1_555
C10 H5 1_555 1_555
H6 C10 1_555 1_555
C11 C10 1_555 1_555
H7 C11 1_555 1_555
H8 C11 1_555 1_555
C12 C8 1_555 1_555
C13 C12 1_555 1_555
H9 C13 1_555 1_555
H10 C13 1_555 1_555
C14 C13 1_555 1_555
H11 C14 1_555 1_555
H12 C14 1_555 1_555
H13 C14 1_555 1_555
C15 C12 1_555 1_555
H14 C15 1_555 1_555
H15 C15 1_555 1_555
C16 C15 1_555 1_555
C17 C7 1_555 1_555
C18 C17 1_555 1_555
C19 H16 1_555 1_555
H17 C19 1_555 1_555
H18 C19 1_555 1_555
C20 H19 1_555 1_555
H20 C20 1_555 1_555
H21 C20 1_555 1_555
N1 C1 1_555 1_555
N2 C17 1_555 1_555
H22 N2 1_555 1_555
O1 C9 1_555 1_555
O2 C16 1_555 1_555
O3 C19 1_555 1_555
O4 C18 1_555 1_555
O5 C18 1_555 1_555
C5 C6 1_555 1_555
C8 N1 1_555 1_555
C9 N1 1_555 1_555
C11 C12 1_555 1_555
C16 C17 1_555 1_555
C20 O4 1_555 1_555
N2 O3 1_555 1_555

#END
