
#######################################################################
#
#                 Cambridge Crystallographic Data Centre
#                                CCDC 
#
#######################################################################
#
# If this CIF has been generated from an entry in the Cambridge 
# Structural Database, then it will include bibliographic, chemical, 
# crystal, experimental, refinement or atomic coordinate data resulting 
# from the CCDC's data processing and validation procedures.
#
#######################################################################

data_MOMXIX
_chemical_formula_moiety         'C20 H22 N2 O6'
_chemical_name_systematic        
'(Z)-(10-(N,2-dimethoxy-2-oxoethanimidoyl)-9-ethyl-6-oxo-6,7,8,9-tetrahydropyrido[1,2-a]indol-9-yl)acetic acid'
_symmetry_cell_setting           monoclinic
_symmetry_space_group_name_H-M   'P 21/c'
_symmetry_Int_Tables_number      14
_space_group_name_Hall           '-P 2ybc'
loop_
_symmetry_equiv_pos_site_id
_symmetry_equiv_pos_as_xyz
1 x,y,z
2 -x,1/2+y,1/2-z
3 -x,-y,-z
4 x,1/2-y,1/2+z
_cell_length_a                   11.626(5)
_cell_length_b                   10.168(4)
_cell_length_c                   15.862(6)
_cell_angle_alpha                90
_cell_angle_beta                 97.357(8)
_cell_angle_gamma                90
_cell_volume                     1859.66
_cell_formula_units_Z            4
loop_
_atom_site_label
_atom_site_type_symbol
_atom_site_fract_x
_atom_site_fract_y
_atom_site_fract_z
O1 O 0.80707(18) 1.33210(17) 0.35736(12)
O2 O 0.59155(14) 1.07667(18) 0.07561(11)
O3 O 0.63431(16) 0.9458(2) -0.02730(13)
H1 H 0.5635 0.9396 -0.0365
O4 O 0.83478(14) 0.64205(15) 0.12650(11)
O5 O 0.56635(17) 0.75521(19) 0.15783(14)
O6 O 0.66894(14) 0.60633(16) 0.24052(11)
N1 N 0.77498(16) 1.13741(17) 0.28779(12)
N2 N 0.85478(17) 0.76254(17) 0.16905(12)
C1 C 0.73067(19) 1.0683(2) 0.35383(15)
C2 C 0.72311(18) 0.9359(2) 0.33064(14)
C3 C 0.6797(2) 0.8451(2) 0.38444(15)
H2 H 0.6758 0.7561 0.3707
C4 C 0.6427(2) 0.8900(3) 0.45823(16)
H3 H 0.6130 0.8308 0.4946
C5 C 0.6492(2) 1.0223(3) 0.47912(16)
H4 H 0.6231 1.0499 0.5292
C6 C 0.6932(2) 1.1144(2) 0.42789(16)
H5 H 0.6975 1.2031 0.4424
C7 C 0.76419(18) 0.9244(2) 0.24843(14)
C8 C 0.79310(17) 1.0467(2) 0.22300(14)
C9 C 0.84011(19) 1.0992(2) 0.14460(14)
C10 C 0.8092(2) 1.2468(2) 0.13592(15)
H6 H 0.8433 1.2833 0.0883
H7 H 0.7257 1.2561 0.1238
C11 C 0.8518(2) 1.3236(2) 0.21524(16)
H8 H 0.9359 1.3237 0.2231
H9 H 0.8261 1.4141 0.2077
C12 C 0.8100(2) 1.2695(2) 0.29304(17)
C13 C 0.97376(19) 1.0784(2) 0.15915(15)
H10 H 1.0024 1.1088 0.2159
H11 H 0.9890 0.9847 0.1573
C14 C 1.0433(2) 1.1463(3) 0.09675(18)
H12 H 1.0091 1.1276 0.0397
H13 H 1.1217 1.1145 0.1050
H14 H 1.0430 1.2395 0.1062
C15 C 0.79126(19) 1.0277(2) 0.06222(14)
H15 H 0.8232 1.0701 0.0156
H16 H 0.8208 0.9384 0.0658
C16 C 0.6628(2) 1.0203(2) 0.03894(14)
C17 C 0.76502(19) 0.7977(2) 0.20326(14)
C18 C 0.9309(2) 0.6090(3) 0.08379(18)
H17 H 0.9615 0.6874 0.0613
H18 H 0.9063 0.5493 0.0381
H19 H 0.9898 0.5680 0.1230
C19 C 0.6553(2) 0.7169(2) 0.19639(16)
C20 C 0.5659(3) 0.5259(3) 0.2415(2)
H20 H 0.5055 0.5775 0.2612
H21 H 0.5836 0.4522 0.2787
H22 H 0.5403 0.4947 0.1850
loop_
_geom_bond_atom_site_label_1
_geom_bond_atom_site_label_2
_geom_bond_site_symmetry_1
_geom_bond_site_symmetry_2
O1 C12 1_555 1_555
O2 C16 1_555 1_555
O3 H1 1_555 1_555
O4 N2 1_555 1_555
O5 C19 1_555 1_555
O6 C19 1_555 1_555
N1 C1 1_555 1_555
N2 C17 1_555 1_555
C1 C2 1_555 1_555
C2 C3 1_555 1_555
C3 H2 1_555 1_555
C4 C3 1_555 1_555
H3 C4 1_555 1_555
C5 C4 1_555 1_555
H4 C5 1_555 1_555
C6 C1 1_555 1_555
H5 C6 1_555 1_555
C7 C2 1_555 1_555
C8 N1 1_555 1_555
C9 C8 1_555 1_555
C10 C9 1_555 1_555
H6 C10 1_555 1_555
H7 C10 1_555 1_555
C11 C10 1_555 1_555
H8 C11 1_555 1_555
H9 C11 1_555 1_555
C12 N1 1_555 1_555
C13 C9 1_555 1_555
H10 C13 1_555 1_555
H11 C13 1_555 1_555
C14 C13 1_555 1_555
H12 C14 1_555 1_555
H13 C14 1_555 1_555
H14 C14 1_555 1_555
C15 C9 1_555 1_555
H15 C15 1_555 1_555
H16 C15 1_555 1_555
C16 O3 1_555 1_555
C17 C7 1_555 1_555
C18 O4 1_555 1_555
H17 C18 1_555 1_555
H18 C18 1_555 1_555
H19 C18 1_555 1_555
C19 C17 1_555 1_555
C20 O6 1_555 1_555
H20 C20 1_555 1_555
H21 C20 1_555 1_555
H22 C20 1_555 1_555
C5 C6 1_555 1_555
C7 C8 1_555 1_555
C11 C12 1_555 1_555
C15 C16 1_555 1_555

#END
