
#######################################################################
#
#                 Cambridge Crystallographic Data Centre
#                                CCDC 
#
#######################################################################
#
# If this CIF has been generated from an entry in the Cambridge 
# Structural Database, then it will include bibliographic, chemical, 
# crystal, experimental, refinement or atomic coordinate data resulting 
# from the CCDC's data processing and validation procedures.
#
#######################################################################

data_MONALB
_chemical_formula_moiety         'C24 H20 B1 N1 O1'
_chemical_name_systematic        
N-Methyl-2-oxy-1-naphthaldiminato-diphenylborane
_symmetry_cell_setting           monoclinic
_symmetry_space_group_name_H-M   'P 21/c'
_symmetry_Int_Tables_number      14
_space_group_name_Hall           '-P 2ybc'
loop_
_symmetry_equiv_pos_site_id
_symmetry_equiv_pos_as_xyz
1 x,y,z
2 -x,1/2+y,1/2-z
3 -x,-y,-z
4 x,1/2-y,1/2+z
_cell_length_a                   9.9576(7)
_cell_length_b                   9.1294(7)
_cell_length_c                   21.3139(2)
_cell_angle_alpha                90
_cell_angle_beta                 105.79(1)
_cell_angle_gamma                90
_cell_volume                     1864.47
_cell_formula_units_Z            4
loop_
_atom_site_label
_atom_site_type_symbol
_atom_site_fract_x
_atom_site_fract_y
_atom_site_fract_z
O1 O 0.14250 0.17660 0.39210
N1 N 0.40030 0.18600 0.43510
C1 C 0.40850 0.10800 0.38620
C2 C 0.29050 0.07250 0.33320
C3 C 0.16000 0.11230 0.33920
C4 C 0.03780 0.07780 0.28870
C5 C 0.04860 0.00070 0.23600
C6 C 0.17990 -0.04580 0.22870
C7 C 0.30240 -0.00840 0.27740
C8 C 0.43250 -0.05570 0.26940
C9 C 0.43730 -0.13760 0.21600
C10 C 0.31530 -0.17330 0.16770
C11 C 0.18900 -0.12800 0.17370
C12 C 0.24140 0.20610 0.51380
C13 C 0.17760 0.07430 0.52360
C14 C 0.16460 0.03520 0.58470
C15 C 0.21410 0.12480 0.63760
C16 C 0.27890 0.25550 0.62990
C17 C 0.29180 0.29370 0.56890
C18 C 0.24650 0.42410 0.42700
C19 C 0.31670 0.49110 0.38620
C20 C 0.28920 0.63510 0.36450
C21 C 0.19160 0.71390 0.38480
C22 C 0.12070 0.65340 0.42560
C23 C 0.14930 0.50880 0.44690
C24 C 0.52940 0.21770 0.48720
B1 B 0.25670 0.25120 0.44320
H1 H 0.50500 0.06800 0.38800
H4 H -0.05900 0.11100 0.29700
H5 H -0.03800 -0.03100 0.19700
H8 H 0.52500 -0.03400 0.30600
H9 H 0.52900 -0.17700 0.21200
H10 H 0.31800 -0.22800 0.12500
H11 H 0.09200 -0.14300 0.13600
H13 H 0.15600 0.00900 0.48500
H14 H 0.11000 -0.05900 0.58900
H15 H 0.19900 0.10400 0.68500
H16 H 0.31600 0.32200 0.66900
H17 H 0.34200 0.40100 0.56300
H19 H 0.39900 0.42800 0.36900
H20 H 0.33300 0.68000 0.32700
H21 H 0.16700 0.81300 0.36600
H22 H 0.04300 0.71600 0.43500
H23 H 0.09400 0.46000 0.48100
H241 H 0.52100 0.16400 0.52900
H242 H 0.54000 0.31500 0.49200
H243 H 0.61300 0.17200 0.47700
loop_
_geom_bond_atom_site_label_1
_geom_bond_atom_site_label_2
_geom_bond_site_symmetry_1
_geom_bond_site_symmetry_2
O1 C3 1_555 1_555
N1 C1 1_555 1_555
C1 C2 1_555 1_555
C2 C3 1_555 1_555
C3 C4 1_555 1_555
C4 C5 1_555 1_555
C5 C6 1_555 1_555
C6 C7 1_555 1_555
C7 C2 1_555 1_555
C8 C7 1_555 1_555
C9 C8 1_555 1_555
C10 C9 1_555 1_555
C11 C6 1_555 1_555
C12 C13 1_555 1_555
C13 C14 1_555 1_555
C14 C15 1_555 1_555
C15 C16 1_555 1_555
C16 C17 1_555 1_555
C17 C12 1_555 1_555
C18 C19 1_555 1_555
C19 C20 1_555 1_555
C20 C21 1_555 1_555
C21 C22 1_555 1_555
C22 C23 1_555 1_555
C23 C18 1_555 1_555
C24 N1 1_555 1_555
B1 O1 1_555 1_555
H1 C1 1_555 1_555
H4 C4 1_555 1_555
H5 C5 1_555 1_555
H8 C8 1_555 1_555
H9 C9 1_555 1_555
H10 C10 1_555 1_555
H11 C11 1_555 1_555
H13 C13 1_555 1_555
H14 C14 1_555 1_555
H15 C15 1_555 1_555
H16 C16 1_555 1_555
H17 C17 1_555 1_555
H19 C19 1_555 1_555
H20 C20 1_555 1_555
H21 C21 1_555 1_555
H22 C22 1_555 1_555
H23 C23 1_555 1_555
H241 C24 1_555 1_555
H242 C24 1_555 1_555
H243 C24 1_555 1_555
N1 B1 1_555 1_555
C10 C11 1_555 1_555
C12 B1 1_555 1_555
C18 B1 1_555 1_555

#END
