
#######################################################################
#
#                 Cambridge Crystallographic Data Centre
#                                CCDC 
#
#######################################################################
#
# If this CIF has been generated from an entry in the Cambridge 
# Structural Database, then it will include bibliographic, chemical, 
# crystal, experimental, refinement or atomic coordinate data resulting 
# from the CCDC's data processing and validation procedures.
#
#######################################################################

data_MONCRO11
_chemical_compound_source        'Crotalaria Retusa L'
_chemical_formula_moiety         'C16 H23 N1 O6'
_chemical_name_systematic        Monocrotaline
_symmetry_cell_setting           orthorhombic
_symmetry_space_group_name_H-M   'P 21 21 21'
_symmetry_Int_Tables_number      19
_space_group_name_Hall           'P 2ac 2ab'
loop_
_symmetry_equiv_pos_site_id
_symmetry_equiv_pos_as_xyz
1 x,y,z
2 1/2+x,1/2-y,-z
3 -x,1/2+y,1/2-z
4 1/2-x,-y,1/2+z
_cell_length_a                   13.578(3)
_cell_length_b                   11.433(2)
_cell_length_c                   10.153(2)
_cell_angle_alpha                90
_cell_angle_beta                 90
_cell_angle_gamma                90
_cell_volume                     1576.12
_cell_formula_units_Z            4
loop_
_atom_site_label
_atom_site_type_symbol
_atom_site_fract_x
_atom_site_fract_y
_atom_site_fract_z
C1 C 0.53870 0.11020 0.39590
C2 C 0.45780 0.16730 0.36300
C3 C 0.47960 0.26040 0.26110
N1 N 0.58710 0.24880 0.23640
C4 C 0.64500 0.35750 0.26330
C5 C 0.74200 0.31160 0.31740
C6 C 0.70960 0.20800 0.40430
C7 C 0.62660 0.15360 0.32150
C8 C 0.54620 0.01470 0.49780
O1 O 0.52560 0.07230 0.62500
C9 C 0.56000 0.01970 0.73330
O2 O 0.60060 -0.07360 0.73310
C10 C 0.54100 0.09420 0.85610
C11 C 0.53120 0.01380 0.97420
O3 O 0.44820 0.15410 0.83620
C12 C 0.62380 0.19000 0.87880
O4 O 0.58140 0.26880 0.96970
C13 C 0.71720 0.13550 0.93290
C14 C 0.63880 0.26700 0.75270
C15 C 0.69760 0.37920 0.78290
C16 C 0.69230 0.20680 0.64080
O5 O 0.75130 0.12850 0.64830
O6 O 0.66770 0.25760 0.52500
H1 H 0.39400 0.16700 0.42100
H2 H 0.42400 0.26200 0.19600
H3 H 0.49400 0.32500 0.34300
H4 H 0.64800 0.42800 0.18400
H5 H 0.60900 0.40200 0.34600
H6 H 0.78500 0.35000 0.37900
H7 H 0.79000 0.28200 0.23600
H8 H 0.77100 0.14500 0.42400
H9 H 0.65900 0.08400 0.28400
H10 H 0.49700 -0.05500 0.50500
H11 H 0.62600 0.01900 0.50700
H12 H 0.48300 -0.02500 0.94500
H13 H 0.49200 0.00500 1.02400
H14 H 0.59300 -0.03900 0.99800
H15 H 0.62400 0.31500 1.02200
H16 H 0.73400 0.09400 0.86900
H17 H 0.71900 0.15100 0.98400
H18 H 0.76400 0.17600 0.90300
H19 H 0.56600 0.29100 0.71600
H20 H 0.66800 0.42400 0.72100
H21 H 0.66200 0.40400 0.86400
H22 H 0.77300 0.39100 0.81500
loop_
_geom_bond_atom_site_label_1
_geom_bond_atom_site_label_2
_geom_bond_site_symmetry_1
_geom_bond_site_symmetry_2
C1 C2 1_555 1_555
C2 C3 1_555 1_555
C3 N1 1_555 1_555
N1 C4 1_555 1_555
C4 C5 1_555 1_555
C5 C6 1_555 1_555
C6 C7 1_555 1_555
C7 C1 1_555 1_555
C8 C1 1_555 1_555
O1 C8 1_555 1_555
C9 O1 1_555 1_555
O2 C9 1_555 1_555
C10 C9 1_555 1_555
C11 C10 1_555 1_555
O3 C10 1_555 1_555
C12 C10 1_555 1_555
O4 C12 1_555 1_555
C13 C12 1_555 1_555
C14 C12 1_555 1_555
C15 C14 1_555 1_555
C16 C14 1_555 1_555
O5 C16 1_555 1_555
O6 C6 1_555 1_555
H1 C2 1_555 1_555
H2 C3 1_555 1_555
H3 C3 1_555 1_555
H4 C4 1_555 1_555
H5 C4 1_555 1_555
H6 C5 1_555 1_555
H7 C5 1_555 1_555
H8 C6 1_555 1_555
H9 C7 1_555 1_555
H10 C8 1_555 1_555
H11 C8 1_555 1_555
H12 C11 1_555 1_555
H13 C11 1_555 1_555
H14 C11 1_555 1_555
H15 O4 1_555 1_555
H16 C13 1_555 1_555
H17 C13 1_555 1_555
H18 C13 1_555 1_555
H19 C14 1_555 1_555
H20 C15 1_555 1_555
H21 C15 1_555 1_555
H22 C15 1_555 1_555
N1 C7 1_555 1_555
C16 O6 1_555 1_555

#END
