
#######################################################################
#
#                 Cambridge Crystallographic Data Centre
#                                CCDC 
#
#######################################################################
#
# If this CIF has been generated from an entry in the Cambridge 
# Structural Database, then it will include bibliographic, chemical, 
# crystal, experimental, refinement or atomic coordinate data resulting 
# from the CCDC's data processing and validation procedures.
#
#######################################################################

data_MONGON
_chemical_formula_moiety         'C16 H16 B1 F2 N3 O3,0.5(H2 O1)'
_chemical_name_systematic        
'difluoro(N-(7-(2-(oxy)prop-1-en-1-yl)-5-(2-oxopropyl)-1,8-naphthyridin-2-yl)acetamidato)borate hemihydrate'
_symmetry_cell_setting           monoclinic
_symmetry_space_group_name_H-M   'P 21/c'
_symmetry_Int_Tables_number      14
_space_group_name_Hall           '-P 2ybc'
loop_
_symmetry_equiv_pos_site_id
_symmetry_equiv_pos_as_xyz
1 x,y,z
2 -x,1/2+y,1/2-z
3 -x,-y,-z
4 x,1/2-y,1/2+z
_cell_length_a                   20.167(6)
_cell_length_b                   17.717(5)
_cell_length_c                   9.387(3)
_cell_angle_alpha                90
_cell_angle_beta                 99.038(4)
_cell_angle_gamma                90
_cell_volume                     3312.32
_exptl_crystal_colour            colorless
_exptl_crystal_description       prism
_cell_formula_units_Z            8
loop_
_atom_site_label
_atom_site_type_symbol
_atom_site_fract_x
_atom_site_fract_y
_atom_site_fract_z
F1 F 0.34425(5) 0.39190(5) 0.60771(9)
F2 F 0.29191(5) 0.36727(5) 0.37910(10)
O1 O 0.37052(7) 0.72185(7) 0.28130(14)
O2 O 0.34138(6) 0.26935(6) 0.51847(12)
O3 O 0.54362(7) 0.41592(8) 0.03261(12)
N1 N 0.34020(7) 0.60981(8) 0.37351(14)
N2 N 0.38152(6) 0.49062(7) 0.39220(13)
N3 N 0.41478(7) 0.36567(7) 0.42365(13)
B1 B 0.34673(10) 0.34931(10) 0.4831(2)
C1 C 0.27652(9) 0.72150(9) 0.40922(18)
H1 H 0.2940 0.7448 0.5022
H2 H 0.2434 0.6828 0.4232
H3 H 0.2551 0.7602 0.3428
C2 C 0.33331(9) 0.68582(9) 0.34702(17)
C3 C 0.39267(8) 0.56121(9) 0.35297(15)
C4 C 0.45114(8) 0.58420(9) 0.29988(15)
H4 H 0.4571 0.6351 0.2724
C5 C 0.49892(8) 0.53075(9) 0.28932(15)
H5 H 0.5389 0.5447 0.2543
C6 C 0.48982(8) 0.45491(9) 0.32968(15)
C7 C 0.53734(8) 0.39570(9) 0.32280(15)
C8 C 0.52121(8) 0.32499(9) 0.36382(15)
H6 H 0.5519 0.2848 0.3581
C9 C 0.46010(8) 0.30968(9) 0.41472(16)
C10 C 0.44485(9) 0.23485(9) 0.45533(17)
H7 H 0.4766 0.1959 0.4487
C11 C 0.38700(9) 0.21738(9) 0.50280(17)
C12 C 0.42926(8) 0.43852(9) 0.38091(15)
C13 C 0.36726(9) 0.13923(9) 0.53740(19)
H8 H 0.3489 0.1396 0.6280
H9 H 0.4068 0.1063 0.5474
H10 H 0.3332 0.1204 0.4595
C14 C 0.60347(8) 0.41023(9) 0.27199(16)
H11 H 0.6342 0.3677 0.3028
H12 H 0.6237 0.4565 0.3193
C15 C 0.59754(9) 0.41950(9) 0.11029(17)
C16 C 0.66226(9) 0.43223(11) 0.05323(19)
H13 H 0.6894 0.3876 0.0679
H14 H 0.6860 0.4738 0.1033
H15 H 0.6527 0.4434 -0.0480
H16 H 0.3080(7) 0.5881(9) 0.4157(17)
F3 F 0.16831(5) 0.52444(5) 0.74299(9)
F4 F 0.19415(5) 0.64075(5) 0.66607(9)
O4 O 0.08855(6) 0.47005(7) 0.03691(12)
O5 O 0.16141(6) 0.62870(6) 0.89014(11)
O6 O -0.11857(7) 0.76471(7) 0.41169(14)
N4 N 0.13912(7) 0.50606(8) 0.26275(14)
N5 N 0.10304(6) 0.55997(7) 0.45781(13)
N6 N 0.07526(7) 0.61243(7) 0.66772(13)
B2 B 0.15109(10) 0.60095(11) 0.74119(19)
C17 C 0.20599(9) 0.44699(10) 0.09989(17)
H17 H 0.2063 0.3917 0.1007
H18 H 0.2412 0.4659 0.1755
H19 H 0.2144 0.4652 0.0057
C18 C 0.13877(9) 0.47502(9) 0.12723(17)
C19 C 0.08591(8) 0.53810(9) 0.32026(16)
C20 C 0.02096(8) 0.54750(9) 0.24054(17)
H20 H 0.0113 0.5331 0.1420
C21 C -0.02751(8) 0.57800(9) 0.30979(17)
H21 H -0.0717 0.5845 0.2589
C22 C -0.01261(8) 0.60006(9) 0.45642(17)
C23 C -0.06069(8) 0.62927(9) 0.53860(17)
C24 C -0.03894(8) 0.65005(9) 0.67837(18)
H22 H -0.0703 0.6703 0.7339
C25 C 0.02931(9) 0.64218(9) 0.74251(17)
C26 C 0.04976(9) 0.66587(10) 0.88875(17)
H23 H 0.0173 0.6869 0.9404
C27 C 0.11354(9) 0.65920(9) 0.95496(17)
C28 C 0.05482(8) 0.59070(8) 0.52362(16)
C29 C 0.13866(9) 0.68533(10) 1.10551(17)
H24 H 0.1650 0.6450 1.1589
H25 H 0.1004 0.6980 1.1538
H26 H 0.1670 0.7301 1.1023
C30 C -0.13394(8) 0.63583(9) 0.47250(18)
H27 H -0.1616 0.6349 0.5508
H28 H -0.1464 0.5913 0.4104
C31 C -0.15052(9) 0.70692(10) 0.38309(18)
C32 C -0.20849(9) 0.70210(11) 0.2619(2)
H29 H -0.2218 0.7531 0.2283
H30 H -0.2464 0.6771 0.2960
H31 H -0.1951 0.6730 0.1823
H32 H 0.1776(6) 0.5050(9) 0.3263(15)
O7 O 0.25012(6) 0.51779(7) 0.49894(13)
H33 H 0.2733(11) 0.4762(13) 0.521(2)
H34 H 0.2236(11) 0.5271(12) 0.561(2)
loop_
_geom_bond_atom_site_label_1
_geom_bond_atom_site_label_2
_geom_bond_site_symmetry_1
_geom_bond_site_symmetry_2
F1 B1 1_555 1_555
F2 B1 1_555 1_555
O1 C2 1_555 1_555
O2 B1 1_555 1_555
O3 C15 1_555 1_555
N1 C2 1_555 1_555
N2 C3 1_555 1_555
N3 B1 1_555 1_555
C1 H1 1_555 1_555
H2 C1 1_555 1_555
H3 C1 1_555 1_555
C2 C1 1_555 1_555
C3 N1 1_555 1_555
C4 C3 1_555 1_555
H4 C4 1_555 1_555
C5 C4 1_555 1_555
H5 C5 1_555 1_555
C6 C5 1_555 1_555
C7 C6 1_555 1_555
C8 C7 1_555 1_555
H6 C8 1_555 1_555
C9 N3 1_555 1_555
C10 C9 1_555 1_555
H7 C10 1_555 1_555
C11 O2 1_555 1_555
C12 N2 1_555 1_555
C13 C11 1_555 1_555
H8 C13 1_555 1_555
H9 C13 1_555 1_555
H10 C13 1_555 1_555
C14 C7 1_555 1_555
H11 C14 1_555 1_555
H12 C14 1_555 1_555
C15 C14 1_555 1_555
C16 C15 1_555 1_555
H13 C16 1_555 1_555
H14 C16 1_555 1_555
H15 C16 1_555 1_555
H16 N1 1_555 1_555
F3 B2 1_555 1_555
F4 B2 1_555 1_555
O4 C18 1_555 1_555
O5 B2 1_555 1_555
O6 C31 1_555 1_555
N4 C18 1_555 1_555
N5 C19 1_555 1_555
N6 B2 1_555 1_555
C17 H17 1_555 1_555
H18 C17 1_555 1_555
H19 C17 1_555 1_555
C18 C17 1_555 1_555
C19 N4 1_555 1_555
C20 C19 1_555 1_555
H20 C20 1_555 1_555
C21 C20 1_555 1_555
H21 C21 1_555 1_555
C22 C21 1_555 1_555
C23 C22 1_555 1_555
C24 C23 1_555 1_555
H22 C24 1_555 1_555
C25 N6 1_555 1_555
C26 C25 1_555 1_555
H23 C26 1_555 1_555
C27 O5 1_555 1_555
C28 N5 1_555 1_555
C29 C27 1_555 1_555
H24 C29 1_555 1_555
H25 C29 1_555 1_555
H26 C29 1_555 1_555
C30 C23 1_555 1_555
H27 C30 1_555 1_555
H28 C30 1_555 1_555
C31 C30 1_555 1_555
C32 C31 1_555 1_555
H29 C32 1_555 1_555
H30 C32 1_555 1_555
H31 C32 1_555 1_555
H32 N4 1_555 1_555
O7 H33 1_555 1_555
H34 O7 1_555 1_555
N3 C12 1_555 1_555
C6 C12 1_555 1_555
C8 C9 1_555 1_555
C10 C11 1_555 1_555
N6 C28 1_555 1_555
C22 C28 1_555 1_555
C24 C25 1_555 1_555
C26 C27 1_555 1_555

#END
