
#######################################################################
#
#                 Cambridge Crystallographic Data Centre
#                                CCDC 
#
#######################################################################
#
# If this CIF has been generated from an entry in the Cambridge 
# Structural Database, then it will include bibliographic, chemical, 
# crystal, experimental, refinement or atomic coordinate data resulting 
# from the CCDC's data processing and validation procedures.
#
#######################################################################

data_MONSBR
_chemical_formula_moiety         'C36 H62 Na1 O11 1+,Br1 1-'
_chemical_name_systematic        'Monensin-sodium bromide'
_chemical_properties_biological  
'derivative of anticoccidal antibiotic, antifungal agent'
_symmetry_cell_setting           orthorhombic
_symmetry_space_group_name_H-M   'P 21 21 21'
_symmetry_Int_Tables_number      19
_space_group_name_Hall           'P 2ac 2ab'
loop_
_symmetry_equiv_pos_site_id
_symmetry_equiv_pos_as_xyz
1 x,y,z
2 1/2+x,1/2-y,-z
3 -x,1/2+y,1/2-z
4 1/2-x,-y,1/2+z
_cell_length_a                   16.618(4)
_cell_length_b                   18.702(4)
_cell_length_c                   12.923(3)
_cell_angle_alpha                90
_cell_angle_beta                 90
_cell_angle_gamma                90
_cell_volume                     4016.34
_cell_formula_units_Z            4
loop_
_atom_site_label
_atom_site_type_symbol
_atom_site_fract_x
_atom_site_fract_y
_atom_site_fract_z
Br1 Br 0.32636 -0.26477 -0.44349
Na1 Na 0.10770 -0.36040 0.35400
O1 O 0.16450 -0.20020 0.14260
O2 O 0.26950 -0.19560 0.24920
O3 O 0.40510 -0.23310 -0.02190
O4 O 0.24790 -0.36210 0.37790
O5 O 0.27470 -0.43270 0.12920
O6 O 0.15840 -0.44340 0.23220
O7 O -0.00010 -0.44470 0.29560
O8 O 0.03930 -0.41460 0.50470
O9 O 0.06400 -0.27650 0.48700
O10 O 0.17490 -0.21610 0.42190
O11 O 0.05600 -0.24950 0.28440
C1 C 0.23720 -0.19480 0.15810
C2 C 0.29520 -0.18940 0.06800
C3 C 0.35680 -0.24930 0.06900
C4 C 0.32420 -0.32580 0.05780
C5 C 0.29370 -0.36030 0.15700
C6 C 0.35180 -0.36080 0.24770
C7 C 0.31490 -0.40090 0.33770
C8 C 0.28690 -0.47320 0.30510
C9 C 0.23760 -0.47280 0.20910
C10 C 0.21820 -0.54700 0.16250
C11 C 0.13970 -0.53550 0.10670
C12 C 0.09630 -0.47590 0.16680
C13 C 0.03150 -0.50250 0.23940
C14 C 0.05440 -0.55490 0.32410
C15 C -0.00990 -0.54430 0.40750
C16 C -0.04870 -0.47140 0.37910
C17 C -0.04270 -0.41450 0.46190
C18 C -0.09380 -0.41490 0.55960
C19 C -0.04920 -0.35880 0.62250
C20 C 0.04130 -0.37360 0.59810
C21 C 0.09050 -0.30590 0.58340
C22 C 0.08560 -0.25330 0.67360
C23 C 0.12030 -0.18120 0.63940
C24 C 0.08460 -0.15400 0.54160
C25 C 0.09310 -0.20840 0.45520
C26 C 0.04610 -0.19370 0.35780
C27 C -0.13570 -0.48030 0.33970
C28 C 0.33560 -0.11570 0.07600
C29 C 0.48730 -0.25570 -0.01590
C30 C 0.26290 -0.33090 -0.02940
C31 C 0.43430 -0.39450 0.21870
C32 C 0.06140 -0.41930 0.09650
C33 C -0.17090 -0.42060 0.28320
C34 C -0.10370 -0.48620 0.61580
C35 C 0.12830 -0.28200 0.77030
C36 C 0.11940 -0.08220 0.51200
H1 H 0.23490 -0.20340 0.31320
H2 H 0.27250 -0.33150 0.43380
H3 H 0.22320 -0.23170 0.46490
H4 H 0.09500 -0.23160 0.23410
H5 H 0.26410 -0.19170 0.00230
H6 H 0.39100 -0.24530 0.13260
H7 H 0.37100 -0.35550 0.03540
H8 H 0.24320 -0.33510 0.17940
H9 H 0.36140 -0.31020 0.26990
H10 H 0.35640 -0.40660 0.39310
H11 H 0.25270 -0.49340 0.36260
H12 H 0.33430 -0.50440 0.29400
H13 H 0.21210 -0.58350 0.21780
H14 H 0.26110 -0.56170 0.11290
H15 H 0.10750 -0.58040 0.10770
H16 H 0.15010 -0.52060 0.03370
H17 H -0.01270 -0.52360 0.19770
H18 H 0.10900 -0.54410 0.35200
H19 H 0.05340 -0.60500 0.29660
H20 H 0.01480 -0.54310 0.47700
H21 H -0.05070 -0.58380 0.40350
H22 H -0.05120 -0.36700 0.42770
H23 H -0.14830 -0.39550 0.54220
H24 H -0.06060 -0.36500 0.69800
H25 H -0.06500 -0.30960 0.60050
H26 H 0.06530 -0.40320 0.65460
H27 H 0.14860 -0.31980 0.57480
H28 H 0.02770 -0.24580 0.69060
H29 H 0.17930 -0.18760 0.62860
H30 H 0.11000 -0.14590 0.69490
H31 H 0.02580 -0.14700 0.55360
H32 H -0.01180 -0.18820 0.37630
H33 H 0.06640 -0.14800 0.32670
H34 H -0.17070 -0.48880 0.40090
H35 H -0.13680 -0.52250 0.29280
H36 H 0.36450 -0.11170 0.14380
H37 H 0.29300 -0.07760 0.07250
H38 H 0.37420 -0.10940 0.01810
H39 H 0.48820 -0.30910 -0.00690
H40 H 0.51380 -0.23250 0.04400
H41 H 0.51530 -0.24290 -0.08140
H42 H 0.28890 -0.31720 -0.09670
H43 H 0.21660 -0.29840 -0.01560
H44 H 0.24280 -0.38150 -0.03510
H45 H 0.45930 -0.36620 0.16150
H46 H 0.42590 -0.44480 0.19560
H47 H 0.47040 -0.39360 0.28050
H48 H 0.10400 -0.39820 0.05280
H49 H 0.03650 -0.38040 0.14090
H50 H 0.01820 -0.44070 0.05250
H51 H -0.13710 -0.41120 0.21990
H52 H -0.17110 -0.37750 0.32800
H53 H -0.22640 -0.43330 0.26190
H54 H -0.04990 -0.50410 0.63710
H55 H -0.13000 -0.52100 0.56800
H56 H -0.13840 -0.47870 0.67810
H57 H 0.18610 -0.29110 0.75370
H58 H 0.10210 -0.32820 0.79110
H59 H 0.12360 -0.24680 0.82730
H60 H 0.17970 -0.08730 0.50350
H61 H 0.10910 -0.04720 0.56950
H62 H 0.09540 -0.06500 0.44710
loop_
_geom_bond_atom_site_label_1
_geom_bond_atom_site_label_2
_geom_bond_site_symmetry_1
_geom_bond_site_symmetry_2
Na1 O4 1_555 1_555
O1 C1 1_555 1_555
O2 C1 1_555 1_555
O3 C3 1_555 1_555
O4 C7 1_555 1_555
O5 C5 1_555 1_555
O6 Na1 1_555 1_555
O7 Na1 1_555 1_555
O8 Na1 1_555 1_555
O9 Na1 1_555 1_555
O10 C25 1_555 1_555
O11 Na1 1_555 1_555
C1 C2 1_555 1_555
C2 C3 1_555 1_555
C3 C4 1_555 1_555
C4 C5 1_555 1_555
C5 C6 1_555 1_555
C6 C7 1_555 1_555
C7 C8 1_555 1_555
C8 C9 1_555 1_555
C9 O5 1_555 1_555
C10 C9 1_555 1_555
C11 C10 1_555 1_555
C12 O6 1_555 1_555
C13 O7 1_555 1_555
C14 C13 1_555 1_555
C15 C14 1_555 1_555
C16 O7 1_555 1_555
C17 O8 1_555 1_555
C18 C17 1_555 1_555
C19 C18 1_555 1_555
C20 O8 1_555 1_555
C21 O9 1_555 1_555
C22 C21 1_555 1_555
C23 C22 1_555 1_555
C24 C23 1_555 1_555
C25 O9 1_555 1_555
C26 O11 1_555 1_555
C27 C16 1_555 1_555
C28 C2 1_555 1_555
C29 O3 1_555 1_555
C30 C4 1_555 1_555
C31 C6 1_555 1_555
C32 C12 1_555 1_555
C33 C27 1_555 1_555
C34 C18 1_555 1_555
C35 C22 1_555 1_555
C36 C24 1_555 1_555
H1 O2 1_555 1_555
H2 O4 1_555 1_555
H3 O10 1_555 1_555
H4 O11 1_555 1_555
H5 C2 1_555 1_555
H6 C3 1_555 1_555
H7 C4 1_555 1_555
H8 C5 1_555 1_555
H9 C6 1_555 1_555
H10 C7 1_555 1_555
H11 C8 1_555 1_555
H12 C8 1_555 1_555
H13 C10 1_555 1_555
H14 C10 1_555 1_555
H15 C11 1_555 1_555
H16 C11 1_555 1_555
H17 C13 1_555 1_555
H18 C14 1_555 1_555
H19 C14 1_555 1_555
H20 C15 1_555 1_555
H21 C15 1_555 1_555
H22 C17 1_555 1_555
H23 C18 1_555 1_555
H24 C19 1_555 1_555
H25 C19 1_555 1_555
H26 C20 1_555 1_555
H27 C21 1_555 1_555
H28 C22 1_555 1_555
H29 C23 1_555 1_555
H30 C23 1_555 1_555
H31 C24 1_555 1_555
H32 C26 1_555 1_555
H33 C26 1_555 1_555
H34 C27 1_555 1_555
H35 C27 1_555 1_555
H36 C28 1_555 1_555
H37 C28 1_555 1_555
H38 C28 1_555 1_555
H39 C29 1_555 1_555
H40 C29 1_555 1_555
H41 C29 1_555 1_555
H42 C30 1_555 1_555
H43 C30 1_555 1_555
H44 C30 1_555 1_555
H45 C31 1_555 1_555
H46 C31 1_555 1_555
H47 C31 1_555 1_555
H48 C32 1_555 1_555
H49 C32 1_555 1_555
H50 C32 1_555 1_555
H51 C33 1_555 1_555
H52 C33 1_555 1_555
H53 C33 1_555 1_555
H54 C34 1_555 1_555
H55 C34 1_555 1_555
H56 C34 1_555 1_555
H57 C35 1_555 1_555
H58 C35 1_555 1_555
H59 C35 1_555 1_555
H60 C36 1_555 1_555
H61 C36 1_555 1_555
H62 C36 1_555 1_555
O6 C9 1_555 1_555
C11 C12 1_555 1_555
C12 C13 1_555 1_555
C15 C16 1_555 1_555
C16 C17 1_555 1_555
C19 C20 1_555 1_555
C20 C21 1_555 1_555
C24 C25 1_555 1_555
C25 C26 1_555 1_555

#END
