
#######################################################################
#
#                 Cambridge Crystallographic Data Centre
#                                CCDC 
#
#######################################################################
#
# If this CIF has been generated from an entry in the Cambridge 
# Structural Database, then it will include bibliographic, chemical, 
# crystal, experimental, refinement or atomic coordinate data resulting 
# from the CCDC's data processing and validation procedures.
#
#######################################################################

data_MONTOA
_chemical_formula_moiety         'C19 H20 Cl1 N1 O3'
_chemical_name_systematic        
1-(3-(bis(2-hydroxyethyl)amino)phenyl)-3-(4-chlorophenyl)prop-2-en-1-one
_symmetry_cell_setting           monoclinic
_symmetry_space_group_name_H-M   'P 21/n'
_symmetry_Int_Tables_number      14
_space_group_name_Hall           '-P 2yn'
loop_
_symmetry_equiv_pos_site_id
_symmetry_equiv_pos_as_xyz
1 x,y,z
2 1/2-x,1/2+y,1/2-z
3 -x,-y,-z
4 1/2+x,1/2-y,1/2+z
_cell_length_a                   11.770(2)
_cell_length_b                   8.3354(14)
_cell_length_c                   17.447(3)
_cell_angle_alpha                90
_cell_angle_beta                 98.411(2)
_cell_angle_gamma                90
_cell_volume                     1693.27
_cell_formula_units_Z            4
loop_
_atom_site_label
_atom_site_type_symbol
_atom_site_fract_x
_atom_site_fract_y
_atom_site_fract_z
Cl1 Cl 0.45324(9) 0.59372(14) 1.16196(5)
N1 N 0.34746(19) 0.6047(3) 0.42239(12)
O1 O 0.16225(18) 0.5886(3) 0.66776(12)
O2 O 0.31603(18) 0.8524(3) 0.30196(12)
H1 H 0.3215 0.9303 0.2740
O3 O 0.1523(2) 0.6196(3) 0.28625(13)
H2 H 0.1920 0.7006 0.2876
C1 C 0.2909(3) 0.5314(4) 1.04108(17)
H3 H 0.2554 0.4705 1.0755
C2 C 0.2435(3) 0.5415(4) 0.96373(17)
H4 H 0.1758 0.4866 0.9465
C3 C 0.2946(2) 0.6316(4) 0.91167(16)
C4 C 0.3930(3) 0.7182(4) 0.93999(17)
H5 H 0.4263 0.7843 0.9066
C5 C 0.4419(3) 0.7078(4) 1.01654(18)
H6 H 0.5085 0.7645 1.0346
C6 C 0.3903(3) 0.6117(4) 1.06615(17)
C7 C 0.2501(3) 0.6220(4) 0.82852(17)
H7 H 0.1802 0.5697 0.8153
C8 C 0.2977(3) 0.6788(4) 0.77133(18)
H8 H 0.3615 0.7447 0.7834
C9 C 0.2573(3) 0.6455(4) 0.68867(17)
C10 C 0.3379(2) 0.6774(3) 0.63210(15)
C11 C 0.4442(2) 0.7509(3) 0.65401(16)
H9 H 0.4667 0.7829 0.7050
C12 C 0.5154(2) 0.7754(3) 0.59873(16)
H10 H 0.5858 0.8257 0.6130
C13 C 0.4844(2) 0.7271(3) 0.52319(15)
H11 H 0.5348 0.7442 0.4876
C14 C 0.3785(2) 0.6526(3) 0.49879(15)
C15 C 0.3061(2) 0.6301(3) 0.55518(15)
H12 H 0.2348 0.5822 0.5408
C16 C 0.4238(3) 0.6337(3) 0.36520(16)
H13 H 0.4002 0.5655 0.3207
H14 H 0.5010 0.6019 0.3873
C17 C 0.4275(3) 0.8047(4) 0.33757(16)
H15 H 0.4534 0.8746 0.3811
H16 H 0.4813 0.8137 0.3006
C18 C 0.2528(2) 0.4927(4) 0.40180(16)
H17 H 0.2370 0.4392 0.4485
H18 H 0.2764 0.4115 0.3676
C19 C 0.1442(3) 0.5694(4) 0.3629(2)
H19 H 0.0815 0.4935 0.3616
H20 H 0.1265 0.6615 0.3930
loop_
_geom_bond_atom_site_label_1
_geom_bond_atom_site_label_2
_geom_bond_site_symmetry_1
_geom_bond_site_symmetry_2
Cl1 C6 1_555 1_555
N1 C14 1_555 1_555
O1 C9 1_555 1_555
O2 H1 1_555 1_555
O3 H2 1_555 1_555
C1 H3 1_555 1_555
C2 C1 1_555 1_555
H4 C2 1_555 1_555
C3 C2 1_555 1_555
C4 C3 1_555 1_555
H5 C4 1_555 1_555
C5 C4 1_555 1_555
H6 C5 1_555 1_555
C6 C1 1_555 1_555
C7 C3 1_555 1_555
H7 C7 1_555 1_555
C8 C7 1_555 1_555
H8 C8 1_555 1_555
C9 C8 1_555 1_555
C10 C9 1_555 1_555
C11 C10 1_555 1_555
H9 C11 1_555 1_555
C12 C11 1_555 1_555
H10 C12 1_555 1_555
C13 C12 1_555 1_555
H11 C13 1_555 1_555
C14 C13 1_555 1_555
C15 C10 1_555 1_555
H12 C15 1_555 1_555
C16 N1 1_555 1_555
H13 C16 1_555 1_555
H14 C16 1_555 1_555
C17 O2 1_555 1_555
H15 C17 1_555 1_555
H16 C17 1_555 1_555
C18 N1 1_555 1_555
H17 C18 1_555 1_555
H18 C18 1_555 1_555
C19 O3 1_555 1_555
H19 C19 1_555 1_555
H20 C19 1_555 1_555
C5 C6 1_555 1_555
C14 C15 1_555 1_555
C16 C17 1_555 1_555
C18 C19 1_555 1_555

#END
