
#######################################################################
#
#                 Cambridge Crystallographic Data Centre
#                                CCDC 
#
#######################################################################
#
# If this CIF has been generated from an entry in the Cambridge 
# Structural Database, then it will include bibliographic, chemical, 
# crystal, experimental, refinement or atomic coordinate data resulting 
# from the CCDC's data processing and validation procedures.
#
#######################################################################

data_MOPDOM
_chemical_formula_moiety         'C29 H43 K1 O8 S1'
_chemical_name_systematic        
(1,4,7,10,13,16-hexaoxacyclooctadecane)-(phenyl(phenylsulfinyl)methyl)-tetrahydrofuran-potassium
_symmetry_cell_setting           monoclinic
_symmetry_space_group_name_H-M   'P 21/c'
_symmetry_Int_Tables_number      14
_space_group_name_Hall           '-P 2ybc'
loop_
_symmetry_equiv_pos_site_id
_symmetry_equiv_pos_as_xyz
1 x,y,z
2 -x,1/2+y,1/2-z
3 -x,-y,-z
4 x,1/2-y,1/2+z
_cell_length_a                   9.5645(3)
_cell_length_b                   16.7134(5)
_cell_length_c                   18.9997(6)
_cell_angle_alpha                90
_cell_angle_beta                 93.016(2)
_cell_angle_gamma                90
_cell_volume                     3033
_cell_formula_units_Z            4
loop_
_atom_site_label
_atom_site_type_symbol
_atom_site_fract_x
_atom_site_fract_y
_atom_site_fract_z
C1 C 0.49636(15) 0.18313(9) 0.37574(8)
C2 C 0.58438(17) 0.12028(10) 0.39692(8)
C3 C 0.68888(17) 0.13330(11) 0.44943(9)
C4 C 0.70739(18) 0.20873(12) 0.47935(9)
C5 C 0.62043(18) 0.27101(11) 0.45706(9)
C6 C 0.51316(17) 0.25845(10) 0.40584(9)
C7 C 0.41987(17) 0.17315(10) 0.23713(8)
C8 C 0.37097(16) 0.12450(9) 0.17853(8)
C9 C 0.26175(17) 0.06757(10) 0.18188(8)
C10 C 0.22593(18) 0.01691(10) 0.12614(9)
C11 C 0.29320(19) 0.02159(10) 0.06303(9)
C12 C 0.39580(18) 0.07966(11) 0.05709(9)
C13 C 0.43369(17) 0.12992(10) 0.11251(9)
O1 O 0.24441(12) 0.22628(7) 0.33361(6)
S1 S 0.34949(4) 0.16121(2) 0.316235(19)
K1 K 0.17445(3) 0.313703(19) 0.216430(16)
O2 O -0.08712(11) 0.24647(7) 0.24435(6)
O3 O -0.00638(11) 0.24443(6) 0.10574(6)
O4 O 0.26580(11) 0.30720(7) 0.07892(6)
O5 O 0.39880(11) 0.41921(7) 0.17264(6)
O6 O 0.30390(12) 0.42183(7) 0.30830(6)
O7 O 0.02536(11) 0.37311(6) 0.33267(5)
O8 O 0.03970(14) 0.44138(8) 0.15325(8)
C14 C -0.17639(16) 0.21593(10) 0.18872(9)
C15 C -0.08609(17) 0.18130(10) 0.13372(8)
C16 C 0.07815(17) 0.21771(10) 0.05052(8)
C17 C 0.16204(18) 0.28743(10) 0.02571(8)
C18 C 0.35586(18) 0.36909(10) 0.05690(8)
C19 C 0.46534(17) 0.38417(10) 0.11503(8)
C20 C 0.49273(17) 0.43080(11) 0.23243(8)
C21 C 0.41528(18) 0.47234(10) 0.28858(8)
C22 C 0.22214(18) 0.45828(10) 0.35949(8)
C23 C 0.12456(17) 0.39668(10) 0.38739(8)
C24 C -0.06154(16) 0.31022(10) 0.35638(8)
C25 C -0.16276(16) 0.28455(11) 0.29744(9)
C26 C 0.0684(2) 0.52184(12) 0.17458(11)
C27 C -0.02152(19) 0.57492(11) 0.12557(12)
C28 C -0.1272(2) 0.51702(12) 0.08956(10)
C29 C -0.1056(2) 0.44099(12) 0.13157(12)
H1 H 0.572(2) 0.0695(13) 0.3773(11)
H2 H 0.748(2) 0.0893(14) 0.4632(12)
H3 H 0.777(2) 0.2163(13) 0.5150(12)
H4 H 0.636(2) 0.3232(15) 0.4774(13)
H5 H 0.450(2) 0.2994(14) 0.3932(12)
H6 H 0.491(3) 0.2146(14) 0.2349(12)
H7 H 0.213(2) 0.0631(13) 0.2267(11)
H8 H 0.154(2) -0.0209(13) 0.1313(11)
H9 H 0.271(2) -0.0134(15) 0.0260(13)
H10 H 0.441(2) 0.0833(13) 0.0134(12)
H11 H 0.506(2) 0.1705(13) 0.1055(11)
H12 H -0.236(2) 0.2586(13) 0.1704(11)
H13 H -0.239(2) 0.1754(13) 0.2067(11)
H14 H -0.023(2) 0.1398(12) 0.1545(11)
H15 H -0.146(2) 0.1563(13) 0.0970(11)
H16 H 0.018(2) 0.1979(12) 0.0138(11)
H17 H 0.140(2) 0.1744(12) 0.0673(11)
H18 H 0.205(2) 0.2742(13) -0.0174(11)
H19 H 0.101(2) 0.3321(12) 0.0164(11)
H20 H 0.302(2) 0.4173(13) 0.0488(11)
H21 H 0.397(2) 0.3546(13) 0.0152(12)
H22 H 0.507(2) 0.3344(13) 0.1295(11)
H23 H 0.537(2) 0.4203(13) 0.0987(11)
H24 H 0.573(2) 0.4644(12) 0.2203(11)
H25 H 0.529(2) 0.3793(13) 0.2490(11)
H26 H 0.481(2) 0.4806(13) 0.3281(11)
H27 H 0.374(2) 0.5214(12) 0.2711(10)
H28 H 0.169(2) 0.5019(12) 0.3394(10)
H29 H 0.283(2) 0.4768(13) 0.3980(11)
H30 H 0.182(2) 0.3504(12) 0.4048(11)
H31 H 0.075(2) 0.4196(13) 0.4254(11)
H32 H -0.114(2) 0.3282(12) 0.3948(11)
H33 H -0.004(2) 0.2650(12) 0.3725(10)
H34 H -0.228(2) 0.2493(13) 0.3160(11)
H35 H -0.216(2) 0.3298(13) 0.2785(11)
H36 H 0.168(3) 0.5310(14) 0.1710(12)
H37 H 0.042(3) 0.5268(16) 0.2229(14)
H38 H 0.031(3) 0.5994(17) 0.0913(15)
H39 H -0.067(3) 0.6139(15) 0.1513(13)
H40 H -0.223(3) 0.5345(15) 0.0907(12)
H41 H -0.106(3) 0.5069(16) 0.0403(14)
H42 H -0.165(3) 0.4436(15) 0.1737(14)
H43 H -0.126(3) 0.3935(18) 0.1048(15)
loop_
_geom_bond_atom_site_label_1
_geom_bond_atom_site_label_2
_geom_bond_site_symmetry_1
_geom_bond_site_symmetry_2
C1 C2 1_555 1_555
C2 C3 1_555 1_555
C3 C4 1_555 1_555
C4 C5 1_555 1_555
C5 C6 1_555 1_555
C6 C1 1_555 1_555
C7 C8 1_555 1_555
C8 C9 1_555 1_555
C9 C10 1_555 1_555
C10 C11 1_555 1_555
C11 C12 1_555 1_555
C12 C13 1_555 1_555
C13 C8 1_555 1_555
O1 S1 1_555 1_555
S1 C1 1_555 1_555
K1 C7 1_555 1_555
O2 K1 1_555 1_555
O3 K1 1_555 1_555
O4 K1 1_555 1_555
O5 K1 1_555 1_555
O6 K1 1_555 1_555
O7 K1 1_555 1_555
O8 K1 1_555 1_555
C14 O2 1_555 1_555
C15 O3 1_555 1_555
C16 O3 1_555 1_555
C17 O4 1_555 1_555
C18 O4 1_555 1_555
C19 O5 1_555 1_555
C20 O5 1_555 1_555
C21 O6 1_555 1_555
C22 O6 1_555 1_555
C23 O7 1_555 1_555
C24 O7 1_555 1_555
C25 O2 1_555 1_555
C26 O8 1_555 1_555
C27 C26 1_555 1_555
C28 C27 1_555 1_555
C29 O8 1_555 1_555
H1 C2 1_555 1_555
H2 C3 1_555 1_555
H3 C4 1_555 1_555
H4 C5 1_555 1_555
H5 C6 1_555 1_555
H6 C7 1_555 1_555
H7 C9 1_555 1_555
H8 C10 1_555 1_555
H9 C11 1_555 1_555
H10 C12 1_555 1_555
H11 C13 1_555 1_555
H12 C14 1_555 1_555
H13 C14 1_555 1_555
H14 C15 1_555 1_555
H15 C15 1_555 1_555
H16 C16 1_555 1_555
H17 C16 1_555 1_555
H18 C17 1_555 1_555
H19 C17 1_555 1_555
H20 C18 1_555 1_555
H21 C18 1_555 1_555
H22 C19 1_555 1_555
H23 C19 1_555 1_555
H24 C20 1_555 1_555
H25 C20 1_555 1_555
H26 C21 1_555 1_555
H27 C21 1_555 1_555
H28 C22 1_555 1_555
H29 C22 1_555 1_555
H30 C23 1_555 1_555
H31 C23 1_555 1_555
H32 C24 1_555 1_555
H33 C24 1_555 1_555
H34 C25 1_555 1_555
H35 C25 1_555 1_555
H36 C26 1_555 1_555
H37 C26 1_555 1_555
H38 C27 1_555 1_555
H39 C27 1_555 1_555
H40 C28 1_555 1_555
H41 C28 1_555 1_555
H42 C29 1_555 1_555
H43 C29 1_555 1_555
C7 S1 1_555 1_555
O1 K1 1_555 1_555
C14 C15 1_555 1_555
C16 C17 1_555 1_555
C18 C19 1_555 1_555
C20 C21 1_555 1_555
C22 C23 1_555 1_555
C24 C25 1_555 1_555
C28 C29 1_555 1_555

#END
