
#######################################################################
#
#                 Cambridge Crystallographic Data Centre
#                                CCDC 
#
#######################################################################
#
# If this CIF has been generated from an entry in the Cambridge 
# Structural Database, then it will include bibliographic, chemical, 
# crystal, experimental, refinement or atomic coordinate data resulting 
# from the CCDC's data processing and validation procedures.
#
#######################################################################

data_MOPFUT
_chemical_formula_moiety         'C32 H31 N1 O4 S2'
_chemical_name_systematic        
(Z)-N-(1,3-Diphenyl-2-p-tosyl-2,5-hexadienyl)-4-methylbenzenesulfonamide
_symmetry_cell_setting           monoclinic
_symmetry_space_group_name_H-M   'P 21/n'
_symmetry_Int_Tables_number      14
_space_group_name_Hall           '-P 2yn'
loop_
_symmetry_equiv_pos_site_id
_symmetry_equiv_pos_as_xyz
1 x,y,z
2 1/2-x,1/2+y,1/2-z
3 -x,-y,-z
4 1/2+x,1/2-y,1/2+z
_cell_length_a                   11.3881(2)
_cell_length_b                   15.2974(2)
_cell_length_c                   17.1238(3)
_cell_angle_alpha                90
_cell_angle_beta                 107.6200(10)
_cell_angle_gamma                90
_cell_volume                     2843.16
_exptl_crystal_colour            colorless
_chemical_melting_point          140-143deg.C
_cell_formula_units_Z            4
loop_
_atom_site_label
_atom_site_type_symbol
_atom_site_fract_x
_atom_site_fract_y
_atom_site_fract_z
C1 C 1.0040(3) 1.08475(17) 0.21918(19)
H1 H 1.0438 1.0759 0.1778
H2 H 1.0549 1.1210 0.2619
H3 H 0.9259 1.1128 0.1954
C2 C 0.9843(2) 0.99767(14) 0.25458(14)
C3 C 0.8767(2) 0.95123(15) 0.22220(14)
H4 H 0.8166 0.9734 0.1769
C4 C 0.85588(18) 0.87252(14) 0.25546(12)
H5 H 0.7829 0.8420 0.2326
C5 C 0.94509(17) 0.83991(12) 0.32313(11)
C6 C 1.05403(18) 0.88509(13) 0.35612(12)
H6 H 1.1142 0.8630 0.4015
C7 C 1.07300(19) 0.96297(14) 0.32152(13)
H7 H 1.1468 0.9928 0.3435
C8 C 0.92520(17) 0.60537(12) 0.26618(10)
H8 H 0.8372 0.6128 0.2594
C9 C 0.95392(17) 0.51037(12) 0.29229(11)
C10 C 0.9618(2) 0.48609(16) 0.37152(14)
H9 H 0.9548 0.5282 0.4090
C11 C 0.9802(3) 0.3991(2) 0.39541(18)
H10 H 0.9855 0.3836 0.4489
C12 C 0.9904(2) 0.33656(18) 0.3421(2)
H11 H 1.0047 0.2788 0.3592
C13 C 0.9796(2) 0.35885(15) 0.26267(19)
H12 H 0.9846 0.3159 0.2253
C14 C 0.9612(2) 0.44560(13) 0.23806(15)
H13 H 0.9537 0.4602 0.1840
C15 C 0.94151(16) 0.63135(11) 0.18406(10)
C16 C 0.84874(16) 0.65860(12) 0.12023(11)
C17 C 0.71689(18) 0.66674(17) 0.12298(13)
H14 H 0.7186 0.6764 0.1793
H15 H 0.6796 0.7178 0.0916
C18 C 0.6389(3) 0.5902(3) 0.09096(18)
H16 H 0.5550 0.5976 0.0827
C19 C 0.6724(3) 0.5144(2) 0.07295(19)
H17 H 0.7551 0.5030 0.0799
H18 H 0.6138 0.4710 0.0530
C20 C 0.85989(16) 0.68473(12) 0.03880(10)
C21 C 0.83961(19) 0.77188(12) 0.01449(12)
H19 H 0.8254 0.8130 0.0506
C22 C 0.8404(2) 0.79748(13) -0.06205(13)
H20 H 0.8286 0.8560 -0.0771
C23 C 0.8585(2) 0.73695(13) -0.11685(12)
H21 H 0.8580 0.7544 -0.1690
C24 C 0.87733(19) 0.65088(13) -0.09426(11)
H22 H 0.8891 0.6099 -0.1313
C25 C 0.87896(17) 0.62446(12) -0.01654(11)
H23 H 0.8929 0.5661 -0.0015
C26 C 1.12959(16) 0.72088(12) 0.13443(11)
C27 C 1.15700(19) 0.71672(13) 0.06124(13)
H24 H 1.1578 0.6632 0.0357
C28 C 1.1832(2) 0.79258(14) 0.02659(14)
H25 H 1.2021 0.7897 -0.0225
C29 C 1.1818(2) 0.87281(14) 0.06318(14)
C30 C 1.1566(2) 0.87514(14) 0.13730(15)
H26 H 1.1572 0.9286 0.1633
C31 C 1.13061(19) 0.80016(13) 0.17334(13)
H27 H 1.1140 0.8028 0.2232
C32 C 1.2048(3) 0.95603(17) 0.02294(19)
H28 H 1.2420 0.9423 -0.0190
H29 H 1.2591 0.9931 0.0632
H30 H 1.1281 0.9857 -0.0011
N1 N 0.98883(15) 0.66420(11) 0.33307(9)
H31 H 1.0669 0.6575 0.3548
O1 O 0.79351(14) 0.72107(10) 0.34303(10)
O2 O 0.98760(17) 0.74862(10) 0.45382(9)
O3 O 1.17342(12) 0.62083(9) 0.26308(8)
O4 O 1.10638(13) 0.55269(8) 0.12664(9)
S1 S 0.92211(5) 0.74097(3) 0.36885(3)
S2 S 1.09659(4) 0.62373(3) 0.17915(3)
loop_
_geom_bond_atom_site_label_1
_geom_bond_atom_site_label_2
_geom_bond_site_symmetry_1
_geom_bond_site_symmetry_2
C1 H1 1_555 1_555
H2 C1 1_555 1_555
H3 C1 1_555 1_555
C2 C1 1_555 1_555
C3 C2 1_555 1_555
H4 C3 1_555 1_555
C4 C3 1_555 1_555
H5 C4 1_555 1_555
C5 C4 1_555 1_555
C6 C5 1_555 1_555
H6 C6 1_555 1_555
C7 C2 1_555 1_555
H7 C7 1_555 1_555
C8 H8 1_555 1_555
C9 C8 1_555 1_555
C10 C9 1_555 1_555
H9 C10 1_555 1_555
C11 C10 1_555 1_555
H10 C11 1_555 1_555
C12 C11 1_555 1_555
H11 C12 1_555 1_555
C13 C12 1_555 1_555
H12 C13 1_555 1_555
C14 C9 1_555 1_555
H13 C14 1_555 1_555
C15 C8 1_555 1_555
C16 C15 1_555 1_555
C17 C16 1_555 1_555
H14 C17 1_555 1_555
H15 C17 1_555 1_555
C18 C17 1_555 1_555
H16 C18 1_555 1_555
C19 C18 1_555 1_555
H17 C19 1_555 1_555
H18 C19 1_555 1_555
C20 C16 1_555 1_555
C21 C20 1_555 1_555
H19 C21 1_555 1_555
C22 C21 1_555 1_555
H20 C22 1_555 1_555
C23 C22 1_555 1_555
H21 C23 1_555 1_555
C24 C23 1_555 1_555
H22 C24 1_555 1_555
C25 C20 1_555 1_555
H23 C25 1_555 1_555
C26 C27 1_555 1_555
C27 H24 1_555 1_555
C28 C27 1_555 1_555
H25 C28 1_555 1_555
C29 C28 1_555 1_555
C30 C29 1_555 1_555
H26 C30 1_555 1_555
C31 C26 1_555 1_555
H27 C31 1_555 1_555
C32 C29 1_555 1_555
H28 C32 1_555 1_555
H29 C32 1_555 1_555
H30 C32 1_555 1_555
N1 C8 1_555 1_555
H31 N1 1_555 1_555
O1 S1 1_555 1_555
O2 S1 1_555 1_555
O3 S2 1_555 1_555
O4 S2 1_555 1_555
S1 C5 1_555 1_555
S2 C15 1_555 1_555
C6 C7 1_555 1_555
C13 C14 1_555 1_555
C24 C25 1_555 1_555
C26 S2 1_555 1_555
C30 C31 1_555 1_555
N1 S1 1_555 1_555

#END
