
#######################################################################
#
#                 Cambridge Crystallographic Data Centre
#                                CCDC 
#
#######################################################################
#
# If this CIF has been generated from an entry in the Cambridge 
# Structural Database, then it will include bibliographic, chemical, 
# crystal, experimental, refinement or atomic coordinate data resulting 
# from the CCDC's data processing and validation procedures.
#
#######################################################################

data_MOPGOP
_chemical_formula_moiety         'C26 H32 N4,2(H2 O1)'
_chemical_name_systematic        
'2,2,13,13-tetramethyl-23,24,25,26-tetraazapentacyclo[18.2.1.1^3,6^.1^9,12^.1^14,17^]hexacosa-1(22),3,5,9,11,14,16,20-octaene dihydrate'
_symmetry_cell_setting           triclinic
_symmetry_space_group_name_H-M   'P -1'
_symmetry_Int_Tables_number      2
_space_group_name_Hall           '-P 1'
loop_
_symmetry_equiv_pos_site_id
_symmetry_equiv_pos_as_xyz
1 x,y,z
2 -x,-y,-z
_cell_length_a                   10.054(2)
_cell_length_b                   10.073(2)
_cell_length_c                   12.755(3)
_cell_angle_alpha                107.386(3)
_cell_angle_beta                 97.437(3)
_cell_angle_gamma                96.535(2)
_cell_volume                     1206.39
_exptl_crystal_colour            colorless
_exptl_crystal_description       block
_chemical_melting_point          '451 K'
_cell_formula_units_Z            2
loop_
_atom_site_label
_atom_site_type_symbol
_atom_site_fract_x
_atom_site_fract_y
_atom_site_fract_z
N1 N 0.36794(13) 0.00103(15) 0.78512(10)
N2 N 0.05296(13) 0.14503(14) 0.77365(11)
N3 N 0.57487(12) 0.24965(14) 0.72558(11)
N4 N 0.24375(13) 0.35298(14) 0.66470(11)
C1 C 0.58360(14) 0.24641(18) 0.83355(12)
C2 C 0.08886(15) 0.28702(17) 0.82918(12)
C3 C 0.06788(16) -0.08795(18) 0.80251(14)
H1 H -0.0312 -0.1215 0.7800
H2 H 0.1003 -0.1221 0.8649
C4 C 0.61076(15) 0.11636(17) 0.86281(12)
C5 C 0.50396(15) -0.00896(17) 0.79579(12)
C6 C 0.55480(15) 0.38043(17) 0.72157(13)
C7 C 0.11129(15) 0.37281(17) 0.66783(12)
C8 C 0.05327(15) 0.39540(17) 0.77457(12)
C9 C 0.37877(16) -0.22223(18) 0.70229(13)
H3 H 0.3548 -0.3201 0.6627
C10 C 0.54897(16) 0.46188(19) 0.82760(13)
H4 H 0.5353 0.5574 0.8500
C11 C 0.41053(15) 0.31797(18) 0.53067(12)
H5 H 0.4138 0.3305 0.4569
H6 H 0.4169 0.2181 0.5225
C12 C 0.56715(16) 0.37704(19) 0.89820(13)
H7 H 0.5678 0.4059 0.9763
C13 C 0.53553(16) 0.41107(18) 0.61338(13)
H8 H 0.6177 0.3962 0.5790
H9 H 0.5254 0.5113 0.6282
C14 C 0.27623(16) 0.34663(17) 0.56209(12)
C15 C 0.29054(15) -0.12898(17) 0.72904(12)
C16 C 0.09235(15) 0.06875(18) 0.84255(13)
C17 C 0.13877(15) -0.15268(17) 0.70329(13)
H10 H 0.1059 -0.2555 0.6743
H11 H 0.1108 -0.1131 0.6431
C18 C 0.16152(16) 0.36114(18) 0.49829(13)
H12 H 0.1529 0.3604 0.4231
C19 C 0.05748(16) 0.37753(18) 0.56495(13)
H13 H -0.0329 0.3896 0.5422
C20 C 0.15413(16) 0.30183(18) 0.93427(13)
H14 H 0.1914 0.3882 0.9912
C21 C 0.15584(16) 0.16476(19) 0.94252(13)
H15 H 0.1943 0.1431 1.0063
C22 C 0.51302(16) -0.14656(19) 0.74428(13)
H16 H 0.5947 -0.1851 0.7376
C23 C 0.75165(16) 0.0841(2) 0.84005(15)
H17 H 0.7705 0.0025 0.8629
H18 H 0.8206 0.1660 0.8825
H19 H 0.7539 0.0632 0.7602
C24 C 0.60901(17) 0.14430(19) 0.98810(13)
H20 H 0.5197 0.1656 1.0044
H21 H 0.6792 0.2246 1.0316
H22 H 0.6270 0.0605 1.0081
C25 C -0.10164(16) 0.38474(19) 0.74750(14)
H23 H -0.1405 0.2920 0.6937
H24 H -0.1234 0.4584 0.7155
H25 H -0.1399 0.3970 0.8160
C26 C 0.11354(18) 0.54305(18) 0.85458(14)
H26 H 0.0751 0.5593 0.9233
H27 H 0.0917 0.6137 0.8192
H28 H 0.2125 0.5506 0.8724
H29 H 0.304(2) 0.351(2) 0.7215(17)
H30 H 0.002(2) 0.105(2) 0.7057(18)
H31 H 0.591(2) 0.180(2) 0.6662(17)
H32 H 0.337(2) 0.079(2) 0.8154(17)
O1 O 0.36735(12) 0.93076(13) 0.49894(9)
H33 H 0.3698(19) 0.889(2) 0.5578(14)
H34 H 0.4611(15) 0.981(4) 0.510(3)
O2 O 0.11726(11) 0.02275(13) 0.45482(9)
H36 H 0.1355(19) 0.1241(10) 0.4693(17)
H37 H 0.0257(17) 0.008(3) 0.475(3)
H35? H 0.2700(11) 0.933(4) 0.478(3)
H38? H 0.2101(14) -0.001(3) 0.466(3)
loop_
_geom_bond_atom_site_label_1
_geom_bond_atom_site_label_2
_geom_bond_site_symmetry_1
_geom_bond_site_symmetry_2
N1 C5 1_555 1_555
N2 C2 1_555 1_555
N3 C1 1_555 1_555
N4 C7 1_555 1_555
C1 C4 1_555 1_555
C2 C8 1_555 1_555
C3 H1 1_555 1_555
H2 C3 1_555 1_555
C4 C5 1_555 1_555
C5 C22 1_555 1_555
C6 N3 1_555 1_555
C7 C8 1_555 1_555
C8 C25 1_555 1_555
C9 H3 1_555 1_555
C10 C6 1_555 1_555
H4 C10 1_555 1_555
C11 H5 1_555 1_555
H6 C11 1_555 1_555
C12 C1 1_555 1_555
H7 C12 1_555 1_555
C13 C6 1_555 1_555
H8 C13 1_555 1_555
H9 C13 1_555 1_555
C14 N4 1_555 1_555
C15 N1 1_555 1_555
C16 N2 1_555 1_555
C17 C3 1_555 1_555
H10 C17 1_555 1_555
H11 C17 1_555 1_555
C18 C14 1_555 1_555
H12 C18 1_555 1_555
C19 C7 1_555 1_555
H13 C19 1_555 1_555
C20 C2 1_555 1_555
H14 C20 1_555 1_555
C21 C16 1_555 1_555
H15 C21 1_555 1_555
C22 C9 1_555 1_555
H16 C22 1_555 1_555
C23 C4 1_555 1_555
H17 C23 1_555 1_555
H18 C23 1_555 1_555
H19 C23 1_555 1_555
C24 C4 1_555 1_555
H20 C24 1_555 1_555
H21 C24 1_555 1_555
H22 C24 1_555 1_555
C25 H23 1_555 1_555
H24 C25 1_555 1_555
H25 C25 1_555 1_555
C26 C8 1_555 1_555
H26 C26 1_555 1_555
H27 C26 1_555 1_555
H28 C26 1_555 1_555
H29 N4 1_555 1_555
H30 N2 1_555 1_555
H31 N3 1_555 1_555
H32 N1 1_555 1_555
O1 H33 1_555 1_555
H34 O1 1_555 1_555
O2 H36 1_555 1_555
H37 O2 1_555 1_555
C3 C16 1_555 1_555
C9 C15 1_555 1_555
C10 C12 1_555 1_555
C11 C13 1_555 1_555
C11 C14 1_555 1_555
C15 C17 1_555 1_555
C18 C19 1_555 1_555
C20 C21 1_555 1_555

#END
