
#######################################################################
#
#                 Cambridge Crystallographic Data Centre
#                                CCDC 
#
#######################################################################
#
# If this CIF has been generated from an entry in the Cambridge 
# Structural Database, then it will include bibliographic, chemical, 
# crystal, experimental, refinement or atomic coordinate data resulting 
# from the CCDC's data processing and validation procedures.
#
#######################################################################

data_MOPICS10
_chemical_formula_moiety         'C21 H32 O3'
_chemical_name_systematic        (1\b,9\b)-1-Methoxypicras-12-en-16-one
_symmetry_cell_setting           monoclinic
_symmetry_space_group_name_H-M   'P 21/n'
_symmetry_Int_Tables_number      14
_space_group_name_Hall           '-P 2yn'
loop_
_symmetry_equiv_pos_site_id
_symmetry_equiv_pos_as_xyz
1 x,y,z
2 1/2-x,1/2+y,1/2-z
3 -x,-y,-z
4 1/2+x,1/2-y,1/2+z
_cell_length_a                   8.522(2)
_cell_length_b                   22.773(4)
_cell_length_c                   10.190(2)
_cell_angle_alpha                90
_cell_angle_beta                 111.32(2)
_cell_angle_gamma                90
_cell_volume                     1842.25
_cell_formula_units_Z            4
loop_
_atom_site_label
_atom_site_type_symbol
_atom_site_fract_x
_atom_site_fract_y
_atom_site_fract_z
O1 O 0.14800 0.34290 0.20930
O2 O 0.65270 0.42650 0.73480
O3 O 0.66090 0.50560 0.86290
C1 C 0.32400 0.35700 0.25790
C2 C 0.40750 0.33090 0.16310
C3 C 0.59570 0.34340 0.22080
C4 C 0.68220 0.32370 0.37310
C5 C 0.59260 0.35200 0.46380
C6 C 0.68030 0.33760 0.62000
C7 C 0.60010 0.36510 0.71660
C8 C 0.40900 0.35910 0.66870
C9 C 0.32200 0.37070 0.50630
C10 C 0.40410 0.33690 0.41320
C11 C 0.30950 0.43720 0.47390
C12 C 0.23110 0.47080 0.56000
C13 C 0.23760 0.45380 0.68530
C14 C 0.34140 0.40210 0.75830
C15 C 0.49240 0.42440 0.88510
C16 C 0.60850 0.45650 0.83050
C17 C 0.86960 0.33860 0.42400
C18 C 0.37450 0.29670 0.71310
C19 C 0.37290 0.27020 0.41590
C20 C 0.14310 0.48580 0.76450
C21 C 0.04650 0.37730 0.09450
H1 H 0.33200 0.40000 0.25500
H2 H 0.39300 0.28800 0.15900
H3 H 0.36100 0.34500 0.06900
H4 H 0.64600 0.32400 0.16300
H5 H 0.60800 0.38500 0.21600
H6 H 0.67300 0.28200 0.37700
H7 H 0.59800 0.39400 0.45400
H8 H 0.67800 0.29600 0.63100
H9 H 0.79500 0.35000 0.64900
H10 H 0.65100 0.34700 0.80700
H11 H 0.20700 0.35700 0.47600
H12 H 0.42200 0.45100 0.49200
H13 H 0.24600 0.44300 0.37500
H14 H 0.17300 0.50700 0.52100
H15 H 0.27400 0.37900 0.79500
H16 H 0.45400 0.45100 0.94000
H17 H 0.55100 0.39300 0.94400
H18 H 0.92300 0.32400 0.51500
H19 H 0.91700 0.32300 0.36100
H20 H 0.88000 0.38100 0.42600
H21 H 0.25700 0.28700 0.66900
H22 H 0.43700 0.26900 0.68200
H23 H 0.40500 0.29400 0.81100
H24 H 0.26500 0.26200 0.42300
H25 H 0.37400 0.25100 0.33200
H26 H 0.45800 0.25200 0.49500
H27 H 0.22300 0.50100 0.85100
H28 H 0.08300 0.51800 0.70900
H29 H 0.07100 0.46000 0.78300
H30 H 0.06500 0.41800 0.11100
H31 H 0.06900 0.36700 0.01000
H32 H -0.07100 0.36900 0.07400
loop_
_geom_bond_atom_site_label_1
_geom_bond_atom_site_label_2
_geom_bond_site_symmetry_1
_geom_bond_site_symmetry_2
O1 C1 1_555 1_555
O2 C7 1_555 1_555
O3 C16 1_555 1_555
C1 C2 1_555 1_555
C2 C3 1_555 1_555
C3 C4 1_555 1_555
C4 C5 1_555 1_555
C5 C6 1_555 1_555
C6 C7 1_555 1_555
C7 C8 1_555 1_555
C8 C9 1_555 1_555
C9 C10 1_555 1_555
C10 C1 1_555 1_555
C11 C9 1_555 1_555
C12 C11 1_555 1_555
C13 C12 1_555 1_555
C14 C8 1_555 1_555
C15 C14 1_555 1_555
C16 O2 1_555 1_555
C17 C4 1_555 1_555
C18 C8 1_555 1_555
C19 C10 1_555 1_555
C20 C13 1_555 1_555
C21 O1 1_555 1_555
H1 C1 1_555 1_555
H2 C2 1_555 1_555
H3 C2 1_555 1_555
H4 C3 1_555 1_555
H5 C3 1_555 1_555
H6 C4 1_555 1_555
H7 C5 1_555 1_555
H8 C6 1_555 1_555
H9 C6 1_555 1_555
H10 C7 1_555 1_555
H11 C9 1_555 1_555
H12 C11 1_555 1_555
H13 C11 1_555 1_555
H14 C12 1_555 1_555
H15 C14 1_555 1_555
H16 C15 1_555 1_555
H17 C15 1_555 1_555
H18 C17 1_555 1_555
H19 C17 1_555 1_555
H20 C17 1_555 1_555
H21 C18 1_555 1_555
H22 C18 1_555 1_555
H23 C18 1_555 1_555
H24 C19 1_555 1_555
H25 C19 1_555 1_555
H26 C19 1_555 1_555
H27 C20 1_555 1_555
H28 C20 1_555 1_555
H29 C20 1_555 1_555
H30 C21 1_555 1_555
H31 C21 1_555 1_555
H32 C21 1_555 1_555
C5 C10 1_555 1_555
C13 C14 1_555 1_555
C15 C16 1_555 1_555

#END
