
#######################################################################
#
#                 Cambridge Crystallographic Data Centre
#                                CCDC 
#
#######################################################################
#
# If this CIF has been generated from an entry in the Cambridge 
# Structural Database, then it will include bibliographic, chemical, 
# crystal, experimental, refinement or atomic coordinate data resulting 
# from the CCDC's data processing and validation procedures.
#
#######################################################################

data_MOPJAC
_chemical_formula_moiety         'C72 H68 N4 O4 S4,2(C1 H2 Cl2)'
_chemical_name_systematic        
'5,11,17,23-Tetra-t-butyl-25,26,27,28-tetrakis(2-cyanobenzyloxy)-2,8,14,20-tetrathiacalix(4)arene dichloromethane solvate'
_symmetry_cell_setting           monoclinic
_symmetry_space_group_name_H-M   'P 21/n'
_symmetry_Int_Tables_number      14
_space_group_name_Hall           '-P 2yn'
loop_
_symmetry_equiv_pos_site_id
_symmetry_equiv_pos_as_xyz
1 x,y,z
2 1/2+x,1/2-y,1/2+z
3 -x,-y,-z
4 1/2-x,1/2+y,1/2-z
_cell_length_a                   13.768(4)
_cell_length_b                   17.021(5)
_cell_length_c                   15.543(4)
_cell_angle_alpha                90
_cell_angle_beta                 105.424(5)
_cell_angle_gamma                90
_cell_volume                     3511.24
_exptl_crystal_colour            colorless
_exptl_crystal_description       plate
_cell_formula_units_Z            2
loop_
_atom_site_label
_atom_site_type_symbol
_atom_site_fract_x
_atom_site_fract_y
_atom_site_fract_z
S1 S 0.10101(6) 0.17507(5) 0.91405(6)
S2 S -0.28260(6) 0.11024(5) 0.95247(6)
O1 O -0.08264(16) 0.07209(12) 0.89977(14)
O2 O 0.15811(17) -0.00487(13) 0.90518(14)
N1 N -0.2570(4) 0.1175(3) 0.5825(3)
N2 N 0.0477(4) 0.0988(4) 0.6007(3)
C1 C -0.1636(2) 0.15912(17) 0.9824(2)
C2 C -0.1590(3) 0.22621(19) 1.0359(2)
C3 C -0.0761(2) 0.27638(19) 1.0549(2)
C4 C 0.0034(2) 0.25717(19) 1.0190(2)
C5 C 0.0016(2) 0.19038(18) 0.9673(2)
C6 C -0.0828(2) 0.14025(17) 0.9486(2)
C7 C -0.0716(3) 0.3515(2) 1.1109(3)
C8 C -0.0696(5) 0.4232(3) 1.0510(3)
C9 C -0.1628(4) 0.3577(3) 1.1508(4)
C10 C 0.0237(3) 0.3522(3) 1.1884(3)
C11 C 0.1872(2) 0.11592(19) 0.9952(2)
C12 C 0.2436(2) 0.15250(19) 1.0734(2)
C13 C 0.3087(2) 0.11139(19) 1.1426(2)
C14 C 0.3127(2) 0.03056(19) 1.1320(2)
C15 C -0.2608(2) 0.00792(19) 0.9457(2)
C16 C 0.2008(2) 0.03557(18) 0.9818(2)
C17 C 0.3723(3) 0.1555(2) 1.2254(2)
C18 C 0.3042(4) 0.2014(3) 1.2691(3)
C19 C 0.4389(4) 0.0984(3) 1.2934(3)
C20 C 0.4427(3) 0.2129(3) 1.1949(3)
C21 C 0.1633(3) 0.0293(2) 0.8216(2)
C22 C 0.1859(3) -0.0339(2) 0.7620(3)
C23 C 0.2409(3) -0.1004(3) 0.7930(3)
C24 C 0.2619(4) -0.1552(3) 0.7334(4)
C25 C 0.2281(5) -0.1433(4) 0.6426(4)
C26 C 0.1714(5) -0.0786(4) 0.6093(4)
C27 C 0.1507(3) -0.0230(3) 0.6675(3)
C28 C 0.0925(4) 0.0448(4) 0.6301(3)
C29 C -0.1298(3) 0.08019(19) 0.8058(2)
C30 C -0.1148(2) 0.0054(2) 0.7598(2)
C31 C -0.0617(3) -0.0581(2) 0.8043(3)
C32 C -0.0436(3) -0.1233(2) 0.7573(3)
C33 C -0.0786(4) -0.1265(3) 0.6650(3)
C34 C -0.1341(3) -0.0660(3) 0.6198(3)
C35 C -0.1531(3) 0.0007(2) 0.6662(2)
C36 C -0.2107(3) 0.0658(3) 0.6185(3)
H1 H -0.2129 0.2375 1.0593
H2 H 0.0593 0.2900 1.0300
H3 H -0.1292 0.4234 1.0021
H4 H -0.0112 0.4204 1.0285
H5 H -0.0670 0.4705 1.0853
H6 H -0.1637 0.3132 1.1884
H7 H -0.2239 0.3589 1.1034
H8 H -0.1574 0.4050 1.1854
H9 H 0.0231 0.3079 1.2265
H10 H 0.0261 0.3998 1.2219
H11 H 0.0818 0.3492 1.1655
H12 H 0.2372 0.2065 1.0792
H13 H 0.3518 0.0009 1.1788
H14 H 0.2604 0.1658 1.2887
H15 H 0.2645 0.2378 1.2268
H16 H 0.3444 0.2298 1.3194
H17 H 0.3968 0.0618 1.3138
H18 H 0.4786 0.1276 1.3432
H19 H 0.4826 0.0702 1.2653
H20 H 0.4032 0.2495 1.1529
H21 H 0.4861 0.1840 1.1671
H22 H 0.4827 0.2409 1.2456
H23 H 0.2157 0.0690 0.8323
H24 H 0.0997 0.0543 0.7927
H25 H 0.2643 -0.1091 0.8541
H26 H 0.2990 -0.2000 0.7551
H27 H 0.2439 -0.1796 0.6036
H28 H 0.1469 -0.0719 0.5479
H29 H -0.1000 0.1239 0.7818
H30 H -0.2011 0.0906 0.7960
H31 H -0.0380 -0.0571 0.8662
H32 H -0.0075 -0.1655 0.7880
H33 H -0.0641 -0.1698 0.6341
H34 H -0.1595 -0.0687 0.5581
C14B C -0.3127(2) -0.03056(19) 0.8680(2)
C13B C -0.3087(2) -0.11139(19) 0.8574(2)
C12B C -0.2436(2) -0.15250(19) 0.9266(2)
C11B C -0.1872(2) -0.11592(19) 1.0048(2)
S1B S -0.10101(6) -0.17507(5) 1.08595(6)
C5B C -0.0016(2) -0.19038(18) 1.0327(2)
C4B C -0.0034(2) -0.25717(19) 0.9810(2)
C3B C 0.0761(2) -0.27638(19) 0.9451(2)
C2B C 0.1590(3) -0.22621(19) 0.9641(2)
C1B C 0.1636(2) -0.15912(17) 1.0176(2)
S2B S 0.28260(6) -0.11024(5) 1.04753(6)
C15B C 0.2608(2) -0.00792(19) 1.0543(2)
C6B C 0.0828(2) -0.14025(17) 1.0514(2)
O1B O 0.08264(16) -0.07209(12) 1.10023(14)
C29B C 0.1298(3) -0.08019(19) 1.1942(2)
C30B C 0.1148(2) -0.0054(2) 1.2402(2)
C31B C 0.0617(3) 0.0581(2) 1.1957(3)
C32B C 0.0436(3) 0.1233(2) 1.2427(3)
C33B C 0.0786(4) 0.1265(3) 1.3350(3)
C34B C 0.1341(3) 0.0660(3) 1.3802(3)
C35B C 0.1531(3) -0.0007(2) 1.3338(2)
C36B C 0.2107(3) -0.0658(3) 1.3815(3)
N1B N 0.2570(4) -0.1175(3) 1.4175(3)
H34B H 0.1595 0.0687 1.4419
H33B H 0.0641 0.1698 1.3659
H32B H 0.0075 0.1655 1.2120
H31B H 0.0380 0.0571 1.1338
H29B H 0.1000 -0.1239 1.2182
H30B H 0.2011 -0.0906 1.2040
H1B H 0.2129 -0.2375 0.9407
C7B C 0.0716(3) -0.3515(2) 0.8891(3)
C8B C 0.0696(5) -0.4232(3) 0.9490(3)
H3B H 0.1292 -0.4234 0.9979
H4B H 0.0112 -0.4204 0.9715
H5B H 0.0670 -0.4705 0.9147
C9B C 0.1628(4) -0.3577(3) 0.8492(4)
H6B H 0.1637 -0.3132 0.8116
H7B H 0.2239 -0.3589 0.8966
H8B H 0.1574 -0.4050 0.8146
C10B C -0.0237(3) -0.3522(3) 0.8116(3)
H9B H -0.0231 -0.3079 0.7735
H10B H -0.0261 -0.3998 0.7781
H11B H -0.0818 -0.3492 0.8345
H2B H -0.0593 -0.2900 0.9700
C16B C -0.2008(2) -0.03557(18) 1.0182(2)
O2B O -0.15811(17) 0.00487(13) 1.09482(14)
C21B C -0.1633(3) -0.0293(2) 1.1784(2)
C22B C -0.1859(3) 0.0339(2) 1.2380(3)
C23B C -0.2409(3) 0.1004(3) 1.2070(3)
C24B C -0.2619(4) 0.1552(3) 1.2666(4)
C25B C -0.2281(5) 0.1433(4) 1.3574(4)
C26B C -0.1714(5) 0.0786(4) 1.3907(4)
C27B C -0.1507(3) 0.0230(3) 1.3325(3)
C28B C -0.0925(4) -0.0448(4) 1.3699(3)
N2B N -0.0477(4) -0.0988(4) 1.3993(3)
H28B H -0.1469 0.0719 1.4521
H27B H -0.2439 0.1796 1.3964
H26B H -0.2990 0.2000 1.2449
H25B H -0.2643 0.1091 1.1459
H23B H -0.2157 -0.0690 1.1677
H24B H -0.0997 -0.0543 1.2073
H12B H -0.2372 -0.2065 0.9208
C17B C -0.3723(3) -0.1555(2) 0.7746(2)
C18B C -0.3042(4) -0.2014(3) 0.7309(3)
H14B H -0.2604 -0.1658 0.7113
H15B H -0.2645 -0.2378 0.7732
H16B H -0.3444 -0.2298 0.6806
C19B C -0.4389(4) -0.0984(3) 0.7066(3)
H17B H -0.3968 -0.0618 0.6862
H18B H -0.4786 -0.1276 0.6568
H19B H -0.4826 -0.0702 0.7347
C20B C -0.4427(3) -0.2129(3) 0.8051(3)
H20B H -0.4032 -0.2495 0.8471
H21B H -0.4861 -0.1840 0.8329
H22B H -0.4827 -0.2409 0.7544
H13B H -0.3518 -0.0009 0.8212
Cl1 Cl 0.4272(4) 0.2014(2) 0.9251(3)
Cl2 Cl 0.43900(17) 0.03918(17) 0.88973(15)
C37 C 0.4564(5) 0.1130(5) 0.9651(7)
H35 H 0.4167 0.1016 1.0067
H36 H 0.5266 0.1131 0.9988
loop_
_geom_bond_atom_site_label_1
_geom_bond_atom_site_label_2
_geom_bond_site_symmetry_1
_geom_bond_site_symmetry_2
S1 C5 1_555 1_555
S2 C1 1_555 1_555
O1 C6 1_555 1_555
O2 C16 1_555 1_555
N1 C36 1_555 1_555
N2 C28 1_555 1_555
C1 C2 1_555 1_555
C2 C3 1_555 1_555
C3 C4 1_555 1_555
C4 C5 1_555 1_555
C5 C6 1_555 1_555
C6 C1 1_555 1_555
C7 C3 1_555 1_555
C8 C7 1_555 1_555
C9 C7 1_555 1_555
C10 C7 1_555 1_555
C11 S1 1_555 1_555
C12 C11 1_555 1_555
C13 C12 1_555 1_555
C14 C13 1_555 1_555
C15 S2 1_555 1_555
C16 C11 1_555 1_555
C17 C13 1_555 1_555
C18 C17 1_555 1_555
C19 C17 1_555 1_555
C20 C17 1_555 1_555
C21 O2 1_555 1_555
C22 C21 1_555 1_555
C23 C22 1_555 1_555
C24 C23 1_555 1_555
C25 C24 1_555 1_555
C26 C25 1_555 1_555
C27 C22 1_555 1_555
C28 C27 1_555 1_555
C29 O1 1_555 1_555
C30 C29 1_555 1_555
C31 C30 1_555 1_555
C32 C31 1_555 1_555
C33 C32 1_555 1_555
C34 C33 1_555 1_555
C35 C30 1_555 1_555
C36 C35 1_555 1_555
Cl1 C37 1_555 1_555
Cl2 C37 1_555 1_555
C37 H35 1_555 1_555
H1 C2 1_555 1_555
H2 C4 1_555 1_555
H3 C8 1_555 1_555
H4 C8 1_555 1_555
H5 C8 1_555 1_555
H6 C9 1_555 1_555
H7 C9 1_555 1_555
H8 C9 1_555 1_555
H9 C10 1_555 1_555
H10 C10 1_555 1_555
H11 C10 1_555 1_555
H12 C12 1_555 1_555
H13 C14 1_555 1_555
H14 C18 1_555 1_555
H15 C18 1_555 1_555
H16 C18 1_555 1_555
H17 C19 1_555 1_555
H18 C19 1_555 1_555
H19 C19 1_555 1_555
H20 C20 1_555 1_555
H21 C20 1_555 1_555
H22 C20 1_555 1_555
H23 C21 1_555 1_555
H24 C21 1_555 1_555
H25 C23 1_555 1_555
H26 C24 1_555 1_555
H27 C25 1_555 1_555
H28 C26 1_555 1_555
H29 C29 1_555 1_555
H30 C29 1_555 1_555
H31 C31 1_555 1_555
H32 C32 1_555 1_555
H33 C33 1_555 1_555
H34 C34 1_555 1_555
H36 C37 1_555 1_555
C14B C15 1_555 1_555
C13B C14B 1_555 1_555
C12B C13B 1_555 1_555
C11B C12B 1_555 1_555
S1B C11B 1_555 1_555
C5B S1B 1_555 1_555
C4B C5B 1_555 1_555
C3B C4B 1_555 1_555
C2B C3B 1_555 1_555
C1B C2B 1_555 1_555
S2B C1B 1_555 1_555
C15B C14 1_555 1_555
C6B C5B 1_555 1_555
O1B C6B 1_555 1_555
C29B O1B 1_555 1_555
C30B C29B 1_555 1_555
C31B C30B 1_555 1_555
C32B C31B 1_555 1_555
C33B C32B 1_555 1_555
C34B C33B 1_555 1_555
C35B C30B 1_555 1_555
C36B C35B 1_555 1_555
N1B C36B 1_555 1_555
H34B C34B 1_555 1_555
H33B C33B 1_555 1_555
H32B C32B 1_555 1_555
H31B C31B 1_555 1_555
H29B C29B 1_555 1_555
H30B C29B 1_555 1_555
H1B C2B 1_555 1_555
C7B C3B 1_555 1_555
C8B C7B 1_555 1_555
H3B C8B 1_555 1_555
H4B C8B 1_555 1_555
H5B C8B 1_555 1_555
C9B C7B 1_555 1_555
H6B C9B 1_555 1_555
H7B C9B 1_555 1_555
H8B C9B 1_555 1_555
C10B C7B 1_555 1_555
H9B C10B 1_555 1_555
H10B C10B 1_555 1_555
H11B C10B 1_555 1_555
H2B C4B 1_555 1_555
C16B C15 1_555 1_555
O2B C16B 1_555 1_555
C21B O2B 1_555 1_555
C22B C21B 1_555 1_555
C23B C22B 1_555 1_555
C24B C23B 1_555 1_555
C25B C24B 1_555 1_555
C26B C25B 1_555 1_555
C27B C22B 1_555 1_555
C28B C27B 1_555 1_555
N2B C28B 1_555 1_555
H28B C26B 1_555 1_555
H27B C25B 1_555 1_555
H26B C24B 1_555 1_555
H25B C23B 1_555 1_555
H23B C21B 1_555 1_555
H24B C21B 1_555 1_555
H12B C12B 1_555 1_555
C17B C13B 1_555 1_555
C18B C17B 1_555 1_555
H14B C18B 1_555 1_555
H15B C18B 1_555 1_555
H16B C18B 1_555 1_555
C19B C17B 1_555 1_555
H17B C19B 1_555 1_555
H18B C19B 1_555 1_555
H19B C19B 1_555 1_555
C20B C17B 1_555 1_555
H20B C20B 1_555 1_555
H21B C20B 1_555 1_555
H22B C20B 1_555 1_555
H13B C14B 1_555 1_555
C16 C15B 1_555 1_555
C26 C27 1_555 1_555
C34 C35 1_555 1_555
C11B C16B 1_555 1_555
C1B C6B 1_555 1_555
S2B C15B 1_555 1_555
C34B C35B 1_555 1_555
C26B C27B 1_555 1_555

#END
