
#######################################################################
#
#                 Cambridge Crystallographic Data Centre
#                                CCDC 
#
#######################################################################
#
# If this CIF has been generated from an entry in the Cambridge 
# Structural Database, then it will include bibliographic, chemical, 
# crystal, experimental, refinement or atomic coordinate data resulting 
# from the CCDC's data processing and validation procedures.
#
#######################################################################

data_MOPNUB
_chemical_formula_moiety         'C18 H8 S6'
_chemical_name_systematic        
trans-1,2-bis(dithieno[2,3-b:3',2'-d]thiophen-5-yl)ethene
_symmetry_cell_setting           monoclinic
_symmetry_space_group_name_H-M   'P 21/c'
_symmetry_Int_Tables_number      14
_space_group_name_Hall           '-P 2ybc'
loop_
_symmetry_equiv_pos_site_id
_symmetry_equiv_pos_as_xyz
1 x,y,z
2 -x,1/2+y,1/2-z
3 -x,-y,-z
4 x,1/2-y,1/2+z
_cell_length_a                   18.8000(19)
_cell_length_b                   7.6224(8)
_cell_length_c                   5.7423(7)
_cell_angle_alpha                90
_cell_angle_beta                 92.791(10)
_cell_angle_gamma                90
_cell_volume                     821.902
_exptl_crystal_colour            yellow
_exptl_crystal_description       platelet
_cell_formula_units_Z            2
_exptl_crystal_recrystallization_method toluene/tetrahydrofuran
loop_
_atom_site_label
_atom_site_type_symbol
_atom_site_fract_x
_atom_site_fract_y
_atom_site_fract_z
S1 S 0.10215(6) 0.56950(17) 0.3881(2)
S2 S 0.25776(6) 0.61122(16) 0.6105(2)
S3 S 0.41354(6) 0.54383(17) 0.4529(2)
C1 C 0.0300(3) 0.4577(7) -0.0238(9)
H1 H 0.0285 0.3840 -0.1573
C2 C 0.0969(2) 0.4693(6) 0.1117(8)
C3 C 0.1631(2) 0.4185(6) 0.0433(8)
H2 H 0.1706 0.3600 -0.0995
C4 C 0.2191(2) 0.4626(6) 0.2079(8)
C5 C 0.1934(2) 0.5429(6) 0.4034(8)
C6 C 0.3220(2) 0.5371(6) 0.4292(8)
C7 C 0.2961(2) 0.4598(6) 0.2235(7)
C8 C 0.3530(2) 0.4035(6) 0.0818(8)
H3 H 0.3460 0.3482 -0.0658
C9 C 0.4180(2) 0.4392(7) 0.1851(8)
H4 H 0.4615 0.4098 0.1175
S1B S -0.10215(6) 0.43050(17) -0.3881(2)
S2B S -0.25776(6) 0.38878(16) -0.6105(2)
S3B S -0.41354(6) 0.45617(17) -0.4529(2)
C1B C -0.0300(3) 0.5423(7) 0.0238(9)
H1B H -0.0285 0.6160 0.1573
C2B C -0.0969(2) 0.5307(6) -0.1117(8)
C3B C -0.1631(2) 0.5815(6) -0.0433(8)
H2B H -0.1706 0.6400 0.0995
C4B C -0.2191(2) 0.5374(6) -0.2079(8)
C5B C -0.1934(2) 0.4571(6) -0.4034(8)
C6B C -0.3220(2) 0.4629(6) -0.4292(8)
C7B C -0.2961(2) 0.5402(6) -0.2235(7)
C8B C -0.3530(2) 0.5965(6) -0.0818(8)
H3B H -0.3460 0.6518 0.0658
C9B C -0.4180(2) 0.5608(7) -0.1851(8)
H4B H -0.4615 0.5902 -0.1175
loop_
_geom_bond_atom_site_label_1
_geom_bond_atom_site_label_2
_geom_bond_site_symmetry_1
_geom_bond_site_symmetry_2
S1 C2 1_555 1_555
S2 C5 1_555 1_555
S3 C6 1_555 1_555
C1 H1 1_555 1_555
C2 C1 1_555 1_555
C3 C2 1_555 1_555
H2 C3 1_555 1_555
C4 C3 1_555 1_555
C5 S1 1_555 1_555
C6 S2 1_555 1_555
C7 C4 1_555 1_555
C8 C7 1_555 1_555
H3 C8 1_555 1_555
C9 S3 1_555 1_555
H4 C9 1_555 1_555
S1B C2B 1_555 1_555
S2B C5B 1_555 1_555
S3B C6B 1_555 1_555
C1B C1 1_555 1_555
H1B C1B 1_555 1_555
C2B C1B 1_555 1_555
C3B C2B 1_555 1_555
H2B C3B 1_555 1_555
C4B C3B 1_555 1_555
C5B S1B 1_555 1_555
C6B S2B 1_555 1_555
C7B C4B 1_555 1_555
C8B C7B 1_555 1_555
H3B C8B 1_555 1_555
C9B S3B 1_555 1_555
H4B C9B 1_555 1_555
C4 C5 1_555 1_555
C6 C7 1_555 1_555
C8 C9 1_555 1_555
C4B C5B 1_555 1_555
C6B C7B 1_555 1_555
C8B C9B 1_555 1_555

#END
