
#######################################################################
#
#                 Cambridge Crystallographic Data Centre
#                                CCDC 
#
#######################################################################
#
# If this CIF has been generated from an entry in the Cambridge 
# Structural Database, then it will include bibliographic, chemical, 
# crystal, experimental, refinement or atomic coordinate data resulting 
# from the CCDC's data processing and validation procedures.
#
#######################################################################

data_MOPPOW
_chemical_formula_moiety         'C13 H9 I1 N2 O2'
_chemical_name_systematic        N-(2-Iodobenzylidene)-3-nitroaniline
_symmetry_cell_setting           triclinic
_symmetry_space_group_name_H-M   'P -1'
_symmetry_Int_Tables_number      2
_space_group_name_Hall           '-P 1'
loop_
_symmetry_equiv_pos_site_id
_symmetry_equiv_pos_as_xyz
1 x,y,z
2 -x,-y,-z
_cell_length_a                   7.7405(2)
_cell_length_b                   8.3297(2)
_cell_length_c                   11.3317(3)
_cell_angle_alpha                82.2570(9)
_cell_angle_beta                 71.5605(8)
_cell_angle_gamma                62.7543(10)
_cell_volume                     616.168
_exptl_crystal_colour            'pale yellow'
_exptl_crystal_description       plate
_chemical_melting_point          '364-365 K'
_cell_formula_units_Z            2
_exptl_crystal_recrystallization_method ethanol
loop_
_atom_site_label
_atom_site_type_symbol
_atom_site_fract_x
_atom_site_fract_y
_atom_site_fract_z
C1 C 0.7422(3) 0.0695(3) 0.3077(2)
N1 N 0.7310(3) 0.1564(3) 0.1922(2)
C2 C 0.7499(4) -0.1018(3) 0.3290(2)
C3 C 0.7636(4) -0.1796(3) 0.4437(2)
N2 N 0.7716(3) -0.3600(3) 0.4652(2)
O1 O 0.7780(4) -0.4380(3) 0.3785(2)
O2 O 0.7710(3) -0.4248(3) 0.5691(2)
C4 C 0.7705(4) -0.0952(4) 0.5378(2)
C5 C 0.7635(4) 0.0749(4) 0.5149(3)
C6 C 0.7519(4) 0.1560(4) 0.4008(3)
C7 C 0.5803(4) 0.2370(3) 0.0246(2)
C8 C 0.4086(4) 0.2768(3) -0.0131(2)
I1 I 0.15723(2) 0.23901(2) 0.102073(14)
C9 C 0.3940(4) 0.3507(3) -0.1292(2)
C10 C 0.5492(4) 0.3842(4) -0.2092(3)
C11 C 0.7211(4) 0.3454(3) -0.1738(3)
C12 C 0.7343(4) 0.2734(3) -0.0579(3)
C13 C 0.6006(4) 0.1579(3) 0.1460(2)
H1 H 0.7458 -0.1640 0.2662
H2 H 0.7798 -0.1519 0.6156
H3 H 0.7666 0.1367 0.5782
H4 H 0.7505 0.2715 0.3860
H5 H 0.2767 0.3780 -0.1534
H6 H 0.5393 0.4339 -0.2887
H7 H 0.8285 0.3684 -0.2289
H8 H 0.8513 0.2482 -0.0341
H9 H 0.5131 0.1058 0.1918
loop_
_geom_bond_atom_site_label_1
_geom_bond_atom_site_label_2
_geom_bond_site_symmetry_1
_geom_bond_site_symmetry_2
C1 N1 1_555 1_555
N1 C13 1_555 1_555
C2 C1 1_555 1_555
C3 C2 1_555 1_555
N2 C3 1_555 1_555
O1 N2 1_555 1_555
O2 N2 1_555 1_555
C4 C3 1_555 1_555
C5 C4 1_555 1_555
C6 C1 1_555 1_555
C7 C8 1_555 1_555
C8 I1 1_555 1_555
C9 C8 1_555 1_555
C10 C9 1_555 1_555
C11 C10 1_555 1_555
C12 C7 1_555 1_555
C13 C7 1_555 1_555
H1 C2 1_555 1_555
H2 C4 1_555 1_555
H3 C5 1_555 1_555
H4 C6 1_555 1_555
H5 C9 1_555 1_555
H6 C10 1_555 1_555
H7 C11 1_555 1_555
H8 C12 1_555 1_555
H9 C13 1_555 1_555
C5 C6 1_555 1_555
C11 C12 1_555 1_555

#END
