
#######################################################################
#
#                 Cambridge Crystallographic Data Centre
#                                CCDC 
#
#######################################################################
#
# If this CIF has been generated from an entry in the Cambridge 
# Structural Database, then it will include bibliographic, chemical, 
# crystal, experimental, refinement or atomic coordinate data resulting 
# from the CCDC's data processing and validation procedures.
#
#######################################################################

data_MOPPAJ
_chemical_formula_moiety         'C16 H6 S6'
_chemical_name_systematic        2,2'-bi(dithieno[2,3-b:3',2'-d]thiophene)
_symmetry_cell_setting           monoclinic
_symmetry_space_group_name_H-M   'P 21/c'
_symmetry_Int_Tables_number      14
_space_group_name_Hall           '-P 2ybc'
loop_
_symmetry_equiv_pos_site_id
_symmetry_equiv_pos_as_xyz
1 x,y,z
2 -x,1/2+y,1/2-z
3 -x,-y,-z
4 x,1/2-y,1/2+z
_cell_length_a                   16.3299(17)
_cell_length_b                   11.5393(12)
_cell_length_c                   8.1638(8)
_cell_angle_alpha                90
_cell_angle_beta                 101.201(6)
_cell_angle_gamma                90
_cell_volume                     1509.05
_cell_formula_units_Z            4
_exptl_crystal_recrystallization_method toluene/tetrahydrofuran
loop_
_atom_site_label
_atom_site_type_symbol
_atom_site_fract_x
_atom_site_fract_y
_atom_site_fract_z
S1 S 0.87618(5) 0.37568(7) 0.41140(10)
S2 S 0.73522(5) 0.23575(7) 0.17422(10)
S3 S 0.53982(5) 0.25458(7) 0.05864(10)
S4 S 0.36118(5) 0.50748(7) 0.18314(10)
S5 S 0.16632(5) 0.53281(7) 0.06359(10)
S6 S 0.02432(5) 0.39664(8) -0.17963(11)
C1 C 0.8417(2) 0.5002(3) 0.4948(4)
H1 H 0.8775 0.5508 0.5678
C2 C 0.7582(2) 0.5184(3) 0.4456(4)
H2 H 0.7292 0.5825 0.4802
C3 C 0.7194(2) 0.4298(3) 0.3358(4)
C4 C 0.77643(19) 0.3483(3) 0.3052(4)
C5 C 0.63722(19) 0.2969(3) 0.1624(4)
C6 C 0.63605(19) 0.3989(3) 0.2509(4)
C7 C 0.55380(19) 0.4446(3) 0.2341(4)
H3 H 0.5408 0.5144 0.2852
C8 C 0.4955(2) 0.3762(3) 0.1355(4)
C9 C 0.40550(19) 0.3917(3) 0.0926(4)
C10 C 0.34754(19) 0.3286(3) -0.0137(4)
H4 H 0.3606 0.2626 -0.0733
C11 C 0.26497(19) 0.3730(3) -0.0255(4)
C12 C 0.26360(19) 0.4697(3) 0.0741(4)
C13 C 0.12454(19) 0.4254(3) -0.0769(4)
C14 C 0.18215(19) 0.3461(3) -0.1139(4)
C15 C 0.1429(2) 0.2598(3) -0.2286(4)
H5 H 0.1720 0.1981 -0.2688
C16 C 0.0594(2) 0.2761(3) -0.2732(4)
H6 H 0.0236 0.2267 -0.3482
loop_
_geom_bond_atom_site_label_1
_geom_bond_atom_site_label_2
_geom_bond_site_symmetry_1
_geom_bond_site_symmetry_2
S1 C1 1_555 1_555
S2 C4 1_555 1_555
S3 C5 1_555 1_555
S4 C9 1_555 1_555
S5 C12 1_555 1_555
S6 C13 1_555 1_555
C1 H1 1_555 1_555
C2 C1 1_555 1_555
H2 C2 1_555 1_555
C3 C2 1_555 1_555
C4 S1 1_555 1_555
C5 S2 1_555 1_555
C6 C3 1_555 1_555
C7 C6 1_555 1_555
H3 C7 1_555 1_555
C8 S3 1_555 1_555
C9 C8 1_555 1_555
C10 C9 1_555 1_555
H4 C10 1_555 1_555
C11 C10 1_555 1_555
C12 S4 1_555 1_555
C13 S5 1_555 1_555
C14 C11 1_555 1_555
C15 C14 1_555 1_555
H5 C15 1_555 1_555
C16 S6 1_555 1_555
H6 C16 1_555 1_555
C3 C4 1_555 1_555
C5 C6 1_555 1_555
C7 C8 1_555 1_555
C11 C12 1_555 1_555
C13 C14 1_555 1_555
C15 C16 1_555 1_555

#END
