
#######################################################################
#
#                 Cambridge Crystallographic Data Centre
#                                CCDC 
#
#######################################################################
#
# If this CIF has been generated from an entry in the Cambridge 
# Structural Database, then it will include bibliographic, chemical, 
# crystal, experimental, refinement or atomic coordinate data resulting 
# from the CCDC's data processing and validation procedures.
#
#######################################################################

data_MOPRUE
_chemical_formula_moiety         'C30 H47 Br1 O7'
_chemical_name_systematic        
Spiro(1-bromo-4-((1R,2S,5R)-(-)-menthyloxy)-2-oxo-3-oxabicyclo(3.1.0)hexane-6,3'-(4'-ethoxy-5'-((1R,2S,5R)-(-)-menthyloxy)butyrolactone))
_symmetry_cell_setting           orthorhombic
_symmetry_space_group_name_H-M   'P 21 21 21'
_symmetry_Int_Tables_number      19
_space_group_name_Hall           'P 2ac 2ab'
loop_
_symmetry_equiv_pos_site_id
_symmetry_equiv_pos_as_xyz
1 x,y,z
2 1/2-x,-y,1/2+z
3 1/2+x,1/2-y,-z
4 -x,1/2+y,1/2-z
_cell_length_a                   9.687(3)
_cell_length_b                   12.828(4)
_cell_length_c                   25.631(6)
_cell_angle_alpha                90
_cell_angle_beta                 90
_cell_angle_gamma                90
_cell_volume                     3185.03
_exptl_crystal_colour            colorless
_chemical_melting_point          187-188deg.C
_cell_formula_units_Z            4
_exptl_crystal_recrystallization_method 'acetone/ethyl acetate/petroleum'
loop_
_atom_site_label
_atom_site_type_symbol
_atom_site_fract_x
_atom_site_fract_y
_atom_site_fract_z
Br1 Br -0.1802(1) -0.5757(1) -0.1636(1)
O1 O -0.1683(4) -0.9127(2) -0.1965(1)
O2 O -0.3123(4) -0.8607(3) -0.1284(1)
O3 O -0.4368(4) -0.7152(3) -0.1215(2)
O4 O -0.1977(3) -0.6189(2) 0.0044(1)
O5 O 0.0286(3) -0.6528(2) -0.0203(1)
O6 O 0.1113(4) -0.6353(3) -0.1014(1)
O7 O -0.0695(4) -0.8735(2) -0.0254(1)
C1 C -0.3351(11) -0.9013(7) -0.3495(3)
C2 C -0.4631(14) -0.8857(10) -0.2684(5)
C3 C -0.3277(9) -0.9027(5) -0.2898(2)
C4 C -0.2587(6) -1.0012(5) -0.2708(2)
C5 C -0.3263(9) -1.1037(5) -0.2878(2)
C6 C -0.2403(8) -1.1970(5) -0.2743(2)
C7 C -0.1092(11) -1.2947(7) -0.2057(2)
C8 C -0.2057(8) -1.2055(5) -0.2165(2)
C9 C -0.1461(7) -1.1019(4) -0.1987(2)
C10 C -0.2349(6) -1.0087(4) -0.2124(2)
C11 C -0.1721(6) -0.8894(4) -0.1446(2)
C12 C -0.0893(6) -0.7927(4) -0.1368(2)
C13 C -0.1879(6) -0.7058(4) -0.1294(2)
C14 C -0.3293(7) -0.7567(4) -0.1264(2)
C15 C -0.0960(5) -0.7375(3) -0.0857(2)
C16 C -0.1439(6) -0.7801(3) -0.0338(2)
C17 C -0.1155(6) -0.9358(5) 0.0178(2)
C18 C -0.1841(9) -1.0305(5) -0.0005(3)
C19 C 0.0270(6) -0.6707(4) -0.0721(2)
C20 C -0.0970(5) -0.6951(4) 0.0034(2)
C21 C -0.1746(6) -0.5331(3) 0.0404(2)
C22 C -0.2208(6) -0.5634(4) 0.0946(2)
C23 C -0.2610(9) -0.5032(5) 0.1871(2)
C24 C -0.2098(7) -0.4719(4) 0.1327(2)
C25 C -0.2887(9) -0.3803(5) 0.1115(2)
C26 C -0.2401(8) -0.3493(5) 0.0576(2)
C27 C -0.2514(5) -0.4403(4) 0.0190(2)
C28 C -0.2102(6) -0.4091(4) -0.0375(2)
C29 C -0.0659(8) -0.3673(6) -0.0424(3)
C30 C -0.3141(10) -0.3321(6) -0.0611(3)
loop_
_geom_bond_atom_site_label_1
_geom_bond_atom_site_label_2
_geom_bond_site_symmetry_1
_geom_bond_site_symmetry_2
Br1 C13 1_555 1_555
O1 C10 1_555 1_555
O2 C11 1_555 1_555
O3 C14 1_555 1_555
O4 C20 1_555 1_555
O5 C19 1_555 1_555
O6 C19 1_555 1_555
O7 C16 1_555 1_555
C1 C3 1_555 1_555
C2 C3 1_555 1_555
C3 C4 1_555 1_555
C4 C5 1_555 1_555
C5 C6 1_555 1_555
C6 C8 1_555 1_555
C7 C8 1_555 1_555
C8 C9 1_555 1_555
C9 C10 1_555 1_555
C10 C4 1_555 1_555
C11 O1 1_555 1_555
C12 C11 1_555 1_555
C13 C12 1_555 1_555
C14 O2 1_555 1_555
C15 C12 1_555 1_555
C16 C15 1_555 1_555
C17 O7 1_555 1_555
C18 C17 1_555 1_555
C19 C15 1_555 1_555
C20 O5 1_555 1_555
C21 O4 1_555 1_555
C22 C21 1_555 1_555
C23 C24 1_555 1_555
C24 C22 1_555 1_555
C25 C24 1_555 1_555
C26 C25 1_555 1_555
C27 C21 1_555 1_555
C28 C27 1_555 1_555
C29 C28 1_555 1_555
C30 C28 1_555 1_555
C13 C14 1_555 1_555
C13 C15 1_555 1_555
C16 C20 1_555 1_555
C26 C27 1_555 1_555

#END
