
#######################################################################
#
#                 Cambridge Crystallographic Data Centre
#                                CCDC 
#
#######################################################################
#
# If this CIF has been generated from an entry in the Cambridge 
# Structural Database, then it will include bibliographic, chemical, 
# crystal, experimental, refinement or atomic coordinate data resulting 
# from the CCDC's data processing and validation procedures.
#
#######################################################################

data_MOPRAM
_chemical_formula_moiety         'C17 H12 Br1 Cl2 N1 O2'
_chemical_name_systematic        
3-Bromo-2-(2,4-dichlorophenyl)-3,4-dihydro-2H-[1,3]oxazino[2,3-a]isoindol-6(10bH)-one
_symmetry_cell_setting           triclinic
_symmetry_space_group_name_H-M   'P -1'
_symmetry_Int_Tables_number      2
_space_group_name_Hall           '-P 1'
loop_
_symmetry_equiv_pos_site_id
_symmetry_equiv_pos_as_xyz
1 x,y,z
2 -x,-y,-z
_cell_length_a                   7.9140(5)
_cell_length_b                   9.1517(6)
_cell_length_c                   12.4963(9)
_cell_angle_alpha                75.741(6)
_cell_angle_beta                 77.454(3)
_cell_angle_gamma                66.924(4)
_cell_volume                     799.568
_exptl_crystal_colour            colorless
_exptl_crystal_description       block
_chemical_melting_point          '185-187 deg.C'
_cell_formula_units_Z            2
loop_
_atom_site_label
_atom_site_type_symbol
_atom_site_fract_x
_atom_site_fract_y
_atom_site_fract_z
Br1 Br 0.17740(2) 1.01708(2) 0.32022(2)
Cl1 Cl 0.25900(5) 0.61132(4) 0.52831(3)
Cl2 Cl -0.46623(5) 0.74098(5) 0.65943(3)
O1 O 0.14284(13) 0.63940(12) 0.20896(8)
O2 O 0.23289(15) 0.94259(14) -0.10879(9)
N1 N 0.29815(17) 0.77491(15) 0.05928(10)
C1 C 0.03744(19) 0.67797(17) 0.49118(13)
C2 C -0.1064(2) 0.67700(17) 0.57770(12)
H1 H -0.0827 0.6351 0.6526
C3 C -0.2856(2) 0.73906(18) 0.55119(13)
C4 C -0.3234(2) 0.79968(18) 0.44280(13)
H2 H -0.4475 0.8442 0.4267
C5 C -0.1766(2) 0.79421(18) 0.35789(13)
H3 H -0.2009 0.8335 0.2829
C6 C 0.00711(19) 0.73189(17) 0.38040(12)
C7 C 0.16184(19) 0.72688(17) 0.28497(12)
H4 H 0.2843 0.6691 0.3134
C8 C 0.1506(2) 0.89564(17) 0.22077(12)
H5 H 0.0272 0.9530 0.1934
C9 C 0.3035(2) 0.88652(18) 0.12184(13)
H6 H 0.2826 0.9945 0.0745
H7 H 0.4257 0.8478 0.1480
C10 C 0.29267(19) 0.61929(17) 0.11986(12)
H8 H 0.4133 0.5498 0.1480
C11 C 0.25913(19) 0.55054(18) 0.03188(12)
C12 C 0.23347(19) 0.66592(18) -0.06512(13)
C13 C 0.25177(19) 0.81357(18) -0.04575(12)
C14 C 0.25313(19) 0.39952(18) 0.03712(13)
H9 H 0.2719 0.3203 0.1031
C15 C 0.2185(2) 0.36811(19) -0.05837(13)
H10 H 0.2127 0.2660 -0.0571
C16 C 0.1924(2) 0.4842(2) -0.15551(13)
H11 H 0.1697 0.4597 -0.2194
C17 C 0.1991(2) 0.6358(2) -0.16021(13)
H12 H 0.1808 0.7154 -0.2261
loop_
_geom_bond_atom_site_label_1
_geom_bond_atom_site_label_2
_geom_bond_site_symmetry_1
_geom_bond_site_symmetry_2
Br1 C8 1_555 1_555
Cl1 C1 1_555 1_555
Cl2 C3 1_555 1_555
O1 C7 1_555 1_555
O2 C13 1_555 1_555
N1 C9 1_555 1_555
C1 C2 1_555 1_555
C2 H1 1_555 1_555
C3 C2 1_555 1_555
C4 C3 1_555 1_555
H2 C4 1_555 1_555
C5 C4 1_555 1_555
H3 C5 1_555 1_555
C6 C1 1_555 1_555
C7 C6 1_555 1_555
H4 C7 1_555 1_555
C8 C7 1_555 1_555
H5 C8 1_555 1_555
C9 C8 1_555 1_555
H6 C9 1_555 1_555
H7 C9 1_555 1_555
C10 O1 1_555 1_555
H8 C10 1_555 1_555
C11 C10 1_555 1_555
C12 C11 1_555 1_555
C13 N1 1_555 1_555
C14 C11 1_555 1_555
H9 C14 1_555 1_555
C15 C14 1_555 1_555
H10 C15 1_555 1_555
C16 C15 1_555 1_555
H11 C16 1_555 1_555
C17 C12 1_555 1_555
H12 C17 1_555 1_555
N1 C10 1_555 1_555
C5 C6 1_555 1_555
C12 C13 1_555 1_555
C16 C17 1_555 1_555

#END
