
#######################################################################
#
#                 Cambridge Crystallographic Data Centre
#                                CCDC 
#
#######################################################################
#
# If this CIF has been generated from an entry in the Cambridge 
# Structural Database, then it will include bibliographic, chemical, 
# crystal, experimental, refinement or atomic coordinate data resulting 
# from the CCDC's data processing and validation procedures.
#
#######################################################################

data_MOPREQ
_chemical_formula_moiety         'C14 H16 Br3 N1 O1'
_chemical_name_systematic        
3,9,9-Tribromo-2-phenylhexahydro-2H,6H-pyrido[2,1-b][1,3]oxazine
_symmetry_cell_setting           monoclinic
_symmetry_space_group_name_H-M   'P 21/n'
_symmetry_Int_Tables_number      14
_space_group_name_Hall           '-P 2yn'
loop_
_symmetry_equiv_pos_site_id
_symmetry_equiv_pos_as_xyz
1 x,y,z
2 1/2-x,1/2+y,1/2-z
3 -x,-y,-z
4 1/2+x,1/2-y,1/2+z
_cell_length_a                   8.185(3)
_cell_length_b                   13.070(5)
_cell_length_c                   14.074(5)
_cell_angle_alpha                90
_cell_angle_beta                 92.764(6)
_cell_angle_gamma                90
_cell_volume                     1503.86
_exptl_crystal_colour            colorless
_exptl_crystal_description       plate
_cell_formula_units_Z            4
loop_
_atom_site_label
_atom_site_type_symbol
_atom_site_fract_x
_atom_site_fract_y
_atom_site_fract_z
Br1 Br 0.47893(3) 1.315697(16) 1.008480(15)
Br2 Br 0.74937(3) 0.985613(17) 0.651353(15)
Br3 Br 0.50571(3) 0.870509(16) 0.782207(15)
O1 O 0.63868(17) 1.08067(11) 0.84078(10)
N1 N 0.3588(2) 1.10313(14) 0.79641(13)
C1 C 0.6511(3) 1.17302(16) 0.89641(15)
H1 H 0.6773 1.2319 0.8544
C2 C 0.4824(3) 1.18886(16) 0.93575(15)
H2 H 0.4559 1.1300 0.9777
C3 C 0.3546(3) 1.19629(17) 0.85407(16)
H3 H 0.2447 1.2048 0.8794
H4 H 0.3773 1.2566 0.8143
C4 C 0.2376(3) 1.11165(17) 0.71586(16)
H5 H 0.2665 1.1697 0.6747
H6 H 0.1279 1.1249 0.7400
C5 C 0.2343(3) 1.01301(17) 0.65859(16)
H7 H 0.1530 1.0188 0.6044
H8 H 0.2018 0.9554 0.6992
C6 C 0.4032(3) 0.99260(17) 0.62164(15)
H9 H 0.4302 1.0464 0.5754
H10 H 0.4029 0.9259 0.5884
C7 C 0.5323(3) 0.99151(16) 0.70345(15)
C8 C 0.5235(3) 1.08902(16) 0.76314(15)
H11 H 0.5524 1.1491 0.7233
C9 C 0.7879(2) 1.15832(17) 0.97049(15)
C10 C 0.9143(3) 1.22926(18) 0.97701(16)
H12 H 0.9132 1.2863 0.9351
C11 C 1.0425(3) 1.2172(2) 1.04475(17)
H13 H 1.1281 1.2663 1.0493
C12 C 1.0457(3) 1.1342(2) 1.10522(17)
H14 H 1.1335 1.1257 1.1512
C13 C 0.9196(3) 1.0631(2) 1.09844(17)
H15 H 0.9217 1.0055 1.1396
C14 C 0.7908(3) 1.07575(18) 1.03199(17)
H16 H 0.7040 1.0274 1.0286
loop_
_geom_bond_atom_site_label_1
_geom_bond_atom_site_label_2
_geom_bond_site_symmetry_1
_geom_bond_site_symmetry_2
Br1 C2 1_555 1_555
Br2 C7 1_555 1_555
Br3 C7 1_555 1_555
O1 C1 1_555 1_555
N1 C3 1_555 1_555
C1 H1 1_555 1_555
C2 C1 1_555 1_555
H2 C2 1_555 1_555
C3 C2 1_555 1_555
H3 C3 1_555 1_555
H4 C3 1_555 1_555
C4 N1 1_555 1_555
H5 C4 1_555 1_555
H6 C4 1_555 1_555
C5 C4 1_555 1_555
H7 C5 1_555 1_555
H8 C5 1_555 1_555
C6 C5 1_555 1_555
H9 C6 1_555 1_555
H10 C6 1_555 1_555
C7 C6 1_555 1_555
C8 O1 1_555 1_555
H11 C8 1_555 1_555
C9 C1 1_555 1_555
C10 C9 1_555 1_555
H12 C10 1_555 1_555
C11 C10 1_555 1_555
H13 C11 1_555 1_555
C12 C11 1_555 1_555
H14 C12 1_555 1_555
C13 C12 1_555 1_555
H15 C13 1_555 1_555
C14 C9 1_555 1_555
H16 C14 1_555 1_555
N1 C8 1_555 1_555
C7 C8 1_555 1_555
C13 C14 1_555 1_555

#END
