
#######################################################################
#
#                 Cambridge Crystallographic Data Centre
#                                CCDC 
#
#######################################################################
#
# If this CIF has been generated from an entry in the Cambridge 
# Structural Database, then it will include bibliographic, chemical, 
# crystal, experimental, refinement or atomic coordinate data resulting 
# from the CCDC's data processing and validation procedures.
#
#######################################################################

data_MOQNIQ
_chemical_formula_moiety         'C18 H16 N2 O4'
_chemical_name_systematic        
4-Methyl-2-(2-nitro-1-phenylethyl)-2-phenyl-1,3-oxazol-5(2H)-one
_symmetry_cell_setting           monoclinic
_symmetry_space_group_name_H-M   'P 21/a'
_symmetry_Int_Tables_number      14
_space_group_name_Hall           '-P 2yab'
loop_
_symmetry_equiv_pos_site_id
_symmetry_equiv_pos_as_xyz
1 x,y,z
2 1/2-x,1/2+y,-z
3 -x,-y,-z
4 1/2+x,1/2-y,z
_cell_length_a                   15.720(9)
_cell_length_b                   6.180(3)
_cell_length_c                   17.045(4)
_cell_angle_alpha                90
_cell_angle_beta                 92.75(2)
_cell_angle_gamma                90
_cell_volume                     1654.01
_exptl_crystal_colour            colorless
_exptl_crystal_description       prism
_cell_formula_units_Z            4
loop_
_atom_site_label
_atom_site_type_symbol
_atom_site_fract_x
_atom_site_fract_y
_atom_site_fract_z
O1 O 0.46901(5) 0.10546(12) 0.18471(5)
O2 O 0.32559(4) 0.11422(10) 0.18202(4)
O3 O 0.10849(7) 0.51854(16) 0.32233(6)
O4 O 0.07705(6) 0.19127(17) 0.35289(6)
N1 N 0.30421(5) -0.24633(13) 0.21841(5)
N2 N 0.11310(6) 0.32337(16) 0.31338(6)
C1 C 0.14645(8) -0.24923(19) 0.12019(7)
H1 H 0.1450 -0.3456 0.1620
C2 C 0.09273(9) -0.2807(2) 0.05403(9)
H2 H 0.0558 -0.3984 0.0518
C3 C 0.09373(8) -0.1391(3) -0.00835(8)
H3 H 0.0579 -0.1603 -0.0527
C4 C 0.14863(10) 0.0343(3) -0.00379(8)
H4 H 0.1497 0.1306 -0.0456
C5 C 0.20243(8) 0.0681(2) 0.06211(7)
H5 H 0.2387 0.1871 0.0644
C6 C 0.20204(6) -0.07537(16) 0.12426(6)
C7 C 0.26007(6) -0.04518(15) 0.19804(6)
C8 C 0.38412(6) -0.21020(16) 0.21858(6)
C9 C 0.40204(6) 0.01784(16) 0.19424(6)
C10 C 0.21107(6) 0.03351(15) 0.27028(6)
H6 H 0.1677 -0.0753 0.2806
C11 C 0.16502(7) 0.24388(18) 0.24882(6)
H7 H 0.2066 0.3533 0.2366
H8 H 0.1283 0.2209 0.2022
C12 C 0.26983(6) 0.05199(17) 0.34404(6)
C13 C 0.32054(8) 0.2332(2) 0.35863(7)
H9 H 0.3175 0.3497 0.3241
C14 C 0.37582(9) 0.2403(3) 0.42484(9)
H10 H 0.4102 0.3610 0.4338
C15 C 0.38009(10) 0.0716(3) 0.47689(9)
H11 H 0.4173 0.0774 0.5209
C16 C 0.32848(11) -0.1079(3) 0.46351(9)
H12 H 0.3306 -0.2226 0.4988
C17 C 0.27370(9) -0.1161(2) 0.39740(7)
H13 H 0.2390 -0.2366 0.3889
C18 C 0.45380(8) -0.36534(18) 0.23943(9)
H14 H 0.4302 -0.5068 0.2466
H15 H 0.4833 -0.3196 0.2872
H16 H 0.4929 -0.3698 0.1979
loop_
_geom_bond_atom_site_label_1
_geom_bond_atom_site_label_2
_geom_bond_site_symmetry_1
_geom_bond_site_symmetry_2
O1 C9 1_555 1_555
O2 C7 1_555 1_555
O3 N2 1_555 1_555
O4 N2 1_555 1_555
N1 C7 1_555 1_555
N2 C11 1_555 1_555
C1 H1 1_555 1_555
C2 C1 1_555 1_555
H2 C2 1_555 1_555
C3 C2 1_555 1_555
H3 C3 1_555 1_555
C4 C3 1_555 1_555
H4 C4 1_555 1_555
C5 C4 1_555 1_555
H5 C5 1_555 1_555
C6 C1 1_555 1_555
C7 C6 1_555 1_555
C8 N1 1_555 1_555
C9 O2 1_555 1_555
C10 C7 1_555 1_555
H6 C10 1_555 1_555
C11 C10 1_555 1_555
H7 C11 1_555 1_555
H8 C11 1_555 1_555
C12 C10 1_555 1_555
C13 C12 1_555 1_555
H9 C13 1_555 1_555
C14 C13 1_555 1_555
H10 C14 1_555 1_555
C15 C14 1_555 1_555
H11 C15 1_555 1_555
C16 C15 1_555 1_555
H12 C16 1_555 1_555
C17 C12 1_555 1_555
H13 C17 1_555 1_555
C18 C8 1_555 1_555
H14 C18 1_555 1_555
H15 C18 1_555 1_555
H16 C18 1_555 1_555
C5 C6 1_555 1_555
C8 C9 1_555 1_555
C16 C17 1_555 1_555

#END
