
#######################################################################
#
#                 Cambridge Crystallographic Data Centre
#                                CCDC 
#
#######################################################################
#
# If this CIF has been generated from an entry in the Cambridge 
# Structural Database, then it will include bibliographic, chemical, 
# crystal, experimental, refinement or atomic coordinate data resulting 
# from the CCDC's data processing and validation procedures.
#
#######################################################################

data_MOQTOB
_chemical_formula_moiety         'C40 H39 Cl1 N2 O7'
_chemical_name_systematic        
6-Benzoyl-5-(2-chlorophenyl)-3a-phenyl-1,2,3-tris(ethoxycarbonyl)-2,3,3a,4,5,6-hexahydro-1H-pyrrolo(1,2-a)(1,5)benzodiazepine
_symmetry_cell_setting           monoclinic
_symmetry_space_group_name_H-M   'P 21/c'
_symmetry_Int_Tables_number      14
_space_group_name_Hall           '-P 2ybc'
loop_
_symmetry_equiv_pos_site_id
_symmetry_equiv_pos_as_xyz
1 x,y,z
2 -x,1/2+y,1/2-z
3 -x,-y,-z
4 x,1/2-y,1/2+z
_cell_length_a                   13.235(5)
_cell_length_b                   17.142(6)
_cell_length_c                   16.204(6)
_cell_angle_alpha                90
_cell_angle_beta                 100.94(3)
_cell_angle_gamma                90
_cell_volume                     3609.46
_cell_formula_units_Z            4
loop_
_atom_site_label
_atom_site_type_symbol
_atom_site_fract_x
_atom_site_fract_y
_atom_site_fract_z
Cl1 Cl 0.0633(2) 0.6770(2) 0.2875(2)
N1 N 0.3354(5) 0.4726(4) 0.1645(4)
N2 N 0.3606(5) 0.5510(4) 0.3180(4)
O1 O 0.0895(5) 0.3398(4) 0.1542(5)
O2 O -0.0052(4) 0.4479(4) 0.1158(4)
O3 O 0.2163(6) 0.4175(4) -0.0875(4)
O4 O 0.1882(5) 0.2965(4) -0.0449(4)
O5 O 0.4350(5) 0.3374(4) 0.0312(5)
O6 O 0.5204(5) 0.4300(5) 0.1148(5)
O7 O 0.3915(5) 0.6708(4) 0.3737(5)
C1 C 0.1626(6) 0.4461(5) 0.0880(5)
C2 C 0.2402(7) 0.3909(5) 0.0597(5)
C3 C 0.3398(7) 0.4381(5) 0.0826(5)
C4 C 0.0773(6) 0.4047(5) 0.1249(5)
C5 C 0.2149(7) 0.3723(6) -0.0320(6)
C6 C 0.4386(7) 0.3936(6) 0.0732(6)
C7 C 0.4262(7) 0.6111(5) 0.3479(6)
C8 C 0.3933(6) 0.4712(5) 0.3162(5)
C9 C 0.3724(6) 0.4304(5) 0.2397(5)
C10 C 0.3991(7) 0.3508(5) 0.2415(6)
C11 C 0.4484(8) 0.3154(6) 0.3138(6)
C12 C 0.4724(8) 0.3584(6) 0.3864(6)
C13 C 0.4434(7) 0.4357(6) 0.3881(6)
C14 C 0.2504(6) 0.5688(5) 0.2991(6)
C15 C 0.1925(6) 0.5113(5) 0.2357(5)
C16 C 0.2290(6) 0.5063(5) 0.1534(6)
C17 C 0.2292(6) 0.5875(5) 0.1136(6)
C18 C 0.3185(7) 0.6280(6) 0.1076(7)
C19 C 0.3145(8) 0.7013(6) 0.0751(8)
C20 C 0.2244(9) 0.7370(6) 0.0428(7)
C21 C 0.1327(8) 0.6973(6) 0.0464(8)
C22 C 0.1364(7) 0.6236(6) 0.0804(7)
C23 C 0.1983(7) 0.5738(5) 0.3758(6)
C24 C 0.2300(8) 0.5306(6) 0.4493(7)
C25 C 0.1790(1) 0.5320(7) 0.5159(7)
C26 C 0.0900(9) 0.5744(8) 0.5093(8)
C27 C 0.0556(8) 0.6171(7) 0.4388(7)
C28 C 0.1096(7) 0.6177(6) 0.3747(6)
C29 C -0.0876(7) 0.4177(7) 0.1531(7)
C30 C -0.0826(9) 0.4490(1) 0.2402(8)
C31 C 0.1680(1) 0.2695(7) -0.1306(6)
C32 C 0.1530(2) 0.1892(1) -0.1320(1)
C33 C 0.6187(8) 0.3910(1) 0.1121(9)
C34 C 0.6562(9) 0.3516(8) 0.1900(1)
C35 C 0.5366(7) 0.6084(6) 0.3404(6)
C36 C 0.5698(7) 0.5723(6) 0.2736(6)
C37 C 0.6706(8) 0.5785(7) 0.2606(6)
C38 C 0.7385(8) 0.6244(7) 0.3177(6)
C39 C 0.7081(7) 0.6583(6) 0.3827(6)
C40 C 0.6073(8) 0.6534(6) 0.3951(7)
loop_
_geom_bond_atom_site_label_1
_geom_bond_atom_site_label_2
_geom_bond_site_symmetry_1
_geom_bond_site_symmetry_2
Cl1 C28 1_555 1_555
N1 C3 1_555 1_555
N2 C7 1_555 1_555
O1 C4 1_555 1_555
O2 C4 1_555 1_555
O3 C5 1_555 1_555
O4 C5 1_555 1_555
O5 C6 1_555 1_555
O6 C6 1_555 1_555
O7 C7 1_555 1_555
C1 C2 1_555 1_555
C2 C3 1_555 1_555
C3 C6 1_555 1_555
C4 C1 1_555 1_555
C5 C2 1_555 1_555
C7 C35 1_555 1_555
C8 N2 1_555 1_555
C9 N1 1_555 1_555
C10 C9 1_555 1_555
C11 C10 1_555 1_555
C12 C11 1_555 1_555
C13 C8 1_555 1_555
C14 N2 1_555 1_555
C15 C14 1_555 1_555
C16 N1 1_555 1_555
C17 C16 1_555 1_555
C18 C17 1_555 1_555
C19 C18 1_555 1_555
C20 C19 1_555 1_555
C21 C20 1_555 1_555
C22 C17 1_555 1_555
C23 C14 1_555 1_555
C24 C23 1_555 1_555
C25 C24 1_555 1_555
C26 C25 1_555 1_555
C27 C26 1_555 1_555
C28 C23 1_555 1_555
C29 O2 1_555 1_555
C30 C29 1_555 1_555
C31 O4 1_555 1_555
C32 C31 1_555 1_555
C33 O6 1_555 1_555
C34 C33 1_555 1_555
C35 C36 1_555 1_555
C36 C37 1_555 1_555
C37 C38 1_555 1_555
C38 C39 1_555 1_555
C39 C40 1_555 1_555
C40 C35 1_555 1_555
C1 C16 1_555 1_555
C8 C9 1_555 1_555
C12 C13 1_555 1_555
C15 C16 1_555 1_555
C21 C22 1_555 1_555
C27 C28 1_555 1_555

#END
