
#######################################################################
#
#                 Cambridge Crystallographic Data Centre
#                                CCDC 
#
#######################################################################
#
# If this CIF has been generated from an entry in the Cambridge 
# Structural Database, then it will include bibliographic, chemical, 
# crystal, experimental, refinement or atomic coordinate data resulting 
# from the CCDC's data processing and validation procedures.
#
#######################################################################

data_MORCON
_chemical_formula_moiety         'C16 H14 N4 O1'
_chemical_name_systematic        
2-(2-(4-methoxybenzylidene)hydrazino)quinoxaline
_symmetry_cell_setting           monoclinic
_symmetry_space_group_name_H-M   'P 21/n'
_symmetry_Int_Tables_number      14
_space_group_name_Hall           '-P 2yn'
loop_
_symmetry_equiv_pos_site_id
_symmetry_equiv_pos_as_xyz
1 x,y,z
2 1/2-x,1/2+y,1/2-z
3 -x,-y,-z
4 1/2+x,1/2-y,1/2+z
_cell_length_a                   6.455(2)
_cell_length_b                   33.3165(10)
_cell_length_c                   6.706(2)
_cell_angle_alpha                90
_cell_angle_beta                 111.865(5)
_cell_angle_gamma                90
_cell_volume                     1338.43
_exptl_crystal_colour            colorless
_exptl_crystal_description       needle
_cell_formula_units_Z            4
loop_
_atom_site_label
_atom_site_type_symbol
_atom_site_fract_x
_atom_site_fract_y
_atom_site_fract_z
O1 O 1.00608(14) 0.03374(3) 1.30061(13)
N1 N 0.24497(17) 0.17097(3) -0.09731(15)
N2 N 0.48582(18) 0.13977(3) 0.20216(16)
N3 N 0.52939(18) 0.12081(3) 0.39427(15)
N4 N -0.09802(17) 0.16648(3) 0.06947(16)
C1 C 0.8007(2) 0.08905(4) 0.70075(19)
C2 C 0.0376(2) 0.18638(3) -0.20827(19)
C3 C 0.7316(2) 0.10933(4) 0.49287(19)
C4 C 0.9493(2) 0.05079(4) 1.10221(18)
C5 C -0.3453(2) 0.20157(4) -0.2440(2)
H1 H -0.4611 0.2007 -0.1887
C6 C 1.0930(2) 0.05487(4) 0.99138(19)
H2 H 1.2411 0.0447 1.0509
C7 C 0.1016(2) 0.15208(4) 0.17338(19)
H3 H 0.1321 0.1395 0.3086
C8 C 0.6586(2) 0.08461(4) 0.81475(19)
H4 H 0.5108 0.0949 0.7561
C9 C -0.3824(2) 0.21929(4) -0.4394(2)
H5 H -0.5238 0.2309 -0.5184
C10 C -0.1347(2) 0.18473(4) -0.12595(19)
C11 C -0.2126(2) 0.22040(4) -0.5231(2)
H6 H -0.2409 0.2324 -0.6593
C12 C -0.0065(2) 0.20436(4) -0.41004(19)
H7 H 0.1071 0.2054 -0.4680
C13 C 1.0171(2) 0.07393(4) 0.79282(19)
H8 H 1.1154 0.0767 0.7177
C14 C 0.7315(2) 0.06545(4) 1.01109(19)
H9 H 0.6326 0.0622 1.0851
C15 C 1.2318(2) 0.02008(4) 1.4038(2)
H10 H 1.2643 -0.0002 1.3137
H11 H 1.2512 0.0083 1.5435
H12 H 1.3341 0.0428 1.4247
C16 C 0.2765(2) 0.15458(4) 0.09012(19)
H13 H 0.603(2) 0.1461(4) 0.163(2)
H14 H 0.848(2) 0.1141(4) 0.432(2)
loop_
_geom_bond_atom_site_label_1
_geom_bond_atom_site_label_2
_geom_bond_site_symmetry_1
_geom_bond_site_symmetry_2
O1 C4 1_555 1_555
N1 C2 1_555 1_555
N2 N3 1_555 1_555
N3 C3 1_555 1_555
N4 C7 1_555 1_555
C1 C3 1_555 1_555
C2 C10 1_555 1_555
C3 H14 1_555 1_555
C4 C6 1_555 1_555
C5 H1 1_555 1_555
C6 H2 1_555 1_555
C7 H3 1_555 1_555
C8 C1 1_555 1_555
H4 C8 1_555 1_555
C9 C5 1_555 1_555
H5 C9 1_555 1_555
C10 N4 1_555 1_555
C11 C9 1_555 1_555
H6 C11 1_555 1_555
C12 C2 1_555 1_555
H7 C12 1_555 1_555
C13 C1 1_555 1_555
H8 C13 1_555 1_555
C14 C4 1_555 1_555
H9 C14 1_555 1_555
C15 O1 1_555 1_555
H10 C15 1_555 1_555
H11 C15 1_555 1_555
H12 C15 1_555 1_555
C16 N1 1_555 1_555
H13 N2 1_555 1_555
N2 C16 1_555 1_555
C5 C10 1_555 1_555
C6 C13 1_555 1_555
C7 C16 1_555 1_555
C8 C14 1_555 1_555
C11 C12 1_555 1_555

#END
