
#######################################################################
#
#                 Cambridge Crystallographic Data Centre
#                                CCDC 
#
#######################################################################
#
# If this CIF has been generated from an entry in the Cambridge 
# Structural Database, then it will include bibliographic, chemical, 
# crystal, experimental, refinement or atomic coordinate data resulting 
# from the CCDC's data processing and validation procedures.
#
#######################################################################

data_MORNOX
_chemical_formula_moiety         
'C13 H13 F1 N4 O4,0.5(C6 H16 N1 1+),0.5(Cl1 1-)'
_chemical_name_systematic        
'((3aS,4R,6S,6aS)-3a-Fluoro-6-(6-methoxy-7H-purin-7-yl)-3a,4,6,6a-tetrahydrofuro(3,2-c)furan-4-yl)methanol hemikis(triethylammonium chloride)'
_symmetry_cell_setting           orthorhombic
_symmetry_space_group_name_H-M   'P 21 21 21'
_symmetry_Int_Tables_number      19
_space_group_name_Hall           'P 2ac 2ab'
loop_
_symmetry_equiv_pos_site_id
_symmetry_equiv_pos_as_xyz
1 x,y,z
2 1/2-x,-y,1/2+z
3 -x,1/2+y,1/2-z
4 1/2+x,1/2-y,-z
_cell_length_a                   7.4156(15)
_cell_length_b                   20.417(4)
_cell_length_c                   23.585(5)
_cell_angle_alpha                90
_cell_angle_beta                 90
_cell_angle_gamma                90
_cell_volume                     3570.87
_exptl_crystal_colour            colorless
_exptl_crystal_description       prismatic
_chemical_melting_point          '112-115 deg.C'
_cell_formula_units_Z            8
loop_
_atom_site_label
_atom_site_type_symbol
_atom_site_fract_x
_atom_site_fract_y
_atom_site_fract_z
Cl1 Cl 0.57456(15) 0.15404(6) 0.94262(5)
F1 F 0.0609(4) 0.18292(13) 1.31579(10)
O1 O 0.3606(4) 0.29291(14) 1.32991(12)
O2 O 0.2623(3) 0.25037(13) 1.21136(11)
O3 O -0.1836(4) 0.29671(16) 1.24800(14)
O4 O 0.4161(5) 0.12339(16) 1.19243(17)
N1 N 0.4743(4) 0.48599(17) 1.29109(16)
N2 N 0.4963(5) 0.39175(18) 1.35230(15)
N3 N 0.2229(4) 0.36284(15) 1.22289(13)
N4 N 0.2997(5) 0.46754(17) 1.20584(15)
C1 C 0.5292(6) 0.4542(2) 1.33714(19)
H1 H 0.5996 0.4784 1.3622
C2 C 0.3975(5) 0.35541(19) 1.31786(16)
C3 C 0.3290(5) 0.38327(18) 1.26822(16)
C4 C 0.3728(5) 0.44835(19) 1.25704(17)
C5 C 0.2134(6) 0.4157(2) 1.18753(17)
H2 H 0.1510 0.4149 1.1533
C6 C 0.4523(9) 0.2638(3) 1.3776(2)
H3 H 0.4156 0.2190 1.3814
H4 H 0.4223 0.2874 1.4115
H5 H 0.5802 0.2658 1.3715
C7 C 0.1298(5) 0.30047(18) 1.21385(16)
H6 H 0.0648 0.3021 1.1777
C8 C -0.0002(5) 0.28042(19) 1.26078(16)
H7 H 0.0367 0.2987 1.2974
C9 C 0.0132(5) 0.2051(2) 1.26077(16)
C10 C 0.1660(5) 0.18872(19) 1.21917(17)
H8 H 0.1120 0.1762 1.1828
C11 C -0.1722(6) 0.1858(2) 1.24608(18)
H9 H -0.2126 0.1430 1.2421
C12 C -0.2722(6) 0.2386(2) 1.23939(18)
H10 H -0.3936 0.2366 1.2296
C13 C 0.2923(6) 0.1359(2) 1.2369(2)
H11 H 0.3570 0.1492 1.2708
H12 H 0.2252 0.0963 1.2456
H13 H 0.400(18) 0.0804(14) 1.186(5)
F2 F 0.5897(4) -0.17004(11) 0.96114(12)
O5 O 0.8975(5) -0.12769(15) 1.05441(15)
O6 O 0.7826(4) -0.02924(13) 0.96366(11)
O7 O 0.3421(4) -0.05099(16) 1.01954(13)
O8 O 0.9539(4) -0.07408(18) 0.86135(14)
N5 N 0.8101(6) 0.0823(2) 1.12516(17)
N6 N 0.7412(4) 0.01198(16) 1.05468(15)
N7 N 1.0268(5) -0.1002(2) 1.14018(19)
N8 N 0.9949(6) 0.0078(3) 1.18081(18)
C14 C 0.7241(7) 0.0738(2) 1.0774(2)
H14 H 0.6570 0.1067 1.0601
C15 C 0.8907(6) 0.0228(3) 1.13494(19)
C16 C 0.8516(5) -0.0217(2) 1.09202(17)
C17 C 0.9291(6) -0.0848(2) 1.09586(19)
C18 C 1.0530(7) -0.0535(4) 1.1797(3)
H15 H 1.1219 -0.0662 1.2108
C19 C 0.9937(9) -0.1899(3) 1.0574(3)
H16 H 0.9600 -0.2169 1.0258
H17 H 0.9632 -0.2119 1.0921
H18 H 1.1213 -0.1820 1.0564
C20 C 0.6500(5) -0.00931(18) 1.00389(16)
H19 H 0.5797 0.0271 0.9883
C21 C 0.5272(5) -0.0696(2) 1.01115(17)
H20 H 0.5701 -0.0983 1.0416
C22 C 0.5384(6) -0.10333(19) 0.95347(17)
C23 C 0.6881(5) -0.06725(19) 0.92102(16)
H21 H 0.6327 -0.0373 0.8936
C24 C 0.3515(6) -0.0986(2) 0.9320(2)
H22 H 0.3105 -0.1137 0.8971
C25 C 0.2539(6) -0.0693(2) 0.9708(2)
H23 H 0.1315 -0.0613 0.9656
C26 C 0.8222(6) -0.1102(2) 0.89050(18)
H24 H 0.8810 -0.1386 0.9178
H25 H 0.7583 -0.1378 0.8637
H26 H 0.904(9) -0.040(2) 0.843(3)
N9 N 0.1532(6) 0.1527(2) 0.93937(19)
C27 C 0.1030(8) 0.0873(3) 0.9156(3)
H27 H -0.0255 0.0868 0.9080
H28 H 0.1275 0.0539 0.9438
C28 C 0.2025(9) 0.0703(4) 0.8620(3)
H29 H 0.1635 0.0281 0.8487
H30 H 0.3297 0.0691 0.8694
H31 H 0.1777 0.1027 0.8336
C29 C 0.0855(8) 0.1616(3) 0.9990(2)
H32 H 0.1005 0.2070 1.0099
H33 H -0.0423 0.1516 1.0001
C30 C 0.1817(9) 0.1189(4) 1.0411(3)
H34 H 0.1324 0.1260 1.0782
H35 H 0.3078 0.1296 1.0412
H36 H 0.1665 0.0737 1.0307
C31 C 0.0797(15) 0.2045(4) 0.9005(3)
H37 H 0.1114 0.1924 0.8620
H38 H -0.0508 0.2031 0.9031
C32 C 0.129(2) 0.2641(4) 0.9082(3)
H39 H 0.0688 0.2918 0.8814
H40 H 0.2573 0.2674 0.9028
H41 H 0.0991 0.2774 0.9460
H42 H 0.279(8) 0.158(2) 0.941(2)
loop_
_geom_bond_atom_site_label_1
_geom_bond_atom_site_label_2
_geom_bond_site_symmetry_1
_geom_bond_site_symmetry_2
F1 C9 1_555 1_555
O1 C2 1_555 1_555
O2 C7 1_555 1_555
O3 C8 1_555 1_555
O4 C13 1_555 1_555
N1 C1 1_555 1_555
N2 C1 1_555 1_555
N3 C3 1_555 1_555
N4 C4 1_555 1_555
C1 H1 1_555 1_555
C2 N2 1_555 1_555
C3 C2 1_555 1_555
C4 N1 1_555 1_555
C5 N3 1_555 1_555
H2 C5 1_555 1_555
C6 O1 1_555 1_555
H3 C6 1_555 1_555
H4 C6 1_555 1_555
H5 C6 1_555 1_555
C7 N3 1_555 1_555
H6 C7 1_555 1_555
C8 C7 1_555 1_555
H7 C8 1_555 1_555
C9 C8 1_555 1_555
C10 O2 1_555 1_555
H8 C10 1_555 1_555
C11 C9 1_555 1_555
H9 C11 1_555 1_555
C12 O3 1_555 1_555
H10 C12 1_555 1_555
C13 C10 1_555 1_555
H11 C13 1_555 1_555
H12 C13 1_555 1_555
H13 O4 1_555 1_555
F2 C22 1_555 1_555
O5 C17 1_555 1_555
O6 C20 1_555 1_555
O7 C21 1_555 1_555
O8 C26 1_555 1_555
N5 C14 1_555 1_555
N6 C14 1_555 1_555
N7 C17 1_555 1_555
N8 C15 1_555 1_555
C14 H14 1_555 1_555
C15 N5 1_555 1_555
C16 N6 1_555 1_555
C17 C16 1_555 1_555
C18 N7 1_555 1_555
H15 C18 1_555 1_555
C19 O5 1_555 1_555
H16 C19 1_555 1_555
H17 C19 1_555 1_555
H18 C19 1_555 1_555
C20 N6 1_555 1_555
H19 C20 1_555 1_555
C21 C20 1_555 1_555
H20 C21 1_555 1_555
C22 C21 1_555 1_555
C23 O6 1_555 1_555
H21 C23 1_555 1_555
C24 C22 1_555 1_555
H22 C24 1_555 1_555
C25 O7 1_555 1_555
H23 C25 1_555 1_555
C26 C23 1_555 1_555
H24 C26 1_555 1_555
H25 C26 1_555 1_555
H26 O8 1_555 1_555
N9 C27 1_555 1_555
C27 H27 1_555 1_555
H28 C27 1_555 1_555
C28 C27 1_555 1_555
H29 C28 1_555 1_555
H30 C28 1_555 1_555
H31 C28 1_555 1_555
C29 N9 1_555 1_555
H32 C29 1_555 1_555
H33 C29 1_555 1_555
C30 C29 1_555 1_555
H34 C30 1_555 1_555
H35 C30 1_555 1_555
H36 C30 1_555 1_555
C31 N9 1_555 1_555
H37 C31 1_555 1_555
H38 C31 1_555 1_555
C32 C31 1_555 1_555
H39 C32 1_555 1_555
H40 C32 1_555 1_555
H41 C32 1_555 1_555
H42 N9 1_555 1_555
N4 C5 1_555 1_555
C3 C4 1_555 1_555
C9 C10 1_555 1_555
C11 C12 1_555 1_555
N8 C18 1_555 1_555
C15 C16 1_555 1_555
C22 C23 1_555 1_555
C24 C25 1_555 1_555

#END
