
#######################################################################
#
#                 Cambridge Crystallographic Data Centre
#                                CCDC 
#
#######################################################################
#
# If this CIF has been generated from an entry in the Cambridge 
# Structural Database, then it will include bibliographic, chemical, 
# crystal, experimental, refinement or atomic coordinate data resulting 
# from the CCDC's data processing and validation procedures.
#
#######################################################################

data_MORSES
_chemical_formula_moiety         'C35 H38 F6 S2'
_chemical_name_systematic        
1,2-bis(2-n-Heptyl-1-benzothiophen-3-yl)perfluorocyclopentene
_symmetry_cell_setting           triclinic
_symmetry_space_group_name_H-M   'P -1'
_symmetry_Int_Tables_number      2
_space_group_name_Hall           '-P 1'
loop_
_symmetry_equiv_pos_site_id
_symmetry_equiv_pos_as_xyz
1 x,y,z
2 -x,-y,-z
_cell_length_a                   10.8702(5)
_cell_length_b                   12.6588(6)
_cell_length_c                   14.6884(10)
_cell_angle_alpha                109.028(3)
_cell_angle_beta                 99.410(3)
_cell_angle_gamma                111.268(2)
_cell_volume                     1687.08
_exptl_crystal_colour            colorless
_exptl_crystal_description       block
_chemical_melting_point          '64-65 deg.C'
_cell_formula_units_Z            2
loop_
_atom_site_label
_atom_site_type_symbol
_atom_site_fract_x
_atom_site_fract_y
_atom_site_fract_z
S1 S 0.52427(12) 0.23157(13) 0.49258(8)
S2 S 1.09811(11) 0.47939(10) 0.41046(9)
F1 F 0.5761(4) -0.1304(3) 0.2802(3)
F2 F 0.5045(3) -0.0917(3) 0.1573(3)
F3 F 0.7157(4) -0.1966(3) 0.1624(4)
F4 F 0.7060(5) -0.0751(6) 0.0954(3)
F5 F 0.9560(3) 0.0545(3) 0.2113(3)
F6 F 0.9231(4) -0.0219(3) 0.3176(3)
C1 C 0.9999(10) 0.1723(8) 1.0285(6)
H1 H 0.9907 0.1966 1.0952
H2 H 1.0940 0.2202 1.0330
H3 H 0.9771 0.0851 1.0002
C2 C 0.9045(7) 0.1955(8) 0.9628(5)
H4 H 0.9277 0.2836 0.9923
H5 H 0.8100 0.1494 0.9608
C3 C 0.9105(5) 0.1589(5) 0.8579(4)
H6 H 1.0057 0.2033 0.8604
H7 H 0.8853 0.0703 0.8283
C4 C 0.8188(6) 0.1839(6) 0.7911(4)
H8 H 0.7236 0.1391 0.7887
H9 H 0.8437 0.2723 0.8213
C5 C 0.8235(6) 0.1490(6) 0.6869(4)
H10 H 0.8016 0.0612 0.6564
H11 H 0.9169 0.1968 0.6879
C6 C 0.7217(5) 0.1727(7) 0.6238(4)
H12 H 0.6278 0.1138 0.6131
H13 H 0.7324 0.2560 0.6613
C7 C 0.7389(5) 0.1617(6) 0.5268(3)
H14 H 0.7386 0.0816 0.4938
H15 H 0.8307 0.2255 0.5392
C8 C 0.6362(4) 0.1719(4) 0.4526(3)
C9 C 0.4496(4) 0.2145(4) 0.3724(3)
C10 C 0.3481(4) 0.2502(4) 0.3434(3)
H16 H 0.3102 0.2852 0.3902
C11 C 0.3059(4) 0.2331(5) 0.2458(4)
H17 H 0.2356 0.2535 0.2248
C12 C 0.3661(5) 0.1850(5) 0.1758(3)
H18 H 0.3393 0.1784 0.1099
C13 C 0.4649(4) 0.1474(4) 0.2038(3)
H19 H 0.5005 0.1112 0.1558
C14 C 0.5113(3) 0.1634(3) 0.3034(3)
C15 C 0.6171(3) 0.1393(3) 0.3523(3)
C16 C 0.6937(3) 0.0762(3) 0.3000(3)
C17 C 0.6186(4) -0.0607(4) 0.2297(4)
C18 C 0.7279(5) -0.0869(4) 0.1876(4)
C19 C 0.8634(5) 0.0195(4) 0.2542(4)
C20 C 0.8302(4) 0.1221(3) 0.3124(3)
C21 C 0.9405(3) 0.2498(3) 0.3691(2)
C22 C 1.0646(4) 0.2908(4) 0.4529(3)
C23 C 1.0981(4) 0.2257(4) 0.5069(3)
H20 H 1.0366 0.1437 0.4908
C24 C 1.2217(6) 0.2849(7) 0.5831(4)
H21 H 1.2447 0.2418 0.6181
C25 C 1.3130(6) 0.4058(7) 0.6094(4)
H22 H 1.3972 0.4432 0.6612
C26 C 1.2829(5) 0.4713(5) 0.5616(3)
H23 H 1.3446 0.5542 0.5807
C27 C 1.1577(4) 0.4133(4) 0.4826(3)
C28 C 0.9439(4) 0.3420(3) 0.3399(3)
C29 C 0.8371(4) 0.3352(4) 0.2585(3)
H24 H 0.8013 0.2546 0.2016
H25 H 0.7604 0.3375 0.2835
C30 C 0.8791(5) 0.4322(5) 0.2193(4)
H26 H 0.9579 0.4336 0.1959
H27 H 0.9082 0.5133 0.2738
C31 C 0.7599(6) 0.4080(5) 0.1318(4)
H28 H 0.7245 0.3226 0.0821
H29 H 0.6853 0.4139 0.1583
C32 C 0.7896(7) 0.4875(8) 0.0798(6)
H30 H 0.8723 0.4906 0.0617
H31 H 0.8129 0.5712 0.1277
C33 C 0.6826(9) 0.4564(9) -0.0115(7)
H32 H 0.6306 0.3661 -0.0445
H33 H 0.6187 0.4883 0.0102
C34 C 0.7180(11) 0.4956(13) -0.0849(8)
H34 H 0.7817 0.4636 -0.1071
H35 H 0.7698 0.5859 -0.0523
C35 C 0.6128(12) 0.4643(8) -0.1722(6)
H36 H 0.6521 0.5087 -0.2103
H37 H 0.5425 0.4865 -0.1526
H38 H 0.5719 0.3761 -0.2134
loop_
_geom_bond_atom_site_label_1
_geom_bond_atom_site_label_2
_geom_bond_site_symmetry_1
_geom_bond_site_symmetry_2
S1 C8 1_555 1_555
S2 C27 1_555 1_555
F1 C17 1_555 1_555
F2 C17 1_555 1_555
F3 C18 1_555 1_555
F4 C18 1_555 1_555
F5 C19 1_555 1_555
F6 C19 1_555 1_555
C1 H1 1_555 1_555
H2 C1 1_555 1_555
H3 C1 1_555 1_555
C2 C1 1_555 1_555
H4 C2 1_555 1_555
H5 C2 1_555 1_555
C3 C2 1_555 1_555
H6 C3 1_555 1_555
H7 C3 1_555 1_555
C4 C3 1_555 1_555
H8 C4 1_555 1_555
H9 C4 1_555 1_555
C5 C4 1_555 1_555
H10 C5 1_555 1_555
H11 C5 1_555 1_555
C6 C5 1_555 1_555
H12 C6 1_555 1_555
H13 C6 1_555 1_555
C7 C6 1_555 1_555
H14 C7 1_555 1_555
H15 C7 1_555 1_555
C8 C7 1_555 1_555
C9 S1 1_555 1_555
C10 C9 1_555 1_555
H16 C10 1_555 1_555
C11 C10 1_555 1_555
H17 C11 1_555 1_555
C12 C11 1_555 1_555
H18 C12 1_555 1_555
C13 C12 1_555 1_555
H19 C13 1_555 1_555
C14 C9 1_555 1_555
C15 C8 1_555 1_555
C16 C15 1_555 1_555
C17 C16 1_555 1_555
C18 C17 1_555 1_555
C19 C18 1_555 1_555
C20 C16 1_555 1_555
C21 C20 1_555 1_555
C22 C21 1_555 1_555
C23 C22 1_555 1_555
H20 C23 1_555 1_555
C24 C23 1_555 1_555
H21 C24 1_555 1_555
C25 C24 1_555 1_555
H22 C25 1_555 1_555
C26 C25 1_555 1_555
H23 C26 1_555 1_555
C27 C22 1_555 1_555
C28 S2 1_555 1_555
C29 C28 1_555 1_555
H24 C29 1_555 1_555
H25 C29 1_555 1_555
C30 C29 1_555 1_555
H26 C30 1_555 1_555
H27 C30 1_555 1_555
C31 C30 1_555 1_555
H28 C31 1_555 1_555
H29 C31 1_555 1_555
C32 C31 1_555 1_555
H30 C32 1_555 1_555
H31 C32 1_555 1_555
C33 C32 1_555 1_555
H32 C33 1_555 1_555
H33 C33 1_555 1_555
C34 C33 1_555 1_555
H34 C34 1_555 1_555
H35 C34 1_555 1_555
C35 C34 1_555 1_555
H36 C35 1_555 1_555
H37 C35 1_555 1_555
H38 C35 1_555 1_555
C13 C14 1_555 1_555
C14 C15 1_555 1_555
C19 C20 1_555 1_555
C21 C28 1_555 1_555
C26 C27 1_555 1_555

#END
