
#######################################################################
#
#                 Cambridge Crystallographic Data Centre
#                                CCDC 
#
#######################################################################
#
# If this CIF has been generated from an entry in the Cambridge 
# Structural Database, then it will include bibliographic, chemical, 
# crystal, experimental, refinement or atomic coordinate data resulting 
# from the CCDC's data processing and validation procedures.
#
#######################################################################

data_MORVIA
_chemical_formula_moiety         'C42 H48 N24 O18,27(H2 O1)'
_chemical_name_systematic        
'Hexahydroxy-hexamethyl-cucurbit(6)uril heptacosahydrate'
_symmetry_cell_setting           rhombohedral
_symmetry_space_group_name_H-M   'R -3 m'
_symmetry_Int_Tables_number      166
_space_group_name_Hall           '-R 3 2"'
loop_
_symmetry_equiv_pos_site_id
_symmetry_equiv_pos_as_xyz
1 x,y,z
2 -y,x-y,z
3 -x+y,-x,z
4 y,x,-z
5 x-y,-y,-z
6 -x,-x+y,-z
7 2/3+x,1/3+y,1/3+z
8 2/3-y,1/3+x-y,1/3+z
9 2/3-x+y,1/3-x,1/3+z
10 2/3+y,1/3+x,1/3-z
11 2/3+x-y,1/3-y,1/3-z
12 2/3-x,1/3-x+y,1/3-z
13 1/3+x,2/3+y,2/3+z
14 1/3-y,2/3+x-y,2/3+z
15 1/3-x+y,2/3-x,2/3+z
16 1/3+y,2/3+x,2/3-z
17 1/3+x-y,2/3-y,2/3-z
18 1/3-x,2/3-x+y,2/3-z
19 -x,-y,-z
20 y,-x+y,-z
21 x-y,x,-z
22 -y,-x,z
23 -x+y,y,z
24 x,x-y,z
25 1/3-x,2/3-y,2/3-z
26 1/3+y,2/3-x+y,2/3-z
27 1/3+x-y,2/3+x,2/3-z
28 1/3-y,2/3-x,2/3+z
29 1/3-x+y,2/3+y,2/3+z
30 1/3+x,2/3+x-y,2/3+z
31 2/3-x,1/3-y,1/3-z
32 2/3+y,1/3-x+y,1/3-z
33 2/3+x-y,1/3+x,1/3-z
34 2/3-y,1/3-x,1/3+z
35 2/3-x+y,1/3+y,1/3+z
36 2/3+x,1/3+x-y,1/3+z
_cell_length_a                   23.342(13)
_cell_length_b                   23.342(13)
_cell_length_c                   11.302(13)
_cell_angle_alpha                90
_cell_angle_beta                 90
_cell_angle_gamma                120
_cell_volume                     5332.88
_exptl_crystal_colour            colorless
_exptl_crystal_description       prism
_cell_formula_units_Z            3
loop_
_atom_site_label
_atom_site_type_symbol
_atom_site_fract_x
_atom_site_fract_y
_atom_site_fract_z
O2 O 0.6729(6) 0.2153(6) -0.5538(7)
C1 C 0.76520(11) 0.23480(11) 0.0004(3)
C2 C 0.75854(17) 0.17432(16) -0.1673(3)
C3 C 0.76468(11) 0.23532(11) -0.3347(3)
C4 C 0.66629(19) 0.1237(2) -0.0114(3)
H1 H 0.6661 0.0826 -0.0261
H2 H 0.6658 0.1290 0.0736
C5 C 0.7635(2) 0.11495(18) -0.1718(4)
N1 N 0.72682(14) 0.17774(14) -0.0584(2)
N2 N 0.72629(14) 0.17804(14) -0.2728(2)
O3 O 0.75054(11) 0.24946(11) 0.0971(3)
O4 O 0.75077(10) 0.24923(10) -0.4298(3)
C1Q C 0.56813(11) 0.13627(16) -0.3337(3)
C2Q C 0.57479(17) 0.08245(23) -0.1660(3)
C3Q C 0.56865(11) 0.13731(16) 0.0014(3)
C4Q C 0.66704(19) 0.12408(28) -0.3219(3)
H1Q H 0.6672 0.0832 -0.3072
H2Q H 0.6675 0.1299 -0.4069
C5Q C 0.5698(2) 0.01812(27) -0.1615(4)
N1Q N 0.60651(14) 0.11759(20) -0.2749(2)
N2Q N 0.60704(14) 0.11842(20) -0.0605(2)
O3Q O 0.58279(11) 0.16559(16) -0.4304(3)
O4Q O 0.58256(10) 0.16513(14) 0.0965(3)
C2U C 0.82568(16) 0.24146(17) -0.1673(3)
C4U C 0.8763(2) 0.33371(19) -0.0114(3)
H1U H 0.9174 0.3339 -0.0261
H2U H 0.8710 0.3342 0.0736
C5U C 0.88505(18) 0.2365(2) -0.1718(4)
N1U N 0.82226(14) 0.27318(14) -0.0584(2)
N2U N 0.82196(14) 0.27371(14) -0.2728(2)
C2Y C 0.50765(16) 0.08245(23) -0.1660(3)
C4Y C 0.4570(2) 0.12408(28) -0.3219(3)
H1Y H 0.4159 0.0832 -0.3072
H2Y H 0.4623 0.1299 -0.4069
C5Y C 0.44828(18) 0.01812(27) -0.1615(4)
N1Y N 0.51107(14) 0.11759(20) -0.2749(2)
N2Y N 0.51137(14) 0.11842(20) -0.0605(2)
C1B C 0.46960(16) 0.23480(11) 0.0004(3)
C2V C 0.41578(23) 0.17432(16) -0.1673(3)
C3B C 0.47064(16) 0.23532(11) -0.3347(3)
C4V C 0.45741(28) 0.1237(2) -0.0114(3)
H1V H 0.4165 0.0826 -0.0261
H2V H 0.4632 0.1290 0.0736
C5V C 0.35145(27) 0.11495(18) -0.1718(4)
N1V N 0.45092(20) 0.17774(14) -0.0584(2)
N2V N 0.45175(20) 0.17804(14) -0.2728(2)
O3B O 0.49892(16) 0.24946(11) 0.0971(3)
O4B O 0.49846(14) 0.24923(10) -0.4298(3)
C1P C 0.86373(16) 0.43187(11) -0.3337(3)
C2Z C 0.91755(23) 0.42521(17) -0.1660(3)
C3P C 0.86269(16) 0.43135(11) 0.0014(3)
C4Z C 0.87592(28) 0.33296(19) -0.3219(3)
H1Z H 0.9168 0.3328 -0.3072
H2Z H 0.8701 0.3325 -0.4069
C5Z C 0.98188(27) 0.4302(2) -0.1615(4)
N1Z N 0.88241(20) 0.39349(14) -0.2749(2)
N2Z N 0.88158(20) 0.39296(14) -0.0605(2)
O3P O 0.83441(16) 0.41721(11) -0.4304(3)
O4P O 0.83487(14) 0.41744(10) 0.0965(3)
C2B C 0.41578(23) 0.24146(17) -0.1673(3)
C4B C 0.45741(28) 0.33371(19) -0.0114(3)
H1B H 0.4165 0.3339 -0.0261
H2B H 0.4632 0.3342 0.0736
C5B C 0.35145(27) 0.2365(2) -0.1718(4)
N1B N 0.45092(20) 0.27318(14) -0.0584(2)
N2B N 0.45175(20) 0.27371(14) -0.2728(2)
C1O C 0.56813(11) 0.43187(11) -0.3337(3)
C2O C 0.50765(16) 0.42521(17) -0.1660(3)
C3O C 0.56865(11) 0.43135(11) 0.0014(3)
C4O C 0.4570(2) 0.33296(19) -0.3219(3)
H1O H 0.4159 0.3328 -0.3072
H2O H 0.4623 0.3325 -0.4069
C5O C 0.44828(18) 0.4302(2) -0.1615(4)
N1O N 0.51107(14) 0.39349(14) -0.2749(2)
N2O N 0.51137(14) 0.39296(14) -0.0605(2)
O3O O 0.58279(11) 0.41721(11) -0.4304(3)
O4O O 0.58256(10) 0.41744(10) 0.0965(3)
C2P C 0.91755(23) 0.49235(16) -0.1660(3)
C4P C 0.87592(28) 0.5430(2) -0.3219(3)
H1P H 0.9168 0.5841 -0.3072
H2P H 0.8701 0.5377 -0.4069
C5P C 0.98188(27) 0.55172(18) -0.1615(4)
N1P N 0.88241(20) 0.48893(14) -0.2749(2)
N2P N 0.88158(20) 0.48863(14) -0.0605(2)
C2X C 0.57479(17) 0.49235(16) -0.1660(3)
C4X C 0.66704(19) 0.5430(2) -0.3219(3)
H1X H 0.6672 0.5841 -0.3072
H2X H 0.6675 0.5377 -0.4069
C5X C 0.5698(2) 0.55172(18) -0.1615(4)
N1X N 0.60651(14) 0.48893(14) -0.2749(2)
N2X N 0.60704(14) 0.48863(14) -0.0605(2)
C1A C 0.76520(11) 0.53040(16) 0.0004(3)
C2A C 0.82568(16) 0.58422(23) -0.1673(3)
C3A C 0.76468(11) 0.52936(16) -0.3347(3)
C4A C 0.8763(2) 0.54259(28) -0.0114(3)
H1A H 0.9174 0.5835 -0.0261
H2A H 0.8710 0.5368 0.0736
C5A C 0.88505(18) 0.64855(27) -0.1718(4)
N1A N 0.82226(14) 0.54908(20) -0.0584(2)
N2A N 0.82196(14) 0.54825(20) -0.2728(2)
O3A O 0.75054(11) 0.50108(16) 0.0971(3)
O4A O 0.75077(10) 0.50154(14) -0.4298(3)
C2W C 0.75854(17) 0.58422(23) -0.1673(3)
C4W C 0.66629(19) 0.54259(28) -0.0114(3)
H1W H 0.6661 0.5835 -0.0261
H2W H 0.6658 0.5368 0.0736
C5W C 0.7635(2) 0.64855(27) -0.1718(4)
N1W N 0.72682(14) 0.54908(20) -0.0584(2)
N2W N 0.72629(14) 0.54825(20) -0.2728(2)
O1 O 0.7419(4) 0.2581(4) -0.6686(5)
loop_
_geom_bond_atom_site_label_1
_geom_bond_atom_site_label_2
_geom_bond_site_symmetry_1
_geom_bond_site_symmetry_2
C1 N1 1_555 1_555
C2 C5 1_555 1_555
C3 N2 1_555 1_555
C4 H1 1_555 1_555
H2 C4 1_555 1_555
N1 C2 1_555 1_555
N2 C2 1_555 1_555
O3 C1 1_555 1_555
O4 C3 1_555 1_555
C1Q N1Q 1_555 1_555
C2Q C5Q 1_555 1_555
C3Q N2Q 1_555 1_555
C4Q N2 1_555 1_555
H1Q C4Q 1_555 1_555
H2Q C4Q 1_555 1_555
N1Q C2Q 1_555 1_555
N2Q C4 1_555 1_555
O3Q C1Q 1_555 1_555
O4Q C3Q 1_555 1_555
C2U C2 1_555 1_555
C4U H1U 1_555 1_555
H2U C4U 1_555 1_555
C5U C2U 1_555 1_555
N1U C1 1_555 1_555
N2U C3 1_555 1_555
C2Y C2Q 1_555 1_555
C4Y H1Y 1_555 1_555
H2Y C4Y 1_555 1_555
C5Y C2Y 1_555 1_555
N1Y C1Q 1_555 1_555
N2Y C3Q 1_555 1_555
C1B N1V 1_555 1_555
C2V C5V 1_555 1_555
C3B N2V 1_555 1_555
C4V N2Y 1_555 1_555
H1V C4V 1_555 1_555
H2V C4V 1_555 1_555
N1V C2V 1_555 1_555
N2V C4Y 1_555 1_555
O3B C1B 1_555 1_555
O4B C3B 1_555 1_555
C1P N1Z 1_555 1_555
C2Z C5Z 1_555 1_555
C3P N2Z 1_555 1_555
C4Z N2U 1_555 1_555
H1Z C4Z 1_555 1_555
H2Z C4Z 1_555 1_555
N1Z C2Z 1_555 1_555
N2Z C4U 1_555 1_555
O3P C1P 1_555 1_555
O4P C3P 1_555 1_555
C2B C2V 1_555 1_555
C4B H1B 1_555 1_555
H2B C4B 1_555 1_555
C5B C2B 1_555 1_555
N1B C1B 1_555 1_555
N2B C3B 1_555 1_555
C1O N1O 1_555 1_555
C2O C5O 1_555 1_555
C3O N2O 1_555 1_555
C4O N2B 1_555 1_555
H1O C4O 1_555 1_555
H2O C4O 1_555 1_555
N1O C2O 1_555 1_555
N2O C4B 1_555 1_555
O3O C1O 1_555 1_555
O4O C3O 1_555 1_555
C2P C2Z 1_555 1_555
C4P H1P 1_555 1_555
H2P C4P 1_555 1_555
C5P C2P 1_555 1_555
N1P C1P 1_555 1_555
N2P C3P 1_555 1_555
C2X C2O 1_555 1_555
C4X H1X 1_555 1_555
H2X C4X 1_555 1_555
C5X C2X 1_555 1_555
N1X C1O 1_555 1_555
N2X C3O 1_555 1_555
C1A N1A 1_555 1_555
C2A C5A 1_555 1_555
C3A N2A 1_555 1_555
C4A N2P 1_555 1_555
H1A C4A 1_555 1_555
H2A C4A 1_555 1_555
N1A C2A 1_555 1_555
N2A C4P 1_555 1_555
O3A C1A 1_555 1_555
O4A C3A 1_555 1_555
C2W C2A 1_555 1_555
C4W N2X 1_555 1_555
H1W C4W 1_555 1_555
H2W C4W 1_555 1_555
C5W C2W 1_555 1_555
N1W C1A 1_555 1_555
N2W C4X 1_555 1_555
C4 N1 1_555 1_555
C2Q N2Q 1_555 1_555
C4Q N1Q 1_555 1_555
C2U N1U 1_555 1_555
C2U N2U 1_555 1_555
C4U N1U 1_555 1_555
C2Y N1Y 1_555 1_555
C2Y N2Y 1_555 1_555
C4Y N1Y 1_555 1_555
C2V N2V 1_555 1_555
C4V N1V 1_555 1_555
C2Z N2Z 1_555 1_555
C4Z N1Z 1_555 1_555
C2B N1B 1_555 1_555
C2B N2B 1_555 1_555
C4B N1B 1_555 1_555
C2O N2O 1_555 1_555
C4O N1O 1_555 1_555
C2P N1P 1_555 1_555
C2P N2P 1_555 1_555
C4P N1P 1_555 1_555
C2X N1X 1_555 1_555
C2X N2X 1_555 1_555
C4X N1X 1_555 1_555
C2A N2A 1_555 1_555
C3A N2W 1_555 1_555
C4A N1A 1_555 1_555
C2W N1W 1_555 1_555
C2W N2W 1_555 1_555
C4W N1W 1_555 1_555

#END
