
#######################################################################
#
#                 Cambridge Crystallographic Data Centre
#                                CCDC 
#
#######################################################################
#
# If this CIF has been generated from an entry in the Cambridge 
# Structural Database, then it will include bibliographic, chemical, 
# crystal, experimental, refinement or atomic coordinate data resulting 
# from the CCDC's data processing and validation procedures.
#
#######################################################################

data_MORWAT
_chemical_formula_moiety         'C42 H48 N24 O18,12(H2 O1),3(Ba1 2+),6(Cl1 1-)'
_chemical_name_systematic        
'Tri-barium hexachloride hexahydroxy-hexamethyl-cucurbit(6)uril dodecahydrate'
_symmetry_cell_setting           hexagonal
_symmetry_space_group_name_H-M   'P 6/m'
_symmetry_Int_Tables_number      175
_space_group_name_Hall           '-P 6'
loop_
_symmetry_equiv_pos_site_id
_symmetry_equiv_pos_as_xyz
1 x,y,z
2 -x,-y,z
3 -y,x-y,z
4 -x+y,-x,z
5 x-y,x,z
6 y,-x+y,z
7 -x,-y,-z
8 x,y,-z
9 y,-x+y,-z
10 x-y,x,-z
11 -x+y,-x,-z
12 -y,x-y,-z
_cell_length_a                   15.4140(9)
_cell_length_b                   15.4140(9)
_cell_length_c                   10.4836(12)
_cell_angle_alpha                90
_cell_angle_beta                 90
_cell_angle_gamma                120
_cell_volume                     2157.11
_exptl_crystal_colour            colorless
_exptl_crystal_description       prism
_cell_formula_units_Z            1
loop_
_atom_site_label
_atom_site_type_symbol
_atom_site_fract_x
_atom_site_fract_y
_atom_site_fract_z
Cl1 Cl 0.4172(12) 0.5215(11) 0.787(3)
Cl2 Cl 0.353(2) 0.337(3) 0.0000
Ba1 Ba 0.1758(2) 0.1487(2) 0.0000
O1 O 0.0000 0.0000 0.1587(11)
C1 C 0.1847(4) 0.2934(4) 0.3184(5)
C2 C 0.1916(5) 0.3852(6) 0.5000
C3 C 0.2824(5) 0.3655(5) 0.5000
C4 C 0.3378(5) 0.2836(4) 0.3313(5)
H1 H 0.4053 0.3407 0.3441
H2 H 0.3263 0.2737 0.2392
C5 C 0.2182(7) 0.4875(6) 0.5000
N1 N 0.1383(3) 0.3337(3) 0.3852(4)
N2 N 0.2668(3) 0.3079(3) 0.3842(4)
O2 O 0.1576(4) 0.2503(4) 0.2143(4)
O3 O 0.3787(5) 0.4537(5) 0.5000
C1D C -0.1087(6) 0.1847(4) 0.3184(5)
C2D C -0.1936(8) 0.1916(5) 0.5000
C3D C -0.0831(7) 0.2824(5) 0.5000
C4D C 0.0542(6) 0.3378(5) 0.3313(5)
H1D H 0.0646 0.4053 0.3441
H2D H 0.0526 0.3263 0.2392
C5D C -0.2693(9) 0.2182(7) 0.5000
N1D N -0.1954(4) 0.1383(3) 0.3852(4)
N2D N -0.0411(4) 0.2668(3) 0.3842(4)
O2D O -0.0927(6) 0.1576(4) 0.2143(4)
O3D O -0.0750(7) 0.3787(5) 0.5000
C1E C 0.2934(4) 0.1087(6) 0.3184(5)
C2E C 0.3852(6) 0.1936(8) 0.5000
C3E C 0.3655(5) 0.0831(7) 0.5000
C4E C 0.2836(4) -0.0542(6) 0.3313(5)
H1E H 0.3407 -0.0646 0.3441
H2E H 0.2737 -0.0526 0.2392
C5E C 0.4875(6) 0.2693(9) 0.5000
N1E N 0.3337(3) 0.1954(4) 0.3852(4)
N2E N 0.3079(3) 0.0411(4) 0.3842(4)
O2E O 0.2503(4) 0.0927(6) 0.2143(4)
O3E O 0.4537(5) 0.0750(7) 0.5000
C1G C 0.1847(4) 0.2934(4) 0.6816(5)
C4G C 0.3378(5) 0.2836(4) 0.6687(5)
H1G H 0.4053 0.3407 0.6559
H2G H 0.3263 0.2737 0.7608
N1G N 0.1383(3) 0.3337(3) 0.6148(4)
N2G N 0.2668(3) 0.3079(3) 0.6158(4)
O2G O 0.1576(4) 0.2503(4) 0.7857(4)
C1H C 0.2934(4) 0.1087(6) 0.6816(5)
C4H C 0.2836(4) -0.0542(6) 0.6687(5)
H1H H 0.3407 -0.0646 0.6559
H2H H 0.2737 -0.0526 0.7608
N1H N 0.3337(3) 0.1954(4) 0.6148(4)
N2H N 0.3079(3) 0.0411(4) 0.6158(4)
O2H O 0.2503(4) 0.0927(6) 0.7857(4)
C1I C -0.1087(6) 0.1847(4) 0.6816(5)
C4I C 0.0542(6) 0.3378(5) 0.6687(5)
H1I H 0.0646 0.4053 0.6559
H2I H 0.0526 0.3263 0.7608
N1I N -0.1954(4) 0.1383(3) 0.6148(4)
N2I N -0.0411(4) 0.2668(3) 0.6158(4)
O2I O -0.0927(6) 0.1576(4) 0.7857(4)
C1B C -0.2934(4) -0.1087(6) 0.3184(5)
C2B C -0.3852(6) -0.1936(8) 0.5000
C3B C -0.3655(5) -0.0831(7) 0.5000
C4B C -0.2836(4) 0.0542(6) 0.3313(5)
H1B H -0.3407 0.0646 0.3441
H2B H -0.2737 0.0526 0.2392
C5B C -0.4875(6) -0.2693(9) 0.5000
N1B N -0.3337(3) -0.1954(4) 0.3852(4)
N2B N -0.3079(3) -0.0411(4) 0.3842(4)
O2B O -0.2503(4) -0.0927(6) 0.2143(4)
O3B O -0.4537(5) -0.0750(7) 0.5000
C1C C 0.1087(6) -0.1847(4) 0.3184(5)
C2C C 0.1936(8) -0.1916(5) 0.5000
C3C C 0.0831(7) -0.2824(5) 0.5000
C4C C -0.0542(6) -0.3378(5) 0.3313(5)
H1C H -0.0646 -0.4053 0.3441
H2C H -0.0526 -0.3263 0.2392
C5C C 0.2693(9) -0.2182(7) 0.5000
N1C N 0.1954(4) -0.1383(3) 0.3852(4)
N2C N 0.0411(4) -0.2668(3) 0.3842(4)
O2C O 0.0927(6) -0.1576(4) 0.2143(4)
O3C O 0.0750(7) -0.3787(5) 0.5000
C1J C 0.1087(6) -0.1847(4) 0.6816(5)
C4J C -0.0542(6) -0.3378(5) 0.6687(5)
H1J H -0.0646 -0.4053 0.6559
H2J H -0.0526 -0.3263 0.7608
N1J N 0.1954(4) -0.1383(3) 0.6148(4)
N2J N 0.0411(4) -0.2668(3) 0.6158(4)
O2J O 0.0927(6) -0.1576(4) 0.7857(4)
C1K C -0.2934(4) -0.1087(6) 0.6816(5)
C4K C -0.2836(4) 0.0542(6) 0.6687(5)
H1K H -0.3407 0.0646 0.6559
H2K H -0.2737 0.0526 0.7608
N1K N -0.3337(3) -0.1954(4) 0.6148(4)
N2K N -0.3079(3) -0.0411(4) 0.6158(4)
O2K O -0.2503(4) -0.0927(6) 0.7857(4)
C1A C -0.1847(4) -0.2934(4) 0.3184(5)
C2A C -0.1916(5) -0.3852(6) 0.5000
C3A C -0.2824(5) -0.3655(5) 0.5000
C4A C -0.3378(5) -0.2836(4) 0.3313(5)
H1A H -0.4053 -0.3407 0.3441
H2A H -0.3263 -0.2737 0.2392
C5A C -0.2182(7) -0.4875(6) 0.5000
N1A N -0.1383(3) -0.3337(3) 0.3852(4)
N2A N -0.2668(3) -0.3079(3) 0.3842(4)
O2A O -0.1576(4) -0.2503(4) 0.2143(4)
O3A O -0.3787(5) -0.4537(5) 0.5000
C1F C -0.1847(4) -0.2934(4) 0.6816(5)
C4F C -0.3378(5) -0.2836(4) 0.6687(5)
H1F H -0.4053 -0.3407 0.6559
H2F H -0.3263 -0.2737 0.7608
N1F N -0.1383(3) -0.3337(3) 0.6148(4)
N2F N -0.2668(3) -0.3079(3) 0.6158(4)
O2F O -0.1576(4) -0.2503(4) 0.7857(4)
Ba2? Ba 0.213(3) 0.189(2) 0.0000
H3? H 0.2617 0.5212 0.4280
H4? H 0.1581 0.4926 0.4934
H5? H 0.2530 0.5188 0.5786
H6? H 0.394(6) 0.484(9) 0.413(17)
loop_
_geom_bond_atom_site_label_1
_geom_bond_atom_site_label_2
_geom_bond_site_symmetry_1
_geom_bond_site_symmetry_2
C1 N1 1_555 1_555
C2 C3 1_555 1_555
C3 N2 1_555 1_555
C4 H1 1_555 1_555
H2 C4 1_555 1_555
C5 C2 1_555 1_555
N1 C2 1_555 1_555
N2 C1 1_555 1_555
O2 C1 1_555 1_555
O3 C3 1_555 1_555
C1D N1D 1_555 1_555
C2D C3D 1_555 1_555
C3D N2D 1_555 1_555
C4D N1 1_555 1_555
H1D C4D 1_555 1_555
H2D C4D 1_555 1_555
C5D C2D 1_555 1_555
N1D C2D 1_555 1_555
N2D C1D 1_555 1_555
O2D C1D 1_555 1_555
O3D C3D 1_555 1_555
C1E N1E 1_555 1_555
C2E C3E 1_555 1_555
C3E N2E 1_555 1_555
C4E H1E 1_555 1_555
H2E C4E 1_555 1_555
C5E C2E 1_555 1_555
N1E C4 1_555 1_555
N2E C1E 1_555 1_555
O2E C1E 1_555 1_555
O3E C3E 1_555 1_555
C1G N1G 1_555 1_555
C4G H1G 1_555 1_555
H2G C4G 1_555 1_555
N1G C2 1_555 1_555
N2G C3 1_555 1_555
O2G C1G 1_555 1_555
C1H N1H 1_555 1_555
C4H H1H 1_555 1_555
H2H C4H 1_555 1_555
N1H C2E 1_555 1_555
N2H C3E 1_555 1_555
O2H C1H 1_555 1_555
C1I N1I 1_555 1_555
C4I N1G 1_555 1_555
H1I C4I 1_555 1_555
H2I C4I 1_555 1_555
N1I C2D 1_555 1_555
N2I C3D 1_555 1_555
O2I C1I 1_555 1_555
C1B N1B 1_555 1_555
C2B C3B 1_555 1_555
C3B N2B 1_555 1_555
C4B N1D 1_555 1_555
H1B C4B 1_555 1_555
H2B C4B 1_555 1_555
C5B C2B 1_555 1_555
N1B C2B 1_555 1_555
N2B C1B 1_555 1_555
O2B C1B 1_555 1_555
O3B C3B 1_555 1_555
C1C N1C 1_555 1_555
C2C C3C 1_555 1_555
C3C N2C 1_555 1_555
C4C H1C 1_555 1_555
H2C C4C 1_555 1_555
C5C C2C 1_555 1_555
N1C C4E 1_555 1_555
N2C C1C 1_555 1_555
O2C C1C 1_555 1_555
O3C C3C 1_555 1_555
C1J N1J 1_555 1_555
C4J H1J 1_555 1_555
H2J C4J 1_555 1_555
N1J C4H 1_555 1_555
N2J C3C 1_555 1_555
O2J C1J 1_555 1_555
C1K N1K 1_555 1_555
C4K N1I 1_555 1_555
H1K C4K 1_555 1_555
H2K C4K 1_555 1_555
N1K C2B 1_555 1_555
N2K C3B 1_555 1_555
O2K C1K 1_555 1_555
C1A N1A 1_555 1_555
C2A C3A 1_555 1_555
C3A N2A 1_555 1_555
C4A N1B 1_555 1_555
H1A C4A 1_555 1_555
H2A C4A 1_555 1_555
C5A C2A 1_555 1_555
N1A C4C 1_555 1_555
N2A C1A 1_555 1_555
O2A C1A 1_555 1_555
O3A C3A 1_555 1_555
C1F N1F 1_555 1_555
C4F N1K 1_555 1_555
H1F C4F 1_555 1_555
H2F C4F 1_555 1_555
N1F C4J 1_555 1_555
N2F C3A 1_555 1_555
O2F C1F 1_555 1_555
C4 N2 1_555 1_555
C4D N2D 1_555 1_555
C2E N1E 1_555 1_555
C4E N2E 1_555 1_555
C1G N2G 1_555 1_555
C4G N2G 1_555 1_555
C4G N1H 1_555 1_555
C1H N2H 1_555 1_555
C4H N2H 1_555 1_555
C1I N2I 1_555 1_555
C4I N2I 1_555 1_555
C4B N2B 1_555 1_555
C2C N1C 1_555 1_555
C2C N1J 1_555 1_555
C4C N2C 1_555 1_555
C1J N2J 1_555 1_555
C4J N2J 1_555 1_555
C1K N2K 1_555 1_555
C4K N2K 1_555 1_555
C2A N1A 1_555 1_555
C2A N1F 1_555 1_555
C4A N2A 1_555 1_555
C1F N2F 1_555 1_555
C4F N2F 1_555 1_555

#END
