
#######################################################################
#
#                 Cambridge Crystallographic Data Centre
#                                CCDC 
#
#######################################################################
#
# If this CIF has been generated from an entry in the Cambridge 
# Structural Database, then it will include bibliographic, chemical, 
# crystal, experimental, refinement or atomic coordinate data resulting 
# from the CCDC's data processing and validation procedures.
#
#######################################################################

data_MORWIA
_chemical_formula_moiety         'C22 H20 O2,2(C4 H11 N1)'
_chemical_name_systematic        
'trans-1,4-bis(phenylethynyl)-cyclohexane-1,4-diol diethylamine solvate'
_symmetry_cell_setting           monoclinic
_symmetry_space_group_name_H-M   'P 21/m'
_symmetry_Int_Tables_number      11
_space_group_name_Hall           '-P 2yb'
loop_
_symmetry_equiv_pos_site_id
_symmetry_equiv_pos_as_xyz
1 x,y,z
2 -x,1/2+y,-z
3 -x,-y,-z
4 x,1/2-y,z
_cell_length_a                   9.6774(5)
_cell_length_b                   13.1531(8)
_cell_length_c                   10.9959(6)
_cell_angle_alpha                90
_cell_angle_beta                 92.127(2)
_cell_angle_gamma                90
_cell_volume                     1398.68
_exptl_crystal_colour            colorless
_exptl_crystal_description       plate
_cell_formula_units_Z            2
_exptl_crystal_recrystallization_method diethylamine
loop_
_atom_site_label
_atom_site_type_symbol
_atom_site_fract_x
_atom_site_fract_y
_atom_site_fract_z
O1 O 0.53481(17) 0.2500 0.70342(14)
O2 O 1.10532(16) 0.2500 0.80927(14)
C1 C 0.6203(2) 0.2500 1.0084(2)
C2 C 0.6419(2) 0.2500 0.9021(2)
C3 C 0.6648(2) 0.2500 0.76877(19)
C4 C 0.9732(2) 0.2500 0.74735(19)
C5 C 0.6959(3) 0.2500 1.2250(2)
C6 C 0.9910(2) 0.2500 0.6134(2)
C7 C 1.0086(2) 0.2500 0.5068(2)
C8 C 1.0319(2) 0.2500 0.3777(2)
C9 C 0.5901(2) 0.2500 1.13629(19)
C10 C 0.89341(18) 0.34495(14) 0.78475(16)
C11 C 0.74506(19) 0.34483(14) 0.73264(16)
C12 C 1.04336(19) 0.34133(15) 0.31433(16)
C13 C 1.06538(19) 0.34086(16) 0.19025(16)
C14 C 1.0766(3) 0.2500 0.1281(2)
C15 C 0.4245(3) 0.2500 1.2948(2)
C16 C 0.6663(3) 0.2500 1.3471(2)
C17 C 0.5313(3) 0.2500 1.3826(2)
C18 C 0.4535(3) 0.2500 1.1725(2)
H14 H 0.944(2) 0.4047(16) 0.7576(17)
H15 H 0.699(2) 0.4057(16) 0.7603(16)
H16 H 1.040(2) 0.4044(14) 0.3584(17)
H17 H 0.8917(18) 0.3449(12) 0.8743(16)
H18 H 0.796(3) 0.2500 1.206(2)
H19 H 0.379(3) 0.2500 1.115(3)
H20 H 0.745(2) 0.3470(14) 0.6434(18)
H21 H 0.507(3) 0.2500 1.463(3)
H22 H 0.325(3) 0.2500 1.318(3)
H23 H 1.089(3) 0.2500 0.044(2)
H24 H 0.737(3) 0.2500 1.406(2)
H25 H 1.076(2) 0.4063(16) 0.1488(18)
C10C C 0.89341(18) 0.15505(14) 0.78475(16)
C11C C 0.74506(19) 0.15517(14) 0.73264(16)
C12C C 1.04336(19) 0.15867(15) 0.31433(16)
C13C C 1.06538(19) 0.15914(16) 0.19025(16)
H14C H 0.944(2) 0.0953(16) 0.7576(17)
H15C H 0.699(2) 0.0943(16) 0.7603(16)
H16C H 1.040(2) 0.0956(14) 0.3584(17)
H17C H 0.8917(18) 0.1551(12) 0.8743(16)
H20C H 0.745(2) 0.1530(14) 0.6434(18)
H25C H 1.076(2) 0.0937(16) 0.1488(18)
N1 N 0.3385(3) 0.0987(2) 0.7640(2)
H3 H 0.3364 0.1635 0.7441
C19 C 0.3188(3) 0.0165(2) 0.6762(3)
H4 H 0.2372 -0.0243 0.6975
H5 H 0.4007 -0.0286 0.6801
C20 C 0.2409(3) 0.0086(2) 0.9453(2)
H6 H 0.2680 -0.0132 1.0281
H7 H 0.2143 -0.0510 0.8963
H8 H 0.1624 0.0554 0.9484
C21 C 0.2981(5) 0.0567(3) 0.5495(4)
H10 H 0.3783 0.0977 0.5286
H11 H 0.2146 0.0989 0.5446
C22 C 0.3620(3) 0.0620(2) 0.8884(3)
H12 H 0.3890 0.1207 0.9405
H13 H 0.4414 0.0145 0.8894
H1? H 0.4895 0.3017 0.7225
H2? H 1.1497 0.3019 0.7893
H9? H 0.2877 -0.0003 0.4924
C23? C 0.3834(9) 0.0364(6) 0.5429(7)
C24? C 0.2764(11) 0.0910(8) 0.6004(10)
C25? C 0.2955(10) 0.0209(7) 0.8003(8)
C26? C 0.2979(12) 0.0430(8) 0.9393(8)
H26? H 0.3618 0.0319 0.4553
H27? H 0.3904 -0.0322 0.5773
H28? H 0.4716 0.0720 0.5566
H29? H 0.2813 0.1693 0.7752
H30? H 0.2695 0.1586 0.5609
H31? H 0.1885 0.0551 0.5810
H32? H 0.2163 -0.0238 0.7776
H33? H 0.3817 -0.0142 0.7787
H34? H 0.3779 0.0857 0.9613
H35? H 0.2128 0.0783 0.9598
H36? H 0.3046 -0.0213 0.9842
N2? N 0.2841(6) 0.1092(4) 0.7403(5)
loop_
_geom_bond_atom_site_label_1
_geom_bond_atom_site_label_2
_geom_bond_site_symmetry_1
_geom_bond_site_symmetry_2
O1 C3 1_555 1_555
O2 C4 1_555 1_555
C1 C2 1_555 1_555
C2 C3 1_555 1_555
C3 C11 1_555 1_555
C4 C6 1_555 1_555
C5 C9 1_555 1_555
C6 C7 1_555 1_555
C7 C8 1_555 1_555
C8 C12 1_555 1_555
C9 C1 1_555 1_555
C10 C4 1_555 1_555
C11 C10 1_555 1_555
C12 C13 1_555 1_555
C13 C14 1_555 1_555
C14 H23 1_555 1_555
C15 C17 1_555 1_555
C16 C5 1_555 1_555
C17 C16 1_555 1_555
C18 C9 1_555 1_555
N1 H3 1_555 1_555
C19 N1 1_555 1_555
H4 C19 1_555 1_555
H5 C19 1_555 1_555
C20 H6 1_555 1_555
H7 C20 1_555 1_555
H8 C20 1_555 1_555
C21 C19 1_555 1_555
H10 C21 1_555 1_555
H11 C21 1_555 1_555
C22 N1 1_555 1_555
H12 C22 1_555 1_555
H13 C22 1_555 1_555
H14 C10 1_555 1_555
H15 C11 1_555 1_555
H16 C12 1_555 1_555
H17 C10 1_555 1_555
H18 C5 1_555 1_555
H19 C18 1_555 1_555
H20 C11 1_555 1_555
H21 C17 1_555 1_555
H22 C15 1_555 1_555
H24 C16 1_555 1_555
H25 C13 1_555 1_555
C10C C4 1_555 1_555
C11C C3 1_555 1_555
C12C C8 1_555 1_555
C13C C14 1_555 1_555
H14C C10C 1_555 1_555
H15C C11C 1_555 1_555
H16C C12C 1_555 1_555
H17C C10C 1_555 1_555
H20C C11C 1_555 1_555
H25C C13C 1_555 1_555
C15 C18 1_555 1_555
C20 C22 1_555 1_555
C10C C11C 1_555 1_555
C12C C13C 1_555 1_555

#END
