
#######################################################################
#
#                 Cambridge Crystallographic Data Centre
#                                CCDC 
#
#######################################################################
#
# If this CIF has been generated from an entry in the Cambridge 
# Structural Database, then it will include bibliographic, chemical, 
# crystal, experimental, refinement or atomic coordinate data resulting 
# from the CCDC's data processing and validation procedures.
#
#######################################################################

data_MORWEW
_chemical_formula_moiety         'C22 H20 O2,2(C3 H7 N1 O1)'
_chemical_name_systematic        
'trans-1,4-bis(phenylethynyl)-cyclohexane-1,4-diol dimethylformamide solvate'
_symmetry_cell_setting           monoclinic
_symmetry_space_group_name_H-M   'P 21/n'
_symmetry_Int_Tables_number      14
_space_group_name_Hall           '-P 2yn'
loop_
_symmetry_equiv_pos_site_id
_symmetry_equiv_pos_as_xyz
1 x,y,z
2 1/2-x,1/2+y,1/2-z
3 -x,-y,-z
4 1/2+x,1/2-y,1/2+z
_cell_length_a                   5.9265(3)
_cell_length_b                   9.0822(4)
_cell_length_c                   23.5705(10)
_cell_angle_alpha                90
_cell_angle_beta                 94.983(2)
_cell_angle_gamma                90
_cell_volume                     1263.9
_exptl_crystal_colour            colorless
_exptl_crystal_description       needle
_cell_formula_units_Z            2
_exptl_crystal_recrystallization_method dimethylformamide
loop_
_atom_site_label
_atom_site_type_symbol
_atom_site_fract_x
_atom_site_fract_y
_atom_site_fract_z
O1 O 0.01088(17) 0.54209(11) 0.11807(4)
C1 C 0.0435(2) 0.48171(14) 0.06330(6)
C2 C 0.1823(2) 0.58738(15) 0.02929(6)
C3 C -0.1929(2) 0.46340(15) 0.03207(6)
C4 C 0.1620(2) 0.33752(15) 0.07034(6)
C5 C 0.3980(2) 0.09261(14) 0.08772(6)
C6 C 0.5970(2) 0.07167(16) 0.06085(6)
C7 C 0.2670(2) 0.22560(15) 0.07762(6)
C9 C 0.3301(3) -0.01561(16) 0.12479(6)
C10 C 0.6576(3) -0.16125(17) 0.10847(7)
C11 C 0.7255(3) -0.05491(17) 0.07146(7)
C13 C 0.4602(3) -0.14214(17) 0.13478(7)
H1 H 0.335(3) 0.5983(16) 0.0481(6)
H2 H -0.285(3) 0.3939(17) 0.0540(6)
H3 H -0.265(3) 0.5585(18) 0.0324(6)
H4 H 0.104(3) 0.6853(18) 0.0301(6)
H5 H 0.647(3) 0.1457(18) 0.0345(6)
H6 H 0.192(3) -0.0021(17) 0.1438(7)
H7 H 0.862(3) -0.0660(18) 0.0509(7)
H8 H 0.141(4) 0.533(2) 0.1417(9)
H9 H 0.412(3) -0.215(2) 0.1612(8)
H11 H 0.747(3) -0.247(2) 0.1163(7)
O1B O -0.01088(17) 0.45791(11) -0.11807(4)
C1B C -0.0435(2) 0.51829(14) -0.06330(6)
C2B C -0.1823(2) 0.41262(15) -0.02929(6)
C3B C 0.1929(2) 0.53660(15) -0.03207(6)
C4B C -0.1620(2) 0.66248(15) -0.07034(6)
C5B C -0.3980(2) 0.90739(14) -0.08772(6)
C6B C -0.5970(2) 0.92833(16) -0.06085(6)
C7B C -0.2670(2) 0.77440(15) -0.07762(6)
C9B C -0.3301(3) 1.01561(16) -0.12479(6)
C10B C -0.6576(3) 1.16125(17) -0.10847(7)
C11B C -0.7255(3) 1.05491(17) -0.07146(7)
C13B C -0.4602(3) 1.14214(17) -0.13478(7)
H1B H -0.335(3) 0.4017(16) -0.0481(6)
H2B H 0.285(3) 0.6061(17) -0.0540(6)
H3B H 0.265(3) 0.4415(18) -0.0324(6)
H4B H -0.104(3) 0.3147(18) -0.0301(6)
H5B H -0.647(3) 0.8543(18) -0.0345(6)
H6B H -0.192(3) 1.0021(17) -0.1438(7)
H7B H -0.862(3) 1.0660(18) -0.0509(7)
H8B H -0.141(4) 0.467(2) -0.1417(9)
H9B H -0.412(3) 1.215(2) -0.1612(8)
H11B H -0.747(3) 1.247(2) -0.1163(7)
O2 O 0.38254(19) 0.50227(12) 0.19414(5)
N1 N 0.6099(2) 0.30242(13) 0.21258(5)
C8 C 0.5539(3) 0.42931(17) 0.18676(6)
C12 C 0.8143(3) 0.2235(2) 0.20123(8)
C14 C 0.4645(3) 0.2352(2) 0.25174(8)
H10 H 0.670(3) 0.4624(17) 0.1606(6)
H12 H 0.907(3) 0.207(2) 0.2361(8)
H13 H 0.902(3) 0.280(2) 0.1747(8)
H14 H 0.405(4) 0.138(3) 0.2370(9)
H15 H 0.331(4) 0.300(3) 0.2554(9)
H16 H 0.544(4) 0.225(3) 0.2892(10)
H17 H 0.771(3) 0.128(2) 0.1838(9)
loop_
_geom_bond_atom_site_label_1
_geom_bond_atom_site_label_2
_geom_bond_site_symmetry_1
_geom_bond_site_symmetry_2
O1 C1 1_555 1_555
O2 C8 1_555 1_555
C1 C2 1_555 1_555
N1 C8 1_555 1_555
C2 H1 1_555 1_555
C3 C1 1_555 1_555
C4 C1 1_555 1_555
C5 C6 1_555 1_555
C6 C11 1_555 1_555
C7 C4 1_555 1_555
C8 H10 1_555 1_555
C9 C5 1_555 1_555
C10 C11 1_555 1_555
C11 H7 1_555 1_555
C12 N1 1_555 1_555
C13 C9 1_555 1_555
C14 N1 1_555 1_555
H2 C3 1_555 1_555
H3 C3 1_555 1_555
H4 C2 1_555 1_555
H5 C6 1_555 1_555
H6 C9 1_555 1_555
H8 O1 1_555 1_555
H9 C13 1_555 1_555
H11 C10 1_555 1_555
H12 C12 1_555 1_555
H13 C12 1_555 1_555
H14 C14 1_555 1_555
H15 C14 1_555 1_555
H16 C14 1_555 1_555
H17 C12 1_555 1_555
O1B C1B 1_555 1_555
C1B C2B 1_555 1_555
C2B C3 1_555 1_555
C3B C2 1_555 1_555
C4B C1B 1_555 1_555
C5B C6B 1_555 1_555
C6B C11B 1_555 1_555
C7B C4B 1_555 1_555
C9B C5B 1_555 1_555
C10B C11B 1_555 1_555
C11B H7B 1_555 1_555
C13B C9B 1_555 1_555
H1B C2B 1_555 1_555
H2B C3B 1_555 1_555
H3B C3B 1_555 1_555
H4B C2B 1_555 1_555
H5B C6B 1_555 1_555
H6B C9B 1_555 1_555
H8B O1B 1_555 1_555
H9B C13B 1_555 1_555
H11B C10B 1_555 1_555
C5 C7 1_555 1_555
C10 C13 1_555 1_555
C1B C3B 1_555 1_555
C5B C7B 1_555 1_555
C10B C13B 1_555 1_555

#END
