
#######################################################################
#
#                 Cambridge Crystallographic Data Centre
#                                CCDC 
#
#######################################################################
#
# If this CIF has been generated from an entry in the Cambridge 
# Structural Database, then it will include bibliographic, chemical, 
# crystal, experimental, refinement or atomic coordinate data resulting 
# from the CCDC's data processing and validation procedures.
#
#######################################################################

data_MORWOG
_chemical_formula_moiety         'C22 H20 O2,C2 H6 O1'
_chemical_name_systematic        
'trans-1,4 bis(phenylethynyl)-cyclohexane-1,4-diol ethanol solvate'
_symmetry_cell_setting           monoclinic
_symmetry_space_group_name_H-M   'C c'
_symmetry_Int_Tables_number      9
_space_group_name_Hall           'C -2yc'
loop_
_symmetry_equiv_pos_site_id
_symmetry_equiv_pos_as_xyz
1 x,y,z
2 x,-y,1/2+z
3 1/2+x,1/2+y,z
4 1/2+x,1/2-y,1/2+z
_cell_length_a                   25.075(3)
_cell_length_b                   12.7258(14)
_cell_length_c                   12.6398(14)
_cell_angle_alpha                90
_cell_angle_beta                 91.437(4)
_cell_angle_gamma                90
_cell_volume                     4032.08
_exptl_crystal_colour            colorless
_exptl_crystal_description       cube
_cell_formula_units_Z            8
_exptl_crystal_recrystallization_method ethanol
loop_
_atom_site_label
_atom_site_type_symbol
_atom_site_fract_x
_atom_site_fract_y
_atom_site_fract_z
O1 O 0.20340(4) -0.08586(9) -0.26795(9)
O2 O 0.12443(5) -0.37584(9) -0.40449(9)
C1 C 0.12864(7) -0.18916(13) -0.41798(13)
C2 C 0.21755(6) -0.18046(12) -0.32336(12)
C3 C 0.32248(7) -0.19006(13) -0.34371(13)
C4 C 0.20057(6) -0.27281(13) -0.25388(12)
C5 C 0.18817(7) -0.18509(13) -0.43076(12)
C6 C 0.27550(7) -0.18407(12) -0.33613(12)
C7 C 0.14077(6) -0.27756(13) -0.24135(12)
C8 C 0.11131(6) -0.28106(12) -0.34873(12)
C9 C 0.37868(6) -0.19968(13) -0.35561(12)
C10 C 0.00807(7) -0.26575(13) -0.31215(13)
C11 C 0.05389(7) -0.27507(12) -0.33146(13)
C12 C -0.06019(7) -0.16040(14) -0.22870(14)
C13 C -0.04631(7) -0.25073(14) -0.28481(13)
C14 C 0.39827(8) -0.26653(17) -0.43191(16)
C15 C 0.48696(8) -0.22172(19) -0.38193(15)
C16 C -0.15029(7) -0.21824(16) -0.22503(14)
C17 C -0.11191(7) -0.14494(16) -0.19870(14)
C18 C -0.13702(8) -0.30695(16) -0.28119(15)
C19 C -0.08522(7) -0.32368(15) -0.31117(14)
C21 C 0.45204(8) -0.27774(19) -0.44474(17)
C22 C 0.41436(8) -0.14355(18) -0.29257(16)
C23 C 0.46823(8) -0.1557(2) -0.30594(18)
H8 H 0.1311(7) -0.3372(15) -0.2000(14)
H11 H 0.2001(7) -0.2484(14) -0.4691(14)
H12 H 0.2177(7) -0.2686(14) -0.1843(15)
H15 H 0.1101(6) -0.1943(13) -0.4868(14)
H16 H -0.0332(7) -0.1101(13) -0.2109(13)
H17 H 0.2125(7) -0.3364(14) -0.2886(14)
H21 H 0.1153(7) -0.1269(15) -0.3844(14)
H25 H 0.2122(8) -0.0333(18) -0.3030(17)
H28 H 0.1978(7) -0.1236(14) -0.4720(14)
H30 H 0.1201(9) -0.4289(19) -0.3629(18)
H33 H -0.1206(9) -0.0796(19) -0.1568(19)
H36 H 0.1267(7) -0.2150(16) -0.2030(14)
H39 H -0.0782(8) -0.3841(17) -0.3534(16)
H41 H 0.5244(9) -0.2293(17) -0.3914(16)
H42 H 0.3708(9) -0.3034(17) -0.4801(17)
H44 H -0.1643(9) -0.3557(18) -0.3013(17)
H47 H -0.1856(9) -0.2073(17) -0.2046(16)
H49 H 0.4006(10) -0.095(2) -0.243(2)
H50 H 0.4933(11) -0.120(2) -0.261(2)
H52 H 0.4645(10) -0.330(2) -0.499(2)
O3 O 0.25100(6) 0.04674(13) 0.42626(11)
C20 C 0.29611(9) -0.0126(2) 0.39712(16)
C24 C 0.34316(9) 0.0200(2) 0.4610(2)
H7 H 0.2318(8) 0.0594(17) 0.3746(17)
H31 H 0.3007(9) -0.0040(18) 0.3225(19)
H32 H 0.3354(10) 0.014(2) 0.541(2)
H34 H 0.3717(11) -0.024(2) 0.444(2)
H40 H 0.2891(8) -0.0828(18) 0.4081(17)
H51 H 0.3507(12) 0.092(3) 0.447(2)
O4 O 0.23418(4) 0.09477(8) -0.37099(9)
O5 O 0.10981(4) 0.44786(8) -0.28625(9)
C25 C 0.11070(6) 0.08550(13) -0.47677(12)
C26 C 0.19894(6) 0.42359(12) -0.22592(12)
C27 C 0.20943(7) 0.27535(13) -0.41603(12)
C28 C 0.23365(6) 0.46236(13) -0.17319(13)
C29 C 0.18023(7) 0.18769(12) -0.25088(12)
C30 C 0.15410(6) 0.37678(12) -0.28683(12)
C31 C 0.30628(6) 0.58968(13) -0.14659(14)
C32 C 0.14547(6) 0.12741(13) -0.42648(12)
C33 C 0.07175(6) 0.02758(12) -0.53760(12)
C34 C 0.16778(7) 0.36067(13) -0.40314(12)
C35 C 0.19203(6) 0.17084(12) -0.36764(12)
C36 C 0.13830(6) 0.27201(13) -0.23700(12)
C37 C 0.35134(7) 0.60366(16) 0.02186(14)
C38 C 0.32072(7) 0.52368(17) 0.06118(15)
C39 C 0.08126(7) 0.00266(13) -0.64330(13)
C40 C 0.34463(7) 0.63647(14) -0.08158(15)
C41 C 0.27454(6) 0.50955(13) -0.10768(12)
C42 C 0.00183(7) -0.10026(15) -0.65275(14)
C43 C 0.02638(7) -0.01160(16) -0.49156(14)
C44 C -0.00791(7) -0.07551(17) -0.54836(15)
C45 C 0.04661(7) -0.06180(14) -0.69931(13)
C46 C 0.28191(7) 0.47677(15) -0.00284(14)
H6 H 0.2424(8) 0.2965(14) -0.3797(15)
H9 H 0.1309(7) 0.2844(15) -0.1612(16)
H10 H 0.3254(8) 0.5018(16) 0.1332(17)
H13 H 0.1669(7) 0.1214(15) -0.2185(14)
H14 H 0.2141(7) 0.2080(13) -0.2138(13)
H18 H 0.0995(9) 0.4574(18) -0.220(2)
H19 H 0.3022(8) 0.6103(15) -0.2176(16)
H20 H 0.1796(7) 0.4295(14) -0.4318(13)
H22 H 0.3646(8) 0.6954(17) -0.1140(16)
H23 H 0.0220(8) 0.0053(16) -0.4202(17)
H24 H 0.1346(8) 0.3416(13) -0.4411(14)
H26 H 0.2607(8) 0.4211(17) 0.0238(16)
H27 H 0.1046(7) 0.2511(13) -0.2718(13)
H29 H -0.0216(8) -0.1480(16) -0.6911(16)
H35 H 0.3756(8) 0.6358(16) 0.0683(16)
H37 H 0.1130(8) 0.0275(15) -0.6730(16)
H38 H 0.2165(6) 0.2646(13) -0.4902(14)
H43 H 0.0546(7) -0.0806(15) -0.7687(16)
H46 H -0.0391(9) -0.1075(18) -0.5150(18)
H48 H 0.2399(8) 0.0821(16) -0.4366(18)
O6 O 0.08370(12) 0.4740(3) -0.0857(2)
C47 C 0.03984(15) 0.5369(3) -0.0583(3)
H1 H 0.0307 0.5826 -0.1195
H2 H 0.0515 0.5834 0.0007
C48 C -0.0103(2) 0.4818(5) -0.0259(5)
H3 H -0.0376 0.5341 -0.0093
H4 H -0.0027 0.4384 0.0367
H5 H -0.0234 0.4371 -0.0841
H45 H 0.0918(10) 0.434(2) -0.032(2)
C49? C 0.0005(2) 0.5576(4) -0.1089(4)
C50? C 0.0265(2) 0.4810(5) -0.0446(4)
H53? H -0.0320 0.5812 -0.0747
H54? H -0.0088 0.5270 -0.1781
H55? H 0.0244 0.6177 -0.1184
H56? H 0.0351 0.5121 0.0256
H57? H 0.0018 0.4215 -0.0338
O7? O 0.07213(12) 0.4440(3) -0.0871(2)
loop_
_geom_bond_atom_site_label_1
_geom_bond_atom_site_label_2
_geom_bond_site_symmetry_1
_geom_bond_site_symmetry_2
O1 C2 1_555 1_555
O2 C8 1_555 1_555
C1 C5 1_555 1_555
C2 C4 1_555 1_555
C3 C6 1_555 1_555
C4 C7 1_555 1_555
C5 C2 1_555 1_555
C6 C2 1_555 1_555
C7 C8 1_555 1_555
C8 C1 1_555 1_555
C9 C3 1_555 1_555
O3 C20 1_555 1_555
C10 C11 1_555 1_555
C11 C8 1_555 1_555
C12 C13 1_555 1_555
C13 C10 1_555 1_555
C14 C9 1_555 1_555
C15 C21 1_555 1_555
C16 C17 1_555 1_555
C17 C12 1_555 1_555
C18 C16 1_555 1_555
C19 C13 1_555 1_555
C20 C24 1_555 1_555
C21 C14 1_555 1_555
C22 C9 1_555 1_555
C23 C15 1_555 1_555
C24 H32 1_555 1_555
O4 C35 1_555 1_555
O5 C30 1_555 1_555
C25 C32 1_555 1_555
C26 C28 1_555 1_555
C27 C34 1_555 1_555
C28 C41 1_555 1_555
C29 C35 1_555 1_555
C30 C26 1_555 1_555
C31 C40 1_555 1_555
C32 C35 1_555 1_555
C33 C25 1_555 1_555
C34 C30 1_555 1_555
C35 C27 1_555 1_555
C36 C29 1_555 1_555
C37 C38 1_555 1_555
C38 C46 1_555 1_555
C39 C33 1_555 1_555
C40 C37 1_555 1_555
C41 C31 1_555 1_555
C42 C44 1_555 1_555
C43 C33 1_555 1_555
C44 C43 1_555 1_555
C45 C39 1_555 1_555
C46 C41 1_555 1_555
O6 C47 1_555 1_555
C47 H1 1_555 1_555
H2 C47 1_555 1_555
C48 C47 1_555 1_555
H3 C48 1_555 1_555
H4 C48 1_555 1_555
H5 C48 1_555 1_555
H6 C27 1_555 1_555
H7 O3 1_555 1_555
H8 C7 1_555 1_555
H9 C36 1_555 1_555
H10 C38 1_555 1_555
H11 C5 1_555 1_555
H12 C4 1_555 1_555
H13 C29 1_555 1_555
H14 C29 1_555 1_555
H15 C1 1_555 1_555
H16 C12 1_555 1_555
H17 C4 1_555 1_555
H18 O5 1_555 1_555
H19 C31 1_555 1_555
H20 C34 1_555 1_555
H21 C1 1_555 1_555
H22 C40 1_555 1_555
H23 C43 1_555 1_555
H24 C34 1_555 1_555
H25 O1 1_555 1_555
H26 C46 1_555 1_555
H27 C36 1_555 1_555
H28 C5 1_555 1_555
H29 C42 1_555 1_555
H30 O2 1_555 1_555
H31 C20 1_555 1_555
H33 C17 1_555 1_555
H34 C24 1_555 1_555
H35 C37 1_555 1_555
H36 C7 1_555 1_555
H37 C39 1_555 1_555
H38 C27 1_555 1_555
H39 C19 1_555 1_555
H40 C20 1_555 1_555
H41 C15 1_555 1_555
H42 C14 1_555 1_555
H43 C45 1_555 1_555
H44 C18 1_555 1_555
H45 O6 1_555 1_555
H46 C44 1_555 1_555
H47 C16 1_555 1_555
H48 O4 1_555 1_555
H49 C22 1_555 1_555
H50 C23 1_555 1_555
H51 C24 1_555 1_555
H52 C21 1_555 1_555
C18 C19 1_555 1_555
C22 C23 1_555 1_555
C30 C36 1_555 1_555
C42 C45 1_555 1_555

#END
