
#######################################################################
#
#                 Cambridge Crystallographic Data Centre
#                                CCDC 
#
#######################################################################
#
# If this CIF has been generated from an entry in the Cambridge 
# Structural Database, then it will include bibliographic, chemical, 
# crystal, experimental, refinement or atomic coordinate data resulting 
# from the CCDC's data processing and validation procedures.
#
#######################################################################

data_MORXUN
_chemical_formula_moiety         'C30 H36 N3 O1 Si1 1+,B1 F4 1-'
_chemical_name_systematic        
'5-(((Dimethyl(t-butyl)silyl)oxy)(diphenyl)methyl)-2-phenyl-6,7-dihydro-5H-pyrrolo[2,1-c][1,2,4]triazol-2-ium tetrafluoroborate'
_symmetry_cell_setting           triclinic
_symmetry_space_group_name_H-M   'P 1'
_symmetry_Int_Tables_number      1
_space_group_name_Hall           'P 1'
loop_
_symmetry_equiv_pos_site_id
_symmetry_equiv_pos_as_xyz
1 x,y,z
_cell_length_a                   10.089(2)
_cell_length_b                   10.187(2)
_cell_length_c                   16.930(3)
_cell_angle_alpha                80.83(3)
_cell_angle_beta                 77.42(3)
_cell_angle_gamma                60.49(3)
_cell_volume                     1475.14
_exptl_crystal_colour            yellow
_exptl_crystal_description       plate
_cell_formula_units_Z            2
_exptl_crystal_recrystallization_method methanol
loop_
_atom_site_label
_atom_site_type_symbol
_atom_site_fract_x
_atom_site_fract_y
_atom_site_fract_z
Si1 Si 0.02315(7) -0.00777(7) 0.52911(4)
O2 O 0.06920(16) 0.13115(17) 0.50111(9)
N1 N 0.3378(2) 0.3585(2) 0.67564(12)
N4 N 0.2124(2) 0.4903(2) 0.65374(12)
N6 N 0.2026(2) 0.2882(2) 0.63115(11)
C2 C 0.5579(3) 0.2366(3) 0.74775(15)
H2 H 0.5587 0.1428 0.7483
C4 C 0.6646(3) 0.2457(4) 0.78265(15)
H4 H 0.7400 0.1575 0.8070
C5 C 0.6620(3) 0.3827(4) 0.78220(16)
H5 H 0.7353 0.3889 0.8063
C8 C 0.5519(3) 0.5110(4) 0.74651(16)
H8 H 0.5496 0.6051 0.7473
C9 C 0.4456(3) 0.5055(3) 0.70987(16)
H9 H 0.3721 0.5933 0.6842
C12 C 0.4499(3) 0.3661(3) 0.71197(14)
C13 C 0.3321(2) 0.2363(3) 0.66223(14)
H11 H 0.4046 0.1337 0.6726
C15 C 0.1343(2) 0.4413(3) 0.62793(14)
C17 C -0.0177(3) 0.5110(3) 0.59959(16)
H13 H -0.0117 0.5531 0.5428
H14 H -0.0993 0.5913 0.6348
C19 C -0.0451(2) 0.3734(3) 0.60725(15)
H17 H -0.0956 0.3782 0.5621
H18 H -0.1132 0.3726 0.6590
C22 C 0.1142(2) 0.2277(3) 0.60464(13)
H22 H 0.1052 0.1493 0.6459
C24 C 0.1814(2) 0.1615(2) 0.51849(13)
C25 C 0.3362(2) 0.0154(2) 0.51454(13)
C28 C 0.4138(3) -0.0367(3) 0.43798(14)
H24 H 0.3768 0.0244 0.3910
C30 C 0.5441(3) -0.1762(3) 0.42971(16)
H26 H 0.5944 -0.2116 0.3772
C32 C 0.6015(3) -0.2646(3) 0.49754(17)
H28 H 0.6905 -0.3609 0.4918
C34 C 0.5293(3) -0.2124(3) 0.57316(17)
H30 H 0.5709 -0.2711 0.6197
C36 C 0.3958(3) -0.0742(3) 0.58211(15)
H32 H 0.3447 -0.0408 0.6349
C37 C 0.1917(2) 0.2849(2) 0.45672(13)
C40 C 0.3113(3) 0.3196(3) 0.45150(14)
H34 H 0.3907 0.2609 0.4833
C41 C 0.3153(3) 0.4381(3) 0.40073(16)
H35 H 0.3956 0.4623 0.3992
C44 C 0.2046(3) 0.5213(3) 0.35253(17)
H38 H 0.2082 0.6023 0.3173
C46 C 0.0881(3) 0.4860(3) 0.35583(15)
H40 H 0.0107 0.5437 0.3227
C48 C 0.0819(3) 0.3677(3) 0.40673(14)
H42 H 0.0021 0.3433 0.4073
C50 C -0.0028(3) -0.0480(3) 0.64024(16)
H46 H 0.0965 -0.0897 0.6589
H47 H -0.0416 -0.1214 0.6538
H48 H -0.0769 0.0457 0.6669
C52 C 0.1706(3) -0.1863(3) 0.4806(2)
H52 H 0.2670 -0.2261 0.5020
H53 H 0.1893 -0.1659 0.4218
H54 H 0.1331 -0.2608 0.4924
C53 C -0.1649(3) 0.0729(3) 0.48952(16)
C56 C -0.2376(4) -0.0314(4) 0.5194(3)
H58 H -0.3352 0.0099 0.4989
H59 H -0.2571 -0.0387 0.5788
H60 H -0.1669 -0.1322 0.4995
C57 C -0.1344(4) 0.0820(4) 0.39714(19)
H61 H -0.2322 0.1238 0.3767
H62 H -0.0647 -0.0195 0.3779
H63 H -0.0868 0.1473 0.3774
C60 C -0.2745(3) 0.2301(4) 0.5176(2)
H70 H -0.3713 0.2699 0.4965
H71 H -0.2277 0.2960 0.4976
H72 H -0.2958 0.2261 0.5770
Si2 Si 0.69236(7) 0.54154(7) 0.09352(4)
O1 O 0.65118(16) 0.71131(16) 0.11795(9)
N2 N 0.3907(2) 1.3007(2) -0.04857(11)
N3 N 0.5207(2) 1.2903(2) -0.02770(12)
N5 N 0.52273(19) 1.0698(2) -0.01128(11)
C1 C 0.1665(2) 1.4484(3) -0.11736(15)
H1 H 0.1546 1.3611 -0.1156
C3 C 0.0679(3) 1.5846(3) -0.15385(15)
H3 H -0.0139 1.5917 -0.1764
C6 C 0.0890(3) 1.7102(3) -0.15738(16)
H6 H 0.0222 1.8026 -0.1831
C7 C 0.2050(3) 1.7021(3) -0.12412(17)
H7 H 0.2186 1.7887 -0.1273
C10 C 0.3034(3) 1.5676(3) -0.08556(16)
H10 H 0.3828 1.5619 -0.0613
C11 C 0.2826(2) 1.4431(3) -0.08357(14)
C14 C 0.3914(2) 1.1686(3) -0.03886(13)
H12 H 0.3147 1.1483 -0.0493
C16 C 0.5976(2) 1.1472(3) -0.00652(13)
C18 C 0.7505(3) 1.0471(3) 0.01869(15)
H15 H 0.7491 1.0594 0.0757
H16 H 0.8324 1.0655 -0.0168
C20 C 0.7712(2) 0.8894(3) 0.00782(15)
H19 H 0.8242 0.8157 0.0508
H20 H 0.8341 0.8529 -0.0455
C21 C 0.6076(2) 0.9062(2) 0.01329(13)
H21 H 0.6092 0.8443 -0.0275
C23 C 0.5417(2) 0.8631(2) 0.09993(13)
C26 C 0.3824(2) 0.8744(2) 0.10712(14)
C27 C 0.3021(2) 0.8677(2) 0.18553(15)
H23 H 0.3426 0.8663 0.2315
C29 C 0.1649(3) 0.8631(3) 0.19592(16)
H25 H 0.1119 0.8581 0.2491
C31 C 0.1041(3) 0.8657(3) 0.13030(17)
H27 H 0.0101 0.8613 0.1380
C33 C 0.1807(3) 0.8747(3) 0.05260(17)
H29 H 0.1379 0.8792 0.0069
C35 C 0.3202(3) 0.8771(3) 0.04158(15)
H31 H 0.3733 0.8807 -0.0118
C38 C 0.5418(2) 0.9587(2) 0.16095(13)
C39 C 0.4238(3) 1.1082(3) 0.17046(14)
H33 H 0.3379 1.1467 0.1430
C42 C 0.4314(3) 1.2003(3) 0.21967(15)
H36 H 0.3515 1.3016 0.2252
C43 C 0.5541(3) 1.1454(3) 0.26038(15)
H37 H 0.5599 1.2092 0.2933
C45 C 0.6694(3) 0.9969(3) 0.25340(15)
H39 H 0.7535 0.9588 0.2822
C47 C 0.6633(2) 0.9032(3) 0.20471(14)
H41 H 0.7419 0.8010 0.2011
C49 C 0.7362(3) 0.5250(3) -0.01781(17)
H43 H 0.6427 0.5920 -0.0415
H44 H 0.7725 0.4203 -0.0294
H45 H 0.8167 0.5538 -0.0413
C51 C 0.5332(3) 0.4952(3) 0.13655(19)
H49 H 0.4438 0.5610 0.1094
H50 H 0.5043 0.5108 0.1948
H51 H 0.5677 0.3895 0.1281
C54 C 0.8675(3) 0.4158(3) 0.14317(19)
C55 C 0.9338(5) 0.2522(4) 0.1206(3)
H55 H 1.0242 0.1862 0.1470
H56 H 0.9642 0.2470 0.0617
H57 H 0.8552 0.2192 0.1389
C58 C 0.8239(5) 0.4220(4) 0.2351(2)
H64 H 0.9159 0.3562 0.2602
H65 H 0.7464 0.3878 0.2542
H66 H 0.7814 0.5261 0.2499
C59 C 0.9908(3) 0.4671(3) 0.1153(2)
H67 H 1.0804 0.4013 0.1423
H68 H 0.9483 0.5715 0.1294
H69 H 1.0225 0.4611 0.0565
F1 F -0.02486(19) 0.0977(2) 0.86593(13)
F2 F 0.1757(2) 0.1118(2) 0.89113(12)
F3 F 0.03376(17) 0.27900(17) 0.79786(9)
F4 F 0.1859(2) 0.03321(19) 0.77253(10)
B2 B 0.0912(3) 0.1322(4) 0.83151(18)
F5 F 0.53273(19) 0.8066(2) 0.84946(10)
F6 F 0.74898(17) 0.69056(19) 0.76058(11)
F7 F 0.7033(2) 0.89565(19) 0.82194(10)
F8 F 0.56358(19) 0.92133(19) 0.72626(10)
B1 B 0.6388(3) 0.8269(4) 0.78970(19)
loop_
_geom_bond_atom_site_label_1
_geom_bond_atom_site_label_2
_geom_bond_site_symmetry_1
_geom_bond_site_symmetry_2
Si1 O2 1_555 1_555
Si2 O1 1_555 1_555
F1 B2 1_555 1_555
F2 B2 1_555 1_555
F3 B2 1_555 1_555
F4 B2 1_555 1_555
F5 B1 1_555 1_555
F6 B1 1_555 1_555
F7 B1 1_555 1_555
F8 B1 1_555 1_555
O1 C23 1_555 1_555
O2 C24 1_555 1_555
N1 N4 1_555 1_555
N2 N3 1_555 1_555
N3 C16 1_555 1_555
N4 C15 1_555 1_555
N5 C14 1_555 1_555
N6 C13 1_555 1_555
C1 H1 1_555 1_555
C2 H2 1_555 1_555
C3 C1 1_555 1_555
H3 C3 1_555 1_555
C4 C2 1_555 1_555
H4 C4 1_555 1_555
C5 C4 1_555 1_555
H5 C5 1_555 1_555
C6 C3 1_555 1_555
H6 C6 1_555 1_555
C7 C6 1_555 1_555
H7 C7 1_555 1_555
C8 C5 1_555 1_555
H8 C8 1_555 1_555
C9 C8 1_555 1_555
H9 C9 1_555 1_555
C10 C7 1_555 1_555
H10 C10 1_555 1_555
C11 N2 1_555 1_555
C12 N1 1_555 1_555
C13 N1 1_555 1_555
H11 C13 1_555 1_555
C14 N2 1_555 1_555
H12 C14 1_555 1_555
C15 N6 1_555 1_555
C16 N5 1_555 1_555
C17 C15 1_555 1_555
H13 C17 1_555 1_555
H14 C17 1_555 1_555
C18 C16 1_555 1_555
H15 C18 1_555 1_555
H16 C18 1_555 1_555
C19 C17 1_555 1_555
H17 C19 1_555 1_555
H18 C19 1_555 1_555
C20 C18 1_555 1_555
H19 C20 1_555 1_555
H20 C20 1_555 1_555
C21 N5 1_555 1_555
H21 C21 1_555 1_555
C22 N6 1_555 1_555
H22 C22 1_555 1_555
C23 C21 1_555 1_555
C24 C22 1_555 1_555
C25 C24 1_555 1_555
C26 C23 1_555 1_555
C27 C26 1_555 1_555
H23 C27 1_555 1_555
C28 C25 1_555 1_555
H24 C28 1_555 1_555
C29 C27 1_555 1_555
H25 C29 1_555 1_555
C30 C28 1_555 1_555
H26 C30 1_555 1_555
C31 C29 1_555 1_555
H27 C31 1_555 1_555
C32 C30 1_555 1_555
H28 C32 1_555 1_555
C33 C31 1_555 1_555
H29 C33 1_555 1_555
C34 C32 1_555 1_555
H30 C34 1_555 1_555
C35 C26 1_555 1_555
H31 C35 1_555 1_555
C36 C25 1_555 1_555
H32 C36 1_555 1_555
C37 C24 1_555 1_555
C38 C23 1_555 1_555
C39 C38 1_555 1_555
H33 C39 1_555 1_555
C40 C37 1_555 1_555
H34 C40 1_555 1_555
C41 C40 1_555 1_555
H35 C41 1_555 1_555
C42 C39 1_555 1_555
H36 C42 1_555 1_555
C43 C42 1_555 1_555
H37 C43 1_555 1_555
C44 C41 1_555 1_555
H38 C44 1_555 1_555
C45 C43 1_555 1_555
H39 C45 1_555 1_555
C46 C44 1_555 1_555
H40 C46 1_555 1_555
C47 C38 1_555 1_555
H41 C47 1_555 1_555
C48 C37 1_555 1_555
H42 C48 1_555 1_555
C49 Si2 1_555 1_555
H43 C49 1_555 1_555
H44 C49 1_555 1_555
H45 C49 1_555 1_555
C50 Si1 1_555 1_555
H46 C50 1_555 1_555
H47 C50 1_555 1_555
H48 C50 1_555 1_555
C51 Si2 1_555 1_555
H49 C51 1_555 1_555
H50 C51 1_555 1_555
H51 C51 1_555 1_555
C52 Si1 1_555 1_555
H52 C52 1_555 1_555
H53 C52 1_555 1_555
H54 C52 1_555 1_555
C53 Si1 1_555 1_555
C54 Si2 1_555 1_555
C55 C54 1_555 1_555
H55 C55 1_555 1_555
H56 C55 1_555 1_555
H57 C55 1_555 1_555
C56 C53 1_555 1_555
H58 C56 1_555 1_555
H59 C56 1_555 1_555
H60 C56 1_555 1_555
C57 C53 1_555 1_555
H61 C57 1_555 1_555
H62 C57 1_555 1_555
H63 C57 1_555 1_555
C58 C54 1_555 1_555
H64 C58 1_555 1_555
H65 C58 1_555 1_555
H66 C58 1_555 1_555
C59 C54 1_555 1_555
H67 C59 1_555 1_555
H68 C59 1_555 1_555
H69 C59 1_555 1_555
C60 C53 1_555 1_555
H70 C60 1_555 1_555
H71 C60 1_555 1_555
H72 C60 1_555 1_555
C1 C11 1_555 1_555
C2 C12 1_555 1_555
C9 C12 1_555 1_555
C10 C11 1_555 1_555
C19 C22 1_555 1_555
C20 C21 1_555 1_555
C33 C35 1_555 1_555
C34 C36 1_555 1_555
C45 C47 1_555 1_555
C46 C48 1_555 1_555

#END
