
#######################################################################
#
#                 Cambridge Crystallographic Data Centre
#                                CCDC 
#
#######################################################################
#
# If this CIF has been generated from an entry in the Cambridge 
# Structural Database, then it will include bibliographic, chemical, 
# crystal, experimental, refinement or atomic coordinate data resulting 
# from the CCDC's data processing and validation procedures.
#
#######################################################################

data_MORXIB01
_chemical_formula_moiety         'C18 H23 B1 N1 O4 P1'
_chemical_name_systematic        
'Diethyl (2-benzyl-1-hydroxy-2,3-dihydro-1H-2,1-benzazaborol-3-yl)phosphonate'
_symmetry_cell_setting           monoclinic
_symmetry_space_group_name_H-M   'C 2/c'
_symmetry_Int_Tables_number      15
_space_group_name_Hall           '-C 2yn'
loop_
_symmetry_equiv_pos_site_id
_symmetry_equiv_pos_as_xyz
1 x,y,z
2 -x,y,1/2-z
3 1/2+x,1/2+y,z
4 1/2-x,1/2+y,1/2-z
5 -x,-y,-z
6 x,-y,1/2+z
7 1/2-x,1/2-y,-z
8 1/2+x,1/2-y,1/2+z
_cell_length_a                   20.8595(18)
_cell_length_b                   10.1071(9)
_cell_length_c                   20.3551(17)
_cell_angle_alpha                90
_cell_angle_beta                 118.8390(10)
_cell_angle_gamma                90
_cell_volume                     3759.22
_exptl_crystal_colour            white
_exptl_crystal_description       block
_cell_formula_units_Z            8
loop_
_atom_site_label
_atom_site_type_symbol
_atom_site_fract_x
_atom_site_fract_y
_atom_site_fract_z
C1 C -0.04801(17) 0.2232(3) 0.14031(18)
H1 H -0.0808 0.1912 0.0908
H2 H -0.0726 0.2240 0.1698
H3 H -0.0061 0.1662 0.1635
P1 P 0.09607(3) 0.35581(5) 0.12051(3)
O1 O 0.30920(7) 0.63181(13) 0.20052(7)
H4 H 0.3210 0.6955 0.2289
O2 O 0.01095(7) 0.36379(13) 0.08824(8)
O3 O 0.13681(7) 0.33442(13) 0.20190(7)
O4 O 0.10672(8) 0.24579(13) 0.07205(8)
N1 N 0.20044(8) 0.50983(14) 0.11582(8)
C2 C 0.12168(9) 0.50603(17) 0.08935(10)
H5 H 0.0943 0.5136 0.0346
C3 C 0.10565(12) 0.84668(19) 0.20515(11)
H6 H 0.1045 0.9204 0.2319
C4 C 0.17402(10) 0.68903(18) 0.17489(10)
C5 C 0.21055(10) 0.44208(19) 0.00355(11)
C6 C 0.10803(10) 0.62603(17) 0.12613(10)
C7 C 0.16993(12) 0.3486(2) -0.05008(12)
H7 H 0.1550 0.2721 -0.0359
C8 C 0.23478(10) 0.41993(19) 0.08569(10)
H8 H 0.2234 0.3296 0.0925
H9 H 0.2875 0.4306 0.1142
C9 C 0.17196(11) 0.80077(19) 0.21409(10)
H10 H 0.2151 0.8444 0.2462
B1 B 0.23574(12) 0.6132(2) 0.16836(12)
C10 C 0.04144(10) 0.67218(19) 0.11647(11)
H11 H -0.0020 0.6297 0.0839
C11 C 0.04085(11) 0.7831(2) 0.15643(12)
H12 H -0.0034 0.8151 0.1505
C12 C -0.02399(12) 0.3601(2) 0.13533(14)
H13 H -0.0660 0.4186 0.1146
H14 H 0.0102 0.3914 0.1852
C13 C 0.15107(14) 0.3673(3) -0.12472(13)
H15 H 0.1240 0.3031 -0.1600
C14 C 0.09942(14) 0.0231(2) 0.02910(14)
H16 H 0.0537 0.0439 -0.0143
H17 H 0.0997 -0.0684 0.0419
H18 H 0.1388 0.0394 0.0184
C15 C 0.10884(14) 0.1067(2) 0.09255(13)
H19 H 0.0701 0.0887 0.1047
H20 H 0.1553 0.0870 0.1364
C16 C 0.23054(12) 0.5568(2) -0.01952(14)
H21 H 0.2569 0.6222 0.0153
C17 C 0.21121(15) 0.5743(3) -0.09466(17)
H22 H 0.2251 0.6512 -0.1096
C18 C 0.17198(15) 0.4793(3) -0.14692(15)
H23 H 0.1598 0.4910 -0.1969
loop_
_geom_bond_atom_site_label_1
_geom_bond_atom_site_label_2
_geom_bond_site_symmetry_1
_geom_bond_site_symmetry_2
C1 H1 1_555 1_555
H2 C1 1_555 1_555
H3 C1 1_555 1_555
P1 O2 1_555 1_555
O1 H4 1_555 1_555
O2 C12 1_555 1_555
O3 P1 1_555 1_555
O4 P1 1_555 1_555
N1 C2 1_555 1_555
C2 P1 1_555 1_555
H5 C2 1_555 1_555
C3 H6 1_555 1_555
C4 C6 1_555 1_555
C5 C7 1_555 1_555
C6 C2 1_555 1_555
C7 H7 1_555 1_555
C8 N1 1_555 1_555
H8 C8 1_555 1_555
H9 C8 1_555 1_555
C9 C3 1_555 1_555
H10 C9 1_555 1_555
B1 O1 1_555 1_555
C10 C6 1_555 1_555
H11 C10 1_555 1_555
C11 C3 1_555 1_555
H12 C11 1_555 1_555
C12 C1 1_555 1_555
H13 C12 1_555 1_555
H14 C12 1_555 1_555
C13 C7 1_555 1_555
H15 C13 1_555 1_555
C14 H16 1_555 1_555
H17 C14 1_555 1_555
H18 C14 1_555 1_555
C15 O4 1_555 1_555
H19 C15 1_555 1_555
H20 C15 1_555 1_555
C16 C5 1_555 1_555
H21 C16 1_555 1_555
C17 C16 1_555 1_555
H22 C17 1_555 1_555
C18 C13 1_555 1_555
H23 C18 1_555 1_555
N1 B1 1_555 1_555
C4 C9 1_555 1_555
C4 B1 1_555 1_555
C5 C8 1_555 1_555
C10 C11 1_555 1_555
C14 C15 1_555 1_555
C17 C18 1_555 1_555

#END
