
#######################################################################
#
#                 Cambridge Crystallographic Data Centre
#                                CCDC 
#
#######################################################################
#
# If this CIF has been generated from an entry in the Cambridge 
# Structural Database, then it will include bibliographic, chemical, 
# crystal, experimental, refinement or atomic coordinate data resulting 
# from the CCDC's data processing and validation procedures.
#
#######################################################################

data_MORYAU
_chemical_formula_moiety         'C23 H19 Cl1 N2 O2'
_chemical_name_systematic        
(R)-5-(4-Chlorophenyl)-5-ethyl-2,4-diphenyl-4,5-dihydro-6H-1,3,4-oxadiazin-6-one
_symmetry_cell_setting           orthorhombic
_symmetry_space_group_name_H-M   'P 21 21 21'
_symmetry_Int_Tables_number      19
_space_group_name_Hall           'P 2ac 2ab'
loop_
_symmetry_equiv_pos_site_id
_symmetry_equiv_pos_as_xyz
1 x,y,z
2 1/2-x,-y,1/2+z
3 -x,1/2+y,1/2-z
4 1/2+x,1/2-y,-z
_cell_length_a                   10.271(2)
_cell_length_b                   10.985(2)
_cell_length_c                   16.952(3)
_cell_angle_alpha                90
_cell_angle_beta                 90
_cell_angle_gamma                90
_cell_volume                     1912.64
_exptl_crystal_colour            colorless
_exptl_crystal_description       block
_cell_formula_units_Z            4
_exptl_crystal_recrystallization_method n-hexane/isopropanol/chloroform
loop_
_atom_site_label
_atom_site_type_symbol
_atom_site_fract_x
_atom_site_fract_y
_atom_site_fract_z
Cl1 Cl 0.55325(7) 0.61016(6) 0.79050(4)
O1 O 0.53756(14) -0.05316(13) 0.87007(9)
O2 O 0.71466(15) 0.00579(17) 0.80894(10)
N1 N 0.47673(15) 0.02429(16) 0.99412(10)
N2 N 0.58531(16) 0.09579(17) 0.99621(11)
C1 C 0.45521(18) -0.04285(19) 0.93529(12)
C2 C 0.67058(18) 0.1158(2) 0.92747(13)
C3 C 0.6453(2) 0.0186(2) 0.86421(15)
C4 C 0.60307(18) 0.1574(2) 1.06930(14)
C5 C 0.57295(19) 0.0961(2) 1.13873(13)
H1 H 0.5452 0.0137 1.1367
C6 C 0.5831(2) 0.1541(2) 1.21046(15)
H2 H 0.5601 0.1123 1.2575
C7 C 0.6267(2) 0.2731(2) 1.21444(16)
H3 H 0.6340 0.3129 1.2640
C8 C 0.6592(2) 0.3335(2) 1.14634(16)
H4 H 0.6903 0.4148 1.1492
C9 C 0.6474(2) 0.2774(2) 1.07328(14)
H5 H 0.6693 0.3202 1.0264
C10 C 0.8150(2) 0.0992(2) 0.95245(14)
H6 H 0.8711 0.1081 0.9053
H7 H 0.8386 0.1646 0.9900
C11 C 0.8420(2) -0.0230(2) 0.99044(17)
H8 H 0.9339 -0.0276 1.0056
H9 H 0.8221 -0.0882 0.9529
H10 H 0.7873 -0.0323 1.0374
C12 C 0.6427(2) 0.2386(2) 0.88838(13)
C13 C 0.7416(2) 0.3160(2) 0.86470(14)
H11 H 0.8297 0.2908 0.8696
C14 C 0.7137(2) 0.4294(2) 0.83399(14)
H12 H 0.7821 0.4827 0.8189
C15 C 0.5859(2) 0.4645(2) 0.82536(13)
C16 C 0.4852(2) 0.3868(2) 0.84419(13)
H13 H 0.3973 0.4102 0.8353
C17 C 0.5141(2) 0.2747(2) 0.87607(13)
H14 H 0.4452 0.2210 0.8899
C18 C 0.33793(18) -0.1191(2) 0.92882(13)
C19 C 0.3091(2) -0.18132(19) 0.85986(14)
H15 H 0.3674 -0.1784 0.8164
C20 C 0.1937(2) -0.2485(2) 0.85454(15)
H16 H 0.1730 -0.2902 0.8071
C21 C 0.1100(2) -0.2543(2) 0.91776(15)
H17 H 0.0314 -0.2993 0.9137
C22 C 0.1401(2) -0.1949(2) 0.98709(15)
H18 H 0.0830 -0.2006 1.0310
C23 C 0.2530(2) -0.1271(2) 0.99278(14)
H19 H 0.2729 -0.0858 1.0405
loop_
_geom_bond_atom_site_label_1
_geom_bond_atom_site_label_2
_geom_bond_site_symmetry_1
_geom_bond_site_symmetry_2
Cl1 C15 1_555 1_555
O1 C1 1_555 1_555
O2 C3 1_555 1_555
N1 N2 1_555 1_555
N2 C2 1_555 1_555
C1 N1 1_555 1_555
C2 C3 1_555 1_555
C3 O1 1_555 1_555
C4 N2 1_555 1_555
C5 C4 1_555 1_555
H1 C5 1_555 1_555
C6 C5 1_555 1_555
H2 C6 1_555 1_555
C7 C6 1_555 1_555
H3 C7 1_555 1_555
C8 C7 1_555 1_555
H4 C8 1_555 1_555
C9 C4 1_555 1_555
H5 C9 1_555 1_555
C10 C2 1_555 1_555
H6 C10 1_555 1_555
H7 C10 1_555 1_555
C11 C10 1_555 1_555
H8 C11 1_555 1_555
H9 C11 1_555 1_555
H10 C11 1_555 1_555
C12 C2 1_555 1_555
C13 C12 1_555 1_555
H11 C13 1_555 1_555
C14 C13 1_555 1_555
H12 C14 1_555 1_555
C15 C14 1_555 1_555
C16 C15 1_555 1_555
H13 C16 1_555 1_555
C17 C12 1_555 1_555
H14 C17 1_555 1_555
C18 C1 1_555 1_555
C19 C18 1_555 1_555
H15 C19 1_555 1_555
C20 C19 1_555 1_555
H16 C20 1_555 1_555
C21 C20 1_555 1_555
H17 C21 1_555 1_555
C22 C21 1_555 1_555
H18 C22 1_555 1_555
C23 C18 1_555 1_555
H19 C23 1_555 1_555
C8 C9 1_555 1_555
C16 C17 1_555 1_555
C22 C23 1_555 1_555

#END
