
#######################################################################
#
#                 Cambridge Crystallographic Data Centre
#                                CCDC 
#
#######################################################################
#
# If this CIF has been generated from an entry in the Cambridge 
# Structural Database, then it will include bibliographic, chemical, 
# crystal, experimental, refinement or atomic coordinate data resulting 
# from the CCDC's data processing and validation procedures.
#
#######################################################################

data_MOSLIQ
_chemical_compound_source        
'culture extracts of the endophytic fungus Cephalosporium sp'
_chemical_formula_moiety         'C13 H16 O4'
_chemical_name_systematic        
'Methyl 3-hydroxy-4-(3-methylbut-2-en-1-yloxy)benzoate'
_symmetry_cell_setting           triclinic
_symmetry_space_group_name_H-M   'P -1'
_symmetry_Int_Tables_number      2
_space_group_name_Hall           '-P 1'
loop_
_symmetry_equiv_pos_site_id
_symmetry_equiv_pos_as_xyz
1 x,y,z
2 -x,-y,-z
_cell_length_a                   7.8401(16)
_cell_length_b                   8.3899(17)
_cell_length_c                   11.099(2)
_cell_angle_alpha                100.655(3)
_cell_angle_beta                 98.771(3)
_cell_angle_gamma                115.456(3)
_cell_volume                     625.297
_exptl_crystal_colour            colorless
_exptl_crystal_description       block
_cell_formula_units_Z            2
_exptl_crystal_recrystallization_method 'ethyl acetate'
loop_
_atom_site_label
_atom_site_type_symbol
_atom_site_fract_x
_atom_site_fract_y
_atom_site_fract_z
C1 C -0.4408(3) 0.2951(3) 0.50642(16)
H1 H -0.3697 0.3458 0.5944
H2 H -0.4681 0.1692 0.4784
H3 H -0.5616 0.3009 0.4960
C2 C -0.4029(2) 0.34671(19) 0.30738(14)
C3 C -0.2748(2) 0.46837(17) 0.24198(13)
C4 C -0.0924(2) 0.61796(19) 0.30835(13)
H4 H -0.0474 0.6410 0.3955
C5 C 0.02077(19) 0.73115(19) 0.24510(13)
C6 C -0.04479(19) 0.69490(18) 0.11391(13)
C7 C -0.2253(2) 0.5465(2) 0.04830(14)
H5 H -0.2702 0.5224 -0.0389
C8 C -0.3388(2) 0.4343(2) 0.11268(14)
H6 H -0.4597 0.3346 0.0682
C9 C 0.0269(2) 0.7902(2) -0.07071(14)
H7 H -0.0895 0.8036 -0.0942
H8 H 0.0003 0.6684 -0.1169
C10 C 0.1952(2) 0.9336(2) -0.10072(15)
H9 H 0.3061 1.0114 -0.0342
C11 C 0.1993(2) 0.9589(2) -0.21421(14)
C12 C 0.0315(3) 0.8410(3) -0.32730(17)
H10 H -0.0725 0.7516 -0.3026
H11 H 0.0724 0.7793 -0.3892
H12 H -0.0138 0.9160 -0.3632
C13 C 0.3751(3) 1.1067(3) -0.2368(2)
H13 H 0.4748 1.1741 -0.1582
H14 H 0.3387 1.1889 -0.2699
H15 H 0.4242 1.0518 -0.2968
O1 O -0.32509(16) 0.39913(15) 0.43211(10)
O2 O -0.56125(16) 0.21602(16) 0.25485(12)
O3 O 0.19557(16) 0.87793(16) 0.31218(11)
H16 H 0.231(4) 0.943(4) 0.263(2)
O4 O 0.08089(14) 0.81567(13) 0.06303(9)
loop_
_geom_bond_atom_site_label_1
_geom_bond_atom_site_label_2
_geom_bond_site_symmetry_1
_geom_bond_site_symmetry_2
C1 H1 1_555 1_555
H2 C1 1_555 1_555
H3 C1 1_555 1_555
C2 C3 1_555 1_555
C3 C4 1_555 1_555
C4 H4 1_555 1_555
C5 C4 1_555 1_555
C6 C5 1_555 1_555
C7 C6 1_555 1_555
H5 C7 1_555 1_555
C8 C3 1_555 1_555
H6 C8 1_555 1_555
C9 H7 1_555 1_555
H8 C9 1_555 1_555
C10 C9 1_555 1_555
H9 C10 1_555 1_555
C11 C10 1_555 1_555
C12 C11 1_555 1_555
H10 C12 1_555 1_555
H11 C12 1_555 1_555
H12 C12 1_555 1_555
C13 C11 1_555 1_555
H13 C13 1_555 1_555
H14 C13 1_555 1_555
H15 C13 1_555 1_555
O1 C1 1_555 1_555
O2 C2 1_555 1_555
O3 C5 1_555 1_555
H16 O3 1_555 1_555
O4 C6 1_555 1_555
C2 O1 1_555 1_555
C7 C8 1_555 1_555
C9 O4 1_555 1_555

#END
