
#######################################################################
#
#                 Cambridge Crystallographic Data Centre
#                                CCDC 
#
#######################################################################
#
# If this CIF has been generated from an entry in the Cambridge 
# Structural Database, then it will include bibliographic, chemical, 
# crystal, experimental, refinement or atomic coordinate data resulting 
# from the CCDC's data processing and validation procedures.
#
#######################################################################

data_MOSLOW
_chemical_compound_source        
'fermentation culture of the endophytic fungus Cephalosporium sp'
_chemical_name_common            6,8-Dihydroxy-3-methyl-1H-isochromen-1-one
_chemical_formula_moiety         'C10 H8 O4'
_chemical_name_systematic        6,8-Dihydroxy-3-methylisocoumarin
_symmetry_cell_setting           monoclinic
_symmetry_space_group_name_H-M   'P 21/c'
_symmetry_Int_Tables_number      14
_space_group_name_Hall           '-P 2ybc'
loop_
_symmetry_equiv_pos_site_id
_symmetry_equiv_pos_as_xyz
1 x,y,z
2 -x,1/2+y,1/2-z
3 -x,-y,-z
4 x,1/2-y,1/2+z
_cell_length_a                   3.8201(7)
_cell_length_b                   15.710(3)
_cell_length_c                   14.196(2)
_cell_angle_alpha                90
_cell_angle_beta                 92.668(2)
_cell_angle_gamma                90
_cell_volume                     851.032
_exptl_crystal_colour            yellow
_exptl_crystal_description       block
_cell_formula_units_Z            4
_exptl_crystal_recrystallization_method 'ethyl acetate'
loop_
_atom_site_label
_atom_site_type_symbol
_atom_site_fract_x
_atom_site_fract_y
_atom_site_fract_z
O1 O 0.3482(3) 0.32453(7) 0.81217(7)
O2 O 0.3544(3) 0.19366(7) 0.75748(8)
O3 O 0.0718(3) 0.15766(7) 0.58873(8)
H1 H 0.1709 0.1476 0.6400
O4 O -0.4021(3) 0.39231(7) 0.41364(7)
H2 H -0.4514 0.3541 0.3759
C1 C 0.3853(4) 0.45742(12) 0.89102(11)
H3 H 0.3148 0.5160 0.8859
H4 H 0.6359 0.4542 0.8987
H5 H 0.2819 0.4321 0.9446
C2 C 0.2659(4) 0.41080(10) 0.80372(10)
C3 C 0.1028(4) 0.44079(10) 0.72629(10)
H6 H 0.0505 0.4985 0.7224
C4 C 0.0042(3) 0.38590(9) 0.64774(9)
C5 C -0.1641(4) 0.41528(9) 0.56587(10)
H7 H -0.2230 0.4725 0.5598
C6 C -0.2453(4) 0.35866(10) 0.49244(10)
C7 C -0.1659(4) 0.27235(9) 0.50066(10)
H8 H -0.2235 0.2354 0.4512
C8 C -0.0016(4) 0.24192(9) 0.58233(10)
C9 C 0.0880(4) 0.29837(9) 0.65755(9)
C10 C 0.2651(4) 0.26818(10) 0.74166(10)
loop_
_geom_bond_atom_site_label_1
_geom_bond_atom_site_label_2
_geom_bond_site_symmetry_1
_geom_bond_site_symmetry_2
O1 C2 1_555 1_555
O2 C10 1_555 1_555
O3 H1 1_555 1_555
O4 H2 1_555 1_555
C1 H3 1_555 1_555
H4 C1 1_555 1_555
H5 C1 1_555 1_555
C2 C1 1_555 1_555
C3 C2 1_555 1_555
H6 C3 1_555 1_555
C4 C3 1_555 1_555
C5 C4 1_555 1_555
H7 C5 1_555 1_555
C6 O4 1_555 1_555
C7 C6 1_555 1_555
H8 C7 1_555 1_555
C8 O3 1_555 1_555
C9 C4 1_555 1_555
C10 O1 1_555 1_555
C5 C6 1_555 1_555
C7 C8 1_555 1_555
C8 C9 1_555 1_555
C9 C10 1_555 1_555

#END
