
#######################################################################
#
#                 Cambridge Crystallographic Data Centre
#                                CCDC 
#
#######################################################################
#
# If this CIF has been generated from an entry in the Cambridge 
# Structural Database, then it will include bibliographic, chemical, 
# crystal, experimental, refinement or atomic coordinate data resulting 
# from the CCDC's data processing and validation procedures.
#
#######################################################################

data_MOSYAV
_chemical_formula_moiety         'C15 H13 N3 O4'
_chemical_name_systematic        
'Dimethyl 1-(3-cyanobenzyl)-1H-pyrazole-3,5-dicarboxylate'
_symmetry_cell_setting           triclinic
_symmetry_space_group_name_H-M   'P -1'
_symmetry_Int_Tables_number      2
_space_group_name_Hall           '-P 1'
loop_
_symmetry_equiv_pos_site_id
_symmetry_equiv_pos_as_xyz
1 x,y,z
2 -x,-y,-z
_cell_length_a                   8.783(3)
_cell_length_b                   9.538(4)
_cell_length_c                   9.999(4)
_cell_angle_alpha                68.42(3)
_cell_angle_beta                 71.79(4)
_cell_angle_gamma                82.13(4)
_cell_volume                     739.685
_exptl_crystal_colour            colorless
_exptl_crystal_description       block
_cell_formula_units_Z            2
_exptl_crystal_recrystallization_method 'diethyl ether'
loop_
_atom_site_label
_atom_site_type_symbol
_atom_site_fract_x
_atom_site_fract_y
_atom_site_fract_z
C1 C 0.2466(2) 0.1608(2) 0.4437(2)
C2 C 0.2324(2) 0.0151(2) 0.4487(2)
H1 H 0.2544 -0.0753 0.5185
C3 C 0.1787(2) 0.0343(2) 0.3276(2)
C4 C 0.2972(2) 0.2120(3) 0.5461(2)
C5 C 0.1399(2) -0.0794(2) 0.2763(2)
C6 C 0.1126(2) 0.2702(2) 0.1210(2)
H2 H 0.1388 0.2105 0.0561
H3 H 0.1713 0.3630 0.0669
C7 C -0.0655(2) 0.3076(2) 0.1568(2)
C8 C -0.1362(3) 0.3905(2) 0.2511(2)
H4 H -0.0735 0.4208 0.2948
C9 C -0.2976(3) 0.4282(3) 0.2806(3)
H5 H -0.3429 0.4818 0.3453
C10 C -0.3928(3) 0.3868(2) 0.2143(2)
H6 H -0.5012 0.4135 0.2327
C11 C -0.3234(2) 0.3050(2) 0.1206(2)
C12 C -0.1607(2) 0.2639(2) 0.0923(2)
H7 H -0.1163 0.2074 0.0303
C13 C -0.4218(3) 0.2621(3) 0.0498(3)
C14 C 0.3840(4) 0.1361(3) 0.7627(3)
H8 H 0.4685 0.2077 0.7128
H9 H 0.4199 0.0470 0.8309
H10 H 0.2922 0.1797 0.8174
C15 C 0.1386(3) -0.3432(3) 0.3310(3)
H11 H 0.0277 -0.3388 0.3343
H12 H 0.1612 -0.4358 0.4042
H13 H 0.2046 -0.3388 0.2329
N1 N 0.2055(2) 0.26560(19) 0.32636(19)
N2 N 0.16398(19) 0.18644(18) 0.25641(17)
N3 N -0.4990(3) 0.2293(3) -0.0067(3)
O1 O 0.2979(2) 0.34090(19) 0.5354(2)
O2 O 0.3407(2) 0.09684(17) 0.65206(18)
O3 O 0.1723(2) -0.21721(16) 0.36374(17)
O4 O 0.0863(2) -0.05489(18) 0.1728(2)
loop_
_geom_bond_atom_site_label_1
_geom_bond_atom_site_label_2
_geom_bond_site_symmetry_1
_geom_bond_site_symmetry_2
C1 C2 1_555 1_555
C2 H1 1_555 1_555
C3 C2 1_555 1_555
C4 C1 1_555 1_555
C5 C3 1_555 1_555
C6 H2 1_555 1_555
H3 C6 1_555 1_555
C7 C6 1_555 1_555
C8 C7 1_555 1_555
H4 C8 1_555 1_555
C9 C8 1_555 1_555
H5 C9 1_555 1_555
C10 C9 1_555 1_555
H6 C10 1_555 1_555
C11 C10 1_555 1_555
C12 C7 1_555 1_555
H7 C12 1_555 1_555
C13 C11 1_555 1_555
C14 H8 1_555 1_555
H9 C14 1_555 1_555
H10 C14 1_555 1_555
C15 H11 1_555 1_555
H12 C15 1_555 1_555
H13 C15 1_555 1_555
N1 C1 1_555 1_555
N2 C3 1_555 1_555
N3 C13 1_555 1_555
O1 C4 1_555 1_555
O2 C4 1_555 1_555
O3 C5 1_555 1_555
O4 C5 1_555 1_555
C6 N2 1_555 1_555
C11 C12 1_555 1_555
C14 O2 1_555 1_555
C15 O3 1_555 1_555
N1 N2 1_555 1_555

#END
