
#######################################################################
#
#                 Cambridge Crystallographic Data Centre
#                                CCDC 
#
#######################################################################
#
# If this CIF has been generated from an entry in the Cambridge 
# Structural Database, then it will include bibliographic, chemical, 
# crystal, experimental, refinement or atomic coordinate data resulting 
# from the CCDC's data processing and validation procedures.
#
#######################################################################

data_MOTCUU
_chemical_formula_moiety         'C15 H14 N4'
_chemical_name_systematic        
2-(5-Methyl-4-(3-methylphenyl)-4H-1,2,4-triazol-3-yl)pyridine
_symmetry_cell_setting           monoclinic
_symmetry_space_group_name_H-M   'P 21/n'
_symmetry_Int_Tables_number      14
_space_group_name_Hall           '-P 2yn'
loop_
_symmetry_equiv_pos_site_id
_symmetry_equiv_pos_as_xyz
1 x,y,z
2 1/2-x,1/2+y,1/2-z
3 -x,-y,-z
4 1/2+x,1/2-y,1/2+z
_cell_length_a                   9.5680(10)
_cell_length_b                   10.519(2)
_cell_length_c                   13.555(2)
_cell_angle_alpha                90
_cell_angle_beta                 96.64(3)
_cell_angle_gamma                90
_cell_volume                     1355.1
_exptl_crystal_colour            colorless
_exptl_crystal_description       prism
_cell_formula_units_Z            4
_exptl_crystal_recrystallization_method 'aqueous ethanol'
loop_
_atom_site_label
_atom_site_type_symbol
_atom_site_fract_x
_atom_site_fract_y
_atom_site_fract_z
N1 N 0.1372(2) 0.8645(2) 0.47665(12)
N2 N 0.05623(19) 0.76334(17) 0.50563(11)
N3 N -0.09930(17) 0.73930(15) 0.73296(12)
N4 N 0.11155(15) 0.88829(15) 0.63546(10)
C1 C -0.1707(2) 0.6566(2) 0.78336(17)
H1 H -0.2143 0.6876 0.8363
C2 C -0.1837(2) 0.5290(2) 0.76202(19)
H2 H -0.2362 0.4761 0.7985
C3 C -0.1172(3) 0.4818(2) 0.68567(18)
H3 H -0.1237 0.3959 0.6694
C4 C -0.0409(2) 0.5632(2) 0.63355(15)
H4 H 0.0058 0.5328 0.5819
C5 C -0.03405(18) 0.69079(18) 0.65844(12)
C6 C 0.04303(19) 0.77911(17) 0.60035(13)
C7 C 0.1694(2) 0.9368(2) 0.55513(15)
C8 C 0.12918(18) 0.93671(17) 0.73586(13)
C9 C 0.06763(19) 1.05012(18) 0.75777(13)
H5 H 0.0163 1.0962 0.7074
C10 C 0.0816(2) 1.09668(18) 0.85510(14)
C11 C 0.1585(2) 1.0247(2) 0.92840(15)
H6 H 0.1680 1.0531 0.9938
C12 C 0.2210(2) 0.9120(2) 0.90560(16)
H7 H 0.2728 0.8657 0.9557
C13 C 0.2075(2) 0.86690(19) 0.80930(14)
H8 H 0.2501 0.7911 0.7940
C14 C 0.0136(3) 1.2195(2) 0.88081(18)
H9 H 0.0346 1.2357 0.9507
H10 H -0.0864 1.2134 0.8642
H11 H 0.0493 1.2879 0.8440
C15 C 0.2596(3) 1.0526(2) 0.55930(19)
H12 H 0.2877 1.0689 0.4948
H13 H 0.3416 1.0395 0.6061
H14 H 0.2075 1.1240 0.5797
loop_
_geom_bond_atom_site_label_1
_geom_bond_atom_site_label_2
_geom_bond_site_symmetry_1
_geom_bond_site_symmetry_2
N1 N2 1_555 1_555
N2 C6 1_555 1_555
N3 C1 1_555 1_555
N4 C6 1_555 1_555
C1 H1 1_555 1_555
C2 C1 1_555 1_555
H2 C2 1_555 1_555
C3 C2 1_555 1_555
H3 C3 1_555 1_555
C4 C3 1_555 1_555
H4 C4 1_555 1_555
C5 N3 1_555 1_555
C6 C5 1_555 1_555
C7 N1 1_555 1_555
C8 N4 1_555 1_555
C9 C8 1_555 1_555
H5 C9 1_555 1_555
C10 C9 1_555 1_555
C11 C10 1_555 1_555
H6 C11 1_555 1_555
C12 C11 1_555 1_555
H7 C12 1_555 1_555
C13 C8 1_555 1_555
H8 C13 1_555 1_555
C14 C10 1_555 1_555
H9 C14 1_555 1_555
H10 C14 1_555 1_555
H11 C14 1_555 1_555
C15 C7 1_555 1_555
H12 C15 1_555 1_555
H13 C15 1_555 1_555
H14 C15 1_555 1_555
N4 C7 1_555 1_555
C4 C5 1_555 1_555
C12 C13 1_555 1_555

#END
