
#######################################################################
#
#                 Cambridge Crystallographic Data Centre
#                                CCDC 
#
#######################################################################
#
# If this CIF has been generated from an entry in the Cambridge 
# Structural Database, then it will include bibliographic, chemical, 
# crystal, experimental, refinement or atomic coordinate data resulting 
# from the CCDC's data processing and validation procedures.
#
#######################################################################

data_MOTDUV01
_chemical_formula_moiety         'C17 H16 O4'
_chemical_name_systematic        '2,3-bis(4-methoxyphenyl)acrylic acid'
_symmetry_cell_setting           triclinic
_symmetry_space_group_name_H-M   'P -1'
_symmetry_Int_Tables_number      2
_space_group_name_Hall           '-P 1'
loop_
_symmetry_equiv_pos_site_id
_symmetry_equiv_pos_as_xyz
1 x,y,z
2 -x,-y,-z
_cell_length_a                   5.8239(4)
_cell_length_b                   9.0597(6)
_cell_length_c                   13.9214(8)
_cell_angle_alpha                84.6047(18)
_cell_angle_beta                 84.7115(18)
_cell_angle_gamma                79.8913(19)
_cell_volume                     717.777
_exptl_crystal_colour            yellow
_exptl_crystal_description       needle
_cell_formula_units_Z            2
loop_
_atom_site_label
_atom_site_type_symbol
_atom_site_fract_x
_atom_site_fract_y
_atom_site_fract_z
O1 O 0.47991(15) -0.25179(10) 0.49766(6)
O2 O 1.07425(15) 0.53136(9) 0.28693(6)
O3 O 0.11170(15) -0.04699(10) 0.10265(6)
O4 O 0.18042(16) 0.14559(10) -0.00234(6)
H1 H 0.0881 0.1115 -0.0339
C1 C 0.40085(17) 0.01500(11) 0.23787(7)
C2 C 0.61724(18) -0.07117(12) 0.25547(8)
H2 H 0.7442 -0.0686 0.2077
C3 C 0.65254(18) -0.16123(12) 0.34146(8)
H3 H 0.8019 -0.2192 0.3520
C4 C 0.46698(18) -0.16542(12) 0.41171(7)
C5 C 0.24887(19) -0.07924(13) 0.39529(8)
H4 H 0.1223 -0.0809 0.4434
C6 C 0.21623(18) 0.00878(12) 0.30906(8)
H5 H 0.0663 0.0657 0.2982
C7 C 0.36894(17) 0.10848(12) 0.14469(7)
C8 C 0.47679(18) 0.22704(12) 0.11275(7)
H6 H 0.4473 0.2674 0.0487
C9 C 0.63083(18) 0.30277(12) 0.16070(7)
C10 C 0.65950(19) 0.28626(12) 0.26075(8)
H7 H 0.5775 0.2199 0.3018
C11 C 0.8056(2) 0.36550(12) 0.29977(8)
H8 H 0.8222 0.3532 0.3674
C12 C 0.92981(18) 0.46403(12) 0.24093(8)
C13 C 0.89701(19) 0.48648(13) 0.14234(8)
H9 H 0.9748 0.5557 0.1019
C14 C 0.74897(19) 0.40618(12) 0.10400(7)
H10 H 0.7272 0.4221 0.0368
C15 C 0.6996(2) -0.34296(16) 0.51559(9)
H11 H 0.7471 -0.4107 0.4638
H12 H 0.6854 -0.4023 0.5778
H13 H 0.8176 -0.2785 0.5176
C16 C 0.20983(18) 0.06247(12) 0.08033(7)
C17 C 1.2108(2) 0.62882(13) 0.22908(9)
H14 H 1.3056 0.5733 0.1780
H15 H 1.3137 0.6653 0.2700
H16 H 1.1064 0.7145 0.1997
loop_
_geom_bond_atom_site_label_1
_geom_bond_atom_site_label_2
_geom_bond_site_symmetry_1
_geom_bond_site_symmetry_2
O1 C4 1_555 1_555
O2 C12 1_555 1_555
O3 C16 1_555 1_555
O4 H1 1_555 1_555
C1 C2 1_555 1_555
C2 H2 1_555 1_555
C3 C2 1_555 1_555
H3 C3 1_555 1_555
C4 C3 1_555 1_555
C5 C4 1_555 1_555
H4 C5 1_555 1_555
C6 C1 1_555 1_555
H5 C6 1_555 1_555
C7 C1 1_555 1_555
C8 C7 1_555 1_555
H6 C8 1_555 1_555
C9 C8 1_555 1_555
C10 C9 1_555 1_555
H7 C10 1_555 1_555
C11 C10 1_555 1_555
H8 C11 1_555 1_555
C12 C11 1_555 1_555
C13 C12 1_555 1_555
H9 C13 1_555 1_555
C14 C9 1_555 1_555
H10 C14 1_555 1_555
C15 O1 1_555 1_555
H11 C15 1_555 1_555
H12 C15 1_555 1_555
H13 C15 1_555 1_555
C16 O4 1_555 1_555
C17 O2 1_555 1_555
H14 C17 1_555 1_555
H15 C17 1_555 1_555
H16 C17 1_555 1_555
C5 C6 1_555 1_555
C7 C16 1_555 1_555
C13 C14 1_555 1_555

#END
