
#######################################################################
#
#                 Cambridge Crystallographic Data Centre
#                                CCDC 
#
#######################################################################
#
# If this CIF has been generated from an entry in the Cambridge 
# Structural Database, then it will include bibliographic, chemical, 
# crystal, experimental, refinement or atomic coordinate data resulting 
# from the CCDC's data processing and validation procedures.
#
#######################################################################

data_MOTDIJ
_chemical_formula_moiety         'C18 H15 Cl1 F1 N3 O4'
_chemical_name_systematic        
'2-[3-Acetyl-5-(2-chloro-3-pyridyl)-2-methyl-2,3-dihydro-1,3,4-oxadiazol-2-yl]-4-fluorophenyl acetate'
_symmetry_cell_setting           monoclinic
_symmetry_space_group_name_H-M   'P 21/n'
_symmetry_Int_Tables_number      14
_space_group_name_Hall           '-P 2yn'
loop_
_symmetry_equiv_pos_site_id
_symmetry_equiv_pos_as_xyz
1 x,y,z
2 1/2-x,1/2+y,1/2-z
3 -x,-y,-z
4 1/2+x,1/2-y,1/2+z
_cell_length_a                   10.120(2)
_cell_length_b                   13.900(3)
_cell_length_c                   13.320(3)
_cell_angle_alpha                90
_cell_angle_beta                 102.14(3)
_cell_angle_gamma                90
_cell_volume                     1831.8
_exptl_crystal_colour            colorless
_exptl_crystal_description       block
_cell_formula_units_Z            4
_exptl_crystal_recrystallization_method ethanol
loop_
_atom_site_label
_atom_site_type_symbol
_atom_site_fract_x
_atom_site_fract_y
_atom_site_fract_z
C1 C 0.0490(3) 0.1369(2) 0.5790(2)
H1 H -0.0049 0.1943 0.5694
H2 H 0.0010 0.0859 0.5383
H3 H 0.1328 0.1485 0.5580
C2 C 0.0772(2) 0.10902(17) 0.6890(2)
C3 C 0.1358(2) -0.02657(15) 0.79837(16)
C4 C 0.0293(3) -0.04387(16) 0.8454(2)
H4 H -0.0576 -0.0247 0.8140
C5 C 0.0520(3) -0.08956(18) 0.9390(2)
H5 H -0.0187 -0.1021 0.9718
C6 C 0.1815(3) -0.11600(17) 0.98264(17)
C7 C 0.2892(3) -0.09887(15) 0.93740(16)
H6 H 0.3758 -0.1177 0.9699
C8 C 0.2675(2) -0.05317(14) 0.84270(15)
C9 C 0.3835(2) -0.03837(14) 0.78801(14)
C10 C 0.5212(2) -0.07353(16) 0.84381(18)
H7 H 0.5183 -0.1419 0.8534
H8 H 0.5454 -0.0425 0.9095
H9 H 0.5872 -0.0585 0.8039
C11 C 0.4183(3) 0.23549(16) 0.76258(19)
H10 H 0.3303 0.2645 0.7478
H11 H 0.4494 0.2268 0.6999
H12 H 0.4801 0.2765 0.8080
C12 C 0.4110(2) 0.14036(15) 0.81247(16)
C13 C 0.35464(19) -0.02406(16) 0.61505(14)
C14 C 0.3289(2) -0.06543(17) 0.51150(15)
C15 C 0.3246(2) -0.16524(19) 0.50291(18)
H13 H 0.3420 -0.2032 0.5617
C16 C 0.2944(2) -0.2080(2) 0.4075(2)
H14 H 0.2913 -0.2746 0.4009
C17 C 0.2691(3) -0.1500(3) 0.3232(2)
H15 H 0.2472 -0.1791 0.2590
C18 C 0.3038(2) -0.0137(2) 0.41987(16)
Cl1 Cl 0.30866(7) 0.11042(5) 0.41760(5)
F1 F 0.2064(2) -0.16130(13) 1.07494(10)
N1 N 0.37927(17) 0.06330(13) 0.64394(12)
N2 N 0.39054(17) 0.06139(12) 0.75037(12)
N3 N 0.2739(2) -0.0537(2) 0.32705(14)
O1 O 0.10784(15) 0.01308(10) 0.69914(11)
O2 O 0.42063(17) 0.13026(11) 0.90474(11)
O3 O 0.0761(2) 0.15939(13) 0.76138(16)
O4 O 0.34983(15) -0.08897(10) 0.69061(10)
loop_
_geom_bond_atom_site_label_1
_geom_bond_atom_site_label_2
_geom_bond_site_symmetry_1
_geom_bond_site_symmetry_2
C1 H1 1_555 1_555
H2 C1 1_555 1_555
H3 C1 1_555 1_555
C2 C1 1_555 1_555
C3 C4 1_555 1_555
C4 H4 1_555 1_555
C5 C4 1_555 1_555
H5 C5 1_555 1_555
C6 C5 1_555 1_555
C7 C6 1_555 1_555
H6 C7 1_555 1_555
C8 C3 1_555 1_555
C9 C8 1_555 1_555
C10 C9 1_555 1_555
H7 C10 1_555 1_555
H8 C10 1_555 1_555
H9 C10 1_555 1_555
C11 H10 1_555 1_555
H11 C11 1_555 1_555
H12 C11 1_555 1_555
C12 C11 1_555 1_555
C13 C14 1_555 1_555
C14 C15 1_555 1_555
C15 H13 1_555 1_555
C16 C15 1_555 1_555
H14 C16 1_555 1_555
C17 C16 1_555 1_555
H15 C17 1_555 1_555
C18 C14 1_555 1_555
Cl1 C18 1_555 1_555
F1 C6 1_555 1_555
N1 C13 1_555 1_555
N2 C9 1_555 1_555
N3 C17 1_555 1_555
O1 C2 1_555 1_555
O2 C12 1_555 1_555
O3 C2 1_555 1_555
O4 C9 1_555 1_555
C3 O1 1_555 1_555
C7 C8 1_555 1_555
C12 N2 1_555 1_555
C13 O4 1_555 1_555
C18 N3 1_555 1_555
N1 N2 1_555 1_555

#END
