
#######################################################################
#
#                 Cambridge Crystallographic Data Centre
#                                CCDC 
#
#######################################################################
#
# If this CIF has been generated from an entry in the Cambridge 
# Structural Database, then it will include bibliographic, chemical, 
# crystal, experimental, refinement or atomic coordinate data resulting 
# from the CCDC's data processing and validation procedures.
#
#######################################################################

data_MOTGIM
_chemical_formula_moiety         'C30 H26 N4 O1'
_chemical_name_systematic        
1,3-bis(1-benzyl-1H-benzimidazol-2-yl)-2-oxapropane
_symmetry_cell_setting           triclinic
_symmetry_space_group_name_H-M   'P -1'
_symmetry_Int_Tables_number      2
_space_group_name_Hall           '-P 1'
loop_
_symmetry_equiv_pos_site_id
_symmetry_equiv_pos_as_xyz
1 x,y,z
2 -x,-y,-z
_cell_length_a                   8.5477(3)
_cell_length_b                   11.8976(5)
_cell_length_c                   12.3961(5)
_cell_angle_alpha                101.3000(10)
_cell_angle_beta                 92.3940(10)
_cell_angle_gamma                107.7650(10)
_cell_volume                     1170.28
_exptl_crystal_colour            white
_exptl_crystal_description       block
_cell_formula_units_Z            2
_exptl_crystal_recrystallization_method methanol
loop_
_atom_site_label
_atom_site_type_symbol
_atom_site_fract_x
_atom_site_fract_y
_atom_site_fract_z
O1 O 0.80479(11) 0.49510(8) 0.70677(7)
N1 N 0.73219(13) 0.71312(9) 0.90708(8)
N2 N 0.54296(12) 0.52783(9) 0.85764(8)
N3 N 0.99857(12) 0.31236(9) 0.79071(8)
N4 N 0.77779(12) 0.22141(9) 0.66368(8)
C1 C 0.58038(15) 0.71864(10) 0.93941(9)
C2 C 0.53783(16) 0.81685(11) 0.99680(10)
H1 H 0.6172 0.8953 1.0182
C3 C 0.37662(17) 0.79594(12) 1.02133(10)
H2 H 0.3451 0.8610 1.0611
C4 C 0.25816(16) 0.68035(12) 0.98864(10)
H3 H 0.1483 0.6695 1.0065
C5 C 0.29667(15) 0.58181(11) 0.93114(10)
H4 H 0.2164 0.5039 0.9086
C6 C 0.46015(15) 0.60377(10) 0.90831(9)
C7 C 0.70389(15) 0.59876(11) 0.85997(9)
C8 C 0.83822(16) 0.55036(12) 0.82143(10)
H5 H 0.9446 0.6171 0.8349
H6 H 0.8481 0.4902 0.8640
C9 C 0.92732(15) 0.44005(11) 0.67180(10)
H7 H 1.0385 0.4975 0.7013
H8 H 0.9208 0.4227 0.5900
C10 C 0.90483(14) 0.32529(11) 0.71040(10)
C11 C 0.79369(14) 0.13374(11) 0.71787(9)
C12 C 0.70094(16) 0.01242(12) 0.70590(11)
H9 H 0.6078 -0.0257 0.6520
C13 C 0.75138(17) -0.04945(12) 0.77646(11)
H10 H 0.6919 -0.1325 0.7706
C14 C 0.88820(17) 0.00726(12) 0.85663(11)
H11 H 0.9187 -0.0382 0.9040
C15 C 0.98002(15) 0.12805(12) 0.86844(10)
H12 H 1.0722 0.1661 0.9231
C16 C 0.93194(14) 0.19187(10) 0.79690(10)
C17 C 0.64947(15) 0.20654(12) 0.57568(10)
H13 H 0.6159 0.2803 0.5873
H14 H 0.5516 0.1378 0.5808
C18 C 0.70267(15) 0.18411(11) 0.46087(10)
C19 C 0.66731(18) 0.24654(12) 0.38477(11)
H15 H 0.6115 0.3040 0.4057
C20 C 0.7125(2) 0.22588(14) 0.27833(12)
H16 H 0.6869 0.2686 0.2266
C21 C 0.7950(2) 0.14290(14) 0.24755(12)
H17 H 0.8275 0.1294 0.1750
C22 C 0.82983(19) 0.07973(13) 0.32288(12)
H18 H 0.8861 0.0225 0.3020
C23 C 0.78271(17) 0.09980(12) 0.42866(11)
H19 H 0.8055 0.0553 0.4797
C24 C 0.46863(16) 0.39871(10) 0.81196(10)
H20 H 0.3901 0.3635 0.8622
H21 H 0.5565 0.3603 0.8095
C25 C 0.37816(14) 0.36798(10) 0.69711(10)
C26 C 0.28424(15) 0.24803(12) 0.65272(12)
H22 H 0.2773 0.1885 0.6950
C27 C 0.20114(18) 0.21494(13) 0.54754(13)
H23 H 0.1383 0.1327 0.5179
C28 C 0.20876(18) 0.30063(14) 0.48511(12)
H24 H 0.1505 0.2778 0.4132
C29 C 0.30168(19) 0.41940(14) 0.52837(12)
H25 H 0.3079 0.4787 0.4859
C30 C 0.38665(17) 0.45315(12) 0.63410(11)
H26 H 0.4508 0.5352 0.6631
loop_
_geom_bond_atom_site_label_1
_geom_bond_atom_site_label_2
_geom_bond_site_symmetry_1
_geom_bond_site_symmetry_2
O1 C8 1_555 1_555
N1 C1 1_555 1_555
N2 C6 1_555 1_555
N3 C10 1_555 1_555
N4 C10 1_555 1_555
C1 C2 1_555 1_555
C2 H1 1_555 1_555
C3 C2 1_555 1_555
H2 C3 1_555 1_555
C4 C3 1_555 1_555
H3 C4 1_555 1_555
C5 C4 1_555 1_555
H4 C5 1_555 1_555
C6 C1 1_555 1_555
C7 N1 1_555 1_555
C8 C7 1_555 1_555
H5 C8 1_555 1_555
H6 C8 1_555 1_555
C9 O1 1_555 1_555
H7 C9 1_555 1_555
H8 C9 1_555 1_555
C10 C9 1_555 1_555
C11 N4 1_555 1_555
C12 C11 1_555 1_555
H9 C12 1_555 1_555
C13 C12 1_555 1_555
H10 C13 1_555 1_555
C14 C13 1_555 1_555
H11 C14 1_555 1_555
C15 C14 1_555 1_555
H12 C15 1_555 1_555
C16 N3 1_555 1_555
C17 N4 1_555 1_555
H13 C17 1_555 1_555
H14 C17 1_555 1_555
C18 C17 1_555 1_555
C19 C18 1_555 1_555
H15 C19 1_555 1_555
C20 C19 1_555 1_555
H16 C20 1_555 1_555
C21 C20 1_555 1_555
H17 C21 1_555 1_555
C22 C21 1_555 1_555
H18 C22 1_555 1_555
C23 C18 1_555 1_555
H19 C23 1_555 1_555
C24 N2 1_555 1_555
H20 C24 1_555 1_555
H21 C24 1_555 1_555
C25 C24 1_555 1_555
C26 C25 1_555 1_555
H22 C26 1_555 1_555
C27 C26 1_555 1_555
H23 C27 1_555 1_555
C28 C27 1_555 1_555
H24 C28 1_555 1_555
C29 C28 1_555 1_555
H25 C29 1_555 1_555
C30 C25 1_555 1_555
H26 C30 1_555 1_555
N2 C7 1_555 1_555
C5 C6 1_555 1_555
C11 C16 1_555 1_555
C15 C16 1_555 1_555
C22 C23 1_555 1_555
C29 C30 1_555 1_555

#END
