
#######################################################################
#
#                 Cambridge Crystallographic Data Centre
#                                CCDC 
#
#######################################################################
#
# If this CIF has been generated from an entry in the Cambridge 
# Structural Database, then it will include bibliographic, chemical, 
# crystal, experimental, refinement or atomic coordinate data resulting 
# from the CCDC's data processing and validation procedures.
#
#######################################################################

data_MOTHOU
_chemical_formula_moiety         'C27 H24 N2 O2'
_chemical_name_systematic        
3-(9-anthryl)-5-((4-t-butylphenoxy)methyl)-1,2,4-oxadiazole
_symmetry_cell_setting           triclinic
_symmetry_space_group_name_H-M   'P -1'
_symmetry_Int_Tables_number      2
_space_group_name_Hall           '-P 1'
loop_
_symmetry_equiv_pos_site_id
_symmetry_equiv_pos_as_xyz
1 x,y,z
2 -x,-y,-z
_cell_length_a                   9.0021(3)
_cell_length_b                   10.6361(4)
_cell_length_c                   12.6450(5)
_cell_angle_alpha                104.625(3)
_cell_angle_beta                 93.677(3)
_cell_angle_gamma                109.064(4)
_cell_volume                     1092.92
_cell_formula_units_Z            2
loop_
_atom_site_label
_atom_site_type_symbol
_atom_site_fract_x
_atom_site_fract_y
_atom_site_fract_z
O1 O 0.16960(14) 0.12489(12) 0.50645(9)
O2 O 0.46997(13) 0.11619(14) 0.46652(10)
N1 N 0.36025(14) 0.00289(13) 0.29450(11)
N2 N 0.59438(16) 0.13825(18) 0.40284(13)
C1 C 0.0342(5) 0.5955(4) 0.3405(4)
H1 H -0.0695 0.5278 0.3349
H2 H 0.0252 0.6636 0.3055
H3 H 0.0796 0.6404 0.4171
C2 C 0.0787(4) 0.4612(2) 0.1613(2)
H4 H -0.0248 0.3910 0.1502
H5 H 0.1503 0.4202 0.1265
H6 H 0.0716 0.5323 0.1294
C3 C 0.3033(3) 0.6344(2) 0.2944(2)
H7 H 0.3469 0.6791 0.3713
H8 H 0.2929 0.7023 0.2596
H9 H 0.3729 0.5915 0.2589
C4 C 0.1403(2) 0.52426(17) 0.28369(16)
C5 C 0.15052(17) 0.41537(15) 0.34004(14)
C6 C 0.0552(2) 0.27773(19) 0.29953(18)
H10 H -0.0156 0.2491 0.2339
C7 C 0.0603(2) 0.18014(19) 0.35265(19)
H11 H -0.0071 0.0880 0.3231
C8 C 0.16299(18) 0.21838(16) 0.44719(14)
C9 C 0.2600(2) 0.3530(2) 0.49021(17)
H12 H 0.3321 0.3797 0.5549
C10 C 0.2517(2) 0.45037(19) 0.43784(17)
H13 H 0.3167 0.5428 0.4697
C11 C 0.18622(19) 0.00096(17) 0.44190(15)
H14 H 0.0969 -0.0477 0.3820
H15 H 0.1864 -0.0597 0.4877
C12 C 0.33777(18) 0.03577(15) 0.39565(13)
C13 C 0.52272(16) 0.06937(15) 0.30366(13)
C14 C 0.60682(16) 0.06642(15) 0.20639(13)
C15 C 0.60821(17) 0.16177(16) 0.14693(13)
C16 C 0.5418(2) 0.26759(18) 0.17943(17)
H16 H 0.4938 0.2748 0.2426
C17 C 0.5474(3) 0.3577(2) 0.1198(2)
H17 H 0.5051 0.4271 0.1433
C18 C 0.6168(3) 0.3478(2) 0.02213(19)
H18 H 0.6189 0.4099 -0.0185
C19 C 0.6796(2) 0.2488(2) -0.01204(16)
H19 H 0.7240 0.2428 -0.0767
C20 C 0.67965(17) 0.15322(16) 0.04864(13)
C21 C 0.74775(18) 0.05213(18) 0.01621(14)
H20 H 0.7924 0.0457 -0.0483
C22 C 0.75138(17) -0.03882(16) 0.07632(13)
C23 C 0.8263(2) -0.1398(2) 0.04557(17)
H21 H 0.8742 -0.1455 -0.0176
C24 C 0.8286(2) -0.2262(2) 0.10626(19)
H22 H 0.8783 -0.2906 0.0847
C25 C 0.7569(2) -0.22084(19) 0.20186(17)
H23 H 0.7605 -0.2811 0.2432
C26 C 0.68262(19) -0.12875(17) 0.23456(14)
H24 H 0.6337 -0.1281 0.2972
C27 C 0.67838(16) -0.03299(15) 0.17438(13)
loop_
_geom_bond_atom_site_label_1
_geom_bond_atom_site_label_2
_geom_bond_site_symmetry_1
_geom_bond_site_symmetry_2
O1 C8 1_555 1_555
O2 N2 1_555 1_555
N1 C12 1_555 1_555
N2 C13 1_555 1_555
C1 H1 1_555 1_555
H2 C1 1_555 1_555
H3 C1 1_555 1_555
C2 H4 1_555 1_555
H5 C2 1_555 1_555
H6 C2 1_555 1_555
C3 H7 1_555 1_555
H8 C3 1_555 1_555
H9 C3 1_555 1_555
C4 C1 1_555 1_555
C5 C4 1_555 1_555
C6 C5 1_555 1_555
H10 C6 1_555 1_555
C7 C6 1_555 1_555
H11 C7 1_555 1_555
C8 C7 1_555 1_555
C9 C8 1_555 1_555
H12 C9 1_555 1_555
C10 C5 1_555 1_555
H13 C10 1_555 1_555
C11 O1 1_555 1_555
H14 C11 1_555 1_555
H15 C11 1_555 1_555
C12 O2 1_555 1_555
C13 N1 1_555 1_555
C14 C13 1_555 1_555
C15 C14 1_555 1_555
C16 C15 1_555 1_555
H16 C16 1_555 1_555
C17 C16 1_555 1_555
H17 C17 1_555 1_555
C18 C17 1_555 1_555
H18 C18 1_555 1_555
C19 C18 1_555 1_555
H19 C19 1_555 1_555
C20 C15 1_555 1_555
C21 C20 1_555 1_555
H20 C21 1_555 1_555
C22 C21 1_555 1_555
C23 C22 1_555 1_555
H21 C23 1_555 1_555
C24 C23 1_555 1_555
H22 C24 1_555 1_555
C25 C24 1_555 1_555
H23 C25 1_555 1_555
C26 C25 1_555 1_555
H24 C26 1_555 1_555
C27 C14 1_555 1_555
C2 C4 1_555 1_555
C3 C4 1_555 1_555
C9 C10 1_555 1_555
C11 C12 1_555 1_555
C19 C20 1_555 1_555
C22 C27 1_555 1_555
C26 C27 1_555 1_555

#END
