
#######################################################################
#
#                 Cambridge Crystallographic Data Centre
#                                CCDC 
#
#######################################################################
#
# If this CIF has been generated from an entry in the Cambridge 
# Structural Database, then it will include bibliographic, chemical, 
# crystal, experimental, refinement or atomic coordinate data resulting 
# from the CCDC's data processing and validation procedures.
#
#######################################################################

data_MOTHAF
_chemical_formula_moiety         'C27 H30 O8'
_chemical_name_systematic        
7,14-bis(4-methoxyphenyl)-11,11-dimethyl-1,4,10,12-tetraoxadispiro[4.2.5.2]pentadecane-9,13-dione
_symmetry_cell_setting           monoclinic
_symmetry_space_group_name_H-M   'P 21/n'
_symmetry_Int_Tables_number      14
_space_group_name_Hall           '-P 2yn'
loop_
_symmetry_equiv_pos_site_id
_symmetry_equiv_pos_as_xyz
1 x,y,z
2 1/2-x,1/2+y,1/2-z
3 -x,-y,-z
4 1/2+x,1/2-y,1/2+z
_cell_length_a                   9.977(5)
_cell_length_b                   20.162(9)
_cell_length_c                   12.508(6)
_cell_angle_alpha                90
_cell_angle_beta                 94.934(8)
_cell_angle_gamma                90
_cell_volume                     2506.74
_exptl_crystal_colour            colorless
_exptl_crystal_description       prism
_cell_formula_units_Z            4
loop_
_atom_site_label
_atom_site_type_symbol
_atom_site_fract_x
_atom_site_fract_y
_atom_site_fract_z
O1 O -0.0782(3) 0.1365(2) 0.3511(3)
O2 O 0.0250(4) 0.1844(2) 0.2024(3)
O3 O 0.0355(4) 0.10348(19) 0.4940(3)
O4 O 0.2363(4) 0.19884(18) 0.2038(3)
O5 O 0.4608(4) 0.1128(2) 0.5381(4)
O6 O 0.5876(5) 0.1554(2) 0.4129(4)
O7 O -0.0022(5) -0.1063(2) 0.0771(3)
O8 O -0.1002(4) 0.4239(2) 0.4598(4)
C1 C 0.1680(5) 0.1482(2) 0.3627(4)
C2 C 0.2380(5) 0.1994(3) 0.4430(5)
H1 H 0.2350 0.1788 0.5137
C3 C 0.3789(6) 0.2090(3) 0.4312(5)
H2 H 0.4153 0.2374 0.4892
H3 H 0.3872 0.2327 0.3646
C4 C 0.4711(8) 0.1438(3) 0.4308(5)
C5 C 0.3969(6) 0.0959(3) 0.3462(6)
H4 H 0.4050 0.1141 0.2753
H5 H 0.4438 0.0537 0.3498
C6 C 0.2578(5) 0.0834(3) 0.3569(5)
H6 H 0.2569 0.0637 0.4284
C7 C 0.0383(5) 0.1274(3) 0.4064(5)
C8 C 0.1480(6) 0.1791(2) 0.2534(5)
C9 C -0.0965(5) 0.1675(3) 0.2462(4)
C10 C -0.1679(6) 0.1184(3) 0.1731(5)
H7 H -0.2520 0.1068 0.2002
H8 H -0.1134 0.0794 0.1692
H9 H -0.1845 0.1374 0.1029
C11 C -0.1733(6) 0.2284(3) 0.2604(5)
H10 H -0.2563 0.2176 0.2898
H11 H -0.1922 0.2498 0.1922
H12 H -0.1217 0.2577 0.3084
C12 C 0.1543(5) 0.2613(3) 0.4480(5)
C13 C 0.1714(5) 0.3153(3) 0.3840(5)
H13 H 0.2404 0.3148 0.3385
C14 C 0.0903(6) 0.3702(3) 0.3850(5)
H14 H 0.1028 0.4054 0.3389
C15 C -0.0101(6) 0.3731(3) 0.4544(5)
C16 C -0.0247(6) 0.3210(3) 0.5229(5)
H15 H -0.0905 0.3227 0.5712
C17 C 0.0572(5) 0.2659(3) 0.5209(4)
H16 H 0.0472 0.2314 0.5689
C18 C -0.1000(8) 0.4737(4) 0.3811(7)
H17 H -0.1667 0.5064 0.3936
H18 H -0.1202 0.4544 0.3114
H19 H -0.0129 0.4942 0.3844
C19 C 0.1895(5) 0.0320(3) 0.2828(5)
C20 C 0.2011(5) 0.0315(3) 0.1736(5)
H20 H 0.2529 0.0640 0.1441
C21 C 0.1380(6) -0.0158(3) 0.1067(5)
H21 H 0.1504 -0.0159 0.0339
C22 C 0.0572(6) -0.0626(3) 0.1485(6)
C23 C 0.0439(5) -0.0631(3) 0.2572(6)
H22 H -0.0086 -0.0955 0.2861
C24 C 0.1071(5) -0.0163(3) 0.3232(5)
H23 H 0.0949 -0.0167 0.3960
C25 C -0.0945(7) -0.1527(3) 0.1126(6)
H24 H -0.1280 -0.1801 0.0535
H25 H -0.1680 -0.1296 0.1405
H26 H -0.0502 -0.1799 0.1678
C26 C 0.6675(6) 0.1443(4) 0.5066(6)
H27 H 0.7119 0.1854 0.5290
H28 H 0.7367 0.1124 0.4926
C27 C 0.5964(7) 0.1206(4) 0.5904(6)
H29 H 0.5981 0.1523 0.6489
H30 H 0.6324 0.0786 0.6176
loop_
_geom_bond_atom_site_label_1
_geom_bond_atom_site_label_2
_geom_bond_site_symmetry_1
_geom_bond_site_symmetry_2
O1 C7 1_555 1_555
O2 C8 1_555 1_555
O3 C7 1_555 1_555
O4 C8 1_555 1_555
O5 C4 1_555 1_555
O6 C4 1_555 1_555
O7 C22 1_555 1_555
O8 C15 1_555 1_555
C1 C2 1_555 1_555
C2 H1 1_555 1_555
C3 C2 1_555 1_555
H2 C3 1_555 1_555
H3 C3 1_555 1_555
C4 C3 1_555 1_555
C5 C4 1_555 1_555
H4 C5 1_555 1_555
H5 C5 1_555 1_555
C6 C1 1_555 1_555
H6 C6 1_555 1_555
C7 C1 1_555 1_555
C8 C1 1_555 1_555
C9 O1 1_555 1_555
C10 C9 1_555 1_555
H7 C10 1_555 1_555
H8 C10 1_555 1_555
H9 C10 1_555 1_555
C11 C9 1_555 1_555
H10 C11 1_555 1_555
H11 C11 1_555 1_555
H12 C11 1_555 1_555
C12 C2 1_555 1_555
C13 C12 1_555 1_555
H13 C13 1_555 1_555
C14 C13 1_555 1_555
H14 C14 1_555 1_555
C15 C14 1_555 1_555
C16 C15 1_555 1_555
H15 C16 1_555 1_555
C17 C12 1_555 1_555
H16 C17 1_555 1_555
C18 O8 1_555 1_555
H17 C18 1_555 1_555
H18 C18 1_555 1_555
H19 C18 1_555 1_555
C19 C6 1_555 1_555
C20 C19 1_555 1_555
H20 C20 1_555 1_555
C21 C20 1_555 1_555
H21 C21 1_555 1_555
C22 C21 1_555 1_555
C23 C22 1_555 1_555
H22 C23 1_555 1_555
C24 C19 1_555 1_555
H23 C24 1_555 1_555
C25 O7 1_555 1_555
H24 C25 1_555 1_555
H25 C25 1_555 1_555
H26 C25 1_555 1_555
C26 O6 1_555 1_555
H27 C26 1_555 1_555
H28 C26 1_555 1_555
C27 O5 1_555 1_555
H29 C27 1_555 1_555
H30 C27 1_555 1_555
O2 C9 1_555 1_555
C5 C6 1_555 1_555
C16 C17 1_555 1_555
C23 C24 1_555 1_555
C26 C27 1_555 1_555

#END
