
#######################################################################
#
#                 Cambridge Crystallographic Data Centre
#                                CCDC 
#
#######################################################################
#
# If this CIF has been generated from an entry in the Cambridge 
# Structural Database, then it will include bibliographic, chemical, 
# crystal, experimental, refinement or atomic coordinate data resulting 
# from the CCDC's data processing and validation procedures.
#
#######################################################################

data_MOTJOV
_chemical_formula_moiety         'C31 H29 Br1 N2 O7'
_chemical_name_systematic        
3-(6-Benzyloxy-2,2-dimethylperhydrofuro[2,3-d][1,3]dioxol-5-yl)-5-(4-bromophenyl)-2-phenylperhydropyrrolo[3,4-d]isoxazole-4,6-dione
_symmetry_cell_setting           monoclinic
_symmetry_space_group_name_H-M   'P 21'
_symmetry_Int_Tables_number      4
_space_group_name_Hall           'P 2yb'
loop_
_symmetry_equiv_pos_site_id
_symmetry_equiv_pos_as_xyz
1 x,y,z
2 -x,1/2+y,-z
_cell_length_a                   15.0680(12)
_cell_length_b                   6.6801(5)
_cell_length_c                   15.8550(12)
_cell_angle_alpha                90
_cell_angle_beta                 117.578(2)
_cell_angle_gamma                90
_cell_volume                     1414.57
_exptl_crystal_colour            colorless
_exptl_crystal_description       needle
_cell_formula_units_Z            2
_exptl_crystal_recrystallization_method ethanol
loop_
_atom_site_label
_atom_site_type_symbol
_atom_site_fract_x
_atom_site_fract_y
_atom_site_fract_z
C1 C 0.64016(18) 0.3845(4) 0.35916(18)
H1 H 0.6865 0.4725 0.4028
C2 C 0.5464(2) 0.4517(5) 0.2949(2)
H2 H 0.5293 0.5853 0.2952
C3 C 0.4785(2) 0.3213(5) 0.2304(2)
C4 C 0.5020(2) 0.1225(5) 0.2294(2)
H3 H 0.4553 0.0349 0.1858
C5 C 0.5958(2) 0.0545(4) 0.2940(2)
H4 H 0.6125 -0.0796 0.2942
C6 C 0.66469(18) 0.1858(4) 0.35820(16)
C7 C 0.7771(2) -0.0588(4) 0.47898(17)
C8 C 0.85005(18) 0.2249(4) 0.45433(17)
C9 C 0.93114(18) 0.1327(4) 0.54302(17)
H5 H 0.9931 0.1105 0.5385
C10 C 0.88614(19) -0.0602(4) 0.55592(17)
H6 H 0.9220 -0.1772 0.5498
C11 C 0.94837(17) 0.2561(3) 0.63122(16)
H7 H 0.9266 0.3948 0.6132
C12 C 1.05597(18) 0.2501(4) 0.70747(16)
H8 H 1.0775 0.1109 0.7240
C13 C 1.07749(18) 0.3678(3) 0.79726(16)
H9 H 1.0594 0.2926 0.8402
C14 C 1.18993(18) 0.3982(4) 0.83916(16)
H10 H 1.2135 0.5202 0.8776
C15 C 1.20853(17) 0.3989(4) 0.75221(16)
H11 H 1.2319 0.5306 0.7437
C16 C 1.3149(2) 0.1722(4) 0.86285(19)
C17 C 1.3205(3) -0.0535(6) 0.8586(3)
H12 H 1.3361 -0.1092 0.9197
H13 H 1.3718 -0.0898 0.8415
H14 H 1.2572 -0.1047 0.8118
C18 C 1.4135(2) 0.2643(7) 0.9303(3)
H15 H 1.4063 0.4071 0.9304
H16 H 1.4629 0.2314 0.9104
H17 H 1.4342 0.2134 0.9933
C19 C 0.9839(2) 0.6190(4) 0.82909(19)
H18 H 0.9439 0.5111 0.8349
H19 H 0.9392 0.7302 0.7980
C20 C 1.05951(18) 0.6836(3) 0.92725(17)
C21 C 1.0676(2) 0.5854(4) 1.00695(19)
H20 H 1.0286 0.4729 1.0005
C22 C 1.1336(2) 0.6541(5) 1.0960(2)
H21 H 1.1379 0.5884 1.1495
C23 C 1.1925(2) 0.8162(5) 1.1073(2)
H22 H 1.2366 0.8609 1.1680
C24 C 1.1866(2) 0.9139(5) 1.0285(2)
H23 H 1.2271 1.0242 1.0356
C25 C 1.1202(2) 0.8473(4) 0.9390(2)
H24 H 1.1162 0.9134 0.8857
C26 C 0.78715(19) 0.2237(4) 0.63967(16)
C27 C 0.7611(2) 0.4255(5) 0.6230(2)
H25 H 0.8081 0.5200 0.6270
C28 C 0.6640(3) 0.4843(6) 0.6006(3)
H26 H 0.6465 0.6187 0.5886
C29 C 0.5940(2) 0.3490(6) 0.5957(3)
H27 H 0.5294 0.3901 0.5807
C30 C 0.6209(2) 0.1490(6) 0.6135(2)
H28 H 0.5737 0.0551 0.6100
C31 C 0.7164(2) 0.0883(5) 0.6361(2)
H29 H 0.7336 -0.0460 0.6492
N1 N 0.76087(15) 0.1169(3) 0.42650(14)
N2 N 0.88766(16) 0.1595(3) 0.66968(14)
O1 O 0.85721(15) 0.3700(3) 0.41335(14)
O2 O 0.71522(18) -0.1839(3) 0.46666(16)
O3 O 0.89191(14) -0.0499(3) 0.64921(12)
O4 O 1.11759(13) 0.3476(3) 0.67218(12)
O5 O 1.28173(14) 0.2528(3) 0.77001(14)
O6 O 1.23964(13) 0.2227(3) 0.88938(12)
O7 O 1.02692(15) 0.5529(3) 0.77010(13)
Br1 Br 0.35138(3) 0.41736(8) 0.14395(3)
loop_
_geom_bond_atom_site_label_1
_geom_bond_atom_site_label_2
_geom_bond_site_symmetry_1
_geom_bond_site_symmetry_2
C1 H1 1_555 1_555
C2 C1 1_555 1_555
H2 C2 1_555 1_555
C3 C2 1_555 1_555
C4 C3 1_555 1_555
H3 C4 1_555 1_555
C5 C4 1_555 1_555
H4 C5 1_555 1_555
C6 C1 1_555 1_555
C7 C10 1_555 1_555
C8 C9 1_555 1_555
C9 H5 1_555 1_555
C10 C9 1_555 1_555
H6 C10 1_555 1_555
C11 C9 1_555 1_555
H7 C11 1_555 1_555
C12 C11 1_555 1_555
H8 C12 1_555 1_555
C13 C12 1_555 1_555
H9 C13 1_555 1_555
C14 C13 1_555 1_555
H10 C14 1_555 1_555
C15 C14 1_555 1_555
H11 C15 1_555 1_555
C16 C17 1_555 1_555
C17 H12 1_555 1_555
H13 C17 1_555 1_555
H14 C17 1_555 1_555
C18 C16 1_555 1_555
H15 C18 1_555 1_555
H16 C18 1_555 1_555
H17 C18 1_555 1_555
C19 H18 1_555 1_555
H19 C19 1_555 1_555
C20 C19 1_555 1_555
C21 C20 1_555 1_555
H20 C21 1_555 1_555
C22 C21 1_555 1_555
H21 C22 1_555 1_555
C23 C22 1_555 1_555
H22 C23 1_555 1_555
C24 C23 1_555 1_555
H23 C24 1_555 1_555
C25 C20 1_555 1_555
H24 C25 1_555 1_555
C26 C27 1_555 1_555
C27 H25 1_555 1_555
C28 C27 1_555 1_555
H26 C28 1_555 1_555
C29 C28 1_555 1_555
H27 C29 1_555 1_555
C30 C29 1_555 1_555
H28 C30 1_555 1_555
C31 C26 1_555 1_555
H29 C31 1_555 1_555
N1 C6 1_555 1_555
N2 C11 1_555 1_555
O1 C8 1_555 1_555
O2 C7 1_555 1_555
O3 C10 1_555 1_555
O4 C12 1_555 1_555
O5 C15 1_555 1_555
O6 C14 1_555 1_555
O7 C13 1_555 1_555
Br1 C3 1_555 1_555
C5 C6 1_555 1_555
C7 N1 1_555 1_555
C8 N1 1_555 1_555
C15 O4 1_555 1_555
C16 O5 1_555 1_555
C16 O6 1_555 1_555
C19 O7 1_555 1_555
C24 C25 1_555 1_555
C26 N2 1_555 1_555
C30 C31 1_555 1_555
N2 O3 1_555 1_555

#END
