
#######################################################################
#
#                 Cambridge Crystallographic Data Centre
#                                CCDC 
#
#######################################################################
#
# If this CIF has been generated from an entry in the Cambridge 
# Structural Database, then it will include bibliographic, chemical, 
# crystal, experimental, refinement or atomic coordinate data resulting 
# from the CCDC's data processing and validation procedures.
#
#######################################################################

data_MOTKUC
_chemical_formula_moiety         'C25 H17 B1 N2 S4'
_chemical_name_systematic        
3,4,4,8-tetrakis(2-Thienyl)-4-bora-3a,4a-diaza-s-indacene
_symmetry_cell_setting           monoclinic
_symmetry_space_group_name_H-M   'P 21/n'
_symmetry_Int_Tables_number      14
_space_group_name_Hall           '-P 2yn'
loop_
_symmetry_equiv_pos_site_id
_symmetry_equiv_pos_as_xyz
1 x,y,z
2 1/2-x,1/2+y,1/2-z
3 -x,-y,-z
4 1/2+x,1/2-y,1/2+z
_cell_length_a                   8.32460(10)
_cell_length_b                   9.02140(10)
_cell_length_c                   29.4217(5)
_cell_angle_alpha                90.00
_cell_angle_beta                 94.6680(10)
_cell_angle_gamma                90.00
_cell_volume                     2202.23
_cell_formula_units_Z            4
loop_
_atom_site_label
_atom_site_type_symbol
_atom_site_fract_x
_atom_site_fract_y
_atom_site_fract_z
B1 B 0.6020(2) 0.7111(2) 0.11711(7)
N1 N 0.58713(17) 0.53633(16) 0.11770(5)
N2 N 0.42978(18) 0.76767(16) 0.12699(5)
C1 C 0.6913(2) 0.4310(2) 0.10469(6)
C2 C 0.6387(2) 0.2892(2) 0.11834(6)
H1 H 0.6869 0.1989 0.1125
C3 C 0.5038(2) 0.3091(2) 0.14168(6)
H2 H 0.4458 0.2355 0.1552
C4 C 0.4699(2) 0.46330(19) 0.14126(6)
C5 C 0.3438(2) 0.5388(2) 0.15973(6)
C6 C 0.3224(2) 0.69132(19) 0.15216(6)
C7 C 0.1917(2) 0.7859(2) 0.15945(6)
H3 H 0.1029 0.7632 0.1754
C8 C 0.2215(2) 0.9191(2) 0.13830(7)
H4 H 0.1561 1.0028 0.1372
C9 C 0.3691(2) 0.9041(2) 0.11872(7)
H5 H 0.4177 0.9776 0.1024
C10 C 0.2278(2) 0.4574(2) 0.18538(6)
S1 S 0.19499(10) 0.50013(9) 0.23955(3)
C11 C 0.1249(6) 0.3366(6) 0.16969(16)
H6 H 0.1248 0.2954 0.1407
C12 C 0.0264(4) 0.2887(3) 0.20211(13)
H7 H -0.0484 0.2125 0.1974
C13 C 0.0514(4) 0.3653(4) 0.24163(11)
H8 H -0.0039 0.3466 0.2673
C17 C 0.6387(2) 0.7751(2) 0.06798(6)
S3 S 0.52566(13) 0.71236(11) 0.02069(3)
C18 C 0.7359(5) 0.8881(5) 0.05505(14)
H12 H 0.8030 0.9389 0.0766
C19 C 0.7318(6) 0.9252(5) 0.00847(17)
H13 H 0.7939 0.9967 -0.0046
C20 C 0.6204(6) 0.8371(6) -0.01338(17)
H14 H 0.5957 0.8425 -0.0447
S5 S 0.77189(6) 0.93881(5) 0.174339(16)
C24 C 0.7225(2) 0.75660(19) 0.16089(6)
C25 C 0.7811(2) 0.6656(2) 0.19680(6)
H18 H 0.7692 0.5630 0.1966
C26 C 0.8615(2) 0.7460(2) 0.23406(6)
H19 H 0.9058 0.7012 0.2607
C27 C 0.8661(2) 0.8944(2) 0.22648(6)
H20 H 0.9142 0.9629 0.2469
S6 S 0.91661(6) 0.31106(6) 0.052621(17)
C28 C 0.8393(2) 0.4563(2) 0.08316(6)
C29 C 0.9454(2) 0.5736(2) 0.08580(6)
H21 H 0.9264 0.6617 0.1009
C30 C 1.0865(2) 0.5467(2) 0.06324(7)
H22 H 1.1697 0.6149 0.0619
C31 C 1.0868(2) 0.4092(3) 0.04370(7)
H23 H 1.1698 0.3732 0.0275
C14? C 0.0216(8) 0.3049(8) 0.2176(3)
H9? H -0.0578 0.2355 0.2224
C15? C 0.0683(9) 0.4085(10) 0.2479(3)
H10? H 0.0356 0.4179 0.2772
C16? C 0.1770(19) 0.5014(17) 0.2271(5)
H11? H 0.2135 0.5893 0.2408
S2? S 0.1239(3) 0.3108(3) 0.16697(9)
C21? C 0.5624(9) 0.7396(8) 0.0236(2)
H15? H 0.4905 0.6607 0.0205
S4? S 0.7670(2) 0.9196(2) 0.05947(5)
C22? C 0.7055(9) 0.9205(8) 0.0020(3)
H16? H 0.7485 0.9886 -0.0175
C23? C 0.5944(9) 0.8210(8) -0.0144(2)
H17? H 0.5499 0.8098 -0.0442
loop_
_geom_bond_atom_site_label_1
_geom_bond_atom_site_label_2
_geom_bond_site_symmetry_1
_geom_bond_site_symmetry_2
B1 N1 1_555 1_555
N1 C1 1_555 1_555
N2 B1 1_555 1_555
C1 C2 1_555 1_555
C2 H1 1_555 1_555
C3 C2 1_555 1_555
H2 C3 1_555 1_555
C4 N1 1_555 1_555
C5 C4 1_555 1_555
C6 N2 1_555 1_555
C7 C6 1_555 1_555
H3 C7 1_555 1_555
C8 C7 1_555 1_555
H4 C8 1_555 1_555
C9 N2 1_555 1_555
H5 C9 1_555 1_555
C10 C5 1_555 1_555
S1 C10 1_555 1_555
C11 C10 1_555 1_555
H6 C11 1_555 1_555
C12 C11 1_555 1_555
H7 C12 1_555 1_555
C13 S1 1_555 1_555
H8 C13 1_555 1_555
C17 B1 1_555 1_555
S3 C17 1_555 1_555
C18 C17 1_555 1_555
H12 C18 1_555 1_555
C19 C18 1_555 1_555
H13 C19 1_555 1_555
C20 S3 1_555 1_555
H14 C20 1_555 1_555
S5 C24 1_555 1_555
C24 B1 1_555 1_555
C25 C24 1_555 1_555
H18 C25 1_555 1_555
C26 C25 1_555 1_555
H19 C26 1_555 1_555
C27 S5 1_555 1_555
H20 C27 1_555 1_555
S6 C28 1_555 1_555
C28 C1 1_555 1_555
C29 C28 1_555 1_555
H21 C29 1_555 1_555
C30 C29 1_555 1_555
H22 C30 1_555 1_555
C31 S6 1_555 1_555
H23 C31 1_555 1_555
C3 C4 1_555 1_555
C5 C6 1_555 1_555
C8 C9 1_555 1_555
C12 C13 1_555 1_555
C19 C20 1_555 1_555
C26 C27 1_555 1_555
C30 C31 1_555 1_555

#END
