
#######################################################################
#
#                 Cambridge Crystallographic Data Centre
#                                CCDC 
#
#######################################################################
#
# If this CIF has been generated from an entry in the Cambridge 
# Structural Database, then it will include bibliographic, chemical, 
# crystal, experimental, refinement or atomic coordinate data resulting 
# from the CCDC's data processing and validation procedures.
#
#######################################################################

data_MOTPAO
_chemical_formula_moiety         'C31 H24 N2 O4'
_chemical_name_systematic        
1-methyl-4,10,14-triphenyl-4,10-diazatetracyclo[5.5.2.0^2,6^.0^8,12^]tetradec-13-ene-3,5,9,11-tetrone
_symmetry_cell_setting           monoclinic
_symmetry_space_group_name_H-M   'P 21/n'
_symmetry_Int_Tables_number      14
_space_group_name_Hall           '-P 2yn'
loop_
_symmetry_equiv_pos_site_id
_symmetry_equiv_pos_as_xyz
1 x,y,z
2 1/2-x,1/2+y,1/2-z
3 -x,-y,-z
4 1/2+x,1/2-y,1/2+z
_cell_length_a                   18.440(2)
_cell_length_b                   6.9180(10)
_cell_length_c                   19.474(3)
_cell_angle_alpha                90
_cell_angle_beta                 90.538(6)
_cell_angle_gamma                90
_cell_volume                     2484.15
_exptl_crystal_colour            colorless
_exptl_crystal_description       prism
_cell_formula_units_Z            4
loop_
_atom_site_label
_atom_site_type_symbol
_atom_site_fract_x
_atom_site_fract_y
_atom_site_fract_z
O1 O 0.06810(7) 0.59300(19) 0.55971(6)
O2 O 0.21396(8) 0.06288(19) 0.57536(6)
O3 O 0.22660(6) 0.81951(18) 0.30385(6)
O4 O 0.37315(7) 0.30166(17) 0.34364(6)
N1 N 0.14378(8) 0.3377(2) 0.58391(7)
N2 N 0.31287(7) 0.58386(19) 0.31700(6)
C1 C 0.10746(9) 0.4662(3) 0.53980(8)
C2 C 0.12699(9) 0.4152(2) 0.46602(8)
H1 H 0.0825 0.3787 0.4393
C3 C 0.16685(9) 0.5873(2) 0.43033(8)
C4 C 0.19582(9) 0.5111(2) 0.35969(8)
H2 H 0.1542 0.4740 0.3291
C5 C 0.24346(9) 0.6601(3) 0.32383(8)
C6 C 0.31826(10) 0.3960(2) 0.34247(8)
C7 C 0.24582(9) 0.3379(2) 0.37083(8)
H3 H 0.2265 0.2218 0.3461
C8 C 0.25425(10) 0.2958(2) 0.44833(8)
H4 H 0.2896 0.1886 0.4569
C9 C 0.17769(10) 0.2413(3) 0.47339(9)
H5 H 0.1583 0.1283 0.4469
C10 C 0.18150(10) 0.1954(3) 0.54864(9)
C11 C 0.23303(9) 0.6290(2) 0.47395(8)
H6 H 0.2418 0.7528 0.4934
C12 C 0.27857(9) 0.4813(2) 0.48353(8)
C13 C 0.11489(10) 0.7563(3) 0.42010(9)
H7 H 0.0992 0.8041 0.4649
H8 H 0.0725 0.7133 0.3935
H9 H 0.1395 0.8602 0.3953
C14 C 0.34734(10) 0.4893(3) 0.52300(8)
C15 C 0.38851(10) 0.6571(3) 0.52421(9)
H10 H 0.3723 0.7679 0.4996
C16 C 0.45338(11) 0.6641(4) 0.56121(11)
H11 H 0.4816 0.7789 0.5616
C17 C 0.47639(12) 0.5045(5) 0.59718(11)
H12 H 0.5207 0.5098 0.6225
C18 C 0.43670(13) 0.3390(4) 0.59712(11)
H13 H 0.4529 0.2300 0.6226
C19 C 0.37246(11) 0.3297(3) 0.55971(10)
H14 H 0.3453 0.2131 0.5591
C20 C 0.14799(9) 0.3588(3) 0.65740(8)
C21 C 0.17957(10) 0.5235(3) 0.68452(9)
H15 H 0.1967 0.6226 0.6551
C22 C 0.18588(11) 0.5424(3) 0.75526(10)
H16 H 0.2072 0.6554 0.7745
C23 C 0.16138(12) 0.3979(4) 0.79748(10)
H17 H 0.1658 0.4116 0.8459
C24 C 0.13048(12) 0.2337(3) 0.77031(10)
H18 H 0.1141 0.1340 0.7999
C25 C 0.12311(11) 0.2130(3) 0.69918(10)
H19 H 0.1014 0.1005 0.6800
C26 C 0.37194(9) 0.6835(2) 0.28496(8)
C27 C 0.39247(9) 0.8649(2) 0.30757(8)
H20 H 0.3675 0.9249 0.3443
C28 C 0.44988(9) 0.9588(3) 0.27619(8)
H21 H 0.4644 1.0834 0.2916
C29 C 0.48618(9) 0.8708(3) 0.22229(9)
H22 H 0.5254 0.9352 0.2007
C30 C 0.46509(9) 0.6891(3) 0.20015(9)
H23 H 0.4898 0.6295 0.1632
C31 C 0.40824(9) 0.5932(3) 0.23147(8)
H24 H 0.3943 0.4677 0.2166
loop_
_geom_bond_atom_site_label_1
_geom_bond_atom_site_label_2
_geom_bond_site_symmetry_1
_geom_bond_site_symmetry_2
O1 C1 1_555 1_555
O2 C10 1_555 1_555
O3 C5 1_555 1_555
O4 C6 1_555 1_555
N1 C1 1_555 1_555
N2 C5 1_555 1_555
C1 C2 1_555 1_555
C2 H1 1_555 1_555
C3 C2 1_555 1_555
C4 C3 1_555 1_555
H2 C4 1_555 1_555
C5 C4 1_555 1_555
C6 N2 1_555 1_555
C7 C4 1_555 1_555
H3 C7 1_555 1_555
C8 C7 1_555 1_555
H4 C8 1_555 1_555
C9 C2 1_555 1_555
H5 C9 1_555 1_555
C10 N1 1_555 1_555
C11 C3 1_555 1_555
H6 C11 1_555 1_555
C12 C8 1_555 1_555
C13 C3 1_555 1_555
H7 C13 1_555 1_555
H8 C13 1_555 1_555
H9 C13 1_555 1_555
C14 C12 1_555 1_555
C15 C14 1_555 1_555
H10 C15 1_555 1_555
C16 C15 1_555 1_555
H11 C16 1_555 1_555
C17 C16 1_555 1_555
H12 C17 1_555 1_555
C18 C17 1_555 1_555
H13 C18 1_555 1_555
C19 C14 1_555 1_555
H14 C19 1_555 1_555
C20 N1 1_555 1_555
C21 C20 1_555 1_555
H15 C21 1_555 1_555
C22 C21 1_555 1_555
H16 C22 1_555 1_555
C23 C22 1_555 1_555
H17 C23 1_555 1_555
C24 C23 1_555 1_555
H18 C24 1_555 1_555
C25 C20 1_555 1_555
H19 C25 1_555 1_555
C26 N2 1_555 1_555
C27 C26 1_555 1_555
H20 C27 1_555 1_555
C28 C27 1_555 1_555
H21 C28 1_555 1_555
C29 C28 1_555 1_555
H22 C29 1_555 1_555
C30 C29 1_555 1_555
H23 C30 1_555 1_555
C31 C26 1_555 1_555
H24 C31 1_555 1_555
C6 C7 1_555 1_555
C8 C9 1_555 1_555
C9 C10 1_555 1_555
C11 C12 1_555 1_555
C18 C19 1_555 1_555
C24 C25 1_555 1_555
C30 C31 1_555 1_555

#END
