
#######################################################################
#
#                 Cambridge Crystallographic Data Centre
#                                CCDC 
#
#######################################################################
#
# If this CIF has been generated from an entry in the Cambridge 
# Structural Database, then it will include bibliographic, chemical, 
# crystal, experimental, refinement or atomic coordinate data resulting 
# from the CCDC's data processing and validation procedures.
#
#######################################################################

data_MOTWUP02
_chemical_formula_moiety         '2(C72 H84 N12),C72 H69 N11'
_chemical_name_systematic        
'bis(5,12,20,27,35,42,50,57,62,69,74,81-Dodecaazatridecacyclo[29.29.10.10^16,46^.1^3,59^.1^14,18^.1^29,33^.1^44,48^.0^6,11^.0^21,26^.0^36,41^.0^51,56^.0^63,68^.0^75,80^]tetraoctaconta-1,3(71),4,12,14(84),15,17,19,27,29(83),30,32,34,42,44(72),45,47,49,57,59,61,69,73,81-tetracosaene) 10,28,45-triphenyl-1,4,10,16,19,22,28,34,39,45,51-undecaazaoctacyclo[17.17.17.2^6,9^.2^11,14^.2^24,27^.2^29,32^.2^41,44^.2^46,49^]pentahexaconta-4,6,8,11,13,15,22,24,26,29,31,33,39,41,43,46,48,50,54,56,58,60,62,64-tetracosaene'
_symmetry_cell_setting           rhombohedral
_symmetry_space_group_name_H-M   'R 3 2'
_symmetry_Int_Tables_number      155
_space_group_name_Hall           'R 3 2"'
loop_
_symmetry_equiv_pos_site_id
_symmetry_equiv_pos_as_xyz
1 x,y,z
2 -y,x-y,z
3 -x+y,-x,z
4 x-y,-y,-z
5 -x,-x+y,-z
6 y,x,-z
7 2/3+x,1/3+y,1/3+z
8 2/3-y,1/3+x-y,1/3+z
9 2/3-x+y,1/3-x,1/3+z
10 2/3+x-y,1/3-y,1/3-z
11 2/3-x,1/3-x+y,1/3-z
12 2/3+y,1/3+x,1/3-z
13 1/3+x,2/3+y,2/3+z
14 1/3-y,2/3+x-y,2/3+z
15 1/3-x+y,2/3-x,2/3+z
16 1/3+x-y,2/3-y,2/3-z
17 1/3-x,2/3-x+y,2/3-z
18 1/3+y,2/3+x,2/3-z
_cell_length_a                   20.4108(7)
_cell_length_b                   20.4108(7)
_cell_length_c                   44.6718(17)
_cell_angle_alpha                90
_cell_angle_beta                 90
_cell_angle_gamma                120
_cell_volume                     16117
_exptl_crystal_colour            colorless
_exptl_crystal_description       prism
_cell_formula_units_Z            3
loop_
_atom_site_label
_atom_site_type_symbol
_atom_site_fract_x
_atom_site_fract_y
_atom_site_fract_z
N5 N 0.77853(16) 0.96412(17) 0.49274(6)
N6 N 1.0000 1.0000 0.67199(11)
C25 C 0.7113(2) 0.9688(3) 0.49246(11)
C26 C 0.8212(2) 0.9848(2) 0.51985(8)
C27 C 0.5790(3) 0.9770(3) 0.49336(12)
C28 C 0.8259(2) 0.9706(2) 0.57304(8)
H29 H 0.8021 0.9457 0.5912
C29 C 0.9456(2) 1.0225(3) 0.67551(8)
H30 H 0.9517 1.0434 0.6960
H31 H 0.8953 0.9761 0.6748
C30 C 0.8953(3) 1.0424(2) 0.52034(10)
H32 H 0.9194 1.0668 0.5022
C31 C 0.7866(2) 0.9460(2) 0.54613(8)
H33 H 0.7369 0.9035 0.5457
C32 C 0.9432(3) 1.0791(3) 0.65423(9)
H34 H 0.9183 1.1043 0.6642
H35 H 0.9954 1.1184 0.6490
C33 C 0.8998(2) 1.0314(2) 0.57369(8)
C34 C 0.9352(3) 1.0655(3) 0.54711(13)
H36 H 0.9867 1.1045 0.5471
C35 C 0.9379(2) 1.0623(2) 0.60255(10)
H37 H 0.9905 1.0982 0.6027
N7 N 0.9023(2) 1.04230(19) 0.62735(7)
C36 C 0.6474(2) 0.9146(2) 0.47730(8)
H38 H 0.6490 0.8751 0.4666
C37 C 0.5814(2) 0.9186(3) 0.47783(9)
H39 H 0.5377 0.8816 0.4676
N5A N 1.03588(17) 0.81441(23) 0.49274(6)
C25A C 1.0312(3) 0.7425(4) 0.49246(11)
C26A C 1.0152(2) 0.8364(3) 0.51985(8)
C27A C 1.0230(3) 0.6020(4) 0.49336(12)
C28A C 1.0294(2) 0.8553(3) 0.57304(8)
H29A H 1.0543 0.8564 0.5912
C29A C 0.9775(3) 0.9231(4) 0.67551(8)
H30A H 0.9566 0.9083 0.6960
H31A H 1.0239 0.9192 0.6748
C30A C 0.9576(2) 0.8529(4) 0.52034(10)
H32A H 0.9332 0.8526 0.5022
C31A C 1.0540(2) 0.8406(3) 0.54613(8)
H33A H 1.0965 0.8334 0.5457
C32A C 0.9209(3) 0.8641(4) 0.65423(9)
H34A H 0.8957 0.8140 0.6642
H35A H 0.8816 0.8770 0.6490
C33A C 0.9686(2) 0.8684(3) 0.57369(8)
C34A C 0.9345(3) 0.8697(4) 0.54711(13)
H36A H 0.8955 0.8822 0.5471
C35A C 0.9377(2) 0.8756(3) 0.60255(10)
H37A H 0.9018 0.8923 0.6027
N7A N 0.95770(19) 0.86000(28) 0.62735(7)
C36A C 1.0854(2) 0.7328(3) 0.47730(8)
H38A H 1.1249 0.7739 0.4666
C37A C 1.0814(3) 0.6628(4) 0.47783(9)
H39A H 1.1184 0.6561 0.4676
N5B N 1.18559(23) 1.22147(16) 0.49274(6)
C25B C 1.2575(4) 1.2887(2) 0.49246(11)
C26B C 1.1636(3) 1.1788(2) 0.51985(8)
C27B C 1.3980(4) 1.4210(3) 0.49336(12)
C28B C 1.1447(3) 1.1741(2) 0.57304(8)
H29B H 1.1436 1.1979 0.5912
C29B C 1.0769(4) 1.0544(2) 0.67551(8)
H30B H 1.0917 1.0483 0.6960
H31B H 1.0808 1.1047 0.6748
C30B C 1.1471(4) 1.1047(3) 0.52034(10)
H32B H 1.1474 1.0806 0.5022
C31B C 1.1594(3) 1.2134(2) 0.54613(8)
H33B H 1.1666 1.2631 0.5457
C32B C 1.1359(4) 1.0568(3) 0.65423(9)
H34B H 1.1860 1.0817 0.6642
H35B H 1.1230 1.0046 0.6490
C33B C 1.1316(3) 1.1002(2) 0.57369(8)
C34B C 1.1303(4) 1.0648(3) 0.54711(13)
H36B H 1.1178 1.0133 0.5471
C35B C 1.1244(3) 1.0621(2) 0.60255(10)
H37B H 1.1077 1.0095 0.6027
N7B N 1.14000(28) 1.0977(2) 0.62735(7)
C36B C 1.2672(3) 1.3526(2) 0.47730(8)
H38B H 1.2261 1.3510 0.4666
C37B C 1.3372(4) 1.4186(2) 0.47783(9)
H39B H 1.3439 1.4623 0.4676
N5C N 0.81441(23) 1.03588(17) 0.50726(6)
N6C N 1.0000 1.0000 0.32801(11)
C25C C 0.7425(4) 1.0312(3) 0.50754(11)
C26C C 0.8364(3) 1.0152(2) 0.48015(8)
C27C C 0.6020(4) 1.0230(3) 0.50664(12)
C28C C 0.8553(3) 1.0294(2) 0.42696(8)
H29C H 0.8564 1.0543 0.4088
C29C C 0.9231(4) 0.9775(3) 0.32449(8)
H30C H 0.9083 0.9566 0.3040
H31C H 0.9192 1.0239 0.3252
C30C C 0.8529(4) 0.9576(2) 0.47966(10)
H32C H 0.8526 0.9332 0.4978
C31C C 0.8406(3) 1.0540(2) 0.45387(8)
H33C H 0.8334 1.0965 0.4543
C32C C 0.8641(4) 0.9209(3) 0.34577(9)
H34C H 0.8140 0.8957 0.3358
H35C H 0.8770 0.8816 0.3510
C33C C 0.8684(3) 0.9686(2) 0.42631(8)
C34C C 0.8697(4) 0.9345(3) 0.45289(13)
H36C H 0.8822 0.8955 0.4529
C35C C 0.8756(3) 0.9377(2) 0.39745(10)
H37C H 0.8923 0.9018 0.3973
N7C N 0.86000(28) 0.95770(19) 0.37265(7)
C36C C 0.7328(3) 1.0854(2) 0.52270(8)
H38C H 0.7739 1.1249 0.5334
C37C C 0.6628(4) 1.0814(3) 0.52217(9)
H39C H 0.6561 1.1184 0.5324
N5D N 1.22147(16) 1.18559(23) 0.50726(6)
C25D C 1.2887(2) 1.2575(4) 0.50754(11)
C26D C 1.1788(2) 1.1636(3) 0.48015(8)
C27D C 1.4210(3) 1.3980(4) 0.50664(12)
C28D C 1.1741(2) 1.1447(3) 0.42696(8)
H29D H 1.1979 1.1436 0.4088
C29D C 1.0544(2) 1.0769(4) 0.32449(8)
H30D H 1.0483 1.0917 0.3040
H31D H 1.1047 1.0808 0.3252
C30D C 1.1047(3) 1.1471(4) 0.47966(10)
H32D H 1.0806 1.1474 0.4978
C31D C 1.2134(2) 1.1594(3) 0.45387(8)
H33D H 1.2631 1.1666 0.4543
C32D C 1.0568(3) 1.1359(4) 0.34577(9)
H34D H 1.0817 1.1860 0.3358
H35D H 1.0046 1.1230 0.3510
C33D C 1.1002(2) 1.1316(3) 0.42631(8)
C34D C 1.0648(3) 1.1303(4) 0.45289(13)
H36D H 1.0133 1.1178 0.4529
C35D C 1.0621(2) 1.1244(3) 0.39745(10)
H37D H 1.0095 1.1077 0.3973
N7D N 1.0977(2) 1.14000(28) 0.37265(7)
C36D C 1.3526(2) 1.2672(3) 0.52270(8)
H38D H 1.3510 1.2261 0.5334
C37D C 1.4186(2) 1.3372(4) 0.52217(9)
H39D H 1.4623 1.3439 0.5324
N5E N 0.96412(17) 0.77853(16) 0.50726(6)
C25E C 0.9688(3) 0.7113(2) 0.50754(11)
C26E C 0.9848(2) 0.8212(2) 0.48015(8)
C27E C 0.9770(3) 0.5790(3) 0.50664(12)
C28E C 0.9706(2) 0.8259(2) 0.42696(8)
H29E H 0.9457 0.8021 0.4088
C29E C 1.0225(3) 0.9456(2) 0.32449(8)
H30E H 1.0434 0.9517 0.3040
H31E H 0.9761 0.8953 0.3252
C30E C 1.0424(2) 0.8953(3) 0.47966(10)
H32E H 1.0668 0.9194 0.4978
C31E C 0.9460(2) 0.7866(2) 0.45387(8)
H33E H 0.9035 0.7369 0.4543
C32E C 1.0791(3) 0.9432(3) 0.34577(9)
H34E H 1.1043 0.9183 0.3358
H35E H 1.1184 0.9954 0.3510
C33E C 1.0314(2) 0.8998(2) 0.42631(8)
C34E C 1.0655(3) 0.9352(3) 0.45289(13)
H36E H 1.1045 0.9867 0.4529
C35E C 1.0623(2) 0.9379(2) 0.39745(10)
H37E H 1.0982 0.9905 0.3973
N7E N 1.04230(19) 0.9023(2) 0.37265(7)
C36E C 0.9146(2) 0.6474(2) 0.52270(8)
H38E H 0.8751 0.6490 0.5334
C37E C 0.9186(3) 0.5814(2) 0.52217(9)
H39E H 0.8816 0.5377 0.5324
N1 N 0.29018(8) 0.42089(9) 0.58831(3)
N2 N 0.45155(8) 0.50924(8) 0.58043(3)
C1 C 0.51507(10) 0.62402(10) 0.53537(4)
H1 H 0.4987 0.5736 0.5292
C2 C 0.63338(10) 0.69508(10) 0.43896(4)
H2 H 0.6066 0.6386 0.4378
C3 C 0.55389(10) 0.68264(10) 0.51548(4)
C4 C 0.33984(10) 0.38947(9) 0.59338(4)
H3 H 0.3451 0.3668 0.5743
N3 N 0.52211(9) 0.68987(9) 0.41767(4)
C5 C 0.62253(12) 0.70798(12) 0.38352(4)
H4 H 0.6045 0.7299 0.3680
H5 H 0.5957 0.6525 0.3807
C6 C 0.58575(10) 0.85025(10) 0.56222(4)
H6 H 0.6088 0.8887 0.5475
N4 N 0.61884(9) 0.71843(8) 0.46802(3)
C7 C 0.57302(10) 0.66688(10) 0.48549(4)
H7 H 0.5500 0.6158 0.4790
C8 C 0.60406(10) 0.72601(10) 0.41443(4)
H8 H 0.6273 0.7820 0.4168
C9 C 0.52119(10) 0.71091(10) 0.57318(4)
H9 H 0.5099 0.7202 0.5928
C10 C 0.41797(10) 0.45156(10) 0.60368(4)
H10 H 0.4130 0.4749 0.6226
C11 C 0.46363(10) 0.57485(10) 0.58625(4)
H11 H 0.4493 0.5843 0.6053
C12 C 0.49940(10) 0.63754(10) 0.56446(4)
C13 C 0.57616(10) 0.75674(10) 0.52471(4)
H12 H 0.6029 0.7976 0.5112
C14 C 0.36343(11) 0.61885(11) 0.42861(5)
H13 H 0.3844 0.5865 0.4286
C15 C 0.70768(12) 0.73980(13) 0.37974(5)
H14 H 0.7177 0.7247 0.3600
H15 H 0.7341 0.7957 0.3805
C16 C 0.43480(12) 0.35282(12) 0.63172(5)
H16 H 0.4672 0.3296 0.6331
H17 H 0.4334 0.3732 0.6517
C17 C 0.49403(11) 0.73013(11) 0.42528(5)
H18 H 0.5268 0.7825 0.4290
C18 C 0.73801(12) 0.71088(13) 0.40416(5)
H19 H 0.7936 0.7352 0.4022
H20 H 0.7164 0.6556 0.4018
C19 C 0.71852(11) 0.72728(11) 0.43528(4)
H21 H 0.7451 0.7827 0.4386
H22 H 0.7364 0.7048 0.4506
C20 C 0.55962(10) 0.77112(10) 0.55329(4)
C21 C 0.41186(11) 0.69807(11) 0.42861(5)
C22 C 0.30534(11) 0.32809(11) 0.61744(4)
H23 H 0.3001 0.3504 0.6363
H24 H 0.2543 0.2884 0.6111
C23 C 0.46869(11) 0.41733(11) 0.60902(4)
H25 H 0.4767 0.3981 0.5898
H26 H 0.5186 0.4573 0.6163
C24 C 0.35510(12) 0.29280(11) 0.62276(5)
H27 H 0.3326 0.2543 0.6388
H28 H 0.3572 0.2672 0.6043
N1A N 0.57911(9) 0.86929(12) 0.58831(3)
N2A N 0.49076(8) 0.94231(11) 0.58043(3)
C1A C 0.37598(10) 0.89105(14) 0.53537(4)
H1A H 0.4264 0.9251 0.5292
C2A C 0.30492(10) 0.93830(14) 0.43896(4)
H2A H 0.3614 0.9680 0.4378
C3A C 0.31736(10) 0.87125(14) 0.51548(4)
C4A C 0.61053(9) 0.95037(13) 0.59338(4)
H3A H 0.6332 0.9783 0.5743
N3A N 0.31013(9) 0.83224(13) 0.41767(4)
C5A C 0.29202(12) 0.91455(17) 0.38352(4)
H4A H 0.2701 0.8746 0.3680
H5A H 0.3475 0.9432 0.3807
C6A C 0.14975(10) 0.73550(14) 0.56222(4)
H6A H 0.1113 0.7201 0.5475
N4A N 0.28157(8) 0.90041(12) 0.46802(3)
C7A C 0.33312(10) 0.90614(14) 0.48549(4)
H7A H 0.3842 0.9342 0.4790
C8A C 0.27399(10) 0.87805(14) 0.41443(4)
H8A H 0.2180 0.8453 0.4168
C9A C 0.28909(10) 0.81028(14) 0.57318(4)
H9A H 0.2798 0.7897 0.5928
C10A C 0.54844(10) 0.96641(14) 0.60368(4)
H10A H 0.5251 0.9381 0.6226
C11A C 0.42515(10) 0.88878(14) 0.58625(4)
H11A H 0.4157 0.8650 0.6053
C12A C 0.36246(10) 0.86186(14) 0.56446(4)
C13A C 0.24326(10) 0.81942(14) 0.52471(4)
H12A H 0.2024 0.8053 0.5112
C14A C 0.38115(11) 0.74458(16) 0.42861(5)
H13A H 0.4135 0.7979 0.4286
C15A C 0.26020(13) 0.96788(18) 0.37974(5)
H14A H 0.2753 0.9930 0.3600
H15A H 0.2043 0.9384 0.3805
C16A C 0.64718(12) 1.08198(17) 0.63172(5)
H16A H 0.6704 1.1376 0.6331
H17A H 0.6268 1.0602 0.6517
C17A C 0.26987(11) 0.76390(16) 0.42528(5)
H18A H 0.2175 0.7443 0.4290
C18A C 0.28912(13) 1.02713(18) 0.40416(5)
H19A H 0.2648 1.0584 0.4022
H20A H 0.3444 1.0608 0.4018
C19A C 0.27272(11) 0.99124(16) 0.43528(4)
H21A H 0.2173 0.9624 0.4386
H22A H 0.2952 1.0316 0.4506
C20A C 0.22888(10) 0.78850(14) 0.55329(4)
C21A C 0.30193(11) 0.71379(16) 0.42861(5)
C22A C 0.67191(11) 0.97725(16) 0.61744(4)
H23A H 0.6496 0.9497 0.6363
H24A H 0.7116 0.9659 0.6111
C23A C 0.58267(11) 1.05136(16) 0.60902(4)
H25A H 0.6019 1.0786 0.5898
H26A H 0.5427 1.0613 0.6163
C24A C 0.70720(11) 1.06230(16) 0.62276(5)
H27A H 0.7457 1.0783 0.6388
H28A H 0.7328 1.0900 0.6043
N1B N 0.13071(12) 0.70982(8) 0.58831(3)
N2B N 0.05769(11) 0.54845(8) 0.58043(3)
C1B C 0.10895(14) 0.48493(10) 0.53537(4)
H1B H 0.0749 0.5013 0.5292
C2B C 0.06170(14) 0.36662(10) 0.43896(4)
H2B H 0.0320 0.3934 0.4378
C3B C 0.12875(14) 0.44611(10) 0.51548(4)
C4B C 0.04963(13) 0.66016(10) 0.59338(4)
H3B H 0.0217 0.6549 0.5743
N3B N 0.16776(13) 0.47789(9) 0.41767(4)
C5B C 0.08545(17) 0.37747(12) 0.38352(4)
H4B H 0.1254 0.3955 0.3680
H5B H 0.0568 0.4043 0.3807
C6B C 0.26450(14) 0.41425(10) 0.56222(4)
H6B H 0.2799 0.3912 0.5475
N4B N 0.09959(12) 0.38116(9) 0.46802(3)
C7B C 0.09386(14) 0.42698(10) 0.48549(4)
H7B H 0.0658 0.4500 0.4790
C8B C 0.12195(14) 0.39594(10) 0.41443(4)
H8B H 0.1547 0.3727 0.4168
C9B C 0.18972(14) 0.47881(10) 0.57318(4)
H9B H 0.2103 0.4901 0.5928
C10B C 0.03359(14) 0.58203(10) 0.60368(4)
H10B H 0.0619 0.5870 0.6226
C11B C 0.11122(14) 0.53637(10) 0.58625(4)
H11B H 0.1350 0.5507 0.6053
C12B C 0.13814(14) 0.50060(10) 0.56446(4)
C13B C 0.18058(14) 0.42384(10) 0.52471(4)
H12B H 0.1947 0.3971 0.5112
C14B C 0.25542(16) 0.63657(11) 0.42861(5)
H13B H 0.2021 0.6156 0.4286
C15B C 0.03212(18) 0.29232(12) 0.37974(5)
H14B H 0.0070 0.2823 0.3600
H15B H 0.0616 0.2659 0.3805
C16B C -0.08198(17) 0.56520(12) 0.63172(5)
H16B H -0.1376 0.5328 0.6331
H17B H -0.0602 0.5666 0.6517
C17B C 0.23610(16) 0.50597(11) 0.42528(5)
H18B H 0.2557 0.4732 0.4290
C18B C -0.02713(18) 0.26199(12) 0.40416(5)
H19B H -0.0584 0.2064 0.4022
H20B H -0.0608 0.2836 0.4018
C19B C 0.00876(16) 0.28148(11) 0.43528(4)
H21B H 0.0376 0.2549 0.4386
H22B H -0.0316 0.2636 0.4506
C20B C 0.21150(14) 0.44038(10) 0.55329(4)
C21B C 0.28621(16) 0.58814(11) 0.42861(5)
C22B C 0.02275(16) 0.69466(11) 0.61744(4)
H23B H 0.0503 0.6999 0.6363
H24B H 0.0341 0.7457 0.6111
C23B C -0.05136(16) 0.53131(11) 0.60902(4)
H25B H -0.0786 0.5233 0.5898
H26B H -0.0613 0.4814 0.6163
C24B C -0.06230(16) 0.64490(12) 0.62276(5)
H27B H -0.0783 0.6674 0.6388
H28B H -0.0900 0.6428 0.6043
C38? C 0.80715(19) 0.94813(19) 0.46671(8)
C39? C 0.8872(2) 0.9053(2) 0.44391(9)
H40? H 0.9224 0.8880 0.4460
C40? C 0.81493(19) 0.9423(2) 0.41315(8)
H41? H 0.7995 0.9490 0.3939
C41? C 0.89348(19) 0.89422(19) 0.38889(8)
H42? H 0.9305 0.8795 0.3914
C42? C 0.8582(2) 0.9215(3) 0.46936(13)
H43? H 0.8732 0.9143 0.4887
N8? N 0.87071(16) 0.89570(17) 0.36285(7)
C43? C 0.7879(2) 0.9601(2) 0.43806(8)
H44? H 0.7556 0.9808 0.4358
C44? C 0.9289(2) 0.9321(2) 0.31346(8)
H45? H 0.8904 0.9461 0.3082
H46? H 0.9427 0.9138 0.2953
C45? C 0.9007(2) 0.8729(2) 0.33814(8)
H47? H 0.8607 0.8239 0.3301
H48? H 0.9428 0.8662 0.3453
C46? C 0.86520(19) 0.9143(2) 0.41572(9)
C47? C 0.6417(3) 1.0292(3) 0.50859(11)
H49? H 0.5717 0.9321 0.4804
C48? C 0.7089(3) 1.0267(3) 0.50827(13)
H50? H 0.6886 0.9363 0.4814
H51? H 0.5342 0.9803 0.4933
loop_
_geom_bond_atom_site_label_1
_geom_bond_atom_site_label_2
_geom_bond_site_symmetry_1
_geom_bond_site_symmetry_2
N1 C4 1_555 1_555
N2 C10 1_555 1_555
C1 H1 1_555 1_555
C2 H2 1_555 1_555
C3 C1 1_555 1_555
C4 H3 1_555 1_555
N3 C8 1_555 1_555
C5 H4 1_555 1_555
H5 C5 1_555 1_555
C6 H6 1_555 1_555
N4 C2 1_555 1_555
C7 C3 1_555 1_555
H7 C7 1_555 1_555
C8 C2 1_555 1_555
H8 C8 1_555 1_555
C9 H9 1_555 1_555
C10 C4 1_555 1_555
H10 C10 1_555 1_555
C11 N2 1_555 1_555
H11 C11 1_555 1_555
C12 C1 1_555 1_555
C13 C3 1_555 1_555
H12 C13 1_555 1_555
C14 H13 1_555 1_555
C15 C5 1_555 1_555
H14 C15 1_555 1_555
H15 C15 1_555 1_555
C16 H16 1_555 1_555
H17 C16 1_555 1_555
C17 N3 1_555 1_555
H18 C17 1_555 1_555
C18 C15 1_555 1_555
H19 C18 1_555 1_555
H20 C18 1_555 1_555
C19 C2 1_555 1_555
H21 C19 1_555 1_555
H22 C19 1_555 1_555
C20 C6 1_555 1_555
C21 C14 1_555 1_555
C22 C4 1_555 1_555
H23 C22 1_555 1_555
H24 C22 1_555 1_555
C23 C10 1_555 1_555
H25 C23 1_555 1_555
H26 C23 1_555 1_555
C24 C16 1_555 1_555
H27 C24 1_555 1_555
H28 C24 1_555 1_555
N5 C25 1_555 1_555
N6 C29 1_555 1_555
C25 C36 1_555 1_555
C26 N5 1_555 1_555
C27 C37 1_555 1_555
C28 H29 1_555 1_555
C29 H30 1_555 1_555
H31 C29 1_555 1_555
C30 C26 1_555 1_555
H32 C30 1_555 1_555
C31 C26 1_555 1_555
H33 C31 1_555 1_555
C32 C29 1_555 1_555
H34 C32 1_555 1_555
H35 C32 1_555 1_555
C33 C28 1_555 1_555
C34 C30 1_555 1_555
H36 C34 1_555 1_555
C35 C33 1_555 1_555
H37 C35 1_555 1_555
N7 C32 1_555 1_555
C36 H38 1_555 1_555
C37 C36 1_555 1_555
H39 C37 1_555 1_555
N1A C6 1_555 1_555
N2A C10A 1_555 1_555
C1A H1A 1_555 1_555
C2A H2A 1_555 1_555
C3A C1A 1_555 1_555
C4A N1A 1_555 1_555
H3A C4A 1_555 1_555
N3A C8A 1_555 1_555
C5A H4A 1_555 1_555
H5A C5A 1_555 1_555
C6A H6A 1_555 1_555
N4A C2A 1_555 1_555
C7A C3A 1_555 1_555
H7A C7A 1_555 1_555
C8A C2A 1_555 1_555
H8A C8A 1_555 1_555
C9A H9A 1_555 1_555
C10A C4A 1_555 1_555
H10A C10A 1_555 1_555
C11A N2A 1_555 1_555
H11A C11A 1_555 1_555
C12A C1A 1_555 1_555
C13A C3A 1_555 1_555
H12A C13A 1_555 1_555
C14A C21 1_555 1_555
H13A C14A 1_555 1_555
C15A C5A 1_555 1_555
H14A C15A 1_555 1_555
H15A C15A 1_555 1_555
C16A H16A 1_555 1_555
H17A C16A 1_555 1_555
C17A N3A 1_555 1_555
H18A C17A 1_555 1_555
C18A C15A 1_555 1_555
H19A C18A 1_555 1_555
H20A C18A 1_555 1_555
C19A C2A 1_555 1_555
H21A C19A 1_555 1_555
H22A C19A 1_555 1_555
C20A C6A 1_555 1_555
C21A C14A 1_555 1_555
C22A C4A 1_555 1_555
H23A C22A 1_555 1_555
H24A C22A 1_555 1_555
C23A C10A 1_555 1_555
H25A C23A 1_555 1_555
H26A C23A 1_555 1_555
C24A C16A 1_555 1_555
H27A C24A 1_555 1_555
H28A C24A 1_555 1_555
N1B C6A 1_555 1_555
N2B C10B 1_555 1_555
C1B H1B 1_555 1_555
C2B H2B 1_555 1_555
C3B C1B 1_555 1_555
C4B N1B 1_555 1_555
H3B C4B 1_555 1_555
N3B C8B 1_555 1_555
C5B H4B 1_555 1_555
H5B C5B 1_555 1_555
C6B N1 1_555 1_555
H6B C6B 1_555 1_555
N4B C2B 1_555 1_555
C7B C3B 1_555 1_555
H7B C7B 1_555 1_555
C8B C2B 1_555 1_555
H8B C8B 1_555 1_555
C9B H9B 1_555 1_555
C10B C4B 1_555 1_555
H10B C10B 1_555 1_555
C11B N2B 1_555 1_555
H11B C11B 1_555 1_555
C12B C1B 1_555 1_555
C13B C3B 1_555 1_555
H12B C13B 1_555 1_555
C14B C21A 1_555 1_555
H13B C14B 1_555 1_555
C15B C5B 1_555 1_555
H14B C15B 1_555 1_555
H15B C15B 1_555 1_555
C16B H16B 1_555 1_555
H17B C16B 1_555 1_555
C17B N3B 1_555 1_555
H18B C17B 1_555 1_555
C18B C15B 1_555 1_555
H19B C18B 1_555 1_555
H20B C18B 1_555 1_555
C19B C2B 1_555 1_555
H21B C19B 1_555 1_555
H22B C19B 1_555 1_555
C20B C6B 1_555 1_555
C21B C14 1_555 1_555
C22B C4B 1_555 1_555
H23B C22B 1_555 1_555
H24B C22B 1_555 1_555
C23B C10B 1_555 1_555
H25B C23B 1_555 1_555
H26B C23B 1_555 1_555
C24B C16B 1_555 1_555
H27B C24B 1_555 1_555
H28B C24B 1_555 1_555
N5A C25A 1_555 1_555
C25A C36A 1_555 1_555
C26A N5A 1_555 1_555
C27A C37A 1_555 1_555
C28A H29A 1_555 1_555
C29A N6 1_555 1_555
H30A C29A 1_555 1_555
H31A C29A 1_555 1_555
C30A C26A 1_555 1_555
H32A C30A 1_555 1_555
C31A C26A 1_555 1_555
H33A C31A 1_555 1_555
C32A C29A 1_555 1_555
H34A C32A 1_555 1_555
H35A C32A 1_555 1_555
C33A C28A 1_555 1_555
C34A C30A 1_555 1_555
H36A C34A 1_555 1_555
C35A C33A 1_555 1_555
H37A C35A 1_555 1_555
N7A C32A 1_555 1_555
C36A H38A 1_555 1_555
C37A C36A 1_555 1_555
H39A C37A 1_555 1_555
N5B C25B 1_555 1_555
C25B C36B 1_555 1_555
C26B N5B 1_555 1_555
C27B C37B 1_555 1_555
C28B H29B 1_555 1_555
C29B N6 1_555 1_555
H30B C29B 1_555 1_555
H31B C29B 1_555 1_555
C30B C26B 1_555 1_555
H32B C30B 1_555 1_555
C31B C26B 1_555 1_555
H33B C31B 1_555 1_555
C32B C29B 1_555 1_555
H34B C32B 1_555 1_555
H35B C32B 1_555 1_555
C33B C28B 1_555 1_555
C34B C30B 1_555 1_555
H36B C34B 1_555 1_555
C35B C33B 1_555 1_555
H37B C35B 1_555 1_555
N7B C32B 1_555 1_555
C36B H38B 1_555 1_555
C37B C36B 1_555 1_555
H39B C37B 1_555 1_555
N5C N5 1_555 1_555
N6C C29C 1_555 1_555
C25C C25 1_555 1_555
C26C N5 1_555 1_555
C27C C27 1_555 1_555
C28C H29C 1_555 1_555
C29C H30C 1_555 1_555
H31C C29C 1_555 1_555
C30C N5 1_555 1_555
H32C C30C 1_555 1_555
C31C C26C 1_555 1_555
H33C C31C 1_555 1_555
C32C C29C 1_555 1_555
H34C C32C 1_555 1_555
H35C C32C 1_555 1_555
C33C C28C 1_555 1_555
C34C C30C 1_555 1_555
H36C C34C 1_555 1_555
C35C C33C 1_555 1_555
H37C C35C 1_555 1_555
N7C C32C 1_555 1_555
C36C C25C 1_555 1_555
H38C C36C 1_555 1_555
C37C C27C 1_555 1_555
H39C C37C 1_555 1_555
N5D N5B 1_555 1_555
C25D C25B 1_555 1_555
C26D N5B 1_555 1_555
C27D C27B 1_555 1_555
C28D H29D 1_555 1_555
C29D N6C 1_555 1_555
H30D C29D 1_555 1_555
H31D C29D 1_555 1_555
C30D N5B 1_555 1_555
H32D C30D 1_555 1_555
C31D C26D 1_555 1_555
H33D C31D 1_555 1_555
C32D C29D 1_555 1_555
H34D C32D 1_555 1_555
H35D C32D 1_555 1_555
C33D C28D 1_555 1_555
C34D C30D 1_555 1_555
H36D C34D 1_555 1_555
C35D C33D 1_555 1_555
H37D C35D 1_555 1_555
N7D C32D 1_555 1_555
C36D C25D 1_555 1_555
H38D C36D 1_555 1_555
C37D C27D 1_555 1_555
H39D C37D 1_555 1_555
N5E N5A 1_555 1_555
C25E C25A 1_555 1_555
C26E N5A 1_555 1_555
C27E C27A 1_555 1_555
C28E H29E 1_555 1_555
C29E N6C 1_555 1_555
H30E C29E 1_555 1_555
H31E C29E 1_555 1_555
C30E N5A 1_555 1_555
H32E C30E 1_555 1_555
C31E C26E 1_555 1_555
H33E C31E 1_555 1_555
C32E C29E 1_555 1_555
H34E C32E 1_555 1_555
H35E C32E 1_555 1_555
C33E C28E 1_555 1_555
C34E C30E 1_555 1_555
H36E C34E 1_555 1_555
C35E C33E 1_555 1_555
H37E C35E 1_555 1_555
N7E C32E 1_555 1_555
C36E C25E 1_555 1_555
H38E C36E 1_555 1_555
C37E C27E 1_555 1_555
H39E C37E 1_555 1_555
C5 C8 1_555 1_555
N4 C7 1_555 1_555
C9 C12 1_555 1_555
C9 C20 1_555 1_555
C11 C12 1_555 1_555
C13 C20 1_555 1_555
C16 C23 1_555 1_555
C17 C21 1_555 1_555
C18 C19 1_555 1_555
C22 C24 1_555 1_555
C26 N5C 1_555 1_555
C28 C31 1_555 1_555
C30 N5C 1_555 1_555
C33 C34 1_555 1_555
C35 N7 1_555 1_555
C5A C8A 1_555 1_555
N4A C7A 1_555 1_555
C9A C12A 1_555 1_555
C9A C20A 1_555 1_555
C11A C12A 1_555 1_555
C13A C20A 1_555 1_555
C16A C23A 1_555 1_555
C17A C21A 1_555 1_555
C18A C19A 1_555 1_555
C22A C24A 1_555 1_555
C5B C8B 1_555 1_555
N4B C7B 1_555 1_555
C9B C12B 1_555 1_555
C9B C20B 1_555 1_555
C11B C12B 1_555 1_555
C13B C20B 1_555 1_555
C14B C21B 1_555 1_555
C16B C23B 1_555 1_555
C17B C21B 1_555 1_555
C18B C19B 1_555 1_555
C22B C24B 1_555 1_555
C26A N5E 1_555 1_555
C28A C31A 1_555 1_555
C30A N5E 1_555 1_555
C33A C34A 1_555 1_555
C35A N7A 1_555 1_555
C26B N5D 1_555 1_555
C28B C31B 1_555 1_555
C30B N5D 1_555 1_555
C33B C34B 1_555 1_555
C35B N7B 1_555 1_555
N5C C25C 1_555 1_555
N5C C26C 1_555 1_555
C26C C30C 1_555 1_555
C28C C31C 1_555 1_555
C33C C34C 1_555 1_555
C35C N7C 1_555 1_555
C36C C37C 1_555 1_555
N5D C25D 1_555 1_555
N5D C26D 1_555 1_555
C26D C30D 1_555 1_555
C28D C31D 1_555 1_555
C33D C34D 1_555 1_555
C35D N7D 1_555 1_555
C36D C37D 1_555 1_555
N5E C25E 1_555 1_555
N5E C26E 1_555 1_555
C26E C30E 1_555 1_555
C28E C31E 1_555 1_555
C33E C34E 1_555 1_555
C35E N7E 1_555 1_555
C36E C37E 1_555 1_555

#END
