
#######################################################################
#
#                 Cambridge Crystallographic Data Centre
#                                CCDC 
#
#######################################################################
#
# If this CIF has been generated from an entry in the Cambridge 
# Structural Database, then it will include bibliographic, chemical, 
# crystal, experimental, refinement or atomic coordinate data resulting 
# from the CCDC's data processing and validation procedures.
#
#######################################################################

data_MOTWAV
_chemical_formula_moiety         'C30 H36 N8 O3,13(H2 O1)'
_chemical_name_systematic        
'39,40,41-Trioxa-1,4,11,14,17,24,29,36-octaazapentacyclo[12.12.12.1^6,9^.1^19,22^.1^31,34^]hentetraconta-4,6,8,10,17,19,21,23,29,31,33,35-dodecaene pentaoxidane tridecahydrate'
_symmetry_cell_setting           cubic
_symmetry_space_group_name_H-M   'P 41 3 2'
_symmetry_Int_Tables_number      213
_space_group_name_Hall           'P 4bd 2ab 3'
loop_
_symmetry_equiv_pos_site_id
_symmetry_equiv_pos_as_xyz
1 x,y,z
2 1/2-x,-y,1/2+z
3 -x,1/2+y,1/2-z
4 1/2+x,1/2-y,-z
5 z,x,y
6 1/2+z,1/2-x,-y
7 1/2-z,-x,1/2+y
8 -z,1/2+x,1/2-y
9 y,z,x
10 -y,1/2+z,1/2-x
11 1/2+y,1/2-z,-x
12 1/2-y,-z,1/2+x
13 3/4+y,1/4+x,1/4-z
14 3/4-y,3/4-x,3/4-z
15 1/4+y,1/4-x,3/4+z
16 1/4-y,3/4+x,1/4+z
17 3/4+x,1/4+z,1/4-y
18 1/4-x,3/4+z,1/4+y
19 3/4-x,3/4-z,3/4-y
20 1/4+x,1/4-z,3/4+y
21 3/4+z,1/4+y,1/4-x
22 1/4+z,1/4-y,3/4+x
23 1/4-z,3/4+y,1/4+x
24 3/4-z,3/4-y,3/4-x
_cell_length_a                   20.1798(8)
_cell_length_b                   20.1798(8)
_cell_length_c                   20.1798(8)
_cell_angle_alpha                90
_cell_angle_beta                 90
_cell_angle_gamma                90
_cell_volume                     8217.71
_exptl_crystal_colour            colorless
_cell_formula_units_Z            8
loop_
_atom_site_label
_atom_site_type_symbol
_atom_site_fract_x
_atom_site_fract_y
_atom_site_fract_z
N1 N 0.79705(10) 0.15375(9) 0.18999(10)
N2 N 0.99794(10) 0.34785(11) -0.00684(10)
N3 N 0.70361(10) 0.20361(10) 0.29639(10)
N4 N 0.99876(10) 0.49876(10) 0.00124(10)
O1 O 0.91195(7) 0.27135(8) 0.12617(8)
C1 C 0.85975(10) 0.22786(9) 0.12380(11)
C2 C 0.83944(11) 0.21964(11) 0.06014(11)
H1 H 0.8041 0.1924 0.0452
C3 C 0.88050(11) 0.25890(12) 0.02100(11)
H2 H 0.8784 0.2635 -0.0258
C4 C 0.92412(11) 0.28938(11) 0.06210(11)
C5 C 0.84230(10) 0.19755(10) 0.18643(10)
H3 H 0.8650 0.2106 0.2256
C6 C 0.97981(12) 0.33296(12) 0.05145(13)
H4 H 1.0030 0.3506 0.0884
C7 C 0.78546(14) 0.12295(13) 0.25465(14)
H5 H 0.8162 0.1421 0.2878
H6 H 0.7942 0.0748 0.2518
C8 C 0.71457(15) 0.13452(13) 0.27628(15)
H7 H 0.6843 0.1234 0.2393
H8 H 0.7040 0.1048 0.3139
C9 C 1.05525(13) 0.39116(14) -0.01526(15)
H9 H 1.0883 0.3692 -0.0440
H10 H 1.0761 0.3994 0.0284
C10 C 1.03477(15) 0.45625(14) -0.04590(14)
H11 H 1.0747 0.4799 -0.0617
H12 H 1.0062 0.4475 -0.0848
N1G N 0.81001(10) 0.29705(10) 0.34625(9)
N2G N 1.00684(10) 0.49794(10) 0.15215(11)
O1G O 0.87383(8) 0.41195(7) 0.22865(8)
C1G C 0.87620(11) 0.35975(10) 0.27214(9)
C2G C 0.93986(11) 0.33944(11) 0.28036(11)
H1G H 0.9548 0.3041 0.3076
C3G C 0.97900(11) 0.38050(11) 0.24110(12)
H2G H 1.0258 0.3784 0.2365
C4G C 0.93790(11) 0.42412(11) 0.21062(11)
C5G C 0.81357(10) 0.34230(10) 0.30245(10)
H3G H 0.7744 0.3650 0.2894
C6G C 0.94855(13) 0.47981(12) 0.16704(12)
H4G H 0.9116 0.5030 0.1494
C7G C 0.74535(14) 0.28546(14) 0.37705(13)
H5G H 0.7122 0.3162 0.3579
H6G H 0.7482 0.2942 0.4252
C8G C 0.72372(15) 0.21457(15) 0.36548(13)
H7G H 0.7607 0.1843 0.3766
H8G H 0.6861 0.2040 0.3952
C9G C 1.01526(15) 0.55525(13) 0.10884(14)
H9G H 1.0440 0.5883 0.1308
H10G H 0.9716 0.5761 0.1006
C10G C 1.04590(14) 0.53477(15) 0.04375(14)
H11G H 1.0617 0.5747 0.0201
H12G H 1.0848 0.5062 0.0525
N1J N 0.65375(9) 0.31001(10) 0.20295(10)
N2J N 0.84785(11) 0.50684(10) 0.00206(10)
O1J O 0.77135(8) 0.37383(8) 0.08805(7)
C1J C 0.72786(9) 0.37620(11) 0.14025(10)
C2J C 0.71964(11) 0.43986(11) 0.16056(11)
H1J H 0.6924 0.4548 0.1959
C3J C 0.75890(12) 0.47900(11) 0.11950(11)
H2J H 0.7635 0.5258 0.1216
C4J C 0.78938(11) 0.43790(11) 0.07588(11)
C5J C 0.69755(10) 0.31357(10) 0.15770(10)
H3J H 0.7106 0.2744 0.1350
C6J C 0.83296(12) 0.44855(13) 0.02019(12)
H4J H 0.8506 0.4116 -0.0030
C7J C 0.62295(13) 0.24535(14) 0.21454(14)
H5J H 0.6421 0.2122 0.1838
H6J H 0.5748 0.2482 0.2058
C8J C 0.63452(13) 0.22372(15) 0.28543(15)
H7J H 0.6234 0.2607 0.3157
H8J H 0.6048 0.1861 0.2960
C9J C 0.89116(14) 0.51526(15) -0.05525(13)
H9J H 0.8692 0.5440 -0.0883
H10J H 0.8994 0.4716 -0.0761
C10J C 0.95625(14) 0.54590(14) -0.03477(15)
H11J H 0.9799 0.5617 -0.0747
H12J H 0.9475 0.5848 -0.0062
O2 O 0.9760(5) 0.3750 -0.2260(5)
O3 O 0.96462(13) 0.28396(17) -0.12892(12)
O4 O 0.70399(14) 0.09916(18) 0.10013(16)
O5 O 0.6250 -0.1250 0.1250
O6 O 1.0886(2) 0.4274(4) -0.1944(3)
O7 O 1.1250 0.5444(9) -0.2056(9)
O8? O 0.9739(8) 0.3478(8) -0.2479(8)
O9? O 1.0917(5) 0.4841(7) -0.2139(4)
O10? O 0.7129(5) -0.0255(6) 0.1399(6)
loop_
_geom_bond_atom_site_label_1
_geom_bond_atom_site_label_2
_geom_bond_site_symmetry_1
_geom_bond_site_symmetry_2
N1 C5 1_555 1_555
N2 C6 1_555 1_555
N3 C8 1_555 1_555
N4 C10 1_555 1_555
O1 C1 1_555 1_555
C1 C2 1_555 1_555
C2 H1 1_555 1_555
C3 C2 1_555 1_555
H2 C3 1_555 1_555
C4 O1 1_555 1_555
C5 C1 1_555 1_555
H3 C5 1_555 1_555
C6 C4 1_555 1_555
H4 C6 1_555 1_555
C7 N1 1_555 1_555
H5 C7 1_555 1_555
H6 C7 1_555 1_555
C8 C7 1_555 1_555
H7 C8 1_555 1_555
H8 C8 1_555 1_555
C9 N2 1_555 1_555
H9 C9 1_555 1_555
H10 C9 1_555 1_555
C10 C9 1_555 1_555
H11 C10 1_555 1_555
H12 C10 1_555 1_555
N1G C5G 1_555 1_555
N2G C6G 1_555 1_555
O1G C1G 1_555 1_555
C1G C2G 1_555 1_555
C2G H1G 1_555 1_555
C3G C2G 1_555 1_555
H2G C3G 1_555 1_555
C4G O1G 1_555 1_555
C5G C1G 1_555 1_555
H3G C5G 1_555 1_555
C6G C4G 1_555 1_555
H4G C6G 1_555 1_555
C7G N1G 1_555 1_555
H5G C7G 1_555 1_555
H6G C7G 1_555 1_555
C8G N3 1_555 1_555
H7G C8G 1_555 1_555
H8G C8G 1_555 1_555
C9G N2G 1_555 1_555
H9G C9G 1_555 1_555
H10G C9G 1_555 1_555
C10G N4 1_555 1_555
H11G C10G 1_555 1_555
H12G C10G 1_555 1_555
N1J C5J 1_555 1_555
N2J C6J 1_555 1_555
O1J C1J 1_555 1_555
C1J C2J 1_555 1_555
C2J H1J 1_555 1_555
C3J C2J 1_555 1_555
H2J C3J 1_555 1_555
C4J O1J 1_555 1_555
C5J C1J 1_555 1_555
H3J C5J 1_555 1_555
C6J C4J 1_555 1_555
H4J C6J 1_555 1_555
C7J N1J 1_555 1_555
H5J C7J 1_555 1_555
H6J C7J 1_555 1_555
C8J N3 1_555 1_555
H7J C8J 1_555 1_555
H8J C8J 1_555 1_555
C9J N2J 1_555 1_555
H9J C9J 1_555 1_555
H10J C9J 1_555 1_555
C10J N4 1_555 1_555
H11J C10J 1_555 1_555
H12J C10J 1_555 1_555
C3 C4 1_555 1_555
C3G C4G 1_555 1_555
C7G C8G 1_555 1_555
C9G C10G 1_555 1_555
C3J C4J 1_555 1_555
C7J C8J 1_555 1_555
C9J C10J 1_555 1_555

#END
