
#######################################################################
#
#                 Cambridge Crystallographic Data Centre
#                                CCDC 
#
#######################################################################
#
# If this CIF has been generated from an entry in the Cambridge 
# Structural Database, then it will include bibliographic, chemical, 
# crystal, experimental, refinement or atomic coordinate data resulting 
# from the CCDC's data processing and validation procedures.
#
#######################################################################

data_MOTWUP01
_chemical_formula_moiety         '2(C72 H84 N12),C72 H69 N11'
_chemical_name_systematic        
'bis(5,12,20,27,35,42,50,57,62,69,74,81-Dodecaazatridecacyclo[29.29.10.10^16,46^.1^3,59^.1^14,18^.1^29,33^.1^44,48^.0^6,11^.0^21,26^.0^36,41^.0^51,56^.0^63,68^.0^75,80^]tetraoctaconta-1,3(71),4,12,14(84),15,17,19,27,29(83),30,32,34,42,44(72),45,47,49,57,59,61,69,73,81-tetracosaene) 10,28,45-triphenyl-1,4,10,16,19,22,28,34,39,45,51-undecaazaoctacyclo[17.17.17.2^6,9^.2^11,14^.2^24,27^.2^29,32^.2^41,44^.2^46,49^]pentahexaconta-4,6,8,11,13,15,22,24,26,29,31,33,39,41,43,46,48,50,54,56,58,60,62,64-tetracosaene'
_symmetry_cell_setting           rhombohedral
_symmetry_space_group_name_H-M   'R 3 2'
_symmetry_Int_Tables_number      155
_space_group_name_Hall           'R 3 2"'
loop_
_symmetry_equiv_pos_site_id
_symmetry_equiv_pos_as_xyz
1 x,y,z
2 -y,x-y,z
3 -x+y,-x,z
4 x-y,-y,-z
5 -x,-x+y,-z
6 y,x,-z
7 2/3+x,1/3+y,1/3+z
8 2/3-y,1/3+x-y,1/3+z
9 2/3-x+y,1/3-x,1/3+z
10 2/3+x-y,1/3-y,1/3-z
11 2/3-x,1/3-x+y,1/3-z
12 2/3+y,1/3+x,1/3-z
13 1/3+x,2/3+y,2/3+z
14 1/3-y,2/3+x-y,2/3+z
15 1/3-x+y,2/3-x,2/3+z
16 1/3+x-y,2/3-y,2/3-z
17 1/3-x,2/3-x+y,2/3-z
18 1/3+y,2/3+x,2/3-z
_cell_length_a                   20.804(3)
_cell_length_b                   20.804(3)
_cell_length_c                   45.126(7)
_cell_angle_alpha                90
_cell_angle_beta                 90
_cell_angle_gamma                120
_cell_volume                     16914.2
_exptl_crystal_colour            colorless
_exptl_crystal_description       prism
_cell_formula_units_Z            3
loop_
_atom_site_label
_atom_site_type_symbol
_atom_site_fract_x
_atom_site_fract_y
_atom_site_fract_z
N5 N 0.4234(7) 0.6237(8) 0.5363(3)
C25 C 0.4008(5) 0.5965(4) 0.58934(11)
C26 C 0.3681(5) 0.5201(4) 0.58611(12)
H29 H 0.3606 0.4993 0.5673
C27 C 0.3467(5) 0.4746(3) 0.61100(16)
H30 H 0.3248 0.4235 0.6088
C28 C 0.3579(6) 0.5057(4) 0.63913(13)
C29 C 0.3906(5) 0.5821(4) 0.64237(10)
H31 H 0.3981 0.6029 0.6612
C30 C 0.4121(4) 0.6275(3) 0.61748(14)
H32 H 0.4339 0.6787 0.6196
C31 C 0.3958(9) 0.6548(9) 0.4881(3)
H33 H 0.3760 0.6031 0.4829
H34 H 0.4198 0.6844 0.4707
C32 C 0.4332(10) 0.6490(10) 0.5616(4)
H35 H 0.4603 0.7002 0.5644
C33 C 0.4507(8) 0.6746(8) 0.5115(3)
H36 H 0.4942 0.6753 0.5033
H37 H 0.4656 0.7242 0.5185
C34 C 0.3333 0.3941(3) 0.6667
C35 C 0.3928(2) 0.3977(4) 0.65120(12)
C36 C 0.4008(5) 0.3354(5) 0.6493(3)
C37 C 0.3493(7) 0.2695(5) 0.6629(3)
N6 N 0.3333 0.4638(3) 0.6667
N7 N 0.3333 0.6667 0.4969(2)
N5A N 0.3763(8) 0.7997(11) 0.5363(3)
C25A C 0.4035(4) 0.8043(6) 0.58934(11)
C26A C 0.4799(4) 0.8480(6) 0.58611(12)
H29A H 0.5007 0.8613 0.5673
C27A C 0.5254(3) 0.8721(6) 0.61100(16)
H30A H 0.5765 0.9013 0.6088
C28A C 0.4943(4) 0.8522(7) 0.63913(13)
C29A C 0.4179(4) 0.8085(6) 0.64237(10)
H31A H 0.3971 0.7952 0.6612
C30A C 0.3725(3) 0.7846(5) 0.61748(14)
H32A H 0.3213 0.7552 0.6196
C31A C 0.3452(9) 0.7410(13) 0.4881(3)
H33A H 0.3969 0.7729 0.4829
H34A H 0.3156 0.7354 0.4707
C32A C 0.3510(10) 0.7842(14) 0.5616(4)
H35A H 0.2998 0.7601 0.5644
C33A C 0.3254(8) 0.7761(11) 0.5115(3)
H36A H 0.3247 0.8189 0.5033
H37A H 0.2758 0.7414 0.5185
C34A C 0.6059(3) 0.9392(3) 0.6667
C35A C 0.6023(4) 0.9951(4) 0.65120(12)
C36A C 0.6646(5) 1.0654(7) 0.6493(3)
C37A C 0.7305(5) 1.0798(9) 0.6629(3)
N6A N 0.5362(3) 0.8695(3) 0.6667
N5B N 0.2003(11) 0.5766(7) 0.5363(3)
C25B C 0.1957(6) 0.5992(5) 0.58934(11)
C26B C 0.1520(6) 0.6319(5) 0.58611(12)
H29B H 0.1387 0.6394 0.5673
C27B C 0.1279(6) 0.6533(5) 0.61100(16)
H30B H 0.0987 0.6752 0.6088
C28B C 0.1478(7) 0.6421(6) 0.63913(13)
C29B C 0.1915(6) 0.6094(5) 0.64237(10)
H31B H 0.2048 0.6019 0.6612
C30B C 0.2154(5) 0.5879(4) 0.61748(14)
H32B H 0.2448 0.5661 0.6196
C31B C 0.2590(13) 0.6042(9) 0.4881(3)
H33B H 0.2271 0.6240 0.4829
H34B H 0.2646 0.5802 0.4707
C32B C 0.2158(14) 0.5668(10) 0.5616(4)
H35B H 0.2399 0.5397 0.5644
C33B C 0.2239(11) 0.5493(8) 0.5115(3)
H36B H 0.1811 0.5058 0.5033
H37B H 0.2586 0.5344 0.5185
C34B C 0.0608(3) 0.6667 0.6667
C35B C 0.0049(4) 0.6072(2) 0.65120(12)
C36B C -0.0654(7) 0.5992(5) 0.6493(3)
C37B C -0.0798(9) 0.6507(7) 0.6629(3)
N6B N 0.1305(3) 0.6667 0.6667
N5I N 0.4664(11) 0.7096(8) 0.7970(3)
C25I C 0.4710(6) 0.7368(4) 0.74399(11)
C26I C 0.5147(6) 0.8132(4) 0.74722(12)
H29I H 0.5280 0.8340 0.7660
C27I C 0.5388(6) 0.8587(3) 0.72233(16)
H30I H 0.5680 0.9098 0.7245
C28I C 0.5189(7) 0.8276(4) 0.69420(13)
C29I C 0.4752(6) 0.7512(4) 0.69096(10)
H31I H 0.4619 0.7304 0.6721
C30I C 0.4513(5) 0.7058(3) 0.71585(14)
H32I H 0.4219 0.6546 0.7137
C31I C 0.4077(13) 0.6785(9) 0.8452(3)
H33I H 0.4396 0.7302 0.8504
H34I H 0.4021 0.6489 0.8626
C32I C 0.4509(14) 0.6843(10) 0.7717(4)
H35I H 0.4268 0.6331 0.7689
C33I C 0.4428(11) 0.6587(8) 0.8218(3)
H36I H 0.4856 0.6580 0.8300
H37I H 0.4081 0.6091 0.8148
C35I C 0.6618(4) 0.9356(4) 0.68213(12)
C36I C 0.7321(7) 0.9979(5) 0.6840(3)
C37I C 0.7465(9) 1.0638(5) 0.6704(3)
N7I N 0.3333 0.6666 0.8364(2)
N5J N 0.2433(7) 0.5336(11) 0.7970(3)
C25J C 0.2659(5) 0.5290(6) 0.74399(11)
C26J C 0.2986(5) 0.4853(6) 0.74722(12)
H29J H 0.3061 0.4720 0.7660
C27J C 0.3200(5) 0.4612(6) 0.72233(16)
H30J H 0.3419 0.4320 0.7245
C28J C 0.3088(6) 0.4811(7) 0.69420(13)
C29J C 0.2761(5) 0.5248(6) 0.69096(10)
H31J H 0.2686 0.5381 0.6721
C30J C 0.2546(4) 0.5487(5) 0.71585(14)
H32J H 0.2328 0.5781 0.7137
C31J C 0.2709(9) 0.5923(13) 0.8452(3)
H33J H 0.2907 0.5604 0.8504
H34J H 0.2469 0.5979 0.8626
C32J C 0.2335(10) 0.5491(14) 0.7717(4)
H35J H 0.2064 0.5732 0.7689
C33J C 0.2160(8) 0.5572(11) 0.8218(3)
H36J H 0.1725 0.5144 0.8300
H37J H 0.2011 0.5919 0.8148
C35J C 0.2739(2) 0.3382(4) 0.68213(12)
C36J C 0.2659(5) 0.2679(7) 0.6840(3)
C37J C 0.3174(7) 0.2535(9) 0.6704(3)
N5K N 0.2904(8) 0.7567(7) 0.7970(3)
C25K C 0.2632(4) 0.7341(5) 0.74399(11)
C26K C 0.1868(4) 0.7014(5) 0.74722(12)
H29K H 0.1660 0.6939 0.7660
C27K C 0.1413(3) 0.6800(5) 0.72233(16)
H30K H 0.0902 0.6581 0.7245
C28K C 0.1724(4) 0.6912(6) 0.69420(13)
C29K C 0.2488(4) 0.7239(5) 0.69096(10)
H31K H 0.2696 0.7314 0.6721
C30K C 0.2942(3) 0.7454(4) 0.71585(14)
H32K H 0.3454 0.7672 0.7137
C31K C 0.3215(9) 0.7291(9) 0.8452(3)
H33K H 0.2698 0.7093 0.8504
H34K H 0.3511 0.7531 0.8626
C32K C 0.3157(10) 0.7665(10) 0.7717(4)
H35K H 0.3669 0.7936 0.7689
C33K C 0.3413(8) 0.7840(8) 0.8218(3)
H36K H 0.3420 0.8275 0.8300
H37K H 0.3909 0.7989 0.8148
C35K C 0.0644(4) 0.7261(2) 0.68213(12)
C36K C 0.0021(5) 0.7341(5) 0.6840(3)
C37K C -0.0638(5) 0.6826(7) 0.6704(3)
C1 C 0.5594(4) 0.4488(4) 0.72152(16)
N1 N 0.8157(4) 0.6029(3) 0.74912(12)
N2 N 0.6113(3) 0.5584(3) 0.63755(13)
C2 C 0.6612(4) 0.5660(3) 0.65550(17)
H1 H 0.7104 0.5947 0.6496
C3 C 0.6337(3) 0.5970(3) 0.60932(15)
H2 H 0.6879 0.6270 0.6084
C4 C 0.6904(4) 0.5240(4) 0.73333(18)
C5 C 0.3553(5) 0.3510(5) 0.78371(17)
H3 H 0.3826 0.3593 0.8021
H4 H 0.3635 0.3986 0.7767
C6 C 0.4836(4) 0.3959(4) 0.73082(16)
H5 H 0.4470 0.3797 0.7163
N3 N 0.4635(3) 0.3707(3) 0.75576(14)
C7 C 0.5746(4) 0.4805(4) 0.69399(17)
H6 H 0.5356 0.4668 0.6808
C8 C 0.7034(4) 0.5527(3) 0.70510(18)
H7 H 0.7518 0.5865 0.6994
C9 C 0.6464(4) 0.5326(4) 0.68491(16)
C10 C 0.3737(4) 0.2449(4) 0.77189(14)
H8 H 0.4022 0.2520 0.7901
C11 C 0.7524(5) 0.5509(4) 0.75462(15)
H9 H 0.7437 0.5277 0.7730
C12 C 0.2904(5) 0.1928(4) 0.77771(19)
H10 H 0.2827 0.1461 0.7856
H11 H 0.2634 0.1826 0.7592
C13 C 0.6226(5) 0.5759(5) 0.55429(17)
H12 H 0.6760 0.6039 0.5514
H13 H 0.6015 0.5383 0.5390
C14 C 0.2600(5) 0.2278(7) 0.7998(2)
H14 H 0.2070 0.1951 0.8022
H15 H 0.2832 0.2329 0.8190
N4 N 0.6420(3) 0.4956(4) 0.58722(12)
C15 C 0.6054(3) 0.5391(4) 0.58435(14)
H16 H 0.5516 0.5064 0.5863
C16 C 0.6361(4) 0.3794(4) 0.59444(12)
C17 C 0.3848(3) 0.3187(4) 0.76092(14)
H17 H 0.3576 0.3109 0.7423
C18 C 0.6032(4) 0.4274(4) 0.59223(13)
H18 H 0.5523 0.4066 0.5946
C19 C 0.6178(4) 0.4713(4) 0.74198(16)
H19 H 0.6086 0.4516 0.7610
C20 C 0.5919(3) 0.3038(4) 0.59474(11)
H20 H 0.5406 0.2835 0.5952
C21 C 0.2744(5) 0.3015(7) 0.7897(2)
H21 H 0.2584 0.3236 0.8048
H22 H 0.2463 0.2959 0.7718
C22 C 0.5917(5) 0.6268(7) 0.5517(2)
H23 H 0.5379 0.5978 0.5525
H24 H 0.6055 0.6515 0.5326
C23 C 0.6191(6) 0.6848(6) 0.5759(3)
H25 H 0.5954 0.7146 0.5741
H26 H 0.6723 0.7173 0.5741
C24 C 0.6007(4) 0.6462(4) 0.60581(19)
H27 H 0.6194 0.6832 0.6214
H28 H 0.5473 0.6166 0.6080
C1A C 0.5512(4) 0.1106(6) 0.72152(16)
N1A N 0.3971(3) 0.2128(5) 0.74912(12)
N2A N 0.4416(3) 0.0529(4) 0.63755(13)
C2A C 0.4340(3) 0.0952(5) 0.65550(17)
H1A H 0.4053 0.1157 0.6496
C3A C 0.4030(3) 0.0367(4) 0.60932(15)
H2A H 0.3730 0.0609 0.6084
C4A C 0.4760(4) 0.1664(6) 0.73333(18)
C5A C 0.6490(5) 0.0043(7) 0.78371(17)
H3A H 0.6407 0.0233 0.8021
H4A H 0.6014 -0.0351 0.7767
C6A C 0.6041(4) 0.0877(6) 0.73082(16)
H5A H 0.6203 0.0673 0.7163
N3A N 0.6293(3) 0.0928(4) 0.75576(14)
C7A C 0.5195(4) 0.0941(6) 0.69399(17)
H6A H 0.5332 0.0688 0.6808
C8A C 0.4473(3) 0.1507(5) 0.70510(18)
H7A H 0.4135 0.1653 0.6994
C9A C 0.4674(4) 0.1138(6) 0.68491(16)
C10A C 0.7551(4) 0.1288(6) 0.77189(14)
H8A H 0.7480 0.1502 0.7901
C11A C 0.4491(4) 0.2015(6) 0.75462(15)
H9A H 0.4723 0.2160 0.7730
C12A C 0.8072(4) 0.0976(6) 0.77771(19)
H10A H 0.8539 0.1366 0.7856
H11A H 0.8174 0.0808 0.7592
C13A C 0.4241(5) 0.0467(7) 0.55429(17)
H12A H 0.3961 0.0721 0.5514
H13A H 0.4617 0.0632 0.5390
C14A C 0.7722(7) 0.0322(9) 0.7998(2)
H14A H 0.8049 0.0119 0.8022
H15A H 0.7671 0.0503 0.8190
N4A N 0.5044(4) 0.1464(5) 0.58722(12)
C15A C 0.4609(4) 0.0663(5) 0.58435(14)
H16A H 0.4936 0.0452 0.5863
C16A C 0.6206(4) 0.2567(6) 0.59444(12)
C17A C 0.6813(4) 0.0661(5) 0.76092(14)
H17A H 0.6891 0.0467 0.7423
C18A C 0.5726(4) 0.1758(6) 0.59223(13)
H18A H 0.5934 0.1457 0.5946
C19A C 0.5287(4) 0.1465(6) 0.74198(16)
H19A H 0.5484 0.1570 0.7610
C20A C 0.6962(4) 0.2881(5) 0.59474(11)
H20A H 0.7165 0.2571 0.5952
C21A C 0.6985(7) -0.0271(9) 0.7897(2)
H21A H 0.6764 -0.0652 0.8048
H22A H 0.7041 -0.0496 0.7718
C22A C 0.3732(7) -0.0351(9) 0.5517(2)
H23A H 0.4022 -0.0599 0.5525
H24A H 0.3485 -0.0460 0.5326
C23A C 0.3152(6) -0.0657(8) 0.5759(3)
H25A H 0.2854 -0.1192 0.5741
H26A H 0.2827 -0.0450 0.5741
C24A C 0.3538(4) -0.0455(6) 0.60581(19)
H27A H 0.3168 -0.0638 0.6214
H28A H 0.3834 -0.0693 0.6080
C1B C 0.8894(6) 0.4406(4) 0.72152(16)
N1B N 0.7872(5) 0.1843(4) 0.74912(12)
N2B N 0.9471(4) 0.3887(3) 0.63755(13)
C2B C 0.9048(5) 0.3388(4) 0.65550(17)
H1B H 0.8843 0.2896 0.6496
C3B C 0.9633(4) 0.3663(3) 0.60932(15)
H2B H 0.9391 0.3121 0.6084
C4B C 0.8336(6) 0.3096(4) 0.73333(18)
C5B C 0.9957(7) 0.6447(5) 0.78371(17)
H3B H 0.9767 0.6174 0.8021
H4B H 1.0351 0.6365 0.7767
C6B C 0.9123(6) 0.5164(4) 0.73082(16)
H5B H 0.9327 0.5530 0.7163
N3B N 0.9072(4) 0.5365(3) 0.75576(14)
C7B C 0.9059(6) 0.4254(4) 0.69399(17)
H6B H 0.9312 0.4644 0.6808
C8B C 0.8493(5) 0.2966(4) 0.70510(18)
H7B H 0.8347 0.2482 0.6994
C9B C 0.8862(6) 0.3536(4) 0.68491(16)
C10B C 0.8712(6) 0.6263(4) 0.77189(14)
H8B H 0.8498 0.5978 0.7901
C11B C 0.7985(6) 0.2476(5) 0.75462(15)
H9B H 0.7840 0.2563 0.7730
C12B C 0.9024(6) 0.7096(5) 0.77771(19)
H10B H 0.8634 0.7173 0.7856
H11B H 0.9192 0.7366 0.7592
C13B C 0.9533(7) 0.3774(5) 0.55429(17)
H12B H 0.9279 0.3240 0.5514
H13B H 0.9368 0.3985 0.5390
C14B C 0.9678(9) 0.7400(5) 0.7998(2)
H14B H 0.9881 0.7930 0.8022
H15B H 0.9497 0.7168 0.8190
N4B N 0.8536(5) 0.3580(3) 0.58722(12)
C15B C 0.9337(5) 0.3946(3) 0.58435(14)
H16B H 0.9548 0.4484 0.5863
C16B C 0.7433(6) 0.3639(4) 0.59444(12)
C17B C 0.9339(5) 0.6152(3) 0.76092(14)
H17B H 0.9533 0.6424 0.7423
C18B C 0.8242(6) 0.3968(4) 0.59223(13)
H18B H 0.8543 0.4477 0.5946
C19B C 0.8535(6) 0.3822(4) 0.74198(16)
H19B H 0.8430 0.3914 0.7610
C20B C 0.7119(5) 0.4081(3) 0.59474(11)
H20B H 0.7429 0.4594 0.5952
C21B C 1.0271(9) 0.7256(5) 0.7897(2)
H21B H 1.0652 0.7416 0.8048
H22B H 1.0496 0.7537 0.7718
C22B C 1.0351(9) 0.4083(5) 0.5517(2)
H23B H 1.0599 0.4621 0.5525
H24B H 1.0460 0.3945 0.5326
C23B C 1.0657(8) 0.3809(6) 0.5759(3)
H25B H 1.1192 0.4046 0.5741
H26B H 1.0450 0.3277 0.5741
C24B C 1.0455(6) 0.3993(4) 0.60581(19)
H27B H 1.0638 0.3806 0.6214
H28B H 1.0693 0.4527 0.6080
C38? C 0.3015(12) 0.5913(10) 0.8444(4)
H38? H 0.2816 0.5850 0.8643
H39? H 0.3405 0.5786 0.8449
C39? C 0.2381(12) 0.5351(12) 0.8233(5)
H40? H 0.2095 0.4874 0.8330
H41? H 0.2049 0.5536 0.8183
N8? N 0.2744(10) 0.5275(9) 0.7958(4)
C40? C 0.2606(9) 0.5525(7) 0.7704(4)
H42? H 0.2373 0.5806 0.7690
C41? C 0.2860(6) 0.5302(4) 0.74730(17)
C42? C 0.2459(6) 0.5286(7) 0.7224(3)
H43? H 0.2091 0.5414 0.7240
C43? C 0.2606(5) 0.5077(6) 0.69512(19)
H44? H 0.2338 0.5066 0.6785
C44? C 0.3155(4) 0.4885(4) 0.69274(12)
C45? C 0.3557(5) 0.4901(5) 0.71764(18)
H45? H 0.3924 0.4773 0.7160
C46? C 0.3409(6) 0.5110(5) 0.74492(14)
H46? H 0.3677 0.5121 0.7616
H47? H 0.4272 0.4418 0.6421
H48? H 0.2421 0.3259 0.6906
H49? H 0.4406 0.3377 0.6389
H50? H 0.3572 0.2294 0.6615
C47? C 0.2898(6) 0.2659(4) 0.6783(3)
C48? C 0.2819(3) 0.3283(3) 0.68024(14)
loop_
_geom_bond_atom_site_label_1
_geom_bond_atom_site_label_2
_geom_bond_site_symmetry_1
_geom_bond_site_symmetry_2
C1 C6 1_555 1_555
N1 C11 1_555 1_555
N2 C2 1_555 1_555
C2 H1 1_555 1_555
C3 N2 1_555 1_555
H2 C3 1_555 1_555
C4 C8 1_555 1_555
C5 H3 1_555 1_555
H4 C5 1_555 1_555
C6 H5 1_555 1_555
N3 C6 1_555 1_555
C7 C1 1_555 1_555
H6 C7 1_555 1_555
C8 H7 1_555 1_555
C9 C2 1_555 1_555
C10 H8 1_555 1_555
C11 C4 1_555 1_555
H9 C11 1_555 1_555
C12 C10 1_555 1_555
H10 C12 1_555 1_555
H11 C12 1_555 1_555
C13 H12 1_555 1_555
H13 C13 1_555 1_555
C14 C12 1_555 1_555
H14 C14 1_555 1_555
H15 C14 1_555 1_555
N4 C15 1_555 1_555
C15 C3 1_555 1_555
H16 C15 1_555 1_555
C16 C18 1_555 1_555
C17 C5 1_555 1_555
H17 C17 1_555 1_555
C18 N4 1_555 1_555
H18 C18 1_555 1_555
C19 C1 1_555 1_555
H19 C19 1_555 1_555
C20 C16 1_555 1_555
H20 C20 1_555 1_555
C21 C5 1_555 1_555
H21 C21 1_555 1_555
H22 C21 1_555 1_555
C22 C13 1_555 1_555
H23 C22 1_555 1_555
H24 C22 1_555 1_555
C23 C22 1_555 1_555
H25 C23 1_555 1_555
H26 C23 1_555 1_555
C24 C3 1_555 1_555
H27 C24 1_555 1_555
H28 C24 1_555 1_555
N5 C32 1_555 1_555
C25 C26 1_555 1_555
C26 H29 1_555 1_555
C27 C26 1_555 1_555
H30 C27 1_555 1_555
C28 C27 1_555 1_555
C29 C28 1_555 1_555
H31 C29 1_555 1_555
C30 C25 1_555 1_555
H32 C30 1_555 1_555
C31 H33 1_555 1_555
H34 C31 1_555 1_555
C32 C25 1_555 1_555
H35 C32 1_555 1_555
C33 N5 1_555 1_555
H36 C33 1_555 1_555
H37 C33 1_555 1_555
C34 C35 1_555 1_555
C35 C36 1_555 1_555
C36 C37 1_555 1_555
C37 C37J 1_555 1_555
N6 C28 1_555 1_555
N7 C31 1_555 1_555
C1A C6A 1_555 1_555
N1A C10 1_555 1_555
N2A C2A 1_555 1_555
C2A H1A 1_555 1_555
C3A N2A 1_555 1_555
H2A C3A 1_555 1_555
C4A C8A 1_555 1_555
C5A H3A 1_555 1_555
H4A C5A 1_555 1_555
C6A H5A 1_555 1_555
N3A C6A 1_555 1_555
C7A C1A 1_555 1_555
H6A C7A 1_555 1_555
C8A H7A 1_555 1_555
C9A C2A 1_555 1_555
C10A H8A 1_555 1_555
C11A N1A 1_555 1_555
H9A C11A 1_555 1_555
C12A C10A 1_555 1_555
H10A C12A 1_555 1_555
H11A C12A 1_555 1_555
C13A H12A 1_555 1_555
H13A C13A 1_555 1_555
C14A C12A 1_555 1_555
H14A C14A 1_555 1_555
H15A C14A 1_555 1_555
N4A C15A 1_555 1_555
C15A C3A 1_555 1_555
H16A C15A 1_555 1_555
C16A C20 1_555 1_555
C17A C5A 1_555 1_555
H17A C17A 1_555 1_555
C18A N4A 1_555 1_555
H18A C18A 1_555 1_555
C19A C1A 1_555 1_555
H19A C19A 1_555 1_555
C20A C16A 1_555 1_555
H20A C20A 1_555 1_555
C21A C5A 1_555 1_555
H21A C21A 1_555 1_555
H22A C21A 1_555 1_555
C22A C13A 1_555 1_555
H23A C22A 1_555 1_555
H24A C22A 1_555 1_555
C23A C22A 1_555 1_555
H25A C23A 1_555 1_555
H26A C23A 1_555 1_555
C24A C3A 1_555 1_555
H27A C24A 1_555 1_555
H28A C24A 1_555 1_555
C1B C6B 1_555 1_555
N1B C10A 1_555 1_555
N2B C2B 1_555 1_555
C2B H1B 1_555 1_555
C3B N2B 1_555 1_555
H2B C3B 1_555 1_555
C4B C8B 1_555 1_555
C5B H3B 1_555 1_555
H4B C5B 1_555 1_555
C6B H5B 1_555 1_555
N3B C6B 1_555 1_555
C7B C1B 1_555 1_555
H6B C7B 1_555 1_555
C8B H7B 1_555 1_555
C9B C2B 1_555 1_555
C10B N1 1_555 1_555
H8B C10B 1_555 1_555
C11B N1B 1_555 1_555
H9B C11B 1_555 1_555
C12B C10B 1_555 1_555
H10B C12B 1_555 1_555
H11B C12B 1_555 1_555
C13B H12B 1_555 1_555
H13B C13B 1_555 1_555
C14B C12B 1_555 1_555
H14B C14B 1_555 1_555
H15B C14B 1_555 1_555
N4B C15B 1_555 1_555
C15B C3B 1_555 1_555
H16B C15B 1_555 1_555
C16B C20A 1_555 1_555
C17B C5B 1_555 1_555
H17B C17B 1_555 1_555
C18B N4B 1_555 1_555
H18B C18B 1_555 1_555
C19B C1B 1_555 1_555
H19B C19B 1_555 1_555
C20B C16 1_555 1_555
H20B C20B 1_555 1_555
C21B C5B 1_555 1_555
H21B C21B 1_555 1_555
H22B C21B 1_555 1_555
C22B C13B 1_555 1_555
H23B C22B 1_555 1_555
H24B C22B 1_555 1_555
C23B C22B 1_555 1_555
H25B C23B 1_555 1_555
H26B C23B 1_555 1_555
C24B C3B 1_555 1_555
H27B C24B 1_555 1_555
H28B C24B 1_555 1_555
N5A C32A 1_555 1_555
C25A C26A 1_555 1_555
C26A H29A 1_555 1_555
C27A C26A 1_555 1_555
H30A C27A 1_555 1_555
C28A C27A 1_555 1_555
C29A C28A 1_555 1_555
H31A C29A 1_555 1_555
C30A C25A 1_555 1_555
H32A C30A 1_555 1_555
C31A N7 1_555 1_555
H33A C31A 1_555 1_555
H34A C31A 1_555 1_555
C32A C25A 1_555 1_555
H35A C32A 1_555 1_555
C33A N5A 1_555 1_555
H36A C33A 1_555 1_555
H37A C33A 1_555 1_555
C34A C35A 1_555 1_555
C35A C36A 1_555 1_555
C36A C37A 1_555 1_555
C37A C37I 1_555 1_555
N6A C28A 1_555 1_555
N5B C32B 1_555 1_555
C25B C26B 1_555 1_555
C26B H29B 1_555 1_555
C27B C26B 1_555 1_555
H30B C27B 1_555 1_555
C28B C27B 1_555 1_555
C29B C28B 1_555 1_555
H31B C29B 1_555 1_555
C30B C25B 1_555 1_555
H32B C30B 1_555 1_555
C31B N7 1_555 1_555
H33B C31B 1_555 1_555
H34B C31B 1_555 1_555
C32B C25B 1_555 1_555
H35B C32B 1_555 1_555
C33B N5B 1_555 1_555
H36B C33B 1_555 1_555
H37B C33B 1_555 1_555
C34B C35B 1_555 1_555
C35B C36B 1_555 1_555
C36B C37B 1_555 1_555
C37B C37K 1_555 1_555
N6B C28B 1_555 1_555
N5I C32I 1_555 1_555
C25I C26I 1_555 1_555
C26I H29I 1_555 1_555
C27I C26I 1_555 1_555
H30I C27I 1_555 1_555
C28I N6A 1_555 1_555
C29I C28I 1_555 1_555
H31I C29I 1_555 1_555
C30I C25I 1_555 1_555
H32I C30I 1_555 1_555
C31I H33I 1_555 1_555
H34I C31I 1_555 1_555
C32I C25I 1_555 1_555
H35I C32I 1_555 1_555
C33I N5I 1_555 1_555
H36I C33I 1_555 1_555
H37I C33I 1_555 1_555
C35I C34A 1_555 1_555
C36I C35I 1_555 1_555
C37I C36I 1_555 1_555
N7I C31I 1_555 1_555
N5J C32J 1_555 1_555
C25J C26J 1_555 1_555
C26J H29J 1_555 1_555
C27J C26J 1_555 1_555
H30J C27J 1_555 1_555
C28J N6 1_555 1_555
C29J C28J 1_555 1_555
H31J C29J 1_555 1_555
C30J C25J 1_555 1_555
H32J C30J 1_555 1_555
C31J N7I 1_555 1_555
H33J C31J 1_555 1_555
H34J C31J 1_555 1_555
C32J C25J 1_555 1_555
H35J C32J 1_555 1_555
C33J N5J 1_555 1_555
H36J C33J 1_555 1_555
H37J C33J 1_555 1_555
C35J C34 1_555 1_555
C36J C35J 1_555 1_555
C37J C36J 1_555 1_555
N5K C32K 1_555 1_555
C25K C26K 1_555 1_555
C26K H29K 1_555 1_555
C27K C26K 1_555 1_555
H30K C27K 1_555 1_555
C28K N6B 1_555 1_555
C29K C28K 1_555 1_555
H31K C29K 1_555 1_555
C30K C25K 1_555 1_555
H32K C30K 1_555 1_555
C31K N7I 1_555 1_555
H33K C31K 1_555 1_555
H34K C31K 1_555 1_555
C32K C25K 1_555 1_555
H35K C32K 1_555 1_555
C33K N5K 1_555 1_555
H36K C33K 1_555 1_555
H37K C33K 1_555 1_555
C35K C34B 1_555 1_555
C36K C35K 1_555 1_555
C37K C36K 1_555 1_555
C4 C19 1_555 1_555
N3 C17 1_555 1_555
C7 C9 1_555 1_555
C8 C9 1_555 1_555
C10 C17 1_555 1_555
C13 C15 1_555 1_555
C14 C21 1_555 1_555
C23 C24 1_555 1_555
C29 C30 1_555 1_555
C31 C33 1_555 1_555
C34 N6 1_555 1_555
C4A C11A 1_555 1_555
C4A C19A 1_555 1_555
N3A C17A 1_555 1_555
C7A C9A 1_555 1_555
C8A C9A 1_555 1_555
C10A C17A 1_555 1_555
C13A C15A 1_555 1_555
C14A C21A 1_555 1_555
C16A C18A 1_555 1_555
C23A C24A 1_555 1_555
C4B C11B 1_555 1_555
C4B C19B 1_555 1_555
N3B C17B 1_555 1_555
C7B C9B 1_555 1_555
C8B C9B 1_555 1_555
C10B C17B 1_555 1_555
C13B C15B 1_555 1_555
C14B C21B 1_555 1_555
C16B C18B 1_555 1_555
C16B C20B 1_555 1_555
C23B C24B 1_555 1_555
C29A C30A 1_555 1_555
C31A C33A 1_555 1_555
C34A N6A 1_555 1_555
C29B C30B 1_555 1_555
C31B C33B 1_555 1_555
C34B N6B 1_555 1_555
C27I C28I 1_555 1_555
C29I C30I 1_555 1_555
C31I C33I 1_555 1_555
C27J C28J 1_555 1_555
C29J C30J 1_555 1_555
C31J C33J 1_555 1_555
C27K C28K 1_555 1_555
C29K C30K 1_555 1_555
C31K C33K 1_555 1_555

#END
