
#######################################################################
#
#                 Cambridge Crystallographic Data Centre
#                                CCDC 
#
#######################################################################
#
# If this CIF has been generated from an entry in the Cambridge 
# Structural Database, then it will include bibliographic, chemical, 
# crystal, experimental, refinement or atomic coordinate data resulting 
# from the CCDC's data processing and validation procedures.
#
#######################################################################

data_MOTWID
_chemical_formula_moiety         'C72 H69 N11'
_chemical_name_systematic        
10,28,45-Triphenyl-1,4,10,16,19,22,28,34,39,45,51-undecaazaoctacyclo[17.17.17.2^6,9^.2^11,14^.2^24,27^.2^29,32^.2^41,44^.2^46,49^]pentahexaconta-4,6,8,11,13,15,22,24,26,29,31,33,39,41,43,46,48,50,54,56,58,60,62,64-tetracosaene
_symmetry_cell_setting           monoclinic
_symmetry_space_group_name_H-M   'C 2/c'
_symmetry_Int_Tables_number      15
_space_group_name_Hall           '-C 2yn'
loop_
_symmetry_equiv_pos_site_id
_symmetry_equiv_pos_as_xyz
1 x,y,z
2 -x,y,1/2-z
3 1/2+x,1/2+y,z
4 1/2-x,1/2+y,1/2-z
5 -x,-y,-z
6 x,-y,1/2+z
7 1/2-x,1/2-y,-z
8 1/2+x,1/2-y,1/2+z
_cell_length_a                   23.6949(13)
_cell_length_b                   13.4437(7)
_cell_length_c                   18.9583(11)
_cell_angle_alpha                90
_cell_angle_beta                 98.830(2)
_cell_angle_gamma                90
_cell_volume                     5967.54
_exptl_crystal_colour            colorless
_cell_formula_units_Z            4
loop_
_atom_site_label
_atom_site_type_symbol
_atom_site_fract_x
_atom_site_fract_y
_atom_site_fract_z
N1 N 0.42834(6) 0.76136(10) 0.06481(8)
N2 N 0.5000 1.23368(15) 0.2500
N3 N 0.78525(6) 0.91225(10) 0.11339(7)
C1 C 0.40875(7) 0.68007(12) 0.01876(9)
C2 C 0.43391(9) 0.58759(15) 0.02859(15)
H1 H 0.4637 0.5766 0.0675
C3 C 0.41590(8) 0.51064(16) -0.01806(16)
H2 H 0.4339 0.4474 -0.0117
C4 C 0.37256(10) 0.52534(15) -0.07292(11)
H3 H 0.3609 0.4729 -0.1055
C5 C 0.34526(11) 0.61748(15) -0.08146(10)
H4 H 0.3139 0.6269 -0.1186
C6 C 0.36390(9) 0.69520(13) -0.03571(10)
H5 H 0.3459 0.7584 -0.0418
C7 C 0.34177(8) 0.76574(13) 0.11891(9)
H6 H 0.3329 0.6992 0.1043
C8 C 0.52340(8) 0.76186(13) 0.03053(10)
H7 H 0.5066 0.7583 -0.0182
C9 C 0.76633(8) 0.73342(13) 0.12754(11)
H8 H 0.7820 0.6668 0.1197
H9 H 0.7727 0.7471 0.1795
C10 C 0.71769(7) 0.99931(14) 0.02094(9)
H10 H 0.7164 1.0363 -0.0244
H11 H 0.6989 0.9341 0.0103
C11 C 0.80204(8) 1.00561(15) 0.22687(10)
H12 H 0.8328 1.0377 0.2605
H13 H 0.7779 1.0584 0.2013
N4 N 0.70469(7) 0.73569(12) 0.10001(9)
N5 N 0.68768(7) 1.05619(12) 0.07084(9)
N6 N 0.76665(8) 0.93966(13) 0.26694(9)
C12 C 0.39204(9) 0.81374(15) 0.10257(11)
C13 C 0.40386(8) 0.91128(15) 0.12526(12)
H14 H 0.4368 0.9439 0.1137
C14 C 0.36789(8) 0.96086(14) 0.16454(11)
H15 H 0.3773 1.0265 0.1808
C15 C 0.31859(8) 0.91694(13) 0.18071(10)
C16 C 0.30645(9) 0.81954(15) 0.15679(11)
H16 H 0.2725 0.7889 0.1670
C17 C 0.28073(8) 0.97262(14) 0.22119(9)
H17 H 0.2926 1.0364 0.2392
C18 C 0.48966(9) 0.77019(15) 0.08382(12)
C19 C 0.51453(9) 0.78260(15) 0.15424(11)
H18 H 0.4910 0.7916 0.1901
C20 C 0.57359(9) 0.78201(14) 0.17300(11)
H19 H 0.5900 0.7915 0.2215
C21 C 0.60911(8) 0.76775(13) 0.12170(10)
C22 C 0.58367(9) 0.75883(15) 0.05051(11)
H20 H 0.6072 0.7505 0.0146
C23 C 0.67143(8) 0.76164(13) 0.14322(11)
H21 H 0.6873 0.7776 0.1910
C24 C 0.5000 1.3402(3) 0.2500
C25 C 0.51957(9) 1.39310(13) 0.19514(10)
H22 H 0.5319 1.3584 0.1566
C26 C 0.52100(10) 1.49610(14) 0.19685(11)
H23 H 0.5366 1.5315 0.1610
C27 C 0.5000 1.5478(2) 0.2500
H24 H 0.5000 1.6185 0.2500
C28 C 0.53642(12) 1.18061(14) 0.21130(18)
C29 C 0.59363(12) 1.2063(2) 0.2136(2)
H25 H 0.6096 1.2589 0.2436
C30 C 0.62707(9) 1.15511(14) 0.17213(12)
H26 H 0.6659 1.1739 0.1736
C31 C 0.60511(10) 1.07648(13) 0.12820(12)
C32 C 0.54868(12) 1.04997(17) 0.12816(18)
H27 H 0.5333 0.9948 0.1003
C33 C 0.51403(13) 1.10228(18) 0.1680(2)
H28 H 0.4750 1.0845 0.1656
C34 C 0.63967(9) 1.02449(14) 0.08174(11)
H29 H 0.6253 0.9647 0.0590
C35 C 0.79616(9) 0.81122(15) 0.08902(12)
H30 H 0.8378 0.7983 0.0974
H31 H 0.7827 0.8062 0.0371
C36 C 0.77937(8) 0.98409(16) 0.05555(11)
H32 H 0.8020 0.9612 0.0188
H33 H 0.7953 1.0486 0.0742
C37 C 0.82752(9) 0.94184(17) 0.17422(11)
H34 H 0.8586 0.9792 0.1567
H35 H 0.8444 0.8815 0.1988
N1A N 0.57166(6) 0.76136(10) 0.43519(8)
N3A N 0.21475(6) 0.91225(10) 0.38661(7)
C1A C 0.59125(7) 0.68007(12) 0.48124(9)
C2A C 0.56609(9) 0.58759(15) 0.47141(15)
H1A H 0.5363 0.5766 0.4325
C3A C 0.58410(8) 0.51064(16) 0.51806(16)
H2A H 0.5661 0.4474 0.5117
C4A C 0.62744(10) 0.52534(15) 0.57292(11)
H3A H 0.6391 0.4729 0.6055
C5A C 0.65474(11) 0.61748(15) 0.58146(10)
H4A H 0.6861 0.6269 0.6186
C6A C 0.63610(9) 0.69520(13) 0.53571(10)
H5A H 0.6541 0.7584 0.5418
C7A C 0.65823(8) 0.76574(13) 0.38109(9)
H6A H 0.6671 0.6992 0.3957
C8A C 0.47660(8) 0.76186(13) 0.46947(10)
H7A H 0.4934 0.7583 0.5182
C9A C 0.23367(8) 0.73342(13) 0.37246(11)
H8A H 0.2180 0.6668 0.3803
H9A H 0.2273 0.7471 0.3205
C10A C 0.28231(7) 0.99931(14) 0.47906(9)
H10A H 0.2836 1.0363 0.5244
H11A H 0.3011 0.9341 0.4897
C11A C 0.19796(8) 1.00561(15) 0.27313(10)
H12A H 0.1672 1.0377 0.2395
H13A H 0.2221 1.0584 0.2987
N4A N 0.29531(7) 0.73569(12) 0.39999(9)
N5A N 0.31232(7) 1.05619(12) 0.42916(9)
N6A N 0.23335(8) 0.93966(13) 0.23306(9)
C12A C 0.60796(9) 0.81374(15) 0.39743(11)
C13A C 0.59614(8) 0.91128(15) 0.37474(12)
H14A H 0.5632 0.9439 0.3863
C14A C 0.63211(8) 0.96086(14) 0.33546(11)
H15A H 0.6227 1.0265 0.3192
C15A C 0.68141(8) 0.91694(13) 0.31929(10)
C16A C 0.69355(9) 0.81954(15) 0.34321(11)
H16A H 0.7275 0.7889 0.3330
C17A C 0.71927(8) 0.97262(14) 0.27881(9)
H17A H 0.7074 1.0364 0.2608
C18A C 0.51034(9) 0.77019(15) 0.41618(12)
C19A C 0.48547(9) 0.78260(15) 0.34576(11)
H18A H 0.5090 0.7916 0.3099
C20A C 0.42641(9) 0.78201(14) 0.32700(11)
H19A H 0.4100 0.7915 0.2785
C21A C 0.39089(8) 0.76775(13) 0.37830(10)
C22A C 0.41633(9) 0.75883(15) 0.44949(11)
H20A H 0.3928 0.7505 0.4854
C23A C 0.32857(8) 0.76164(13) 0.35678(11)
H21A H 0.3127 0.7776 0.3090
C25A C 0.48043(9) 1.39310(13) 0.30486(10)
H22A H 0.4681 1.3584 0.3434
C26A C 0.47900(10) 1.49610(14) 0.30315(11)
H23A H 0.4634 1.5315 0.3390
C28A C 0.46358(12) 1.18061(14) 0.28870(18)
C29A C 0.40637(12) 1.2063(2) 0.2864(2)
H25A H 0.3904 1.2589 0.2564
C30A C 0.37293(9) 1.15511(14) 0.32787(12)
H26A H 0.3341 1.1739 0.3264
C31A C 0.39489(10) 1.07648(13) 0.37180(12)
C32A C 0.45132(12) 1.04997(17) 0.37184(18)
H27A H 0.4667 0.9948 0.3997
C33A C 0.48597(13) 1.10228(18) 0.3320(2)
H28A H 0.5250 1.0845 0.3344
C34A C 0.36033(9) 1.02449(14) 0.41826(11)
H29A H 0.3747 0.9647 0.4410
C35A C 0.20384(9) 0.81122(15) 0.41098(12)
H30A H 0.1622 0.7983 0.4026
H31A H 0.2173 0.8062 0.4629
C36A C 0.22063(8) 0.98409(16) 0.44445(11)
H32A H 0.1980 0.9612 0.4812
H33A H 0.2047 1.0486 0.4258
C37A C 0.17248(9) 0.94184(17) 0.32578(11)
H34A H 0.1414 0.9792 0.3433
H35A H 0.1556 0.8815 0.3012
N7? N 0.2531(4) 0.7375(7) 0.3006(5)
C38? C 0.3957(3) 0.7663(7) 0.1266(4)
C39? C 0.4234(4) 0.7823(7) 0.1946(5)
H36? H 0.4634 0.7943 0.2020
C40? C 0.3944(4) 0.7814(7) 0.2529(5)
H37? H 0.4147 0.7931 0.2994
C41? C 0.3362(4) 0.7636(7) 0.2444(5)
C42? C 0.3079(4) 0.7484(7) 0.1765(5)
H38? H 0.2690 0.7280 0.1673
C43? C 0.3060(4) 0.7591(8) 0.3051(5)
H39? H 0.3268 0.7729 0.3510
N8? N 0.6666(4) 0.9337(6) 0.0134(4)
C44? C 0.4718(4) 0.8105(8) 0.0592(5)
C45? C 0.4825(4) 0.9055(8) 0.0891(5)
H40? H 0.4545 0.9355 0.1130
C46? C 0.5326(5) 0.9571(9) 0.0850(6)
H41? H 0.5384 1.0213 0.1059
C47? C 0.5747(4) 0.9148(7) 0.0502(5)
C48? C 0.5645(4) 0.8209(7) 0.0197(5)
H42? H 0.5896 0.7984 -0.0114
C49? C 0.6276(4) 0.9677(8) 0.0460(5)
H43? H 0.6333 1.0308 0.0687
N9? N 0.7534(4) 1.0776(7) 0.2170(5)
C50? C 0.5514(3) 1.1725(9) 0.2441(7)
C51? C 0.5911(4) 1.2146(7) 0.2061(7)
H44? H 0.5819 1.2739 0.1795
C52? C 0.6441(4) 1.1700(6) 0.2069(5)
H45? H 0.6712 1.1988 0.1809
C53? C 0.6574(3) 1.0832(5) 0.2458(3)
C54? C 0.6178(4) 1.0411(7) 0.2838(5)
H46? H 0.6269 0.9818 0.3104
C55? C 0.5648(4) 1.0857(10) 0.2830(7)
H47? H 0.5377 1.0569 0.3090
C56? C 0.7140(3) 1.0353(7) 0.2423(5)
H48? H 0.7203 0.9695 0.2602
C57? C 0.8140(5) 0.8249(8) 0.1354(7)
H49? H 0.8326 0.8310 0.1857
H50? H 0.8438 0.8111 0.1054
C58? C 0.7698(5) 0.9242(9) 0.0350(6)
H51? H 0.7588 0.8592 0.0125
H52? H 0.8027 0.9507 0.0144
C59? C 0.8170(4) 1.0039(8) 0.1437(5)
H53? H 0.8027 1.0644 0.1170
H54? H 0.8586 0.9975 0.1432
C60? C 0.5054(7) 1.3262(8) 0.2420(7)
C61? C 0.5326(6) 1.4030(10) 0.2830(5)
H55? H 0.5541 1.3892 0.3284
C62? C 0.5283(6) 1.5001(9) 0.2574(6)
H56? H 0.5469 1.5526 0.2854
C63? C 0.4968(6) 1.5203(8) 0.1909(7)
H57? H 0.4939 1.5866 0.1734
C64? C 0.4697(6) 1.4434(10) 0.1499(5)
H58? H 0.4481 1.4572 0.1044
C65? C 0.4739(6) 1.3464(8) 0.1754(6)
H59? H 0.4554 1.2938 0.1474
loop_
_geom_bond_atom_site_label_1
_geom_bond_atom_site_label_2
_geom_bond_site_symmetry_1
_geom_bond_site_symmetry_2
N1 C1 1_555 1_555
N2 C24 1_555 1_555
N3 C35 1_555 1_555
C1 C2 1_555 1_555
C2 H1 1_555 1_555
C3 C2 1_555 1_555
H2 C3 1_555 1_555
C4 C3 1_555 1_555
H3 C4 1_555 1_555
C5 C4 1_555 1_555
H4 C5 1_555 1_555
C6 C1 1_555 1_555
H5 C6 1_555 1_555
C7 H6 1_555 1_555
C8 H7 1_555 1_555
C9 H8 1_555 1_555
H9 C9 1_555 1_555
C10 H10 1_555 1_555
H11 C10 1_555 1_555
C11 H12 1_555 1_555
H13 C11 1_555 1_555
N4 C9 1_555 1_555
N5 C10 1_555 1_555
N6 C11 1_555 1_555
C12 N1 1_555 1_555
C13 C12 1_555 1_555
H14 C13 1_555 1_555
C14 C13 1_555 1_555
H15 C14 1_555 1_555
C15 C14 1_555 1_555
C16 C7 1_555 1_555
H16 C16 1_555 1_555
C17 C15 1_555 1_555
H17 C17 1_555 1_555
C18 N1 1_555 1_555
C19 C18 1_555 1_555
H18 C19 1_555 1_555
C20 C19 1_555 1_555
H19 C20 1_555 1_555
C21 C20 1_555 1_555
C22 C8 1_555 1_555
H20 C22 1_555 1_555
C23 N4 1_555 1_555
H21 C23 1_555 1_555
C24 C25 1_555 1_555
C25 H22 1_555 1_555
C26 C25 1_555 1_555
H23 C26 1_555 1_555
C27 C26 1_555 1_555
H24 C27 1_555 1_555
C28 N2 1_555 1_555
C29 C28 1_555 1_555
H25 C29 1_555 1_555
C30 C29 1_555 1_555
H26 C30 1_555 1_555
C31 C30 1_555 1_555
C32 C31 1_555 1_555
H27 C32 1_555 1_555
C33 C28 1_555 1_555
H28 C33 1_555 1_555
C34 N5 1_555 1_555
H29 C34 1_555 1_555
C35 C9 1_555 1_555
H30 C35 1_555 1_555
H31 C35 1_555 1_555
C36 N3 1_555 1_555
H32 C36 1_555 1_555
H33 C36 1_555 1_555
C37 N3 1_555 1_555
H34 C37 1_555 1_555
H35 C37 1_555 1_555
N1A C1A 1_555 1_555
N3A C35A 1_555 1_555
C1A C2A 1_555 1_555
C2A H1A 1_555 1_555
C3A C2A 1_555 1_555
H2A C3A 1_555 1_555
C4A C3A 1_555 1_555
H3A C4A 1_555 1_555
C5A C4A 1_555 1_555
H4A C5A 1_555 1_555
C6A C1A 1_555 1_555
H5A C6A 1_555 1_555
C7A H6A 1_555 1_555
C8A H7A 1_555 1_555
C9A H8A 1_555 1_555
H9A C9A 1_555 1_555
C10A H10A 1_555 1_555
H11A C10A 1_555 1_555
C11A H12A 1_555 1_555
H13A C11A 1_555 1_555
N4A C9A 1_555 1_555
N5A C10A 1_555 1_555
N6A C17 1_555 1_555
C12A N1A 1_555 1_555
C13A C12A 1_555 1_555
H14A C13A 1_555 1_555
C14A C13A 1_555 1_555
H15A C14A 1_555 1_555
C15A C14A 1_555 1_555
C16A C7A 1_555 1_555
H16A C16A 1_555 1_555
C17A N6 1_555 1_555
H17A C17A 1_555 1_555
C18A N1A 1_555 1_555
C19A C18A 1_555 1_555
H18A C19A 1_555 1_555
C20A C19A 1_555 1_555
H19A C20A 1_555 1_555
C21A C20A 1_555 1_555
C22A C8A 1_555 1_555
H20A C22A 1_555 1_555
C23A N4A 1_555 1_555
H21A C23A 1_555 1_555
C25A C24 1_555 1_555
H22A C25A 1_555 1_555
C26A C27 1_555 1_555
H23A C26A 1_555 1_555
C28A N2 1_555 1_555
C29A C28A 1_555 1_555
H25A C29A 1_555 1_555
C30A C29A 1_555 1_555
H26A C30A 1_555 1_555
C31A C30A 1_555 1_555
C32A C31A 1_555 1_555
H27A C32A 1_555 1_555
C33A C28A 1_555 1_555
H28A C33A 1_555 1_555
C34A N5A 1_555 1_555
H29A C34A 1_555 1_555
C35A C9A 1_555 1_555
H30A C35A 1_555 1_555
H31A C35A 1_555 1_555
C36A N3A 1_555 1_555
H32A C36A 1_555 1_555
H33A C36A 1_555 1_555
C37A N3A 1_555 1_555
H34A C37A 1_555 1_555
H35A C37A 1_555 1_555
C5 C6 1_555 1_555
C7 C12 1_555 1_555
C8 C18 1_555 1_555
C10 C36 1_555 1_555
C11 C37 1_555 1_555
C15 C16 1_555 1_555
C21 C22 1_555 1_555
C21 C23 1_555 1_555
C31 C34 1_555 1_555
C32 C33 1_555 1_555
C5A C6A 1_555 1_555
C7A C12A 1_555 1_555
C8A C18A 1_555 1_555
C10A C36A 1_555 1_555
C11A N6A 1_555 1_555
C11A C37A 1_555 1_555
C15A C16A 1_555 1_555
C15A C17A 1_555 1_555
C21A C22A 1_555 1_555
C21A C23A 1_555 1_555
C25A C26A 1_555 1_555
C31A C34A 1_555 1_555
C32A C33A 1_555 1_555

#END
