
#######################################################################
#
#                 Cambridge Crystallographic Data Centre
#                                CCDC 
#
#######################################################################
#
# If this CIF has been generated from an entry in the Cambridge 
# Structural Database, then it will include bibliographic, chemical, 
# crystal, experimental, refinement or atomic coordinate data resulting 
# from the CCDC's data processing and validation procedures.
#
#######################################################################

data_MOTWUP04
_chemical_formula_moiety         '2(C72 H84 N12),C72 H69 N11'
_chemical_name_systematic        
'bis(5,12,20,27,35,42,50,57,62,69,74,81-Dodecaazatridecacyclo[29.29.10.10^16,46^.1^3,59^.1^14,18^.1^29,33^.1^44,48^.0^6,11^.0^21,26^.0^36,41^.0^51,56^.0^63,68^.0^75,80^]tetraoctaconta-1,3(71),4,12,14(84),15,17,19,27,29(83),30,32,34,42,44(72),45,47,49,57,59,61,69,73,81-tetracosaene) 10,28,45-triphenyl-1,4,10,16,19,22,28,34,39,45,51-undecaazaoctacyclo[17.17.17.2^6,9^.2^11,14^.2^24,27^.2^29,32^.2^41,44^.2^46,49^]pentahexaconta-4,6,8,11,13,15,22,24,26,29,31,33,39,41,43,46,48,50,54,56,58,60,62,64-tetracosaene'
_symmetry_cell_setting           rhombohedral
_symmetry_space_group_name_H-M   'R 3 2'
_symmetry_Int_Tables_number      155
_space_group_name_Hall           'R 3 2"'
loop_
_symmetry_equiv_pos_site_id
_symmetry_equiv_pos_as_xyz
1 x,y,z
2 -y,x-y,z
3 -x+y,-x,z
4 x-y,-y,-z
5 -x,-x+y,-z
6 y,x,-z
7 2/3+x,1/3+y,1/3+z
8 2/3-y,1/3+x-y,1/3+z
9 2/3-x+y,1/3-x,1/3+z
10 2/3+x-y,1/3-y,1/3-z
11 2/3-x,1/3-x+y,1/3-z
12 2/3+y,1/3+x,1/3-z
13 1/3+x,2/3+y,2/3+z
14 1/3-y,2/3+x-y,2/3+z
15 1/3-x+y,2/3-x,2/3+z
16 1/3+x-y,2/3-y,2/3-z
17 1/3-x,2/3-x+y,2/3-z
18 1/3+y,2/3+x,2/3-z
_cell_length_a                   20.6071(11)
_cell_length_b                   20.6071(11)
_cell_length_c                   44.949(3)
_cell_angle_alpha                90
_cell_angle_beta                 90
_cell_angle_gamma                120
_cell_volume                     16530.4
_exptl_crystal_colour            colorless
_exptl_crystal_description       prism
_cell_formula_units_Z            3
loop_
_atom_site_label
_atom_site_type_symbol
_atom_site_fract_x
_atom_site_fract_y
_atom_site_fract_z
N5 N 0.0000 0.0000 0.32936(10)
C25 C 0.2836(2) 0.2629(2) 0.50447(13)
C26 C 0.4172(4) 0.3992(3) 0.5048(2)
C27 C 0.4124(2) 0.3379(4) 0.51972(17)
H29 H 0.4539 0.3424 0.5298
C28 C 0.3456(2) 0.2697(3) 0.51955(10)
H30 H 0.3424 0.2287 0.5295
N6 N 0.0895(7) 0.1421(5) 0.37151(15)
C29 C 0.0400(11) 0.1305(7) 0.3453(2)
H31 H 0.0559 0.1784 0.3357
H32 H -0.0111 0.1110 0.3521
C30 C 0.0421(9) 0.0769(8) 0.3229(2)
H33 H 0.0251 0.0854 0.3040
H34 H 0.0939 0.0899 0.3204
C31 C 0.0934(3) 0.1329(4) 0.42486(10)
C32 C 0.1689(3) 0.1542(4) 0.42444(8)
H35 H 0.1924 0.1563 0.4065
C33 C 0.2095(2) 0.1725(4) 0.45083(10)
H36 H 0.2600 0.1868 0.4505
C34 C 0.1745(3) 0.1694(3) 0.47765(8)
C35 C 0.0989(3) 0.1481(4) 0.47808(10)
H37 H 0.0755 0.1461 0.4960
C36 C 0.0584(3) 0.1299(5) 0.45169(13)
H38 H 0.0079 0.1156 0.4520
C37 C 0.0475(8) 0.1211(5) 0.39624(19)
H39 H -0.0041 0.1015 0.3961
N7 N 0.2158(3) 0.1928(3) 0.50438(14)
C25A C -0.2629(2) 0.0207(3) 0.50447(13)
C26A C -0.3992(3) 0.0180(5) 0.5048(2)
C27A C -0.3379(4) 0.0745(4) 0.51972(17)
H29A H -0.3424 0.1115 0.5298
C28A C -0.2697(3) 0.0759(4) 0.51955(10)
H30A H -0.2287 0.1137 0.5295
N6A N -0.1421(5) -0.0526(9) 0.37151(15)
C29A C -0.1305(7) -0.0905(13) 0.3453(2)
H31A H -0.1784 -0.1225 0.3357
H32A H -0.1110 -0.1221 0.3521
C30A C -0.0769(8) -0.0348(12) 0.3229(2)
H33A H -0.0854 -0.0603 0.3040
H34A H -0.0899 0.0040 0.3204
C31A C -0.1329(4) -0.0395(5) 0.42486(10)
C32A C -0.1542(4) 0.0147(5) 0.42444(8)
H35A H -0.1563 0.0361 0.4065
C33A C -0.1725(4) 0.0370(4) 0.45083(10)
H36A H -0.1868 0.0732 0.4505
C34A C -0.1694(3) 0.0051(4) 0.47765(8)
C35A C -0.1481(4) -0.0492(5) 0.47808(10)
H37A H -0.1461 -0.0706 0.4960
C36A C -0.1299(5) -0.0715(6) 0.45169(13)
H38A H -0.1156 -0.1077 0.4520
C37A C -0.1211(5) -0.0736(9) 0.39624(19)
H39A H -0.1015 -0.1056 0.3961
N7A N -0.1928(3) 0.0230(4) 0.50438(14)
C25B C -0.0207(3) -0.2836(2) 0.50447(13)
C26B C -0.0180(5) -0.4172(4) 0.5048(2)
C27B C -0.0745(4) -0.4124(2) 0.51972(17)
H29B H -0.1115 -0.4539 0.5298
C28B C -0.0759(4) -0.3456(2) 0.51955(10)
H30B H -0.1137 -0.3424 0.5295
N6B N 0.0526(9) -0.0895(7) 0.37151(15)
C29B C 0.0905(13) -0.0400(11) 0.3453(2)
H31B H 0.1225 -0.0559 0.3357
H32B H 0.1221 0.0111 0.3521
C30B C 0.0348(12) -0.0421(9) 0.3229(2)
H33B H 0.0603 -0.0251 0.3040
H34B H -0.0040 -0.0939 0.3204
C31B C 0.0395(5) -0.0934(3) 0.42486(10)
C32B C -0.0147(5) -0.1689(3) 0.42444(8)
H35B H -0.0361 -0.1924 0.4065
C33B C -0.0370(4) -0.2095(2) 0.45083(10)
H36B H -0.0732 -0.2600 0.4505
C34B C -0.0051(4) -0.1745(3) 0.47765(8)
C35B C 0.0492(5) -0.0989(3) 0.47808(10)
H37B H 0.0706 -0.0755 0.4960
C36B C 0.0715(6) -0.0584(3) 0.45169(13)
H38B H 0.1077 -0.0079 0.4520
C37B C 0.0736(9) -0.0475(8) 0.39624(19)
H39B H 0.1056 0.0041 0.3961
N7B N -0.0230(4) -0.2158(3) 0.50438(14)
N5C N 0.0000 0.0000 0.67064(10)
C25D C -0.2836(2) -0.0207(3) 0.49553(13)
C26D C -0.4172(4) -0.0180(5) 0.4952(2)
C27D C -0.4124(2) -0.0745(4) 0.48028(17)
H29D H -0.4539 -0.1115 0.4702
C28D C -0.3456(2) -0.0759(4) 0.48045(10)
H30D H -0.3424 -0.1137 0.4705
N6D N -0.0895(7) 0.0526(9) 0.62849(15)
C29D C -0.0400(11) 0.0905(13) 0.6547(2)
H31D H -0.0559 0.1225 0.6643
H32D H 0.0111 0.1221 0.6479
C30D C -0.0421(9) 0.0348(12) 0.6771(2)
H33D H -0.0251 0.0603 0.6960
H34D H -0.0939 -0.0040 0.6796
C31D C -0.0934(3) 0.0395(5) 0.57514(10)
C32D C -0.1689(3) -0.0147(5) 0.57556(8)
H35D H -0.1924 -0.0361 0.5935
C33D C -0.2095(2) -0.0370(4) 0.54917(10)
H36D H -0.2600 -0.0732 0.5495
C34D C -0.1745(3) -0.0051(4) 0.52235(8)
C35D C -0.0989(3) 0.0492(5) 0.52192(10)
H37D H -0.0755 0.0706 0.5040
C36D C -0.0584(3) 0.0715(6) 0.54831(13)
H38D H -0.0079 0.1077 0.5480
C37D C -0.0475(8) 0.0736(9) 0.60376(19)
H39D H 0.0041 0.1056 0.6039
N7D N -0.2158(3) -0.0230(4) 0.49562(14)
C25E C 0.2629(2) 0.2836(2) 0.49553(13)
C26E C 0.3992(3) 0.4172(4) 0.4952(2)
C27E C 0.3379(4) 0.4124(2) 0.48028(17)
H29E H 0.3424 0.4539 0.4702
C28E C 0.2697(3) 0.3456(2) 0.48045(10)
H30E H 0.2287 0.3424 0.4705
N6E N 0.1421(5) 0.0895(7) 0.62849(15)
C29E C 0.1305(7) 0.0400(11) 0.6547(2)
H31E H 0.1784 0.0559 0.6643
H32E H 0.1110 -0.0111 0.6479
C30E C 0.0769(8) 0.0421(9) 0.6771(2)
H33E H 0.0854 0.0251 0.6960
H34E H 0.0899 0.0939 0.6796
C31E C 0.1329(4) 0.0934(3) 0.57514(10)
C32E C 0.1542(4) 0.1689(3) 0.57556(8)
H35E H 0.1563 0.1924 0.5935
C33E C 0.1725(4) 0.2095(2) 0.54917(10)
H36E H 0.1868 0.2600 0.5495
C34E C 0.1694(3) 0.1745(3) 0.52235(8)
C35E C 0.1481(4) 0.0989(3) 0.52192(10)
H37E H 0.1461 0.0755 0.5040
C36E C 0.1299(5) 0.0584(3) 0.54831(13)
H38E H 0.1156 0.0079 0.5480
C37E C 0.1211(5) 0.0475(8) 0.60376(19)
H39E H 0.1015 -0.0041 0.6039
N7E N 0.1928(3) 0.2158(3) 0.49562(14)
C25C C 0.0207(3) -0.2629(2) 0.49553(13)
C26C C 0.0180(5) -0.3992(3) 0.4952(2)
C27C C 0.0745(4) -0.3379(4) 0.48028(17)
H29C H 0.1115 -0.3424 0.4702
C28C C 0.0759(4) -0.2697(3) 0.48045(10)
H30C H 0.1137 -0.2287 0.4705
N6C N -0.0526(9) -0.1421(5) 0.62849(15)
C29C C -0.0905(13) -0.1305(7) 0.6547(2)
H31C H -0.1225 -0.1784 0.6643
H32C H -0.1221 -0.1110 0.6479
C30C C -0.0348(12) -0.0769(8) 0.6771(2)
H33C H -0.0603 -0.0854 0.6960
H34C H 0.0040 -0.0899 0.6796
C31C C -0.0395(5) -0.1329(4) 0.57514(10)
C32C C 0.0147(5) -0.1542(4) 0.57556(8)
H35C H 0.0361 -0.1563 0.5935
C33C C 0.0370(4) -0.1725(4) 0.54917(10)
H36C H 0.0732 -0.1868 0.5495
C34C C 0.0051(4) -0.1694(3) 0.52235(8)
C35C C -0.0492(5) -0.1481(4) 0.52192(10)
H37C H -0.0706 -0.1461 0.5040
C36C C -0.0715(6) -0.1299(5) 0.54831(13)
H38C H -0.1077 -0.1156 0.5480
C37C C -0.0736(9) -0.1211(5) 0.60376(19)
H39C H -0.1056 -0.1015 0.6039
N7C N 0.0230(4) -0.1928(3) 0.49562(14)
N1 N 0.38453(14) 0.10386(13) 0.53109(5)
C1 C 0.58854(16) 0.28629(16) 0.57249(6)
C2 C 0.41755(16) 0.26720(16) 0.43756(6)
H1 H 0.3962 0.2829 0.4521
C3 C 0.42586(17) 0.18328(16) 0.47486(6)
H2 H 0.4007 0.1976 0.4881
C4 C 0.36859(16) 0.06563(15) 0.55982(6)
H3 H 0.3942 0.0365 0.5609
N2 N 0.42376(14) 0.29276(13) 0.41181(5)
N3 N 0.47911(13) 0.16935(14) 0.58181(5)
C5 C 0.44195(16) 0.21383(16) 0.44634(6)
C6 C 0.3780(2) 0.0880(2) 0.61518(8)
H4 H 0.4041 0.0603 0.6182
H5 H 0.3948 0.1266 0.6303
C7 C 0.39477(15) 0.34348(17) 0.40674(5)
H6 H 0.3737 0.3496 0.4254
C8 C 0.44688(16) 0.13150(15) 0.48395(6)
C9 C 0.61962(17) 0.36292(17) 0.57231(6)
H7 H 0.5882 0.3832 0.5721
C10 C 0.39775(15) 0.12464(16) 0.58452(6)
H8 H 0.3760 0.1571 0.5822
C11 C 0.45583(16) 0.41923(17) 0.39630(5)
H9 H 0.4782 0.4133 0.3780
C12 C 0.42765(16) 0.09656(15) 0.51374(6)
H10 H 0.4486 0.0679 0.5198
C13 C 0.47986(17) 0.19193(17) 0.42663(6)
H11 H 0.4914 0.2121 0.4076
C14 C 0.2949(2) 0.0356(3) 0.61859(9)
H12 H 0.2691 0.0641 0.6179
H13 H 0.2850 0.0109 0.6378
C15 C 0.2651(2) -0.0228(2) 0.59416(10)
H14 H 0.2111 -0.0533 0.5960
H15 H 0.2862 -0.0554 0.5964
N4 N 0.51302(13) 0.45219(14) 0.41934(5)
C16 C 0.48480(16) 0.11102(15) 0.46402(6)
H16 H 0.5000 0.0774 0.4699
C17 C 0.50036(16) 0.14022(16) 0.43537(6)
C18 C 0.28461(18) 0.01330(19) 0.56320(8)
H17 H 0.2675 -0.0256 0.5482
H18 H 0.2588 0.0413 0.5601
C19 C 0.50750(16) 0.23725(16) 0.57521(6)
H19 H 0.4762 0.2570 0.5720
C20 C 0.33240(19) 0.3087(2) 0.38323(7)
H20 H 0.3528 0.3018 0.3648
H21 H 0.2935 0.2599 0.3900
C21 C 0.3588(3) 0.4358(3) 0.36797(9)
H22 H 0.3369 0.4678 0.3663
H23 H 0.3779 0.4331 0.3486
C22 C 0.2990(2) 0.3579(3) 0.37752(9)
H24 H 0.2748 0.3614 0.3955
H25 H 0.2612 0.3357 0.3621
C23 C 0.4235(2) 0.4701(2) 0.39026(9)
H26 H 0.4628 0.5176 0.3826
H27 H 0.4058 0.4798 0.4088
C24 C 0.57706(17) 0.46398(17) 0.41352(6)
H28 H 0.5861 0.4501 0.3950
N1A N 0.89614(13) 0.28067(19) 0.53109(5)
C1A C 0.71371(16) 0.30225(23) 0.57249(6)
C2A C 0.73280(16) 0.15035(23) 0.43756(6)
H1A H 0.7171 0.1133 0.4521
C3A C 0.81672(16) 0.24258(23) 0.47486(6)
H2A H 0.8024 0.2031 0.4881
C4A C 0.93437(15) 0.30296(22) 0.55982(6)
H3A H 0.9635 0.3577 0.5609
N2A N 0.70724(13) 0.13100(19) 0.41181(5)
N3A N 0.83065(14) 0.30976(19) 0.58181(5)
C5A C 0.78617(16) 0.22812(23) 0.44634(6)
C6A C 0.9120(2) 0.2900(3) 0.61518(8)
H4A H 0.9397 0.3438 0.6182
H5A H 0.8734 0.2682 0.6303
C7A C 0.65652(17) 0.05129(23) 0.40674(5)
H6A H 0.6504 0.0241 0.4254
C8A C 0.86850(15) 0.31538(22) 0.48395(6)
C9A C 0.63708(17) 0.25670(24) 0.57231(6)
H7A H 0.6168 0.2050 0.5721
C10A C 0.87536(16) 0.27311(22) 0.58452(6)
H8A H 0.8429 0.2189 0.5822
C11A C 0.58077(17) 0.03660(23) 0.39630(5)
H9A H 0.5867 0.0649 0.3780
C12A C 0.90344(15) 0.33109(22) 0.51374(6)
H10A H 0.9321 0.3807 0.5198
C13A C 0.80807(17) 0.28793(24) 0.42663(6)
H11A H 0.7879 0.2793 0.4076
C14A C 0.9644(3) 0.2593(4) 0.61859(9)
H12A H 0.9359 0.2050 0.6179
H13A H 0.9891 0.2741 0.6378
C15A C 1.0228(2) 0.2879(3) 0.59416(10)
H14A H 1.0533 0.2644 0.5960
H15A H 1.0554 0.3416 0.5964
N4A N 0.54781(14) 0.06083(19) 0.41934(5)
C16A C 0.88898(15) 0.37378(22) 0.46402(6)
H16A H 0.9226 0.4226 0.4699
C17A C 0.85978(16) 0.36014(23) 0.43537(6)
C18A C 0.98670(19) 0.27131(26) 0.56320(8)
H17A H 1.0256 0.2931 0.5482
H18A H 0.9587 0.2175 0.5601
C19A C 0.76275(16) 0.27025(23) 0.57521(6)
H19A H 0.7430 0.2192 0.5720
C20A C 0.6913(2) 0.02370(28) 0.38323(7)
H20A H 0.6982 0.0510 0.3648
H21A H 0.7401 0.0336 0.3900
C21A C 0.5642(3) -0.0770(4) 0.36797(9)
H22A H 0.5322 -0.1309 0.3663
H23A H 0.5669 -0.0552 0.3486
C22A C 0.6421(3) -0.0589(4) 0.37752(9)
H24A H 0.6386 -0.0866 0.3955
H25A H 0.6643 -0.0745 0.3621
C23A C 0.5299(2) -0.0466(3) 0.39026(9)
H26A H 0.4824 -0.0548 0.3826
H27A H 0.5202 -0.0740 0.4088
C24A C 0.53602(17) 0.11308(24) 0.41352(6)
H28A H 0.5499 0.1360 0.3950
N1B N 0.71933(19) 0.61547(14) 0.53109(5)
C1B C 0.69775(23) 0.41146(16) 0.57249(6)
C2B C 0.84965(23) 0.58245(16) 0.43756(6)
H1B H 0.8867 0.6038 0.4521
C3B C 0.75742(23) 0.57414(17) 0.47486(6)
H2B H 0.7969 0.5993 0.4881
C4B C 0.69704(22) 0.63141(16) 0.55982(6)
H3B H 0.6423 0.6058 0.5609
N2B N 0.86900(19) 0.57624(14) 0.41181(5)
N3B N 0.69024(19) 0.52089(13) 0.58181(5)
C5B C 0.77188(23) 0.55805(16) 0.44634(6)
C6B C 0.7100(3) 0.6220(2) 0.61518(8)
H4B H 0.6562 0.5959 0.6182
H5B H 0.7318 0.6052 0.6303
C7B C 0.94871(23) 0.60523(15) 0.40674(5)
H6B H 0.9759 0.6263 0.4254
C8B C 0.68462(22) 0.55312(16) 0.48395(6)
C9B C 0.74330(24) 0.38038(17) 0.57231(6)
H7B H 0.7950 0.4118 0.5721
C10B C 0.72689(22) 0.60225(15) 0.58452(6)
H8B H 0.7811 0.6240 0.5822
C11B C 0.96340(23) 0.54417(16) 0.39630(5)
H9B H 0.9351 0.5218 0.3780
C12B C 0.66891(22) 0.57235(16) 0.51374(6)
H10B H 0.6193 0.5514 0.5198
C13B C 0.71207(24) 0.52014(17) 0.42663(6)
H11B H 0.7207 0.5086 0.4076
C14B C 0.7407(4) 0.7051(2) 0.61859(9)
H12B H 0.7950 0.7309 0.6179
H13B H 0.7259 0.7150 0.6378
C15B C 0.7121(3) 0.7349(2) 0.59416(10)
H14B H 0.7356 0.7889 0.5960
H15B H 0.6584 0.7138 0.5964
N4B N 0.93917(19) 0.48698(13) 0.41934(5)
C16B C 0.62622(22) 0.51520(16) 0.46402(6)
H16B H 0.5774 0.5000 0.4699
C17B C 0.63986(23) 0.49964(16) 0.43537(6)
C18B C 0.72869(26) 0.71539(18) 0.56320(8)
H17B H 0.7069 0.7325 0.5482
H18B H 0.7825 0.7412 0.5601
C19B C 0.72975(23) 0.49250(16) 0.57521(6)
H19B H 0.7808 0.5238 0.5720
C20B C 0.97630(28) 0.66760(19) 0.38323(7)
H20B H 0.9490 0.6472 0.3648
H21B H 0.9664 0.7065 0.3900
C21B C 1.0770(4) 0.6412(3) 0.36797(9)
H22B H 1.1309 0.6631 0.3663
H23B H 1.0552 0.6221 0.3486
C22B C 1.0589(4) 0.7010(2) 0.37752(9)
H24B H 1.0866 0.7252 0.3955
H25B H 1.0745 0.7388 0.3621
C23B C 1.0466(3) 0.5765(2) 0.39026(9)
H26B H 1.0548 0.5372 0.3826
H27B H 1.0740 0.5942 0.4088
C24B C 0.88692(24) 0.42294(17) 0.41352(6)
H28B H 0.8640 0.4139 0.3950
C38? C 0.1360(3) 0.0595(2) 0.58077(9)
C39? C 0.1808(2) 0.1368(2) 0.58346(7)
H40? H 0.1933 0.1588 0.6022
C40? C 0.2067(2) 0.1813(2) 0.55813(8)
H41? H 0.2367 0.2330 0.5599
C41? C 0.1879(2) 0.1484(3) 0.53010(7)
C42? C 0.1432(3) 0.0712(3) 0.52741(9)
H42? H 0.1306 0.0492 0.5087
C43? C 0.1172(3) 0.02672(19) 0.55275(11)
H43? H 0.0873 -0.0250 0.5509
N8? N 0.1329(3) 0.0365(4) 0.63328(14)
C44? C 0.1094(6) 0.0090(5) 0.6081(2)
H44? H 0.0758 -0.0421 0.6061
C45? C 0.0717(7) 0.0079(6) 0.6827(3)
H45? H 0.0617 -0.0237 0.7001
H46? H 0.1059 0.0595 0.6883
C46? C 0.1052(4) -0.0159(5) 0.65811(15)
H47? H 0.1463 -0.0208 0.6662
H48? H 0.0676 -0.0647 0.6509
C47? C 0.3552(5) 0.3924(2) 0.48972(17)
C48? C 0.2884(3) 0.3243(3) 0.48956(12)
H49? H 0.3197 0.2469 0.5205
H50? H 0.4334 0.3584 0.5203
H51? H 0.4618 0.4448 0.5049
loop_
_geom_bond_atom_site_label_1
_geom_bond_atom_site_label_2
_geom_bond_site_symmetry_1
_geom_bond_site_symmetry_2
N1 C4 1_555 1_555
C1 C9 1_555 1_555
C2 H1 1_555 1_555
C3 H2 1_555 1_555
C4 H3 1_555 1_555
N2 C2 1_555 1_555
N3 C10 1_555 1_555
C5 C2 1_555 1_555
C6 H4 1_555 1_555
H5 C6 1_555 1_555
C7 N2 1_555 1_555
H6 C7 1_555 1_555
C8 C3 1_555 1_555
C9 H7 1_555 1_555
C10 C4 1_555 1_555
H8 C10 1_555 1_555
C11 C7 1_555 1_555
H9 C11 1_555 1_555
C12 N1 1_555 1_555
H10 C12 1_555 1_555
C13 C5 1_555 1_555
H11 C13 1_555 1_555
C14 C6 1_555 1_555
H12 C14 1_555 1_555
H13 C14 1_555 1_555
C15 C14 1_555 1_555
H14 C15 1_555 1_555
H15 C15 1_555 1_555
N4 C11 1_555 1_555
C16 C8 1_555 1_555
H16 C16 1_555 1_555
C17 C13 1_555 1_555
C18 C4 1_555 1_555
H17 C18 1_555 1_555
H18 C18 1_555 1_555
C19 C1 1_555 1_555
H19 C19 1_555 1_555
C20 C7 1_555 1_555
H20 C20 1_555 1_555
H21 C20 1_555 1_555
C21 H22 1_555 1_555
H23 C21 1_555 1_555
C22 C20 1_555 1_555
H24 C22 1_555 1_555
H25 C22 1_555 1_555
C23 C11 1_555 1_555
H26 C23 1_555 1_555
H27 C23 1_555 1_555
C24 N4 1_555 1_555
H28 C24 1_555 1_555
N5 C30 1_555 1_555
C25 C28 1_555 1_555
C26 C27 1_555 1_555
C27 H29 1_555 1_555
C28 C27 1_555 1_555
H30 C28 1_555 1_555
N6 C29 1_555 1_555
C29 H31 1_555 1_555
H32 C29 1_555 1_555
C30 C29 1_555 1_555
H33 C30 1_555 1_555
H34 C30 1_555 1_555
C31 C32 1_555 1_555
C32 H35 1_555 1_555
C33 C32 1_555 1_555
H36 C33 1_555 1_555
C34 C33 1_555 1_555
C35 C34 1_555 1_555
H37 C35 1_555 1_555
C36 C31 1_555 1_555
H38 C36 1_555 1_555
C37 N6 1_555 1_555
H39 C37 1_555 1_555
N7 C25 1_555 1_555
N1A C4A 1_555 1_555
C1A C9A 1_555 1_555
C2A H1A 1_555 1_555
C3A H2A 1_555 1_555
C4A H3A 1_555 1_555
N2A C2A 1_555 1_555
N3A C10A 1_555 1_555
C5A C2A 1_555 1_555
C6A H4A 1_555 1_555
H5A C6A 1_555 1_555
C7A N2A 1_555 1_555
H6A C7A 1_555 1_555
C8A C3A 1_555 1_555
C9A C1 1_555 1_555
H7A C9A 1_555 1_555
C10A C4A 1_555 1_555
H8A C10A 1_555 1_555
C11A C7A 1_555 1_555
H9A C11A 1_555 1_555
C12A N1A 1_555 1_555
H10A C12A 1_555 1_555
C13A C5A 1_555 1_555
H11A C13A 1_555 1_555
C14A C6A 1_555 1_555
H12A C14A 1_555 1_555
H13A C14A 1_555 1_555
C15A C14A 1_555 1_555
H14A C15A 1_555 1_555
H15A C15A 1_555 1_555
N4A C11A 1_555 1_555
C16A C8A 1_555 1_555
H16A C16A 1_555 1_555
C17A C13A 1_555 1_555
C18A C4A 1_555 1_555
H17A C18A 1_555 1_555
H18A C18A 1_555 1_555
C19A C1A 1_555 1_555
H19A C19A 1_555 1_555
C20A C7A 1_555 1_555
H20A C20A 1_555 1_555
H21A C20A 1_555 1_555
C21A H22A 1_555 1_555
H23A C21A 1_555 1_555
C22A C20A 1_555 1_555
H24A C22A 1_555 1_555
H25A C22A 1_555 1_555
C23A C11A 1_555 1_555
H26A C23A 1_555 1_555
H27A C23A 1_555 1_555
C24A C17 1_555 1_555
H28A C24A 1_555 1_555
N1B C4B 1_555 1_555
C1B C9 1_555 1_555
C2B H1B 1_555 1_555
C3B H2B 1_555 1_555
C4B H3B 1_555 1_555
N2B C2B 1_555 1_555
N3B C10B 1_555 1_555
C5B C2B 1_555 1_555
C6B H4B 1_555 1_555
H5B C6B 1_555 1_555
C7B N2B 1_555 1_555
H6B C7B 1_555 1_555
C8B C3B 1_555 1_555
C9B C1A 1_555 1_555
H7B C9B 1_555 1_555
C10B C4B 1_555 1_555
H8B C10B 1_555 1_555
C11B C7B 1_555 1_555
H9B C11B 1_555 1_555
C12B N1B 1_555 1_555
H10B C12B 1_555 1_555
C13B C5B 1_555 1_555
H11B C13B 1_555 1_555
C14B C6B 1_555 1_555
H12B C14B 1_555 1_555
H13B C14B 1_555 1_555
C15B C14B 1_555 1_555
H14B C15B 1_555 1_555
H15B C15B 1_555 1_555
N4B C11B 1_555 1_555
C16B C8B 1_555 1_555
H16B C16B 1_555 1_555
C17B C24 1_555 1_555
C18B C4B 1_555 1_555
H17B C18B 1_555 1_555
H18B C18B 1_555 1_555
C19B C1B 1_555 1_555
H19B C19B 1_555 1_555
C20B C7B 1_555 1_555
H20B C20B 1_555 1_555
H21B C20B 1_555 1_555
C21B H22B 1_555 1_555
H23B C21B 1_555 1_555
C22B C20B 1_555 1_555
H24B C22B 1_555 1_555
H25B C22B 1_555 1_555
C23B C11B 1_555 1_555
H26B C23B 1_555 1_555
H27B C23B 1_555 1_555
C24B C17A 1_555 1_555
H28B C24B 1_555 1_555
C25A C28A 1_555 1_555
C26A C27A 1_555 1_555
C27A H29A 1_555 1_555
C28A C27A 1_555 1_555
H30A C28A 1_555 1_555
N6A C29A 1_555 1_555
C29A H31A 1_555 1_555
H32A C29A 1_555 1_555
C30A N5 1_555 1_555
H33A C30A 1_555 1_555
H34A C30A 1_555 1_555
C31A C32A 1_555 1_555
C32A H35A 1_555 1_555
C33A C32A 1_555 1_555
H36A C33A 1_555 1_555
C34A C33A 1_555 1_555
C35A C34A 1_555 1_555
H37A C35A 1_555 1_555
C36A C31A 1_555 1_555
H38A C36A 1_555 1_555
C37A N6A 1_555 1_555
H39A C37A 1_555 1_555
N7A C25A 1_555 1_555
C25B C28B 1_555 1_555
C26B C27B 1_555 1_555
C27B H29B 1_555 1_555
C28B C27B 1_555 1_555
H30B C28B 1_555 1_555
N6B C29B 1_555 1_555
C29B H31B 1_555 1_555
H32B C29B 1_555 1_555
C30B N5 1_555 1_555
H33B C30B 1_555 1_555
H34B C30B 1_555 1_555
C31B C32B 1_555 1_555
C32B H35B 1_555 1_555
C33B C32B 1_555 1_555
H36B C33B 1_555 1_555
C34B C33B 1_555 1_555
C35B C34B 1_555 1_555
H37B C35B 1_555 1_555
C36B C31B 1_555 1_555
H38B C36B 1_555 1_555
C37B N6B 1_555 1_555
H39B C37B 1_555 1_555
N7B C25B 1_555 1_555
N5C C30D 1_555 1_555
C25D C25A 1_555 1_555
C26D C26A 1_555 1_555
C27D C26D 1_555 1_555
H29D C27D 1_555 1_555
C28D C25D 1_555 1_555
H30D C28D 1_555 1_555
N6D C29D 1_555 1_555
C29D H31D 1_555 1_555
H32D C29D 1_555 1_555
C30D C29D 1_555 1_555
H33D C30D 1_555 1_555
H34D C30D 1_555 1_555
C31D C32D 1_555 1_555
C32D H35D 1_555 1_555
C33D C32D 1_555 1_555
H36D C33D 1_555 1_555
C34D N7A 1_555 1_555
C35D C34D 1_555 1_555
H37D C35D 1_555 1_555
C36D C31D 1_555 1_555
H38D C36D 1_555 1_555
C37D N6D 1_555 1_555
H39D C37D 1_555 1_555
N7D C34A 1_555 1_555
C25E C25 1_555 1_555
C26E C26 1_555 1_555
C27E C26E 1_555 1_555
H29E C27E 1_555 1_555
C28E C25E 1_555 1_555
H30E C28E 1_555 1_555
N6E C29E 1_555 1_555
C29E H31E 1_555 1_555
H32E C29E 1_555 1_555
C30E N5C 1_555 1_555
H33E C30E 1_555 1_555
H34E C30E 1_555 1_555
C31E C32E 1_555 1_555
C32E H35E 1_555 1_555
C33E C32E 1_555 1_555
H36E C33E 1_555 1_555
C34E N7 1_555 1_555
C35E C34E 1_555 1_555
H37E C35E 1_555 1_555
C36E C31E 1_555 1_555
H38E C36E 1_555 1_555
C37E N6E 1_555 1_555
H39E C37E 1_555 1_555
N7E C34 1_555 1_555
C25C C25B 1_555 1_555
C26C C26B 1_555 1_555
C27C C26C 1_555 1_555
H29C C27C 1_555 1_555
C28C C25C 1_555 1_555
H30C C28C 1_555 1_555
N6C C29C 1_555 1_555
C29C H31C 1_555 1_555
H32C C29C 1_555 1_555
C30C N5C 1_555 1_555
H33C C30C 1_555 1_555
H34C C30C 1_555 1_555
C31C C32C 1_555 1_555
C32C H35C 1_555 1_555
C33C C32C 1_555 1_555
H36C C33C 1_555 1_555
C34C N7B 1_555 1_555
C35C C34C 1_555 1_555
H37C C35C 1_555 1_555
C36C C31C 1_555 1_555
H38C C36C 1_555 1_555
C37C N6C 1_555 1_555
H39C C37C 1_555 1_555
N7C C34B 1_555 1_555
C3 C5 1_555 1_555
N3 C19 1_555 1_555
C6 C10 1_555 1_555
C8 C12 1_555 1_555
C15 C18 1_555 1_555
C16 C17 1_555 1_555
C21 C22 1_555 1_555
C21 C23 1_555 1_555
C31 C37 1_555 1_555
C34 N7 1_555 1_555
C35 C36 1_555 1_555
N7 N7E 1_555 1_555
C3A C5A 1_555 1_555
N3A C19A 1_555 1_555
C6A C10A 1_555 1_555
C8A C12A 1_555 1_555
C15A C18A 1_555 1_555
N4A C24A 1_555 1_555
C16A C17A 1_555 1_555
C21A C22A 1_555 1_555
C21A C23A 1_555 1_555
C1B C9B 1_555 1_555
C3B C5B 1_555 1_555
N3B C19B 1_555 1_555
C6B C10B 1_555 1_555
C8B C12B 1_555 1_555
C13B C17B 1_555 1_555
C15B C18B 1_555 1_555
N4B C24B 1_555 1_555
C16B C17B 1_555 1_555
C21B C22B 1_555 1_555
C21B C23B 1_555 1_555
C29A C30A 1_555 1_555
C31A C37A 1_555 1_555
C34A N7A 1_555 1_555
C35A C36A 1_555 1_555
N7A N7D 1_555 1_555
C29B C30B 1_555 1_555
C31B C37B 1_555 1_555
C34B N7B 1_555 1_555
C35B C36B 1_555 1_555
N7B N7C 1_555 1_555
C25D N7D 1_555 1_555
C27D C28D 1_555 1_555
C31D C37D 1_555 1_555
C33D C34D 1_555 1_555
C34D N7D 1_555 1_555
C35D C36D 1_555 1_555
C25E N7E 1_555 1_555
C27E C28E 1_555 1_555
C29E C30E 1_555 1_555
C31E C37E 1_555 1_555
C33E C34E 1_555 1_555
C34E N7E 1_555 1_555
C35E C36E 1_555 1_555
C25C N7C 1_555 1_555
C27C C28C 1_555 1_555
C29C C30C 1_555 1_555
C31C C37C 1_555 1_555
C33C C34C 1_555 1_555
C34C N7C 1_555 1_555
C35C C36C 1_555 1_555

#END
