
#######################################################################
#
#                 Cambridge Crystallographic Data Centre
#                                CCDC 
#
#######################################################################
#
# If this CIF has been generated from an entry in the Cambridge 
# Structural Database, then it will include bibliographic, chemical, 
# crystal, experimental, refinement or atomic coordinate data resulting 
# from the CCDC's data processing and validation procedures.
#
#######################################################################

data_MOTZIE
_chemical_formula_moiety         'C6 H3 Br1 N2 S2'
_chemical_name_systematic        6-Bromo-1,3,2,4-benzodithiadiazine
_symmetry_cell_setting           triclinic
_symmetry_space_group_name_H-M   'P -1'
_symmetry_Int_Tables_number      2
_space_group_name_Hall           '-P 1'
loop_
_symmetry_equiv_pos_site_id
_symmetry_equiv_pos_as_xyz
1 x,y,z
2 -x,-y,-z
_cell_length_a                   3.9933(5)
_cell_length_b                   10.9030(10)
_cell_length_c                   18.428(2)
_cell_angle_alpha                97.532(7)
_cell_angle_beta                 91.743(9)
_cell_angle_gamma                95.351(8)
_cell_volume                     791.207
_exptl_crystal_colour            black
_exptl_crystal_description       needle
_chemical_melting_point          '92-93 deg.C'
_cell_formula_units_Z            4
loop_
_atom_site_label
_atom_site_type_symbol
_atom_site_fract_x
_atom_site_fract_y
_atom_site_fract_z
Br1 Br 0.36656(13) 0.35676(4) 0.58358(3)
S1 S -0.1725(3) 0.07223(12) 0.26719(6)
N1 N -0.0552(11) -0.0732(4) 0.2587(2)
S2 S 0.1359(3) -0.12557(11) 0.31996(7)
N2 N 0.2299(11) -0.0424(3) 0.3923(2)
C1 C 0.2664(11) 0.1474(4) 0.4731(2)
C2 C 0.2139(11) 0.2717(4) 0.4903(2)
C3 C 0.0550(12) 0.3330(4) 0.4412(3)
C4 C -0.0577(12) 0.2675(4) 0.3735(3)
C5 C -0.0077(11) 0.1451(4) 0.3550(2)
C6 C 0.1574(11) 0.0839(4) 0.4058(2)
H1 H 0.367(11) 0.103(4) 0.511(2)
H2 H 0.027(12) 0.423(4) 0.454(3)
H3 H -0.174(12) 0.304(4) 0.342(3)
Br2 Br 0.32954(13) -0.16217(4) 0.10730(3)
S3 S 0.6595(3) -0.37186(13) -0.22278(6)
N3 N 0.4813(12) -0.5186(4) -0.2427(2)
S4 S 0.2718(4) -0.58676(12) -0.18805(7)
N4 N 0.2260(11) -0.5190(3) -0.1112(2)
C7 C 0.3056(11) -0.3480(4) -0.0167(2)
C8 C 0.4352(11) -0.2268(4) 0.0109(2)
C9 C 0.6226(12) -0.1547(4) -0.0304(3)
C10 C 0.6833(12) -0.2028(4) -0.1022(3)
C11 C 0.5590(11) -0.3212(4) -0.1305(2)
C12 C 0.3678(11) -0.3957(4) -0.0875(2)
H4 H 0.164(11) -0.396(4) 0.018(2)
H5 H 0.685(12) -0.064(4) -0.012(3)
H6 H 0.824(14) -0.152(5) -0.131(3)
loop_
_geom_bond_atom_site_label_1
_geom_bond_atom_site_label_2
_geom_bond_site_symmetry_1
_geom_bond_site_symmetry_2
Br1 C2 1_555 1_555
S1 N1 1_555 1_555
N1 S2 1_555 1_555
S2 N2 1_555 1_555
N2 C6 1_555 1_555
C1 C2 1_555 1_555
C2 C3 1_555 1_555
C3 C4 1_555 1_555
C4 C5 1_555 1_555
C5 S1 1_555 1_555
C6 C1 1_555 1_555
Br2 C8 1_555 1_555
S3 N3 1_555 1_555
N3 S4 1_555 1_555
S4 N4 1_555 1_555
N4 C12 1_555 1_555
C7 C8 1_555 1_555
C8 C9 1_555 1_555
C9 C10 1_555 1_555
C10 C11 1_555 1_555
C11 S3 1_555 1_555
C12 C7 1_555 1_555
H1 C1 1_555 1_555
H2 C3 1_555 1_555
H3 C4 1_555 1_555
H4 C7 1_555 1_555
H5 C9 1_555 1_555
H6 C10 1_555 1_555
C5 C6 1_555 1_555
C11 C12 1_555 1_555

#END
