
#######################################################################
#
#                 Cambridge Crystallographic Data Centre
#                                CCDC 
#
#######################################################################
#
# If this CIF has been generated from an entry in the Cambridge 
# Structural Database, then it will include bibliographic, chemical, 
# crystal, experimental, refinement or atomic coordinate data resulting 
# from the CCDC's data processing and validation procedures.
#
#######################################################################

data_MOTZEA
_chemical_formula_moiety         'C6 H3 Br1 N2 S2'
_chemical_name_systematic        5-Bromo-1,3,2,4-benzodithiadiazine
_symmetry_cell_setting           orthorhombic
_symmetry_space_group_name_H-M   'F d d 2'
_symmetry_Int_Tables_number      43
_space_group_name_Hall           'F 2 -2d'
loop_
_symmetry_equiv_pos_site_id
_symmetry_equiv_pos_as_xyz
1 x,y,z
2 -x,-y,z
3 1/4+x,1/4-y,1/4+z
4 1/4-x,1/4+y,1/4+z
5 x,1/2+y,1/2+z
6 -x,1/2-y,1/2+z
7 1/4+x,3/4-y,3/4+z
8 1/4-x,3/4+y,3/4+z
9 1/2+x,y,1/2+z
10 1/2-x,-y,1/2+z
11 3/4+x,1/4-y,3/4+z
12 3/4-x,1/4+y,3/4+z
13 1/2+x,1/2+y,z
14 1/2-x,1/2-y,z
15 3/4+x,3/4-y,1/4+z
16 3/4-x,3/4+y,1/4+z
_cell_length_a                   13.094(2)
_cell_length_b                   31.286(5)
_cell_length_c                   7.7411(11)
_cell_angle_alpha                90
_cell_angle_beta                 90
_cell_angle_gamma                90
_cell_volume                     3171.21
_exptl_crystal_colour            black-green
_exptl_crystal_description       plate
_chemical_melting_point          '103-105 deg.C'
_cell_formula_units_Z            16
loop_
_atom_site_label
_atom_site_type_symbol
_atom_site_fract_x
_atom_site_fract_y
_atom_site_fract_z
Br1 Br 0.32998(4) 0.190977(19) 1.14740(11)
S1 S 0.13817(15) 0.04125(5) 1.3918(3)
N1 N 0.2397(5) 0.01991(17) 1.2927(11)
S2 S 0.31711(13) 0.04684(5) 1.1880(3)
N2 N 0.3061(4) 0.09540(14) 1.1852(8)
C1 C 0.2302(3) 0.16171(15) 1.2761(7)
C2 C 0.1585(4) 0.18585(18) 1.3659(9)
H1 H 0.161(4) 0.213(2) 1.356(9)
C3 C 0.0852(4) 0.1655(2) 1.4579(9)
H2 H 0.030(8) 0.180(3) 1.495(15)
C4 C 0.0814(4) 0.1215(2) 1.4652(10)
H3 H 0.037(9) 0.108(5) 1.522(19)
C5 C 0.1519(4) 0.09768(17) 1.3756(8)
C6 C 0.2290(4) 0.11756(16) 1.2763(7)
loop_
_geom_bond_atom_site_label_1
_geom_bond_atom_site_label_2
_geom_bond_site_symmetry_1
_geom_bond_site_symmetry_2
Br1 C1 1_555 1_555
S1 N1 1_555 1_555
N1 S2 1_555 1_555
S2 N2 1_555 1_555
N2 C6 1_555 1_555
C1 C2 1_555 1_555
C2 H1 1_555 1_555
C3 C2 1_555 1_555
H2 C3 1_555 1_555
C4 C3 1_555 1_555
H3 C4 1_555 1_555
C5 S1 1_555 1_555
C6 C1 1_555 1_555
C4 C5 1_555 1_555
C5 C6 1_555 1_555

#END
