
#######################################################################
#
#                 Cambridge Crystallographic Data Centre
#                                CCDC 
#
#######################################################################
#
# If this CIF has been generated from an entry in the Cambridge 
# Structural Database, then it will include bibliographic, chemical, 
# crystal, experimental, refinement or atomic coordinate data resulting 
# from the CCDC's data processing and validation procedures.
#
#######################################################################

data_MOVLAL
_chemical_formula_moiety         'C22 H13 Cl2 F1 N2 O1 S2'
_chemical_name_systematic        
(5-Anilino-3-(phenylimino)-3H-1,2-dithiol-4-yl)(2,4-dichloro-5-fluorophenyl)methanone
_chemical_properties_biological  
'showed strong inhibitory activity against HepG2 human liver cancer cells'
_symmetry_cell_setting           triclinic
_symmetry_space_group_name_H-M   'P -1'
_symmetry_Int_Tables_number      2
_space_group_name_Hall           '-P 1'
loop_
_symmetry_equiv_pos_site_id
_symmetry_equiv_pos_as_xyz
1 x,y,z
2 -x,-y,-z
_cell_length_a                   9.896(2)
_cell_length_b                   10.256(2)
_cell_length_c                   11.128(2)
_cell_angle_alpha                89.64(3)
_cell_angle_beta                 73.71(3)
_cell_angle_gamma                82.42(3)
_cell_volume                     1074.04
_exptl_crystal_colour            colorless
_exptl_crystal_description       block
_chemical_melting_point          '169 deg.C'
_cell_formula_units_Z            2
loop_
_atom_site_label
_atom_site_type_symbol
_atom_site_fract_x
_atom_site_fract_y
_atom_site_fract_z
Cl1 Cl 0.19266(8) 0.84084(9) 0.37425(7)
Cl2 Cl 0.60094(14) 0.62485(9) 0.57540(11)
S1 S 0.14609(8) 0.57819(7) 0.01785(7)
S2 S 0.17082(8) 0.73521(7) -0.10118(7)
F1 F 0.7655(2) 0.5752(2) 0.3134(3)
O1 O 0.4772(2) 0.8919(2) 0.07949(19)
N1 N 0.3321(2) 0.9150(2) -0.08592(18)
H1 H 0.3961 0.9467 -0.0609
N2 N 0.2916(3) 0.5431(2) 0.1875(2)
C1 C 0.3568(3) 0.9718(3) -0.3022(2)
H2 H 0.4447 0.9192 -0.3255
C2 C 0.3041(4) 1.0382(3) -0.3919(3)
H3 H 0.3566 1.0297 -0.4757
C3 C 0.1753(4) 1.1161(3) -0.3579(3)
H4 H 0.1400 1.1599 -0.4185
C4 C 0.0989(4) 1.1292(4) -0.2350(4)
H5 H 0.0111 1.1817 -0.2117
C5 C 0.1517(3) 1.0645(3) -0.1447(3)
H6 H 0.1007 1.0757 -0.0606
C6 C 0.2790(3) 0.9841(2) -0.1795(2)
C7 C 0.2876(2) 0.8041(2) -0.0356(2)
C8 C 0.3268(2) 0.7389(2) 0.0630(2)
C9 C 0.2664(2) 0.6176(2) 0.1027(2)
C10 C 0.2178(3) 0.4318(2) 0.2205(2)
C11 C 0.0854(3) 0.4458(3) 0.3053(3)
H7 H 0.0413 0.5289 0.3377
C12 C 0.0170(4) 0.3367(3) 0.3429(4)
H8 H -0.0726 0.3474 0.4004
C13 C 0.0794(4) 0.2137(3) 0.2965(4)
H9 H 0.0328 0.1409 0.3217
C14 C 0.2118(5) 0.1990(3) 0.2122(4)
H10 H 0.2550 0.1155 0.1802
C15 C 0.2824(4) 0.3071(3) 0.1739(3)
H11 H 0.3726 0.2958 0.1174
C16 C 0.4196(3) 0.7943(2) 0.1212(2)
C17 C 0.4553(2) 0.7369(2) 0.2355(2)
C18 C 0.3635(3) 0.7602(2) 0.3547(2)
C19 C 0.4052(3) 0.7237(3) 0.4601(3)
H12 H 0.3417 0.7397 0.5395
C20 C 0.5419(4) 0.6633(3) 0.4460(3)
C21 C 0.6320(3) 0.6370(3) 0.3274(4)
C22 C 0.5913(3) 0.6744(3) 0.2230(3)
H13 H 0.6551 0.6578 0.1439
loop_
_geom_bond_atom_site_label_1
_geom_bond_atom_site_label_2
_geom_bond_site_symmetry_1
_geom_bond_site_symmetry_2
Cl1 C18 1_555 1_555
Cl2 C20 1_555 1_555
S1 S2 1_555 1_555
S2 C7 1_555 1_555
F1 C21 1_555 1_555
O1 C16 1_555 1_555
N1 H1 1_555 1_555
N2 C9 1_555 1_555
C1 H2 1_555 1_555
C2 C1 1_555 1_555
H3 C2 1_555 1_555
C3 C2 1_555 1_555
H4 C3 1_555 1_555
C4 C3 1_555 1_555
H5 C4 1_555 1_555
C5 C4 1_555 1_555
H6 C5 1_555 1_555
C6 N1 1_555 1_555
C7 N1 1_555 1_555
C8 C7 1_555 1_555
C9 S1 1_555 1_555
C10 N2 1_555 1_555
C11 C10 1_555 1_555
H7 C11 1_555 1_555
C12 C11 1_555 1_555
H8 C12 1_555 1_555
C13 C12 1_555 1_555
H9 C13 1_555 1_555
C14 C13 1_555 1_555
H10 C14 1_555 1_555
C15 C10 1_555 1_555
H11 C15 1_555 1_555
C16 C8 1_555 1_555
C17 C16 1_555 1_555
C18 C17 1_555 1_555
C19 C18 1_555 1_555
H12 C19 1_555 1_555
C20 C19 1_555 1_555
C21 C20 1_555 1_555
C22 C17 1_555 1_555
H13 C22 1_555 1_555
C1 C6 1_555 1_555
C5 C6 1_555 1_555
C8 C9 1_555 1_555
C14 C15 1_555 1_555
C21 C22 1_555 1_555

#END
