
#######################################################################
#
#                 Cambridge Crystallographic Data Centre
#                                CCDC 
#
#######################################################################
#
# If this CIF has been generated from an entry in the Cambridge 
# Structural Database, then it will include bibliographic, chemical, 
# crystal, experimental, refinement or atomic coordinate data resulting 
# from the CCDC's data processing and validation procedures.
#
#######################################################################

data_MOVLIT
_chemical_formula_moiety         'C22 H13 Cl1 N2 O1 S2'
_chemical_name_systematic        
7-Chloro-9-phenyl-3-(phenylimino)-3,9-dihydro-4H-[1,2]dithiolo[3,4-b]quinolin-4-one
_symmetry_cell_setting           monoclinic
_symmetry_space_group_name_H-M   'P 21/c'
_symmetry_Int_Tables_number      14
_space_group_name_Hall           '-P 2ybc'
loop_
_symmetry_equiv_pos_site_id
_symmetry_equiv_pos_as_xyz
1 x,y,z
2 -x,1/2+y,1/2-z
3 -x,-y,-z
4 x,1/2-y,1/2+z
_cell_length_a                   11.497(2)
_cell_length_b                   7.5370(15)
_cell_length_c                   22.384(5)
_cell_angle_alpha                90
_cell_angle_beta                 103.64(3)
_cell_angle_gamma                90
_cell_volume                     1884.93
_exptl_crystal_colour            colorless
_exptl_crystal_description       needle
_chemical_melting_point          '275 deg.C'
_cell_formula_units_Z            4
loop_
_atom_site_label
_atom_site_type_symbol
_atom_site_fract_x
_atom_site_fract_y
_atom_site_fract_z
Cl1 Cl 1.04276(8) 0.42210(14) 0.11606(4)
S1 S 0.23643(8) 0.22627(14) 0.01827(4)
S2 S 0.36716(8) 0.29103(14) 0.09537(4)
O1 O 0.5439(2) 0.1769(4) -0.08889(10)
N1 N 0.5958(2) 0.3070(4) 0.09315(10)
N2 N 0.2948(3) 0.1876(4) -0.09283(12)
C1 C 0.6377(3) 0.1593(6) 0.19236(16)
H1 H 0.6457 0.0528 0.1728
C2 C 0.6499(4) 0.1677(8) 0.25567(19)
H2 H 0.6683 0.0657 0.2794
C3 C 0.6348(4) 0.3280(10) 0.28341(18)
H3 H 0.6403 0.3312 0.3255
C4 C 0.6118(4) 0.4829(8) 0.24971(19)
H4 H 0.6044 0.5896 0.2694
C5 C 0.5997(3) 0.4795(6) 0.18670(15)
H5 H 0.5833 0.5824 0.1633
C6 C 0.6130(3) 0.3174(5) 0.15960(13)
C7 C 0.4841(3) 0.2764(4) 0.05806(14)
C8 C 0.4581(3) 0.2381(4) -0.00413(14)
C9 C 0.3330(3) 0.2114(4) -0.03503(14)
C10 C 0.1743(3) 0.1665(5) -0.12466(15)
C11 C 0.0847(3) 0.0851(5) -0.10169(17)
H6 H 0.1021 0.0434 -0.0614
C12 C -0.0289(4) 0.0660(6) -0.1381(2)
H7 H -0.0877 0.0113 -0.1223
C13 C -0.0564(4) 0.1269(6) -0.1976(2)
H8 H -0.1338 0.1148 -0.2218
C14 C 0.0303(4) 0.2057(6) -0.22132(19)
H9 H 0.0116 0.2473 -0.2616
C15 C 0.1456(4) 0.2235(5) -0.18564(17)
H10 H 0.2045 0.2739 -0.2025
C16 C 0.5568(3) 0.2242(5) -0.03489(14)
C17 C 0.6766(3) 0.2709(4) 0.00321(13)
C18 C 0.6937(3) 0.3124(4) 0.06627(13)
C19 C 0.8078(3) 0.3570(5) 0.10077(14)
H11 H 0.8198 0.3830 0.1424
C20 C 0.9020(3) 0.3621(4) 0.07288(14)
C21 C 0.8874(3) 0.3197(5) 0.01089(15)
H12 H 0.9524 0.3209 -0.0072
C22 C 0.7754(3) 0.2763(5) -0.02269(14)
H13 H 0.7650 0.2495 -0.0642
loop_
_geom_bond_atom_site_label_1
_geom_bond_atom_site_label_2
_geom_bond_site_symmetry_1
_geom_bond_site_symmetry_2
Cl1 C20 1_555 1_555
S1 S2 1_555 1_555
S2 C7 1_555 1_555
O1 C16 1_555 1_555
N1 C6 1_555 1_555
N2 C9 1_555 1_555
C1 H1 1_555 1_555
C2 C1 1_555 1_555
H2 C2 1_555 1_555
C3 C2 1_555 1_555
H3 C3 1_555 1_555
C4 C3 1_555 1_555
H4 C4 1_555 1_555
C5 C4 1_555 1_555
H5 C5 1_555 1_555
C6 C1 1_555 1_555
C7 N1 1_555 1_555
C8 C7 1_555 1_555
C9 S1 1_555 1_555
C10 N2 1_555 1_555
C11 C10 1_555 1_555
H6 C11 1_555 1_555
C12 C11 1_555 1_555
H7 C12 1_555 1_555
C13 C12 1_555 1_555
H8 C13 1_555 1_555
C14 C13 1_555 1_555
H9 C14 1_555 1_555
C15 C10 1_555 1_555
H10 C15 1_555 1_555
C16 C8 1_555 1_555
C17 C16 1_555 1_555
C18 N1 1_555 1_555
C19 C18 1_555 1_555
H11 C19 1_555 1_555
C20 C19 1_555 1_555
C21 C20 1_555 1_555
H12 C21 1_555 1_555
C22 C17 1_555 1_555
H13 C22 1_555 1_555
C5 C6 1_555 1_555
C8 C9 1_555 1_555
C14 C15 1_555 1_555
C17 C18 1_555 1_555
C21 C22 1_555 1_555

#END
