
#######################################################################
#
#                 Cambridge Crystallographic Data Centre
#                                CCDC 
#
#######################################################################
#
# If this CIF has been generated from an entry in the Cambridge 
# Structural Database, then it will include bibliographic, chemical, 
# crystal, experimental, refinement or atomic coordinate data resulting 
# from the CCDC's data processing and validation procedures.
#
#######################################################################

data_MOVYIH
_chemical_formula_moiety         'C42 H46 N6 O4,2(C4 H8 O2)'
_chemical_name_systematic        
'5,5,15,15-tetraethyl-10,20-dimethyl-10,20-bis(4-nitrophenyl)-5,10,15,20,22,24-hexahydroporphyrin ethyl acetate solvate'
_symmetry_cell_setting           triclinic
_symmetry_space_group_name_H-M   'P -1'
_symmetry_Int_Tables_number      2
_space_group_name_Hall           '-P 1'
loop_
_symmetry_equiv_pos_site_id
_symmetry_equiv_pos_as_xyz
1 x,y,z
2 -x,-y,-z
_cell_length_a                   11.7182(16)
_cell_length_b                   11.9979(16)
_cell_length_c                   17.177(2)
_cell_angle_alpha                94.819(2)
_cell_angle_beta                 95.618(2)
_cell_angle_gamma                100.751(2)
_cell_volume                     2348.24
_cell_formula_units_Z            2
loop_
_atom_site_label
_atom_site_type_symbol
_atom_site_fract_x
_atom_site_fract_y
_atom_site_fract_z
C1 C 0.20076(14) 0.11369(14) 0.41176(9)
C2 C 0.19408(17) 0.15347(16) 0.48785(10)
H1 H 0.2146 0.1193 0.5324
C3 C 0.15078(18) 0.25515(16) 0.48686(10)
H2 H 0.1381 0.3000 0.5308
C4 C 0.13055(14) 0.27685(14) 0.41034(9)
C5 C 0.08210(14) 0.37489(14) 0.37901(9)
C6 C -0.04150(17) 0.37071(18) 0.40471(11)
H3 H -0.0333 0.3896 0.4613
H4 H -0.0750 0.4296 0.3808
C7 C -0.12731(19) 0.2584(2) 0.38433(14)
H5 H -0.1418 0.2415 0.3282
H6 H -0.1994 0.2638 0.4052
H7 H -0.0951 0.1987 0.4067
C8 C 0.16407(17) 0.48766(15) 0.41837(10)
H8 H 0.1631 0.4899 0.4749
H9 H 0.2433 0.4853 0.4075
C9 C 0.1334(2) 0.59732(17) 0.39228(12)
H10 H 0.1377 0.5982 0.3368
H11 H 0.1876 0.6615 0.4202
H12 H 0.0555 0.6016 0.4033
C10 C 0.07740(14) 0.37686(14) 0.29080(9)
C11 C -0.01076(15) 0.38955(16) 0.23628(10)
H13 H -0.0887 0.3849 0.2445
C12 C 0.03638(15) 0.41102(16) 0.16505(10)
H14 H -0.0049 0.4231 0.1185
C13 C 0.15350(14) 0.41089(13) 0.17695(9)
C14 C 0.24516(14) 0.43050(14) 0.12031(9)
C15 C 0.18767(17) 0.46599(17) 0.04387(10)
H15 H 0.2444 0.4790 0.0073
H16 H 0.1591 0.5347 0.0557
H17 H 0.1237 0.4063 0.0212
C16 C 0.34840(14) 0.52901(14) 0.15188(9)
C17 C 0.34480(15) 0.60851(14) 0.21513(10)
H18 H 0.2781 0.6024 0.2409
C18 C 0.43949(16) 0.69672(15) 0.24015(11)
H19 H 0.4376 0.7483 0.2833
C19 C 0.53598(16) 0.70636(16) 0.19989(12)
C20 C 0.54194(18) 0.63203(18) 0.13571(12)
H20 H 0.6071 0.6416 0.1082
C21 C 0.44867(17) 0.54282(17) 0.11318(11)
H21 H 0.4527 0.4903 0.0710
C22 C 0.29223(14) 0.32323(14) 0.10095(9)
C23 C 0.28081(15) 0.25199(15) 0.03310(9)
H22 H 0.2356 0.2570 -0.0136
C24 C 0.35018(15) 0.16927(15) 0.04662(10)
H23 H 0.3586 0.1105 0.0101
C25 C 0.40277(14) 0.19042(14) 0.12243(9)
C26 C 0.49754(14) 0.14265(15) 0.16640(10)
C27 C 0.61124(16) 0.23626(19) 0.18072(12)
H24 H 0.5975 0.2987 0.2160
H25 H 0.6727 0.2044 0.2073
C28 C 0.6549(2) 0.2845(2) 0.10757(15)
H26 H 0.6763 0.2252 0.0743
H27 H 0.7218 0.3447 0.1227
H28 H 0.5940 0.3141 0.0795
C29 C 0.52281(17) 0.03714(17) 0.11754(12)
H29 H 0.5368 0.0578 0.0654
H30 H 0.5944 0.0188 0.1418
C30 C 0.4279(2) -0.06927(17) 0.10877(13)
H31 H 0.4104 -0.0891 0.1599
H32 H 0.4543 -0.1310 0.0813
H33 H 0.3588 -0.0552 0.0795
C31 C 0.46666(14) 0.10781(15) 0.24613(10)
C32 C 0.53751(16) 0.08039(19) 0.30652(11)
H34 H 0.6183 0.0881 0.3094
C33 C 0.46724(16) 0.03837(18) 0.36377(11)
H35 H 0.4936 0.0126 0.4105
C34 C 0.35379(14) 0.04195(14) 0.33880(9)
C35 C 0.24509(14) 0.00954(14) 0.38006(9)
C36 C 0.27810(18) -0.05460(17) 0.45086(11)
H36 H 0.3378 -0.0052 0.4868
H37 H 0.3067 -0.1209 0.4325
H38 H 0.2103 -0.0776 0.4772
C37 C 0.14826(14) -0.07730(13) 0.32852(9)
C38 C 0.17370(15) -0.15163(14) 0.26892(10)
H39 H 0.2501 -0.1438 0.2565
C39 C 0.08787(16) -0.23685(15) 0.22777(10)
H40 H 0.1055 -0.2851 0.1874
C40 C -0.02425(15) -0.24859(15) 0.24797(10)
C41 C -0.05290(16) -0.17790(17) 0.30743(11)
H41 H -0.1288 -0.1881 0.3210
C42 C 0.03338(16) -0.09186(16) 0.34632(11)
H42 H 0.0144 -0.0423 0.3854
N1 N 0.16136(11) 0.18971(11) 0.36481(7)
H43 H 0.1567 0.1835 0.3143
N2 N 0.17763(11) 0.38881(11) 0.25364(7)
H44 H 0.2454 0.3833 0.2753
N3 N 0.36610(11) 0.28483(12) 0.15525(7)
H45 H 0.3865 0.3153 0.2029
N4 N 0.35437(11) 0.08452(11) 0.26658(8)
H46 H 0.2933 0.0950 0.2383
N5 N 0.63608(16) 0.79958(15) 0.22637(14)
N6 N -0.11520(15) -0.34040(14) 0.20571(11)
O1 O 0.64791(15) 0.84151(15) 0.29477(13)
O2 O 0.70440(16) 0.82919(16) 0.17902(12)
O3 O -0.10164(15) -0.37828(14) 0.14005(9)
O4 O -0.19999(15) -0.37553(15) 0.23923(12)
C43 C -0.09388(19) 1.0732(2) 0.18553(15)
H47 H -0.1040 1.0504 0.2371
H48 H -0.1576 1.0319 0.1486
H49 H -0.0924 1.1535 0.1861
C44 C 0.01798(16) 1.04793(16) 0.16201(11)
C45 C 0.10285(17) 0.93770(18) 0.07082(12)
H50 H 0.1609 0.9312 0.1136
H51 H 0.1370 0.9965 0.0399
C46 C 0.0655(2) 0.8264(2) 0.02061(13)
H52 H 0.0360 0.7679 0.0524
H53 H 0.1312 0.8071 -0.0029
H54 H 0.0053 0.8326 -0.0200
O5 O 0.11378(11) 1.09519(12) 0.19283(7)
O6 O 0.00036(11) 0.96676(12) 0.10160(8)
C47 C 0.6282(2) 0.5013(2) 0.33395(15)
H55 H 0.6127 0.5084 0.2788
H56 H 0.6961 0.4680 0.3429
H57 H 0.6420 0.5755 0.3629
C48 C 0.52599(18) 0.42743(17) 0.36047(11)
C49 C 0.45757(19) 0.32583(19) 0.46423(12)
H58 H 0.4234 0.2605 0.4266
H59 H 0.3966 0.3670 0.4762
C50 C 0.5106(2) 0.2880(2) 0.53691(15)
H60 H 0.5666 0.2424 0.5237
H61 H 0.4506 0.2436 0.5619
H62 H 0.5491 0.3535 0.5721
O7 O 0.43137(13) 0.39631(14) 0.32197(8)
O8 O 0.55006(12) 0.39945(12) 0.43210(8)
loop_
_geom_bond_atom_site_label_1
_geom_bond_atom_site_label_2
_geom_bond_site_symmetry_1
_geom_bond_site_symmetry_2
C1 C2 1_555 1_555
C2 H1 1_555 1_555
C3 C2 1_555 1_555
H2 C3 1_555 1_555
C4 C3 1_555 1_555
C5 C4 1_555 1_555
C6 C5 1_555 1_555
H3 C6 1_555 1_555
H4 C6 1_555 1_555
C7 C6 1_555 1_555
H5 C7 1_555 1_555
H6 C7 1_555 1_555
H7 C7 1_555 1_555
C8 C5 1_555 1_555
H8 C8 1_555 1_555
H9 C8 1_555 1_555
C9 C8 1_555 1_555
H10 C9 1_555 1_555
H11 C9 1_555 1_555
H12 C9 1_555 1_555
C10 C5 1_555 1_555
C11 C10 1_555 1_555
H13 C11 1_555 1_555
C12 C11 1_555 1_555
H14 C12 1_555 1_555
C13 C12 1_555 1_555
C14 C13 1_555 1_555
C15 C14 1_555 1_555
H15 C15 1_555 1_555
H16 C15 1_555 1_555
H17 C15 1_555 1_555
C16 C14 1_555 1_555
C17 C16 1_555 1_555
H18 C17 1_555 1_555
C18 C17 1_555 1_555
H19 C18 1_555 1_555
C19 C18 1_555 1_555
C20 C19 1_555 1_555
H20 C20 1_555 1_555
C21 C16 1_555 1_555
H21 C21 1_555 1_555
C22 C14 1_555 1_555
C23 C22 1_555 1_555
H22 C23 1_555 1_555
C24 C23 1_555 1_555
H23 C24 1_555 1_555
C25 C24 1_555 1_555
C26 C25 1_555 1_555
C27 C26 1_555 1_555
H24 C27 1_555 1_555
H25 C27 1_555 1_555
C28 C27 1_555 1_555
H26 C28 1_555 1_555
H27 C28 1_555 1_555
H28 C28 1_555 1_555
C29 C26 1_555 1_555
H29 C29 1_555 1_555
H30 C29 1_555 1_555
C30 C29 1_555 1_555
H31 C30 1_555 1_555
H32 C30 1_555 1_555
H33 C30 1_555 1_555
C31 C26 1_555 1_555
C32 C31 1_555 1_555
H34 C32 1_555 1_555
C33 C32 1_555 1_555
H35 C33 1_555 1_555
C34 C33 1_555 1_555
C35 C1 1_555 1_555
C36 C35 1_555 1_555
H36 C36 1_555 1_555
H37 C36 1_555 1_555
H38 C36 1_555 1_555
C37 C35 1_555 1_555
C38 C37 1_555 1_555
H39 C38 1_555 1_555
C39 C38 1_555 1_555
H40 C39 1_555 1_555
C40 C39 1_555 1_555
C41 C40 1_555 1_555
H41 C41 1_555 1_555
C42 C37 1_555 1_555
H42 C42 1_555 1_555
N1 C1 1_555 1_555
H43 N1 1_555 1_555
N2 C10 1_555 1_555
H44 N2 1_555 1_555
N3 C22 1_555 1_555
H45 N3 1_555 1_555
N4 C31 1_555 1_555
H46 N4 1_555 1_555
N5 C19 1_555 1_555
N6 C40 1_555 1_555
O1 N5 1_555 1_555
O2 N5 1_555 1_555
O3 N6 1_555 1_555
O4 N6 1_555 1_555
C43 H47 1_555 1_555
H48 C43 1_555 1_555
H49 C43 1_555 1_555
C44 C43 1_555 1_555
C45 H50 1_555 1_555
H51 C45 1_555 1_555
C46 C45 1_555 1_555
H52 C46 1_555 1_555
H53 C46 1_555 1_555
H54 C46 1_555 1_555
O5 C44 1_555 1_555
O6 C44 1_555 1_555
C47 H55 1_555 1_555
H56 C47 1_555 1_555
H57 C47 1_555 1_555
C48 C47 1_555 1_555
C49 H58 1_555 1_555
H59 C49 1_555 1_555
C50 C49 1_555 1_555
H60 C50 1_555 1_555
H61 C50 1_555 1_555
H62 C50 1_555 1_555
O7 C48 1_555 1_555
O8 C48 1_555 1_555
C4 N1 1_555 1_555
C13 N2 1_555 1_555
C20 C21 1_555 1_555
C25 N3 1_555 1_555
C34 C35 1_555 1_555
C34 N4 1_555 1_555
C41 C42 1_555 1_555
C45 O6 1_555 1_555
C49 O8 1_555 1_555

#END
