
#######################################################################
#
#                 Cambridge Crystallographic Data Centre
#                                CCDC 
#
#######################################################################
#
# If this CIF has been generated from an entry in the Cambridge 
# Structural Database, then it will include bibliographic, chemical, 
# crystal, experimental, refinement or atomic coordinate data resulting 
# from the CCDC's data processing and validation procedures.
#
#######################################################################

data_MOVZOO
_chemical_formula_moiety         'C52 H48 Cl2 N6 O2,C4 H8 O2,C2 H6 O1'
_chemical_name_systematic        
"2,2'-((5,10,10,15,20,20-hexamethyl-5,10,15,20,22,24-hexahydroporphyrin-5,15-diyl)bis(4,1-phenylenenitrilomethylylidene))bis(4-chlorophenol) ethanol ethyl acetate solvate"
_symmetry_cell_setting           monoclinic
_symmetry_space_group_name_H-M   'P 21/c'
_symmetry_Int_Tables_number      14
_space_group_name_Hall           '-P 2ybc'
loop_
_symmetry_equiv_pos_site_id
_symmetry_equiv_pos_as_xyz
1 x,y,z
2 -x,1/2+y,1/2-z
3 -x,-y,-z
4 x,1/2-y,1/2+z
_cell_length_a                   24.395(11)
_cell_length_b                   10.842(5)
_cell_length_c                   20.309(9)
_cell_angle_alpha                90
_cell_angle_beta                 99.433(7)
_cell_angle_gamma                90
_cell_volume                     5298.91
_cell_formula_units_Z            4
loop_
_atom_site_label
_atom_site_type_symbol
_atom_site_fract_x
_atom_site_fract_y
_atom_site_fract_z
C1 C 0.46942(15) 0.9956(3) 0.3912(2)
H1 H 0.4792 0.9653 0.4344
C2 C 0.41869(15) 1.0501(4) 0.3725(3)
C3 C 0.4032(2) 1.0922(5) 0.3090(4)
H2 H 0.3685 1.1284 0.2964
C4 C 0.4390(2) 1.0812(6) 0.2634(3)
H3 H 0.4285 1.1097 0.2200
C5 C 0.49078(19) 1.0276(4) 0.2824(3)
C6 C 0.50627(14) 0.9849(3) 0.3467(2)
C7 C 0.55883(14) 0.9220(3) 0.3677(2)
H4 H 0.5669 0.8902 0.4107
C8 C 0.64357(13) 0.8398(3) 0.34628(17)
C9 C 0.66241(14) 0.7887(3) 0.40902(17)
H5 H 0.6433 0.8043 0.4442
C10 C 0.70868(13) 0.7161(3) 0.41884(16)
H6 H 0.7202 0.6820 0.4609
C11 C 0.73918(12) 0.6911(3) 0.36852(15)
C12 C 0.72124(14) 0.7471(3) 0.30737(16)
H7 H 0.7413 0.7350 0.2727
C13 C 0.67473(14) 0.8195(3) 0.29684(17)
H8 H 0.6640 0.8559 0.2552
C14 C 0.78900(11) 0.6039(3) 0.38008(14)
C15 C 0.82515(13) 0.6308(3) 0.44822(15)
H9 H 0.8040 0.6152 0.4832
H10 H 0.8367 0.7156 0.4499
H11 H 0.8573 0.5785 0.4540
C16 C 0.76811(12) 0.4716(3) 0.37929(13)
C17 C 0.71618(13) 0.4228(3) 0.36993(15)
H12 H 0.6831 0.4670 0.3608
C18 C 0.72090(13) 0.2929(3) 0.37644(15)
H13 H 0.6916 0.2371 0.3722
C19 C 0.77583(13) 0.2644(3) 0.39005(14)
C20 C 0.80561(14) 0.1418(3) 0.40347(15)
C21 C 0.83966(18) 0.1425(3) 0.47453(16)
H14 H 0.8653 0.2103 0.4789
H15 H 0.8598 0.0664 0.4823
H16 H 0.8150 0.1512 0.5066
C22 C 0.76235(17) 0.0387(3) 0.3982(2)
H17 H 0.7381 0.0526 0.4302
H18 H 0.7808 -0.0392 0.4071
H19 H 0.7410 0.0380 0.3541
C23 C 0.84411(14) 0.1149(3) 0.35455(15)
C24 C 0.89463(15) 0.0593(3) 0.36181(18)
H20 H 0.9162 0.0377 0.4023
C25 C 0.90901(14) 0.0398(3) 0.29866(18)
H21 H 0.9414 0.0024 0.2900
C26 C 0.86750(12) 0.0846(3) 0.25228(15)
C27 C 0.51470(17) -0.1752(4) 0.0678(3)
H22 H 0.5228 -0.1809 0.1141
C28 C 0.46233(19) -0.2095(4) 0.0338(4)
C29 C 0.4518(2) -0.2001(5) -0.0337(4)
H23 H 0.4171 -0.2241 -0.0561
C30 C 0.49001(19) -0.1569(4) -0.0700(3)
H24 H 0.4810 -0.1512 -0.1162
C31 C 0.54296(17) -0.1210(4) -0.0379(2)
C32 C 0.55445(14) -0.1325(3) 0.0314(2)
C33 C 0.60902(14) -0.0954(3) 0.06860(19)
H25 H 0.6155 -0.1018 0.1149
C34 C 0.69968(13) -0.0217(3) 0.07558(15)
C35 C 0.72556(13) -0.0810(3) 0.13287(16)
H26 H 0.7085 -0.1482 0.1495
C36 C 0.77627(13) -0.0409(3) 0.16517(15)
H27 H 0.7927 -0.0816 0.2037
C37 C 0.80393(12) 0.0583(3) 0.14250(14)
C38 C 0.77840(14) 0.1124(3) 0.08348(15)
H28 H 0.7960 0.1775 0.0656
C39 C 0.72767(14) 0.0725(3) 0.05061(15)
H29 H 0.7121 0.1101 0.0108
C40 C 0.86157(12) 0.0969(3) 0.17711(15)
C41 C 0.90357(14) 0.0096(3) 0.15230(18)
H30 H 0.9003 0.0163 0.1047
H31 H 0.8961 -0.0738 0.1640
H32 H 0.9406 0.0318 0.1727
C42 C 0.87647(12) 0.2278(3) 0.16012(14)
C43 C 0.92259(13) 0.2731(3) 0.13951(16)
H33 H 0.9528 0.2271 0.1309
C44 C 0.91679(13) 0.4025(3) 0.13346(16)
H34 H 0.9427 0.4562 0.1203
C45 C 0.86743(12) 0.4351(3) 0.14991(14)
C46 C 0.83917(13) 0.5598(3) 0.15124(15)
C47 C 0.86770(16) 0.6525(3) 0.11061(17)
H35 H 0.8501 0.7316 0.1113
H36 H 0.8646 0.6242 0.0654
H37 H 0.9062 0.6595 0.1298
C48 C 0.77813(14) 0.5526(3) 0.11985(17)
H38 H 0.7594 0.4944 0.1440
H39 H 0.7751 0.5266 0.0742
H40 H 0.7613 0.6324 0.1215
C49 C 0.84429(13) 0.6070(3) 0.22171(15)
C50 C 0.87826(14) 0.6941(3) 0.25615(16)
H41 H 0.9054 0.7394 0.2396
C51 C 0.86508(13) 0.7032(3) 0.32097(17)
H42 H 0.8817 0.7563 0.3543
C52 C 0.82422(12) 0.6220(3) 0.32646(15)
Cl1 Cl 0.37281(5) 1.06442(13) 0.42885(8)
Cl2 Cl 0.41259(6) -0.26155(17) 0.07574(12)
N1 N 0.80393(10) 0.3743(2) 0.39134(11)
H43 H 0.8395 0.3810 0.3988
N2 N 0.81167(10) 0.5635(2) 0.26537(12)
H44 H 0.7867 0.5073 0.2561
N3 N 0.84320(10) 0.3277(2) 0.16721(11)
H45 H 0.8116 0.3237 0.1806
N4 N 0.82801(10) 0.1315(2) 0.28674(11)
H46 H 0.7976 0.1663 0.2686
N5 N 0.59420(12) 0.9094(3) 0.32825(16)
N6 N 0.64697(11) -0.0553(2) 0.03933(13)
O1 O 0.52579(14) 1.0195(5) 0.23710(19)
H47 H 0.5520 0.9746 0.2517
O2 O 0.57876(12) -0.0765(3) -0.07417(14)
H48 H 0.6078 -0.0585 -0.0497
C53 C 0.68376(17) 0.2848(5) 0.1867(2)
H49 H 0.6621 0.3601 0.1807
H50 H 0.6906 0.2590 0.1431
C54 C 0.6516(2) 0.1932(6) 0.2116(3)
H51 H 0.6735 0.1199 0.2213
H52 H 0.6196 0.1749 0.1787
H53 H 0.6397 0.2225 0.2515
O3 O 0.73552(9) 0.3121(2) 0.22664(11)
H54 H 0.7317 0.3157 0.2659
C55 C 0.05776(18) 0.8739(4) 0.1820(2)
H55 H 0.0905 0.8267 0.1981
H56 H 0.0270 0.8422 0.2009
H57 H 0.0640 0.9587 0.1948
C56 C 0.04525(16) 0.8652(3) 0.1091(2)
C57 C -0.0219(2) 0.8127(5) 0.0150(3)
H58 H -0.0600 0.8411 0.0030
H59 H 0.0015 0.8654 -0.0072
C58 C -0.0180(2) 0.6882(5) -0.0075(2)
H60 H 0.0203 0.6632 -0.0004
H61 H -0.0329 0.6832 -0.0542
H62 H -0.0386 0.6348 0.0171
O4 O 0.07667(11) 0.8919(3) 0.07151(15)
O5 O -0.00491(11) 0.8218(3) 0.08706(16)
loop_
_geom_bond_atom_site_label_1
_geom_bond_atom_site_label_2
_geom_bond_site_symmetry_1
_geom_bond_site_symmetry_2
C1 H1 1_555 1_555
C2 C1 1_555 1_555
C3 C2 1_555 1_555
H2 C3 1_555 1_555
C4 C3 1_555 1_555
H3 C4 1_555 1_555
C5 C4 1_555 1_555
C6 C1 1_555 1_555
C7 C6 1_555 1_555
H4 C7 1_555 1_555
C8 C9 1_555 1_555
C9 H5 1_555 1_555
C10 C9 1_555 1_555
H6 C10 1_555 1_555
C11 C10 1_555 1_555
C12 C11 1_555 1_555
H7 C12 1_555 1_555
C13 C8 1_555 1_555
H8 C13 1_555 1_555
C14 C11 1_555 1_555
C15 C14 1_555 1_555
H9 C15 1_555 1_555
H10 C15 1_555 1_555
H11 C15 1_555 1_555
C16 C14 1_555 1_555
C17 C16 1_555 1_555
H12 C17 1_555 1_555
C18 C17 1_555 1_555
H13 C18 1_555 1_555
C19 C18 1_555 1_555
C20 C19 1_555 1_555
C21 C20 1_555 1_555
H14 C21 1_555 1_555
H15 C21 1_555 1_555
H16 C21 1_555 1_555
C22 C20 1_555 1_555
H17 C22 1_555 1_555
H18 C22 1_555 1_555
H19 C22 1_555 1_555
C23 C20 1_555 1_555
C24 C23 1_555 1_555
H20 C24 1_555 1_555
C25 C24 1_555 1_555
H21 C25 1_555 1_555
C26 C25 1_555 1_555
C27 H22 1_555 1_555
C28 C27 1_555 1_555
C29 C28 1_555 1_555
H23 C29 1_555 1_555
C30 C29 1_555 1_555
H24 C30 1_555 1_555
C31 C30 1_555 1_555
C32 C27 1_555 1_555
C33 C32 1_555 1_555
H25 C33 1_555 1_555
C34 C35 1_555 1_555
C35 H26 1_555 1_555
C36 C35 1_555 1_555
H27 C36 1_555 1_555
C37 C36 1_555 1_555
C38 C37 1_555 1_555
H28 C38 1_555 1_555
C39 C34 1_555 1_555
H29 C39 1_555 1_555
C40 C26 1_555 1_555
C41 C40 1_555 1_555
H30 C41 1_555 1_555
H31 C41 1_555 1_555
H32 C41 1_555 1_555
C42 C40 1_555 1_555
C43 C42 1_555 1_555
H33 C43 1_555 1_555
C44 C43 1_555 1_555
H34 C44 1_555 1_555
C45 C44 1_555 1_555
C46 C45 1_555 1_555
C47 C46 1_555 1_555
H35 C47 1_555 1_555
H36 C47 1_555 1_555
H37 C47 1_555 1_555
C48 C46 1_555 1_555
H38 C48 1_555 1_555
H39 C48 1_555 1_555
H40 C48 1_555 1_555
C49 C46 1_555 1_555
C50 C49 1_555 1_555
H41 C50 1_555 1_555
C51 C50 1_555 1_555
H42 C51 1_555 1_555
C52 C14 1_555 1_555
Cl1 C2 1_555 1_555
Cl2 C28 1_555 1_555
N1 C16 1_555 1_555
H43 N1 1_555 1_555
N2 C49 1_555 1_555
H44 N2 1_555 1_555
N3 C42 1_555 1_555
H45 N3 1_555 1_555
N4 C23 1_555 1_555
H46 N4 1_555 1_555
N5 C7 1_555 1_555
N6 C33 1_555 1_555
O1 C5 1_555 1_555
H47 O1 1_555 1_555
O2 C31 1_555 1_555
H48 O2 1_555 1_555
C53 H49 1_555 1_555
H50 C53 1_555 1_555
C54 C53 1_555 1_555
H51 C54 1_555 1_555
H52 C54 1_555 1_555
H53 C54 1_555 1_555
O3 C53 1_555 1_555
H54 O3 1_555 1_555
C55 H55 1_555 1_555
H56 C55 1_555 1_555
H57 C55 1_555 1_555
C56 C55 1_555 1_555
C57 H58 1_555 1_555
H59 C57 1_555 1_555
C58 C57 1_555 1_555
H60 C58 1_555 1_555
H61 C58 1_555 1_555
H62 C58 1_555 1_555
O4 C56 1_555 1_555
O5 C56 1_555 1_555
C5 C6 1_555 1_555
C8 N5 1_555 1_555
C12 C13 1_555 1_555
C19 N1 1_555 1_555
C26 N4 1_555 1_555
C31 C32 1_555 1_555
C34 N6 1_555 1_555
C37 C40 1_555 1_555
C38 C39 1_555 1_555
C45 N3 1_555 1_555
C51 C52 1_555 1_555
C52 N2 1_555 1_555
C57 O5 1_555 1_555

#END
