
#######################################################################
#
#                 Cambridge Crystallographic Data Centre
#                                CCDC 
#
#######################################################################
#
# If this CIF has been generated from an entry in the Cambridge 
# Structural Database, then it will include bibliographic, chemical, 
# crystal, experimental, refinement or atomic coordinate data resulting 
# from the CCDC's data processing and validation procedures.
#
#######################################################################

data_MOWJAJ
_chemical_formula_moiety         'C21 H38 N4 O7'
_chemical_name_systematic        
't-butoxycarbonyl-\g-aminobutyryl-\a-aminoisobutyryl-alanyl-\a-aminoisobutyryl methyl ester'
_symmetry_cell_setting           monoclinic
_symmetry_space_group_name_H-M   'C 2'
_symmetry_Int_Tables_number      5
_space_group_name_Hall           'C 2y'
loop_
_symmetry_equiv_pos_site_id
_symmetry_equiv_pos_as_xyz
1 x,y,z
2 -x,y,-z
3 1/2+x,1/2+y,z
4 1/2-x,1/2+y,-z
_cell_length_a                   19.0772(6)
_cell_length_b                   8.7883(2)
_cell_length_c                   16.7758(3)
_cell_angle_alpha                90
_cell_angle_beta                 110.7910(10)
_cell_angle_gamma                90
_cell_volume                     2629.42
_exptl_crystal_colour            colorless
_exptl_crystal_description       rectangle
_cell_formula_units_Z            4
_exptl_crystal_recrystallization_method 'ethyl acetate'
loop_
_atom_site_label
_atom_site_type_symbol
_atom_site_fract_x
_atom_site_fract_y
_atom_site_fract_z
O1 O 0.3887(2) 0.9949(4) 0.4135(2)
O2 O 0.3381(2) 0.7784(3) 0.3435(2)
O3 O 0.2639(1) 0.6269(3) 0.1055(1)
O4 O 0.2301(2) 0.2604(3) 0.1937(2)
O5 O 0.4582(1) 0.2476(3) 0.2675(2)
O6 O 0.5617(2) 0.3551(4) 0.1552(2)
O7 O 0.5335(2) 0.5261(3) 0.2367(2)
N1 N 0.3963(2) 0.9518(4) 0.2888(2)
N2 N 0.1867(2) 0.6551(3) 0.1791(2)
N3 N 0.2957(2) 0.4564(3) 0.2703(2)
N4 N 0.3910(1) 0.4309(3) 0.1800(2)
C1 C 0.3994(4) 1.1077(8) 0.5412(3)
C2 C 0.2823(4) 0.9674(13) 0.4611(5)
C3 C 0.4038(4) 0.8274(8) 0.5329(4)
C4 C 0.3675(3) 0.9709(6) 0.4886(3)
C5 C 0.3709(2) 0.8979(5) 0.3472(3)
C6 C 0.3854(2) 0.8773(5) 0.2092(2)
C7 C 0.3166(2) 0.9299(5) 0.1370(2)
C8 C 0.2437(2) 0.8803(4) 0.1462(2)
C9 C 0.2327(2) 0.7132(4) 0.1406(2)
C10 C 0.1646(2) 0.4971(4) 0.1766(2)
C11 C 0.1200(3) 0.4812(6) 0.2361(4)
C12 C 0.1179(2) 0.4487(6) 0.0872(3)
C13 C 0.2332(2) 0.3937(4) 0.2129(3)
C14 C 0.3632(2) 0.3659(5) 0.3081(2)
C15 C 0.4141(3) 0.4370(7) 0.3896(3)
C16 C 0.4073(2) 0.3430(4) 0.2486(2)
C17 C 0.4326(2) 0.4206(4) 0.1215(2)
C18 C 0.4154(2) 0.5615(5) 0.0652(3)
C19 C 0.4137(2) 0.2762(5) 0.0698(3)
C20 C 0.5161(2) 0.4269(4) 0.1734(3)
C21 C 0.6122(3) 0.5318(7) 0.2897(4)
H1 H 0.4207(2) 1.0362(4) 0.2992(2)
H2 H 0.1694(2) 0.7172(3) 0.2072(2)
H3 H 0.2954(2) 0.5504(3) 0.2844(2)
H4 H 0.3551(1) 0.4957(3) 0.1696(2)
H5 H 0.3751(4) 1.1973(8) 0.5113(3)
H6 H 0.4522(4) 1.1133(8) 0.5518(3)
H7 H 0.3914(4) 1.1006(8) 0.5945(3)
H8 H 0.2634(4) 0.8782(13) 0.4273(5)
H9 H 0.2617(4) 1.0565(13) 0.4279(5)
H10 H 0.2683(4) 0.9654(13) 0.5106(5)
H11 H 0.3821(4) 0.7413(8) 0.4975(4)
H12 H 0.3959(4) 0.8182(8) 0.5861(4)
H13 H 0.4567(4) 0.8310(8) 0.5434(4)
H14 H 0.3816(2) 0.7685(5) 0.2167(2)
H15 H 0.4291(2) 0.8950(5) 0.1937(2)
H16 H 0.3184(2) 0.8902(5) 0.0838(2)
H17 H 0.3173(2) 1.0400(5) 0.1340(2)
H18 H 0.2430(2) 0.9153(4) 0.2008(2)
H19 H 0.2022(2) 0.9284(4) 0.1018(2)
H20 H 0.1506(3) 0.5125(6) 0.2926(4)
H21 H 0.1053(3) 0.3770(6) 0.2372(4)
H22 H 0.0761(3) 0.5443(6) 0.2158(4)
H23 H 0.0751(2) 0.5145(6) 0.0653(3)
H24 H 0.1013(2) 0.3458(6) 0.0880(3)
H25 H 0.1474(3) 0.4551(6) 0.0515(3)
H26 H 0.3483(2) 0.2655(5) 0.3219(2)
H27 H 0.3870(3) 0.4519(7) 0.4275(3)
H28 H 0.4317(3) 0.5334(7) 0.3773(3)
H29 H 0.4561(3) 0.3712(7) 0.4161(3)
H30 H 0.4282(2) 0.6509(5) 0.1003(3)
H31 H 0.3630(2) 0.5635(5) 0.0312(3)
H32 H 0.4443(2) 0.5591(5) 0.0285(3)
H33 H 0.4253(2) 0.1901(5) 0.1074(3)
H34 H 0.4425(2) 0.2710(5) 0.0332(3)
H35 H 0.3612(2) 0.2755(5) 0.0358(3)
H36 H 0.6196(3) 0.6064(7) 0.3337(4)
H37 H 0.6412(3) 0.5588(7) 0.2554(4)
H38 H 0.6279(3) 0.4338(7) 0.3151(4)
loop_
_geom_bond_atom_site_label_1
_geom_bond_atom_site_label_2
_geom_bond_site_symmetry_1
_geom_bond_site_symmetry_2
O1 C4 1_555 1_555
O2 C5 1_555 1_555
O3 C9 1_555 1_555
O4 C13 1_555 1_555
O5 C16 1_555 1_555
O6 C20 1_555 1_555
O7 C20 1_555 1_555
N1 C5 1_555 1_555
N2 C9 1_555 1_555
N3 C13 1_555 1_555
N4 C16 1_555 1_555
C1 C4 1_555 1_555
C2 C4 1_555 1_555
C3 C4 1_555 1_555
C5 O1 1_555 1_555
C6 N1 1_555 1_555
C7 C6 1_555 1_555
C8 C7 1_555 1_555
C9 C8 1_555 1_555
C10 N2 1_555 1_555
C11 C10 1_555 1_555
C12 C10 1_555 1_555
C13 C10 1_555 1_555
C14 N3 1_555 1_555
C15 C14 1_555 1_555
C16 C14 1_555 1_555
C17 N4 1_555 1_555
C18 C17 1_555 1_555
C19 C17 1_555 1_555
C20 C17 1_555 1_555
C21 O7 1_555 1_555
H1 N1 1_555 1_555
H2 N2 1_555 1_555
H3 N3 1_555 1_555
H4 N4 1_555 1_555
H5 C1 1_555 1_555
H6 C1 1_555 1_555
H7 C1 1_555 1_555
H8 C2 1_555 1_555
H9 C2 1_555 1_555
H10 C2 1_555 1_555
H11 C3 1_555 1_555
H12 C3 1_555 1_555
H13 C3 1_555 1_555
H14 C6 1_555 1_555
H15 C6 1_555 1_555
H16 C7 1_555 1_555
H17 C7 1_555 1_555
H18 C8 1_555 1_555
H19 C8 1_555 1_555
H20 C11 1_555 1_555
H21 C11 1_555 1_555
H22 C11 1_555 1_555
H23 C12 1_555 1_555
H24 C12 1_555 1_555
H25 C12 1_555 1_555
H26 C14 1_555 1_555
H27 C15 1_555 1_555
H28 C15 1_555 1_555
H29 C15 1_555 1_555
H30 C18 1_555 1_555
H31 C18 1_555 1_555
H32 C18 1_555 1_555
H33 C19 1_555 1_555
H34 C19 1_555 1_555
H35 C19 1_555 1_555
H36 C21 1_555 1_555
H37 C21 1_555 1_555
H38 C21 1_555 1_555

#END
