
#######################################################################
#
#                 Cambridge Crystallographic Data Centre
#                                CCDC 
#
#######################################################################
#
# If this CIF has been generated from an entry in the Cambridge 
# Structural Database, then it will include bibliographic, chemical, 
# crystal, experimental, refinement or atomic coordinate data resulting 
# from the CCDC's data processing and validation procedures.
#
#######################################################################

data_MOWKEO
_chemical_formula_moiety         'C28 H33 N1 O3'
_chemical_name_systematic        
2,2,7,7,12,12,17,17-octamethylcalix[1]pyrrole[3]furan
_symmetry_cell_setting           tetragonal
_symmetry_space_group_name_H-M   'P 43'
_symmetry_Int_Tables_number      78
_space_group_name_Hall           'P 4cw'
loop_
_symmetry_equiv_pos_site_id
_symmetry_equiv_pos_as_xyz
1 x,y,z
2 -y,x,3/4+z
3 -x,-y,1/2+z
4 y,-x,1/4+z
_cell_length_a                   10.0823(9)
_cell_length_b                   10.0823(9)
_cell_length_c                   24.318(3)
_cell_angle_alpha                90
_cell_angle_beta                 90
_cell_angle_gamma                90
_cell_volume                     2471.99
_cell_formula_units_Z            4
_exptl_crystal_recrystallization_method acetone/dichloromethane
loop_
_atom_site_label
_atom_site_type_symbol
_atom_site_fract_x
_atom_site_fract_y
_atom_site_fract_z
O1 O 0.6828(2) 0.8080(1) 0.0715(1)
O2 O 0.9788(1) 0.9771(1) 0.0782(1)
O3 O 1.1438(1) 0.6807(1) 0.0649(1)
N1 N 0.8521(1) 0.5161(2) 0.0809(1)
C1 C 0.6145(2) 0.5730(2) 0.0740(1)
C2 C 0.5636(3) 0.4716(2) 0.1158(1)
C3 C 0.5085(3) 0.5907(3) 0.0290(1)
C4 C 0.6386(2) 0.7029(2) 0.1026(1)
C5 C 0.6247(3) 0.7429(2) 0.1549(1)
C6 C 0.6637(3) 0.8794(2) 0.1571(1)
C7 C 0.6980(2) 0.9154(2) 0.1061(1)
C8 C 0.7438(2) 1.0445(2) 0.0810(1)
C9 C 0.6373(2) 1.0960(3) 0.0409(1)
C10 C 0.7649(3) 1.1459(3) 0.1269(1)
C11 C 0.8703(2) 1.0234(2) 0.0495(1)
C12 C 0.9048(2) 1.0375(3) -0.0039(1)
C13 C 1.0401(2) 0.9997(3) -0.0085(1)
C14 C 1.0819(2) 0.9634(2) 0.0415(1)
C15 C 1.2130(2) 0.9165(2) 0.0639(1)
C16 C 1.2668(2) 1.0190(2) 0.1050(1)
C17 C 1.3113(2) 0.9014(2) 0.0163(1)
C18 C 1.1958(2) 0.7867(2) 0.0938(1)
C19 C 1.2234(3) 0.7466(3) 0.1452(1)
C20 C 1.1859(3) 0.6108(2) 0.1495(1)
C21 C 1.1373(2) 0.5736(2) 0.0999(1)
C22 C 1.0862(2) 0.4443(2) 0.0777(1)
C23 C 1.1844(2) 0.3876(2) 0.0351(1)
C24 C 1.0725(3) 0.3452(3) 0.1251(1)
C25 C 0.9539(2) 0.4637(2) 0.0503(1)
C26 C 0.9078(3) 0.4389(3) -0.0007(1)
C27 C 0.7721(2) 0.4768(3) -0.0018(1)
C28 C 0.7413(2) 0.5232(2) 0.0481(1)
H1 H 0.4829 0.5035 0.1320
H2 H 0.6290 0.4590 0.1440
H3 H 0.5471 0.3887 0.0977
H4 H 0.4277 0.6220 0.0454
H5 H 0.4927 0.5071 0.0113
H6 H 0.5391 0.6540 0.0024
H7 H 0.5944 0.6899 0.1852
H8 H 0.6649 0.9348 0.1892
H9 H 0.5560 1.1107 0.0605
H10 H 0.6229 1.0317 0.0124
H11 H 0.6666 1.1779 0.0248
H12 H 0.6830 1.1593 0.1462
H13 H 0.7939 1.2284 0.1113
H14 H 0.8309 1.1136 0.1520
H15 H 0.8484 1.0674 -0.0332
H16 H 1.0921 1.0002 -0.0415
H17 H 1.3501 0.9888 0.1195
H18 H 1.2047 1.0299 0.1346
H19 H 1.2793 1.1024 0.0867
H20 H 1.3952 0.8716 0.0303
H21 H 1.3226 0.9854 -0.0017
H22 H 1.2777 0.8378 -0.0096
H23 H 1.2614 0.7999 0.1739
H24 H 1.1937 0.5559 0.1816
H25 H 1.2694 0.3748 0.0521
H26 H 1.1930 0.4485 0.0050
H27 H 1.1519 0.3041 0.0217
H28 H 1.1573 0.3323 0.1422
H29 H 1.0407 0.2620 0.1111
H30 H 1.0108 0.3790 0.1517
H31 H 0.9575 0.4024 -0.0308
H32 H 0.7132 0.4702 -0.0327
loop_
_geom_bond_atom_site_label_1
_geom_bond_atom_site_label_2
_geom_bond_site_symmetry_1
_geom_bond_site_symmetry_2
O1 C4 1_555 1_555
O2 C11 1_555 1_555
O3 C18 1_555 1_555
N1 C25 1_555 1_555
C1 C2 1_555 1_555
C2 H1 1_555 1_555
C3 C1 1_555 1_555
C4 C1 1_555 1_555
C5 C4 1_555 1_555
C6 C5 1_555 1_555
C7 O1 1_555 1_555
C8 C7 1_555 1_555
C9 C8 1_555 1_555
C10 C8 1_555 1_555
C11 C8 1_555 1_555
C12 C11 1_555 1_555
C13 C12 1_555 1_555
C14 O2 1_555 1_555
C15 C14 1_555 1_555
C16 C15 1_555 1_555
C17 C15 1_555 1_555
C18 C15 1_555 1_555
C19 C18 1_555 1_555
C20 C19 1_555 1_555
C21 O3 1_555 1_555
C22 C21 1_555 1_555
C23 C22 1_555 1_555
C24 C22 1_555 1_555
C25 C22 1_555 1_555
C26 C25 1_555 1_555
C27 C26 1_555 1_555
C28 N1 1_555 1_555
H2 C2 1_555 1_555
H3 C2 1_555 1_555
H4 C3 1_555 1_555
H5 C3 1_555 1_555
H6 C3 1_555 1_555
H7 C5 1_555 1_555
H8 C6 1_555 1_555
H9 C9 1_555 1_555
H10 C9 1_555 1_555
H11 C9 1_555 1_555
H12 C10 1_555 1_555
H13 C10 1_555 1_555
H14 C10 1_555 1_555
H15 C12 1_555 1_555
H16 C13 1_555 1_555
H17 C16 1_555 1_555
H18 C16 1_555 1_555
H19 C16 1_555 1_555
H20 C17 1_555 1_555
H21 C17 1_555 1_555
H22 C17 1_555 1_555
H23 C19 1_555 1_555
H24 C20 1_555 1_555
H25 C23 1_555 1_555
H26 C23 1_555 1_555
H27 C23 1_555 1_555
H28 C24 1_555 1_555
H29 C24 1_555 1_555
H30 C24 1_555 1_555
H31 C26 1_555 1_555
H32 C27 1_555 1_555
C1 C28 1_555 1_555
C6 C7 1_555 1_555
C13 C14 1_555 1_555
C20 C21 1_555 1_555
C27 C28 1_555 1_555

#END
