
#######################################################################
#
#                 Cambridge Crystallographic Data Centre
#                                CCDC 
#
#######################################################################
#
# If this CIF has been generated from an entry in the Cambridge 
# Structural Database, then it will include bibliographic, chemical, 
# crystal, experimental, refinement or atomic coordinate data resulting 
# from the CCDC's data processing and validation procedures.
#
#######################################################################

data_MOWSAU
_chemical_formula_moiety         'C15 H14 O3 S1'
_chemical_name_systematic        
1-(4-((4-Methylphenyl)sulfonyl)phenyl)ethanone
_symmetry_cell_setting           monoclinic
_symmetry_space_group_name_H-M   'C 2/c'
_symmetry_Int_Tables_number      15
_space_group_name_Hall           '-C 2yn'
loop_
_symmetry_equiv_pos_site_id
_symmetry_equiv_pos_as_xyz
1 x,y,z
2 -x,y,1/2-z
3 1/2+x,1/2+y,z
4 1/2-x,1/2+y,1/2-z
5 -x,-y,-z
6 x,-y,1/2+z
7 1/2-x,1/2-y,-z
8 1/2+x,1/2-y,1/2+z
_cell_length_a                   26.0031(10)
_cell_length_b                   7.2302(2)
_cell_length_c                   15.6312(6)
_cell_angle_alpha                90
_cell_angle_beta                 114.072(5)
_cell_angle_gamma                90
_cell_volume                     2683.21
_cell_formula_units_Z            8
loop_
_atom_site_label
_atom_site_type_symbol
_atom_site_fract_x
_atom_site_fract_y
_atom_site_fract_z
S1 S 0.37975(2) 0.60539(8) 0.47593(4)
O1 O 0.35090(8) 0.5270(3) 0.38405(12)
O2 O 0.40049(8) 0.7911(3) 0.48437(14)
O3 O 0.56313(11) -0.0704(3) 0.6926(2)
C1 C 0.33501(9) 0.5888(3) 0.53536(16)
C2 C 0.28369(10) 0.5010(4) 0.49289(17)
H1 H 0.2724 0.4516 0.4330
C3 C 0.24938(11) 0.4876(4) 0.54061(19)
H2 H 0.2144 0.4308 0.5117
C4 C 0.26596(10) 0.5571(4) 0.63090(18)
C5 C 0.31768(11) 0.6470(4) 0.67176(17)
H3 H 0.3292 0.6959 0.7318
C6 C 0.35209(10) 0.6645(3) 0.62423(16)
H4 H 0.3863 0.7264 0.6516
C7 C 0.22912(13) 0.5356(5) 0.6836(2)
H5 H 0.2157 0.6549 0.6922
H6 H 0.2505 0.4807 0.7436
H7 H 0.1977 0.4577 0.6486
C8 C 0.52880(10) 0.4164(3) 0.66202(17)
H8 H 0.5616 0.4655 0.7076
C9 C 0.48536(10) 0.5333(3) 0.60882(17)
H9 H 0.4886 0.6605 0.6184
C10 C 0.43692(9) 0.4578(3) 0.54104(15)
C11 C 0.43180(10) 0.2700(4) 0.52408(18)
H10 H 0.3995 0.2218 0.4770
C12 C 0.47523(11) 0.1546(4) 0.57793(19)
H11 H 0.4720 0.0277 0.5674
C13 C 0.52392(9) 0.2266(3) 0.64790(16)
C14 C 0.56933(12) 0.0944(4) 0.70591(19)
C15 C 0.62273(12) 0.1690(4) 0.7787(2)
H12 H 0.6403 0.2493 0.7496
H13 H 0.6477 0.0685 0.8088
H14 H 0.6146 0.2372 0.8243
loop_
_geom_bond_atom_site_label_1
_geom_bond_atom_site_label_2
_geom_bond_site_symmetry_1
_geom_bond_site_symmetry_2
S1 O1 1_555 1_555
O2 S1 1_555 1_555
O3 C14 1_555 1_555
C1 S1 1_555 1_555
C2 C1 1_555 1_555
H1 C2 1_555 1_555
C3 C2 1_555 1_555
H2 C3 1_555 1_555
C4 C3 1_555 1_555
C5 C4 1_555 1_555
H3 C5 1_555 1_555
C6 C1 1_555 1_555
H4 C6 1_555 1_555
C7 C4 1_555 1_555
H5 C7 1_555 1_555
H6 C7 1_555 1_555
H7 C7 1_555 1_555
C8 H8 1_555 1_555
C9 C8 1_555 1_555
H9 C9 1_555 1_555
C10 S1 1_555 1_555
C11 C10 1_555 1_555
H10 C11 1_555 1_555
C12 C11 1_555 1_555
H11 C12 1_555 1_555
C13 C8 1_555 1_555
C14 C13 1_555 1_555
C15 C14 1_555 1_555
H12 C15 1_555 1_555
H13 C15 1_555 1_555
H14 C15 1_555 1_555
C5 C6 1_555 1_555
C9 C10 1_555 1_555
C12 C13 1_555 1_555

#END
