
#######################################################################
#
#                 Cambridge Crystallographic Data Centre
#                                CCDC 
#
#######################################################################
#
# If this CIF has been generated from an entry in the Cambridge 
# Structural Database, then it will include bibliographic, chemical, 
# crystal, experimental, refinement or atomic coordinate data resulting 
# from the CCDC's data processing and validation procedures.
#
#######################################################################

data_MOXRUN
_chemical_name_common            "4,4'-Bipyridine pamoic acid"
_chemical_formula_moiety         'C10 H8 N2,C23 H16 O6'
_chemical_name_systematic        
"4,4'-Bipyridine 4,4'-methylenebis(3-hydroxy-2-naphthoic acid)"
_symmetry_cell_setting           monoclinic
_symmetry_space_group_name_H-M   'P 21/c'
_symmetry_Int_Tables_number      14
_space_group_name_Hall           '-P 2ybc'
loop_
_symmetry_equiv_pos_site_id
_symmetry_equiv_pos_as_xyz
1 x,y,z
2 -x,1/2+y,1/2-z
3 -x,-y,-z
4 x,1/2-y,1/2+z
_cell_length_a                   16.602(4)
_cell_length_b                   8.503(2)
_cell_length_c                   18.580(5)
_cell_angle_alpha                90
_cell_angle_beta                 101.210(4)
_cell_angle_gamma                90
_cell_volume                     2572.84
_exptl_crystal_colour            'pale yellow'
_exptl_crystal_description       prism
_cell_formula_units_Z            4
loop_
_atom_site_label
_atom_site_type_symbol
_atom_site_fract_x
_atom_site_fract_y
_atom_site_fract_z
O1 O -0.04838(8) 0.80355(17) 0.39695(8)
O2 O -0.13538(8) 0.64716(18) 0.43952(8)
H1 H -0.1603 0.6541 0.3970
O3 O 0.07805(8) 0.90833(15) 0.48362(7)
H2 H 0.0456 0.8935 0.4450
O4 O 0.30403(8) 0.93551(17) 0.74794(8)
H3 H 0.3400 0.9319 0.7850
O5 O 0.44097(9) 0.85711(18) 0.83148(8)
O6 O 0.52056(9) 0.6812(2) 0.79188(8)
H4 H 0.5447 0.6854 0.8348
C1 C -0.01411(10) 0.7197(2) 0.52142(10)
C2 C 0.05896(10) 0.8118(2) 0.53651(10)
C3 C 0.11166(10) 0.80667(19) 0.60408(10)
C4 C 0.08921(10) 0.7131(2) 0.66065(10)
C5 C 0.13522(12) 0.7111(2) 0.73352(10)
H5 H 0.1829 0.7708 0.7451
C6 C 0.11087(13) 0.6234(2) 0.78663(11)
H6 H 0.1418 0.6255 0.8341
C7 C 0.04032(13) 0.5300(2) 0.77128(11)
H7 H 0.0249 0.4697 0.8081
C8 C -0.00564(12) 0.5279(2) 0.70234(11)
H8 H -0.0522 0.4646 0.6921
C9 C 0.01615(11) 0.6203(2) 0.64590(10)
C10 C -0.03352(11) 0.6255(2) 0.57509(10)
H9 H -0.0805 0.5633 0.5647
C11 C -0.06737(11) 0.7273(2) 0.44726(11)
C12 C 0.18828(10) 0.9085(2) 0.61722(10)
H10 H 0.1871 0.9738 0.6598
H11 H 0.1852 0.9782 0.5755
C13 C 0.27079(10) 0.8250(2) 0.62924(10)
C14 C 0.32530(11) 0.8418(2) 0.69535(10)
C15 C 0.40252(11) 0.7630(2) 0.70922(10)
C16 C 0.42479(11) 0.6728(2) 0.65553(10)
H12 H 0.4747 0.6196 0.6652
C17 C 0.37385(11) 0.6586(2) 0.58577(10)
C18 C 0.39844(12) 0.5699(2) 0.52977(10)
H13 H 0.4485 0.5173 0.5395
C19 C 0.35039(13) 0.5597(2) 0.46178(11)
H14 H 0.3676 0.5016 0.4252
C20 C 0.27491(13) 0.6376(2) 0.44757(11)
H15 H 0.2423 0.6317 0.4009
C21 C 0.24798(12) 0.7220(2) 0.50051(10)
H16 H 0.1971 0.7714 0.4895
C22 C 0.29617(10) 0.7358(2) 0.57238(10)
C23 C 0.45647(12) 0.7725(2) 0.78271(11)
N1 N 0.78537(10) 0.66499(19) 0.30246(9)
N2 N 0.59636(11) 0.6713(2) -0.07279(10)
C24 C 0.81944(12) 0.7371(2) 0.25211(11)
H17 H 0.8691 0.7892 0.2673
C25 C 0.78431(12) 0.7377(2) 0.17865(11)
H18 H 0.8101 0.7898 0.1454
C26 C 0.71060(12) 0.6606(2) 0.15422(11)
C27 C 0.67555(13) 0.5870(3) 0.20658(11)
H19 H 0.6256 0.5350 0.1931
C28 C 0.71500(14) 0.5907(3) 0.27921(12)
H20 H 0.6909 0.5384 0.3136
C29 C 0.67108(12) 0.6595(2) 0.07498(11)
C30 C 0.71712(12) 0.6619(2) 0.02062(11)
H21 H 0.7742 0.6595 0.0327
C31 C 0.67738(13) 0.6678(2) -0.05229(12)
H22 H 0.7091 0.6693 -0.0884
C32 C 0.55184(13) 0.6684(2) -0.02036(13)
H23 H 0.4949 0.6714 -0.0342
C33 C 0.58599(12) 0.6613(2) 0.05326(12)
H24 H 0.5526 0.6576 0.0881
loop_
_geom_bond_atom_site_label_1
_geom_bond_atom_site_label_2
_geom_bond_site_symmetry_1
_geom_bond_site_symmetry_2
O1 C11 1_555 1_555
O2 H1 1_555 1_555
O3 H2 1_555 1_555
O4 H3 1_555 1_555
O5 C23 1_555 1_555
O6 H4 1_555 1_555
N1 C24 1_555 1_555
N2 C31 1_555 1_555
C1 C2 1_555 1_555
C2 O3 1_555 1_555
C3 C2 1_555 1_555
C4 C3 1_555 1_555
C5 C4 1_555 1_555
H5 C5 1_555 1_555
C6 C5 1_555 1_555
H6 C6 1_555 1_555
C7 C6 1_555 1_555
H7 C7 1_555 1_555
C8 C7 1_555 1_555
H8 C8 1_555 1_555
C9 C4 1_555 1_555
C10 C1 1_555 1_555
H9 C10 1_555 1_555
C11 O2 1_555 1_555
C12 C3 1_555 1_555
H10 C12 1_555 1_555
H11 C12 1_555 1_555
C13 C12 1_555 1_555
C14 O4 1_555 1_555
C15 C14 1_555 1_555
C16 C15 1_555 1_555
H12 C16 1_555 1_555
C17 C16 1_555 1_555
C18 C17 1_555 1_555
H13 C18 1_555 1_555
C19 C18 1_555 1_555
H14 C19 1_555 1_555
C20 C19 1_555 1_555
H15 C20 1_555 1_555
C21 C20 1_555 1_555
H16 C21 1_555 1_555
C22 C13 1_555 1_555
C23 O6 1_555 1_555
C24 H17 1_555 1_555
C25 C24 1_555 1_555
H18 C25 1_555 1_555
C26 C25 1_555 1_555
C27 C26 1_555 1_555
H19 C27 1_555 1_555
C28 N1 1_555 1_555
H20 C28 1_555 1_555
C29 C26 1_555 1_555
C30 C29 1_555 1_555
H21 C30 1_555 1_555
C31 C30 1_555 1_555
H22 C31 1_555 1_555
C32 N2 1_555 1_555
H23 C32 1_555 1_555
C33 C29 1_555 1_555
H24 C33 1_555 1_555
C1 C11 1_555 1_555
C8 C9 1_555 1_555
C9 C10 1_555 1_555
C13 C14 1_555 1_555
C15 C23 1_555 1_555
C17 C22 1_555 1_555
C21 C22 1_555 1_555
C27 C28 1_555 1_555
C32 C33 1_555 1_555

#END
