
#######################################################################
#
#                 Cambridge Crystallographic Data Centre
#                                CCDC 
#
#######################################################################
#
# If this CIF has been generated from an entry in the Cambridge 
# Structural Database, then it will include bibliographic, chemical, 
# crystal, experimental, refinement or atomic coordinate data resulting 
# from the CCDC's data processing and validation procedures.
#
#######################################################################

data_MOXROH
_chemical_name_common            'Piperazinediium pamoate trihydrate'
_chemical_formula_moiety         'C4 H12 N2 2+,C23 H14 O6 2-,3(H2 O1)'
_chemical_name_systematic        
"Piperazinediium 4,4'-methylenebis(3-hydroxy-2-naphthoate) trihydrate"
_symmetry_cell_setting           orthorhombic
_symmetry_space_group_name_H-M   'P b c a'
_symmetry_Int_Tables_number      61
_space_group_name_Hall           '-P 2ac 2ab'
loop_
_symmetry_equiv_pos_site_id
_symmetry_equiv_pos_as_xyz
1 x,y,z
2 1/2-x,-y,1/2+z
3 -x,1/2+y,1/2-z
4 1/2+x,1/2-y,-z
5 -x,-y,-z
6 1/2+x,y,1/2-z
7 x,1/2-y,1/2+z
8 1/2-x,1/2+y,z
_cell_length_a                   9.2355(11)
_cell_length_b                   22.702(3)
_cell_length_c                   24.698(3)
_cell_angle_alpha                90
_cell_angle_beta                 90
_cell_angle_gamma                90
_cell_volume                     5178.29
_exptl_crystal_colour            yellow
_exptl_crystal_description       lamellar
_cell_formula_units_Z            8
loop_
_atom_site_label
_atom_site_type_symbol
_atom_site_fract_x
_atom_site_fract_y
_atom_site_fract_z
O1 O 1.39368(13) 0.05965(5) 0.42678(5)
O2 O 1.44611(14) 0.14596(6) 0.39007(7)
O3 O 1.26060(12) 0.20330(5) 0.33768(5)
H1 H 1.3372 0.1961 0.3531
O4 O 0.76279(13) 0.21924(5) 0.34232(5)
H2 H 0.6912 0.2244 0.3614
O5 O 0.59526(14) 0.27015(6) 0.40877(6)
O6 O 0.64030(14) 0.35980(6) 0.43758(6)
C5 C 1.36241(19) 0.10350(8) 0.39718(7)
C6 C 1.21867(16) 0.10441(7) 0.36920(6)
C7 C 1.17315(16) 0.15520(6) 0.33996(6)
C8 C 1.04270(16) 0.15726(6) 0.31279(6)
C9 C 0.95192(17) 0.10662(6) 0.31349(6)
C10 C 0.81651(18) 0.10327(7) 0.28628(7)
H15 H 0.7846 0.1355 0.2664
C11 C 0.7326(2) 0.05429(8) 0.28860(8)
H16 H 0.6442 0.0537 0.2706
C12 C 0.7771(2) 0.00456(8) 0.31775(8)
H17 H 0.7187 -0.0288 0.3189
C13 C 0.9054(2) 0.00518(7) 0.34429(7)
H18 H 0.9343 -0.0279 0.3637
C14 C 0.99629(17) 0.05548(7) 0.34304(6)
C15 C 1.13004(17) 0.05638(7) 0.37024(6)
H19 H 1.1589 0.0232 0.3895
C16 C 1.00739(17) 0.21251(6) 0.28042(6)
H20 H 0.9246 0.2042 0.2575
H21 H 1.0887 0.2212 0.2569
C17 C 0.97409(16) 0.26732(6) 0.31393(6)
C18 C 0.84820(17) 0.26784(6) 0.34413(6)
C19 C 0.80582(16) 0.31759(7) 0.37533(6)
C20 C 0.67153(18) 0.31555(8) 0.40929(7)
C21 C 0.88892(17) 0.36726(7) 0.37294(6)
H22 H 0.8615 0.4000 0.3932
C22 C 1.01443(17) 0.37061(7) 0.34097(6)
C23 C 1.09442(19) 0.42354(7) 0.33626(7)
H23 H 1.0630 0.4570 0.3545
C24 C 1.2160(2) 0.42618(8) 0.30567(7)
H24 H 1.2669 0.4614 0.3026
C25 C 1.2647(2) 0.37581(8) 0.27866(8)
H25 H 1.3495 0.3776 0.2584
C26 C 1.18988(19) 0.32427(8) 0.28154(7)
H26 H 1.2248 0.2915 0.2631
C27 C 1.06024(17) 0.31928(7) 0.31184(6)
N1 N 0.66723(14) 0.07475(6) 0.46353(5)
H3 H 0.5783 0.0706 0.4491
H4 H 0.7157 0.0408 0.4583
N2 N 0.87779(15) 0.14479(6) 0.51911(6)
H5 H 0.9666 0.1489 0.5336
H6 H 0.8291 0.1787 0.5243
C1 C 0.65402(19) 0.08613(8) 0.52215(7)
H7 H 0.6080 0.0527 0.5396
H8 H 0.5937 0.1205 0.5280
C2 C 0.8011(2) 0.09623(8) 0.54678(7)
H9 H 0.7903 0.1057 0.5849
H10 H 0.8580 0.0604 0.5440
C3 C 0.89129(18) 0.13344(8) 0.46015(7)
H11 H 0.9518 0.0991 0.4542
H12 H 0.9372 0.1669 0.4428
C4 C 0.74410(18) 0.12326(7) 0.43552(6)
H13 H 0.6873 0.1591 0.4381
H14 H 0.7549 0.1136 0.3975
O7 O 0.72085(17) 0.46380(6) 0.48327(6)
H27 H 0.7052 0.4351 0.4619
H28 H 0.7631 0.4560 0.5130
O8 O 0.68628(16) 0.23380(7) 0.56145(6)
H29 H 0.6001 0.2321 0.5494
H30 H 0.6966 0.2427 0.5947
O9 O 0.44414(17) 0.22192(7) 0.49871(6)
H31 H 0.3572 0.2096 0.4987
H32 H 0.4822 0.2293 0.4681
loop_
_geom_bond_atom_site_label_1
_geom_bond_atom_site_label_2
_geom_bond_site_symmetry_1
_geom_bond_site_symmetry_2
O1 C5 1_555 1_555
O2 C5 1_555 1_555
O3 H1 1_555 1_555
O4 H2 1_555 1_555
O5 C20 1_555 1_555
O6 C20 1_555 1_555
N1 H3 1_555 1_555
H4 N1 1_555 1_555
N2 H5 1_555 1_555
H6 N2 1_555 1_555
C1 N1 1_555 1_555
H7 C1 1_555 1_555
H8 C1 1_555 1_555
C2 N2 1_555 1_555
H9 C2 1_555 1_555
H10 C2 1_555 1_555
C3 N2 1_555 1_555
H11 C3 1_555 1_555
H12 C3 1_555 1_555
C4 N1 1_555 1_555
H13 C4 1_555 1_555
H14 C4 1_555 1_555
C5 C6 1_555 1_555
C6 C7 1_555 1_555
C7 O3 1_555 1_555
C8 C7 1_555 1_555
C9 C8 1_555 1_555
C10 C9 1_555 1_555
H15 C10 1_555 1_555
C11 C10 1_555 1_555
H16 C11 1_555 1_555
C12 C11 1_555 1_555
H17 C12 1_555 1_555
C13 C12 1_555 1_555
H18 C13 1_555 1_555
C14 C9 1_555 1_555
C15 C6 1_555 1_555
H19 C15 1_555 1_555
C16 C8 1_555 1_555
H20 C16 1_555 1_555
H21 C16 1_555 1_555
C17 C16 1_555 1_555
C18 O4 1_555 1_555
C19 C18 1_555 1_555
C20 C19 1_555 1_555
C21 C19 1_555 1_555
H22 C21 1_555 1_555
C22 C21 1_555 1_555
C23 C22 1_555 1_555
H23 C23 1_555 1_555
C24 C23 1_555 1_555
H24 C24 1_555 1_555
C25 C24 1_555 1_555
H25 C25 1_555 1_555
C26 C25 1_555 1_555
H26 C26 1_555 1_555
C27 C17 1_555 1_555
O7 H27 1_555 1_555
H28 O7 1_555 1_555
O8 H29 1_555 1_555
H30 O8 1_555 1_555
O9 H31 1_555 1_555
H32 O9 1_555 1_555
C1 C2 1_555 1_555
C3 C4 1_555 1_555
C13 C14 1_555 1_555
C14 C15 1_555 1_555
C17 C18 1_555 1_555
C22 C27 1_555 1_555
C26 C27 1_555 1_555

#END
