
#######################################################################
#
#                 Cambridge Crystallographic Data Centre
#                                CCDC 
#
#######################################################################
#
# If this CIF has been generated from an entry in the Cambridge 
# Structural Database, then it will include bibliographic, chemical, 
# crystal, experimental, refinement or atomic coordinate data resulting 
# from the CCDC's data processing and validation procedures.
#
#######################################################################

data_MOYNEV
_chemical_formula_moiety         'C19 H16 O1'
_chemical_name_systematic        4a-methyl-11,12-dihydrochrysen-2(4aH)-one
_symmetry_cell_setting           orthorhombic
_symmetry_space_group_name_H-M   'P 21 21 21'
_symmetry_Int_Tables_number      19
_space_group_name_Hall           'P 2ac 2ab'
loop_
_symmetry_equiv_pos_site_id
_symmetry_equiv_pos_as_xyz
1 x,y,z
2 1/2-x,-y,1/2+z
3 -x,1/2+y,1/2-z
4 1/2+x,1/2-y,-z
_cell_length_a                   8.2778(17)
_cell_length_b                   8.4732(17)
_cell_length_c                   20.095(4)
_cell_angle_alpha                90
_cell_angle_beta                 90
_cell_angle_gamma                90
_cell_volume                     1409.45
_exptl_crystal_colour            yellow
_exptl_crystal_description       block
_cell_formula_units_Z            4
loop_
_atom_site_label
_atom_site_type_symbol
_atom_site_fract_x
_atom_site_fract_y
_atom_site_fract_z
O1 O 1.38364(13) 0.10495(15) 0.02147(6)
C1 C 1.19029(18) -0.1610(2) 0.13087(8)
H1 H 1.2193 -0.2321 0.1640
C2 C 1.30686(18) -0.08384(19) 0.10010(8)
H2 H 1.4136 -0.1065 0.1109
C3 C 1.27429(18) 0.03466(16) 0.05013(7)
C4 C 1.10412(17) 0.06851(17) 0.03726(7)
H3 H 1.0784 0.1476 0.0070
C5 C 0.98419(17) -0.00907(17) 0.06699(6)
C6 C 0.81106(18) 0.0350(2) 0.05789(7)
H4 H 0.7498 -0.0563 0.0433
H5 H 0.8018 0.1163 0.0241
C7 C 0.74394(16) 0.09528(17) 0.12362(6)
H6 H 0.7853 0.2007 0.1316
H7 H 0.6273 0.1025 0.1203
C8 C 0.78681(14) -0.00889(15) 0.18230(6)
C9 C 0.91297(15) -0.11397(15) 0.17944(6)
C10 C 1.01338(16) -0.14140(15) 0.11576(7)
C11 C 0.94967(19) -0.20791(18) 0.23606(7)
H8 H 1.0344 -0.2798 0.2338
C12 C 0.8638(2) -0.19510(18) 0.29343(7)
H9 H 0.8918 -0.2568 0.3299
C13 C 0.73356(17) -0.08997(16) 0.29833(6)
C14 C 0.69287(15) 0.00432(15) 0.24218(6)
C15 C 0.55837(18) 0.10539(17) 0.24810(7)
H10 H 0.5306 0.1697 0.2124
C16 C 0.4678(2) 0.11135(19) 0.30483(8)
H11 H 0.3786 0.1778 0.3069
C17 C 0.5083(2) 0.0183(2) 0.35974(7)
H12 H 0.4462 0.0229 0.3983
C18 C 0.6382(2) -0.07853(19) 0.35674(7)
H13 H 0.6655 -0.1388 0.3938
C19 C 0.9590(3) -0.3007(2) 0.08410(9)
H14 H 1.0200 -0.3197 0.0443
H15 H 0.8461 -0.2956 0.0734
H16 H 0.9775 -0.3850 0.1151
loop_
_geom_bond_atom_site_label_1
_geom_bond_atom_site_label_2
_geom_bond_site_symmetry_1
_geom_bond_site_symmetry_2
O1 C3 1_555 1_555
C1 H1 1_555 1_555
C2 C1 1_555 1_555
H2 C2 1_555 1_555
C3 C2 1_555 1_555
C4 C3 1_555 1_555
H3 C4 1_555 1_555
C5 C4 1_555 1_555
C6 C5 1_555 1_555
H4 C6 1_555 1_555
H5 C6 1_555 1_555
C7 C6 1_555 1_555
H6 C7 1_555 1_555
H7 C7 1_555 1_555
C8 C7 1_555 1_555
C9 C8 1_555 1_555
C10 C1 1_555 1_555
C11 C9 1_555 1_555
H8 C11 1_555 1_555
C12 C11 1_555 1_555
H9 C12 1_555 1_555
C13 C12 1_555 1_555
C14 C8 1_555 1_555
C15 C14 1_555 1_555
H10 C15 1_555 1_555
C16 C15 1_555 1_555
H11 C16 1_555 1_555
C17 C16 1_555 1_555
H12 C17 1_555 1_555
C18 C13 1_555 1_555
H13 C18 1_555 1_555
C19 C10 1_555 1_555
H14 C19 1_555 1_555
H15 C19 1_555 1_555
H16 C19 1_555 1_555
C5 C10 1_555 1_555
C9 C10 1_555 1_555
C13 C14 1_555 1_555
C17 C18 1_555 1_555

#END
