
#######################################################################
#
#                 Cambridge Crystallographic Data Centre
#                                CCDC 
#
#######################################################################
#
# If this CIF has been generated from an entry in the Cambridge 
# Structural Database, then it will include bibliographic, chemical, 
# crystal, experimental, refinement or atomic coordinate data resulting 
# from the CCDC's data processing and validation procedures.
#
#######################################################################

data_MOYVOM
_chemical_formula_moiety         'H12 Mg1 O6 2+,2(C8 H6 N5 O2 1-),2(H2 O1)'
_chemical_name_systematic        
'hexa-aqua-magnesium bis((4-(5H-tetrazol-5-ylidene)-1(4H)-pyridinyl)acetate) dihydrate'
_symmetry_cell_setting           triclinic
_symmetry_space_group_name_H-M   'P -1'
_symmetry_Int_Tables_number      2
_space_group_name_Hall           '-P 1'
loop_
_symmetry_equiv_pos_site_id
_symmetry_equiv_pos_as_xyz
1 x,y,z
2 -x,-y,-z
_cell_length_a                   7.0601(8)
_cell_length_b                   7.7110(10)
_cell_length_c                   12.2708(15)
_cell_angle_alpha                88.547(14)
_cell_angle_beta                 78.717(13)
_cell_angle_gamma                86.413(16)
_cell_volume                     653.774
_exptl_crystal_colour            colorless
_exptl_crystal_description       block
_cell_formula_units_Z            1
_exptl_crystal_preparation       luminescent
loop_
_atom_site_label
_atom_site_type_symbol
_atom_site_fract_x
_atom_site_fract_y
_atom_site_fract_z
Mg1 Mg 0.5000 0.5000 0.5000
O3 O 0.4765(3) 0.2382(2) 0.52983(14)
O4 O 0.3529(3) 0.4989(2) 0.36894(15)
O5 O 0.2348(3) 0.5381(3) 0.60321(17)
H7 H 0.401(4) 0.172(3) 0.496(2)
H8 H 0.572(4) 0.165(4) 0.537(2)
H9 H 0.272(5) 0.421(4) 0.365(3)
H10 H 0.205(6) 0.491(6) 0.665(4)
H11 H 0.383(5) 0.543(4) 0.292(3)
H12 H 0.141(5) 0.614(5) 0.593(3)
O3A O 0.5235(3) 0.7618(2) 0.47017(14)
O4A O 0.6471(3) 0.5011(2) 0.63106(15)
O5A O 0.7652(3) 0.4619(3) 0.39679(17)
H7A H 0.599(4) 0.828(3) 0.504(2)
H8A H 0.428(4) 0.835(4) 0.463(2)
H9A H 0.728(5) 0.579(4) 0.635(3)
H10A H 0.795(6) 0.509(6) 0.335(4)
H11A H 0.617(5) 0.457(4) 0.708(3)
H12A H 0.859(5) 0.386(5) 0.407(3)
C1 C 0.6370(3) 0.2475(3) 0.00314(16)
C2 C 0.7426(3) 0.1818(3) 0.08819(16)
C3 C 0.9409(3) 0.1932(3) 0.07569(18)
H1 H 1.0080 0.2513 0.0142
C4 C 1.0388(3) 0.1202(3) 0.15238(19)
H2 H 1.1718 0.1292 0.1424
C5 C 0.7540(3) 0.0274(4) 0.25853(19)
H3 H 0.6899 -0.0279 0.3221
C6 C 0.6501(3) 0.0990(4) 0.1838(2)
H4 H 0.5165 0.0920 0.1971
C7 C 1.0590(3) -0.0468(3) 0.32044(18)
H5 H 1.1617 -0.1232 0.2799
H6 H 0.9754 -0.1174 0.3736
C8 C 1.1473(3) 0.0852(3) 0.38304(17)
N1 N 0.4468(3) 0.2437(3) 0.01176(16)
N2 N 0.4127(3) 0.3121(3) -0.08415(16)
N3 N 0.5765(3) 0.3541(3) -0.14747(16)
N4 N 0.7211(3) 0.3148(3) -0.09387(15)
N5 N 0.9462(2) 0.0357(2) 0.24181(14)
O1 O 1.2650(2) 0.0222(2) 0.43836(15)
O2 O 1.0969(2) 0.2410(2) 0.37556(15)
O6 O 0.1109(3) 0.3746(3) 0.79462(17)
H13 H 0.187(6) 0.364(5) 0.842(4)
H14 H -0.008(6) 0.380(5) 0.832(3)
loop_
_geom_bond_atom_site_label_1
_geom_bond_atom_site_label_2
_geom_bond_site_symmetry_1
_geom_bond_site_symmetry_2
Mg1 O3 1_555 1_555
C1 C2 1_555 1_555
C2 C3 1_555 1_555
C3 H1 1_555 1_555
C4 C3 1_555 1_555
H2 C4 1_555 1_555
C5 H3 1_555 1_555
C6 C2 1_555 1_555
H4 C6 1_555 1_555
C7 H5 1_555 1_555
H6 C7 1_555 1_555
C8 C7 1_555 1_555
N1 C1 1_555 1_555
N2 N1 1_555 1_555
N3 N2 1_555 1_555
N4 C1 1_555 1_555
N5 C4 1_555 1_555
O1 C8 1_555 1_555
O2 C8 1_555 1_555
O3 H7 1_555 1_555
O4 Mg1 1_555 1_555
O5 Mg1 1_555 1_555
O6 H13 1_555 1_555
H8 O3 1_555 1_555
H9 O4 1_555 1_555
H10 O5 1_555 1_555
H11 O4 1_555 1_555
H12 O5 1_555 1_555
H14 O6 1_555 1_555
O3A Mg1 1_555 1_555
O4A Mg1 1_555 1_555
O5A Mg1 1_555 1_555
H7A O3A 1_555 1_555
H8A O3A 1_555 1_555
H9A O4A 1_555 1_555
H10A O5A 1_555 1_555
H11A O4A 1_555 1_555
H12A O5A 1_555 1_555
C5 C6 1_555 1_555
C5 N5 1_555 1_555
C7 N5 1_555 1_555
N3 N4 1_555 1_555

#END
