
#######################################################################
#
#                 Cambridge Crystallographic Data Centre
#                                CCDC 
#
#######################################################################
#
# If this CIF has been generated from an entry in the Cambridge 
# Structural Database, then it will include bibliographic, chemical, 
# crystal, experimental, refinement or atomic coordinate data resulting 
# from the CCDC's data processing and validation procedures.
#
#######################################################################

data_MOYYIK
_chemical_formula_moiety         'C7 F5 O2 1-,C5 H7 N2 1+'
_chemical_name_systematic        '2-Aminopyridinium pentafluorobenzoate'
_symmetry_cell_setting           monoclinic
_symmetry_space_group_name_H-M   'P 21/c'
_symmetry_Int_Tables_number      14
_space_group_name_Hall           '-P 2ybc'
loop_
_symmetry_equiv_pos_site_id
_symmetry_equiv_pos_as_xyz
1 x,y,z
2 -x,1/2+y,1/2-z
3 -x,-y,-z
4 x,1/2-y,1/2+z
_cell_length_a                   12.1086(5)
_cell_length_b                   9.0843(3)
_cell_length_c                   11.9774(3)
_cell_angle_alpha                90
_cell_angle_beta                 114.818(2)
_cell_angle_gamma                90
_cell_volume                     1195.82
_exptl_crystal_colour            colorless
_exptl_crystal_description       plate
_chemical_melting_point          '402 K'
_cell_formula_units_Z            4
loop_
_atom_site_label
_atom_site_type_symbol
_atom_site_fract_x
_atom_site_fract_y
_atom_site_fract_z
C1 C 0.18320(14) 0.03286(16) -0.05749(14)
C2 C 0.20437(14) 0.10445(17) 0.05105(14)
C3 C 0.11802(16) 0.19069(18) 0.06639(15)
C4 C 0.00614(16) 0.20789(18) -0.03028(17)
C5 C -0.01843(15) 0.13806(18) -0.13976(17)
C6 C 0.06890(15) 0.05144(17) -0.15272(15)
C7 C 0.28166(14) -0.05617(16) -0.07490(14)
O1 O 0.34685(10) -0.13733(13) 0.01300(10)
O2 O 0.28917(11) -0.04025(13) -0.17361(10)
F1 F 0.31416(9) 0.09636(11) 0.14738(8)
F2 F 0.14301(11) 0.25691(12) 0.17408(10)
F3 F -0.07914(10) 0.29055(12) -0.01698(12)
F4 F -0.12842(9) 0.15191(12) -0.23326(11)
F5 F 0.03747(9) -0.01848(11) -0.25996(9)
H1 H 0.458(2) -0.270(2) 0.4784(19)
H2 H 0.3725(18) -0.186(2) 0.183(2)
C8 C 0.48963(14) -0.16650(16) 0.34918(14)
C9 C 0.57459(15) -0.07215(17) 0.33228(15)
H3 H 0.5596 -0.0367 0.2526
C10 C 0.67739(16) -0.03297(18) 0.43092(17)
H4 H 0.7345 0.0301 0.4196
C11 C 0.70102(16) -0.08390(19) 0.54960(17)
H5 H 0.7734 -0.0565 0.6184
C12 C 0.61796(15) -0.17302(18) 0.56344(15)
H6 H 0.6321 -0.2087 0.6428
N1 N 0.51445(12) -0.21185(14) 0.46459(12)
N2 N 0.38805(13) -0.21275(16) 0.25779(13)
H7 H 0.344(2) -0.289(2) 0.2713(18)
loop_
_geom_bond_atom_site_label_1
_geom_bond_atom_site_label_2
_geom_bond_site_symmetry_1
_geom_bond_site_symmetry_2
C1 C2 1_555 1_555
C2 C3 1_555 1_555
C3 C4 1_555 1_555
C4 C5 1_555 1_555
C5 C6 1_555 1_555
C6 C1 1_555 1_555
C7 C1 1_555 1_555
O1 C7 1_555 1_555
O2 C7 1_555 1_555
F1 C2 1_555 1_555
F2 C3 1_555 1_555
F3 C4 1_555 1_555
F4 C5 1_555 1_555
F5 C6 1_555 1_555
H1 N1 1_555 1_555
H2 N2 1_555 1_555
C8 C9 1_555 1_555
C9 H3 1_555 1_555
C10 C9 1_555 1_555
H4 C10 1_555 1_555
C11 C10 1_555 1_555
H5 C11 1_555 1_555
C12 C11 1_555 1_555
H6 C12 1_555 1_555
N1 C8 1_555 1_555
N2 C8 1_555 1_555
H7 N2 1_555 1_555
C12 N1 1_555 1_555

#END
