
#######################################################################
#
#                 Cambridge Crystallographic Data Centre
#                                CCDC 
#
#######################################################################
#
# If this CIF has been generated from an entry in the Cambridge 
# Structural Database, then it will include bibliographic, chemical, 
# crystal, experimental, refinement or atomic coordinate data resulting 
# from the CCDC's data processing and validation procedures.
#
#######################################################################

data_MOYYAC
_chemical_formula_moiety         'C7 H4 F1 O2 1-,C5 H7 N2 1+'
_chemical_name_systematic        '2-Aminopyridinium 2-fluorobenzoate'
_symmetry_cell_setting           orthorhombic
_symmetry_space_group_name_H-M   'P b c a'
_symmetry_Int_Tables_number      61
_space_group_name_Hall           '-P 2ac 2ab'
loop_
_symmetry_equiv_pos_site_id
_symmetry_equiv_pos_as_xyz
1 x,y,z
2 1/2-x,-y,1/2+z
3 -x,1/2+y,1/2-z
4 1/2+x,1/2-y,-z
5 -x,-y,-z
6 1/2+x,y,1/2-z
7 x,1/2-y,1/2+z
8 1/2-x,1/2+y,z
_cell_length_a                   12.0605(4)
_cell_length_b                   11.6032(3)
_cell_length_c                   15.4345(6)
_cell_angle_alpha                90
_cell_angle_beta                 90
_cell_angle_gamma                90
_cell_volume                     2159.91
_exptl_crystal_colour            colorless
_exptl_crystal_description       plate
_chemical_melting_point          '420 K'
_cell_formula_units_Z            8
loop_
_atom_site_label
_atom_site_type_symbol
_atom_site_fract_x
_atom_site_fract_y
_atom_site_fract_z
C1 C 1.03310(12) 0.03226(13) 0.34115(9)
C2 C 1.06107(14) 0.14786(14) 0.34045(11)
C3 C 1.15449(14) 0.19044(16) 0.29953(11)
H1 H 1.1707 0.2705 0.3008
C4 C 1.22347(14) 0.11497(16) 0.25698(11)
H2 H 1.2885 0.1426 0.2292
C5 C 1.19821(14) -0.00080(15) 0.25472(11)
H3 H 1.2451 -0.0529 0.2245
C6 C 1.10459(13) -0.04099(15) 0.29656(10)
H4 H 1.0885 -0.1211 0.2948
C7 C 0.93100(12) -0.01636(13) 0.38459(10)
O1 O 0.87435(9) 0.04976(9) 0.43261(7)
O2 O 0.90806(9) -0.11935(9) 0.37001(8)
F1 F 0.99601(13) 0.22713(11) 0.37575(10)
C8 C 0.82931(12) 0.34305(13) 0.50522(10)
C9 C 0.92281(13) 0.30642(14) 0.55301(10)
H6 H 0.9474 0.2288 0.5494
C10 C 0.97731(14) 0.38290(14) 0.60408(11)
H7 H 1.0394 0.3579 0.6370
C11 C 0.94318(14) 0.49845(15) 0.60904(10)
H8 H 0.9824 0.5525 0.6437
C12 C 0.85287(14) 0.53044(14) 0.56304(10)
H9 H 0.8280 0.6080 0.5659
N1 N 0.79719(11) 0.45411(11) 0.51294(9)
N2 N 0.77129(12) 0.27355(12) 0.45399(10)
H10 H 0.7075(18) 0.3050(18) 0.4217(14)
H11 H 0.8004(17) 0.2054(19) 0.4434(13)
H12 H 0.731(2) 0.479(2) 0.4806(14)
H5? H 1.0137 0.2006 0.3695
F2? F 1.0923(4) -0.1473(4) 0.2845(3)
loop_
_geom_bond_atom_site_label_1
_geom_bond_atom_site_label_2
_geom_bond_site_symmetry_1
_geom_bond_site_symmetry_2
C1 C2 1_555 1_555
C2 C3 1_555 1_555
C3 H1 1_555 1_555
C4 C3 1_555 1_555
H2 C4 1_555 1_555
C5 C4 1_555 1_555
H3 C5 1_555 1_555
C6 C1 1_555 1_555
H4 C6 1_555 1_555
C7 C1 1_555 1_555
O1 C7 1_555 1_555
O2 C7 1_555 1_555
F1 C2 1_555 1_555
C8 C9 1_555 1_555
C9 H6 1_555 1_555
C10 C9 1_555 1_555
H7 C10 1_555 1_555
C11 C10 1_555 1_555
H8 C11 1_555 1_555
C12 C11 1_555 1_555
H9 C12 1_555 1_555
N1 C8 1_555 1_555
N2 C8 1_555 1_555
H10 N2 1_555 1_555
H11 N2 1_555 1_555
H12 N1 1_555 1_555
C5 C6 1_555 1_555
C12 N1 1_555 1_555

#END
