
#######################################################################
#
#                 Cambridge Crystallographic Data Centre
#                                CCDC 
#
#######################################################################
#
# If this CIF has been generated from an entry in the Cambridge 
# Structural Database, then it will include bibliographic, chemical, 
# crystal, experimental, refinement or atomic coordinate data resulting 
# from the CCDC's data processing and validation procedures.
#
#######################################################################

data_MOYYOQ
_chemical_formula_moiety         'C7 H6 N1 O3 1-,C5 H7 N2 1+'
_chemical_name_systematic        '2-Aminopyridinium 4-aminosalicylate'
_symmetry_cell_setting           orthorhombic
_symmetry_space_group_name_H-M   'P b c a'
_symmetry_Int_Tables_number      61
_space_group_name_Hall           '-P 2ac 2ab'
loop_
_symmetry_equiv_pos_site_id
_symmetry_equiv_pos_as_xyz
1 x,y,z
2 1/2-x,-y,1/2+z
3 1/2+x,1/2-y,-z
4 -x,1/2+y,1/2-z
5 -x,-y,-z
6 1/2+x,y,1/2-z
7 1/2-x,1/2+y,z
8 x,1/2-y,1/2+z
_cell_length_a                   11.1946(7)
_cell_length_b                   12.1124(14)
_cell_length_c                   17.2081(19)
_cell_angle_alpha                90
_cell_angle_beta                 90
_cell_angle_gamma                90
_cell_volume                     2333.31
_exptl_crystal_colour            brown
_exptl_crystal_description       'hexagonal plates'
_chemical_melting_point          '444 K'
_cell_formula_units_Z            8
loop_
_atom_site_label
_atom_site_type_symbol
_atom_site_fract_x
_atom_site_fract_y
_atom_site_fract_z
C1 C -0.0332(2) 1.0463(2) 0.35876(14)
C2 C -0.0933(2) 0.9850(2) 0.30165(15)
C3 C -0.1865(2) 1.0297(2) 0.25934(15)
C4 C -0.2201(2) 1.1390(2) 0.27109(15)
C5 C -0.1604(2) 1.2017(2) 0.32748(15)
C6 C -0.0700(2) 1.1552(2) 0.37012(16)
C7 C 0.0692(2) 0.9989(2) 0.40130(16)
N1 N -0.3072(2) 1.1869(2) 0.22610(14)
O1 O -0.06046(17) 0.87946(14) 0.28535(11)
O2 O 0.09814(15) 0.89915(14) 0.38642(10)
O3 O 0.12671(15) 1.05777(14) 0.44920(11)
H1 H -0.186(2) 1.280(2) 0.3373(14)
H2 H -0.365(3) 1.141(3) 0.201(2)
H3 H -0.343(3) 1.253(3) 0.2435(17)
H4 H -0.227(2) 0.984(2) 0.2202(14)
H5 H -0.030(2) 1.201(2) 0.4103(15)
H6 H 0.005(3) 0.865(3) 0.3224(19)
C8 C -0.1592(2) 1.6551(2) 0.48823(15)
C9 C -0.0609(2) 1.6924(2) 0.44338(15)
C10 C -0.0056(2) 1.6205(2) 0.39444(16)
C11 C -0.0427(2) 1.5107(2) 0.38784(16)
C12 C -0.1376(2) 1.4779(2) 0.43151(16)
N2 N -0.19397(18) 1.54949(18) 0.48002(12)
N3 N -0.2181(2) 1.7198(2) 0.53754(13)
H7 H -0.261(2) 1.520(2) 0.5089(16)
H8 H -0.0386(19) 1.771(2) 0.4473(13)
H9 H -0.278(2) 1.681(2) 0.5715(17)
H10 H -0.186(3) 1.798(3) 0.5485(18)
H11 H 0.064(2) 1.649(2) 0.3631(15)
H12 H -0.005(2) 1.459(2) 0.3522(15)
H13 H -0.1725(19) 1.397(2) 0.4309(13)
loop_
_geom_bond_atom_site_label_1
_geom_bond_atom_site_label_2
_geom_bond_site_symmetry_1
_geom_bond_site_symmetry_2
C1 C2 1_555 1_555
C2 C3 1_555 1_555
C3 C4 1_555 1_555
C4 C5 1_555 1_555
C5 C6 1_555 1_555
C6 C1 1_555 1_555
C7 C1 1_555 1_555
N1 C4 1_555 1_555
O1 C2 1_555 1_555
O2 C7 1_555 1_555
O3 C7 1_555 1_555
H1 C5 1_555 1_555
H2 N1 1_555 1_555
H3 N1 1_555 1_555
H4 C3 1_555 1_555
H5 C6 1_555 1_555
H6 O1 1_555 1_555
C8 C9 1_555 1_555
C9 C10 1_555 1_555
C10 C11 1_555 1_555
C11 C12 1_555 1_555
C12 N2 1_555 1_555
N2 C8 1_555 1_555
N3 C8 1_555 1_555
H7 N2 1_555 1_555
H8 C9 1_555 1_555
H9 N3 1_555 1_555
H10 N3 1_555 1_555
H11 C10 1_555 1_555
H12 C11 1_555 1_555
H13 C12 1_555 1_555

#END
