
#######################################################################
#
#                 Cambridge Crystallographic Data Centre
#                                CCDC 
#
#######################################################################
#
# If this CIF has been generated from an entry in the Cambridge 
# Structural Database, then it will include bibliographic, chemical, 
# crystal, experimental, refinement or atomic coordinate data resulting 
# from the CCDC's data processing and validation procedures.
#
#######################################################################

data_MOYZAD
_chemical_formula_moiety         'C7 H4 Br1 O2 1-,C5 H7 N2 1+'
_chemical_name_systematic        '2-Aminopyridinium 3-bromobenzoate'
_symmetry_cell_setting           monoclinic
_symmetry_space_group_name_H-M   'P 21'
_symmetry_Int_Tables_number      4
_space_group_name_Hall           'P 2yb'
loop_
_symmetry_equiv_pos_site_id
_symmetry_equiv_pos_as_xyz
1 x,y,z
2 -x,1/2+y,-z
_cell_length_a                   7.607
_cell_length_b                   10.733
_cell_length_c                   7.720
_cell_angle_alpha                90
_cell_angle_beta                 111.07
_cell_angle_gamma                90
_cell_volume                     588.165
_exptl_crystal_colour            colorless
_exptl_crystal_description       plate
_chemical_melting_point          '416 K'
_cell_formula_units_Z            2
loop_
_atom_site_label
_atom_site_type_symbol
_atom_site_fract_x
_atom_site_fract_y
_atom_site_fract_z
C1 C 0.3406(3) 1.1834(2) -0.0456(4)
C2 C 0.3531(3) 1.0964(2) 0.0917(4)
H1 H 0.2805 1.0220 0.0616
C3 C 0.4719(4) 1.1187(2) 0.2724(4)
C4 C 0.5804(4) 1.2264(2) 0.3190(4)
H2 H 0.6609 1.2410 0.4437
C5 C 0.5697(4) 1.3118(2) 0.1822(4)
H3 H 0.6445 1.3852 0.2124
C6 C 0.4505(4) 1.2911(3) 0.0007(4)
H4 H 0.4435 1.3505 -0.0928
C7 C 0.2075(4) 1.1607(2) -0.2414(4)
O1 O 0.1325(3) 1.05564(18) -0.2789(3)
O2 O 0.1793(3) 1.25071(18) -0.3551(3)
Br1 Br 0.48464(3) 1.00002(3) 0.45847(3)
C8 C -0.0703(4) 1.0887(2) 0.2253(4)
C9 C -0.1658(3) 1.0731(2) 0.0313(4)
H5 H -0.2292 0.9972 -0.0158
C10 C -0.1661(4) 1.1672(2) -0.0868(4)
H6 H -0.2291 1.1562 -0.2166
C11 C -0.0745(4) 1.2807(2) -0.0196(4)
H7 H -0.0747 1.3464 -0.1020
C12 C 0.0144(4) 1.2936(2) 0.1666(4)
H8 H 0.0762 1.3697 0.2150
N1 N 0.0163(3) 1.1995(2) 0.2845(3)
N2 N -0.0597(3) 1.0023(3) 0.3516(3)
H9 H 0.067(4) 1.218(3) 0.406(5)
H10 H -0.002(4) 1.020(6) 0.477(5)
H11 H -0.122(4) 0.938(3) 0.316(4)
loop_
_geom_bond_atom_site_label_1
_geom_bond_atom_site_label_2
_geom_bond_site_symmetry_1
_geom_bond_site_symmetry_2
C1 C2 1_555 1_555
C2 H1 1_555 1_555
C3 C2 1_555 1_555
C4 C3 1_555 1_555
H2 C4 1_555 1_555
C5 C4 1_555 1_555
H3 C5 1_555 1_555
C6 C1 1_555 1_555
H4 C6 1_555 1_555
C7 C1 1_555 1_555
O1 C7 1_555 1_555
O2 C7 1_555 1_555
Br1 C3 1_555 1_555
C8 C9 1_555 1_555
C9 H5 1_555 1_555
C10 C9 1_555 1_555
H6 C10 1_555 1_555
C11 C10 1_555 1_555
H7 C11 1_555 1_555
C12 C11 1_555 1_555
H8 C12 1_555 1_555
N1 C8 1_555 1_555
N2 C8 1_555 1_555
H9 N1 1_555 1_555
H10 N2 1_555 1_555
H11 N2 1_555 1_555
C5 C6 1_555 1_555
C12 N1 1_555 1_555

#END
