
#######################################################################
#
#                 Cambridge Crystallographic Data Centre
#                                CCDC 
#
#######################################################################
#
# If this CIF has been generated from an entry in the Cambridge 
# Structural Database, then it will include bibliographic, chemical, 
# crystal, experimental, refinement or atomic coordinate data resulting 
# from the CCDC's data processing and validation procedures.
#
#######################################################################

data_MOYZIL
_chemical_formula_moiety         'C7 H5 F1 O2,C4 H5 N3'
_chemical_name_systematic        '2-Aminopyrimidine 2-fluorobenzoic acid'
_symmetry_cell_setting           monoclinic
_symmetry_space_group_name_H-M   'P 21/n'
_symmetry_Int_Tables_number      14
_space_group_name_Hall           '-P 2yn'
loop_
_symmetry_equiv_pos_site_id
_symmetry_equiv_pos_as_xyz
1 x,y,z
2 1/2-x,1/2+y,1/2-z
3 -x,-y,-z
4 1/2+x,1/2-y,1/2+z
_cell_length_a                   5.2341(2)
_cell_length_b                   17.2891(9)
_cell_length_c                   11.6656(5)
_cell_angle_alpha                90
_cell_angle_beta                 90.758(3)
_cell_angle_gamma                90
_cell_volume                     1055.56
_exptl_crystal_colour            yellow
_exptl_crystal_description       block
_chemical_melting_point          '353 K'
_cell_formula_units_Z            4
loop_
_atom_site_label
_atom_site_type_symbol
_atom_site_fract_x
_atom_site_fract_y
_atom_site_fract_z
C1 C 0.3566(3) 0.18501(9) 1.13560(14)
C2 C 0.3362(3) 0.21458(10) 1.02527(15)
C3 C 0.5018(4) 0.26973(10) 0.98423(16)
H1 H 0.4821 0.2891 0.9084
C4 C 0.6962(4) 0.29643(11) 1.05454(16)
H2 H 0.8130 0.3338 1.0267
C5 C 0.7219(4) 0.26898(10) 1.16565(16)
H3 H 0.8546 0.2879 1.2144
C6 C 0.5526(3) 0.21374(10) 1.20521(15)
H4 H 0.5707 0.1951 1.2815
C7 C 0.1824(3) 0.12614(9) 1.18625(14)
O1 O 0.0428(2) 0.08641(7) 1.11261(10)
O2 O 0.1773(2) 0.11647(7) 1.28958(10)
F1 F 0.1480(2) 0.19081(6) 0.95344(9)
H5 H -0.066(6) 0.0472(19) 1.153(3)
C8 C 0.1292(3) 0.50803(10) 0.82084(15)
C9 C 0.0681(3) 0.54650(10) 0.63464(15)
H6 H 0.1213 0.5474 0.5571
C10 C -0.1491(4) 0.58645(11) 0.66343(16)
H7 H -0.2480 0.6141 0.6082
C11 C -0.2144(3) 0.58379(10) 0.77816(16)
H8 H -0.3643 0.6103 0.8011
N1 N -0.0797(3) 0.54647(8) 0.85750(13)
N2 N 0.2689(3) 0.47012(10) 0.89856(14)
N3 N 0.2070(3) 0.50661(9) 0.71071(12)
H9 H 0.401(4) 0.4454(12) 0.8791(17)
H10 H 0.215(4) 0.4663(12) 0.971(2)
loop_
_geom_bond_atom_site_label_1
_geom_bond_atom_site_label_2
_geom_bond_site_symmetry_1
_geom_bond_site_symmetry_2
C1 C2 1_555 1_555
C2 C3 1_555 1_555
C3 H1 1_555 1_555
C4 C3 1_555 1_555
H2 C4 1_555 1_555
C5 C4 1_555 1_555
H3 C5 1_555 1_555
C6 C1 1_555 1_555
H4 C6 1_555 1_555
C7 C1 1_555 1_555
O1 C7 1_555 1_555
O2 C7 1_555 1_555
F1 C2 1_555 1_555
H5 O1 1_555 1_555
C8 N1 1_555 1_555
C9 H6 1_555 1_555
C10 C9 1_555 1_555
H7 C10 1_555 1_555
C11 C10 1_555 1_555
H8 C11 1_555 1_555
N1 C11 1_555 1_555
N2 C8 1_555 1_555
N3 C8 1_555 1_555
H9 N2 1_555 1_555
H10 N2 1_555 1_555
C5 C6 1_555 1_555
C9 N3 1_555 1_555

#END
