
#######################################################################
#
#                 Cambridge Crystallographic Data Centre
#                                CCDC 
#
#######################################################################
#
# If this CIF has been generated from an entry in the Cambridge 
# Structural Database, then it will include bibliographic, chemical, 
# crystal, experimental, refinement or atomic coordinate data resulting 
# from the CCDC's data processing and validation procedures.
#
#######################################################################

data_MOZBOU
_chemical_formula_moiety         '2(C7 H5 Br1 O2),C4 H5 N3'
_chemical_name_systematic        '2-Aminopyrimidine bis(3-bromobenzoic acid)'
_symmetry_cell_setting           orthorhombic
_symmetry_space_group_name_H-M   'P n m a'
_symmetry_Int_Tables_number      62
_space_group_name_Hall           '-P 2ac 2n'
loop_
_symmetry_equiv_pos_site_id
_symmetry_equiv_pos_as_xyz
1 x,y,z
2 1/2-x,-y,1/2+z
3 -x,1/2+y,-z
4 1/2+x,1/2-y,1/2-z
5 -x,-y,-z
6 1/2+x,y,1/2-z
7 x,1/2-y,z
8 1/2-x,1/2+y,1/2+z
_cell_length_a                   12.433(3)
_cell_length_b                   37.934(10)
_cell_length_c                   3.8128(6)
_cell_angle_alpha                90
_cell_angle_beta                 90
_cell_angle_gamma                90
_cell_volume                     1798.24
_exptl_crystal_colour            white
_exptl_crystal_description       slab
_chemical_melting_point          '408 K'
_cell_formula_units_Z            4
loop_
_atom_site_label
_atom_site_type_symbol
_atom_site_fract_x
_atom_site_fract_y
_atom_site_fract_z
C1 C 0.9268(2) 0.37790(9) 0.5460(8)
C2 C 0.8714(3) 0.40540(9) 0.4001(8)
H1 H 0.7976 0.4027 0.3405
C3 C 0.9224(3) 0.43671(9) 0.3405(7)
C4 C 1.0292(3) 0.44127(9) 0.4237(8)
H2 H 1.0641 0.4631 0.3809
C5 C 1.0844(3) 0.41354(9) 0.5701(8)
H3 H 1.1581 0.4163 0.6300
C6 C 1.0343(3) 0.38195(9) 0.6307(8)
H4 H 1.0733 0.3629 0.7305
C7 C 0.8735(3) 0.34390(9) 0.6156(8)
O1 O 0.91937(17) 0.31869(6) 0.7388(6)
O2 O 0.77185(17) 0.34337(7) 0.5255(7)
Br1 Br 0.84405(3) 0.474444(9) 0.14665(8)
H5 H 0.743(3) 0.3217(12) 0.542(10)
C8 C 0.2243(3) 0.2500 -0.1032(11)
C9 C 0.0416(4) 0.2500 0.2602(13)
H6 H -0.0245 0.2500 0.3849
C10 C 0.0916(2) 0.28060(10) 0.1661(7)
H7 H 0.0599 0.3024 0.2336
N1 N 0.18246(19) 0.28125(7) -0.0156(7)
N2 N 0.3133(3) 0.2500 -0.2989(10)
H8 H 0.342(3) 0.2686(9) -0.324(9)
C10F C 0.0916(2) 0.21940(10) 0.1661(7)
H7F H 0.0599 0.1976 0.2336
N1F N 0.18246(19) 0.21875(7) -0.0156(7)
H8F H 0.342(3) 0.2314(9) -0.324(9)
loop_
_geom_bond_atom_site_label_1
_geom_bond_atom_site_label_2
_geom_bond_site_symmetry_1
_geom_bond_site_symmetry_2
C1 C2 1_555 1_555
C2 H1 1_555 1_555
C3 C2 1_555 1_555
C4 C3 1_555 1_555
H2 C4 1_555 1_555
C5 C4 1_555 1_555
H3 C5 1_555 1_555
C6 C1 1_555 1_555
H4 C6 1_555 1_555
C7 C1 1_555 1_555
O1 C7 1_555 1_555
O2 C7 1_555 1_555
Br1 C3 1_555 1_555
H5 O2 1_555 1_555
C8 N1 1_555 1_555
C9 H6 1_555 1_555
C10 C9 1_555 1_555
H7 C10 1_555 1_555
N1 C10 1_555 1_555
N2 C8 1_555 1_555
H8 N2 1_555 1_555
C10F C9 1_555 1_555
H7F C10F 1_555 1_555
N1F C8 1_555 1_555
H8F N2 1_555 1_555
C5 C6 1_555 1_555
C10F N1F 1_555 1_555

#END
