
#######################################################################
#
#                 Cambridge Crystallographic Data Centre
#                                CCDC 
#
#######################################################################
#
# If this CIF has been generated from an entry in the Cambridge 
# Structural Database, then it will include bibliographic, chemical, 
# crystal, experimental, refinement or atomic coordinate data resulting 
# from the CCDC's data processing and validation procedures.
#
#######################################################################

data_MOZCOU
_chemical_name_common            'Caffeine 3-hydroxybenzoic acid'
_chemical_formula_moiety         'C8 H10 N4 O2,C7 H6 O3'
_chemical_name_systematic        
'3-Hydroxybenzoic acid 1,3,7-trimethyl-3,7-dihydro-1H-purine-2,6-dione'
_symmetry_cell_setting           monoclinic
_symmetry_space_group_name_H-M   'P 21/c'
_symmetry_Int_Tables_number      14
_space_group_name_Hall           '-P 2ybc'
loop_
_symmetry_equiv_pos_site_id
_symmetry_equiv_pos_as_xyz
1 x,y,z
2 -x,1/2+y,1/2-z
3 -x,-y,-z
4 x,1/2-y,1/2+z
_cell_length_a                   7.687(3)
_cell_length_b                   6.948(3)
_cell_length_c                   28.098(11)
_cell_angle_alpha                90
_cell_angle_beta                 95.029(7)
_cell_angle_gamma                90
_cell_volume                     1494.92
_exptl_crystal_colour            colorless
_exptl_crystal_description       parallelepiped
_cell_formula_units_Z            4
_exptl_crystal_recrystallization_method acetonitrile
loop_
_atom_site_label
_atom_site_type_symbol
_atom_site_fract_x
_atom_site_fract_y
_atom_site_fract_z
O1 O -0.0094(2) -0.1832(2) 0.34293(5)
O2 O 0.2197(2) -0.0363(2) 0.49532(5)
N1 N 0.1472(2) 0.2054(2) 0.31378(6)
N2 N 0.0963(2) -0.1014(2) 0.41964(6)
N3 N 0.2609(2) 0.1826(2) 0.43768(6)
N4 N 0.2878(2) 0.3949(2) 0.36916(6)
C1 C 0.0771(3) 0.1332(3) 0.26706(7)
H1 H -0.0482 0.1328 0.2654
H2 H 0.1184 0.0045 0.2627
H3 H 0.1150 0.2148 0.2424
C2 C 0.1451(2) 0.1120(3) 0.35729(6)
C3 C 0.0697(2) -0.0676(3) 0.36966(7)
C4 C 0.0199(3) -0.2805(3) 0.43690(8)
H4 H 0.0892 -0.3884 0.4286
H5 H -0.0970 -0.2950 0.4223
H6 H 0.0178 -0.2745 0.4710
C5 C 0.1940(3) 0.0118(3) 0.45311(7)
C6 C 0.3673(3) 0.3032(3) 0.47200(7)
H7 H 0.4285 0.3979 0.4550
H8 H 0.4501 0.2239 0.4906
H9 H 0.2929 0.3664 0.4928
C7 C 0.2332(2) 0.2312(3) 0.39003(7)
C8 C 0.2325(3) 0.3715(3) 0.32279(7)
H10 H 0.2516 0.4616 0.2993
O3 O 0.4215(2) 0.7553(2) 0.30626(5)
O4 O 0.4741(2) 0.7284(2) 0.38575(5)
H11 H 0.414(4) 0.617(5) 0.3803(11)
O5 O 0.8276(2) 1.3118(2) 0.43792(6)
C9 C 0.4851(3) 0.8184(3) 0.34421(7)
C10 C 0.6586(2) 1.0691(3) 0.39270(7)
H12 H 0.6532 0.9935 0.4198
C11 C 0.5798(2) 1.0068(3) 0.34877(7)
C12 C 0.6713(3) 1.2970(3) 0.31166(7)
H13 H 0.6740 1.3741 0.2847
C13 C 0.5866(3) 1.1199(3) 0.30798(7)
H14 H 0.5350 1.0776 0.2787
C14 C 0.7519(3) 1.3603(3) 0.35501(7)
H15 H 0.8095 1.4781 0.3570
C15 C 0.7455(3) 1.2453(3) 0.39563(7)
H16 H 0.817(4) 1.226(5) 0.4602(12)
loop_
_geom_bond_atom_site_label_1
_geom_bond_atom_site_label_2
_geom_bond_site_symmetry_1
_geom_bond_site_symmetry_2
O1 C3 1_555 1_555
O2 C5 1_555 1_555
N1 C1 1_555 1_555
N2 C3 1_555 1_555
N3 C5 1_555 1_555
N4 C7 1_555 1_555
C1 H1 1_555 1_555
H2 C1 1_555 1_555
H3 C1 1_555 1_555
C2 N1 1_555 1_555
C3 C2 1_555 1_555
C4 N2 1_555 1_555
H4 C4 1_555 1_555
H5 C4 1_555 1_555
H6 C4 1_555 1_555
C5 N2 1_555 1_555
C6 N3 1_555 1_555
H7 C6 1_555 1_555
H8 C6 1_555 1_555
H9 C6 1_555 1_555
C7 N3 1_555 1_555
C8 N1 1_555 1_555
H10 C8 1_555 1_555
O3 C9 1_555 1_555
O4 H11 1_555 1_555
O5 C15 1_555 1_555
C9 O4 1_555 1_555
C10 H12 1_555 1_555
C11 C9 1_555 1_555
C12 H13 1_555 1_555
C13 C11 1_555 1_555
H14 C13 1_555 1_555
C14 C12 1_555 1_555
H15 C14 1_555 1_555
C15 C10 1_555 1_555
H16 O5 1_555 1_555
N4 C8 1_555 1_555
C2 C7 1_555 1_555
C10 C11 1_555 1_555
C12 C13 1_555 1_555
C14 C15 1_555 1_555

#END
