
#######################################################################
#
#                 Cambridge Crystallographic Data Centre
#                                CCDC 
#
#######################################################################
#
# If this CIF has been generated from an entry in the Cambridge 
# Structural Database, then it will include bibliographic, chemical, 
# crystal, experimental, refinement or atomic coordinate data resulting 
# from the CCDC's data processing and validation procedures.
#
#######################################################################

data_MOZCIO
_chemical_name_common            
'Caffeine 2,4-dihydroxybenzoic acid monohydrate'
_chemical_formula_moiety         'C8 H10 N4 O2,C7 H6 O4,H2 O1'
_chemical_name_systematic        
'2,4-Dihydroxybenzoic acid 1,3,7-trimethyl-3,7-dihydro-1H-purine-2,6-dione monohydrate'
_symmetry_cell_setting           triclinic
_symmetry_space_group_name_H-M   'P -1'
_symmetry_Int_Tables_number      2
_space_group_name_Hall           '-P 1'
loop_
_symmetry_equiv_pos_site_id
_symmetry_equiv_pos_as_xyz
1 x,y,z
2 -x,-y,-z
_cell_length_a                   7.201(3)
_cell_length_b                   8.620(4)
_cell_length_c                   13.822(6)
_cell_angle_alpha                90.258(7)
_cell_angle_beta                 101.078(7)
_cell_angle_gamma                106.517(7)
_cell_volume                     805.641
_exptl_crystal_colour            colorless
_exptl_crystal_description       needle
_cell_formula_units_Z            2
_exptl_crystal_recrystallization_method acetonitrile/water
loop_
_atom_site_label
_atom_site_type_symbol
_atom_site_fract_x
_atom_site_fract_y
_atom_site_fract_z
O1 O 0.8181(4) 1.1033(3) 0.53133(18)
H1 H 0.8374 1.0293 0.5651
O2 O 0.6518(4) 0.8951(3) 0.4215(2)
O3 O 0.4665(4) 0.9529(3) 0.2508(2)
H2 H 0.5035 0.8976 0.2943
O4 O 0.5188(4) 1.5038(3) 0.1866(2)
H3 H 0.4479 1.4606 0.1341
C1 C 0.7097(5) 1.0427(5) 0.4439(3)
C2 C 0.6633(5) 1.1634(5) 0.3759(3)
C3 C 0.5412(5) 1.1117(5) 0.2816(3)
C4 C 0.4936(5) 1.2238(5) 0.2167(3)
H4 H 0.4154 1.1885 0.1544
C5 C 0.5629(6) 1.3896(4) 0.2448(3)
C6 C 0.6870(5) 1.4426(4) 0.3385(3)
H5 H 0.7357 1.5527 0.3573
C7 C 0.7351(5) 1.3317(4) 0.4014(3)
H6 H 0.8174 1.3680 0.4626
O5 O 1.0638(4) 0.5225(3) 0.87713(18)
O6 O 1.2468(4) 1.0673(3) 0.9640(2)
N1 N 0.8399(4) 0.6057(4) 0.6806(2)
N2 N 1.1555(4) 0.7963(4) 0.9202(2)
N3 N 1.0763(5) 0.9868(3) 0.8074(2)
N4 N 0.8740(5) 0.8649(4) 0.6470(2)
C8 C 0.7723(6) 0.4281(4) 0.6696(3)
H7 H 0.6625 0.3937 0.6148
H8 H 0.7319 0.3860 0.7288
H9 H 0.8783 0.3883 0.6579
C9 C 0.9560(5) 0.7010(4) 0.7635(2)
C10 C 1.0569(5) 0.6595(4) 0.8549(3)
C11 C 1.2578(6) 0.7673(5) 1.0182(3)
H10 H 1.3779 0.7438 1.0124
H11 H 1.1738 0.6771 1.0444
H12 H 1.2884 0.8622 1.0617
C12 C 1.1636(6) 0.9567(4) 0.9005(3)
C13 C 1.0903(7) 1.1550(4) 0.7825(3)
H13 H 1.0787 1.1624 0.7124
H14 H 1.2156 1.2253 0.8159
H15 H 0.9856 1.1868 0.8029
C14 C 0.9720(5) 0.8574(4) 0.7409(2)
C15 C 0.7952(5) 0.7091(4) 0.6140(3)
H16 H 0.7175 0.6760 0.5514
O7 O 0.2702(5) 1.3757(4) 0.0222(2)
H17 H 0.253(7) 1.287(6) -0.003(3)
H18 H 0.236(9) 1.428(7) -0.020(5)
loop_
_geom_bond_atom_site_label_1
_geom_bond_atom_site_label_2
_geom_bond_site_symmetry_1
_geom_bond_site_symmetry_2
O1 H1 1_555 1_555
O2 C1 1_555 1_555
O3 H2 1_555 1_555
O4 H3 1_555 1_555
C1 O1 1_555 1_555
C2 C1 1_555 1_555
C3 O3 1_555 1_555
C4 C3 1_555 1_555
H4 C4 1_555 1_555
C5 O4 1_555 1_555
C6 C5 1_555 1_555
H5 C6 1_555 1_555
C7 C2 1_555 1_555
H6 C7 1_555 1_555
O5 C10 1_555 1_555
O6 C12 1_555 1_555
N1 C8 1_555 1_555
N2 C10 1_555 1_555
N3 C12 1_555 1_555
N4 C14 1_555 1_555
C8 H7 1_555 1_555
H8 C8 1_555 1_555
H9 C8 1_555 1_555
C9 N1 1_555 1_555
C10 C9 1_555 1_555
C11 N2 1_555 1_555
H10 C11 1_555 1_555
H11 C11 1_555 1_555
H12 C11 1_555 1_555
C12 N2 1_555 1_555
C13 N3 1_555 1_555
H13 C13 1_555 1_555
H14 C13 1_555 1_555
H15 C13 1_555 1_555
C14 N3 1_555 1_555
C15 N1 1_555 1_555
H16 C15 1_555 1_555
O7 H17 1_555 1_555
H18 O7 1_555 1_555
C2 C3 1_555 1_555
C4 C5 1_555 1_555
C6 C7 1_555 1_555
N4 C15 1_555 1_555
C9 C14 1_555 1_555

#END
