
#######################################################################
#
#                 Cambridge Crystallographic Data Centre
#                                CCDC 
#
#######################################################################
#
# If this CIF has been generated from an entry in the Cambridge 
# Structural Database, then it will include bibliographic, chemical, 
# crystal, experimental, refinement or atomic coordinate data resulting 
# from the CCDC's data processing and validation procedures.
#
#######################################################################

data_MOZCUA
_chemical_name_common            'bis(Caffeine) 4-hydroxybenzoic acid'
_chemical_formula_moiety         '2(C8 H10 N4 O2),C7 H6 O3'
_chemical_name_systematic        
'4-Hydroxybenzoic acid bis(1,3,7-trimethyl-3,7-dihydro-1H-purine-2,6-dione)'
_symmetry_cell_setting           monoclinic
_symmetry_space_group_name_H-M   'P 21/n'
_symmetry_Int_Tables_number      14
_space_group_name_Hall           '-P 2yn'
loop_
_symmetry_equiv_pos_site_id
_symmetry_equiv_pos_as_xyz
1 x,y,z
2 1/2-x,1/2+y,1/2-z
3 -x,-y,-z
4 1/2+x,1/2-y,1/2+z
_cell_length_a                   9.938(4)
_cell_length_b                   16.537(6)
_cell_length_c                   14.758(6)
_cell_angle_alpha                90
_cell_angle_beta                 101.096(6)
_cell_angle_gamma                90
_cell_volume                     2380.06
_exptl_crystal_colour            colorless
_exptl_crystal_description       parallelepiped
_cell_formula_units_Z            4
_exptl_crystal_recrystallization_method acetonitrile
loop_
_atom_site_label
_atom_site_type_symbol
_atom_site_fract_x
_atom_site_fract_y
_atom_site_fract_z
O1 O 0.11193(11) 0.83205(5) 0.24986(7)
O2 O 0.0288(6) 0.6221(4) 0.0457(4)
N1 N 0.0826(3) 0.51173(15) 0.21372(16)
N2 N 0.1341(6) 0.5649(3) 0.3559(4)
N3 N 0.07250(11) 0.72753(6) 0.14863(7)
N4 N 0.12533(11) 0.70628(6) 0.30902(7)
C1 C 0.0568(2) 0.45118(10) 0.14175(13)
H1 H 0.0835 0.3990 0.1676
H2 H 0.1088 0.4637 0.0951
H3 H -0.0392 0.4506 0.1147
C2 C 0.11356(18) 0.49863(10) 0.30433(12)
H4 H 0.1203 0.4469 0.3296
C3 C 0.08259(13) 0.59511(7) 0.20579(9)
C4 C 0.11475(13) 0.62409(7) 0.29428(9)
C5 C 0.05936(13) 0.64493(8) 0.12746(9)
C6 C 0.04752(16) 0.78500(8) 0.07234(9)
H5 H 0.1214 0.8233 0.0794
H6 H -0.0371 0.8130 0.0724
H7 H 0.0418 0.7565 0.0150
C7 C 0.10389(13) 0.75914(7) 0.23655(8)
C8 C 0.16266(17) 0.73783(9) 0.40257(9)
H8 H 0.0814 0.7550 0.4233
H9 H 0.2235 0.7830 0.4032
H10 H 0.2076 0.6963 0.4429
O3 O 0.27169(10) 0.27123(6) 0.88408(7)
O4 O 0.26327(11) 0.54024(5) 0.81691(7)
N5 N 0.19236(12) 0.48858(6) 0.61431(7)
N6 N 0.17469(12) 0.35809(7) 0.57747(8)
N7 N 0.26554(11) 0.40490(6) 0.84930(7)
N8 N 0.22219(11) 0.30502(6) 0.73326(7)
C9 C 0.19535(16) 0.57573(8) 0.60295(10)
H11 H 0.1823 0.5886 0.5384
H12 H 0.2824 0.5963 0.6341
H13 H 0.1234 0.5999 0.6289
C10 C 0.16920(15) 0.43410(8) 0.54712(9)
H14 H 0.1509 0.4477 0.4848
C11 C 0.21493(13) 0.44545(7) 0.69564(8)
C12 C 0.20377(13) 0.36636(7) 0.66999(9)
C13 C 0.22332(16) 0.22050(7) 0.70579(10)
H15 H 0.1466 0.1930 0.7225
H16 H 0.3069 0.1956 0.7365
H17 H 0.2172 0.2172 0.6402
C14 C 0.25424(13) 0.32338(7) 0.82546(9)
C15 C 0.30440(16) 0.42187(9) 0.94769(9)
H18 H 0.3888 0.3946 0.9724
H19 H 0.2336 0.4031 0.9786
H20 H 0.3164 0.4791 0.9569
C16 C 0.24919(13) 0.47099(7) 0.78872(8)
H21 H 0.064(2) -0.0766(14) 0.1849(15)
H22 H 0.140(2) 0.2764(13) 0.4998(14)
O5 O 0.13139(12) 0.22768(6) 0.46782(7)
O6 O 0.09075(11) 0.31102(6) 0.34790(8)
O7 O 0.04394(12) -0.03112(6) 0.15336(8)
C17 C 0.08757(12) 0.16962(7) 0.32097(9)
C18 C 0.09268(13) 0.02528(7) 0.30535(10)
H23 H 0.1051 -0.0258 0.3321
C19 C 0.10239(13) 0.24320(7) 0.37893(9)
C20 C 0.05953(13) 0.03327(7) 0.21026(10)
C21 C 0.05422(13) 0.17686(7) 0.22603(9)
H24 H 0.0412 0.2279 0.1993
C22 C 0.10719(13) 0.09324(7) 0.36008(9)
H25 H 0.1304 0.0879 0.4239
C23 C 0.04013(14) 0.10922(8) 0.17062(10)
H26 H 0.0177 0.1146 0.1068
C24? C 0.0811(7) 0.4435(4) 0.2255(5)
C25? C 0.0393(7) 0.5312(4) 0.0856(4)
H27? H 0.1762 0.4319 0.2483
H28? H 0.0426 0.4026 0.1819
H29? H 0.0330 0.4440 0.2760
H30? H 0.0262 0.4873 0.0456
N9? N 0.0671(10) 0.5233(6) 0.1792(7)
N10? N 0.032(2) 0.6126(15) 0.0545(16)
O8? O 0.134(2) 0.5824(9) 0.3740(12)
loop_
_geom_bond_atom_site_label_1
_geom_bond_atom_site_label_2
_geom_bond_site_symmetry_1
_geom_bond_site_symmetry_2
O1 C7 1_555 1_555
O2 C5 1_555 1_555
N1 C1 1_555 1_555
N2 C2 1_555 1_555
N3 C5 1_555 1_555
N4 C4 1_555 1_555
C1 H1 1_555 1_555
H2 C1 1_555 1_555
H3 C1 1_555 1_555
C2 N1 1_555 1_555
H4 C2 1_555 1_555
C3 N1 1_555 1_555
C4 N2 1_555 1_555
C5 C3 1_555 1_555
C6 N3 1_555 1_555
H5 C6 1_555 1_555
H6 C6 1_555 1_555
H7 C6 1_555 1_555
C7 N3 1_555 1_555
C8 N4 1_555 1_555
H8 C8 1_555 1_555
H9 C8 1_555 1_555
H10 C8 1_555 1_555
O3 C14 1_555 1_555
O4 C16 1_555 1_555
N5 C9 1_555 1_555
N6 C10 1_555 1_555
N7 C14 1_555 1_555
N8 C12 1_555 1_555
C9 H11 1_555 1_555
H12 C9 1_555 1_555
H13 C9 1_555 1_555
C10 N5 1_555 1_555
H14 C10 1_555 1_555
C11 N5 1_555 1_555
C12 N6 1_555 1_555
C13 N8 1_555 1_555
H15 C13 1_555 1_555
H16 C13 1_555 1_555
H17 C13 1_555 1_555
C14 N8 1_555 1_555
C15 N7 1_555 1_555
H18 C15 1_555 1_555
H19 C15 1_555 1_555
H20 C15 1_555 1_555
C16 N7 1_555 1_555
H21 O7 1_555 1_555
H22 O5 1_555 1_555
O5 C19 1_555 1_555
O6 C19 1_555 1_555
O7 C20 1_555 1_555
C17 C19 1_555 1_555
C18 H23 1_555 1_555
C20 C18 1_555 1_555
C21 C17 1_555 1_555
H24 C21 1_555 1_555
C22 C17 1_555 1_555
H25 C22 1_555 1_555
C23 C20 1_555 1_555
H26 C23 1_555 1_555
N4 C7 1_555 1_555
C3 C4 1_555 1_555
C11 C12 1_555 1_555
C11 C16 1_555 1_555
C18 C22 1_555 1_555
C21 C23 1_555 1_555

#END
