
#######################################################################
#
#                 Cambridge Crystallographic Data Centre
#                                CCDC 
#
#######################################################################
#
# If this CIF has been generated from an entry in the Cambridge 
# Structural Database, then it will include bibliographic, chemical, 
# crystal, experimental, refinement or atomic coordinate data resulting 
# from the CCDC's data processing and validation procedures.
#
#######################################################################

data_MOZDIP
_chemical_name_common            'Caffeine 2,5-dihydroxybenzoic acid'
_chemical_formula_moiety         'C8 H10 N4 O2,C7 H6 O4'
_chemical_name_systematic        
'2,5-Dihydroxybenzoic acid 1,3,7-trimethyl-3,7-dihydro-1H-purine-2,6-dione'
_symmetry_cell_setting           monoclinic
_symmetry_space_group_name_H-M   'P 21/c'
_symmetry_Int_Tables_number      14
_space_group_name_Hall           '-P 2ybc'
loop_
_symmetry_equiv_pos_site_id
_symmetry_equiv_pos_as_xyz
1 x,y,z
2 -x,1/2+y,1/2-z
3 -x,-y,-z
4 x,1/2-y,1/2+z
_cell_length_a                   15.703(6)
_cell_length_b                   6.818(3)
_cell_length_c                   16.215(6)
_cell_angle_alpha                90
_cell_angle_beta                 117.349(5)
_cell_angle_gamma                90
_cell_volume                     1541.98
_exptl_crystal_colour            colorless
_exptl_crystal_description       rod
_cell_formula_units_Z            4
_exptl_crystal_recrystallization_method acetonitrile
loop_
_atom_site_label
_atom_site_type_symbol
_atom_site_fract_x
_atom_site_fract_y
_atom_site_fract_z
O1 O -0.09879(15) 0.3102(4) -0.03011(15)
H1 H -0.0425 0.2755 -0.0060
O2 O -0.07661(17) 0.3277(4) -0.15536(17)
O3 O -0.21628(18) 0.4393(4) -0.31073(17)
H2 H -0.1613 0.4056 -0.2755
O4 O -0.43194(17) 0.4890(5) -0.12459(17)
H3 H -0.4870 0.5216 -0.1603
C1 C -0.1275(2) 0.3471(5) -0.1177(2)
C2 C -0.2283(2) 0.4113(5) -0.1685(2)
C3 C -0.2674(2) 0.4519(5) -0.2632(2)
C4 C -0.3627(2) 0.5076(5) -0.3106(2)
H4 H -0.3893 0.5366 -0.3736
C5 C -0.4179(2) 0.5204(5) -0.2659(2)
H5 H -0.4820 0.5571 -0.2988
C6 C -0.3792(2) 0.4791(5) -0.1716(2)
C7 C -0.2849(2) 0.4273(5) -0.1235(2)
H6 H -0.2584 0.4025 -0.0601
O5 O 0.38329(15) -0.0134(4) 0.25049(16)
O6 O 0.17003(19) 0.0741(4) 0.36512(17)
N1 N 0.22135(18) 0.1125(4) 0.06405(18)
N2 N 0.27520(19) 0.0311(4) 0.30702(18)
N3 N 0.11707(18) 0.1361(4) 0.21258(18)
N4 N 0.07993(18) 0.1968(4) 0.05287(18)
C8 C 0.2968(2) 0.0757(6) 0.0378(2)
H7 H 0.2718 0.0927 -0.0281
H8 H 0.3199 -0.0561 0.0544
H9 H 0.3485 0.1662 0.0696
C9 C 0.2261(2) 0.0860(5) 0.1501(2)
C10 C 0.3018(2) 0.0298(5) 0.2361(2)
C11 C 0.3478(3) -0.0252(6) 0.3996(2)
H10 H 0.3802 0.0899 0.4336
H11 H 0.3932 -0.1120 0.3945
H12 H 0.3175 -0.0906 0.4317
C12 C 0.1852(2) 0.0800(5) 0.2989(2)
C13 C 0.0215(2) 0.1901(6) 0.1984(2)
H13 H 0.0057 0.3185 0.1712
H14 H 0.0202 0.1905 0.2570
H15 H -0.0243 0.0969 0.1576
C14 C 0.1386(2) 0.1392(5) 0.1404(2)
C15 C 0.1337(2) 0.1794(5) 0.0094(2)
H16 H 0.1122 0.2108 -0.0528
loop_
_geom_bond_atom_site_label_1
_geom_bond_atom_site_label_2
_geom_bond_site_symmetry_1
_geom_bond_site_symmetry_2
O1 H1 1_555 1_555
O2 C1 1_555 1_555
O3 H2 1_555 1_555
O4 H3 1_555 1_555
C1 O1 1_555 1_555
C2 C1 1_555 1_555
C3 O3 1_555 1_555
C4 C3 1_555 1_555
H4 C4 1_555 1_555
C5 C4 1_555 1_555
H5 C5 1_555 1_555
C6 O4 1_555 1_555
C7 C2 1_555 1_555
H6 C7 1_555 1_555
O5 C10 1_555 1_555
O6 C12 1_555 1_555
N1 C8 1_555 1_555
N2 C10 1_555 1_555
N3 C12 1_555 1_555
N4 C14 1_555 1_555
C8 H7 1_555 1_555
H8 C8 1_555 1_555
H9 C8 1_555 1_555
C9 N1 1_555 1_555
C10 C9 1_555 1_555
C11 N2 1_555 1_555
H10 C11 1_555 1_555
H11 C11 1_555 1_555
H12 C11 1_555 1_555
C12 N2 1_555 1_555
C13 N3 1_555 1_555
H13 C13 1_555 1_555
H14 C13 1_555 1_555
H15 C13 1_555 1_555
C14 N3 1_555 1_555
C15 N1 1_555 1_555
H16 C15 1_555 1_555
C2 C3 1_555 1_555
C5 C6 1_555 1_555
C6 C7 1_555 1_555
N4 C15 1_555 1_555
C9 C14 1_555 1_555

#END
