
#######################################################################
#
#                 Cambridge Crystallographic Data Centre
#                                CCDC 
#
#######################################################################
#
# If this CIF has been generated from an entry in the Cambridge 
# Structural Database, then it will include bibliographic, chemical, 
# crystal, experimental, refinement or atomic coordinate data resulting 
# from the CCDC's data processing and validation procedures.
#
#######################################################################

data_MOZHAM
_chemical_formula_moiety         'C12 H9 N4 O1 1+,F6 P1 1-,0.5(H2 O1)'
_chemical_name_systematic        
'4-[5-(pyridin-4-yl)-1,3,4-oxadiazol-2-yl]pyridinium hexafluorophosphate hemihydrate'
_symmetry_cell_setting           triclinic
_symmetry_space_group_name_H-M   'P -1'
_symmetry_Int_Tables_number      2
_space_group_name_Hall           '-P 1'
loop_
_symmetry_equiv_pos_site_id
_symmetry_equiv_pos_as_xyz
1 x,y,z
2 -x,-y,-z
_cell_length_a                   10.491(2)
_cell_length_b                   10.784(2)
_cell_length_c                   14.359(3)
_cell_angle_alpha                73.30(3)
_cell_angle_beta                 76.73(3)
_cell_angle_gamma                80.13(3)
_cell_volume                     1504.72
_exptl_crystal_colour            colorless
_exptl_crystal_description       rod
_cell_formula_units_Z            4
loop_
_atom_site_label
_atom_site_type_symbol
_atom_site_fract_x
_atom_site_fract_y
_atom_site_fract_z
C1 C 0.5443(5) -0.0397(4) 0.3014(4)
H1 H 0.5804 -0.0655 0.3583
C2 C 0.4794(6) -0.1238(5) 0.2770(4)
H2 H 0.4733 -0.2074 0.3184
N1 N 0.4257(4) -0.0898(4) 0.1971(3)
C3 C 0.4355(5) 0.0295(5) 0.1360(4)
H3 H 0.3973 0.0530 0.0801
C4 C 0.5003(4) 0.1176(5) 0.1535(3)
H4 H 0.5083 0.1990 0.1090
C5 C 0.5540(4) 0.0846(4) 0.2382(3)
C6 C 0.6148(4) 0.1811(4) 0.2620(3)
N2 N 0.6160(4) 0.3031(4) 0.2190(3)
N3 N 0.6745(4) 0.3542(3) 0.2757(3)
C7 C 0.7041(4) 0.2575(4) 0.3474(3)
O1 O 0.6691(3) 0.1440(3) 0.3441(2)
C8 C 0.7647(4) 0.2580(4) 0.4290(3)
C9 C 0.8053(5) 0.1445(5) 0.4942(4)
H5 H 0.7960 0.0637 0.4869
C10 C 0.8598(6) 0.1530(5) 0.5702(4)
H6 H 0.8862 0.0768 0.6150
N4 N 0.8756(4) 0.2661(5) 0.5814(3)
H7 H 0.9092 0.2688 0.6299
C11 C 0.8405(6) 0.3739(5) 0.5191(4)
H8 H 0.8550 0.4527 0.5269
C12 C 0.7829(6) 0.3747(5) 0.4425(4)
H9 H 0.7563 0.4532 0.4001
C13 C 0.7707(5) 0.3203(4) -0.0272(3)
H10 H 0.8219 0.2952 0.0215
C14 C 0.7531(5) 0.2321(5) -0.0751(4)
H11 H 0.7932 0.1469 -0.0582
N5 N 0.6801(4) 0.2660(4) -0.1449(3)
H12 H 0.6676 0.2088 -0.1720
C15 C 0.6263(5) 0.3889(5) -0.1727(4)
H13 H 0.5781 0.4120 -0.2232
C16 C 0.6400(5) 0.4822(5) -0.1291(3)
H14 H 0.6025 0.5676 -0.1500
C17 C 0.7111(4) 0.4464(4) -0.0530(3)
C18 C 0.7150(4) 0.5411(4) 0.0006(3)
N6 N 0.6334(4) 0.6444(4) 0.0062(3)
N7 N 0.6734(4) 0.7001(4) 0.0700(3)
C19 C 0.7766(4) 0.6269(4) 0.0961(3)
O2 O 0.8090(3) 0.5229(3) 0.0563(2)
C20 C 0.8559(4) 0.6437(4) 0.1623(3)
C21 C 0.9485(5) 0.5461(4) 0.2014(3)
H15 H 0.9625 0.4660 0.1863
C22 C 1.0189(5) 0.5699(5) 0.2626(3)
H16 H 1.0822 0.5053 0.2878
N8 N 0.9994(4) 0.6842(4) 0.2877(3)
C23 C 0.9101(5) 0.7768(5) 0.2502(4)
H17 H 0.8961 0.8553 0.2678
C24 C 0.8375(5) 0.7616(5) 0.1866(3)
H18 H 0.7773 0.8291 0.1605
P1 P 0.04102(14) 0.13066(13) 0.16327(10)
F1 F 0.1647(4) 0.1803(4) 0.1759(4)
F2 F -0.0823(4) 0.0801(4) 0.1470(4)
F3 F 0.1018(4) -0.0151(4) 0.2045(4)
F4 F 0.1171(7) 0.1103(6) 0.0598(4)
F5 F -0.0232(12) 0.155(2) 0.2621(10)
F6 F -0.036(2) 0.2687(10) 0.1391(18)
O3 O 0.4942(13) 0.5782(12) 0.3922(10)
H19 H 0.5603 0.6043 0.4027
H20 H 0.5204 0.5168 0.3637
P2 P 0.28007(16) 0.25769(16) 0.45435(12)
F9 F 0.2173(5) 0.1454(3) 0.5398(3)
F10 F 0.2885(6) 0.3213(4) 0.5393(4)
F11 F 0.3428(7) 0.3734(7) 0.3758(4)
F12 F 0.1455(4) 0.3379(4) 0.4467(4)
F13 F 0.3006(19) 0.1997(16) 0.3691(9)
F14 F 0.4300(11) 0.209(2) 0.4685(10)
F7? F -0.025(3) 0.073(3) 0.2804(14)
F8? F 0.0241(17) 0.263(2) 0.0848(14)
F15? F 0.206(4) 0.186(3) 0.395(2)
F16? F 0.389(2) 0.1388(19) 0.4629(16)
loop_
_geom_bond_atom_site_label_1
_geom_bond_atom_site_label_2
_geom_bond_site_symmetry_1
_geom_bond_site_symmetry_2
C1 H1 1_555 1_555
C2 C1 1_555 1_555
H2 C2 1_555 1_555
N1 C2 1_555 1_555
C3 N1 1_555 1_555
H3 C3 1_555 1_555
C4 C3 1_555 1_555
H4 C4 1_555 1_555
C5 C1 1_555 1_555
C6 C5 1_555 1_555
N2 C6 1_555 1_555
N3 N2 1_555 1_555
C7 N3 1_555 1_555
O1 C6 1_555 1_555
C8 C7 1_555 1_555
C9 C8 1_555 1_555
H5 C9 1_555 1_555
C10 C9 1_555 1_555
H6 C10 1_555 1_555
N4 C10 1_555 1_555
H7 N4 1_555 1_555
C11 N4 1_555 1_555
H8 C11 1_555 1_555
C12 C8 1_555 1_555
H9 C12 1_555 1_555
C13 H10 1_555 1_555
C14 C13 1_555 1_555
H11 C14 1_555 1_555
N5 C14 1_555 1_555
H12 N5 1_555 1_555
C15 N5 1_555 1_555
H13 C15 1_555 1_555
C16 C15 1_555 1_555
H14 C16 1_555 1_555
C17 C13 1_555 1_555
C18 C17 1_555 1_555
N6 C18 1_555 1_555
N7 N6 1_555 1_555
C19 N7 1_555 1_555
O2 C18 1_555 1_555
C20 C19 1_555 1_555
C21 C20 1_555 1_555
H15 C21 1_555 1_555
C22 C21 1_555 1_555
H16 C22 1_555 1_555
N8 C22 1_555 1_555
C23 N8 1_555 1_555
H17 C23 1_555 1_555
C24 C20 1_555 1_555
H18 C24 1_555 1_555
P1 F1 1_555 1_555
F2 P1 1_555 1_555
F3 P1 1_555 1_555
F4 P1 1_555 1_555
F5 P1 1_555 1_555
F6 P1 1_555 1_555
O3 H19 1_555 1_555
H20 O3 1_555 1_555
P2 F9 1_555 1_555
F10 P2 1_555 1_555
F11 P2 1_555 1_555
F12 P2 1_555 1_555
F13 P2 1_555 1_555
F14 P2 1_555 1_555
C4 C5 1_555 1_555
C7 O1 1_555 1_555
C11 C12 1_555 1_555
C16 C17 1_555 1_555
C19 O2 1_555 1_555
C23 C24 1_555 1_555

#END
