
#######################################################################
#
#                 Cambridge Crystallographic Data Centre
#                                CCDC 
#
#######################################################################
#
# If this CIF has been generated from an entry in the Cambridge 
# Structural Database, then it will include bibliographic, chemical, 
# crystal, experimental, refinement or atomic coordinate data resulting 
# from the CCDC's data processing and validation procedures.
#
#######################################################################

data_MOZHEQ
_chemical_formula_moiety         'C12 H10 N4 O1 2+,2(B1 F4 1-),H2 O1'
_chemical_name_systematic        
"4,4'-(1,3,4-oxadiazole-2,5-diyl)dipyridinium bis(tetrafluoroborate) monohydrate"
_symmetry_cell_setting           monoclinic
_symmetry_space_group_name_H-M   'P 21/n'
_symmetry_Int_Tables_number      14
_space_group_name_Hall           '-P 2yn'
loop_
_symmetry_equiv_pos_site_id
_symmetry_equiv_pos_as_xyz
1 x,y,z
2 1/2-x,1/2+y,1/2-z
3 -x,-y,-z
4 1/2+x,1/2-y,1/2+z
_cell_length_a                   5.4030(11)
_cell_length_b                   19.358(4)
_cell_length_c                   16.265(3)
_cell_angle_alpha                90
_cell_angle_beta                 95.94(3)
_cell_angle_gamma                90
_cell_volume                     1692.04
_exptl_crystal_colour            colorless
_exptl_crystal_description       rodlike
_cell_formula_units_Z            4
loop_
_atom_site_label
_atom_site_type_symbol
_atom_site_fract_x
_atom_site_fract_y
_atom_site_fract_z
C1 C 0.4739(9) 0.2037(2) 0.9921(3)
H1 H 0.3568 0.2252 0.9547
C2 C 0.4459(9) 0.1355(3) 1.0139(3)
H2 H 0.3099 0.1102 0.9907
N1 N 0.6158(8) 0.1061(2) 1.0687(2)
H3 H 0.5954 0.0635 1.0813
C3 C 0.8152(10) 0.1392(2) 1.1047(3)
H4 H 0.9270 0.1166 1.1429
C4 C 0.8527(9) 0.2067(2) 1.0845(3)
H5 H 0.9911 0.2306 1.1086
C5 C 0.6809(8) 0.2393(2) 1.0275(3)
C6 C 0.7274(8) 0.3109(2) 1.0046(3)
N2 N 0.9223(7) 0.34744(19) 1.0261(2)
N3 N 0.8804(8) 0.41143(19) 0.9867(2)
O1 O 0.5539(5) 0.34495(14) 0.95398(17)
C7 C 0.6632(8) 0.4074(2) 0.9458(3)
C8 C 0.5350(8) 0.4604(2) 0.8950(3)
C9 C 0.3148(9) 0.4457(3) 0.8449(3)
H6 H 0.2474 0.4015 0.8432
C10 C 0.2003(9) 0.4982(3) 0.7984(3)
H7 H 0.0545 0.4895 0.7643
N4 N 0.2981(8) 0.5616(2) 0.8019(2)
H8 H 0.2229 0.5938 0.7727
C11 C 0.5078(10) 0.5768(3) 0.8489(3)
H9 H 0.5712 0.6215 0.8491
C12 C 0.6293(9) 0.5271(2) 0.8965(3)
H10 H 0.7747 0.5378 0.9298
B1 B 0.8651(11) 0.0440(3) 0.8763(4)
F1 F 1.0945(7) 0.01445(18) 0.8760(3)
F2 F 0.7049(7) 0.00681(19) 0.9183(3)
F3 F 0.9037(7) 0.10552(19) 0.9155(3)
F4 F 0.771(3) 0.0689(6) 0.8009(9)
O2 O 0.6168(9) 0.8304(2) 0.2183(3)
H11 H 0.4688 0.8458 0.1857
H12 H 0.5920 0.7844 0.2378
B2 B 0.1165(15) 0.7056(4) 0.2330(5)
F6 F 0.1303(8) 0.7541(2) 0.2932(2)
F7 F 0.1309(12) 0.6425(2) 0.2650(3)
F8 F -0.069(2) 0.7104(4) 0.1744(6)
F9 F 0.277(2) 0.7205(6) 0.1812(7)
F5? F 0.777(3) 0.0362(12) 0.8010(8)
F10? F 0.368(3) 0.6935(13) 0.2300(11)
F11? F -0.151(3) 0.7021(10) 0.2293(13)
loop_
_geom_bond_atom_site_label_1
_geom_bond_atom_site_label_2
_geom_bond_site_symmetry_1
_geom_bond_site_symmetry_2
C1 H1 1_555 1_555
C2 C1 1_555 1_555
H2 C2 1_555 1_555
N1 C2 1_555 1_555
H3 N1 1_555 1_555
C3 N1 1_555 1_555
H4 C3 1_555 1_555
C4 C3 1_555 1_555
H5 C4 1_555 1_555
C5 C1 1_555 1_555
C6 C5 1_555 1_555
N2 C6 1_555 1_555
N3 N2 1_555 1_555
O1 C6 1_555 1_555
C7 N3 1_555 1_555
C8 C7 1_555 1_555
C9 C8 1_555 1_555
H6 C9 1_555 1_555
C10 C9 1_555 1_555
H7 C10 1_555 1_555
N4 C10 1_555 1_555
H8 N4 1_555 1_555
C11 N4 1_555 1_555
H9 C11 1_555 1_555
C12 C8 1_555 1_555
H10 C12 1_555 1_555
B1 F1 1_555 1_555
F2 B1 1_555 1_555
F3 B1 1_555 1_555
F4 B1 1_555 1_555
O2 H11 1_555 1_555
H12 O2 1_555 1_555
B2 F6 1_555 1_555
F7 B2 1_555 1_555
F8 B2 1_555 1_555
F9 B2 1_555 1_555
C4 C5 1_555 1_555
O1 C7 1_555 1_555
C11 C12 1_555 1_555

#END
