
#######################################################################
#
#                 Cambridge Crystallographic Data Centre
#                                CCDC 
#
#######################################################################
#
# If this CIF has been generated from an entry in the Cambridge 
# Structural Database, then it will include bibliographic, chemical, 
# crystal, experimental, refinement or atomic coordinate data resulting 
# from the CCDC's data processing and validation procedures.
#
#######################################################################

data_MOZJOC
_chemical_formula_moiety         'C14 H17 N3 O5,C1 H4 O1'
_chemical_name_systematic        
'6,7-dihydroxy-6-(hydroxymethyl)-5-methyl-2-phenyltetrahydro-1H-[1,2,4]triazolo[1,2-a]pyridazine-1,3(2H)-dione methanol solvate'
_symmetry_cell_setting           monoclinic
_symmetry_space_group_name_H-M   'P 21/c'
_symmetry_Int_Tables_number      14
_space_group_name_Hall           '-P 2ybc'
loop_
_symmetry_equiv_pos_site_id
_symmetry_equiv_pos_as_xyz
1 x,y,z
2 -x,1/2+y,1/2-z
3 -x,-y,-z
4 x,1/2-y,1/2+z
_cell_length_a                   10.1672(17)
_cell_length_b                   6.8153(14)
_cell_length_c                   22.813(5)
_cell_angle_alpha                90
_cell_angle_beta                 93.975(7)
_cell_angle_gamma                90
_cell_volume                     1576.97
_exptl_crystal_description       prism
_cell_formula_units_Z            4
loop_
_atom_site_label
_atom_site_type_symbol
_atom_site_fract_x
_atom_site_fract_y
_atom_site_fract_z
O1 O 0.81594(17) 0.8483(3) 0.55372(8)
H1 H 0.879(3) 0.843(5) 0.5777(13)
C1 C 0.8438(3) 0.7429(5) 0.50226(13)
H2 H 0.9095(13) 0.8119(14) 0.4821(4)
H3 H 0.8758(17) 0.6145(10) 0.51301(14)
H4 H 0.7648(5) 0.731(2) 0.4769(4)
O2 O 0.53327(16) 0.6373(3) 0.42693(8)
H5 H 0.487(3) 0.743(4) 0.4243(12)
O3 O 0.52446(15) 0.4189(3) 0.32030(7)
H6 H 0.578(3) 0.512(4) 0.3224(11)
O4 O 0.42313(16) 0.0274(2) 0.41477(7)
H7 H 0.347(2) 0.061(4) 0.4284(11)
O5 O 0.94680(15) 0.2171(2) 0.38386(7)
O6 O 0.71353(15) -0.3068(3) 0.30304(7)
N1 N 0.72610(17) 0.1568(3) 0.36101(8)
N2 N 0.86549(18) -0.0730(3) 0.34008(8)
N3 N 0.65457(18) -0.0155(3) 0.34622(8)
C2 C 0.4540(2) 0.4641(4) 0.41823(10)
H8 H 0.4443(2) 0.3990(4) 0.45550(10)
H9 H 0.3670(2) 0.4984(4) 0.40117(10)
C3 C 0.5229(2) 0.3298(3) 0.37713(10)
C4 C 0.6662(2) 0.2920(4) 0.40180(10)
H10 H 0.7136(2) 0.4169(4) 0.40021(10)
C5 C 0.8566(2) 0.1135(4) 0.36361(10)
C6 C 0.9863(2) -0.1668(3) 0.32707(10)
C7 C 1.0118(2) -0.3537(4) 0.34734(10)
H11 H 0.9531(2) -0.4168(4) 0.37055(10)
C8 C 1.1264(2) -0.4472(4) 0.33268(10)
H12 H 1.1443(2) -0.5743(4) 0.34578(10)
C9 C 1.2137(2) -0.3518(4) 0.29867(10)
H13 H 1.2904(2) -0.4147(4) 0.28898(10)
C10 C 0.4457(2) 0.1385(4) 0.36336(10)
H14 H 0.3599(2) 0.1731(4) 0.34383(10)
C11 C 0.5189(2) 0.0123(4) 0.32181(10)
H15 H 0.5189(2) 0.0753(4) 0.28370(10)
H16 H 0.4755(2) -0.1140(4) 0.31671(10)
C12 C 0.7404(2) -0.1504(4) 0.32692(10)
C13 C 1.1874(2) -0.1631(4) 0.27901(10)
H17 H 1.2468(2) -0.0989(4) 0.25646(10)
C14 C 1.0727(2) -0.0694(4) 0.29277(10)
H18 H 1.0540(2) 0.0569(4) 0.27921(10)
C15 C 0.6837(2) 0.2187(4) 0.46487(10)
H19 H 0.6344(12) 0.0997(12) 0.46859(18)
H20 H 0.7754(3) 0.194(2) 0.4750(2)
H21 H 0.6523(14) 0.3164(9) 0.49081(12)
loop_
_geom_bond_atom_site_label_1
_geom_bond_atom_site_label_2
_geom_bond_site_symmetry_1
_geom_bond_site_symmetry_2
O1 H1 1_555 1_555
C1 O1 1_555 1_555
H2 C1 1_555 1_555
H3 C1 1_555 1_555
H4 C1 1_555 1_555
O2 H5 1_555 1_555
O3 H6 1_555 1_555
O4 H7 1_555 1_555
O5 C5 1_555 1_555
O6 C12 1_555 1_555
N1 N3 1_555 1_555
N2 C5 1_555 1_555
N3 C11 1_555 1_555
C2 O2 1_555 1_555
H8 C2 1_555 1_555
H9 C2 1_555 1_555
C3 O3 1_555 1_555
C4 N1 1_555 1_555
H10 C4 1_555 1_555
C5 N1 1_555 1_555
C6 N2 1_555 1_555
C7 C6 1_555 1_555
H11 C7 1_555 1_555
C8 C7 1_555 1_555
H12 C8 1_555 1_555
C9 C8 1_555 1_555
H13 C9 1_555 1_555
C10 O4 1_555 1_555
H14 C10 1_555 1_555
C11 C10 1_555 1_555
H15 C11 1_555 1_555
H16 C11 1_555 1_555
C12 N2 1_555 1_555
C13 C9 1_555 1_555
H17 C13 1_555 1_555
C14 C6 1_555 1_555
H18 C14 1_555 1_555
C15 C4 1_555 1_555
H19 C15 1_555 1_555
H20 C15 1_555 1_555
H21 C15 1_555 1_555
N3 C12 1_555 1_555
C2 C3 1_555 1_555
C3 C4 1_555 1_555
C3 C10 1_555 1_555
C13 C14 1_555 1_555

#END
