
#######################################################################
#
#                 Cambridge Crystallographic Data Centre
#                                CCDC 
#
#######################################################################
#
# If this CIF has been generated from an entry in the Cambridge 
# Structural Database, then it will include bibliographic, chemical, 
# crystal, experimental, refinement or atomic coordinate data resulting 
# from the CCDC's data processing and validation procedures.
#
#######################################################################

data_MOZLUJ
_chemical_formula_moiety         'C10 H12 N2 O3'
_chemical_name_systematic        2-Nitro-N-propylbenzamide
_chemical_properties_biological  
'used as a medicament for treating traumatic brain and acute spinal cord injuries'
_symmetry_cell_setting           monoclinic
_symmetry_space_group_name_H-M   'P 21/c'
_symmetry_Int_Tables_number      14
_space_group_name_Hall           '-P 2ybc'
loop_
_symmetry_equiv_pos_site_id
_symmetry_equiv_pos_as_xyz
1 x,y,z
2 -x,1/2+y,1/2-z
3 -x,-y,-z
4 x,1/2-y,1/2+z
_cell_length_a                   15.835(3)
_cell_length_b                   9.3910(19)
_cell_length_c                   23.618(5)
_cell_angle_alpha                90
_cell_angle_beta                 108.35(3)
_cell_angle_gamma                90
_cell_volume                     3333.56
_exptl_crystal_colour            colorless
_exptl_crystal_description       needle
_chemical_melting_point          '340 K'
_cell_formula_units_Z            12
_exptl_crystal_recrystallization_method acetone
loop_
_atom_site_label
_atom_site_type_symbol
_atom_site_fract_x
_atom_site_fract_y
_atom_site_fract_z
O1 O 0.2163(2) 0.1794(3) -0.09514(14)
O2 O 0.3600(3) 0.6643(4) -0.09104(16)
O3 O 0.3303(2) 0.4769(4) -0.04864(14)
N1 N 0.1426(2) 0.3839(4) -0.09106(15)
H1 H 0.1300 0.4680 -0.1057
N2 N 0.3298(2) 0.5438(4) -0.09270(19)
C1 C 0.1136(4) 0.3372(6) 0.0604(2)
H2 H 0.1518 0.3704 0.0982
H3 H 0.1098 0.2352 0.0611
H4 H 0.0553 0.3773 0.0528
C2 C 0.1514(5) 0.3823(7) 0.0116(3)
H5 H 0.1543 0.4855 0.0113
H6 H 0.2119 0.3470 0.0216
C3 C 0.1044(4) 0.3362(6) -0.0463(2)
H7 H 0.0437 0.3706 -0.0567
H8 H 0.1024 0.2330 -0.0467
C4 C 0.1965(3) 0.3030(4) -0.11057(18)
C5 C 0.2291(3) 0.3690(4) -0.15806(17)
C6 C 0.1972(3) 0.3081(5) -0.2145(2)
H9 H 0.1583 0.2313 -0.2207
C7 C 0.2226(4) 0.3604(6) -0.2617(2)
H10 H 0.2008 0.3191 -0.2993
C8 C 0.2800(3) 0.4730(6) -0.2526(2)
H11 H 0.2968 0.5083 -0.2842
C9 C 0.3126(3) 0.5336(5) -0.1981(2)
H12 H 0.3516 0.6103 -0.1923
C10 C 0.2881(3) 0.4819(4) -0.15181(17)
O4 O 0.1360(2) -0.3230(3) -0.12406(13)
O5 O -0.0495(3) 0.1095(5) -0.1661(2)
O6 O -0.0153(2) -0.0953(5) -0.12712(17)
N3 N 0.1889(2) -0.1148(3) -0.07927(14)
H13 H 0.1982 -0.0265 -0.0850
N4 N -0.0107(3) -0.0024(5) -0.16209(18)
C11 C 0.1902(4) -0.1746(6) 0.0794(2)
H14 H 0.1509 -0.1381 0.0997
H15 H 0.2500 -0.1450 0.1001
H16 H 0.1873 -0.2767 0.0785
C12 C 0.1632(4) -0.1196(6) 0.0183(2)
H17 H 0.1651 -0.0164 0.0198
H18 H 0.1020 -0.1475 -0.0017
C13 C 0.2203(3) -0.1708(4) -0.01861(18)
H19 H 0.2813 -0.1409 0.0003
H20 H 0.2193 -0.2741 -0.0200
C14 C 0.1471(3) -0.1932(4) -0.12538(18)
C15 C 0.1150(3) -0.1159(4) -0.18493(18)
C16 C 0.1612(3) -0.1351(5) -0.2252(2)
H21 H 0.2118 -0.1919 -0.2148
C17 C 0.1330(3) -0.0707(5) -0.2807(2)
H22 H 0.1650 -0.0847 -0.3072
C18 C 0.0584(3) 0.0135(5) -0.29718(19)
H23 H 0.0392 0.0549 -0.3348
C19 C 0.0128(3) 0.0357(4) -0.25787(18)
H24 H -0.0374 0.0936 -0.2682
C20 C 0.0415(3) -0.0284(4) -0.20266(17)
O7 O 0.4897(2) 0.9114(3) 0.26431(12)
O8 O 0.3181(3) 0.5045(5) 0.14397(19)
O9 O 0.3425(2) 0.6663(4) 0.21211(18)
N5 N 0.5255(2) 0.6835(3) 0.29072(13)
H25 H 0.5387 0.6018 0.2793
N6 N 0.3587(3) 0.6078(5) 0.1705(2)
C21 C 0.5982(4) 0.6457(6) 0.45860(19)
H26 H 0.6482 0.5978 0.4858
H27 H 0.5440 0.6041 0.4610
H28 H 0.5999 0.7448 0.4689
C22 C 0.6022(4) 0.6307(6) 0.3953(2)
H29 H 0.6577 0.6704 0.3933
H30 H 0.6010 0.5305 0.3851
C23 C 0.5289(3) 0.7021(5) 0.35266(18)
H31 H 0.5327 0.8030 0.3618
H32 H 0.4738 0.6670 0.3572
C24 C 0.5028(3) 0.7884(4) 0.25144(18)
C25 C 0.4954(3) 0.7494(4) 0.18769(16)
C26 C 0.4311(3) 0.6667(4) 0.15025(18)
C27 C 0.4272(4) 0.6379(5) 0.0922(2)
H33 H 0.3831 0.5791 0.0682
C28 C 0.4895(4) 0.6978(7) 0.0712(2)
H34 H 0.4872 0.6816 0.0319
C29 C 0.5551(4) 0.7811(6) 0.1067(2)
H35 H 0.5978 0.8203 0.0919
C30 C 0.5581(3) 0.8073(4) 0.16499(19)
H36 H 0.6029 0.8647 0.1892
loop_
_geom_bond_atom_site_label_1
_geom_bond_atom_site_label_2
_geom_bond_site_symmetry_1
_geom_bond_site_symmetry_2
O1 C4 1_555 1_555
O2 N2 1_555 1_555
O3 N2 1_555 1_555
N1 H1 1_555 1_555
N2 C10 1_555 1_555
C1 H2 1_555 1_555
H3 C1 1_555 1_555
H4 C1 1_555 1_555
C2 C1 1_555 1_555
H5 C2 1_555 1_555
H6 C2 1_555 1_555
C3 N1 1_555 1_555
H7 C3 1_555 1_555
H8 C3 1_555 1_555
C4 N1 1_555 1_555
C5 C4 1_555 1_555
C6 C5 1_555 1_555
H9 C6 1_555 1_555
C7 C6 1_555 1_555
H10 C7 1_555 1_555
C8 C7 1_555 1_555
H11 C8 1_555 1_555
C9 C8 1_555 1_555
H12 C9 1_555 1_555
C10 C5 1_555 1_555
O4 C14 1_555 1_555
O5 N4 1_555 1_555
O6 N4 1_555 1_555
N3 H13 1_555 1_555
N4 C20 1_555 1_555
C11 H14 1_555 1_555
H15 C11 1_555 1_555
H16 C11 1_555 1_555
C12 C11 1_555 1_555
H17 C12 1_555 1_555
H18 C12 1_555 1_555
C13 N3 1_555 1_555
H19 C13 1_555 1_555
H20 C13 1_555 1_555
C14 N3 1_555 1_555
C15 C14 1_555 1_555
C16 C15 1_555 1_555
H21 C16 1_555 1_555
C17 C16 1_555 1_555
H22 C17 1_555 1_555
C18 C17 1_555 1_555
H23 C18 1_555 1_555
C19 C18 1_555 1_555
H24 C19 1_555 1_555
C20 C15 1_555 1_555
O7 C24 1_555 1_555
O8 N6 1_555 1_555
O9 N6 1_555 1_555
N5 H25 1_555 1_555
N6 C26 1_555 1_555
C21 H26 1_555 1_555
H27 C21 1_555 1_555
H28 C21 1_555 1_555
C22 C21 1_555 1_555
H29 C22 1_555 1_555
H30 C22 1_555 1_555
C23 N5 1_555 1_555
H31 C23 1_555 1_555
H32 C23 1_555 1_555
C24 N5 1_555 1_555
C25 C24 1_555 1_555
C26 C25 1_555 1_555
C27 C26 1_555 1_555
H33 C27 1_555 1_555
C28 C27 1_555 1_555
H34 C28 1_555 1_555
C29 C28 1_555 1_555
H35 C29 1_555 1_555
C30 C25 1_555 1_555
H36 C30 1_555 1_555
C2 C3 1_555 1_555
C9 C10 1_555 1_555
C12 C13 1_555 1_555
C19 C20 1_555 1_555
C22 C23 1_555 1_555
C29 C30 1_555 1_555

#END
