
#######################################################################
#
#                 Cambridge Crystallographic Data Centre
#                                CCDC 
#
#######################################################################
#
# If this CIF has been generated from an entry in the Cambridge 
# Structural Database, then it will include bibliographic, chemical, 
# crystal, experimental, refinement or atomic coordinate data resulting 
# from the CCDC's data processing and validation procedures.
#
#######################################################################

data_MOZLAP
_chemical_formula_moiety         'C8 H12 O4 S1'
_chemical_name_systematic        
(R)-2-((R)-2,2-Dimethyl-1,3-dioxolan-4-yl)-1,3-oxathiolan-5-one
_symmetry_cell_setting           monoclinic
_symmetry_space_group_name_H-M   'P 21'
_symmetry_Int_Tables_number      4
_space_group_name_Hall           'P 2yb'
loop_
_symmetry_equiv_pos_site_id
_symmetry_equiv_pos_as_xyz
1 x,y,z
2 -x,1/2+y,-z
_cell_length_a                   6.5528(13)
_cell_length_b                   9.4029(19)
_cell_length_c                   7.9240(16)
_cell_angle_alpha                90
_cell_angle_beta                 106.60(3)
_cell_angle_gamma                90
_cell_volume                     467.891
_exptl_crystal_colour            colorless
_exptl_crystal_description       block
_chemical_melting_point          75-77deg.C
_cell_formula_units_Z            2
loop_
_atom_site_label
_atom_site_type_symbol
_atom_site_fract_x
_atom_site_fract_y
_atom_site_fract_z
S1 S 0.57296(17) 0.19608(12) 0.31212(10)
O1 O 0.7766(4) 0.0255(3) 0.5605(3)
O2 O 1.1103(4) 0.0457(3) 0.5630(4)
O3 O 0.8026(4) 0.1607(2) 0.9331(3)
O4 O 0.7352(4) 0.2936(2) 0.6920(3)
C1 C 0.8546(6) 0.1980(5) 0.3737(4)
H1 H 0.9049 0.1803 0.2718
H2 H 0.9075 0.2899 0.4225
C2 C 0.9307(6) 0.0859(4) 0.5061(4)
C3 C 0.5800(5) 0.1011(4) 0.5101(4)
H3 H 0.4622 0.0328 0.4851
C4 C 0.5669(5) 0.1947(4) 0.6584(4)
H4 H 0.4302 0.2451 0.6269
C5 C 0.5987(5) 0.1192(5) 0.8312(4)
H5 H 0.4914 0.1477 0.8871
H6 H 0.5915 0.0169 0.8144
C6 C 0.8418(5) 0.2954(4) 0.8756(4)
C7 C 1.0731(6) 0.3117(5) 0.9004(6)
H7 H 1.1010 0.4044 0.8614
H8 H 1.1201 0.2405 0.8330
H9 H 1.1483 0.3006 1.0228
C8 C 0.7487(7) 0.4089(5) 0.9608(5)
H10 H 0.7778 0.5000 0.9182
H11 H 0.8106 0.4046 1.0861
H12 H 0.5975 0.3954 0.9332
loop_
_geom_bond_atom_site_label_1
_geom_bond_atom_site_label_2
_geom_bond_site_symmetry_1
_geom_bond_site_symmetry_2
S1 C1 1_555 1_555
O1 C2 1_555 1_555
O2 C2 1_555 1_555
O3 C5 1_555 1_555
O4 C4 1_555 1_555
C1 H1 1_555 1_555
H2 C1 1_555 1_555
C2 C1 1_555 1_555
C3 S1 1_555 1_555
H3 C3 1_555 1_555
C4 C3 1_555 1_555
H4 C4 1_555 1_555
C5 C4 1_555 1_555
H5 C5 1_555 1_555
H6 C5 1_555 1_555
C6 O3 1_555 1_555
C7 C6 1_555 1_555
H7 C7 1_555 1_555
H8 C7 1_555 1_555
H9 C7 1_555 1_555
C8 C6 1_555 1_555
H10 C8 1_555 1_555
H11 C8 1_555 1_555
H12 C8 1_555 1_555
O1 C3 1_555 1_555
O4 C6 1_555 1_555

#END
