
#######################################################################
#
#                 Cambridge Crystallographic Data Centre
#                                CCDC 
#
#######################################################################
#
# If this CIF has been generated from an entry in the Cambridge 
# Structural Database, then it will include bibliographic, chemical, 
# crystal, experimental, refinement or atomic coordinate data resulting 
# from the CCDC's data processing and validation procedures.
#
#######################################################################

data_MOZXUV
_chemical_formula_moiety         'C15 H15 N3 O2 S1'
_chemical_name_systematic        
'Ethyl 4-(4-cyanophenyl)-6-methyl-2-thioxo-1,2,3,4-tetrahydropyrimidine-5-carboxylate'
_symmetry_cell_setting           triclinic
_symmetry_space_group_name_H-M   'P -1'
_symmetry_Int_Tables_number      2
_space_group_name_Hall           '-P 1'
loop_
_symmetry_equiv_pos_site_id
_symmetry_equiv_pos_as_xyz
1 x,y,z
2 -x,-y,-z
_cell_length_a                   9.2938(19)
_cell_length_b                   13.277(3)
_cell_length_c                   14.512(3)
_cell_angle_alpha                101.247(17)
_cell_angle_beta                 108.442(13)
_cell_angle_gamma                107.89(3)
_cell_volume                     1529.56
_exptl_crystal_colour            yellow
_exptl_crystal_description       block
_cell_formula_units_Z            4
_exptl_crystal_recrystallization_method ethanol
loop_
_atom_site_label
_atom_site_type_symbol
_atom_site_fract_x
_atom_site_fract_y
_atom_site_fract_z
C1 C 0.2143(2) -0.01219(17) 0.21806(15)
C2 C 0.2370(2) 0.03499(16) 0.06791(14)
C3 C 0.2591(3) -0.0104(2) -0.02697(17)
H1 H 0.2465 0.0359 -0.0696
H2 H 0.1776 -0.0852 -0.0639
H3 H 0.3675 -0.0110 -0.0084
C4 C 0.2051(2) 0.12633(16) 0.09358(13)
C5 C 0.1790(3) 0.19201(18) 0.02444(15)
C6 C 0.1450(8) 0.3589(6) 0.0092(7)
H4 H 0.0435 0.3271 -0.0523
H5 H 0.2375 0.3768 -0.0108
C7 C 0.1533(8) 0.4606(4) 0.0772(5)
H6 H 0.1462 0.5134 0.0410
H7 H 0.2560 0.4930 0.1366
H8 H 0.0632 0.4415 0.0983
C8 C 0.2021(2) 0.16692(16) 0.19771(13)
H9 H 0.1093 0.1899 0.1884
C9 C 0.3609(2) 0.26699(16) 0.27233(14)
C10 C 0.5112(3) 0.25592(17) 0.30151(16)
H10 H 0.5152 0.1881 0.2735
C11 C 0.6553(3) 0.34466(18) 0.37184(17)
H11 H 0.7548 0.3357 0.3922
C12 C 0.6507(3) 0.44634(17) 0.41161(15)
C13 C 0.8014(3) 0.53885(19) 0.48441(17)
C14 C 0.5017(3) 0.45957(19) 0.38096(17)
H12 H 0.4989 0.5286 0.4064
C15 C 0.3576(3) 0.36968(18) 0.31243(16)
H13 H 0.2578 0.3782 0.2931
N1 N 0.2529(2) -0.02691(14) 0.13483(13)
H27 H 0.2896 -0.0779 0.1228
N2 N 0.1754(2) 0.07505(14) 0.24092(12)
H28 H 0.1310 0.0779 0.2846
N3 N 0.9225(3) 0.60999(18) 0.54293(17)
O1 O 0.1803(2) 0.17349(17) -0.06000(12)
O2 O 0.1501(3) 0.27880(16) 0.06545(13)
S1 S 0.21451(8) -0.10085(6) 0.28636(5)
C16 C 0.5233(3) 0.77227(17) 0.18205(15)
C17 C 0.5666(3) 0.77320(17) 0.35679(15)
C18 C 0.4795(3) 0.7769(2) 0.42837(19)
H14 H 0.5549 0.7901 0.4967
H15 H 0.3873 0.7069 0.4060
H16 H 0.4408 0.8362 0.4280
C19 C 0.7254(2) 0.78795(16) 0.38041(14)
C20 C 0.8419(3) 0.82399(17) 0.48790(15)
C21 C 1.1249(3) 0.9003(2) 0.60221(18)
H17 H 1.1071 0.8446 0.6364
H18 H 1.1211 0.9669 0.6412
C22 C 1.2875(3) 0.9271(3) 0.5945(3)
H19 H 1.3741 0.9563 0.6621
H20 H 1.3032 0.9818 0.5601
H21 H 1.2900 0.8604 0.5562
C23 C 0.7893(2) 0.77481(16) 0.29625(14)
H22 H 0.9001 0.8337 0.3216
C24 C 0.8018(2) 0.66181(16) 0.26707(14)
C25 C 0.9496(3) 0.65221(18) 0.31451(17)
H23 H 1.0406 0.7151 0.3626
C26 C 0.9640(3) 0.5505(2) 0.29138(18)
H24 H 1.0641 0.5455 0.3238
C27 C 0.8294(3) 0.45617(18) 0.21999(16)
C28 C 0.6818(3) 0.4646(2) 0.17110(18)
H25 H 0.5913 0.4017 0.1226
C29 C 0.6684(3) 0.56674(19) 0.19433(17)
H26 H 0.5687 0.5718 0.1608
C30 C 0.8447(4) 0.3498(2) 0.20089(19)
N4 N 0.4650(2) 0.75428(16) 0.25562(13)
H29 H 0.3600 0.7300 0.2385
N5 N 0.6813(2) 0.79053(14) 0.20621(12)
H30 H 0.7242 0.8135 0.1658
N6 N 0.8613(4) 0.2675(2) 0.1898(2)
O3 O 0.8045(2) 0.82617(18) 0.56068(12)
O4 O 0.99902(18) 0.85749(13) 0.49825(11)
S2 S 0.39778(8) 0.77075(5) 0.06890(4)
C31? C 0.070(2) 0.3356(16) -0.0032(18)
C32? C 0.2159(17) 0.4385(11) 0.0334(12)
H31? H 0.0324 0.2960 -0.0756
H32? H -0.0202 0.3477 0.0105
H33? H 0.1932 0.4860 -0.0063
H34? H 0.3057 0.4212 0.0264
H35? H 0.2453 0.4762 0.1043
loop_
_geom_bond_atom_site_label_1
_geom_bond_atom_site_label_2
_geom_bond_site_symmetry_1
_geom_bond_site_symmetry_2
C1 N1 1_555 1_555
C2 C3 1_555 1_555
C3 H1 1_555 1_555
H2 C3 1_555 1_555
H3 C3 1_555 1_555
C4 C2 1_555 1_555
C5 C4 1_555 1_555
C6 H4 1_555 1_555
H5 C6 1_555 1_555
C7 C6 1_555 1_555
H6 C7 1_555 1_555
H7 C7 1_555 1_555
H8 C7 1_555 1_555
C8 C4 1_555 1_555
H9 C8 1_555 1_555
C9 C8 1_555 1_555
C10 C9 1_555 1_555
H10 C10 1_555 1_555
C11 C10 1_555 1_555
H11 C11 1_555 1_555
C12 C11 1_555 1_555
C13 C12 1_555 1_555
C14 C12 1_555 1_555
H12 C14 1_555 1_555
C15 C9 1_555 1_555
H13 C15 1_555 1_555
C16 N4 1_555 1_555
C17 C18 1_555 1_555
C18 H14 1_555 1_555
H15 C18 1_555 1_555
H16 C18 1_555 1_555
C19 C17 1_555 1_555
C20 C19 1_555 1_555
C21 H17 1_555 1_555
H18 C21 1_555 1_555
C22 C21 1_555 1_555
H19 C22 1_555 1_555
H20 C22 1_555 1_555
H21 C22 1_555 1_555
C23 C19 1_555 1_555
H22 C23 1_555 1_555
C24 C23 1_555 1_555
C25 C24 1_555 1_555
H23 C25 1_555 1_555
C26 C25 1_555 1_555
H24 C26 1_555 1_555
C27 C26 1_555 1_555
C28 C27 1_555 1_555
H25 C28 1_555 1_555
C29 C24 1_555 1_555
H26 C29 1_555 1_555
C30 C27 1_555 1_555
N1 C2 1_555 1_555
H27 N1 1_555 1_555
N2 C1 1_555 1_555
H28 N2 1_555 1_555
N3 C13 1_555 1_555
N4 C17 1_555 1_555
H29 N4 1_555 1_555
N5 C16 1_555 1_555
H30 N5 1_555 1_555
N6 C30 1_555 1_555
O1 C5 1_555 1_555
O2 C5 1_555 1_555
O3 C20 1_555 1_555
O4 C20 1_555 1_555
S1 C1 1_555 1_555
S2 C16 1_555 1_555
C6 O2 1_555 1_555
C8 N2 1_555 1_555
C14 C15 1_555 1_555
C21 O4 1_555 1_555
C23 N5 1_555 1_555
C28 C29 1_555 1_555

#END
