
#######################################################################
#
#                 Cambridge Crystallographic Data Centre
#                                CCDC 
#
#######################################################################
#
# If this CIF has been generated from an entry in the Cambridge 
# Structural Database, then it will include bibliographic, chemical, 
# crystal, experimental, refinement or atomic coordinate data resulting 
# from the CCDC's data processing and validation procedures.
#
#######################################################################

data_MOZYIK
_chemical_name_common            'Propiverinium picrate'
_chemical_formula_moiety         'C23 H30 N1 O3 1+,C6 H2 N3 O7 1-'
_chemical_name_systematic        
'4-(2,2-Diphenyl(propoxy)acetoxy)-1-methylpiperidinium 2,4,6-trinitrophenolate'
_chemical_properties_biological  'Propiverinium is an anticholinergic drug'
_symmetry_cell_setting           triclinic
_symmetry_space_group_name_H-M   'P -1'
_symmetry_Int_Tables_number      2
_space_group_name_Hall           '-P 1'
loop_
_symmetry_equiv_pos_site_id
_symmetry_equiv_pos_as_xyz
1 x,y,z
2 -x,-y,-z
_cell_length_a                   8.9379(4)
_cell_length_b                   9.2885(4)
_cell_length_c                   18.0750(7)
_cell_angle_alpha                97.652(3)
_cell_angle_beta                 97.630(3)
_cell_angle_gamma                104.301(4)
_cell_volume                     1419.53
_exptl_crystal_colour            'pale yellow'
_exptl_crystal_description       prism
_chemical_melting_point          403-406K
_cell_formula_units_Z            2
_exptl_crystal_recrystallization_method acetonitrile
loop_
_atom_site_label
_atom_site_type_symbol
_atom_site_fract_x
_atom_site_fract_y
_atom_site_fract_z
O1 O 0.10752(10) 0.23733(10) 0.53343(5)
O2 O 0.12422(13) 0.08237(12) 0.64704(6)
O3 O 0.14903(16) -0.14166(12) 0.61794(7)
O4 O 0.4251(3) -0.2570(3) 0.4160(2)
O5 O 0.4834(4) -0.0983(5) 0.33859(12)
O6 O 0.19712(11) 0.28535(11) 0.33215(5)
O7 O 0.24781(13) 0.42205(10) 0.44357(5)
N1 N 0.15738(14) -0.01478(13) 0.60401(7)
N2 N 0.41627(16) -0.14450(15) 0.39320(9)
N3 N 0.22611(12) 0.30132(12) 0.40164(6)
C1 C 0.18060(13) 0.15168(13) 0.50522(6)
C2 C 0.20815(15) 0.02039(13) 0.53354(7)
C3 C 0.27856(16) -0.07744(14) 0.49621(8)
H1 H 0.2900 -0.1645 0.5161
C4 C 0.33233(15) -0.04861(14) 0.42997(8)
C5 C 0.31226(14) 0.07552(14) 0.39838(7)
H2 H 0.3472 0.0938 0.3522
C6 C 0.24091(14) 0.17030(13) 0.43558(6)
O8 O 0.60822(9) 0.83673(9) 0.95805(4)
O9 O 0.65404(10) 0.61445(9) 0.85595(5)
O10 O 0.49768(9) 0.66911(8) 0.76153(4)
N4 N 0.14290(11) 0.41809(11) 0.66309(5)
H3 H 0.1429 0.3307 0.6313
C7 C 0.7672(2) 0.65985(16) 1.04798(8)
H4 H 0.6537 0.6194 1.0317
H5 H 0.7985 0.6305 1.0966
H6 H 0.8215 0.6193 1.0099
C8 C 0.81046(16) 0.83003(14) 1.05690(7)
H7 H 0.9237 0.8703 1.0776
H8 H 0.7522 0.8696 1.0941
C9 C 0.77559(13) 0.88685(13) 0.98354(6)
H9 H 0.8118 0.9984 0.9919
H10 H 0.8303 0.8461 0.9450
C10 C 0.55382(13) 0.83591(12) 0.88023(6)
C11 C 0.37558(13) 0.80952(12) 0.87150(6)
C12 C 0.29341(14) 0.72390(13) 0.91802(6)
H11 H 0.3488 0.6901 0.9578
C13 C 0.13033(15) 0.68740(15) 0.90661(7)
H12 H 0.0751 0.6295 0.9389
C14 C 0.04823(15) 0.73485(14) 0.84858(7)
H13 H -0.0630 0.7092 0.8408
C15 C 0.12932(14) 0.82027(14) 0.80174(7)
H14 H 0.0734 0.8531 0.7618
C16 C 0.29213(14) 0.85778(13) 0.81321(6)
H15 H 0.3470 0.9167 0.7812
C17 C 0.63706(13) 0.98164(12) 0.85584(6)
C18 C 0.60946(14) 1.11664(13) 0.88757(6)
H16 H 0.5343 1.1146 0.9202
C19 C 0.69100(16) 1.25303(13) 0.87166(7)
H17 H 0.6711 1.3440 0.8932
C20 C 0.80181(16) 1.25757(14) 0.82429(7)
H18 H 0.8573 1.3513 0.8133
C21 C 0.83122(15) 1.12444(14) 0.79297(7)
H19 H 0.9075 1.1270 0.7609
C22 C 0.74833(13) 0.98724(12) 0.80886(6)
H20 H 0.7683 0.8964 0.7872
C23 C 0.57857(12) 0.69440(12) 0.83240(6)
C24 C 0.48344(13) 0.52459(12) 0.71359(6)
H21 H 0.5894 0.5082 0.7114
C25 C 0.38094(14) 0.39610(12) 0.74338(7)
H22 H 0.3784 0.2990 0.7124
H23 H 0.4277 0.3959 0.7962
C26 C 0.21450(14) 0.40916(13) 0.74143(6)
H24 H 0.1506 0.3204 0.7583
H25 H 0.2153 0.5006 0.7767
C27 C -0.02218(15) 0.42444(16) 0.65909(8)
H26 H -0.0258 0.5157 0.6921
H27 H -0.0833 0.3353 0.6758
H28 H -0.0665 0.4264 0.6068
C28 C 0.23950(15) 0.54977(13) 0.63493(7)
H29 H 0.2411 0.6449 0.6675
H30 H 0.1915 0.5522 0.5827
C29 C 0.40595(14) 0.53774(13) 0.63573(6)
H31 H 0.4686 0.6280 0.6195
H32 H 0.4045 0.4482 0.5989
O11? O 0.4136(17) -0.2763(15) 0.4447(10)
O12? O 0.4388(16) -0.1576(18) 0.3475(7)
loop_
_geom_bond_atom_site_label_1
_geom_bond_atom_site_label_2
_geom_bond_site_symmetry_1
_geom_bond_site_symmetry_2
O1 C1 1_555 1_555
O2 N1 1_555 1_555
O3 N1 1_555 1_555
O4 N2 1_555 1_555
O5 N2 1_555 1_555
O6 N3 1_555 1_555
O7 N3 1_555 1_555
N1 C2 1_555 1_555
N2 C4 1_555 1_555
N3 C6 1_555 1_555
C1 C2 1_555 1_555
C2 C3 1_555 1_555
C3 H1 1_555 1_555
C4 C3 1_555 1_555
C5 C4 1_555 1_555
H2 C5 1_555 1_555
C6 C1 1_555 1_555
O8 C9 1_555 1_555
O9 C23 1_555 1_555
O10 C23 1_555 1_555
N4 H3 1_555 1_555
C7 H4 1_555 1_555
H5 C7 1_555 1_555
H6 C7 1_555 1_555
C8 C7 1_555 1_555
H7 C8 1_555 1_555
H8 C8 1_555 1_555
C9 C8 1_555 1_555
H9 C9 1_555 1_555
H10 C9 1_555 1_555
C10 O8 1_555 1_555
C11 C10 1_555 1_555
C12 C11 1_555 1_555
H11 C12 1_555 1_555
C13 C12 1_555 1_555
H12 C13 1_555 1_555
C14 C13 1_555 1_555
H13 C14 1_555 1_555
C15 C14 1_555 1_555
H14 C15 1_555 1_555
C16 C11 1_555 1_555
H15 C16 1_555 1_555
C17 C10 1_555 1_555
C18 C17 1_555 1_555
H16 C18 1_555 1_555
C19 C18 1_555 1_555
H17 C19 1_555 1_555
C20 C19 1_555 1_555
H18 C20 1_555 1_555
C21 C20 1_555 1_555
H19 C21 1_555 1_555
C22 C17 1_555 1_555
H20 C22 1_555 1_555
C23 C10 1_555 1_555
C24 O10 1_555 1_555
H21 C24 1_555 1_555
C25 C24 1_555 1_555
H22 C25 1_555 1_555
H23 C25 1_555 1_555
C26 N4 1_555 1_555
H24 C26 1_555 1_555
H25 C26 1_555 1_555
C27 N4 1_555 1_555
H26 C27 1_555 1_555
H27 C27 1_555 1_555
H28 C27 1_555 1_555
C28 N4 1_555 1_555
H29 C28 1_555 1_555
H30 C28 1_555 1_555
C29 C24 1_555 1_555
H31 C29 1_555 1_555
H32 C29 1_555 1_555
C5 C6 1_555 1_555
C15 C16 1_555 1_555
C21 C22 1_555 1_555
C25 C26 1_555 1_555
C28 C29 1_555 1_555

#END
