
#######################################################################
#
#                 Cambridge Crystallographic Data Centre
#                                CCDC 
#
#######################################################################
#
# If this CIF has been generated from an entry in the Cambridge 
# Structural Database, then it will include bibliographic, chemical, 
# crystal, experimental, refinement or atomic coordinate data resulting 
# from the CCDC's data processing and validation procedures.
#
#######################################################################

data_MOZZEH
_chemical_formula_moiety         'C28 H20 N2 O2'
_chemical_name_systematic        
2,2'-(1,2-Hydrazinediylidene)-bis(diphenylethanone)
_symmetry_cell_setting           monoclinic
_symmetry_space_group_name_H-M   'P 21/c'
_symmetry_Int_Tables_number      14
_space_group_name_Hall           '-P 2ybc'
loop_
_symmetry_equiv_pos_site_id
_symmetry_equiv_pos_as_xyz
1 x,y,z
2 -x,1/2+y,1/2-z
3 -x,-y,-z
4 x,1/2-y,1/2+z
_cell_length_a                   8.2875(2)
_cell_length_b                   22.1023(4)
_cell_length_c                   11.6602(2)
_cell_angle_alpha                90
_cell_angle_beta                 97.5390(10)
_cell_angle_gamma                90
_cell_volume                     2117.37
_exptl_crystal_colour            yellow
_exptl_crystal_description       prism
_cell_formula_units_Z            4
loop_
_atom_site_label
_atom_site_type_symbol
_atom_site_fract_x
_atom_site_fract_y
_atom_site_fract_z
O1 O 0.37058(13) 0.75630(5) 0.13158(8)
O2 O 0.17265(13) 0.56277(5) 0.47749(8)
N1 N 0.34699(13) 0.66169(5) 0.33697(11)
N2 N 0.18382(13) 0.66513(5) 0.28286(10)
C1 C 0.27649(16) 0.81384(6) 0.40407(11)
H1 H 0.3294 0.7835 0.4531
C2 C 0.20231(17) 0.86230(7) 0.45113(13)
H2 H 0.2043 0.8653 0.5326
C3 C 0.12519(19) 0.90640(7) 0.37938(15)
H3 H 0.0744 0.9397 0.4118
C4 C 0.12170(19) 0.90223(7) 0.26063(15)
H4 H 0.0678 0.9325 0.2119
C5 C 0.19592(17) 0.85447(6) 0.21267(13)
H5 H 0.1945 0.8520 0.1312
C6 C 0.27335(15) 0.80970(6) 0.28467(11)
C7 C 0.35415(15) 0.75841(6) 0.23347(11)
C8 C 0.42829(16) 0.70877(6) 0.31371(11)
C9 C 0.59933(16) 0.71554(6) 0.36520(11)
C10 C 0.66251(18) 0.67959(7) 0.45829(13)
H6 H 0.5949 0.6504 0.4881
C11 C 0.82226(18) 0.68586(7) 0.50792(14)
H7 H 0.8639 0.6612 0.5717
C12 C 0.92181(17) 0.72815(7) 0.46459(13)
H8 H 1.0319 0.7324 0.4985
C13 C 0.86090(17) 0.76404(7) 0.37219(13)
H9 H 0.9294 0.7929 0.3422
C14 C 0.70016(17) 0.75823(6) 0.32287(12)
H10 H 0.6586 0.7835 0.2599
C15 C 0.10218(16) 0.61745(6) 0.30204(11)
C16 C -0.06870(16) 0.61175(6) 0.24937(11)
C17 C -0.16874(17) 0.56676(6) 0.28567(13)
H11 H -0.1274 0.5398 0.3460
C18 C -0.32831(18) 0.56134(7) 0.23374(14)
H12 H -0.3961 0.5306 0.2586
C19 C -0.38917(17) 0.60026(7) 0.14627(13)
H13 H -0.4987 0.5962 0.1110
C20 C -0.29147(17) 0.64511(7) 0.10965(13)
H14 H -0.3338 0.6720 0.0495
C21 C -0.13179(17) 0.65073(6) 0.16090(12)
H15 H -0.0646 0.6815 0.1355
C22 C 0.17830(16) 0.56479(6) 0.37387(11)
C23 C 0.25313(16) 0.51611(6) 0.31005(12)
C24 C 0.34362(17) 0.47038(7) 0.37097(13)
H16 H 0.3554 0.4697 0.4531
C25 C 0.4161(2) 0.42613(7) 0.31128(15)
H17 H 0.4800 0.3956 0.3528
C26 C 0.39637(19) 0.42599(7) 0.19180(14)
H18 H 0.4459 0.3952 0.1516
C27 C 0.30485(18) 0.47042(7) 0.13063(13)
H19 H 0.2903 0.4700 0.0484
C28 C 0.23428(17) 0.51564(6) 0.18982(12)
H20 H 0.1725 0.5466 0.1478
loop_
_geom_bond_atom_site_label_1
_geom_bond_atom_site_label_2
_geom_bond_site_symmetry_1
_geom_bond_site_symmetry_2
O1 C7 1_555 1_555
O2 C22 1_555 1_555
N1 N2 1_555 1_555
N2 C15 1_555 1_555
C1 H1 1_555 1_555
C2 C1 1_555 1_555
H2 C2 1_555 1_555
C3 C2 1_555 1_555
H3 C3 1_555 1_555
C4 C3 1_555 1_555
H4 C4 1_555 1_555
C5 C4 1_555 1_555
H5 C5 1_555 1_555
C6 C1 1_555 1_555
C7 C6 1_555 1_555
C8 N1 1_555 1_555
C9 C8 1_555 1_555
C10 C9 1_555 1_555
H6 C10 1_555 1_555
C11 C10 1_555 1_555
H7 C11 1_555 1_555
C12 C11 1_555 1_555
H8 C12 1_555 1_555
C13 C12 1_555 1_555
H9 C13 1_555 1_555
C14 C9 1_555 1_555
H10 C14 1_555 1_555
C15 C16 1_555 1_555
C16 C17 1_555 1_555
C17 H11 1_555 1_555
C18 C17 1_555 1_555
H12 C18 1_555 1_555
C19 C18 1_555 1_555
H13 C19 1_555 1_555
C20 C19 1_555 1_555
H14 C20 1_555 1_555
C21 C16 1_555 1_555
H15 C21 1_555 1_555
C22 C15 1_555 1_555
C23 C22 1_555 1_555
C24 C23 1_555 1_555
H16 C24 1_555 1_555
C25 C24 1_555 1_555
H17 C25 1_555 1_555
C26 C25 1_555 1_555
H18 C26 1_555 1_555
C27 C26 1_555 1_555
H19 C27 1_555 1_555
C28 C23 1_555 1_555
H20 C28 1_555 1_555
C5 C6 1_555 1_555
C7 C8 1_555 1_555
C13 C14 1_555 1_555
C20 C21 1_555 1_555
C27 C28 1_555 1_555

#END
