
#######################################################################
#
#                 Cambridge Crystallographic Data Centre
#                                CCDC 
#
#######################################################################
#
# If this CIF has been generated from an entry in the Cambridge 
# Structural Database, then it will include bibliographic, chemical, 
# crystal, experimental, refinement or atomic coordinate data resulting 
# from the CCDC's data processing and validation procedures.
#
#######################################################################

data_MPECXP02
_chemical_formula_moiety         'C19 H23 N1 O4'
_chemical_name_systematic        
2,6-Dimethyl-4-phenyl-3,5-diethoxycarbonyl-1,4-dihydropyridine
_symmetry_cell_setting           monoclinic
_symmetry_space_group_name_H-M   'P 21/c'
_symmetry_Int_Tables_number      14
_space_group_name_Hall           '-P 2ybc'
loop_
_symmetry_equiv_pos_site_id
_symmetry_equiv_pos_as_xyz
1 x,y,z
2 -x,1/2+y,1/2-z
3 -x,-y,-z
4 x,1/2-y,1/2+z
_cell_length_a                   9.745(2)
_cell_length_b                   7.388(2)
_cell_length_c                   24.354(5)
_cell_angle_alpha                90
_cell_angle_beta                 92.60(3)
_cell_angle_gamma                90
_cell_volume                     1751.59
_chemical_melting_point          152-154deg.C
_cell_formula_units_Z            4
loop_
_atom_site_label
_atom_site_type_symbol
_atom_site_fract_x
_atom_site_fract_y
_atom_site_fract_z
C1 C 0.5221(3) 0.2412(3) 0.60476(1)
C2 C 0.5759(2) 0.6244(3) 0.64517(8)
C3 C 0.6846(2) 0.8650(4) 0.69612(1)
C4 C 0.6455(3) 0.8382(5) 0.75349(1)
C5 C 0.1961(3) 0.4349(3) 0.46886(9)
C6 C 0.2334(2) 0.8396(3) 0.50664(8)
C7 C 0.1026(3) 0.9543(3) 0.42945(9)
C8 C 0.0184(3) 0.8784(4) 0.38270(1)
C9 C 0.2720(2) 0.5069(3) 0.51898(8)
C10 C 0.28464(2) 0.6802(3) 0.53673(8)
C11 C 0.34915(2) 0.7177(2) 0.59331(7)
C12 C 0.45879(2) 0.5768(3) 0.60802(8)
C13 C 0.4405(2) 0.4060(3) 0.58903(8)
C14 C 0.0579(2) 0.7140(4) 0.72207(9)
C15 C 0.1751(2) 0.8162(4) 0.72716(9)
C16 C 0.2658(2) 0.8210(3) 0.68516(9)
C17 C 0.24237(2) 0.7208(3) 0.63762(8)
C18 C 0.1230(2) 0.6193(3) 0.63329(8)
C19 C 0.0318(2) 0.6165(3) 0.67496(9)
N1 N 0.33669(2) 0.3731(2) 0.5500(7)
O1 O 0.66293(2) 0.5221(2) 0.66380(7)
O2 O 0.57955(1) 0.8028(2) 0.65661(6)
O3 O 0.26267(2) 0.9931(2) 0.51975(7)
O4 O 0.14952(2) 0.80360(2) 0.46319(6)
loop_
_geom_bond_atom_site_label_1
_geom_bond_atom_site_label_2
_geom_bond_site_symmetry_1
_geom_bond_site_symmetry_2
C1 C13 1_555 1_555
C2 C12 1_555 1_555
C3 C4 1_555 1_555
C5 C9 1_555 1_555
C6 C10 1_555 1_555
C7 C8 1_555 1_555
C9 C10 1_555 1_555
C10 C11 1_555 1_555
C11 C12 1_555 1_555
C12 C13 1_555 1_555
C13 N1 1_555 1_555
C14 C15 1_555 1_555
C15 C16 1_555 1_555
C16 C17 1_555 1_555
C17 C11 1_555 1_555
C18 C17 1_555 1_555
C19 C14 1_555 1_555
N1 C9 1_555 1_555
O1 C2 1_555 1_555
O2 C2 1_555 1_555
O3 C6 1_555 1_555
O4 C6 1_555 1_555
C3 O2 1_555 1_555
C7 O4 1_555 1_555
C18 C19 1_555 1_555

#END
