
#######################################################################
#
#                 Cambridge Crystallographic Data Centre
#                                CCDC 
#
#######################################################################
#
# If this CIF has been generated from an entry in the Cambridge 
# Structural Database, then it will include bibliographic, chemical, 
# crystal, experimental, refinement or atomic coordinate data resulting 
# from the CCDC's data processing and validation procedures.
#
#######################################################################

data_MPNPZH
_chemical_formula_moiety         'C25 H23 N5 O6'
_chemical_name_systematic        
3,5-Dimethyl-1,7-diphenyl-4-(2,4,6-trinitrophenyl)-2,6-diazahepta-2,4-diene
_symmetry_cell_setting           monoclinic
_symmetry_space_group_name_H-M   'P 2/c'
_symmetry_Int_Tables_number      13
_space_group_name_Hall           '-P 2yc'
loop_
_symmetry_equiv_pos_site_id
_symmetry_equiv_pos_as_xyz
1 x,y,z
2 -x,y,1/2-z
3 -x,-y,-z
4 x,-y,1/2+z
_cell_length_a                   11.672(1)
_cell_length_b                   11.749(1)
_cell_length_c                   17.118(2)
_cell_angle_alpha                90
_cell_angle_beta                 96.86(1)
_cell_angle_gamma                90
_cell_volume                     2330.66
_cell_formula_units_Z            4
loop_
_atom_site_label
_atom_site_type_symbol
_atom_site_fract_x
_atom_site_fract_y
_atom_site_fract_z
O1 O 0.33430 0.11570 -0.06950
O2 O 0.16010 0.11910 -0.04110
O3 O 0.37780 0.07620 0.30490
O4 O 0.20030 0.04630 0.27980
O5 O 0.49910 -0.28050 0.15830
O6 O 0.45370 -0.27850 0.03250
N1 N 0.24780 0.38770 0.15010
N2 N 0.04270 0.28800 0.13870
N3 N 0.26110 0.09450 -0.02710
N4 N 0.29570 0.04730 0.26160
N5 N 0.45370 -0.23860 0.09780
C1 C 0.31520 0.00880 0.18220
C2 C 0.37260 -0.09340 0.17940
C3 C 0.39170 -0.12950 0.10380
C4 C 0.35590 -0.06860 0.03680
C5 C 0.29770 0.03100 0.04600
C6 C 0.27380 0.07700 0.11780
C7 C 0.21840 0.18910 0.12740
C8 C 0.09440 0.19260 0.12760
C9 C 0.29030 0.28520 0.13870
C10 C -0.08080 0.28780 0.14720
C11 C 0.31850 0.49100 0.15940
C12 C -0.14340 0.39490 0.11590
C13 C -0.08870 0.48980 0.09150
C14 C -0.15330 0.58300 0.06170
C15 C -0.27130 0.58150 0.05740
C16 C -0.32680 0.48660 0.08220
C17 C -0.26200 0.39370 0.11210
C18 C 0.24210 0.59470 0.16350
C19 C 0.22620 0.64140 0.23560
C20 C 0.15640 0.73440 0.23950
C21 C 0.10130 0.78210 0.17240
C22 C 0.11860 0.73840 0.10030
C23 C 0.18960 0.64330 0.09490
C24 C 0.41900 0.27410 0.13780
C25 C 0.02920 0.08230 0.11440
H1 H 0.15800 0.38500 0.16100
H2 H 0.37500 0.48900 0.21400
H3 H 0.38200 0.45000 0.12900
H4 H -0.11600 0.21500 0.12100
H5 H -0.09600 0.27500 0.20000
H6 H 0.26600 0.60300 0.28500
H7 H 0.13800 0.77000 0.28800
H8 H 0.03900 0.85200 0.17100
H9 H 0.07900 0.76800 0.04700
H10 H 0.19600 0.61200 0.04000
H11 H -0.00300 0.49000 0.09600
H12 H -0.10900 0.64600 0.04100
H13 H -0.31600 0.64600 0.03500
H14 H -0.41500 0.48600 0.08100
H15 H -0.30100 0.32500 0.13100
H16 H 0.37200 -0.09400 -0.01700
H17 H 0.39900 -0.14400 0.22800
H18 H -0.02000 0.06800 0.06300
H19 H 0.07800 0.01900 0.10700
H20 H -0.01300 0.05600 0.15200
H21 H 0.46700 0.29800 0.18500
H22 H 0.44900 0.32000 0.08900
H23 H 0.43800 0.19400 0.13900
loop_
_geom_bond_atom_site_label_1
_geom_bond_atom_site_label_2
_geom_bond_site_symmetry_1
_geom_bond_site_symmetry_2
O1 N3 1_555 1_555
O2 N3 1_555 1_555
O3 N4 1_555 1_555
O4 N4 1_555 1_555
O5 N5 1_555 1_555
O6 N5 1_555 1_555
N1 C9 1_555 1_555
N2 C8 1_555 1_555
N3 C5 1_555 1_555
N4 C1 1_555 1_555
N5 C3 1_555 1_555
C1 C2 1_555 1_555
C2 C3 1_555 1_555
C3 C4 1_555 1_555
C4 C5 1_555 1_555
C5 C6 1_555 1_555
C6 C1 1_555 1_555
C7 C6 1_555 1_555
C8 C7 1_555 1_555
C9 C7 1_555 1_555
C10 N2 1_555 1_555
C11 N1 1_555 1_555
C12 C10 1_555 1_555
C13 C12 1_555 1_555
C14 C13 1_555 1_555
C15 C14 1_555 1_555
C16 C15 1_555 1_555
C17 C12 1_555 1_555
C18 C11 1_555 1_555
C19 C18 1_555 1_555
C20 C19 1_555 1_555
C21 C20 1_555 1_555
C22 C21 1_555 1_555
C23 C18 1_555 1_555
C24 C9 1_555 1_555
C25 C8 1_555 1_555
H1 N1 1_555 1_555
H2 C11 1_555 1_555
H3 C11 1_555 1_555
H4 C10 1_555 1_555
H5 C10 1_555 1_555
H6 C19 1_555 1_555
H7 C20 1_555 1_555
H8 C21 1_555 1_555
H9 C22 1_555 1_555
H10 C23 1_555 1_555
H11 C13 1_555 1_555
H12 C14 1_555 1_555
H13 C15 1_555 1_555
H14 C16 1_555 1_555
H15 C17 1_555 1_555
H16 C4 1_555 1_555
H17 C2 1_555 1_555
H18 C25 1_555 1_555
H19 C25 1_555 1_555
H20 C25 1_555 1_555
H21 C24 1_555 1_555
H22 C24 1_555 1_555
H23 C24 1_555 1_555
C16 C17 1_555 1_555
C22 C23 1_555 1_555

#END
