
#######################################################################
#
#                 Cambridge Crystallographic Data Centre
#                                CCDC 
#
#######################################################################
#
# If this CIF has been generated from an entry in the Cambridge 
# Structural Database, then it will include bibliographic, chemical, 
# crystal, experimental, refinement or atomic coordinate data resulting 
# from the CCDC's data processing and validation procedures.
#
#######################################################################

data_MRUBFN01
_chemical_compound_source        'Senna obliqua'
_chemical_name_common            Quinquangulin
_chemical_formula_moiety         'C16 H14 O5'
_chemical_name_systematic        
5,6-Dihydroxy-8-methoxy-2,9-dimethyl-4H-naphtho(2,3-b)pyran-4-one
_chemical_properties_biological  
'minimum inhibitory activity against Mycobacteria tuberculosis'
_symmetry_cell_setting           monoclinic
_symmetry_space_group_name_H-M   'P 21/c'
_symmetry_Int_Tables_number      14
_space_group_name_Hall           '-P 2ybc'
loop_
_symmetry_equiv_pos_site_id
_symmetry_equiv_pos_as_xyz
1 x,y,z
2 x,1/2-y,1/2+z
3 -x,-y,-z
4 -x,1/2+y,1/2-z
_cell_length_a                   10.924(2)
_cell_length_b                   8.1390(16)
_cell_length_c                   14.324(3)
_cell_angle_alpha                90
_cell_angle_beta                 99.44(3)
_cell_angle_gamma                90
_cell_volume                     1256.31
_exptl_crystal_colour            red
_exptl_crystal_description       block
_chemical_melting_point          194-195deg.C
_cell_formula_units_Z            4
_exptl_crystal_recrystallization_method methanol
loop_
_atom_site_label
_atom_site_type_symbol
_atom_site_fract_x
_atom_site_fract_y
_atom_site_fract_z
O1 O 0.6135(3) 1.0018(4) 0.2167(2)
H1 H 0.5419 1.0363 0.2199
O2 O 0.2083(3) 1.0330(4) 0.3535(2)
C1 C 0.3822(4) 0.8802(6) 0.4244(3)
O3 O 0.4062(3) 1.0221(4) 0.2845(2)
H2 H 0.3336 1.0486 0.2905
O4 O 0.9381(3) 0.6832(4) 0.3884(2)
C2 C 0.5759(4) 0.8622(5) 0.3601(3)
C3 C 0.7516(4) 0.6988(5) 0.4466(3)
C4 C 0.4360(4) 0.7767(6) 0.5004(3)
C5 C 0.5527(4) 0.7167(6) 0.5082(3)
H3 H 0.5849 0.6476 0.5599
O5 O 0.3667(3) 0.7342(4) 0.5691(2)
C6 C 0.4542(4) 0.9204(5) 0.3560(3)
C7 C 0.7699(4) 0.8426(6) 0.3006(3)
H4 H 0.8191 0.8692 0.2539
C8 C 0.2572(4) 0.9416(5) 0.4193(3)
C9 C 0.6271(4) 0.7574(6) 0.4387(3)
C10 C 0.8198(4) 0.7424(5) 0.3772(3)
C11 C 0.1944(4) 0.8867(5) 0.4944(3)
H5 H 0.1114 0.9212 0.4946
C12 C 0.6529(4) 0.9022(5) 0.2920(3)
C13 C 1.0062(4) 0.7043(6) 0.3124(3)
H6 H 1.0891 0.6563 0.3298
H7 H 1.0139 0.8217 0.2994
H8 H 0.9625 0.6493 0.2557
C14 C 0.1922(4) 0.7266(6) 0.6442(3)
H12 H 0.1066 0.7664 0.6383
H13 H 0.2401 0.7658 0.7039
H14 H 0.1923 0.6062 0.6435
C15 C 0.2488(4) 0.7890(5) 0.5640(3)
C16 C 0.8091(4) 0.5980(6) 0.5311(3)
H15 H 0.8857 0.5468 0.5180
H16 H 0.7507 0.5124 0.5434
H17 H 0.8282 0.6695 0.5866
H9? H 0.9546 0.7619 0.2601
H10? H 1.0298 0.5965 0.2905
H11? H 1.0811 0.7689 0.3342
loop_
_geom_bond_atom_site_label_1
_geom_bond_atom_site_label_2
_geom_bond_site_symmetry_1
_geom_bond_site_symmetry_2
O1 H1 1_555 1_555
O2 C8 1_555 1_555
C1 C4 1_555 1_555
O3 H2 1_555 1_555
O4 C10 1_555 1_555
C2 C6 1_555 1_555
C3 C9 1_555 1_555
C4 C5 1_555 1_555
C5 H3 1_555 1_555
O5 C4 1_555 1_555
C6 C1 1_555 1_555
C7 H4 1_555 1_555
C8 C1 1_555 1_555
C9 C2 1_555 1_555
C10 C3 1_555 1_555
C11 C8 1_555 1_555
H5 C11 1_555 1_555
C12 O1 1_555 1_555
C13 O4 1_555 1_555
H6 C13 1_555 1_555
H7 C13 1_555 1_555
H8 C13 1_555 1_555
C14 H12 1_555 1_555
H13 C14 1_555 1_555
H14 C14 1_555 1_555
C15 O5 1_555 1_555
C16 C3 1_555 1_555
H15 C16 1_555 1_555
H16 C16 1_555 1_555
H17 C16 1_555 1_555
O3 C6 1_555 1_555
C2 C12 1_555 1_555
C5 C9 1_555 1_555
C7 C10 1_555 1_555
C7 C12 1_555 1_555
C11 C15 1_555 1_555
C14 C15 1_555 1_555

#END
