
#######################################################################
#
#                 Cambridge Crystallographic Data Centre
#                                CCDC 
#
#######################################################################
#
# If this CIF has been generated from an entry in the Cambridge 
# Structural Database, then it will include bibliographic, chemical, 
# crystal, experimental, refinement or atomic coordinate data resulting 
# from the CCDC's data processing and validation procedures.
#
#######################################################################

data_MSIMEY
_chemical_formula_moiety         'C10 H24 S2 Si2'
_chemical_name_systematic        
trans-1,2-bis(Trimethylsilyl)-1,2-bis(methylthio)ethylene
_symmetry_cell_setting           triclinic
_symmetry_space_group_name_H-M   'P -1'
_symmetry_Int_Tables_number      2
_space_group_name_Hall           '-P 1'
loop_
_symmetry_equiv_pos_site_id
_symmetry_equiv_pos_as_xyz
1 x,y,z
2 -x,-y,-z
_cell_length_a                   8.909(1)
_cell_length_b                   11.002(2)
_cell_length_c                   8.850(1)
_cell_angle_alpha                96.84(2)
_cell_angle_beta                 110.04(1)
_cell_angle_gamma                97.10(2)
_cell_volume                     796.459
_cell_formula_units_Z            2
loop_
_atom_site_label
_atom_site_type_symbol
_atom_site_fract_x
_atom_site_fract_y
_atom_site_fract_z
S1 S 0.02750 -0.16500 -0.14340
Si1 Si 0.26110 -0.00050 0.19310
C1 C 0.06160 -0.03150 0.01020
C2 C 0.16190 -0.11150 -0.24430
C3 C 0.22450 -0.01250 0.38590
C4 C 0.38490 0.15240 0.20680
C5 C 0.38240 -0.12350 0.17040
C1A C -0.06160 0.03150 -0.01020
S1A S -0.02750 0.16500 0.14340
Si1A Si -0.26110 0.00050 -0.19310
C2A C -0.16190 0.11150 0.24430
C3A C -0.22450 0.01250 -0.38590
C4A C -0.38490 -0.15240 -0.20680
C5A C -0.38240 0.12350 -0.17040
S2 S -0.17760 0.38690 -0.43240
Si2 Si 0.20620 0.43020 -0.29770
C6 C 0.00800 0.46420 -0.44110
C7 C -0.17370 0.46790 -0.24010
C8 C 0.32810 0.36580 -0.41040
C9 C 0.32070 0.57410 -0.14910
C10 C 0.16180 0.30780 -0.18260
C6A C -0.00800 0.53580 -0.55890
S2A S 0.17760 0.61310 -0.56760
Si2A Si -0.20620 0.56980 -0.70230
C7A C 0.17370 0.53210 -0.75990
C8A C -0.32810 0.63420 -0.58960
C9A C -0.32070 0.42590 -0.85090
C10A C -0.16180 0.69220 -0.81740
loop_
_geom_bond_atom_site_label_1
_geom_bond_atom_site_label_2
_geom_bond_site_symmetry_1
_geom_bond_site_symmetry_2
S1 C1 1_555 1_555
Si1 C1 1_555 1_555
C1 C1A 1_555 1_555
C2 S1 1_555 1_555
C3 Si1 1_555 1_555
C4 Si1 1_555 1_555
C5 Si1 1_555 1_555
S2 C6 1_555 1_555
Si2 C6 1_555 1_555
C6 C6A 1_555 1_555
C7 S2 1_555 1_555
C8 Si2 1_555 1_555
C9 Si2 1_555 1_555
C10 Si2 1_555 1_555
C1A S1A 1_555 1_555
S1A C2A 1_555 1_555
Si1A C1A 1_555 1_555
C3A Si1A 1_555 1_555
C4A Si1A 1_555 1_555
C5A Si1A 1_555 1_555
C6A S2A 1_555 1_555
S2A C7A 1_555 1_555
Si2A C6A 1_555 1_555
C8A Si2A 1_555 1_555
C9A Si2A 1_555 1_555
C10A Si2A 1_555 1_555

#END
