
#######################################################################
#
#                 Cambridge Crystallographic Data Centre
#                                CCDC 
#
#######################################################################
#
# If this CIF has been generated from an entry in the Cambridge 
# Structural Database, then it will include bibliographic, chemical, 
# crystal, experimental, refinement or atomic coordinate data resulting 
# from the CCDC's data processing and validation procedures.
#
#######################################################################

data_MSPSIP
_chemical_formula_moiety         'C16 H26 Si1'
_chemical_name_systematic        
Dimethyldispiro(bicyclo(4.1.0)heptane-7,2'-silacyclopropane-3',7''-bicyclo(4.1.0)heptane)
_symmetry_cell_setting           triclinic
_symmetry_space_group_name_H-M   'P -1'
_symmetry_Int_Tables_number      2
_space_group_name_Hall           '-P 1'
loop_
_symmetry_equiv_pos_site_id
_symmetry_equiv_pos_as_xyz
1 x,y,z
2 -x,-y,-z
_cell_length_a                   10.225(6)
_cell_length_b                   14.680(9)
_cell_length_c                   6.544(4)
_cell_angle_alpha                114.82(5)
_cell_angle_beta                 102.52(4)
_cell_angle_gamma                56.58(3)
_cell_volume                     743.996
_cell_formula_units_Z            2
loop_
_atom_site_label
_atom_site_type_symbol
_atom_site_fract_x
_atom_site_fract_y
_atom_site_fract_z
C1 C 0.36770 -0.02820 -0.37110
C2 C 0.08520 0.22760 -0.10800
C3 C 0.00290 0.16290 -0.25680
C4 C 0.21980 0.01220 0.04630
C5 C 0.03480 0.33810 0.10220
C6 C 0.09840 0.32520 -0.10450
C7 C 0.25320 0.31490 -0.09940
C8 C 0.35540 0.28220 0.09530
C9 C 0.26320 0.35590 0.31390
C10 C 0.13510 0.33380 0.31190
C11 C -0.08520 0.16200 -0.47540
C12 C -0.16160 0.18680 -0.26690
C13 C -0.30070 0.30500 -0.15870
C14 C -0.32920 0.40080 -0.23450
C15 C -0.30980 0.36030 -0.47900
C16 C -0.14990 0.25900 -0.56480
H1 H 0.38500 -0.10600 -0.45500
H2 H 0.35000 0.01000 -0.46100
H3 H 0.46700 -0.03900 -0.30700
H4 H -0.08100 0.39700 0.12200
H5 H 0.01400 0.37500 -0.17500
H6 H 0.23200 0.39400 -0.07400
H7 H 0.31400 0.25500 -0.21900
H8 H 0.44500 0.29500 0.11100
H9 H 0.39100 0.20100 0.06900
H10 H 0.21500 0.44300 0.32900
H11 H 0.33700 0.33200 0.43600
H12 H 0.06400 0.39700 0.43800
H13 H 0.18300 0.25500 0.31500
H14 H -0.05000 0.08400 -0.58100
H15 H -0.16600 0.12200 -0.27600
H16 H -0.29700 0.33600 -0.00500
H17 H -0.39600 0.31400 -0.22600
H18 H -0.23700 0.42500 -0.18400
H19 H -0.43800 0.47300 -0.18700
H20 H -0.33500 0.42800 -0.51800
H21 H -0.37800 0.32800 -0.52300
H22 H -0.08200 0.29300 -0.52800
H23 H -0.14700 0.22100 -0.73600
H24 H 0.13400 0.06300 0.12800
H25 H 0.23600 -0.06800 -0.03300
Si1 Si 0.19860 0.06980 -0.17050
loop_
_geom_bond_atom_site_label_1
_geom_bond_atom_site_label_2
_geom_bond_site_symmetry_1
_geom_bond_site_symmetry_2
C1 H1 1_555 1_555
C2 C3 1_555 1_555
C3 C11 1_555 1_555
C4 H24 1_555 1_555
C5 C2 1_555 1_555
C6 C2 1_555 1_555
C7 C6 1_555 1_555
C8 C7 1_555 1_555
C9 C8 1_555 1_555
C10 C5 1_555 1_555
C11 C12 1_555 1_555
C12 C3 1_555 1_555
C13 C12 1_555 1_555
C14 C13 1_555 1_555
C15 C14 1_555 1_555
C16 C11 1_555 1_555
H2 C1 1_555 1_555
H3 C1 1_555 1_555
H4 C5 1_555 1_555
H5 C6 1_555 1_555
H6 C7 1_555 1_555
H7 C7 1_555 1_555
H8 C8 1_555 1_555
H9 C8 1_555 1_555
H10 C9 1_555 1_555
H11 C9 1_555 1_555
H12 C10 1_555 1_555
H13 C10 1_555 1_555
H14 C11 1_555 1_555
H15 C12 1_555 1_555
H16 C13 1_555 1_555
H17 C13 1_555 1_555
H18 C14 1_555 1_555
H19 C14 1_555 1_555
H20 C15 1_555 1_555
H21 C15 1_555 1_555
H22 C16 1_555 1_555
H23 C16 1_555 1_555
H25 C4 1_555 1_555
Si1 C1 1_555 1_555
C2 Si1 1_555 1_555
C3 Si1 1_555 1_555
C4 Si1 1_555 1_555
C5 C6 1_555 1_555
C9 C10 1_555 1_555
C15 C16 1_555 1_555

#END
