
#######################################################################
#
#                 Cambridge Crystallographic Data Centre
#                                CCDC 
#
#######################################################################
#
# If this CIF has been generated from an entry in the Cambridge 
# Structural Database, then it will include bibliographic, chemical, 
# crystal, experimental, refinement or atomic coordinate data resulting 
# from the CCDC's data processing and validation procedures.
#
#######################################################################

data_MSULIN04
_chemical_formula_moiety         'C11 H10 O2 S1'
_chemical_name_systematic        2-Dimethylsulfuranylidene-1,3-indanedione
_symmetry_cell_setting           monoclinic
_symmetry_space_group_name_H-M   'P 21/c'
_symmetry_Int_Tables_number      14
_space_group_name_Hall           '-P 2ybc'
loop_
_symmetry_equiv_pos_site_id
_symmetry_equiv_pos_as_xyz
1 x,y,z
2 -x,1/2+y,1/2-z
3 -x,-y,-z
4 x,1/2-y,1/2+z
_cell_length_a                   9.447(7)
_cell_length_b                   10.633(9)
_cell_length_c                   10.484(8)
_cell_angle_alpha                90
_cell_angle_beta                 104.92(6)
_cell_angle_gamma                90
_cell_volume                     1017.61
_exptl_crystal_colour            yellow
_exptl_crystal_description       plate
_cell_formula_units_Z            4
loop_
_atom_site_label
_atom_site_type_symbol
_atom_site_fract_x
_atom_site_fract_y
_atom_site_fract_z
S1 S 0.43306(3) 0.23218(3) 0.13737(3)
O1 O 0.23262(10) 0.32280(9) -0.14970(9)
O2 O 0.37335(11) 0.47675(9) 0.28891(9)
C1 C 0.24659(13) 0.38771(12) -0.04984(12)
C2 C 0.55344(15) 0.22053(12) 0.03007(13)
H1 H 0.615(2) 0.2940(18) 0.0489(18)
H2 H 0.614(2) 0.149(2) 0.0606(19)
H3 H 0.498(2) 0.2194(17) -0.0529(19)
C3 C 0.31315(15) 0.10112(12) 0.08048(13)
H4 H 0.2412(19) 0.0998(17) 0.1281(17)
H5 H 0.2725(19) 0.1054(17) -0.0157(18)
H6 H 0.373(2) 0.0268(18) 0.1027(17)
C4 C 0.32952(13) 0.36310(11) 0.08279(12)
C5 C 0.31711(13) 0.46433(11) 0.16990(12)
C6 C 0.21850(13) 0.55905(11) 0.08410(12)
C7 C 0.16968(14) 0.67436(12) 0.11697(13)
H7 H 0.199(2) 0.7042(18) 0.2082(19)
C8 C 0.07651(15) 0.74409(13) 0.01666(15)
H8 H 0.041(2) 0.8257(19) 0.0387(18)
C9 C 0.03305(15) 0.69896(13) -0.11208(14)
H9 H -0.027(2) 0.7495(17) -0.174(2)
C10 C 0.08356(14) 0.58206(13) -0.14423(13)
H10 H 0.055(2) 0.5497(18) -0.2299(18)
C11 C 0.17603(13) 0.51406(12) -0.04499(12)
loop_
_geom_bond_atom_site_label_1
_geom_bond_atom_site_label_2
_geom_bond_site_symmetry_1
_geom_bond_site_symmetry_2
S1 C2 1_555 1_555
O1 C1 1_555 1_555
O2 C5 1_555 1_555
C1 C4 1_555 1_555
C2 H1 1_555 1_555
H2 C2 1_555 1_555
H3 C2 1_555 1_555
C3 S1 1_555 1_555
H4 C3 1_555 1_555
H5 C3 1_555 1_555
H6 C3 1_555 1_555
C4 S1 1_555 1_555
C5 C4 1_555 1_555
C6 C5 1_555 1_555
C7 C6 1_555 1_555
H7 C7 1_555 1_555
C8 C7 1_555 1_555
H8 C8 1_555 1_555
C9 C8 1_555 1_555
H9 C9 1_555 1_555
C10 C9 1_555 1_555
H10 C10 1_555 1_555
C11 C1 1_555 1_555
C6 C11 1_555 1_555
C10 C11 1_555 1_555

#END
