
#######################################################################
#
#                 Cambridge Crystallographic Data Centre
#                                CCDC 
#
#######################################################################
#
# If this CIF has been generated from an entry in the Cambridge 
# Structural Database, then it will include bibliographic, chemical, 
# crystal, experimental, refinement or atomic coordinate data resulting 
# from the CCDC's data processing and validation procedures.
#
#######################################################################

data_MSULIN02
_chemical_formula_moiety         'C11 H10 O2 S1'
_chemical_name_systematic        2-Dimethylsulfuranylidene-1,3-indanedione
_symmetry_cell_setting           orthorhombic
_symmetry_space_group_name_H-M   'P 21 21 21'
_symmetry_Int_Tables_number      19
_space_group_name_Hall           'P 2ac 2ab'
loop_
_symmetry_equiv_pos_site_id
_symmetry_equiv_pos_as_xyz
1 x,y,z
2 1/2-x,-y,1/2+z
3 1/2+x,1/2-y,-z
4 -x,1/2+y,1/2-z
_cell_length_a                   5.8524(15)
_cell_length_b                   8.934(2)
_cell_length_c                   18.341(5)
_cell_angle_alpha                90
_cell_angle_beta                 90
_cell_angle_gamma                90
_cell_volume                     958.965
_exptl_crystal_colour            yellow
_exptl_crystal_description       sphere
_cell_formula_units_Z            4
loop_
_atom_site_label
_atom_site_type_symbol
_atom_site_fract_x
_atom_site_fract_y
_atom_site_fract_z
S1 S 0.68840(5) 0.18698(3) 0.759468(16)
O1 O 1.17604(17) 0.30511(10) 0.82193(5)
O2 O 0.65463(19) -0.08957(10) 0.87044(5)
C1 C 1.0749(2) 0.19769(15) 0.84962(7)
C2 C 0.6727(3) 0.38605(15) 0.77085(8)
H1 H 0.593(3) 0.401(2) 0.8165(11)
H2 H 0.590(3) 0.419(2) 0.7294(10)
H3 H 0.813(4) 0.420(2) 0.7721(10)
C3 C 0.8490(3) 0.17839(18) 0.67579(7)
H4 H 0.866(4) 0.076(2) 0.6629(11)
H5 H 1.000(3) 0.221(2) 0.6840(10)
H6 H 0.760(4) 0.228(2) 0.6436(10)
C4 C 0.8673(2) 0.12619(15) 0.82755(7)
C5 C 0.8112(2) 0.00184(14) 0.87427(7)
C6 C 0.9943(2) 0.00239(16) 0.93227(7)
C7 C 1.0173(3) -0.08755(16) 0.99318(8)
H7 H 0.914(3) -0.1625(19) 1.0037(9)
C8 C 1.2056(3) -0.06141(16) 1.03880(7)
H8 H 1.227(3) -0.124(2) 1.0819(10)
C9 C 1.3618(3) 0.05077(17) 1.02329(8)
H9 H 1.494(3) 0.061(2) 1.0536(10)
C10 C 1.3362(3) 0.14254(16) 0.96188(7)
H10 H 1.443(3) 0.2217(18) 0.9528(9)
C11 C 1.1502(3) 0.11584(15) 0.91725(7)
loop_
_geom_bond_atom_site_label_1
_geom_bond_atom_site_label_2
_geom_bond_site_symmetry_1
_geom_bond_site_symmetry_2
S1 C2 1_555 1_555
O1 C1 1_555 1_555
O2 C5 1_555 1_555
C1 C4 1_555 1_555
C2 H1 1_555 1_555
H2 C2 1_555 1_555
H3 C2 1_555 1_555
C3 S1 1_555 1_555
H4 C3 1_555 1_555
H5 C3 1_555 1_555
H6 C3 1_555 1_555
C4 S1 1_555 1_555
C5 C4 1_555 1_555
C6 C5 1_555 1_555
C7 C6 1_555 1_555
H7 C7 1_555 1_555
C8 C7 1_555 1_555
H8 C8 1_555 1_555
C9 C8 1_555 1_555
H9 C9 1_555 1_555
C10 C9 1_555 1_555
H10 C10 1_555 1_555
C11 C1 1_555 1_555
C6 C11 1_555 1_555
C10 C11 1_555 1_555

#END
