
#######################################################################
#
#                 Cambridge Crystallographic Data Centre
#                                CCDC 
#
#######################################################################
#
# If this CIF has been generated from an entry in the Cambridge 
# Structural Database, then it will include bibliographic, chemical, 
# crystal, experimental, refinement or atomic coordinate data resulting 
# from the CCDC's data processing and validation procedures.
#
#######################################################################

data_MSULIN03
_chemical_formula_moiety         'C11 H10 O2 S1'
_chemical_name_systematic        2-Dimethylsulfuranylidene-1,3-indanedione
_symmetry_cell_setting           monoclinic
_symmetry_space_group_name_H-M   'P 21/c'
_symmetry_Int_Tables_number      14
_space_group_name_Hall           '-P 2ybc'
loop_
_symmetry_equiv_pos_site_id
_symmetry_equiv_pos_as_xyz
1 x,y,z
2 -x,1/2+y,1/2-z
3 -x,-y,-z
4 x,1/2-y,1/2+z
_cell_length_a                   9.783(5)
_cell_length_b                   10.484(4)
_cell_length_c                   10.594(8)
_cell_angle_alpha                90
_cell_angle_beta                 105.34(5)
_cell_angle_gamma                90
_cell_volume                     1047.86
_exptl_crystal_colour            yellow
_exptl_crystal_description       plate
_cell_formula_units_Z            4
loop_
_atom_site_label
_atom_site_type_symbol
_atom_site_fract_x
_atom_site_fract_y
_atom_site_fract_z
S1 S 0.42991(3) 0.23763(3) 0.13498(3)
O1 O 0.22868(12) 0.32595(12) -0.14801(10)
O2 O 0.37170(13) 0.48454(10) 0.28443(10)
C1 C 0.24246(14) 0.39196(14) -0.04940(13)
C2 C 0.54343(19) 0.22661(17) 0.02705(19)
H1 H 0.599(2) 0.303(2) 0.051(2)
H2 H 0.607(2) 0.154(2) 0.062(2)
H3 H 0.485(3) 0.2259(19) -0.055(2)
C3 C 0.31657(18) 0.10236(15) 0.08227(18)
H4 H 0.250(2) 0.1020(19) 0.1339(19)
H5 H 0.272(2) 0.106(2) -0.011(2)
H6 H 0.376(2) 0.028(2) 0.1105(19)
C4 C 0.32589(14) 0.36872(13) 0.08137(13)
C5 C 0.31459(14) 0.47096(13) 0.16688(13)
C6 C 0.21626(14) 0.56602(13) 0.08264(13)
C7 C 0.17009(17) 0.68238(16) 0.11498(18)
H7 H 0.197(2) 0.7155(19) 0.203(2)
C8 C 0.0775(2) 0.75133(18) 0.0154(2)
H8 H 0.046(2) 0.833(2) 0.038(2)
C9 C 0.03308(19) 0.70458(19) -0.1095(2)
H9 H -0.023(2) 0.7503(18) -0.170(2)
C10 C 0.08042(16) 0.58688(19) -0.14164(16)
H10 H 0.0503(18) 0.5509(18) -0.2257(19)
C11 C 0.17266(14) 0.51880(14) -0.04431(13)
loop_
_geom_bond_atom_site_label_1
_geom_bond_atom_site_label_2
_geom_bond_site_symmetry_1
_geom_bond_site_symmetry_2
S1 C2 1_555 1_555
O1 C1 1_555 1_555
O2 C5 1_555 1_555
C1 C4 1_555 1_555
C2 H1 1_555 1_555
H2 C2 1_555 1_555
H3 C2 1_555 1_555
C3 S1 1_555 1_555
H4 C3 1_555 1_555
H5 C3 1_555 1_555
H6 C3 1_555 1_555
C4 S1 1_555 1_555
C5 C4 1_555 1_555
C6 C5 1_555 1_555
C7 C6 1_555 1_555
H7 C7 1_555 1_555
C8 C7 1_555 1_555
H8 C8 1_555 1_555
C9 C8 1_555 1_555
H9 C9 1_555 1_555
C10 C9 1_555 1_555
H10 C10 1_555 1_555
C11 C1 1_555 1_555
C6 C11 1_555 1_555
C10 C11 1_555 1_555

#END
