
#######################################################################
#
#                 Cambridge Crystallographic Data Centre
#                                CCDC 
#
#######################################################################
#
# If this CIF has been generated from an entry in the Cambridge 
# Structural Database, then it will include bibliographic, chemical, 
# crystal, experimental, refinement or atomic coordinate data resulting 
# from the CCDC's data processing and validation procedures.
#
#######################################################################

data_MTHOPH02
_chemical_name_common            2,5-Dimethyl-6a-thiathiophthene
_chemical_formula_moiety         'C7 H8 S3'
_chemical_name_systematic        
2,5-Dimethyl(1,2)dithiolo(1,5-b)(1,2)dithiole-7-S^iv^
_symmetry_cell_setting           orthorhombic
_symmetry_space_group_name_H-M   'P n m a'
_symmetry_Int_Tables_number      62
_space_group_name_Hall           '-P 2ac 2n'
loop_
_symmetry_equiv_pos_site_id
_symmetry_equiv_pos_as_xyz
1 x,y,z
2 1/2-x,1/2+y,1/2+z
3 x,1/2-y,z
4 1/2-x,-y,1/2+z
5 -x,-y,-z
6 1/2+x,1/2-y,1/2-z
7 -x,1/2+y,-z
8 1/2+x,y,1/2-z
_cell_length_a                   7.596(4)
_cell_length_b                   19.920(7)
_cell_length_c                   5.361(2)
_cell_angle_alpha                90
_cell_angle_beta                 90
_cell_angle_gamma                90
_cell_volume                     811.185
_exptl_crystal_colour            orange
_cell_formula_units_Z            4
loop_
_atom_site_label
_atom_site_type_symbol
_atom_site_fract_x
_atom_site_fract_y
_atom_site_fract_z
S1 S 0.47308(6) 0.75000 0.21236(8)
S2 S 0.46984(5) 0.632043(14) 0.20362(6)
C1 C 0.34680(22) 0.75000 -0.0583(3)
C2 C 0.29730(16) 0.68822(6) -0.16512(24)
C3 C 0.34649(16) 0.62860(6) -0.05934(24)
C4 C 0.29201(20) 0.56236(6) -0.1674(3)
H1 H 0.2225(18) 0.6882(6) -0.315(3)
H2 H 0.2490(21) 0.569(7) -0.335(3)
H3 H 0.3812(18) 0.5319(6) -0.153(3)
H4 H 0.1900(19) 0.5452(7) -0.080(3)
S2B S 0.46984(5) 0.867957(14) 0.20362(6)
C2B C 0.29730(16) 0.81178(6) -0.16512(24)
C3B C 0.34649(16) 0.87140(6) -0.05934(24)
H1B H 0.2225(18) 0.8118(6) -0.315(3)
C4B C 0.29201(20) 0.93764(6) -0.1674(3)
H2B H 0.2490(21) 0.931(7) -0.335(3)
H3B H 0.3812(18) 0.9681(6) -0.153(3)
H4B H 0.1900(19) 0.9548(7) -0.080(3)
loop_
_geom_bond_atom_site_label_1
_geom_bond_atom_site_label_2
_geom_bond_site_symmetry_1
_geom_bond_site_symmetry_2
S1 S2 1_555 1_555
S2 C3 1_555 1_555
C1 S1 1_555 1_555
C2 C1 1_555 1_555
C3 C2 1_555 1_555
C4 C3 1_555 1_555
H1 C2 1_555 1_555
H2 C4 1_555 1_555
H3 C4 1_555 1_555
H4 C4 1_555 1_555
S2B S1 1_555 1_555
C2B C1 1_555 1_555
C3B S2B 1_555 1_555
H1B C2B 1_555 1_555
C4B C3B 1_555 1_555
H2B C4B 1_555 1_555
H3B C4B 1_555 1_555
H4B C4B 1_555 1_555
C2B C3B 1_555 1_555

#END
