
#######################################################################
#
#                 Cambridge Crystallographic Data Centre
#                                CCDC 
#
#######################################################################
#
# If this CIF has been generated from an entry in the Cambridge 
# Structural Database, then it will include bibliographic, chemical, 
# crystal, experimental, refinement or atomic coordinate data resulting 
# from the CCDC's data processing and validation procedures.
#
#######################################################################

data_MTZPCX
_chemical_formula_moiety         'C9 H12 N4 O1'
_chemical_name_systematic        
2-(3,3-Dimethyl-1-triazeno)phenyl-1-carboxamide
_symmetry_cell_setting           monoclinic
_symmetry_space_group_name_H-M   'P 21/c'
_symmetry_Int_Tables_number      14
_space_group_name_Hall           '-P 2ybc'
loop_
_symmetry_equiv_pos_site_id
_symmetry_equiv_pos_as_xyz
1 x,y,z
2 -x,1/2+y,1/2-z
3 -x,-y,-z
4 x,1/2-y,1/2+z
_cell_length_a                   9.444(5)
_cell_length_b                   7.085(4)
_cell_length_c                   16.005(7)
_cell_angle_alpha                90
_cell_angle_beta                 108.08(4)
_cell_angle_gamma                90
_cell_volume                     1018.03
_cell_formula_units_Z            4
loop_
_atom_site_label
_atom_site_type_symbol
_atom_site_fract_x
_atom_site_fract_y
_atom_site_fract_z
C1 C 0.25140 0.35000 0.28760
C2 C 0.10010 0.34900 0.24780
C3 C 0.04140 0.37600 0.15690
C4 C 0.13560 0.39700 0.10810
C5 C 0.28970 0.40000 0.14670
C6 C 0.34750 0.38000 0.23760
N1 N 0.50540 0.38710 0.27780
N2 N 0.54030 0.41150 0.36110
N3 N 0.68430 0.41460 0.40030
C7 C 0.79390 0.39200 0.35500
C8 C 0.73030 0.45000 0.49460
C9 C 0.37710 0.43200 0.08390
O1 O 0.31000 0.46240 0.00520
N4 N 0.52550 0.42690 0.11350
H1 H 0.29500 0.33400 0.35100
H2 H 0.03100 0.33300 0.28100
H3 H -0.06600 0.37900 0.12900
H4 H 0.09000 0.40700 0.04500
H5 H 0.80300 0.51000 0.32700
H6 H 0.76100 0.29300 0.31100
H7 H 0.88800 0.35800 0.39700
H8 H 0.64300 0.45800 0.51400
H9 H 0.78500 0.56700 0.50700
H10 H 0.79300 0.34700 0.52500
H11 H 0.55600 0.42400 0.17900
H12 H 0.57800 0.41800 0.07800
loop_
_geom_bond_atom_site_label_1
_geom_bond_atom_site_label_2
_geom_bond_site_symmetry_1
_geom_bond_site_symmetry_2
C1 C2 1_555 1_555
C2 C3 1_555 1_555
C3 C4 1_555 1_555
C4 C5 1_555 1_555
C5 C6 1_555 1_555
C6 C1 1_555 1_555
N1 C6 1_555 1_555
N2 N1 1_555 1_555
N3 N2 1_555 1_555
C7 N3 1_555 1_555
C8 N3 1_555 1_555
C9 C5 1_555 1_555
O1 C9 1_555 1_555
N4 C9 1_555 1_555
H1 C1 1_555 1_555
H2 C2 1_555 1_555
H3 C3 1_555 1_555
H4 C4 1_555 1_555
H5 C7 1_555 1_555
H6 C7 1_555 1_555
H7 C7 1_555 1_555
H8 C8 1_555 1_555
H9 C8 1_555 1_555
H10 C8 1_555 1_555
H11 N4 1_555 1_555
H12 N4 1_555 1_555

#END
