
#######################################################################
#
#                 Cambridge Crystallographic Data Centre
#                                CCDC 
#
#######################################################################
#
# If this CIF has been generated from an entry in the Cambridge 
# Structural Database, then it will include bibliographic, chemical, 
# crystal, experimental, refinement or atomic coordinate data resulting 
# from the CCDC's data processing and validation procedures.
#
#######################################################################

data_MUBCUI
_chemical_formula_moiety         'C16 H19 N4 O2 1+,F6 P1 1-'
_chemical_name_systematic        
'2-((6-Oxo-6-(pyridin-2-ylamino)hexanoyl)amino)pyridinium hexafluorophosphate'
_symmetry_cell_setting           monoclinic
_symmetry_space_group_name_H-M   'P 21/c'
_symmetry_Int_Tables_number      14
_space_group_name_Hall           '-P 2ybc'
loop_
_symmetry_equiv_pos_site_id
_symmetry_equiv_pos_as_xyz
1 x,y,z
2 -x,1/2+y,1/2-z
3 -x,-y,-z
4 x,1/2-y,1/2+z
_cell_length_a                   6.2119(18)
_cell_length_b                   12.9265(11)
_cell_length_c                   11.439(2)
_cell_angle_alpha                90
_cell_angle_beta                 96.415(10)
_cell_angle_gamma                90
_cell_volume                     912.779
_exptl_crystal_colour            colorless
_exptl_crystal_description       plate
_cell_formula_units_Z            2
_exptl_crystal_recrystallization_method dichloromethane
loop_
_atom_site_label
_atom_site_type_symbol
_atom_site_fract_x
_atom_site_fract_y
_atom_site_fract_z
O1 O -0.9562(3) -0.16414(14) -0.01248(14)
N1 N -1.2814(3) -0.26186(14) -0.14024(15)
H1 H -1.1777 -0.2752 -0.0861
N2 N -1.0760(3) -0.12150(15) -0.20013(15)
H2 H -1.0473 -0.0858 -0.2599
C1 C -1.4629(4) -0.32123(18) -0.1488(2)
H3 H -1.4739 -0.3749 -0.0957
C2 C -1.6283(4) -0.30293(19) -0.2341(2)
H4 H -1.7533 -0.3430 -0.2392
C3 C -1.6078(4) -0.22297(19) -0.3140(2)
H5 H -1.7187 -0.2102 -0.3739
C4 C -1.4248(4) -0.16336(18) -0.30451(18)
H6 H -1.4107 -0.1102 -0.3579
C5 C -1.2600(3) -0.18256(16) -0.21465(17)
C6 C -0.9348(4) -0.11249(17) -0.09912(19)
C7 C -0.7610(4) -0.03259(18) -0.10327(19)
H7 H -0.6944 -0.0409 -0.1755
H8 H -0.8257 0.0357 -0.1041
C8 C -0.5876(4) -0.04088(18) 0.0011(2)
H9 H -0.5216 -0.1089 0.0012
H10 H -0.6549 -0.0339 0.0733
O1B O -0.0438(3) 0.16414(14) 0.01248(14)
N1B N 0.2814(3) 0.26186(14) 0.14024(15)
H1B H 0.1777 0.2752 0.0861
N2B N 0.0760(3) 0.12150(15) 0.20013(15)
H2B H 0.0473 0.0858 0.2599
C1B C 0.4629(4) 0.32123(18) 0.1488(2)
H3B H 0.4739 0.3749 0.0957
C2B C 0.6283(4) 0.30293(19) 0.2341(2)
H4B H 0.7533 0.3430 0.2392
C3B C 0.6078(4) 0.22297(19) 0.3140(2)
H5B H 0.7187 0.2102 0.3739
C4B C 0.4248(4) 0.16336(18) 0.30451(18)
H6B H 0.4107 0.1102 0.3579
C5B C 0.2600(3) 0.18256(16) 0.21465(17)
C6B C -0.0652(4) 0.11249(17) 0.09912(19)
C7B C -0.2390(4) 0.03259(18) 0.10327(19)
H7B H -0.3056 0.0409 0.1755
H8B H -0.1743 -0.0357 0.1041
C8B C -0.4124(4) 0.04088(18) -0.0011(2)
H9B H -0.4784 0.1089 -0.0012
H10B H -0.3451 0.0339 -0.0733
P1 P 0.0000 0.5000 0.0000
F1 F -0.0589(2) 0.62327(9) 0.03443(10)
F2 F -0.2624(2) 0.47210(12) -0.01505(15)
F3 F 0.0162(3) 0.46770(11) 0.14390(11)
F1B F 0.0589(2) 0.37673(9) -0.03443(10)
F2B F 0.2624(2) 0.52790(12) 0.01505(15)
F3B F -0.0162(3) 0.53230(11) -0.14390(11)
loop_
_geom_bond_atom_site_label_1
_geom_bond_atom_site_label_2
_geom_bond_site_symmetry_1
_geom_bond_site_symmetry_2
P1 F1 1_555 1_555
F2 P1 1_555 1_555
F3 P1 1_555 1_555
O1 C6 1_555 1_555
N1 H1 1_555 1_555
N2 H2 1_555 1_555
C1 N1 1_555 1_555
H3 C1 1_555 1_555
C2 C1 1_555 1_555
H4 C2 1_555 1_555
C3 C2 1_555 1_555
H5 C3 1_555 1_555
C4 C3 1_555 1_555
H6 C4 1_555 1_555
C5 N1 1_555 1_555
C6 N2 1_555 1_555
C7 C6 1_555 1_555
H7 C7 1_555 1_555
H8 C7 1_555 1_555
C8 C7 1_555 1_555
H9 C8 1_555 1_555
H10 C8 1_555 1_555
F1B P1 1_555 1_555
F2B P1 1_555 1_555
F3B P1 1_555 1_555
O1B C6B 1_555 1_555
N1B H1B 1_555 1_555
N2B H2B 1_555 1_555
C1B N1B 1_555 1_555
H3B C1B 1_555 1_555
C2B C1B 1_555 1_555
H4B C2B 1_555 1_555
C3B C2B 1_555 1_555
H5B C3B 1_555 1_555
C4B C3B 1_555 1_555
H6B C4B 1_555 1_555
C5B N1B 1_555 1_555
C6B N2B 1_555 1_555
C7B C6B 1_555 1_555
H7B C7B 1_555 1_555
H8B C7B 1_555 1_555
C8B C8 1_555 1_555
H9B C8B 1_555 1_555
H10B C8B 1_555 1_555
N2 C5 1_555 1_555
C4 C5 1_555 1_555
N2B C5B 1_555 1_555
C4B C5B 1_555 1_555
C7B C8B 1_555 1_555

#END
