
#######################################################################
#
#                 Cambridge Crystallographic Data Centre
#                                CCDC 
#
#######################################################################
#
# If this CIF has been generated from an entry in the Cambridge 
# Structural Database, then it will include bibliographic, chemical, 
# crystal, experimental, refinement or atomic coordinate data resulting 
# from the CCDC's data processing and validation procedures.
#
#######################################################################

data_MUBDIY
_chemical_formula_moiety         'C96 H68 O6 Si4,0.41(H2 O1)'
_chemical_name_systematic        
"tetrakis(\m~2~-oxido)-bis(4,6-diphenyl-2,2'-biphenyl)-bis(2-(1,1':3',1''-terphenyl-5'-yl)phenyl)-bis(hydroxo)-tetra-silicon hydrate"
_symmetry_cell_setting           triclinic
_symmetry_space_group_name_H-M   'P -1'
_symmetry_Int_Tables_number      2
_space_group_name_Hall           '-P 1'
loop_
_symmetry_equiv_pos_site_id
_symmetry_equiv_pos_as_xyz
1 x,y,z
2 -x,-y,-z
_cell_length_a                   10.7401(2)
_cell_length_b                   12.3839(2)
_cell_length_c                   15.3414(2)
_cell_angle_alpha                109.8140(9)
_cell_angle_beta                 107.0677(9)
_cell_angle_gamma                90.9332(10)
_cell_volume                     1819.86
_exptl_crystal_colour            'light colorless'
_exptl_crystal_description       block
_cell_formula_units_Z            1
_exptl_crystal_preparation       '0.094 x 0.0095 x 0.0062'
loop_
_atom_site_label
_atom_site_type_symbol
_atom_site_fract_x
_atom_site_fract_y
_atom_site_fract_z
Si1 Si 0.18024(5) 0.60242(5) 0.01637(4)
Si2 Si 0.07147(5) 0.52260(5) 0.16058(4)
O1 O 0.13604(14) 0.57842(12) 0.10055(10)
O2 O 0.05791(14) 0.56528(12) -0.08421(10)
O3 O 0.29924(16) 0.52788(14) -0.00161(12)
C1 C 0.0349(2) 0.62425(18) 0.26857(14)
C2 C 0.1025(2) 0.59592(18) 0.35094(15)
C3 C 0.3361(2) 0.83996(18) 0.32129(15)
H1 H 0.2838 0.9013 0.3313
C4 C 0.2265(2) 0.76136(17) 0.05420(15)
C5 C 0.0827(2) 0.64919(19) 0.44047(15)
H2 H 0.1276 0.6282 0.4945
C6 C 0.3930(2) 0.80116(19) 0.39747(16)
C7 C -0.0519(2) 0.70691(18) 0.27945(15)
C8 C 0.1925(2) 0.50617(18) 0.33338(15)
C9 C 0.4317(2) 0.69983(18) 0.21591(15)
H3 H 0.4446 0.6653 0.1542
C10 C 0.5743(2) 0.56475(19) 0.27538(16)
C11 C 0.3551(2) 0.78976(18) 0.22994(15)
C12 C -0.1311(2) 0.73778(17) 0.19588(14)
C13 C 0.4900(2) 0.65944(19) 0.29118(16)
C14 C -0.0021(2) 0.73300(18) 0.45190(15)
C15 C -0.0216(2) 0.79017(19) 0.54843(15)
C16 C 0.1900(2) 0.45483(18) 0.23503(15)
C17 C -0.2634(2) 0.74279(19) 0.17867(15)
H4 H -0.3048 0.7242 0.2195
C18 C -0.0712(2) 0.76471(18) 0.13421(15)
H5 H 0.0201 0.7612 0.1449
C19 C 0.2721(2) 0.37272(19) 0.21121(16)
H6 H 0.2701 0.3379 0.1452
C20 C 0.2775(2) 0.4739(2) 0.40483(15)
H7 H 0.2796 0.5081 0.4709
C21 C -0.0677(2) 0.76139(18) 0.37138(15)
H8 H -0.1248 0.8193 0.3788
C22 C 0.3726(2) 0.85713(19) 0.49475(15)
C23 C -0.3384(2) 0.7749(2) 0.10176(16)
H9 H -0.4298 0.7781 0.0909
C24 C -0.0264(2) 0.7271(2) 0.60822(16)
H10 H -0.0195 0.6466 0.5865
C25 C 0.1761(2) 0.81144(19) -0.01607(16)
H11 H 0.1285 0.7628 -0.0811
C26 C 0.2960(2) 0.83479(18) 0.15026(15)
C27 C 0.4696(2) 0.71138(19) 0.38122(15)
H12 H 0.5092 0.6847 0.4329
C28 C -0.0415(2) 0.7830(2) 0.70054(17)
H13 H -0.0451 0.7400 0.7408
C29 C 0.3391(2) 1.0237(2) 0.61921(17)
H14 H 0.3295 1.1037 0.6417
C30 C -0.1450(2) 0.79642(19) 0.05773(16)
H15 H -0.1042 0.8144 0.0163
C31 C 0.2608(3) 1.00233(19) 0.10174(17)
H16 H 0.2722 1.0838 0.1182
C32 C -0.2790(2) 0.8017(2) 0.04199(16)
H17 H -0.3293 0.8239 -0.0099
C33 C 0.3114(2) 0.95495(19) 0.17292(16)
H18 H 0.3572 1.0047 0.2380
C34 C 0.7623(2) 0.4753(2) 0.33606(18)
H19 H 0.8368 0.4756 0.3882
C35 C 0.5467(2) 0.4757(2) 0.18311(16)
H20 H 0.4737 0.4759 0.1301
C36 C 0.6251(2) 0.3885(2) 0.16957(18)
H21 H 0.6048 0.3284 0.1074
C37 C 0.3582(2) 0.3406(2) 0.28369(17)
H22 H 0.4148 0.2844 0.2673
C38 C 0.3599(2) 0.3918(2) 0.38000(17)
H23 H 0.4182 0.3702 0.4295
C39 C 0.7339(2) 0.3874(2) 0.24580(19)
H24 H 0.7878 0.3272 0.2359
C40 C -0.0512(2) 0.8991(2) 0.73255(16)
H25 H -0.0596 0.9368 0.7954
C41 C -0.0362(2) 0.9082(2) 0.58176(16)
H26 H -0.0375 0.9514 0.5409
C42 C 0.1938(2) 0.9309(2) 0.00686(17)
H27 H 0.1602 0.9628 -0.0423
C43 C -0.0486(2) 0.9621(2) 0.67261(18)
H28 H -0.0555 1.0426 0.6948
C44 C 0.3516(2) 0.8446(2) 0.64459(17)
H29 H 0.3492 0.8001 0.6840
C45 C 0.3564(2) 0.9725(2) 0.52811(17)
H30 H 0.3571 1.0175 0.4888
C46 C 0.3355(2) 0.9610(2) 0.67672(17)
H31 H 0.3221 0.9967 0.7381
C47 C 0.6830(2) 0.5632(2) 0.35160(16)
H32 H 0.7031 0.6223 0.4143
C48 C 0.3711(2) 0.7932(2) 0.55447(16)
H33 H 0.3836 0.7138 0.5332
H34 H 0.292(3) 0.485(3) -0.050(2)
Si1A Si -0.18024(5) 0.39758(5) -0.01637(4)
Si2A Si -0.07147(5) 0.47740(5) -0.16058(4)
O1A O -0.13604(14) 0.42158(12) -0.10055(10)
O2A O -0.05791(14) 0.43472(12) 0.08421(10)
O3A O -0.29924(16) 0.47212(14) 0.00161(12)
C1A C -0.0349(2) 0.37575(18) -0.26857(14)
C2A C -0.1025(2) 0.40408(18) -0.35094(15)
C3A C -0.3361(2) 0.16004(18) -0.32129(15)
H1A H -0.2838 0.0987 -0.3313
C4A C -0.2265(2) 0.23864(17) -0.05420(15)
C5A C -0.0827(2) 0.35081(19) -0.44047(15)
H2A H -0.1276 0.3718 -0.4945
C6A C -0.3930(2) 0.19884(19) -0.39747(16)
C7A C 0.0519(2) 0.29309(18) -0.27945(15)
C8A C -0.1925(2) 0.49383(18) -0.33338(15)
C9A C -0.4317(2) 0.30017(18) -0.21591(15)
H3A H -0.4446 0.3347 -0.1542
C10A C -0.5743(2) 0.43525(19) -0.27538(16)
C11A C -0.3551(2) 0.21024(18) -0.22994(15)
C12A C 0.1311(2) 0.26222(17) -0.19588(14)
C13A C -0.4900(2) 0.34056(19) -0.29118(16)
C14A C 0.0021(2) 0.26700(18) -0.45190(15)
C15A C 0.0216(2) 0.20983(19) -0.54843(15)
C16A C -0.1900(2) 0.54517(18) -0.23503(15)
C17A C 0.2634(2) 0.25721(19) -0.17867(15)
H4A H 0.3048 0.2758 -0.2195
C18A C 0.0712(2) 0.23529(18) -0.13421(15)
H5A H -0.0201 0.2388 -0.1449
C19A C -0.2721(2) 0.62728(19) -0.21121(16)
H6A H -0.2701 0.6621 -0.1452
C20A C -0.2775(2) 0.5261(2) -0.40483(15)
H7A H -0.2796 0.4919 -0.4709
C21A C 0.0677(2) 0.23861(18) -0.37138(15)
H8A H 0.1248 0.1807 -0.3788
C22A C -0.3726(2) 0.14287(19) -0.49475(15)
C23A C 0.3384(2) 0.2251(2) -0.10176(16)
H9A H 0.4298 0.2219 -0.0909
C24A C 0.0264(2) 0.2729(2) -0.60822(16)
H10A H 0.0195 0.3534 -0.5865
C25A C -0.1761(2) 0.18856(19) 0.01607(16)
H11A H -0.1285 0.2372 0.0811
C26A C -0.2960(2) 0.16521(18) -0.15026(15)
C27A C -0.4696(2) 0.28862(19) -0.38122(15)
H12A H -0.5092 0.3153 -0.4329
C28A C 0.0415(2) 0.2170(2) -0.70054(17)
H13A H 0.0451 0.2600 -0.7408
C29A C -0.3391(2) -0.0237(2) -0.61921(17)
H14A H -0.3295 -0.1037 -0.6417
C30A C 0.1450(2) 0.20358(19) -0.05773(16)
H15A H 0.1042 0.1856 -0.0163
C31A C -0.2608(3) -0.00233(19) -0.10174(17)
H16A H -0.2722 -0.0838 -0.1182
C32A C 0.2790(2) 0.1983(2) -0.04199(16)
H17A H 0.3293 0.1761 0.0099
C33A C -0.3114(2) 0.04505(19) -0.17292(16)
H18A H -0.3572 -0.0047 -0.2380
C34A C -0.7623(2) 0.5247(2) -0.33606(18)
H19A H -0.8368 0.5244 -0.3882
C35A C -0.5467(2) 0.5243(2) -0.18311(16)
H20A H -0.4737 0.5241 -0.1301
C36A C -0.6251(2) 0.6115(2) -0.16957(18)
H21A H -0.6048 0.6716 -0.1074
C37A C -0.3582(2) 0.6594(2) -0.28369(17)
H22A H -0.4148 0.7156 -0.2673
C38A C -0.3599(2) 0.6082(2) -0.38000(17)
H23A H -0.4182 0.6298 -0.4295
C39A C -0.7339(2) 0.6126(2) -0.24580(19)
H24A H -0.7878 0.6728 -0.2359
C40A C 0.0512(2) 0.1009(2) -0.73255(16)
H25A H 0.0596 0.0632 -0.7954
C41A C 0.0362(2) 0.0918(2) -0.58176(16)
H26A H 0.0375 0.0486 -0.5409
C42A C -0.1938(2) 0.0691(2) -0.00686(17)
H27A H -0.1602 0.0372 0.0423
C43A C 0.0486(2) 0.0379(2) -0.67261(18)
H28A H 0.0555 -0.0426 -0.6948
C44A C -0.3516(2) 0.1554(2) -0.64459(17)
H29A H -0.3492 0.1999 -0.6840
C45A C -0.3564(2) 0.0275(2) -0.52811(17)
H30A H -0.3571 -0.0175 -0.4888
C46A C -0.3355(2) 0.0390(2) -0.67672(17)
H31A H -0.3221 0.0033 -0.7381
C47A C -0.6830(2) 0.4368(2) -0.35160(16)
H32A H -0.7031 0.3777 -0.4143
C48A C -0.3711(2) 0.2068(2) -0.55447(16)
H33A H -0.3836 0.2862 -0.5332
H34A H -0.292(3) 0.515(3) 0.050(2)
O4 O -0.5657(9) 0.9158(8) -0.0964(6)
H35 H -0.6486 0.9005 -0.0884
H36 H -0.5149 0.9720 -0.0344
loop_
_geom_bond_atom_site_label_1
_geom_bond_atom_site_label_2
_geom_bond_site_symmetry_1
_geom_bond_site_symmetry_2
Si1 O1 1_555 1_555
Si2 O1 1_555 1_555
O2 Si1 1_555 1_555
O3 Si1 1_555 1_555
C1 Si2 1_555 1_555
C2 C1 1_555 1_555
C3 H1 1_555 1_555
C4 Si1 1_555 1_555
C5 C2 1_555 1_555
H2 C5 1_555 1_555
C6 C3 1_555 1_555
C7 C1 1_555 1_555
C8 C2 1_555 1_555
C9 H3 1_555 1_555
C10 C13 1_555 1_555
C11 C3 1_555 1_555
C12 C7 1_555 1_555
C13 C9 1_555 1_555
C14 C5 1_555 1_555
C15 C14 1_555 1_555
C16 Si2 1_555 1_555
C17 C12 1_555 1_555
H4 C17 1_555 1_555
C18 C12 1_555 1_555
H5 C18 1_555 1_555
C19 C16 1_555 1_555
H6 C19 1_555 1_555
C20 C8 1_555 1_555
H7 C20 1_555 1_555
C21 C7 1_555 1_555
H8 C21 1_555 1_555
C22 C6 1_555 1_555
C23 C17 1_555 1_555
H9 C23 1_555 1_555
C24 C15 1_555 1_555
H10 C24 1_555 1_555
C25 C4 1_555 1_555
H11 C25 1_555 1_555
C26 C4 1_555 1_555
C27 C6 1_555 1_555
H12 C27 1_555 1_555
C28 C24 1_555 1_555
H13 C28 1_555 1_555
C29 H14 1_555 1_555
C30 C18 1_555 1_555
H15 C30 1_555 1_555
C31 H16 1_555 1_555
C32 C23 1_555 1_555
H17 C32 1_555 1_555
C33 C26 1_555 1_555
H18 C33 1_555 1_555
C34 H19 1_555 1_555
C35 C10 1_555 1_555
H20 C35 1_555 1_555
C36 C35 1_555 1_555
H21 C36 1_555 1_555
C37 C19 1_555 1_555
H22 C37 1_555 1_555
C38 C20 1_555 1_555
H23 C38 1_555 1_555
C39 C34 1_555 1_555
H24 C39 1_555 1_555
C40 C28 1_555 1_555
H25 C40 1_555 1_555
C41 C15 1_555 1_555
H26 C41 1_555 1_555
C42 C25 1_555 1_555
H27 C42 1_555 1_555
C43 C40 1_555 1_555
H28 C43 1_555 1_555
C44 H29 1_555 1_555
C45 C22 1_555 1_555
H30 C45 1_555 1_555
C46 C29 1_555 1_555
H31 C46 1_555 1_555
C47 C10 1_555 1_555
H32 C47 1_555 1_555
C48 C22 1_555 1_555
H33 C48 1_555 1_555
H34 O3 1_555 1_555
O4 H35 1_555 1_555
H36 O4 1_555 1_555
Si1A O1A 1_555 1_555
Si2A O2 1_555 1_555
O1A Si2A 1_555 1_555
O2A Si2 1_555 1_555
O3A Si1A 1_555 1_555
C1A Si2A 1_555 1_555
C2A C1A 1_555 1_555
C3A H1A 1_555 1_555
C4A Si1A 1_555 1_555
C5A C2A 1_555 1_555
H2A C5A 1_555 1_555
C6A C3A 1_555 1_555
C7A C1A 1_555 1_555
C8A C2A 1_555 1_555
C9A H3A 1_555 1_555
C10A C13A 1_555 1_555
C11A C3A 1_555 1_555
C12A C7A 1_555 1_555
C13A C9A 1_555 1_555
C14A C5A 1_555 1_555
C15A C14A 1_555 1_555
C16A Si2A 1_555 1_555
C17A C12A 1_555 1_555
H4A C17A 1_555 1_555
C18A C12A 1_555 1_555
H5A C18A 1_555 1_555
C19A C16A 1_555 1_555
H6A C19A 1_555 1_555
C20A C8A 1_555 1_555
H7A C20A 1_555 1_555
C21A C7A 1_555 1_555
H8A C21A 1_555 1_555
C22A C6A 1_555 1_555
C23A C17A 1_555 1_555
H9A C23A 1_555 1_555
C24A C15A 1_555 1_555
H10A C24A 1_555 1_555
C25A C4A 1_555 1_555
H11A C25A 1_555 1_555
C26A C4A 1_555 1_555
C27A C6A 1_555 1_555
H12A C27A 1_555 1_555
C28A C24A 1_555 1_555
H13A C28A 1_555 1_555
C29A H14A 1_555 1_555
C30A C18A 1_555 1_555
H15A C30A 1_555 1_555
C31A H16A 1_555 1_555
C32A C23A 1_555 1_555
H17A C32A 1_555 1_555
C33A C26A 1_555 1_555
H18A C33A 1_555 1_555
C34A H19A 1_555 1_555
C35A C10A 1_555 1_555
H20A C35A 1_555 1_555
C36A C35A 1_555 1_555
H21A C36A 1_555 1_555
C37A C19A 1_555 1_555
H22A C37A 1_555 1_555
C38A C20A 1_555 1_555
H23A C38A 1_555 1_555
C39A C34A 1_555 1_555
H24A C39A 1_555 1_555
C40A C28A 1_555 1_555
H25A C40A 1_555 1_555
C41A C15A 1_555 1_555
H26A C41A 1_555 1_555
C42A C25A 1_555 1_555
H27A C42A 1_555 1_555
C43A C40A 1_555 1_555
H28A C43A 1_555 1_555
C44A H29A 1_555 1_555
C45A C22A 1_555 1_555
H30A C45A 1_555 1_555
C46A C29A 1_555 1_555
H31A C46A 1_555 1_555
C47A C10A 1_555 1_555
H32A C47A 1_555 1_555
C48A C22A 1_555 1_555
H33A C48A 1_555 1_555
H34A O3A 1_555 1_555
C8 C16 1_555 1_555
C9 C11 1_555 1_555
C11 C26 1_555 1_555
C13 C27 1_555 1_555
C14 C21 1_555 1_555
C29 C45 1_555 1_555
C30 C32 1_555 1_555
C31 C33 1_555 1_555
C31 C42 1_555 1_555
C34 C47 1_555 1_555
C36 C39 1_555 1_555
C37 C38 1_555 1_555
C41 C43 1_555 1_555
C44 C46 1_555 1_555
C44 C48 1_555 1_555
Si1A O2A 1_555 1_555
C8A C16A 1_555 1_555
C9A C11A 1_555 1_555
C11A C26A 1_555 1_555
C13A C27A 1_555 1_555
C14A C21A 1_555 1_555
C29A C45A 1_555 1_555
C30A C32A 1_555 1_555
C31A C33A 1_555 1_555
C31A C42A 1_555 1_555
C34A C47A 1_555 1_555
C36A C39A 1_555 1_555
C37A C38A 1_555 1_555
C41A C43A 1_555 1_555
C44A C46A 1_555 1_555
C44A C48A 1_555 1_555

#END
