
#######################################################################
#
#                 Cambridge Crystallographic Data Centre
#                                CCDC 
#
#######################################################################
#
# If this CIF has been generated from an entry in the Cambridge 
# Structural Database, then it will include bibliographic, chemical, 
# crystal, experimental, refinement or atomic coordinate data resulting 
# from the CCDC's data processing and validation procedures.
#
#######################################################################

data_MUBDIX01
_chemical_formula_moiety         'C18 H24 N4 2+,2(Br1 1-)'
_chemical_name_systematic        
"1,1'-(1,4-phenylenebis(methylene))bis(2,3-dimethyl-1H-imidazol-3-ium) dibromide"
_symmetry_cell_setting           monoclinic
_symmetry_space_group_name_H-M   'P 21/n'
_symmetry_Int_Tables_number      14
_space_group_name_Hall           '-P 2yn'
loop_
_symmetry_equiv_pos_site_id
_symmetry_equiv_pos_as_xyz
1 x,y,z
2 1/2-x,1/2+y,1/2-z
3 -x,-y,-z
4 1/2+x,1/2-y,1/2+z
_cell_length_a                   8.577(2)
_cell_length_b                   9.910(3)
_cell_length_c                   11.102(3)
_cell_angle_alpha                90
_cell_angle_beta                 93.631(5)
_cell_angle_gamma                90
_cell_volume                     941.754
_exptl_crystal_description       prismatic
_cell_formula_units_Z            2
loop_
_atom_site_label
_atom_site_type_symbol
_atom_site_fract_x
_atom_site_fract_y
_atom_site_fract_z
Br1 Br 0.03132(6) 0.90191(5) 0.23240(5)
C1 C 0.1416(5) 0.5471(5) 0.4674(4)
C2 C 0.0275(5) 0.5142(4) 0.3774(4)
C3 C -0.1143(5) 0.4682(5) 0.4118(4)
C4 C 0.0652(5) 0.5322(6) 0.2494(4)
N1 N -0.0161(9) 0.4383(10) 0.1706(7)
N2 N -0.1905(11) 0.3446(10) 0.0500(8)
C5 C 0.0246(12) 0.3071(10) 0.1585(7)
H1 H 0.1130 0.2655 0.1944
C6 C -0.0881(13) 0.2469(13) 0.0837(11)
H2 H -0.0928 0.1567 0.0609
C7 C -0.1507(10) 0.4627(12) 0.1036(8)
C8 C -0.2384(14) 0.5878(11) 0.0930(12)
H3 H -0.3300 0.5746 0.0401
H4 H -0.1744 0.6568 0.0607
H5 H -0.2686 0.6148 0.1712
C9 C -0.3215(18) 0.3094(17) -0.0301(15)
H6 H -0.3855 0.3876 -0.0458
H7 H -0.3817 0.2406 0.0064
H8 H -0.2851 0.2762 -0.1046
H9 H 0.237(7) 0.585(5) 0.446(5)
H10 H 0.067(6) 0.614(5) 0.226(5)
H11 H 0.169(6) 0.510(5) 0.241(4)
H12 H -0.188(6) 0.456(5) 0.360(5)
C1B C -0.1416(5) 0.4529(5) 0.5326(4)
C2B C -0.0275(5) 0.4858(4) 0.6226(4)
C3B C 0.1143(5) 0.5318(5) 0.5882(4)
C4B C -0.0652(5) 0.4678(6) 0.7506(4)
N1B N 0.0161(9) 0.5617(10) 0.8294(7)
N2B N 0.1905(11) 0.6554(10) 0.9500(8)
C5B C -0.0246(12) 0.6929(10) 0.8415(7)
H1B H -0.1130 0.7345 0.8056
C6B C 0.0881(13) 0.7531(13) 0.9163(11)
H2B H 0.0928 0.8433 0.9391
C7B C 0.1507(10) 0.5373(12) 0.8964(8)
C8B C 0.2384(14) 0.4122(11) 0.9070(12)
H3B H 0.3300 0.4254 0.9599
H4B H 0.1744 0.3432 0.9393
H5B H 0.2686 0.3852 0.8288
C9B C 0.3215(18) 0.6906(17) 1.0301(15)
H6B H 0.3855 0.6124 1.0458
H7B H 0.3817 0.7594 0.9936
H8B H 0.2851 0.7238 1.1046
H9B H -0.237(7) 0.415(5) 0.554(5)
H10B H -0.067(6) 0.386(5) 0.774(5)
H11B H -0.169(6) 0.490(5) 0.759(4)
H12B H 0.188(6) 0.544(5) 0.640(5)
N3? N -0.0637(19) 0.5016(18) 0.1555(11)
N4? N -0.2333(19) 0.4097(18) 0.0341(13)
C10? C -0.156(2) 0.6064(18) 0.1080(14)
H13? H -0.1481 0.6970 0.1292
C11? C -0.2585(17) 0.5527(15) 0.0269(16)
H14? H -0.3311 0.5982 -0.0239
C12? C -0.1189(19) 0.393(2) 0.1108(14)
C13? C -0.048(2) 0.257(2) 0.135(3)
H15? H 0.0373 0.2655 0.1951
H16? H -0.0090 0.2223 0.0617
H17? H -0.1249 0.1971 0.1631
C14? C -0.347(4) 0.335(4) -0.029(4)
H18? H -0.3229 0.2407 -0.0199
H19? H -0.3495 0.3590 -0.1127
H20? H -0.4464 0.3532 0.0023
loop_
_geom_bond_atom_site_label_1
_geom_bond_atom_site_label_2
_geom_bond_site_symmetry_1
_geom_bond_site_symmetry_2
C1 C2 1_555 1_555
C2 C3 1_555 1_555
C3 H12 1_555 1_555
C4 C2 1_555 1_555
N1 C4 1_555 1_555
N2 C6 1_555 1_555
C5 N1 1_555 1_555
H1 C5 1_555 1_555
C6 C5 1_555 1_555
H2 C6 1_555 1_555
C7 N1 1_555 1_555
C8 C7 1_555 1_555
H3 C8 1_555 1_555
H4 C8 1_555 1_555
H5 C8 1_555 1_555
C9 N2 1_555 1_555
H6 C9 1_555 1_555
H7 C9 1_555 1_555
H8 C9 1_555 1_555
H9 C1 1_555 1_555
H10 C4 1_555 1_555
H11 C4 1_555 1_555
C1B C3 1_555 1_555
C2B C1B 1_555 1_555
C3B C1 1_555 1_555
C4B C2B 1_555 1_555
N1B C4B 1_555 1_555
N2B C6B 1_555 1_555
C5B N1B 1_555 1_555
H1B C5B 1_555 1_555
C6B C5B 1_555 1_555
H2B C6B 1_555 1_555
C7B N1B 1_555 1_555
C8B C7B 1_555 1_555
H3B C8B 1_555 1_555
H4B C8B 1_555 1_555
H5B C8B 1_555 1_555
C9B N2B 1_555 1_555
H6B C9B 1_555 1_555
H7B C9B 1_555 1_555
H8B C9B 1_555 1_555
H9B C1B 1_555 1_555
H10B C4B 1_555 1_555
H11B C4B 1_555 1_555
H12B C3B 1_555 1_555
N2 C7 1_555 1_555
C2B C3B 1_555 1_555
N2B C7B 1_555 1_555

#END
