
#######################################################################
#
#                 Cambridge Crystallographic Data Centre
#                                CCDC 
#
#######################################################################
#
# If this CIF has been generated from an entry in the Cambridge 
# Structural Database, then it will include bibliographic, chemical, 
# crystal, experimental, refinement or atomic coordinate data resulting 
# from the CCDC's data processing and validation procedures.
#
#######################################################################

data_MUBFAR
_chemical_formula_moiety         'C39 H33 N9 S3'
_chemical_name_systematic        
4,4',4''-tris(2-Pyridyl)-2,2',2''-((2,4,6-trimethylbenzene-1,3,5-triyl)tris(methylene)tris(sulfanediyl))-tripyrimidine
_symmetry_cell_setting           monoclinic
_symmetry_space_group_name_H-M   'P 21/c'
_symmetry_Int_Tables_number      14
_space_group_name_Hall           '-P 2ybc'
loop_
_symmetry_equiv_pos_site_id
_symmetry_equiv_pos_as_xyz
1 x,y,z
2 -x,1/2+y,1/2-z
3 -x,-y,-z
4 x,1/2-y,1/2+z
_cell_length_a                   11.966(2)
_cell_length_b                   10.520(2)
_cell_length_c                   31.959(6)
_cell_angle_alpha                90
_cell_angle_beta                 108.369(6)
_cell_angle_gamma                90
_cell_volume                     3818.08
_exptl_crystal_colour            yellow
_exptl_crystal_description       block
_cell_formula_units_Z            4
loop_
_atom_site_label
_atom_site_type_symbol
_atom_site_fract_x
_atom_site_fract_y
_atom_site_fract_z
S1 S 0.58642(11) -0.78603(12) -0.22867(4)
S2 S 0.62715(13) -1.06746(13) -0.05185(4)
S3 S 0.23200(12) -0.66957(13) -0.12895(5)
C1 C 0.4361(4) -0.9300(4) -0.20145(14)
C2 C 0.3434(4) -0.8618(5) -0.19733(16)
C3 C 0.3010(4) -0.8814(5) -0.16132(17)
C4 C 0.3590(5) -0.9676(5) -0.12875(16)
C5 C 0.4568(5) -1.0361(4) -0.13279(16)
C6 C 0.4962(4) -1.0149(4) -0.16834(16)
C7 C 0.2812(5) -0.7628(5) -0.23179(17)
H1 H 0.3176 -0.7599 -0.2546
H2 H 0.2871 -0.6809 -0.2180
H3 H 0.1997 -0.7855 -0.2444
C8 C 0.3170(5) -0.9901(5) -0.08946(17)
H4 H 0.2498 -0.9373 -0.0919
H5 H 0.3789 -0.9693 -0.0629
H6 H 0.2956 -1.0778 -0.0887
C9 C 0.6043(4) -1.0849(5) -0.17075(16)
H7 H 0.6216 -1.0599 -0.1969
H8 H 0.5900 -1.1748 -0.1715
H9 H 0.6699 -1.0645 -0.1453
C10 C 0.4793(4) -0.9128(5) -0.24122(14)
H10 H 0.4139 -0.8914 -0.2671
H11 H 0.5149 -0.9908 -0.2471
C11 C 0.6446(4) -0.7921(4) -0.27308(14)
C12 C 0.6554(5) -0.8711(5) -0.33626(15)
H12 H 0.6288 -0.9253 -0.3604
C13 C 0.7498(4) -0.7944(5) -0.33389(14)
H13 H 0.7859 -0.7955 -0.3558
C14 C 0.7884(4) -0.7169(4) -0.29843(14)
C15 C 0.8931(4) -0.6337(4) -0.29058(15)
C16 C 0.9256(5) -0.5489(5) -0.25625(15)
H14 H 0.8817 -0.5408 -0.2370
C17 C 1.0242(5) -0.4764(5) -0.2511(2)
H15 H 1.0490 -0.4194 -0.2277
C18 C 1.0852(5) -0.4882(6) -0.2800(2)
H16 H 1.1508 -0.4379 -0.2777
C19 C 1.0482(6) -0.5740(6) -0.3118(2)
H17 H 1.0927 -0.5843 -0.3308
C20 C 0.5140(5) -1.1352(4) -0.09856(16)
H18 H 0.5488 -1.2005 -0.1120
H19 H 0.4543 -1.1750 -0.0883
C21 C 0.7111(4) -1.2020(5) -0.03108(15)
C22 C 0.8719(6) -1.2798(7) 0.02049(17)
H20 H 0.9365 -1.2690 0.0456
C23 C 0.8548(5) -1.3965(6) 0.00115(17)
H21 H 0.9057 -1.4640 0.0123
C24 C 0.7563(5) -1.4094(5) -0.03647(16)
C25 C 0.7259(5) -1.5296(5) -0.06142(17)
C26 C 0.6307(5) -1.5380(6) -0.09824(19)
H22 H 0.5843 -1.4669 -0.1087
C27 C 0.6038(6) -1.6508(8) -0.1196(2)
H23 H 0.5392 -1.6576 -0.1449
C28 C 0.6720(9) -1.7529(7) -0.1036(2)
H24 H 0.6549 -1.8316 -0.1175
C29 C 0.7660(9) -1.7382(7) -0.0670(3)
H25 H 0.8116 -1.8098 -0.0562
C30 C 0.1921(5) -0.8156(5) -0.15912(17)
H26 H 0.1501 -0.8700 -0.1446
H27 H 0.1406 -0.7979 -0.1887
C31 C 0.0955(5) -0.6028(6) -0.13059(16)
C32 C -0.0991(6) -0.6111(7) -0.15071(19)
H28 H -0.1702 -0.6522 -0.1643
C33 C -0.1041(5) -0.4911(7) -0.13345(17)
H29 H -0.1750 -0.4513 -0.1356
C34 C 0.0034(5) -0.4348(6) -0.11291(15)
C35 C 0.0108(5) -0.3091(5) -0.09093(16)
C36 C 0.1165(5) -0.2639(6) -0.06459(16)
H30 H 0.1845 -0.3123 -0.0598
C37 C 0.1220(6) -0.1456(7) -0.04502(18)
H31 H 0.1930 -0.1120 -0.0273
C38 C 0.0216(8) -0.0821(6) -0.0527(2)
H32 H 0.0216 -0.0022 -0.0403
C39 C -0.0823(7) -0.1338(7) -0.0790(2)
H33 H -0.1514 -0.0877 -0.0834
N1 N 0.7367(3) -0.7132(3) -0.26700(11)
N2 N 0.5992(3) -0.8731(3) -0.30604(13)
N3 N 0.9526(4) -0.6468(4) -0.31899(14)
N4 N 0.8019(4) -1.1798(4) 0.00566(14)
N5 N 0.6858(3) -1.3116(4) -0.05227(11)
N6 N 0.7987(5) -1.6291(5) -0.04492(15)
N7 N 0.1042(4) -0.4918(4) -0.11146(12)
N8 N -0.0016(4) -0.6716(4) -0.14938(13)
N9 N -0.0891(4) -0.2464(5) -0.09860(15)
loop_
_geom_bond_atom_site_label_1
_geom_bond_atom_site_label_2
_geom_bond_site_symmetry_1
_geom_bond_site_symmetry_2
S1 C10 1_555 1_555
S2 C20 1_555 1_555
S3 C30 1_555 1_555
C1 C2 1_555 1_555
C2 C3 1_555 1_555
C3 C4 1_555 1_555
C4 C5 1_555 1_555
C5 C6 1_555 1_555
C6 C1 1_555 1_555
C7 C2 1_555 1_555
H1 C7 1_555 1_555
H2 C7 1_555 1_555
H3 C7 1_555 1_555
C8 C4 1_555 1_555
H4 C8 1_555 1_555
H5 C8 1_555 1_555
H6 C8 1_555 1_555
C9 C6 1_555 1_555
H7 C9 1_555 1_555
H8 C9 1_555 1_555
H9 C9 1_555 1_555
C10 C1 1_555 1_555
H10 C10 1_555 1_555
H11 C10 1_555 1_555
C11 S1 1_555 1_555
C12 H12 1_555 1_555
C13 C12 1_555 1_555
H13 C13 1_555 1_555
C14 C13 1_555 1_555
C15 C14 1_555 1_555
C16 C15 1_555 1_555
H14 C16 1_555 1_555
C17 C16 1_555 1_555
H15 C17 1_555 1_555
C18 C17 1_555 1_555
H16 C18 1_555 1_555
C19 C18 1_555 1_555
H17 C19 1_555 1_555
C20 C5 1_555 1_555
H18 C20 1_555 1_555
H19 C20 1_555 1_555
C21 S2 1_555 1_555
C22 H20 1_555 1_555
C23 C22 1_555 1_555
H21 C23 1_555 1_555
C24 C23 1_555 1_555
C25 C24 1_555 1_555
C26 C25 1_555 1_555
H22 C26 1_555 1_555
C27 C26 1_555 1_555
H23 C27 1_555 1_555
C28 C27 1_555 1_555
H24 C28 1_555 1_555
C29 C28 1_555 1_555
H25 C29 1_555 1_555
C30 C3 1_555 1_555
H26 C30 1_555 1_555
H27 C30 1_555 1_555
C31 S3 1_555 1_555
C32 H28 1_555 1_555
C33 C32 1_555 1_555
H29 C33 1_555 1_555
C34 C33 1_555 1_555
C35 C34 1_555 1_555
C36 C35 1_555 1_555
H30 C36 1_555 1_555
C37 C36 1_555 1_555
H31 C37 1_555 1_555
C38 C37 1_555 1_555
H32 C38 1_555 1_555
C39 C38 1_555 1_555
H33 C39 1_555 1_555
N1 C11 1_555 1_555
N2 C11 1_555 1_555
N3 C15 1_555 1_555
N4 C21 1_555 1_555
N5 C21 1_555 1_555
N6 C25 1_555 1_555
N7 C31 1_555 1_555
N8 C31 1_555 1_555
N9 C35 1_555 1_555
C12 N2 1_555 1_555
C14 N1 1_555 1_555
C19 N3 1_555 1_555
C22 N4 1_555 1_555
C24 N5 1_555 1_555
C29 N6 1_555 1_555
C32 N8 1_555 1_555
C34 N7 1_555 1_555
C39 N9 1_555 1_555

#END
