
#######################################################################
#
#                 Cambridge Crystallographic Data Centre
#                                CCDC 
#
#######################################################################
#
# If this CIF has been generated from an entry in the Cambridge 
# Structural Database, then it will include bibliographic, chemical, 
# crystal, experimental, refinement or atomic coordinate data resulting 
# from the CCDC's data processing and validation procedures.
#
#######################################################################

data_MUBHAT
_chemical_formula_moiety         'C19 H28 N8 O2'
_chemical_name_systematic        
N,N,N',N'-Tetraethyl-6-(2-((E)-1-(4-nitrophenyl)ethylidene)hydrazino)-1,3,5-triazine-2,4-diamine
_symmetry_cell_setting           monoclinic
_symmetry_space_group_name_H-M   'P 21/n'
_symmetry_Int_Tables_number      14
_space_group_name_Hall           '-P 2yn'
loop_
_symmetry_equiv_pos_site_id
_symmetry_equiv_pos_as_xyz
1 x,y,z
2 1/2-x,1/2+y,1/2-z
3 -x,-y,-z
4 1/2+x,1/2-y,1/2+z
_cell_length_a                   12.333(3)
_cell_length_b                   9.5286(19)
_cell_length_c                   17.407(4)
_cell_angle_alpha                90
_cell_angle_beta                 92.12(3)
_cell_angle_gamma                90
_cell_volume                     2044.2
_exptl_crystal_colour            yellow
_exptl_crystal_description       block
_cell_formula_units_Z            4
_exptl_crystal_recrystallization_method ethanol
loop_
_atom_site_label
_atom_site_type_symbol
_atom_site_fract_x
_atom_site_fract_y
_atom_site_fract_z
N1 N 0.86798(7) 0.13524(9) 0.14238(5)
O1 O 0.61084(7) -0.21575(10) -0.26492(5)
O2 O 0.71950(7) -0.38030(9) -0.29988(5)
N2 N 0.97484(7) -0.06303(10) 0.12715(5)
N3 N 0.91414(7) 0.28722(9) 0.24899(5)
N4 N 1.01161(7) 0.07162(9) 0.23260(5)
N5 N 1.05089(7) 0.22043(9) 0.33480(5)
N6 N 0.91687(7) -0.09648(9) 0.06200(5)
C1 C 0.75621(8) -0.27251(11) -0.18232(6)
N7 N 0.69125(7) -0.29130(10) -0.25356(5)
N8 N 0.77480(7) 0.34066(10) 0.16191(5)
C2 C 0.79067(8) -0.14525(11) -0.06617(6)
H1 H 0.7718 -0.0751 -0.0320
C3 C 0.94887(8) 0.05417(11) 0.16864(6)
C4 C 0.88343(8) -0.22754(11) -0.04984(6)
C5 C 0.90831(8) -0.33498(11) -0.10124(6)
H2 H 0.9682 -0.3920 -0.0905
C6 C 0.99015(8) 0.19185(11) 0.27004(6)
C7 C 0.84541(8) -0.35806(11) -0.16793(6)
H3 H 0.8628 -0.4291 -0.2020
C8 C 0.95244(8) -0.19665(11) 0.01989(6)
C9 C 0.72719(8) -0.16701(12) -0.13212(6)
H4 H 0.6662 -0.1120 -0.1427
C10 C 0.85476(8) 0.25133(11) 0.18551(6)
C11 C 1.13661(8) 0.12427(11) 0.36176(6)
H5 H 1.1937 0.1780 0.3879
H6 H 1.1676 0.0793 0.3176
C12 C 1.05659(10) -0.27421(13) 0.03706(7)
C13 C 1.02715(9) 0.34442(12) 0.38092(6)
H7 H 1.0163 0.4241 0.3468
H8 H 1.0896 0.3646 0.4146
C14 C 0.69842(9) 0.30243(12) 0.09900(6)
H9 H 0.7367 0.2511 0.0602
H10 H 0.6692 0.3872 0.0754
C15 C 0.75666(9) 0.47314(12) 0.20190(7)
H11 H 0.7753 0.4615 0.2562
H12 H 0.6804 0.4975 0.1970
C16 C 0.92728(10) 0.32834(14) 0.42962(7)
H13 H 0.9165 0.4130 0.4582
H14 H 0.9380 0.2512 0.4646
H15 H 0.8646 0.3107 0.3967
C17 C 0.60582(10) 0.21306(14) 0.12663(8)
H16 H 0.5577 0.1901 0.0839
H17 H 0.5668 0.2642 0.1643
H18 H 0.6344 0.1283 0.1492
C18 C 0.82384(11) 0.59180(13) 0.16992(8)
H19 H 0.8099 0.6767 0.1976
H20 H 0.8045 0.6050 0.1165
H21 H 0.8995 0.5687 0.1755
C19 C 1.09742(10) 0.01179(12) 0.41592(7)
H22 H 1.1571 -0.0478 0.4314
H23 H 1.0420 -0.0433 0.3901
H24 H 1.0684 0.0553 0.4605
H25 H 1.0787(13) -0.3377(19) -0.0021(10)
H26 H 1.0561(14) -0.325(2) 0.0845(11)
H27 H 1.1172(14) -0.2076(19) 0.0445(10)
H28 H 1.0310(12) -0.1104(16) 0.1438(8)
loop_
_geom_bond_atom_site_label_1
_geom_bond_atom_site_label_2
_geom_bond_site_symmetry_1
_geom_bond_site_symmetry_2
N1 C3 1_555 1_555
O1 N7 1_555 1_555
O2 N7 1_555 1_555
N2 N6 1_555 1_555
N3 C6 1_555 1_555
N4 C3 1_555 1_555
N5 C6 1_555 1_555
N6 C8 1_555 1_555
C1 N7 1_555 1_555
N8 C10 1_555 1_555
C2 H1 1_555 1_555
C3 N2 1_555 1_555
C4 C2 1_555 1_555
C5 C4 1_555 1_555
H2 C5 1_555 1_555
C6 N4 1_555 1_555
C7 C1 1_555 1_555
H3 C7 1_555 1_555
C8 C4 1_555 1_555
C9 C1 1_555 1_555
H4 C9 1_555 1_555
C10 N1 1_555 1_555
C11 N5 1_555 1_555
H5 C11 1_555 1_555
H6 C11 1_555 1_555
C12 C8 1_555 1_555
C13 N5 1_555 1_555
H7 C13 1_555 1_555
H8 C13 1_555 1_555
C14 N8 1_555 1_555
H9 C14 1_555 1_555
H10 C14 1_555 1_555
C15 N8 1_555 1_555
H11 C15 1_555 1_555
H12 C15 1_555 1_555
C16 C13 1_555 1_555
H13 C16 1_555 1_555
H14 C16 1_555 1_555
H15 C16 1_555 1_555
C17 C14 1_555 1_555
H16 C17 1_555 1_555
H17 C17 1_555 1_555
H18 C17 1_555 1_555
C18 C15 1_555 1_555
H19 C18 1_555 1_555
H20 C18 1_555 1_555
H21 C18 1_555 1_555
C19 C11 1_555 1_555
H22 C19 1_555 1_555
H23 C19 1_555 1_555
H24 C19 1_555 1_555
H25 C12 1_555 1_555
H26 C12 1_555 1_555
H27 C12 1_555 1_555
H28 N2 1_555 1_555
N3 C10 1_555 1_555
C2 C9 1_555 1_555
C5 C7 1_555 1_555

#END
