
#######################################################################
#
#                 Cambridge Crystallographic Data Centre
#                                CCDC 
#
#######################################################################
#
# If this CIF has been generated from an entry in the Cambridge 
# Structural Database, then it will include bibliographic, chemical, 
# crystal, experimental, refinement or atomic coordinate data resulting 
# from the CCDC's data processing and validation procedures.
#
#######################################################################

data_MUBJAV
_chemical_compound_source        'stems of Trichilia claussenii'
_chemical_formula_moiety         'C19 H28 O4'
_chemical_name_systematic        2\a,3\a-Dihydroxy-2,19-epoxyandrostan-16-one
_chemical_properties_biological  
'shows strong biological activities against insects'
_symmetry_cell_setting           monoclinic
_symmetry_space_group_name_H-M   'P 21'
_symmetry_Int_Tables_number      4
_space_group_name_Hall           'P 2yb'
loop_
_symmetry_equiv_pos_site_id
_symmetry_equiv_pos_as_xyz
1 x,y,z
2 -x,1/2+y,-z
_cell_length_a                   10.8687(2)
_cell_length_b                   6.33790(10)
_cell_length_c                   12.9038(2)
_cell_angle_alpha                90
_cell_angle_beta                 112.8820(10)
_cell_angle_gamma                90
_cell_volume                     818.927
_exptl_crystal_colour            colorless
_exptl_crystal_description       block
_cell_formula_units_Z            2
_exptl_crystal_recrystallization_method methanol/hexane
loop_
_atom_site_label
_atom_site_type_symbol
_atom_site_fract_x
_atom_site_fract_y
_atom_site_fract_z
O1 O 0.10604(14) 0.6665(3) 0.44798(11)
O2 O 0.09261(16) 1.0230(3) 0.48050(15)
H1 H 0.0221 1.0426 0.4882
O3 O -0.09685(18) 1.0625(3) 0.25157(18)
H2 H -0.1755 1.0667 0.2083
O4 O 0.61221(19) 0.0525(4) 0.09632(16)
C1 C 0.17314(18) 0.9035(3) 0.34250(16)
H3 H 0.2610 0.9394 0.3976
H4 H 0.1443 1.0113 0.2846
C2 C 0.07349(19) 0.8750(3) 0.39679(18)
C3 C -0.0693(2) 0.8638(4) 0.3084(2)
H5 H -0.1314 0.8411 0.3457
C4 C -0.08066(18) 0.6822(4) 0.22815(18)
H6 H -0.1622 0.6999 0.1618
H7 H -0.0886 0.5516 0.2642
C5 C 0.03684(17) 0.6613(4) 0.19065(15)
H8 H 0.0300 0.7763 0.1379
C6 C 0.02645(19) 0.4533(4) 0.12841(17)
H9 H 0.0208 0.3383 0.1760
H10 H -0.0550 0.4533 0.0611
C7 C 0.14492(19) 0.4159(4) 0.09552(16)
H11 H 0.1436 0.5195 0.0398
H12 H 0.1371 0.2771 0.0618
C8 C 0.27756(17) 0.4311(3) 0.19700(14)
H13 H 0.2807 0.3202 0.2509
C9 C 0.28860(17) 0.6477(3) 0.25428(14)
H14 H 0.2777 0.7530 0.1958
C10 C 0.17217(16) 0.6848(3) 0.29237(14)
C11 C 0.42783(17) 0.6878(4) 0.34704(16)
H15 H 0.4325 0.8331 0.3720
H16 H 0.4390 0.5978 0.4109
C12 C 0.54289(19) 0.6468(3) 0.30905(19)
H17 H 0.5399 0.7492 0.2523
H18 H 0.6275 0.6625 0.3725
C13 C 0.53218(18) 0.4254(3) 0.26115(15)
C14 C 0.39575(18) 0.4035(3) 0.16258(15)
H19 H 0.3903 0.5191 0.1105
C15 C 0.4097(2) 0.2001(4) 0.10396(17)
H20 H 0.3818 0.0783 0.1349
H21 H 0.3572 0.2069 0.0237
C16 C 0.5576(2) 0.1902(5) 0.12818(18)
C17 C 0.6267(2) 0.3747(4) 0.2021(2)
H22 H 0.6348 0.4934 0.1577
H23 H 0.7147 0.3357 0.2558
C18 C 0.5558(2) 0.2595(4) 0.35272(18)
H24 H 0.4971 0.2857 0.3910
H25 H 0.6468 0.2667 0.4056
H26 H 0.5382 0.1217 0.3192
C19 C 0.17183(18) 0.5448(3) 0.39026(15)
H27 H 0.1239 0.4144 0.3617
H28 H 0.2624 0.5108 0.4406
loop_
_geom_bond_atom_site_label_1
_geom_bond_atom_site_label_2
_geom_bond_site_symmetry_1
_geom_bond_site_symmetry_2
O1 C2 1_555 1_555
O2 H1 1_555 1_555
O3 H2 1_555 1_555
O4 C16 1_555 1_555
C1 H3 1_555 1_555
H4 C1 1_555 1_555
C2 O2 1_555 1_555
C3 O3 1_555 1_555
H5 C3 1_555 1_555
C4 C3 1_555 1_555
H6 C4 1_555 1_555
H7 C4 1_555 1_555
C5 C4 1_555 1_555
H8 C5 1_555 1_555
C6 C5 1_555 1_555
H9 C6 1_555 1_555
H10 C6 1_555 1_555
C7 C6 1_555 1_555
H11 C7 1_555 1_555
H12 C7 1_555 1_555
C8 C7 1_555 1_555
H13 C8 1_555 1_555
C9 C8 1_555 1_555
H14 C9 1_555 1_555
C10 C1 1_555 1_555
C11 C9 1_555 1_555
H15 C11 1_555 1_555
H16 C11 1_555 1_555
C12 C11 1_555 1_555
H17 C12 1_555 1_555
H18 C12 1_555 1_555
C13 C12 1_555 1_555
C14 C8 1_555 1_555
H19 C14 1_555 1_555
C15 C14 1_555 1_555
H20 C15 1_555 1_555
H21 C15 1_555 1_555
C16 C15 1_555 1_555
C17 C13 1_555 1_555
H22 C17 1_555 1_555
H23 C17 1_555 1_555
C18 C13 1_555 1_555
H24 C18 1_555 1_555
H25 C18 1_555 1_555
H26 C18 1_555 1_555
C19 O1 1_555 1_555
H27 C19 1_555 1_555
H28 C19 1_555 1_555
C1 C2 1_555 1_555
C2 C3 1_555 1_555
C5 C10 1_555 1_555
C9 C10 1_555 1_555
C10 C19 1_555 1_555
C13 C14 1_555 1_555
C16 C17 1_555 1_555

#END
