
#######################################################################
#
#                 Cambridge Crystallographic Data Centre
#                                CCDC 
#
#######################################################################
#
# If this CIF has been generated from an entry in the Cambridge 
# Structural Database, then it will include bibliographic, chemical, 
# crystal, experimental, refinement or atomic coordinate data resulting 
# from the CCDC's data processing and validation procedures.
#
#######################################################################

data_MUBPEF
_chemical_formula_moiety         'C26 H38 O6,H2 O1'
_chemical_name_systematic        
'13-Ethoxycarbonyl-16-(1-methylethyl)-17,19-dinoratis-15-ene-4,14-dicarboxylic acid monohydrate'
_symmetry_cell_setting           orthorhombic
_symmetry_space_group_name_H-M   'P 21 21 21'
_symmetry_Int_Tables_number      19
_space_group_name_Hall           'P 2ac 2ab'
loop_
_symmetry_equiv_pos_site_id
_symmetry_equiv_pos_as_xyz
1 x,y,z
2 1/2-x,-y,1/2+z
3 -x,1/2+y,1/2-z
4 1/2+x,1/2-y,-z
_cell_length_a                   7.3406(14)
_cell_length_b                   17.901(4)
_cell_length_c                   19.681(4)
_cell_angle_alpha                90
_cell_angle_beta                 90
_cell_angle_gamma                90
_cell_volume                     2586.16
_exptl_crystal_colour            colorless
_exptl_crystal_description       acicular
_chemical_melting_point          '412 K'
_cell_formula_units_Z            4
_exptl_crystal_recrystallization_method ethanol
loop_
_atom_site_label
_atom_site_type_symbol
_atom_site_fract_x
_atom_site_fract_y
_atom_site_fract_z
C1 C 0.1062(5) 0.27241(19) 0.17771(18)
C2 C 0.1205(5) 0.18852(19) 0.16317(18)
H1 H 0.0801 0.1643 0.2052
C3 C 0.3180(5) 0.1612(2) 0.1530(2)
H2 H 0.3605 0.1755 0.1082
H3 H 0.3968 0.1845 0.1864
C4 C 0.3272(5) 0.0766(2) 0.1604(2)
H4 H 0.3005 0.0636 0.2072
H5 H 0.4505 0.0603 0.1507
C5 C 0.1958(5) 0.03398(19) 0.11385(18)
C6 C 0.1724(6) -0.0481(2) 0.14105(18)
H6 H 0.1139 -0.0455 0.1858
C7 C 0.0419(5) -0.0908(2) 0.0922(2)
H7 H -0.0692 -0.1011 0.1182
C8 C -0.0146(5) -0.0396(2) 0.03338(19)
H8 H -0.0907 -0.0669 0.0009
C9 C -0.1211(5) 0.0256(2) 0.06435(19)
H9 H -0.2277 0.0066 0.0878
H10 H -0.1621 0.0587 0.0284
C10 C 0.0003(5) 0.07016(19) 0.11538(19)
H11 H -0.0491 0.0597 0.1607
C11 C -0.0061(5) 0.1561(2) 0.10698(18)
C12 C -0.2015(5) 0.1820(2) 0.1218(2)
H12 H -0.2443 0.1576 0.1629
H13 H -0.2799 0.1665 0.0848
C13 C -0.2173(5) 0.2672(2) 0.1309(2)
H14 H -0.1819 0.2918 0.0891
H15 H -0.3430 0.2802 0.1404
C14 C -0.0966(5) 0.2947(2) 0.1888(2)
H16 H -0.1394 0.2737 0.2313
H17 H -0.1057 0.3487 0.1919
C15 C 0.1951(6) 0.3238(2) 0.1237(2)
H18 H 0.2085 0.3732 0.1420
H19 H 0.1192 0.3256 0.0840
H20 H 0.3127 0.3045 0.1117
C16 C 0.0475(6) 0.1813(2) 0.03444(19)
H21 H -0.0103 0.1494 0.0017
H22 H 0.1773 0.1782 0.0293
H23 H 0.0087 0.2319 0.0274
C17 C 0.2593(6) 0.0286(2) 0.04130(19)
H24 H 0.3666 0.0512 0.0268
C18 C 0.1540(5) -0.01020(19) -0.00112(19)
C19 C 0.1871(5) -0.0250(2) -0.07525(19)
H25 H 0.1618 -0.0780 -0.0832
C20 C 0.0537(6) 0.0199(2) -0.1194(2)
H26 H -0.0670 0.0156 -0.1010
H27 H 0.0552 0.0007 -0.1649
H28 H 0.0895 0.0715 -0.1197
C21 C 0.3860(6) -0.0108(2) -0.0965(2)
H29 H 0.4165 0.0406 -0.0883
H30 H 0.4001 -0.0217 -0.1440
H31 H 0.4654 -0.0424 -0.0706
C22 C 0.1092(6) -0.1652(2) 0.0662(2)
C23 C 0.2168(6) -0.2869(2) 0.0970(2)
H32 H 0.1186 -0.3141 0.0752
H33 H 0.3167 -0.2825 0.0650
C24 C 0.2779(6) -0.3275(2) 0.1586(2)
H34 H 0.3775 -0.3011 0.1792
H35 H 0.3169 -0.3769 0.1462
H36 H 0.1789 -0.3309 0.1904
C25 C 0.1958(5) 0.2900(2) 0.24603(19)
C26 C 0.3572(5) -0.0844(2) 0.1500(2)
O1 O 0.2639(4) 0.35119(14) 0.25908(13)
H37 H 0.3484 0.3602 0.2308
O2 O 0.1860(4) 0.23935(14) 0.29190(13)
O3 O 0.4065(4) -0.09128(14) 0.21215(13)
O4 O 0.4538(4) -0.10191(15) 0.10165(13)
H38 H 0.3978 -0.1341 0.0778
O5 O 0.1529(4) -0.21151(13) 0.11749(13)
O6 O 0.1159(3) -0.18329(13) 0.00746(14)
O7 O 0.2953(4) 0.28560(15) 0.40900(13)
H39 H 0.2924 0.3307 0.4224
H40 H 0.2238 0.2594 0.4333
loop_
_geom_bond_atom_site_label_1
_geom_bond_atom_site_label_2
_geom_bond_site_symmetry_1
_geom_bond_site_symmetry_2
C1 C2 1_555 1_555
C2 H1 1_555 1_555
C3 C2 1_555 1_555
H2 C3 1_555 1_555
H3 C3 1_555 1_555
C4 C3 1_555 1_555
H4 C4 1_555 1_555
H5 C4 1_555 1_555
C5 C4 1_555 1_555
C6 C5 1_555 1_555
H6 C6 1_555 1_555
C7 C6 1_555 1_555
H7 C7 1_555 1_555
C8 C7 1_555 1_555
H8 C8 1_555 1_555
C9 C8 1_555 1_555
H9 C9 1_555 1_555
H10 C9 1_555 1_555
C10 C5 1_555 1_555
H11 C10 1_555 1_555
C11 C2 1_555 1_555
C12 C11 1_555 1_555
H12 C12 1_555 1_555
H13 C12 1_555 1_555
C13 C12 1_555 1_555
H14 C13 1_555 1_555
H15 C13 1_555 1_555
C14 C1 1_555 1_555
H16 C14 1_555 1_555
H17 C14 1_555 1_555
C15 C1 1_555 1_555
H18 C15 1_555 1_555
H19 C15 1_555 1_555
H20 C15 1_555 1_555
C16 C11 1_555 1_555
H21 C16 1_555 1_555
H22 C16 1_555 1_555
H23 C16 1_555 1_555
C17 C5 1_555 1_555
H24 C17 1_555 1_555
C18 C8 1_555 1_555
C19 C18 1_555 1_555
H25 C19 1_555 1_555
C20 C19 1_555 1_555
H26 C20 1_555 1_555
H27 C20 1_555 1_555
H28 C20 1_555 1_555
C21 C19 1_555 1_555
H29 C21 1_555 1_555
H30 C21 1_555 1_555
H31 C21 1_555 1_555
C22 C7 1_555 1_555
C23 H32 1_555 1_555
H33 C23 1_555 1_555
C24 C23 1_555 1_555
H34 C24 1_555 1_555
H35 C24 1_555 1_555
H36 C24 1_555 1_555
C25 C1 1_555 1_555
C26 C6 1_555 1_555
O1 C25 1_555 1_555
H37 O1 1_555 1_555
O2 C25 1_555 1_555
O3 C26 1_555 1_555
O4 C26 1_555 1_555
H38 O4 1_555 1_555
O5 C22 1_555 1_555
O6 C22 1_555 1_555
O7 H39 1_555 1_555
H40 O7 1_555 1_555
C9 C10 1_555 1_555
C10 C11 1_555 1_555
C13 C14 1_555 1_555
C17 C18 1_555 1_555
C23 O5 1_555 1_555

#END
