
#######################################################################
#
#                 Cambridge Crystallographic Data Centre
#                                CCDC 
#
#######################################################################
#
# If this CIF has been generated from an entry in the Cambridge 
# Structural Database, then it will include bibliographic, chemical, 
# crystal, experimental, refinement or atomic coordinate data resulting 
# from the CCDC's data processing and validation procedures.
#
#######################################################################

data_MUBROR
_chemical_formula_moiety         'C16 H12 N2 O3'
_chemical_name_systematic        6-((4-Nitrobenzyl)oxy)quinoline
_symmetry_cell_setting           monoclinic
_symmetry_space_group_name_H-M   'P 21/n'
_symmetry_Int_Tables_number      14
_space_group_name_Hall           '-P 2yn'
loop_
_symmetry_equiv_pos_site_id
_symmetry_equiv_pos_as_xyz
1 x,y,z
2 1/2-x,1/2+y,1/2-z
3 -x,-y,-z
4 1/2+x,1/2-y,1/2+z
_cell_length_a                   12.296(3)
_cell_length_b                   8.9146(18)
_cell_length_c                   13.559(3)
_cell_angle_alpha                90
_cell_angle_beta                 115.25(3)
_cell_angle_gamma                90
_cell_volume                     1344.25
_exptl_crystal_colour            colorless
_exptl_crystal_description       block
_cell_formula_units_Z            4
_exptl_crystal_recrystallization_method 'ethyl acetate/tetrahydrofuran'
loop_
_atom_site_label
_atom_site_type_symbol
_atom_site_fract_x
_atom_site_fract_y
_atom_site_fract_z
C1 C 0.3786(4) 0.3414(4) -0.1994(3)
H1 H 0.3497 0.3839 -0.2686
C2 C 0.4967(4) 0.3728(4) -0.1275(3)
H2 H 0.5444 0.4336 -0.1487
C3 C 0.5411(3) 0.3132(4) -0.0257(3)
H3 H 0.6202 0.3321 0.0235
C4 C 0.4671(3) 0.2230(3) 0.0046(2)
C5 C 0.5069(2) 0.1580(3) 0.1090(2)
H4 H 0.5847 0.1750 0.1616
C6 C 0.4303(3) 0.0705(3) 0.1319(2)
C7 C 0.3126(3) 0.0454(3) 0.0539(2)
H5 H 0.2613 -0.0147 0.0711
C8 C 0.2730(3) 0.1074(3) -0.0460(2)
H6 H 0.1943 0.0902 -0.0967
C9 C 0.3483(3) 0.1972(3) -0.0747(2)
C10 C 0.5763(2) 0.0164(3) 0.3124(2)
H7 H 0.5943 0.1212 0.3318
H8 H 0.6332 -0.0211 0.2861
C11 C 0.5866(2) -0.0718(3) 0.4102(2)
C12 C 0.6722(3) -0.0323(3) 0.5119(2)
H9 H 0.7211 0.0504 0.5189
C13 C 0.6870(3) -0.1124(3) 0.6032(2)
H10 H 0.7456 -0.0855 0.6715
C14 C 0.6139(2) -0.2321(3) 0.5916(2)
C15 C 0.5270(3) -0.2749(3) 0.4919(2)
H11 H 0.4777 -0.3568 0.4859
C16 C 0.5142(3) -0.1945(3) 0.4008(2)
H12 H 0.4565 -0.2231 0.3325
N1 N 0.3048(2) 0.2567(3) -0.1773(2)
N2 N 0.6285(3) -0.3179(3) 0.6883(2)
O1 O 0.45682(16) 0.0016(2) 0.22964(15)
O2 O 0.7111(2) -0.2867(3) 0.77502(18)
O3 O 0.5578(2) -0.4184(3) 0.67829(19)
loop_
_geom_bond_atom_site_label_1
_geom_bond_atom_site_label_2
_geom_bond_site_symmetry_1
_geom_bond_site_symmetry_2
C1 H1 1_555 1_555
C2 C1 1_555 1_555
H2 C2 1_555 1_555
C3 C2 1_555 1_555
H3 C3 1_555 1_555
C4 C3 1_555 1_555
C5 C4 1_555 1_555
H4 C5 1_555 1_555
C6 C5 1_555 1_555
C7 C6 1_555 1_555
H5 C7 1_555 1_555
C8 C7 1_555 1_555
H6 C8 1_555 1_555
C9 C4 1_555 1_555
C10 H7 1_555 1_555
H8 C10 1_555 1_555
C11 C10 1_555 1_555
C12 C11 1_555 1_555
H9 C12 1_555 1_555
C13 C12 1_555 1_555
H10 C13 1_555 1_555
C14 C13 1_555 1_555
C15 C14 1_555 1_555
H11 C15 1_555 1_555
C16 C11 1_555 1_555
H12 C16 1_555 1_555
N1 C1 1_555 1_555
N2 C14 1_555 1_555
O1 C6 1_555 1_555
O2 N2 1_555 1_555
O3 N2 1_555 1_555
C8 C9 1_555 1_555
C9 N1 1_555 1_555
C10 O1 1_555 1_555
C15 C16 1_555 1_555

#END
