
#######################################################################
#
#                 Cambridge Crystallographic Data Centre
#                                CCDC 
#
#######################################################################
#
# If this CIF has been generated from an entry in the Cambridge 
# Structural Database, then it will include bibliographic, chemical, 
# crystal, experimental, refinement or atomic coordinate data resulting 
# from the CCDC's data processing and validation procedures.
#
#######################################################################

data_MUBRUX
_chemical_formula_moiety         'C31 H25 N1 O1'
_chemical_name_systematic        
2-Benzyl-1,3-diphenyl-2,3-dihydro-1H-naphtho[1,2-e][1,3]oxazine
_symmetry_cell_setting           monoclinic
_symmetry_space_group_name_H-M   'P 21/n'
_symmetry_Int_Tables_number      14
_space_group_name_Hall           '-P 2yn'
loop_
_symmetry_equiv_pos_site_id
_symmetry_equiv_pos_as_xyz
1 x,y,z
2 1/2-x,1/2+y,1/2-z
3 -x,-y,-z
4 1/2+x,1/2-y,1/2+z
_cell_length_a                   9.0605(18)
_cell_length_b                   23.475(5)
_cell_length_c                   10.634(2)
_cell_angle_alpha                90
_cell_angle_beta                 97.53(3)
_cell_angle_gamma                90
_cell_volume                     2242.3
_exptl_crystal_colour            colorless
_exptl_crystal_description       block
_cell_formula_units_Z            4
_exptl_crystal_recrystallization_method 'ethyl acetate'
loop_
_atom_site_label
_atom_site_type_symbol
_atom_site_fract_x
_atom_site_fract_y
_atom_site_fract_z
O1 O 0.56752(15) 0.05364(6) 0.18725(13)
C1 C 0.6744(2) 0.09254(9) 0.25499(19)
H1 H 0.6940 0.1227 0.1957
C2 C 0.8189(2) 0.06072(9) 0.29206(19)
N1 N 0.61811(18) 0.11912(7) 0.36044(15)
C3 C 0.3834(2) 0.12590(8) 0.21580(19)
C4 C 0.2345(2) 0.14567(9) 0.18089(19)
C5 C 0.4930(2) 0.15723(8) 0.31138(19)
H2 H 0.4405 0.1672 0.3832
C6 C 0.4255(2) 0.07585(9) 0.16309(19)
C7 C 0.3247(2) 0.04280(10) 0.0810(2)
H3 H 0.3553 0.0086 0.0489
C8 C 0.5533(2) 0.21233(8) 0.2623(2)
C9 C 0.1826(2) 0.19750(9) 0.2272(2)
H4 H 0.2459 0.2190 0.2846
C10 C 0.1337(2) 0.11330(10) 0.0960(2)
C11 C 0.7137(2) 0.13377(9) 0.6347(2)
H5 H 0.7814 0.1453 0.5811
C12 C 0.5928(2) 0.10047(8) 0.58716(18)
C13 C -0.0124(2) 0.13407(11) 0.0593(2)
H6 H -0.0790 0.1129 0.0039
C14 C 0.8413(2) 0.00538(9) 0.2547(2)
H7 H 0.7636 -0.0147 0.2089
C15 C 0.1826(2) 0.06123(10) 0.0491(2)
H8 H 0.1163 0.0392 -0.0046
C16 C 1.0728(3) 0.06368(11) 0.3912(2)
H9 H 1.1506 0.0834 0.4378
C17 C 0.9361(2) 0.08953(10) 0.3615(2)
H10 H 0.9223 0.1266 0.3883
C18 C 0.5762(2) 0.07786(8) 0.45383(19)
H11 H 0.6375 0.0441 0.4518
H12 H 0.4734 0.0666 0.4294
C19 C 0.6355(3) 0.13384(11) 0.8404(2)
H13 H 0.6495 0.1452 0.9249
C20 C 0.5268(2) 0.22873(10) 0.1367(2)
H14 H 0.4695 0.2055 0.0785
C21 C 0.0414(3) 0.21641(10) 0.1892(2)
H15 H 0.0099 0.2508 0.2202
C22 C 1.0949(3) 0.00892(11) 0.3522(2)
H16 H 1.1876 -0.0083 0.3712
C23 C 0.4939(2) 0.08446(9) 0.6690(2)
H17 H 0.4115 0.0624 0.6390
C24 C 0.5154(3) 0.10079(11) 0.7951(2)
H18 H 0.4483 0.0893 0.8493
C25 C 0.9789(3) -0.02034(11) 0.2850(2)
H19 H 0.9930 -0.0577 0.2598
C26 C -0.0562(3) 0.18458(11) 0.1040(2)
H20 H -0.1517 0.1981 0.0778
C27 C 0.6384(3) 0.24804(10) 0.3467(2)
H21 H 0.6572 0.2379 0.4319
C28 C 0.7349(3) 0.15011(10) 0.7604(2)
H22 H 0.8169 0.1722 0.7910
C29 C 0.5843(3) 0.27926(11) 0.0957(3)
H23 H 0.5658 0.2897 0.0108
C30 C 0.6956(3) 0.29827(11) 0.3065(3)
H24 H 0.7526 0.3217 0.3644
C31 C 0.6686(3) 0.31363(11) 0.1813(3)
H25 H 0.7075 0.3475 0.1542
loop_
_geom_bond_atom_site_label_1
_geom_bond_atom_site_label_2
_geom_bond_site_symmetry_1
_geom_bond_site_symmetry_2
O1 C1 1_555 1_555
C1 H1 1_555 1_555
C2 C1 1_555 1_555
N1 C1 1_555 1_555
C3 C4 1_555 1_555
C4 C9 1_555 1_555
C5 N1 1_555 1_555
H2 C5 1_555 1_555
C6 O1 1_555 1_555
C7 C6 1_555 1_555
H3 C7 1_555 1_555
C8 C5 1_555 1_555
C9 H4 1_555 1_555
C10 C4 1_555 1_555
C11 H5 1_555 1_555
C12 C11 1_555 1_555
C13 C10 1_555 1_555
H6 C13 1_555 1_555
C14 C2 1_555 1_555
H7 C14 1_555 1_555
C15 C7 1_555 1_555
H8 C15 1_555 1_555
C16 H9 1_555 1_555
C17 C2 1_555 1_555
H10 C17 1_555 1_555
C18 N1 1_555 1_555
H11 C18 1_555 1_555
H12 C18 1_555 1_555
C19 H13 1_555 1_555
C20 C8 1_555 1_555
H14 C20 1_555 1_555
C21 C9 1_555 1_555
H15 C21 1_555 1_555
C22 C16 1_555 1_555
H16 C22 1_555 1_555
C23 C12 1_555 1_555
H17 C23 1_555 1_555
C24 C19 1_555 1_555
H18 C24 1_555 1_555
C25 C14 1_555 1_555
H19 C25 1_555 1_555
C26 C13 1_555 1_555
H20 C26 1_555 1_555
C27 C8 1_555 1_555
H21 C27 1_555 1_555
C28 C11 1_555 1_555
H22 C28 1_555 1_555
C29 C20 1_555 1_555
H23 C29 1_555 1_555
C30 C27 1_555 1_555
H24 C30 1_555 1_555
C31 C29 1_555 1_555
H25 C31 1_555 1_555
C3 C5 1_555 1_555
C3 C6 1_555 1_555
C10 C15 1_555 1_555
C12 C18 1_555 1_555
C16 C17 1_555 1_555
C19 C28 1_555 1_555
C21 C26 1_555 1_555
C22 C25 1_555 1_555
C23 C24 1_555 1_555
C30 C31 1_555 1_555

#END
