
#######################################################################
#
#                 Cambridge Crystallographic Data Centre
#                                CCDC 
#
#######################################################################
#
# If this CIF has been generated from an entry in the Cambridge 
# Structural Database, then it will include bibliographic, chemical, 
# crystal, experimental, refinement or atomic coordinate data resulting 
# from the CCDC's data processing and validation procedures.
#
#######################################################################

data_MUBSOT
_chemical_name_common            'di-t-butyl bisindenofused pentacene dihydrate'
_chemical_formula_moiety         'C42 H34,2(H2 O1)'
_chemical_name_systematic        '6,15-di-t-butyldibenzo[b,n]rubicene dihydrate'
_symmetry_cell_setting           monoclinic
_symmetry_space_group_name_H-M   'C 2/c'
_symmetry_Int_Tables_number      15
_space_group_name_Hall           '-C 2yn'
loop_
_symmetry_equiv_pos_site_id
_symmetry_equiv_pos_as_xyz
1 x,y,z
2 -x,y,1/2-z
3 1/2+x,1/2+y,z
4 1/2-x,1/2+y,1/2-z
5 -x,-y,-z
6 x,-y,1/2+z
7 1/2-x,1/2-y,-z
8 1/2+x,1/2-y,1/2+z
_cell_length_a                   27.2227(14)
_cell_length_b                   16.4194(8)
_cell_length_c                   6.9476(4)
_cell_angle_alpha                90
_cell_angle_beta                 101.7790(18)
_cell_angle_gamma                90
_cell_volume                     3040.05
_exptl_crystal_colour            'dark green'
_exptl_crystal_description       Block
_cell_formula_units_Z            4
loop_
_atom_site_label
_atom_site_type_symbol
_atom_site_fract_x
_atom_site_fract_y
_atom_site_fract_z
O1 O 0.5000 0.0325(9) 0.7500
C1 C 0.67533(13) 0.15824(19) 0.2847(5)
H1 H 0.7015 0.1169 0.2896
H2 H 0.6899 0.2125 0.2789
H3 H 0.6489 0.1495 0.1676
C2 C 0.69168(13) 0.1572(2) 0.6526(5)
H4 H 0.7177 0.1161 0.6511
H5 H 0.6760 0.1478 0.7656
H6 H 0.7069 0.2116 0.6629
C3 C 0.62928(12) 0.06314(18) 0.4611(5)
H7 H 0.6028 0.0578 0.3429
H8 H 0.6150 0.0547 0.5781
H9 H 0.6554 0.0224 0.4579
C4 C 0.62224(7) 0.59257(12) 0.4642(2)
C5 C 0.66100(7) 0.65021(13) 0.4559(3)
H10 H 0.6539 0.7067 0.4603
C6 C 0.70789(7) 0.62601(14) 0.4417(3)
H11 H 0.7333 0.6654 0.4381
C7 C 0.71881(7) 0.54197(13) 0.4323(3)
H12 H 0.7516 0.5255 0.4219
C8 C 0.68339(7) 0.48456(13) 0.4380(3)
H13 H 0.6917 0.4286 0.4302
C9 C 0.63357(6) 0.50668(12) 0.4557(2)
C10 C 0.59524(7) 0.45123(11) 0.4660(2)
C11 C 0.54743(6) 0.48095(11) 0.4831(2)
C12 C 0.53566(6) 0.56545(11) 0.4900(2)
C13 C 0.57464(7) 0.62015(12) 0.4798(2)
H14 H 0.5686 0.6770 0.4837
C14 C 0.51402(6) 0.41634(11) 0.4924(2)
C15 C 0.54190(7) 0.34072(11) 0.4828(2)
C16 C 0.52865(7) 0.25957(12) 0.4875(3)
H15 H 0.4954 0.2451 0.4962
C17 C 0.56391(8) 0.19928(13) 0.4794(3)
H16 H 0.5543 0.1437 0.4826
C18 C 0.61324(8) 0.21840(13) 0.4666(3)
C19 C 0.62640(7) 0.30025(12) 0.4596(3)
H17 H 0.6596 0.3143 0.4496
C20 C 0.59164(7) 0.36182(11) 0.4670(2)
C21 C 0.65303(9) 0.15160(13) 0.4679(3)
C1D C 0.32467(13) 0.84176(19) 0.7153(5)
H1D H 0.2985 0.8831 0.7104
H2D H 0.3101 0.7875 0.7211
H3D H 0.3511 0.8505 0.8324
C2D C 0.30832(13) 0.8428(2) 0.3474(5)
H4D H 0.2823 0.8839 0.3489
H5D H 0.3240 0.8522 0.2344
H6D H 0.2931 0.7884 0.3371
C3D C 0.37072(12) 0.93686(18) 0.5389(5)
H7D H 0.3972 0.9422 0.6571
H8D H 0.3850 0.9453 0.4219
H9D H 0.3446 0.9776 0.5421
C4D C 0.37776(7) 0.40743(12) 0.5358(2)
C5D C 0.33900(7) 0.34979(13) 0.5441(3)
H10D H 0.3461 0.2933 0.5397
C6D C 0.29211(7) 0.37399(14) 0.5583(3)
H11D H 0.2667 0.3346 0.5619
C7D C 0.28119(7) 0.45803(13) 0.5677(3)
H12D H 0.2484 0.4745 0.5781
C8D C 0.31661(7) 0.51544(13) 0.5620(3)
H13D H 0.3083 0.5714 0.5698
C9D C 0.36643(6) 0.49332(12) 0.5443(2)
C10D C 0.40476(7) 0.54877(11) 0.5340(2)
C11D C 0.45257(6) 0.51905(11) 0.5169(2)
C12D C 0.46434(6) 0.43455(11) 0.5100(2)
C13D C 0.42536(7) 0.37985(12) 0.5202(2)
H14D H 0.4314 0.3230 0.5163
C14D C 0.48598(6) 0.58366(11) 0.5076(2)
C15D C 0.45810(7) 0.65928(11) 0.5172(2)
C16D C 0.47135(7) 0.74043(12) 0.5125(3)
H15D H 0.5046 0.7549 0.5038
C17D C 0.43609(8) 0.80072(13) 0.5206(3)
H16D H 0.4457 0.8563 0.5174
C18D C 0.38676(8) 0.78160(13) 0.5334(3)
C19D C 0.37360(7) 0.69975(12) 0.5404(3)
H17D H 0.3404 0.6857 0.5504
C20D C 0.40836(7) 0.63818(11) 0.5330(2)
C21D C 0.34697(9) 0.84840(13) 0.5321(3)
O2? O 0.4555(2) 0.0867(4) 0.6028(8)
C22? C 0.4793(4) 0.0294(7) 0.4813(18)
C23? C 0.7106(3) 0.1960(5) 0.4724(14)
H18? H 0.7360 0.1534 0.4765
H19? H 0.7196 0.2306 0.5892
H20? H 0.7089 0.2292 0.3540
C24? C 0.6627(4) 0.1134(6) 0.6719(14)
H21? H 0.6326 0.0843 0.6906
H22? H 0.6710 0.1561 0.7716
H23? H 0.6908 0.0750 0.6848
C25? C 0.6430(4) 0.1052(5) 0.3053(14)
H24? H 0.6702 0.0659 0.3081
H25? H 0.6401 0.1400 0.1888
H26? H 0.6114 0.0760 0.3004
loop_
_geom_bond_atom_site_label_1
_geom_bond_atom_site_label_2
_geom_bond_site_symmetry_1
_geom_bond_site_symmetry_2
C1 H1 1_555 1_555
H2 C1 1_555 1_555
H3 C1 1_555 1_555
C2 H4 1_555 1_555
H5 C2 1_555 1_555
H6 C2 1_555 1_555
C3 H7 1_555 1_555
H8 C3 1_555 1_555
H9 C3 1_555 1_555
C4 C5 1_555 1_555
C5 H10 1_555 1_555
C6 C5 1_555 1_555
H11 C6 1_555 1_555
C7 C6 1_555 1_555
H12 C7 1_555 1_555
C8 C7 1_555 1_555
H13 C8 1_555 1_555
C9 C4 1_555 1_555
C10 C9 1_555 1_555
C11 C10 1_555 1_555
C12 C11 1_555 1_555
C13 C4 1_555 1_555
H14 C13 1_555 1_555
C14 C11 1_555 1_555
C15 C14 1_555 1_555
C16 C15 1_555 1_555
H15 C16 1_555 1_555
C17 C16 1_555 1_555
H16 C17 1_555 1_555
C18 C17 1_555 1_555
C19 C18 1_555 1_555
H17 C19 1_555 1_555
C20 C10 1_555 1_555
C21 C1 1_555 1_555
C1D H1D 1_555 1_555
H2D C1D 1_555 1_555
H3D C1D 1_555 1_555
C2D H4D 1_555 1_555
H5D C2D 1_555 1_555
H6D C2D 1_555 1_555
C3D H7D 1_555 1_555
H8D C3D 1_555 1_555
H9D C3D 1_555 1_555
C4D C5D 1_555 1_555
C5D H10D 1_555 1_555
C6D C5D 1_555 1_555
H11D C6D 1_555 1_555
C7D C6D 1_555 1_555
H12D C7D 1_555 1_555
C8D C7D 1_555 1_555
H13D C8D 1_555 1_555
C9D C4D 1_555 1_555
C10D C9D 1_555 1_555
C11D C10D 1_555 1_555
C12D C14 1_555 1_555
C13D C4D 1_555 1_555
H14D C13D 1_555 1_555
C14D C12 1_555 1_555
C15D C14D 1_555 1_555
C16D C15D 1_555 1_555
H15D C16D 1_555 1_555
C17D C16D 1_555 1_555
H16D C17D 1_555 1_555
C18D C17D 1_555 1_555
C19D C18D 1_555 1_555
H17D C19D 1_555 1_555
C20D C10D 1_555 1_555
C21D C1D 1_555 1_555
C2 C21 1_555 1_555
C3 C21 1_555 1_555
C8 C9 1_555 1_555
C12 C13 1_555 1_555
C15 C20 1_555 1_555
C18 C21 1_555 1_555
C19 C20 1_555 1_555
C2D C21D 1_555 1_555
C3D C21D 1_555 1_555
C8D C9D 1_555 1_555
C11D C12D 1_555 1_555
C11D C14D 1_555 1_555
C12D C13D 1_555 1_555
C15D C20D 1_555 1_555
C18D C21D 1_555 1_555
C19D C20D 1_555 1_555

#END
