
#######################################################################
#
#                 Cambridge Crystallographic Data Centre
#                                CCDC 
#
#######################################################################
#
# If this CIF has been generated from an entry in the Cambridge 
# Structural Database, then it will include bibliographic, chemical, 
# crystal, experimental, refinement or atomic coordinate data resulting 
# from the CCDC's data processing and validation procedures.
#
#######################################################################

data_MUCFAR
_chemical_formula_moiety         'C36 H27 O1 P1'
_chemical_name_systematic        
4-(2'-Naphthyl)benzoylmethylidenetriphenylphosphorane
_symmetry_cell_setting           monoclinic
_symmetry_space_group_name_H-M   'P 21/c'
_symmetry_Int_Tables_number      14
_space_group_name_Hall           '-P 2ybc'
loop_
_symmetry_equiv_pos_site_id
_symmetry_equiv_pos_as_xyz
1 x,y,z
2 x,1/2-y,1/2+z
3 -x,-y,-z
4 -x,1/2+y,1/2-z
_cell_length_a                   21.492(1)
_cell_length_b                   8.0545(4)
_cell_length_c                   15.4024(9)
_cell_angle_alpha                90
_cell_angle_beta                 96.1(8)
_cell_angle_gamma                90
_cell_volume                     2651.17
_exptl_crystal_colour            colorless
_exptl_crystal_description       platelet
_chemical_melting_point          205-206deg.C
_cell_formula_units_Z            4
loop_
_atom_site_label
_atom_site_type_symbol
_atom_site_fract_x
_atom_site_fract_y
_atom_site_fract_z
P1 P 0.31747(4) -0.06414(11) 0.63053(6)
O1 O 0.32403(11) 0.2274(3) 0.51988(19)
C1 C 0.02235(17) 0.6296(5) 0.3653(3)
C2 C 0.07733(18) 0.6695(5) 0.4133(3)
C3 C 0.0900(2) 0.8377(5) 0.4359(3)
C4 C 0.0458(2) 0.9594(5) 0.4136(3)
C5 C -0.01036(17) 0.9190(5) 0.3655(2)
C6 C -0.0576(2) 1.0432(5) 0.3413(3)
C7 C -0.11071(18) 1.0035(6) 0.2918(3)
C8 C -0.12095(18) 0.8395(6) 0.2608(3)
C9 C -0.07726(18) 0.7173(5) 0.2839(3)
C10 C -0.02293(17) 0.7556(5) 0.3377(2)
C11 C 0.12460(16) 0.5401(4) 0.4406(2)
C12 C 0.10858(16) 0.3947(4) 0.4832(2)
C13 C 0.15402(16) 0.2784(4) 0.5118(2)
C14 C 0.21659(15) 0.3025(4) 0.4978(2)
C15 C 0.23185(16) 0.4456(4) 0.4528(2)
C16 C 0.18697(17) 0.5625(4) 0.4259(2)
C17 C 0.26876(16) 0.1870(4) 0.5326(2)
C18 C 0.25535(14) 0.0455(4) 0.5783(2)
C19 C 0.36873(14) 0.0602(4) 0.7050(2)
C20 C 0.43281(16) 0.0292(4) 0.7191(2)
C21 C 0.46946(17) 0.1183(5) 0.7825(3)
C22 C 0.44277(19) 0.2356(5) 0.8324(3)
C23 C 0.3793(2) 0.2675(5) 0.8178(3)
C24 C 0.34310(18) 0.1803(5) 0.7545(3)
C25 C 0.36823(15) -0.1721(4) 0.5620(2)
C26 C 0.36943(16) -0.3448(4) 0.5580(3)
C27 C 0.40763(17) -0.4249(5) 0.5036(3)
C28 C 0.44507(17) -0.3342(5) 0.4538(3)
C29 C 0.44388(16) -0.1613(5) 0.4562(2)
C30 C 0.40615(16) -0.0804(4) 0.5108(2)
C31 C 0.28426(14) -0.2212(4) 0.6950(2)
C32 C 0.30645(16) -0.2488(5) 0.7828(2)
C33 C 0.27920(18) -0.3715(5) 0.8308(3)
C34 C 0.23109(18) -0.4665(5) 0.7916(3)
C35 C 0.20912(17) -0.4421(5) 0.7045(3)
C36 C 0.23565(16) -0.3188(5) 0.6562(3)
H1 H 0.0117 0.5132 0.3455
H2 H -0.0507 1.1524 0.3644
H3 H -0.1435 1.0823 0.2647
H4 H -0.0889 0.5908 0.2663
H5 H 0.0625 0.3880 0.4957
H6 H 0.1412 0.1748 0.5402
H7 H 0.2771 0.4575 0.4412
H8 H 0.1997 0.6688 0.3955
H9 H 0.2138 0.0138 0.5838
H10 H 0.4528 -0.0664 0.6877
H11 H 0.5129 0.0840 0.7923
H12 H 0.4723 0.2858 0.8830
H13 H 0.2998 0.2115 0.7408
H14 H 0.3466 -0.4222 0.5999
H15 H 0.4027 -0.5622 0.5053
H16 H 0.4701 -0.3792 0.4093
H17 H 0.4721 -0.1058 0.4209
H18 H 0.4026 0.0288 0.5055
H19 H 0.3408 -0.1771 0.8165
H20 H 0.2086 -0.5530 0.8240
H21 H 0.1417 0.8741 0.4740
H22 H -0.1679 0.8078 0.2265
H23 H 0.3546 0.3605 0.8628
H24 H 0.2944 -0.3806 0.9036
H25 H 0.1681 -0.5275 0.6711
H26 H 0.2099 -0.2681 0.5887
H27 H 0.0557 1.1157 0.4174
loop_
_geom_bond_atom_site_label_1
_geom_bond_atom_site_label_2
_geom_bond_site_symmetry_1
_geom_bond_site_symmetry_2
P1 C18 1_555 1_555
O1 C17 1_555 1_555
C1 C2 1_555 1_555
C2 C3 1_555 1_555
C3 C4 1_555 1_555
C4 C5 1_555 1_555
C5 C6 1_555 1_555
C6 C7 1_555 1_555
C7 C8 1_555 1_555
C8 C9 1_555 1_555
C9 C10 1_555 1_555
C10 C1 1_555 1_555
C11 C2 1_555 1_555
C12 C11 1_555 1_555
C13 C12 1_555 1_555
C14 C13 1_555 1_555
C15 C14 1_555 1_555
C16 C11 1_555 1_555
C17 C14 1_555 1_555
C18 C17 1_555 1_555
C19 P1 1_555 1_555
C20 C19 1_555 1_555
C21 C20 1_555 1_555
C22 C21 1_555 1_555
C23 C22 1_555 1_555
C24 C19 1_555 1_555
C25 P1 1_555 1_555
C26 C25 1_555 1_555
C27 C26 1_555 1_555
C28 C27 1_555 1_555
C29 C28 1_555 1_555
C30 C25 1_555 1_555
C31 P1 1_555 1_555
C32 C31 1_555 1_555
C33 C32 1_555 1_555
C34 C33 1_555 1_555
C35 C34 1_555 1_555
C36 C31 1_555 1_555
H1 C1 1_555 1_555
H2 C6 1_555 1_555
H3 C7 1_555 1_555
H4 C9 1_555 1_555
H5 C12 1_555 1_555
H6 C13 1_555 1_555
H7 C15 1_555 1_555
H8 C16 1_555 1_555
H9 C18 1_555 1_555
H10 C20 1_555 1_555
H11 C21 1_555 1_555
H12 C22 1_555 1_555
H13 C24 1_555 1_555
H14 C26 1_555 1_555
H15 C27 1_555 1_555
H16 C28 1_555 1_555
H17 C29 1_555 1_555
H18 C30 1_555 1_555
H19 C32 1_555 1_555
H20 C34 1_555 1_555
H21 C3 1_555 1_555
H22 C8 1_555 1_555
H23 C23 1_555 1_555
H24 C33 1_555 1_555
H25 C35 1_555 1_555
H26 C36 1_555 1_555
H27 C4 1_555 1_555
C5 C10 1_555 1_555
C15 C16 1_555 1_555
C23 C24 1_555 1_555
C29 C30 1_555 1_555
C35 C36 1_555 1_555

#END
