
#######################################################################
#
#                 Cambridge Crystallographic Data Centre
#                                CCDC 
#
#######################################################################
#
# If this CIF has been generated from an entry in the Cambridge 
# Structural Database, then it will include bibliographic, chemical, 
# crystal, experimental, refinement or atomic coordinate data resulting 
# from the CCDC's data processing and validation procedures.
#
#######################################################################

data_MUCFUN
_chemical_formula_moiety         'C27 H24 N2 O1 S2'
_chemical_name_systematic        
2-(4,5-bis(2,5-Dimethyl-3-thienyl)-1-phenyl-1H-imidazol-2-yl)phenol
_symmetry_cell_setting           triclinic
_symmetry_space_group_name_H-M   'P -1'
_symmetry_Int_Tables_number      2
_space_group_name_Hall           '-P 1'
loop_
_symmetry_equiv_pos_site_id
_symmetry_equiv_pos_as_xyz
1 x,y,z
2 -x,-y,-z
_cell_length_a                   11.5307(13)
_cell_length_b                   12.7677(14)
_cell_length_c                   18.229(2)
_cell_angle_alpha                103.512(2)
_cell_angle_beta                 92.109(2)
_cell_angle_gamma                111.527(2)
_cell_volume                     2405
_exptl_crystal_colour            colorless
_exptl_crystal_description       blocky
_cell_formula_units_Z            4
loop_
_atom_site_label
_atom_site_type_symbol
_atom_site_fract_x
_atom_site_fract_y
_atom_site_fract_z
S1 S 0.62891(8) 1.02391(9) 0.20596(5)
S2 S 0.17194(12) 1.14579(17) 0.36931(8)
O1 O 0.1225(3) 0.7350(4) 0.50303(17)
H1 H 0.1581 0.7887 0.4815
N1 N 0.2898(3) 0.8651(3) 0.44069(17)
N2 N 0.4518(2) 0.8252(3) 0.39939(15)
C1 C 0.1953(4) 0.6716(5) 0.5050(2)
C2 C 0.1488(5) 0.5809(6) 0.5392(3)
H2 H 0.0750 0.5683 0.5611
C3 C 0.2146(6) 0.5091(6) 0.5399(3)
H3 H 0.1816 0.4441 0.5588
C4 C 0.3252(5) 0.5337(5) 0.5134(3)
H4 H 0.3707 0.4874 0.5158
C5 C 0.3734(5) 0.6288(5) 0.4821(3)
H5 H 0.4515 0.6453 0.4649
C6 C 0.3082(4) 0.6985(4) 0.4761(2)
C7 C 0.3509(4) 0.7966(4) 0.4404(2)
C8 C 0.5326(3) 0.7659(3) 0.37673(18)
C9 C 0.6483(4) 0.7996(4) 0.4187(2)
H6 H 0.6734 0.8606 0.4629
C10 C 0.7265(5) 0.7426(5) 0.3950(4)
H7 H 0.8039 0.7638 0.4236
C11 C 0.6895(7) 0.6544(6) 0.3288(4)
H8 H 0.7435 0.6174 0.3122
C12 C 0.5764(7) 0.6201(5) 0.2873(3)
H9 H 0.5521 0.5591 0.2431
C13 C 0.4969(5) 0.6763(4) 0.3108(2)
H10 H 0.4192 0.6535 0.2822
C14 C 0.4501(3) 0.9181(3) 0.37310(18)
C15 C 0.3493(3) 0.9416(4) 0.3987(2)
C16 C 0.3742(4) 0.8907(4) 0.2045(2)
H11 H 0.3165 0.8562 0.2369
H12 H 0.3746 0.8306 0.1616
H13 H 0.3487 0.9452 0.1869
C17 C 0.5034(3) 0.9530(3) 0.24811(18)
C18 C 0.5391(3) 0.9678(3) 0.32298(18)
C19 C 0.6696(3) 1.0366(3) 0.34537(19)
H14 H 0.7091 1.0540 0.3946
C20 C 0.7318(3) 1.0749(3) 0.2890(2)
C21 C 0.8648(3) 1.1510(3) 0.2912(2)
H15 H 0.9085 1.1714 0.3415
H16 H 0.8691 1.2208 0.2780
H17 H 0.9033 1.1104 0.2554
C22 C 0.0701(4) 0.9285(6) 0.3987(3)
H18 H 0.0918 0.8663 0.4076
H19 H 0.0083 0.8989 0.3543
H20 H 0.0362 0.9595 0.4420
C23 C 0.1847(4) 1.0227(5) 0.3865(3)
C24 C 0.3057(3) 1.0300(4) 0.38570(19)
C25 C 0.3847(4) 1.1354(4) 0.3705(2)
H21 H 0.4701 1.1541 0.3678
C26 C 0.3269(4) 1.2065(5) 0.3603(2)
C27 C 0.3789(5) 1.3213(5) 0.3419(3)
H22 H 0.4672 1.3426 0.3387
H23 H 0.3668 1.3797 0.3812
H24 H 0.3362 1.3156 0.2941
S3 S 0.52337(9) 0.32178(10) 1.13550(6)
S4 S 0.87576(9) 0.03622(9) 1.07445(5)
O2 O 0.7365(3) 0.5268(3) 0.86428(19)
H25 H 0.7338 0.4929 0.8995
N3 N 0.7677(3) 0.3857(2) 0.93512(16)
N4 N 0.9067(2) 0.3048(2) 0.91012(13)
C28 C 0.8095(4) 0.4989(3) 0.8160(2)
C29 C 0.8266(4) 0.5458(4) 0.7524(3)
H26 H 0.7902 0.5985 0.7480
C30 C 0.8929(4) 0.5173(4) 0.6985(3)
H27 H 0.9031 0.5504 0.6576
C31 C 0.9446(4) 0.4405(4) 0.7038(2)
H28 H 0.9890 0.4194 0.6653
C32 C 0.9345(4) 0.3923(4) 0.7636(2)
H29 H 0.9714 0.3391 0.7653
C33 C 0.8680(3) 0.4226(3) 0.8232(2)
C34 C 0.8510(3) 0.3724(3) 0.88812(18)
C35 C 1.0068(3) 0.2760(3) 0.87938(17)
C36 C 1.1267(3) 0.3591(3) 0.8965(2)
H30 H 1.1425 0.4330 0.9279
C37 C 1.2255(4) 0.3324(5) 0.8664(3)
H31 H 1.3070 0.3888 0.8758
C38 C 1.1997(5) 0.2225(6) 0.8232(3)
H32 H 1.2653 0.2030 0.8046
C39 C 1.0808(4) 0.1402(4) 0.8064(2)
H33 H 1.0650 0.0659 0.7755
C40 C 0.9840(3) 0.1671(3) 0.8351(2)
H34 H 0.9024 0.1107 0.8241
C41 C 0.7697(3) 0.3255(3) 0.98899(17)
C42 C 0.8542(3) 0.2738(3) 0.97378(17)
C43 C 0.4892(4) 0.3092(5) 0.9803(3)
H35 H 0.5328 0.3091 0.9365
H36 H 0.4636 0.3742 0.9904
H37 H 0.4163 0.2378 0.9709
C44 C 0.5747(3) 0.3196(3) 1.0478(2)
C45 C 0.6946(3) 0.3244(3) 1.05119(18)
C46 C 0.7437(3) 0.3325(3) 1.12770(19)
H38 H 0.8249 0.3378 1.1404
C47 C 0.6633(3) 0.3318(3) 1.1781(2)
C48 C 0.6838(4) 0.3396(4) 1.2621(2)
H39 H 0.7675 0.3451 1.2756
H40 H 0.6239 0.2710 1.2724
H41 H 0.6730 0.4075 1.2914
C49 C 0.6666(3) 0.0409(3) 0.9975(2)
H42 H 0.6413 0.0857 0.9694
H43 H 0.6227 0.0364 1.0411
H44 H 0.6467 -0.0363 0.9655
C50 C 0.8037(3) 0.0981(3) 1.02277(17)
C51 C 0.8897(3) 0.1985(3) 1.01214(17)
C52 C 1.0128(3) 0.2230(3) 1.04548(18)
H45 H 1.0822 0.2876 1.0425
C53 C 1.0212(3) 0.1448(3) 1.08203(19)
C54 C 1.1344(4) 0.1439(4) 1.1247(2)
H46 H 1.2073 0.2105 1.1228
H47 H 1.1467 0.0737 1.1019
H48 H 1.1217 0.1472 1.1768
loop_
_geom_bond_atom_site_label_1
_geom_bond_atom_site_label_2
_geom_bond_site_symmetry_1
_geom_bond_site_symmetry_2
S1 C17 1_555 1_555
S2 C23 1_555 1_555
O1 H1 1_555 1_555
N1 C7 1_555 1_555
N2 C7 1_555 1_555
C1 O1 1_555 1_555
C2 C1 1_555 1_555
H2 C2 1_555 1_555
C3 C2 1_555 1_555
H3 C3 1_555 1_555
C4 C3 1_555 1_555
H4 C4 1_555 1_555
C5 C4 1_555 1_555
H5 C5 1_555 1_555
C6 C1 1_555 1_555
C7 C6 1_555 1_555
C8 N2 1_555 1_555
C9 C8 1_555 1_555
H6 C9 1_555 1_555
C10 C9 1_555 1_555
H7 C10 1_555 1_555
C11 C10 1_555 1_555
H8 C11 1_555 1_555
C12 C11 1_555 1_555
H9 C12 1_555 1_555
C13 C8 1_555 1_555
H10 C13 1_555 1_555
C14 N2 1_555 1_555
C15 N1 1_555 1_555
C16 H11 1_555 1_555
H12 C16 1_555 1_555
H13 C16 1_555 1_555
C17 C16 1_555 1_555
C18 C14 1_555 1_555
C19 C18 1_555 1_555
H14 C19 1_555 1_555
C20 S1 1_555 1_555
C21 C20 1_555 1_555
H15 C21 1_555 1_555
H16 C21 1_555 1_555
H17 C21 1_555 1_555
C22 H18 1_555 1_555
H19 C22 1_555 1_555
H20 C22 1_555 1_555
C23 C22 1_555 1_555
C24 C15 1_555 1_555
C25 C24 1_555 1_555
H21 C25 1_555 1_555
C26 S2 1_555 1_555
C27 C26 1_555 1_555
H22 C27 1_555 1_555
H23 C27 1_555 1_555
H24 C27 1_555 1_555
S3 C44 1_555 1_555
S4 C50 1_555 1_555
O2 H25 1_555 1_555
N3 C34 1_555 1_555
N4 C34 1_555 1_555
C28 O2 1_555 1_555
C29 C28 1_555 1_555
H26 C29 1_555 1_555
C30 C29 1_555 1_555
H27 C30 1_555 1_555
C31 C30 1_555 1_555
H28 C31 1_555 1_555
C32 C31 1_555 1_555
H29 C32 1_555 1_555
C33 C28 1_555 1_555
C34 C33 1_555 1_555
C35 N4 1_555 1_555
C36 C35 1_555 1_555
H30 C36 1_555 1_555
C37 C36 1_555 1_555
H31 C37 1_555 1_555
C38 C37 1_555 1_555
H32 C38 1_555 1_555
C39 C38 1_555 1_555
H33 C39 1_555 1_555
C40 C35 1_555 1_555
H34 C40 1_555 1_555
C41 N3 1_555 1_555
C42 N4 1_555 1_555
C43 H35 1_555 1_555
H36 C43 1_555 1_555
H37 C43 1_555 1_555
C44 C43 1_555 1_555
C45 C41 1_555 1_555
C46 C45 1_555 1_555
H38 C46 1_555 1_555
C47 S3 1_555 1_555
C48 C47 1_555 1_555
H39 C48 1_555 1_555
H40 C48 1_555 1_555
H41 C48 1_555 1_555
C49 H42 1_555 1_555
H43 C49 1_555 1_555
H44 C49 1_555 1_555
C50 C49 1_555 1_555
C51 C42 1_555 1_555
C52 C51 1_555 1_555
H45 C52 1_555 1_555
C53 S4 1_555 1_555
C54 C53 1_555 1_555
H46 C54 1_555 1_555
H47 C54 1_555 1_555
H48 C54 1_555 1_555
C5 C6 1_555 1_555
C12 C13 1_555 1_555
C14 C15 1_555 1_555
C17 C18 1_555 1_555
C19 C20 1_555 1_555
C23 C24 1_555 1_555
C25 C26 1_555 1_555
C32 C33 1_555 1_555
C39 C40 1_555 1_555
C41 C42 1_555 1_555
C44 C45 1_555 1_555
C46 C47 1_555 1_555
C50 C51 1_555 1_555
C52 C53 1_555 1_555

#END
