
#######################################################################
#
#                 Cambridge Crystallographic Data Centre
#                                CCDC 
#
#######################################################################
#
# If this CIF has been generated from an entry in the Cambridge 
# Structural Database, then it will include bibliographic, chemical, 
# crystal, experimental, refinement or atomic coordinate data resulting 
# from the CCDC's data processing and validation procedures.
#
#######################################################################

data_MUCFAS01
_chemical_formula_moiety         'C20 H16 Br1 F1 N4 O3'
_chemical_name_systematic        
((2-Bromo-4-fluorophenyl)amino)(2-((4,6-dimethoxypyrimidin-2-yl)oxy)phenyl)acetonitrile
_symmetry_cell_setting           triclinic
_symmetry_space_group_name_H-M   'P -1'
_symmetry_Int_Tables_number      2
_space_group_name_Hall           '-P 1'
loop_
_symmetry_equiv_pos_site_id
_symmetry_equiv_pos_as_xyz
1 x,y,z
2 -x,-y,-z
_cell_length_a                   8.9131(12)
_cell_length_b                   10.6646(14)
_cell_length_c                   11.7804(15)
_cell_angle_alpha                67.235(2)
_cell_angle_beta                 82.088(2)
_cell_angle_gamma                81.277(2)
_cell_volume                     1016.77
_exptl_crystal_colour            colorless
_exptl_crystal_description       prism
_cell_formula_units_Z            2
loop_
_atom_site_label
_atom_site_type_symbol
_atom_site_fract_x
_atom_site_fract_y
_atom_site_fract_z
Br1 Br 0.87177(6) 0.19134(5) 0.47692(3)
C1 C 0.8785(7) 0.4406(5) 0.8263(5)
H1 H 0.8216 0.3650 0.8427
H2 H 0.8094 0.5215 0.8177
H3 H 0.9396 0.4209 0.8934
C2 C 1.3826(9) 0.1531(8) 0.4606(6)
H4 H 1.4630 0.1237 0.5148
H5 H 1.4256 0.1736 0.3769
H6 H 1.3177 0.0815 0.4831
C3 C 1.0641(5) 0.3549(4) 0.7041(4)
C4 C 1.1395(7) 0.3700(5) 0.5918(5)
H7 H 1.1325 0.4535 0.5256
C5 C 1.2248(6) 0.2593(5) 0.5802(4)
C6 C 1.1637(4) 0.1374(4) 0.7778(3)
C7 C 1.2094(4) -0.1058(3) 0.8622(3)
C8 C 1.3570(4) -0.1646(4) 0.8608(3)
H8 H 1.4360 -0.1196 0.8657
C9 C 1.3866(5) -0.2903(5) 0.8521(4)
H9 H 1.4866 -0.3308 0.8508
C10 C 1.2713(5) -0.3570(4) 0.8454(4)
H10 H 1.2932 -0.4424 0.8392
C11 C 1.1220(4) -0.2986(3) 0.8477(3)
H11 H 1.0438 -0.3442 0.8425
C12 C 1.0890(3) -0.1719(3) 0.8579(2)
C13 C 0.9287(3) -0.1038(3) 0.8655(3)
H12 H 0.9236 -0.0567 0.9230
C14 C 0.8165(4) -0.2061(4) 0.9152(3)
C15 C 0.7744(3) 0.1025(3) 0.7336(3)
C16 C 0.7496(4) 0.2024(3) 0.6176(3)
C17 C 0.6377(5) 0.3112(4) 0.6021(4)
H13 H 0.6232 0.3772 0.5238
C18 C 0.5499(5) 0.3205(4) 0.7017(4)
C19 C 0.5655(4) 0.2245(4) 0.8178(4)
H14 H 0.5020 0.2318 0.8850
C20 C 0.6788(4) 0.1156(3) 0.8329(3)
H15 H 0.6908 0.0497 0.9116
F1 F 0.4431(4) 0.4296(3) 0.6872(3)
N1 N 1.0763(4) 0.2366(3) 0.8016(3)
N2 N 1.2404(4) 0.1355(3) 0.6752(3)
N3 N 0.7279(4) -0.2814(4) 0.9508(4)
N4 N 0.8913(3) -0.0025(3) 0.7473(2)
H16 H 0.9440 -0.0075 0.6820
O1 O 0.9738(5) 0.4619(3) 0.7160(3)
O2 O 1.2974(6) 0.2698(5) 0.4710(3)
O3 O 1.1746(3) 0.0176(2) 0.88016(19)
loop_
_geom_bond_atom_site_label_1
_geom_bond_atom_site_label_2
_geom_bond_site_symmetry_1
_geom_bond_site_symmetry_2
Br1 C16 1_555 1_555
C1 H1 1_555 1_555
H2 C1 1_555 1_555
H3 C1 1_555 1_555
C2 H4 1_555 1_555
H5 C2 1_555 1_555
H6 C2 1_555 1_555
C3 C4 1_555 1_555
C4 H7 1_555 1_555
C5 C4 1_555 1_555
C6 N1 1_555 1_555
C7 C8 1_555 1_555
C8 H8 1_555 1_555
C9 C8 1_555 1_555
H9 C9 1_555 1_555
C10 C9 1_555 1_555
H10 C10 1_555 1_555
C11 C10 1_555 1_555
H11 C11 1_555 1_555
C12 C7 1_555 1_555
C13 C12 1_555 1_555
H12 C13 1_555 1_555
C14 C13 1_555 1_555
C15 C16 1_555 1_555
C16 C17 1_555 1_555
C17 H13 1_555 1_555
C18 C17 1_555 1_555
C19 C18 1_555 1_555
H14 C19 1_555 1_555
C20 C15 1_555 1_555
H15 C20 1_555 1_555
F1 C18 1_555 1_555
N1 C3 1_555 1_555
N2 C5 1_555 1_555
N3 C14 1_555 1_555
N4 C13 1_555 1_555
H16 N4 1_555 1_555
O1 C1 1_555 1_555
O2 C2 1_555 1_555
O3 C6 1_555 1_555
C3 O1 1_555 1_555
C5 O2 1_555 1_555
C6 N2 1_555 1_555
C7 O3 1_555 1_555
C11 C12 1_555 1_555
C15 N4 1_555 1_555
C19 C20 1_555 1_555

#END
