
#######################################################################
#
#                 Cambridge Crystallographic Data Centre
#                                CCDC 
#
#######################################################################
#
# If this CIF has been generated from an entry in the Cambridge 
# Structural Database, then it will include bibliographic, chemical, 
# crystal, experimental, refinement or atomic coordinate data resulting 
# from the CCDC's data processing and validation procedures.
#
#######################################################################

data_MUCFOF
_chemical_formula_moiety         'C27 H18 N6'
_chemical_name_systematic        1,3,5-tris(7-Azaindolyl)benzene
_symmetry_cell_setting           orthorhombic
_symmetry_space_group_name_H-M   'P n a 21'
_symmetry_Int_Tables_number      33
_space_group_name_Hall           'P 2c -2n'
loop_
_symmetry_equiv_pos_site_id
_symmetry_equiv_pos_as_xyz
1 x,y,z
2 -x,-y,1/2+z
3 1/2-x,1/2+y,1/2+z
4 1/2+x,1/2-y,z
_cell_length_a                   20.95(3)
_cell_length_b                   24.92(3)
_cell_length_c                   3.848(5)
_cell_angle_alpha                90
_cell_angle_beta                 90
_cell_angle_gamma                90
_cell_volume                     2008.94
_cell_formula_units_Z            4
_exptl_crystal_recrystallization_method acetonitrile/ethanol
loop_
_atom_site_label
_atom_site_type_symbol
_atom_site_fract_x
_atom_site_fract_y
_atom_site_fract_z
N1 N -0.0199(3) -0.2997(2) -0.6279(17)
C1 C 0.0399(3) -0.3089(3) -0.7880(20)
N2 N -0.1082(3) -0.3540(2) -0.4648(19)
C2 C 0.0444(4) -0.3619(3) -0.8670(20)
N3 N -0.1837(3) -0.1686(2) -0.3764(17)
C3 C -0.0113(4) -0.3879(3) -0.7500(20)
N4 N -0.1756(3) -0.0792(3) -0.5984(19)
C4 C -0.0348(4) -0.4389(3) -0.7400(20)
N5 N 0.0376(3) -0.1275(2) -0.1335(17)
C5 C -0.0935(4) -0.4476(3) -0.5990(20)
N6 N 0.1205(3) -0.1896(3) 0.0480(20)
C6 C -0.1285(3) -0.4044(3) -0.4590(30)
C7 C -0.0503(4) -0.3480(3) -0.5980(20)
C8 C -0.2326(3) -0.2020(3) -0.2610(20)
C9 C -0.2888(4) -0.1759(3) -0.2770(30)
C10 C -0.2754(3) -0.1240(3) -0.4060(20)
C11 C -0.3095(3) -0.0769(3) -0.4910(20)
C12 C -0.2791(4) -0.0337(3) -0.6140(30)
C13 C -0.2128(4) -0.0368(3) -0.6750(30)
C14 C -0.2100(3) -0.1197(3) -0.4540(20)
C15 C 0.0305(3) -0.0729(3) -0.1190(20)
C16 C 0.0838(3) -0.0498(3) 0.0210(20)
C17 C 0.1263(4) -0.0924(3) 0.0950(20)
C18 C 0.1871(4) -0.0957(3) 0.2360(20)
C19 C 0.2118(4) -0.1464(3) 0.2780(20)
C20 C 0.1780(3) -0.1908(3) 0.1730(20)
C21 C 0.0975(4) -0.1402(3) 0.0100(20)
C22 C -0.0385(3) -0.2486(3) -0.4994(19)
C23 C -0.1025(3) -0.2351(3) -0.5110(20)
C24 C -0.1179(3) -0.1854(3) -0.3830(20)
C25 C -0.0736(3) -0.1497(3) -0.2500(20)
C26 C -0.0096(3) -0.1642(3) -0.2600(20)
C27 C 0.0085(3) -0.2150(3) -0.3790(20)
H1 H 0.0709 -0.2831 -0.8323
H2 H 0.0785 -0.3783 -0.9801
H3 H -0.0111 -0.4673 -0.8294
H4 H -0.1105 -0.4821 -0.5945
H5 H -0.1678 -0.4116 -0.3565
H6 H -0.2273 -0.2372 -0.1851
H7 H -0.3286 -0.1893 -0.2154
H8 H -0.3536 -0.0760 -0.4620
H9 H -0.3013 -0.0020 -0.6576
H10 H -0.1933 -0.0073 -0.7770
H11 H -0.0054 -0.0543 -0.1931
H12 H 0.0907 -0.0134 0.0590
H13 H 0.2099 -0.0653 0.2985
H14 H 0.2518 -0.1507 0.3783
H15 H 0.1978 -0.2241 0.1925
H16 H -0.1331 -0.2583 -0.6009
H17 H -0.0863 -0.1170 -0.1562
H18 H 0.0510 -0.2257 -0.3759
loop_
_geom_bond_atom_site_label_1
_geom_bond_atom_site_label_2
_geom_bond_site_symmetry_1
_geom_bond_site_symmetry_2
N1 C1 1_555 1_555
C1 C2 1_555 1_555
N2 C6 1_555 1_555
C2 C3 1_555 1_555
N3 C8 1_555 1_555
C3 C4 1_555 1_555
N4 C13 1_555 1_555
C4 C5 1_555 1_555
N5 C15 1_555 1_555
C5 C6 1_555 1_555
N6 C20 1_555 1_555
C6 H5 1_555 1_555
C7 N1 1_555 1_555
C8 C9 1_555 1_555
C9 C10 1_555 1_555
C10 C11 1_555 1_555
C11 C12 1_555 1_555
C12 C13 1_555 1_555
C13 H10 1_555 1_555
C14 N3 1_555 1_555
C15 C16 1_555 1_555
C16 C17 1_555 1_555
C17 C18 1_555 1_555
C18 C19 1_555 1_555
C19 C20 1_555 1_555
C20 H15 1_555 1_555
C21 N5 1_555 1_555
C22 N1 1_555 1_555
C23 C22 1_555 1_555
C24 N3 1_555 1_555
C25 C24 1_555 1_555
C26 N5 1_555 1_555
C27 C22 1_555 1_555
H1 C1 1_555 1_555
H2 C2 1_555 1_555
H3 C4 1_555 1_555
H4 C5 1_555 1_555
H6 C8 1_555 1_555
H7 C9 1_555 1_555
H8 C11 1_555 1_555
H9 C12 1_555 1_555
H11 C15 1_555 1_555
H12 C16 1_555 1_555
H13 C18 1_555 1_555
H14 C19 1_555 1_555
H16 C23 1_555 1_555
H17 C25 1_555 1_555
H18 C27 1_555 1_555
N2 C7 1_555 1_555
C3 C7 1_555 1_555
N4 C14 1_555 1_555
N6 C21 1_555 1_555
C10 C14 1_555 1_555
C17 C21 1_555 1_555
C23 C24 1_555 1_555
C25 C26 1_555 1_555
C26 C27 1_555 1_555

#END
