
#######################################################################
#
#                 Cambridge Crystallographic Data Centre
#                                CCDC 
#
#######################################################################
#
# If this CIF has been generated from an entry in the Cambridge 
# Structural Database, then it will include bibliographic, chemical, 
# crystal, experimental, refinement or atomic coordinate data resulting 
# from the CCDC's data processing and validation procedures.
#
#######################################################################

data_MUCFIZ
_chemical_formula_moiety         'C20 H13 Br1 N4'
_chemical_name_systematic        1-Bromo-3,5-bis(7-azaindolyl)benzene
_symmetry_cell_setting           monoclinic
_symmetry_space_group_name_H-M   'P 21/c'
_symmetry_Int_Tables_number      14
_space_group_name_Hall           '-P 2ybc'
loop_
_symmetry_equiv_pos_site_id
_symmetry_equiv_pos_as_xyz
1 x,y,z
2 -x,1/2+y,1/2-z
3 -x,-y,-z
4 x,1/2-y,1/2+z
_cell_length_a                   7.0386(13)
_cell_length_b                   9.1710(16)
_cell_length_c                   25.813(5)
_cell_angle_alpha                90
_cell_angle_beta                 90.370(3)
_cell_angle_gamma                90
_cell_volume                     1666.22
_cell_formula_units_Z            4
_exptl_crystal_recrystallization_method dichloromethane/hexane
loop_
_atom_site_label
_atom_site_type_symbol
_atom_site_fract_x
_atom_site_fract_y
_atom_site_fract_z
Br1 Br 0.1166(1) 0.4436(1) 0.1047(1)
N1 N -0.4742(3) 0.6758(2) 0.1975(1)
N2 N -0.7418(3) 0.8251(2) 0.1686(1)
N3 N -0.2473(3) 0.9105(2) 0.0393(1)
N4 N -0.3416(3) 1.1129(2) 0.0934(1)
C1 C -0.9120(4) 0.8747(3) 0.1838(1)
C2 C -0.9955(4) 0.8425(3) 0.2316(1)
C3 C -0.9022(4) 0.7537(3) 0.2665(1)
C4 C -0.7235(4) 0.7001(2) 0.2526(1)
C5 C -0.5820(4) 0.6107(3) 0.2767(1)
C6 C -0.4357(4) 0.5989(3) 0.2431(1)
C7 C -0.6532(3) 0.7409(2) 0.2033(1)
C8 C -0.3900(4) 1.2539(3) 0.0917(1)
C9 C -0.3966(4) 1.3369(3) 0.0462(1)
C10 C -0.3493(4) 1.2746(3) -0.0006(1)
C11 C -0.2974(3) 1.1274(3) -0.0008(1)
C12 C -0.2383(4) 1.0235(3) -0.0386(1)
C13 C -0.2090(4) 0.8954(3) -0.0135(1)
C14 C -0.3004(3) 1.0551(2) 0.0476(1)
C15 C -0.3495(3) 0.6816(2) 0.1542(1)
C16 C -0.2077(4) 0.5750(2) 0.1499(1)
C17 C -0.0828(4) 0.5837(2) 0.1089(1)
C18 C -0.0934(3) 0.6915(2) 0.0715(1)
C19 C -0.2358(3) 0.7971(2) 0.0766(1)
C20 C -0.3635(3) 0.7924(2) 0.1173(1)
H1 H -0.9790(40) 0.9260(30) 0.1597(11)
H2 H -1.1170(40) 0.8750(30) 0.2371(11)
H3 H -0.9520(40) 0.7270(30) 0.2997(12)
H4 H -0.5940(40) 0.5710(30) 0.3120(12)
H5 H -0.3140(40) 0.5530(30) 0.2479(10)
H6 H -0.4200(40) 1.2990(30) 0.1279(11)
H7 H -0.4320(50) 1.4370(30) 0.0500(14)
H8 H -0.3540(30) 1.3270(30) -0.0345(10)
H9 H -0.2190(40) 1.0430(30) -0.0751(12)
H10 H -0.1670(40) 0.8000(30) -0.0276(10)
H11 H -0.2010(40) 0.5000(40) 0.1727(11)
H12 H -0.0120(30) 0.6970(30) 0.0436(10)
H13 H -0.4530(40) 0.8680(30) 0.1216(10)
loop_
_geom_bond_atom_site_label_1
_geom_bond_atom_site_label_2
_geom_bond_site_symmetry_1
_geom_bond_site_symmetry_2
Br1 C17 1_555 1_555
N1 C6 1_555 1_555
N2 C1 1_555 1_555
N3 C13 1_555 1_555
N4 C8 1_555 1_555
C1 C2 1_555 1_555
C2 C3 1_555 1_555
C3 C4 1_555 1_555
C4 C5 1_555 1_555
C5 C6 1_555 1_555
C6 H5 1_555 1_555
C7 N1 1_555 1_555
C8 C9 1_555 1_555
C9 C10 1_555 1_555
C10 C11 1_555 1_555
C11 C12 1_555 1_555
C12 C13 1_555 1_555
C13 H10 1_555 1_555
C14 N3 1_555 1_555
C15 N1 1_555 1_555
C16 C15 1_555 1_555
C17 C16 1_555 1_555
C18 C17 1_555 1_555
C19 N3 1_555 1_555
C20 C15 1_555 1_555
H1 C1 1_555 1_555
H2 C2 1_555 1_555
H3 C3 1_555 1_555
H4 C5 1_555 1_555
H6 C8 1_555 1_555
H7 C9 1_555 1_555
H8 C10 1_555 1_555
H9 C12 1_555 1_555
H11 C16 1_555 1_555
H12 C18 1_555 1_555
H13 C20 1_555 1_555
N2 C7 1_555 1_555
N4 C14 1_555 1_555
C4 C7 1_555 1_555
C11 C14 1_555 1_555
C18 C19 1_555 1_555
C19 C20 1_555 1_555

#END
