
#######################################################################
#
#                 Cambridge Crystallographic Data Centre
#                                CCDC 
#
#######################################################################
#
# If this CIF has been generated from an entry in the Cambridge 
# Structural Database, then it will include bibliographic, chemical, 
# crystal, experimental, refinement or atomic coordinate data resulting 
# from the CCDC's data processing and validation procedures.
#
#######################################################################

data_MUCGIC
_chemical_formula_moiety         'C77 H92 N2 O22,C12 H14 N2 2+,2(F6 P1 1-)'
_chemical_name_systematic        
"1,1'-Dimethyl-4,4'-bipyridinium bis(hexafluorophosphate) 14,19,24,29,76,78,80,82-octamethoxy-8,36,46,49,52,55,58,61,64,67,70,73-dodecaoxa-5,39-diazadecacyclo[41.17.13.2^13,16^.2^18,21^.2^23,26^.2^28,31^.1^3,59^.1^41,45^.0^9,33^.0^11,35^]trioctaconta-1,3(74),9(33),10,13,15,18,20,23,25,28,30,34,41(75),42,44,59,76,78,80,82-henicosaene-4,40-dione"
_symmetry_cell_setting           monoclinic
_symmetry_space_group_name_H-M   'C 2/c'
_symmetry_Int_Tables_number      15
_space_group_name_Hall           '-C 2yn'
loop_
_symmetry_equiv_pos_site_id
_symmetry_equiv_pos_as_xyz
1 x,y,z
2 -x,y,1/2-z
3 1/2+x,1/2+y,z
4 1/2-x,1/2+y,1/2-z
5 -x,-y,-z
6 x,-y,1/2+z
7 1/2-x,1/2-y,-z
8 1/2+x,1/2-y,1/2+z
_cell_length_a                   18.690(3)
_cell_length_b                   26.430(4)
_cell_length_c                   43.505(7)
_cell_angle_alpha                90
_cell_angle_beta                 97.138(3)
_cell_angle_gamma                90
_cell_volume                     21323.9
_exptl_crystal_colour            orange
_exptl_crystal_description       block
_cell_formula_units_Z            8
loop_
_atom_site_label
_atom_site_type_symbol
_atom_site_fract_x
_atom_site_fract_y
_atom_site_fract_z
C1 C 0.5001(3) 0.3456(3) 0.20322(14)
H1 H 0.5472 0.3416 0.1987
C2 C 0.4713(4) 0.3935(3) 0.20603(15)
C3 C 0.3990(4) 0.4000(2) 0.21186(13)
H2 H 0.3792 0.4322 0.2125
C4 C 0.3587(3) 0.3579(2) 0.21653(11)
C5 C 0.3892(3) 0.3105(2) 0.21405(11)
H3 H 0.3620 0.2819 0.2171
C6 C 0.4582(3) 0.3046(2) 0.20721(12)
C7 C 0.5821(4) 0.4375(3) 0.20640(17)
H4 H 0.5984 0.4266 0.1872
H5 H 0.6018 0.4149 0.2228
C8 C 0.6058(5) 0.4917(3) 0.21385(19)
H6 H 0.5895 0.5025 0.2331
H7 H 0.6580 0.4942 0.2160
C9 C 0.5851(6) 0.5697(4) 0.1945(2)
H8 H 0.6363 0.5772 0.1972
H9 H 0.5664 0.5791 0.2136
C10 C 0.5498(5) 0.6006(3) 0.1693(2)
H10 H 0.4980 0.5993 0.1694
H11 H 0.5650 0.6356 0.1723
C11 C 0.6204(4) 0.6050(3) 0.1283(2)
H12 H 0.6654 0.5982 0.1413
H13 H 0.6132 0.6413 0.1277
C12 C 0.6257(4) 0.5881(3) 0.09899(18)
H14 H 0.6529 0.6137 0.0895
H15 H 0.6563 0.5583 0.1014
C13 C 0.5878(3) 0.5591(2) 0.05068(17)
H16 H 0.6395 0.5595 0.0501
H17 H 0.5657 0.5814 0.0345
C14 C 0.5598(2) 0.50576(18) 0.04458(12)
H18 H 0.5773 0.4921 0.0262
H19 H 0.5763 0.4840 0.0620
C15 C 0.5518(5) 0.2454(4) 0.20702(18)
H20 H 0.5744 0.2566 0.2271
H21 H 0.5746 0.2627 0.1911
C16 C 0.5594(5) 0.1881(3) 0.2039(2)
H22 H 0.6081 0.1781 0.2119
H23 H 0.5265 0.1714 0.2161
C17 C 0.5878(5) 0.1614(4) 0.1587(2)
H24 H 0.6147 0.1350 0.1706
H25 H 0.6200 0.1902 0.1595
C18 C 0.5834(3) 0.1442(3) 0.12743(19)
H26 H 0.6235 0.1578 0.1179
H27 H 0.5865 0.1076 0.1271
C19 C 0.5139(4) 0.1438(2) 0.08040(16)
H28 H 0.4632 0.1393 0.0730
H29 H 0.5373 0.1112 0.0792
C20 C 0.5443(4) 0.1786(2) 0.06033(15)
H30 H 0.5953 0.1827 0.0674
H31 H 0.5400 0.1645 0.0396
C21 C 0.4817(3) 0.2401(2) 0.03063(14)
H32 H 0.4557 0.2115 0.0207
H33 H 0.5200 0.2488 0.0184
C22 C 0.4324(3) 0.28311(17) 0.03081(11)
H34 H 0.4023 0.2854 0.0110
H35 H 0.4012 0.2783 0.0468
C23 C 0.4357(2) 0.37322(17) 0.03438(10)
C24 C 0.3606(2) 0.37751(17) 0.02949(9)
H36 H 0.3318 0.3487 0.0280
C25 C 0.3300(2) 0.42476(16) 0.02697(9)
C26 C 0.3717(2) 0.46804(16) 0.03094(9)
H37 H 0.3501 0.4998 0.0299
C27 C 0.4476(2) 0.46331(16) 0.03667(9)
C28 C 0.4788(2) 0.41657(16) 0.03802(9)
H38 H 0.5287 0.4135 0.0414
C29 C 0.2846(4) 0.3674(3) 0.22496(12)
C30 C 0.1645(3) 0.3343(3) 0.23092(12)
H39 H 0.1644 0.3537 0.2498
H40 H 0.1456 0.3009 0.2344
C31 C 0.1170(3) 0.3597(2) 0.20523(12)
H41 H 0.0701 0.3667 0.2116
H42 H 0.1384 0.3914 0.1998
C32 C 0.1138(2) 0.35894(17) 0.03398(10)
H43 H 0.0627 0.3512 0.0309
H44 H 0.1406 0.3275 0.0365
C33 C 0.1345(2) 0.38782(16) 0.00697(9)
H45 H 0.1167 0.3703 -0.0120
H46 H 0.1124 0.4211 0.0064
C34 C 0.2480(2) 0.43164(19) 0.02188(10)
C35 C 0.1158(2) 0.3436(2) 0.14980(11)
C36 C 0.1214(2) 0.3947(2) 0.14213(11)
H47 H 0.1228 0.4190 0.1576
C37 C 0.1248(2) 0.40953(16) 0.11208(11)
C38 C 0.1241(2) 0.37205(17) 0.08921(11)
C39 C 0.1200(2) 0.32221(18) 0.09677(11)
H48 H 0.1206 0.2981 0.0812
C40 C 0.1149(2) 0.30590(17) 0.12708(10)
C41 C 0.1070(2) 0.25128(16) 0.13487(11)
H49 H 0.1328 0.2450 0.1553
H50 H 0.1295 0.2310 0.1202
C42 C 0.0296(2) 0.23412(15) 0.13460(11)
C43 C -0.0046(3) 0.23297(16) 0.16115(10)
H51 H 0.0211 0.2430 0.1798
C44 C -0.0748(3) 0.21766(18) 0.16099(12)
C45 C -0.1134(2) 0.20198(15) 0.13405(12)
C46 C -0.0814(3) 0.20156(16) 0.10696(11)
H52 H -0.1073 0.1901 0.0887
C47 C -0.0111(3) 0.21814(16) 0.10702(11)
C48 C -0.1940(3) 0.18820(19) 0.13317(13)
H53 H -0.2060 0.1619 0.1178
H54 H -0.2023 0.1748 0.1532
C49 C -0.2416(2) 0.23221(19) 0.12558(13)
C50 C -0.2588(2) 0.2642(2) 0.14845(12)
H55 H -0.2425 0.2562 0.1689
C51 C -0.2980(3) 0.3067(2) 0.14267(12)
C52 C -0.3246(2) 0.3207(2) 0.11198(12)
C53 C -0.3081(3) 0.2882(3) 0.08909(13)
H56 H -0.3249 0.2957 0.0686
C54 C -0.2671(3) 0.2448(2) 0.09562(14)
C55 C -0.3653(3) 0.3690(2) 0.10462(13)
H57 H -0.3896 0.3785 0.1222
H58 H -0.4019 0.3634 0.0871
C56 C -0.3172(3) 0.4116(3) 0.09719(15)
C57 C -0.2863(3) 0.4443(3) 0.12055(16)
H59 H -0.2965 0.4395 0.1407
C58 C -0.2400(4) 0.4845(3) 0.1141(2)
C59 C -0.2240(3) 0.4909(3) 0.08327(19)
C60 C -0.2536(3) 0.4606(3) 0.06109(18)
H60 H -0.2444 0.4668 0.0409
C61 C -0.2987(4) 0.4191(3) 0.06653(16)
C62 C -0.1729(3) 0.5334(2) 0.07716(16)
H61 H -0.1811 0.5621 0.0902
H62 H -0.1834 0.5441 0.0557
C63 C -0.0938(3) 0.5179(2) 0.08343(19)
C64 C -0.0568(3) 0.4985(2) 0.06051(14)
C65 C 0.0121(3) 0.48211(18) 0.06670(13)
H63 H 0.0349 0.4685 0.0508
C66 C 0.0501(3) 0.48515(17) 0.09660(13)
C67 C 0.0123(4) 0.50554(18) 0.12028(15)
C68 C -0.0591(4) 0.52180(19) 0.11266(16)
H64 H -0.0834 0.5357 0.1281
C69 C 0.1261(3) 0.46476(18) 0.10349(11)
H65 H 0.1512 0.4689 0.0854
H66 H 0.1521 0.4838 0.1204
C70 C -0.0693(4) 0.2249(3) 0.21571(14)
H67 H -0.0340 0.1986 0.2198
H68 H -0.1010 0.2247 0.2315
H69 H -0.0454 0.2570 0.2157
C71 C -0.0089(3) 0.1965(2) 0.05368(12)
H70 H -0.0233 0.1628 0.0584
H71 H 0.0250 0.1951 0.0388
H72 H -0.0506 0.2155 0.0452
C72 C -0.2790(3) 0.3341(3) 0.19541(13)
H73 H -0.2940 0.3030 0.2040
H74 H -0.2894 0.3618 0.2084
H75 H -0.2281 0.3328 0.1942
C73 C -0.2688(4) 0.2278(3) 0.04123(14)
H76 H -0.3204 0.2281 0.0367
H77 H -0.2490 0.2039 0.0280
H78 H -0.2502 0.2609 0.0378
C74 C -0.2268(4) 0.5117(3) 0.16638(18)
H79 H -0.2776 0.5166 0.1668
H80 H -0.2004 0.5361 0.1796
H81 H -0.2136 0.4782 0.1735
C75 C -0.3121(4) 0.3899(3) 0.01446(15)
H82 H -0.3102 0.4246 0.0081
H83 H -0.3471 0.3720 0.0005
H84 H -0.2656 0.3746 0.0142
C76 C 0.0129(5) 0.5200(3) 0.17431(17)
H85 H -0.0095 0.5525 0.1708
H86 H 0.0457 0.5209 0.1931
H87 H -0.0234 0.4948 0.1761
C77 C -0.0815(4) 0.4591(3) 0.01099(16)
H88 H -0.0443 0.4701 -0.0008
H89 H -0.1247 0.4523 -0.0027
H90 H -0.0662 0.4289 0.0222
N1 N 0.2377(2) 0.32981(19) 0.22347(9)
H91 H 0.2516 0.3007 0.2177
N2 N 0.21162(16) 0.39316(13) 0.00891(7)
H92 H 0.2353 0.3696 0.0011
O1 O 0.5062(3) 0.4379(2) 0.20372(15)
O2 O 0.5763(4) 0.5210(2) 0.19023(12)
O3 O 0.5669(3) 0.5835(2) 0.14079(12)
O4 O 0.5733(2) 0.5765(2) 0.07876(13)
O5 O 0.48350(15) 0.50793(11) 0.04028(8)
O6 O 0.4805(2) 0.25574(17) 0.20377(10)
O7 O 0.5448(3) 0.1731(3) 0.17373(13)
O8 O 0.5207(2) 0.15919(16) 0.11122(10)
O9 O 0.5109(2) 0.22664(15) 0.05908(10)
O10 O 0.47251(15) 0.32840(12) 0.03647(8)
O11 O 0.2691(2) 0.40976(18) 0.23311(10)
O12 O 0.21977(16) 0.47007(12) 0.03103(8)
O13 O 0.1100(2) 0.32609(14) 0.17937(8)
O14 O 0.13037(18) 0.38978(11) 0.06017(7)
O15 O 0.02355(17) 0.22030(12) 0.08109(8)
O16 O -0.2495(2) 0.21385(15) 0.07228(10)
O17 O -0.3318(2) 0.38759(19) 0.04472(11)
O18 O -0.0946(3) 0.49615(19) 0.03137(12)
O19 O -0.1090(2) 0.21675(15) 0.18703(9)
O20 O -0.3164(2) 0.34086(15) 0.16550(9)
O21 O -0.2108(3) 0.5176(2) 0.13632(15)
O22 O 0.0515(2) 0.50771(15) 0.14906(10)
C78 C 0.3153(3) 0.2749(2) 0.13971(10)
H93 H 0.2741 0.2618 0.1467
C79 C 0.3192(3) 0.3250(2) 0.13382(10)
H94 H 0.2802 0.3456 0.1367
C80 C 0.3800(2) 0.34669(19) 0.12356(10)
C81 C 0.4341(3) 0.3123(2) 0.11840(12)
H95 H 0.4752 0.3243 0.1107
C82 C 0.4287(3) 0.2616(2) 0.12420(12)
H96 H 0.4656 0.2399 0.1202
C83 C 0.3658(3) 0.18937(19) 0.14252(13)
H97 H 0.4015 0.1709 0.1331
H98 H 0.3186 0.1774 0.1345
H99 H 0.3733 0.1845 0.1646
C84 C 0.3870(2) 0.40073(18) 0.11842(10)
C85 C 0.4508(3) 0.4258(2) 0.12483(12)
H100 H 0.4921 0.4079 0.1324
C86 C 0.4552(3) 0.4761(2) 0.12048(13)
H101 H 0.4994 0.4921 0.1255
C87 C 0.3354(3) 0.4802(2) 0.10219(12)
H102 H 0.2955 0.4989 0.0939
C88 C 0.3279(3) 0.4299(2) 0.10678(11)
H103 H 0.2830 0.4148 0.1021
C89 C 0.4039(3) 0.5586(2) 0.10304(14)
H104 H 0.4067 0.5770 0.1222
H105 H 0.3622 0.5695 0.0895
H106 H 0.4464 0.5651 0.0934
N3 N 0.3984(3) 0.50372(17) 0.10925(9)
N4 N 0.3715(2) 0.24328(16) 0.13548(8)
F1 F 0.2526(5) 0.1365(2) 0.24791(16)
F2 F 0.2453(3) 0.14069(19) 0.19704(13)
F3 F 0.3343(2) 0.1774(2) 0.22493(13)
F4 F 0.2502(2) 0.22287(16) 0.19932(9)
F5 F 0.2589(3) 0.21880(18) 0.25078(10)
F6 F 0.1681(2) 0.1812(2) 0.22286(13)
P1 P 0.25031(11) 0.17852(7) 0.22440(5)
F7 F 0.22632(15) 0.20232(13) 0.08919(6)
F8 F 0.32685(19) 0.1874(2) 0.06811(9)
F9 F 0.2754(2) 0.26112(14) 0.06233(10)
F10 F 0.27616(17) 0.20874(11) 0.02239(6)
F11 F 0.17391(18) 0.22534(17) 0.04311(8)
F12 F 0.2249(3) 0.15050(13) 0.04856(9)
P2 P 0.25046(7) 0.20548(5) 0.05554(3)
loop_
_geom_bond_atom_site_label_1
_geom_bond_atom_site_label_2
_geom_bond_site_symmetry_1
_geom_bond_site_symmetry_2
C1 H1 1_555 1_555
C2 C1 1_555 1_555
C3 C2 1_555 1_555
H2 C3 1_555 1_555
C4 C3 1_555 1_555
C5 C4 1_555 1_555
H3 C5 1_555 1_555
C6 C1 1_555 1_555
C7 H4 1_555 1_555
H5 C7 1_555 1_555
C8 C7 1_555 1_555
H6 C8 1_555 1_555
H7 C8 1_555 1_555
C9 H8 1_555 1_555
H9 C9 1_555 1_555
C10 C9 1_555 1_555
H10 C10 1_555 1_555
H11 C10 1_555 1_555
C11 H12 1_555 1_555
H13 C11 1_555 1_555
C12 C11 1_555 1_555
H14 C12 1_555 1_555
H15 C12 1_555 1_555
C13 H16 1_555 1_555
H17 C13 1_555 1_555
C14 C13 1_555 1_555
H18 C14 1_555 1_555
H19 C14 1_555 1_555
C15 H20 1_555 1_555
H21 C15 1_555 1_555
C16 C15 1_555 1_555
H22 C16 1_555 1_555
H23 C16 1_555 1_555
C17 H24 1_555 1_555
H25 C17 1_555 1_555
C18 C17 1_555 1_555
H26 C18 1_555 1_555
H27 C18 1_555 1_555
C19 H28 1_555 1_555
H29 C19 1_555 1_555
C20 C19 1_555 1_555
H30 C20 1_555 1_555
H31 C20 1_555 1_555
C21 H32 1_555 1_555
H33 C21 1_555 1_555
C22 C21 1_555 1_555
H34 C22 1_555 1_555
H35 C22 1_555 1_555
C23 C24 1_555 1_555
C24 H36 1_555 1_555
C25 C24 1_555 1_555
C26 C25 1_555 1_555
H37 C26 1_555 1_555
C27 C26 1_555 1_555
C28 C23 1_555 1_555
H38 C28 1_555 1_555
C29 C4 1_555 1_555
C30 H39 1_555 1_555
H40 C30 1_555 1_555
C31 C30 1_555 1_555
H41 C31 1_555 1_555
H42 C31 1_555 1_555
C32 H43 1_555 1_555
H44 C32 1_555 1_555
C33 C32 1_555 1_555
H45 C33 1_555 1_555
H46 C33 1_555 1_555
C34 C25 1_555 1_555
C35 C36 1_555 1_555
C36 H47 1_555 1_555
C37 C36 1_555 1_555
C38 C37 1_555 1_555
C39 C38 1_555 1_555
H48 C39 1_555 1_555
C40 C35 1_555 1_555
C41 C40 1_555 1_555
H49 C41 1_555 1_555
H50 C41 1_555 1_555
C42 C41 1_555 1_555
C43 C42 1_555 1_555
H51 C43 1_555 1_555
C44 C43 1_555 1_555
C45 C44 1_555 1_555
C46 C45 1_555 1_555
H52 C46 1_555 1_555
C47 C42 1_555 1_555
C48 C45 1_555 1_555
H53 C48 1_555 1_555
H54 C48 1_555 1_555
C49 C48 1_555 1_555
C50 C49 1_555 1_555
H55 C50 1_555 1_555
C51 C50 1_555 1_555
C52 C51 1_555 1_555
C53 C52 1_555 1_555
H56 C53 1_555 1_555
C54 C49 1_555 1_555
C55 C52 1_555 1_555
H57 C55 1_555 1_555
H58 C55 1_555 1_555
C56 C55 1_555 1_555
C57 C56 1_555 1_555
H59 C57 1_555 1_555
C58 C57 1_555 1_555
C59 C58 1_555 1_555
C60 C59 1_555 1_555
H60 C60 1_555 1_555
C61 C56 1_555 1_555
C62 C59 1_555 1_555
H61 C62 1_555 1_555
H62 C62 1_555 1_555
C63 C62 1_555 1_555
C64 C63 1_555 1_555
C65 C64 1_555 1_555
H63 C65 1_555 1_555
C66 C65 1_555 1_555
C67 C66 1_555 1_555
C68 C63 1_555 1_555
H64 C68 1_555 1_555
C69 C37 1_555 1_555
H65 C69 1_555 1_555
H66 C69 1_555 1_555
C70 H67 1_555 1_555
H68 C70 1_555 1_555
H69 C70 1_555 1_555
C71 H70 1_555 1_555
H71 C71 1_555 1_555
H72 C71 1_555 1_555
C72 H73 1_555 1_555
H74 C72 1_555 1_555
H75 C72 1_555 1_555
C73 H76 1_555 1_555
H77 C73 1_555 1_555
H78 C73 1_555 1_555
C74 H79 1_555 1_555
H80 C74 1_555 1_555
H81 C74 1_555 1_555
C75 H82 1_555 1_555
H83 C75 1_555 1_555
H84 C75 1_555 1_555
C76 H85 1_555 1_555
H86 C76 1_555 1_555
H87 C76 1_555 1_555
C77 H88 1_555 1_555
H89 C77 1_555 1_555
H90 C77 1_555 1_555
N1 C29 1_555 1_555
H91 N1 1_555 1_555
N2 C33 1_555 1_555
H92 N2 1_555 1_555
O1 C2 1_555 1_555
O2 C8 1_555 1_555
O3 C10 1_555 1_555
O4 C12 1_555 1_555
O5 C14 1_555 1_555
O6 C6 1_555 1_555
O7 C16 1_555 1_555
O8 C18 1_555 1_555
O9 C20 1_555 1_555
O10 C22 1_555 1_555
O11 C29 1_555 1_555
O12 C34 1_555 1_555
O13 C31 1_555 1_555
O14 C32 1_555 1_555
O15 C47 1_555 1_555
O16 C54 1_555 1_555
O17 C61 1_555 1_555
O18 C64 1_555 1_555
O19 C44 1_555 1_555
O20 C51 1_555 1_555
O21 C58 1_555 1_555
O22 C67 1_555 1_555
C78 H93 1_555 1_555
C79 C78 1_555 1_555
H94 C79 1_555 1_555
C80 C79 1_555 1_555
C81 C80 1_555 1_555
H95 C81 1_555 1_555
C82 C81 1_555 1_555
H96 C82 1_555 1_555
C83 H97 1_555 1_555
H98 C83 1_555 1_555
H99 C83 1_555 1_555
C84 C80 1_555 1_555
C85 C84 1_555 1_555
H100 C85 1_555 1_555
C86 C85 1_555 1_555
H101 C86 1_555 1_555
C87 H102 1_555 1_555
C88 C84 1_555 1_555
H103 C88 1_555 1_555
C89 H104 1_555 1_555
H105 C89 1_555 1_555
H106 C89 1_555 1_555
N3 C86 1_555 1_555
N4 C78 1_555 1_555
F1 P1 1_555 1_555
F2 P1 1_555 1_555
F3 P1 1_555 1_555
F4 P1 1_555 1_555
F5 P1 1_555 1_555
F6 P1 1_555 1_555
F7 P2 1_555 1_555
F8 P2 1_555 1_555
F9 P2 1_555 1_555
F10 P2 1_555 1_555
F11 P2 1_555 1_555
F12 P2 1_555 1_555
C5 C6 1_555 1_555
C7 O1 1_555 1_555
C9 O2 1_555 1_555
C11 O3 1_555 1_555
C13 O4 1_555 1_555
C15 O6 1_555 1_555
C17 O7 1_555 1_555
C19 O8 1_555 1_555
C21 O9 1_555 1_555
C23 O10 1_555 1_555
C27 C28 1_555 1_555
C27 O5 1_555 1_555
C30 N1 1_555 1_555
C34 N2 1_555 1_555
C35 O13 1_555 1_555
C38 O14 1_555 1_555
C39 C40 1_555 1_555
C46 C47 1_555 1_555
C53 C54 1_555 1_555
C60 C61 1_555 1_555
C66 C69 1_555 1_555
C67 C68 1_555 1_555
C70 O19 1_555 1_555
C71 O15 1_555 1_555
C72 O20 1_555 1_555
C73 O16 1_555 1_555
C74 O21 1_555 1_555
C75 O17 1_555 1_555
C76 O22 1_555 1_555
C77 O18 1_555 1_555
C82 N4 1_555 1_555
C83 N4 1_555 1_555
C87 C88 1_555 1_555
C87 N3 1_555 1_555
C89 N3 1_555 1_555

#END
