
#######################################################################
#
#                 Cambridge Crystallographic Data Centre
#                                CCDC 
#
#######################################################################
#
# If this CIF has been generated from an entry in the Cambridge 
# Structural Database, then it will include bibliographic, chemical, 
# crystal, experimental, refinement or atomic coordinate data resulting 
# from the CCDC's data processing and validation procedures.
#
#######################################################################

data_MUCYIU
_chemical_name_common            
2,8,14,20-tetrapentyl-4,10,16,22-tetramethoxy-6,12,18,24-tetrakis(2-methoxy-2-oxoethoxy)calix(4)resorcinarene
_chemical_formula_moiety         'C64 H88 O16'
_chemical_name_systematic        
2,8,14,20-tetrapentyl-4,10,16,22-tetramethoxy-6,12,18,24-tetrakis(2-methoxy-2-oxoethoxy)calix(4)arene
_symmetry_cell_setting           triclinic
_symmetry_space_group_name_H-M   'P -1'
_symmetry_Int_Tables_number      2
_space_group_name_Hall           '-P 1'
loop_
_symmetry_equiv_pos_site_id
_symmetry_equiv_pos_as_xyz
1 x,y,z
2 -x,-y,-z
_cell_length_a                   15.9951(11)
_cell_length_b                   17.5412(11)
_cell_length_c                   22.3310(15)
_cell_angle_alpha                99.7310(10)
_cell_angle_beta                 91.0500(10)
_cell_angle_gamma                95.044(2)
_cell_volume                     6147.91
_exptl_crystal_colour            colorless
_exptl_crystal_description       block
_chemical_melting_point          '365-367 K'
_cell_formula_units_Z            4
_exptl_crystal_recrystallization_method 'dichloromethane/ethyl acetate/methanol'
loop_
_atom_site_label
_atom_site_type_symbol
_atom_site_fract_x
_atom_site_fract_y
_atom_site_fract_z
O1 O 0.70776(19) 0.12147(12) 0.26043(11)
O2 O 0.66522(15) 0.22543(11) 0.47300(10)
O3 O 0.51801(13) 0.38584(11) 0.44292(10)
O4 O 0.43851(15) 0.25224(12) 0.45684(11)
O5 O 0.31270(14) 0.29637(12) 0.44549(10)
O6 O 0.55729(13) 0.64813(11) 0.39787(10)
O7 O 0.69562(16) 0.78725(11) 0.36180(10)
O8 O 0.63662(17) 0.97854(12) 0.39474(12)
O9 O 0.63399(16) 0.88025(12) 0.44749(10)
O10 O 0.75387(17) 0.68841(13) 0.15172(10)
O11 O 0.62020(15) 0.51240(12) 0.13214(10)
O12 O 0.5447(2) 0.64400(14) 0.12947(13)
O13 O 0.47178(19) 0.58224(14) 0.04824(12)
O14 O 0.58869(13) 0.25291(11) 0.18267(9)
C1 C 0.71951(18) 0.25644(16) 0.29619(13)
C2 C 0.7052(2) 0.18148(16) 0.30974(14)
C3 C 0.6856(2) 0.16899(17) 0.36813(15)
H1 H 0.6752 0.1177 0.3763
C4 C 0.68137(19) 0.23235(16) 0.41402(14)
C5 C 0.69360(17) 0.30880(15) 0.40220(13)
C6 C 0.71238(17) 0.31824(15) 0.34330(13)
H2 H 0.7208 0.3695 0.3347
C7 C 0.68866(19) 0.37615(15) 0.45432(13)
H3 H 0.6488 0.3571 0.4837
C8 C 0.65300(18) 0.44642(15) 0.43521(13)
C9 C 0.56629(18) 0.45060(15) 0.43158(12)
C10 C 0.53182(19) 0.51665(15) 0.41921(13)
H4 H 0.4727 0.5185 0.4175
C11 C 0.58564(19) 0.58026(15) 0.40928(12)
C12 C 0.67257(18) 0.57773(15) 0.40942(12)
C13 C 0.70339(19) 0.51045(15) 0.42305(13)
H5 H 0.7625 0.5082 0.4241
C14 C 0.72866(19) 0.64803(15) 0.39863(13)
H6 H 0.7064 0.6949 0.4227
C15 C 0.72599(19) 0.65790(16) 0.33221(13)
C16 C 0.7143(2) 0.72916(16) 0.31540(14)
C17 C 0.7224(2) 0.74076(17) 0.25547(15)
H7 H 0.7143 0.7899 0.2450
C18 C 0.7425(2) 0.67993(17) 0.21114(14)
C19 C 0.7530(2) 0.60680(16) 0.22569(14)
C20 C 0.74353(19) 0.59810(16) 0.28618(14)
H8 H 0.7494 0.5484 0.2965
C21 C 0.7813(2) 0.54137(17) 0.17954(15)
H9 H 0.7715 0.5547 0.1383
C22 C 0.72940(19) 0.46478(16) 0.18168(13)
C23 C 0.6482(2) 0.45118(16) 0.15637(13)
C24 C 0.59901(19) 0.38161(16) 0.15641(13)
H10 H 0.5437 0.3738 0.1389
C25 C 0.63222(18) 0.32362(15) 0.18261(12)
C26 C 0.71324(18) 0.33395(15) 0.20915(12)
C27 C 0.75906(19) 0.40467(16) 0.20787(13)
H11 H 0.8141 0.4128 0.2259
C28 C 0.74875(18) 0.26715(16) 0.23347(13)
H12 H 0.7272 0.2188 0.2051
C29 C 0.7134(3) 0.04488(19) 0.26780(19)
H13 H 0.6799 0.0093 0.2352
H14 H 0.6906 0.0367 0.3074
C30 C 0.6399(3) 0.14999(19) 0.48573(18)
H15 H 0.6313 0.1533 0.5294
H16 H 0.6836 0.1153 0.4734
H17 H 0.5873 0.1296 0.4631
C31 C 0.7741(2) 0.39534(17) 0.48797(15)
H18 H 0.8141 0.4185 0.4612
H19 H 0.7952 0.3463 0.4955
C32 C 0.7736(3) 0.4510(2) 0.54869(18)
C33 C 0.8712(8) 0.4674(8) 0.5701(5)
C34 C 0.8831(8) 0.5157(6) 0.6332(4)
C35 C 0.9750(10) 0.5368(9) 0.6559(7)
C36 C 0.42917(19) 0.38114(16) 0.43389(14)
H20 H 0.4143 0.3860 0.3915
H21 H 0.4052 0.4230 0.4619
C37 C 0.3961(2) 0.30223(17) 0.44699(13)
C38 C 0.2742(2) 0.22228(18) 0.45683(15)
H22 H 0.2130 0.2224 0.4552
H23 H 0.2926 0.2140 0.4971
H24 H 0.2911 0.1804 0.4258
C39 C 0.4727(2) 0.66254(17) 0.41175(15)
H25 H 0.4613 0.7127 0.4013
H26 H 0.4647 0.6635 0.4553
H27 H 0.4342 0.6213 0.3882
C40 C 0.8203(2) 0.64738(18) 0.42040(16)
H28 H 0.8437 0.6010 0.3976
H29 H 0.8213 0.6427 0.4640
C41 C 0.8771(2) 0.7204(2) 0.4122(2)
C42 C 0.9696(4) 0.7116(5) 0.4190(4)
C43 C 1.0262(8) 0.7652(7) 0.3906(7)
C44 C 1.0233(16) 0.7409(15) 0.3189(8)
C45 C 0.6850(2) 0.86073(16) 0.34725(15)
H30 H 0.6465 0.8547 0.3112
H31 H 0.7398 0.8850 0.3368
C46 C 0.6499(2) 0.91265(16) 0.39911(15)
C47 C 0.5951(3) 0.9276(2) 0.49672(18)
H32 H 0.5863 0.8986 0.5303
H33 H 0.5410 0.9410 0.4824
H34 H 0.6318 0.9753 0.5109
C48 C 0.7362(3) 0.7603(2) 0.13544(17)
H35 H 0.7469 0.7595 0.0923
H36 H 0.7723 0.8027 0.1600
H37 H 0.6772 0.7685 0.1429
C49 C 0.8764(2) 0.5377(2) 0.1885(2)
C50 C 0.5392(2) 0.50449(17) 0.10521(14)
H38 H 0.4978 0.4825 0.1316
H39 H 0.5373 0.4696 0.0653
C51 C 0.5196(2) 0.58506(18) 0.09728(14)
C52 C 0.4511(3) 0.6575(2) 0.0350(2)
H40 H 0.4148 0.6494 -0.0018
H41 H 0.5029 0.6889 0.0287
H42 H 0.4218 0.6845 0.0693
C53 C 0.50071(19) 0.24538(18) 0.16722(15)
H43 H 0.4771 0.1924 0.1689
H44 H 0.4924 0.2563 0.1260
H45 H 0.4725 0.2823 0.1961
C54 C 0.84498(19) 0.26980(18) 0.23333(15)
H46 H 0.8690 0.3197 0.2575
H47 H 0.8630 0.2275 0.2534
C55 C 0.8796(2) 0.2616(2) 0.17106(16)
H48 H 0.8628 0.3049 0.1516
H49 H 0.8537 0.2126 0.1465
C56 C 0.9735(3) 0.2614(3) 0.1695(2)
H50 H 0.9883 0.2121 0.1811
H51 H 0.9982 0.3041 0.2013
C57 C 1.0958(6) 0.2463(15) 0.0992(6)
C58 C 0.9975(6) 0.2451(11) 0.1041(6)
O15 O 0.8180(3) -0.0458(2) 0.2596(2)
C59 C 0.8086(4) 0.0268(3) 0.2652(2)
O16 O 0.8643(3) 0.0768(3) 0.2661(3)
C60 C 0.9037(5) -0.0640(5) 0.2552(4)
C61 C 1.0586(10) 0.4784(14) 0.0897(10)
C62 C 0.9336(5) 0.5958(5) 0.1698(6)
C63 C 1.0294(6) 0.5875(8) 0.1851(9)
C64 C 1.0584(10) 0.5124(13) 0.1554(15)
O17 O 0.27344(17) -0.28754(11) 0.14048(10)
O18 O 0.24357(15) -0.18736(11) 0.35471(10)
O19 O 0.41395(14) -0.00837(11) 0.35410(10)
O20 O 0.44508(16) -0.15583(13) 0.36535(11)
O21 O 0.49191(15) -0.17581(12) 0.27030(11)
O22 O 0.41936(12) 0.24849(11) 0.30348(9)
O23 O 0.27696(17) 0.37841(11) 0.24112(10)
O24 O 0.33573(14) 0.27893(11) 0.03079(9)
O25 O 0.49100(13) 0.10549(11) 0.05732(10)
O26 O 0.58352(15) 0.22456(13) 0.02868(12)
O27 O 0.70262(14) 0.18022(12) 0.05635(10)
O28 O 0.43368(14) -0.14491(11) 0.12077(10)
C65 C 0.26366(19) -0.15448(15) 0.17461(13)
C66 C 0.2672(2) -0.22813(15) 0.18925(13)
C67 C 0.2626(2) -0.24124(16) 0.24870(14)
H52 H 0.2665 -0.2919 0.2576
C68 C 0.25232(19) -0.17905(16) 0.29543(13)
C69 C 0.24988(18) -0.10383(15) 0.28281(13)
C70 C 0.25571(18) -0.09399(15) 0.22235(13)
H53 H 0.2542 -0.0431 0.2133
C71 C 0.2389(2) -0.03657(15) 0.33353(13)
H54 H 0.2637 -0.0496 0.3715
C72 C 0.28720(18) 0.03859(15) 0.32220(12)
C73 C 0.37300(19) 0.05018(15) 0.33419(12)
C74 C 0.42026(18) 0.11863(16) 0.32797(13)
H55 H 0.4789 0.1252 0.3374
C75 C 0.38049(17) 0.17732(15) 0.30771(12)
C76 C 0.29410(17) 0.16715(15) 0.29202(12)
C77 C 0.25040(18) 0.09762(15) 0.29982(12)
H56 H 0.1921 0.0899 0.2893
C78 C 0.25444(18) 0.23371(15) 0.27032(12)
H57 H 0.2763 0.2820 0.2987
C79 C 0.28107(17) 0.24512(15) 0.20718(13)
C80 C 0.29067(19) 0.31965(15) 0.19325(14)
C81 C 0.31007(19) 0.33346(15) 0.13563(14)
H58 H 0.3171 0.3850 0.1275
C82 C 0.31918(18) 0.27019(15) 0.08951(13)
C83 C 0.31195(17) 0.19410(15) 0.10126(13)
C84 C 0.29342(17) 0.18386(15) 0.16048(13)
H59 H 0.2890 0.1326 0.1694
C85 C 0.32139(18) 0.12698(15) 0.04919(12)
H60 H 0.3653 0.1462 0.0226
C86 C 0.35298(18) 0.05576(15) 0.06990(12)
C87 C 0.43783(18) 0.04675(15) 0.07375(12)
C88 C 0.46784(19) -0.01908(15) 0.09133(13)
H61 H 0.5264 -0.0237 0.0945
C89 C 0.40944(19) -0.07796(15) 0.10418(13)
C90 C 0.32361(19) -0.07274(15) 0.09981(12)
C91 C 0.29793(18) -0.00473(15) 0.08355(12)
H62 H 0.2394 0.0007 0.0817
C92 C 0.26276(19) -0.14086(15) 0.10917(13)
H63 H 0.2821 -0.1883 0.0839
C93 C 0.2757(3) -0.36247(18) 0.15319(17)
H64 H 0.2274 -0.3745 0.1782
H65 H 0.3278 -0.3653 0.1769
C94 C 0.2548(3) -0.26161(18) 0.37020(16)
H66 H 0.2467 -0.2598 0.4138
H67 H 0.3116 -0.2752 0.3604
H68 H 0.2137 -0.3008 0.3470
C95 C 0.1447(2) -0.02969(18) 0.34386(15)
H69 H 0.1198 -0.0110 0.3087
H70 H 0.1168 -0.0820 0.3453
C96 C 0.1261(2) 0.0249(2) 0.40196(18)
H71 H 0.1634 0.0736 0.4050
H72 H 0.0674 0.0382 0.3992
C97 C 0.1380(3) -0.0092(3) 0.45898(18)
H73 H 0.0985 -0.0565 0.4568
H74 H 0.1957 -0.0252 0.4605
C98 C 0.1241(3) 0.0457(3) 0.5168(2)
H75 H 0.0681 0.0650 0.5141
H76 H 0.1667 0.0910 0.5209
C99 C 0.1295(4) 0.0084(4) 0.5730(2)
H77 H 0.1203 0.0466 0.6091
H78 H 0.1852 -0.0100 0.5764
H79 H 0.0865 -0.0357 0.5698
C100 C 0.4571(2) -0.05112(17) 0.30692(15)
H80 H 0.5142 -0.0254 0.3045
H81 H 0.4268 -0.0531 0.2675
C101 C 0.4627(2) -0.13285(17) 0.31936(14)
C102 C 0.4971(3) -0.25749(18) 0.27341(19)
H82 H 0.5192 -0.2836 0.2355
H83 H 0.4410 -0.2819 0.2792
H84 H 0.5345 -0.2620 0.3076
C103 C 0.50848(19) 0.26032(18) 0.31578(15)
H85 H 0.5289 0.3132 0.3110
H86 H 0.5365 0.2228 0.2873
H87 H 0.5207 0.2530 0.3575
C104 C 0.15798(19) 0.22897(18) 0.27327(14)
H88 H 0.1372 0.2702 0.2532
H89 H 0.1342 0.1783 0.2502
C105 C 0.1262(2) 0.2379(2) 0.33775(15)
H90 H 0.1481 0.1973 0.3580
H91 H 0.1493 0.2890 0.3605
C106 C 0.0321(2) 0.2320(3) 0.34165(18)
H92 H 0.0084 0.1817 0.3178
H93 H 0.0099 0.2739 0.3232
C107 C 0.0034(3) 0.2380(3) 0.4070(2)
H94 H 0.0277 0.1975 0.4260
H95 H 0.0250 0.2893 0.4304
C108 C -0.0918(3) 0.2285(4) 0.4107(3)
H96 H -0.1155 0.2737 0.3989
H97 H -0.1069 0.2243 0.4524
H98 H -0.1143 0.1813 0.3831
C109 C 0.2813(3) 0.45487(19) 0.23385(18)
H99 H 0.2350 0.4782 0.2571
H100 H 0.2678 0.4549 0.1904
C110 C 0.3317(3) 0.35429(18) 0.01568(16)
H101 H 0.3447 0.3529 -0.0272
H102 H 0.3725 0.3913 0.0412
H103 H 0.2751 0.3705 0.0226
C111 C 0.2398(2) 0.10846(17) 0.00994(14)
H104 H 0.1952 0.0871 0.0343
H105 H 0.2221 0.1574 -0.0005
C112 C 0.2473(2) 0.0506(2) -0.04903(16)
H106 H 0.2922 0.0719 -0.0731
H107 H 0.2647 0.0016 -0.0384
C113 C 0.1674(3) 0.0320(2) -0.08847(18)
H108 H 0.1467 0.0813 -0.0957
H109 H 0.1809 0.0025 -0.1284
C114 C 0.0988(4) -0.0138(4) -0.0618(2)
H110 H 0.0821 0.0173 -0.0234
H111 H 0.1206 -0.0615 -0.0519
C115 C 0.0210(4) -0.0369(4) -0.1045(3)
H112 H -0.0220 -0.0658 -0.0844
H113 H 0.0365 -0.0696 -0.1419
H114 H -0.0011 0.0100 -0.1144
C116 C 0.57894(18) 0.10253(16) 0.06456(14)
H115 H 0.5973 0.0565 0.0378
H116 H 0.5942 0.0995 0.1072
C117 C 0.61972(19) 0.17605(17) 0.04731(13)
C118 C 0.7477(2) 0.2509(2) 0.04444(16)
H117 H 0.8079 0.2492 0.0522
H118 H 0.7280 0.2956 0.0711
H119 H 0.7376 0.2559 0.0019
C119 C 0.5199(2) -0.15510(19) 0.12256(18)
H120 H 0.5279 -0.2051 0.1349
H121 H 0.5493 -0.1130 0.1519
H122 H 0.5425 -0.1543 0.0822
C120 C 0.1726(2) -0.13465(18) 0.08760(15)
H123 H 0.1514 -0.0885 0.1124
H124 H 0.1732 -0.1261 0.0449
C121 C 0.1118(2) -0.2057(2) 0.09143(19)
H125 H 0.1316 -0.2517 0.0655
H126 H 0.1119 -0.2152 0.1339
C122 C 0.0227(4) -0.1961(4) 0.0714(3)
H127 H 0.0084 -0.1446 0.0919
H128 H 0.0226 -0.1950 0.0272
C123 C -0.0446(4) -0.2537(4) 0.0821(3)
H129 H -0.0441 -0.2573 0.1258
H130 H -0.0993 -0.2360 0.0716
C124 C -0.0374(4) -0.3255(4) 0.0489(3)
H131 H -0.0828 -0.3621 0.0587
H132 H 0.0169 -0.3431 0.0587
H133 H -0.0411 -0.3229 0.0055
O29 O 0.2482(3) -0.39637(14) 0.04670(12)
C125 C 0.2724(4) -0.4211(2) 0.09603(18)
C126 C 0.2582(10) -0.4533(8) -0.0067(6)
O30 O 0.2627(10) -0.4909(9) 0.0932(7)
O31 O 0.3521(3) 0.57642(18) 0.2653(2)
C127 C 0.3548(4) 0.5072(2) 0.2496(2)
O32 O 0.4197(2) 0.47022(17) 0.24714(14)
C128 C 0.5026(4) 0.5246(3) 0.2618(2)
H134 H 0.5505 0.4932 0.2593
H135 H 0.5010 0.5546 0.3029
H136 H 0.5084 0.5602 0.2324
C129? C 1.112(2) 0.296(4) 0.121(2)
C130? C 0.9338(11) 0.7058(7) 0.3563(6)
C131? C 0.9824(11) 0.7771(9) 0.3408(8)
C132? C 1.0235(11) 0.7620(13) 0.2804(10)
C133? C 1.018(2) 0.270(3) 0.1071(17)
C134? C 0.9110(7) 0.5128(8) 0.5651(5)
C135? C 0.8449(9) 0.4678(10) 0.5929(5)
C136? C 0.9906(8) 0.5353(8) 0.6101(8)
C137? C 0.7338(15) -0.0692(7) 0.2230(7)
C138? C 0.2179(15) -0.4552(13) -0.0119(10)
O33? O 0.3057(8) -0.4832(7) 0.1001(5)
C139? C 0.9177(5) 0.4937(4) 0.1392(4)
C140? C 1.0135(7) 0.5008(10) 0.1503(7)
loop_
_geom_bond_atom_site_label_1
_geom_bond_atom_site_label_2
_geom_bond_site_symmetry_1
_geom_bond_site_symmetry_2
O1 C2 1_555 1_555
O2 C4 1_555 1_555
O3 C9 1_555 1_555
O4 C37 1_555 1_555
O5 C37 1_555 1_555
O6 C11 1_555 1_555
O7 C16 1_555 1_555
O8 C46 1_555 1_555
O9 C46 1_555 1_555
O10 C18 1_555 1_555
O11 C23 1_555 1_555
O12 C51 1_555 1_555
O13 C51 1_555 1_555
O14 C25 1_555 1_555
C1 C2 1_555 1_555
C2 C3 1_555 1_555
C3 H1 1_555 1_555
C4 C3 1_555 1_555
C5 C4 1_555 1_555
C6 C1 1_555 1_555
H2 C6 1_555 1_555
C7 C5 1_555 1_555
H3 C7 1_555 1_555
C8 C7 1_555 1_555
C9 C8 1_555 1_555
C10 C9 1_555 1_555
H4 C10 1_555 1_555
C11 C10 1_555 1_555
C12 C11 1_555 1_555
C13 C8 1_555 1_555
H5 C13 1_555 1_555
C14 C12 1_555 1_555
H6 C14 1_555 1_555
C15 C14 1_555 1_555
C16 C15 1_555 1_555
C17 C16 1_555 1_555
H7 C17 1_555 1_555
C18 C17 1_555 1_555
C19 C18 1_555 1_555
C20 C15 1_555 1_555
H8 C20 1_555 1_555
C21 C19 1_555 1_555
H9 C21 1_555 1_555
C22 C21 1_555 1_555
C23 C22 1_555 1_555
C24 C23 1_555 1_555
H10 C24 1_555 1_555
C25 C24 1_555 1_555
C26 C25 1_555 1_555
C27 C22 1_555 1_555
H11 C27 1_555 1_555
C28 C1 1_555 1_555
H12 C28 1_555 1_555
C29 O1 1_555 1_555
H13 C29 1_555 1_555
H14 C29 1_555 1_555
C30 O2 1_555 1_555
H15 C30 1_555 1_555
H16 C30 1_555 1_555
H17 C30 1_555 1_555
C31 C7 1_555 1_555
H18 C31 1_555 1_555
H19 C31 1_555 1_555
C32 C31 1_555 1_555
C33 C32 1_555 1_555
C34 C33 1_555 1_555
C35 C34 1_555 1_555
C36 O3 1_555 1_555
H20 C36 1_555 1_555
H21 C36 1_555 1_555
C37 C36 1_555 1_555
C38 O5 1_555 1_555
H22 C38 1_555 1_555
H23 C38 1_555 1_555
H24 C38 1_555 1_555
C39 O6 1_555 1_555
H25 C39 1_555 1_555
H26 C39 1_555 1_555
H27 C39 1_555 1_555
C40 C14 1_555 1_555
H28 C40 1_555 1_555
H29 C40 1_555 1_555
C41 C40 1_555 1_555
C42 C41 1_555 1_555
C43 C42 1_555 1_555
C44 C43 1_555 1_555
C45 O7 1_555 1_555
H30 C45 1_555 1_555
H31 C45 1_555 1_555
C46 C45 1_555 1_555
C47 O9 1_555 1_555
H32 C47 1_555 1_555
H33 C47 1_555 1_555
H34 C47 1_555 1_555
C48 O10 1_555 1_555
H35 C48 1_555 1_555
H36 C48 1_555 1_555
H37 C48 1_555 1_555
C49 C21 1_555 1_555
C50 O11 1_555 1_555
H38 C50 1_555 1_555
H39 C50 1_555 1_555
C51 C50 1_555 1_555
C52 O13 1_555 1_555
H40 C52 1_555 1_555
H41 C52 1_555 1_555
H42 C52 1_555 1_555
C53 O14 1_555 1_555
H43 C53 1_555 1_555
H44 C53 1_555 1_555
H45 C53 1_555 1_555
C54 C28 1_555 1_555
H46 C54 1_555 1_555
H47 C54 1_555 1_555
C55 C54 1_555 1_555
H48 C55 1_555 1_555
H49 C55 1_555 1_555
C56 C55 1_555 1_555
H50 C56 1_555 1_555
H51 C56 1_555 1_555
C57 C58 1_555 1_555
C58 C56 1_555 1_555
O15 C59 1_555 1_555
C59 C29 1_555 1_555
O16 C59 1_555 1_555
C60 O15 1_555 1_555
C61 C64 1_555 1_555
C62 C49 1_555 1_555
C63 C62 1_555 1_555
C64 C63 1_555 1_555
O17 C66 1_555 1_555
O18 C68 1_555 1_555
O19 C73 1_555 1_555
O20 C101 1_555 1_555
O21 C101 1_555 1_555
O22 C75 1_555 1_555
O23 C80 1_555 1_555
O24 C82 1_555 1_555
O25 C87 1_555 1_555
O26 C117 1_555 1_555
O27 C117 1_555 1_555
O28 C89 1_555 1_555
C65 C66 1_555 1_555
C66 C67 1_555 1_555
C67 H52 1_555 1_555
C68 C67 1_555 1_555
C69 C68 1_555 1_555
C70 C65 1_555 1_555
H53 C70 1_555 1_555
C71 C69 1_555 1_555
H54 C71 1_555 1_555
C72 C71 1_555 1_555
C73 C72 1_555 1_555
C74 C73 1_555 1_555
H55 C74 1_555 1_555
C75 C74 1_555 1_555
C76 C75 1_555 1_555
C77 C72 1_555 1_555
H56 C77 1_555 1_555
C78 C76 1_555 1_555
H57 C78 1_555 1_555
C79 C78 1_555 1_555
C80 C79 1_555 1_555
C81 C80 1_555 1_555
H58 C81 1_555 1_555
C82 C81 1_555 1_555
C83 C82 1_555 1_555
C84 C79 1_555 1_555
H59 C84 1_555 1_555
C85 C83 1_555 1_555
H60 C85 1_555 1_555
C86 C85 1_555 1_555
C87 C86 1_555 1_555
C88 C87 1_555 1_555
H61 C88 1_555 1_555
C89 C88 1_555 1_555
C90 C89 1_555 1_555
C91 C86 1_555 1_555
H62 C91 1_555 1_555
C92 C65 1_555 1_555
H63 C92 1_555 1_555
C93 O17 1_555 1_555
H64 C93 1_555 1_555
H65 C93 1_555 1_555
C94 O18 1_555 1_555
H66 C94 1_555 1_555
H67 C94 1_555 1_555
H68 C94 1_555 1_555
C95 C71 1_555 1_555
H69 C95 1_555 1_555
H70 C95 1_555 1_555
C96 C95 1_555 1_555
H71 C96 1_555 1_555
H72 C96 1_555 1_555
C97 C96 1_555 1_555
H73 C97 1_555 1_555
H74 C97 1_555 1_555
C98 C97 1_555 1_555
H75 C98 1_555 1_555
H76 C98 1_555 1_555
C99 C98 1_555 1_555
H77 C99 1_555 1_555
H78 C99 1_555 1_555
H79 C99 1_555 1_555
C100 O19 1_555 1_555
H80 C100 1_555 1_555
H81 C100 1_555 1_555
C101 C100 1_555 1_555
C102 O21 1_555 1_555
H82 C102 1_555 1_555
H83 C102 1_555 1_555
H84 C102 1_555 1_555
C103 O22 1_555 1_555
H85 C103 1_555 1_555
H86 C103 1_555 1_555
H87 C103 1_555 1_555
C104 C78 1_555 1_555
H88 C104 1_555 1_555
H89 C104 1_555 1_555
C105 C104 1_555 1_555
H90 C105 1_555 1_555
H91 C105 1_555 1_555
C106 C105 1_555 1_555
H92 C106 1_555 1_555
H93 C106 1_555 1_555
C107 C106 1_555 1_555
H94 C107 1_555 1_555
H95 C107 1_555 1_555
C108 C107 1_555 1_555
H96 C108 1_555 1_555
H97 C108 1_555 1_555
H98 C108 1_555 1_555
C109 O23 1_555 1_555
H99 C109 1_555 1_555
H100 C109 1_555 1_555
C110 O24 1_555 1_555
H101 C110 1_555 1_555
H102 C110 1_555 1_555
H103 C110 1_555 1_555
C111 C85 1_555 1_555
H104 C111 1_555 1_555
H105 C111 1_555 1_555
C112 C111 1_555 1_555
H106 C112 1_555 1_555
H107 C112 1_555 1_555
C113 C112 1_555 1_555
H108 C113 1_555 1_555
H109 C113 1_555 1_555
C114 C113 1_555 1_555
H110 C114 1_555 1_555
H111 C114 1_555 1_555
C115 C114 1_555 1_555
H112 C115 1_555 1_555
H113 C115 1_555 1_555
H114 C115 1_555 1_555
C116 O25 1_555 1_555
H115 C116 1_555 1_555
H116 C116 1_555 1_555
C117 C116 1_555 1_555
C118 O27 1_555 1_555
H117 C118 1_555 1_555
H118 C118 1_555 1_555
H119 C118 1_555 1_555
C119 O28 1_555 1_555
H120 C119 1_555 1_555
H121 C119 1_555 1_555
H122 C119 1_555 1_555
C120 C92 1_555 1_555
H123 C120 1_555 1_555
H124 C120 1_555 1_555
C121 C120 1_555 1_555
H125 C121 1_555 1_555
H126 C121 1_555 1_555
C122 C121 1_555 1_555
H127 C122 1_555 1_555
H128 C122 1_555 1_555
C123 C122 1_555 1_555
H129 C123 1_555 1_555
H130 C123 1_555 1_555
C124 C123 1_555 1_555
H131 C124 1_555 1_555
H132 C124 1_555 1_555
H133 C124 1_555 1_555
O29 C125 1_555 1_555
C125 C93 1_555 1_555
C126 O29 1_555 1_555
O30 C125 1_555 1_555
O31 C127 1_555 1_555
C127 C109 1_555 1_555
O32 C127 1_555 1_555
C128 O32 1_555 1_555
H134 C128 1_555 1_555
H135 C128 1_555 1_555
H136 C128 1_555 1_555
C5 C6 1_555 1_555
C12 C13 1_555 1_555
C19 C20 1_555 1_555
C26 C27 1_555 1_555
C26 C28 1_555 1_555
C69 C70 1_555 1_555
C76 C77 1_555 1_555
C83 C84 1_555 1_555
C90 C91 1_555 1_555
C90 C92 1_555 1_555

#END
