
#######################################################################
#
#                 Cambridge Crystallographic Data Centre
#                                CCDC 
#
#######################################################################
#
# If this CIF has been generated from an entry in the Cambridge 
# Structural Database, then it will include bibliographic, chemical, 
# crystal, experimental, refinement or atomic coordinate data resulting 
# from the CCDC's data processing and validation procedures.
#
#######################################################################

data_MUDCEU
_chemical_formula_moiety         'C27 H27 Br1 N2 O6 S1 Si1'
_chemical_name_systematic        
N-((2-Bromophenyl)(3-(dimethyl(phenyl)silyl)-2-ethyl-5-oxo-2,5-dihydrofuran-2-yl)methyl)-4-nitrobenzenesulfonamide
_symmetry_cell_setting           monoclinic
_symmetry_space_group_name_H-M   'P 21/n'
_symmetry_Int_Tables_number      14
_space_group_name_Hall           '-P 2yn'
loop_
_symmetry_equiv_pos_site_id
_symmetry_equiv_pos_as_xyz
1 x,y,z
2 1/2-x,1/2+y,1/2-z
3 -x,-y,-z
4 1/2+x,1/2-y,1/2+z
_cell_length_a                   15.32(3)
_cell_length_b                   20.95(3)
_cell_length_c                   17.87(3)
_cell_angle_alpha                90
_cell_angle_beta                 92.26(7)
_cell_angle_gamma                90
_cell_volume                     5730.99
_cell_formula_units_Z            8
loop_
_atom_site_label
_atom_site_type_symbol
_atom_site_fract_x
_atom_site_fract_y
_atom_site_fract_z
Br1 Br 0.86519(4) 0.98765(3) 0.46039(3)
S1 S 0.74284(9) 0.86251(7) 0.26993(7)
Si1 Si 0.95405(10) 0.99112(7) 0.16345(8)
C1 C 1.0522(4) 0.9398(3) 0.3474(3)
H1 H 1.0250 0.9826 0.3498
H2 H 1.0525 0.9213 0.3984
O1 O 1.0988(3) 0.7697(2) 0.2143(2)
O2 O 1.0349(2) 0.83376(16) 0.2966(2)
N1 N 0.8468(3) 0.8570(2) 0.2693(2)
H3 H 0.8708 0.8330 0.2353
O3 O 0.7233(2) 0.92598(16) 0.2933(2)
O4 O 0.7088(2) 0.83894(17) 0.1999(2)
O5 O 0.6090(3) 0.6277(2) 0.4846(3)
O6 O 0.6795(3) 0.6867(2) 0.5671(3)
N2 N 0.6503(3) 0.6761(2) 0.5031(3)
C2 C 0.9954(3) 0.8978(2) 0.2953(3)
C3 C 1.1463(4) 0.9476(3) 0.3246(4)
H4 H 1.1772 0.9764 0.3598
H5 H 1.1470 0.9656 0.2740
H6 H 1.1752 0.9059 0.3254
C4 C 0.9961(3) 0.9173(2) 0.2137(3)
C5 C 1.0350(4) 0.8706(2) 0.1770(3)
H7 H 1.0447 0.8711 0.1248
C6 C 1.0604(4) 0.8190(3) 0.2272(3)
C7 C 0.9036(3) 0.8913(2) 0.3245(3)
H8 H 0.8796 0.9356 0.3280
C8 C 0.9007(3) 0.8626(2) 0.4028(3)
C9 C 0.9112(3) 0.7969(2) 0.4117(3)
H9 H 0.9233 0.7715 0.3693
C10 C 0.9044(4) 0.7680(3) 0.4801(3)
H10 H 0.9125 0.7232 0.4849
C11 C 0.8855(4) 0.8046(3) 0.5424(3)
H11 H 0.8791 0.7847 0.5896
C12 C 0.8762(4) 0.8697(3) 0.5356(3)
H12 H 0.8649 0.8952 0.5781
C13 C 0.8836(4) 0.8972(3) 0.4661(3)
C14 C 0.9319(4) 1.0567(3) 0.2304(3)
C15 C 0.8532(4) 1.0608(3) 0.2672(3)
H13 H 0.8093 1.0293 0.2583
C16 C 0.8385(5) 1.1107(3) 0.3170(4)
H14 H 0.7845 1.1134 0.3413
C17 C 0.9014(5) 1.1553(3) 0.3306(4)
H15 H 0.8916 1.1885 0.3654
C18 C 0.9790(5) 1.1530(3) 0.2947(4)
H16 H 1.0219 1.1851 0.3037
C19 C 0.9944(4) 1.1039(3) 0.2457(3)
H17 H 1.0486 1.1022 0.2217
C20 C 1.0421(4) 1.0146(3) 0.1013(3)
H18 H 1.0246 1.0532 0.0735
H19 H 1.0526 0.9800 0.0659
H20 H 1.0956 1.0231 0.1314
C21 C 0.8532(4) 0.9686(3) 0.1088(3)
H21 H 0.8297 1.0061 0.0821
H22 H 0.8096 0.9525 0.1429
H23 H 0.8668 0.9353 0.0726
C22 C 0.7070(3) 0.8095(3) 0.3386(3)
C23 C 0.6973(4) 0.7457(3) 0.3197(3)
H24 H 0.7060 0.7321 0.2698
C24 C 0.6751(4) 0.7018(3) 0.3736(3)
H25 H 0.6654 0.6582 0.3612
C25 C 0.6674(4) 0.7234(3) 0.4457(3)
C26 C 0.6760(3) 0.7863(3) 0.4662(3)
H26 H 0.6694 0.7993 0.5165
C27 C 0.6946(3) 0.8299(3) 0.4114(3)
H27 H 0.6991 0.8739 0.4234
Br2 Br 0.34555(4) 0.01558(3) 0.04551(3)
S2 S 0.24673(9) 0.14077(7) 0.24367(8)
Si2 Si 0.46715(10) 0.01146(7) 0.33530(8)
N3 N 0.0580(4) 0.3054(3) 0.0172(4)
O7 O 0.5325(2) 0.17083(16) 0.20521(19)
O8 O 0.0143(3) 0.2778(3) -0.0324(3)
N4 N 0.3493(3) 0.1470(2) 0.2379(2)
H28 H 0.3785 0.1717 0.2698
O9 O 0.6110(3) 0.23278(19) 0.2855(2)
O10 O 0.2236(2) 0.07690(16) 0.2241(2)
O11 O 0.2252(2) 0.16651(18) 0.3146(2)
O12 O 0.0649(4) 0.3634(3) 0.0234(3)
C28 C 0.5433(4) 0.0660(3) 0.1506(3)
H29 H 0.5152 0.0235 0.1469
H30 H 0.5381 0.0862 0.1005
C29 C 0.3663(4) 0.2361(3) 0.0254(3)
H31 H 0.3699 0.2812 0.0206
C30 C 0.1828(4) 0.2539(3) 0.1909(3)
H32 H 0.2048 0.2713 0.2370
C31 C 0.5073(3) 0.0859(2) 0.2864(3)
C32 C 0.3812(3) 0.1417(2) 0.1032(3)
C33 C 0.3974(4) 0.1125(2) 0.1805(3)
H33 H 0.3733 0.0682 0.1783
C34 C 0.3483(4) -0.0584(3) 0.2384(3)
H34 H 0.3046 -0.0315 0.2577
C35 C 0.4345(4) -0.0508(3) 0.2644(3)
C36 C 0.3859(4) 0.2077(2) 0.0936(3)
H35 H 0.4029 0.2337 0.1352
C37 C 0.3419(4) 0.1997(3) -0.0354(3)
H36 H 0.3276 0.2196 -0.0820
C38 C 0.3378(4) 0.1338(3) -0.0292(3)
H37 H 0.3223 0.1081 -0.0714
C39 C 0.3728(4) 0.0349(3) 0.3909(3)
H38 H 0.3509 -0.0025 0.4172
H39 H 0.3264 0.0522 0.3574
H40 H 0.3912 0.0676 0.4275
C40 C 0.1206(4) 0.2023(3) 0.0548(4)
H41 H 0.0995 0.1853 0.0083
C41 C 0.3567(4) 0.1064(3) 0.0396(3)
C42 C 0.4936(4) 0.1068(2) 0.2058(3)
C43 C 0.1647(4) 0.1644(3) 0.1068(3)
H42 H 0.1750 0.1207 0.0961
C44 C 0.1383(5) 0.2923(3) 0.1384(4)
H43 H 0.1291 0.3364 0.1479
C45 C 0.5533(4) 0.1303(3) 0.3231(3)
H44 H 0.5722 0.1278 0.3743
C46 C 0.4956(4) -0.0917(3) 0.2347(4)
H45 H 0.5550 -0.0883 0.2515
C47 C 0.3243(4) -0.1037(3) 0.1856(3)
H46 H 0.2648 -0.1080 0.1692
C48 C 0.4724(5) -0.1373(3) 0.1813(4)
H47 H 0.5156 -0.1646 0.1619
C49 C 0.6391(4) 0.0572(3) 0.1717(3)
H48 H 0.6660 0.0300 0.1345
H49 H 0.6451 0.0370 0.2211
H50 H 0.6681 0.0989 0.1732
C50 C 0.3871(5) -0.1428(3) 0.1567(3)
H51 H 0.3710 -0.1736 0.1197
C51 C 0.5592(3) -0.0146(3) 0.3984(3)
H52 H 0.5424 -0.0532 0.4253
H53 H 0.5737 0.0194 0.4345
H54 H 0.6102 -0.0238 0.3688
C52 C 0.1080(4) 0.2650(3) 0.0724(4)
C53 C 0.5707(4) 0.1837(3) 0.2733(3)
C54 C 0.1942(3) 0.1904(3) 0.1747(3)
loop_
_geom_bond_atom_site_label_1
_geom_bond_atom_site_label_2
_geom_bond_site_symmetry_1
_geom_bond_site_symmetry_2
Br1 C13 1_555 1_555
S1 N1 1_555 1_555
Si1 C4 1_555 1_555
C1 H1 1_555 1_555
H2 C1 1_555 1_555
O1 C6 1_555 1_555
O2 C2 1_555 1_555
N1 H3 1_555 1_555
O3 S1 1_555 1_555
O4 S1 1_555 1_555
O5 N2 1_555 1_555
O6 N2 1_555 1_555
N2 C25 1_555 1_555
C2 C1 1_555 1_555
C3 C1 1_555 1_555
H4 C3 1_555 1_555
H5 C3 1_555 1_555
H6 C3 1_555 1_555
C4 C2 1_555 1_555
C5 C4 1_555 1_555
H7 C5 1_555 1_555
C6 O2 1_555 1_555
C7 N1 1_555 1_555
H8 C7 1_555 1_555
C8 C7 1_555 1_555
C9 C8 1_555 1_555
H9 C9 1_555 1_555
C10 C9 1_555 1_555
H10 C10 1_555 1_555
C11 C10 1_555 1_555
H11 C11 1_555 1_555
C12 C11 1_555 1_555
H12 C12 1_555 1_555
C13 C8 1_555 1_555
C14 Si1 1_555 1_555
C15 C14 1_555 1_555
H13 C15 1_555 1_555
C16 C15 1_555 1_555
H14 C16 1_555 1_555
C17 C16 1_555 1_555
H15 C17 1_555 1_555
C18 C17 1_555 1_555
H16 C18 1_555 1_555
C19 C14 1_555 1_555
H17 C19 1_555 1_555
C20 Si1 1_555 1_555
H18 C20 1_555 1_555
H19 C20 1_555 1_555
H20 C20 1_555 1_555
C21 Si1 1_555 1_555
H21 C21 1_555 1_555
H22 C21 1_555 1_555
H23 C21 1_555 1_555
C22 S1 1_555 1_555
C23 C22 1_555 1_555
H24 C23 1_555 1_555
C24 C23 1_555 1_555
H25 C24 1_555 1_555
C25 C24 1_555 1_555
C26 C25 1_555 1_555
H26 C26 1_555 1_555
C27 C22 1_555 1_555
H27 C27 1_555 1_555
Br2 C41 1_555 1_555
S2 N4 1_555 1_555
Si2 C31 1_555 1_555
N3 O8 1_555 1_555
O7 C42 1_555 1_555
N4 H28 1_555 1_555
O9 C53 1_555 1_555
O10 S2 1_555 1_555
O11 S2 1_555 1_555
O12 N3 1_555 1_555
C28 H29 1_555 1_555
H30 C28 1_555 1_555
C29 H31 1_555 1_555
C30 H32 1_555 1_555
C31 C42 1_555 1_555
C32 C33 1_555 1_555
C33 N4 1_555 1_555
H33 C33 1_555 1_555
C34 H34 1_555 1_555
C35 Si2 1_555 1_555
C36 C29 1_555 1_555
H35 C36 1_555 1_555
C37 C29 1_555 1_555
H36 C37 1_555 1_555
C38 C37 1_555 1_555
H37 C38 1_555 1_555
C39 Si2 1_555 1_555
H38 C39 1_555 1_555
H39 C39 1_555 1_555
H40 C39 1_555 1_555
C40 H41 1_555 1_555
C41 C32 1_555 1_555
C42 C28 1_555 1_555
C43 C40 1_555 1_555
H42 C43 1_555 1_555
C44 C30 1_555 1_555
H43 C44 1_555 1_555
C45 C31 1_555 1_555
H44 C45 1_555 1_555
C46 C35 1_555 1_555
H45 C46 1_555 1_555
C47 C34 1_555 1_555
H46 C47 1_555 1_555
C48 C46 1_555 1_555
H47 C48 1_555 1_555
C49 C28 1_555 1_555
H48 C49 1_555 1_555
H49 C49 1_555 1_555
H50 C49 1_555 1_555
C50 C47 1_555 1_555
H51 C50 1_555 1_555
C51 Si2 1_555 1_555
H52 C51 1_555 1_555
H53 C51 1_555 1_555
H54 C51 1_555 1_555
C52 N3 1_555 1_555
C53 O7 1_555 1_555
C54 S2 1_555 1_555
C2 C7 1_555 1_555
C5 C6 1_555 1_555
C12 C13 1_555 1_555
C18 C19 1_555 1_555
C26 C27 1_555 1_555
C30 C54 1_555 1_555
C32 C36 1_555 1_555
C33 C42 1_555 1_555
C34 C35 1_555 1_555
C38 C41 1_555 1_555
C40 C52 1_555 1_555
C43 C54 1_555 1_555
C44 C52 1_555 1_555
C45 C53 1_555 1_555
C48 C50 1_555 1_555

#END
