
#######################################################################
#
#                 Cambridge Crystallographic Data Centre
#                                CCDC 
#
#######################################################################
#
# If this CIF has been generated from an entry in the Cambridge 
# Structural Database, then it will include bibliographic, chemical, 
# crystal, experimental, refinement or atomic coordinate data resulting 
# from the CCDC's data processing and validation procedures.
#
#######################################################################

data_MUDDIZ
_chemical_formula_moiety         'C30 H48 N2 O13'
_chemical_name_systematic        
"Methyl 3-(acetamido(2,2,2',2'-tetramethyl-4,4'-bi-1,3-dioxol-5-yl)methyl)-2-(6-(2,2-dimethyl-1,3-dioxolan-4-yl)-2,2-dimethyltetrahydrofuro[3,4-d][1,3]dioxol-4-yl)-1,2-oxazolidine-5-carboxylate"
_symmetry_cell_setting           orthorhombic
_symmetry_space_group_name_H-M   'P 21 21 21'
_symmetry_Int_Tables_number      19
_space_group_name_Hall           'P 2ac 2ab'
loop_
_symmetry_equiv_pos_site_id
_symmetry_equiv_pos_as_xyz
1 x,y,z
2 1/2-x,-y,1/2+z
3 -x,1/2+y,1/2-z
4 1/2+x,1/2-y,-z
_cell_length_a                   9.3504(12)
_cell_length_b                   18.666(2)
_cell_length_c                   20.153(3)
_cell_angle_alpha                90
_cell_angle_beta                 90
_cell_angle_gamma                90
_cell_volume                     3517.4
_exptl_crystal_colour            colorless
_exptl_crystal_description       prismatic
_chemical_melting_point          '123 deg.C'
_cell_formula_units_Z            4
loop_
_atom_site_label
_atom_site_type_symbol
_atom_site_fract_x
_atom_site_fract_y
_atom_site_fract_z
O1 O 0.5011(6) 0.5726(3) 0.2854(2)
O2 O 0.5686(5) 0.5057(2) 0.1985(2)
O3 O 0.8097(5) 0.6050(2) 0.24954(18)
O4 O 0.6064(7) 0.7152(4) 0.3603(3)
O5 O 0.8049(11) 0.7336(4) 0.4204(3)
O6 O 0.7855(5) 0.6152(2) 0.07153(17)
O7 O 1.0036(5) 0.7698(2) 0.22364(17)
O8 O 1.1771(5) 0.8449(3) 0.1857(3)
O9 O 0.8646(5) 0.9237(2) 0.1042(2)
O10 O 1.0251(11) 1.0101(4) 0.0826(4)
O11 O 0.9268(12) 0.4644(5) -0.0067(6)
O12 O 0.7555(9) 0.4736(3) 0.0605(3)
O13 O 1.2163(5) 0.7216(3) 0.0042(2)
N1 N 0.8233(5) 0.6393(2) 0.1376(2)
N2 N 0.9933(6) 0.7329(3) 0.0433(2)
C1 C 0.4608(9) 0.5104(5) 0.2482(4)
C2 C 0.5635(8) 0.6218(4) 0.2406(3)
H1 H 0.4949 0.6586 0.2268
C3 C 0.6144(7) 0.5774(3) 0.1821(3)
H2 H 0.5751 0.5941 0.1397
C4 C 0.7732(6) 0.5822(3) 0.1846(3)
H3 H 0.8174 0.5359 0.1742
C5 C 0.6987(8) 0.6550(3) 0.2687(3)
H4 H 0.7160 0.7017 0.2480
C6 C 0.7044(11) 0.6619(4) 0.3430(3)
H5 H 0.6799 0.6164 0.3643
C7 C 0.8429(11) 0.6887(5) 0.3674(3)
H6 H 0.9032 0.6496 0.3823
H7 H 0.8928 0.7153 0.3331
C8 C 0.6753(16) 0.7632(7) 0.4050(5)
C9 C 0.9022(8) 0.5744(4) 0.0435(3)
H8 H 0.9268 0.5948 0.0002
C10 C 1.0269(8) 0.5847(3) 0.0898(3)
H9 H 1.1123 0.5982 0.0654
H10 H 1.0462 0.5413 0.1147
C11 C 0.9788(6) 0.6449(3) 0.1356(3)
H11 H 1.0170 0.6362 0.1801
C12 C 1.0312(6) 0.7188(3) 0.1110(3)
H12 H 1.1359 0.7182 0.1131
C13 C 0.9805(6) 0.7818(3) 0.1540(2)
H13 H 0.8784 0.7899 0.1462
C14 C 1.0607(6) 0.8496(3) 0.1403(3)
H14 H 1.0972 0.8490 0.0947
C15 C 1.1360(8) 0.8033(4) 0.2423(4)
C16 C 0.9747(8) 0.9176(4) 0.1518(3)
H15 H 0.9348 0.9181 0.1967
C17 C 1.0634(10) 0.9871(4) 0.1390(5)
H16 H 1.0440 1.0225 0.1730
H17 H 1.1650 0.9765 0.1391
C18 C 0.8967(11) 0.9821(5) 0.0601(4)
C19 C 0.8618(12) 0.4957(5) 0.0340(6)
C20 C 0.6954(18) 0.4020(6) 0.0413(6)
H18 H 0.7707 0.3722 0.0244
H19 H 0.6237 0.4084 0.0078
H20 H 0.6534 0.3797 0.0796
C21 C 1.0886(7) 0.7328(3) -0.0065(3)
C22 C 1.0324(7) 0.7442(4) -0.0748(3)
H21 H 1.0992 0.7725 -0.0997
H22 H 0.9423 0.7688 -0.0725
H23 H 1.0194 0.6987 -0.0961
C23 C 0.3142(8) 0.5203(5) 0.2191(4)
H24 H 0.3149 0.5607 0.1896
H25 H 0.2466 0.5285 0.2541
H26 H 0.2876 0.4780 0.1949
C24 C 0.4759(10) 0.4453(5) 0.2935(4)
H27 H 0.4207 0.4063 0.2759
H28 H 0.4419 0.4571 0.3371
H29 H 0.5747 0.4315 0.2959
C25 C 0.6876(19) 0.8350(6) 0.3721(7)
H30 H 0.7570 0.8635 0.3952
H31 H 0.5965 0.8587 0.3732
H32 H 0.7172 0.8287 0.3269
C26 C 0.5906(18) 0.7682(8) 0.4708(4)
H33 H 0.5646 0.7210 0.4852
H34 H 0.5057 0.7962 0.4639
H35 H 0.6490 0.7907 0.5040
C27 C 1.1100(10) 0.8480(5) 0.3026(4)
H36 H 1.1961 0.8731 0.3142
H37 H 1.0819 0.8176 0.3388
H38 H 1.0353 0.8819 0.2936
C28 C 1.2522(9) 0.7469(4) 0.2519(5)
H39 H 1.2710 0.7235 0.2104
H40 H 1.2208 0.7121 0.2838
H41 H 1.3381 0.7695 0.2675
C29 C 0.9269(11) 0.9524(6) -0.0078(4)
H42 H 0.9427 0.9911 -0.0383
H43 H 0.8467 0.9244 -0.0225
H44 H 1.0106 0.9226 -0.0061
C30 C 0.7770(18) 1.0328(6) 0.0641(6)
H45 H 0.7623 1.0465 0.1095
H46 H 0.6919 1.0105 0.0473
H47 H 0.7986 1.0745 0.0381
H48 H 0.909(3) 0.740(3) 0.035(2)
loop_
_geom_bond_atom_site_label_1
_geom_bond_atom_site_label_2
_geom_bond_site_symmetry_1
_geom_bond_site_symmetry_2
O1 C1 1_555 1_555
O2 C1 1_555 1_555
O3 C4 1_555 1_555
O4 C6 1_555 1_555
O5 C7 1_555 1_555
O6 N1 1_555 1_555
O7 C13 1_555 1_555
O8 C14 1_555 1_555
O9 C16 1_555 1_555
O10 C17 1_555 1_555
O11 C19 1_555 1_555
O12 C19 1_555 1_555
O13 C21 1_555 1_555
N1 C4 1_555 1_555
N2 C12 1_555 1_555
C1 C23 1_555 1_555
C2 O1 1_555 1_555
H1 C2 1_555 1_555
C3 O2 1_555 1_555
H2 C3 1_555 1_555
C4 C3 1_555 1_555
H3 C4 1_555 1_555
C5 O3 1_555 1_555
H4 C5 1_555 1_555
C6 C5 1_555 1_555
H5 C6 1_555 1_555
C7 C6 1_555 1_555
H6 C7 1_555 1_555
H7 C7 1_555 1_555
C8 O4 1_555 1_555
C9 O6 1_555 1_555
H8 C9 1_555 1_555
C10 C9 1_555 1_555
H9 C10 1_555 1_555
H10 C10 1_555 1_555
C11 N1 1_555 1_555
H11 C11 1_555 1_555
C12 C11 1_555 1_555
H12 C12 1_555 1_555
C13 C12 1_555 1_555
H13 C13 1_555 1_555
C14 C13 1_555 1_555
H14 C14 1_555 1_555
C15 O7 1_555 1_555
C16 C14 1_555 1_555
H15 C16 1_555 1_555
C17 C16 1_555 1_555
H16 C17 1_555 1_555
H17 C17 1_555 1_555
C18 O9 1_555 1_555
C19 C9 1_555 1_555
C20 O12 1_555 1_555
H18 C20 1_555 1_555
H19 C20 1_555 1_555
H20 C20 1_555 1_555
C21 N2 1_555 1_555
C22 C21 1_555 1_555
H21 C22 1_555 1_555
H22 C22 1_555 1_555
H23 C22 1_555 1_555
C23 H24 1_555 1_555
H25 C23 1_555 1_555
H26 C23 1_555 1_555
C24 C1 1_555 1_555
H27 C24 1_555 1_555
H28 C24 1_555 1_555
H29 C24 1_555 1_555
C25 C8 1_555 1_555
H30 C25 1_555 1_555
H31 C25 1_555 1_555
H32 C25 1_555 1_555
C26 C8 1_555 1_555
H33 C26 1_555 1_555
H34 C26 1_555 1_555
H35 C26 1_555 1_555
C27 C15 1_555 1_555
H36 C27 1_555 1_555
H37 C27 1_555 1_555
H38 C27 1_555 1_555
C28 C15 1_555 1_555
H39 C28 1_555 1_555
H40 C28 1_555 1_555
H41 C28 1_555 1_555
C29 C18 1_555 1_555
H42 C29 1_555 1_555
H43 C29 1_555 1_555
H44 C29 1_555 1_555
C30 C18 1_555 1_555
H45 C30 1_555 1_555
H46 C30 1_555 1_555
H47 C30 1_555 1_555
H48 N2 1_555 1_555
O5 C8 1_555 1_555
O8 C15 1_555 1_555
O10 C18 1_555 1_555
C2 C3 1_555 1_555
C2 C5 1_555 1_555
C10 C11 1_555 1_555

#END
