
#######################################################################
#
#                 Cambridge Crystallographic Data Centre
#                                CCDC 
#
#######################################################################
#
# If this CIF has been generated from an entry in the Cambridge 
# Structural Database, then it will include bibliographic, chemical, 
# crystal, experimental, refinement or atomic coordinate data resulting 
# from the CCDC's data processing and validation procedures.
#
#######################################################################

data_MUDGEY
_chemical_formula_moiety         'C29 H34 N2 O6 S2'
_chemical_name_systematic        
3a,4,12a,13-Tetrahydroxy-4,13-dimethyl-2,11-diphenyl-3a,4,5,8,9,9a,12a,13,14,15,16,16a-dodecahydro-7H-[1,3]thiazolo[4',5':10,11]oxacyclotetradecino[4,5-d][1,3]thiazol-7-one
_symmetry_cell_setting           monoclinic
_symmetry_space_group_name_H-M   'C 2/c'
_symmetry_Int_Tables_number      15
_space_group_name_Hall           '-C 2yn'
loop_
_symmetry_equiv_pos_site_id
_symmetry_equiv_pos_as_xyz
1 x,y,z
2 -x,y,1/2-z
3 1/2+x,1/2+y,z
4 1/2-x,1/2+y,1/2-z
5 -x,-y,-z
6 x,-y,1/2+z
7 1/2-x,1/2-y,-z
8 1/2+x,1/2-y,1/2+z
_cell_length_a                   22.0931(18)
_cell_length_b                   12.2588(10)
_cell_length_c                   20.4161(16)
_cell_angle_alpha                90
_cell_angle_beta                 95.794(2)
_cell_angle_gamma                90
_cell_volume                     5501.14
_exptl_crystal_colour            colorless
_exptl_crystal_description       sword
_cell_formula_units_Z            8
loop_
_atom_site_label
_atom_site_type_symbol
_atom_site_fract_x
_atom_site_fract_y
_atom_site_fract_z
S1 S 1.02774(2) 0.63887(4) 0.16270(2)
S2 S 0.86128(2) 1.00776(4) -0.11168(2)
N1 N 0.94940(7) 0.49002(11) 0.11560(7)
N2 N 0.79738(7) 1.16108(12) -0.06113(8)
O1 O 0.87519(6) 0.60232(11) 0.15223(6)
H1 H 0.8512(11) 0.553(2) 0.1430(12)
O2 O 0.83354(6) 0.50046(10) 0.04092(7)
H2 H 0.8484(11) 0.447(2) 0.0492(12)
O3 O 0.92330(7) 1.00976(10) 0.21486(7)
O4 O 0.92409(6) 1.04206(10) 0.10658(6)
O5 O 0.83006(6) 1.27508(10) 0.05478(7)
H3 H 0.7969(12) 1.263(2) 0.0578(12)
O6 O 0.77280(6) 1.07374(10) 0.03480(7)
H4 H 0.7445(11) 1.0488(19) 0.0106(12)
C1 C 0.91599(8) 0.59271(13) 0.10310(8)
C2 C 0.96098(8) 0.69041(13) 0.11279(9)
H5 H 0.9732 0.7125 0.0688
C3 C 1.00130(8) 0.50396(13) 0.14866(8)
C4 C 1.03985(8) 0.41353(14) 0.17593(8)
C5 C 1.09550(9) 0.43232(16) 0.21268(10)
H6 H 1.1094 0.5049 0.2209
C6 C 1.13047(9) 0.34516(16) 0.23720(10)
H7 H 1.1682 0.3581 0.2626
C7 C 1.11100(8) 0.23939(16) 0.22504(10)
H8 H 1.1358 0.1799 0.2411
C8 C 1.05520(9) 0.22026(16) 0.18937(10)
H9 H 1.0413 0.1476 0.1814
C9 C 1.02004(9) 0.30681(15) 0.16555(10)
H10 H 0.9816 0.2934 0.1416
C10 C 0.87835(8) 0.58503(13) 0.03389(8)
C11 C 0.91745(8) 0.55399(15) -0.02012(9)
H11 H 0.9372 0.4837 -0.0095
H12 H 0.9485 0.6101 -0.0237
H13 H 0.8919 0.5480 -0.0621
C12 C 0.83887(8) 0.68636(13) 0.01619(9)
H14 H 0.8044 0.6631 -0.0155
H15 H 0.8214 0.7102 0.0567
C13 C 0.86803(8) 0.78688(13) -0.01309(9)
H16 H 0.9090 0.7994 0.0100
H17 H 0.8725 0.7742 -0.0603
C14 C 0.82788(8) 0.88733(13) -0.00561(9)
H18 H 0.7891 0.8776 -0.0338
H19 H 0.8181 0.8915 0.0406
C15 C 0.93501(8) 0.78958(13) 0.14518(9)
H20 H 0.9262 0.7697 0.1903
H21 H 0.8961 0.8103 0.1200
C16 C 0.97811(8) 0.88870(14) 0.14906(9)
H22 H 1.0114 0.8785 0.1847
H23 H 0.9962 0.8981 0.1070
C17 C 0.94047(8) 0.98646(13) 0.16279(9)
C18 C 0.88073(8) 1.12975(14) 0.11083(9)
H24 H 0.8988 1.1872 0.1408
H25 H 0.8439 1.1015 0.1291
C19 C 0.86309(8) 1.17838(13) 0.04228(9)
C20 C 0.91835(8) 1.21622(15) 0.00924(10)
H26 H 0.9051 1.2433 -0.0351
H27 H 0.9464 1.1549 0.0062
H28 H 0.9391 1.2748 0.0354
C21 C 0.82116(8) 1.10013(13) -0.00255(9)
C22 C 0.85653(8) 0.99512(13) -0.02358(8)
H29 H 0.8988 0.9979 -0.0010
C23 C 0.81539(8) 1.12587(14) -0.11431(9)
C24 C 0.80008(8) 1.18068(16) -0.17874(10)
C25 C 0.77978(9) 1.28928(17) -0.17938(12)
H30 H 0.7769 1.3274 -0.1393
C26 C 0.76386(10) 1.3402(2) -0.23970(13)
H31 H 0.7512 1.4143 -0.2408
C27 C 0.76638(10) 1.2837(2) -0.29768(13)
H32 H 0.7534 1.3181 -0.3384
C28 C 0.78754(10) 1.1772(2) -0.29738(12)
H33 H 0.7897 1.1391 -0.3376
C29 C 0.80561(9) 1.12656(18) -0.23738(10)
H34 H 0.8218 1.0547 -0.2367
loop_
_geom_bond_atom_site_label_1
_geom_bond_atom_site_label_2
_geom_bond_site_symmetry_1
_geom_bond_site_symmetry_2
S1 C2 1_555 1_555
S2 C22 1_555 1_555
N1 C1 1_555 1_555
N2 C21 1_555 1_555
O1 H1 1_555 1_555
O2 H2 1_555 1_555
O3 C17 1_555 1_555
O4 C17 1_555 1_555
O5 H3 1_555 1_555
O6 H4 1_555 1_555
C1 O1 1_555 1_555
C2 C1 1_555 1_555
H5 C2 1_555 1_555
C3 S1 1_555 1_555
C4 C3 1_555 1_555
C5 C4 1_555 1_555
H6 C5 1_555 1_555
C6 C5 1_555 1_555
H7 C6 1_555 1_555
C7 C6 1_555 1_555
H8 C7 1_555 1_555
C8 C7 1_555 1_555
H9 C8 1_555 1_555
C9 C4 1_555 1_555
H10 C9 1_555 1_555
C10 O2 1_555 1_555
C11 C10 1_555 1_555
H11 C11 1_555 1_555
H12 C11 1_555 1_555
H13 C11 1_555 1_555
C12 C10 1_555 1_555
H14 C12 1_555 1_555
H15 C12 1_555 1_555
C13 C12 1_555 1_555
H16 C13 1_555 1_555
H17 C13 1_555 1_555
C14 C13 1_555 1_555
H18 C14 1_555 1_555
H19 C14 1_555 1_555
C15 C2 1_555 1_555
H20 C15 1_555 1_555
H21 C15 1_555 1_555
C16 C15 1_555 1_555
H22 C16 1_555 1_555
H23 C16 1_555 1_555
C17 C16 1_555 1_555
C18 O4 1_555 1_555
H24 C18 1_555 1_555
H25 C18 1_555 1_555
C19 O5 1_555 1_555
C20 C19 1_555 1_555
H26 C20 1_555 1_555
H27 C20 1_555 1_555
H28 C20 1_555 1_555
C21 O6 1_555 1_555
C22 C14 1_555 1_555
H29 C22 1_555 1_555
C23 S2 1_555 1_555
C24 C23 1_555 1_555
C25 C24 1_555 1_555
H30 C25 1_555 1_555
C26 C25 1_555 1_555
H31 C26 1_555 1_555
C27 C26 1_555 1_555
H32 C27 1_555 1_555
C28 C27 1_555 1_555
H33 C28 1_555 1_555
C29 C24 1_555 1_555
H34 C29 1_555 1_555
N1 C3 1_555 1_555
N2 C23 1_555 1_555
C1 C10 1_555 1_555
C8 C9 1_555 1_555
C18 C19 1_555 1_555
C19 C21 1_555 1_555
C21 C22 1_555 1_555
C28 C29 1_555 1_555

#END
