
#######################################################################
#
#                 Cambridge Crystallographic Data Centre
#                                CCDC 
#
#######################################################################
#
# If this CIF has been generated from an entry in the Cambridge 
# Structural Database, then it will include bibliographic, chemical, 
# crystal, experimental, refinement or atomic coordinate data resulting 
# from the CCDC's data processing and validation procedures.
#
#######################################################################

data_MUDGIC
_chemical_formula_moiety         'C29 H34 N2 O6 S2'
_chemical_name_systematic        
3a,4,12a,13-Tetrahydroxy-4,13-dimethyl-2,11-diphenyl-3a,4,5,8,9,9a,12a,13,14,15,16,16a-dodecahydro-7H-[1,3]thiazolo[4',5':10,11]oxacyclotetradecino[4,5-d][1,3]thiazol-7-one
_symmetry_cell_setting           monoclinic
_symmetry_space_group_name_H-M   'P 21/c'
_symmetry_Int_Tables_number      14
_space_group_name_Hall           '-P 2ybc'
loop_
_symmetry_equiv_pos_site_id
_symmetry_equiv_pos_as_xyz
1 x,y,z
2 -x,1/2+y,1/2-z
3 -x,-y,-z
4 x,1/2-y,1/2+z
_cell_length_a                   15.2379(8)
_cell_length_b                   7.0663(4)
_cell_length_c                   25.1205(13)
_cell_angle_alpha                90
_cell_angle_beta                 92.623(2)
_cell_angle_gamma                90
_cell_volume                     2702.03
_exptl_crystal_colour            colorless
_exptl_crystal_description       plate
_cell_formula_units_Z            4
loop_
_atom_site_label
_atom_site_type_symbol
_atom_site_fract_x
_atom_site_fract_y
_atom_site_fract_z
S1 S 0.42747(7) 0.95294(17) 0.09524(4)
S2 S -0.13042(8) 0.7774(2) 0.14568(5)
N1 N 0.4878(2) 1.0907(5) 0.18596(12)
N2 N -0.0818(2) 0.8708(5) 0.05168(13)
O1 O 0.20479(16) 1.1254(4) 0.21852(10)
O2 O 0.42691(17) 0.8216(4) 0.22361(10)
H1 H 0.4417 0.8378 0.2559
O3 O 0.41203(17) 1.1102(4) 0.28972(10)
H2 H 0.4542 1.1869 0.2895
O4 O 0.10270(18) 0.9356(5) 0.25253(12)
O5 O 0.02990(19) 1.0867(4) 0.07300(12)
H3 H -0.0043 1.1385 0.0502
C1 C 0.3497(3) 0.9566(7) 0.14791(15)
H4 H 0.3043 1.0568 0.1411
C2 C 0.4056(2) 0.9992(6) 0.19972(15)
C3 C 0.5063(2) 1.0690(6) 0.13750(16)
C4 C 0.5894(3) 1.1319(6) 0.11553(16)
C5 C 0.6592(3) 1.1813(6) 0.15016(17)
H5 H 0.6528 1.1760 0.1876
C6 C 0.7378(3) 1.2378(6) 0.13052(18)
H6 H 0.7847 1.2745 0.1545
C7 C 0.7490(3) 1.2418(6) 0.07622(19)
H7 H 0.8037 1.2789 0.0628
C8 C 0.6800(3) 1.1913(6) 0.04180(18)
H8 H 0.6871 1.1940 0.0044
C9 C 0.6006(3) 1.1368(6) 0.06107(17)
H9 H 0.5535 1.1025 0.0370
C10 C 0.3608(2) 1.1253(6) 0.24048(15)
C11 C 0.3532(3) 1.3295(6) 0.22297(17)
H10 H 0.3236 1.4026 0.2500
H11 H 0.3190 1.3367 0.1890
H12 H 0.4120 1.3815 0.2185
C12 C 0.2708(2) 1.0503(6) 0.25584(15)
H13 H 0.2703 0.9103 0.2546
H14 H 0.2585 1.0906 0.2925
C13 C 0.1216(3) 1.0625(6) 0.22340(17)
C14 C 0.0600(3) 1.1775(6) 0.18791(17)
H15 H 0.0890 1.2045 0.1543
H16 H 0.0492 1.3001 0.2055
C15 C -0.0285(3) 1.0824(7) 0.17455(18)
H17 H -0.0583 1.0603 0.2082
H18 H -0.0654 1.1712 0.1528
C16 C -0.0241(3) 0.8959(6) 0.14484(16)
H19 H 0.0205 0.8138 0.1640
C17 C -0.0018(3) 0.9041(6) 0.08487(16)
C18 C -0.1459(3) 0.8046(6) 0.07696(16)
C19 C -0.2302(3) 0.7474(6) 0.05068(16)
C20 C -0.3033(3) 0.7096(6) 0.08008(18)
H20 H -0.2992 0.7211 0.1178
C21 C -0.3819(3) 0.6552(6) 0.05495(19)
H21 H -0.4317 0.6304 0.0753
C22 C -0.3876(3) 0.6372(6) 0.00047(19)
H22 H -0.4415 0.6002 -0.0169
C23 C -0.3153(3) 0.6726(6) -0.02924(18)
H23 H -0.3197 0.6594 -0.0669
C24 C -0.2365(3) 0.7272(6) -0.00428(17)
H24 H -0.1868 0.7509 -0.0248
C25 C 0.3033(4) 0.7430(11) 0.1504(3)
H25 H 0.3498 0.6456 0.1485
H26 H 0.2758 0.7288 0.1851
C26 C 0.0707(4) 0.7806(10) 0.0746(3)
O6 O 0.0899(7) 0.8021(15) 0.0195(2)
H27 H 0.0988 0.9035 0.0072
C27 C 0.0448(5) 0.5783(10) 0.0841(3)
H28 H 0.0923 0.4941 0.0738
H29 H -0.0088 0.5487 0.0627
H30 H 0.0342 0.5603 0.1219
C28 C 0.1538(4) 0.8307(9) 0.1098(3)
H31 H 0.1711 0.9617 0.1011
H32 H 0.1372 0.8302 0.1475
C29 C 0.2335(4) 0.7063(9) 0.1056(2)
H33 H 0.2597 0.7286 0.0708
H34 H 0.2152 0.5720 0.1069
C30? C 0.2882(7) 0.8246(16) 0.1422(5)
C31? C 0.0629(5) 0.7222(14) 0.0623(4)
C32? C 0.0167(7) 0.5334(15) 0.0604(5)
C33? C 0.1490(5) 0.7000(13) 0.0970(4)
C34? C 0.2110(6) 0.8654(12) 0.1023(4)
H35? H 0.2640 0.8015 0.1775
H36? H 0.3167 0.7059 0.1312
H37? H -0.0371 0.5432 0.0377
H38? H 0.0017 0.4966 0.0965
H39? H 0.0555 0.4378 0.0458
H40? H 0.1327 0.6639 0.1333
H41? H 0.1820 0.5923 0.0826
H42? H 0.1785 0.9778 0.1143
H43? H 0.2340 0.8947 0.0670
O7? O 0.0848(11) 0.769(2) 0.0088(4)
loop_
_geom_bond_atom_site_label_1
_geom_bond_atom_site_label_2
_geom_bond_site_symmetry_1
_geom_bond_site_symmetry_2
S1 C1 1_555 1_555
S2 C16 1_555 1_555
N1 C2 1_555 1_555
N2 C17 1_555 1_555
O1 C12 1_555 1_555
O2 H1 1_555 1_555
O3 H2 1_555 1_555
O4 C13 1_555 1_555
O5 H3 1_555 1_555
C1 H4 1_555 1_555
C2 O2 1_555 1_555
C3 S1 1_555 1_555
C4 C3 1_555 1_555
C5 C4 1_555 1_555
H5 C5 1_555 1_555
C6 C5 1_555 1_555
H6 C6 1_555 1_555
C7 C6 1_555 1_555
H7 C7 1_555 1_555
C8 C7 1_555 1_555
H8 C8 1_555 1_555
C9 C4 1_555 1_555
H9 C9 1_555 1_555
C10 O3 1_555 1_555
C11 C10 1_555 1_555
H10 C11 1_555 1_555
H11 C11 1_555 1_555
H12 C11 1_555 1_555
C12 C10 1_555 1_555
H13 C12 1_555 1_555
H14 C12 1_555 1_555
C13 O1 1_555 1_555
C14 C13 1_555 1_555
H15 C14 1_555 1_555
H16 C14 1_555 1_555
C15 C14 1_555 1_555
H17 C15 1_555 1_555
H18 C15 1_555 1_555
C16 C15 1_555 1_555
H19 C16 1_555 1_555
C17 O5 1_555 1_555
C18 S2 1_555 1_555
C19 C18 1_555 1_555
C20 C19 1_555 1_555
H20 C20 1_555 1_555
C21 C20 1_555 1_555
H21 C21 1_555 1_555
C22 C21 1_555 1_555
H22 C22 1_555 1_555
C23 C22 1_555 1_555
H23 C23 1_555 1_555
C24 C19 1_555 1_555
H24 C24 1_555 1_555
C25 C1 1_555 1_555
H25 C25 1_555 1_555
H26 C25 1_555 1_555
C26 C17 1_555 1_555
O6 C26 1_555 1_555
H27 O6 1_555 1_555
C27 C26 1_555 1_555
H28 C27 1_555 1_555
H29 C27 1_555 1_555
H30 C27 1_555 1_555
C28 C26 1_555 1_555
H31 C28 1_555 1_555
H32 C28 1_555 1_555
C29 C25 1_555 1_555
H33 C29 1_555 1_555
H34 C29 1_555 1_555
N1 C3 1_555 1_555
N2 C18 1_555 1_555
C1 C2 1_555 1_555
C2 C10 1_555 1_555
C8 C9 1_555 1_555
C16 C17 1_555 1_555
C23 C24 1_555 1_555
C28 C29 1_555 1_555

#END
