
#######################################################################
#
#                 Cambridge Crystallographic Data Centre
#                                CCDC 
#
#######################################################################
#
# If this CIF has been generated from an entry in the Cambridge 
# Structural Database, then it will include bibliographic, chemical, 
# crystal, experimental, refinement or atomic coordinate data resulting 
# from the CCDC's data processing and validation procedures.
#
#######################################################################

data_MUDGAU
_chemical_formula_moiety         'C16 H24 O6'
_chemical_name_systematic        
7-Hydroxy-7,9,13-trimethyl-5,14-dioxabicyclo[11.1.1]pentadecane-4,8,15-trione
_symmetry_cell_setting           monoclinic
_symmetry_space_group_name_H-M   'P 21/n'
_symmetry_Int_Tables_number      14
_space_group_name_Hall           '-P 2yn'
loop_
_symmetry_equiv_pos_site_id
_symmetry_equiv_pos_as_xyz
1 x,y,z
2 1/2-x,1/2+y,1/2-z
3 -x,-y,-z
4 1/2+x,1/2-y,1/2+z
_cell_length_a                   10.0132(4)
_cell_length_b                   6.5882(3)
_cell_length_c                   24.5750(11)
_cell_angle_alpha                90
_cell_angle_beta                 101.457(1)
_cell_angle_gamma                90
_cell_volume                     1588.88
_exptl_crystal_colour            colorless
_exptl_crystal_description       lathe
_cell_formula_units_Z            4
loop_
_atom_site_label
_atom_site_type_symbol
_atom_site_fract_x
_atom_site_fract_y
_atom_site_fract_z
O1 O 0.48950(10) -0.42172(14) 0.25303(4)
O2 O 0.57859(8) 0.03475(12) 0.22106(3)
O3 O 0.24700(9) -0.01437(13) 0.01551(4)
O4 O 0.42037(9) 0.23928(13) -0.01146(3)
H1 H 0.4030 0.1166 -0.0191
O5 O 0.55556(8) 0.11560(12) 0.09427(3)
O6 O 0.74221(8) 0.27764(13) 0.14007(4)
C1 C 0.52484(11) -0.25418(18) 0.24359(5)
C2 C 0.46688(11) -0.03937(17) 0.24665(5)
C3 C 0.47857(12) 0.04312(19) 0.30489(5)
H2 H 0.5694 0.0130 0.3267
H3 H 0.4094 -0.0206 0.3224
H4 H 0.4645 0.1904 0.3033
C4 C 0.32836(11) 0.00651(19) 0.21056(5)
H5 H 0.3233 0.1541 0.2028
H6 H 0.2575 -0.0257 0.2322
C5 C 0.29377(11) -0.10571(18) 0.15543(5)
H7 H 0.2858 -0.2526 0.1626
H8 H 0.3689 -0.0872 0.1351
C6 C 0.16030(11) -0.03058(18) 0.11905(5)
H9 H 0.1253 -0.1361 0.0912
H10 H 0.0919 -0.0112 0.1427
C7 C 0.17630(10) 0.16904(17) 0.08883(5)
H11 H 0.2217 0.2718 0.1164
C8 C 0.03545(12) 0.24956(19) 0.05997(5)
H12 H 0.0465 0.3797 0.0420
H13 H -0.0218 0.2686 0.0876
H14 H -0.0078 0.1516 0.0319
C9 C 0.26320(11) 0.13472(16) 0.04530(5)
C10 C 0.36844(11) 0.29376(16) 0.03621(5)
C11 C 0.30220(12) 0.50361(17) 0.02607(5)
H15 H 0.3706 0.6027 0.0198
H16 H 0.2655 0.5441 0.0586
H17 H 0.2282 0.4982 -0.0066
C12 C 0.48762(11) 0.30944(16) 0.08574(5)
H18 H 0.5524 0.4148 0.0785
H19 H 0.4536 0.3486 0.1194
C13 C 0.68377(10) 0.12171(17) 0.12513(4)
C14 C 0.74444(11) -0.08721(17) 0.13695(5)
H20 H 0.8342 -0.0739 0.1623
H21 H 0.7600 -0.1468 0.1018
C15 C 0.65601(11) -0.23335(17) 0.16302(5)
H22 H 0.5644 -0.2419 0.1389
H23 H 0.6971 -0.3705 0.1654
C16 C 0.64228(11) -0.16532(17) 0.22051(5)
H24 H 0.7307 -0.1742 0.2478
loop_
_geom_bond_atom_site_label_1
_geom_bond_atom_site_label_2
_geom_bond_site_symmetry_1
_geom_bond_site_symmetry_2
O1 C1 1_555 1_555
O2 C2 1_555 1_555
O3 C9 1_555 1_555
O4 H1 1_555 1_555
O5 C12 1_555 1_555
O6 C13 1_555 1_555
C1 C2 1_555 1_555
C2 C3 1_555 1_555
C3 H2 1_555 1_555
H3 C3 1_555 1_555
H4 C3 1_555 1_555
C4 C2 1_555 1_555
H5 C4 1_555 1_555
H6 C4 1_555 1_555
C5 C4 1_555 1_555
H7 C5 1_555 1_555
H8 C5 1_555 1_555
C6 C5 1_555 1_555
H9 C6 1_555 1_555
H10 C6 1_555 1_555
C7 C6 1_555 1_555
H11 C7 1_555 1_555
C8 C7 1_555 1_555
H12 C8 1_555 1_555
H13 C8 1_555 1_555
H14 C8 1_555 1_555
C9 C7 1_555 1_555
C10 O4 1_555 1_555
C11 C10 1_555 1_555
H15 C11 1_555 1_555
H16 C11 1_555 1_555
H17 C11 1_555 1_555
C12 C10 1_555 1_555
H18 C12 1_555 1_555
H19 C12 1_555 1_555
C13 O5 1_555 1_555
C14 C13 1_555 1_555
H20 C14 1_555 1_555
H21 C14 1_555 1_555
C15 C14 1_555 1_555
H22 C15 1_555 1_555
H23 C15 1_555 1_555
C16 O2 1_555 1_555
H24 C16 1_555 1_555
C1 C16 1_555 1_555
C9 C10 1_555 1_555
C15 C16 1_555 1_555

#END
