
#######################################################################
#
#                 Cambridge Crystallographic Data Centre
#                                CCDC 
#
#######################################################################
#
# If this CIF has been generated from an entry in the Cambridge 
# Structural Database, then it will include bibliographic, chemical, 
# crystal, experimental, refinement or atomic coordinate data resulting 
# from the CCDC's data processing and validation procedures.
#
#######################################################################

data_MUDNIJ
_chemical_formula_moiety         'C27 H23 N1 O4 S1'
_chemical_name_systematic        
'Ethyl 2-(biphenyl-4-yl)-2-(2-naphthylsulfanyl)-3-nitropropanoate'
_symmetry_cell_setting           monoclinic
_symmetry_space_group_name_H-M   'P 21'
_symmetry_Int_Tables_number      4
_space_group_name_Hall           'P 2yb'
loop_
_symmetry_equiv_pos_site_id
_symmetry_equiv_pos_as_xyz
1 x,y,z
2 -x,1/2+y,-z
_cell_length_a                   12.7746(9)
_cell_length_b                   5.8697(4)
_cell_length_c                   16.0370(11)
_cell_angle_alpha                90
_cell_angle_beta                 102.412(4)
_cell_angle_gamma                90
_cell_volume                     1174.4
_exptl_crystal_colour            colorless
_exptl_crystal_description       block
_cell_formula_units_Z            2
loop_
_atom_site_label
_atom_site_type_symbol
_atom_site_fract_x
_atom_site_fract_y
_atom_site_fract_z
C1 C 0.5883(2) 0.3954(6) -0.06330(17)
H1 H 0.5587 0.5147 -0.0380
C2 C 0.5739(2) 0.3899(7) -0.15117(18)
H2 H 0.5351 0.5050 -0.1838
C3 C 0.6151(3) 0.2213(7) -0.18971(19)
H3 H 0.6048 0.2178 -0.2489
C4 C 0.6724(4) 0.0544(7) -0.1412(2)
H4 H 0.7023 -0.0626 -0.1676
C5 C 0.6866(3) 0.0571(6) -0.05373(19)
H5 H 0.7249 -0.0602 -0.0220
C6 C 0.64554(16) 0.2289(4) -0.01205(15)
C7 C 0.66164(15) 0.2343(4) 0.08263(14)
C8 C 0.62965(19) 0.4216(4) 0.12470(15)
H6 H 0.5964 0.5438 0.0927
C9 C 0.64608(18) 0.4297(4) 0.21213(15)
H7 H 0.6239 0.5577 0.2379
C10 C 0.69463(15) 0.2528(3) 0.26285(13)
C11 C 0.72470(19) 0.0654(4) 0.22169(15)
H8 H 0.7561 -0.0585 0.2537
C12 C 0.70902(19) 0.0583(4) 0.13395(16)
H9 H 0.7313 -0.0700 0.1085
C13 C 0.71964(15) 0.2805(3) 0.35925(13)
C14 C 0.62454(18) 0.3972(4) 0.38672(14)
C15 C 0.44694(17) 0.3370(5) 0.40296(15)
H10 H 0.4286 0.4910 0.3832
H11 H 0.4608 0.3362 0.4648
C16 C 0.3575(2) 0.1784(7) 0.36733(19)
H12 H 0.3393 0.1931 0.3063
H13 H 0.2962 0.2152 0.3904
H14 H 0.3794 0.0247 0.3823
C17 C 0.74210(19) 0.0522(4) 0.40540(14)
H15 H 0.6789 -0.0436 0.3907
H16 H 0.8002 -0.0243 0.3864
C18 C 0.92657(16) 0.3357(4) 0.33660(15)
C19 C 0.93353(17) 0.4102(4) 0.25781(17)
H17 H 0.8957 0.5397 0.2354
C20 C 0.99762(18) 0.2938(5) 0.20866(17)
C21 C 1.0020(2) 0.3636(7) 0.1261(2)
H18 H 0.9649 0.4929 0.1027
C22 C 1.0608(3) 0.2420(9) 0.0797(2)
H19 H 1.0628 0.2870 0.0244
C23 C 1.1179(3) 0.0497(9) 0.1153(3)
H20 H 1.1585 -0.0302 0.0834
C24 C 1.1160(2) -0.0221(8) 0.1937(2)
H21 H 1.1548 -0.1510 0.2154
C25 C 1.05421(18) 0.0985(5) 0.2453(2)
C26 C 1.0497(2) 0.0297(5) 0.3272(2)
H22 H 1.0892 -0.0960 0.3514
C27 C 0.98816(18) 0.1444(5) 0.37224(18)
H23 H 0.9862 0.0970 0.4272
N1 N 0.77151(18) 0.0823(4) 0.49978(13)
O1 O 0.62531(15) 0.5886(3) 0.41304(12)
O2 O 0.54136(11) 0.2592(3) 0.37380(10)
O3 O 0.71101(16) 0.1889(4) 0.53386(12)
O4 O 0.8536(2) -0.0040(6) 0.53800(13)
S1 S 0.83750(4) 0.47356(10) 0.39173(3)
loop_
_geom_bond_atom_site_label_1
_geom_bond_atom_site_label_2
_geom_bond_site_symmetry_1
_geom_bond_site_symmetry_2
C1 H1 1_555 1_555
C2 C1 1_555 1_555
H2 C2 1_555 1_555
C3 C2 1_555 1_555
H3 C3 1_555 1_555
C4 C3 1_555 1_555
H4 C4 1_555 1_555
C5 C4 1_555 1_555
H5 C5 1_555 1_555
C6 C1 1_555 1_555
C7 C6 1_555 1_555
C8 C7 1_555 1_555
H6 C8 1_555 1_555
C9 C8 1_555 1_555
H7 C9 1_555 1_555
C10 C9 1_555 1_555
C11 C10 1_555 1_555
H8 C11 1_555 1_555
C12 C7 1_555 1_555
H9 C12 1_555 1_555
C13 C10 1_555 1_555
C14 C13 1_555 1_555
C15 H10 1_555 1_555
H11 C15 1_555 1_555
C16 C15 1_555 1_555
H12 C16 1_555 1_555
H13 C16 1_555 1_555
H14 C16 1_555 1_555
C17 C13 1_555 1_555
H15 C17 1_555 1_555
H16 C17 1_555 1_555
C18 C19 1_555 1_555
C19 H17 1_555 1_555
C20 C19 1_555 1_555
C21 C20 1_555 1_555
H18 C21 1_555 1_555
C22 C21 1_555 1_555
H19 C22 1_555 1_555
C23 C22 1_555 1_555
H20 C23 1_555 1_555
C24 C23 1_555 1_555
H21 C24 1_555 1_555
C25 C20 1_555 1_555
C26 C25 1_555 1_555
H22 C26 1_555 1_555
C27 C18 1_555 1_555
H23 C27 1_555 1_555
N1 C17 1_555 1_555
O1 C14 1_555 1_555
O2 C14 1_555 1_555
O3 N1 1_555 1_555
O4 N1 1_555 1_555
S1 C13 1_555 1_555
C5 C6 1_555 1_555
C11 C12 1_555 1_555
C15 O2 1_555 1_555
C18 S1 1_555 1_555
C24 C25 1_555 1_555
C26 C27 1_555 1_555

#END
