
#######################################################################
#
#                 Cambridge Crystallographic Data Centre
#                                CCDC 
#
#######################################################################
#
# If this CIF has been generated from an entry in the Cambridge 
# Structural Database, then it will include bibliographic, chemical, 
# crystal, experimental, refinement or atomic coordinate data resulting 
# from the CCDC's data processing and validation procedures.
#
#######################################################################

data_MUDPOR
_chemical_formula_moiety         'C33 H24 O1'
_chemical_name_systematic        
3-(2,4,6-Triphenylphenyl)-1-phenylprop-2-en-1-one
_symmetry_cell_setting           orthorhombic
_symmetry_space_group_name_H-M   'P 21 21 21'
_symmetry_Int_Tables_number      19
_space_group_name_Hall           'P 2ac 2ab'
loop_
_symmetry_equiv_pos_site_id
_symmetry_equiv_pos_as_xyz
1 x,y,z
2 1/2-x,-y,1/2+z
3 -x,1/2+y,1/2-z
4 1/2+x,1/2-y,-z
_cell_length_a                   10.4248(11)
_cell_length_b                   11.0694(12)
_cell_length_c                   20.658(2)
_cell_angle_alpha                90
_cell_angle_beta                 90
_cell_angle_gamma                90
_cell_volume                     2383.86
_exptl_crystal_colour            yellow
_exptl_crystal_description       prismatic
_cell_formula_units_Z            4
loop_
_atom_site_label
_atom_site_type_symbol
_atom_site_fract_x
_atom_site_fract_y
_atom_site_fract_z
O1 O 0.37524(18) 0.81498(16) 0.22533(10)
C1 C 0.2900(2) 0.8861(2) 0.21293(11)
C2 C 0.3008(2) 1.0153(2) 0.22947(10)
H1 H 0.2362 1.0669 0.2153
C3 C 0.3964(2) 1.0623(2) 0.26315(10)
H2 H 0.3900 1.1442 0.2726
C4 C 0.5124(2) 1.0002(2) 0.28771(10)
C5 C 0.6089(2) 0.9633(2) 0.24552(9)
C6 C 0.7131(2) 0.8993(2) 0.26928(9)
H3 H 0.7753 0.8720 0.2405
C7 C 0.7275(2) 0.8747(2) 0.33503(9)
C8 C 0.6336(2) 0.9182(2) 0.37624(10)
H4 H 0.6430 0.9062 0.4205
C9 C 0.5260(2) 0.9790(2) 0.35391(10)
C10 C 0.1697(2) 0.8397(2) 0.18315(10)
C11 C 0.0687(2) 0.9132(2) 0.16529(10)
H5 H 0.0754 0.9964 0.1707
C12 C -0.0420(2) 0.8644(3) 0.13948(12)
H6 H -0.1089 0.9149 0.1270
C13 C -0.0533(3) 0.7430(3) 0.13227(15)
H7 H -0.1289 0.7103 0.1160
C14 C 0.0470(3) 0.6683(3) 0.14900(17)
H8 H 0.0396 0.5852 0.1435
C15 C 0.1580(3) 0.7168(3) 0.17379(14)
H9 H 0.2260 0.6661 0.1844
C16 C 0.60322(19) 0.9912(2) 0.17471(9)
C17 C 0.6159(2) 0.9018(2) 0.12913(10)
H10 H 0.6253 0.8220 0.1423
C18 C 0.6148(3) 0.9289(2) 0.06397(11)
H11 H 0.6248 0.8675 0.0337
C19 C 0.5990(2) 1.0458(2) 0.04368(11)
H12 H 0.5979 1.0641 -0.0003
C20 C 0.5849(3) 1.1353(2) 0.08866(12)
H13 H 0.5735 1.2147 0.0752
C21 C 0.5876(2) 1.1088(2) 0.15365(10)
H14 H 0.5788 1.1707 0.1838
C22 C 0.8389(2) 0.8059(2) 0.35950(9)
C23 C 0.9553(2) 0.8064(2) 0.32775(12)
H15 H 0.9637 0.8505 0.2897
C24 C 1.0592(2) 0.7435(3) 0.35101(13)
H16 H 1.1361 0.7441 0.3282
C25 C 1.0500(2) 0.6799(2) 0.40784(12)
H17 H 1.1211 0.6395 0.4243
C26 C 0.9365(2) 0.6764(2) 0.43973(11)
H18 H 0.9296 0.6323 0.4779
C27 C 0.8304(2) 0.7378(2) 0.41607(10)
H19 H 0.7528 0.7335 0.4382
C28 C 0.4254(2) 1.0149(2) 0.40123(10)
C29 C 0.4494(3) 1.0967(2) 0.45043(10)
H20 H 0.5287 1.1349 0.4528
C30 C 0.3554(3) 1.1222(3) 0.49643(11)
H21 H 0.3723 1.1775 0.5293
C31 C 0.2391(3) 1.0667(3) 0.49349(13)
H22 H 0.1768 1.0834 0.5244
C32 C 0.2143(3) 0.9865(3) 0.44516(13)
H23 H 0.1350 0.9484 0.4433
C33 C 0.3055(2) 0.9616(2) 0.39916(12)
H24 H 0.2863 0.9078 0.3660
loop_
_geom_bond_atom_site_label_1
_geom_bond_atom_site_label_2
_geom_bond_site_symmetry_1
_geom_bond_site_symmetry_2
O1 C1 1_555 1_555
C1 C2 1_555 1_555
C2 H1 1_555 1_555
C3 C2 1_555 1_555
H2 C3 1_555 1_555
C4 C3 1_555 1_555
C5 C4 1_555 1_555
C6 C5 1_555 1_555
H3 C6 1_555 1_555
C7 C6 1_555 1_555
C8 C7 1_555 1_555
H4 C8 1_555 1_555
C9 C4 1_555 1_555
C10 C1 1_555 1_555
C11 C10 1_555 1_555
H5 C11 1_555 1_555
C12 C11 1_555 1_555
H6 C12 1_555 1_555
C13 C12 1_555 1_555
H7 C13 1_555 1_555
C14 C13 1_555 1_555
H8 C14 1_555 1_555
C15 C10 1_555 1_555
H9 C15 1_555 1_555
C16 C5 1_555 1_555
C17 C16 1_555 1_555
H10 C17 1_555 1_555
C18 C17 1_555 1_555
H11 C18 1_555 1_555
C19 C18 1_555 1_555
H12 C19 1_555 1_555
C20 C19 1_555 1_555
H13 C20 1_555 1_555
C21 C16 1_555 1_555
H14 C21 1_555 1_555
C22 C7 1_555 1_555
C23 C22 1_555 1_555
H15 C23 1_555 1_555
C24 C23 1_555 1_555
H16 C24 1_555 1_555
C25 C24 1_555 1_555
H17 C25 1_555 1_555
C26 C25 1_555 1_555
H18 C26 1_555 1_555
C27 C22 1_555 1_555
H19 C27 1_555 1_555
C28 C9 1_555 1_555
C29 C28 1_555 1_555
H20 C29 1_555 1_555
C30 C29 1_555 1_555
H21 C30 1_555 1_555
C31 C30 1_555 1_555
H22 C31 1_555 1_555
C32 C31 1_555 1_555
H23 C32 1_555 1_555
C33 C28 1_555 1_555
H24 C33 1_555 1_555
C8 C9 1_555 1_555
C14 C15 1_555 1_555
C20 C21 1_555 1_555
C26 C27 1_555 1_555
C32 C33 1_555 1_555

#END
