
#######################################################################
#
#                 Cambridge Crystallographic Data Centre
#                                CCDC 
#
#######################################################################
#
# If this CIF has been generated from an entry in the Cambridge 
# Structural Database, then it will include bibliographic, chemical, 
# crystal, experimental, refinement or atomic coordinate data resulting 
# from the CCDC's data processing and validation procedures.
#
#######################################################################

data_MUDZOC
_chemical_formula_moiety         'C40 H40 N6,0.5(C6 H14)'
_chemical_name_systematic        
'(2,3,4,5-tetrakis(4-(dimethylamino)phenyl)cyclopenta-2,4-dien-1-ylidene)malononitrile n-hexane solvate'
_symmetry_cell_setting           monoclinic
_symmetry_space_group_name_H-M   'P 21/c'
_symmetry_Int_Tables_number      14
_space_group_name_Hall           '-P 2ybc'
loop_
_symmetry_equiv_pos_site_id
_symmetry_equiv_pos_as_xyz
1 x,y,z
2 -x,1/2+y,1/2-z
3 -x,-y,-z
4 x,1/2-y,1/2+z
_cell_length_a                   9.579(2)
_cell_length_b                   14.953(3)
_cell_length_c                   24.780(5)
_cell_angle_alpha                90
_cell_angle_beta                 94.013(6)
_cell_angle_gamma                90
_cell_volume                     3540.66
_exptl_crystal_colour            black
_exptl_crystal_description       needle
_cell_formula_units_Z            4
loop_
_atom_site_label
_atom_site_type_symbol
_atom_site_fract_x
_atom_site_fract_y
_atom_site_fract_z
N1 N 0.2301(10) 0.7250(5) 0.1441(3)
N2 N 0.2661(10) 0.7269(6) -0.0174(3)
N3 N 0.2819(8) 0.8686(5) 0.3298(3)
N4 N 0.2203(9) 1.3908(5) 0.2136(3)
N5 N 0.2849(9) 1.3289(5) -0.1351(3)
N6 N 0.2347(8) 0.8667(5) -0.2051(3)
C1 C 0.2471(11) 0.9241(6) 0.0636(4)
C2 C 0.2542(11) 0.9842(7) 0.1093(4)
C3 C 0.2553(10) 1.0700(7) 0.0918(4)
C4 C 0.2518(11) 1.0674(6) 0.0304(4)
C5 C 0.2500(10) 0.9799(6) 0.0145(4)
C6 C 0.2473(11) 0.8321(6) 0.0633(4)
C7 C 0.2411(11) 0.7773(6) 0.1110(4)
C8 C 0.2551(12) 0.7790(7) 0.0165(4)
C9 C 0.2566(11) 0.9510(6) 0.1659(4)
C10 C 0.3831(11) 0.9245(6) 0.1923(4)
H1 H 0.4759 0.9238 0.1699
C11 C 0.3942(10) 0.8988(6) 0.2466(4)
H2 H 0.4952 0.8814 0.2658
C12 C 0.2735(10) 0.8953(6) 0.2766(4)
C13 C 0.1441(10) 0.9210(6) 0.2499(4)
H3 H 0.0497 0.9191 0.2713
C14 C 0.1382(11) 0.9489(6) 0.1954(4)
H4 H 0.0388 0.9694 0.1760
C15 C 0.4178(11) 0.8538(7) 0.3593(4)
H5 H 0.4714 0.7986 0.3409
H6 H 0.4020 0.8377 0.4013
H7 H 0.4810 0.9143 0.3576
C16 C 0.1604(10) 0.8781(7) 0.3618(4)
H8 H 0.1317 0.9485 0.3639
H9 H 0.1860 0.8527 0.4026
H10 H 0.0729 0.8402 0.3429
C17 C 0.2504(10) 1.1527(6) 0.1226(4)
C18 C 0.2802(10) 1.1545(7) 0.1799(4)
H11 H 0.3128 1.0936 0.2005
C19 C 0.2687(11) 1.2310(7) 0.2092(4)
H12 H 0.2889 1.2291 0.2526
C20 C 0.2306(11) 1.3133(7) 0.1834(4)
C21 C 0.2004(11) 1.3126(7) 0.1274(4)
H13 H 0.1681 1.3736 0.1068
C22 C 0.2115(10) 1.2346(6) 0.0981(4)
H14 H 0.1894 1.2367 0.0547
C23 C 0.2305(12) 1.3878(7) 0.2728(4)
H15 H 0.1481 1.3450 0.2866
H16 H 0.2188 1.4551 0.2887
H17 H 0.3323 1.3611 0.2871
C24 C 0.2017(12) 1.4783(6) 0.1870(4)
H18 H 0.2829 1.4878 0.1589
H19 H 0.2093 1.5310 0.2175
H20 H 0.0992 1.4811 0.1650
C25 C 0.2607(11) 1.1387(6) -0.0099(3)
C26 C 0.3754(11) 1.1970(6) -0.0118(4)
H21 H 0.4591 1.1925 0.0196
C27 C 0.3856(10) 1.2598(7) -0.0523(4)
H22 H 0.4765 1.3025 -0.0524
C28 C 0.2778(11) 1.2678(7) -0.0931(4)
C29 C 0.1574(11) 1.2145(6) -0.0901(4)
H23 H 0.0695 1.2242 -0.1192
C30 C 0.1497(11) 1.1502(6) -0.0505(4)
H24 H 0.0583 1.1079 -0.0504
C31 C 0.4031(12) 1.3903(7) -0.1352(4)
H25 H 0.4039 1.4334 -0.0997
H26 H 0.3934 1.4312 -0.1717
H27 H 0.5003 1.3523 -0.1342
C32 C 0.1543(11) 1.3596(7) -0.1641(4)
H28 H 0.1013 1.3030 -0.1842
H29 H 0.1784 1.4095 -0.1941
H30 H 0.0865 1.3891 -0.1354
C33 C 0.2455(12) 0.9471(6) -0.0428(4)
C34 C 0.3661(11) 0.9484(6) -0.0713(4)
H31 H 0.4637 0.9709 -0.0514
C35 C 0.3620(10) 0.9215(6) -0.1246(4)
H32 H 0.4561 0.9246 -0.1461
C36 C 0.2412(11) 0.8910(6) -0.1505(4)
C37 C 0.1178(11) 0.8859(6) -0.1225(4)
H33 H 0.0214 0.8609 -0.1422
C38 C 0.1241(11) 0.9140(6) -0.0694(4)
H34 H 0.0306 0.9102 -0.0475
C39 C 0.3635(10) 0.8525(7) -0.2312(4)
H35 H 0.4218 0.9151 -0.2318
H36 H 0.3392 0.8296 -0.2725
H37 H 0.4264 0.8022 -0.2089
C40 C 0.1064(10) 0.8279(6) -0.2306(4)
H38 H 0.0873 0.7632 -0.2123
H39 H 0.1176 0.8194 -0.2737
H40 H 0.0186 0.8724 -0.2247
C41 C 0.320(2) 1.4899(11) 0.0229(8)
H41 H 0.3449 1.5567 0.0088
H42 H 0.4003 1.4431 0.0117
H43 H 0.3159 1.4907 0.0667
C42 C 0.176(2) 1.4604(11) -0.0037(6)
H44 H 0.1750 1.4683 -0.0475
H45 H 0.1584 1.3900 0.0050
C43 C 0.0660(14) 1.5126(11) 0.0163(7)
H46 H 0.0876 1.5836 0.0118
H47 H 0.0561 1.4984 0.0590
C41B C -0.320(2) 1.5101(11) -0.0229(8)
H41B H -0.3449 1.4433 -0.0088
H42B H -0.4003 1.5569 -0.0117
H43B H -0.3159 1.5093 -0.0667
C42B C -0.176(2) 1.5396(11) 0.0037(6)
H44B H -0.1750 1.5317 0.0475
H45B H -0.1584 1.6100 -0.0050
C43B C -0.0660(14) 1.4874(11) -0.0163(7)
H46B H -0.0876 1.4164 -0.0118
H47B H -0.0561 1.5016 -0.0590
loop_
_geom_bond_atom_site_label_1
_geom_bond_atom_site_label_2
_geom_bond_site_symmetry_1
_geom_bond_site_symmetry_2
N1 C7 1_555 1_555
N2 C8 1_555 1_555
N3 C12 1_555 1_555
N4 C20 1_555 1_555
N5 C28 1_555 1_555
N6 C36 1_555 1_555
C1 C2 1_555 1_555
C2 C3 1_555 1_555
C3 C4 1_555 1_555
C4 C5 1_555 1_555
C5 C1 1_555 1_555
C6 C1 1_555 1_555
C7 C6 1_555 1_555
C8 C6 1_555 1_555
C9 C2 1_555 1_555
C10 C9 1_555 1_555
H1 C10 1_555 1_555
C11 C10 1_555 1_555
H2 C11 1_555 1_555
C12 C11 1_555 1_555
C13 C12 1_555 1_555
H3 C13 1_555 1_555
C14 C9 1_555 1_555
H4 C14 1_555 1_555
C15 N3 1_555 1_555
H5 C15 1_555 1_555
H6 C15 1_555 1_555
H7 C15 1_555 1_555
C16 N3 1_555 1_555
H8 C16 1_555 1_555
H9 C16 1_555 1_555
H10 C16 1_555 1_555
C17 C3 1_555 1_555
C18 C17 1_555 1_555
H11 C18 1_555 1_555
C19 C18 1_555 1_555
H12 C19 1_555 1_555
C20 C19 1_555 1_555
C21 C20 1_555 1_555
H13 C21 1_555 1_555
C22 C17 1_555 1_555
H14 C22 1_555 1_555
C23 N4 1_555 1_555
H15 C23 1_555 1_555
H16 C23 1_555 1_555
H17 C23 1_555 1_555
C24 N4 1_555 1_555
H18 C24 1_555 1_555
H19 C24 1_555 1_555
H20 C24 1_555 1_555
C25 C4 1_555 1_555
C26 C25 1_555 1_555
H21 C26 1_555 1_555
C27 C26 1_555 1_555
H22 C27 1_555 1_555
C28 C27 1_555 1_555
C29 C28 1_555 1_555
H23 C29 1_555 1_555
C30 C25 1_555 1_555
H24 C30 1_555 1_555
C31 N5 1_555 1_555
H25 C31 1_555 1_555
H26 C31 1_555 1_555
H27 C31 1_555 1_555
C32 N5 1_555 1_555
H28 C32 1_555 1_555
H29 C32 1_555 1_555
H30 C32 1_555 1_555
C33 C5 1_555 1_555
C34 C33 1_555 1_555
H31 C34 1_555 1_555
C35 C34 1_555 1_555
H32 C35 1_555 1_555
C36 C35 1_555 1_555
C37 C36 1_555 1_555
H33 C37 1_555 1_555
C38 C33 1_555 1_555
H34 C38 1_555 1_555
C39 N6 1_555 1_555
H35 C39 1_555 1_555
H36 C39 1_555 1_555
H37 C39 1_555 1_555
C40 N6 1_555 1_555
H38 C40 1_555 1_555
H39 C40 1_555 1_555
H40 C40 1_555 1_555
C41 H41 1_555 1_555
H42 C41 1_555 1_555
H43 C41 1_555 1_555
C42 C41 1_555 1_555
H44 C42 1_555 1_555
H45 C42 1_555 1_555
C43 C42 1_555 1_555
H46 C43 1_555 1_555
H47 C43 1_555 1_555
C41B H41B 1_555 1_555
H42B C41B 1_555 1_555
H43B C41B 1_555 1_555
C42B C41B 1_555 1_555
H44B C42B 1_555 1_555
H45B C42B 1_555 1_555
C43B C43 1_555 1_555
H46B C43B 1_555 1_555
H47B C43B 1_555 1_555
C13 C14 1_555 1_555
C21 C22 1_555 1_555
C29 C30 1_555 1_555
C37 C38 1_555 1_555
C42B C43B 1_555 1_555

#END
