
#######################################################################
#
#                 Cambridge Crystallographic Data Centre
#                                CCDC 
#
#######################################################################
#
# If this CIF has been generated from an entry in the Cambridge 
# Structural Database, then it will include bibliographic, chemical, 
# crystal, experimental, refinement or atomic coordinate data resulting 
# from the CCDC's data processing and validation procedures.
#
#######################################################################

data_MUFCEW
_chemical_formula_moiety         'C23 H21 Br1 N2 O4 S1'
_chemical_name_systematic        
N-(1-(4-Bromophenyl)-2-nitro-3-phenylbut-3-en-1-yl)-4-methylbenzenesulfonamide
_symmetry_cell_setting           orthorhombic
_symmetry_space_group_name_H-M   'P 21 21 21'
_symmetry_Int_Tables_number      19
_space_group_name_Hall           'P 2ac 2ab'
loop_
_symmetry_equiv_pos_site_id
_symmetry_equiv_pos_as_xyz
1 x,y,z
2 1/2-x,-y,1/2+z
3 -x,1/2+y,1/2-z
4 1/2+x,1/2-y,-z
_cell_length_a                   9.951(2)
_cell_length_b                   10.141(2)
_cell_length_c                   22.100(5)
_cell_angle_alpha                90
_cell_angle_beta                 90
_cell_angle_gamma                90
_cell_volume                     2230.18
_exptl_crystal_colour            colorless
_exptl_crystal_description       block
_cell_formula_units_Z            4
loop_
_atom_site_label
_atom_site_type_symbol
_atom_site_fract_x
_atom_site_fract_y
_atom_site_fract_z
Br1 Br 0.89463(4) 0.39825(3) 1.130411(16)
C1 C 1.0524(4) 0.2256(3) 0.80671(14)
H1 H 1.0801 0.1558 0.7824
C2 C 1.0987(5) 0.3536(4) 0.79495(16)
H2 H 1.1564 0.3691 0.7626
C3 C 1.0584(4) 0.4562(4) 0.8314(2)
H3 H 1.0866 0.5417 0.8228
C4 C 0.9777(4) 0.4333(3) 0.8797(2)
H4 H 0.9545 0.5024 0.9053
C5 C 0.9296(3) 0.3072(3) 0.89107(17)
H5 H 0.8723 0.2927 0.9237
C6 C 0.9663(3) 0.2032(3) 0.85421(13)
C7 C 0.9116(3) 0.0682(2) 0.86527(12)
C8 C 0.7864(3) 0.0379(3) 0.85194(13)
H6 H 0.7299 0.1012 0.8353
H7 H 0.7545 -0.0468 0.8592
C9 C 1.0058(3) -0.0307(2) 0.89487(12)
H8 H 1.0938 0.0112 0.8999
C10 C 0.9566(3) -0.0759(2) 0.95726(12)
H9 H 0.8666 -0.1135 0.9519
C11 C 0.9434(3) 0.0417(2) 0.99908(12)
C12 C 1.0545(3) 0.1106(3) 1.01920(13)
H10 H 1.1396 0.0841 1.0067
C13 C 1.0423(3) 0.2179(3) 1.05743(13)
H11 H 1.1177 0.2642 1.0703
C14 C 0.9153(3) 0.2547(3) 1.07604(12)
C15 C 0.8034(3) 0.1873(3) 1.05755(13)
H12 H 0.7186 0.2124 1.0709
C16 C 0.8183(3) 0.0814(3) 1.01869(12)
H13 H 0.7424 0.0361 1.0056
C17 C 1.0130(3) -0.1806(3) 1.10187(13)
C18 C 1.1392(3) -0.1484(4) 1.12184(15)
H14 H 1.2145 -0.1858 1.1037
C19 C 1.1542(4) -0.0601(4) 1.16899(17)
H15 H 1.2401 -0.0393 1.1826
C20 C 1.0446(4) -0.0023(3) 1.19635(16)
C21 C 0.9196(4) -0.0431(4) 1.17767(16)
H16 H 0.8441 -0.0105 1.1975
C22 C 0.9022(3) -0.1302(3) 1.13075(15)
H17 H 0.8163 -0.1548 1.1187
C23 C 1.0604(5) 0.1043(4) 1.24340(16)
H18 H 1.0501 0.1891 1.2247
H19 H 1.1481 0.0982 1.2613
H20 H 0.9932 0.0935 1.2741
N1 N 1.0231(3) -0.1509(2) 0.85488(10)
O1 O 1.1295(3) -0.1624(2) 0.82817(11)
O2 O 0.9314(2) -0.22916(19) 0.85064(9)
O3 O 0.8600(2) -0.30598(18) 1.02569(9)
O4 O 1.0957(2) -0.37852(18) 1.03785(9)
N2 N 1.0451(3) -0.1823(2) 0.97911(12)
S1 S 0.99848(8) -0.27564(7) 1.03524(4)
H21 H 1.124(3) -0.171(3) 0.9814(13)
loop_
_geom_bond_atom_site_label_1
_geom_bond_atom_site_label_2
_geom_bond_site_symmetry_1
_geom_bond_site_symmetry_2
Br1 C14 1_555 1_555
C1 H1 1_555 1_555
C2 C1 1_555 1_555
H2 C2 1_555 1_555
C3 C2 1_555 1_555
H3 C3 1_555 1_555
C4 C3 1_555 1_555
H4 C4 1_555 1_555
C5 C4 1_555 1_555
H5 C5 1_555 1_555
C6 C1 1_555 1_555
C7 C6 1_555 1_555
C8 C7 1_555 1_555
H6 C8 1_555 1_555
H7 C8 1_555 1_555
C9 C7 1_555 1_555
H8 C9 1_555 1_555
C10 C9 1_555 1_555
H9 C10 1_555 1_555
C11 C10 1_555 1_555
C12 C11 1_555 1_555
H10 C12 1_555 1_555
C13 C12 1_555 1_555
H11 C13 1_555 1_555
C14 C13 1_555 1_555
C15 C14 1_555 1_555
H12 C15 1_555 1_555
C16 C11 1_555 1_555
H13 C16 1_555 1_555
C17 C18 1_555 1_555
C18 H14 1_555 1_555
C19 C18 1_555 1_555
H15 C19 1_555 1_555
C20 C19 1_555 1_555
C21 C20 1_555 1_555
H16 C21 1_555 1_555
C22 C17 1_555 1_555
H17 C22 1_555 1_555
C23 C20 1_555 1_555
H18 C23 1_555 1_555
H19 C23 1_555 1_555
H20 C23 1_555 1_555
N1 C9 1_555 1_555
O1 N1 1_555 1_555
O2 N1 1_555 1_555
O3 S1 1_555 1_555
O4 S1 1_555 1_555
N2 C10 1_555 1_555
S1 C17 1_555 1_555
H21 N2 1_555 1_555
C5 C6 1_555 1_555
C15 C16 1_555 1_555
C21 C22 1_555 1_555
N2 S1 1_555 1_555

#END
