
#######################################################################
#
#                 Cambridge Crystallographic Data Centre
#                                CCDC 
#
#######################################################################
#
# If this CIF has been generated from an entry in the Cambridge 
# Structural Database, then it will include bibliographic, chemical, 
# crystal, experimental, refinement or atomic coordinate data resulting 
# from the CCDC's data processing and validation procedures.
#
#######################################################################

data_MUFFOK
_chemical_formula_moiety         'C9 H10 N4,1.5(H2 O1)'
_chemical_name_systematic        
'4-(4,5-Dimethyl-4H-1,2,4-triazol-3-yl)pyridine sesquihydrate'
_symmetry_cell_setting           triclinic
_symmetry_space_group_name_H-M   'P -1'
_symmetry_Int_Tables_number      2
_space_group_name_Hall           '-P 1'
loop_
_symmetry_equiv_pos_site_id
_symmetry_equiv_pos_as_xyz
1 x,y,z
2 -x,-y,-z
_cell_length_a                   7.538(4)
_cell_length_b                   12.199(7)
_cell_length_c                   12.716(8)
_cell_angle_alpha                113.300(7)
_cell_angle_beta                 98.343(7)
_cell_angle_gamma                94.139(7)
_cell_volume                     1051.73
_exptl_crystal_colour            colorless
_exptl_crystal_description       disc
_cell_formula_units_Z            4
loop_
_atom_site_label
_atom_site_type_symbol
_atom_site_fract_x
_atom_site_fract_y
_atom_site_fract_z
C1 C 0.5582(3) 0.01430(19) 0.66856(17)
H1 H 0.5862 -0.0666 0.6373
H2 H 0.6273 0.0626 0.6405
H3 H 0.4313 0.0136 0.6442
N1 N 0.6575(2) 0.00577(13) 0.85947(15)
C2 C 0.6038(3) 0.06554(16) 0.79719(16)
N2 N 0.6798(2) 0.08370(13) 0.97548(13)
C3 C 0.6399(2) 0.18804(15) 0.97922(15)
N3 N 0.59206(18) 0.18148(11) 0.86851(12)
C4 C 0.6441(2) 0.29295(15) 1.08858(14)
N4 N 0.6562(2) 0.48507(14) 1.30438(14)
C5 C 0.7034(2) 0.41072(15) 1.10689(16)
H4 H 0.7397 0.4278 1.0475
C6 C 0.7072(3) 0.50172(16) 1.21507(17)
H5 H 0.7483 0.5801 1.2265
C7 C 0.6002(3) 0.37114(18) 1.28554(16)
H6 H 0.5646 0.3568 1.3465
C8 C 0.5923(2) 0.27414(16) 1.18146(15)
H7 H 0.5527 0.1966 1.1731
C9 C 0.5253(3) 0.27370(16) 0.83325(16)
H8 H 0.6261 0.3269 0.8339
H9 H 0.4526 0.3190 0.8866
H10 H 0.4533 0.2358 0.7561
N5 N 0.1814(2) 0.52241(13) 0.22634(12)
N6 N 0.17445(19) 0.45952(12) 0.10816(11)
N7 N 0.12236(18) 0.32985(12) 0.18448(11)
N8 N 0.0904(2) 0.06825(14) -0.25760(13)
C10 C 0.1414(3) 0.47169(19) 0.39356(16)
H11 H 0.0277 0.4349 0.3985
H12 H 0.1531 0.5575 0.4362
H13 H 0.2387 0.4412 0.4262
C11 C 0.1484(2) 0.44287(16) 0.26933(14)
C12 C 0.1390(2) 0.34431(14) 0.08492(13)
C13 C 0.1204(2) 0.24667(13) -0.03212(13)
C14 C 0.1834(2) 0.13761(14) -0.05108(14)
H14 H 0.2369 0.1219 0.0112
C15 C 0.1652(2) 0.05315(15) -0.16387(15)
H15 H 0.2081 -0.0195 -0.1753
C16 C 0.0304(3) 0.17400(18) -0.23793(15)
H16 H -0.0217 0.1870 -0.3022
C17 C 0.0408(2) 0.26451(16) -0.12926(14)
H17 H -0.0040 0.3360 -0.1205
C18 C 0.0744(3) 0.21815(16) 0.19835(16)
H18 H -0.0063 0.1617 0.1293
H19 H 0.0158 0.2357 0.2642
H20 H 0.1822 0.1840 0.2106
O1 O 0.2968(3) 0.75756(13) 0.42240(14)
H21 H 0.255(3) 0.6914(14) 0.3615(14)
H22 H 0.403(2) 0.748(2) 0.451(2)
O2 O 0.9821(3) 0.17150(17) 0.44688(17)
H23 H 0.896(3) 0.193(2) 0.482(2)
H24 H 0.969(4) 0.0953(9) 0.411(2)
O3 O 0.3473(3) 0.27956(19) 0.51738(19)
H25 H 0.252(4) 0.242(2) 0.523(3)
H26 H 0.350(3) 0.3548(10) 0.5605(19)
loop_
_geom_bond_atom_site_label_1
_geom_bond_atom_site_label_2
_geom_bond_site_symmetry_1
_geom_bond_site_symmetry_2
C1 H1 1_555 1_555
H2 C1 1_555 1_555
H3 C1 1_555 1_555
N1 C2 1_555 1_555
C2 C1 1_555 1_555
N2 N1 1_555 1_555
C3 N2 1_555 1_555
N3 C2 1_555 1_555
C4 C3 1_555 1_555
N4 C6 1_555 1_555
C5 C4 1_555 1_555
H4 C5 1_555 1_555
C6 C5 1_555 1_555
H5 C6 1_555 1_555
C7 N4 1_555 1_555
H6 C7 1_555 1_555
C8 C4 1_555 1_555
H7 C8 1_555 1_555
C9 N3 1_555 1_555
H8 C9 1_555 1_555
H9 C9 1_555 1_555
H10 C9 1_555 1_555
N5 N6 1_555 1_555
N6 C12 1_555 1_555
N7 C11 1_555 1_555
N8 C15 1_555 1_555
C10 H11 1_555 1_555
H12 C10 1_555 1_555
H13 C10 1_555 1_555
C11 N5 1_555 1_555
C12 N7 1_555 1_555
C13 C12 1_555 1_555
C14 C13 1_555 1_555
H14 C14 1_555 1_555
C15 C14 1_555 1_555
H15 C15 1_555 1_555
C16 N8 1_555 1_555
H16 C16 1_555 1_555
C17 C13 1_555 1_555
H17 C17 1_555 1_555
C18 N7 1_555 1_555
H18 C18 1_555 1_555
H19 C18 1_555 1_555
H20 C18 1_555 1_555
O1 H21 1_555 1_555
H22 O1 1_555 1_555
O2 H23 1_555 1_555
H24 O2 1_555 1_555
O3 H25 1_555 1_555
H26 O3 1_555 1_555
C3 N3 1_555 1_555
C7 C8 1_555 1_555
C10 C11 1_555 1_555
C16 C17 1_555 1_555

#END
