
#######################################################################
#
#                 Cambridge Crystallographic Data Centre
#                                CCDC 
#
#######################################################################
#
# If this CIF has been generated from an entry in the Cambridge 
# Structural Database, then it will include bibliographic, chemical, 
# crystal, experimental, refinement or atomic coordinate data resulting 
# from the CCDC's data processing and validation procedures.
#
#######################################################################

data_MUFMAD
_chemical_formula_moiety         'C20 H22 N1 O3 S1 1+,H2 O1,I1 1-'
_chemical_name_systematic        
'2-(2-(3,4-dimethoxyphenyl)vinyl)-3-ethyl-5-methoxy-1,3-benzothiazol-3-ium iodide monohydrate'
_symmetry_cell_setting           triclinic
_symmetry_space_group_name_H-M   'P -1'
_symmetry_Int_Tables_number      2
_space_group_name_Hall           '-P 1'
loop_
_symmetry_equiv_pos_site_id
_symmetry_equiv_pos_as_xyz
1 x,y,z
2 -x,-y,-z
_cell_length_a                   7.7237(5)
_cell_length_b                   10.2576(6)
_cell_length_c                   13.6801(8)
_cell_angle_alpha                78.320(2)
_cell_angle_beta                 84.144(2)
_cell_angle_gamma                76.520(2)
_cell_volume                     1030.43
_exptl_crystal_colour            yellow
_exptl_crystal_description       plate
_cell_formula_units_Z            2
loop_
_atom_site_label
_atom_site_type_symbol
_atom_site_fract_x
_atom_site_fract_y
_atom_site_fract_z
I1 I 0.14009(3) 0.13110(2) 0.309073(16)
S1 S 0.12191(11) 0.53045(8) 0.63369(6)
O1 O 0.6475(4) 0.3422(3) 0.1317(2)
O2 O 0.6785(4) 0.5830(3) 0.0481(2)
O3 O -0.1887(4) 0.1622(3) 0.9476(2)
N1 N 0.1346(4) 0.2822(3) 0.6265(2)
C1 C 0.1851(5) 0.3933(4) 0.5742(3)
C2 C 0.2815(5) 0.3988(4) 0.4786(3)
H1 H 0.3133(5) 0.3187(4) 0.4501(3)
C3 C 0.3285(5) 0.5136(4) 0.4276(3)
H2 H 0.2962(5) 0.5917(4) 0.4584(3)
C4 C 0.4234(5) 0.5293(4) 0.3305(3)
C5 C 0.4906(5) 0.4195(3) 0.2800(3)
H3 H 0.4765(5) 0.3305(3) 0.3104(3)
C6 C 0.5769(5) 0.4410(4) 0.1866(3)
C7 C 0.5974(5) 0.5730(4) 0.1406(3)
C8 C 0.5363(5) 0.6806(4) 0.1913(3)
H4 H 0.5534(5) 0.7691(4) 0.1616(3)
C9 C 0.4500(5) 0.6592(4) 0.2856(3)
H5 H 0.4087(5) 0.7333(4) 0.3200(3)
C10 C 0.6533(6) 0.2037(4) 0.1809(3)
H6 H 0.7064(6) 0.1421(4) 0.1344(3)
H7 H 0.7256(6) 0.1823(4) 0.2392(3)
H8 H 0.5320(6) 0.1922(4) 0.2025(3)
C11 C 0.6931(6) 0.7160(4) -0.0023(3)
H9 H 0.7538(6) 0.7108(4) -0.0683(3)
H10 H 0.5736(6) 0.7748(4) -0.0101(3)
H11 H 0.7617(6) 0.7541(4) 0.0369(3)
C12 C 0.0279(5) 0.4328(3) 0.7335(3)
C13 C 0.0445(4) 0.3007(4) 0.7184(3)
C14 C -0.0240(5) 0.2028(4) 0.7878(3)
H12 H -0.0121(5) 0.1126(4) 0.7767(3)
C15 C -0.1108(5) 0.2444(4) 0.8741(3)
C16 C -0.1259(5) 0.3769(4) 0.8910(3)
H13 H -0.1843(5) 0.4015(4) 0.9513(3)
C17 C -0.0578(5) 0.4717(4) 0.8221(3)
H14 H -0.0683(5) 0.5614(4) 0.8339(3)
C18 C -0.1948(6) 0.0311(4) 0.9299(3)
H15 H -0.254(4) 0.0416(4) 0.8680(14)
H16 H -0.0731(6) -0.0233(13) 0.924(3)
H17 H -0.261(4) -0.0151(15) 0.9860(13)
C19 C 0.1794(5) 0.1486(4) 0.5938(3)
H18 H 0.0943(5) 0.0926(4) 0.6273(3)
H19 H 0.1684(5) 0.1628(4) 0.5208(3)
C20 C 0.3667(5) 0.0743(4) 0.6188(3)
H20 H 0.3937(5) -0.0137(4) 0.5966(3)
H21 H 0.4510(5) 0.1291(4) 0.5848(3)
H22 H 0.3770(5) 0.0590(4) 0.6913(3)
O4 O 0.7679(4) 0.1758(3) 0.4970(3)
loop_
_geom_bond_atom_site_label_1
_geom_bond_atom_site_label_2
_geom_bond_site_symmetry_1
_geom_bond_site_symmetry_2
S1 C1 1_555 1_555
O1 C6 1_555 1_555
O2 C7 1_555 1_555
O3 C15 1_555 1_555
N1 C1 1_555 1_555
C1 C2 1_555 1_555
C2 H1 1_555 1_555
C3 C2 1_555 1_555
H2 C3 1_555 1_555
C4 C3 1_555 1_555
C5 C4 1_555 1_555
H3 C5 1_555 1_555
C6 C5 1_555 1_555
C7 C6 1_555 1_555
C8 C7 1_555 1_555
H4 C8 1_555 1_555
C9 C4 1_555 1_555
H5 C9 1_555 1_555
C10 O1 1_555 1_555
H6 C10 1_555 1_555
H7 C10 1_555 1_555
H8 C10 1_555 1_555
C11 O2 1_555 1_555
H9 C11 1_555 1_555
H10 C11 1_555 1_555
H11 C11 1_555 1_555
C12 S1 1_555 1_555
C13 N1 1_555 1_555
C14 C13 1_555 1_555
H12 C14 1_555 1_555
C15 C14 1_555 1_555
C16 C15 1_555 1_555
H13 C16 1_555 1_555
C17 C12 1_555 1_555
H14 C17 1_555 1_555
C18 O3 1_555 1_555
H15 C18 1_555 1_555
H16 C18 1_555 1_555
H17 C18 1_555 1_555
C19 N1 1_555 1_555
H18 C19 1_555 1_555
H19 C19 1_555 1_555
C20 C19 1_555 1_555
H20 C20 1_555 1_555
H21 C20 1_555 1_555
H22 C20 1_555 1_555
C8 C9 1_555 1_555
C12 C13 1_555 1_555
C16 C17 1_555 1_555

#END
