
#######################################################################
#
#                 Cambridge Crystallographic Data Centre
#                                CCDC 
#
#######################################################################
#
# If this CIF has been generated from an entry in the Cambridge 
# Structural Database, then it will include bibliographic, chemical, 
# crystal, experimental, refinement or atomic coordinate data resulting 
# from the CCDC's data processing and validation procedures.
#
#######################################################################

data_MUFMOR
_chemical_formula_moiety         'C20 H23 N1 O3 S1 1+,0.5(H2 O1),I1 1-'
_chemical_name_systematic        
'2-(2-(3,4-dimethoxyphenyl)vinyl)-3-ethyl-5-methoxy-1,3-benzothiazol-3-ium iodide hemihydrate'
_symmetry_cell_setting           triclinic
_symmetry_space_group_name_H-M   'P -1'
_symmetry_Int_Tables_number      2
_space_group_name_Hall           '-P 1'
loop_
_symmetry_equiv_pos_site_id
_symmetry_equiv_pos_as_xyz
1 x,y,z
2 -x,-y,-z
_cell_length_a                   7.564(4)
_cell_length_b                   10.338(5)
_cell_length_c                   14.496(7)
_cell_angle_alpha                93.619(5)
_cell_angle_beta                 104.077(5)
_cell_angle_gamma                105.686(5)
_cell_volume                     1048.42
_exptl_crystal_colour            yellowish
_exptl_crystal_description       needle
_cell_formula_units_Z            2
loop_
_atom_site_label
_atom_site_type_symbol
_atom_site_fract_x
_atom_site_fract_y
_atom_site_fract_z
I1 I 0.19278(8) 0.88574(5) 0.66693(4)
O1 O -0.6265(9) 0.3665(5) 0.2076(4)
O2 O -0.6077(10) 0.6132(6) 0.1753(4)
O3 O 0.2339(11) 0.1434(7) 0.9897(4)
S1 S 0.0000(5) 0.5252(4) 0.7480(3)
N1 N -0.0509(18) 0.2769(12) 0.6846(9)
C1 C -0.0865(15) 0.3905(11) 0.6572(8)
C2 C -0.1859(14) 0.4030(10) 0.5616(6)
C3 C -0.2123(13) 0.5222(9) 0.5378(6)
C4 C -0.3193(17) 0.5446(12) 0.4437(8)
C5 C -0.4144(11) 0.4412(7) 0.3681(5)
C6 C -0.5171(11) 0.4652(7) 0.2816(5)
C7 C -0.5110(12) 0.6013(8) 0.2646(5)
C8 C -0.4112(11) 0.7071(8) 0.3379(5)
H1 H -0.4101(11) 0.7954(8) 0.3282(5)
C9 C -0.3127(10) 0.6827(7) 0.4258(5)
C10 C -0.6816(13) 0.2292(8) 0.2297(6)
H2 H -0.776(7) 0.1719(16) 0.1753(19)
H3 H -0.572(2) 0.197(3) 0.244(5)
H4 H -0.733(9) 0.2280(14) 0.284(3)
C11 C -0.6031(13) 0.7477(8) 0.1547(6)
H5 H -0.665(8) 0.7443(11) 0.0881(13)
H6 H -0.668(8) 0.786(3) 0.194(4)
H7 H -0.4730(13) 0.8031(19) 0.169(4)
C12 C 0.0781(13) 0.4261(9) 0.8259(6)
C13 C 0.0385(11) 0.2916(8) 0.7799(5)
C14 C 0.0899(12) 0.1908(9) 0.8307(5)
H8 H 0.0680(12) 0.1036(9) 0.8007(5)
C15 C 0.1767(16) 0.2288(10) 0.9297(6)
C16 C 0.2086(17) 0.3595(10) 0.9758(6)
H9 H 0.2624(17) 0.3795(10) 1.0419(6)
C17 C 0.1617(17) 0.4583(10) 0.9250(6)
H10 H 0.1851(17) 0.5453(10) 0.9559(6)
C18 C 0.2136(14) 0.0095(10) 0.9505(6)
H11 H 0.275(9) 0.0124(10) 0.900(3)
H12 H 0.272(9) -0.036(3) 0.9997(14)
H13 H 0.0806(14) -0.039(2) 0.926(5)
C19 C -0.0959(12) 0.1485(7) 0.6163(5)
C20 C -0.2896(12) 0.0570(8) 0.6161(6)
H14 H -0.318(4) -0.027(3) 0.575(4)
H15 H -0.289(3) 0.038(5) 0.6802(9)
H16 H -0.3851(17) 0.101(3) 0.593(4)
O1A O 0.6265(9) 0.6335(5) 0.7924(4)
O2A O 0.6077(10) 0.3868(6) 0.8247(4)
O3A O -0.2339(11) 0.8566(7) 0.0103(4)
S1A S 0.0000(5) 0.4748(4) 0.2520(3)
N1A N 0.0509(18) 0.7231(12) 0.3154(9)
C1A C 0.0865(15) 0.6095(11) 0.3428(8)
C2A C 0.1859(14) 0.5970(10) 0.4384(6)
C3A C 0.2123(13) 0.4778(9) 0.4622(6)
C4A C 0.3193(17) 0.4554(12) 0.5563(8)
C5A C 0.4144(11) 0.5588(7) 0.6319(5)
C6A C 0.5171(11) 0.5348(7) 0.7184(5)
C7A C 0.5110(12) 0.3987(8) 0.7354(5)
C8A C 0.4112(11) 0.2929(8) 0.6621(5)
H1A H 0.4101(11) 0.2046(8) 0.6718(5)
C9A C 0.3127(10) 0.3173(7) 0.5742(5)
C10A C 0.6816(13) 0.7708(8) 0.7703(6)
H2A H 0.776(7) 0.8281(16) 0.8247(19)
H3A H 0.572(2) 0.803(3) 0.756(5)
H4A H 0.733(9) 0.7720(14) 0.716(3)
C11A C 0.6031(13) 0.2523(8) 0.8453(6)
H5A H 0.665(8) 0.2557(11) 0.9119(13)
H6A H 0.668(8) 0.214(3) 0.806(4)
H7A H 0.4730(13) 0.1969(19) 0.831(4)
C12A C -0.0781(13) 0.5739(9) 0.1741(6)
C13A C -0.0385(11) 0.7084(8) 0.2201(5)
C14A C -0.0899(12) 0.8092(9) 0.1693(5)
H8A H -0.0680(12) 0.8964(9) 0.1993(5)
C15A C -0.1767(16) 0.7712(10) 0.0703(6)
C16A C -0.2086(17) 0.6405(10) 0.0242(6)
H9A H -0.2624(17) 0.6205(10) -0.0419(6)
C17A C -0.1617(17) 0.5417(10) 0.0750(6)
H10A H -0.1851(17) 0.4547(10) 0.0441(6)
C18A C -0.2136(14) 0.9905(10) 0.0495(6)
H11A H -0.275(9) 0.9876(10) 0.100(3)
H12A H -0.272(9) 1.036(3) 0.0003(14)
H13A H -0.0806(14) 1.039(2) 0.074(5)
C19A C 0.0959(12) 0.8515(7) 0.3837(5)
C20A C 0.2896(12) 0.9430(8) 0.3839(6)
H14A H 0.318(4) 1.027(3) 0.425(4)
H15A H 0.289(3) 0.962(5) 0.3198(9)
H16A H 0.3851(17) 0.899(3) 0.407(4)
O4 O 0.3319(15) 0.7586(10) 0.8942(7)
S2? S 0.0110(12) 0.5300(9) 0.7288(7)
N2? N -0.032(4) 0.283(3) 0.671(2)
C21? C -0.062(3) 0.394(2) 0.6332(18)
C22? C -0.089(3) 0.414(2) 0.5304(16)
C23? C -0.098(3) 0.561(2) 0.5056(16)
C24? C -0.287(4) 0.562(3) 0.430(2)
loop_
_geom_bond_atom_site_label_1
_geom_bond_atom_site_label_2
_geom_bond_site_symmetry_1
_geom_bond_site_symmetry_2
O1 C6 1_555 1_555
O2 C7 1_555 1_555
O3 C15 1_555 1_555
S1 C1 1_555 1_555
N1 C1 1_555 1_555
C1 C2 1_555 1_555
C2 C3 1_555 1_555
C3 C4 1_555 1_555
C4 C5 1_555 1_555
C5 C6 1_555 1_555
C6 C7 1_555 1_555
C7 C8 1_555 1_555
C8 H1 1_555 1_555
C9 C4 1_555 1_555
C10 O1 1_555 1_555
H2 C10 1_555 1_555
H3 C10 1_555 1_555
H4 C10 1_555 1_555
C11 O2 1_555 1_555
H5 C11 1_555 1_555
H6 C11 1_555 1_555
H7 C11 1_555 1_555
C12 S1 1_555 1_555
C13 N1 1_555 1_555
C14 C13 1_555 1_555
H8 C14 1_555 1_555
C15 C14 1_555 1_555
C16 C15 1_555 1_555
H9 C16 1_555 1_555
C17 C12 1_555 1_555
H10 C17 1_555 1_555
C18 O3 1_555 1_555
H11 C18 1_555 1_555
H12 C18 1_555 1_555
H13 C18 1_555 1_555
C19 N1 1_555 1_555
C20 C19 1_555 1_555
H14 C20 1_555 1_555
H15 C20 1_555 1_555
H16 C20 1_555 1_555
O1A C6A 1_555 1_555
O2A C7A 1_555 1_555
O3A C15A 1_555 1_555
S1A C1A 1_555 1_555
N1A C1A 1_555 1_555
C1A C2A 1_555 1_555
C2A C3A 1_555 1_555
C3A C4A 1_555 1_555
C4A C5A 1_555 1_555
C5A C6A 1_555 1_555
C6A C7A 1_555 1_555
C7A C8A 1_555 1_555
C8A H1A 1_555 1_555
C9A C4A 1_555 1_555
C10A O1A 1_555 1_555
H2A C10A 1_555 1_555
H3A C10A 1_555 1_555
H4A C10A 1_555 1_555
C11A O2A 1_555 1_555
H5A C11A 1_555 1_555
H6A C11A 1_555 1_555
H7A C11A 1_555 1_555
C12A S1A 1_555 1_555
C13A N1A 1_555 1_555
C14A C13A 1_555 1_555
H8A C14A 1_555 1_555
C15A C14A 1_555 1_555
C16A C15A 1_555 1_555
H9A C16A 1_555 1_555
C17A C12A 1_555 1_555
H10A C17A 1_555 1_555
C18A O3A 1_555 1_555
H11A C18A 1_555 1_555
H12A C18A 1_555 1_555
H13A C18A 1_555 1_555
C19A N1A 1_555 1_555
C20A C19A 1_555 1_555
H14A C20A 1_555 1_555
H15A C20A 1_555 1_555
H16A C20A 1_555 1_555
C8 C9 1_555 1_555
C12 C13 1_555 1_555
C16 C17 1_555 1_555
C8A C9A 1_555 1_555
C12A C13A 1_555 1_555
C16A C17A 1_555 1_555

#END
