
#######################################################################
#
#                 Cambridge Crystallographic Data Centre
#                                CCDC 
#
#######################################################################
#
# If this CIF has been generated from an entry in the Cambridge 
# Structural Database, then it will include bibliographic, chemical, 
# crystal, experimental, refinement or atomic coordinate data resulting 
# from the CCDC's data processing and validation procedures.
#
#######################################################################

data_MUFNEI
_chemical_formula_moiety         'C51 H33 N1 O4,0.5(C6 H6)'
_chemical_name_systematic        
'19-(2-(biphenyl-4-yloxy)phenyl)-1,16-diphenyl-19-azahexacyclo[14.5.1.0^2,15^.0^3,8^.0^9,14^.0^17,21^]docosa-2(15),3,5,7,9,11,13-heptaene-18,20,22-trione benzene solvate'
_symmetry_cell_setting           triclinic
_symmetry_space_group_name_H-M   'P -1'
_symmetry_Int_Tables_number      2
_space_group_name_Hall           '-P 1'
loop_
_symmetry_equiv_pos_site_id
_symmetry_equiv_pos_as_xyz
1 x,y,z
2 -x,-y,-z
_cell_length_a                   9.7344(15)
_cell_length_b                   12.477(2)
_cell_length_c                   16.268(3)
_cell_angle_alpha                91.644(3)
_cell_angle_beta                 99.097(3)
_cell_angle_gamma                94.093(3)
_cell_volume                     1944.42
_exptl_crystal_colour            colorless
_exptl_crystal_description       block
_cell_formula_units_Z            2
loop_
_atom_site_label
_atom_site_type_symbol
_atom_site_fract_x
_atom_site_fract_y
_atom_site_fract_z
C52 C 0.3991(3) -0.07011(19) 0.49443(15)
H34 H 0.3303 -0.1261 0.5002
C53 C 0.3841(3) -0.0090(2) 0.42471(14)
H35 H 0.3049 -0.0230 0.3825
C54 C 0.4839(3) 0.0723(2) 0.41628(14)
H36 H 0.4735 0.1144 0.3683
C55 C 0.5988(3) 0.0925(2) 0.47761(15)
H37 H 0.6677 0.1485 0.4718
C56 C 0.6138(3) 0.0314(2) 0.54734(14)
H38 H 0.6930 0.0453 0.5896
C57 C 0.5140(3) -0.0499(2) 0.55572(14)
H39 H 0.5244 -0.0920 0.6037
C52A C 0.6009(3) 0.07011(19) 0.50557(15)
H34A H 0.6697 0.1261 0.4998
C53A C 0.6159(3) 0.0090(2) 0.57529(14)
H35A H 0.6951 0.0230 0.6175
C54A C 0.5161(3) -0.0723(2) 0.58372(14)
H36A H 0.5265 -0.1144 0.6317
C55A C 0.4012(3) -0.0925(2) 0.52239(15)
H37A H 0.3323 -0.1485 0.5282
C56A C 0.3862(3) -0.0314(2) 0.45266(14)
H38A H 0.3070 -0.0453 0.4104
C57A C 0.4860(3) 0.0499(2) 0.44428(14)
H39A H 0.4756 0.0920 0.3963
O1 O 0.81340(10) 0.53224(7) 1.03100(6)
O2 O 0.88649(10) 0.34421(7) 0.73079(6)
O3 O 0.68944(10) 0.66556(7) 0.70542(6)
O4 O 0.88165(10) 0.61373(7) 0.58104(6)
N1 N 0.77884(11) 0.49966(8) 0.69987(7)
C1 C 0.77872(13) 0.52003(10) 0.95746(8)
C2 C 0.78975(13) 0.42124(10) 0.89943(8)
C3 C 0.87848(13) 0.48100(10) 0.83969(8)
H1 H 0.9801 0.4874 0.8634
C4 C 0.85267(13) 0.43028(10) 0.75282(8)
C5 C 0.75392(13) 0.59581(10) 0.73942(8)
C6 C 0.81907(13) 0.59300(10) 0.83072(8)
H2 H 0.8949 0.6519 0.8457
C7 C 0.70890(13) 0.59595(10) 0.89189(8)
C8 C 0.58874(13) 0.51408(10) 0.85405(8)
C9 C 0.63801(13) 0.41368(10) 0.85564(8)
C10 C 0.55629(13) 0.32120(10) 0.81496(8)
C11 C 0.61135(14) 0.22039(10) 0.80534(8)
H3 H 0.7066 0.2122 0.8264
C12 C 0.52887(16) 0.13430(11) 0.76591(9)
H4 H 0.5675 0.0675 0.7589
C13 C 0.38842(17) 0.14510(12) 0.73626(10)
H5 H 0.3304 0.0846 0.7113
C14 C 0.33341(15) 0.24247(11) 0.74288(9)
H6 H 0.2377 0.2484 0.7217
C15 C 0.41525(14) 0.33417(11) 0.78037(8)
C16 C 0.36089(13) 0.44006(11) 0.78116(8)
C17 C 0.22320(14) 0.45666(11) 0.74426(8)
H7 H 0.1618 0.3964 0.7224
C18 C 0.17584(14) 0.55760(12) 0.73920(9)
H8 H 0.0831 0.5666 0.7133
C19 C 0.26360(15) 0.64711(12) 0.77211(9)
H9 H 0.2305 0.7169 0.7686
C20 C 0.39748(14) 0.63443(11) 0.80954(8)
H10 H 0.4563 0.6958 0.8319
C21 C 0.44932(13) 0.53163(10) 0.81537(8)
C22 C 0.84388(13) 0.32452(10) 0.94288(8)
C23 C 0.95862(13) 0.27465(10) 0.92348(8)
H11 H 1.0093 0.3039 0.8829
C24 C 0.99956(14) 0.18228(10) 0.96314(9)
H12 H 1.0781 0.1487 0.9495
C25 C 0.92680(15) 0.13881(11) 1.02236(9)
H13 H 0.9539 0.0748 1.0486
C26 C 0.81403(15) 0.18939(11) 1.04315(9)
H14 H 0.7645 0.1605 1.0843
C27 C 0.77332(14) 0.28168(10) 1.00417(8)
H15 H 0.6966 0.3162 1.0193
C28 C 0.68224(13) 0.70540(10) 0.92433(8)
C29 C 0.62874(14) 0.71524(11) 0.99841(9)
H16 H 0.6074 0.6527 1.0274
C30 C 0.60632(14) 0.81610(11) 1.03024(9)
H17 H 0.5704 0.8221 1.0810
C31 C 0.63612(14) 0.90763(11) 0.98824(9)
H18 H 0.6217 0.9764 1.0104
C32 C 0.68693(14) 0.89857(11) 0.91389(9)
H19 H 0.7061 0.9612 0.8845
C33 C 0.71005(14) 0.79826(10) 0.88193(9)
H20 H 0.7451 0.7927 0.8308
C34 C 0.72777(13) 0.47335(10) 0.61368(8)
C35 C 0.77706(13) 0.53486(10) 0.55311(8)
C36 C 0.72472(14) 0.51203(11) 0.46965(8)
H21 H 0.7567 0.5547 0.4280
C37 C 0.62581(15) 0.42684(11) 0.44734(9)
H22 H 0.5898 0.4113 0.3902
C38 C 0.57873(15) 0.36407(11) 0.50734(9)
H23 H 0.5118 0.3050 0.4913
C39 C 0.62940(14) 0.38742(11) 0.59106(9)
H24 H 0.5969 0.3448 0.6326
C40 C 0.90217(14) 0.69499(10) 0.52532(8)
C41 C 0.81020(14) 0.77442(11) 0.51389(9)
H25 H 0.7329 0.7739 0.5430
C42 C 0.83196(14) 0.85485(11) 0.45949(8)
H26 H 0.7687 0.9096 0.4513
C43 C 0.94540(14) 0.85689(10) 0.41646(8)
C44 C 1.03745(14) 0.77636(10) 0.43052(8)
H27 H 1.1159 0.7769 0.4024
C45 C 1.01640(14) 0.69531(11) 0.48501(8)
H28 H 1.0799 0.6409 0.4943
C46 C 0.96655(14) 0.94247(11) 0.35684(8)
C47 C 0.93086(16) 1.04672(11) 0.37131(9)
H29 H 0.8923 1.0634 0.4198
C48 C 0.95088(18) 1.12650(12) 0.31588(10)
H30 H 0.9268 1.1974 0.3270
C49 C 1.00544(18) 1.10359(13) 0.24487(10)
H31 H 1.0186 1.1583 0.2068
C50 C 1.04106(18) 1.00026(13) 0.22928(10)
H32 H 1.0788 0.9842 0.1804
C51 C 1.02199(16) 0.92021(12) 0.28458(9)
H33 H 1.0468 0.8496 0.2733
loop_
_geom_bond_atom_site_label_1
_geom_bond_atom_site_label_2
_geom_bond_site_symmetry_1
_geom_bond_site_symmetry_2
O1 C1 1_555 1_555
O2 C4 1_555 1_555
O3 C5 1_555 1_555
O4 C35 1_555 1_555
N1 C4 1_555 1_555
C1 C2 1_555 1_555
C2 C3 1_555 1_555
C3 H1 1_555 1_555
C4 C3 1_555 1_555
C5 N1 1_555 1_555
C6 C3 1_555 1_555
H2 C6 1_555 1_555
C7 C1 1_555 1_555
C8 C7 1_555 1_555
C9 C2 1_555 1_555
C10 C9 1_555 1_555
C11 C10 1_555 1_555
H3 C11 1_555 1_555
C12 C11 1_555 1_555
H4 C12 1_555 1_555
C13 C12 1_555 1_555
H5 C13 1_555 1_555
C14 C13 1_555 1_555
H6 C14 1_555 1_555
C15 C10 1_555 1_555
C16 C15 1_555 1_555
C17 C16 1_555 1_555
H7 C17 1_555 1_555
C18 C17 1_555 1_555
H8 C18 1_555 1_555
C19 C18 1_555 1_555
H9 C19 1_555 1_555
C20 C19 1_555 1_555
H10 C20 1_555 1_555
C21 C8 1_555 1_555
C22 C2 1_555 1_555
C23 C22 1_555 1_555
H11 C23 1_555 1_555
C24 C23 1_555 1_555
H12 C24 1_555 1_555
C25 C24 1_555 1_555
H13 C25 1_555 1_555
C26 C25 1_555 1_555
H14 C26 1_555 1_555
C27 C22 1_555 1_555
H15 C27 1_555 1_555
C28 C7 1_555 1_555
C29 C28 1_555 1_555
H16 C29 1_555 1_555
C30 C29 1_555 1_555
H17 C30 1_555 1_555
C31 C30 1_555 1_555
H18 C31 1_555 1_555
C32 C31 1_555 1_555
H19 C32 1_555 1_555
C33 C28 1_555 1_555
H20 C33 1_555 1_555
C34 N1 1_555 1_555
C35 C34 1_555 1_555
C36 C35 1_555 1_555
H21 C36 1_555 1_555
C37 C36 1_555 1_555
H22 C37 1_555 1_555
C38 C37 1_555 1_555
H23 C38 1_555 1_555
C39 C34 1_555 1_555
H24 C39 1_555 1_555
C40 O4 1_555 1_555
C41 C40 1_555 1_555
H25 C41 1_555 1_555
C42 C41 1_555 1_555
H26 C42 1_555 1_555
C43 C42 1_555 1_555
C44 C43 1_555 1_555
H27 C44 1_555 1_555
C45 C40 1_555 1_555
H28 C45 1_555 1_555
C46 C43 1_555 1_555
C47 C46 1_555 1_555
H29 C47 1_555 1_555
C48 C47 1_555 1_555
H30 C48 1_555 1_555
C49 C48 1_555 1_555
H31 C49 1_555 1_555
C50 C49 1_555 1_555
H32 C50 1_555 1_555
C51 C46 1_555 1_555
H33 C51 1_555 1_555
C52 H34 1_555 1_555
H34 C55A 1_555 1_555
C53 C52 1_555 1_555
H35 C53 1_555 1_555
C54 C53 1_555 1_555
H36 C54 1_555 1_555
C55 C54 1_555 1_555
H37 C55 1_555 1_555
C56 C55 1_555 1_555
H38 C56 1_555 1_555
C57 C52 1_555 1_555
H39 C57 1_555 1_555
C52A C54 1_555 1_555
H34A C55 1_555 1_555
C53A H38 1_555 1_555
H35A C56 1_555 1_555
C54A C52 1_555 1_555
H36A C54A 1_555 1_555
C55A C57 1_555 1_555
H37A C52 1_555 1_555
C56A C52 1_555 1_555
H38A C53 1_555 1_555
C57A C53 1_555 1_555
H39A C57A 1_555 1_555
C5 C6 1_555 1_555
C6 C7 1_555 1_555
C8 C9 1_555 1_555
C14 C15 1_555 1_555
C16 C21 1_555 1_555
C20 C21 1_555 1_555
C26 C27 1_555 1_555
C32 C33 1_555 1_555
C38 C39 1_555 1_555
C44 C45 1_555 1_555
C50 C51 1_555 1_555
H35 C56A 1_555 1_555
C54 C56A 1_555 1_555
C55 C57A 1_555 1_555
H37 C52A 1_555 1_555
C56 C57 1_555 1_555
C56 C52A 1_555 1_555
C56 C54A 1_555 1_555
C57 C53A 1_555 1_555
C52A H34A 1_555 1_555
C52A C53A 1_555 1_555
C52A C57A 1_555 1_555
C53A H35A 1_555 1_555
C53A C54A 1_555 1_555
C54A C55A 1_555 1_555
C55A H37A 1_555 1_555
C55A C56A 1_555 1_555
C56A H38A 1_555 1_555
C56A C57A 1_555 1_555

#END
