
#######################################################################
#
#                 Cambridge Crystallographic Data Centre
#                                CCDC 
#
#######################################################################
#
# If this CIF has been generated from an entry in the Cambridge 
# Structural Database, then it will include bibliographic, chemical, 
# crystal, experimental, refinement or atomic coordinate data resulting 
# from the CCDC's data processing and validation procedures.
#
#######################################################################

data_MUFPUA
_chemical_formula_moiety         'C20 H22 N1 O3 S1 1+,0.4(H2 O1),I1 1-'
_chemical_name_systematic        
'2-(2-(3,4-dimethoxyphenyl)vinyl)-3-ethyl-5-methoxy-1,3-benzothiazol-3-ium iodide hydrate'
_symmetry_cell_setting           triclinic
_symmetry_space_group_name_H-M   'P -1'
_symmetry_Int_Tables_number      2
_space_group_name_Hall           '-P 1'
loop_
_symmetry_equiv_pos_site_id
_symmetry_equiv_pos_as_xyz
1 x,y,z
2 -x,-y,-z
_cell_length_a                   7.484(5)
_cell_length_b                   10.197(7)
_cell_length_c                   14.512(10)
_cell_angle_alpha                94.449(10)
_cell_angle_beta                 103.752(11)
_cell_angle_gamma                105.623(10)
_cell_volume                     1024.05
_exptl_crystal_description       plate
_cell_formula_units_Z            2
loop_
_atom_site_label
_atom_site_type_symbol
_atom_site_fract_x
_atom_site_fract_y
_atom_site_fract_z
I1 I 0.3023(4) -0.3850(4) -0.1720(2)
S1 S 0.5044(4) 0.0220(3) 0.2477(2)
O1 O -0.1051(4) -0.1333(2) -0.29693(17)
O2 O -0.0836(3) 0.1154(2) -0.32448(16)
N1 N 0.4312(11) -0.2337(8) 0.1793(6)
C1 C 0.4096(4) -0.1069(3) 0.1547(2)
C2 C 0.3115(4) -0.0960(3) 0.0606(2)
H1 H 0.2622(4) -0.1758(3) 0.0131(2)
C3 C 0.2862(4) 0.0233(3) 0.0364(2)
H2 H 0.3385(4) 0.1010(3) 0.0856(2)
C4 C 0.1876(4) 0.0463(3) -0.0567(2)
C5 C 0.0880(4) -0.0614(3) -0.1325(2)
H3 H 0.0832(4) -0.1534(3) -0.1234(2)
C6 C -0.0029(4) -0.0356(3) -0.2198(2)
C7 C 0.0065(4) 0.1015(3) -0.2344(2)
C8 C 0.1020(4) 0.2076(3) -0.1596(2)
H4 H 0.1070(4) 0.2996(3) -0.1686(2)
C9 C 0.1912(4) 0.1802(3) -0.0710(2)
H5 H 0.2554(4) 0.2539(3) -0.0194(2)
C10 C -0.1848(10) -0.2684(6) -0.2730(5)
H6 H -0.2563(10) -0.3330(6) -0.3320(5)
H7 H -0.0800(10) -0.3007(6) -0.2377(5)
H8 H -0.2719(10) -0.2626(6) -0.2330(5)
C11 C -0.0896(5) 0.2508(4) -0.3404(3)
H9 H -0.1577(5) 0.2482(4) -0.4075(3)
H10 H -0.1573(5) 0.2845(4) -0.2981(3)
H11 H 0.0421(5) 0.3125(4) -0.3266(3)
C12 C 0.5683(12) -0.0957(10) 0.3236(6)
C13 C 0.5230(11) -0.2267(9) 0.2756(6)
C14 C 0.5667(11) -0.3329(8) 0.3202(5)
H12 H 0.5353(11) -0.4230(8) 0.2860(5)
C15 C 0.6586(10) -0.3014(9) 0.4173(5)
C16 C 0.7039(11) -0.1694(11) 0.4670(7)
H13 H 0.7641(11) -0.1529(11) 0.5340(7)
C17 C 0.6649(12) -0.0611(10) 0.4227(6)
H14 H 0.7004(12) 0.0298(10) 0.4562(6)
C18 C 0.6762(12) -0.5288(9) 0.4280(6)
H15 H 0.7236(12) -0.5827(9) 0.4761(6)
H16 H 0.5371(12) -0.5700(9) 0.4004(6)
H17 H 0.7419(12) -0.5286(9) 0.3771(6)
O3 O 0.7131(8) -0.3937(7) 0.4715(4)
C19 C 0.3946(5) -0.3528(3) 0.1174(2)
H18 H 0.3943(5) -0.3311(3) 0.0520(2)
H19 H 0.4962(5) -0.3976(3) 0.1387(2)
C20 C 0.2019(6) -0.4478(4) 0.1163(3)
H20 H 0.1743(6) -0.5331(4) 0.0723(3)
H21 H 0.2036(6) -0.4693(4) 0.1811(3)
H22 H 0.1020(6) -0.4031(4) 0.0947(3)
O5 O 0.8202(10) 0.2541(7) 0.3971(5)
I2? I 0.3399(4) -0.3786(4) -0.1533(2)
C21? C -0.1165(12) -0.2779(8) -0.2865(6)
H23? H -0.1939(12) -0.3377(8) -0.3469(6)
H24? H 0.0136(12) -0.2878(8) -0.2708(6)
H25? H -0.1766(12) -0.3042(8) -0.2350(6)
C22? C 0.5707(10) -0.0617(8) 0.3278(5)
C23? C 0.5447(10) -0.1922(9) 0.2836(5)
C24? C 0.6026(10) -0.2926(8) 0.3357(5)
H26? H 0.5847(10) -0.3829(8) 0.3054(5)
C25? C 0.6864(10) -0.2516(10) 0.4327(5)
C26? C 0.7126(11) -0.1196(10) 0.4770(6)
H27? H 0.7725(11) -0.0952(10) 0.5440(6)
C27? C 0.6537(12) -0.0237(10) 0.4262(6)
H28? H 0.6690(12) 0.0658(10) 0.4572(6)
C28? C 0.7237(11) -0.4742(10) 0.4538(6)
H29? H 0.7786(11) -0.5216(10) 0.5044(6)
H30? H 0.5854(11) -0.5207(10) 0.4283(6)
H31? H 0.7871(11) -0.4761(10) 0.4021(6)
O4? O 0.7527(8) -0.3367(6) 0.4920(4)
H32? H 0.4934(5) -0.4003(3) 0.1376(2)
H33? H 0.3921(5) -0.3346(3) 0.0511(2)
N2? N 0.4578(11) -0.2103(8) 0.1853(6)
S2? S 0.4800(4) 0.0316(3) 0.2475(2)
loop_
_geom_bond_atom_site_label_1
_geom_bond_atom_site_label_2
_geom_bond_site_symmetry_1
_geom_bond_site_symmetry_2
S1 C1 1_555 1_555
O1 C6 1_555 1_555
O2 C7 1_555 1_555
N1 C1 1_555 1_555
C1 C2 1_555 1_555
C2 H1 1_555 1_555
C3 C2 1_555 1_555
H2 C3 1_555 1_555
C4 C3 1_555 1_555
C5 C4 1_555 1_555
H3 C5 1_555 1_555
C6 C5 1_555 1_555
C7 C6 1_555 1_555
C8 C7 1_555 1_555
H4 C8 1_555 1_555
C9 C4 1_555 1_555
H5 C9 1_555 1_555
C10 O1 1_555 1_555
H6 C10 1_555 1_555
H7 C10 1_555 1_555
H8 C10 1_555 1_555
C11 O2 1_555 1_555
H9 C11 1_555 1_555
H10 C11 1_555 1_555
H11 C11 1_555 1_555
C12 S1 1_555 1_555
C13 N1 1_555 1_555
C14 C13 1_555 1_555
H12 C14 1_555 1_555
C15 C14 1_555 1_555
C16 C15 1_555 1_555
H13 C16 1_555 1_555
C17 C12 1_555 1_555
H14 C17 1_555 1_555
C18 H15 1_555 1_555
H16 C18 1_555 1_555
H17 C18 1_555 1_555
O3 C15 1_555 1_555
C19 N1 1_555 1_555
H18 C19 1_555 1_555
H19 C19 1_555 1_555
C20 C19 1_555 1_555
H20 C20 1_555 1_555
H21 C20 1_555 1_555
H22 C20 1_555 1_555
C8 C9 1_555 1_555
C12 C13 1_555 1_555
C16 C17 1_555 1_555
C18 O3 1_555 1_555

#END
