
#######################################################################
#
#                 Cambridge Crystallographic Data Centre
#                                CCDC 
#
#######################################################################
#
# If this CIF has been generated from an entry in the Cambridge 
# Structural Database, then it will include bibliographic, chemical, 
# crystal, experimental, refinement or atomic coordinate data resulting 
# from the CCDC's data processing and validation procedures.
#
#######################################################################

data_MUGDEZ
_chemical_formula_moiety         'C12 H18 N4 O6 S1'
_chemical_name_systematic        
4-(Di-n-propylamino)-3,5-dinitrobenzenesulfonamide
_symmetry_cell_setting           triclinic
_symmetry_space_group_name_H-M   'P -1'
_symmetry_Int_Tables_number      2
_space_group_name_Hall           '-P 1'
loop_
_symmetry_equiv_pos_site_id
_symmetry_equiv_pos_as_xyz
1 x,y,z
2 -x,-y,-z
_cell_length_a                   7.6057(2)
_cell_length_b                   8.2463(2)
_cell_length_c                   12.8657(2)
_cell_angle_alpha                73.9010(10)
_cell_angle_beta                 86.0590(10)
_cell_angle_gamma                83.5490(10)
_cell_volume                     769.772
_exptl_crystal_colour            red
_exptl_crystal_description       block
_cell_formula_units_Z            2
loop_
_atom_site_label
_atom_site_type_symbol
_atom_site_fract_x
_atom_site_fract_y
_atom_site_fract_z
S1 S 0.29089(4) -0.28775(4) 1.01726(2)
O1 O 0.21891(13) 0.38350(13) 0.79517(9)
O2 O 0.27982(13) 0.32749(13) 0.64100(8)
O3 O 0.94829(12) 0.02295(14) 0.76530(8)
O4 O 0.91096(14) -0.24191(14) 0.83339(10)
O5 O 0.42149(13) -0.38814(12) 1.09026(7)
O6 O 0.13725(14) -0.20406(13) 1.05726(8)
N1 N 0.22714(17) -0.41143(15) 0.95364(10)
N2 N 0.65122(14) 0.20712(13) 0.66209(8)
N3 N 0.29355(13) 0.29708(13) 0.73912(9)
N4 N 0.85394(14) -0.09134(15) 0.80100(8)
C1 C 0.40261(16) -0.13002(15) 0.92262(9)
C2 C 0.31660(16) 0.03024(15) 0.87675(9)
H1 H 0.2012 0.0621 0.9021
C3 C 0.40260(15) 0.14133(14) 0.79389(9)
C4 C 0.57601(15) 0.10563(14) 0.75238(9)
C5 C 0.64961(16) 0.39061(15) 0.64526(10)
H2 H 0.5757 0.4247 0.7035
H3 H 0.5958 0.4507 0.5753
C6 C 0.83533(18) 0.44270(17) 0.64495(12)
H4 H 0.8881 0.3855 0.7156
H5 H 0.9104 0.4062 0.5880
C7 C 0.8312(2) 0.63353(19) 0.62429(14)
H6 H 0.7900 0.6898 0.5514
H7 H 0.9506 0.6633 0.6304
H8 H 0.7506 0.6707 0.6778
C8 C 0.74354(17) 0.13316(16) 0.57981(10)
H9 H 0.7354 0.0092 0.6013
H10 H 0.8704 0.1524 0.5751
C9 C 0.66410(19) 0.21110(18) 0.46926(10)
H11 H 0.5335 0.2132 0.4772
H12 H 0.6939 0.3296 0.4412
C10 C 0.7322(2) 0.1124(2) 0.38841(12)
H13 H 0.8618 0.1057 0.3828
H14 H 0.6843 0.1703 0.3174
H15 H 0.6943 -0.0023 0.4130
C11 C 0.66129(15) -0.05195(15) 0.81163(9)
C12 C 0.57619(16) -0.16972(16) 0.89134(10)
H16 H 0.6365 -0.2771 0.9244
H17 H 0.312(3) -0.469(2) 0.9280(15)
H18 H 0.145(3) -0.371(3) 0.9149(16)
loop_
_geom_bond_atom_site_label_1
_geom_bond_atom_site_label_2
_geom_bond_site_symmetry_1
_geom_bond_site_symmetry_2
S1 O5 1_555 1_555
O1 N3 1_555 1_555
O2 N3 1_555 1_555
O3 N4 1_555 1_555
O4 N4 1_555 1_555
O6 S1 1_555 1_555
N1 S1 1_555 1_555
N2 C4 1_555 1_555
N3 C3 1_555 1_555
N4 C11 1_555 1_555
C1 S1 1_555 1_555
C2 C1 1_555 1_555
H1 C2 1_555 1_555
C3 C2 1_555 1_555
C4 C3 1_555 1_555
C5 N2 1_555 1_555
H2 C5 1_555 1_555
H3 C5 1_555 1_555
C6 C5 1_555 1_555
H4 C6 1_555 1_555
H5 C6 1_555 1_555
C7 C6 1_555 1_555
H6 C7 1_555 1_555
H7 C7 1_555 1_555
H8 C7 1_555 1_555
C8 N2 1_555 1_555
H9 C8 1_555 1_555
H10 C8 1_555 1_555
C9 C8 1_555 1_555
H11 C9 1_555 1_555
H12 C9 1_555 1_555
C10 C9 1_555 1_555
H13 C10 1_555 1_555
H14 C10 1_555 1_555
H15 C10 1_555 1_555
C11 C4 1_555 1_555
C12 C1 1_555 1_555
H16 C12 1_555 1_555
H17 N1 1_555 1_555
H18 N1 1_555 1_555
C11 C12 1_555 1_555

#END
