
#######################################################################
#
#                 Cambridge Crystallographic Data Centre
#                                CCDC 
#
#######################################################################
#
# If this CIF has been generated from an entry in the Cambridge 
# Structural Database, then it will include bibliographic, chemical, 
# crystal, experimental, refinement or atomic coordinate data resulting 
# from the CCDC's data processing and validation procedures.
#
#######################################################################

data_MUGLOP
_chemical_formula_moiety         'C16 H16 O3'
_chemical_name_systematic        
2,3-Dihydro-3,3-dimethylspiro(1H-4-oxanthracene-5,2'-oxiran)-10(5H)-one
_symmetry_cell_setting           monoclinic
_symmetry_space_group_name_H-M   'P 21/n'
_symmetry_Int_Tables_number      14
_space_group_name_Hall           '-P 2yn'
loop_
_symmetry_equiv_pos_site_id
_symmetry_equiv_pos_as_xyz
1 x,y,z
2 1/2+x,1/2-y,1/2+z
3 -x,-y,-z
4 1/2-x,1/2+y,1/2-z
_cell_length_a                   12.2764(13)
_cell_length_b                   7.8543(9)
_cell_length_c                   13.6935(15)
_cell_angle_alpha                90
_cell_angle_beta                 101.666(2)
_cell_angle_gamma                90
_cell_volume                     1293.09
_exptl_crystal_colour            colorless
_exptl_crystal_description       block
_chemical_melting_point          '391-393 K'
_cell_formula_units_Z            4
_exptl_crystal_recrystallization_method acetone
loop_
_atom_site_label
_atom_site_type_symbol
_atom_site_fract_x
_atom_site_fract_y
_atom_site_fract_z
C1 C 0.91113(14) 0.7150(2) 0.32964(12)
C2 C 1.02101(15) 0.6216(3) 0.34855(13)
H1 H 1.0752 0.6889 0.3228
H2 H 1.0475 0.6091 0.4199
C3 C 1.01245(15) 0.4477(2) 0.30048(12)
H3 H 1.0864 0.4029 0.3019
H4 H 0.9742 0.3704 0.3374
C4 C 0.95008(11) 0.45991(18) 0.19482(10)
C5 C 0.96331(11) 0.32671(18) 0.12563(10)
C6 C 0.89837(10) 0.33837(16) 0.02182(10)
C7 C 0.90309(12) 0.20535(17) -0.04362(11)
H5 H 0.9502 0.1137 -0.0233
C8 C 0.83876(15) 0.2076(2) -0.13830(12)
H6 H 0.8432 0.1187 -0.1822
C9 C 0.76805(15) 0.3416(2) -0.16782(12)
H7 H 0.7226 0.3414 -0.2310
C10 C 0.76406(13) 0.4762(2) -0.10435(11)
H8 H 0.7170 0.5677 -0.1254
C11 C 0.83007(10) 0.47622(17) -0.00882(10)
C12 C 0.82705(10) 0.61994(17) 0.05959(10)
C13 C 0.88514(11) 0.59521(17) 0.16450(10)
O1 O 0.86845(10) 0.72601(14) 0.22208(8)
O2 O 0.72247(9) 0.70902(14) 0.04658(9)
C14 C 0.81423(14) 0.79552(19) 0.02145(13)
H9 H 0.8483 0.8862 0.0653
H10 H 0.8139 0.8135 -0.0487
O3 O 1.02461(10) 0.20459(16) 0.15111(9)
C15 C 0.9240(2) 0.8984(3) 0.36169(19)
H11 H 0.9779 0.9525 0.3301
H12 H 0.9484 0.9041 0.4328
H13 H 0.8538 0.9556 0.3426
C16 C 0.82301(19) 0.6245(3) 0.37286(17)
H14 H 0.7538 0.6846 0.3546
H15 H 0.8452 0.6210 0.4442
H16 H 0.8141 0.5105 0.3472
loop_
_geom_bond_atom_site_label_1
_geom_bond_atom_site_label_2
_geom_bond_site_symmetry_1
_geom_bond_site_symmetry_2
C1 C2 1_555 1_555
C2 H1 1_555 1_555
H2 C2 1_555 1_555
C3 C2 1_555 1_555
H3 C3 1_555 1_555
H4 C3 1_555 1_555
C4 C3 1_555 1_555
C5 C4 1_555 1_555
C6 C5 1_555 1_555
C7 C6 1_555 1_555
H5 C7 1_555 1_555
C8 C7 1_555 1_555
H6 C8 1_555 1_555
C9 C8 1_555 1_555
H7 C9 1_555 1_555
C10 C9 1_555 1_555
H8 C10 1_555 1_555
C11 C6 1_555 1_555
C12 C11 1_555 1_555
C13 C4 1_555 1_555
O1 C1 1_555 1_555
O2 C12 1_555 1_555
C14 C12 1_555 1_555
H9 C14 1_555 1_555
H10 C14 1_555 1_555
O3 C5 1_555 1_555
C15 C1 1_555 1_555
H11 C15 1_555 1_555
H12 C15 1_555 1_555
H13 C15 1_555 1_555
C16 C1 1_555 1_555
H14 C16 1_555 1_555
H15 C16 1_555 1_555
H16 C16 1_555 1_555
C10 C11 1_555 1_555
C12 C13 1_555 1_555
C13 O1 1_555 1_555
O2 C14 1_555 1_555

#END
