
#######################################################################
#
#                 Cambridge Crystallographic Data Centre
#                                CCDC 
#
#######################################################################
#
# If this CIF has been generated from an entry in the Cambridge 
# Structural Database, then it will include bibliographic, chemical, 
# crystal, experimental, refinement or atomic coordinate data resulting 
# from the CCDC's data processing and validation procedures.
#
#######################################################################

data_MUGQOW
_chemical_formula_moiety         'C20 H21 N3 O3'
_chemical_name_systematic        
7-(diethylamino)-2-oxo-N'-phenyl-2H-chromene-3-carbohydrazide
_symmetry_cell_setting           monoclinic
_symmetry_space_group_name_H-M   'P 21/c'
_symmetry_Int_Tables_number      14
_space_group_name_Hall           '-P 2ybc'
loop_
_symmetry_equiv_pos_site_id
_symmetry_equiv_pos_as_xyz
1 x,y,z
2 -x,1/2+y,1/2-z
3 -x,-y,-z
4 x,1/2-y,1/2+z
_cell_length_a                   13.1553(7)
_cell_length_b                   6.9401(4)
_cell_length_c                   21.0792(14)
_cell_angle_alpha                90
_cell_angle_beta                 109.629(5)
_cell_angle_gamma                90
_cell_volume                     1812.67
_exptl_crystal_colour            yellow
_exptl_crystal_description       block
_chemical_melting_point          '474-476 K'
_cell_formula_units_Z            4
_exptl_crystal_preparation       Luminescent
loop_
_atom_site_label
_atom_site_type_symbol
_atom_site_fract_x
_atom_site_fract_y
_atom_site_fract_z
O1 O 0.53480(12) -0.2737(2) -0.01747(9)
O2 O 0.83643(12) -0.2323(3) -0.04626(8)
O3 O 0.87160(11) 0.0374(2) 0.01139(7)
N1 N 0.96435(15) 0.6411(3) 0.12437(9)
N2 N 0.64660(15) -0.4190(3) -0.06289(10)
H1 H 0.7151 -0.4197 -0.0658
N3 N 0.58237(15) -0.5855(3) -0.07972(10)
H2 H 0.6260 -0.6851 -0.0800
C1 C 0.4824(2) -0.4437(5) -0.18961(15)
H3 H 0.5283 -0.3377 -0.1813
C2 C 0.3977(3) -0.4595(6) -0.25055(16)
H4 H 0.3876 -0.3632 -0.2828
C3 C 0.3293(3) -0.6137(7) -0.26385(17)
H5 H 0.2729 -0.6228 -0.3046
C4 C 0.3454(3) -0.7544(6) -0.21614(18)
H6 H 0.2993 -0.8601 -0.2245
C5 C 0.4289(2) -0.7416(5) -0.15596(14)
H7 H 0.4391 -0.8395 -0.1243
C6 C 0.49771(18) -0.5854(4) -0.14196(13)
C7 C 0.62059(17) -0.2751(3) -0.02877(11)
C8 C 0.70092(16) -0.1178(3) -0.00396(10)
C9 C 0.80316(16) -0.1151(3) -0.01546(10)
C10 C 0.84576(16) 0.1862(3) 0.04689(10)
C11 C 0.74687(16) 0.1822(3) 0.05807(10)
C12 C 0.67628(16) 0.0281(3) 0.03149(11)
H8 H 0.6101 0.0255 0.0384
C13 C 0.72570(17) 0.3365(4) 0.09483(11)
H9 H 0.6615 0.3380 0.1042
C14 C 0.79721(18) 0.4843(3) 0.11712(11)
H10 H 0.7807 0.5844 0.1414
C15 C 0.89635(16) 0.4884(3) 0.10404(10)
C16 C 0.92006(17) 0.3309(3) 0.06935(10)
H11 H 0.9856 0.3251 0.0617
C17 C 1.0568(2) 0.6700(4) 0.10111(14)
H12 H 1.0464 0.5921 0.0612
H13 H 1.0584 0.8039 0.0883
C18 C 1.1605(3) 0.6213(7) 0.15083(17)
H14 H 1.1611 0.4875 0.1624
H15 H 1.1721 0.6985 0.1904
H16 H 1.2169 0.6459 0.1325
C19 C 0.9410(2) 0.7972(4) 0.16422(12)
H17 H 0.8658 0.8337 0.1440
H18 H 0.9845 0.9083 0.1622
C20 C 0.9624(2) 0.7460(4) 0.23738(12)
H19 H 1.0377 0.7184 0.2587
H20 H 0.9206 0.6348 0.2400
H21 H 0.9424 0.8524 0.2598
loop_
_geom_bond_atom_site_label_1
_geom_bond_atom_site_label_2
_geom_bond_site_symmetry_1
_geom_bond_site_symmetry_2
O1 C7 1_555 1_555
O2 C9 1_555 1_555
O3 C9 1_555 1_555
N1 C15 1_555 1_555
N2 H1 1_555 1_555
N3 N2 1_555 1_555
H2 N3 1_555 1_555
C1 H3 1_555 1_555
C2 C1 1_555 1_555
H4 C2 1_555 1_555
C3 C2 1_555 1_555
H5 C3 1_555 1_555
C4 C3 1_555 1_555
H6 C4 1_555 1_555
C5 C4 1_555 1_555
H7 C5 1_555 1_555
C6 N3 1_555 1_555
C7 N2 1_555 1_555
C8 C7 1_555 1_555
C9 C8 1_555 1_555
C10 O3 1_555 1_555
C11 C10 1_555 1_555
C12 C8 1_555 1_555
H8 C12 1_555 1_555
C13 C11 1_555 1_555
H9 C13 1_555 1_555
C14 C13 1_555 1_555
H10 C14 1_555 1_555
C15 C14 1_555 1_555
C16 C10 1_555 1_555
H11 C16 1_555 1_555
C17 N1 1_555 1_555
H12 C17 1_555 1_555
H13 C17 1_555 1_555
C18 C17 1_555 1_555
H14 C18 1_555 1_555
H15 C18 1_555 1_555
H16 C18 1_555 1_555
C19 N1 1_555 1_555
H17 C19 1_555 1_555
H18 C19 1_555 1_555
C20 C19 1_555 1_555
H19 C20 1_555 1_555
H20 C20 1_555 1_555
H21 C20 1_555 1_555
C1 C6 1_555 1_555
C5 C6 1_555 1_555
C11 C12 1_555 1_555
C15 C16 1_555 1_555

#END
