
#######################################################################
#
#                 Cambridge Crystallographic Data Centre
#                                CCDC 
#
#######################################################################
#
# If this CIF has been generated from an entry in the Cambridge 
# Structural Database, then it will include bibliographic, chemical, 
# crystal, experimental, refinement or atomic coordinate data resulting 
# from the CCDC's data processing and validation procedures.
#
#######################################################################

data_MUGXER
_chemical_formula_moiety         'C27 H30 N2'
_chemical_name_systematic        
3-N-benzyl-3-azabicyclo(4.1.0)heptyl-1-N,N-dibenzylamine
_symmetry_cell_setting           triclinic
_symmetry_space_group_name_H-M   'P -1'
_symmetry_Int_Tables_number      2
_space_group_name_Hall           '-P 1'
loop_
_symmetry_equiv_pos_site_id
_symmetry_equiv_pos_as_xyz
1 x,y,z
2 -x,-y,-z
_cell_length_a                   6.0829(4)
_cell_length_b                   9.8909(6)
_cell_length_c                   18.028(1)
_cell_angle_alpha                96.586(2)
_cell_angle_beta                 90.077(2)
_cell_angle_gamma                91.642(2)
_cell_volume                     1077.05
_exptl_crystal_colour            colorless
_exptl_crystal_description       plate
_cell_formula_units_Z            2
loop_
_atom_site_label
_atom_site_type_symbol
_atom_site_fract_x
_atom_site_fract_y
_atom_site_fract_z
N1 N 0.18479(18) 0.46803(11) 0.32423(6)
N2 N 0.20620(18) 0.68535(11) 0.16306(6)
C1 C 0.2800(2) 0.60600(12) 0.22141(7)
C2 C 0.1133(2) 0.57517(13) 0.28039(7)
C3 C 0.2237(2) 0.34385(13) 0.27360(7)
C4 C 0.4320(2) 0.36201(13) 0.22813(7)
C5 C 0.4443(2) 0.49836(13) 0.19639(7)
C6 C 0.5171(2) 0.62644(14) 0.24540(7)
C7 C 0.1204(2) 0.81867(13) 0.19294(7)
C8 C 0.2992(2) 0.91096(13) 0.23085(7)
C9 C 0.2931(2) 0.95456(14) 0.30688(7)
C10 C 0.4662(3) 1.03304(15) 0.34202(8)
C11 C 0.6474(3) 1.06823(15) 0.30094(9)
C12 C 0.6528(2) 1.02822(14) 0.22444(9)
C13 C 0.4796(2) 0.95134(13) 0.18956(8)
C14 C 0.0456(2) 0.60667(14) 0.11226(7)
C15 C 0.0008(2) 0.67920(13) 0.04446(7)
C16 C 0.1669(2) 0.69654(15) -0.00737(8)
C17 C 0.1286(2) 0.76767(16) -0.06820(8)
C18 C -0.0756(2) 0.82340(16) -0.07770(8)
C19 C -0.2429(2) 0.80593(16) -0.02703(8)
C20 C -0.2052(2) 0.73303(15) 0.03363(7)
C21 C 0.0143(2) 0.44356(14) 0.37877(7)
C22 C 0.0854(2) 0.35349(13) 0.43644(7)
C23 C 0.2977(2) 0.36391(15) 0.46657(8)
C24 C 0.3541(3) 0.28653(18) 0.52357(8)
C25 C 0.2007(3) 0.19661(16) 0.54971(8)
C26 C -0.0093(3) 0.18441(16) 0.51943(8)
C27 C -0.0663(3) 0.26288(15) 0.46337(8)
H1 H -0.033(3) 0.5473(16) 0.2547(9)
H2 H 0.091(3) 0.6600(17) 0.3170(9)
H3 H 0.091(3) 0.3214(17) 0.2392(9)
H4 H 0.237(3) 0.2646(17) 0.3036(9)
H5 H 0.435(3) 0.2891(17) 0.1866(9)
H6 H 0.565(3) 0.3532(17) 0.2603(9)
H7 H 0.485(3) 0.4954(16) 0.1438(9)
H8 H 0.605(3) 0.6927(16) 0.2231(9)
H9 H 0.550(3) 0.6178(16) 0.2995(9)
H10 H 0.058(2) 0.8598(16) 0.1498(9)
H11 H -0.005(3) 0.8114(16) 0.2278(9)
H12 H 0.166(3) 0.9275(17) 0.3363(9)
H13 H 0.462(3) 1.0629(19) 0.3962(10)
H14 H 0.772(3) 1.1198(19) 0.3246(10)
H15 H 0.780(3) 1.0536(18) 0.1955(10)
H16 H 0.487(3) 0.9229(17) 0.1371(9)
H17 H -0.099(3) 0.5900(16) 0.1387(9)
H18 H 0.108(3) 0.5146(17) 0.0958(9)
H19 H 0.314(3) 0.6581(18) -0.0011(10)
H20 H 0.245(3) 0.7796(18) -0.1035(10)
H21 H -0.102(3) 0.8738(17) -0.1208(9)
H22 H -0.383(3) 0.8460(18) -0.0326(9)
H23 H -0.325(3) 0.7195(17) 0.0697(9)
H24 H -0.129(3) 0.4038(16) 0.3543(9)
H25 H -0.027(3) 0.5342(17) 0.4048(9)
H26 H 0.409(3) 0.4278(18) 0.4471(10)
H27 H 0.503(3) 0.298(2) 0.5434(11)
H28 H 0.244(3) 0.1437(19) 0.5892(10)
H29 H -0.116(3) 0.121(2) 0.5364(11)
H30 H -0.214(3) 0.2553(17) 0.4415(9)
loop_
_geom_bond_atom_site_label_1
_geom_bond_atom_site_label_2
_geom_bond_site_symmetry_1
_geom_bond_site_symmetry_2
N1 C2 1_555 1_555
N2 C1 1_555 1_555
C1 C2 1_555 1_555
C2 H1 1_555 1_555
C3 N1 1_555 1_555
C4 C3 1_555 1_555
C5 C1 1_555 1_555
C6 C1 1_555 1_555
C7 N2 1_555 1_555
C8 C7 1_555 1_555
C9 C8 1_555 1_555
C10 C9 1_555 1_555
C11 C10 1_555 1_555
C12 C11 1_555 1_555
C13 C8 1_555 1_555
C14 N2 1_555 1_555
C15 C14 1_555 1_555
C16 C15 1_555 1_555
C17 C16 1_555 1_555
C18 C17 1_555 1_555
C19 C18 1_555 1_555
C20 C15 1_555 1_555
C21 N1 1_555 1_555
C22 C21 1_555 1_555
C23 C22 1_555 1_555
C24 C23 1_555 1_555
C25 C24 1_555 1_555
C26 C25 1_555 1_555
C27 C22 1_555 1_555
H2 C2 1_555 1_555
H3 C3 1_555 1_555
H4 C3 1_555 1_555
H5 C4 1_555 1_555
H6 C4 1_555 1_555
H7 C5 1_555 1_555
H8 C6 1_555 1_555
H9 C6 1_555 1_555
H10 C7 1_555 1_555
H11 C7 1_555 1_555
H12 C9 1_555 1_555
H13 C10 1_555 1_555
H14 C11 1_555 1_555
H15 C12 1_555 1_555
H16 C13 1_555 1_555
H17 C14 1_555 1_555
H18 C14 1_555 1_555
H19 C16 1_555 1_555
H20 C17 1_555 1_555
H21 C18 1_555 1_555
H22 C19 1_555 1_555
H23 C20 1_555 1_555
H24 C21 1_555 1_555
H25 C21 1_555 1_555
H26 C23 1_555 1_555
H27 C24 1_555 1_555
H28 C25 1_555 1_555
H29 C26 1_555 1_555
H30 C27 1_555 1_555
C4 C5 1_555 1_555
C5 C6 1_555 1_555
C12 C13 1_555 1_555
C19 C20 1_555 1_555
C26 C27 1_555 1_555

#END
