
#######################################################################
#
#                 Cambridge Crystallographic Data Centre
#                                CCDC 
#
#######################################################################
#
# If this CIF has been generated from an entry in the Cambridge 
# Structural Database, then it will include bibliographic, chemical, 
# crystal, experimental, refinement or atomic coordinate data resulting 
# from the CCDC's data processing and validation procedures.
#
#######################################################################

data_MUGXAN
_chemical_formula_moiety         'C26 H28 N2'
_chemical_name_systematic        
3-Benzyl-3-azabicyclo(3.1.0)hexyl-1-N,N-dibenzylamine
_symmetry_cell_setting           triclinic
_symmetry_space_group_name_H-M   'P -1'
_symmetry_Int_Tables_number      2
_space_group_name_Hall           '-P 1'
loop_
_symmetry_equiv_pos_site_id
_symmetry_equiv_pos_as_xyz
1 x,y,z
2 -x,-y,-z
_cell_length_a                   5.9783(2)
_cell_length_b                   10.6105(4)
_cell_length_c                   16.7535(7)
_cell_angle_alpha                84.071(2)
_cell_angle_beta                 87.981(2)
_cell_angle_gamma                76.457(2)
_cell_volume                     1027.58
_exptl_crystal_colour            colorless
_exptl_crystal_description       prism
_chemical_melting_point          '76-79 deg.C'
_cell_formula_units_Z            2
_exptl_crystal_recrystallization_method 'diethyl ether/hexane'
loop_
_atom_site_label
_atom_site_type_symbol
_atom_site_fract_x
_atom_site_fract_y
_atom_site_fract_z
N1 N 0.18713(14) 0.32500(8) 0.05387(5)
N2 N 0.20895(14) 0.45629(8) 0.25168(5)
C1 C 0.06570(16) 0.40396(9) 0.11672(6)
C2 C 0.25621(15) 0.41420(9) 0.17227(5)
C3 C 0.47085(17) 0.44058(10) 0.13047(6)
C4 C 0.45621(16) 0.30124(9) 0.15680(6)
C5 C 0.37586(17) 0.22692(9) 0.09548(6)
C6 C 0.02855(17) 0.26864(10) 0.01262(6)
C7 C 0.13172(17) 0.19915(9) -0.05941(6)
C8 C 0.33054(18) 0.22150(10) -0.09950(6)
C9 C 0.41520(19) 0.15688(11) -0.16688(6)
C10 C 0.3007(2) 0.07081(10) -0.19558(6)
C11 C 0.1014(2) 0.04879(11) -0.15645(6)
C12 C 0.01875(19) 0.11180(10) -0.08855(6)
C13 C 0.06285(17) 0.38537(9) 0.30220(6)
C14 C 0.18361(17) 0.24570(9) 0.32746(5)
C15 C 0.39796(18) 0.21770(10) 0.36495(6)
C16 C 0.50227(18) 0.09073(10) 0.39461(6)
C17 C 0.3932(2) -0.01014(10) 0.38692(7)
C18 C 0.1823(2) 0.01595(10) 0.34886(7)
C19 C 0.07799(18) 0.14367(10) 0.31891(6)
C20 C 0.11915(18) 0.59863(9) 0.25037(6)
C21 C 0.14053(17) 0.64211(9) 0.33252(6)
C22 C 0.35546(18) 0.61442(10) 0.36936(6)
C23 C 0.37615(19) 0.64781(10) 0.44676(6)
C24 C 0.1814(2) 0.70972(11) 0.48822(6)
C25 C -0.03299(19) 0.73936(11) 0.45178(6)
C26 C -0.05312(18) 0.70551(10) 0.37425(6)
H1 H -0.024(2) 0.4880(13) 0.0910(8)
H2 H -0.043(2) 0.3581(13) 0.1485(8)
H3 H 0.570(2) 0.4772(14) 0.1636(9)
H4 H 0.467(2) 0.4705(14) 0.0716(9)
H5 H 0.554(2) 0.2524(13) 0.2021(8)
H6 H 0.319(2) 0.1530(13) 0.1246(8)
H7 H 0.494(2) 0.1895(13) 0.0560(8)
H8 H -0.038(2) 0.2066(13) 0.0508(8)
H9 H -0.106(3) 0.3411(14) -0.0057(9)
H10 H 0.410(3) 0.2852(15) -0.0803(9)
H11 H 0.554(3) 0.1747(15) -0.1941(9)
H12 H 0.361(3) 0.0236(15) -0.2428(10)
H13 H 0.019(3) -0.0114(15) -0.1771(10)
H14 H -0.121(3) 0.0940(15) -0.0615(9)
H15 H -0.092(2) 0.3887(14) 0.2759(8)
H16 H 0.021(2) 0.4326(13) 0.3517(8)
H17 H 0.472(3) 0.2896(14) 0.3710(9)
H18 H 0.652(3) 0.0737(15) 0.4225(9)
H19 H 0.464(3) -0.0981(16) 0.4087(9)
H20 H 0.102(3) -0.0528(15) 0.3419(9)
H21 H -0.073(3) 0.1637(15) 0.2916(9)
H22 H -0.045(2) 0.6278(13) 0.2328(8)
H23 H 0.211(2) 0.6415(14) 0.2097(9)
H24 H 0.495(3) 0.5671(14) 0.3400(9)
H25 H 0.526(3) 0.6274(15) 0.4718(9)
H26 H 0.192(3) 0.7340(15) 0.5423(10)
H27 H -0.171(3) 0.7813(14) 0.4807(9)
H28 H -0.203(2) 0.7268(13) 0.3491(8)
loop_
_geom_bond_atom_site_label_1
_geom_bond_atom_site_label_2
_geom_bond_site_symmetry_1
_geom_bond_site_symmetry_2
N1 C1 1_555 1_555
N2 C2 1_555 1_555
C1 C2 1_555 1_555
C2 C3 1_555 1_555
C3 C4 1_555 1_555
C4 C2 1_555 1_555
C5 N1 1_555 1_555
C6 N1 1_555 1_555
C7 C6 1_555 1_555
C8 C7 1_555 1_555
C9 C8 1_555 1_555
C10 C9 1_555 1_555
C11 C10 1_555 1_555
C12 C7 1_555 1_555
C13 N2 1_555 1_555
C14 C13 1_555 1_555
C15 C14 1_555 1_555
C16 C15 1_555 1_555
C17 C16 1_555 1_555
C18 C17 1_555 1_555
C19 C14 1_555 1_555
C20 N2 1_555 1_555
C21 C20 1_555 1_555
C22 C21 1_555 1_555
C23 C22 1_555 1_555
C24 C23 1_555 1_555
C25 C24 1_555 1_555
C26 C21 1_555 1_555
H1 C1 1_555 1_555
H2 C1 1_555 1_555
H3 C3 1_555 1_555
H4 C3 1_555 1_555
H5 C4 1_555 1_555
H6 C5 1_555 1_555
H7 C5 1_555 1_555
H8 C6 1_555 1_555
H9 C6 1_555 1_555
H10 C8 1_555 1_555
H11 C9 1_555 1_555
H12 C10 1_555 1_555
H13 C11 1_555 1_555
H14 C12 1_555 1_555
H15 C13 1_555 1_555
H16 C13 1_555 1_555
H17 C15 1_555 1_555
H18 C16 1_555 1_555
H19 C17 1_555 1_555
H20 C18 1_555 1_555
H21 C19 1_555 1_555
H22 C20 1_555 1_555
H23 C20 1_555 1_555
H24 C22 1_555 1_555
H25 C23 1_555 1_555
H26 C24 1_555 1_555
H27 C25 1_555 1_555
H28 C26 1_555 1_555
C4 C5 1_555 1_555
C11 C12 1_555 1_555
C18 C19 1_555 1_555
C25 C26 1_555 1_555

#END
