
#######################################################################
#
#                 Cambridge Crystallographic Data Centre
#                                CCDC 
#
#######################################################################
#
# If this CIF has been generated from an entry in the Cambridge 
# Structural Database, then it will include bibliographic, chemical, 
# crystal, experimental, refinement or atomic coordinate data resulting 
# from the CCDC's data processing and validation procedures.
#
#######################################################################

data_MUGXIV
_chemical_formula_moiety         'C12 H16 N2,C12 H17 N2 1+,Cl1 1-'
_chemical_name_systematic        
'bis(3-Benzyl-3-azabicyclo(3.1.0)hex-1-ylamine) hydrochloride'
_symmetry_cell_setting           orthorhombic
_symmetry_space_group_name_H-M   'A b a 2'
_symmetry_Int_Tables_number      41
_space_group_name_Hall           'A 2 -2ab'
loop_
_symmetry_equiv_pos_site_id
_symmetry_equiv_pos_as_xyz
1 x,y,z
2 -x,-y,z
3 1/2+x,1/2-y,z
4 1/2-x,1/2+y,z
5 x,1/2+y,1/2+z
6 -x,1/2-y,1/2+z
7 1/2+x,-y,1/2+z
8 1/2-x,y,1/2+z
_cell_length_a                   10.2447(3)
_cell_length_b                   39.482(1)
_cell_length_c                   11.5005(3)
_cell_angle_alpha                90
_cell_angle_beta                 90
_cell_angle_gamma                90
_cell_volume                     4651.74
_exptl_crystal_colour            colorless
_exptl_crystal_description       plate
_cell_formula_units_Z            8
loop_
_atom_site_label
_atom_site_type_symbol
_atom_site_fract_x
_atom_site_fract_y
_atom_site_fract_z
Cl1 Cl 0.0000 1.0000 0.65083(5)
Cl2 Cl 0.5000 1.0000 0.62970(6)
N1 N 0.7396(2) 0.96690(5) 0.81631(17)
C1 C 0.7552(3) 0.93399(7) 0.8664(2)
C2 C 0.8139(3) 0.93061(7) 0.9852(2)
H1 H 0.8718 0.9116 0.9992
H2 H 0.8370 0.9513 1.0260
C3 C 0.6716(4) 0.92320(7) 0.9682(3)
H3 H 0.6052 0.9385 0.9998
C4 C 0.6408(3) 0.88620(7) 0.9479(3)
H4 H 0.6439 0.8736 1.0202
H5 H 0.5550 0.8835 0.9134
N2 N 0.7433(3) 0.87480(7) 0.8675(3)
C5 C 0.7643(3) 0.90338(7) 0.7875(2)
H6 H 0.6975 0.9040 0.7278
H7 H 0.8493 0.9020 0.7508
C6 C 0.7205(3) 0.84251(6) 0.8090(2)
H8 H 0.7892 0.8389 0.7523
H9 H 0.6383 0.8437 0.7673
C7 C 0.7165(2) 0.81268(5) 0.8910(2)
C8 C 0.8104(3) 0.80880(8) 0.9768(2)
H10 H 0.8760 0.8249 0.9845
C9 C 0.8075(3) 0.78140(9) 1.0505(3)
H11 H 0.8708 0.7792 1.1080
C10 C 0.7116(4) 0.75712(7) 1.0398(3)
H12 H 0.7109 0.7383 1.0887
C11 C 0.6177(3) 0.76095(7) 0.9568(3)
H13 H 0.5519 0.7448 0.9500
C12 C 0.6191(2) 0.78854(6) 0.8824(3)
H14 H 0.5543 0.7909 0.8264
H29 H 0.819(2) 0.9721(6) 0.758(2)
H30 H 0.658(2) 0.9727(6) 0.768(2)
N3 N 0.25876(19) 0.98246(5) -0.01197(17)
C13 C 0.2621(2) 0.94773(6) -0.0583(2)
C14 C 0.3405(2) 0.94035(6) -0.1656(2)
H15 H 0.3897 0.9194 -0.1679
H16 H 0.3810 0.9593 -0.2053
C15 C 0.1925(2) 0.93803(6) -0.16760(19)
H17 H 0.1419 0.9551 -0.2100
C16 C 0.1340(2) 0.90385(6) -0.14513(19)
H18 H 0.0423 0.9058 -0.1251
H19 H 0.1427 0.8893 -0.2127
N4 N 0.21056(18) 0.89052(5) -0.04610(16)
C17 C 0.2422(2) 0.91958(5) 0.0280(2)
H20 H 0.3209 0.9155 0.0727
H21 H 0.1711 0.9247 0.0808
C18 C 0.1449(2) 0.86307(6) 0.0158(2)
H22 H 0.1079 0.8475 -0.0403
H23 H 0.0737 0.8724 0.0613
C19 C 0.2359(2) 0.84398(6) 0.09534(19)
C20 C 0.3641(2) 0.83775(6) 0.0638(2)
H24 H 0.3959 0.8463 -0.0061
C21 C 0.4451(3) 0.81903(6) 0.1348(2)
H25 H 0.5314 0.8153 0.1131
C22 C 0.3988(3) 0.80571(6) 0.2380(2)
H26 H 0.4535 0.7930 0.2854
C23 C 0.2721(3) 0.81135(7) 0.2703(2)
H27 H 0.2403 0.8023 0.3393
C24 C 0.1914(3) 0.83054(6) 0.1999(2)
H28 H 0.1057 0.8345 0.2229
H31 H 0.1751(19) 0.9881(6) 0.035(2)
H32 H 0.340(2) 0.9872(6) 0.041(2)
H33 H 0.261(2) 0.9995(6) -0.0789(19)
C25? C 0.6942(14) 0.9308(4) 0.8668(13)
C26? C 0.5992(14) 0.9280(3) 0.9650(12)
C27? C 0.7404(18) 0.9210(4) 0.9786(13)
C28? C 0.7729(11) 0.8816(3) 0.9693(11)
N5? N 0.6994(13) 0.8711(4) 0.8649(16)
C29? C 0.6985(14) 0.8997(4) 0.7851(12)
loop_
_geom_bond_atom_site_label_1
_geom_bond_atom_site_label_2
_geom_bond_site_symmetry_1
_geom_bond_site_symmetry_2
N1 C1 1_555 1_555
C1 C2 1_555 1_555
C2 H1 1_555 1_555
H2 C2 1_555 1_555
C3 C1 1_555 1_555
H3 C3 1_555 1_555
C4 C3 1_555 1_555
H4 C4 1_555 1_555
H5 C4 1_555 1_555
N2 C4 1_555 1_555
C5 C1 1_555 1_555
H6 C5 1_555 1_555
H7 C5 1_555 1_555
C6 N2 1_555 1_555
H8 C6 1_555 1_555
H9 C6 1_555 1_555
C7 C6 1_555 1_555
C8 C7 1_555 1_555
H10 C8 1_555 1_555
C9 C8 1_555 1_555
H11 C9 1_555 1_555
C10 C9 1_555 1_555
H12 C10 1_555 1_555
C11 C10 1_555 1_555
H13 C11 1_555 1_555
C12 C7 1_555 1_555
H14 C12 1_555 1_555
N3 C13 1_555 1_555
C13 C14 1_555 1_555
C14 H15 1_555 1_555
H16 C14 1_555 1_555
C15 C13 1_555 1_555
H17 C15 1_555 1_555
C16 C15 1_555 1_555
H18 C16 1_555 1_555
H19 C16 1_555 1_555
N4 C16 1_555 1_555
C17 C13 1_555 1_555
H20 C17 1_555 1_555
H21 C17 1_555 1_555
C18 N4 1_555 1_555
H22 C18 1_555 1_555
H23 C18 1_555 1_555
C19 C18 1_555 1_555
C20 C19 1_555 1_555
H24 C20 1_555 1_555
C21 C20 1_555 1_555
H25 C21 1_555 1_555
C22 C21 1_555 1_555
H26 C22 1_555 1_555
C23 C22 1_555 1_555
H27 C23 1_555 1_555
C24 C19 1_555 1_555
H28 C24 1_555 1_555
H29 N1 1_555 1_555
H30 N1 1_555 1_555
H31 N3 1_555 1_555
H32 N3 1_555 1_555
H33 N3 1_555 1_555
C2 C3 1_555 1_555
N2 C5 1_555 1_555
C11 C12 1_555 1_555
C14 C15 1_555 1_555
N4 C17 1_555 1_555
C23 C24 1_555 1_555

#END
