
#######################################################################
#
#                 Cambridge Crystallographic Data Centre
#                                CCDC 
#
#######################################################################
#
# If this CIF has been generated from an entry in the Cambridge 
# Structural Database, then it will include bibliographic, chemical, 
# crystal, experimental, refinement or atomic coordinate data resulting 
# from the CCDC's data processing and validation procedures.
#
#######################################################################

data_MUHTUG
_chemical_formula_moiety         'C24 H23 Cl1 O5 S1'
_chemical_name_systematic        
'Diethyl 2-(2-(3-chlorophenyl)-2-oxoethylidene)-5-phenyldihydrothiophene-3,3(2H)-dicarboxylate'
_symmetry_cell_setting           triclinic
_symmetry_space_group_name_H-M   'P -1'
_symmetry_Int_Tables_number      2
_space_group_name_Hall           '-P 1'
loop_
_symmetry_equiv_pos_site_id
_symmetry_equiv_pos_as_xyz
1 x,y,z
2 -x,-y,-z
_cell_length_a                   8.750(2)
_cell_length_b                   11.792(3)
_cell_length_c                   12.599(3)
_cell_angle_alpha                63.166(11)
_cell_angle_beta                 74.738(14)
_cell_angle_gamma                83.873(16)
_cell_volume                     1118.96
_exptl_crystal_colour            'light yellow'
_exptl_crystal_description       plate
_cell_formula_units_Z            2
loop_
_atom_site_label
_atom_site_type_symbol
_atom_site_fract_x
_atom_site_fract_y
_atom_site_fract_z
Cl1 Cl 0.89375(19) 0.15036(14) -0.04068(14)
S1 S 0.35604(14) 0.47646(11) 0.38220(12)
O1 O 0.3865(4) 0.2439(3) 0.3717(4)
O2 O 0.7718(4) 0.6594(3) 0.2927(3)
O3 O 0.8484(4) 0.5412(3) 0.1895(3)
O4 O 0.5717(5) 0.6560(4) -0.0068(4)
O5 O 0.7274(6) 0.7799(4) 0.0086(3)
C1 C 0.5906(5) 0.1741(4) 0.2479(4)
C2 C 0.6945(6) 0.2078(4) 0.1330(5)
H1 H 0.7131 0.2928 0.0767
C3 C 0.7701(6) 0.1110(4) 0.1043(5)
C4 C 0.7488(6) -0.0135(4) 0.1891(5)
H2 H 0.8029 -0.0770 0.1705
C5 C 0.6452(6) -0.0447(5) 0.3039(5)
H3 H 0.6317 -0.1290 0.3625
C6 C 0.5637(6) 0.0486(5) 0.3304(5)
H4 H 0.4895 0.0268 0.4048
C7 C 0.5015(6) 0.2751(5) 0.2828(5)
C8 C 0.5625(6) 0.4022(4) 0.2166(5)
H5 H 0.6406 0.4237 0.1441
C9 C 0.5099(6) 0.4940(4) 0.2560(4)
C10 C 0.5904(6) 0.6241(4) 0.1949(4)
C11 C 0.4732(6) 0.7092(4) 0.2409(4)
H6 H 0.5288 0.7819 0.2305
H7 H 0.3925 0.7401 0.1947
C12 C 0.3983(6) 0.6298(4) 0.3748(5)
H8 H 0.4773 0.6164 0.4218
C13 C 0.2545(5) 0.6905(4) 0.4249(4)
C14 C 0.1082(6) 0.6948(5) 0.4006(5)
H9 H 0.0938 0.6555 0.3544
C15 C -0.0170(6) 0.7572(5) 0.4442(5)
H10 H -0.1150 0.7587 0.4278
C16 C 0.0029(6) 0.8173(5) 0.5121(5)
H11 H -0.0810 0.8593 0.5414
C17 C 0.1488(6) 0.8140(5) 0.5357(5)
H12 H 0.1642 0.8553 0.5799
C18 C 0.2716(6) 0.7499(4) 0.4943(5)
H13 H 0.3684 0.7464 0.5132
C19 C 0.7450(5) 0.6116(4) 0.2332(4)
C20 C 0.9974(6) 0.5120(5) 0.2261(5)
H14 H 0.9787 0.4610 0.3140
H15 H 1.0525 0.5897 0.2038
C21 C 1.0923(7) 0.4408(7) 0.1609(7)
H16 H 1.1033 0.4898 0.0742
H17 H 1.0400 0.3614 0.1881
H18 H 1.1952 0.4248 0.1779
C22 C 0.6269(7) 0.6871(5) 0.0536(5)
C23 C 0.7811(12) 0.8562(7) -0.1292(7)
H19 H 0.8934 0.8768 -0.1547
H20 H 0.7592 0.8110 -0.1717
C24 C 0.6858(11) 0.9694(9) -0.1506(8)
H21 H 0.7146 1.0281 -0.2359
H22 H 0.7038 1.0083 -0.1024
H23 H 0.5757 0.9465 -0.1276
loop_
_geom_bond_atom_site_label_1
_geom_bond_atom_site_label_2
_geom_bond_site_symmetry_1
_geom_bond_site_symmetry_2
Cl1 C3 1_555 1_555
S1 C9 1_555 1_555
O1 C7 1_555 1_555
O2 C19 1_555 1_555
O3 C19 1_555 1_555
O4 C22 1_555 1_555
O5 C22 1_555 1_555
C1 C2 1_555 1_555
C2 H1 1_555 1_555
C3 C2 1_555 1_555
C4 C3 1_555 1_555
H2 C4 1_555 1_555
C5 C4 1_555 1_555
H3 C5 1_555 1_555
C6 C1 1_555 1_555
H4 C6 1_555 1_555
C7 C1 1_555 1_555
C8 C7 1_555 1_555
H5 C8 1_555 1_555
C9 C8 1_555 1_555
C10 C9 1_555 1_555
C11 C10 1_555 1_555
H6 C11 1_555 1_555
H7 C11 1_555 1_555
C12 S1 1_555 1_555
H8 C12 1_555 1_555
C13 C12 1_555 1_555
C14 C13 1_555 1_555
H9 C14 1_555 1_555
C15 C14 1_555 1_555
H10 C15 1_555 1_555
C16 C15 1_555 1_555
H11 C16 1_555 1_555
C17 C16 1_555 1_555
H12 C17 1_555 1_555
C18 C13 1_555 1_555
H13 C18 1_555 1_555
C19 C10 1_555 1_555
C20 O3 1_555 1_555
H14 C20 1_555 1_555
H15 C20 1_555 1_555
C21 C20 1_555 1_555
H16 C21 1_555 1_555
H17 C21 1_555 1_555
H18 C21 1_555 1_555
C22 C10 1_555 1_555
C23 O5 1_555 1_555
H19 C23 1_555 1_555
H20 C23 1_555 1_555
C24 C23 1_555 1_555
H21 C24 1_555 1_555
H22 C24 1_555 1_555
H23 C24 1_555 1_555
C5 C6 1_555 1_555
C11 C12 1_555 1_555
C17 C18 1_555 1_555

#END
