
#######################################################################
#
#                 Cambridge Crystallographic Data Centre
#                                CCDC 
#
#######################################################################
#
# If this CIF has been generated from an entry in the Cambridge 
# Structural Database, then it will include bibliographic, chemical, 
# crystal, experimental, refinement or atomic coordinate data resulting 
# from the CCDC's data processing and validation procedures.
#
#######################################################################

data_MUHVUI
_chemical_formula_moiety         'C22 H22 O5 S2'
_chemical_name_systematic        
'Diethyl 2-(2-oxo-2-(2-thienyl)ethylidene)-5-phenyldihydrothiophene-3,3(2H)-dicarboxylate'
_symmetry_cell_setting           monoclinic
_symmetry_space_group_name_H-M   'I 2/c'
_symmetry_Int_Tables_number      15
_space_group_name_Hall           '-I 2yc'
loop_
_symmetry_equiv_pos_site_id
_symmetry_equiv_pos_as_xyz
1 x,y,z
2 -x,y,1/2-z
3 1/2+x,1/2+y,1/2+z
4 1/2-x,1/2+y,-z
5 -x,-y,-z
6 x,-y,1/2+z
7 1/2-x,1/2-y,1/2-z
8 1/2+x,1/2-y,z
_cell_length_a                   16.4871(5)
_cell_length_b                   12.8345(3)
_cell_length_c                   21.2978(7)
_cell_angle_alpha                90
_cell_angle_beta                 112.389(4)
_cell_angle_gamma                90
_cell_volume                     4166.97
_exptl_crystal_colour            colorless
_exptl_crystal_description       block
_cell_formula_units_Z            8
loop_
_atom_site_label
_atom_site_type_symbol
_atom_site_fract_x
_atom_site_fract_y
_atom_site_fract_z
S1 S 0.13265(4) 0.69751(4) 0.27041(3)
S2 S 0.21669(4) 0.45024(5) 0.50940(3)
O1 O 0.26452(12) 0.57268(13) 0.16672(9)
O2 O 0.25571(10) 0.42711(12) 0.22224(8)
O3 O 0.01813(11) 0.40875(14) 0.17369(9)
O4 O 0.08454(11) 0.41516(14) 0.09872(8)
O5 O 0.15753(11) 0.60351(13) 0.39549(8)
C1 C -0.00061(18) 1.0118(2) 0.09322(13)
H1 H -0.0297 1.0733 0.0713
C2 C -0.03965(17) 0.9460(2) 0.12547(14)
H2 H -0.0957 0.9625 0.1258
C3 C 0.00383(17) 0.8553(2) 0.15748(13)
H3 H -0.0228 0.8103 0.1795
C4 C 0.08534(17) 0.83092(19) 0.15713(12)
C5 C 0.12356(16) 0.8968(2) 0.12528(13)
H4 H 0.1797 0.8805 0.1252
C6 C 0.08093(18) 0.9866(2) 0.09337(14)
H5 H 0.1080 1.0311 0.0714
C7 C 0.13282(15) 0.7299(2) 0.18622(12)
H6 H 0.1950 0.7362 0.1902
C8 C 0.13699(14) 0.56368(18) 0.25830(11)
C9 C 0.13106(15) 0.53837(18) 0.18625(11)
C10 C 0.09215(16) 0.63518(18) 0.14312(12)
H7 H 0.1057 0.6348 0.1016
H8 H 0.0276 0.6362 0.1294
C11 C 0.22440(15) 0.51635(17) 0.18951(11)
C12 C 0.34558(15) 0.40264(19) 0.23085(13)
H9 H 0.3854 0.4602 0.2546
H10 H 0.3497 0.3920 0.1861
C13 C 0.37010(17) 0.3045(2) 0.27231(14)
H11 H 0.3291 0.2487 0.2488
H12 H 0.3673 0.3167 0.3169
H13 H 0.4298 0.2840 0.2783
C14 C 0.07132(15) 0.44551(18) 0.15442(11)
C15 C 0.02582(16) 0.3344(2) 0.05742(12)
H14 H -0.0287 0.3663 0.0249
H15 H 0.0099 0.2854 0.0868
C16 C 0.07310(17) 0.2778(2) 0.01990(13)
H16 H 0.0338 0.2261 -0.0105
H17 H 0.1247 0.2426 0.0525
H18 H 0.0917 0.3277 -0.0068
C17 C 0.14750(16) 0.49026(19) 0.30571(12)
H19 H 0.1458 0.4192 0.2927
C18 C 0.16137(14) 0.51363(18) 0.37588(12)
C19 C 0.18388(14) 0.42513(18) 0.42366(11)
C20 C 0.23063(16) 0.3206(2) 0.52828(12)
H20 H 0.2508 0.2938 0.5732
C21 C 0.20977(16) 0.2599(2) 0.47203(13)
H21 H 0.2130 0.1860 0.4735
C22 C 0.18256(16) 0.3182(2) 0.41063(12)
H22 H 0.1657 0.2885 0.3666
loop_
_geom_bond_atom_site_label_1
_geom_bond_atom_site_label_2
_geom_bond_site_symmetry_1
_geom_bond_site_symmetry_2
S1 C7 1_555 1_555
S2 C19 1_555 1_555
O1 C11 1_555 1_555
O2 C11 1_555 1_555
O3 C14 1_555 1_555
O4 C14 1_555 1_555
O5 C18 1_555 1_555
C1 H1 1_555 1_555
C2 C1 1_555 1_555
H2 C2 1_555 1_555
C3 C2 1_555 1_555
H3 C3 1_555 1_555
C4 C3 1_555 1_555
C5 C4 1_555 1_555
H4 C5 1_555 1_555
C6 C1 1_555 1_555
H5 C6 1_555 1_555
C7 C4 1_555 1_555
H6 C7 1_555 1_555
C8 S1 1_555 1_555
C9 C8 1_555 1_555
C10 C7 1_555 1_555
H7 C10 1_555 1_555
H8 C10 1_555 1_555
C11 C9 1_555 1_555
C12 O2 1_555 1_555
H9 C12 1_555 1_555
H10 C12 1_555 1_555
C13 C12 1_555 1_555
H11 C13 1_555 1_555
H12 C13 1_555 1_555
H13 C13 1_555 1_555
C14 C9 1_555 1_555
C15 O4 1_555 1_555
H14 C15 1_555 1_555
H15 C15 1_555 1_555
C16 C15 1_555 1_555
H16 C16 1_555 1_555
H17 C16 1_555 1_555
H18 C16 1_555 1_555
C17 C8 1_555 1_555
H19 C17 1_555 1_555
C18 C17 1_555 1_555
C19 C18 1_555 1_555
C20 S2 1_555 1_555
H20 C20 1_555 1_555
C21 C20 1_555 1_555
H21 C21 1_555 1_555
C22 C19 1_555 1_555
H22 C22 1_555 1_555
C5 C6 1_555 1_555
C9 C10 1_555 1_555
C21 C22 1_555 1_555

#END
