
#######################################################################
#
#                 Cambridge Crystallographic Data Centre
#                                CCDC 
#
#######################################################################
#
# If this CIF has been generated from an entry in the Cambridge 
# Structural Database, then it will include bibliographic, chemical, 
# crystal, experimental, refinement or atomic coordinate data resulting 
# from the CCDC's data processing and validation procedures.
#
#######################################################################

data_MUJBOK
_chemical_formula_moiety         'C20 H24 Br1 N1 O4 S1'
_chemical_name_systematic        
'3-(((4-methylphenyl)sulfonyl)amino)hexyl 4-bromobenzoate'
_symmetry_cell_setting           monoclinic
_symmetry_space_group_name_H-M   'P 21'
_symmetry_Int_Tables_number      4
_space_group_name_Hall           'P 2yb'
loop_
_symmetry_equiv_pos_site_id
_symmetry_equiv_pos_as_xyz
1 x,y,z
2 -x,1/2+y,-z
_cell_length_a                   14.656(3)
_cell_length_b                   10.051(2)
_cell_length_c                   14.998(3)
_cell_angle_alpha                90
_cell_angle_beta                 104.87(3)
_cell_angle_gamma                90
_cell_volume                     2135.33
_exptl_crystal_colour            colorless
_exptl_crystal_description       Plate
_cell_formula_units_Z            4
loop_
_atom_site_label
_atom_site_type_symbol
_atom_site_fract_x
_atom_site_fract_y
_atom_site_fract_z
Br1 Br 0.14381(5) 0.05928(6) -0.46337(6)
S1 S 0.47066(11) 0.79101(16) -0.57953(11)
O1 O 0.1543(3) 0.7409(5) -0.4363(4)
O2 O 0.3092(3) 0.6880(4) -0.3852(3)
O3 O 0.5163(3) 0.6631(4) -0.5712(3)
O4 O 0.4925(3) 0.8909(5) -0.6385(3)
N1 N 0.4938(4) 0.8549(5) -0.4778(3)
H1 H 0.4569 0.9215 -0.4781
C1 C 0.1640(5) 0.2464(7) -0.4439(5)
C2 C 0.2570(5) 0.2878(7) -0.4055(5)
H2 H 0.3059 0.2264 -0.3888
C3 C 0.2738(5) 0.4226(7) -0.3933(5)
H3 H 0.3346 0.4529 -0.3663
C4 C 0.2007(4) 0.5130(7) -0.4210(5)
C5 C 0.1082(5) 0.4676(8) -0.4592(5)
H4 H 0.0591 0.5285 -0.4770
C6 C 0.0899(5) 0.3333(8) -0.4704(6)
H5 H 0.0288 0.3024 -0.4952
C7 C 0.2167(5) 0.6594(7) -0.4152(5)
C8 C 0.3333(5) 0.8282(6) -0.3813(5)
H6 H 0.2976 0.8764 -0.3455
H7 H 0.3188 0.8655 -0.4430
C9 C 0.4385(4) 0.8391(6) -0.3361(4)
H8 H 0.4514 0.7969 -0.2760
H9 H 0.4546 0.9325 -0.3264
C10 C 0.5023(5) 0.7769(7) -0.3906(4)
H10 H 0.4817 0.6853 -0.4067
C11 C 0.6050(4) 0.7751(7) -0.3325(4)
H11 H 0.6207 0.8634 -0.3070
H12 H 0.6093 0.7148 -0.2811
C12 C 0.6784(5) 0.7346(8) -0.3819(5)
H13 H 0.6784 0.7984 -0.4305
H14 H 0.6617 0.6485 -0.4106
C13 C 0.7787(5) 0.7267(9) -0.3166(5)
H15 H 0.8231 0.7046 -0.3515
H16 H 0.7802 0.6595 -0.2708
H17 H 0.7952 0.8112 -0.2869
C14 C 0.3479(5) 0.7589(7) -0.6195(4)
C15 C 0.3118(5) 0.6349(7) -0.6061(5)
H18 H 0.3516 0.5687 -0.5747
C16 C 0.2156(5) 0.6102(8) -0.6400(5)
H19 H 0.1919 0.5266 -0.6316
C17 C 0.1550(6) 0.7072(9) -0.6857(6)
C18 C 0.1920(6) 0.8299(10) -0.6992(6)
H20 H 0.1519 0.8955 -0.7312
C19 C 0.2882(5) 0.8576(8) -0.6658(5)
H21 H 0.3118 0.9412 -0.6745
C20 C 0.0502(6) 0.6764(12) -0.7247(8)
H22 H 0.0404 0.5820 -0.7235
H23 H 0.0300 0.7078 -0.7871
H24 H 0.0143 0.7200 -0.6879
Br2 Br -0.14426(5) 0.38315(7) -0.03169(7)
S2 S -0.46257(12) 1.10776(17) 0.06730(11)
O5 O -0.1507(4) 1.0638(5) -0.0683(4)
O6 O -0.3056(3) 1.0134(4) -0.1185(3)
O7 O -0.4965(4) 0.9737(5) 0.0508(4)
O8 O -0.4995(4) 1.1919(6) 0.1259(3)
N2 N -0.4830(4) 1.1819(5) -0.0310(3)
H25 H -0.4410 1.2426 -0.0281
C21 C -0.1654(5) 0.5687(7) -0.0483(5)
C22 C -0.0902(5) 0.6546(7) -0.0305(6)
H26 H -0.0288 0.6230 -0.0094
C23 C -0.1075(5) 0.7891(8) -0.0446(6)
H27 H -0.0574 0.8487 -0.0346
C24 C -0.1999(5) 0.8356(7) -0.0737(5)
C25 C -0.2751(5) 0.7486(7) -0.0903(4)
H28 H -0.3366 0.7804 -0.1096
C26 C -0.2581(4) 0.6127(7) -0.0778(5)
H29 H -0.3079 0.5525 -0.0891
C27 C -0.2139(5) 0.9816(7) -0.0860(5)
C28 C -0.3266(5) 1.1546(6) -0.1282(5)
H30 H -0.2889 1.1965 -0.1648
H31 H -0.3121 1.1968 -0.0680
C29 C -0.4311(4) 1.1696(7) -0.1754(4)
H32 H -0.4438 1.1257 -0.2349
H33 H -0.4448 1.2635 -0.1867
C30 C -0.4983(5) 1.1138(7) -0.1222(4)
H34 H -0.4867 1.0182 -0.1122
C31 C -0.6009(5) 1.1356(7) -0.1775(5)
H35 H -0.6094 1.2292 -0.1933
H36 H -0.6115 1.0861 -0.2348
C32 C -0.6755(5) 1.0948(8) -0.1288(5)
H37 H -0.6709 1.1528 -0.0761
H38 H -0.6623 1.0049 -0.1057
C33 C -0.7759(6) 1.1003(11) -0.1896(6)
H39 H -0.7842 1.0325 -0.2361
H40 H -0.7873 1.1860 -0.2186
H41 H -0.8195 1.0859 -0.1526
C34 C -0.3397(5) 1.0994(6) 0.1155(4)
C35 C -0.2907(5) 0.9846(8) 0.1104(5)
H42 H -0.3217 0.9089 0.0823
C36 C -0.1923(6) 0.9842(10) 0.1487(6)
H43 H -0.1586 0.9069 0.1451
C37 C -0.1440(6) 1.0948(11) 0.1915(6)
C38 C -0.1953(6) 1.2095(10) 0.1961(6)
H44 H -0.1650 1.2855 0.2244
C39 C -0.2923(5) 1.2100(8) 0.1582(5)
H45 H -0.3262 1.2871 0.1616
C40 C -0.0368(7) 1.0934(14) 0.2336(8)
H46 H -0.0233 1.0574 0.2948
H47 H -0.0127 1.1825 0.2359
H48 H -0.0072 1.0394 0.1962
loop_
_geom_bond_atom_site_label_1
_geom_bond_atom_site_label_2
_geom_bond_site_symmetry_1
_geom_bond_site_symmetry_2
Br1 C1 1_555 1_555
S1 O3 1_555 1_555
O1 C7 1_555 1_555
O2 C7 1_555 1_555
O4 S1 1_555 1_555
N1 S1 1_555 1_555
H1 N1 1_555 1_555
C1 C2 1_555 1_555
C2 H2 1_555 1_555
C3 C2 1_555 1_555
H3 C3 1_555 1_555
C4 C3 1_555 1_555
C5 C4 1_555 1_555
H4 C5 1_555 1_555
C6 C1 1_555 1_555
H5 C6 1_555 1_555
C7 C4 1_555 1_555
C8 O2 1_555 1_555
H6 C8 1_555 1_555
H7 C8 1_555 1_555
C9 C8 1_555 1_555
H8 C9 1_555 1_555
H9 C9 1_555 1_555
C10 N1 1_555 1_555
H10 C10 1_555 1_555
C11 C10 1_555 1_555
H11 C11 1_555 1_555
H12 C11 1_555 1_555
C12 C11 1_555 1_555
H13 C12 1_555 1_555
H14 C12 1_555 1_555
C13 C12 1_555 1_555
H15 C13 1_555 1_555
H16 C13 1_555 1_555
H17 C13 1_555 1_555
C14 S1 1_555 1_555
C15 C14 1_555 1_555
H18 C15 1_555 1_555
C16 C15 1_555 1_555
H19 C16 1_555 1_555
C17 C16 1_555 1_555
C18 C17 1_555 1_555
H20 C18 1_555 1_555
C19 C14 1_555 1_555
H21 C19 1_555 1_555
C20 C17 1_555 1_555
H22 C20 1_555 1_555
H23 C20 1_555 1_555
H24 C20 1_555 1_555
Br2 C21 1_555 1_555
S2 O7 1_555 1_555
O5 C27 1_555 1_555
O6 C27 1_555 1_555
O8 S2 1_555 1_555
N2 S2 1_555 1_555
H25 N2 1_555 1_555
C21 C22 1_555 1_555
C22 H26 1_555 1_555
C23 C22 1_555 1_555
H27 C23 1_555 1_555
C24 C23 1_555 1_555
C25 C24 1_555 1_555
H28 C25 1_555 1_555
C26 C21 1_555 1_555
H29 C26 1_555 1_555
C27 C24 1_555 1_555
C28 O6 1_555 1_555
H30 C28 1_555 1_555
H31 C28 1_555 1_555
C29 C28 1_555 1_555
H32 C29 1_555 1_555
H33 C29 1_555 1_555
C30 N2 1_555 1_555
H34 C30 1_555 1_555
C31 C30 1_555 1_555
H35 C31 1_555 1_555
H36 C31 1_555 1_555
C32 C31 1_555 1_555
H37 C32 1_555 1_555
H38 C32 1_555 1_555
C33 C32 1_555 1_555
H39 C33 1_555 1_555
H40 C33 1_555 1_555
H41 C33 1_555 1_555
C34 S2 1_555 1_555
C35 C34 1_555 1_555
H42 C35 1_555 1_555
C36 C35 1_555 1_555
H43 C36 1_555 1_555
C37 C36 1_555 1_555
C38 C37 1_555 1_555
H44 C38 1_555 1_555
C39 C34 1_555 1_555
H45 C39 1_555 1_555
C40 C37 1_555 1_555
H46 C40 1_555 1_555
H47 C40 1_555 1_555
H48 C40 1_555 1_555
C5 C6 1_555 1_555
C9 C10 1_555 1_555
C18 C19 1_555 1_555
C25 C26 1_555 1_555
C29 C30 1_555 1_555
C38 C39 1_555 1_555

#END
