
#######################################################################
#
#                 Cambridge Crystallographic Data Centre
#                                CCDC 
#
#######################################################################
#
# If this CIF has been generated from an entry in the Cambridge 
# Structural Database, then it will include bibliographic, chemical, 
# crystal, experimental, refinement or atomic coordinate data resulting 
# from the CCDC's data processing and validation procedures.
#
#######################################################################

data_MUJBAW
_chemical_formula_moiety         'C14 H18 Br1 N1 O4 S1'
_chemical_name_systematic        
4-(1-bromopropyl)-3-((4-methylphenyl)sulfonyl)-1,3-oxazinan-2-one
_symmetry_cell_setting           monoclinic
_symmetry_space_group_name_H-M   'P 21'
_symmetry_Int_Tables_number      4
_space_group_name_Hall           'P 2yb'
loop_
_symmetry_equiv_pos_site_id
_symmetry_equiv_pos_as_xyz
1 x,y,z
2 -x,1/2+y,-z
_cell_length_a                   6.4495(13)
_cell_length_b                   15.276(3)
_cell_length_c                   8.0516(16)
_cell_angle_alpha                90
_cell_angle_beta                 96.47(3)
_cell_angle_gamma                90
_cell_volume                     788.212
_exptl_crystal_colour            colorless
_exptl_crystal_description       Block
_cell_formula_units_Z            2
loop_
_atom_site_label
_atom_site_type_symbol
_atom_site_fract_x
_atom_site_fract_y
_atom_site_fract_z
Br1 Br 0.43832(3) 0.720021(16) 0.38909(2)
S1 S 0.36577(8) 0.92221(3) 0.05541(6)
O1 O 0.0631(2) 0.78577(10) -0.0271(2)
O2 O 0.2879(3) 0.68534(10) -0.0911(2)
O3 O 0.2466(3) 0.93546(11) 0.1918(2)
O4 O 0.5702(3) 0.96076(10) 0.0653(2)
N1 N 0.4120(3) 0.81525(10) 0.0279(2)
C1 C 0.2410(3) 0.76252(14) -0.0280(3)
C2 C 0.5034(4) 0.67363(13) -0.1244(3)
H1 H 0.5382 0.7165 -0.2091
H2 H 0.5228 0.6140 -0.1683
C3 C 0.6438(3) 0.68679(13) 0.0356(3)
H3 H 0.7905 0.6761 0.0162
H4 H 0.6067 0.6446 0.1208
C4 C 0.6204(3) 0.78016(12) 0.0984(3)
H5 H 0.7294 0.8167 0.0526
C5 C 0.6527(3) 0.78896(12) 0.2885(3)
H6 H 0.6323 0.8519 0.3165
C6 C 0.8708(3) 0.76298(14) 0.3621(3)
H7 H 0.9733 0.7987 0.3091
H8 H 0.8944 0.7009 0.3344
C7 C 0.9099(4) 0.77454(15) 0.5516(3)
H9 H 0.8652 0.8332 0.5818
H10 H 1.0591 0.7674 0.5882
H11 H 0.8306 0.7304 0.6063
C8 C 0.2202(3) 0.95453(12) -0.1307(2)
C9 C 0.3132(4) 0.95335(13) -0.2780(3)
H12 H 0.4519 0.9325 -0.2788
C10 C 0.2021(4) 0.98265(15) -0.4223(3)
H13 H 0.2645 0.9814 -0.5237
C11 C -0.0009(4) 1.01434(14) -0.4236(3)
C12 C -0.0890(3) 1.01689(14) -0.2729(3)
H14 H -0.2257 1.0398 -0.2710
C13 C 0.0198(3) 0.98643(13) -0.1264(3)
H15 H -0.0417 0.9874 -0.0247
C14 C -0.1249(5) 1.04322(17) -0.5841(3)
H16 H -0.0624 1.0963 -0.6252
H17 H -0.2690 1.0554 -0.5636
H18 H -0.1239 0.9967 -0.6677
loop_
_geom_bond_atom_site_label_1
_geom_bond_atom_site_label_2
_geom_bond_site_symmetry_1
_geom_bond_site_symmetry_2
Br1 C5 1_555 1_555
S1 O3 1_555 1_555
O1 C1 1_555 1_555
O2 C1 1_555 1_555
O4 S1 1_555 1_555
N1 S1 1_555 1_555
C1 N1 1_555 1_555
C2 O2 1_555 1_555
H1 C2 1_555 1_555
H2 C2 1_555 1_555
C3 C2 1_555 1_555
H3 C3 1_555 1_555
H4 C3 1_555 1_555
C4 N1 1_555 1_555
H5 C4 1_555 1_555
C5 C4 1_555 1_555
H6 C5 1_555 1_555
C6 C5 1_555 1_555
H7 C6 1_555 1_555
H8 C6 1_555 1_555
C7 C6 1_555 1_555
H9 C7 1_555 1_555
H10 C7 1_555 1_555
H11 C7 1_555 1_555
C8 S1 1_555 1_555
C9 C8 1_555 1_555
H12 C9 1_555 1_555
C10 C9 1_555 1_555
H13 C10 1_555 1_555
C11 C10 1_555 1_555
C12 C11 1_555 1_555
H14 C12 1_555 1_555
C13 C8 1_555 1_555
H15 C13 1_555 1_555
C14 C11 1_555 1_555
H16 C14 1_555 1_555
H17 C14 1_555 1_555
H18 C14 1_555 1_555
C3 C4 1_555 1_555
C12 C13 1_555 1_555

#END
