
#######################################################################
#
#                 Cambridge Crystallographic Data Centre
#                                CCDC 
#
#######################################################################
#
# If this CIF has been generated from an entry in the Cambridge 
# Structural Database, then it will include bibliographic, chemical, 
# crystal, experimental, refinement or atomic coordinate data resulting 
# from the CCDC's data processing and validation procedures.
#
#######################################################################

data_MUJBUQ
_chemical_formula_moiety         'C20 H23 Br1 Cl1 N1 O4 S1'
_chemical_name_systematic        
'4-bromo-3-(((4-methylphenyl)sulfonyl)amino)hexyl 2-chlorobenzoate'
_symmetry_cell_setting           orthorhombic
_symmetry_space_group_name_H-M   'P 21 21 21'
_symmetry_Int_Tables_number      19
_space_group_name_Hall           'P 2ac 2ab'
loop_
_symmetry_equiv_pos_site_id
_symmetry_equiv_pos_as_xyz
1 x,y,z
2 1/2-x,-y,1/2+z
3 -x,1/2+y,1/2-z
4 1/2+x,1/2-y,-z
_cell_length_a                   7.6751(15)
_cell_length_b                   12.590(3)
_cell_length_c                   22.275(5)
_cell_angle_alpha                90
_cell_angle_beta                 90
_cell_angle_gamma                90
_cell_volume                     2152.42
_exptl_crystal_colour            colorless
_exptl_crystal_description       block
_cell_formula_units_Z            4
loop_
_atom_site_label
_atom_site_type_symbol
_atom_site_fract_x
_atom_site_fract_y
_atom_site_fract_z
Br1 Br 0.35818(6) 0.54414(3) 0.41408(2)
Cl1 Cl 0.62529(18) 0.68853(10) 0.66962(5)
S1 S 0.80331(10) 0.36986(6) 0.52082(4)
O1 O 0.8378(3) 0.27181(17) 0.48976(10)
O2 O 0.9059(3) 0.46210(19) 0.50796(11)
O3 O 0.4608(3) 0.4679(3) 0.65656(11)
O4 O 0.2801(9) 0.4336(9) 0.7288(2)
N1 N 0.6039(4) 0.3992(2) 0.50524(12)
C1 C 0.5279(4) 0.4998(2) 0.52692(14)
H1 H 0.6047 0.5264 0.5587
C2 C 0.5290(4) 0.5827(2) 0.47663(15)
H2 H 0.6447 0.5808 0.4580
C3 C 0.4976(5) 0.6961(2) 0.49785(17)
H3 H 0.5818 0.7129 0.5289
H4 H 0.3825 0.7002 0.5157
C4 C 0.5109(5) 0.7795(3) 0.44854(18)
H5 H 0.4150 0.7715 0.4212
H6 H 0.6185 0.7705 0.4272
H7 H 0.5075 0.8491 0.4661
C5 C 0.8200(4) 0.3451(3) 0.59835(14)
C6 C 0.7742(5) 0.2460(3) 0.62013(17)
H8 H 0.7347 0.1933 0.5943
C7 C 0.7885(6) 0.2267(4) 0.68127(19)
H9 H 0.7601 0.1598 0.6961
C8 C 0.8438(6) 0.3045(4) 0.72060(17)
C9 C 0.8860(5) 0.4025(4) 0.69812(18)
H10 H 0.9219 0.4557 0.7243
C10 C 0.8764(5) 0.4242(3) 0.63721(16)
H11 H 0.9072 0.4908 0.6226
C11 C 0.8574(8) 0.2801(6) 0.78741(18)
H12 H 0.7441 0.2851 0.8054
H13 H 0.9345 0.3302 0.8061
H14 H 0.9022 0.2095 0.7928
C12 C 0.3497(4) 0.4801(2) 0.55555(14)
H15 H 0.2970 0.5480 0.5652
H16 H 0.2753 0.4450 0.5265
C13 C 0.3574(5) 0.4133(3) 0.61193(14)
H17 H 0.2406 0.4015 0.6272
H18 H 0.4091 0.3448 0.6030
C14 C 0.4004(6) 0.4883(5) 0.7081(2)
C15 C 0.5200(5) 0.5398(4) 0.75142(17)
C16 C 0.5204(7) 0.4973(4) 0.8096(2)
H19 H 0.4508 0.4387 0.8183
C17 C 0.6208(8) 0.5403(5) 0.8535(2)
H20 H 0.6192 0.5116 0.8920
C18 C 0.7247(7) 0.6263(5) 0.8411(2)
H21 H 0.7949 0.6548 0.8711
C19 C 0.7259(6) 0.6708(5) 0.7847(2)
H22 H 0.7956 0.7296 0.7767
C20 C 0.6228(6) 0.6277(4) 0.73959(17)
H23 H 0.539(5) 0.346(3) 0.4994(16)
O5? O 0.2311(11) 0.5297(12) 0.6983(6)
loop_
_geom_bond_atom_site_label_1
_geom_bond_atom_site_label_2
_geom_bond_site_symmetry_1
_geom_bond_site_symmetry_2
Br1 C2 1_555 1_555
Cl1 C20 1_555 1_555
S1 O1 1_555 1_555
O2 S1 1_555 1_555
O3 C13 1_555 1_555
O4 C14 1_555 1_555
N1 S1 1_555 1_555
C1 N1 1_555 1_555
H1 C1 1_555 1_555
C2 C1 1_555 1_555
H2 C2 1_555 1_555
C3 C2 1_555 1_555
H3 C3 1_555 1_555
H4 C3 1_555 1_555
C4 C3 1_555 1_555
H5 C4 1_555 1_555
H6 C4 1_555 1_555
H7 C4 1_555 1_555
C5 S1 1_555 1_555
C6 C5 1_555 1_555
H8 C6 1_555 1_555
C7 C6 1_555 1_555
H9 C7 1_555 1_555
C8 C7 1_555 1_555
C9 C8 1_555 1_555
H10 C9 1_555 1_555
C10 C5 1_555 1_555
H11 C10 1_555 1_555
C11 C8 1_555 1_555
H12 C11 1_555 1_555
H13 C11 1_555 1_555
H14 C11 1_555 1_555
C12 C1 1_555 1_555
H15 C12 1_555 1_555
H16 C12 1_555 1_555
C13 C12 1_555 1_555
H17 C13 1_555 1_555
H18 C13 1_555 1_555
C14 O3 1_555 1_555
C15 C14 1_555 1_555
C16 C15 1_555 1_555
H19 C16 1_555 1_555
C17 C16 1_555 1_555
H20 C17 1_555 1_555
C18 C17 1_555 1_555
H21 C18 1_555 1_555
C19 C18 1_555 1_555
H22 C19 1_555 1_555
C20 C15 1_555 1_555
H23 N1 1_555 1_555
C9 C10 1_555 1_555
C19 C20 1_555 1_555

#END
