
#######################################################################
#
#                 Cambridge Crystallographic Data Centre
#                                CCDC 
#
#######################################################################
#
# If this CIF has been generated from an entry in the Cambridge 
# Structural Database, then it will include bibliographic, chemical, 
# crystal, experimental, refinement or atomic coordinate data resulting 
# from the CCDC's data processing and validation procedures.
#
#######################################################################

data_MUJCUR
_chemical_formula_moiety         'C25 H51 B2 K1 O11'
_chemical_name_systematic        
(18-Crown-6)-(2-methoxy-4,4,4',4',5,5,5',5'-octamethyl-2,2'-bi-1,3,2-dioxaborolane)-potassium
_symmetry_cell_setting           monoclinic
_symmetry_space_group_name_H-M   'P 21/c'
_symmetry_Int_Tables_number      14
_space_group_name_Hall           '-P 2ybc'
loop_
_symmetry_equiv_pos_site_id
_symmetry_equiv_pos_as_xyz
1 x,y,z
2 -x,1/2+y,1/2-z
3 -x,-y,-z
4 x,1/2-y,1/2+z
_cell_length_a                   15.7969(4)
_cell_length_b                   11.0695(3)
_cell_length_c                   19.1523(5)
_cell_angle_alpha                90
_cell_angle_beta                 102.3560(10)
_cell_angle_gamma                90
_cell_volume                     3271.47
_exptl_crystal_colour            colorless
_cell_formula_units_Z            4
loop_
_atom_site_label
_atom_site_type_symbol
_atom_site_fract_x
_atom_site_fract_y
_atom_site_fract_z
O1 O 0.27137(10) 0.55599(14) -0.06073(10)
O2 O 0.2602(2) 0.3946(3) 0.00969(12)
C1 C 0.25543(15) 0.4527(2) -0.10883(13)
C2 C 0.27697(16) 0.3450(2) -0.05638(14)
C3 C 0.16193(15) 0.4603(2) -0.14874(13)
H1 H 0.1237 0.4505 -0.1150
H2 H 0.1502 0.3961 -0.1848
H3 H 0.1514 0.5391 -0.1723
C4 C 0.3140(2) 0.4619(3) -0.16235(12)
H4 H 0.2964 0.5313 -0.1939
H5 H 0.3091 0.3879 -0.1910
H6 H 0.3742 0.4725 -0.1366
C5 C 0.2186(3) 0.2344(2) -0.07875(16)
H7 H 0.2384 0.1675 -0.0458
H8 H 0.2216 0.2104 -0.1274
H9 H 0.1587 0.2549 -0.0773
C6 C 0.37284(18) 0.3108(3) -0.04059(15)
H10 H 0.4082 0.3834 -0.0274
H11 H 0.3872 0.2743 -0.0832
H12 H 0.3847 0.2528 -0.0011
C7 C 0.19235(9) 0.80334(12) 0.08576(7)
C8 C 0.13083(9) 0.69788(12) 0.09541(7)
C9 C 0.14843(11) 0.90668(13) 0.03868(8)
H13 H 0.1925 0.9634 0.0297
H14 H 0.1084 0.9488 0.0630
H15 H 0.1162 0.8741 -0.0069
C10 C 0.23948(10) 0.85561(13) 0.15794(8)
H16 H 0.2673 0.7900 0.1889
H17 H 0.1976 0.8969 0.1807
H18 H 0.2836 0.9133 0.1502
C11 C 0.06841(11) 0.66402(15) 0.02505(9)
H19 H 0.1007 0.6578 -0.0132
H20 H 0.0237 0.7264 0.0128
H21 H 0.0410 0.5862 0.0307
C12 C 0.07874(10) 0.72271(14) 0.15217(8)
H22 H 0.0375 0.6567 0.1526
H23 H 0.0471 0.7989 0.1413
H24 H 0.1181 0.7284 0.1991
C13 C 0.42187(10) 0.61048(15) 0.11418(9)
H25 H 0.4280 0.5388 0.0856
H26 H 0.4704 0.6142 0.1557
H27 H 0.4219 0.6831 0.0849
C14 C 0.21713(12) 0.20124(14) 0.13549(9)
H28 H 0.2107 0.1307 0.1657
H29 H 0.2237 0.1712 0.0883
C15 C 0.13915(12) 0.27959(15) 0.12676(8)
H30 H 0.1466 0.3521 0.0984
H31 H 0.0874 0.2350 0.1012
C16 C 0.05323(10) 0.38743(15) 0.19116(9)
H32 H 0.0005 0.3383 0.1743
H33 H 0.0536 0.4537 0.1565
C17 C 0.05283(10) 0.43872(16) 0.26353(9)
H34 H -0.0027 0.4807 0.2626
H35 H 0.0589 0.3728 0.2992
C18 C 0.12244(10) 0.58049(14) 0.34855(8)
H36 H 0.1276 0.5201 0.3874
H37 H 0.0672 0.6246 0.3451
C19 C 0.19683(10) 0.66728(14) 0.36512(8)
H38 H 0.1933 0.7258 0.3255
H39 H 0.1952 0.7127 0.4094
C20 C 0.34941(11) 0.67037(14) 0.40332(9)
H40 H 0.3417 0.7117 0.4474
H41 H 0.3586 0.7324 0.3685
C21 C 0.42534(11) 0.58693(15) 0.41983(8)
H42 H 0.4775 0.6319 0.4443
H43 H 0.4140 0.5218 0.4521
C22 C 0.50479(10) 0.44437(14) 0.36809(9)
H44 H 0.4874 0.3793 0.3976
H45 H 0.5603 0.4789 0.3945
C23 C 0.51599(10) 0.39401(16) 0.29833(10)
H46 H 0.5269 0.4602 0.2667
H47 H 0.5662 0.3383 0.3062
C24 C 0.44427(12) 0.28605(17) 0.19717(10)
H48 H 0.4992 0.2413 0.2003
H49 H 0.4430 0.3541 0.1634
C25 C 0.36904(12) 0.20414(15) 0.17125(9)
H50 H 0.3712 0.1726 0.1233
H51 H 0.3715 0.1347 0.2042
B1 B 0.26495(10) 0.51876(14) 0.00782(8)
B2 B 0.26417(10) 0.61790(13) 0.07905(8)
O3 O 0.25285(7) 0.74518(8) 0.05167(5)
O4 O 0.18998(6) 0.60007(8) 0.11602(5)
O5 O 0.34334(6) 0.60377(9) 0.13756(5)
O6 O 0.29131(7) 0.26927(9) 0.16793(6)
O7 O 0.12788(7) 0.31476(9) 0.19594(6)
O8 O 0.12268(7) 0.52118(9) 0.28272(5)
O9 O 0.27481(7) 0.59953(9) 0.37415(5)
O10 O 0.43978(7) 0.53604(9) 0.35509(6)
O11 O 0.43914(7) 0.33092(10) 0.26599(6)
K1 K 0.281013(19) 0.48504(3) 0.237979(15)
O12? O 0.2448(8) 0.5408(10) -0.0620(7)
O13? O 0.2761(16) 0.3866(15) 0.0180(7)
C26? C 0.2701(10) 0.4352(12) -0.1008(8)
C27? C 0.2549(10) 0.3313(12) -0.0528(8)
C28? C 0.2132(8) 0.4417(12) -0.1743(6)
H52? H 0.2239 0.5178 -0.1971
H53? H 0.1522 0.4379 -0.1708
H54? H 0.2262 0.3737 -0.2030
C29? C 0.3647(7) 0.4478(12) -0.1077(6)
H55? H 0.3700 0.5169 -0.1385
H56? H 0.3827 0.3740 -0.1288
H57? H 0.4018 0.4605 -0.0603
C30? C 0.1588(9) 0.2905(12) -0.0664(8)
H58? H 0.1537 0.2201 -0.0365
H59? H 0.1388 0.2691 -0.1169
H60? H 0.1232 0.3566 -0.0543
C31? C 0.3121(10) 0.2221(13) -0.0531(7)
H61? H 0.3038 0.1656 -0.0157
H62? H 0.3729 0.2476 -0.0440
H63? H 0.2968 0.1822 -0.0998
O14? O 0.3175(14) 0.5413(15) -0.0363(11)
O15? O 0.2176(15) 0.420(2) -0.0050(10)
C32? C 0.3160(13) 0.4308(18) -0.0801(11)
C33? C 0.2315(13) 0.3731(18) -0.0746(11)
C34? C 0.329(3) 0.472(4) -0.1517(13)
H64? H 0.2721 0.4912 -0.1824
H65? H 0.3564 0.4077 -0.1738
H66? H 0.3652 0.5443 -0.1457
C35? C 0.3972(17) 0.357(3) -0.044(2)
H67? H 0.3892 0.3262 0.0023
H68? H 0.4484 0.4093 -0.0362
H69? H 0.4051 0.2892 -0.0746
C36? C 0.1497(16) 0.404(4) -0.1292(14)
H70? H 0.1216 0.4743 -0.1124
H71? H 0.1101 0.3353 -0.1353
H72? H 0.1647 0.4237 -0.1750
C37? C 0.240(3) 0.2348(16) -0.064(2)
H73? H 0.2113 0.2105 -0.0253
H74? H 0.3013 0.2126 -0.0509
H75? H 0.2124 0.1937 -0.1081
loop_
_geom_bond_atom_site_label_1
_geom_bond_atom_site_label_2
_geom_bond_site_symmetry_1
_geom_bond_site_symmetry_2
O1 C1 1_555 1_555
O2 C2 1_555 1_555
C1 C2 1_555 1_555
C2 C5 1_555 1_555
C3 C1 1_555 1_555
H1 C3 1_555 1_555
H2 C3 1_555 1_555
H3 C3 1_555 1_555
C4 C1 1_555 1_555
H4 C4 1_555 1_555
H5 C4 1_555 1_555
H6 C4 1_555 1_555
C5 H7 1_555 1_555
H8 C5 1_555 1_555
H9 C5 1_555 1_555
C6 C2 1_555 1_555
H10 C6 1_555 1_555
H11 C6 1_555 1_555
H12 C6 1_555 1_555
C7 C8 1_555 1_555
C8 C11 1_555 1_555
C9 C7 1_555 1_555
H13 C9 1_555 1_555
H14 C9 1_555 1_555
H15 C9 1_555 1_555
C10 C7 1_555 1_555
H16 C10 1_555 1_555
H17 C10 1_555 1_555
H18 C10 1_555 1_555
C11 H19 1_555 1_555
H20 C11 1_555 1_555
H21 C11 1_555 1_555
C12 C8 1_555 1_555
H22 C12 1_555 1_555
H23 C12 1_555 1_555
H24 C12 1_555 1_555
C13 H25 1_555 1_555
H26 C13 1_555 1_555
H27 C13 1_555 1_555
C14 H28 1_555 1_555
H29 C14 1_555 1_555
C15 C14 1_555 1_555
H30 C15 1_555 1_555
H31 C15 1_555 1_555
C16 H32 1_555 1_555
H33 C16 1_555 1_555
C17 C16 1_555 1_555
H34 C17 1_555 1_555
H35 C17 1_555 1_555
C18 H36 1_555 1_555
H37 C18 1_555 1_555
C19 C18 1_555 1_555
H38 C19 1_555 1_555
H39 C19 1_555 1_555
C20 H40 1_555 1_555
H41 C20 1_555 1_555
C21 C20 1_555 1_555
H42 C21 1_555 1_555
H43 C21 1_555 1_555
C22 H44 1_555 1_555
H45 C22 1_555 1_555
C23 C22 1_555 1_555
H46 C23 1_555 1_555
H47 C23 1_555 1_555
C24 H48 1_555 1_555
H49 C24 1_555 1_555
C25 C24 1_555 1_555
H50 C25 1_555 1_555
H51 C25 1_555 1_555
B1 O1 1_555 1_555
B2 B1 1_555 1_555
O3 C7 1_555 1_555
O4 C8 1_555 1_555
O5 C13 1_555 1_555
O6 C14 1_555 1_555
O7 C15 1_555 1_555
O8 C17 1_555 1_555
O9 C19 1_555 1_555
O10 C21 1_555 1_555
O11 C23 1_555 1_555
K1 O4 1_555 1_555
O2 B1 1_555 1_555
C16 O7 1_555 1_555
C18 O8 1_555 1_555
C20 O9 1_555 1_555
C22 O10 1_555 1_555
C24 O11 1_555 1_555
C25 O6 1_555 1_555
B2 O3 1_555 1_555
B2 O4 1_555 1_555
B2 O5 1_555 1_555
O5 K1 1_555 1_555
O6 K1 1_555 1_555
O7 K1 1_555 1_555
O8 K1 1_555 1_555
O9 K1 1_555 1_555
O10 K1 1_555 1_555
O11 K1 1_555 1_555

#END
