
#######################################################################
#
#                 Cambridge Crystallographic Data Centre
#                                CCDC 
#
#######################################################################
#
# If this CIF has been generated from an entry in the Cambridge 
# Structural Database, then it will include bibliographic, chemical, 
# crystal, experimental, refinement or atomic coordinate data resulting 
# from the CCDC's data processing and validation procedures.
#
#######################################################################

data_MUJCIF
_chemical_formula_moiety         'C32 H66 B4 K1 O10 1-,C20 H40 K1 O8 1+'
_chemical_name_systematic        
"(18-Crown-6)-bis(tetrahydrofuran)-potassium bis(2-t-butoxy-4,4,4',4',5,5,5',5'-octamethyl-2,2'-bi-1,3,2-dioxaborolane)-potassium"
_symmetry_cell_setting           triclinic
_symmetry_space_group_name_H-M   'P -1'
_symmetry_Int_Tables_number      2
_space_group_name_Hall           '-P 1'
loop_
_symmetry_equiv_pos_site_id
_symmetry_equiv_pos_as_xyz
1 x,y,z
2 -x,-y,-z
_cell_length_a                   9.8484(2)
_cell_length_b                   13.0033(3)
_cell_length_c                   14.0924(3)
_cell_angle_alpha                74.7327(8)
_cell_angle_beta                 78.2436(8)
_cell_angle_gamma                68.8727(7)
_cell_volume                     1612.06
_exptl_crystal_colour            colorless
_exptl_crystal_description       block
_cell_formula_units_Z            1
loop_
_atom_site_label
_atom_site_type_symbol
_atom_site_fract_x
_atom_site_fract_y
_atom_site_fract_z
C1 C 0.7654(3) -0.0203(2) 0.36055(18)
C2 C 0.8376(3) -0.0971(2) 0.28537(19)
C3 C 0.7928(4) -0.0726(3) 0.4668(2)
H1 H 0.8985 -0.1012 0.4709
H2 H 0.7526 -0.1349 0.4911
H3 H 0.7450 -0.0156 0.5075
C4 C 0.5998(3) 0.0347(2) 0.3577(2)
H4 H 0.5620 0.0931 0.3972
H5 H 0.5515 -0.0226 0.3850
H6 H 0.5800 0.0688 0.2890
C5 C 0.9878(3) -0.1803(3) 0.3113(3)
H7 H 1.0411 -0.2138 0.2542
H8 H 0.9743 -0.2399 0.3679
H9 H 1.0440 -0.1404 0.3283
C6 C 0.7464(4) -0.1603(3) 0.2672(2)
H10 H 0.6551 -0.1064 0.2429
H11 H 0.7232 -0.2099 0.3293
H12 H 0.8016 -0.2056 0.2177
O1 O 1.1125(3) 0.0821(3) 0.1143(2)
C7 C 1.2200(7) 0.1368(5) 0.0994(4)
C8 C 1.1467(3) 0.2182(4) 0.1730(3)
C9 C 1.3702(4) 0.0503(4) 0.1211(3)
H13 H 1.3614 0.0043 0.1880
H14 H 1.4401 0.0898 0.1167
H15 H 1.4051 0.0016 0.0727
C10 C 1.2342(6) 0.1995(4) -0.0083(3)
H16 H 1.2640 0.1458 -0.0521
H17 H 1.3080 0.2367 -0.0184
H18 H 1.1395 0.2561 -0.0234
C11 C 1.1860(4) 0.1559(4) 0.2796(3)
H19 H 1.2906 0.1399 0.2817
H20 H 1.1641 0.0849 0.2973
H21 H 1.1280 0.2035 0.3268
C12 C 1.1856(9) 0.3257(6) 0.1469(5)
H22 H 1.2916 0.3069 0.1455
H23 H 1.1337 0.3714 0.1966
H24 H 1.1566 0.3683 0.0815
C13 C 0.7485(4) 0.2929(2) 0.0346(2)
C14 C 0.6766(5) 0.2737(3) -0.0414(3)
H25 H 0.7436 0.2688 -0.1031
H26 H 0.5859 0.3366 -0.0542
H27 H 0.6538 0.2033 -0.0162
C15 C 0.6466(4) 0.2977(3) 0.1319(2)
H28 H 0.6206 0.2284 0.1544
H29 H 0.5573 0.3628 0.1216
H30 H 0.6963 0.3051 0.1820
C16 C 0.7781(6) 0.4061(3) -0.0018(3)
H31 H 0.8222 0.4187 0.0487
H32 H 0.6855 0.4672 -0.0137
H33 H 0.8454 0.4045 -0.0635
B1 B 0.8767(3) 0.0737(2) 0.2225(2)
B2 B 0.9578(3) 0.1622(3) 0.1353(2)
O2 O 0.82938(17) 0.06915(14) 0.32254(12)
O3 O 0.86443(19) -0.01788(14) 0.19534(12)
O4 O 0.98643(19) 0.25046(14) 0.16895(12)
O5 O 0.8847(2) 0.20496(15) 0.04312(12)
K1 K 1.0000 0.0000 0.0000
C1A C 1.2346(3) 0.0203(2) -0.36055(18)
C2A C 1.1624(3) 0.0971(2) -0.28537(19)
C3A C 1.2072(4) 0.0726(3) -0.4668(2)
H1A H 1.1015 0.1012 -0.4709
H2A H 1.2474 0.1349 -0.4911
H3A H 1.2550 0.0156 -0.5075
C4A C 1.4002(3) -0.0347(2) -0.3577(2)
H4A H 1.4380 -0.0931 -0.3972
H5A H 1.4485 0.0226 -0.3850
H6A H 1.4200 -0.0688 -0.2890
C5A C 1.0122(3) 0.1803(3) -0.3113(3)
H7A H 0.9589 0.2138 -0.2542
H8A H 1.0257 0.2399 -0.3679
H9A H 0.9560 0.1404 -0.3283
C6A C 1.2536(4) 0.1603(3) -0.2672(2)
H10A H 1.3449 0.1064 -0.2429
H11A H 1.2768 0.2099 -0.3293
H12A H 1.1984 0.2056 -0.2177
O1A O 0.8875(3) -0.0821(3) -0.1143(2)
C7A C 0.7800(7) -0.1368(5) -0.0994(4)
C8A C 0.8533(3) -0.2182(4) -0.1730(3)
C9A C 0.6298(4) -0.0503(4) -0.1211(3)
H13A H 0.6386 -0.0043 -0.1880
H14A H 0.5599 -0.0898 -0.1167
H15A H 0.5949 -0.0016 -0.0727
C10A C 0.7658(6) -0.1995(4) 0.0083(3)
H16A H 0.7360 -0.1458 0.0521
H17A H 0.6920 -0.2367 0.0184
H18A H 0.8605 -0.2561 0.0234
C11A C 0.8140(4) -0.1559(4) -0.2796(3)
H19A H 0.7094 -0.1399 -0.2817
H20A H 0.8359 -0.0849 -0.2973
H21A H 0.8720 -0.2035 -0.3268
C12A C 0.8144(9) -0.3257(6) -0.1469(5)
H22A H 0.7084 -0.3069 -0.1455
H23A H 0.8663 -0.3714 -0.1966
H24A H 0.8434 -0.3683 -0.0815
C13A C 1.2515(4) -0.2929(2) -0.0346(2)
C14A C 1.3234(5) -0.2737(3) 0.0414(3)
H25A H 1.2564 -0.2688 0.1031
H26A H 1.4141 -0.3366 0.0542
H27A H 1.3462 -0.2033 0.0162
C15A C 1.3534(4) -0.2977(3) -0.1319(2)
H28A H 1.3794 -0.2284 -0.1544
H29A H 1.4427 -0.3628 -0.1216
H30A H 1.3037 -0.3051 -0.1820
C16A C 1.2219(6) -0.4061(3) 0.0018(3)
H31A H 1.1778 -0.4187 -0.0487
H32A H 1.3145 -0.4672 0.0137
H33A H 1.1546 -0.4045 0.0635
B1A B 1.1233(3) -0.0737(2) -0.2225(2)
B2A B 1.0422(3) -0.1622(3) -0.1353(2)
O2A O 1.17062(17) -0.06915(14) -0.32254(12)
O3A O 1.13557(19) 0.01788(14) -0.19534(12)
O4A O 1.01357(19) -0.25046(14) -0.16895(12)
O5A O 1.1153(2) -0.20496(15) -0.04312(12)
C17 C 0.8284(3) 0.3068(2) 0.39398(19)
H34 H 0.8998 0.3244 0.4221
H35 H 0.8813 0.2685 0.3386
C18 C 0.7712(3) 0.4806(2) 0.27841(19)
H36 H 0.8278 0.4388 0.2258
H37 H 0.8372 0.5089 0.3013
C19 C 0.6441(3) 0.5770(2) 0.23883(18)
H38 H 0.6798 0.6297 0.1836
H39 H 0.5806 0.5489 0.2134
C20 C 0.4456(3) 0.7319(2) 0.2848(2)
H40 H 0.3733 0.7112 0.2606
H41 H 0.4829 0.7840 0.2300
C21 C 0.3746(3) 0.7877(2) 0.3704(2)
H42 H 0.4494 0.8011 0.3987
H43 H 0.3011 0.8616 0.3476
C22 C 0.2405(3) 0.7684(2) 0.5282(2)
H44 H 0.1652 0.8422 0.5079
H45 H 0.3166 0.7816 0.5553
C23 C 0.3901(3) 0.3643(3) 0.3493(2)
H46 H 0.3650 0.3037 0.3339
H47 H 0.4932 0.3573 0.3220
C24 C 0.2891(4) 0.4775(3) 0.3079(2)
H48 H 0.2568 0.4778 0.2458
H49 H 0.3361 0.5363 0.2952
C25 C 0.1622(4) 0.4947(3) 0.3901(3)
H50 H 0.1331 0.5713 0.4034
H51 H 0.0765 0.4851 0.3714
C26 C 0.2145(3) 0.4093(3) 0.4775(2)
H52 H 0.1950 0.4445 0.5353
H53 H 0.1644 0.3520 0.4936
O6 O 0.71610(17) 0.40840(14) 0.35867(12)
O7 O 0.56328(18) 0.63355(14) 0.31648(12)
O8 O 0.30495(17) 0.71834(13) 0.44441(12)
O9 O 0.3684(2) 0.35858(18) 0.45328(14)
K2 K 0.5000 0.5000 0.5000
C17A C 0.1716(3) 0.6932(2) 0.60602(19)
H34A H 0.1002 0.6756 0.5779
H35A H 0.1187 0.7315 0.6614
C18A C 0.2288(3) 0.5194(2) 0.72159(19)
H36A H 0.1722 0.5612 0.7742
H37A H 0.1628 0.4911 0.6987
C19A C 0.3559(3) 0.4230(2) 0.76117(18)
H38A H 0.3202 0.3703 0.8164
H39A H 0.4194 0.4511 0.7866
C20A C 0.5544(3) 0.2681(2) 0.7152(2)
H40A H 0.6267 0.2888 0.7394
H41A H 0.5171 0.2160 0.7700
C21A C 0.6254(3) 0.2123(2) 0.6296(2)
H42A H 0.5506 0.1989 0.6013
H43A H 0.6989 0.1384 0.6524
C22A C 0.7595(3) 0.2316(2) 0.4718(2)
H44A H 0.8348 0.1578 0.4921
H45A H 0.6834 0.2184 0.4447
O6A O 0.28390(17) 0.59160(14) 0.64133(12)
O7A O 0.43672(18) 0.36645(14) 0.68352(12)
O8A O 0.69505(17) 0.28166(13) 0.55559(12)
C23A C 0.6099(3) 0.6357(3) 0.6507(2)
H46A H 0.6350 0.6963 0.6661
H47A H 0.5068 0.6427 0.6780
C24A C 0.7109(4) 0.5225(3) 0.6921(2)
H48A H 0.7432 0.5222 0.7542
H49A H 0.6639 0.4637 0.7048
C25A C 0.8378(4) 0.5053(3) 0.6099(3)
H50A H 0.8669 0.4287 0.5966
H51A H 0.9235 0.5149 0.6286
C26A C 0.7855(3) 0.5907(3) 0.5225(2)
H52A H 0.8050 0.5555 0.4647
H53A H 0.8356 0.6480 0.5064
O9A O 0.6316(2) 0.64142(18) 0.54672(14)
O10? O 1.1020(6) 0.1010(7) 0.0818(5)
C27? C 1.1964(16) 0.1364(9) 0.1217(9)
C28? C 1.1216(7) 0.2651(6) 0.1164(5)
C29? C 1.2267(9) 0.0646(8) 0.2227(6)
H54? H 1.1346 0.0746 0.2673
H55? H 1.2942 0.0871 0.2488
H56? H 1.2709 -0.0148 0.2179
C30? C 1.3354(8) 0.1131(7) 0.0472(7)
H57? H 1.3842 0.0315 0.0550
H58? H 1.4019 0.1477 0.0594
H59? H 1.3090 0.1450 -0.0203
C31? C 1.168(2) 0.3086(14) 0.1892(9)
H60? H 1.1132 0.3889 0.1847
H61? H 1.2734 0.2981 0.1738
H62? H 1.1486 0.2670 0.2565
C32? C 1.1138(9) 0.3395(6) 0.0171(5)
H63? H 1.0742 0.3109 -0.0251
H64? H 1.2123 0.3412 -0.0124
H65? H 1.0498 0.4159 0.0229
loop_
_geom_bond_atom_site_label_1
_geom_bond_atom_site_label_2
_geom_bond_site_symmetry_1
_geom_bond_site_symmetry_2
C1 C2 1_555 1_555
C2 C5 1_555 1_555
C3 C1 1_555 1_555
H1 C3 1_555 1_555
H2 C3 1_555 1_555
H3 C3 1_555 1_555
C4 C1 1_555 1_555
H4 C4 1_555 1_555
H5 C4 1_555 1_555
H6 C4 1_555 1_555
C5 H7 1_555 1_555
H8 C5 1_555 1_555
H9 C5 1_555 1_555
C6 C2 1_555 1_555
H10 C6 1_555 1_555
H11 C6 1_555 1_555
H12 C6 1_555 1_555
O1 C7 1_555 1_555
C7 C8 1_555 1_555
C8 C11 1_555 1_555
C9 C7 1_555 1_555
H13 C9 1_555 1_555
H14 C9 1_555 1_555
H15 C9 1_555 1_555
C10 C7 1_555 1_555
H16 C10 1_555 1_555
H17 C10 1_555 1_555
H18 C10 1_555 1_555
C11 H19 1_555 1_555
H20 C11 1_555 1_555
H21 C11 1_555 1_555
C12 C8 1_555 1_555
H22 C12 1_555 1_555
H23 C12 1_555 1_555
H24 C12 1_555 1_555
C13 C14 1_555 1_555
C14 H25 1_555 1_555
H26 C14 1_555 1_555
H27 C14 1_555 1_555
C15 C13 1_555 1_555
H28 C15 1_555 1_555
H29 C15 1_555 1_555
H30 C15 1_555 1_555
C16 C13 1_555 1_555
H31 C16 1_555 1_555
H32 C16 1_555 1_555
H33 C16 1_555 1_555
B1 B2 1_555 1_555
B2 O1 1_555 1_555
O2 C1 1_555 1_555
O3 C2 1_555 1_555
O4 C8 1_555 1_555
O5 C13 1_555 1_555
K1 O1 1_555 1_555
C17 H34 1_555 1_555
H35 C17 1_555 1_555
C18 H36 1_555 1_555
H37 C18 1_555 1_555
C19 C18 1_555 1_555
H38 C19 1_555 1_555
H39 C19 1_555 1_555
C20 H40 1_555 1_555
H41 C20 1_555 1_555
C21 C20 1_555 1_555
H42 C21 1_555 1_555
H43 C21 1_555 1_555
C22 H44 1_555 1_555
H45 C22 1_555 1_555
C23 H46 1_555 1_555
H47 C23 1_555 1_555
C24 C23 1_555 1_555
H48 C24 1_555 1_555
H49 C24 1_555 1_555
C25 C24 1_555 1_555
H50 C25 1_555 1_555
H51 C25 1_555 1_555
C26 C25 1_555 1_555
H52 C26 1_555 1_555
H53 C26 1_555 1_555
O6 C17 1_555 1_555
O7 C19 1_555 1_555
O8 C21 1_555 1_555
O9 C23 1_555 1_555
K2 O6 1_555 1_555
C1A C2A 1_555 1_555
C2A C5A 1_555 1_555
C3A C1A 1_555 1_555
H1A C3A 1_555 1_555
H2A C3A 1_555 1_555
H3A C3A 1_555 1_555
C4A C1A 1_555 1_555
H4A C4A 1_555 1_555
H5A C4A 1_555 1_555
H6A C4A 1_555 1_555
C5A H7A 1_555 1_555
H8A C5A 1_555 1_555
H9A C5A 1_555 1_555
C6A C2A 1_555 1_555
H10A C6A 1_555 1_555
H11A C6A 1_555 1_555
H12A C6A 1_555 1_555
O1A K1 1_555 1_555
C7A O1A 1_555 1_555
C8A C7A 1_555 1_555
C9A C7A 1_555 1_555
H13A C9A 1_555 1_555
H14A C9A 1_555 1_555
H15A C9A 1_555 1_555
C10A C7A 1_555 1_555
H16A C10A 1_555 1_555
H17A C10A 1_555 1_555
H18A C10A 1_555 1_555
C11A C8A 1_555 1_555
H19A C11A 1_555 1_555
H20A C11A 1_555 1_555
H21A C11A 1_555 1_555
C12A C8A 1_555 1_555
H22A C12A 1_555 1_555
H23A C12A 1_555 1_555
H24A C12A 1_555 1_555
C13A C14A 1_555 1_555
C14A H25A 1_555 1_555
H26A C14A 1_555 1_555
H27A C14A 1_555 1_555
C15A C13A 1_555 1_555
H28A C15A 1_555 1_555
H29A C15A 1_555 1_555
H30A C15A 1_555 1_555
C16A C13A 1_555 1_555
H31A C16A 1_555 1_555
H32A C16A 1_555 1_555
H33A C16A 1_555 1_555
B1A B2A 1_555 1_555
B2A O1A 1_555 1_555
O2A C1A 1_555 1_555
O3A K1 1_555 1_555
O4A C8A 1_555 1_555
O5A K1 1_555 1_555
C17A C22 1_555 1_555
H34A C17A 1_555 1_555
H35A C17A 1_555 1_555
C18A H36A 1_555 1_555
H37A C18A 1_555 1_555
C19A C18A 1_555 1_555
H38A C19A 1_555 1_555
H39A C19A 1_555 1_555
C20A H40A 1_555 1_555
H41A C20A 1_555 1_555
C21A C20A 1_555 1_555
H42A C21A 1_555 1_555
H43A C21A 1_555 1_555
C22A C17 1_555 1_555
H44A C22A 1_555 1_555
H45A C22A 1_555 1_555
O6A K2 1_555 1_555
O7A K2 1_555 1_555
O8A K2 1_555 1_555
C23A H46A 1_555 1_555
H47A C23A 1_555 1_555
C24A C23A 1_555 1_555
H48A C24A 1_555 1_555
H49A C24A 1_555 1_555
C25A C24A 1_555 1_555
H50A C25A 1_555 1_555
H51A C25A 1_555 1_555
C26A C25A 1_555 1_555
H52A C26A 1_555 1_555
H53A C26A 1_555 1_555
O9A K2 1_555 1_555
B1 O2 1_555 1_555
B1 O3 1_555 1_555
B2 O4 1_555 1_555
B2 O5 1_555 1_555
O3 K1 1_555 1_555
O5 K1 1_555 1_555
C18 O6 1_555 1_555
C20 O7 1_555 1_555
C22 O8 1_555 1_555
C26 O9 1_555 1_555
O7 K2 1_555 1_555
O8 K2 1_555 1_555
O9 K2 1_555 1_555
C2A O3A 1_555 1_555
C13A O5A 1_555 1_555
B1A O2A 1_555 1_555
B1A O3A 1_555 1_555
B2A O4A 1_555 1_555
B2A O5A 1_555 1_555
C17A O6A 1_555 1_555
C18A O6A 1_555 1_555
C19A O7A 1_555 1_555
C20A O7A 1_555 1_555
C21A O8A 1_555 1_555
C22A O8A 1_555 1_555
C23A O9A 1_555 1_555
C26A O9A 1_555 1_555

#END
