
#######################################################################
#
#                 Cambridge Crystallographic Data Centre
#                                CCDC 
#
#######################################################################
#
# If this CIF has been generated from an entry in the Cambridge 
# Structural Database, then it will include bibliographic, chemical, 
# crystal, experimental, refinement or atomic coordinate data resulting 
# from the CCDC's data processing and validation procedures.
#
#######################################################################

data_MUJDIG
_chemical_formula_moiety         'C19 H43 B2 K1 N2 O9,0.5(C4 H8 O1)'
_chemical_name_systematic        
"(18-Crown-6)-(2-(trimethoxyboryl)-1,3,2-diazaborolidine-O,O')-potassium tetrahydrofuran solvate"
_symmetry_cell_setting           monoclinic
_symmetry_space_group_name_H-M   'P 21/c'
_symmetry_Int_Tables_number      14
_space_group_name_Hall           '-P 2ybc'
loop_
_symmetry_equiv_pos_site_id
_symmetry_equiv_pos_as_xyz
1 x,y,z
2 -x,1/2+y,1/2-z
3 -x,-y,-z
4 x,1/2-y,1/2+z
_cell_length_a                   8.8178(2)
_cell_length_b                   19.6117(4)
_cell_length_c                   16.7335(4)
_cell_angle_alpha                90
_cell_angle_beta                 91.7650(10)
_cell_angle_gamma                90
_cell_volume                     2892.39
_exptl_crystal_colour            colorless
_exptl_crystal_description       rod
_cell_formula_units_Z            4
loop_
_atom_site_label
_atom_site_type_symbol
_atom_site_fract_x
_atom_site_fract_y
_atom_site_fract_z
C1 C 0.0141(3) 0.66597(12) 0.56527(14)
H1 H -0.0664 0.6315 0.5629
H2 H -0.0037 0.6976 0.6093
H3 H 0.1125 0.6435 0.5741
C2 C -0.1254(3) 0.73944(12) 0.46890(15)
H4 H -0.1514 0.7732 0.5103
H5 H -0.2113 0.7074 0.4609
C3 C -0.0868(3) 0.77448(12) 0.39086(15)
H6 H -0.1738 0.7729 0.3521
H7 H -0.0579 0.8227 0.4002
C4 C 0.1016(3) 0.75603(13) 0.28709(15)
H8 H 0.1431 0.8022 0.2922
H9 H 0.0207 0.7555 0.2456
H10 H 0.1822 0.7245 0.2724
C5 C 0.4470(3) 0.73320(12) 0.37155(15)
H11 H 0.3673 0.7666 0.3818
H12 H 0.5043 0.7477 0.3253
H13 H 0.5156 0.7298 0.4186
C6 C 0.4868(3) 0.59884(13) 0.49699(16)
H14 H 0.4760 0.5627 0.4568
H15 H 0.5035 0.5784 0.5500
H16 H 0.5735 0.6278 0.4845
C7 C 0.1507(3) 0.53460(12) 0.43522(14)
H17 H 0.2112 0.5252 0.4841
H18 H 0.1244 0.4916 0.4085
H19 H 0.0576 0.5586 0.4490
C8 C 0.3169(4) 0.39035(14) 0.28642(17)
H20 H 0.2760 0.3435 0.2815
H21 H 0.2869 0.4092 0.3385
C9 C 0.4848(4) 0.38887(14) 0.28258(19)
H22 H 0.5276 0.3568 0.3230
H23 H 0.5151 0.3734 0.2291
C10 C 0.7015(3) 0.45641(16) 0.31178(18)
H24 H 0.7533 0.4357 0.2661
H25 H 0.7288 0.4300 0.3605
C11 C 0.7502(3) 0.52856(16) 0.32202(18)
H26 H 0.6962 0.5495 0.3668
H27 H 0.8605 0.5304 0.3348
C12 C 0.7736(3) 0.63327(14) 0.25402(19)
H28 H 0.8854 0.6330 0.2613
H29 H 0.7304 0.6577 0.2998
C13 C 0.7297(3) 0.66850(15) 0.17821(19)
H30 H 0.7806 0.7134 0.1762
H31 H 0.7627 0.6411 0.1322
C14 C 0.5221(3) 0.70819(13) 0.10005(16)
H32 H 0.5550 0.6802 0.0545
H33 H 0.5678 0.7541 0.0954
C15 C 0.3549(3) 0.71391(12) 0.09769(17)
H34 H 0.3209 0.7393 0.1450
H35 H 0.3201 0.7388 0.0490
C16 C 0.1336(3) 0.64787(13) 0.08331(17)
H36 H 0.1084 0.6724 0.0330
H37 H 0.0841 0.6718 0.1276
C17 C 0.0772(3) 0.57678(13) 0.07778(15)
H38 H -0.0330 0.5767 0.0646
H39 H 0.1295 0.5522 0.0349
C18 C 0.0455(3) 0.47677(14) 0.15289(17)
H40 H 0.0784 0.4513 0.1054
H41 H -0.0667 0.4786 0.1512
C19 C 0.1000(3) 0.44137(14) 0.22685(17)
H42 H 0.0768 0.4692 0.2743
H43 H 0.0483 0.3968 0.2316
N1 N 0.0143(2) 0.70319(9) 0.49091(11)
N2 N 0.0408(2) 0.73535(10) 0.36212(11)
O1 O 0.38074(18) 0.66931(7) 0.35581(9)
O2 O 0.35306(18) 0.63877(8) 0.49658(9)
O3 O 0.23478(18) 0.57531(7) 0.38393(9)
O4 O 0.1054(2) 0.54387(9) 0.15164(10)
O5 O 0.2568(2) 0.43161(9) 0.22303(10)
O6 O 0.5399(2) 0.45486(9) 0.29746(11)
O7 O 0.7176(2) 0.56464(9) 0.25132(11)
O8 O 0.5722(2) 0.67739(9) 0.17326(11)
O9 O 0.2936(2) 0.64739(8) 0.09728(10)
K1 K 0.38206(6) 0.57312(2) 0.24488(3)
B1 B 0.1121(3) 0.69514(13) 0.42492(16)
B2 B 0.2739(3) 0.64482(13) 0.41695(16)
C20? C 0.4387(4) 0.4625(2) 0.0431(2)
H44? H 0.3802 0.4670 0.0924
H45? H 0.4864 0.4168 0.0443
C21? C 0.5539(10) 0.5110(4) 0.0460(5)
H46? H 0.6516 0.4903 0.0638
H47? H 0.5293 0.5487 0.0828
C22? C 0.4000(9) 0.5201(5) -0.0698(5)
H48? H 0.3357 0.5612 -0.0650
H49? H 0.3987 0.5067 -0.1269
O10? O 0.3353(5) 0.4648(2) -0.0230(3)
loop_
_geom_bond_atom_site_label_1
_geom_bond_atom_site_label_2
_geom_bond_site_symmetry_1
_geom_bond_site_symmetry_2
C1 H1 1_555 1_555
H2 C1 1_555 1_555
H3 C1 1_555 1_555
C2 H4 1_555 1_555
H5 C2 1_555 1_555
C3 C2 1_555 1_555
H6 C3 1_555 1_555
H7 C3 1_555 1_555
C4 H8 1_555 1_555
H9 C4 1_555 1_555
H10 C4 1_555 1_555
C5 H11 1_555 1_555
H12 C5 1_555 1_555
H13 C5 1_555 1_555
C6 H14 1_555 1_555
H15 C6 1_555 1_555
H16 C6 1_555 1_555
C7 H17 1_555 1_555
H18 C7 1_555 1_555
H19 C7 1_555 1_555
C8 H20 1_555 1_555
H21 C8 1_555 1_555
C9 C8 1_555 1_555
H22 C9 1_555 1_555
H23 C9 1_555 1_555
C10 H24 1_555 1_555
H25 C10 1_555 1_555
C11 C10 1_555 1_555
H26 C11 1_555 1_555
H27 C11 1_555 1_555
C12 H28 1_555 1_555
H29 C12 1_555 1_555
C13 C12 1_555 1_555
H30 C13 1_555 1_555
H31 C13 1_555 1_555
C14 H32 1_555 1_555
H33 C14 1_555 1_555
C15 C14 1_555 1_555
H34 C15 1_555 1_555
H35 C15 1_555 1_555
C16 H36 1_555 1_555
H37 C16 1_555 1_555
C17 C16 1_555 1_555
H38 C17 1_555 1_555
H39 C17 1_555 1_555
C18 H40 1_555 1_555
H41 C18 1_555 1_555
C19 C18 1_555 1_555
H42 C19 1_555 1_555
H43 C19 1_555 1_555
N1 C1 1_555 1_555
N2 C3 1_555 1_555
O1 C5 1_555 1_555
O2 C6 1_555 1_555
O3 C7 1_555 1_555
O4 C17 1_555 1_555
O5 C8 1_555 1_555
O6 C9 1_555 1_555
O7 C11 1_555 1_555
O8 C13 1_555 1_555
O9 C15 1_555 1_555
K1 O1 1_555 1_555
B1 N1 1_555 1_555
B2 O1 1_555 1_555
C2 N1 1_555 1_555
C4 N2 1_555 1_555
C10 O6 1_555 1_555
C12 O7 1_555 1_555
C14 O8 1_555 1_555
C16 O9 1_555 1_555
C18 O4 1_555 1_555
C19 O5 1_555 1_555
N2 B1 1_555 1_555
O2 B2 1_555 1_555
O3 K1 1_555 1_555
O3 B2 1_555 1_555
O4 K1 1_555 1_555
O5 K1 1_555 1_555
O6 K1 1_555 1_555
O7 K1 1_555 1_555
O8 K1 1_555 1_555
O9 K1 1_555 1_555
B1 B2 1_555 1_555

#END
