
#######################################################################
#
#                 Cambridge Crystallographic Data Centre
#                                CCDC 
#
#######################################################################
#
# If this CIF has been generated from an entry in the Cambridge 
# Structural Database, then it will include bibliographic, chemical, 
# crystal, experimental, refinement or atomic coordinate data resulting 
# from the CCDC's data processing and validation procedures.
#
#######################################################################

data_MUJDOM
_chemical_formula_moiety         'C12 H24 B2 F1 O4 1-,C4 H12 N1 1+,C4 H8 O1'
_chemical_name_systematic        
"Tetramethylammonium 2-fluoro-4,4,4',4',5,5,5',5'-octamethyl-2,2'-bi-1,3,2-dioxaborolane tetrahydrofuran solvate"
_symmetry_cell_setting           monoclinic
_symmetry_space_group_name_H-M   'P 21/n'
_symmetry_Int_Tables_number      14
_space_group_name_Hall           '-P 2yn'
loop_
_symmetry_equiv_pos_site_id
_symmetry_equiv_pos_as_xyz
1 x,y,z
2 1/2-x,1/2+y,1/2-z
3 -x,-y,-z
4 1/2+x,1/2-y,1/2+z
_cell_length_a                   14.6595(6)
_cell_length_b                   8.1665(3)
_cell_length_c                   20.9451(8)
_cell_angle_alpha                90
_cell_angle_beta                 99.525(4)
_cell_angle_gamma                90
_cell_volume                     2472.91
_exptl_crystal_colour            colorless
_exptl_crystal_description       needle
_cell_formula_units_Z            4
loop_
_atom_site_label
_atom_site_type_symbol
_atom_site_fract_x
_atom_site_fract_y
_atom_site_fract_z
O1 O 0.89345(12) 0.11906(18) 0.68761(7)
O2 O 0.85985(12) 0.38974(18) 0.68918(7)
C1 C 0.93717(14) 0.1775(3) 0.75074(9)
C2 C 0.88835(15) 0.3435(3) 0.75673(9)
C3 C 1.03933(17) 0.1943(4) 0.74648(13)
H1 H 1.0633 0.0885 0.7347
H2 H 1.0734 0.2293 0.7885
H3 H 1.0471 0.2759 0.7135
C4 C 0.9267(2) 0.0514(4) 0.80186(13)
H4 H 0.8610 0.0363 0.8040
H5 H 0.9592 0.0890 0.8440
H6 H 0.9533 -0.0529 0.7908
C5 C 0.9517(2) 0.4778(4) 0.78953(13)
H7 H 1.0037 0.4934 0.7661
H8 H 0.9753 0.4461 0.8343
H9 H 0.9169 0.5803 0.7892
C6 C 0.80227(19) 0.3317(4) 0.78672(14)
H10 H 0.7686 0.4358 0.7810
H11 H 0.8192 0.3080 0.8330
H12 H 0.7628 0.2438 0.7657
C7 C 0.70420(11) 0.3699(2) 0.49382(8)
C8 C 0.67132(12) 0.2028(2) 0.51779(8)
C9 C 0.63533(14) 0.5097(3) 0.49167(10)
H13 H 0.6227 0.5311 0.5354
H14 H 0.5777 0.4799 0.4633
H15 H 0.6612 0.6084 0.4749
C10 C 0.73526(14) 0.3535(3) 0.42771(8)
H16 H 0.7683 0.4529 0.4186
H17 H 0.6809 0.3384 0.3941
H18 H 0.7764 0.2587 0.4282
C11 C 0.61691(16) 0.2246(3) 0.57384(11)
H19 H 0.6084 0.1178 0.5933
H20 H 0.5564 0.2729 0.5574
H21 H 0.6513 0.2972 0.6066
C12 C 0.61515(16) 0.0978(3) 0.46556(11)
H22 H 0.6514 0.0770 0.4311
H23 H 0.5580 0.1554 0.4476
H24 H 0.5999 -0.0065 0.4844
B1 B 0.85953(13) 0.2522(2) 0.64970(10)
B2 B 0.82463(13) 0.2494(2) 0.56634(9)
F1 F 0.90761(7) 0.21795(14) 0.53665(5)
O3 O 0.78285(8) 0.40561(14) 0.54152(5)
O4 O 0.75667(9) 0.12285(15) 0.54185(6)
C13 C 0.99244(14) 0.5934(2) 0.58184(10)
H25 H 1.0231 0.5721 0.6263
H26 H 1.0389 0.5976 0.5532
H27 H 0.9482 0.5055 0.5677
C14 C 0.87362(16) 0.7505(3) 0.62476(11)
H28 H 0.8306 0.6592 0.6135
H29 H 0.8391 0.8538 0.6213
H30 H 0.9061 0.7367 0.6692
C15 C 1.01118(13) 0.8875(2) 0.59734(9)
H31 H 1.0451 0.8680 0.6411
H32 H 0.9788 0.9927 0.5962
H33 H 1.0547 0.8899 0.5665
C16 C 0.89139(13) 0.7808(2) 0.51232(9)
H34 H 0.9354 0.7833 0.4818
H35 H 0.8583 0.8854 0.5106
H36 H 0.8470 0.6917 0.5006
N1 N 0.94249(10) 0.75337(16) 0.57931(7)
C17 C 0.64792(18) 0.7285(3) 0.32067(12)
H37 H 0.6521 0.6084 0.3268
H38 H 0.5968 0.7703 0.3417
C18 C 0.73812(17) 0.8092(3) 0.34948(11)
H39 H 0.7916 0.7372 0.3465
H40 H 0.7388 0.8401 0.3953
C19 C 0.73792(17) 0.9586(3) 0.30678(11)
H41 H 0.8013 1.0003 0.3069
H42 H 0.6991 1.0473 0.3202
C20 C 0.69643(17) 0.8896(3) 0.24138(11)
H43 H 0.6649 0.9769 0.2132
H44 H 0.7452 0.8406 0.2199
O5 O 0.63198(12) 0.7682(2) 0.25333(8)
O6? O 0.8406(9) 0.1288(13) 0.6889(4)
O7? O 0.9250(9) 0.3579(13) 0.6809(4)
C21? C 0.8702(7) 0.1842(11) 0.7550(4)
C22? C 0.9486(6) 0.3068(12) 0.7482(4)
C23? C 0.9039(12) 0.0313(15) 0.7933(7)
H45? H 0.8542 -0.0502 0.7886
H46? H 0.9218 0.0597 0.8391
H47? H 0.9574 -0.0140 0.7768
C24? C 0.7886(9) 0.253(2) 0.7817(8)
H48? H 0.7620 0.3447 0.7546
H49? H 0.8092 0.2921 0.8260
H50? H 0.7418 0.1677 0.7819
C25? C 1.0449(6) 0.231(2) 0.7575(9)
H51? H 1.0484 0.1518 0.7228
H52? H 1.0573 0.1748 0.7994
H53? H 1.0911 0.3171 0.7562
C26? C 0.9486(15) 0.4577(16) 0.7893(6)
H54? H 0.9679 0.5522 0.7659
H55? H 0.9918 0.4427 0.8299
H56? H 0.8862 0.4767 0.7988
loop_
_geom_bond_atom_site_label_1
_geom_bond_atom_site_label_2
_geom_bond_site_symmetry_1
_geom_bond_site_symmetry_2
O1 C1 1_555 1_555
O2 C2 1_555 1_555
C1 C2 1_555 1_555
C2 C5 1_555 1_555
C3 C1 1_555 1_555
H1 C3 1_555 1_555
H2 C3 1_555 1_555
H3 C3 1_555 1_555
C4 C1 1_555 1_555
H4 C4 1_555 1_555
H5 C4 1_555 1_555
H6 C4 1_555 1_555
C5 H7 1_555 1_555
H8 C5 1_555 1_555
H9 C5 1_555 1_555
C6 C2 1_555 1_555
H10 C6 1_555 1_555
H11 C6 1_555 1_555
H12 C6 1_555 1_555
C7 C8 1_555 1_555
C8 C11 1_555 1_555
C9 C7 1_555 1_555
H13 C9 1_555 1_555
H14 C9 1_555 1_555
H15 C9 1_555 1_555
C10 C7 1_555 1_555
H16 C10 1_555 1_555
H17 C10 1_555 1_555
H18 C10 1_555 1_555
C11 H19 1_555 1_555
H20 C11 1_555 1_555
H21 C11 1_555 1_555
C12 C8 1_555 1_555
H22 C12 1_555 1_555
H23 C12 1_555 1_555
H24 C12 1_555 1_555
B1 O1 1_555 1_555
B2 B1 1_555 1_555
F1 B2 1_555 1_555
O3 C7 1_555 1_555
O4 C8 1_555 1_555
C13 H25 1_555 1_555
H26 C13 1_555 1_555
H27 C13 1_555 1_555
C14 H28 1_555 1_555
H29 C14 1_555 1_555
H30 C14 1_555 1_555
C15 H31 1_555 1_555
H32 C15 1_555 1_555
H33 C15 1_555 1_555
C16 H34 1_555 1_555
H35 C16 1_555 1_555
H36 C16 1_555 1_555
N1 C13 1_555 1_555
C17 H37 1_555 1_555
H38 C17 1_555 1_555
C18 C17 1_555 1_555
H39 C18 1_555 1_555
H40 C18 1_555 1_555
C19 C18 1_555 1_555
H41 C19 1_555 1_555
H42 C19 1_555 1_555
C20 C19 1_555 1_555
H43 C20 1_555 1_555
H44 C20 1_555 1_555
O5 C17 1_555 1_555
O2 B1 1_555 1_555
B2 O3 1_555 1_555
B2 O4 1_555 1_555
C14 N1 1_555 1_555
C15 N1 1_555 1_555
C16 N1 1_555 1_555
C20 O5 1_555 1_555

#END
