
#######################################################################
#
#                 Cambridge Crystallographic Data Centre
#                                CCDC 
#
#######################################################################
#
# If this CIF has been generated from an entry in the Cambridge 
# Structural Database, then it will include bibliographic, chemical, 
# crystal, experimental, refinement or atomic coordinate data resulting 
# from the CCDC's data processing and validation procedures.
#
#######################################################################

data_MUJDUS
_chemical_formula_moiety         'C24 H48 B1 K1 O10'
_chemical_name_systematic        
(18-Crown-6)-(4,4,4',4',5,5,5',5'-octamethyl-2,2'-bi-1,3,2-dioxaborolane)-potassium
_symmetry_cell_setting           monoclinic
_symmetry_space_group_name_H-M   'P 21/c'
_symmetry_Int_Tables_number      14
_space_group_name_Hall           '-P 2ybc'
loop_
_symmetry_equiv_pos_site_id
_symmetry_equiv_pos_as_xyz
1 x,y,z
2 -x,1/2+y,1/2-z
3 -x,-y,-z
4 x,1/2-y,1/2+z
_cell_length_a                   10.0199(5)
_cell_length_b                   16.0164(8)
_cell_length_c                   18.3369(9)
_cell_angle_alpha                90
_cell_angle_beta                 98.026(2)
_cell_angle_gamma                90
_cell_volume                     2913.93
_exptl_crystal_colour            colorless
_exptl_crystal_description       needle
_cell_formula_units_Z            4
loop_
_atom_site_label
_atom_site_type_symbol
_atom_site_fract_x
_atom_site_fract_y
_atom_site_fract_z
C1 C 0.8511(4) 0.1196(3) 0.3519(2)
C2 C 0.7805(4) 0.2020(3) 0.3243(2)
C3 C 0.7509(5) 0.0497(3) 0.3610(3)
H1 H 0.6839 0.0464 0.3167
H2 H 0.7054 0.0614 0.4038
H3 H 0.7991 -0.0035 0.3682
C4 C 0.9504(5) 0.1280(3) 0.4225(2)
H4 H 0.9857 0.0728 0.4380
H5 H 0.9043 0.1522 0.4613
H6 H 1.0250 0.1645 0.4136
C5 C 0.6497(4) 0.2183(3) 0.3571(2)
H7 H 0.6146 0.2736 0.3419
H8 H 0.6684 0.2158 0.4110
H9 H 0.5827 0.1757 0.3393
C6 C 0.8710(5) 0.2780(3) 0.3376(2)
H10 H 0.9559 0.2676 0.3183
H11 H 0.8898 0.2891 0.3906
H12 H 0.8258 0.3265 0.3126
C7 C 0.8512(4) 0.0632(3) 0.1086(2)
C8 C 0.9135(4) 0.1523(3) 0.1051(2)
C9 C 0.7516(5) 0.0406(3) 0.0403(2)
H13 H 0.7234 -0.0177 0.0437
H14 H 0.7951 0.0480 -0.0039
H15 H 0.6724 0.0770 0.0374
C10 C 0.9602(4) -0.0040(3) 0.1222(2)
H16 H 1.0277 0.0128 0.1634
H17 H 1.0035 -0.0108 0.0778
H18 H 0.9191 -0.0570 0.1339
C11 C 0.8089(5) 0.2163(3) 0.0718(2)
H19 H 0.7285 0.2123 0.0965
H20 H 0.7844 0.2051 0.0191
H21 H 0.8470 0.2726 0.0786
C12 C 1.0375(4) 0.1573(3) 0.0664(2)
H22 H 1.0706 0.2149 0.0679
H23 H 1.0142 0.1396 0.0151
H24 H 1.1078 0.1206 0.0913
C13 C 1.1663(5) 0.3453(3) 0.2227(2)
H25 H 1.1520 0.4061 0.2275
H26 H 1.0827 0.3210 0.1959
C14 C 1.2811(5) 0.3307(3) 0.1790(2)
H27 H 1.2584 0.3545 0.1290
H28 H 1.3635 0.3588 0.2034
C15 C 1.4390(5) 0.2223(3) 0.1658(2)
H29 H 1.4994 0.2346 0.2121
H30 H 1.4688 0.2562 0.1260
C16 C 1.4475(5) 0.1326(3) 0.1479(2)
H31 H 1.3911 0.1206 0.1003
H32 H 1.5418 0.1175 0.1435
C17 C 1.4083(6) -0.0025(3) 0.1907(3)
H33 H 1.4991 -0.0175 0.1795
H34 H 1.3413 -0.0179 0.1479
C18 C 1.3794(5) -0.0477(3) 0.2578(3)
H35 H 1.3892 -0.1086 0.2512
H36 H 1.4434 -0.0300 0.3011
C19 C 1.1983(6) -0.0693(3) 0.3295(3)
H37 H 1.2070 -0.1305 0.3237
H38 H 1.1017 -0.0564 0.3294
C20 C 1.2766(6) -0.0429(3) 0.4028(3)
H39 H 1.2398 -0.0711 0.4437
H40 H 1.3726 -0.0587 0.4049
C21 C 1.3647(5) 0.0803(3) 0.4622(2)
H41 H 1.4539 0.0754 0.4451
H42 H 1.3682 0.0497 0.5093
C22 C 1.3334(5) 0.1699(3) 0.4735(2)
H43 H 1.2449 0.1749 0.4913
H44 H 1.4028 0.1945 0.5111
C23 C 1.3105(5) 0.3011(3) 0.4145(3)
H45 H 1.3853 0.3250 0.4493
H46 H 1.2249 0.3113 0.4342
C24 C 1.3061(4) 0.3410(3) 0.3400(2)
H47 H 1.2989 0.4024 0.3441
H48 H 1.3892 0.3277 0.3188
B1 B 0.8511(5) 0.1318(3) 0.2226(3)
O1 O 0.9237(3) 0.09804(17) 0.29253(14)
O2 O 0.7478(3) 0.18758(18) 0.24702(15)
O3 O 0.7812(3) 0.06901(17) 0.17118(14)
O4 O 0.9506(3) 0.17111(17) 0.18179(14)
O5 O 1.1922(3) 0.30878(17) 0.29472(14)
O6 O 1.3047(3) 0.24351(18) 0.17412(17)
O7 O 1.4016(3) 0.08517(19) 0.20470(17)
O8 O 1.2450(3) -0.02839(18) 0.26884(16)
O9 O 1.2645(3) 0.04546(19) 0.40923(16)
O10 O 1.3306(3) 0.21348(17) 0.40585(15)
K1 K 1.18146(10) 0.13911(6) 0.27412(5)
loop_
_geom_bond_atom_site_label_1
_geom_bond_atom_site_label_2
_geom_bond_site_symmetry_1
_geom_bond_site_symmetry_2
C1 C2 1_555 1_555
C2 C5 1_555 1_555
C3 C1 1_555 1_555
H1 C3 1_555 1_555
H2 C3 1_555 1_555
H3 C3 1_555 1_555
C4 C1 1_555 1_555
H4 C4 1_555 1_555
H5 C4 1_555 1_555
H6 C4 1_555 1_555
C5 H7 1_555 1_555
H8 C5 1_555 1_555
H9 C5 1_555 1_555
C6 C2 1_555 1_555
H10 C6 1_555 1_555
H11 C6 1_555 1_555
H12 C6 1_555 1_555
C7 C8 1_555 1_555
C8 C11 1_555 1_555
C9 C7 1_555 1_555
H13 C9 1_555 1_555
H14 C9 1_555 1_555
H15 C9 1_555 1_555
C10 C7 1_555 1_555
H16 C10 1_555 1_555
H17 C10 1_555 1_555
H18 C10 1_555 1_555
C11 H19 1_555 1_555
H20 C11 1_555 1_555
H21 C11 1_555 1_555
C12 C8 1_555 1_555
H22 C12 1_555 1_555
H23 C12 1_555 1_555
H24 C12 1_555 1_555
C13 H25 1_555 1_555
H26 C13 1_555 1_555
C14 C13 1_555 1_555
H27 C14 1_555 1_555
H28 C14 1_555 1_555
C15 H29 1_555 1_555
H30 C15 1_555 1_555
C16 C15 1_555 1_555
H31 C16 1_555 1_555
H32 C16 1_555 1_555
C17 H33 1_555 1_555
H34 C17 1_555 1_555
C18 C17 1_555 1_555
H35 C18 1_555 1_555
H36 C18 1_555 1_555
C19 H37 1_555 1_555
H38 C19 1_555 1_555
C20 C19 1_555 1_555
H39 C20 1_555 1_555
H40 C20 1_555 1_555
C21 H41 1_555 1_555
H42 C21 1_555 1_555
C22 C21 1_555 1_555
H43 C22 1_555 1_555
H44 C22 1_555 1_555
C23 H45 1_555 1_555
H46 C23 1_555 1_555
C24 C23 1_555 1_555
H47 C24 1_555 1_555
H48 C24 1_555 1_555
B1 O1 1_555 1_555
O1 C1 1_555 1_555
O2 C2 1_555 1_555
O3 C7 1_555 1_555
O4 C8 1_555 1_555
O5 C13 1_555 1_555
O6 C14 1_555 1_555
O7 C16 1_555 1_555
O8 C18 1_555 1_555
O9 C20 1_555 1_555
O10 C22 1_555 1_555
K1 O1 1_555 1_555
C15 O6 1_555 1_555
C17 O7 1_555 1_555
C19 O8 1_555 1_555
C21 O9 1_555 1_555
C23 O10 1_555 1_555
C24 O5 1_555 1_555
B1 O2 1_555 1_555
B1 O3 1_555 1_555
B1 O4 1_555 1_555
O4 K1 1_555 1_555
O5 K1 1_555 1_555
O6 K1 1_555 1_555
O7 K1 1_555 1_555
O8 K1 1_555 1_555
O9 K1 1_555 1_555
O10 K1 1_555 1_555

#END
