
#######################################################################
#
#                 Cambridge Crystallographic Data Centre
#                                CCDC 
#
#######################################################################
#
# If this CIF has been generated from an entry in the Cambridge 
# Structural Database, then it will include bibliographic, chemical, 
# crystal, experimental, refinement or atomic coordinate data resulting 
# from the CCDC's data processing and validation procedures.
#
#######################################################################

data_MUJFAA
_chemical_formula_moiety         'C12 H24 B1 O4 1-,C16 H36 N1 1+,2(H3 B1 O3)'
_chemical_name_systematic        
'Tetra-n-butylammonium bis(2,3-dimethylbutane-2,3-diolato)borate bis(boric acid)'
_symmetry_cell_setting           orthorhombic
_symmetry_space_group_name_H-M   'P c a 21'
_symmetry_Int_Tables_number      29
_space_group_name_Hall           'P 2c -2ac'
loop_
_symmetry_equiv_pos_site_id
_symmetry_equiv_pos_as_xyz
1 x,y,z
2 -x,-y,1/2+z
3 1/2+x,-y,z
4 1/2-x,y,1/2+z
_cell_length_a                   17.2172(3)
_cell_length_b                   10.0967(2)
_cell_length_c                   20.9644(4)
_cell_angle_alpha                90
_cell_angle_beta                 90
_cell_angle_gamma                90
_cell_volume                     3644.39
_exptl_crystal_colour            colorless
_exptl_crystal_description       prism
_cell_formula_units_Z            4
loop_
_atom_site_label
_atom_site_type_symbol
_atom_site_fract_x
_atom_site_fract_y
_atom_site_fract_z
C1 C 0.06382(14) 0.7064(3) 0.72170(14)
C2 C 0.08148(16) 0.8559(3) 0.71199(13)
C3 C 0.01212(16) 0.6754(3) 0.77800(16)
H1 H 0.0061 0.5792 0.7819
H2 H -0.0389 0.7162 0.7715
H3 H 0.0356 0.7107 0.8170
C4 C 0.03252(18) 0.6413(4) 0.66151(18)
H4 H 0.0663 0.6632 0.6254
H5 H -0.0201 0.6738 0.6531
H6 H 0.0312 0.5450 0.6673
C5 C 0.09202(19) 0.9302(3) 0.77471(14)
H7 H 0.1257 0.8787 0.8031
H8 H 0.0413 0.9430 0.7950
H9 H 0.1159 1.0166 0.7663
C6 C 0.0241(2) 0.9314(5) 0.67097(16)
H10 H 0.0420 1.0229 0.6656
H11 H -0.0270 0.9314 0.6917
H12 H 0.0200 0.8888 0.6291
C7 C 0.3299(3) 0.7698(7) 0.7172(3)
C8 C 0.3182(4) 0.6501(7) 0.6738(3)
C9 C 0.3404(4) 0.8979(6) 0.6787(3)
H13 H 0.2975 0.9071 0.6483
H14 H 0.3897 0.8944 0.6555
H15 H 0.3406 0.9739 0.7078
C10 C 0.3973(15) 0.753(3) 0.7638(16)
H16 H 0.4014 0.8321 0.7907
H17 H 0.4457 0.7412 0.7398
H18 H 0.3881 0.6752 0.7906
C11 C 0.3230(4) 0.5171(7) 0.7083(4)
H19 H 0.2850 0.5152 0.7431
H20 H 0.3754 0.5054 0.7257
H21 H 0.3118 0.4454 0.6781
C12 C 0.3710(6) 0.6466(10) 0.6150(5)
H22 H 0.3569 0.5709 0.5881
H23 H 0.4252 0.6378 0.6286
H24 H 0.3647 0.7288 0.5906
O1 O 0.13992(9) 0.65299(17) 0.73362(9)
O2 O 0.15500(11) 0.85116(19) 0.67945(9)
O3 O 0.26079(10) 0.76645(17) 0.74827(8)
O4 O 0.24021(10) 0.67289(17) 0.64873(9)
B1 B 0.19879(16) 0.7356(3) 0.70245(13)
C19 C 0.20470(19) 0.1549(3) 0.02174(15)
H37 H 0.1730 0.1308 0.0594
H38 H 0.2364 0.0766 0.0104
C20 C 0.2594(2) 0.2661(3) 0.0409(2)
H39 H 0.2314 0.3517 0.0416
H40 H 0.3029 0.2728 0.0101
C21 C 0.2910(10) 0.2317(7) 0.1094(6)
H41 H 0.2471 0.2285 0.1398
H42 H 0.3156 0.1431 0.1085
C22 C 0.3500(9) 0.3337(11) 0.1320(10)
H43 H 0.3915 0.3421 0.1003
H44 H 0.3722 0.3051 0.1728
H45 H 0.3242 0.4195 0.1376
C23 C 0.09380(16) 0.2924(3) -0.01292(13)
H46 H 0.0691 0.2647 0.0276
H47 H 0.1242 0.3735 -0.0040
C24 C 0.03019(16) 0.3272(3) -0.05992(14)
H48 H -0.0004 0.2470 -0.0704
H49 H 0.0534 0.3614 -0.0999
C25 C -0.02262(17) 0.4318(3) -0.03080(17)
H50 H -0.0467 0.3953 0.0083
H51 H 0.0092 0.5092 -0.0182
C26 C -0.08573(18) 0.4770(3) -0.07535(18)
H52 H -0.0623 0.5167 -0.1134
H53 H -0.1183 0.5429 -0.0538
H54 H -0.1177 0.4010 -0.0878
C27 C 0.10785(17) 0.0572(3) -0.05112(14)
H55 H 0.0787 0.0730 -0.0911
H56 H 0.1472 -0.0117 -0.0601
C28 C 0.0525(2) 0.0039(3) -0.00233(18)
H57 H 0.0062 0.0621 -0.0012
H58 H 0.0777 0.0090 0.0400
C29 C 0.0246(5) -0.1425(7) -0.0134(5)
H59 H 0.0677 -0.1985 -0.0291
H60 H 0.0038 -0.1812 0.0265
C30 C -0.0378(4) -0.1304(7) -0.0627(3)
H61 H -0.0781 -0.0697 -0.0474
H62 H -0.0607 -0.2177 -0.0707
H63 H -0.0154 -0.0958 -0.1023
C31 C 0.19455(18) 0.2325(3) -0.09147(15)
H64 H 0.1568 0.2530 -0.1257
H65 H 0.2210 0.3163 -0.0801
C32 C 0.2545(2) 0.1379(3) -0.1179(2)
H66 H 0.2272 0.0644 -0.1397
H67 H 0.2840 0.0993 -0.0819
C33 C 0.3117(5) 0.1995(9) -0.1644(5)
H68 H 0.3289 0.2878 -0.1495
H69 H 0.3577 0.1421 -0.1703
C34 C 0.2658(5) 0.2105(7) -0.2249(5)
H70 H 0.2416 0.1250 -0.2345
H71 H 0.3004 0.2358 -0.2600
H72 H 0.2254 0.2780 -0.2198
N1 N 0.14992(13) 0.1841(2) -0.03345(11)
O5 O 0.21147(13) 0.71139(19) 0.52721(9)
O6 O 0.17199(14) 0.8662(2) 0.44943(9)
O7 O 0.14787(14) 0.9126(2) 0.55501(10)
B2 B 0.17739(17) 0.8286(3) 0.51161(14)
H94 H 0.2171(19) 0.694(3) 0.5691(19)
H95 H 0.197(2) 0.812(4) 0.4249(19)
H96 H 0.152(3) 0.884(5) 0.597(2)
O8 O 0.16086(12) 0.5228(2) 0.84397(9)
O9 O 0.23721(12) 0.71527(19) 0.87076(10)
O10 O 0.19989(13) 0.5584(2) 0.94830(9)
B3 B 0.19926(18) 0.5999(3) 0.88626(14)
H97 H 0.1575(18) 0.560(3) 0.8070(17)
H98 H 0.2403(19) 0.727(3) 0.8309(19)
H99 H 0.234(2) 0.606(4) 0.9781(19)
C13? C 0.3330(3) 0.6878(7) 0.7254(3)
C14? C 0.3237(4) 0.6948(7) 0.6522(3)
C15? C 0.3278(4) 0.5442(6) 0.7495(4)
H25? H 0.2824 0.5009 0.7306
H26? H 0.3229 0.5441 0.7961
H27? H 0.3749 0.4960 0.7372
C16? C 0.4042(15) 0.755(3) 0.7546(17)
H28? H 0.4035 0.7435 0.8010
H29? H 0.4033 0.8498 0.7444
H30? H 0.4515 0.7151 0.7371
C17? C 0.3462(3) 0.8329(5) 0.6276(3)
H31? H 0.3304 0.8417 0.5829
H32? H 0.4025 0.8446 0.6311
H33? H 0.3198 0.9006 0.6532
C18? C 0.3664(6) 0.5897(8) 0.6139(5)
H34? H 0.3467 0.5019 0.6255
H35? H 0.4221 0.5945 0.6231
H36? H 0.3578 0.6050 0.5682
H73? H 0.2329 0.3531 0.0387
H74? H 0.3054 0.2680 0.0126
C35? C 0.3196(8) 0.2252(16) 0.0904(7)
H75? H 0.2926 0.1933 0.1292
H76? H 0.3510 0.1510 0.0733
C36? C 0.3726(10) 0.3375(18) 0.1081(8)
H77? H 0.4069 0.3577 0.0720
H78? H 0.4040 0.3122 0.1451
H79? H 0.3416 0.4158 0.1186
H80? H 0.0136 0.0713 0.0101
H81? H 0.0803 -0.0271 0.0362
C37? C 0.0133(7) -0.1123(10) -0.0383(5)
H82? H -0.0176 -0.0775 -0.0744
H83? H 0.0535 -0.1724 -0.0556
C38? C -0.0382(4) -0.1866(7) 0.0063(4)
H84? H -0.0093 -0.2088 0.0451
H85? H -0.0561 -0.2682 -0.0144
H86? H -0.0832 -0.1316 0.0174
H87? H 0.2289 0.0511 -0.1245
H88? H 0.2995 0.1260 -0.0891
C39? C 0.2788(5) 0.1979(8) -0.1842(4)
H89? H 0.2314 0.2225 -0.2083
H90? H 0.3093 0.2796 -0.1771
C40? C 0.3267(4) 0.1013(7) -0.2241(4)
H91? H 0.3723 0.0731 -0.1996
H92? H 0.3436 0.1451 -0.2634
H93? H 0.2950 0.0238 -0.2347
loop_
_geom_bond_atom_site_label_1
_geom_bond_atom_site_label_2
_geom_bond_site_symmetry_1
_geom_bond_site_symmetry_2
C1 C2 1_555 1_555
C2 C5 1_555 1_555
C3 C1 1_555 1_555
H1 C3 1_555 1_555
H2 C3 1_555 1_555
H3 C3 1_555 1_555
C4 C1 1_555 1_555
H4 C4 1_555 1_555
H5 C4 1_555 1_555
H6 C4 1_555 1_555
C5 H7 1_555 1_555
H8 C5 1_555 1_555
H9 C5 1_555 1_555
C6 C2 1_555 1_555
H10 C6 1_555 1_555
H11 C6 1_555 1_555
H12 C6 1_555 1_555
C7 C8 1_555 1_555
C8 C11 1_555 1_555
C9 C7 1_555 1_555
H13 C9 1_555 1_555
H14 C9 1_555 1_555
H15 C9 1_555 1_555
C10 C7 1_555 1_555
H16 C10 1_555 1_555
H17 C10 1_555 1_555
H18 C10 1_555 1_555
C11 H19 1_555 1_555
H20 C11 1_555 1_555
H21 C11 1_555 1_555
C12 C8 1_555 1_555
H22 C12 1_555 1_555
H23 C12 1_555 1_555
H24 C12 1_555 1_555
O1 C1 1_555 1_555
O2 C2 1_555 1_555
O3 C7 1_555 1_555
O4 C8 1_555 1_555
B1 O1 1_555 1_555
C19 H37 1_555 1_555
H38 C19 1_555 1_555
C20 C19 1_555 1_555
H39 C20 1_555 1_555
H40 C20 1_555 1_555
C21 C20 1_555 1_555
H41 C21 1_555 1_555
H42 C21 1_555 1_555
C22 C21 1_555 1_555
H43 C22 1_555 1_555
H44 C22 1_555 1_555
H45 C22 1_555 1_555
C23 H46 1_555 1_555
H47 C23 1_555 1_555
C24 C23 1_555 1_555
H48 C24 1_555 1_555
H49 C24 1_555 1_555
C25 C24 1_555 1_555
H50 C25 1_555 1_555
H51 C25 1_555 1_555
C26 C25 1_555 1_555
H52 C26 1_555 1_555
H53 C26 1_555 1_555
H54 C26 1_555 1_555
C27 H55 1_555 1_555
H56 C27 1_555 1_555
C28 C27 1_555 1_555
H57 C28 1_555 1_555
H58 C28 1_555 1_555
C29 C28 1_555 1_555
H59 C29 1_555 1_555
H60 C29 1_555 1_555
C30 C29 1_555 1_555
H61 C30 1_555 1_555
H62 C30 1_555 1_555
H63 C30 1_555 1_555
C31 H64 1_555 1_555
H65 C31 1_555 1_555
C32 C31 1_555 1_555
H66 C32 1_555 1_555
H67 C32 1_555 1_555
C33 C32 1_555 1_555
H68 C33 1_555 1_555
H69 C33 1_555 1_555
C34 C33 1_555 1_555
H70 C34 1_555 1_555
H71 C34 1_555 1_555
H72 C34 1_555 1_555
N1 C19 1_555 1_555
O5 B2 1_555 1_555
O6 B2 1_555 1_555
O7 B2 1_555 1_555
H94 O5 1_555 1_555
H95 O6 1_555 1_555
H96 O7 1_555 1_555
O8 B3 1_555 1_555
O9 B3 1_555 1_555
O10 B3 1_555 1_555
H97 O8 1_555 1_555
H98 O9 1_555 1_555
H99 O10 1_555 1_555
O2 B1 1_555 1_555
O3 B1 1_555 1_555
O4 B1 1_555 1_555
C23 N1 1_555 1_555
C27 N1 1_555 1_555
C31 N1 1_555 1_555

#END
