
#######################################################################
#
#                 Cambridge Crystallographic Data Centre
#                                CCDC 
#
#######################################################################
#
# If this CIF has been generated from an entry in the Cambridge 
# Structural Database, then it will include bibliographic, chemical, 
# crystal, experimental, refinement or atomic coordinate data resulting 
# from the CCDC's data processing and validation procedures.
#
#######################################################################

data_MUJGUV
_chemical_formula_moiety         'C25 H21 F2 N3 O3'
_chemical_name_systematic        
2-(1,3-dioxo-1,3-dihydro-2H-isoindol-2-yl)-3-fluoro-3-(3-fluorophenyl)-N-(2-(pyridin-2-yl)propan-2-yl)propanamide
_symmetry_cell_setting           orthorhombic
_symmetry_space_group_name_H-M   'P 21 21 21'
_symmetry_Int_Tables_number      19
_space_group_name_Hall           'P 2ac 2ab'
loop_
_symmetry_equiv_pos_site_id
_symmetry_equiv_pos_as_xyz
1 x,y,z
2 1/2-x,-y,1/2+z
3 1/2+x,1/2-y,-z
4 -x,1/2+y,1/2-z
_cell_length_a                   5.8842(5)
_cell_length_b                   18.6148(13)
_cell_length_c                   20.0009(14)
_cell_angle_alpha                90
_cell_angle_beta                 90
_cell_angle_gamma                90
_cell_volume                     2190.76
_exptl_crystal_colour            colorless
_exptl_crystal_description       block
_cell_formula_units_Z            4
loop_
_atom_site_label
_atom_site_type_symbol
_atom_site_fract_x
_atom_site_fract_y
_atom_site_fract_z
F1 F 0.2551(6) 0.81198(14) 0.10720(16)
F2 F 0.1612(5) 0.59557(11) 0.24589(9)
O1 O 0.3354(4) 0.57714(12) 0.03008(10)
O2 O -0.2892(4) 0.45966(14) 0.10822(12)
O3 O 0.0221(5) 0.44557(13) 0.24356(11)
N1 N 0.0549(4) 0.51237(13) 0.08457(11)
N2 N 0.2404(4) 0.39417(13) 0.16366(11)
H1 H 0.3158 0.4025 0.1277
N3 N 0.4560(4) 0.30340(14) 0.08589(12)
C1 C 0.0342(7) 0.54346(19) -0.09601(15)
H2 H 0.1607 0.5682 -0.1117
C2 C -0.1386(9) 0.5222(2) -0.13875(18)
H3 H -0.1286 0.5334 -0.1840
C3 C -0.3233(8) 0.4853(2) -0.11588(19)
H4 H -0.4359 0.4715 -0.1459
C4 C -0.3462(6) 0.4679(2) -0.04861(19)
H5 H -0.4716 0.4425 -0.0331
C5 C -0.1759(6) 0.48980(17) -0.00577(16)
C6 C 0.0115(6) 0.52646(16) -0.02933(14)
C7 C 0.1596(5) 0.54350(16) 0.02821(14)
C8 C -0.1550(6) 0.48273(17) 0.06809(16)
C9 C 0.1414(6) 0.52036(15) 0.15210(13)
H6 H 0.3020 0.5337 0.1485
C10 C 0.0218(6) 0.58016(17) 0.19088(14)
H7 H -0.1246 0.5621 0.2072
C11 C -0.0179(6) 0.64750(16) 0.15156(15)
C12 C -0.2194(6) 0.6562(2) 0.11721(17)
H8 H -0.3306 0.6208 0.1200
C13 C -0.2586(9) 0.7165(3) 0.07884(19)
H9 H -0.3945 0.7212 0.0555
C14 C -0.0992(9) 0.7693(2) 0.07498(19)
H10 H -0.1236 0.8103 0.0494
C15 C 0.0988(8) 0.7600(2) 0.1101(2)
C16 C 0.1444(7) 0.70074(18) 0.14814(17)
H11 H 0.2812 0.6965 0.1711
C17 C 0.1299(6) 0.44862(17) 0.19115(15)
C18 C 0.2436(5) 0.32059(16) 0.19013(14)
C19 C 0.3852(5) 0.27433(16) 0.14300(14)
C20 C 0.4385(6) 0.20379(19) 0.15933(19)
H12 H 0.3910 0.1846 0.1999
C21 C 0.5610(7) 0.1625(2) 0.1156(2)
H13 H 0.5946 0.1149 0.1258
C22 C 0.6332(7) 0.1921(2) 0.05662(19)
H14 H 0.7172 0.1655 0.0260
C23 C 0.5772(6) 0.2623(2) 0.04445(17)
H15 H 0.6269 0.2828 0.0046
C24 C 0.3485(7) 0.3201(2) 0.25968(15)
H16 H 0.5028 0.3366 0.2571
H17 H 0.3457 0.2721 0.2773
H18 H 0.2631 0.3513 0.2885
C25 C 0.0000(6) 0.2913(2) 0.19123(19)
H19 H -0.0901 0.3192 0.2217
H20 H 0.0018 0.2421 0.2055
H21 H -0.0641 0.2943 0.1472
loop_
_geom_bond_atom_site_label_1
_geom_bond_atom_site_label_2
_geom_bond_site_symmetry_1
_geom_bond_site_symmetry_2
F1 C15 1_555 1_555
F2 C10 1_555 1_555
O1 C7 1_555 1_555
O2 C8 1_555 1_555
O3 C17 1_555 1_555
N1 C7 1_555 1_555
N2 H1 1_555 1_555
N3 C19 1_555 1_555
C1 H2 1_555 1_555
C2 C1 1_555 1_555
H3 C2 1_555 1_555
C3 C2 1_555 1_555
H4 C3 1_555 1_555
C4 C3 1_555 1_555
H5 C4 1_555 1_555
C5 C4 1_555 1_555
C6 C1 1_555 1_555
C7 C6 1_555 1_555
C8 N1 1_555 1_555
C9 N1 1_555 1_555
H6 C9 1_555 1_555
C10 C9 1_555 1_555
H7 C10 1_555 1_555
C11 C10 1_555 1_555
C12 C11 1_555 1_555
H8 C12 1_555 1_555
C13 C12 1_555 1_555
H9 C13 1_555 1_555
C14 C13 1_555 1_555
H10 C14 1_555 1_555
C15 C14 1_555 1_555
C16 C11 1_555 1_555
H11 C16 1_555 1_555
C17 N2 1_555 1_555
C18 N2 1_555 1_555
C19 C18 1_555 1_555
C20 C19 1_555 1_555
H12 C20 1_555 1_555
C21 C20 1_555 1_555
H13 C21 1_555 1_555
C22 C21 1_555 1_555
H14 C22 1_555 1_555
C23 N3 1_555 1_555
H15 C23 1_555 1_555
C24 C18 1_555 1_555
H16 C24 1_555 1_555
H17 C24 1_555 1_555
H18 C24 1_555 1_555
C25 C18 1_555 1_555
H19 C25 1_555 1_555
H20 C25 1_555 1_555
H21 C25 1_555 1_555
C5 C6 1_555 1_555
C5 C8 1_555 1_555
C9 C17 1_555 1_555
C15 C16 1_555 1_555
C22 C23 1_555 1_555

#END
