
#######################################################################
#
#                 Cambridge Crystallographic Data Centre
#                                CCDC 
#
#######################################################################
#
# If this CIF has been generated from an entry in the Cambridge 
# Structural Database, then it will include bibliographic, chemical, 
# crystal, experimental, refinement or atomic coordinate data resulting 
# from the CCDC's data processing and validation procedures.
#
#######################################################################

data_MUJJEI
_chemical_formula_moiety         'C26 H18 Br1 N1 O2'
_chemical_name_systematic        
N-(1-(4-bromophenyl)naphtho[2,1-b]furan-2-yl)-1-(4-methoxyphenyl)methanimine
_symmetry_cell_setting           orthorhombic
_symmetry_space_group_name_H-M   'P c a 21'
_symmetry_Int_Tables_number      29
_space_group_name_Hall           'P 2c -2ac'
loop_
_symmetry_equiv_pos_site_id
_symmetry_equiv_pos_as_xyz
1 x,y,z
2 -x,-y,1/2+z
3 1/2+x,-y,z
4 1/2-x,y,1/2+z
_cell_length_a                   15.285(3)
_cell_length_b                   18.355(4)
_cell_length_c                   7.5960(16)
_cell_angle_alpha                90
_cell_angle_beta                 90
_cell_angle_gamma                90
_cell_volume                     2131.1
_exptl_crystal_colour            white
_exptl_crystal_description       block
_cell_formula_units_Z            4
loop_
_atom_site_label
_atom_site_type_symbol
_atom_site_fract_x
_atom_site_fract_y
_atom_site_fract_z
Br1 Br 0.28933(7) 0.17297(8) 0.0528(2)
O1 O 0.6859(4) 0.3182(3) 0.7142(9)
C1 C 0.8272(5) 0.1653(4) 0.4451(11)
C2 C 0.5424(5) 0.3469(3) 0.7162(11)
C3 C 0.5576(4) 0.2934(3) 0.5781(10)
C4 C 0.6447(5) 0.2767(4) 0.5860(10)
O2 O 0.9927(5) 0.0116(3) 0.2029(9)
C5 C 0.9394(6) 0.0647(5) 0.2909(11)
N1 N 0.6904(4) 0.2269(3) 0.4927(8)
C6 C 0.4956(5) 0.2632(4) 0.4491(10)
C7 C 0.9178(6) 0.1694(4) 0.4676(13)
H1 H 0.9411 0.2065 0.5365
C8 C 0.4678(5) 0.3824(4) 0.7886(11)
C9 C 0.4783(5) 0.1894(4) 0.4355(11)
H2 H 0.5086 0.1571 0.5076
C10 C 0.6228(5) 0.3599(4) 0.7902(12)
C11 C 0.9732(5) 0.1197(5) 0.3900(11)
H3 H 1.0334 0.1237 0.4052
C12 C 0.4509(6) 0.3085(5) 0.3330(12)
H4 H 0.4613 0.3584 0.3378
C13 C 0.7732(5) 0.2195(4) 0.5288(12)
H5 H 0.7983 0.2503 0.6117
C14 C 0.7951(5) 0.1090(4) 0.3432(12)
H6 H 0.7350 0.1048 0.3264
C15 C 0.3746(5) 0.2099(6) 0.2094(11)
C16 C 0.3281(7) 0.4562(6) 0.9526(15)
H7 H 0.2815 0.4803 1.0054
C17 C 0.4837(5) 0.4324(4) 0.9298(12)
C18 C 0.8495(6) 0.0594(4) 0.2670(12)
H8 H 0.8264 0.0220 0.1988
C19 C 0.4179(6) 0.1625(5) 0.3186(13)
H9 H 0.4064 0.1128 0.3136
C20 C 0.3801(5) 0.3694(4) 0.7397(12)
H10 H 0.3684 0.3353 0.6521
C21 C 0.6383(6) 0.4076(4) 0.9323(13)
H11 H 0.6941 0.4142 0.9785
C22 C 0.3920(6) 0.2825(5) 0.2115(12)
H12 H 0.3648 0.3139 0.1325
C23 C 0.3129(6) 0.4045(6) 0.8155(14)
H13 H 0.2561 0.3951 0.7785
C24 C 0.4105(6) 0.4696(4) 1.0044(13)
H14 H 0.4203 0.5043 1.0915
C25 C 0.5685(6) 0.4430(5) 0.9978(13)
H15 H 0.5765 0.4754 1.0905
C26 C 1.0710(9) 0.0109(6) 0.2369(17)
H16 H 1.0968 0.0562 0.2012
H17 H 1.0985 -0.0285 0.1748
H18 H 1.0790 0.0043 0.3612
loop_
_geom_bond_atom_site_label_1
_geom_bond_atom_site_label_2
_geom_bond_site_symmetry_1
_geom_bond_site_symmetry_2
Br1 C15 1_555 1_555
O1 C4 1_555 1_555
C1 C7 1_555 1_555
C2 C3 1_555 1_555
C3 C4 1_555 1_555
C4 N1 1_555 1_555
O2 C5 1_555 1_555
C5 C11 1_555 1_555
N1 C13 1_555 1_555
C6 C3 1_555 1_555
C7 H1 1_555 1_555
C8 C2 1_555 1_555
C9 C6 1_555 1_555
H2 C9 1_555 1_555
C10 O1 1_555 1_555
C11 C7 1_555 1_555
H3 C11 1_555 1_555
C12 C6 1_555 1_555
H4 C12 1_555 1_555
C13 C1 1_555 1_555
H5 C13 1_555 1_555
C14 C1 1_555 1_555
H6 C14 1_555 1_555
C15 C19 1_555 1_555
C16 H7 1_555 1_555
C17 C8 1_555 1_555
C18 C5 1_555 1_555
H8 C18 1_555 1_555
C19 C9 1_555 1_555
H9 C19 1_555 1_555
C20 C8 1_555 1_555
H10 C20 1_555 1_555
C21 C10 1_555 1_555
H11 C21 1_555 1_555
C22 C12 1_555 1_555
H12 C22 1_555 1_555
C23 C16 1_555 1_555
H13 C23 1_555 1_555
C24 C16 1_555 1_555
H14 C24 1_555 1_555
C25 C17 1_555 1_555
H15 C25 1_555 1_555
C26 O2 1_555 1_555
H16 C26 1_555 1_555
H17 C26 1_555 1_555
H18 C26 1_555 1_555
C2 C10 1_555 1_555
C14 C18 1_555 1_555
C15 C22 1_555 1_555
C17 C24 1_555 1_555
C20 C23 1_555 1_555
C21 C25 1_555 1_555

#END
