
#######################################################################
#
#                 Cambridge Crystallographic Data Centre
#                                CCDC 
#
#######################################################################
#
# If this CIF has been generated from an entry in the Cambridge 
# Structural Database, then it will include bibliographic, chemical, 
# crystal, experimental, refinement or atomic coordinate data resulting 
# from the CCDC's data processing and validation procedures.
#
#######################################################################

data_MUJKUY
_chemical_formula_moiety         'C18 H15 Br1 I1 N1 O1'
_chemical_name_systematic        
(R)-4-(4-Bromophenyl)-4-(3-iodo-1H-indol-2-yl)butan-2-one
_symmetry_cell_setting           tetragonal
_symmetry_space_group_name_H-M   'P 43 21 2'
_symmetry_Int_Tables_number      96
_space_group_name_Hall           'P 4nw 2abw'
loop_
_symmetry_equiv_pos_site_id
_symmetry_equiv_pos_as_xyz
1 x,y,z
2 1/2-y,1/2+x,3/4+z
3 -x,-y,1/2+z
4 1/2+y,1/2-x,1/4+z
5 1/2+x,1/2-y,1/4-z
6 y,x,-z
7 1/2-x,1/2+y,3/4-z
8 -y,-x,1/2-z
_cell_length_a                   9.882(8)
_cell_length_b                   9.882(8)
_cell_length_c                   34.76(3)
_cell_angle_alpha                90
_cell_angle_beta                 90
_cell_angle_gamma                90
_cell_volume                     3394.45
_exptl_crystal_colour            yellow
_exptl_crystal_description       block
_cell_formula_units_Z            8
loop_
_atom_site_label
_atom_site_type_symbol
_atom_site_fract_x
_atom_site_fract_y
_atom_site_fract_z
I1 I 0.37443(4) 0.51619(5) 0.052634(13)
Br1 Br 1.15283(7) 0.54226(11) -0.02703(2)
N1 N 0.6847(6) 0.5741(6) 0.13260(15)
C1 C 0.5107(6) 0.5216(6) 0.09697(16)
C2 C 0.6204(6) 0.6020(6) 0.09866(17)
C3 C 0.6160(7) 0.4761(7) 0.15146(18)
C4 C 0.7935(6) 0.6687(6) 0.05047(16)
C5 C 0.8968(7) 0.5137(7) 0.00610(19)
H1 H 0.8919 0.4348 -0.0084
C6 C 1.0079(7) 0.5921(7) 0.00513(17)
C7 C 0.7900(6) 0.5534(7) 0.02922(18)
H2 H 0.7131 0.4993 0.0302
C8 C 0.6694(6) 0.7085(6) 0.07176(17)
H3 H 0.5984 0.7184 0.0523
C9 C 0.6778(6) 0.8451(6) 0.09213(18)
H4 H 0.7360 0.8364 0.1145
H5 H 0.7187 0.9105 0.0749
C10 C 0.5435(7) 0.8964(7) 0.1046(2)
C11 C 0.5434(8) 1.0126(8) 0.1306(2)
H6 H 0.4573 1.0573 0.1293
H7 H 0.6135 1.0745 0.1231
H8 H 0.5595 0.9823 0.1565
O1 O 0.4422(5) 0.8467(5) 0.09303(15)
C12 C 0.9088(7) 0.7434(8) 0.0484(2)
H9 H 0.9145 0.8218 0.0631
C13 C 1.0172(7) 0.7092(8) 0.0257(2)
H10 H 1.0939 0.7636 0.0244
C14 C 0.5515(11) 0.3266(9) 0.2000(3)
H11 H 0.5674 0.2853 0.2236
C15 C 0.4388(10) 0.2932(9) 0.1802(2)
H12 H 0.3781 0.2316 0.1907
C16 C 0.6420(9) 0.4179(9) 0.1867(2)
H13 H 0.7188 0.4405 0.2008
C17 C 0.4128(8) 0.3485(7) 0.1451(2)
H14 H 0.3366 0.3224 0.1312
C18 C 0.5015(6) 0.4444(6) 0.13021(18)
H15 H 0.778(7) 0.609(6) 0.1397(17)
loop_
_geom_bond_atom_site_label_1
_geom_bond_atom_site_label_2
_geom_bond_site_symmetry_1
_geom_bond_site_symmetry_2
I1 C1 1_555 1_555
Br1 C6 1_555 1_555
N1 C2 1_555 1_555
C1 C2 1_555 1_555
C2 C8 1_555 1_555
C3 N1 1_555 1_555
C4 C7 1_555 1_555
C5 H1 1_555 1_555
C6 C5 1_555 1_555
C7 C5 1_555 1_555
H2 C7 1_555 1_555
C8 C4 1_555 1_555
H3 C8 1_555 1_555
C9 C8 1_555 1_555
H4 C9 1_555 1_555
H5 C9 1_555 1_555
C10 C9 1_555 1_555
C11 C10 1_555 1_555
H6 C11 1_555 1_555
H7 C11 1_555 1_555
H8 C11 1_555 1_555
O1 C10 1_555 1_555
C12 C4 1_555 1_555
H9 C12 1_555 1_555
C13 C6 1_555 1_555
H10 C13 1_555 1_555
C14 H11 1_555 1_555
C15 C14 1_555 1_555
H12 C15 1_555 1_555
C16 C3 1_555 1_555
H13 C16 1_555 1_555
C17 C15 1_555 1_555
H14 C17 1_555 1_555
C18 C1 1_555 1_555
H15 N1 1_555 1_555
C3 C18 1_555 1_555
C12 C13 1_555 1_555
C14 C16 1_555 1_555
C17 C18 1_555 1_555

#END
