
#######################################################################
#
#                 Cambridge Crystallographic Data Centre
#                                CCDC 
#
#######################################################################
#
# If this CIF has been generated from an entry in the Cambridge 
# Structural Database, then it will include bibliographic, chemical, 
# crystal, experimental, refinement or atomic coordinate data resulting 
# from the CCDC's data processing and validation procedures.
#
#######################################################################

data_MUJKIN
_chemical_formula_moiety         'C26 H18 Cl1 N1 O2'
_chemical_name_systematic        
1-(4-chlorophenyl)-N-(1-(3-methoxyphenyl)naphtho[2,1-b]furan-2-yl)methanimine
_symmetry_cell_setting           orthorhombic
_symmetry_space_group_name_H-M   'P b c a'
_symmetry_Int_Tables_number      61
_space_group_name_Hall           '-P 2ac 2ab'
loop_
_symmetry_equiv_pos_site_id
_symmetry_equiv_pos_as_xyz
1 x,y,z
2 1/2-x,-y,1/2+z
3 1/2+x,1/2-y,-z
4 -x,1/2+y,1/2-z
5 -x,-y,-z
6 1/2+x,y,1/2-z
7 1/2-x,1/2+y,z
8 x,1/2-y,1/2+z
_cell_length_a                   7.7340(10)
_cell_length_b                   20.297(3)
_cell_length_c                   26.738(3)
_cell_angle_alpha                90
_cell_angle_beta                 90
_cell_angle_gamma                90
_cell_volume                     4197.25
_exptl_crystal_colour            green
_exptl_crystal_description       block
_cell_formula_units_Z            8
loop_
_atom_site_label
_atom_site_type_symbol
_atom_site_fract_x
_atom_site_fract_y
_atom_site_fract_z
Cl1 Cl 1.31261(16) 0.10634(8) -0.23884(4)
O1 O 0.9691(3) 0.34757(10) 0.01701(9)
O2 O 0.7211(3) 0.02792(9) 0.02884(8)
N1 N 0.9173(3) 0.09582(11) -0.01589(9)
C1 C 0.3806(7) 0.1325(4) 0.22480(17)
H1 H 0.3156 0.1408 0.2534
C2 C 0.4943(6) 0.1821(3) 0.20656(15)
H2 H 0.5011 0.2229 0.2223
C3 C 0.5930(5) 0.1686(2) 0.16558(12)
H3 H 0.6701 0.2001 0.1538
C4 C 0.5799(4) 0.10709(17) 0.14064(11)
C5 C 0.4608(4) 0.0590(2) 0.15932(13)
C6 C 0.3648(6) 0.0739(3) 0.20184(17)
H4 H 0.2883 0.0428 0.2146
C7 C 0.4390(5) -0.0012(2) 0.13335(16)
H5 H 0.3652 -0.0328 0.1467
C8 C 0.5211(4) -0.01442(17) 0.09009(14)
H6 H 0.5027 -0.0536 0.0729
C9 C 0.6337(4) 0.03287(15) 0.07259(12)
C10 C 0.6733(4) 0.09139(15) 0.09677(11)
C11 C 0.7993(4) 0.12409(13) 0.06614(10)
C12 C 0.8210(4) 0.08445(14) 0.02546(11)
C13 C 0.8965(4) 0.18551(14) 0.07469(10)
C14 C 0.8812(4) 0.23752(14) 0.04126(10)
H7 H 0.8055 0.2345 0.0143
C15 C 0.9783(4) 0.29354(15) 0.04807(12)
C16 C 1.0917(4) 0.29876(17) 0.08776(14)
H8 H 1.1592 0.3363 0.0918
C17 C 1.1031(5) 0.24768(19) 0.12111(14)
H9 H 1.1778 0.2511 0.1482
C18 C 1.0061(4) 0.19137(17) 0.11516(12)
H10 H 1.0144 0.1574 0.1383
C19 C 0.8473(5) 0.34625(18) -0.02290(14)
H11 H 0.7339 0.3377 -0.0098
H12 H 0.8781 0.3121 -0.0461
H13 H 0.8476 0.3880 -0.0398
C20 C 0.9210(4) 0.05507(14) -0.05212(11)
H14 H 0.8608 0.0156 -0.0492
C21 C 1.0161(4) 0.06833(14) -0.09782(11)
C22 C 1.0238(4) 0.02137(16) -0.13515(12)
H15 H 0.9672 -0.0187 -0.1309
C23 C 1.1143(5) 0.0330(2) -0.17863(12)
H16 H 1.1185 0.0010 -0.2035
C24 C 1.1975(5) 0.0915(2) -0.18502(13)
C25 C 1.1902(4) 0.13980(18) -0.14850(14)
H17 H 1.2453 0.1800 -0.1534
C26 C 1.1014(4) 0.12804(16) -0.10512(12)
H18 H 1.0981 0.1601 -0.0803
loop_
_geom_bond_atom_site_label_1
_geom_bond_atom_site_label_2
_geom_bond_site_symmetry_1
_geom_bond_site_symmetry_2
Cl1 C24 1_555 1_555
O1 C15 1_555 1_555
O2 C9 1_555 1_555
N1 C12 1_555 1_555
C1 H1 1_555 1_555
C2 C1 1_555 1_555
H2 C2 1_555 1_555
C3 C2 1_555 1_555
H3 C3 1_555 1_555
C4 C3 1_555 1_555
C5 C4 1_555 1_555
C6 C1 1_555 1_555
H4 C6 1_555 1_555
C7 C5 1_555 1_555
H5 C7 1_555 1_555
C8 C7 1_555 1_555
H6 C8 1_555 1_555
C9 C8 1_555 1_555
C10 C4 1_555 1_555
C11 C10 1_555 1_555
C12 O2 1_555 1_555
C13 C11 1_555 1_555
C14 C13 1_555 1_555
H7 C14 1_555 1_555
C15 C14 1_555 1_555
C16 C15 1_555 1_555
H8 C16 1_555 1_555
C17 C16 1_555 1_555
H9 C17 1_555 1_555
C18 C13 1_555 1_555
H10 C18 1_555 1_555
C19 O1 1_555 1_555
H11 C19 1_555 1_555
H12 C19 1_555 1_555
H13 C19 1_555 1_555
C20 N1 1_555 1_555
H14 C20 1_555 1_555
C21 C20 1_555 1_555
C22 C21 1_555 1_555
H15 C22 1_555 1_555
C23 C22 1_555 1_555
H16 C23 1_555 1_555
C24 C23 1_555 1_555
C25 C24 1_555 1_555
H17 C25 1_555 1_555
C26 C21 1_555 1_555
H18 C26 1_555 1_555
C5 C6 1_555 1_555
C9 C10 1_555 1_555
C11 C12 1_555 1_555
C17 C18 1_555 1_555
C25 C26 1_555 1_555

#END
