
#######################################################################
#
#                 Cambridge Crystallographic Data Centre
#                                CCDC 
#
#######################################################################
#
# If this CIF has been generated from an entry in the Cambridge 
# Structural Database, then it will include bibliographic, chemical, 
# crystal, experimental, refinement or atomic coordinate data resulting 
# from the CCDC's data processing and validation procedures.
#
#######################################################################

data_MUJLAF
_chemical_formula_moiety         'C16 H13 N1'
_chemical_name_systematic        (Z)-3-(4-Methylphenyl)-3-phenylacrylonitrile
_symmetry_cell_setting           monoclinic
_symmetry_space_group_name_H-M   'P 21/c'
_symmetry_Int_Tables_number      14
_space_group_name_Hall           '-P 2ybc'
loop_
_symmetry_equiv_pos_site_id
_symmetry_equiv_pos_as_xyz
1 x,y,z
2 -x,1/2+y,1/2-z
3 -x,-y,-z
4 x,1/2-y,1/2+z
_cell_length_a                   11.104(2)
_cell_length_b                   9.985(3)
_cell_length_c                   11.651(3)
_cell_angle_alpha                90
_cell_angle_beta                 90.085(19)
_cell_angle_gamma                90
_cell_volume                     1291.79
_exptl_crystal_colour            colorless
_exptl_crystal_description       block
_cell_formula_units_Z            4
loop_
_atom_site_label
_atom_site_type_symbol
_atom_site_fract_x
_atom_site_fract_y
_atom_site_fract_z
N1 N 0.5821(3) 0.0640(4) 1.1717(3)
C1 C 0.5913(4) 0.1736(5) 1.1442(3)
C2 C 0.5973(3) 0.3141(4) 1.1155(3)
H1 H 0.5395 0.3703 1.1472
C3 C 0.6804(3) 0.3697(3) 1.0465(3)
C4 C 0.6823(3) 0.5172(3) 1.0309(3)
C5 C 0.6404(3) 0.6039(4) 1.1150(3)
H2 H 0.6116 0.5692 1.1837
C6 C 0.6408(3) 0.7423(4) 1.0982(4)
H3 H 0.6118 0.7987 1.1553
C7 C 0.6836(4) 0.7953(4) 0.9980(4)
H4 H 0.6843 0.8876 0.9871
C8 C 0.7258(4) 0.7110(4) 0.9130(3)
H5 H 0.7551 0.7469 0.8449
C9 C 0.7248(3) 0.5726(4) 0.9284(3)
H6 H 0.7526 0.5168 0.8703
C10 C 0.7706(3) 0.2860(4) 0.9852(3)
C11 C 0.8923(4) 0.3135(4) 0.9930(3)
H7 H 0.9178 0.3868 1.0358
C12 C 0.9771(4) 0.2347(5) 0.9385(4)
H8 H 1.0585 0.2537 0.9477
C13 C 0.9424(4) 0.1276(4) 0.8704(3)
C14 C 0.8217(4) 0.1026(4) 0.8595(3)
H9 H 0.7963 0.0321 0.8132
C15 C 0.7356(3) 0.1804(4) 0.9160(3)
H10 H 0.6542 0.1610 0.9071
C16 C 1.0369(4) 0.0400(5) 0.8110(4)
H11 H 1.1159 0.0738 0.8278
H12 H 1.0237 0.0416 0.7296
H13 H 1.0303 -0.0504 0.8384
loop_
_geom_bond_atom_site_label_1
_geom_bond_atom_site_label_2
_geom_bond_site_symmetry_1
_geom_bond_site_symmetry_2
N1 C1 1_555 1_555
C1 C2 1_555 1_555
C2 H1 1_555 1_555
C3 C2 1_555 1_555
C4 C3 1_555 1_555
C5 C4 1_555 1_555
H2 C5 1_555 1_555
C6 C5 1_555 1_555
H3 C6 1_555 1_555
C7 C6 1_555 1_555
H4 C7 1_555 1_555
C8 C7 1_555 1_555
H5 C8 1_555 1_555
C9 C4 1_555 1_555
H6 C9 1_555 1_555
C10 C3 1_555 1_555
C11 C10 1_555 1_555
H7 C11 1_555 1_555
C12 C11 1_555 1_555
H8 C12 1_555 1_555
C13 C12 1_555 1_555
C14 C13 1_555 1_555
H9 C14 1_555 1_555
C15 C10 1_555 1_555
H10 C15 1_555 1_555
C16 C13 1_555 1_555
H11 C16 1_555 1_555
H12 C16 1_555 1_555
H13 C16 1_555 1_555
C8 C9 1_555 1_555
C14 C15 1_555 1_555

#END
