
#######################################################################
#
#                 Cambridge Crystallographic Data Centre
#                                CCDC 
#
#######################################################################
#
# If this CIF has been generated from an entry in the Cambridge 
# Structural Database, then it will include bibliographic, chemical, 
# crystal, experimental, refinement or atomic coordinate data resulting 
# from the CCDC's data processing and validation procedures.
#
#######################################################################

data_MUJWEV
_chemical_formula_moiety         'C10 H11 Br2 Cl1 O2'
_chemical_name_systematic        
1-chloro-4-(2,2-dibromo-1,1-dimethoxyethyl)benzene
_symmetry_cell_setting           monoclinic
_symmetry_space_group_name_H-M   'P 21/c'
_symmetry_Int_Tables_number      14
_space_group_name_Hall           '-P 2ybc'
loop_
_symmetry_equiv_pos_site_id
_symmetry_equiv_pos_as_xyz
1 x,y,z
2 -x,1/2+y,1/2-z
3 -x,-y,-z
4 x,1/2-y,1/2+z
_cell_length_a                   7.0979(4)
_cell_length_b                   18.8011(10)
_cell_length_c                   9.6193(5)
_cell_angle_alpha                90
_cell_angle_beta                 105.7599(16)
_cell_angle_gamma                90
_cell_volume                     1235.42
_exptl_crystal_colour            colorless
_exptl_crystal_description       parallelepiped
_cell_formula_units_Z            4
_exptl_crystal_recrystallization_method methanol
loop_
_atom_site_label
_atom_site_type_symbol
_atom_site_fract_x
_atom_site_fract_y
_atom_site_fract_z
Br1 Br 0.29829(10) 0.38119(4) 1.13288(7)
Br2 Br 0.33780(9) 0.25434(3) 0.93003(8)
Cl1 Cl 0.3345(2) 0.57127(8) 0.55054(15)
O1 O -0.1307(5) 0.37606(19) 0.9341(4)
O2 O -0.0814(6) 0.29573(19) 0.7622(4)
C1 C 0.0050(6) 0.3478(3) 0.8653(5)
C2 C 0.0881(6) 0.4037(2) 0.7852(5)
C3 C 0.1492(7) 0.3861(3) 0.6653(6)
H1 H 0.1384 0.3393 0.6327
C4 C 0.2268(7) 0.4372(3) 0.5925(5)
H2 H 0.2689 0.425 0.5121
C5 C 0.2402(6) 0.5064(3) 0.6416(5)
C6 C 0.1796(7) 0.5248(3) 0.7594(6)
H3 H 0.1887 0.5718 0.7908
C7 C 0.1047(8) 0.4736(3) 0.8320(5)
H4 H 0.0649 0.4861 0.9132
C8 C 0.1540(7) 0.3134(3) 0.9934(6)
H5 H 0.0815 0.2826 1.0429
C9 C -0.3080(8) 0.4039(4) 0.8393(7)
H6 H -0.2772 0.4432 0.7856
H7 H -0.3931 0.4197 0.8954
H8 H -0.3721 0.3673 0.7737
C10 C -0.1731(9) 0.2363(3) 0.8134(8)
H9 H -0.0756 0.2014 0.8559
H10 H -0.2692 0.2154 0.7339
H11 H -0.2355 0.2526 0.8845
loop_
_geom_bond_atom_site_label_1
_geom_bond_atom_site_label_2
_geom_bond_site_symmetry_1
_geom_bond_site_symmetry_2
Br1 C8 1_555 1_555
Br2 C8 1_555 1_555
Cl1 C5 1_555 1_555
O1 C1 1_555 1_555
O2 C1 1_555 1_555
C1 C2 1_555 1_555
C2 C3 1_555 1_555
C3 H1 1_555 1_555
C4 C3 1_555 1_555
H2 C4 1_555 1_555
C5 C4 1_555 1_555
C6 C5 1_555 1_555
H3 C6 1_555 1_555
C7 C2 1_555 1_555
H4 C7 1_555 1_555
C8 C1 1_555 1_555
H5 C8 1_555 1_555
C9 O1 1_555 1_555
H6 C9 1_555 1_555
H7 C9 1_555 1_555
H8 C9 1_555 1_555
C10 O2 1_555 1_555
H9 C10 1_555 1_555
H10 C10 1_555 1_555
H11 C10 1_555 1_555
C6 C7 1_555 1_555

#END
