
#######################################################################
#
#                 Cambridge Crystallographic Data Centre
#                                CCDC 
#
#######################################################################
#
# If this CIF has been generated from an entry in the Cambridge 
# Structural Database, then it will include bibliographic, chemical, 
# crystal, experimental, refinement or atomic coordinate data resulting 
# from the CCDC's data processing and validation procedures.
#
#######################################################################

data_MUJZEY
_chemical_formula_moiety         'C35 H20 O7'
_chemical_name_systematic        
2-((3-benzoyl-4-oxo-4H-furo[3,2-c]chromen-2-yl)(4-methoxyphenyl)methylene)-1H-indene-1,3(2H)-dione
_symmetry_cell_setting           triclinic
_symmetry_space_group_name_H-M   'P -1'
_symmetry_Int_Tables_number      2
_space_group_name_Hall           '-P 1'
loop_
_symmetry_equiv_pos_site_id
_symmetry_equiv_pos_as_xyz
1 x,y,z
2 -x,-y,-z
_cell_length_a                   6.8290(7)
_cell_length_b                   11.2272(12)
_cell_length_c                   19.045(2)
_cell_angle_alpha                81.702(6)
_cell_angle_beta                 80.421(7)
_cell_angle_gamma                86.800(7)
_cell_volume                     1424
_exptl_crystal_colour            colorless
_exptl_crystal_description       prism
_cell_formula_units_Z            2
loop_
_atom_site_label
_atom_site_type_symbol
_atom_site_fract_x
_atom_site_fract_y
_atom_site_fract_z
C1 C 0.3274(4) 0.6315(2) 0.22380(13)
C2 C 0.2239(5) 0.5169(2) 0.22785(14)
C3 C 0.0623(5) 0.4956(3) 0.19627(16)
H1 H 0.0012 0.5580 0.1673
C4 C -0.0064(6) 0.3784(3) 0.20889(18)
H2 H -0.1175 0.3607 0.1885
C5 C 0.0847(6) 0.2871(3) 0.25075(18)
H3 H 0.0371 0.2078 0.2573
C6 C 0.2443(6) 0.3097(2) 0.28326(16)
H4 H 0.3052 0.2473 0.3124
C7 C 0.3123(5) 0.4274(2) 0.27168(14)
C8 C 0.4678(5) 0.4773(2) 0.30194(13)
C9 C 0.4852(4) 0.6059(2) 0.26895(13)
C10 C 0.6196(4) 0.6867(2) 0.27844(13)
C11 C 0.7142(5) 0.6776(2) 0.34247(14)
C12 C 0.6077(5) 0.6376(2) 0.41047(14)
H5 H 0.4745 0.6145 0.4134
C13 C 0.6840(8) 0.6301(3) 0.47204(18)
H6 H 0.6032 0.6045 0.5167
C14 C 0.8691(9) 0.6578(3) 0.4706(2)
C15 C 1.1183(9) 0.6741(4) 0.5452(3)
H7 H 1.1364 0.6614 0.5958
H8 H 1.1404 0.7586 0.5253
H9 H 1.2136 0.6223 0.5181
C16 C 0.9909(6) 0.6991(3) 0.4052(3)
H10 H 1.1246 0.7191 0.4046
C17 C 0.9093(5) 0.7108(2) 0.33881(19)
H11 H 0.9868 0.7402 0.2941
C18 C 0.6659(4) 0.7894(2) 0.22362(13)
C19 C 0.7024(4) 0.9081(2) 0.22467(13)
C20 C 0.7340(5) 0.9723(2) 0.28552(14)
C21 C 0.5647(5) 1.0034(2) 0.33926(13)
C22 C 0.3740(5) 0.9645(2) 0.34141(14)
H12 H 0.3496 0.9153 0.3074
C23 C 0.2194(5) 0.9967(2) 0.39270(15)
H13 H 0.0888 0.9706 0.3939
C24 C 0.2585(6) 1.0679(2) 0.44249(15)
H14 H 0.1539 1.0886 0.4786
C25 C 0.4452(6) 1.1087(2) 0.44031(16)
H15 H 0.4685 1.1586 0.4741
C26 C 0.5988(5) 1.0771(2) 0.38905(14)
H16 H 0.7281 1.1054 0.3875
C27 C 0.7241(4) 0.9634(2) 0.15198(13)
C28 C 0.7064(4) 0.8758(2) 0.11130(13)
C29 C 0.7245(4) 0.8965(2) 0.03464(14)
C30 C 0.7104(5) 0.8105(3) -0.01061(14)
H17 H 0.6878 0.7288 0.0089
C31 C 0.7294(5) 0.8457(3) -0.08363(16)
H18 H 0.7185 0.7881 -0.1146
C32 C 0.7645(5) 0.9649(4) -0.11229(17)
H19 H 0.7796 0.9876 -0.1629
C33 C 0.7776(5) 1.0498(3) -0.06892(16)
H20 H 0.8004 1.1313 -0.0890
C34 C 0.7575(4) 1.0159(3) 0.00423(15)
C35 C 0.7504(4) 1.0870(2) 0.11981(15)
O1 O 0.2774(3) 0.72898(15) 0.19355(10)
O2 O 0.5679(4) 0.42121(15) 0.34462(10)
O3 O 0.9176(5) 0.6442(2) 0.54005(17)
O4 O 0.9033(3) 1.00126(17) 0.28625(11)
O5 O 0.6724(3) 0.76868(14) 0.15225(8)
O6 O 0.7720(3) 1.10603(16) 0.04618(10)
O7 O 0.7535(4) 1.17299(16) 0.15113(11)
C36? C 1.0074(19) 0.6336(9) 0.5702(5)
H21? H 1.1157 0.6329 0.5982
H22? H 0.9520 0.5533 0.5776
H23? H 0.9033 0.6921 0.5860
O8? O 1.0785 0.6650 0.4993
loop_
_geom_bond_atom_site_label_1
_geom_bond_atom_site_label_2
_geom_bond_site_symmetry_1
_geom_bond_site_symmetry_2
C1 C2 1_555 1_555
C2 C3 1_555 1_555
C3 H1 1_555 1_555
C4 C3 1_555 1_555
H2 C4 1_555 1_555
C5 C4 1_555 1_555
H3 C5 1_555 1_555
C6 C5 1_555 1_555
H4 C6 1_555 1_555
C7 C2 1_555 1_555
C8 C7 1_555 1_555
C9 C1 1_555 1_555
C10 C9 1_555 1_555
C11 C10 1_555 1_555
C12 C11 1_555 1_555
H5 C12 1_555 1_555
C13 C12 1_555 1_555
H6 C13 1_555 1_555
C14 C13 1_555 1_555
C15 H7 1_555 1_555
H8 C15 1_555 1_555
H9 C15 1_555 1_555
C16 C14 1_555 1_555
H10 C16 1_555 1_555
C17 C11 1_555 1_555
H11 C17 1_555 1_555
C18 C10 1_555 1_555
C19 C18 1_555 1_555
C20 C19 1_555 1_555
C21 C20 1_555 1_555
C22 C21 1_555 1_555
H12 C22 1_555 1_555
C23 C22 1_555 1_555
H13 C23 1_555 1_555
C24 C23 1_555 1_555
H14 C24 1_555 1_555
C25 C24 1_555 1_555
H15 C25 1_555 1_555
C26 C21 1_555 1_555
H16 C26 1_555 1_555
C27 C19 1_555 1_555
C28 C27 1_555 1_555
C29 C28 1_555 1_555
C30 C29 1_555 1_555
H17 C30 1_555 1_555
C31 C30 1_555 1_555
H18 C31 1_555 1_555
C32 C31 1_555 1_555
H19 C32 1_555 1_555
C33 C32 1_555 1_555
H20 C33 1_555 1_555
C34 C29 1_555 1_555
C35 C27 1_555 1_555
O1 C1 1_555 1_555
O2 C8 1_555 1_555
O3 C14 1_555 1_555
O4 C20 1_555 1_555
O5 C18 1_555 1_555
O6 C34 1_555 1_555
O7 C35 1_555 1_555
C6 C7 1_555 1_555
C8 C9 1_555 1_555
C15 O3 1_555 1_555
C16 C17 1_555 1_555
C25 C26 1_555 1_555
C28 O5 1_555 1_555
C33 C34 1_555 1_555
C35 O6 1_555 1_555

#END
