
#######################################################################
#
#                 Cambridge Crystallographic Data Centre
#                                CCDC 
#
#######################################################################
#
# If this CIF has been generated from an entry in the Cambridge 
# Structural Database, then it will include bibliographic, chemical, 
# crystal, experimental, refinement or atomic coordinate data resulting 
# from the CCDC's data processing and validation procedures.
#
#######################################################################

data_MUKCUS
_chemical_formula_moiety         'C30 H38 Br1 O4 P1'
_chemical_name_systematic        
3-(3-(4-bromophenyl)-3-(tributylphosphonio)propanoyl)-2-oxo-2H-chromen-4-olate
_symmetry_cell_setting           orthorhombic
_symmetry_space_group_name_H-M   'P 21 21 21'
_symmetry_Int_Tables_number      19
_space_group_name_Hall           'P 2ac 2ab'
loop_
_symmetry_equiv_pos_site_id
_symmetry_equiv_pos_as_xyz
1 x,y,z
2 1/2-x,-y,1/2+z
3 1/2+x,1/2-y,-z
4 -x,1/2+y,1/2-z
_cell_length_a                   13.9141(2)
_cell_length_b                   17.0104(3)
_cell_length_c                   23.9970(5)
_cell_angle_alpha                90
_cell_angle_beta                 90
_cell_angle_gamma                90
_cell_volume                     5679.72
_exptl_crystal_colour            colorless
_exptl_crystal_description       prism
_cell_formula_units_Z            8
loop_
_atom_site_label
_atom_site_type_symbol
_atom_site_fract_x
_atom_site_fract_y
_atom_site_fract_z
C1 C 1.0079(6) 0.8309(6) 0.4420(4)
C2 C 0.9311(7) 0.7943(6) 0.4678(4)
H1 H 0.9374 0.7770 0.5044
C3 C 0.8461(6) 0.7831(5) 0.4403(4)
H2 H 0.7947 0.7591 0.4583
C4 C 0.8369(6) 0.8078(5) 0.3850(3)
C5 C 0.9148(6) 0.8450(5) 0.3594(3)
H3 H 0.9091 0.8623 0.3228
C6 C 0.9990(6) 0.8562(6) 0.3872(4)
H4 H 1.0504 0.8807 0.3696
C7 C 0.7453(5) 0.7979(5) 0.3518(3)
H5 H 0.7647 0.7930 0.3127
C8 C 0.7437(6) 0.9684(5) 0.3362(4)
H6 H 0.7969 0.9726 0.3621
H7 H 0.7705 0.9582 0.2996
C9 C 0.6907(6) 1.0478(5) 0.3345(4)
H8 H 0.6366 1.0436 0.3091
H9 H 0.6655 1.0592 0.3713
C10 C 0.7539(7) 1.1154(6) 0.3161(5)
H10 H 0.8068 1.1200 0.3422
H11 H 0.7810 1.1026 0.2800
C11 C 0.7050(9) 1.1943(7) 0.3118(5)
H12 H 0.7505 1.2330 0.2995
H13 H 0.6804 1.2091 0.3477
H14 H 0.6530 1.1911 0.2856
C12 C 0.6325(6) 0.8982(6) 0.4274(3)
H15 H 0.6354 0.8471 0.4451
H16 H 0.6795 0.9314 0.4458
C13 C 0.5351(7) 0.9322(7) 0.4389(4)
H17 H 0.4881 0.9018 0.4182
H18 H 0.5337 0.9853 0.4242
C14 C 0.5039(7) 0.9350(7) 0.4989(4)
H19 H 0.5102 0.8826 0.5145
H20 H 0.5478 0.9690 0.5191
C15 C 0.4053(9) 0.9627(8) 0.5093(5)
H21 H 0.3930 0.9628 0.5487
H22 H 0.3605 0.9283 0.4911
H23 H 0.3981 1.0150 0.4949
C16 C 0.5683(6) 0.8799(5) 0.3098(3)
H24 H 0.5302 0.8344 0.3200
H25 H 0.5285 0.9262 0.3152
C17 C 0.5943(6) 0.8738(5) 0.2481(3)
H26 H 0.6278 0.9211 0.2366
H27 H 0.6370 0.8294 0.2425
C18 C 0.5050(6) 0.8632(6) 0.2128(4)
H28 H 0.4571 0.9016 0.2239
H29 H 0.4785 0.8113 0.2193
C19 C 0.5269(8) 0.8731(6) 0.1500(4)
H30 H 0.4688 0.8664 0.1290
H31 H 0.5730 0.8343 0.1386
H32 H 0.5524 0.9247 0.1434
C20 C 0.6880(6) 0.7220(5) 0.3660(3)
H33 H 0.7324 0.6827 0.3800
H34 H 0.6428 0.7338 0.3956
C21 C 0.6320(7) 0.6869(5) 0.3159(4)
C22 C 0.5342(6) 0.6585(5) 0.3245(3)
C23 C 0.5059(7) 0.5964(6) 0.2876(4)
C24 C 0.3548(7) 0.5874(6) 0.3371(4)
C25 C 0.3760(6) 0.6505(5) 0.3689(3)
C26 C 0.4695(6) 0.6894(6) 0.3649(3)
C27 C 0.3054(7) 0.6763(7) 0.4057(4)
H35 H 0.3161 0.7208 0.4273
C28 C 0.2199(7) 0.6361(8) 0.4103(4)
H36 H 0.1735 0.6540 0.4352
C29 C 0.2020(8) 0.5714(8) 0.3795(5)
H37 H 0.1443 0.5444 0.3838
C30 C 0.2685(7) 0.5456(7) 0.3420(4)
H38 H 0.2569 0.5014 0.3202
Br1 Br 1.12423(7) 0.84753(8) 0.48229(5)
O1 O 0.6788(4) 0.6816(4) 0.2726(2)
O2 O 0.5503(5) 0.5669(4) 0.2488(3)
O3 O 0.4167(5) 0.5599(4) 0.2965(3)
O4 O 0.4860(4) 0.7473(4) 0.3948(2)
P1 P 0.67057(16) 0.88608(14) 0.35611(10)
C31 C 0.5240(6) 0.6815(6) 0.0603(4)
C32 C 0.5338(6) 0.6600(6) 0.1143(4)
H39 H 0.4833 0.6347 0.1323
C33 C 0.6198(6) 0.6754(5) 0.1436(4)
H40 H 0.6245 0.6619 0.1810
C34 C 0.6969(6) 0.7103(5) 0.1172(4)
C35 C 0.6878(6) 0.7298(5) 0.0605(3)
H41 H 0.7391 0.7522 0.0414
C36 C 0.5996(7) 0.7150(6) 0.0325(4)
H42 H 0.5931 0.7282 -0.0049
C37 C 0.7855(6) 0.7274(5) 0.1502(4)
H43 H 0.7645 0.7333 0.1889
C38 C 0.8038(7) 0.5558(6) 0.1710(4)
H44 H 0.8491 0.5229 0.1910
H45 H 0.7554 0.5721 0.1977
C39 C 0.7559(8) 0.5062(7) 0.1296(6)
H46 H 0.8044 0.4823 0.1060
H47 H 0.7158 0.5391 0.1062
C40 C 0.6926(9) 0.4399(9) 0.1553(7)
H48 H 0.6440 0.4646 0.1784
H49 H 0.6593 0.4137 0.1250
C41 C 0.7365(10) 0.3842(10) 0.1862(7)
H50 H 0.6895 0.3477 0.1999
H51 H 0.7688 0.4085 0.2170
H52 H 0.7825 0.3567 0.1636
C42 C 0.9112(7) 0.6301(5) 0.0793(3)
H53 H 0.8603 0.6070 0.0570
H54 H 0.9246 0.6818 0.0639
C43 C 1.0019(7) 0.5792(6) 0.0726(4)
H55 H 1.0540 0.6037 0.0931
H56 H 0.9899 0.5283 0.0894
C44 C 1.0337(9) 0.5669(7) 0.0136(4)
H57 H 0.9853 0.5358 -0.0054
H58 H 1.0365 0.6177 -0.0047
C45 C 1.1278(8) 0.5276(8) 0.0067(5)
H59 H 1.1419 0.5224 -0.0323
H60 H 1.1255 0.4765 0.0235
H61 H 1.1769 0.5585 0.0243
C46 C 0.9629(6) 0.6564(6) 0.1972(3)
H62 H 1.0055 0.6113 0.1950
H63 H 0.9994 0.7023 0.1859
C47 C 0.9324(6) 0.6671(6) 0.2582(3)
H64 H 0.8990 0.7169 0.2618
H65 H 0.8876 0.6257 0.2679
C48 C 1.0152(7) 0.6657(7) 0.2989(4)
H66 H 1.0464 0.6148 0.2973
H67 H 0.9905 0.6728 0.3364
C49 C 1.0884(10) 0.7295(10) 0.2866(5)
H68 H 1.1408 0.7257 0.3125
H69 H 1.0585 0.7802 0.2901
H70 H 1.1123 0.7232 0.2493
C50 C 0.8367(6) 0.8055(5) 0.1345(4)
H71 H 0.8851 0.7948 0.1064
H72 H 0.7901 0.8412 0.1183
C51 C 0.8848(6) 0.8457(5) 0.1844(4)
C52 C 0.9813(6) 0.8768(5) 0.1776(4)
C53 C 1.0097(7) 0.9377(6) 0.2156(4)
C54 C 1.1609(7) 0.9544(6) 0.1650(4)
C55 C 1.1403(6) 0.8924(6) 0.1312(4)
C56 C 1.0484(6) 0.8488(6) 0.1378(3)
C57 C 1.2101(7) 0.8723(7) 0.0919(4)
H73 H 1.2014 0.8278 0.0699
C58 C 1.2916(7) 0.9172(8) 0.0849(5)
H74 H 1.3355 0.9056 0.0569
C59 C 1.3067(8) 0.9793(7) 0.1201(5)
H75 H 1.3620 1.0095 0.1160
C60 C 1.2417(8) 0.9982(7) 0.1615(5)
H76 H 1.2531 1.0396 0.1860
Br2 Br 0.40765(8) 0.66381(9) 0.02287(5)
O5 O 0.8372(4) 0.8525(4) 0.2265(2)
O6 O 0.9653(5) 0.9640(4) 0.2553(3)
O7 O 1.0976(5) 0.9769(4) 0.2069(3)
O8 O 1.0368(4) 0.7873(4) 0.1091(2)
P2 P 0.86726(17) 0.64256(14) 0.14922(9)
loop_
_geom_bond_atom_site_label_1
_geom_bond_atom_site_label_2
_geom_bond_site_symmetry_1
_geom_bond_site_symmetry_2
C1 C2 1_555 1_555
C2 H1 1_555 1_555
C3 C2 1_555 1_555
H2 C3 1_555 1_555
C4 C3 1_555 1_555
C5 C4 1_555 1_555
H3 C5 1_555 1_555
C6 C1 1_555 1_555
H4 C6 1_555 1_555
C7 C4 1_555 1_555
H5 C7 1_555 1_555
C8 H6 1_555 1_555
H7 C8 1_555 1_555
C9 C8 1_555 1_555
H8 C9 1_555 1_555
H9 C9 1_555 1_555
C10 C9 1_555 1_555
H10 C10 1_555 1_555
H11 C10 1_555 1_555
C11 C10 1_555 1_555
H12 C11 1_555 1_555
H13 C11 1_555 1_555
H14 C11 1_555 1_555
C12 H15 1_555 1_555
H16 C12 1_555 1_555
C13 C12 1_555 1_555
H17 C13 1_555 1_555
H18 C13 1_555 1_555
C14 C13 1_555 1_555
H19 C14 1_555 1_555
H20 C14 1_555 1_555
C15 C14 1_555 1_555
H21 C15 1_555 1_555
H22 C15 1_555 1_555
H23 C15 1_555 1_555
C16 H24 1_555 1_555
H25 C16 1_555 1_555
C17 C16 1_555 1_555
H26 C17 1_555 1_555
H27 C17 1_555 1_555
C18 C17 1_555 1_555
H28 C18 1_555 1_555
H29 C18 1_555 1_555
C19 C18 1_555 1_555
H30 C19 1_555 1_555
H31 C19 1_555 1_555
H32 C19 1_555 1_555
C20 C7 1_555 1_555
H33 C20 1_555 1_555
H34 C20 1_555 1_555
C21 C20 1_555 1_555
C22 C21 1_555 1_555
C23 C22 1_555 1_555
C24 C25 1_555 1_555
C25 C26 1_555 1_555
C26 C22 1_555 1_555
C27 C25 1_555 1_555
H35 C27 1_555 1_555
C28 C27 1_555 1_555
H36 C28 1_555 1_555
C29 C28 1_555 1_555
H37 C29 1_555 1_555
C30 C24 1_555 1_555
H38 C30 1_555 1_555
Br1 C1 1_555 1_555
O1 C21 1_555 1_555
O2 C23 1_555 1_555
O3 C23 1_555 1_555
O4 C26 1_555 1_555
P1 C7 1_555 1_555
C31 C32 1_555 1_555
C32 H39 1_555 1_555
C33 C32 1_555 1_555
H40 C33 1_555 1_555
C34 C33 1_555 1_555
C35 C34 1_555 1_555
H41 C35 1_555 1_555
C36 C31 1_555 1_555
H42 C36 1_555 1_555
C37 C34 1_555 1_555
H43 C37 1_555 1_555
C38 H44 1_555 1_555
H45 C38 1_555 1_555
C39 C38 1_555 1_555
H46 C39 1_555 1_555
H47 C39 1_555 1_555
C40 C39 1_555 1_555
H48 C40 1_555 1_555
H49 C40 1_555 1_555
C41 C40 1_555 1_555
H50 C41 1_555 1_555
H51 C41 1_555 1_555
H52 C41 1_555 1_555
C42 H53 1_555 1_555
H54 C42 1_555 1_555
C43 C42 1_555 1_555
H55 C43 1_555 1_555
H56 C43 1_555 1_555
C44 C43 1_555 1_555
H57 C44 1_555 1_555
H58 C44 1_555 1_555
C45 C44 1_555 1_555
H59 C45 1_555 1_555
H60 C45 1_555 1_555
H61 C45 1_555 1_555
C46 H62 1_555 1_555
H63 C46 1_555 1_555
C47 C46 1_555 1_555
H64 C47 1_555 1_555
H65 C47 1_555 1_555
C48 C47 1_555 1_555
H66 C48 1_555 1_555
H67 C48 1_555 1_555
C49 C48 1_555 1_555
H68 C49 1_555 1_555
H69 C49 1_555 1_555
H70 C49 1_555 1_555
C50 C37 1_555 1_555
H71 C50 1_555 1_555
H72 C50 1_555 1_555
C51 C50 1_555 1_555
C52 C51 1_555 1_555
C53 C52 1_555 1_555
C54 C55 1_555 1_555
C55 C56 1_555 1_555
C56 C52 1_555 1_555
C57 C55 1_555 1_555
H73 C57 1_555 1_555
C58 C57 1_555 1_555
H74 C58 1_555 1_555
C59 C58 1_555 1_555
H75 C59 1_555 1_555
C60 C54 1_555 1_555
H76 C60 1_555 1_555
Br2 C31 1_555 1_555
O5 C51 1_555 1_555
O6 C53 1_555 1_555
O7 C53 1_555 1_555
O8 C56 1_555 1_555
P2 C37 1_555 1_555
C5 C6 1_555 1_555
C8 P1 1_555 1_555
C12 P1 1_555 1_555
C16 P1 1_555 1_555
C24 O3 1_555 1_555
C29 C30 1_555 1_555
C35 C36 1_555 1_555
C38 P2 1_555 1_555
C42 P2 1_555 1_555
C46 P2 1_555 1_555
C54 O7 1_555 1_555
C59 C60 1_555 1_555

#END
