
#######################################################################
#
#                 Cambridge Crystallographic Data Centre
#                                CCDC 
#
#######################################################################
#
# If this CIF has been generated from an entry in the Cambridge 
# Structural Database, then it will include bibliographic, chemical, 
# crystal, experimental, refinement or atomic coordinate data resulting 
# from the CCDC's data processing and validation procedures.
#
#######################################################################

data_MUKFUU
_chemical_formula_moiety         
'C176 H167 F8 N29 O28,0.5(C10 H22 O2),2.7(H2 O1)'
_chemical_name_systematic        
"N-(6-(((7-(((7-(((7-(((7-Amino-8-fluoro-4-isobutoxyquinolin-2-yl)carbonyl)amino)-8-fluoro-4-isobutoxyquinolin-2-yl)carbonyl)amino)-8-fluoro-4-isobutoxyquinolin-2-yl)carbonyl)amino)-8-fluoro-4-isobutoxyquinolin-2-yl)carbonyl)amino)pyridin-2-yl)-N'-(6-((2,2-dimethylpropanoyl)amino)pyridin-2-yl)pyridine-2,6-dicarboxamide hemikis(decane-1,10-diol) clathrate hydrate"
_symmetry_cell_setting           monoclinic
_symmetry_space_group_name_H-M   'C 2/c'
_symmetry_Int_Tables_number      15
_space_group_name_Hall           '-C 2yn'
loop_
_symmetry_equiv_pos_site_id
_symmetry_equiv_pos_as_xyz
1 x,y,z
2 -x,y,1/2-z
3 1/2+x,1/2+y,z
4 1/2-x,1/2+y,1/2-z
5 -x,-y,-z
6 x,-y,1/2+z
7 1/2-x,1/2-y,-z
8 1/2+x,1/2-y,1/2+z
_cell_length_a                   34.398(7)
_cell_length_b                   40.263(8)
_cell_length_c                   38.827(8)
_cell_angle_alpha                90
_cell_angle_beta                 98.86(3)
_cell_angle_gamma                90
_cell_volume                     53132.4
_cell_formula_units_Z            8
_exptl_crystal_recrystallization_method chloroform/methanol
loop_
_atom_site_label
_atom_site_type_symbol
_atom_site_fract_x
_atom_site_fract_y
_atom_site_fract_z
F1 F 0.58463(10) 0.07646(7) 0.22949(8)
F2 F 0.38329(11) 0.12475(8) 0.15926(8)
F3 F 0.63047(11) 0.14780(8) 0.42968(8)
F4 F 0.45642(9) 0.03202(8) 0.19916(7)
F5 F 0.57271(11) 0.04270(9) 0.38798(7)
F6 F 0.56162(10) 0.18608(8) 0.27330(8)
N1 N 0.33373(14) 0.07864(13) 0.17346(10)
H1 H 0.3589 0.0765 0.1776
N2 N 0.57913(15) 0.00976(12) 0.22181(10)
O1 O 0.53567(13) -0.06911(11) 0.20954(9)
N3 N 0.37677(16) 0.02494(11) 0.18602(10)
F7 F 0.44136(12) 0.17910(10) 0.32123(9)
F8 F 0.43835(12) 0.06778(10) 0.36017(8)
O2 O 0.27620(16) 0.04851(11) 0.16938(11)
N4 N 0.50775(16) -0.01708(11) 0.20861(10)
H2 H 0.5137 0.0037 0.2104
N5 N 0.67950(17) 0.09760(15) 0.41873(11)
O3 O 0.68274(15) -0.04418(12) 0.22918(11)
C1 C 0.4420(2) 0.00131(14) 0.19805(12)
O4 O 0.46104(15) 0.03821(14) -0.04917(10)
N6 N 0.65182(15) 0.10977(13) 0.24389(11)
H3 H 0.6295 0.1179 0.2470
N7 N 0.36464(17) 0.18940(14) 0.14760(11)
N8 N 0.5218(2) -0.00931(14) 0.38088(11)
C2 C 0.4679(2) -0.02470(14) 0.20312(12)
C3 C 0.5789(2) -0.02226(16) 0.21837(12)
N9 N 0.4777(2) 0.22132(15) 0.11061(13)
O7 O 0.71567(16) 0.12410(12) 0.24006(11)
C4 C 0.6113(2) -0.04320(16) 0.21964(14)
H5 H 0.6087 -0.0660 0.2162
N10 N 0.4195(2) 0.22916(13) 0.12915(12)
H6 H 0.4203 0.2079 0.1314
O8 O 0.56882(19) -0.10479(14) 0.38929(11)
C5 C 0.3196(2) 0.11080(17) 0.16740(14)
N11 N 0.4613(2) 0.08376(14) 0.04146(12)
C6 C 0.6713(2) 0.16713(18) 0.25177(14)
C7 C 0.6529(2) 0.07573(16) 0.23900(13)
N12 N 0.3948(2) 0.08024(14) 0.02278(12)
H7 H 0.3967 0.1015 0.0221
O9 O 0.43140(17) -0.05329(13) 0.36704(10)
N13 N 0.63522(18) 0.17233(13) 0.25845(11)
O10 O 0.34757(17) 0.03940(14) 0.01798(10)
C8 C 0.5393(2) -0.03916(17) 0.21156(13)
N14 N 0.65270(19) 0.21024(15) 0.44490(13)
H8 H 0.6291 0.2029 0.4444
N15 N 0.4660(2) 0.24000(17) 0.30691(14)
N16 N 0.5262(3) 0.09448(18) 0.05741(13)
H9 H 0.5182 0.1141 0.0616
N17 N 0.6513(2) 0.03745(13) 0.40377(11)
H10 H 0.6389 0.0560 0.4021
N18 N 0.34409(18) 0.12345(16) -0.00687(11)
O11 O 0.71535(18) 0.25028(13) 0.25777(14)
C9 C 0.61487(19) 0.02449(16) 0.22733(12)
O12 O 0.32994(16) -0.07011(12) 0.18078(12)
C10 C 0.5784(3) -0.04712(19) 0.39231(14)
N19 N 0.4478(2) 0.0932(2) -0.04977(13)
H11 H 0.4288 0.1070 -0.0554
O13 O 0.58207(18) 0.06360(19) 0.05705(13)
C11 C 0.6511(2) 0.00651(16) 0.23071(13)
C12 C 0.6186(2) 0.05898(15) 0.23202(13)
C13 C 0.4820(3) 0.1428(2) -0.03061(16)
O14 O 0.2222(2) 0.10927(18) -0.01967(14)
N20 N 0.4454(2) 0.0026(2) 0.36840(11)
H12 H 0.4650 0.0162 0.3708
C14 C 0.3385(2) 0.01963(16) 0.18003(13)
O15 O 0.39452(18) 0.23129(14) -0.03662(14)
C15 C 0.4516(2) -0.05658(16) 0.20164(13)
H13 H 0.4684 -0.0747 0.2050
O16 O 0.6243(2) 0.25692(13) 0.45839(13)
C16 C 0.3536(2) 0.22007(19) 0.14200(15)
C17 C 0.6475(3) -0.02799(18) 0.22626(14)
C18 C 0.4122(2) -0.06220(15) 0.19562(13)
H14 H 0.4025 -0.0838 0.1955
C19 C 0.3279(3) 0.0945(2) 0.00045(15)
C20 C 0.4005(2) -0.00221(15) 0.19103(12)
O17 O 0.37933(16) 0.27438(13) 0.13306(12)
C21 C 0.3130(2) 0.05051(19) 0.17371(14)
N21 N 0.4452(2) 0.15705(18) -0.03338(13)
O18 O 0.24880(17) 0.21914(13) 0.15027(12)
O19 O 0.68935(18) 0.25858(13) 0.45017(14)
C22 C 0.3867(2) -0.03540(17) 0.18964(13)
C23 C 0.3363(2) 0.16834(18) 0.15436(14)
C24 C 0.6276(3) 0.00826(17) 0.39994(14)
O20 O 0.71357(17) 0.01613(13) 0.41099(13)
C25 C 0.4306(3) 0.0632(2) 0.03247(14)
C26 C 0.4973(3) 0.0706(2) 0.04856(16)
C27 C 0.6875(2) 0.0564(2) 0.24165(13)
H15 H 0.7117 0.0672 0.2466
N22 N 0.5713(2) 0.1480(3) 0.07362(13)
C28 C 0.6526(3) 0.23103(17) 0.26527(16)
C29 C 0.4530(3) 0.24391(19) 0.12101(16)
C30 C 0.3449(3) -0.03890(18) 0.18248(15)
N23 N 0.3763(3) 0.17894(18) -0.02523(14)
H16 H 0.3867 0.1598 -0.0200
N24 N 0.3678(2) 0.1005(2) 0.34824(13)
C31 C 0.6688(2) 0.15495(18) 0.43109(15)
C32 C 0.6872(2) 0.02365(19) 0.23746(14)
H17 H 0.7108 0.0120 0.2390
C33 C 0.6816(3) -0.08008(19) 0.2231(2)
H18 H 0.6666 -0.0850 0.2004
H19 H 0.6693 -0.0913 0.2407
C34 C 0.5767(2) 0.2424(2) 0.27994(16)
C35 C 0.5521(3) -0.0745(2) 0.38721(16)
C36 C 0.5877(3) 0.01169(17) 0.39199(14)
N25 N 0.3739(3) 0.0816(2) -0.07745(16)
C37 C 0.3180(3) 0.1485(2) -0.01909(16)
O21 O 0.2651(3) 0.0471(2) 0.34682(17)
C38 C 0.3463(2) 0.13485(18) 0.16098(14)
C39 C 0.4425(3) 0.1882(3) -0.02728(18)
C40 C 0.3363(5) 0.0799(4) -0.0867(3)
C41 C 0.3354(3) 0.1795(2) -0.02707(17)
C42 C 0.2882(3) 0.2115(2) 0.14910(17)
C43 C 0.6256(2) 0.20440(16) 0.26595(14)
O22 O 0.3882(2) 0.31898(19) 0.30443(18)
C44 C 0.5172(3) 0.1604(2) -0.02074(18)
N26 N 0.5383(2) 0.24646(14) 0.28771(13)
H20 H 0.5257 0.2285 0.2908
C45 C 0.4839(3) 0.1075(2) -0.03801(16)
C46 C 0.6940(2) 0.12922(18) 0.42526(14)
C47 C 0.2970(2) 0.17726(18) 0.15644(15)
C48 C 0.7007(2) 0.1916(2) 0.25188(17)
H21 H 0.7259 0.1861 0.2479
C49 C 0.4380(3) 0.0617(3) -0.05370(15)
O23 O 0.53176(18) 0.30349(14) 0.28835(14)
C50 C 0.4701(3) 0.0166(2) 0.03699(16)
H22 H 0.4732 -0.0062 0.0353
C51 C 0.6582(4) 0.2435(2) 0.4516(2)
C52 C 0.5606(3) -0.01501(17) 0.38773(12)
C53 C 0.7476(3) 0.1700(2) 0.43326(18)
H23 H 0.7739 0.1758 0.4336
C54 C 0.7057(3) 0.0747(2) 0.41465(15)
C55 C 0.3203(2) -0.01147(19) 0.17778(14)
H24 H 0.2930 -0.0137 0.1734
C56 C 0.3943(3) 0.0557(3) -0.06327(17)
C57 C 0.4168(3) 0.2055(3) 0.32143(17)
N27 N 0.3694(2) 0.1650(2) 0.33411(14)
H25 H 0.3884 0.1510 0.3351
C58 C 0.6917(3) 0.0395(2) 0.40979(15)
C59 C 0.3581(3) 0.0683(2) 0.01452(15)
C60 C 0.4080(3) 0.0175(2) 0.36312(14)
C61 C 0.4746(4) 0.2095(3) -0.0188(2)
H26 H 0.4717 0.2322 -0.0156
C62 C 0.5122(3) -0.0687(2) 0.37948(15)
H27 H 0.4946 -0.0864 0.3758
O24 O 0.7979(2) 0.12077(16) 0.41829(16)
C64 C 0.6806(2) 0.18693(19) 0.43882(15)
C65 C 0.6428(2) -0.0240(2) 0.40437(14)
H30 H 0.6697 -0.0271 0.4104
O25 O 0.5471(3) 0.2122(2) -0.00629(16)
C66 C 0.3107(3) 0.2059(2) -0.03643(19)
H31 H 0.3207 0.2267 -0.0408
C67 C 0.6910(3) 0.2227(2) 0.25782(18)
C68 C 0.7356(2) 0.1379(2) 0.42624(17)
C69 C 0.5028(3) 0.0361(2) 0.04649(15)
H32 H 0.5278 0.0268 0.0514
C70 C 0.2882(3) 0.0882(2) -0.00339(17)
H33 H 0.2791 0.0673 0.0015
C71 C 0.4284(3) 0.2361(2) 0.31425(18)
C72 C 0.4055(3) 0.0495(2) 0.35903(16)
C74 C 0.4982(3) -0.0356(2) 0.37722(14)
N28 N 0.5347(2) 0.20533(18) 0.09113(14)
H36 H 0.5233 0.1864 0.0879
C75 C 0.6043(3) 0.26911(18) 0.28104(18)
H37 H 0.5973 0.2905 0.2869
C76 C 0.4768(3) 0.2705(2) 0.29978(18)
C77 C 0.2806(2) 0.12117(19) 0.16970(14)
H38 H 0.2624 0.1058 0.1752
C78 C 0.3692(3) 0.0667(3) 0.35258(16)
C79 C 0.7206(3) 0.1941(2) 0.43993(17)
H39 H 0.7294 0.2156 0.4453
O26 O 0.3035(2) 0.16890(19) 0.33887(15)
C80 C 0.3714(3) -0.0018(2) 0.36134(15)
H40 H 0.3722 -0.0248 0.3637
C81 C 0.6246(3) 0.29140(19) 0.4698(2)
C82 C 0.3852(3) 0.2440(2) 0.13416(16)
C83 C 0.3333(3) 0.0492(3) 0.35236(16)
O27 O 0.3188(2) -0.0043(3) -0.0544(2)
C84 C 0.3358(3) 0.0150(4) 0.35604(17)
H41 H 0.3127 0.0028 0.3549
C85 C 0.4334(3) 0.02974(19) 0.03007(15)
H42 H 0.4113 0.0164 0.0240
C87 C 0.6815(3) 0.13145(19) 0.24433(15)
C88 C 0.6184(3) -0.05082(17) 0.39987(16)
H45 H 0.6291 -0.0721 0.4020
C89 C 0.2697(2) 0.1531(2) 0.16401(15)
H46 H 0.2439 0.1594 0.1651
C90 C 0.4029(3) 0.2030(2) -0.03009(18)
C91 C 0.5544(3) 0.1110(3) -0.02368(17)
H47 H 0.5785 0.0999 -0.0208
C92 C 0.5658(4) 0.0902(3) 0.06020(18)
O28 O 0.5911(2) 0.2344(2) 0.08637(15)
C93 C 0.3170(3) 0.23384(19) 0.14261(17)
H48 H 0.3120 0.2564 0.1389
C94 C 0.4157(4) 0.2941(3) 0.3053(2)
C95 C 0.4602(3) 0.2772(2) 0.12362(18)
H49 H 0.4425 0.2922 0.1308
C96 C 0.4530(4) 0.2983(2) 0.2986(2)
H50 H 0.4621 0.3192 0.2933
C97 C 0.5547(3) 0.1438(3) -0.01741(19)
H51 H 0.5781 0.1554 -0.0112
C98 C 0.7607(3) 0.1116(2) 0.41958(18)
C99 C 0.3775(4) 0.0254(3) -0.05624(18)
H52 H 0.3931 0.0076 -0.0473
C100 C 0.5232(3) 0.2650(3) 0.10282(19)
H53 H 0.5466 0.2720 0.0959
C101 C 0.6396(3) 0.26305(19) 0.27362(18)
H54 H 0.6571 0.2807 0.2739
C102 C 0.6320(3) 0.3139(2) 0.4418(2)
H55 H 0.6134 0.3096 0.4213
H56 H 0.6582 0.3103 0.4368
H57 H 0.6295 0.3365 0.4490
C103 C 0.2773(3) 0.1452(2) -0.02231(18)
C105 C 0.5199(3) 0.0922(2) -0.03445(16)
H60 H 0.5216 0.0696 -0.0391
C106 C 0.4551(3) -0.0304(3) 0.37027(14)
C107 C 0.5128(3) 0.2316(2) 0.10193(17)
C108 C 0.5869(2) 0.21138(19) 0.27296(15)
C109 C 0.5903(3) 0.1205(4) 0.06796(18)
C110 C 0.6511(3) 0.29649(19) 0.5032(2)
H61 H 0.6449 0.2807 0.5201
H62 H 0.6477 0.3186 0.5116
H63 H 0.6779 0.2935 0.4997
C111 C 0.3331(4) 0.1517(3) 0.33891(18)
C112 C 0.4031(3) 0.2629(3) 0.3140(2)
C113 C 0.7466(3) 0.0807(2) 0.41416(17)
H64 H 0.7631 0.0634 0.4101
C114 C 0.2346(3) 0.2515(2) 0.1387(3)
H65 H 0.2439 0.2571 0.1171
H66 H 0.2444 0.2681 0.1560
C115 C 0.5183(3) 0.2755(2) 0.29095(18)
C116 C 0.5116(4) 0.1941(3) -0.0156(2)
C117 C 0.3342(3) 0.1163(3) 0.34409(19)
C118 C 0.2703(4) 0.2007(3) -0.0391(2)
H67 H 0.2541 0.2187 -0.0462
C119 C 0.3375(4) 0.0226(4) -0.0629(2)
C120 C 0.3790(3) 0.1983(3) 0.32792(17)
C121 C 0.2974(3) 0.0664(4) 0.3471(2)
C122 C 0.2521(3) 0.1716(3) -0.0324(2)
C123 C 0.3532(3) 0.2252(3) 0.32891(19)
H68 H 0.3281 0.2215 0.3341
C124 C 0.2625(3) 0.1131(3) -0.01455(18)
C125 C 0.7526(3) 0.2444(3) 0.2480(3)
H69 H 0.7498 0.2334 0.2255
H70 H 0.7684 0.2304 0.2651
C126 C 0.6323(5) 0.1783(4) 0.0774(2)
H71 H 0.6454 0.1985 0.0796
C127 C 0.3642(4) 0.2556(3) 0.3225(2)
H72 H 0.3466 0.2730 0.3235
C128 C 0.4976(4) 0.2874(2) 0.1143(2)
H73 H 0.5046 0.3097 0.1160
C129 C 0.2888(3) -0.0752(2) 0.1717(3)
H74 H 0.2791 -0.0648 0.1495
H75 H 0.2748 -0.0660 0.1894
C130 C 0.5927(4) 0.1760(4) 0.0788(2)
C131 C 0.5432(3) -0.1335(2) 0.3828(2)
H76 H 0.5299 -0.1336 0.3589
H77 H 0.5237 -0.1337 0.3984
N29 N 0.3289(5) 0.1349(4) -0.1133(3)
C132 C 0.6301(5) 0.1199(4) 0.0674(2)
H78 H 0.6427 0.1001 0.0635
C133 C 0.2737(5) 0.0442(4) -0.0856(3)
H79 H 0.2637 0.0238 -0.0802
C134 C 0.6516(4) 0.1494(6) 0.0728(3)
H80 H 0.6787 0.1494 0.0731
C135 C 0.5822(4) 0.2938(2) 0.4763(2)
H81 H 0.5782 0.2787 0.4946
H82 H 0.5648 0.2881 0.4554
H83 H 0.5769 0.3160 0.4831
C136 C 0.1735(3) 0.2257(3) 0.1075(3)
H84 H 0.1929 0.2170 0.0946
H85 H 0.1527 0.2361 0.0918
H86 H 0.1628 0.2079 0.1196
C137 C 0.2978(3) 0.0997(4) 0.3434(2)
H87 H 0.2743 0.1116 0.3405
C138 C 0.3166(4) 0.0521(5) -0.0796(3)
C139 C 0.2676(6) 0.0992(6) -0.1096(4)
H88 H 0.2512 0.1152 -0.1215
C140 C 0.1923(4) 0.2509(3) 0.1335(4)
C141 C 0.3995(4) 0.3516(3) 0.2915(4)
H90 H 0.4089 0.3495 0.2694
H91 H 0.4196 0.3622 0.3082
C143 C 0.8240(4) 0.0935(3) 0.4054(3)
H94 H 0.8108 0.0828 0.3844
H95 H 0.8318 0.0769 0.4231
C144 C 0.3364(4) -0.0297(3) -0.0326(3)
H96 H 0.3530 -0.0187 -0.0135
H97 H 0.3541 -0.0412 -0.0458
C145 C 0.5471(4) 0.2475(3) -0.0019(3)
H98 H 0.5360 0.2530 0.0189
H99 H 0.5307 0.2576 -0.0217
C146 C 0.5716(4) 0.2073(3) 0.08544(19)
C147 C 0.5721(6) -0.1640(3) 0.3900(5)
H100 H 0.5887 -0.1635 0.4129
C148 C 0.7726(4) 0.2791(3) 0.2460(5)
H101 H 0.7733 0.2910 0.2681
C149 C 0.2064(4) 0.0768(3) -0.0122(3)
H102 H 0.2168 0.0690 0.0110
H103 H 0.2109 0.0602 -0.0293
C150 C 0.3116(5) -0.0599(5) -0.0142(5)
H104 H 0.3247 -0.0772 0.0011
C151 C 0.7442(4) -0.0721(4) 0.1974(4)
H105 H 0.7443 -0.0488 0.2028
H106 H 0.7296 -0.0757 0.1746
H107 H 0.7708 -0.0796 0.1979
C152 C 0.7221(4) -0.1293(3) 0.2220(4)
H108 H 0.7481 -0.1384 0.2232
H109 H 0.7066 -0.1354 0.2003
H110 H 0.7101 -0.1379 0.2409
C153 C 0.7247(4) -0.0917(3) 0.2248(4)
H111 H 0.7388 -0.0862 0.2479
C154 C 0.2289(5) 0.0644(4) 0.3412(5)
H112 H 0.2286 0.0823 0.3244
H113 H 0.2210 0.0726 0.3626
C155 C 0.2836(5) -0.0680(5) -0.0531(5)
H114 H 0.2642 -0.0845 -0.0500
H115 H 0.3000 -0.0761 -0.0691
H116 H 0.2706 -0.0480 -0.0621
C156 C 0.7443(6) 0.2984(4) 0.2148(4)
H117 H 0.7540 0.3205 0.2126
H118 H 0.7180 0.2993 0.2201
H119 H 0.7443 0.2867 0.1933
C157 C 0.5444(4) -0.1942(2) 0.3843(4)
H120 H 0.5306 -0.1965 0.4039
H121 H 0.5595 -0.2139 0.3820
H122 H 0.5258 -0.1910 0.3635
O29 O 0.3527(3) 0.14778(19) -0.0937(2)
C158 C 0.2822(4) -0.0305(4) -0.0006(4)
H123 H 0.2625 -0.0410 0.0107
H124 H 0.2696 -0.0180 -0.0203
H125 H 0.2977 -0.0158 0.0155
C159 C 0.1564(5) 0.0881(5) -0.0160(5)
H126 H 0.1467 0.1062 -0.0028
C160 C 0.5922(7) -0.1622(4) 0.3631(6)
H127 H 0.6111 -0.1445 0.3670
H128 H 0.5742 -0.1579 0.3420
H129 H 0.6055 -0.1828 0.3608
C161 C 0.1495(5) 0.0862(5) -0.0618(4)
H130 H 0.1572 0.1069 -0.0710
H131 H 0.1222 0.0820 -0.0704
H132 H 0.1652 0.0686 -0.0691
O30 O 0.3190(5) 0.1457(4) -0.1393(3)
C162 C 0.3118(4) 0.1066(5) -0.1017(3)
C163 C 0.2505(9) 0.0697(7) -0.1000(6)
H133 H 0.2233 0.0675 -0.1033
C164 C 0.3010(6) -0.1257(4) 0.1447(8)
H134 H 0.2985 -0.1495 0.1443
H135 H 0.3284 -0.1198 0.1491
H136 H 0.2893 -0.1168 0.1226
C165 C 0.3582(7) 0.3720(4) 0.2874(7)
H137 H 0.3516 0.3745 0.3109
C166 C 0.1780(6) 0.2686(10) 0.1483(10)
H138 H 0.1500 0.2661 0.1426
H139 H 0.1854 0.2907 0.1429
H140 H 0.1859 0.2645 0.1728
C167 C 0.8154(5) 0.2716(6) 0.2392(7)
H141 H 0.8293 0.2921 0.2378
H142 H 0.8144 0.2596 0.2177
H143 H 0.8289 0.2584 0.2580
C168 C 0.2832(4) -0.1136(3) 0.1692(4)
H144 H 0.2924 -0.1243 0.1916
C169 C 0.8621(4) 0.1163(5) 0.3975(8)
H145 H 0.8588 0.1326 0.3786
C170 C 0.1977(5) 0.0236(8) 0.3614(8)
H146 H 0.1808 0.0045 0.3577
H147 H 0.1849 0.0408 0.3725
H148 H 0.2218 0.0175 0.3759
C171 C 0.2393(5) -0.1192(4) 0.1579(6)
H149 H 0.2252 -0.1121 0.1762
H150 H 0.2344 -0.1423 0.1532
H151 H 0.2305 -0.1066 0.1372
C172 C 0.5981(6) 0.2542(4) -0.0382(6)
H152 H 0.6246 0.2612 -0.0390
H153 H 0.5804 0.2665 -0.0550
H154 H 0.5957 0.2309 -0.0434
C173 C 0.5835(7) 0.3003(5) 0.0075(6)
H155 H 0.6090 0.3104 0.0090
H156 H 0.5733 0.3040 0.0288
H157 H 0.5660 0.3100 -0.0115
C174 C 0.3281(9) 0.3572(8) 0.2688(12)
H158 H 0.3228 0.3366 0.2798
H159 H 0.3340 0.3527 0.2459
H160 H 0.3054 0.3713 0.2671
C175 C 0.5872(6) 0.2609(5) 0.0011(5)
H161 H 0.6056 0.2501 0.0194
C176 C 0.1444(6) 0.0530(6) -0.0137(6)
H162 H 0.1164 0.0519 -0.0145
H163 H 0.1573 0.0437 0.0078
H164 H 0.1518 0.0408 -0.0329
C177 C 0.3735(8) 0.4074(5) 0.2767(8)
H165 H 0.3947 0.4146 0.2941
H166 H 0.3524 0.4231 0.2749
H167 H 0.3826 0.4056 0.2546
C178 C 0.1531(8) 0.0531(7) 0.3325(9)
H168 H 0.1419 0.0645 0.3116
H169 H 0.1555 0.0681 0.3519
H170 H 0.1364 0.0348 0.3366
C179 C 0.2064(10) 0.0358(17) 0.3272(9)
H171 H 0.2123 0.0218 0.3080
C180 C 0.8895(6) 0.0835(5) 0.3953(8)
H172 H 0.9146 0.0901 0.3899
H173 H 0.8769 0.0689 0.3774
H174 H 0.8929 0.0721 0.4173
C181 C 0.8834(8) 0.1282(7) 0.4406(10)
H175 H 0.9060 0.1420 0.4396
H176 H 0.8913 0.1087 0.4541
H177 H 0.8644 0.1403 0.4513
O5 O 0.53265(14) 0.14356(11) 0.42267(11)
H4 H 0.5140 0.1565 0.4203
C63 C 0.4982(3) 0.11550(19) 0.30033(18)
H28 H 0.4811 0.1348 0.2981
H29 H 0.4819 0.0964 0.3033
C73 C 0.5136(3) 0.1112(3) 0.26575(17)
H34 H 0.5325 0.1288 0.2641
H35 H 0.5279 0.0904 0.2669
C86 C 0.5433(3) 0.13611(18) 0.38909(18)
H43 H 0.5657 0.1212 0.3923
H44 H 0.5514 0.1565 0.3789
C104 C 0.5114(3) 0.1209(3) 0.36466(18)
H58 H 0.5060 0.0987 0.3726
H59 H 0.4876 0.1340 0.3637
C142 C 0.5232(3) 0.1190(5) 0.3292(2)
H92 H 0.5380 0.1391 0.3264
H93 H 0.5416 0.1007 0.3299
O5A O 0.46735(14) 0.14356(11) 0.07733(11)
H4A H 0.4860 0.1565 0.0797
C63A C 0.5018(3) 0.11550(19) 0.19967(18)
H28A H 0.5189 0.1348 0.2019
H29A H 0.5181 0.0964 0.1967
C73A C 0.4864(3) 0.1112(3) 0.23425(17)
H34A H 0.4675 0.1288 0.2359
H35A H 0.4721 0.0904 0.2331
C86A C 0.4567(3) 0.13611(18) 0.11091(18)
H43A H 0.4343 0.1212 0.1077
H44A H 0.4486 0.1565 0.1211
C104A C 0.4886(3) 0.1209(3) 0.13534(18)
H58A H 0.4940 0.0987 0.1274
H59A H 0.5124 0.1340 0.1363
C142A C 0.4768(3) 0.1190(5) 0.1708(2)
H92A H 0.4620 0.1391 0.1736
H93A H 0.4584 0.1007 0.1701
O6 O 0.57436(15) 0.19606(11) 0.45337(11)
O31 O 0.3631(14) 0.3602(4) 0.1545(6)
O32 O 0.1984(6) 0.1680(3) 0.8474(10)
O33 O 0.4111(4) 0.0577(4) 0.2188(4)
H89? H 0.1929 0.2346 0.1523
loop_
_geom_bond_atom_site_label_1
_geom_bond_atom_site_label_2
_geom_bond_site_symmetry_1
_geom_bond_site_symmetry_2
F1 C12 1_555 1_555
F2 C38 1_555 1_555
F3 C31 1_555 1_555
F4 C1 1_555 1_555
F5 C36 1_555 1_555
F6 C108 1_555 1_555
N1 H1 1_555 1_555
N2 C3 1_555 1_555
O1 C8 1_555 1_555
N3 C14 1_555 1_555
F7 C57 1_555 1_555
F8 C72 1_555 1_555
O2 C21 1_555 1_555
N4 H2 1_555 1_555
N5 C46 1_555 1_555
O3 C17 1_555 1_555
C1 C2 1_555 1_555
O4 C49 1_555 1_555
N6 H3 1_555 1_555
N7 C16 1_555 1_555
N8 C52 1_555 1_555
O5 H4 1_555 1_555
C2 N4 1_555 1_555
C3 C4 1_555 1_555
N9 C29 1_555 1_555
O7 C87 1_555 1_555
C4 H5 1_555 1_555
N10 H6 1_555 1_555
O8 C35 1_555 1_555
C5 N1 1_555 1_555
N11 C25 1_555 1_555
C6 N13 1_555 1_555
C7 N6 1_555 1_555
N12 H7 1_555 1_555
O9 C106 1_555 1_555
N13 C43 1_555 1_555
O10 C59 1_555 1_555
C8 N4 1_555 1_555
N14 H8 1_555 1_555
N15 C71 1_555 1_555
N16 H9 1_555 1_555
N17 H10 1_555 1_555
N18 C19 1_555 1_555
O11 C67 1_555 1_555
C9 N2 1_555 1_555
O12 C30 1_555 1_555
C10 C35 1_555 1_555
N19 H11 1_555 1_555
O13 C92 1_555 1_555
C11 C9 1_555 1_555
C12 C7 1_555 1_555
C13 N21 1_555 1_555
O14 C124 1_555 1_555
N20 H12 1_555 1_555
C14 C21 1_555 1_555
O15 C90 1_555 1_555
C15 C2 1_555 1_555
H13 C15 1_555 1_555
O16 C51 1_555 1_555
C16 C82 1_555 1_555
C17 C4 1_555 1_555
C18 C15 1_555 1_555
H14 C18 1_555 1_555
C19 C59 1_555 1_555
C20 N3 1_555 1_555
O17 C82 1_555 1_555
C21 N1 1_555 1_555
N21 C39 1_555 1_555
O18 C42 1_555 1_555
O19 C51 1_555 1_555
C22 C18 1_555 1_555
C23 N7 1_555 1_555
C24 N17 1_555 1_555
O20 C58 1_555 1_555
C25 N12 1_555 1_555
C26 N11 1_555 1_555
C27 C7 1_555 1_555
H15 C27 1_555 1_555
N22 C109 1_555 1_555
C28 C43 1_555 1_555
C29 N10 1_555 1_555
C30 C22 1_555 1_555
N23 H16 1_555 1_555
N24 C78 1_555 1_555
C31 C46 1_555 1_555
C32 C11 1_555 1_555
H17 C32 1_555 1_555
C33 O3 1_555 1_555
H18 C33 1_555 1_555
H19 C33 1_555 1_555
C34 N26 1_555 1_555
C35 C62 1_555 1_555
C36 C24 1_555 1_555
N25 C40 1_555 1_555
C37 N18 1_555 1_555
O21 C121 1_555 1_555
C38 C5 1_555 1_555
C39 C61 1_555 1_555
C40 C138 1_555 1_555
C41 N23 1_555 1_555
C42 C47 1_555 1_555
C43 C108 1_555 1_555
O22 C94 1_555 1_555
C44 C13 1_555 1_555
N26 H20 1_555 1_555
C45 N19 1_555 1_555
C46 C68 1_555 1_555
C47 C23 1_555 1_555
C48 C6 1_555 1_555
H21 C48 1_555 1_555
C49 N19 1_555 1_555
O23 C115 1_555 1_555
C50 H22 1_555 1_555
C51 N14 1_555 1_555
C52 C10 1_555 1_555
C53 H23 1_555 1_555
C54 N5 1_555 1_555
C55 C14 1_555 1_555
H24 C55 1_555 1_555
C56 N25 1_555 1_555
C57 C71 1_555 1_555
N27 H25 1_555 1_555
C58 N17 1_555 1_555
C59 N12 1_555 1_555
C60 N20 1_555 1_555
C61 H26 1_555 1_555
C62 H27 1_555 1_555
O24 C98 1_555 1_555
C63 H28 1_555 1_555
H29 C63 1_555 1_555
C64 N14 1_555 1_555
C65 C24 1_555 1_555
H30 C65 1_555 1_555
O25 C116 1_555 1_555
C66 C41 1_555 1_555
H31 C66 1_555 1_555
C67 C28 1_555 1_555
C68 C53 1_555 1_555
C69 C26 1_555 1_555
H32 C69 1_555 1_555
C70 C19 1_555 1_555
H33 C70 1_555 1_555
C71 C112 1_555 1_555
C72 C60 1_555 1_555
C73 C63 1_555 1_555
H34 C73 1_555 1_555
H35 C73 1_555 1_555
C74 N8 1_555 1_555
N28 H36 1_555 1_555
C75 C34 1_555 1_555
H37 C75 1_555 1_555
C76 N15 1_555 1_555
C77 C5 1_555 1_555
H38 C77 1_555 1_555
C78 C72 1_555 1_555
C79 C53 1_555 1_555
H39 C79 1_555 1_555
O26 C111 1_555 1_555
C80 C60 1_555 1_555
H40 C80 1_555 1_555
C81 O16 1_555 1_555
C82 N10 1_555 1_555
C83 C78 1_555 1_555
O27 C119 1_555 1_555
C84 C80 1_555 1_555
H41 C84 1_555 1_555
C85 C25 1_555 1_555
H42 C85 1_555 1_555
C86 O5 1_555 1_555
H43 C86 1_555 1_555
H44 C86 1_555 1_555
C87 N6 1_555 1_555
C88 C10 1_555 1_555
H45 C88 1_555 1_555
C89 C47 1_555 1_555
H46 C89 1_555 1_555
C90 N23 1_555 1_555
C91 H47 1_555 1_555
C92 N16 1_555 1_555
O28 C146 1_555 1_555
C93 C16 1_555 1_555
H48 C93 1_555 1_555
C94 C96 1_555 1_555
C95 C29 1_555 1_555
H49 C95 1_555 1_555
C96 C76 1_555 1_555
H50 C96 1_555 1_555
C97 C44 1_555 1_555
H51 C97 1_555 1_555
C98 C68 1_555 1_555
C99 C56 1_555 1_555
H52 C99 1_555 1_555
C100 H53 1_555 1_555
C101 C28 1_555 1_555
H54 C101 1_555 1_555
C102 C81 1_555 1_555
H55 C102 1_555 1_555
H56 C102 1_555 1_555
H57 C102 1_555 1_555
C103 C37 1_555 1_555
C104 C86 1_555 1_555
H58 C104 1_555 1_555
H59 C104 1_555 1_555
C105 C45 1_555 1_555
H60 C105 1_555 1_555
C106 N20 1_555 1_555
C107 N9 1_555 1_555
C108 C34 1_555 1_555
C109 C92 1_555 1_555
C110 C81 1_555 1_555
H61 C110 1_555 1_555
H62 C110 1_555 1_555
H63 C110 1_555 1_555
C111 N27 1_555 1_555
C112 C94 1_555 1_555
C113 C54 1_555 1_555
H64 C113 1_555 1_555
C114 O18 1_555 1_555
H65 C114 1_555 1_555
H66 C114 1_555 1_555
C115 N26 1_555 1_555
C116 C44 1_555 1_555
C117 N24 1_555 1_555
C118 C66 1_555 1_555
H67 C118 1_555 1_555
C119 C99 1_555 1_555
C120 C57 1_555 1_555
C121 C83 1_555 1_555
C122 C103 1_555 1_555
C123 C120 1_555 1_555
H68 C123 1_555 1_555
C124 C70 1_555 1_555
C125 O11 1_555 1_555
H69 C125 1_555 1_555
H70 C125 1_555 1_555
C126 H71 1_555 1_555
C127 C112 1_555 1_555
H72 C127 1_555 1_555
C128 C95 1_555 1_555
H73 C128 1_555 1_555
C129 O12 1_555 1_555
H74 C129 1_555 1_555
H75 C129 1_555 1_555
C130 N22 1_555 1_555
C131 O8 1_555 1_555
H76 C131 1_555 1_555
H77 C131 1_555 1_555
N29 O29 1_555 1_555
C132 C109 1_555 1_555
H78 C132 1_555 1_555
C133 H79 1_555 1_555
C134 C126 1_555 1_555
H80 C134 1_555 1_555
C135 C81 1_555 1_555
H81 C135 1_555 1_555
H82 C135 1_555 1_555
H83 C135 1_555 1_555
C136 H84 1_555 1_555
H85 C136 1_555 1_555
H86 C136 1_555 1_555
C137 C117 1_555 1_555
H87 C137 1_555 1_555
C138 C119 1_555 1_555
C139 H88 1_555 1_555
C140 C114 1_555 1_555
C141 O22 1_555 1_555
H90 C141 1_555 1_555
H91 C141 1_555 1_555
C142 C63 1_555 1_555
H92 C142 1_555 1_555
H93 C142 1_555 1_555
C143 O24 1_555 1_555
H94 C143 1_555 1_555
H95 C143 1_555 1_555
C144 O27 1_555 1_555
H96 C144 1_555 1_555
H97 C144 1_555 1_555
C145 O25 1_555 1_555
H98 C145 1_555 1_555
H99 C145 1_555 1_555
C146 N28 1_555 1_555
C147 C131 1_555 1_555
H100 C147 1_555 1_555
C148 C125 1_555 1_555
H101 C148 1_555 1_555
C149 O14 1_555 1_555
H102 C149 1_555 1_555
H103 C149 1_555 1_555
C150 C144 1_555 1_555
H104 C150 1_555 1_555
C151 H105 1_555 1_555
H106 C151 1_555 1_555
H107 C151 1_555 1_555
C152 H108 1_555 1_555
H109 C152 1_555 1_555
H110 C152 1_555 1_555
C153 C33 1_555 1_555
H111 C153 1_555 1_555
C154 O21 1_555 1_555
H112 C154 1_555 1_555
H113 C154 1_555 1_555
C155 C150 1_555 1_555
H114 C155 1_555 1_555
H115 C155 1_555 1_555
H116 C155 1_555 1_555
C156 C148 1_555 1_555
H117 C156 1_555 1_555
H118 C156 1_555 1_555
H119 C156 1_555 1_555
C157 C147 1_555 1_555
H120 C157 1_555 1_555
H121 C157 1_555 1_555
H122 C157 1_555 1_555
C158 C150 1_555 1_555
H123 C158 1_555 1_555
H124 C158 1_555 1_555
H125 C158 1_555 1_555
C159 C149 1_555 1_555
H126 C159 1_555 1_555
C160 C147 1_555 1_555
H127 C160 1_555 1_555
H128 C160 1_555 1_555
H129 C160 1_555 1_555
C161 C159 1_555 1_555
H130 C161 1_555 1_555
H131 C161 1_555 1_555
H132 C161 1_555 1_555
O30 N29 1_555 1_555
C162 C40 1_555 1_555
C163 C133 1_555 1_555
H133 C163 1_555 1_555
C164 H134 1_555 1_555
H135 C164 1_555 1_555
H136 C164 1_555 1_555
C165 C141 1_555 1_555
H137 C165 1_555 1_555
C166 C140 1_555 1_555
H138 C166 1_555 1_555
H139 C166 1_555 1_555
H140 C166 1_555 1_555
C167 C148 1_555 1_555
H141 C167 1_555 1_555
H142 C167 1_555 1_555
H143 C167 1_555 1_555
C168 C129 1_555 1_555
H144 C168 1_555 1_555
C169 C143 1_555 1_555
H145 C169 1_555 1_555
C170 H146 1_555 1_555
H147 C170 1_555 1_555
H148 C170 1_555 1_555
C171 C168 1_555 1_555
H149 C171 1_555 1_555
H150 C171 1_555 1_555
H151 C171 1_555 1_555
C172 H152 1_555 1_555
H153 C172 1_555 1_555
H154 C172 1_555 1_555
C173 H155 1_555 1_555
H156 C173 1_555 1_555
H157 C173 1_555 1_555
C174 C165 1_555 1_555
H158 C174 1_555 1_555
H159 C174 1_555 1_555
H160 C174 1_555 1_555
C175 C145 1_555 1_555
H161 C175 1_555 1_555
C176 C159 1_555 1_555
H162 C176 1_555 1_555
H163 C176 1_555 1_555
H164 C176 1_555 1_555
C177 C165 1_555 1_555
H165 C177 1_555 1_555
H166 C177 1_555 1_555
H167 C177 1_555 1_555
C178 H168 1_555 1_555
H169 C178 1_555 1_555
H170 C178 1_555 1_555
C179 C154 1_555 1_555
H171 C179 1_555 1_555
C180 C169 1_555 1_555
H172 C180 1_555 1_555
H173 C180 1_555 1_555
H174 C180 1_555 1_555
C181 C169 1_555 1_555
H175 C181 1_555 1_555
H176 C181 1_555 1_555
H177 C181 1_555 1_555
O5A H4A 1_555 1_555
C63A H28A 1_555 1_555
H29A C63A 1_555 1_555
C73A C73 1_555 1_555
H34A C73A 1_555 1_555
H35A C73A 1_555 1_555
C86A O5A 1_555 1_555
H43A C86A 1_555 1_555
H44A C86A 1_555 1_555
C104A C86A 1_555 1_555
H58A C104A 1_555 1_555
H59A C104A 1_555 1_555
C142A C63A 1_555 1_555
H92A C142A 1_555 1_555
H93A C142A 1_555 1_555
C1 C20 1_555 1_555
C3 C8 1_555 1_555
C6 C87 1_555 1_555
N16 C26 1_555 1_555
C9 C12 1_555 1_555
C11 C17 1_555 1_555
C13 C45 1_555 1_555
C20 C22 1_555 1_555
C23 C38 1_555 1_555
C27 C32 1_555 1_555
C30 C55 1_555 1_555
C31 C64 1_555 1_555
C36 C52 1_555 1_555
C37 C41 1_555 1_555
C39 C90 1_555 1_555
C42 C93 1_555 1_555
C48 C67 1_555 1_555
C49 C56 1_555 1_555
C50 C69 1_555 1_555
C50 C85 1_555 1_555
C54 C58 1_555 1_555
N27 C120 1_555 1_555
C61 C116 1_555 1_555
C62 C74 1_555 1_555
C64 C79 1_555 1_555
C65 C88 1_555 1_555
C74 C106 1_555 1_555
N28 C107 1_555 1_555
C75 C101 1_555 1_555
C76 C115 1_555 1_555
C77 C89 1_555 1_555
C83 C84 1_555 1_555
C91 C97 1_555 1_555
C91 C105 1_555 1_555
C98 C113 1_555 1_555
C100 C107 1_555 1_555
C100 C128 1_555 1_555
C103 C124 1_555 1_555
C104 C142 1_555 1_555
C111 C117 1_555 1_555
C118 C122 1_555 1_555
C121 C137 1_555 1_555
C123 C127 1_555 1_555
C126 C130 1_555 1_555
C130 C146 1_555 1_555
N29 C162 1_555 1_555
C132 C134 1_555 1_555
C133 C138 1_555 1_555
C136 C140 1_555 1_555
C139 C162 1_555 1_555
C139 C163 1_555 1_555
C151 C153 1_555 1_555
C152 C153 1_555 1_555
C164 C168 1_555 1_555
C170 C179 1_555 1_555
C172 C175 1_555 1_555
C173 C175 1_555 1_555
C178 C179 1_555 1_555
C63A C73A 1_555 1_555
C104A C142A 1_555 1_555

#END
