
#######################################################################
#
#                 Cambridge Crystallographic Data Centre
#                                CCDC 
#
#######################################################################
#
# If this CIF has been generated from an entry in the Cambridge 
# Structural Database, then it will include bibliographic, chemical, 
# crystal, experimental, refinement or atomic coordinate data resulting 
# from the CCDC's data processing and validation procedures.
#
#######################################################################

data_MUKGIK
_chemical_formula_moiety         'C40 H28 N2'
_chemical_name_systematic        
2,2'-(1,4-phenylenediethene-2,1-diyl)bis(6-phenylquinoline)
_symmetry_cell_setting           monoclinic
_symmetry_space_group_name_H-M   'P 21/c'
_symmetry_Int_Tables_number      14
_space_group_name_Hall           '-P 2ybc'
loop_
_symmetry_equiv_pos_site_id
_symmetry_equiv_pos_as_xyz
1 x,y,z
2 -x,1/2+y,1/2-z
3 -x,-y,-z
4 x,1/2-y,1/2+z
_cell_length_a                   28.8720(15)
_cell_length_b                   7.3042(3)
_cell_length_c                   6.3633(3)
_cell_angle_alpha                90
_cell_angle_beta                 90.936(4)
_cell_angle_gamma                90
_cell_volume                     1341.76
_exptl_crystal_colour            'yellow green'
_exptl_crystal_description       rod
_cell_formula_units_Z            2
loop_
_atom_site_label
_atom_site_type_symbol
_atom_site_fract_x
_atom_site_fract_y
_atom_site_fract_z
N1 N 0.68291(4) 0.47072(19) 0.1608(2)
C1 C 0.72685(5) 0.4750(2) 0.0832(2)
C2 C 0.73659(5) 0.5309(2) -0.1261(2)
C3 C 0.81947(5) 0.4918(2) -0.0593(2)
C4 C 0.64835(5) 0.5202(2) 0.0332(2)
C5 C 0.90223(5) 0.3865(2) -0.0344(2)
H1 H 0.89412(5) 0.3092(2) 0.0751(2)
C6 C 0.86833(5) 0.4959(2) -0.1308(2)
C7 C 0.80904(5) 0.4358(2) 0.1497(2)
H2 H 0.83312(5) 0.4049(2) 0.2419(2)
C8 C 0.54419(5) 0.4953(2) 0.4061(2)
C9 C 0.78314(5) 0.5385(2) -0.1916(2)
H3 H 0.78938(5) 0.5761(2) -0.3279(2)
C10 C 0.94797(5) 0.3917(2) -0.1001(2)
H4 H 0.97018(5) 0.3188(2) -0.0335(2)
C11 C 0.76433(6) 0.4268(2) 0.2172(2)
H5 H 0.75855(6) 0.3883(2) 0.3536(2)
C12 C 0.65503(5) 0.5715(2) -0.1798(2)
H6 H 0.62969(5) 0.6019(2) -0.2649(2)
C13 C 0.69858(5) 0.5760(2) -0.2591(2)
H7 H 0.70322(5) 0.6083(2) -0.3986(2)
C14 C 0.88154(5) 0.6080(2) -0.2976(2)
H8 H 0.85947(5) 0.6810(2) -0.3649(2)
C15 C 0.53677(5) 0.4181(2) 0.6048(2)
H9 H 0.56142(5) 0.3632(2) 0.6764(2)
C16 C 0.50631(5) 0.5783(2) 0.3035(2)
H10 H 0.51020(5) 0.6315(2) 0.1722(2)
C17 C 0.92722(5) 0.6121(2) -0.3644(2)
H11 H 0.93536(5) 0.6867(2) -0.4764(2)
C18 C 0.96055(5) 0.5051(2) -0.2644(2)
H12 H 0.99118(5) 0.5094(2) -0.3073(2)
C19 C 0.60130(5) 0.5290(2) 0.1176(3)
H13 H 0.57756(5) 0.5690(2) 0.0283(3)
C20 C 0.59038(5) 0.4835(2) 0.3145(2)
H14 H 0.61425(5) 0.4404(2) 0.4010(2)
N1B N 0.31709(4) 0.52928(19) 0.8392(2)
C1B C 0.27315(5) 0.5250(2) 0.9168(2)
C2B C 0.26341(5) 0.4691(2) 1.1261(2)
C3B C 0.18053(5) 0.5082(2) 1.0593(2)
C4B C 0.35165(5) 0.4798(2) 0.9668(2)
C5B C 0.09777(5) 0.6135(2) 1.0344(2)
H1B H 0.10588(5) 0.6908(2) 0.9249(2)
C6B C 0.13167(5) 0.5041(2) 1.1308(2)
C7B C 0.19096(5) 0.5642(2) 0.8503(2)
H2B H 0.16688(5) 0.5951(2) 0.7581(2)
C8B C 0.45581(5) 0.5047(2) 0.5939(2)
C9B C 0.21686(5) 0.4615(2) 1.1916(2)
H3B H 0.21062(5) 0.4239(2) 1.3279(2)
C10B C 0.05203(5) 0.6083(2) 1.1001(2)
H4B H 0.02982(5) 0.6812(2) 1.0335(2)
C11B C 0.23567(6) 0.5732(2) 0.7828(2)
H5B H 0.24145(6) 0.6117(2) 0.6464(2)
C12B C 0.34497(5) 0.4285(2) 1.1798(2)
H6B H 0.37031(5) 0.3981(2) 1.2649(2)
C13B C 0.30142(5) 0.4240(2) 1.2591(2)
H7B H 0.29678(5) 0.3917(2) 1.3986(2)
C14B C 0.11846(5) 0.3920(2) 1.2976(2)
H8B H 0.14053(5) 0.3190(2) 1.3649(2)
C15B C 0.46323(5) 0.5819(2) 0.3952(2)
H9B H 0.43858(5) 0.6368(2) 0.3236(2)
C16B C 0.49369(5) 0.4217(2) 0.6965(2)
H10B H 0.48980(5) 0.3685(2) 0.8278(2)
C17B C 0.07278(5) 0.3879(2) 1.3644(2)
H11B H 0.06464(5) 0.3133(2) 1.4764(2)
C18B C 0.03945(5) 0.4949(2) 1.2644(2)
H12B H 0.00882(5) 0.4906(2) 1.3073(2)
C19B C 0.39870(5) 0.4710(2) 0.8824(3)
H13B H 0.42244(5) 0.4310(2) 0.9717(3)
C20B C 0.40962(5) 0.5165(2) 0.6855(2)
H14B H 0.38575(5) 0.5596(2) 0.5990(2)
loop_
_geom_bond_atom_site_label_1
_geom_bond_atom_site_label_2
_geom_bond_site_symmetry_1
_geom_bond_site_symmetry_2
N1 C1 1_555 1_555
C1 C2 1_555 1_555
C2 C9 1_555 1_555
C3 C6 1_555 1_555
C4 N1 1_555 1_555
C5 H1 1_555 1_555
C6 C5 1_555 1_555
C7 C3 1_555 1_555
H2 C7 1_555 1_555
C8 C15 1_555 1_555
C9 C3 1_555 1_555
H3 C9 1_555 1_555
C10 C5 1_555 1_555
H4 C10 1_555 1_555
C11 C1 1_555 1_555
H5 C11 1_555 1_555
C12 C4 1_555 1_555
H6 C12 1_555 1_555
C13 C2 1_555 1_555
H7 C13 1_555 1_555
C14 C6 1_555 1_555
H8 C14 1_555 1_555
C15 H9 1_555 1_555
C16 C8 1_555 1_555
H10 C16 1_555 1_555
C17 C14 1_555 1_555
H11 C17 1_555 1_555
C18 C10 1_555 1_555
H12 C18 1_555 1_555
C19 C4 1_555 1_555
H13 C19 1_555 1_555
C20 C8 1_555 1_555
H14 C20 1_555 1_555
N1B C1B 1_555 1_555
C1B C2B 1_555 1_555
C2B C9B 1_555 1_555
C3B C6B 1_555 1_555
C4B N1B 1_555 1_555
C5B H1B 1_555 1_555
C6B C5B 1_555 1_555
C7B C3B 1_555 1_555
H2B C7B 1_555 1_555
C8B C15B 1_555 1_555
C9B C3B 1_555 1_555
H3B C9B 1_555 1_555
C10B C5B 1_555 1_555
H4B C10B 1_555 1_555
C11B C1B 1_555 1_555
H5B C11B 1_555 1_555
C12B C4B 1_555 1_555
H6B C12B 1_555 1_555
C13B C2B 1_555 1_555
H7B C13B 1_555 1_555
C14B C6B 1_555 1_555
H8B C14B 1_555 1_555
C15B C16 1_555 1_555
H9B C15B 1_555 1_555
C16B C15 1_555 1_555
H10B C16B 1_555 1_555
C17B C14B 1_555 1_555
H11B C17B 1_555 1_555
C18B C10B 1_555 1_555
H12B C18B 1_555 1_555
C19B C4B 1_555 1_555
H13B C19B 1_555 1_555
C20B C8B 1_555 1_555
H14B C20B 1_555 1_555
C7 C11 1_555 1_555
C12 C13 1_555 1_555
C17 C18 1_555 1_555
C19 C20 1_555 1_555
C7B C11B 1_555 1_555
C8B C16B 1_555 1_555
C12B C13B 1_555 1_555
C17B C18B 1_555 1_555
C19B C20B 1_555 1_555

#END
