
#######################################################################
#
#                 Cambridge Crystallographic Data Centre
#                                CCDC 
#
#######################################################################
#
# If this CIF has been generated from an entry in the Cambridge 
# Structural Database, then it will include bibliographic, chemical, 
# crystal, experimental, refinement or atomic coordinate data resulting 
# from the CCDC's data processing and validation procedures.
#
#######################################################################

data_MUKGAB
_chemical_formula_moiety         
'C176 H167 F8 N29 O28,0.5(C9 H20 O2),0.68(C1 H2 Cl2),3(H2 O1)'
_chemical_name_systematic        
"N-(6-(((7-(((7-(((7-(((7-Amino-8-fluoro-4-isobutoxyquinolin-2-yl)carbonyl)amino)-8-fluoro-4-isobutoxyquinolin-2-yl)carbonyl)amino)-8-fluoro-4-isobutoxyquinolin-2-yl)carbonyl)amino)-8-fluoro-4-isobutoxyquinolin-2-yl)carbonyl)amino)pyridin-2-yl)-N'-(6-((2,2-dimethylpropanoyl)amino)pyridin-2-yl)pyridine-2,6-dicarboxamide hemikis(nonane-1,10-diol) clathrate dichloromethane solvate trihydrate"
_symmetry_cell_setting           monoclinic
_symmetry_space_group_name_H-M   'C 2/c'
_symmetry_Int_Tables_number      15
_space_group_name_Hall           '-C 2yn'
loop_
_symmetry_equiv_pos_site_id
_symmetry_equiv_pos_as_xyz
1 x,y,z
2 -x,y,1/2-z
3 1/2+x,1/2+y,z
4 1/2-x,1/2+y,1/2-z
5 -x,-y,-z
6 x,-y,1/2+z
7 1/2-x,1/2-y,-z
8 1/2+x,1/2-y,1/2+z
_cell_length_a                   32.963(7)
_cell_length_b                   40.911(8)
_cell_length_c                   38.539(8)
_cell_angle_alpha                90
_cell_angle_beta                 98.16(3)
_cell_angle_gamma                90
_cell_volume                     51445.6
_cell_formula_units_Z            8
_exptl_crystal_recrystallization_method chloroform/methanol
loop_
_atom_site_label
_atom_site_type_symbol
_atom_site_fract_x
_atom_site_fract_y
_atom_site_fract_z
O29 O 0.4718(2) 0.8605(2) 0.08197(19)
C177 C 0.4803(4) 0.8897(3) 0.1713(4)
H168 H 0.4515 0.8886 0.1759
H169 H 0.4851 0.9121 0.1630
C178 C 0.4852(4) 0.8680(4) 0.1447(3)
H170 H 0.4844 0.8455 0.1540
H171 H 0.5127 0.8714 0.1377
C179 C 0.5068(3) 0.8843(4) 0.2037(4)
H172 H 0.5180 0.8618 0.2035
H173 H 0.5301 0.8997 0.2050
C180 C 0.4543(4) 0.8707(4) 0.1133(2)
C181 C 0.4880(2) 0.8882(2) 0.2334(3)
H174 H 0.4674 0.8705 0.2333
H175 H 0.4727 0.9091 0.2310
H177 H 0.4757(5) 0.8444(5) 0.0573(5)
O29A O 0.5282(2) 0.8605(2) 0.41803(19)
C177A C 0.5197(4) 0.8897(3) 0.3287(4)
H168A H 0.5485 0.8886 0.3241
H169A H 0.5149 0.9121 0.3370
C178A C 0.5148(4) 0.8680(4) 0.3553(3)
H170A H 0.5156 0.8455 0.3460
H171A H 0.4873 0.8714 0.3623
C179A C 0.4932(3) 0.8843(4) 0.2963(4)
H172A H 0.4820 0.8618 0.2965
H173A H 0.4699 0.8997 0.2950
C180A C 0.5457(4) 0.8707(4) 0.3867(2)
C181A C 0.5120(2) 0.8882(2) 0.2666(3)
H174A H 0.5326 0.8705 0.2667
H175A H 0.5273 0.9091 0.2690
H177A H 0.5243(5) 0.8444(5) 0.4427(5)
O30 O 0.5702(2) 0.8077(2) 0.45400(17)
O31 O 0.4043(10) 0.1207(7) 0.3474(5)
Cl1 Cl 0.7975(4) 0.1724(2) 0.1759(3)
Cl3 Cl 0.8536(5) 0.1461(4) 0.1468(7)
C182 C 0.8317(6) 0.1852(5) 0.1480(5)
H176 H 0.8484 0.2056 0.1519
O33 O 0.3245(8) 0.6985(6) 0.4025(7)
F1 F 0.38112(10) 0.87748(8) 0.15973(7)
F2 F 0.45521(10) 0.96692(9) 0.19907(7)
F3 F 0.58811(10) 0.92376(8) 0.23043(7)
F4 F 0.56410(11) 0.81578(10) 0.27260(8)
F5 F 0.63010(11) 0.85355(8) 0.42976(7)
F6 F 0.57403(11) 0.95692(10) 0.38774(7)
F7 F 0.43582(13) 0.93253(11) 0.36001(8)
N1 N 0.50797(19) 1.01623(13) 0.20873(9)
H1 H 0.5146 0.9954 0.2107
N2 N 0.36341(17) 0.81404(17) 0.14768(11)
N3 N 0.68326(18) 0.90196(18) 0.41910(11)
F8 F 0.43779(13) 0.82308(12) 0.31988(9)
O1 O 0.46140(15) 0.96225(14) -0.04973(9)
N4 N 0.4618(2) 0.91663(16) 0.04102(12)
O2 O 0.53631(15) 1.06746(14) 0.20933(9)
O3 O 0.34371(17) 0.95736(16) 0.01742(10)
N5 N 0.32810(15) 0.92204(17) 0.17376(10)
H2 H 0.3548 0.9248 0.1781
N6 N 0.3934(2) 0.91866(15) 0.02221(12)
H3 H 0.3966 0.8973 0.0215
O4 O 0.72372(18) 0.87675(14) 0.23975(11)
O5 O 0.26817(16) 0.95098(13) 0.16987(11)
N7 N 0.58211(18) 0.98921(15) 0.22183(10)
N8 N 0.37235(19) 0.97454(14) 0.18613(10)
N9 N 0.5221(2) 1.00771(16) 0.38044(11)
N10 N 0.64083(19) 0.82964(17) 0.25819(11)
O6 O 0.68937(16) 1.04285(14) 0.22935(11)
N11 N 0.4208(2) 0.77486(14) 0.12826(12)
H4 H 0.4208 0.7963 0.1298
N12 N 0.65488(19) 0.96144(14) 0.40369(10)
H5 H 0.6412 0.9429 0.4014
N13 N 0.65801(18) 0.89069(18) 0.24375(11)
H6 H 0.6342 0.8825 0.2471
N14 N 0.65110(19) 0.79191(17) 0.44488(12)
H7 H 0.6261 0.7998 0.4439
C1 C 0.3426(2) 0.8663(2) 0.16072(13)
O7 O 0.5721(2) 1.10198(18) 0.38835(11)
O8 O 0.24431(17) 0.78182(16) 0.15016(12)
N15 N 0.34222(18) 0.87551(19) -0.00707(12)
N16 N 0.5297(2) 0.9072(2) 0.05793(14)
H8 H 0.5221 0.8872 0.0626
C2 C 0.3149(2) 0.8896(2) 0.16777(13)
C3 C 0.4662(2) 1.02332(19) 0.20284(12)
O9 O 0.39858(17) 0.77037(16) -0.03861(13)
O10 O 0.68736(17) 0.74414(13) 0.45071(13)
O11 O 0.62008(19) 0.74706(13) 0.45923(12)
C4 C 0.6163(3) 1.04123(18) 0.22000(14)
H9 H 0.6136 1.0642 0.2169
C5 C 0.3332(2) 0.8342(2) 0.15512(13)
C6 C 0.6686(2) 0.8453(2) 0.43124(13)
N17 N 0.4808(2) 0.78314(16) 0.10838(14)
O12 O 0.38113(17) 0.73052(15) 0.13446(12)
O13 O 0.32530(18) 1.06858(15) 0.18080(12)
O14 O 0.3103(2) 1.0016(3) -0.05519(19)
N18 N 0.5399(2) 0.75597(17) 0.28785(13)
H10 H 0.5265 0.7740 0.2913
N19 N 0.4489(2) 0.9078(2) -0.04984(13)
H11 H 0.4289 0.8935 -0.0547
N20 N 0.4490(2) 0.84544(19) -0.03388(12)
C7 C 0.6812(2) 0.8144(2) 0.43913(15)
C8 C 0.3255(3) 0.9034(2) 0.00029(15)
N21 N 0.4420(3) 0.9958(2) 0.36829(11)
H12 H 0.4623 0.9817 0.3708
N22 N 0.3720(3) 0.91729(18) -0.07840(13)
C9 C 0.4392(2) 0.99748(19) 0.19791(12)
O15 O 0.42866(19) 1.05153(15) 0.36602(10)
C10 C 0.3321(2) 0.97961(19) 0.17979(13)
O16 O 0.80540(19) 0.87737(18) 0.41910(16)
C11 C 0.2738(2) 0.8795(2) 0.16974(14)
H13 H 0.2541 0.8950 0.1750
C12 C 0.3970(2) 1.00139(18) 0.19107(12)
C13 C 0.6984(2) 0.8705(2) 0.42523(13)
C14 C 0.3355(3) 0.8204(2) -0.02741(15)
C15 C 0.6564(3) 0.9930(2) 0.23079(13)
N23 N 0.3778(2) 0.82109(17) -0.02452(13)
H14 H 0.3884 0.8399 -0.0168
C16 C 0.6314(3) 0.9901(2) 0.40016(14)
C17 C 0.4096(3) 1.06010(18) 0.19547(13)
H15 H 0.3996 1.0819 0.1949
C18 C 0.6198(2) 0.9749(2) 0.22805(12)
C19 C 0.3158(3) 0.8508(2) -0.01927(14)
C20 C 0.6229(2) 0.9412(2) 0.23256(13)
C21 C 0.5623(3) 1.0138(2) 0.38758(13)
C22 C 0.5810(3) 1.0451(2) 0.39191(14)
C23 C 0.4989(3) 0.9300(3) 0.04882(15)
N24 N 0.4645(3) 0.7631(2) 0.30596(15)
C24 C 0.3530(2) 0.7826(2) 0.14248(14)
C25 C 0.4299(3) 0.9360(2) 0.03188(15)
C26 C 0.4867(3) 0.8608(3) -0.03087(16)
C27 C 0.7393(2) 0.8618(2) 0.42692(16)
C28 C 0.5234(3) 0.8431(3) -0.02168(16)
C29 C 0.3051(3) 0.9501(2) 0.17380(13)
C30 C 0.4715(3) 0.9832(2) 0.03783(17)
H16 H 0.4744 1.0062 0.0365
O17 O 0.7232(2) 0.75287(16) 0.25661(15)
C31 C 0.4568(3) 0.7612(2) 0.11932(16)
C32 C 0.5912(3) 0.7907(2) 0.27259(15)
C33 C 0.4060(3) 0.7993(3) -0.03096(17)
C34 C 0.6964(3) 0.9590(2) 0.41021(15)
C35 C 0.4502(3) 1.05496(18) 0.20195(13)
H17 H 0.4683 1.0731 0.2060
C36 C 0.7116(3) 0.9243(2) 0.41495(14)
C37 C 0.5790(3) 0.7604(2) 0.28000(16)
C38 C 0.2829(3) 0.9095(2) -0.00468(16)
H18 H 0.2723 0.9304 -0.0003
C39 C 0.2837(3) 0.7905(3) 0.14941(16)
C40 C 0.6534(3) 1.0275(2) 0.22633(14)
C41 C 0.6231(3) 1.0488(2) 0.40033(15)
H19 H 0.6345 1.0701 0.4032
O18 O 0.58707(18) 0.93968(19) 0.05634(13)
O19 O 0.5570(2) 0.7927(2) -0.00717(15)
C42 C 0.4832(3) 0.7938(2) -0.01970(18)
H20 H 0.4807 0.7708 -0.0171
C43 C 0.4330(3) 0.9691(2) 0.03024(13)
H21 H 0.4094 0.9823 0.0240
C44 C 0.4479(3) 0.8137(3) -0.02777(18)
C45 C 0.7523(3) 0.9185(3) 0.41477(16)
H22 H 0.7704 0.9359 0.4111
N25 N 0.3629(3) 0.9005(3) 0.34892(14)
C46 C 0.3310(3) 0.9750(4) -0.0638(2)
C47 C 0.5704(4) 0.9131(3) 0.06020(16)
C48 C 0.6079(3) 0.7340(2) 0.27988(18)
H23 H 0.6005 0.7124 0.2854
C49 C 0.6779(3) 0.8349(2) 0.25141(15)
C50 C 0.4377(3) 0.9393(3) -0.05432(14)
N26 N 0.5409(2) 0.7976(2) 0.08856(15)
H24 H 0.5289 0.8166 0.0842
C51 C 0.3290(4) 0.9208(4) -0.0864(2)
C52 C 0.3810(2) 1.03368(19) 0.18945(13)
C53 C 0.3920(3) 0.9438(3) -0.06385(16)
O20 O 0.72006(18) 0.98132(16) 0.41142(12)
C54 C 0.4868(3) 0.8946(2) -0.03884(16)
C55 C 0.2629(2) 0.8474(2) 0.16407(15)
H25 H 0.2356 0.8404 0.1650
C56 C 0.5114(4) 1.0667(3) 0.37862(15)
H26 H 0.4923 1.0842 0.3750
O21 O 0.3536(3) 0.85210(19) -0.09344(18)
C57 C 0.5900(3) 0.9877(2) 0.39215(13)
C58 C 0.3114(3) 0.7935(2) -0.03744(17)
H27 H 0.3239 0.7734 -0.0422
C59 C 0.7225(3) 0.8065(2) 0.44036(16)
H28 H 0.7313 0.7847 0.4459
C60 C 0.2935(3) 0.8245(2) 0.15668(15)
C61 C 0.6586(2) 0.9243(2) 0.23858(13)
C62 C 0.3661(4) 1.0014(3) 0.36119(16)
H29 H 0.3666 1.0246 0.3624
O22 O 0.5329(2) 0.70038(19) 0.28718(15)
O23 O 0.2162(2) 0.88602(19) -0.02130(13)
C63 C 0.5047(3) 0.9643(3) 0.04705(16)
H30 H 0.5312 0.9737 0.0522
C64 C 0.6888(3) 1.0782(3) 0.2237(2)
H31 H 0.6768 1.0894 0.2426
H32 H 0.6719 1.0835 0.2010
C65 C 0.7081(3) 0.8108(3) 0.25041(17)
H33 H 0.7346 0.8161 0.2453
C66 C 0.6963(2) 0.9429(2) 0.24099(14)
H34 H 0.7221 0.9323 0.2454
N27 N 0.5773(2) 0.8550(3) 0.07234(14)
C67 C 0.5612(3) 0.8932(3) -0.02416(18)
H35 H 0.5863 0.9050 -0.0214
C68 C 0.4665(3) 0.7271(2) 0.12269(17)
H36 H 0.4483 0.7119 0.1311
C69 C 0.5809(2) 1.0212(2) 0.21793(12)
C70 C 0.3549(3) 0.9286(2) 0.01386(16)
O24 O 0.2953(2) 0.8328(2) 0.33934(15)
C71 C 0.3388(3) 1.0372(2) 0.18238(15)
C72 C 0.5524(4) 1.0721(2) 0.38590(16)
C73 C 0.2741(3) 0.8529(3) -0.02343(17)
C74 C 0.5398(2) 1.0379(2) 0.21176(12)
C75 C 0.6261(3) 0.6891(2) 0.4406(2)
H37 H 0.6549 0.6912 0.4374
H38 H 0.6086 0.6950 0.4188
H39 H 0.6205 0.6665 0.4469
C76 C 0.3299(3) 0.9845(4) 0.35741(18)
H40 H 0.3051 0.9964 0.3577
C77 C 0.3133(2) 1.0107(2) 0.17778(14)
H41 H 0.2843 1.0131 0.1734
C78 C 0.4014(4) 0.9500(3) 0.35900(16)
C79 C 0.4544(3) 1.0286(3) 0.37012(14)
N28 N 0.3643(3) 0.8363(3) 0.33487(15)
H42 H 0.3850 0.8501 0.3358
C80 C 0.6169(3) 0.7124(2) 0.47056(19)
C81 C 0.5250(3) 0.9092(2) -0.03417(16)
H43 H 0.5261 0.9321 -0.0382
C82 C 0.3861(3) 0.7600(2) 0.13496(16)
C83 C 0.7667(3) 0.8866(3) 0.42005(18)
C84 C 0.5611(3) 0.8601(3) -0.01815(16)
H44 H 0.5862 0.8487 -0.0117
C85 C 0.6309(3) 0.7982(2) 0.26508(14)
C86 C 0.7509(3) 0.8294(3) 0.43381(16)
H45 H 0.7787 0.8231 0.4340
C87 C 0.6882(3) 0.8693(2) 0.24431(14)
C88 C 0.6552(3) 0.7594(3) 0.45185(17)
C89 C 0.3140(3) 0.7703(2) 0.14303(17)
H46 H 0.3086 0.7477 0.1389
C90 C 0.4988(3) 1.0336(3) 0.37666(14)
C91 C 0.5162(4) 0.7723(3) 0.10020(19)
C92 C 0.4043(3) 0.9821(3) 0.36331(15)
C93 C 0.2319(3) 0.7492(3) 0.1395(3)
H47 H 0.2410 0.7331 0.1583
H48 H 0.2428 0.7427 0.1179
C94 C 0.4130(4) 0.7979(3) 0.32105(18)
C95 C 0.6486(3) 1.0218(2) 0.40457(13)
H49 H 0.6774 1.0245 0.4104
C96 C 0.2574(3) 0.8839(3) -0.01619(17)
O25 O 0.2563(3) 0.9526(2) 0.34675(17)
C97 C 0.3738(4) 0.8036(4) 0.32872(19)
O26 O 0.3848(2) 0.6838(3) 0.3060(2)
O27 O 0.6021(2) 0.7691(2) 0.08483(16)
C98 C 0.5967(3) 0.8824(4) 0.06660(17)
C99 C 0.5462(4) 1.1313(3) 0.3826(2)
H50 H 0.5262 1.1321 0.3995
H51 H 0.5311 1.1316 0.3585
C100 C 0.5300(3) 0.7395(3) 0.1015(2)
H52 H 0.5556 0.7332 0.0949
C101 C 0.6572(3) 0.7714(3) 0.26465(16)
C102 C 0.6940(2) 0.9765(2) 0.23679(15)
H53 H 0.7186 0.9887 0.2380
C103 C 0.2520(3) 0.8241(3) -0.03439(18)
H54 H 0.2229 0.8250 -0.0375
C104 C 0.6477(3) 0.7069(2) 0.50414(18)
H55 H 0.6757 0.7081 0.4985
H56 H 0.6430 0.6853 0.5139
H57 H 0.6439 0.7238 0.5214
C105 C 0.3278(4) 0.9513(4) 0.35325(18)
C106 C 0.4251(3) 0.7673(3) 0.31415(19)
C107 C 0.3987(4) 0.7411(4) 0.3155(2)
C108 C 0.6004(3) 0.8284(4) 0.07684(18)
C109 C 0.3737(3) 0.9731(3) -0.05664(16)
H58 H 0.3897 0.9912 -0.0472
C110 C 0.4111(4) 0.7107(4) 0.3076(3)
C111 C 0.5207(4) 0.8083(3) -0.01574(19)
C112 C 0.4763(3) 0.7333(3) 0.29936(19)
C113 C 0.2699(3) 0.7956(3) -0.0406(2)
H59 H 0.2535 0.7769 -0.0471
C114 C 0.6976(3) 0.7800(3) 0.25695(19)
C115 C 0.5727(3) 0.7104(2) 0.4773(2)
H60 H 0.5685 0.7255 0.4962
H61 H 0.5667 0.6881 0.4841
H62 H 0.5544 0.7164 0.4560
C116 C 0.3468(4) 0.7781(4) 0.3301(2)
H63 H 0.3202 0.7823 0.3359
C117 C 0.3634(3) 0.9328(4) 0.35347(16)
C118 C 0.5191(4) 0.7277(3) 0.2911(2)
C119 C 0.7328(4) 1.0897(3) 0.2234(4)
H64 H 0.7475 1.0853 0.2475
C120 C 0.4504(4) 0.7057(3) 0.2993(2)
H65 H 0.4595 0.6846 0.2938
C121 C 0.3092(4) 0.9483(4) -0.0790(3)
C122 C 0.6444(4) 0.7401(2) 0.27205(18)
H66 H 0.6630 0.7224 0.2714
C123 C 0.5820(3) 0.7956(4) 0.08330(19)
C124 C 0.3266(4) 0.8503(5) 0.3398(2)
C125 C 0.3272(4) 0.8854(4) 0.34408(18)
C126 C 0.6425(4) 0.8265(4) 0.0761(2)
H67 H 0.6568 0.8062 0.0785
C127 C 0.3573(4) 0.7485(4) 0.3235(3)
H68 H 0.3380 0.7313 0.3239
C128 C 0.6388(4) 0.8848(4) 0.06650(19)
H69 H 0.6514 0.9052 0.0631
C129 C 0.2892(3) 0.9324(5) 0.3475(2)
C130 C 0.3304(3) 1.0260(3) -0.0322(3)
H70 H 0.3493 1.0385 -0.0451
H71 H 0.3472 1.0150 -0.0123
C131 C 0.2663(4) 0.9495(3) -0.0876(2)
H72 H 0.2528 0.9691 -0.0826
C132 C 0.1662(3) 0.7745(3) 0.1062(3)
H73 H 0.1791 0.7960 0.1101
H74 H 0.1367 0.7764 0.1069
H75 H 0.1707 0.7661 0.0832
C133 C 0.2809(3) 1.0732(3) 0.1717(3)
H76 H 0.2661 1.0653 0.1907
H77 H 0.2704 1.0615 0.1498
C134 C 0.5033(4) 0.7172(3) 0.1132(2)
H78 H 0.5105 0.6947 0.1146
C135 C 0.5561(4) 0.7579(4) -0.0037(3)
H79 H 0.5382 0.7483 -0.0240
H80 H 0.5449 0.7519 0.0179
C136 C 0.2434(6) 0.9255(6) -0.1021(4)
H81 H 0.2144 0.9269 -0.1072
N29 N 0.3276(5) 0.8616(4) -0.1123(3)
C137 C 0.2177(4) 0.9374(5) 0.3409(4)
H82 H 0.2155 0.9222 0.3605
H83 H 0.2159 0.9243 0.3192
C138 C 0.6623(4) 0.8559(5) 0.0717(2)
H84 H 0.6912 0.8565 0.0721
C139 C 0.2889(4) 0.9001(4) 0.3432(2)
H85 H 0.2642 0.8879 0.3398
C140 C 0.2997(4) 1.0515(5) -0.0169(5)
H86 H 0.3118 1.0696 -0.0013
C141 C 0.3099(4) 0.8895(5) -0.1040(3)
C142 C 0.2662(7) 0.8968(5) -0.1096(4)
H87 H 0.2496 0.8795 -0.1202
C143 C 0.5772(6) 1.1606(3) 0.3885(4)
H88 H 0.5934 1.1598 0.4125
C144 C 0.2697(4) 1.0273(4) -0.0028(4)
H89 H 0.2830 1.0177 0.0192
H90 H 0.2623 1.0100 -0.0200
H91 H 0.2449 1.0390 0.0015
C145 C 0.7640(3) 0.7601(3) 0.2463(4)
H92 H 0.7812 0.7732 0.2643
H93 H 0.7614 0.7717 0.2235
C146 C 0.8330(3) 0.9019(3) 0.4074(3)
H94 H 0.8415 0.9181 0.4261
H95 H 0.8195 0.9136 0.3864
C147 C 0.1970(3) 0.9176(3) -0.0145(3)
H96 H 0.2040 0.9347 -0.0309
H97 H 0.2058 0.9250 0.0099
C148 C 0.7817(4) 0.7245(5) 0.2434(7)
H98 H 0.7841 0.7135 0.2668
C149 C 0.1837(4) 0.7523(3) 0.1329(4)
H99 H 0.1776 0.7631 0.1549
C150 C 0.2735(5) 1.0602(4) -0.0508(5)
H100 H 0.2887 1.0750 -0.0643
H101 H 0.2485 1.0711 -0.0458
H102 H 0.2663 1.0403 -0.0644
C151 C 0.4002(5) 0.6499(4) 0.2953(6)
H103 H 0.4071 0.6498 0.2711
H104 H 0.4238 0.6418 0.3119
O28 O 0.3129(4) 0.8531(4) -0.1385(3)
C152 C 0.7555(5) 1.0717(4) 0.1994(4)
H105 H 0.7546 1.0482 0.2045
H106 H 0.7840 1.0791 0.2024
H107 H 0.7429 1.0756 0.1751
C153 C 0.7316(6) 1.1260(4) 0.2194(5)
H108 H 0.7161 1.1354 0.2369
H109 H 0.7183 1.1317 0.1958
H110 H 0.7596 1.1346 0.2230
C154 C 0.1496(4) 0.9100(5) -0.0208(5)
H111 H 0.1385 0.8928 -0.0064
C155 C 0.6028(7) 1.1592(4) 0.3626(6)
H112 H 0.6212 1.1404 0.3670
H113 H 0.6191 1.1793 0.3632
H114 H 0.5862 1.1570 0.3396
C156 C 0.7565(7) 0.7044(5) 0.2171(5)
H115 H 0.7288 0.7023 0.2234
H116 H 0.7688 0.6827 0.2163
H117 H 0.7550 0.7148 0.1941
C157 C 0.5503(6) 1.1899(4) 0.3843(4)
H118 H 0.5353 1.1917 0.4045
H119 H 0.5308 1.1879 0.3628
H120 H 0.5672 1.2095 0.3830
C158 C 0.1423(5) 0.9070(5) -0.0612(5)
H121 H 0.1498 0.8849 -0.0680
H122 H 0.1592 0.9231 -0.0714
H123 H 0.1133 0.9110 -0.0699
C159 C 0.8729(5) 0.8809(6) 0.3982(8)
H124 H 0.8658 0.8662 0.3774
C160 C 0.5989(7) 0.7447(4) -0.0022(4)
H125 H 0.6180 0.7553 0.0170
C161 C 0.6114(8) 0.7524(4) -0.0381(6)
H126 H 0.6115 0.7761 -0.0416
H127 H 0.5918 0.7422 -0.0565
H128 H 0.6389 0.7437 -0.0392
C162 C 0.2761(5) 1.1129(5) 0.1666(7)
H129 H 0.2877 1.1228 0.1896
C163 C 0.3011(16) 1.1247(11) 0.1413(15)
H130 H 0.3300 1.1200 0.1497
H131 H 0.2972 1.1483 0.1383
H132 H 0.2930 1.1137 0.1188
C164 C 0.5954(9) 0.7081(5) 0.0040(7)
H133 H 0.5879 0.7044 0.0274
H134 H 0.6218 0.6976 0.0024
H135 H 0.5743 0.6988 -0.0137
C165 C 0.1338(6) 0.9444(6) -0.0198(8)
H136 H 0.1367 0.9520 0.0046
H137 H 0.1049 0.9450 -0.0300
H138 H 0.1496 0.9587 -0.0333
C166 C 0.1653(6) 0.7221(6) 0.1344(9)
H139 H 0.1803 0.7093 0.1536
H140 H 0.1657 0.7106 0.1122
H141 H 0.1369 0.7251 0.1386
C167 C 0.2317(5) 1.1158(5) 0.1642(8)
H142 H 0.2228 1.1066 0.1854
H143 H 0.2186 1.1038 0.1436
H144 H 0.2239 1.1389 0.1621
C168 C 0.8233(7) 0.7304(6) 0.2337(10)
H145 H 0.8398 0.7426 0.2525
H146 H 0.8209 0.7430 0.2119
H147 H 0.8365 0.7094 0.2304
C169 C 0.1825(7) 0.9601(7) 0.3376(7)
H148 H 0.1854 0.9750 0.3175
C170 C 0.3606(11) 0.6311(7) 0.2984(16)
H149 H 0.3528 0.6360 0.3219
C171 C 0.8993(8) 0.9092(6) 0.3905(15)
H150 H 0.8845 0.9224 0.3716
H151 H 0.9247 0.9009 0.3832
H152 H 0.9058 0.9226 0.4116
C172 C 0.1416(10) 0.9445(11) 0.3299(13)
H153 H 0.1202 0.9613 0.3277
H154 H 0.1376 0.9295 0.3490
H155 H 0.1398 0.9322 0.3079
C173 C 0.3793(10) 0.5984(9) 0.3001(19)
H156 H 0.3982 0.5962 0.3220
H157 H 0.3943 0.5954 0.2801
H158 H 0.3577 0.5818 0.2993
C174 C 0.8923(5) 0.8632(8) 0.4292(9)
H159 H 0.8738 0.8460 0.4351
H160 H 0.8981 0.8784 0.4489
H161 H 0.9180 0.8534 0.4242
C175 C 0.327(2) 0.641(2) 0.2722(10)
H162 H 0.3180 0.6633 0.2780
H163 H 0.3040 0.6260 0.2720
H164 H 0.3360 0.6417 0.2491
C176 C 0.1903(6) 0.9795(8) 0.3688(12)
H165 H 0.1695 0.9967 0.3680
H166 H 0.2175 0.9894 0.3703
H167 H 0.1891 0.9656 0.3893
O32? O 0.4400(3) 0.8416(3) 0.1199(3)
Cl2? Cl 0.7949(4) 0.1790(3) 0.1113(3)
loop_
_geom_bond_atom_site_label_1
_geom_bond_atom_site_label_2
_geom_bond_site_symmetry_1
_geom_bond_site_symmetry_2
F1 C1 1_555 1_555
F2 C9 1_555 1_555
F3 C20 1_555 1_555
F4 C32 1_555 1_555
F5 C6 1_555 1_555
F6 C57 1_555 1_555
F7 C78 1_555 1_555
N1 H1 1_555 1_555
N2 C5 1_555 1_555
N3 C13 1_555 1_555
F8 C94 1_555 1_555
O1 C50 1_555 1_555
N4 C23 1_555 1_555
O2 C74 1_555 1_555
O3 C70 1_555 1_555
N5 H2 1_555 1_555
N6 H3 1_555 1_555
O4 C87 1_555 1_555
O5 C29 1_555 1_555
N7 C18 1_555 1_555
N8 C10 1_555 1_555
N9 C21 1_555 1_555
N10 C49 1_555 1_555
O6 C40 1_555 1_555
N11 H4 1_555 1_555
N12 H5 1_555 1_555
N13 H6 1_555 1_555
N14 H7 1_555 1_555
C1 C2 1_555 1_555
O7 C72 1_555 1_555
O8 C39 1_555 1_555
N15 C8 1_555 1_555
N16 H8 1_555 1_555
C2 N5 1_555 1_555
C3 N1 1_555 1_555
O9 C33 1_555 1_555
O10 C88 1_555 1_555
O11 C80 1_555 1_555
C4 H9 1_555 1_555
C5 C1 1_555 1_555
C6 C7 1_555 1_555
N17 C31 1_555 1_555
O12 C82 1_555 1_555
O13 C71 1_555 1_555
O14 C46 1_555 1_555
N18 H10 1_555 1_555
N19 H11 1_555 1_555
N20 C26 1_555 1_555
C7 N14 1_555 1_555
C8 C38 1_555 1_555
N21 H12 1_555 1_555
N22 C51 1_555 1_555
C9 C3 1_555 1_555
O15 C79 1_555 1_555
C10 C29 1_555 1_555
O16 C83 1_555 1_555
C11 C2 1_555 1_555
H13 C11 1_555 1_555
C12 N8 1_555 1_555
C13 C6 1_555 1_555
C14 N23 1_555 1_555
C15 C18 1_555 1_555
N23 H14 1_555 1_555
C16 N12 1_555 1_555
C17 H15 1_555 1_555
C18 C20 1_555 1_555
C19 N15 1_555 1_555
C20 C61 1_555 1_555
C21 C22 1_555 1_555
C22 C41 1_555 1_555
C23 N16 1_555 1_555
N24 C106 1_555 1_555
C24 N2 1_555 1_555
C25 N4 1_555 1_555
C26 C28 1_555 1_555
C27 C13 1_555 1_555
C28 C84 1_555 1_555
C29 N5 1_555 1_555
C30 H16 1_555 1_555
O17 C114 1_555 1_555
C31 N11 1_555 1_555
C32 C37 1_555 1_555
C33 N23 1_555 1_555
C34 N12 1_555 1_555
C35 C3 1_555 1_555
H17 C35 1_555 1_555
C36 N3 1_555 1_555
C37 N18 1_555 1_555
C38 H18 1_555 1_555
C39 C60 1_555 1_555
C40 C4 1_555 1_555
C41 H19 1_555 1_555
O18 C47 1_555 1_555
O19 C111 1_555 1_555
C42 H20 1_555 1_555
C43 C25 1_555 1_555
H21 C43 1_555 1_555
C44 N20 1_555 1_555
C45 C36 1_555 1_555
H22 C45 1_555 1_555
N25 C117 1_555 1_555
C46 C109 1_555 1_555
C47 N16 1_555 1_555
C48 C37 1_555 1_555
H23 C48 1_555 1_555
C49 C65 1_555 1_555
C50 N19 1_555 1_555
N26 H24 1_555 1_555
C51 C121 1_555 1_555
C52 C12 1_555 1_555
C53 N22 1_555 1_555
O20 C34 1_555 1_555
C54 N19 1_555 1_555
C55 C11 1_555 1_555
H25 C55 1_555 1_555
C56 H26 1_555 1_555
O21 N29 1_555 1_555
C57 C16 1_555 1_555
C58 C14 1_555 1_555
H27 C58 1_555 1_555
C59 C7 1_555 1_555
H28 C59 1_555 1_555
C60 C5 1_555 1_555
C61 N13 1_555 1_555
C62 H29 1_555 1_555
O22 C118 1_555 1_555
O23 C96 1_555 1_555
C63 C23 1_555 1_555
H30 C63 1_555 1_555
C64 O6 1_555 1_555
H31 C64 1_555 1_555
H32 C64 1_555 1_555
C65 H33 1_555 1_555
C66 C61 1_555 1_555
H34 C66 1_555 1_555
N27 C98 1_555 1_555
C67 H35 1_555 1_555
C68 C31 1_555 1_555
H36 C68 1_555 1_555
C69 N7 1_555 1_555
C70 N6 1_555 1_555
O24 C124 1_555 1_555
C71 C52 1_555 1_555
C72 C22 1_555 1_555
C73 C19 1_555 1_555
C74 N1 1_555 1_555
C75 H37 1_555 1_555
H38 C75 1_555 1_555
H39 C75 1_555 1_555
C76 C62 1_555 1_555
H40 C76 1_555 1_555
C77 C10 1_555 1_555
H41 C77 1_555 1_555
C78 C92 1_555 1_555
C79 N21 1_555 1_555
N28 H42 1_555 1_555
C80 C75 1_555 1_555
C81 C54 1_555 1_555
H43 C81 1_555 1_555
C82 N11 1_555 1_555
C83 C27 1_555 1_555
C84 C67 1_555 1_555
H44 C84 1_555 1_555
C85 N10 1_555 1_555
C86 C27 1_555 1_555
H45 C86 1_555 1_555
C87 N13 1_555 1_555
C88 N14 1_555 1_555
C89 C24 1_555 1_555
H46 C89 1_555 1_555
C90 N9 1_555 1_555
C91 N17 1_555 1_555
C92 N21 1_555 1_555
C93 O8 1_555 1_555
H47 C93 1_555 1_555
H48 C93 1_555 1_555
C94 C97 1_555 1_555
C95 C16 1_555 1_555
H49 C95 1_555 1_555
C96 C38 1_555 1_555
O25 C129 1_555 1_555
C97 N28 1_555 1_555
O26 C110 1_555 1_555
O27 C123 1_555 1_555
C98 C47 1_555 1_555
C99 O7 1_555 1_555
H50 C99 1_555 1_555
H51 C99 1_555 1_555
C100 C91 1_555 1_555
H52 C100 1_555 1_555
C101 C85 1_555 1_555
C102 C15 1_555 1_555
H53 C102 1_555 1_555
C103 C73 1_555 1_555
H54 C103 1_555 1_555
C104 C80 1_555 1_555
H55 C104 1_555 1_555
H56 C104 1_555 1_555
H57 C104 1_555 1_555
C105 C76 1_555 1_555
C106 C94 1_555 1_555
C107 C106 1_555 1_555
C108 N27 1_555 1_555
C109 C53 1_555 1_555
H58 C109 1_555 1_555
C110 C107 1_555 1_555
C111 C28 1_555 1_555
C112 N24 1_555 1_555
C113 C58 1_555 1_555
H59 C113 1_555 1_555
C114 C65 1_555 1_555
C115 C80 1_555 1_555
H60 C115 1_555 1_555
H61 C115 1_555 1_555
H62 C115 1_555 1_555
C116 C97 1_555 1_555
H63 C116 1_555 1_555
C117 C78 1_555 1_555
C118 N18 1_555 1_555
C119 C64 1_555 1_555
H64 C119 1_555 1_555
C120 C110 1_555 1_555
H65 C120 1_555 1_555
C121 C46 1_555 1_555
C122 C48 1_555 1_555
H66 C122 1_555 1_555
C123 N26 1_555 1_555
C124 N28 1_555 1_555
C125 N25 1_555 1_555
C126 C108 1_555 1_555
H67 C126 1_555 1_555
C127 C107 1_555 1_555
H68 C127 1_555 1_555
C128 C98 1_555 1_555
H69 C128 1_555 1_555
C129 C105 1_555 1_555
C130 O14 1_555 1_555
H70 C130 1_555 1_555
H71 C130 1_555 1_555
C131 C121 1_555 1_555
H72 C131 1_555 1_555
C132 H73 1_555 1_555
H74 C132 1_555 1_555
H75 C132 1_555 1_555
C133 O13 1_555 1_555
H76 C133 1_555 1_555
H77 C133 1_555 1_555
C134 C68 1_555 1_555
H78 C134 1_555 1_555
C135 O19 1_555 1_555
H79 C135 1_555 1_555
H80 C135 1_555 1_555
C136 C131 1_555 1_555
H81 C136 1_555 1_555
N29 C141 1_555 1_555
C137 O25 1_555 1_555
H82 C137 1_555 1_555
H83 C137 1_555 1_555
C138 C126 1_555 1_555
H84 C138 1_555 1_555
C139 C125 1_555 1_555
H85 C139 1_555 1_555
C140 C130 1_555 1_555
H86 C140 1_555 1_555
C141 C51 1_555 1_555
C142 C136 1_555 1_555
H87 C142 1_555 1_555
C143 C99 1_555 1_555
H88 C143 1_555 1_555
C144 C140 1_555 1_555
H89 C144 1_555 1_555
H90 C144 1_555 1_555
H91 C144 1_555 1_555
C145 O17 1_555 1_555
H92 C145 1_555 1_555
H93 C145 1_555 1_555
C146 O16 1_555 1_555
H94 C146 1_555 1_555
H95 C146 1_555 1_555
C147 O23 1_555 1_555
H96 C147 1_555 1_555
H97 C147 1_555 1_555
C148 C145 1_555 1_555
H98 C148 1_555 1_555
C149 C93 1_555 1_555
H99 C149 1_555 1_555
C150 C140 1_555 1_555
H100 C150 1_555 1_555
H101 C150 1_555 1_555
H102 C150 1_555 1_555
C151 O26 1_555 1_555
H103 C151 1_555 1_555
H104 C151 1_555 1_555
O28 N29 1_555 1_555
C152 C119 1_555 1_555
H105 C152 1_555 1_555
H106 C152 1_555 1_555
H107 C152 1_555 1_555
C153 C119 1_555 1_555
H108 C153 1_555 1_555
H109 C153 1_555 1_555
H110 C153 1_555 1_555
C154 C147 1_555 1_555
H111 C154 1_555 1_555
C155 C143 1_555 1_555
H112 C155 1_555 1_555
H113 C155 1_555 1_555
H114 C155 1_555 1_555
C156 C148 1_555 1_555
H115 C156 1_555 1_555
H116 C156 1_555 1_555
H117 C156 1_555 1_555
C157 C143 1_555 1_555
H118 C157 1_555 1_555
H119 C157 1_555 1_555
H120 C157 1_555 1_555
C158 C154 1_555 1_555
H121 C158 1_555 1_555
H122 C158 1_555 1_555
H123 C158 1_555 1_555
C159 C146 1_555 1_555
H124 C159 1_555 1_555
C160 C135 1_555 1_555
H125 C160 1_555 1_555
C161 C160 1_555 1_555
H126 C161 1_555 1_555
H127 C161 1_555 1_555
H128 C161 1_555 1_555
C162 C133 1_555 1_555
H129 C162 1_555 1_555
C163 C162 1_555 1_555
H130 C163 1_555 1_555
H131 C163 1_555 1_555
H132 C163 1_555 1_555
C164 C160 1_555 1_555
H133 C164 1_555 1_555
H134 C164 1_555 1_555
H135 C164 1_555 1_555
C165 C154 1_555 1_555
H136 C165 1_555 1_555
H137 C165 1_555 1_555
H138 C165 1_555 1_555
C166 C149 1_555 1_555
H139 C166 1_555 1_555
H140 C166 1_555 1_555
H141 C166 1_555 1_555
C167 C162 1_555 1_555
H142 C167 1_555 1_555
H143 C167 1_555 1_555
H144 C167 1_555 1_555
C168 C148 1_555 1_555
H145 C168 1_555 1_555
H146 C168 1_555 1_555
H147 C168 1_555 1_555
C169 C137 1_555 1_555
H148 C169 1_555 1_555
C170 C151 1_555 1_555
H149 C170 1_555 1_555
C171 C159 1_555 1_555
H150 C171 1_555 1_555
H151 C171 1_555 1_555
H152 C171 1_555 1_555
C172 C169 1_555 1_555
H153 C172 1_555 1_555
H154 C172 1_555 1_555
H155 C172 1_555 1_555
C173 C170 1_555 1_555
H156 C173 1_555 1_555
H157 C173 1_555 1_555
H158 C173 1_555 1_555
C174 C159 1_555 1_555
H159 C174 1_555 1_555
H160 C174 1_555 1_555
H161 C174 1_555 1_555
C175 C170 1_555 1_555
H162 C175 1_555 1_555
H163 C175 1_555 1_555
H164 C175 1_555 1_555
C176 C169 1_555 1_555
H165 C176 1_555 1_555
H166 C176 1_555 1_555
H167 C176 1_555 1_555
O29 C180 1_555 1_555
C177 H168 1_555 1_555
H169 C177 1_555 1_555
C178 C177 1_555 1_555
H170 C178 1_555 1_555
H171 C178 1_555 1_555
C179 C177 1_555 1_555
H172 C179 1_555 1_555
H173 C179 1_555 1_555
C180 C178 1_555 1_555
C181 C179 1_555 1_555
H174 C181 1_555 1_555
H175 C181 1_555 1_555
Cl1 C182 1_555 1_555
Cl3 C182 1_555 1_555
C182 H176 1_555 1_555
H177 O29 1_555 1_555
O29A C180A 1_555 1_555
C177A H168A 1_555 1_555
H169A C177A 1_555 1_555
C178A C177A 1_555 1_555
H170A C178A 1_555 1_555
H171A C178A 1_555 1_555
C179A C177A 1_555 1_555
H172A C179A 1_555 1_555
H173A C179A 1_555 1_555
C180A C178A 1_555 1_555
C181A C181 1_555 1_555
H174A C181A 1_555 1_555
H175A C181A 1_555 1_555
H177A O29A 1_555 1_555
N6 C25 1_555 1_555
O11 C88 1_555 1_555
C4 C69 1_555 1_555
C8 C70 1_555 1_555
C9 C12 1_555 1_555
C14 C19 1_555 1_555
C15 C40 1_555 1_555
C17 C35 1_555 1_555
C17 C52 1_555 1_555
C21 C57 1_555 1_555
C24 C82 1_555 1_555
C26 C54 1_555 1_555
C30 C43 1_555 1_555
C30 C63 1_555 1_555
C32 C85 1_555 1_555
C33 C44 1_555 1_555
C34 C36 1_555 1_555
C39 C89 1_555 1_555
C41 C95 1_555 1_555
C42 C44 1_555 1_555
C42 C111 1_555 1_555
C45 C83 1_555 1_555
C49 C87 1_555 1_555
C50 C53 1_555 1_555
N26 C91 1_555 1_555
C55 C60 1_555 1_555
C56 C72 1_555 1_555
C56 C90 1_555 1_555
C59 C86 1_555 1_555
C62 C92 1_555 1_555
C66 C102 1_555 1_555
C67 C81 1_555 1_555
C69 C74 1_555 1_555
C71 C77 1_555 1_555
C73 C96 1_555 1_555
C79 C90 1_555 1_555
C100 C134 1_555 1_555
C101 C114 1_555 1_555
C101 C122 1_555 1_555
C103 C113 1_555 1_555
C105 C117 1_555 1_555
C108 C123 1_555 1_555
C112 C118 1_555 1_555
C112 C120 1_555 1_555
C116 C127 1_555 1_555
C124 C125 1_555 1_555
C128 C138 1_555 1_555
C129 C139 1_555 1_555
C132 C149 1_555 1_555
C141 C142 1_555 1_555
C179A C181A 1_555 1_555

#END
