
#######################################################################
#
#                 Cambridge Crystallographic Data Centre
#                                CCDC 
#
#######################################################################
#
# If this CIF has been generated from an entry in the Cambridge 
# Structural Database, then it will include bibliographic, chemical, 
# crystal, experimental, refinement or atomic coordinate data resulting 
# from the CCDC's data processing and validation procedures.
#
#######################################################################

data_MUKGEF
_chemical_formula_moiety         'C78 H75 F4 N15 O11,2(C2 H6 O1 S1),6.8(H2 O1)'
_chemical_name_systematic        
"N-(6-(((7-(((7-(((7-(((7-Amino-8-fluoro-4-isobutoxyquinolin-2-yl)carbonyl)amino)-8-fluoro-4-isobutoxyquinolin-2-yl)carbonyl)amino)-8-fluoro-4-isobutoxyquinolin-2-yl)carbonyl)amino)-8-fluoro-4-isobutoxyquinolin-2-yl)carbonyl)amino)pyridin-2-yl)-N'-(6-((2,2-dimethylpropanoyl)amino)pyridin-2-yl)pyridine-2,6-dicarboxamide dimethylsulfoxide solvate hydrate"
_symmetry_cell_setting           triclinic
_symmetry_space_group_name_H-M   'P -1'
_symmetry_Int_Tables_number      2
_space_group_name_Hall           '-P 1'
loop_
_symmetry_equiv_pos_site_id
_symmetry_equiv_pos_as_xyz
1 x,y,z
2 -x,-y,-z
_cell_length_a                   20.127
_cell_length_b                   20.135
_cell_length_c                   25.661
_cell_angle_alpha                89.99
_cell_angle_beta                 89.99
_cell_angle_gamma                60.72
_cell_volume                     9070.69
_cell_formula_units_Z            4
_exptl_crystal_recrystallization_method dmso
loop_
_atom_site_label
_atom_site_type_symbol
_atom_site_fract_x
_atom_site_fract_y
_atom_site_fract_z
S1 S 0.45838(9) 0.56813(9) 0.33995(6)
O1 O 0.4062(2) 0.5590(2) 0.37775(15)
C1 C 0.5159(4) 0.5905(4) 0.3757(3)
H1 H 0.5520 0.5464 0.3947
H2 H 0.4855 0.6305 0.3998
H3 H 0.5425 0.6073 0.3529
C2 C 0.4007(4) 0.6599(4) 0.3116(3)
H4 H 0.3633 0.6584 0.2892
H5 H 0.4322 0.6740 0.2917
H6 H 0.3756 0.6967 0.3388
S2 S 0.43203(9) 0.54168(9) 0.16006(6)
O2 O 0.4410(2) 0.5941(2) 0.12264(16)
C3 C 0.4110(4) 0.4809(4) 0.1217(3)
H7 H 0.4561 0.4447 0.1038
H8 H 0.3722 0.5108 0.0967
H9 H 0.3932 0.4545 0.1438
C4 C 0.3368(4) 0.5965(4) 0.1851(3)
H10 H 0.3343 0.6353 0.2081
H11 H 0.3233 0.5636 0.2040
H12 H 0.3019 0.6198 0.1568
F1 F 0.52276(19) 0.61695(18) 0.22266(13)
F2 F 0.1756(2) 0.61643(17) 0.22186(14)
F3 F 0.2608(2) 0.7740(2) 0.18268(15)
F4 F 0.38470(19) 0.3553(2) 0.17457(16)
C5 C 0.3418(4) 0.3048(4) 0.2422(3)
N1 N 0.2749(3) 0.3727(3) 0.2451(2)
N2 N 0.2842(3) 0.6815(3) 0.4454(2)
H13 H 0.3245 0.6432 0.4331
N3 N 0.1487(3) 0.5062(3) 0.2520(2)
H14 H 0.1904 0.4962 0.2364
N4 N 0.3380(3) 0.5344(4) 0.47480(19)
O3 O 0.0942(3) 0.4527(2) 0.30342(19)
C6 C 0.2245(4) 0.3746(4) 0.2797(3)
C7 C 0.3026(4) 0.2495(4) 0.3116(3)
N5 N 0.0678(3) 0.7639(3) 0.2110(2)
N6 N 0.6496(3) 0.4804(3) 0.2369(2)
N7 N 0.6541(3) 0.3944(3) 0.3171(2)
H15 H 0.6168 0.4378 0.3079
C8 C 0.5748(4) 0.6478(4) 0.1518(3)
C9 C 0.5828(4) 0.5978(4) 0.1897(3)
O4 O 0.3197(3) 0.1891(2) 0.3422(2)
N8 N 0.4811(3) 0.4247(3) 0.4445(2)
H16 H 0.4561 0.4693 0.4308
O5 O 0.8253(3) 0.4152(3) 0.12991(17)
N9 N 0.3592(4) 0.8182(3) 0.1489(2)
C10 C 0.0467(4) 0.7118(4) 0.2247(2)
N10 N 0.3434(3) 0.7533(3) 0.43111(18)
C11 C 0.3979(4) 0.2966(4) 0.2060(3)
O6 O 0.5367(3) 0.7955(3) 0.1054(2)
C12 C 0.3587(4) 0.2416(4) 0.2739(3)
C13 C 0.7087(4) 0.5062(4) 0.1617(3)
C14 C 0.6466(4) 0.5267(4) 0.1973(3)
N11 N 0.5729(3) 0.4043(3) 0.3830(2)
N12 N 0.5045(3) 0.7152(4) 0.1473(2)
H17 H 0.4659 0.7128 0.1596
C15 C 0.7102(4) 0.4150(4) 0.2401(3)
C16 C 0.7705(4) 0.4333(4) 0.1661(3)
C17 C 0.1020(4) 0.6357(4) 0.2308(2)
C18 C 0.1495(4) 0.4489(4) 0.2794(3)
C19 C 0.6420(4) 0.3644(4) 0.3621(3)
C20 C 0.2644(5) 0.5871(5) 0.4836(2)
C21 C 0.5565(4) 0.3780(4) 0.4264(3)
C22 C 0.2341(5) 0.6674(5) 0.4702(3)
C23 C 0.2848(4) 0.8702(4) 0.1518(3)
C24 C -0.0305(4) 0.7297(4) 0.2323(2)
O7 O 0.4735(3) 0.3459(3) 0.50442(18)
C25 C 0.2560(5) 0.9474(5) 0.1409(3)
C26 C 0.2326(4) 0.3190(4) 0.3135(3)
O8 O -0.1596(3) 0.8231(2) 0.2340(2)
C27 C 0.0100(4) 0.5987(4) 0.2535(2)
H18 H -0.0021 0.5614 0.2632
C28 C 0.4300(4) 0.1742(4) 0.2687(3)
H19 H 0.4415 0.1327 0.2902
C29 C 0.3852(4) 0.9169(4) 0.1169(3)
H20 H 0.4205 0.9301 0.1044
C30 C 0.4806(4) 0.1699(4) 0.2335(3)
H21 H 0.5268 0.1250 0.2311
O9 O 0.2800(3) 1.0445(3) 0.11442(19)
C31 C 0.0880(4) 0.5802(4) 0.2458(2)
N13 N 0.1133(4) 0.8632(3) 0.1884(2)
H22 H 0.1382 0.8171 0.1994
C32 C 0.6370(4) 0.6293(4) 0.1189(3)
H23 H 0.6345 0.6638 0.0938
N14 N 0.4155(4) 0.8107(3) 0.4245(2)
H24 H 0.4517 0.7656 0.4315
C33 C 0.3100(6) 0.9686(4) 0.1233(3)
C34 C 0.7737(4) 0.3867(4) 0.2059(3)
H25 H 0.8156 0.3386 0.2104
C35 C 0.0119(4) 0.8351(4) 0.2038(3)
C36 C 0.4050(4) 0.8419(5) 0.1308(3)
C37 C 0.7152(5) 0.3665(4) 0.2852(3)
C38 C 0.3634(4) 0.4637(5) 0.4905(3)
C39 C 0.2758(4) 0.7545(4) 0.4379(3)
C40 C -0.0879(5) 0.8070(4) 0.2253(3)
C41 C 0.2340(5) 0.8480(4) 0.1695(3)
C42 C -0.0458(4) 0.6726(4) 0.2463(2)
H26 H -0.0963 0.6847 0.2511
C43 C 0.3422(5) 0.8197(4) 0.4257(3)
C44 C 0.7008(4) 0.5608(5) 0.1240(3)
H27 H 0.7414 0.5491 0.1017
C45 C 0.4449(5) 0.4071(5) 0.4802(3)
C46 C 0.6984(4) 0.2989(4) 0.3878(4)
H28 H 0.7472 0.2720 0.3739
O10 O 0.1693(3) 0.7155(3) 0.4820(2)
C47 C 0.4891(5) 0.7805(5) 0.1274(3)
C48 C 0.6073(5) 0.3143(4) 0.4520(3)
H29 H 0.5930 0.2972 0.4813
O11 O -0.0092(3) 0.9598(3) 0.1785(3)
C49 C 0.2059(4) 0.8198(5) 0.4368(3)
H30 H 0.1602 0.8193 0.4406
C50 C 0.1583(5) 0.8945(5) 0.1726(3)
C51 C 0.2604(4) 0.1919(4) 0.3756(3)
H31 H 0.2166 0.2003 0.3549
H32 H 0.2443 0.2333 0.4004
C52 C 0.6812(5) 0.2753(4) 0.4330(3)
H33 H 0.7185 0.2336 0.4510
C53 C -0.2186(4) 0.9007(4) 0.2349(3)
H34 H -0.2272 0.9215 0.1999
H35 H -0.2031 0.9302 0.2566
O12 O 0.3922(4) 0.9279(3) 0.4013(3)
C54 C 0.3200(5) 0.4381(5) 0.5156(3)
H36 H 0.3411 0.3873 0.5253
C55 C 0.4376(6) 0.8631(6) 0.4138(3)
C56 C 0.2175(4) 0.5635(6) 0.5093(3)
H37 H 0.1666 0.5984 0.5155
O13 O 0.7727(3) 0.3039(3) 0.2937(2)
C57 C 0.1751(5) 0.9976(4) 0.1461(3)
H38 H 0.1551 1.0490 0.1384
C58 C 0.2920(5) 0.1172(4) 0.4038(3)
H39 H 0.3134 0.0763 0.3778
C59 C -0.0662(5) 0.8603(5) 0.2104(3)
H40 H -0.1024 0.9110 0.2049
C60 C 0.2480(6) 0.4864(6) 0.5257(3)
H41 H 0.2178 0.4706 0.5433
C61 C 0.3329(5) 1.0723(4) 0.1047(3)
H42 H 0.3551 1.0571 0.0702
H43 H 0.3736 1.0519 0.1302
C62 C 0.5210(6) 0.8372(5) 0.4208(4)
C63 C 0.1285(5) 0.9724(5) 0.1617(3)
H44 H 0.0766 1.0059 0.1653
C64 C 0.2780(5) 0.8894(4) 0.4231(3)
H45 H 0.2790 0.9346 0.4178
C65 C 0.2092(5) 0.8858(5) 0.4295(3)
H46 H 0.1634 0.9313 0.4286
C66 C 0.5702(4) 0.7612(4) 0.3923(3)
H47 H 0.5619 0.7686 0.3554
H48 H 0.5565 0.7242 0.4039
H49 H 0.6230 0.7433 0.3998
C67 C 0.0360(6) 0.8942(6) 0.1891(4)
C68 C 0.8840(4) 0.3347(4) 0.1269(3)
H50 H 0.8611 0.3021 0.1280
H51 H 0.9197 0.3213 0.1556
C69 C -0.2885(5) 0.9064(5) 0.2552(4)
H52 H -0.3049 0.8838 0.2277
C70 C 0.2249(5) 0.1145(4) 0.4309(3)
H53 H 0.2432 0.0664 0.4483
H54 H 0.1875 0.1205 0.4053
H55 H 0.2022 0.1550 0.4560
C71 C -0.3518(4) 0.9850(4) 0.2591(4)
H56 H -0.3470 1.0153 0.2320
H57 H -0.3502 1.0058 0.2924
H58 H -0.3993 0.9852 0.2553
C72 C 0.2313(5) 1.1930(5) 0.0666(4)
H59 H 0.1949 1.1753 0.0691
H60 H 0.2565 1.1786 0.0334
H61 H 0.2054 1.2475 0.0699
C73 C 0.2879(5) 1.1588(5) 0.1086(4)
H62 H 0.2616 1.1729 0.1423
C74 C 0.3522(5) 0.1053(4) 0.4399(3)
H63 H 0.3711 0.0566 0.4564
H64 H 0.3325 0.1446 0.4659
H65 H 0.3928 0.1069 0.4213
C75 C 0.5395(5) 0.8239(6) 0.4772(4)
H66 H 0.5924 0.8084 0.4823
H67 H 0.5294 0.7847 0.4895
H68 H 0.5087 0.8701 0.4961
C76 C 0.9254(5) 0.3263(6) 0.0730(4)
H69 H 0.8889 0.3417 0.0442
N15 N 0.5176(3) 0.2236(3) 0.1616(2)
H70 H 0.5070 0.2609 0.1408
H71 H 0.5600 0.1819 0.1586
C77 C 0.4671(4) 0.2305(4) 0.1995(3)
C78 C 0.3460(6) 1.1903(5) 0.1056(5)
H72 H 0.3825 1.1687 0.1333
H73 H 0.3189 1.2448 0.1089
H74 H 0.3720 1.1766 0.0727
C79 C 0.5364(5) 0.8967(5) 0.3980(4)
H75 H 0.5246 0.9021 0.3615
H76 H 0.5892 0.8819 0.4027
H77 H 0.5054 0.9445 0.4152
C80 C -0.2848(7) 0.8655(7) 0.2983(5)
H78 H -0.3352 0.8773 0.3085
H79 H -0.2611 0.8781 0.3262
H80 H -0.2553 0.8121 0.2907
C81 C 0.9614(7) 0.3733(8) 0.0743(5)
H81 H 0.9846 0.3710 0.0412
H82 H 0.9997 0.3551 0.1010
H83 H 0.9238 0.4250 0.0817
C82 C 0.9833(6) 0.2391(6) 0.0699(4)
H84 H 0.9561 0.2114 0.0657
H85 H 1.0126 0.2231 0.1015
H86 H 1.0168 0.2292 0.0408
F5 F 0.38314(18) 0.4772(2) 0.27714(13)
F6 F 0.38341(17) 0.8239(2) 0.27798(14)
F7 F 0.6445(2) 0.61520(19) 0.32521(15)
C83 C 0.6956(4) 0.6578(4) 0.2574(3)
O14 O 0.8108(2) 0.6798(3) 0.1587(2)
F8 F 0.2270(2) 0.7384(2) 0.31698(15)
N16 N 0.5193(3) 0.3510(3) 0.2623(2)
N17 N 0.4947(3) 0.8507(3) 0.2476(2)
H87 H 0.5043 0.8092 0.2632
N18 N 0.2352(3) 0.9322(3) 0.2895(2)
C84 C 0.6252(4) 0.7753(4) 0.2210(3)
N19 N 0.2469(3) 0.6566(3) 0.06877(19)
C85 C 0.7502(4) 0.6980(5) 0.1886(3)
N20 N 0.6272(3) 0.7248(3) 0.2551(2)
N21 N 0.5960(3) 0.4273(3) 0.1165(2)
N22 N 0.5751(3) 0.5190(3) 0.0560(2)
H88 H 0.5307 0.5441 0.0699
C86 C 0.3505(4) 0.4255(4) 0.3487(3)
O15 O 0.5470(2) 0.9056(3) 0.19629(19)
C87 C 0.4021(4) 0.4173(4) 0.3104(3)
N23 N 0.4643(4) 0.6631(4) 0.02501(19)
C88 C 0.2869(4) 0.9541(4) 0.2756(2)
N24 N 0.2843(4) 0.4951(3) 0.3529(2)
H89 H 0.2873 0.5333 0.3407
C89 C 0.3644(4) 0.8984(3) 0.2685(2)
O16 O 0.1768(2) 1.1590(3) 0.26544(18)
N25 N 0.1832(3) 0.6384(4) 0.3513(2)
C90 C 0.7594(3) 0.6432(4) 0.2251(3)
C91 C 0.7036(4) 0.6023(5) 0.2940(3)
C92 C 0.4936(4) 0.2906(4) 0.3392(3)
C93 C 0.4736(4) 0.3531(4) 0.3029(3)
N26 N 0.3174(4) 0.7157(3) 0.0553(2)
H90 H 0.3557 0.6757 0.0679
O17 O 0.2050(3) 0.4640(3) 0.3942(2)
C94 C 0.4016(4) 0.9900(4) 0.2459(2)
H91 H 0.4389 1.0018 0.2356
C95 C 0.4200(4) 0.9139(4) 0.2534(2)
N27 N 0.6058(3) 0.3451(3) 0.1831(2)
H92 H 0.5628 0.3823 0.1930
C96 C 0.5852(4) 0.2888(4) 0.2592(3)
C97 C 0.6214(4) 0.4431(4) 0.0733(3)
O18 O 0.5847(3) 0.1746(3) 0.37007(18)
C98 C 0.2701(4) 1.0303(4) 0.2673(2)
C99 C 0.6831(4) 0.7664(4) 0.1859(2)
H93 H 0.6763 0.8043 0.1624
O19 O 0.6540(3) 0.5260(3) -0.00478(18)
C100 C 0.8251(4) 0.5710(5) 0.2314(3)
H94 H 0.8670 0.5588 0.2102
C101 C 0.3711(4) 0.3630(4) 0.3810(3)
H95 H 0.3368 0.3653 0.4063
C102 C 0.8302(4) 0.5186(4) 0.2670(3)
H96 H 0.8747 0.4719 0.2688
C103 C 0.4138(5) 0.7353(5) 0.0158(3)
C104 C 0.5509(4) 0.8502(4) 0.2202(3)
C105 C 0.4401(5) 0.2980(4) 0.3768(3)
H97 H 0.4516 0.2577 0.3994
C106 C 0.1929(4) 1.0869(4) 0.2747(3)
C107 C 0.1303(5) 0.7129(5) 0.3472(2)
C108 C 0.1600(5) 0.5930(5) 0.3690(3)
C109 C 0.0533(5) 0.7449(5) 0.3596(3)
C110 C 0.6853(4) 0.3912(4) 0.0473(3)
H98 H 0.7019 0.4045 0.0173
N28 N 0.1899(3) 0.5849(4) 0.0762(2)
H99 H 0.2354 0.5486 0.0703
N29 N 0.1371(3) 0.8872(4) 0.3116(2)
H100 H 0.1832 0.8622 0.3005
C111 C 0.6354(4) 0.3577(4) 0.1358(3)
C112 C 0.5936(5) 0.5560(4) 0.0198(3)
C113 C 0.5663(5) 0.2298(4) 0.3327(3)
O20 O -0.0447(3) 0.7192(3) 0.38592(19)
O21 O 0.2860(3) 0.8310(3) 0.0181(2)
C114 C 0.3281(4) 1.0470(4) 0.2537(2)
H101 H 0.3164 1.0975 0.2500
C115 C 0.5362(5) 0.6371(4) 0.0097(3)
C116 C 0.1645(4) 0.9884(4) 0.2959(3)
C117 C 0.1518(4) 0.7669(6) 0.3307(3)
C118 C 0.2443(4) 0.7230(5) 0.0627(2)
C119 C 0.0837(5) 0.6148(5) 0.3830(3)
H102 H 0.0698 0.5803 0.3961
C120 C 0.3323(5) 0.7658(5) 0.0300(3)
C121 C 0.1407(4) 1.0650(4) 0.2890(3)
H103 H 0.0900 1.1012 0.2941
C122 C 0.2171(5) 0.5121(5) 0.3728(3)
C123 C 0.0309(5) 0.6922(6) 0.3756(3)
C124 C 0.6127(4) 0.2274(4) 0.2940(3)
H104 H 0.6615 0.1862 0.2904
C125 C 0.6347(4) 0.2849(5) 0.2141(4)
C126 C 0.1371(5) 0.5623(6) 0.0852(3)
C127 C 0.7000(4) 0.3005(4) 0.1120(3)
H105 H 0.7263 0.2517 0.1258
C128 C 0.1793(5) 0.7919(4) 0.0623(3)
H106 H 0.1796 0.8372 0.0561
C129 C 0.1811(4) 0.6583(4) 0.0750(3)
C130 C 0.0989(4) 1.2174(4) 0.2654(3)
H107 H 0.0792 1.2261 0.3007
H108 H 0.0690 1.2015 0.2445
C131 C 0.0035(4) 0.8232(5) 0.3547(3)
H109 H -0.0478 0.8425 0.3627
C132 C 0.8818(4) 0.7079(5) 0.0954(3)
H110 H 0.9230 0.6869 0.1212
C133 C 0.5601(5) 0.6831(6) -0.0164(3)
H111 H 0.6105 0.6623 -0.0272
O22 O 0.6957(3) 0.2287(3) 0.2064(2)
C134 C 0.7232(4) 0.3199(5) 0.0670(3)
H112 H 0.7659 0.2832 0.0496
C135 C 0.8073(4) 0.7378(5) 0.1246(3)
H113 H 0.7980 0.7824 0.1447
H114 H 0.7658 0.7527 0.1001
C136 C -0.0724(4) 0.6678(5) 0.3950(3)
H115 H -0.0568 0.6453 0.4293
H116 H -0.0511 0.6271 0.3694
C137 C 0.5111(7) 0.7567(6) -0.0259(3)
H117 H 0.5262 0.7884 -0.0422
O23 O 0.0410(3) 1.0093(3) 0.3213(3)
O24 O 0.0724(3) 0.6084(3) 0.0989(3)
C138 C 0.1631(4) 0.4777(5) 0.0780(4)
C139 C 0.4341(6) 0.7837(5) -0.0093(3)
H118 H 0.3975 0.8340 -0.0155
C140 C 0.6660(4) 0.1148(4) 0.3743(3)
H119 H 0.6795 0.0787 0.3459
H120 H 0.6987 0.1376 0.3728
C141 C 0.1118(5) 0.7897(5) 0.0718(3)
H121 H 0.0664 0.8353 0.0749
C142 C 0.0280(4) 0.8716(5) 0.3385(3)
H122 H -0.0060 0.9233 0.3345
C143 C 0.1068(5) 0.9632(6) 0.3106(3)
C144 C 0.1056(5) 0.8421(5) 0.3280(3)
C145 C 0.0923(5) 1.2874(5) 0.2444(4)
H123 H 0.1167 1.3033 0.2708
C146 C 0.1106(4) 0.7245(5) 0.0766(3)
H124 H 0.0653 0.7232 0.0808
C147 C 0.2364(5) 0.4316(5) 0.1074(3)
H125 H 0.2533 0.3783 0.1029
H126 H 0.2281 0.4441 0.1438
H127 H 0.2744 0.4429 0.0944
C148 C 0.8942(4) 0.6463(5) 0.0596(3)
H128 H 0.9429 0.6272 0.0430
H129 H 0.8549 0.6653 0.0336
H130 H 0.8928 0.6059 0.0787
C149 C -0.1596(5) 0.7100(5) 0.3911(3)
H131 H -0.1741 0.7369 0.3577
C150 C 0.8837(5) 0.7771(5) 0.0680(3)
H132 H 0.9317 0.7594 0.0506
H133 H 0.8773 0.8144 0.0936
H134 H 0.8432 0.7995 0.0429
C151 C 0.0146(4) 1.3521(4) 0.2412(4)
H135 H -0.0148 1.3504 0.2701
H136 H -0.0086 1.3493 0.2091
H137 H 0.0164 1.3988 0.2422
C152 C -0.1938(5) 0.7680(5) 0.4341(3)
H138 H -0.2479 0.7974 0.4292
H139 H -0.1721 0.8011 0.4333
H140 H -0.1832 0.7424 0.4671
C153 C 0.1031(5) 0.4604(5) 0.1040(5)
H141 H 0.1186 0.4074 0.0997
H142 H 0.0544 0.4908 0.0878
H143 H 0.0995 0.4723 0.1404
C154 C 0.6758(6) 0.0748(5) 0.4259(4)
H144 H 0.6585 0.1122 0.4542
C155 C 0.1807(6) 0.4583(5) 0.0202(4)
H145 H 0.1974 0.4053 0.0148
H146 H 0.2202 0.4691 0.0095
H147 H 0.1357 0.4885 -0.0001
C156 C 0.7695(4) 0.5332(4) 0.3011(3)
N30 N 0.7745(3) 0.4827(3) 0.3363(2)
H148 H 0.7361 0.4923 0.3558
H149 H 0.8163 0.4404 0.3397
C157 C -0.1893(5) 0.6536(6) 0.3924(5)
H150 H -0.1664 0.6173 0.3647
H151 H -0.2436 0.6804 0.3881
H152 H -0.1767 0.6274 0.4253
C158 C 0.1299(8) 1.2845(8) 0.2000(5)
H153 H 0.1189 1.3350 0.1905
H154 H 0.1139 1.2631 0.1726
H155 H 0.1837 1.2532 0.2056
C159 C 0.6279(8) 0.0367(6) 0.4245(5)
H156 H 0.6303 0.0137 0.4577
H157 H 0.6467 -0.0017 0.3979
H158 H 0.5761 0.0739 0.4170
C160 C 0.7625(6) 0.0172(6) 0.4327(4)
H159 H 0.7899 0.0447 0.4370
H160 H 0.7810 -0.0146 0.4024
H161 H 0.7698 -0.0138 0.4629
S3 S 0.9774(3) 0.8523(7) 0.5699(3)
O25 O 1.0561(13) 0.865(3) 0.5610(16)
C161 C 0.9899(8) 0.821(2) 0.5031(7)
C162 C 0.9460(17) 0.9511(9) 0.5423(12)
S4 S 0.1490(7) 0.0252(3) 0.9295(3)
C163 C 0.2568(11) -0.0378(16) 0.9198(11)
C164 C 0.123(3) -0.0487(16) 0.9446(12)
O26 O 0.1403(19) 0.0081(6) 1.0027(7)
O27 O 0.0992(6) 0.6794(5) 0.6700(4)
O28 O 0.3215(6) 0.8995(5) 0.8311(4)
O29 O 0.2100(10) 0.9423(6) 0.7498(9)
O30 O 0.4100(12) 0.1230(13) 0.9553(8)
O31 O 0.8964(14) 0.5882(13) 0.5505(9)
O32 O 0.0442(16) 0.7223(16) 0.5934(8)
O33 O 0.395(3) 0.9466(19) 0.8876(6)
O34 O 0.1130(9) 0.8675(11) 0.7946(14)
O35 O 0.0592(6) 0.7871(11) 0.7505(10)
O36 O 0.1386(10) 0.8839(9) 0.6928(10)
O37 O 0.3654(11) 1.0562(15) 0.9222(10)
O38 O 0.0151(6) 0.5434(6) 0.5742(8)
O39? O 0.421(4) 0.986(3) 0.939(3)
O40? O 0.1336(4) 0.9488(3) 0.7353(3)
O41? O 0.0513(3) 0.8666(4) 0.7650(3)
O42? O 0.0246(8) 0.5954(11) 0.5445(7)
O43? O 0.4081(14) 0.9684(12) 0.9470(11)
O44? O 0.4624(7) 1.0012(9) 0.9384(8)
O45? O -0.0377(9) 0.6324(8) 0.5805(6)
loop_
_geom_bond_atom_site_label_1
_geom_bond_atom_site_label_2
_geom_bond_site_symmetry_1
_geom_bond_site_symmetry_2
S1 O1 1_555 1_555
C1 S1 1_555 1_555
H1 C1 1_555 1_555
H2 C1 1_555 1_555
H3 C1 1_555 1_555
C2 S1 1_555 1_555
H4 C2 1_555 1_555
H5 C2 1_555 1_555
H6 C2 1_555 1_555
S2 O2 1_555 1_555
C3 S2 1_555 1_555
H7 C3 1_555 1_555
H8 C3 1_555 1_555
H9 C3 1_555 1_555
C4 S2 1_555 1_555
H10 C4 1_555 1_555
H11 C4 1_555 1_555
H12 C4 1_555 1_555
F1 C9 1_555 1_555
F2 C17 1_555 1_555
F3 C41 1_555 1_555
F4 C11 1_555 1_555
C5 N1 1_555 1_555
N1 C6 1_555 1_555
N2 H13 1_555 1_555
N3 H14 1_555 1_555
N4 C20 1_555 1_555
O3 C18 1_555 1_555
C6 C18 1_555 1_555
C7 O4 1_555 1_555
N5 C10 1_555 1_555
N6 C14 1_555 1_555
N7 H15 1_555 1_555
C8 C9 1_555 1_555
C9 C14 1_555 1_555
O4 C51 1_555 1_555
N8 H16 1_555 1_555
O5 C16 1_555 1_555
N9 C23 1_555 1_555
C10 C17 1_555 1_555
N10 C39 1_555 1_555
C11 C5 1_555 1_555
O6 C47 1_555 1_555
C12 C5 1_555 1_555
C13 C14 1_555 1_555
N11 C19 1_555 1_555
N12 C8 1_555 1_555
H17 N12 1_555 1_555
C15 N6 1_555 1_555
C16 C13 1_555 1_555
C17 C31 1_555 1_555
C18 N3 1_555 1_555
C19 N7 1_555 1_555
C20 C22 1_555 1_555
C21 N8 1_555 1_555
C22 N2 1_555 1_555
C23 C25 1_555 1_555
C24 C10 1_555 1_555
O7 C45 1_555 1_555
C25 C33 1_555 1_555
C26 C6 1_555 1_555
O8 C40 1_555 1_555
C27 H18 1_555 1_555
C28 C12 1_555 1_555
H19 C28 1_555 1_555
C29 H20 1_555 1_555
C30 C28 1_555 1_555
H21 C30 1_555 1_555
O9 C33 1_555 1_555
C31 N3 1_555 1_555
N13 H22 1_555 1_555
C32 C8 1_555 1_555
H23 C32 1_555 1_555
N14 H24 1_555 1_555
C33 C29 1_555 1_555
C34 C15 1_555 1_555
H25 C34 1_555 1_555
C35 N5 1_555 1_555
C36 N9 1_555 1_555
C37 N7 1_555 1_555
C38 N4 1_555 1_555
C39 N2 1_555 1_555
C40 C24 1_555 1_555
C41 C23 1_555 1_555
C42 C24 1_555 1_555
H26 C42 1_555 1_555
C43 N10 1_555 1_555
C44 C13 1_555 1_555
H27 C44 1_555 1_555
C45 N8 1_555 1_555
C46 C19 1_555 1_555
H28 C46 1_555 1_555
O10 C22 1_555 1_555
C47 N12 1_555 1_555
C48 C21 1_555 1_555
H29 C48 1_555 1_555
O11 C67 1_555 1_555
C49 C39 1_555 1_555
H30 C49 1_555 1_555
C50 N13 1_555 1_555
C51 H31 1_555 1_555
H32 C51 1_555 1_555
C52 C46 1_555 1_555
H33 C52 1_555 1_555
C53 O8 1_555 1_555
H34 C53 1_555 1_555
H35 C53 1_555 1_555
O12 C55 1_555 1_555
C54 C38 1_555 1_555
H36 C54 1_555 1_555
C55 N14 1_555 1_555
C56 C20 1_555 1_555
H37 C56 1_555 1_555
O13 C37 1_555 1_555
C57 C25 1_555 1_555
H38 C57 1_555 1_555
C58 C51 1_555 1_555
H39 C58 1_555 1_555
C59 C35 1_555 1_555
H40 C59 1_555 1_555
C60 C54 1_555 1_555
H41 C60 1_555 1_555
C61 O9 1_555 1_555
H42 C61 1_555 1_555
H43 C61 1_555 1_555
C62 C55 1_555 1_555
C63 C50 1_555 1_555
H44 C63 1_555 1_555
C64 C43 1_555 1_555
H45 C64 1_555 1_555
C65 C49 1_555 1_555
H46 C65 1_555 1_555
C66 C62 1_555 1_555
H47 C66 1_555 1_555
H48 C66 1_555 1_555
H49 C66 1_555 1_555
C67 N13 1_555 1_555
C68 O5 1_555 1_555
H50 C68 1_555 1_555
H51 C68 1_555 1_555
C69 C53 1_555 1_555
H52 C69 1_555 1_555
C70 C58 1_555 1_555
H53 C70 1_555 1_555
H54 C70 1_555 1_555
H55 C70 1_555 1_555
C71 C69 1_555 1_555
H56 C71 1_555 1_555
H57 C71 1_555 1_555
H58 C71 1_555 1_555
C72 H59 1_555 1_555
H60 C72 1_555 1_555
H61 C72 1_555 1_555
C73 C61 1_555 1_555
H62 C73 1_555 1_555
C74 C58 1_555 1_555
H63 C74 1_555 1_555
H64 C74 1_555 1_555
H65 C74 1_555 1_555
C75 C62 1_555 1_555
H66 C75 1_555 1_555
H67 C75 1_555 1_555
H68 C75 1_555 1_555
C76 C68 1_555 1_555
H69 C76 1_555 1_555
N15 H70 1_555 1_555
H71 N15 1_555 1_555
C77 C11 1_555 1_555
C78 C73 1_555 1_555
H72 C78 1_555 1_555
H73 C78 1_555 1_555
H74 C78 1_555 1_555
C79 C62 1_555 1_555
H75 C79 1_555 1_555
H76 C79 1_555 1_555
H77 C79 1_555 1_555
C80 C69 1_555 1_555
H78 C80 1_555 1_555
H79 C80 1_555 1_555
H80 C80 1_555 1_555
C81 C76 1_555 1_555
H81 C81 1_555 1_555
H82 C81 1_555 1_555
H83 C81 1_555 1_555
C82 C76 1_555 1_555
H84 C82 1_555 1_555
H85 C82 1_555 1_555
H86 C82 1_555 1_555
F5 C87 1_555 1_555
F6 C89 1_555 1_555
F7 C91 1_555 1_555
C83 N20 1_555 1_555
O14 C85 1_555 1_555
F8 C117 1_555 1_555
N16 C93 1_555 1_555
N17 H87 1_555 1_555
N18 C88 1_555 1_555
C84 N20 1_555 1_555
N19 C118 1_555 1_555
C85 C90 1_555 1_555
N21 C97 1_555 1_555
N22 H88 1_555 1_555
C86 C87 1_555 1_555
O15 C104 1_555 1_555
C87 C93 1_555 1_555
N23 C103 1_555 1_555
C88 C89 1_555 1_555
N24 C86 1_555 1_555
H89 N24 1_555 1_555
C89 C95 1_555 1_555
O16 C106 1_555 1_555
N25 C107 1_555 1_555
C90 C83 1_555 1_555
C91 C83 1_555 1_555
C92 C93 1_555 1_555
N26 H90 1_555 1_555
O17 C122 1_555 1_555
C94 H91 1_555 1_555
C95 N17 1_555 1_555
N27 H92 1_555 1_555
C96 N16 1_555 1_555
C97 N22 1_555 1_555
O18 C113 1_555 1_555
C98 C88 1_555 1_555
C99 C84 1_555 1_555
H93 C99 1_555 1_555
O19 C112 1_555 1_555
C100 C90 1_555 1_555
H94 C100 1_555 1_555
C101 C86 1_555 1_555
H95 C101 1_555 1_555
C102 C100 1_555 1_555
H96 C102 1_555 1_555
C103 C120 1_555 1_555
C104 N17 1_555 1_555
C105 C92 1_555 1_555
H97 C105 1_555 1_555
C106 C98 1_555 1_555
C107 C109 1_555 1_555
C108 N25 1_555 1_555
C109 C123 1_555 1_555
C110 C97 1_555 1_555
H98 C110 1_555 1_555
N28 H99 1_555 1_555
N29 H100 1_555 1_555
C111 N21 1_555 1_555
C112 N22 1_555 1_555
C113 C92 1_555 1_555
O20 C123 1_555 1_555
O21 C120 1_555 1_555
C114 C94 1_555 1_555
H101 C114 1_555 1_555
C115 N23 1_555 1_555
C116 N18 1_555 1_555
C117 C107 1_555 1_555
C118 N26 1_555 1_555
C119 C108 1_555 1_555
H102 C119 1_555 1_555
C120 N26 1_555 1_555
C121 C106 1_555 1_555
H103 C121 1_555 1_555
C122 N24 1_555 1_555
C123 C119 1_555 1_555
C124 C96 1_555 1_555
H104 C124 1_555 1_555
C125 N27 1_555 1_555
C126 N28 1_555 1_555
C127 C111 1_555 1_555
H105 C127 1_555 1_555
C128 C118 1_555 1_555
H106 C128 1_555 1_555
C129 N19 1_555 1_555
C130 O16 1_555 1_555
H107 C130 1_555 1_555
H108 C130 1_555 1_555
C131 C109 1_555 1_555
H109 C131 1_555 1_555
C132 H110 1_555 1_555
C133 C115 1_555 1_555
H111 C133 1_555 1_555
O22 C125 1_555 1_555
C134 C110 1_555 1_555
H112 C134 1_555 1_555
C135 O14 1_555 1_555
H113 C135 1_555 1_555
H114 C135 1_555 1_555
C136 O20 1_555 1_555
H115 C136 1_555 1_555
H116 C136 1_555 1_555
C137 C133 1_555 1_555
H117 C137 1_555 1_555
O23 C143 1_555 1_555
O24 C126 1_555 1_555
C138 C126 1_555 1_555
C139 C103 1_555 1_555
H118 C139 1_555 1_555
C140 O18 1_555 1_555
H119 C140 1_555 1_555
H120 C140 1_555 1_555
C141 C128 1_555 1_555
H121 C141 1_555 1_555
C142 C131 1_555 1_555
H122 C142 1_555 1_555
C143 N29 1_555 1_555
C144 N29 1_555 1_555
C145 C130 1_555 1_555
H123 C145 1_555 1_555
C146 C129 1_555 1_555
H124 C146 1_555 1_555
C147 C138 1_555 1_555
H125 C147 1_555 1_555
H126 C147 1_555 1_555
H127 C147 1_555 1_555
C148 C132 1_555 1_555
H128 C148 1_555 1_555
H129 C148 1_555 1_555
H130 C148 1_555 1_555
C149 C136 1_555 1_555
H131 C149 1_555 1_555
C150 C132 1_555 1_555
H132 C150 1_555 1_555
H133 C150 1_555 1_555
H134 C150 1_555 1_555
C151 C145 1_555 1_555
H135 C151 1_555 1_555
H136 C151 1_555 1_555
H137 C151 1_555 1_555
C152 C149 1_555 1_555
H138 C152 1_555 1_555
H139 C152 1_555 1_555
H140 C152 1_555 1_555
C153 C138 1_555 1_555
H141 C153 1_555 1_555
H142 C153 1_555 1_555
H143 C153 1_555 1_555
C154 C140 1_555 1_555
H144 C154 1_555 1_555
C155 C138 1_555 1_555
H145 C155 1_555 1_555
H146 C155 1_555 1_555
H147 C155 1_555 1_555
C156 C91 1_555 1_555
N30 C156 1_555 1_555
H148 N30 1_555 1_555
H149 N30 1_555 1_555
C157 C149 1_555 1_555
H150 C157 1_555 1_555
H151 C157 1_555 1_555
H152 C157 1_555 1_555
C158 C145 1_555 1_555
H153 C158 1_555 1_555
H154 C158 1_555 1_555
H155 C158 1_555 1_555
C159 C154 1_555 1_555
H156 C159 1_555 1_555
H157 C159 1_555 1_555
H158 C159 1_555 1_555
C160 C154 1_555 1_555
H159 C160 1_555 1_555
H160 C160 1_555 1_555
H161 C160 1_555 1_555
S3 O25 1_555 1_555
C161 S3 1_555 1_555
C162 S3 1_555 1_555
S4 C163 1_555 1_555
C164 S4 1_555 1_555
O26 S4 1_555 1_555
C7 C12 1_555 1_555
C7 C26 1_555 1_555
N11 C21 1_555 1_555
C15 C37 1_555 1_555
C16 C34 1_555 1_555
C27 C31 1_555 1_555
C27 C42 1_555 1_555
C29 C36 1_555 1_555
C30 C77 1_555 1_555
C32 C44 1_555 1_555
N14 C43 1_555 1_555
C35 C67 1_555 1_555
C36 C47 1_555 1_555
C38 C45 1_555 1_555
C40 C59 1_555 1_555
C41 C50 1_555 1_555
C48 C52 1_555 1_555
C56 C60 1_555 1_555
C57 C63 1_555 1_555
C64 C65 1_555 1_555
C72 C73 1_555 1_555
N15 C77 1_555 1_555
C84 C104 1_555 1_555
C85 C99 1_555 1_555
C94 C95 1_555 1_555
N27 C111 1_555 1_555
C96 C125 1_555 1_555
C98 C114 1_555 1_555
C101 C105 1_555 1_555
C102 C156 1_555 1_555
C108 C122 1_555 1_555
N28 C129 1_555 1_555
C112 C115 1_555 1_555
C113 C124 1_555 1_555
C116 C121 1_555 1_555
C116 C143 1_555 1_555
C117 C144 1_555 1_555
C127 C134 1_555 1_555
C132 C135 1_555 1_555
C137 C139 1_555 1_555
C141 C146 1_555 1_555
C142 C144 1_555 1_555

#END
