
#######################################################################
#
#                 Cambridge Crystallographic Data Centre
#                                CCDC 
#
#######################################################################
#
# If this CIF has been generated from an entry in the Cambridge 
# Structural Database, then it will include bibliographic, chemical, 
# crystal, experimental, refinement or atomic coordinate data resulting 
# from the CCDC's data processing and validation procedures.
#
#######################################################################

data_MUKMUB
_chemical_formula_moiety         'C20 H18 O5'
_chemical_name_systematic        
'2-(3-(Ethoxycarbonyl)but-3-enoyl)phenyl benzoate'
_symmetry_cell_setting           monoclinic
_symmetry_space_group_name_H-M   'P 21'
_symmetry_Int_Tables_number      4
_space_group_name_Hall           'P 2yb'
loop_
_symmetry_equiv_pos_site_id
_symmetry_equiv_pos_as_xyz
1 x,y,z
2 -x,1/2+y,-z
_cell_length_a                   11.165(5)
_cell_length_b                   6.291(5)
_cell_length_c                   13.510(5)
_cell_angle_alpha                90
_cell_angle_beta                 114.011(5)
_cell_angle_gamma                90
_cell_volume                     866.816
_exptl_crystal_colour            colorless
_exptl_crystal_description       block
_chemical_melting_point          79-81deg.C
_cell_formula_units_Z            2
loop_
_atom_site_label
_atom_site_type_symbol
_atom_site_fract_x
_atom_site_fract_y
_atom_site_fract_z
O1 O 0.39580(8) 0.41247(15) 0.64378(7)
O2 O 0.27430(9) 0.71974(19) 0.71023(7)
O3 O 0.55893(10) 0.64572(19) 0.72152(8)
O4 O 0.00209(9) 0.92385(17) 0.79572(8)
C1 C 0.27344(11) 0.7121(2) 0.53396(9)
C2 C 0.13879(14) 0.9821(3) 0.59039(11)
C3 C 0.23293(12) 0.7956(2) 0.61973(10)
O5 O -0.03069(12) 0.7321(2) 0.64870(10)
C4 C 0.49398(14) 0.1433(3) 0.81804(12)
C5 C 0.34071(13) 0.5611(3) 0.36856(12)
C6 C 0.54663(11) 0.3429(2) 0.82225(10)
C7 C 0.64518(15) 0.4112(4) 0.91839(13)
C8 C 0.38407(13) 0.4559(2) 0.46669(11)
C9 C 0.35148(11) 0.5323(2) 0.54788(9)
C10 C 0.50440(11) 0.4867(2) 0.72746(10)
C11 C 0.23140(13) 0.8151(2) 0.43366(11)
C12 C 0.09838(12) 1.0434(2) 0.67982(10)
C13 C 0.01696(11) 0.8836(2) 0.70448(10)
C14 C 0.63483(19) 0.0815(4) 1.00218(15)
C15 C 0.53865(18) 0.0126(3) 0.90745(14)
C16 C 0.12808(16) 1.2264(3) 0.73054(15)
C17 C -0.07491(18) 0.7739(3) 0.82609(16)
C18 C 0.68826(18) 0.2780(5) 1.00819(13)
C19 C -0.0893(3) 0.8637(5) 0.9224(2)
C20 C 0.26551(13) 0.7413(3) 0.35220(11)
H1 H 0.1760(15) 0.941(3) 0.4191(12)
H2 H 0.6803(18) 0.538(4) 0.9162(14)
H3 H 0.0621(16) 0.939(3) 0.5263(14)
H4 H -0.0250(19) 0.642(4) 0.8498(15)
H5 H 0.3612(15) 0.506(3) 0.3130(13)
H6 H 0.4250(17) 0.095(4) 0.7514(14)
H7 H 0.2380(14) 0.816(3) 0.2844(13)
H8 H 0.1729(18) 1.333(4) 0.7087(14)
H9 H 0.6706(19) -0.017(4) 1.0673(18)
H10 H 0.1838(16) 1.106(4) 0.5748(13)
H11 H 0.008(4) 0.865(6) 0.985(3)
H12 H 0.4339(14) 0.336(3) 0.4776(12)
H13 H -0.1565(18) 0.751(3) 0.7653(14)
H14 H 0.0997(16) 1.256(4) 0.7881(14)
H15 H -0.135(3) 0.755(6) 0.951(2)
H16 H 0.499(2) -0.123(5) 0.9057(18)
H17 H 0.750(3) 0.336(5) 1.068(2)
H18 H -0.135(3) 1.004(6) 0.903(2)
loop_
_geom_bond_atom_site_label_1
_geom_bond_atom_site_label_2
_geom_bond_site_symmetry_1
_geom_bond_site_symmetry_2
O1 C9 1_555 1_555
O2 C3 1_555 1_555
O3 C10 1_555 1_555
O4 C13 1_555 1_555
C1 C3 1_555 1_555
C2 C3 1_555 1_555
O5 C13 1_555 1_555
C4 C6 1_555 1_555
C5 C8 1_555 1_555
C6 C7 1_555 1_555
C7 C18 1_555 1_555
C8 C9 1_555 1_555
C9 C1 1_555 1_555
C10 O1 1_555 1_555
C11 C1 1_555 1_555
C12 C2 1_555 1_555
C13 C12 1_555 1_555
C14 C15 1_555 1_555
C15 C4 1_555 1_555
C16 C12 1_555 1_555
C17 O4 1_555 1_555
C18 C14 1_555 1_555
C19 C17 1_555 1_555
C20 C5 1_555 1_555
H1 C11 1_555 1_555
H2 C7 1_555 1_555
H3 C2 1_555 1_555
H4 C17 1_555 1_555
H5 C5 1_555 1_555
H6 C4 1_555 1_555
H7 C20 1_555 1_555
H8 C16 1_555 1_555
H9 C14 1_555 1_555
H10 C2 1_555 1_555
H11 C19 1_555 1_555
H12 C8 1_555 1_555
H13 C17 1_555 1_555
H14 C16 1_555 1_555
H15 C19 1_555 1_555
H16 C15 1_555 1_555
H17 C18 1_555 1_555
H18 C19 1_555 1_555
C6 C10 1_555 1_555
C11 C20 1_555 1_555

#END
