
#######################################################################
#
#                 Cambridge Crystallographic Data Centre
#                                CCDC 
#
#######################################################################
#
# If this CIF has been generated from an entry in the Cambridge 
# Structural Database, then it will include bibliographic, chemical, 
# crystal, experimental, refinement or atomic coordinate data resulting 
# from the CCDC's data processing and validation procedures.
#
#######################################################################

data_MUKWAS
_chemical_formula_moiety         
'C36 H26 N4 O19 S4 Sr2 4-,2(C12 H10 N2 2+),2(H2 O1)'
_chemical_name_systematic        
'bis(1,10-Phenanthrolinedi-ium) bis(\m~2~-4,5-dioxybenzene-1,3-disulfonato)-triaqua-bis(1,10-phenanthroline)-di-strontium dihydrate'
_symmetry_cell_setting           triclinic
_symmetry_space_group_name_H-M   'P -1'
_symmetry_Int_Tables_number      2
_space_group_name_Hall           '-P 1'
loop_
_symmetry_equiv_pos_site_id
_symmetry_equiv_pos_as_xyz
1 x,y,z
2 -x,-y,-z
_cell_length_a                   12.9360(11)
_cell_length_b                   17.3041(15)
_cell_length_c                   18.5669(17)
_cell_angle_alpha                63.2020(10)
_cell_angle_beta                 81.372(2)
_cell_angle_gamma                79.4690(10)
_cell_volume                     3636.43
_cell_formula_units_Z            2
loop_
_atom_site_label
_atom_site_type_symbol
_atom_site_fract_x
_atom_site_fract_y
_atom_site_fract_z
Sr1 Sr 0.73749(14) 0.24483(11) 1.24030(11)
Sr2 Sr 0.55825(15) 0.38248(11) 1.34666(11)
N1 N 0.5674(12) 0.2804(11) 1.1524(9)
N2 N 0.6074(12) 0.1166(10) 1.2808(10)
N3 N 0.4206(12) 0.4329(11) 1.2297(9)
N4 N 0.4376(12) 0.2673(10) 1.3481(10)
O1 O 0.8186(8) 0.1088(6) 1.3677(6)
O2 O 0.6833(9) 0.2440(7) 1.3793(7)
O3 O 0.5177(11) 0.2596(8) 1.5123(7)
O4 O 0.6486(9) 0.3525(8) 1.4801(7)
O5 O 0.6119(10) 0.2479(8) 1.6201(8)
O6 O 0.8772(10) 0.0022(8) 1.7321(8)
O7 O 1.0282(9) 0.0101(7) 1.6362(6)
O8 O 0.9243(10) -0.0997(8) 1.6690(7)
O9 O 0.8008(9) 0.3795(7) 1.1026(6)
O10 O 0.6839(9) 0.4049(8) 1.2235(7)
O11 O 0.5499(11) 0.5580(8) 1.2545(7)
O12 O 0.7027(10) 0.4982(8) 1.3305(8)
O13 O 0.6756(10) 0.6548(9) 1.2445(8)
O14 O 0.9324(10) 0.6885(8) 0.9107(8)
O15 O 0.9108(10) 0.7516(8) 1.0051(7)
O16 O 1.0495(10) 0.6351(7) 1.0109(7)
O17 O 0.9370(9) 0.2468(7) 1.2341(7)
H1 H 0.9644 0.2643 1.1857
H2 H 0.9678 0.1965 1.2631
O18 O 0.8126(11) 0.1558(8) 1.1607(8)
H3 H 0.8488 0.1093 1.1916
H4 H 0.8542 0.1851 1.1217
O19 O 0.3827(9) 0.4408(7) 1.4101(6)
H5 H 0.3335 0.4108 1.4177
H6 H 0.3626 0.4942 1.3804
S1 S 0.6177(5) 0.2668(4) 1.5357(4)
S2 S 0.9216(4) -0.0116(3) 1.6602(3)
S3 S 0.6632(5) 0.5659(4) 1.2560(4)
S4 S 0.9442(5) 0.6748(3) 0.9916(3)
C1 C 0.8032(14) 0.1163(11) 1.4423(11)
C2 C 0.7287(14) 0.1835(12) 1.4473(12)
C3 C 0.7150(14) 0.1856(11) 1.5240(12)
C4 C 0.7690(14) 0.1265(11) 1.5885(11)
H7 H 0.7566 0.1292 1.6380
C5 C 0.8444(14) 0.0609(11) 1.5787(11)
C6 C 0.8586(13) 0.0511(11) 1.5081(10)
H8 H 0.9023 0.0041 1.5039
C7 C 0.8063(15) 0.4556(13) 1.1075(12)
C8 C 0.7379(16) 0.4667(13) 1.1709(12)
C9 C 0.7335(15) 0.5480(13) 1.1762(12)
C10 C 0.7924(15) 0.6096(12) 1.1191(12)
H9 H 0.7879 0.6625 1.1218
C11 C 0.8576(15) 0.5983(12) 1.0579(11)
C12 C 0.8618(14) 0.5188(11) 1.0483(11)
H10 H 0.8997 0.5113 1.0047
C13 C 0.5485(16) 0.3570(13) 1.0941(12)
H11 H 0.5930 0.3979 1.0842
C14 C 0.4588(16) 0.3843(13) 1.0411(11)
H12 H 0.4497 0.4378 0.9959
C15 C 0.3927(16) 0.3235(14) 1.0655(12)
H13 H 0.3323 0.3384 1.0381
C16 C 0.4080(16) 0.2437(14) 1.1262(12)
C17 C 0.4970(17) 0.2237(13) 1.1709(12)
C18 C 0.5209(16) 0.1365(13) 1.2391(12)
C19 C 0.4460(17) 0.0741(14) 1.2575(12)
C20 C 0.4708(16) -0.0102(13) 1.3202(12)
H14 H 0.4284 -0.0534 1.3337
C21 C 0.5561(17) -0.0267(13) 1.3598(12)
H15 H 0.5714 -0.0812 1.4027
C22 C 0.6234(16) 0.0376(13) 1.3373(12)
H16 H 0.6836 0.0221 1.3651
C23 C 0.3351(16) 0.1799(13) 1.1526(12)
H17 H 0.2737 0.1941 1.1264
C24 C 0.3545(16) 0.1042(14) 1.2115(13)
H18 H 0.3054 0.0656 1.2257
C25 C 0.4140(16) 0.5105(13) 1.1697(12)
H19 H 0.4650 0.5451 1.1632
C26 C 0.3323(17) 0.5482(13) 1.1109(12)
H20 H 0.3344 0.6028 1.0671
C27 C 0.2511(16) 0.4978(13) 1.1244(12)
H21 H 0.1943 0.5182 1.0923
C28 C 0.2622(17) 0.4153(14) 1.1893(13)
C29 C 0.3417(17) 0.3838(13) 1.2370(12)
C30 C 0.3534(17) 0.2949(13) 1.3053(12)
C31 C 0.2778(17) 0.2427(14) 1.3153(12)
C32 C 0.2885(16) 0.1579(13) 1.3782(12)
H22 H 0.2361 0.1226 1.3905
C33 C 0.3762(17) 0.1269(13) 1.4216(11)
H23 H 0.3874 0.0688 1.4595
C34 C 0.4485(15) 0.1845(13) 1.4080(11)
H24 H 0.5047 0.1656 1.4404
C35 C 0.1828(16) 0.3575(14) 1.2051(12)
H25 H 0.1260 0.3782 1.1730
C36 C 0.1894(16) 0.2766(13) 1.2639(12)
H26 H 0.1380 0.2416 1.2723
N5 N 1.2222(18) 0.3296(15) 1.4664(14)
H27 H 1.2633 0.3691 1.4500
N6 N 1.1793(17) 0.4825(17) 1.3389(14)
H28 H 1.2337 0.4693 1.3658
C37 C 1.246(2) 0.250(2) 1.5329(18)
H29 H 1.3056 0.2398 1.5595
C38 C 1.179(3) 0.186(2) 1.5594(17)
H30 H 1.1946 0.1332 1.6039
C39 C 1.089(3) 0.202(2) 1.520(2)
H31 H 1.0448 0.1592 1.5374
C40 C 1.066(3) 0.281(3) 1.453(2)
C41 C 1.132(3) 0.345(2) 1.427(2)
C42 C 1.109(3) 0.425(2) 1.360(2)
C43 C 1.019(3) 0.440(2) 1.320(2)
C44 C 0.953(2) 0.376(2) 1.3468(19)
H32 H 0.8929 0.3866 1.3202
C45 C 0.976(3) 0.297(2) 1.413(2)
H33 H 0.9318 0.2541 1.4311
C46 C 1.003(2) 0.522(2) 1.2545(19)
H34 H 0.9439 0.5365 1.2251
C47 C 1.073(3) 0.581(2) 1.2332(18)
H35 H 1.0601 0.6352 1.1897
C48 C 1.162(3) 0.562(2) 1.274(2)
H36 H 1.2089 0.6025 1.2581
N7 N 1.507(2) -0.051(2) 1.1512(18)
H37 H 1.5703 -0.0516 1.1603
N8 N 1.616(3) 0.0866(17) 1.0524(15)
H38 H 1.6451 0.0430 1.0926
C49 C 1.451(3) -0.119(2) 1.1996(18)
H39 H 1.4815 -0.1663 1.2431
C50 C 1.349(3) -0.118(2) 1.185(2)
H40 H 1.3129 -0.1651 1.2188
C51 C 1.300(3) -0.049(3) 1.121(2)
H41 H 1.2317 -0.0492 1.1109
C52 C 1.458(4) 0.018(3) 1.087(2)
C53 C 1.356(4) 0.019(2) 1.072(2)
C54 C 1.309(2) 0.090(2) 1.007(2)
H42 H 1.2404 0.0903 0.9971
C55 C 1.364(3) 0.159(2) 0.9573(18)
H43 H 1.3332 0.2062 0.9138
C56 C 1.467(3) 0.158(3) 0.972(2)
C57 C 1.514(3) 0.088(3) 1.037(2)
C58 C 1.672(3) 0.156(3) 1.002(2)
H44 H 1.7402 0.1554 1.0125
C59 C 1.625(3) 0.227(2) 0.937(2)
H45 H 1.6620 0.2730 0.9041
C60 C 1.522(3) 0.228(2) 0.9224(19)
H46 H 1.4911 0.2747 0.8790
O20 O 0.9731(11) 0.9060(8) 0.8761(8)
H47 H 0.9469 0.8605 0.9106
H48 H 0.9372 0.9298 0.8349
O21 O 1.3654(14) 0.6359(11) 1.3146(10)
H49 H 1.3782 0.6697 1.3331
H50 H 1.4235 0.6150 1.2979
loop_
_geom_bond_atom_site_label_1
_geom_bond_atom_site_label_2
_geom_bond_site_symmetry_1
_geom_bond_site_symmetry_2
Sr1 N1 1_555 1_555
Sr2 N3 1_555 1_555
N1 C13 1_555 1_555
N2 Sr1 1_555 1_555
N3 C25 1_555 1_555
N4 Sr2 1_555 1_555
O1 Sr1 1_555 1_555
O2 Sr1 1_555 1_555
O3 Sr2 1_555 1_555
O4 Sr2 1_555 1_555
O5 S1 1_555 1_555
O6 S2 1_555 1_555
O7 S2 1_555 1_555
O8 S2 1_555 1_555
O9 Sr1 1_555 1_555
O10 Sr1 1_555 1_555
O11 Sr2 1_555 1_555
O12 Sr2 1_555 1_555
O13 S3 1_555 1_555
O14 S4 1_555 1_555
O15 S4 1_555 1_555
O16 S4 1_555 1_555
O17 Sr1 1_555 1_555
H1 O17 1_555 1_555
H2 O17 1_555 1_555
O18 Sr1 1_555 1_555
H3 O18 1_555 1_555
H4 O18 1_555 1_555
O19 Sr2 1_555 1_555
H5 O19 1_555 1_555
H6 O19 1_555 1_555
S1 O3 1_555 1_555
S2 C5 1_555 1_555
S3 O11 1_555 1_555
S4 C11 1_555 1_555
C1 O1 1_555 1_555
C2 O2 1_555 1_555
C3 S1 1_555 1_555
C4 C3 1_555 1_555
H7 C4 1_555 1_555
C5 C4 1_555 1_555
C6 C1 1_555 1_555
H8 C6 1_555 1_555
C7 O9 1_555 1_555
C8 O10 1_555 1_555
C9 S3 1_555 1_555
C10 C9 1_555 1_555
H9 C10 1_555 1_555
C11 C10 1_555 1_555
C12 C7 1_555 1_555
H10 C12 1_555 1_555
C13 H11 1_555 1_555
C14 C13 1_555 1_555
H12 C14 1_555 1_555
C15 C14 1_555 1_555
H13 C15 1_555 1_555
C16 C15 1_555 1_555
C17 N1 1_555 1_555
C18 N2 1_555 1_555
C19 C18 1_555 1_555
C20 C19 1_555 1_555
H14 C20 1_555 1_555
C21 C20 1_555 1_555
H15 C21 1_555 1_555
C22 N2 1_555 1_555
H16 C22 1_555 1_555
C23 C16 1_555 1_555
H17 C23 1_555 1_555
C24 C19 1_555 1_555
H18 C24 1_555 1_555
C25 H19 1_555 1_555
C26 C25 1_555 1_555
H20 C26 1_555 1_555
C27 C26 1_555 1_555
H21 C27 1_555 1_555
C28 C27 1_555 1_555
C29 N3 1_555 1_555
C30 N4 1_555 1_555
C31 C30 1_555 1_555
C32 C31 1_555 1_555
H22 C32 1_555 1_555
C33 C32 1_555 1_555
H23 C33 1_555 1_555
C34 N4 1_555 1_555
H24 C34 1_555 1_555
C35 C28 1_555 1_555
H25 C35 1_555 1_555
C36 C31 1_555 1_555
H26 C36 1_555 1_555
N5 H27 1_555 1_555
N6 H28 1_555 1_555
C37 N5 1_555 1_555
H29 C37 1_555 1_555
C38 C37 1_555 1_555
H30 C38 1_555 1_555
C39 C38 1_555 1_555
H31 C39 1_555 1_555
C40 C39 1_555 1_555
C41 N5 1_555 1_555
C42 N6 1_555 1_555
C43 C42 1_555 1_555
C44 C43 1_555 1_555
H32 C44 1_555 1_555
C45 C40 1_555 1_555
H33 C45 1_555 1_555
C46 C43 1_555 1_555
H34 C46 1_555 1_555
C47 C46 1_555 1_555
H35 C47 1_555 1_555
C48 N6 1_555 1_555
H36 C48 1_555 1_555
N7 H37 1_555 1_555
N8 H38 1_555 1_555
C49 N7 1_555 1_555
H39 C49 1_555 1_555
C50 C49 1_555 1_555
H40 C50 1_555 1_555
C51 C50 1_555 1_555
H41 C51 1_555 1_555
C52 N7 1_555 1_555
C53 C51 1_555 1_555
C54 C53 1_555 1_555
H42 C54 1_555 1_555
C55 C54 1_555 1_555
H43 C55 1_555 1_555
C56 C55 1_555 1_555
C57 N8 1_555 1_555
C58 N8 1_555 1_555
H44 C58 1_555 1_555
C59 C58 1_555 1_555
H45 C59 1_555 1_555
C60 C56 1_555 1_555
H46 C60 1_555 1_555
O20 H47 1_555 1_555
H48 O20 1_555 1_555
O21 H49 1_555 1_555
H50 O21 1_555 1_555
Sr2 O2 1_555 1_555
Sr2 O10 1_555 1_555
O4 S1 1_555 1_555
O12 S3 1_555 1_555
C1 C2 1_555 1_555
C2 C3 1_555 1_555
C5 C6 1_555 1_555
C7 C8 1_555 1_555
C8 C9 1_555 1_555
C11 C12 1_555 1_555
C16 C17 1_555 1_555
C17 C18 1_555 1_555
C21 C22 1_555 1_555
C23 C24 1_555 1_555
C28 C29 1_555 1_555
C29 C30 1_555 1_555
C33 C34 1_555 1_555
C35 C36 1_555 1_555
C40 C41 1_555 1_555
C41 C42 1_555 1_555
C44 C45 1_555 1_555
C47 C48 1_555 1_555
C52 C53 1_555 1_555
C52 C57 1_555 1_555
C56 C57 1_555 1_555
C59 C60 1_555 1_555

#END
