
#######################################################################
#
#                 Cambridge Crystallographic Data Centre
#                                CCDC 
#
#######################################################################
#
# If this CIF has been generated from an entry in the Cambridge 
# Structural Database, then it will include bibliographic, chemical, 
# crystal, experimental, refinement or atomic coordinate data resulting 
# from the CCDC's data processing and validation procedures.
#
#######################################################################

data_MULGIK
_chemical_formula_moiety         'C13 H15 N1 O2'
_chemical_name_systematic        
5-Methoxy-6-azatricyclo[7.3.1.0^2,7^]trideca-2,4,6-trien-11-one
_symmetry_cell_setting           monoclinic
_symmetry_space_group_name_H-M   'P 21/c'
_symmetry_Int_Tables_number      14
_space_group_name_Hall           '-P 2ybc'
loop_
_symmetry_equiv_pos_site_id
_symmetry_equiv_pos_as_xyz
1 x,y,z
2 -x,1/2+y,1/2-z
3 -x,-y,-z
4 x,1/2-y,1/2+z
_cell_length_a                   12.6525(1)
_cell_length_b                   5.7506(1)
_cell_length_c                   15.6757(1)
_cell_angle_alpha                90
_cell_angle_beta                 104.545(1)
_cell_angle_gamma                90
_cell_volume                     1104
_exptl_crystal_colour            colorless
_exptl_crystal_description       needle
_cell_formula_units_Z            4
loop_
_atom_site_label
_atom_site_type_symbol
_atom_site_fract_x
_atom_site_fract_y
_atom_site_fract_z
O1 O 0.60631(9) 0.09049(19) 0.82215(7)
O2 O 0.97092(9) 0.32288(19) 1.13604(8)
N1 N 0.63507(9) 0.2985(2) 0.95273(8)
C1 C 0.82282(12) 0.8099(3) 1.03836(10)
H1 H 0.8309 0.9465 1.0031
C2 C 0.76088(11) 0.6217(3) 0.97771(10)
C3 C 0.77811(12) 0.5858(3) 0.89374(10)
H2 H 0.8256 0.6823 0.8735
C4 C 0.72524(12) 0.4093(3) 0.84137(10)
H3 H 0.7357 0.3840 0.7855
C5 C 0.65468(12) 0.2678(3) 0.87502(10)
C6 C 0.53020(13) -0.0504(3) 0.85380(11)
H4 H 0.5657 -0.1134 0.9105
H5 H 0.5048 -0.1752 0.8131
H6 H 0.4693 0.0433 0.8589
C7 C 0.68820(11) 0.4744(2) 1.00452(9)
C8 C 0.66042(12) 0.5035(3) 1.09176(9)
H7 H 0.6601 0.3518 1.1187
H8 H 0.5874 0.5674 1.0816
C9 C 0.73981(12) 0.6622(3) 1.15599(10)
H9 H 0.7053 0.7103 1.2025
C10 C 0.84894(12) 0.5406(3) 1.19941(10)
H10 H 0.8867 0.6316 1.2500
H11 H 0.8331 0.3896 1.2208
C11 C 0.92433(12) 0.5072(3) 1.13957(10)
C12 C 0.93755(12) 0.7161(3) 1.08515(11)
H12 H 0.9768 0.6727 1.0418
H13 H 0.9791 0.8356 1.1228
C13 C 0.76218(12) 0.8798(3) 1.10689(10)
H14 H 0.6938 0.9547 1.0782
H15 H 0.8058 0.9891 1.1483
loop_
_geom_bond_atom_site_label_1
_geom_bond_atom_site_label_2
_geom_bond_site_symmetry_1
_geom_bond_site_symmetry_2
O1 C5 1_555 1_555
O2 C11 1_555 1_555
N1 C5 1_555 1_555
C1 H1 1_555 1_555
C2 C1 1_555 1_555
C3 C2 1_555 1_555
H2 C3 1_555 1_555
C4 C3 1_555 1_555
H3 C4 1_555 1_555
C5 C4 1_555 1_555
C6 O1 1_555 1_555
H4 C6 1_555 1_555
H5 C6 1_555 1_555
H6 C6 1_555 1_555
C7 N1 1_555 1_555
C8 C7 1_555 1_555
H7 C8 1_555 1_555
H8 C8 1_555 1_555
C9 C8 1_555 1_555
H9 C9 1_555 1_555
C10 C9 1_555 1_555
H10 C10 1_555 1_555
H11 C10 1_555 1_555
C11 C10 1_555 1_555
C12 C1 1_555 1_555
H12 C12 1_555 1_555
H13 C12 1_555 1_555
C13 C1 1_555 1_555
H14 C13 1_555 1_555
H15 C13 1_555 1_555
C2 C7 1_555 1_555
C9 C13 1_555 1_555
C11 C12 1_555 1_555

#END
