
#######################################################################
#
#                 Cambridge Crystallographic Data Centre
#                                CCDC 
#
#######################################################################
#
# If this CIF has been generated from an entry in the Cambridge 
# Structural Database, then it will include bibliographic, chemical, 
# crystal, experimental, refinement or atomic coordinate data resulting 
# from the CCDC's data processing and validation procedures.
#
#######################################################################

data_MULJEK
_chemical_formula_moiety         'C21 H20 Br2 N2 O2'
_chemical_name_systematic        
N-(1-Bromo-1-(3-bromophenyl)-3-oxo-3-(piperidin-1-yl)prop-1-en-2-yl)benzamide
_chemical_properties_biological  'antiviral activity'
_symmetry_cell_setting           monoclinic
_symmetry_space_group_name_H-M   'P 21/c'
_symmetry_Int_Tables_number      14
_space_group_name_Hall           '-P 2ybc'
loop_
_symmetry_equiv_pos_site_id
_symmetry_equiv_pos_as_xyz
1 x,y,z
2 -x,1/2+y,1/2-z
3 -x,-y,-z
4 x,1/2-y,1/2+z
_cell_length_a                   9.9091(7)
_cell_length_b                   11.9717(5)
_cell_length_c                   17.1808(10)
_cell_angle_alpha                90
_cell_angle_beta                 106.799(7)
_cell_angle_gamma                90
_cell_volume                     1951.16
_cell_formula_units_Z            4
loop_
_atom_site_label
_atom_site_type_symbol
_atom_site_fract_x
_atom_site_fract_y
_atom_site_fract_z
Br1 Br 0.31027(5) -0.03836(3) 0.56119(2)
Br2 Br 0.23778(5) 0.52922(3) 0.58779(2)
C1 C 0.2138(4) 0.0982(3) 0.5631(2)
C2 C 0.2712(4) 0.1972(3) 0.54690(19)
H1 H 0.3581 0.1971 0.5364
C3 C 0.1998(4) 0.2970(3) 0.54625(18)
C4 C 0.0718(4) 0.2941(4) 0.5647(2)
H2 H 0.0226 0.3600 0.5657
C5 C 0.0177(5) 0.1934(4) 0.5815(2)
H3 H -0.0681 0.1925 0.5934
C6 C 0.0871(5) 0.0957(4) 0.5809(2)
H4 H 0.0498 0.0285 0.5923
C7 C 0.2519(4) 0.4033(3) 0.52237(19)
C8 C 0.3035(3) 0.4196(3) 0.45990(18)
C9 C 0.3325(4) 0.3218(3) 0.41148(19)
C10 C 0.0836(4) 0.3228(3) 0.3289(2)
H5 H 0.0741 0.3530 0.2752
H6 H 0.0752 0.3841 0.3642
C11 C -0.0322(4) 0.2394(3) 0.3243(2)
H7 H -0.1228 0.2742 0.2993
H8 H -0.0299 0.2163 0.3788
C12 C -0.0159(4) 0.1377(3) 0.2750(2)
H9 H -0.0862 0.0823 0.2770
H10 H -0.0310 0.1590 0.2186
C13 C 0.1300(4) 0.0880(3) 0.3082(2)
H11 H 0.1398 0.0574 0.3618
H12 H 0.1411 0.0272 0.2732
C14 C 0.2446(4) 0.1734(3) 0.3137(2)
H13 H 0.3358 0.1404 0.3400
H14 H 0.2437 0.1966 0.2595
C15 C 0.3547(4) 0.5473(3) 0.36165(19)
C16 C 0.3823(3) 0.6657(3) 0.34423(18)
C17 C 0.3555(4) 0.7551(3) 0.38773(19)
H15 H 0.3252 0.7433 0.4335
C18 C 0.3738(4) 0.8626(3) 0.3633(2)
H16 H 0.3549 0.9231 0.3924
C19 C 0.4196(4) 0.8802(3) 0.2964(2)
H17 H 0.4317 0.9527 0.2803
C20 C 0.4476(4) 0.7920(3) 0.2529(2)
H18 H 0.4796 0.8045 0.2078
C21 C 0.4284(4) 0.6849(3) 0.2762(2)
H19 H 0.4462 0.6248 0.2464
N1 N 0.2222(3) 0.2705(2) 0.36036(16)
N2 N 0.3475(3) 0.5233(2) 0.43870(15)
H20 H 0.3712 0.5743 0.4754
O1 O 0.4551(2) 0.28927(19) 0.42713(13)
O2 O 0.3334(3) 0.47591(18) 0.30943(14)
loop_
_geom_bond_atom_site_label_1
_geom_bond_atom_site_label_2
_geom_bond_site_symmetry_1
_geom_bond_site_symmetry_2
Br1 C1 1_555 1_555
Br2 C7 1_555 1_555
C1 C2 1_555 1_555
C2 H1 1_555 1_555
C3 C2 1_555 1_555
C4 C3 1_555 1_555
H2 C4 1_555 1_555
C5 C4 1_555 1_555
H3 C5 1_555 1_555
C6 C1 1_555 1_555
H4 C6 1_555 1_555
C7 C3 1_555 1_555
C8 C7 1_555 1_555
C9 C8 1_555 1_555
C10 H5 1_555 1_555
H6 C10 1_555 1_555
C11 C10 1_555 1_555
H7 C11 1_555 1_555
H8 C11 1_555 1_555
C12 C11 1_555 1_555
H9 C12 1_555 1_555
H10 C12 1_555 1_555
C13 C12 1_555 1_555
H11 C13 1_555 1_555
H12 C13 1_555 1_555
C14 C13 1_555 1_555
H13 C14 1_555 1_555
H14 C14 1_555 1_555
C15 C16 1_555 1_555
C16 C17 1_555 1_555
C17 H15 1_555 1_555
C18 C17 1_555 1_555
H16 C18 1_555 1_555
C19 C18 1_555 1_555
H17 C19 1_555 1_555
C20 C19 1_555 1_555
H18 C20 1_555 1_555
C21 C16 1_555 1_555
H19 C21 1_555 1_555
N1 C9 1_555 1_555
N2 C8 1_555 1_555
H20 N2 1_555 1_555
O1 C9 1_555 1_555
O2 C15 1_555 1_555
C5 C6 1_555 1_555
C10 N1 1_555 1_555
C14 N1 1_555 1_555
C15 N2 1_555 1_555
C20 C21 1_555 1_555

#END
