
#######################################################################
#
#                 Cambridge Crystallographic Data Centre
#                                CCDC 
#
#######################################################################
#
# If this CIF has been generated from an entry in the Cambridge 
# Structural Database, then it will include bibliographic, chemical, 
# crystal, experimental, refinement or atomic coordinate data resulting 
# from the CCDC's data processing and validation procedures.
#
#######################################################################

data_MULPOA
_chemical_formula_moiety         'C16 H22 O3'
_chemical_name_systematic        
6a,9a-dimethyl-4-methylenedodecahydro-3H-cyclopropa[5,6]oxireno[9,10]cyclodeca[1,2-b]furan-3-one
_chemical_properties_biological  'antiproliferative activity'
_symmetry_cell_setting           monoclinic
_symmetry_space_group_name_H-M   'P 21'
_symmetry_Int_Tables_number      4
_space_group_name_Hall           'P 2yb'
loop_
_symmetry_equiv_pos_site_id
_symmetry_equiv_pos_as_xyz
1 x,y,z
2 -x,1/2+y,-z
_cell_length_a                   11.106(2)
_cell_length_b                   7.9397(16)
_cell_length_c                   16.668(3)
_cell_angle_alpha                90
_cell_angle_beta                 104.024(2)
_cell_angle_gamma                90
_cell_volume                     1425.95
_exptl_crystal_colour            colorless
_exptl_crystal_description       plate
_cell_formula_units_Z            4
loop_
_atom_site_label
_atom_site_type_symbol
_atom_site_fract_x
_atom_site_fract_y
_atom_site_fract_z
C1 C 0.8313(3) 0.0687(4) 0.05196(18)
H1 H 0.7431 0.0301 0.0411
C2 C 0.8620(3) 0.1643(5) -0.01942(19)
H2 H 0.8865 0.0826 -0.0574
H3 H 0.9340 0.2386 0.0025
C3 C 0.7538(3) 0.2720(5) -0.06879(18)
H4 H 0.7836 0.3402 -0.1098
H5 H 0.6877 0.1963 -0.0996
C4 C 0.6994(3) 0.3875(4) -0.01574(18)
C5 C 0.5932(2) 0.3222(4) 0.01369(16)
H6 H 0.5679 0.2050 -0.0049
C6 C 0.5669(2) 0.3698(4) 0.09465(17)
H7 H 0.6128 0.4748 0.1168
C7 C 0.6002(2) 0.2262(4) 0.15791(16)
H8 H 0.5938 0.1185 0.1260
C8 C 0.7322(3) 0.2326(5) 0.21599(19)
H9 H 0.7736 0.3374 0.2049
H10 H 0.7249 0.2372 0.2740
C9 C 0.8141(3) 0.0814(5) 0.20616(17)
H11 H 0.8711 0.0576 0.2606
H12 H 0.7599 -0.0184 0.1907
C10 C 0.8911(2) 0.1022(4) 0.14280(18)
C11 C 0.4927(3) 0.2308(4) 0.19827(18)
C12 C 0.3916(3) 0.3269(5) 0.1432(2)
C13 C 0.4790(4) 0.1644(5) 0.2679(2)
H13 H 0.4029 0.1777 0.2837
H14 H 0.5452 0.1031 0.3024
C14 C 0.9949(3) 0.2292(5) 0.1687(2)
H15 H 1.0500 0.1942 0.2213
H16 H 0.9597 0.3400 0.1754
H17 H 1.0423 0.2357 0.1263
C15 C 0.7819(3) 0.5283(4) 0.0271(2)
H18 H 0.7367 0.5962 0.0593
H19 H 0.8062 0.5996 -0.0143
H20 H 0.8563 0.4805 0.0642
C16 C 0.9237(3) -0.0539(5) 0.10213(19)
H21 H 0.8916 -0.1627 0.1173
H22 H 1.0071 -0.0597 0.0907
O1 O 0.5732(2) 0.4447(3) -0.05219(13)
O2 O 0.43287(18) 0.3954(3) 0.08091(13)
O3 O 0.2862(2) 0.3477(4) 0.14888(17)
C17 C 0.0713(3) 0.5269(5) 0.3394(2)
H23 H 0.1126 0.4521 0.3058
C18 C 0.0395(3) 0.4385(5) 0.4116(2)
H24 H -0.0367 0.3710 0.3910
H25 H 0.0212 0.5242 0.4501
C19 C 0.1423(3) 0.3229(5) 0.4589(2)
H26 H 0.1180 0.2769 0.5080
H27 H 0.1524 0.2271 0.4231
C20 C 0.2643(3) 0.4147(5) 0.4866(2)
C21 C 0.3465(3) 0.4052(4) 0.4296(2)
H28 H 0.3131 0.3359 0.3790
C22 C 0.4357(3) 0.5391(4) 0.4187(2)
H29 H 0.4405 0.6291 0.4613
C23 C 0.4056(3) 0.6167(4) 0.3317(2)
H30 H 0.3584 0.5310 0.2924
C24 C 0.3290(3) 0.7798(4) 0.3200(2)
H31 H 0.3390 0.8337 0.3747
H32 H 0.3644 0.8573 0.2852
C25 C 0.1898(3) 0.7615(5) 0.2807(2)
H33 H 0.1600 0.8704 0.2543
H34 H 0.1801 0.6770 0.2359
C26 C 0.1037(3) 0.7116(4) 0.3346(2)
C27 C 0.5342(3) 0.6323(4) 0.3156(2)
C28 C 0.6199(3) 0.5248(4) 0.3765(2)
C29 C 0.5715(3) 0.7165(5) 0.2578(2)
H35 H 0.6555 0.7095 0.2544
H36 H 0.5143 0.7844 0.2196
C30 C 0.1028(5) 0.8333(6) 0.4018(3)
H37 H 0.1848 0.8352 0.4406
H38 H 0.0402 0.7993 0.4311
H39 H 0.0829 0.9458 0.3782
C31 C 0.2688(4) 0.5548(9) 0.5485(2)
H40 H 0.3438 0.6223 0.5523
H41 H 0.2701 0.5064 0.6028
H42 H 0.1954 0.6266 0.5307
C32 C -0.0212(3) 0.6446(6) 0.2883(3)
H43 H -0.0944 0.6753 0.3092
H44 H -0.0372 0.6351 0.2274
O4 O 0.3732(2) 0.3103(4) 0.5061(2)
O5 O 0.55731(18) 0.4563(3) 0.42913(15)
O6 O 0.7271(2) 0.4924(3) 0.38166(16)
loop_
_geom_bond_atom_site_label_1
_geom_bond_atom_site_label_2
_geom_bond_site_symmetry_1
_geom_bond_site_symmetry_2
C1 H1 1_555 1_555
C2 C1 1_555 1_555
H2 C2 1_555 1_555
H3 C2 1_555 1_555
C3 C2 1_555 1_555
H4 C3 1_555 1_555
H5 C3 1_555 1_555
C4 C3 1_555 1_555
C5 C4 1_555 1_555
H6 C5 1_555 1_555
C6 C5 1_555 1_555
H7 C6 1_555 1_555
C7 C6 1_555 1_555
H8 C7 1_555 1_555
C8 C7 1_555 1_555
H9 C8 1_555 1_555
H10 C8 1_555 1_555
C9 C8 1_555 1_555
H11 C9 1_555 1_555
H12 C9 1_555 1_555
C10 C1 1_555 1_555
C11 C7 1_555 1_555
C12 C11 1_555 1_555
C13 C11 1_555 1_555
H13 C13 1_555 1_555
H14 C13 1_555 1_555
C14 C10 1_555 1_555
H15 C14 1_555 1_555
H16 C14 1_555 1_555
H17 C14 1_555 1_555
C15 C4 1_555 1_555
H18 C15 1_555 1_555
H19 C15 1_555 1_555
H20 C15 1_555 1_555
C16 C1 1_555 1_555
H21 C16 1_555 1_555
H22 C16 1_555 1_555
O1 C4 1_555 1_555
O2 C6 1_555 1_555
O3 C12 1_555 1_555
C17 H23 1_555 1_555
C18 C17 1_555 1_555
H24 C18 1_555 1_555
H25 C18 1_555 1_555
C19 C18 1_555 1_555
H26 C19 1_555 1_555
H27 C19 1_555 1_555
C20 C19 1_555 1_555
C21 C20 1_555 1_555
H28 C21 1_555 1_555
C22 C21 1_555 1_555
H29 C22 1_555 1_555
C23 C22 1_555 1_555
H30 C23 1_555 1_555
C24 C23 1_555 1_555
H31 C24 1_555 1_555
H32 C24 1_555 1_555
C25 C24 1_555 1_555
H33 C25 1_555 1_555
H34 C25 1_555 1_555
C26 C17 1_555 1_555
C27 C23 1_555 1_555
C28 C27 1_555 1_555
C29 C27 1_555 1_555
H35 C29 1_555 1_555
H36 C29 1_555 1_555
C30 C26 1_555 1_555
H37 C30 1_555 1_555
H38 C30 1_555 1_555
H39 C30 1_555 1_555
C31 C20 1_555 1_555
H40 C31 1_555 1_555
H41 C31 1_555 1_555
H42 C31 1_555 1_555
C32 C17 1_555 1_555
H43 C32 1_555 1_555
H44 C32 1_555 1_555
O4 C20 1_555 1_555
O5 C22 1_555 1_555
O6 C28 1_555 1_555
C5 O1 1_555 1_555
C9 C10 1_555 1_555
C10 C16 1_555 1_555
C12 O2 1_555 1_555
C21 O4 1_555 1_555
C25 C26 1_555 1_555
C26 C32 1_555 1_555
C28 O5 1_555 1_555

#END
