
#######################################################################
#
#                 Cambridge Crystallographic Data Centre
#                                CCDC 
#
#######################################################################
#
# If this CIF has been generated from an entry in the Cambridge 
# Structural Database, then it will include bibliographic, chemical, 
# crystal, experimental, refinement or atomic coordinate data resulting 
# from the CCDC's data processing and validation procedures.
#
#######################################################################

data_MULPIU
_chemical_formula_moiety         'C15 H22 O3'
_chemical_name_systematic        
1a,5-dimethyl-8-methylenedecahydrooxireno[9,10]cyclodeca[1,2-b]furan-9(1aH)-one
_symmetry_cell_setting           orthorhombic
_symmetry_space_group_name_H-M   'P 21 21 21'
_symmetry_Int_Tables_number      19
_space_group_name_Hall           'P 2ac 2ab'
loop_
_symmetry_equiv_pos_site_id
_symmetry_equiv_pos_as_xyz
1 x,y,z
2 1/2-x,-y,1/2+z
3 -x,1/2+y,1/2-z
4 1/2+x,1/2-y,-z
_cell_length_a                   6.3639(19)
_cell_length_b                   7.595(2)
_cell_length_c                   28.621(8)
_cell_angle_alpha                90
_cell_angle_beta                 90
_cell_angle_gamma                90
_cell_volume                     1383.36
_exptl_crystal_colour            colorless
_exptl_crystal_description       plate
_cell_formula_units_Z            4
loop_
_atom_site_label
_atom_site_type_symbol
_atom_site_fract_x
_atom_site_fract_y
_atom_site_fract_z
O1 O 0.1095(7) 0.4668(4) 0.12084(14)
O2 O 0.0896(5) 0.2875(5) 0.02669(12)
O3 O 0.0974(6) 0.2193(8) -0.04906(12)
C1 C 0.3430(8) 0.0075(7) 0.21215(16)
H1 H 0.3130 -0.0949 0.2325
H2 H 0.4873 0.0474 0.2196
C2 C 0.1935(9) 0.1538(8) 0.22594(17)
H3 H 0.2195 0.1826 0.2592
H4 H 0.0485 0.1074 0.2237
C3 C 0.2037(9) 0.3270(7) 0.19766(19)
H5 H 0.1567 0.4252 0.2179
H6 H 0.3516 0.3499 0.1888
C4 C 0.0714(9) 0.3250(7) 0.15413(18)
C5 C 0.1757(8) 0.2908(6) 0.10873(16)
H7 H 0.3307 0.2703 0.1108
C6 C 0.0678(7) 0.1911(7) 0.07075(16)
H8 H -0.0842 0.1752 0.0785
C7 C 0.1706(8) 0.0117(6) 0.06135(16)
H9 H 0.3257 0.0260 0.0655
C8 C 0.1006(8) -0.1387(6) 0.09228(16)
H10 H 0.1814 -0.2449 0.0834
H11 H -0.0493 -0.1631 0.0856
C9 C 0.1245(7) -0.1111(6) 0.14462(16)
H12 H 0.0842 -0.2217 0.1606
H13 H 0.0234 -0.0192 0.1545
C10 C 0.3431(8) -0.0577(6) 0.16169(16)
H14 H 0.3937 0.0408 0.1414
C11 C 0.4989(9) -0.2106(8) 0.1569(2)
H15 H 0.5053 -0.2483 0.1242
H16 H 0.4525 -0.3092 0.1764
H17 H 0.6385 -0.1719 0.1671
C12 C -0.1640(9) 0.3022(9) 0.1611(2)
H18 H -0.2358 0.3137 0.1310
H19 H -0.2156 0.3929 0.1826
H20 H -0.1921 0.1854 0.1743
C13 C 0.1037(7) 0.1721(9) -0.00908(19)
C14 C 0.1285(7) -0.0087(8) 0.01042(18)
C15 C 0.1073(10) -0.1506(11) -0.0155(2)
H21 H 0.1189 -0.2639 -0.0017
H22 H 0.0804 -0.1397 -0.0480
loop_
_geom_bond_atom_site_label_1
_geom_bond_atom_site_label_2
_geom_bond_site_symmetry_1
_geom_bond_site_symmetry_2
O1 C4 1_555 1_555
O2 C6 1_555 1_555
O3 C13 1_555 1_555
C1 H1 1_555 1_555
H2 C1 1_555 1_555
C2 C1 1_555 1_555
H3 C2 1_555 1_555
H4 C2 1_555 1_555
C3 C2 1_555 1_555
H5 C3 1_555 1_555
H6 C3 1_555 1_555
C4 C3 1_555 1_555
C5 O1 1_555 1_555
H7 C5 1_555 1_555
C6 C5 1_555 1_555
H8 C6 1_555 1_555
C7 C6 1_555 1_555
H9 C7 1_555 1_555
C8 C7 1_555 1_555
H10 C8 1_555 1_555
H11 C8 1_555 1_555
C9 C8 1_555 1_555
H12 C9 1_555 1_555
H13 C9 1_555 1_555
C10 C1 1_555 1_555
H14 C10 1_555 1_555
C11 C10 1_555 1_555
H15 C11 1_555 1_555
H16 C11 1_555 1_555
H17 C11 1_555 1_555
C12 C4 1_555 1_555
H18 C12 1_555 1_555
H19 C12 1_555 1_555
H20 C12 1_555 1_555
C13 O2 1_555 1_555
C14 C7 1_555 1_555
C15 C14 1_555 1_555
H21 C15 1_555 1_555
H22 C15 1_555 1_555
C4 C5 1_555 1_555
C9 C10 1_555 1_555
C13 C14 1_555 1_555

#END
