
#######################################################################
#
#                 Cambridge Crystallographic Data Centre
#                                CCDC 
#
#######################################################################
#
# If this CIF has been generated from an entry in the Cambridge 
# Structural Database, then it will include bibliographic, chemical, 
# crystal, experimental, refinement or atomic coordinate data resulting 
# from the CCDC's data processing and validation procedures.
#
#######################################################################

data_MULQAM
_chemical_formula_moiety         'C17 H21 N1 O2'
_chemical_name_systematic        
3-Benzyl-1,5-dimethyl-4a,5,6,8a-tetrahydro-1H-2,3-benzoxazin-4(3H)-one
_symmetry_cell_setting           monoclinic
_symmetry_space_group_name_H-M   'P 21/c'
_symmetry_Int_Tables_number      14
_space_group_name_Hall           '-P 2ybc'
loop_
_symmetry_equiv_pos_site_id
_symmetry_equiv_pos_as_xyz
1 x,y,z
2 -x,1/2+y,1/2-z
3 -x,-y,-z
4 x,1/2-y,1/2+z
_cell_length_a                   11.636(6)
_cell_length_b                   15.675(6)
_cell_length_c                   8.541(4)
_cell_angle_alpha                90
_cell_angle_beta                 105.020(17)
_cell_angle_gamma                90
_cell_volume                     1504.61
_exptl_crystal_colour            colorless
_exptl_crystal_description       chunk
_cell_formula_units_Z            4
loop_
_atom_site_label
_atom_site_type_symbol
_atom_site_fract_x
_atom_site_fract_y
_atom_site_fract_z
O1 O 0.49676(8) 0.12159(6) 0.49692(10)
O2 O 0.47283(9) 0.13619(6) 0.08225(11)
N1 N 0.52111(10) 0.14870(8) 0.35201(12)
C1 C 0.37464(12) 0.14180(8) 0.48786(13)
C2 C 0.29306(12) 0.09037(8) 0.35124(13)
C3 C 0.36284(11) 0.05337(8) 0.23648(13)
C4 C 0.45514(12) 0.11596(8) 0.21264(16)
C5 C 0.28126(13) 0.02242(9) 0.07673(16)
C6 C 0.20114(13) 0.09353(10) -0.00885(17)
C7 C 0.14935(14) 0.14312(10) 0.10260(19)
C8 C 0.18921(12) 0.14145(10) 0.26100(18)
C9 C 0.60957(12) 0.21517(8) 0.37114(16)
C10 C 0.73400(12) 0.18300(8) 0.43650(14)
C11 C 0.77852(14) 0.11795(8) 0.36012(17)
C12 C 0.8939(2) 0.09194(11) 0.4150(2)
C13 C 0.96609(18) 0.12788(14) 0.5475(2)
C14 C 0.92517(19) 0.19043(13) 0.6275(2)
C15 C 0.80870(16) 0.21865(10) 0.57106(17)
C16 C 0.35759(13) 0.12290(10) 0.65353(14)
C17 C 0.20893(17) -0.05502(9) 0.1050(2)
H1 H 0.3614 0.2028 0.4649
H2 H 0.2622 0.0422 0.4011
H3 H 0.4058 0.0033 0.2906
H4 H 0.3314 0.0044 0.0066
H5 H 0.0843 0.1778 0.0578
H6 H 0.1498 0.1745 0.3211
H7 H 0.7291 0.0915 0.2701
H8 H 0.9228 0.0490 0.3604
H9 H 1.0445 0.1096 0.5841
H10 H 0.9749 0.2145 0.7201
H11 H 0.7811 0.2623 0.6254
H12 H 0.1370 0.0688 -0.0925
H13 H 0.2474 0.1316 -0.0582
H14 H 0.6034 0.2412 0.2662
H15 H 0.5936 0.2577 0.4452
H16 H 0.4151 0.1542 0.7339
H17 H 0.2789 0.1396 0.6569
H18 H 0.3679 0.0629 0.6753
H19 H 0.1544 -0.0380 0.1665
H20 H 0.2618 -0.0979 0.1638
H21 H 0.1652 -0.0778 0.0025
loop_
_geom_bond_atom_site_label_1
_geom_bond_atom_site_label_2
_geom_bond_site_symmetry_1
_geom_bond_site_symmetry_2
O1 N1 1_555 1_555
O2 C4 1_555 1_555
N1 C4 1_555 1_555
C1 O1 1_555 1_555
C2 C1 1_555 1_555
C3 C2 1_555 1_555
C4 C3 1_555 1_555
C5 C3 1_555 1_555
C6 C5 1_555 1_555
C7 C6 1_555 1_555
C8 C2 1_555 1_555
C9 N1 1_555 1_555
C10 C9 1_555 1_555
C11 C10 1_555 1_555
C12 C11 1_555 1_555
C13 C12 1_555 1_555
C14 C13 1_555 1_555
C15 C10 1_555 1_555
C16 C1 1_555 1_555
C17 C5 1_555 1_555
H1 C1 1_555 1_555
H2 C2 1_555 1_555
H3 C3 1_555 1_555
H4 C5 1_555 1_555
H5 C7 1_555 1_555
H6 C8 1_555 1_555
H7 C11 1_555 1_555
H8 C12 1_555 1_555
H9 C13 1_555 1_555
H10 C14 1_555 1_555
H11 C15 1_555 1_555
H12 C6 1_555 1_555
H13 C6 1_555 1_555
H14 C9 1_555 1_555
H15 C9 1_555 1_555
H16 C16 1_555 1_555
H17 C16 1_555 1_555
H18 C16 1_555 1_555
H19 C17 1_555 1_555
H20 C17 1_555 1_555
H21 C17 1_555 1_555
C7 C8 1_555 1_555
C14 C15 1_555 1_555

#END
