
#######################################################################
#
#                 Cambridge Crystallographic Data Centre
#                                CCDC 
#
#######################################################################
#
# If this CIF has been generated from an entry in the Cambridge 
# Structural Database, then it will include bibliographic, chemical, 
# crystal, experimental, refinement or atomic coordinate data resulting 
# from the CCDC's data processing and validation procedures.
#
#######################################################################

data_MULWEW
_chemical_formula_moiety         'C7 H11 N3 O4 S1'
_chemical_name_systematic        
N,N,5-Trimethyl-2,4-dioxo-3,4-dihydropyrimidine-1(2H)-sulfonamide
_symmetry_cell_setting           monoclinic
_symmetry_space_group_name_H-M   'P 21/n'
_symmetry_Int_Tables_number      14
_space_group_name_Hall           '-P 2yn'
loop_
_symmetry_equiv_pos_site_id
_symmetry_equiv_pos_as_xyz
1 x,y,z
2 1/2-x,1/2+y,1/2-z
3 -x,-y,-z
4 1/2+x,1/2-y,1/2+z
_cell_length_a                   6.3567(3)
_cell_length_b                   9.0104(5)
_cell_length_c                   17.6044(9)
_cell_angle_alpha                90
_cell_angle_beta                 92.413(2)
_cell_angle_gamma                90
_cell_volume                     1007.42
_exptl_crystal_colour            colorless
_exptl_crystal_description       block
_cell_formula_units_Z            4
loop_
_atom_site_label
_atom_site_type_symbol
_atom_site_fract_x
_atom_site_fract_y
_atom_site_fract_z
S1 S 0.20618(7) 0.75778(5) 0.29853(3)
O1 O 0.03122(18) 0.63841(14) 0.43646(7)
O2 O 0.4844(2) 0.25574(14) 0.47640(8)
O3 O 0.3402(2) 0.75212(14) 0.23621(7)
O4 O -0.0132(2) 0.73647(16) 0.28798(8)
N1 N 0.2988(2) 0.61213(16) 0.35434(8)
N2 N 0.2525(3) 0.90712(18) 0.34435(9)
N3 N 0.2572(2) 0.44492(16) 0.45254(8)
H1 H 0.1805 0.4109 0.4892
C1 C 0.1846(3) 0.56973(19) 0.41648(10)
C2 C 0.4382(3) 0.3651(2) 0.43816(10)
C3 C 0.5616(3) 0.4237(2) 0.37760(10)
C4 C 0.4885(3) 0.5415(2) 0.33894(10)
H2 H 0.5691 0.5793 0.2990
C5 C 0.7650(3) 0.3483(2) 0.36110(11)
H3 H 0.8422 0.4086 0.3253
H4 H 0.7355 0.2505 0.3388
H5 H 0.8500 0.3366 0.4084
C6 C 0.4757(3) 0.9454(2) 0.36009(13)
H6 H 0.4876 1.0513 0.3721
H7 H 0.5564 0.9234 0.3152
H8 H 0.5314 0.8869 0.4034
C7 C 0.1061(4) 0.9627(3) 0.39991(14)
H9 H 0.1016 1.0713 0.3978
H10 H 0.1537 0.9311 0.4510
H11 H -0.0349 0.9228 0.3880
loop_
_geom_bond_atom_site_label_1
_geom_bond_atom_site_label_2
_geom_bond_site_symmetry_1
_geom_bond_site_symmetry_2
S1 O3 1_555 1_555
O1 C1 1_555 1_555
O2 C2 1_555 1_555
O4 S1 1_555 1_555
N1 S1 1_555 1_555
N2 S1 1_555 1_555
N3 H1 1_555 1_555
C1 N1 1_555 1_555
C2 N3 1_555 1_555
C3 C2 1_555 1_555
C4 N1 1_555 1_555
H2 C4 1_555 1_555
C5 C3 1_555 1_555
H3 C5 1_555 1_555
H4 C5 1_555 1_555
H5 C5 1_555 1_555
C6 N2 1_555 1_555
H6 C6 1_555 1_555
H7 C6 1_555 1_555
H8 C6 1_555 1_555
C7 N2 1_555 1_555
H9 C7 1_555 1_555
H10 C7 1_555 1_555
H11 C7 1_555 1_555
N3 C1 1_555 1_555
C3 C4 1_555 1_555

#END
