
#######################################################################
#
#                 Cambridge Crystallographic Data Centre
#                                CCDC 
#
#######################################################################
#
# If this CIF has been generated from an entry in the Cambridge 
# Structural Database, then it will include bibliographic, chemical, 
# crystal, experimental, refinement or atomic coordinate data resulting 
# from the CCDC's data processing and validation procedures.
#
#######################################################################

data_MULWAS
_chemical_formula_moiety         'C8 H13 N3 O3 S2'
_chemical_name_systematic        
'5-Methyl-2-(methylsulfanyl)pyrimidin-4-yl dimethylsulfamate'
_symmetry_cell_setting           triclinic
_symmetry_space_group_name_H-M   'P -1'
_symmetry_Int_Tables_number      2
_space_group_name_Hall           '-P 1'
loop_
_symmetry_equiv_pos_site_id
_symmetry_equiv_pos_as_xyz
1 x,y,z
2 -x,-y,-z
_cell_length_a                   6.8695(2)
_cell_length_b                   7.6535(3)
_cell_length_c                   13.0800(4)
_cell_angle_alpha                93.239(1)
_cell_angle_beta                 103.740(1)
_cell_angle_gamma                116.422(1)
_cell_volume                     587.742
_exptl_crystal_colour            colorless
_exptl_crystal_description       block
_cell_formula_units_Z            2
loop_
_atom_site_label
_atom_site_type_symbol
_atom_site_fract_x
_atom_site_fract_y
_atom_site_fract_z
S1 S 0.67710(5) 0.52430(5) 0.40348(3)
S2 S -0.13862(5) 0.26009(4) 0.14124(2)
O1 O -0.02560(15) 0.49872(13) 0.18166(8)
O2 O -0.01163(17) 0.22747(17) 0.07885(9)
O3 O -0.17061(17) 0.16856(15) 0.23100(8)
N1 N 0.58971(18) 0.83157(16) 0.40402(9)
N2 N -0.37757(17) 0.22023(16) 0.06417(8)
N3 N 0.31050(17) 0.52354(15) 0.28949(8)
C1 C 0.5119(2) 0.64293(18) 0.36322(9)
C2 C 0.18231(19) 0.60763(17) 0.25801(9)
C3 C 0.2390(2) 0.80447(18) 0.29361(10)
C4 C 0.4512(2) 0.90929(19) 0.36733(10)
H1 H 0.5028 1.0453 0.3940
C5 C 0.0845(2) 0.8917(2) 0.25440(12)
H2 H 0.0455 0.8752 0.1761
H3 H 0.1616 1.0333 0.2859
H4 H -0.0546 0.8235 0.2755
C6 C 0.9127(2) 0.7133(2) 0.50851(12)
H5 H 1.0158 0.6619 0.5408
H6 H 0.8560 0.7514 0.5633
H7 H 0.9945 0.8297 0.4786
C7 C -0.5403(2) 0.2343(3) 0.11453(13)
H8 H -0.6941 0.1604 0.0647
H9 H -0.5021 0.3740 0.1327
H10 H -0.5335 0.1779 0.1799
C8 C -0.3799(3) 0.2876(2) -0.03831(11)
H11 H -0.5362 0.2233 -0.0859
H12 H -0.2848 0.2527 -0.0713
H13 H -0.3202 0.4320 -0.0264
loop_
_geom_bond_atom_site_label_1
_geom_bond_atom_site_label_2
_geom_bond_site_symmetry_1
_geom_bond_site_symmetry_2
S1 C1 1_555 1_555
S2 O1 1_555 1_555
O1 C2 1_555 1_555
O2 S2 1_555 1_555
O3 S2 1_555 1_555
N1 C1 1_555 1_555
N2 S2 1_555 1_555
N3 C1 1_555 1_555
C2 N3 1_555 1_555
C3 C2 1_555 1_555
C4 N1 1_555 1_555
H1 C4 1_555 1_555
C5 C3 1_555 1_555
H2 C5 1_555 1_555
H3 C5 1_555 1_555
H4 C5 1_555 1_555
C6 S1 1_555 1_555
H5 C6 1_555 1_555
H6 C6 1_555 1_555
H7 C6 1_555 1_555
C7 N2 1_555 1_555
H8 C7 1_555 1_555
H9 C7 1_555 1_555
H10 C7 1_555 1_555
C8 N2 1_555 1_555
H11 C8 1_555 1_555
H12 C8 1_555 1_555
H13 C8 1_555 1_555
C3 C4 1_555 1_555

#END
