
#######################################################################
#
#                 Cambridge Crystallographic Data Centre
#                                CCDC 
#
#######################################################################
#
# If this CIF has been generated from an entry in the Cambridge 
# Structural Database, then it will include bibliographic, chemical, 
# crystal, experimental, refinement or atomic coordinate data resulting 
# from the CCDC's data processing and validation procedures.
#
#######################################################################

data_MUMBEL03
_chemical_formula_moiety         'C10 H8 O3'
_chemical_name_systematic        7-Hydroxy-4-methyl-2H-chromen-2-one
_symmetry_cell_setting           orthorhombic
_symmetry_space_group_name_H-M   'P 21 21 21'
_symmetry_Int_Tables_number      19
_space_group_name_Hall           'P 2ac 2ab'
loop_
_symmetry_equiv_pos_site_id
_symmetry_equiv_pos_as_xyz
1 x,y,z
2 1/2-x,-y,1/2+z
3 1/2+x,1/2-y,-z
4 -x,1/2+y,1/2-z
_cell_length_a                   5.23990(10)
_cell_length_b                   11.8776(3)
_cell_length_c                   13.1891(4)
_cell_angle_alpha                90
_cell_angle_beta                 90
_cell_angle_gamma                90
_cell_volume                     820.856
_exptl_crystal_colour            colorless
_exptl_crystal_description       block
_cell_formula_units_Z            4
loop_
_atom_site_label
_atom_site_type_symbol
_atom_site_fract_x
_atom_site_fract_y
_atom_site_fract_z
O1 O 0.4183(2) 0.08034(9) 0.77424(7)
O2 O 0.3012(2) 0.10475(10) 0.93287(8)
O3 O 0.6290(3) 0.02234(10) 0.42777(8)
H1 H 0.5013 -0.0174 0.4309
C1 C 0.8009(3) 0.24330(12) 0.79692(12)
C2 C 0.5750(3) 0.10421(12) 0.69307(11)
C3 C 0.5226(3) 0.04847(12) 0.60354(12)
H2 H 0.3880 -0.0024 0.5998
C4 C 0.6735(3) 0.06949(12) 0.51957(12)
C5 C 0.8793(3) 0.14388(13) 0.52709(12)
H3 H 0.9855 0.1554 0.4716
C6 C 0.9248(3) 0.19980(13) 0.61578(12)
H4 H 1.0607 0.2500 0.6191
C7 C 0.7721(3) 0.18365(11) 0.70192(12)
C8 C 0.6436(3) 0.21678(13) 0.87440(12)
H5 H 0.6624 0.2545 0.9357
C9 C 0.4487(3) 0.13264(13) 0.86572(11)
C10 C 0.9972(3) 0.33476(13) 0.80687(13)
H6 H 1.0060 0.3590 0.8762
H7 H 0.9503 0.3972 0.7646
H8 H 1.1607 0.3065 0.7861
loop_
_geom_bond_atom_site_label_1
_geom_bond_atom_site_label_2
_geom_bond_site_symmetry_1
_geom_bond_site_symmetry_2
O1 C2 1_555 1_555
O2 C9 1_555 1_555
O3 H1 1_555 1_555
C1 C7 1_555 1_555
C2 C3 1_555 1_555
C3 H2 1_555 1_555
C4 O3 1_555 1_555
C5 C4 1_555 1_555
H3 C5 1_555 1_555
C6 C5 1_555 1_555
H4 C6 1_555 1_555
C7 C2 1_555 1_555
C8 C1 1_555 1_555
H5 C8 1_555 1_555
C9 O1 1_555 1_555
C10 C1 1_555 1_555
H6 C10 1_555 1_555
H7 C10 1_555 1_555
H8 C10 1_555 1_555
C3 C4 1_555 1_555
C6 C7 1_555 1_555
C8 C9 1_555 1_555

#END
