
#######################################################################
#
#                 Cambridge Crystallographic Data Centre
#                                CCDC 
#
#######################################################################
#
# If this CIF has been generated from an entry in the Cambridge 
# Structural Database, then it will include bibliographic, chemical, 
# crystal, experimental, refinement or atomic coordinate data resulting 
# from the CCDC's data processing and validation procedures.
#
#######################################################################

data_MUMCUT
_chemical_name_common            
Furo[3',4':5,6]naphtho[1,2-c]furan-1,3,6,8-tetrayltetrakis(t-butyl(dimethyl)silane)
_chemical_formula_moiety         'C38 H64 O2 Si4'
_chemical_name_systematic        
1,3,6,8-tetrakis(t-Butyldimethylsilyl)naphtho[1,2-c:5,6-c]difuran
_symmetry_cell_setting           triclinic
_symmetry_space_group_name_H-M   'P -1'
_symmetry_Int_Tables_number      2
_space_group_name_Hall           '-P 1'
loop_
_symmetry_equiv_pos_site_id
_symmetry_equiv_pos_as_xyz
1 x,y,z
2 -x,-y,-z
_cell_length_a                   6.8355(5)
_cell_length_b                   11.3386(8)
_cell_length_c                   14.1413(10)
_cell_angle_alpha                72.072(1)
_cell_angle_beta                 88.266(1)
_cell_angle_gamma                79.759(1)
_cell_volume                     1025.84
_exptl_crystal_colour            yellow
_exptl_crystal_description       plate
_chemical_melting_point          '231-233 deg.C'
_cell_formula_units_Z            1
loop_
_atom_site_label
_atom_site_type_symbol
_atom_site_fract_x
_atom_site_fract_y
_atom_site_fract_z
Si1 Si 0.30918(8) 0.21778(5) 0.26482(4)
Si2 Si -0.04464(8) 0.67203(5) 0.29189(4)
C1 C 0.4236(3) 0.37143(17) 0.38898(13)
O1 O 0.15117(18) 0.44372(11) 0.29361(9)
C2 C 0.1594(3) 0.53192(17) 0.34229(13)
C3 C 0.3285(3) 0.48848(16) 0.40354(13)
C4 C 0.3105(3) 0.34656(17) 0.32165(14)
C5 C 0.6043(3) 0.30429(17) 0.44176(14)
H1 H 0.6698 0.2283 0.4313
C6 C 0.6804(3) 0.35053(18) 0.50666(14)
H2 H 0.8008 0.3055 0.5417
C7 C 0.4124(3) 0.53485(17) 0.47460(13)
C8 C 0.0650(3) 0.79563(18) 0.19346(14)
C9 C 0.2315(3) 0.8374(2) 0.23816(17)
H3 H 0.2926 0.8970 0.1853
H4 H 0.3324 0.7637 0.2704
H5 H 0.1764 0.8781 0.2874
C10 C -0.1645(3) 0.7409(2) 0.38782(15)
H6 H -0.3061 0.7722 0.3706
H7 H -0.1005 0.8107 0.3903
H8 H -0.1500 0.6761 0.4529
C11 C -0.0972(3) 0.91022(19) 0.14853(16)
H9 H -0.1524 0.9453 0.2009
H10 H -0.2031 0.8846 0.1184
H11 H -0.0399 0.9741 0.0975
C12 C -0.2347(3) 0.6126(2) 0.23559(16)
H12 H -0.2929 0.5507 0.2879
H13 H -0.1715 0.5728 0.1872
H14 H -0.3394 0.6831 0.2020
C13 C 0.1526(4) 0.7423(2) 0.11073(16)
H15 H 0.0473 0.7169 0.0799
H16 H 0.2568 0.6690 0.1391
H17 H 0.2096 0.8070 0.0604
C14 C 0.5013(3) 0.08007(18) 0.32945(16)
H18 H 0.4806 0.0567 0.4013
H19 H 0.6337 0.1021 0.3155
H20 H 0.4906 0.0089 0.3056
C15 C 0.3600(3) 0.27844(19) 0.12785(14)
C16 C 0.3728(4) 0.1729(2) 0.07999(16)
H21 H 0.3969 0.2061 0.0088
H22 H 0.2474 0.1406 0.0890
H23 H 0.4821 0.1046 0.1116
C17 C 0.1924(4) 0.3854(2) 0.07541(16)
H24 H 0.1839 0.4542 0.1044
H25 H 0.0661 0.3543 0.0837
H26 H 0.2198 0.4163 0.0044
C18 C 0.0576(3) 0.1748(2) 0.28487(18)
H27 H 0.0391 0.1215 0.2441
H28 H -0.0435 0.2515 0.2659
H29 H 0.0448 0.1288 0.3552
C19 C 0.5565(4) 0.3273(2) 0.11383(18)
H30 H 0.5810 0.3601 0.0427
H31 H 0.6650 0.2585 0.1457
H32 H 0.5497 0.3948 0.1442
Si1A Si 0.69082(8) 0.78222(5) 0.73518(4)
Si2A Si 1.04464(8) 0.32797(5) 0.70811(4)
C1A C 0.5764(3) 0.62857(17) 0.61102(13)
O1A O 0.84883(18) 0.55628(11) 0.70639(9)
C2A C 0.8406(3) 0.46808(17) 0.65771(13)
C3A C 0.6715(3) 0.51152(16) 0.59646(13)
C4A C 0.6895(3) 0.65344(17) 0.67835(14)
C5A C 0.3957(3) 0.69571(17) 0.55824(14)
H1A H 0.3302 0.7717 0.5687
C6A C 0.3196(3) 0.64947(18) 0.49334(14)
H2A H 0.1992 0.6945 0.4583
C7A C 0.5876(3) 0.46515(17) 0.52540(13)
C8A C 0.9350(3) 0.20437(18) 0.80654(14)
C9A C 0.7685(3) 0.1626(2) 0.76184(17)
H3A H 0.7074 0.1030 0.8147
H4A H 0.6676 0.2363 0.7296
H5A H 0.8236 0.1219 0.7126
C10A C 1.1645(3) 0.2591(2) 0.61218(15)
H6A H 1.3061 0.2278 0.6294
H7A H 1.1005 0.1893 0.6097
H8A H 1.1500 0.3239 0.5471
C11A C 1.0972(3) 0.08978(19) 0.85147(16)
H9A H 1.1524 0.0547 0.7991
H10A H 1.2031 0.1154 0.8816
H11A H 1.0399 0.0259 0.9025
C12A C 1.2347(3) 0.3874(2) 0.76441(16)
H12A H 1.2929 0.4493 0.7121
H13A H 1.1715 0.4272 0.8128
H14A H 1.3394 0.3169 0.7980
C13A C 0.8474(4) 0.2577(2) 0.88927(16)
H15A H 0.9527 0.2831 0.9201
H16A H 0.7432 0.3310 0.8609
H17A H 0.7904 0.1930 0.9396
C14A C 0.4987(3) 0.91993(18) 0.67055(16)
H18A H 0.5194 0.9433 0.5987
H19A H 0.3663 0.8979 0.6845
H20A H 0.5094 0.9911 0.6944
C15A C 0.6400(3) 0.72156(19) 0.87215(14)
C16A C 0.6272(4) 0.8271(2) 0.92001(16)
H21A H 0.6031 0.7939 0.9912
H22A H 0.7526 0.8594 0.9110
H23A H 0.5179 0.8954 0.8884
C17A C 0.8076(4) 0.6146(2) 0.92459(16)
H24A H 0.8161 0.5458 0.8956
H25A H 0.9339 0.6457 0.9163
H26A H 0.7802 0.5837 0.9956
C18A C 0.9424(3) 0.8252(2) 0.71513(18)
H27A H 0.9609 0.8785 0.7559
H28A H 1.0435 0.7485 0.7341
H29A H 0.9552 0.8712 0.6448
C19A C 0.4435(4) 0.6727(2) 0.88617(18)
H30A H 0.4190 0.6399 0.9573
H31A H 0.3350 0.7415 0.8543
H32A H 0.4503 0.6052 0.8558
loop_
_geom_bond_atom_site_label_1
_geom_bond_atom_site_label_2
_geom_bond_site_symmetry_1
_geom_bond_site_symmetry_2
Si1 C4 1_555 1_555
Si2 C2 1_555 1_555
C1 C3 1_555 1_555
O1 C2 1_555 1_555
C2 C3 1_555 1_555
C3 C7 1_555 1_555
C4 C1 1_555 1_555
C5 C1 1_555 1_555
H1 C5 1_555 1_555
C6 C5 1_555 1_555
H2 C6 1_555 1_555
C7 C6A 1_555 1_555
C8 Si2 1_555 1_555
C9 C8 1_555 1_555
H3 C9 1_555 1_555
H4 C9 1_555 1_555
H5 C9 1_555 1_555
C10 Si2 1_555 1_555
H6 C10 1_555 1_555
H7 C10 1_555 1_555
H8 C10 1_555 1_555
C11 C8 1_555 1_555
H9 C11 1_555 1_555
H10 C11 1_555 1_555
H11 C11 1_555 1_555
C12 Si2 1_555 1_555
H12 C12 1_555 1_555
H13 C12 1_555 1_555
H14 C12 1_555 1_555
C13 C8 1_555 1_555
H15 C13 1_555 1_555
H16 C13 1_555 1_555
H17 C13 1_555 1_555
C14 Si1 1_555 1_555
H18 C14 1_555 1_555
H19 C14 1_555 1_555
H20 C14 1_555 1_555
C15 Si1 1_555 1_555
C16 C15 1_555 1_555
H21 C16 1_555 1_555
H22 C16 1_555 1_555
H23 C16 1_555 1_555
C17 C15 1_555 1_555
H24 C17 1_555 1_555
H25 C17 1_555 1_555
H26 C17 1_555 1_555
C18 Si1 1_555 1_555
H27 C18 1_555 1_555
H28 C18 1_555 1_555
H29 C18 1_555 1_555
C19 C15 1_555 1_555
H30 C19 1_555 1_555
H31 C19 1_555 1_555
H32 C19 1_555 1_555
Si1A C4A 1_555 1_555
Si2A C2A 1_555 1_555
C1A C3A 1_555 1_555
O1A C2A 1_555 1_555
C2A C3A 1_555 1_555
C3A C7A 1_555 1_555
C4A C1A 1_555 1_555
C5A C1A 1_555 1_555
H1A C5A 1_555 1_555
C6A C5A 1_555 1_555
H2A C6A 1_555 1_555
C7A C6 1_555 1_555
C8A Si2A 1_555 1_555
C9A C8A 1_555 1_555
H3A C9A 1_555 1_555
H4A C9A 1_555 1_555
H5A C9A 1_555 1_555
C10A Si2A 1_555 1_555
H6A C10A 1_555 1_555
H7A C10A 1_555 1_555
H8A C10A 1_555 1_555
C11A C8A 1_555 1_555
H9A C11A 1_555 1_555
H10A C11A 1_555 1_555
H11A C11A 1_555 1_555
C12A Si2A 1_555 1_555
H12A C12A 1_555 1_555
H13A C12A 1_555 1_555
H14A C12A 1_555 1_555
C13A C8A 1_555 1_555
H15A C13A 1_555 1_555
H16A C13A 1_555 1_555
H17A C13A 1_555 1_555
C14A Si1A 1_555 1_555
H18A C14A 1_555 1_555
H19A C14A 1_555 1_555
H20A C14A 1_555 1_555
C15A Si1A 1_555 1_555
C16A C15A 1_555 1_555
H21A C16A 1_555 1_555
H22A C16A 1_555 1_555
H23A C16A 1_555 1_555
C17A C15A 1_555 1_555
H24A C17A 1_555 1_555
H25A C17A 1_555 1_555
H26A C17A 1_555 1_555
C18A Si1A 1_555 1_555
H27A C18A 1_555 1_555
H28A C18A 1_555 1_555
H29A C18A 1_555 1_555
C19A C15A 1_555 1_555
H30A C19A 1_555 1_555
H31A C19A 1_555 1_555
H32A C19A 1_555 1_555
O1 C4 1_555 1_555
C7 C7A 1_555 1_555
O1A C4A 1_555 1_555

#END
