
#######################################################################
#
#                 Cambridge Crystallographic Data Centre
#                                CCDC 
#
#######################################################################
#
# If this CIF has been generated from an entry in the Cambridge 
# Structural Database, then it will include bibliographic, chemical, 
# crystal, experimental, refinement or atomic coordinate data resulting 
# from the CCDC's data processing and validation procedures.
#
#######################################################################

data_MUMDAA
_chemical_name_common            
3,8,12,17-Tetraoxaheptacyclo[21.4.0.0$2,6!.0$4,27!.0$14,18!.0$16,20!.0$19,24!]heptacosa-1(27),19,21,23,25-pentaene-7,13-dione
_chemical_formula_moiety         'C23 H20 O6'
_chemical_name_systematic        
1^1^,1^4^;1^7^,1^10^-Diepoxy-1^1^,1^2^,1^3^,1^4^,1^7^,1^8^,1^9^,1^10^-octahydro-1(2,8)chrysena-3,7-dioxa-2,8-dioxo-cyclooctaphane
_symmetry_cell_setting           monoclinic
_symmetry_space_group_name_H-M   'P 21/c'
_symmetry_Int_Tables_number      14
_space_group_name_Hall           '-P 2ybc'
loop_
_symmetry_equiv_pos_site_id
_symmetry_equiv_pos_as_xyz
1 x,y,z
2 -x,1/2+y,1/2-z
3 -x,-y,-z
4 x,1/2-y,1/2+z
_cell_length_a                   14.2500(16)
_cell_length_b                   7.8987(9)
_cell_length_c                   16.1812(18)
_cell_angle_alpha                90
_cell_angle_beta                 95.752(1)
_cell_angle_gamma                90
_cell_volume                     1812.13
_exptl_crystal_colour            colorless
_exptl_crystal_description       plate
_chemical_melting_point          '400 deg.C (dec.)'
_cell_formula_units_Z            4
_exptl_crystal_recrystallization_method 'chloroform/ethyl acetate'
loop_
_atom_site_label
_atom_site_type_symbol
_atom_site_fract_x
_atom_site_fract_y
_atom_site_fract_z
C1 C 0.25542(14) 0.6937(3) 0.54159(12)
C2 C 0.24850(14) 0.6773(2) 0.45285(12)
C3 C 0.41908(14) 0.6836(3) 0.45250(13)
H1 H 0.4739 0.6839 0.4235
C4 C 0.15610(14) 0.6679(3) 0.41245(12)
C5 C 0.33082(14) 0.6719(3) 0.41053(13)
H2 H 0.3247 0.6600 0.3518
C6 C 0.17256(15) 0.7033(3) 0.58322(13)
H3 H 0.1783 0.7134 0.6420
C7 C 0.34751(14) 0.6977(3) 0.58197(12)
C8 C 0.42617(14) 0.6950(3) 0.53929(13)
C9 C 0.07750(14) 0.6787(3) 0.45461(13)
C10 C 0.08413(14) 0.6984(3) 0.54067(14)
H4 H 0.0292 0.7080 0.5690
C11 C 0.11931(15) 0.6705(3) 0.32131(13)
H5 H 0.1629 0.6221 0.2827
C12 C 0.42116(16) 0.9031(3) 0.68479(14)
H6 H 0.4435 0.9188 0.7449
C13 C 0.08526(16) 0.8556(3) 0.30130(15)
H7 H 0.0661 0.8646 0.2403
C14 C -0.00409(15) 0.6863(3) 0.38710(14)
H8 H -0.0661 0.6492 0.4047
C15 C 0.50833(15) 0.7158(3) 0.60562(14)
H9 H 0.5702 0.6739 0.5896
C16 C 0.50873(16) 0.9009(3) 0.63551(16)
H10 H 0.5017 0.9810 0.5882
H11 H 0.5671 0.9280 0.6716
C17 C 0.38527(15) 0.7166(3) 0.67251(14)
H12 H 0.3420 0.6767 0.7135
C18 C -0.00443(16) 0.8629(3) 0.34766(17)
H13 H 0.0001 0.9530 0.3904
H14 H -0.0617 0.8813 0.3088
C19 C 0.16420(16) 0.9784(3) 0.32395(15)
C20 C 0.34346(17) 1.0279(3) 0.66240(16)
O1 O 0.03090(11) 0.5837(2) 0.32269(10)
O2 O 0.47372(11) 0.6276(2) 0.67459(10)
O3 O 0.23079(12) 0.9937(2) 0.28456(11)
O4 O 0.27488(12) 1.0394(3) 0.69982(12)
C21 C 0.2416(2) 1.1447(4) 0.4317(2)
H15 H 0.2558 1.2418 0.3964
H16 H 0.2972 1.0691 0.4390
C22 C 0.2128(2) 1.2042(5) 0.5156(2)
H17 H 0.1660 1.2964 0.5060
H18 H 0.1820 1.1092 0.5422
C23 C 0.2947(2) 1.2667(4) 0.5740(2)
H19 H 0.3272 1.3590 0.5468
H20 H 0.2706 1.3136 0.6245
O5 O 0.1592(3) 1.0551(6) 0.3970(3)
O6 O 0.3619(2) 1.1329(4) 0.59775(19)
C24? C 0.1978(17) 1.232(3) 0.4018(13)
C25? C 0.2636(16) 1.233(4) 0.4783(11)
C26? C 0.2464(8) 1.1644(15) 0.5629(9)
H21? H 0.1568 1.3330 0.4039
H22? H 0.2358 1.2487 0.3545
H23? H 0.2818 1.3525 0.4876
H24? H 0.3209 1.1737 0.4634
H25? H 0.2362 1.2575 0.6021
H26? H 0.1912 1.0876 0.5592
O7? O 0.1366(14) 1.088(3) 0.3820(12)
O8? O 0.3326(7) 1.0741(14) 0.5880(6)
loop_
_geom_bond_atom_site_label_1
_geom_bond_atom_site_label_2
_geom_bond_site_symmetry_1
_geom_bond_site_symmetry_2
C1 C2 1_555 1_555
C2 C4 1_555 1_555
C3 H1 1_555 1_555
C4 C9 1_555 1_555
C5 C2 1_555 1_555
H2 C5 1_555 1_555
C6 C1 1_555 1_555
H3 C6 1_555 1_555
C7 C1 1_555 1_555
C8 C3 1_555 1_555
C9 C10 1_555 1_555
C10 C6 1_555 1_555
H4 C10 1_555 1_555
C11 C4 1_555 1_555
H5 C11 1_555 1_555
C12 H6 1_555 1_555
C13 C11 1_555 1_555
H7 C13 1_555 1_555
C14 C9 1_555 1_555
H8 C14 1_555 1_555
C15 C8 1_555 1_555
H9 C15 1_555 1_555
C16 C12 1_555 1_555
H10 C16 1_555 1_555
H11 C16 1_555 1_555
C17 C7 1_555 1_555
H12 C17 1_555 1_555
C18 C13 1_555 1_555
H13 C18 1_555 1_555
H14 C18 1_555 1_555
C19 C13 1_555 1_555
C20 C12 1_555 1_555
O1 C11 1_555 1_555
O2 C15 1_555 1_555
O3 C19 1_555 1_555
O4 C20 1_555 1_555
C21 H15 1_555 1_555
H16 C21 1_555 1_555
C22 C21 1_555 1_555
H17 C22 1_555 1_555
H18 C22 1_555 1_555
C23 C22 1_555 1_555
H19 C23 1_555 1_555
H20 C23 1_555 1_555
O5 C19 1_555 1_555
O6 C20 1_555 1_555
C3 C5 1_555 1_555
C7 C8 1_555 1_555
C12 C17 1_555 1_555
C14 C18 1_555 1_555
C14 O1 1_555 1_555
C15 C16 1_555 1_555
C17 O2 1_555 1_555
C21 O5 1_555 1_555
C23 O6 1_555 1_555

#END
