
#######################################################################
#
#                 Cambridge Crystallographic Data Centre
#                                CCDC 
#
#######################################################################
#
# If this CIF has been generated from an entry in the Cambridge 
# Structural Database, then it will include bibliographic, chemical, 
# crystal, experimental, refinement or atomic coordinate data resulting 
# from the CCDC's data processing and validation procedures.
#
#######################################################################

data_MUMGUY
_chemical_formula_moiety         'C24 H21 Cl1 N2 O3,C4 H8 O2'
_chemical_name_systematic        
'3-(4-Chlorophenyl)-N-hydroxy-2-(2-hydroxyphenyl)-3-(2-methyl-1H-indol-3-yl)propanamide ethyl acetate'
_symmetry_cell_setting           tetragonal
_symmetry_space_group_name_H-M   'P 43 21 2'
_symmetry_Int_Tables_number      96
_space_group_name_Hall           'P 4nw 2abw'
loop_
_symmetry_equiv_pos_site_id
_symmetry_equiv_pos_as_xyz
1 x,y,z
2 -x,-y,1/2+z
3 1/2-y,1/2+x,3/4+z
4 1/2+y,1/2-x,1/4+z
5 1/2-x,1/2+y,3/4-z
6 1/2+x,1/2-y,1/4-z
7 y,x,-z
8 -y,-x,1/2-z
_cell_length_a                   11.5466(18)
_cell_length_b                   11.5466(18)
_cell_length_c                   38.913(6)
_cell_angle_alpha                90
_cell_angle_beta                 90
_cell_angle_gamma                90
_cell_volume                     5188.04
_exptl_crystal_colour            yellow
_exptl_crystal_description       block
_cell_formula_units_Z            8
loop_
_atom_site_label
_atom_site_type_symbol
_atom_site_fract_x
_atom_site_fract_y
_atom_site_fract_z
N1 N 0.1776(2) 1.07117(18) 0.22345(5)
H1 H 0.2395 1.1108 0.2198
N2 N 0.35681(18) 0.76171(18) 0.07380(5)
H2 H 0.3641 0.7093 0.0582
C1 C -0.0565(2) 1.1146(2) 0.09528(6)
C2 C -0.0843(2) 1.0036(2) 0.10479(7)
H3 H -0.1575 0.9739 0.1002
C3 C -0.0024(2) 0.9366(2) 0.12134(6)
H4 H -0.0214 0.8614 0.1278
C4 C 0.1073(2) 0.97844(19) 0.12858(5)
C5 C 0.1321(2) 1.0914(2) 0.11888(6)
H5 H 0.2047 1.1222 0.1237
C6 C 0.0504(2) 1.1594(2) 0.10208(7)
H6 H 0.0685 1.2347 0.0955
C7 C 0.1975(2) 0.8998(2) 0.14509(5)
H7 H 0.1566 0.8298 0.1526
C8 C 0.2514(2) 0.9539(2) 0.17748(5)
H8 H 0.2869 1.0277 0.1709
C9 C 0.1557(2) 0.9792(2) 0.20375(5)
C10 C 0.3433(2) 0.8807(2) 0.19521(5)
C11 C 0.3413(3) 0.7608(2) 0.19540(6)
H9 H 0.2829 0.7223 0.1836
C12 C 0.4237(3) 0.6973(3) 0.21272(8)
H10 H 0.4210 0.6168 0.2124
C13 C 0.5097(3) 0.7532(3) 0.23040(7)
H11 H 0.5651 0.7103 0.2422
C14 C 0.5151(3) 0.8725(3) 0.23088(6)
H12 H 0.5744 0.9102 0.2426
C15 C 0.4306(2) 0.9357(2) 0.21363(6)
C16 C 0.2847(2) 0.86182(19) 0.11824(5)
C17 C 0.2686(2) 0.7660(2) 0.09795(5)
C18 C 0.1771(2) 0.6762(2) 0.09845(7)
H13 H 0.1233 0.6926 0.1166
H14 H 0.2116 0.6017 0.1022
H15 H 0.1370 0.6761 0.0768
C19 C 0.3883(2) 0.9195(2) 0.10616(5)
C20 C 0.4307(2) 0.8533(2) 0.07843(5)
C21 C 0.5297(2) 0.8824(3) 0.05996(6)
H16 H 0.5554 0.8369 0.0418
C22 C 0.5879(2) 0.9808(3) 0.06963(7)
H17 H 0.6542 1.0031 0.0577
C23 C 0.5485(2) 1.0480(3) 0.09720(7)
H18 H 0.5898 1.1140 0.1034
C24 C 0.4501(2) 1.0191(2) 0.11546(6)
H19 H 0.4253 1.0651 0.1337
Cl1 Cl -0.16062(7) 1.19865(7) 0.07412(2)
O1 O 0.43075(18) 1.05507(18) 0.21426(5)
H20 H 0.4831 1.0779 0.2268
O2 O 0.10308(18) 1.10476(15) 0.24974(4)
H21 H 0.0956 1.0513 0.2634
O3 O 0.06870(17) 0.91843(16) 0.20676(4)
C25 C 0.3157(4) 0.3771(3) 0.06580(11)
H22 H 0.3714 0.4389 0.0663
H23 H 0.2943 0.3571 0.0889
H24 H 0.2482 0.4017 0.0534
C26 C 0.3658(3) 0.2774(3) 0.04908(11)
H25 H 0.4340 0.2521 0.0615
H26 H 0.3889 0.2974 0.0259
C27 C 0.2946(3) 0.1010(3) 0.02594(8)
C28 C 0.2069(3) 0.0080(3) 0.02896(9)
H27 H 0.2214 -0.0502 0.0119
H28 H 0.1310 0.0400 0.0255
H29 H 0.2113 -0.0261 0.0514
O4 O 0.2805(2) 0.18480(18) 0.04823(5)
O5 O 0.3700(3) 0.1039(2) 0.00473(7)
loop_
_geom_bond_atom_site_label_1
_geom_bond_atom_site_label_2
_geom_bond_site_symmetry_1
_geom_bond_site_symmetry_2
N1 H1 1_555 1_555
N2 H2 1_555 1_555
C1 C2 1_555 1_555
C2 H3 1_555 1_555
C3 C2 1_555 1_555
H4 C3 1_555 1_555
C4 C3 1_555 1_555
C5 C4 1_555 1_555
H5 C5 1_555 1_555
C6 C1 1_555 1_555
H6 C6 1_555 1_555
C7 C4 1_555 1_555
H7 C7 1_555 1_555
C8 C7 1_555 1_555
H8 C8 1_555 1_555
C9 N1 1_555 1_555
C10 C8 1_555 1_555
C11 C10 1_555 1_555
H9 C11 1_555 1_555
C12 C11 1_555 1_555
H10 C12 1_555 1_555
C13 C12 1_555 1_555
H11 C13 1_555 1_555
C14 C13 1_555 1_555
H12 C14 1_555 1_555
C15 C10 1_555 1_555
C16 C7 1_555 1_555
C17 N2 1_555 1_555
C18 C17 1_555 1_555
H13 C18 1_555 1_555
H14 C18 1_555 1_555
H15 C18 1_555 1_555
C19 C16 1_555 1_555
C20 N2 1_555 1_555
C21 C20 1_555 1_555
H16 C21 1_555 1_555
C22 C21 1_555 1_555
H17 C22 1_555 1_555
C23 C22 1_555 1_555
H18 C23 1_555 1_555
C24 C19 1_555 1_555
H19 C24 1_555 1_555
Cl1 C1 1_555 1_555
O1 C15 1_555 1_555
H20 O1 1_555 1_555
O2 N1 1_555 1_555
H21 O2 1_555 1_555
O3 C9 1_555 1_555
C25 H22 1_555 1_555
H23 C25 1_555 1_555
H24 C25 1_555 1_555
C26 C25 1_555 1_555
H25 C26 1_555 1_555
H26 C26 1_555 1_555
C27 C28 1_555 1_555
C28 H27 1_555 1_555
H28 C28 1_555 1_555
H29 C28 1_555 1_555
O4 C26 1_555 1_555
O5 C27 1_555 1_555
C5 C6 1_555 1_555
C8 C9 1_555 1_555
C14 C15 1_555 1_555
C16 C17 1_555 1_555
C19 C20 1_555 1_555
C23 C24 1_555 1_555
C27 O4 1_555 1_555

#END
