
#######################################################################
#
#                 Cambridge Crystallographic Data Centre
#                                CCDC 
#
#######################################################################
#
# If this CIF has been generated from an entry in the Cambridge 
# Structural Database, then it will include bibliographic, chemical, 
# crystal, experimental, refinement or atomic coordinate data resulting 
# from the CCDC's data processing and validation procedures.
#
#######################################################################

data_MUMGAE
_chemical_formula_moiety         '2(C14 H13 N1),C6 F4 I2'
_chemical_name_systematic        
'1,2,4,5-Tetrafluoro-3,6-diiodobenzene bis(9-ethyl-9H-carbazole)'
_symmetry_cell_setting           monoclinic
_symmetry_space_group_name_H-M   'P 21/c'
_symmetry_Int_Tables_number      14
_space_group_name_Hall           '-P 2ybc'
loop_
_symmetry_equiv_pos_site_id
_symmetry_equiv_pos_as_xyz
1 x,y,z
2 -x,1/2+y,1/2-z
3 -x,-y,-z
4 x,1/2-y,1/2+z
_cell_length_a                   9.582(12)
_cell_length_b                   10.589(13)
_cell_length_c                   16.976(16)
_cell_angle_alpha                90
_cell_angle_beta                 116.08(5)
_cell_angle_gamma                90
_cell_volume                     1547.07
_cell_formula_units_Z            2
loop_
_atom_site_label
_atom_site_type_symbol
_atom_site_fract_x
_atom_site_fract_y
_atom_site_fract_z
N1 N 0.2952(8) 0.8973(6) 0.6460(5)
C1 C 0.4527(10) 0.8960(6) 0.6858(5)
C2 C 0.5558(11) 0.9781(7) 0.7480(5)
H1 H 0.5212 1.0462 0.7693
C3 C 0.7117(13) 0.9538(10) 0.7766(6)
H2 H 0.7829 1.0069 0.8187
C4 C 0.7668(11) 0.8561(10) 0.7464(7)
H3 H 0.8733 0.8446 0.7669
C5 C 0.6652(12) 0.7750(8) 0.6858(6)
H4 H 0.7021 0.7070 0.6658
C6 C 0.5075(10) 0.7946(7) 0.6544(5)
C7 C 0.3733(10) 0.7299(7) 0.5921(5)
C8 C 0.3512(12) 0.6254(7) 0.5393(6)
H5 H 0.4355 0.5817 0.5393
C9 C 0.2010(16) 0.5877(8) 0.4863(6)
H6 H 0.1832 0.5174 0.4503
C10 C 0.0793(12) 0.6525(9) 0.4865(7)
H7 H -0.0207 0.6242 0.4508
C11 C 0.0966(11) 0.7574(8) 0.5367(6)
H8 H 0.0115 0.8012 0.5355
C12 C 0.2457(10) 0.7947(7) 0.5890(6)
C13 C 0.1989(11) 0.9825(8) 0.6637(6)
H9 H 0.1040 0.9960 0.6105
H10 H 0.2516 1.0631 0.6815
C14 C 0.1589(12) 0.9358(10) 0.7334(7)
H11 H 0.1104 0.8545 0.7171
H12 H 0.0887 0.9939 0.7408
H13 H 0.2518 0.9288 0.7874
I1 I 0.59434(8) 0.75981(5) 0.91074(4)
F1 F 0.2708(5) 0.6436(4) 0.8831(3)
F2 F 0.1999(5) 0.4454(4) 0.9508(3)
C15 C 0.5400(11) 0.6061(6) 0.9641(5)
C16 C 0.3870(10) 0.5724(6) 0.9411(5)
C17 C 0.3506(10) 0.4695(7) 0.9771(6)
I1B I 0.40566(8) 0.24019(5) 1.08926(4)
F1B F 0.7292(5) 0.3564(4) 1.1169(3)
F2B F 0.8001(5) 0.5546(4) 1.0492(3)
C15B C 0.4600(11) 0.3939(6) 1.0359(5)
C16B C 0.6130(10) 0.4276(6) 1.0589(5)
C17B C 0.6494(10) 0.5305(7) 1.0229(6)
loop_
_geom_bond_atom_site_label_1
_geom_bond_atom_site_label_2
_geom_bond_site_symmetry_1
_geom_bond_site_symmetry_2
N1 C1 1_555 1_555
C1 C2 1_555 1_555
C2 H1 1_555 1_555
C3 C2 1_555 1_555
H2 C3 1_555 1_555
C4 C3 1_555 1_555
H3 C4 1_555 1_555
C5 C4 1_555 1_555
H4 C5 1_555 1_555
C6 C1 1_555 1_555
C7 C6 1_555 1_555
C8 C7 1_555 1_555
H5 C8 1_555 1_555
C9 C8 1_555 1_555
H6 C9 1_555 1_555
C10 C9 1_555 1_555
H7 C10 1_555 1_555
C11 C10 1_555 1_555
H8 C11 1_555 1_555
C12 N1 1_555 1_555
C13 N1 1_555 1_555
H9 C13 1_555 1_555
H10 C13 1_555 1_555
C14 C13 1_555 1_555
H11 C14 1_555 1_555
H12 C14 1_555 1_555
H13 C14 1_555 1_555
I1 C15 1_555 1_555
F1 C16 1_555 1_555
F2 C17 1_555 1_555
C15 C16 1_555 1_555
C16 C17 1_555 1_555
C17 C15B 1_555 1_555
I1B C15B 1_555 1_555
F1B C16B 1_555 1_555
F2B C17B 1_555 1_555
C15B C16B 1_555 1_555
C16B C17B 1_555 1_555
C17B C15 1_555 1_555
C5 C6 1_555 1_555
C7 C12 1_555 1_555
C11 C12 1_555 1_555

#END
