
#######################################################################
#
#                 Cambridge Crystallographic Data Centre
#                                CCDC 
#
#######################################################################
#
# If this CIF has been generated from an entry in the Cambridge 
# Structural Database, then it will include bibliographic, chemical, 
# crystal, experimental, refinement or atomic coordinate data resulting 
# from the CCDC's data processing and validation procedures.
#
#######################################################################

data_MUMHEI
_chemical_formula_moiety         'C25 H32 O4'
_chemical_name_systematic        
(1R*,2S*,R*~a~)-5-Ethyl-2-phenyl-1-(3,4,5-trimethoxyphenyl)octa-3,4-dien-1-ol
_symmetry_cell_setting           triclinic
_symmetry_space_group_name_H-M   'P -1'
_symmetry_Int_Tables_number      2
_space_group_name_Hall           '-P 1'
loop_
_symmetry_equiv_pos_site_id
_symmetry_equiv_pos_as_xyz
1 x,y,z
2 -x,-y,-z
_cell_length_a                   8.7724(10)
_cell_length_b                   9.0521(10)
_cell_length_c                   15.5733(17)
_cell_angle_alpha                85.833(2)
_cell_angle_beta                 81.050(2)
_cell_angle_gamma                74.247(2)
_cell_volume                     1175.11
_exptl_crystal_colour            colorless
_exptl_crystal_description       prismatic
_cell_formula_units_Z            2
loop_
_atom_site_label
_atom_site_type_symbol
_atom_site_fract_x
_atom_site_fract_y
_atom_site_fract_z
O1 O -0.2076(2) 0.7876(2) 0.36036(15)
O2 O 0.1092(3) 0.1050(2) 0.40454(15)
O3 O 0.3392(2) 0.2025(2) 0.45707(13)
O4 O 0.3353(2) 0.4993(3) 0.44525(13)
C1 C -0.0359(3) 0.3667(3) 0.36798(16)
H1 H -0.1177 0.3339 0.3505
C2 C 0.0935(4) 0.2605(3) 0.39652(17)
C3 C 0.2155(3) 0.3082(3) 0.42231(17)
C4 C 0.2088(3) 0.4629(3) 0.41829(16)
C5 C 0.0788(3) 0.5688(3) 0.39059(16)
H2 H 0.0741 0.6728 0.3889
C6 C -0.0441(3) 0.5219(3) 0.36542(15)
C7 C -0.1864(3) 0.6364(3) 0.33284(17)
C8 C -0.1678(3) 0.6446(3) 0.23290(17)
C9 C -0.0188(3) 0.6925(3) 0.19534(19)
H3 H -0.0001 0.7765 0.2188
C10 C 0.0856(4) 0.6235(4) 0.1319(2)
C11 C 0.1892(4) 0.5525(4) 0.0689(2)
C12 C 0.3268(4) 0.4178(5) 0.0857(2)
H4 H 0.4257 0.4447 0.0636
H5 H 0.3231 0.3324 0.0525
C13 C 0.3320(4) 0.3642(5) 0.1792(2)
H6 H 0.3332 0.4480 0.2133
H7 H 0.4268 0.2822 0.1834
H8 H 0.2393 0.3283 0.2006
C14 C 0.1778(4) 0.6033(5) -0.0252(2)
H9 H 0.2845 0.6007 -0.0544
H10 H 0.1407 0.5291 -0.0524
C15 C 0.0707(5) 0.7593(5) -0.0405(2)
H11 H 0.1031 0.8339 -0.0108
H12 H -0.0380 0.7608 -0.0154
C16 C 0.0733(6) 0.8064(5) -0.1350(3)
H13 H 0.1819 0.7958 -0.1617
H14 H 0.0129 0.9115 -0.1405
H15 H 0.0269 0.7421 -0.1633
C17 C -0.3169(3) 0.7407(3) 0.19882(18)
C18 C -0.4524(4) 0.6915(4) 0.2105(2)
H16 H -0.4524 0.5989 0.2405
C19 C -0.5907(5) 0.7760(7) 0.1788(3)
H17 H -0.6821 0.7404 0.1887
C20 C -0.5933(6) 0.9091(7) 0.1337(3)
H18 H -0.6861 0.9663 0.1128
C21 C -0.4584(6) 0.9586(5) 0.1191(3)
H19 H -0.4583 1.0495 0.0871
C22 C -0.3211(4) 0.8753(4) 0.1514(2)
H20 H -0.2298 0.9112 0.1407
C23 C -0.0033(6) 0.0461(4) 0.3730(3)
H21 H -0.1086 0.0938 0.4016
H22 H 0.0207 -0.0629 0.3844
H23 H 0.0011 0.0670 0.3114
C24 C 0.4670(4) 0.1264(4) 0.3944(2)
H24 H 0.4293 0.0632 0.3602
H25 H 0.5518 0.0633 0.4235
H26 H 0.5062 0.2012 0.3571
C25 C 0.3354(4) 0.6560(4) 0.4436(2)
H27 H 0.3362 0.6967 0.3849
H28 H 0.4288 0.6649 0.4655
H29 H 0.2413 0.7127 0.4792
H30 H -0.247(4) 0.781(4) 0.416(2)
H31 H -0.280(2) 0.594(2) 0.3545(12)
H32 H -0.152(3) 0.544(3) 0.2137(14)
loop_
_geom_bond_atom_site_label_1
_geom_bond_atom_site_label_2
_geom_bond_site_symmetry_1
_geom_bond_site_symmetry_2
O1 C7 1_555 1_555
O2 C2 1_555 1_555
O3 C3 1_555 1_555
O4 C4 1_555 1_555
C1 H1 1_555 1_555
C2 C1 1_555 1_555
C3 C2 1_555 1_555
C4 C3 1_555 1_555
C5 C4 1_555 1_555
H2 C5 1_555 1_555
C6 C1 1_555 1_555
C7 C6 1_555 1_555
C8 C7 1_555 1_555
C9 C8 1_555 1_555
H3 C9 1_555 1_555
C10 C9 1_555 1_555
C11 C10 1_555 1_555
C12 C11 1_555 1_555
H4 C12 1_555 1_555
H5 C12 1_555 1_555
C13 C12 1_555 1_555
H6 C13 1_555 1_555
H7 C13 1_555 1_555
H8 C13 1_555 1_555
C14 C11 1_555 1_555
H9 C14 1_555 1_555
H10 C14 1_555 1_555
C15 C14 1_555 1_555
H11 C15 1_555 1_555
H12 C15 1_555 1_555
C16 C15 1_555 1_555
H13 C16 1_555 1_555
H14 C16 1_555 1_555
H15 C16 1_555 1_555
C17 C8 1_555 1_555
C18 C17 1_555 1_555
H16 C18 1_555 1_555
C19 C18 1_555 1_555
H17 C19 1_555 1_555
C20 C19 1_555 1_555
H18 C20 1_555 1_555
C21 C20 1_555 1_555
H19 C21 1_555 1_555
C22 C17 1_555 1_555
H20 C22 1_555 1_555
C23 O2 1_555 1_555
H21 C23 1_555 1_555
H22 C23 1_555 1_555
H23 C23 1_555 1_555
C24 O3 1_555 1_555
H24 C24 1_555 1_555
H25 C24 1_555 1_555
H26 C24 1_555 1_555
C25 O4 1_555 1_555
H27 C25 1_555 1_555
H28 C25 1_555 1_555
H29 C25 1_555 1_555
H30 O1 1_555 1_555
H31 C7 1_555 1_555
H32 C8 1_555 1_555
C5 C6 1_555 1_555
C21 C22 1_555 1_555

#END
