
#######################################################################
#
#                 Cambridge Crystallographic Data Centre
#                                CCDC 
#
#######################################################################
#
# If this CIF has been generated from an entry in the Cambridge 
# Structural Database, then it will include bibliographic, chemical, 
# crystal, experimental, refinement or atomic coordinate data resulting 
# from the CCDC's data processing and validation procedures.
#
#######################################################################

data_MUMHIM
_chemical_formula_moiety         'C24 H29 Cl1 O1'
_chemical_name_systematic        
(1R*,2R*,R*~a~)-1-(4-Chlorophenyl)-5-ethyl-2-phenyldeca-3,4-dien-1-ol
_symmetry_cell_setting           monoclinic
_symmetry_space_group_name_H-M   'P 21/c'
_symmetry_Int_Tables_number      14
_space_group_name_Hall           '-P 2ybc'
loop_
_symmetry_equiv_pos_site_id
_symmetry_equiv_pos_as_xyz
1 x,y,z
2 -x,1/2+y,1/2-z
3 -x,-y,-z
4 x,1/2-y,1/2+z
_cell_length_a                   16.892(3)
_cell_length_b                   5.2980(9)
_cell_length_c                   25.513(5)
_cell_angle_alpha                90
_cell_angle_beta                 108.086(4)
_cell_angle_gamma                90
_cell_volume                     2170.44
_exptl_crystal_colour            colorless
_exptl_crystal_description       prismatic
_cell_formula_units_Z            4
loop_
_atom_site_label
_atom_site_type_symbol
_atom_site_fract_x
_atom_site_fract_y
_atom_site_fract_z
Cl1 Cl 0.14105(6) 0.4238(3) 0.03577(4)
O1 O 0.47507(10) 0.5444(4) 0.25597(7)
C1 C 0.39184(15) 0.5615(5) 0.25972(11)
C2 C 0.38194(15) 0.3890(5) 0.30554(11)
C3 C 0.29717(17) 0.4358(7) 0.31368(12)
C4 C 0.24612(17) 0.2608(6) 0.31872(11)
C5 C 0.19447(17) 0.0914(6) 0.32581(13)
C6 C 0.2043(2) -0.0184(6) 0.38282(14)
H1 H 0.1527 0.0085 0.3912
H2 H 0.2123 -0.1992 0.3813
C7 C 0.2744(2) 0.0874(8) 0.42930(15)
H3 H 0.3261 0.0631 0.4216
H4 H 0.2766 0.0024 0.4629
H5 H 0.2654 0.2645 0.4330
C8 C 0.12384(18) -0.0112(6) 0.27990(14)
H6 H 0.0743 -0.0090 0.2915
H7 H 0.1359 -0.1862 0.2742
C9 C 0.10424(16) 0.1253(6) 0.22506(13)
H8 H 0.0883 0.2976 0.2299
H9 H 0.1543 0.1318 0.2141
C10 C 0.03597(18) 0.0048(6) 0.17949(14)
H10 H -0.0143 0.0011 0.1903
H11 H 0.0515 -0.1685 0.1753
C11 C 0.01671(19) 0.1346(7) 0.12451(15)
H12 H 0.0681 0.1531 0.1155
H13 H -0.0040 0.3027 0.1279
C12 C -0.0465(2) 0.0001(8) 0.07703(17)
H14 H -0.0275 -0.1682 0.0738
H15 H -0.0528 0.0906 0.0434
H16 H -0.0992 -0.0071 0.0840
C13 C 0.32810(15) 0.5201(5) 0.20426(11)
C14 C 0.26174(18) 0.6844(6) 0.18493(14)
H17 H 0.2559 0.8184 0.2070
C15 C 0.2042(2) 0.6531(8) 0.13376(17)
H18 H 0.1597 0.7643 0.1216
C16 C 0.21262(19) 0.4600(8) 0.10114(13)
C17 C 0.27660(19) 0.2937(6) 0.11930(14)
H19 H 0.2815 0.1589 0.0972
C18 C 0.33418(16) 0.3256(6) 0.17055(13)
H20 H 0.3782 0.2123 0.1825
C19 C 0.45190(17) 0.4241(5) 0.35878(11)
C20 C 0.51746(18) 0.2578(6) 0.37364(12)
H21 H 0.5178 0.1212 0.3508
C21 C 0.5825(2) 0.2881(8) 0.42140(14)
H22 H 0.6264 0.1734 0.4304
C22 C 0.5831(3) 0.4844(8) 0.45540(14)
H23 H 0.6264 0.5024 0.4882
C23 C 0.5194(3) 0.6568(8) 0.44121(16)
H24 H 0.5202 0.7948 0.4639
C24 C 0.4544(2) 0.6254(6) 0.39333(14)
H25 H 0.4112 0.7425 0.3841
H26 H 0.3902(11) 0.745(4) 0.2716(8)
H27 H 0.3795(11) 0.210(4) 0.2928(8)
H28 H 0.2841(13) 0.614(3) 0.3175(9)
H29 H 0.4886(18) 0.372(6) 0.2543(12)
loop_
_geom_bond_atom_site_label_1
_geom_bond_atom_site_label_2
_geom_bond_site_symmetry_1
_geom_bond_site_symmetry_2
Cl1 C16 1_555 1_555
O1 C1 1_555 1_555
C1 C2 1_555 1_555
C2 C3 1_555 1_555
C3 C4 1_555 1_555
C4 C5 1_555 1_555
C5 C6 1_555 1_555
C6 H1 1_555 1_555
H2 C6 1_555 1_555
C7 C6 1_555 1_555
H3 C7 1_555 1_555
H4 C7 1_555 1_555
H5 C7 1_555 1_555
C8 C5 1_555 1_555
H6 C8 1_555 1_555
H7 C8 1_555 1_555
C9 C8 1_555 1_555
H8 C9 1_555 1_555
H9 C9 1_555 1_555
C10 C9 1_555 1_555
H10 C10 1_555 1_555
H11 C10 1_555 1_555
C11 C10 1_555 1_555
H12 C11 1_555 1_555
H13 C11 1_555 1_555
C12 C11 1_555 1_555
H14 C12 1_555 1_555
H15 C12 1_555 1_555
H16 C12 1_555 1_555
C13 C1 1_555 1_555
C14 C13 1_555 1_555
H17 C14 1_555 1_555
C15 C14 1_555 1_555
H18 C15 1_555 1_555
C16 C15 1_555 1_555
C17 C16 1_555 1_555
H19 C17 1_555 1_555
C18 C13 1_555 1_555
H20 C18 1_555 1_555
C19 C2 1_555 1_555
C20 C19 1_555 1_555
H21 C20 1_555 1_555
C21 C20 1_555 1_555
H22 C21 1_555 1_555
C22 C21 1_555 1_555
H23 C22 1_555 1_555
C23 C22 1_555 1_555
H24 C23 1_555 1_555
C24 C19 1_555 1_555
H25 C24 1_555 1_555
H26 C1 1_555 1_555
H27 C2 1_555 1_555
H28 C3 1_555 1_555
H29 O1 1_555 1_555
C17 C18 1_555 1_555
C23 C24 1_555 1_555

#END
