
#######################################################################
#
#                 Cambridge Crystallographic Data Centre
#                                CCDC 
#
#######################################################################
#
# If this CIF has been generated from an entry in the Cambridge 
# Structural Database, then it will include bibliographic, chemical, 
# crystal, experimental, refinement or atomic coordinate data resulting 
# from the CCDC's data processing and validation procedures.
#
#######################################################################

data_MUMJIP
_chemical_formula_moiety         'C18 H26 Br4 O2'
_chemical_name_systematic        1,4-dibromo-2,5-bis((6-bromohexyl)oxy)benzene
_symmetry_cell_setting           triclinic
_symmetry_space_group_name_H-M   'P -1'
_symmetry_Int_Tables_number      2
_space_group_name_Hall           '-P 1'
loop_
_symmetry_equiv_pos_site_id
_symmetry_equiv_pos_as_xyz
1 x,y,z
2 -x,-y,-z
_cell_length_a                   8.0564(19)
_cell_length_b                   8.5752(13)
_cell_length_c                   9.5028(13)
_cell_angle_alpha                66.877(14)
_cell_angle_beta                 87.324(16)
_cell_angle_gamma                66.414(19)
_cell_volume                     548.553
_exptl_crystal_description       needle
_cell_formula_units_Z            1
loop_
_atom_site_label
_atom_site_type_symbol
_atom_site_fract_x
_atom_site_fract_y
_atom_site_fract_z
Br1 Br 0.45155(12) 0.27316(11) 0.85503(9)
Br2 Br -0.26296(14) 1.77522(11) 0.79006(11)
O1 O 0.3260(8) 0.6818(7) 0.6849(6)
C1 C 0.4770(9) 0.4065(10) 0.6497(8)
C2 C 0.5653(9) 0.3094(9) 0.5635(8)
C3 C 0.4101(9) 0.5986(10) 0.5900(8)
C4 C -0.0104(10) 1.2285(10) 0.8042(9)
C5 C -0.1908(11) 1.5091(10) 0.8574(9)
C6 C 0.1663(11) 0.9441(10) 0.7447(9)
C7 C -0.0824(10) 1.4384(10) 0.7454(9)
C8 C 0.2569(10) 0.8828(9) 0.6203(9)
C9 C 0.0900(10) 1.1549(10) 0.6849(9)
H1 H 0.6099(9) 0.1800(9) 0.6073(8)
H2 H 0.0732(10) 1.1709(10) 0.8984(9)
H3 H -0.1115(10) 1.1924(10) 0.8289(9)
H4 H -0.1179(11) 1.4429(10) 0.9580(9)
H5 H -0.2991(11) 1.4842(10) 0.8674(9)
H6 H 0.0684(11) 0.9037(10) 0.7736(9)
H7 H 0.2548(11) 0.8871(10) 0.8356(9)
H8 H 0.0194(10) 1.4740(10) 0.7279(9)
H9 H -0.1593(10) 1.4961(10) 0.6475(9)
H10 H 0.3560(10) 0.9213(9) 0.5914(9)
H11 H 0.1691(10) 0.9379(9) 0.5293(9)
H12 H 0.0056(10) 1.2104(10) 0.5916(9)
H13 H 0.1892(10) 1.1936(10) 0.6584(9)
Br1A Br 0.54845(12) 0.72684(11) 0.14497(9)
Br2A Br 1.26296(14) -0.77522(11) 0.20994(11)
O1A O 0.6740(8) 0.3182(7) 0.3151(6)
C1A C 0.5230(9) 0.5935(10) 0.3503(8)
C2A C 0.4347(9) 0.6906(9) 0.4365(8)
C3A C 0.5899(9) 0.4014(10) 0.4100(8)
C4A C 1.0104(10) -0.2285(10) 0.1958(9)
C5A C 1.1908(11) -0.5091(10) 0.1426(9)
C6A C 0.8337(11) 0.0559(10) 0.2553(9)
C7A C 1.0824(10) -0.4384(10) 0.2546(9)
C8A C 0.7431(10) 0.1172(9) 0.3797(9)
C9A C 0.9100(10) -0.1549(10) 0.3151(9)
H1A H 0.3901(9) 0.8200(9) 0.3927(8)
H2A H 0.9268(10) -0.1709(10) 0.1016(9)
H3A H 1.1115(10) -0.1924(10) 0.1711(9)
H4A H 1.1179(11) -0.4429(10) 0.0420(9)
H5A H 1.2991(11) -0.4842(10) 0.1326(9)
H6A H 0.9316(11) 0.0963(10) 0.2264(9)
H7A H 0.7452(11) 0.1129(10) 0.1644(9)
H8A H 0.9806(10) -0.4740(10) 0.2721(9)
H9A H 1.1593(10) -0.4961(10) 0.3525(9)
H10A H 0.6440(10) 0.0787(9) 0.4086(9)
H11A H 0.8309(10) 0.0621(9) 0.4707(9)
H12A H 0.9944(10) -0.2104(10) 0.4084(9)
H13A H 0.8108(10) -0.1936(10) 0.3416(9)
loop_
_geom_bond_atom_site_label_1
_geom_bond_atom_site_label_2
_geom_bond_site_symmetry_1
_geom_bond_site_symmetry_2
Br1 C1 1_555 1_555
Br2 C5 1_555 1_555
O1 C3 1_555 1_555
C1 C2 1_555 1_555
C2 H1 1_555 1_555
C3 C1 1_555 1_555
C4 C7 1_555 1_555
C5 C7 1_555 1_555
C6 C8 1_555 1_555
C7 H8 1_555 1_555
C8 O1 1_555 1_555
C9 C4 1_555 1_555
H2 C4 1_555 1_555
H3 C4 1_555 1_555
H4 C5 1_555 1_555
H5 C5 1_555 1_555
H6 C6 1_555 1_555
H7 C6 1_555 1_555
H9 C7 1_555 1_555
H10 C8 1_555 1_555
H11 C8 1_555 1_555
H12 C9 1_555 1_555
H13 C9 1_555 1_555
Br1A C1A 1_555 1_555
Br2A C5A 1_555 1_555
O1A C3A 1_555 1_555
C1A C2A 1_555 1_555
C2A C3 1_555 1_555
C3A C2 1_555 1_555
C4A C7A 1_555 1_555
C5A C7A 1_555 1_555
C6A C8A 1_555 1_555
C7A H8A 1_555 1_555
C8A O1A 1_555 1_555
C9A C4A 1_555 1_555
H1A C2A 1_555 1_555
H2A C4A 1_555 1_555
H3A C4A 1_555 1_555
H4A C5A 1_555 1_555
H5A C5A 1_555 1_555
H6A C6A 1_555 1_555
H7A C6A 1_555 1_555
H9A C7A 1_555 1_555
H10A C8A 1_555 1_555
H11A C8A 1_555 1_555
H12A C9A 1_555 1_555
H13A C9A 1_555 1_555
C6 C9 1_555 1_555
C1A C3A 1_555 1_555
C6A C9A 1_555 1_555

#END
