
#######################################################################
#
#                 Cambridge Crystallographic Data Centre
#                                CCDC 
#
#######################################################################
#
# If this CIF has been generated from an entry in the Cambridge 
# Structural Database, then it will include bibliographic, chemical, 
# crystal, experimental, refinement or atomic coordinate data resulting 
# from the CCDC's data processing and validation procedures.
#
#######################################################################

data_MUMKAI
_chemical_formula_moiety         'C11 H14 N2 O3 S1'
_chemical_name_systematic        N-(4-(Azetidin-1-ylsulfonyl)phenyl)acetamide
_symmetry_cell_setting           monoclinic
_symmetry_space_group_name_H-M   'C c'
_symmetry_Int_Tables_number      9
_space_group_name_Hall           'C -2yc'
loop_
_symmetry_equiv_pos_site_id
_symmetry_equiv_pos_as_xyz
1 x,y,z
2 x,-y,1/2+z
3 1/2+x,1/2+y,z
4 1/2+x,1/2-y,1/2+z
_cell_length_a                   12.9357(16)
_cell_length_b                   19.6992(7)
_cell_length_c                   7.3342(9)
_cell_angle_alpha                90
_cell_angle_beta                 139.81(3)
_cell_angle_gamma                90
_cell_volume                     1206.06
_cell_formula_units_Z            4
loop_
_atom_site_label
_atom_site_type_symbol
_atom_site_fract_x
_atom_site_fract_y
_atom_site_fract_z
S1 S 0.44786(10) 0.65749(4) 0.67560(16)
O1 O 0.5619(4) 0.60747(16) 0.7736(7)
O2 O 0.4914(4) 0.70737(16) 0.8665(7)
O3 O -0.0911(4) 0.40595(14) 0.1436(9)
N1 N 0.3974(4) 0.69875(16) 0.4242(8)
N2 N -0.1459(4) 0.51742(17) 0.1160(7)
H1 H -0.204(6) 0.547(2) 0.083(10)
C1 C 0.3132(6) 0.6664(2) 0.1537(10)
H2 H 0.2480 0.6276 0.0993
H3 H 0.3828 0.6558 0.1454
C2 C 0.2189(7) 0.7318(3) 0.0032(11)
H4 H 0.1037 0.7253 -0.1543
H5 H 0.2540 0.7593 -0.0517
C3 C 0.2827(6) 0.7558(2) 0.2726(10)
H6 H 0.3330 0.8001 0.3364
H7 H 0.2050 0.7531 0.2659
C4 C 0.1149(5) 0.51337(18) 0.3127(8)
H8 H 0.1002 0.4679 0.2632
C5 C 0.2520(4) 0.54705(18) 0.4421(8)
H9 H 0.3276 0.5246 0.4731
C6 C 0.2771(4) 0.61409(17) 0.5258(8)
C7 C 0.1636(5) 0.64861(16) 0.4765(9)
H10 H 0.1807 0.6936 0.5331
C8 C 0.0245(5) 0.61523(17) 0.3420(9)
H11 H -0.0519 0.6379 0.3085
C9 C -0.0006(4) 0.54783(18) 0.2571(8)
C10 C -0.1834(5) 0.4497(2) 0.0646(9)
C11 C -0.3500(6) 0.4342(2) -0.0950(11)
H12 H -0.3473 0.4229 0.0359
H13 H -0.3923 0.3966 -0.2198
H14 H -0.4169 0.4733 -0.2032
loop_
_geom_bond_atom_site_label_1
_geom_bond_atom_site_label_2
_geom_bond_site_symmetry_1
_geom_bond_site_symmetry_2
S1 O1 1_555 1_555
O2 S1 1_555 1_555
O3 C10 1_555 1_555
N1 S1 1_555 1_555
N2 H1 1_555 1_555
C1 N1 1_555 1_555
H2 C1 1_555 1_555
H3 C1 1_555 1_555
C2 C1 1_555 1_555
H4 C2 1_555 1_555
H5 C2 1_555 1_555
C3 N1 1_555 1_555
H6 C3 1_555 1_555
H7 C3 1_555 1_555
C4 H8 1_555 1_555
C5 C4 1_555 1_555
H9 C5 1_555 1_555
C6 S1 1_555 1_555
C7 C6 1_555 1_555
H10 C7 1_555 1_555
C8 C7 1_555 1_555
H11 C8 1_555 1_555
C9 N2 1_555 1_555
C10 N2 1_555 1_555
C11 C10 1_555 1_555
H12 C11 1_555 1_555
H13 C11 1_555 1_555
H14 C11 1_555 1_555
C2 C3 1_555 1_555
C4 C9 1_555 1_555
C5 C6 1_555 1_555
C8 C9 1_555 1_555

#END
