
#######################################################################
#
#                 Cambridge Crystallographic Data Centre
#                                CCDC 
#
#######################################################################
#
# If this CIF has been generated from an entry in the Cambridge 
# Structural Database, then it will include bibliographic, chemical, 
# crystal, experimental, refinement or atomic coordinate data resulting 
# from the CCDC's data processing and validation procedures.
#
#######################################################################

data_MUMKAH
_chemical_name_common            
'Di-t-butyl 2,8,14,20,25,27-hexaazapentacyclo[19.3.1.1$3,7!.1$9,13!.1$15,19!]octacosa-1(25),3(28),4,6,9(27),10,12,15(26),16,18,21,23-dodecaene-2,8-dicarboxylate'
_chemical_formula_moiety         'C32 H34 N6 O4'
_chemical_name_systematic        
2,8-bis(t-Butoxycarbonyl)-2,8,14,20-tetra-aza-calix(2)arene(2)pyridine
_symmetry_cell_setting           monoclinic
_symmetry_space_group_name_H-M   'P 21/c'
_symmetry_Int_Tables_number      14
_space_group_name_Hall           '-P 2ybc'
loop_
_symmetry_equiv_pos_site_id
_symmetry_equiv_pos_as_xyz
1 x,y,z
2 -x,1/2+y,1/2-z
3 -x,-y,-z
4 x,1/2-y,1/2+z
_cell_length_a                   9.4503(19)
_cell_length_b                   25.929(5)
_cell_length_c                   23.646(5)
_cell_angle_alpha                90
_cell_angle_beta                 96.66(3)
_cell_angle_gamma                90
_cell_volume                     5755.04
_exptl_crystal_colour            brown
_exptl_crystal_description       'thin plate'
_chemical_melting_point          '233-234 deg.C'
_cell_formula_units_Z            8
loop_
_atom_site_label
_atom_site_type_symbol
_atom_site_fract_x
_atom_site_fract_y
_atom_site_fract_z
O1 O 0.28970(16) 0.97748(8) 0.36508(7)
O2 O 0.12316(16) 0.95291(8) 0.42192(7)
O3 O -0.24534(18) 1.05538(7) 0.06712(7)
O4 O -0.15592(18) 0.97511(7) 0.08411(7)
N1 N -0.17753(19) 0.98188(8) 0.33916(8)
N2 N 0.06119(18) 0.96130(8) 0.32870(8)
N3 N -0.0838(2) 1.03888(8) 0.14377(7)
N4 N -0.17030(19) 1.10189(8) 0.20266(7)
N5 N -0.2601(2) 1.16462(8) 0.26093(8)
H1 H -0.2665 1.1974 0.2657
N6 N -0.4160(2) 1.00386(9) 0.34570(9)
H2 H -0.4986 0.9921 0.3508
C1 C -0.3128(2) 0.96709(10) 0.34364(9)
C2 C -0.3510(2) 0.91502(11) 0.34712(10)
H5 H -0.4448 0.9058 0.3504
C3 C -0.2494(3) 0.87827(11) 0.34566(11)
H6 H -0.2728 0.8436 0.3482
C4 C -0.1090(3) 0.89286(11) 0.34024(11)
H7 H -0.0374 0.8685 0.3385
C5 C -0.0819(2) 0.94454(10) 0.33760(9)
C6 C -0.0066(2) 0.99960(9) 0.23548(9)
H8 H -0.0799 1.0169 0.2505
C7 C 0.0869(2) 0.96895(9) 0.27032(10)
C8 C 0.1981(2) 0.94416(10) 0.24841(11)
H9 H 0.2634 0.9248 0.2720
C9 C 0.2109(3) 0.94853(11) 0.19100(11)
H10 H 0.2835 0.9309 0.1759
C10 C 0.1181(2) 0.97847(10) 0.15566(10)
H11 H 0.1284 0.9812 0.1171
C11 C 0.0093(2) 1.00451(9) 0.17817(9)
C12 C -0.0886(2) 1.09202(9) 0.16096(9)
C13 C -0.0137(2) 1.12807(11) 0.13456(10)
H12 H 0.0424 1.1188 0.1064
C14 C -0.0244(3) 1.17876(11) 0.15130(11)
H13 H 0.0240 1.2046 0.1341
C15 C -0.1067(3) 1.19080(10) 0.19328(10)
H14 H -0.1157 1.2248 0.2048
C16 C -0.1775(2) 1.15087(10) 0.21878(9)
C17 C -0.3268(2) 1.08261(10) 0.30349(10)
H15 H -0.2671 1.0635 0.2829
C18 C -0.3349(2) 1.13572(10) 0.29728(9)
C19 C -0.4238(2) 1.16401(11) 0.32955(10)
H16 H -0.4292 1.1997 0.3260
C20 C -0.5028(3) 1.13895(12) 0.36631(11)
H17 H -0.5614 1.1580 0.3874
C21 C -0.4968(2) 1.08642(12) 0.37249(10)
H18 H -0.5509 1.0699 0.3975
C22 C -0.4086(2) 1.05794(11) 0.34078(10)
C23 C 0.1693(2) 0.96467(10) 0.37246(10)
C24 C 0.2240(2) 0.95012(11) 0.47482(10)
C25 C 0.1290(3) 0.93376(14) 0.51841(11)
H19 H 0.1841 0.9313 0.5551
H20 H 0.0877 0.9008 0.5081
H21 H 0.0546 0.9588 0.5199
C26 C 0.2854(3) 1.00265(13) 0.48992(12)
H22 H 0.3501 1.0003 0.5243
H23 H 0.2098 1.0261 0.4956
H24 H 0.3355 1.0150 0.4595
C27 C 0.3382(4) 0.91099(15) 0.46820(12)
H25 H 0.4036 0.9098 0.5024
H26 H 0.3883 0.9205 0.4367
H27 H 0.2955 0.8776 0.4612
C28 C -0.1690(2) 1.02499(10) 0.09480(9)
C29 C -0.2449(3) 0.95137(12) 0.03520(11)
C30 C -0.1939(5) 0.89683(15) 0.03684(15)
H28 H -0.0946 0.8961 0.0317
H29 H -0.2473 0.8776 0.0069
H30 H -0.2069 0.8818 0.0730
C31 C -0.2170(3) 0.97738(14) -0.01975(11)
H31 H -0.1174 0.9751 -0.0240
H32 H -0.2444 1.0130 -0.0188
H33 H -0.2714 0.9606 -0.0513
C32 C -0.4003(3) 0.95398(14) 0.04542(13)
H34 H -0.4118 0.9383 0.0814
H35 H -0.4575 0.9359 0.0155
H36 H -0.4300 0.9894 0.0458
O5 O 0.77945(16) 0.28100(8) 0.33163(7)
O6 O 0.62404(17) 0.31724(7) 0.38708(7)
O7 O 0.22411(17) 0.19176(7) 0.05957(6)
O8 O 0.32542(16) 0.27141(7) 0.06239(6)
N7 N 0.32271(19) 0.28801(8) 0.30702(8)
N8 N 0.56069(19) 0.30845(8) 0.29436(8)
N9 N 0.41763(19) 0.21058(7) 0.12226(7)
N10 N 0.33902(19) 0.15358(8) 0.18972(7)
N11 N 0.2622(2) 0.09743(9) 0.25783(8)
H3 H 0.2628 0.0657 0.2684
N12 N 0.0844(2) 0.26562(10) 0.31446(9)
H4 H -0.0008 0.2772 0.3145
C33 C 0.1866(2) 0.30257(11) 0.31038(9)
C34 C 0.1471(3) 0.35490(12) 0.30980(11)
H37 H 0.0530 0.3642 0.3123
C35 C 0.2474(3) 0.39161(12) 0.30551(12)
H38 H 0.2224 0.4263 0.3056
C36 C 0.3889(3) 0.37732(11) 0.30090(11)
H39 H 0.4594 0.4017 0.2972
C37 C 0.4174(2) 0.32556(10) 0.30210(9)
C38 C 0.4927(2) 0.26033(9) 0.20697(9)
H40 H 0.4194 0.2453 0.2243
C39 C 0.5850(2) 0.29491(9) 0.23693(9)
C40 C 0.6955(2) 0.31685(10) 0.21170(10)
H41 H 0.7596 0.3390 0.2322
C41 C 0.7094(2) 0.30534(11) 0.15550(10)
H42 H 0.7816 0.3208 0.1380
C42 C 0.6180(2) 0.27127(10) 0.12501(10)
H43 H 0.6286 0.2638 0.0873
C43 C 0.5102(2) 0.24833(9) 0.15111(9)
C44 C 0.4169(2) 0.15940(9) 0.14650(9)
C45 C 0.4975(2) 0.12173(10) 0.12531(10)
H44 H 0.5512 0.1283 0.0956
C46 C 0.4954(3) 0.07338(10) 0.15019(11)
H45 H 0.5477 0.0465 0.1369
C47 C 0.4174(2) 0.06530(10) 0.19388(10)
H46 H 0.4151 0.0330 0.2108
C48 C 0.3400(2) 0.10665(10) 0.21310(9)
C49 C 0.1822(2) 0.18297(11) 0.28581(10)
H47 H 0.2385 0.1996 0.2617
C50 C 0.1826(2) 0.12966(11) 0.28930(10)
C51 C 0.1011(3) 0.10532(12) 0.32728(10)
H48 H 0.1041 0.0696 0.3310
C52 C 0.0169(3) 0.13371(14) 0.35908(10)
H49 H -0.0381 0.1171 0.3837
C53 C 0.0130(3) 0.18654(13) 0.35495(10)
H50 H -0.0454 0.2056 0.3762
C54 C 0.0974(2) 0.21157(11) 0.31861(10)
C55 C 0.6650(2) 0.30098(10) 0.33836(10)
C56 C 0.7141(2) 0.30722(12) 0.44186(10)
C57 C 0.7161(3) 0.24949(12) 0.45258(12)
H51 H 0.7709 0.2328 0.4261
H52 H 0.6204 0.2364 0.4476
H53 H 0.7583 0.2427 0.4908
C58 C 0.6322(3) 0.33500(13) 0.48417(11)
H54 H 0.5402 0.3193 0.4843
H55 H 0.6208 0.3706 0.4735
H56 H 0.6838 0.3326 0.5215
C59 C 0.8613(3) 0.32945(13) 0.44188(12)
H57 H 0.9123 0.3103 0.4160
H58 H 0.9113 0.3273 0.4795
H59 H 0.8543 0.3649 0.4301
C60 C 0.3135(2) 0.22235(10) 0.07916(9)
C61 C 0.2377(2) 0.28970(10) 0.01059(9)
C62 C 0.2959(3) 0.34326(11) 0.00274(11)
H60 H 0.3940 0.3409 -0.0038
H61 H 0.2884 0.3633 0.0364
H62 H 0.2421 0.3595 -0.0293
C63 C 0.2629(3) 0.25593(11) -0.03985(10)
H63 H 0.3623 0.2564 -0.0448
H64 H 0.2082 0.2689 -0.0736
H65 H 0.2341 0.2212 -0.0329
C64 C 0.0820(3) 0.29165(12) 0.02073(11)
H66 H 0.0715 0.3139 0.0524
H67 H 0.0502 0.2576 0.0289
H68 H 0.0260 0.3047 -0.0127
loop_
_geom_bond_atom_site_label_1
_geom_bond_atom_site_label_2
_geom_bond_site_symmetry_1
_geom_bond_site_symmetry_2
O1 C23 1_555 1_555
O2 C23 1_555 1_555
O3 C28 1_555 1_555
O4 C28 1_555 1_555
O5 C55 1_555 1_555
O6 C55 1_555 1_555
O7 C60 1_555 1_555
O8 C60 1_555 1_555
N1 C1 1_555 1_555
N2 C5 1_555 1_555
N3 C11 1_555 1_555
N4 C12 1_555 1_555
N5 H1 1_555 1_555
N6 H2 1_555 1_555
N7 C33 1_555 1_555
N8 C37 1_555 1_555
N9 C43 1_555 1_555
N10 C44 1_555 1_555
N11 H3 1_555 1_555
N12 H4 1_555 1_555
C1 N6 1_555 1_555
C2 C1 1_555 1_555
H5 C2 1_555 1_555
C3 C2 1_555 1_555
H6 C3 1_555 1_555
C4 C3 1_555 1_555
H7 C4 1_555 1_555
C5 N1 1_555 1_555
C6 H8 1_555 1_555
C7 N2 1_555 1_555
C8 C7 1_555 1_555
H9 C8 1_555 1_555
C9 C8 1_555 1_555
H10 C9 1_555 1_555
C10 C9 1_555 1_555
H11 C10 1_555 1_555
C11 C6 1_555 1_555
C12 N3 1_555 1_555
C13 C12 1_555 1_555
H12 C13 1_555 1_555
C14 C13 1_555 1_555
H13 C14 1_555 1_555
C15 C14 1_555 1_555
H14 C15 1_555 1_555
C16 N4 1_555 1_555
C17 H15 1_555 1_555
C18 N5 1_555 1_555
C19 C18 1_555 1_555
H16 C19 1_555 1_555
C20 C19 1_555 1_555
H17 C20 1_555 1_555
C21 C20 1_555 1_555
H18 C21 1_555 1_555
C22 N6 1_555 1_555
C23 N2 1_555 1_555
C24 O2 1_555 1_555
C25 C24 1_555 1_555
H19 C25 1_555 1_555
H20 C25 1_555 1_555
H21 C25 1_555 1_555
C26 C24 1_555 1_555
H22 C26 1_555 1_555
H23 C26 1_555 1_555
H24 C26 1_555 1_555
C27 C24 1_555 1_555
H25 C27 1_555 1_555
H26 C27 1_555 1_555
H27 C27 1_555 1_555
C28 N3 1_555 1_555
C29 O4 1_555 1_555
C30 C29 1_555 1_555
H28 C30 1_555 1_555
H29 C30 1_555 1_555
H30 C30 1_555 1_555
C31 C29 1_555 1_555
H31 C31 1_555 1_555
H32 C31 1_555 1_555
H33 C31 1_555 1_555
C32 C29 1_555 1_555
H34 C32 1_555 1_555
H35 C32 1_555 1_555
H36 C32 1_555 1_555
C33 N12 1_555 1_555
C34 C33 1_555 1_555
H37 C34 1_555 1_555
C35 C34 1_555 1_555
H38 C35 1_555 1_555
C36 C35 1_555 1_555
H39 C36 1_555 1_555
C37 N7 1_555 1_555
C38 H40 1_555 1_555
C39 N8 1_555 1_555
C40 C39 1_555 1_555
H41 C40 1_555 1_555
C41 C40 1_555 1_555
H42 C41 1_555 1_555
C42 C41 1_555 1_555
H43 C42 1_555 1_555
C43 C38 1_555 1_555
C44 N9 1_555 1_555
C45 C44 1_555 1_555
H44 C45 1_555 1_555
C46 C45 1_555 1_555
H45 C46 1_555 1_555
C47 C46 1_555 1_555
H46 C47 1_555 1_555
C48 N10 1_555 1_555
C49 H47 1_555 1_555
C50 N11 1_555 1_555
C51 C50 1_555 1_555
H48 C51 1_555 1_555
C52 C51 1_555 1_555
H49 C52 1_555 1_555
C53 C52 1_555 1_555
H50 C53 1_555 1_555
C54 N12 1_555 1_555
C55 N8 1_555 1_555
C56 O6 1_555 1_555
C57 C56 1_555 1_555
H51 C57 1_555 1_555
H52 C57 1_555 1_555
H53 C57 1_555 1_555
C58 C56 1_555 1_555
H54 C58 1_555 1_555
H55 C58 1_555 1_555
H56 C58 1_555 1_555
C59 C56 1_555 1_555
H57 C59 1_555 1_555
H58 C59 1_555 1_555
H59 C59 1_555 1_555
C60 N9 1_555 1_555
C61 O8 1_555 1_555
C62 C61 1_555 1_555
H60 C62 1_555 1_555
H61 C62 1_555 1_555
H62 C62 1_555 1_555
C63 C61 1_555 1_555
H63 C63 1_555 1_555
H64 C63 1_555 1_555
H65 C63 1_555 1_555
C64 C61 1_555 1_555
H66 C64 1_555 1_555
H67 C64 1_555 1_555
H68 C64 1_555 1_555
N5 C16 1_555 1_555
N11 C48 1_555 1_555
C4 C5 1_555 1_555
C6 C7 1_555 1_555
C10 C11 1_555 1_555
C15 C16 1_555 1_555
C17 C18 1_555 1_555
C17 C22 1_555 1_555
C21 C22 1_555 1_555
C36 C37 1_555 1_555
C38 C39 1_555 1_555
C42 C43 1_555 1_555
C47 C48 1_555 1_555
C49 C50 1_555 1_555
C49 C54 1_555 1_555
C53 C54 1_555 1_555

#END
