
#######################################################################
#
#                 Cambridge Crystallographic Data Centre
#                                CCDC 
#
#######################################################################
#
# If this CIF has been generated from an entry in the Cambridge 
# Structural Database, then it will include bibliographic, chemical, 
# crystal, experimental, refinement or atomic coordinate data resulting 
# from the CCDC's data processing and validation procedures.
#
#######################################################################

data_MUMSOD
_chemical_formula_moiety         'C9 H11 F2 N3 O1'
_chemical_name_systematic        
5,6-Difluoro-4-(piperidin-1-yl)pyridazin-3(2H)-one
_symmetry_cell_setting           monoclinic
_symmetry_space_group_name_H-M   'P 21/n'
_symmetry_Int_Tables_number      14
_space_group_name_Hall           '-P 2yn'
loop_
_symmetry_equiv_pos_site_id
_symmetry_equiv_pos_as_xyz
1 x,y,z
2 1/2-x,1/2+y,1/2-z
3 -x,-y,-z
4 1/2+x,1/2-y,1/2+z
_cell_length_a                   13.4744(9)
_cell_length_b                   4.7342(4)
_cell_length_c                   14.8788(9)
_cell_angle_alpha                90
_cell_angle_beta                 96.41(2)
_cell_angle_gamma                90
_cell_volume                     943.193
_exptl_crystal_colour            colorless
_exptl_crystal_description       plate
_chemical_melting_point          '145-146 deg.C'
_cell_formula_units_Z            4
loop_
_atom_site_label
_atom_site_type_symbol
_atom_site_fract_x
_atom_site_fract_y
_atom_site_fract_z
F1 F 0.19418(9) 0.1141(3) 0.19764(8)
F2 F 0.30429(9) 0.2999(3) 0.07633(8)
N1 N 0.10388(12) 0.7491(4) 0.03137(11)
N2 N 0.19409(13) 0.6277(4) 0.02328(11)
N3 N 0.01254(12) 0.4189(4) 0.22871(10)
O1 O -0.03645(11) 0.8398(3) 0.09543(9)
C1 C 0.04078(14) 0.6961(4) 0.09476(12)
C2 C 0.07023(14) 0.4673(4) 0.16002(12)
C3 C 0.15823(15) 0.3381(4) 0.14798(12)
C4 C 0.21715(15) 0.4309(4) 0.08134(13)
C5 C -0.09685(15) 0.3875(5) 0.20990(13)
C6 C -0.14731(17) 0.4956(5) 0.28969(14)
C7 C -0.10840(17) 0.3440(5) 0.37669(14)
C8 C 0.00476(17) 0.3648(5) 0.39164(13)
C9 C 0.05415(17) 0.2638(5) 0.31003(13)
H1 H 0.0844(18) 0.896(6) -0.0113(18)
H2 H -0.1118(15) 0.182(5) 0.2006(14)
H3 H -0.1197(16) 0.490(5) 0.1572(14)
H4 H -0.1325(16) 0.698(5) 0.2950(15)
H5 H -0.2187(18) 0.469(5) 0.2775(15)
H6 H -0.1286(17) 0.139(5) 0.3710(15)
H7 H -0.1391(19) 0.422(5) 0.4241(18)
H8 H 0.033(2) 0.250(6) 0.4421(19)
H9 H 0.0245(17) 0.571(5) 0.4030(15)
H10 H 0.0458(16) 0.045(5) 0.2994(15)
H11 H 0.1240(19) 0.300(5) 0.3211(15)
loop_
_geom_bond_atom_site_label_1
_geom_bond_atom_site_label_2
_geom_bond_site_symmetry_1
_geom_bond_site_symmetry_2
F1 C3 1_555 1_555
F2 C4 1_555 1_555
N1 N2 1_555 1_555
N2 C4 1_555 1_555
N3 C2 1_555 1_555
O1 C1 1_555 1_555
C1 N1 1_555 1_555
C2 C1 1_555 1_555
C3 C2 1_555 1_555
C4 C3 1_555 1_555
C5 N3 1_555 1_555
C6 C5 1_555 1_555
C7 C6 1_555 1_555
C8 C7 1_555 1_555
C9 N3 1_555 1_555
H1 N1 1_555 1_555
H2 C5 1_555 1_555
H3 C5 1_555 1_555
H4 C6 1_555 1_555
H5 C6 1_555 1_555
H6 C7 1_555 1_555
H7 C7 1_555 1_555
H8 C8 1_555 1_555
H9 C8 1_555 1_555
H10 C9 1_555 1_555
H11 C9 1_555 1_555
C8 C9 1_555 1_555

#END
