
#######################################################################
#
#                 Cambridge Crystallographic Data Centre
#                                CCDC 
#
#######################################################################
#
# If this CIF has been generated from an entry in the Cambridge 
# Structural Database, then it will include bibliographic, chemical, 
# crystal, experimental, refinement or atomic coordinate data resulting 
# from the CCDC's data processing and validation procedures.
#
#######################################################################

data_MUMWEX
_chemical_formula_moiety         'C15 H25 N1 O7 S1'
_chemical_name_systematic        
'Ethyl (R)-((t-butylsulfonyl)amino)(2,2,6-trimethyl-4-oxo-4H-1,3-dioxin-5-yl)acetate'
_symmetry_cell_setting           orthorhombic
_symmetry_space_group_name_H-M   'P 21 21 21'
_symmetry_Int_Tables_number      19
_space_group_name_Hall           'P 2ac 2ab'
loop_
_symmetry_equiv_pos_site_id
_symmetry_equiv_pos_as_xyz
1 x,y,z
2 1/2-x,-y,1/2+z
3 -x,1/2+y,1/2-z
4 1/2+x,1/2-y,-z
_cell_length_a                   5.9142(12)
_cell_length_b                   16.624(3)
_cell_length_c                   18.475(4)
_cell_angle_alpha                90
_cell_angle_beta                 90
_cell_angle_gamma                90
_cell_volume                     1816.42
_exptl_crystal_colour            colorless
_exptl_crystal_description       plate
_chemical_melting_point          '114-115 deg.C'
_cell_formula_units_Z            4
loop_
_atom_site_label
_atom_site_type_symbol
_atom_site_fract_x
_atom_site_fract_y
_atom_site_fract_z
S1 S -0.00203(13) 0.11679(4) 0.67736(4)
O1 O -0.4824(4) -0.17750(13) 0.69478(12)
O2 O -0.2972(4) -0.20003(14) 0.58411(13)
O3 O -0.1393(4) -0.09872(15) 0.52454(13)
O4 O -0.1413(4) 0.11048(15) 0.74044(13)
O5 O 0.2373(4) 0.10561(15) 0.68362(14)
O6 O -0.3096(5) 0.08626(15) 0.49494(14)
O7 O -0.6057(4) 0.00789(15) 0.52464(12)
N1 N -0.0871(5) 0.04864(16) 0.62109(15)
H1 H 0.0150 0.0258 0.5932
C1 C -0.3525(5) -0.06585(18) 0.62851(16)
C2 C -0.4459(5) -0.09679(19) 0.68863(17)
C3 C -0.4920(6) -0.22172(18) 0.62769(16)
C4 C -0.2589(5) -0.12059(19) 0.57416(16)
C5 C -0.5162(8) -0.0535(2) 0.75506(18)
H2 H -0.4626 0.0022 0.7528
H3 H -0.4510 -0.0801 0.7975
H4 H -0.6815 -0.0540 0.7587
C6 C -0.4620(7) -0.3092(2) 0.6468(2)
H5 H -0.3181 -0.3164 0.6723
H6 H -0.4618 -0.3415 0.6025
H7 H -0.5865 -0.3265 0.6781
C7 C -0.7063(7) -0.2042(2) 0.5874(2)
H8 H -0.7271 -0.1458 0.5837
H9 H -0.8346 -0.2278 0.6133
H10 H -0.6973 -0.2274 0.5387
C8 C -0.3211(5) 0.02241(19) 0.61343(17)
H11 H -0.4147 0.0532 0.6490
C9 C -0.0454(5) 0.21605(19) 0.63895(19)
C10 C 0.0559(6) 0.2759(2) 0.6930(2)
H12 H 0.0406 0.3307 0.6739
H13 H 0.2163 0.2636 0.7003
H14 H -0.0244 0.2718 0.7392
C11 C 0.0761(6) 0.2197(2) 0.5662(2)
H15 H 0.0539 0.2730 0.5445
H16 H 0.0145 0.1785 0.5339
H17 H 0.2381 0.2102 0.5734
C12 C -0.2996(6) 0.2310(2) 0.63068(19)
H18 H -0.3247 0.2857 0.6126
H19 H -0.3738 0.2248 0.6778
H20 H -0.3631 0.1921 0.5964
C13 C -0.4056(6) 0.04318(19) 0.53696(18)
C14 C -0.6924(7) 0.0151(2) 0.4501(2)
H21 H -0.6819 0.0718 0.4342
H22 H -0.8536 -0.0009 0.4490
C15 C -0.5598(8) -0.0373(3) 0.3992(2)
H23 H -0.6327 -0.0374 0.3516
H24 H -0.5547 -0.0923 0.4182
H25 H -0.4056 -0.0164 0.3947
loop_
_geom_bond_atom_site_label_1
_geom_bond_atom_site_label_2
_geom_bond_site_symmetry_1
_geom_bond_site_symmetry_2
S1 O4 1_555 1_555
O1 C2 1_555 1_555
O2 C3 1_555 1_555
O3 C4 1_555 1_555
O5 S1 1_555 1_555
O6 C13 1_555 1_555
O7 C13 1_555 1_555
N1 S1 1_555 1_555
H1 N1 1_555 1_555
C1 C2 1_555 1_555
C2 C5 1_555 1_555
C3 O1 1_555 1_555
C4 O2 1_555 1_555
C5 H2 1_555 1_555
H3 C5 1_555 1_555
H4 C5 1_555 1_555
C6 C3 1_555 1_555
H5 C6 1_555 1_555
H6 C6 1_555 1_555
H7 C6 1_555 1_555
C7 C3 1_555 1_555
H8 C7 1_555 1_555
H9 C7 1_555 1_555
H10 C7 1_555 1_555
C8 N1 1_555 1_555
H11 C8 1_555 1_555
C9 S1 1_555 1_555
C10 C9 1_555 1_555
H12 C10 1_555 1_555
H13 C10 1_555 1_555
H14 C10 1_555 1_555
C11 C9 1_555 1_555
H15 C11 1_555 1_555
H16 C11 1_555 1_555
H17 C11 1_555 1_555
C12 C9 1_555 1_555
H18 C12 1_555 1_555
H19 C12 1_555 1_555
H20 C12 1_555 1_555
C13 C8 1_555 1_555
C14 O7 1_555 1_555
H21 C14 1_555 1_555
H22 C14 1_555 1_555
C15 C14 1_555 1_555
H23 C15 1_555 1_555
H24 C15 1_555 1_555
H25 C15 1_555 1_555
C1 C4 1_555 1_555
C1 C8 1_555 1_555

#END
