
#######################################################################
#
#                 Cambridge Crystallographic Data Centre
#                                CCDC 
#
#######################################################################
#
# If this CIF has been generated from an entry in the Cambridge 
# Structural Database, then it will include bibliographic, chemical, 
# crystal, experimental, refinement or atomic coordinate data resulting 
# from the CCDC's data processing and validation procedures.
#
#######################################################################

data_MUMYIE
_chemical_formula_moiety         'C30 H28 N2 O5 S1'
_chemical_name_systematic        
"Ethyl 2-(1-methyl-1'-((4-methylphenyl)sulfonyl)-2-oxo-5'-phenyl-1,1',2,2'-tetrahydrospiro[indole-3,3'-pyrrol]-2'-yl)acrylate"
_symmetry_cell_setting           monoclinic
_symmetry_space_group_name_H-M   'P 21/n'
_symmetry_Int_Tables_number      14
_space_group_name_Hall           '-P 2yn'
loop_
_symmetry_equiv_pos_site_id
_symmetry_equiv_pos_as_xyz
1 x,y,z
2 1/2-x,1/2+y,1/2-z
3 -x,-y,-z
4 1/2+x,1/2-y,1/2+z
_cell_length_a                   13.2726(8)
_cell_length_b                   14.2499(8)
_cell_length_c                   13.8765(8)
_cell_angle_alpha                90
_cell_angle_beta                 98.9150(10)
_cell_angle_gamma                90
_cell_volume                     2592.8
_exptl_crystal_colour            colorless
_exptl_crystal_description       block
_cell_formula_units_Z            4
loop_
_atom_site_label
_atom_site_type_symbol
_atom_site_fract_x
_atom_site_fract_y
_atom_site_fract_z
S1 S 0.14500(3) 0.13773(3) 0.33782(3)
O1 O 0.38772(10) 0.00476(10) 0.07361(9)
O2 O 0.51121(10) 0.13094(9) 0.25896(10)
O3 O 0.48017(9) 0.23219(10) 0.13476(10)
O4 O 0.20710(11) 0.21868(8) 0.36362(10)
O5 O 0.03832(10) 0.14788(9) 0.30700(10)
N1 N 0.47934(10) -0.09000(10) 0.18841(10)
N2 N 0.19332(9) 0.08707(8) 0.24769(9)
C1 C 0.40209(12) -0.03033(11) 0.15407(12)
C2 C 0.55971(15) -0.11560(16) 0.13409(16)
H1 H 0.5509 -0.0821 0.0733
H2 H 0.5570 -0.1819 0.1215
H3 H 0.6246 -0.0998 0.1713
C3 C 0.47582(12) -0.11597(11) 0.28519(12)
C4 C 0.54032(13) -0.17526(12) 0.34432(14)
H4 H 0.5937 -0.2059 0.3213
C5 C 0.52254(14) -0.18749(12) 0.43927(14)
H5 H 0.5652 -0.2268 0.4808
C6 C 0.44341(15) -0.14294(13) 0.47357(14)
H6 H 0.4344 -0.1506 0.5382
C7 C 0.37684(14) -0.08645(12) 0.41182(13)
H7 H 0.3217 -0.0581 0.4341
C8 C 0.39335(11) -0.07292(10) 0.31771(11)
C9 C 0.33397(11) -0.01830(10) 0.23403(11)
C10 C 0.23068(12) -0.05912(11) 0.19737(11)
H8 H 0.2210 -0.1193 0.1717
C11 C 0.15478(11) -0.00044(10) 0.20533(11)
C12 C 0.30679(11) 0.08587(10) 0.25630(11)
H9 H 0.3364 0.1009 0.3237
C13 C 0.34016(12) 0.15965(11) 0.18905(12)
C14 C 0.27694(14) 0.21447(14) 0.13269(16)
H10 H 0.3022 0.2622 0.0974
H11 H 0.2069 0.2056 0.1280
C15 C 0.45203(12) 0.17136(12) 0.19861(12)
C16 C 0.58856(14) 0.25124(14) 0.14140(17)
H12 H 0.6207 0.2466 0.2089
H13 H 0.5982 0.3147 0.1193
C17 C 0.63749(18) 0.18477(19) 0.08182(18)
H14 H 0.6268 0.1218 0.1026
H15 H 0.7093 0.1974 0.0895
H16 H 0.6083 0.1917 0.0145
C18 C 0.04640(12) -0.01420(11) 0.16477(11)
C19 C -0.01178(13) 0.05734(13) 0.11655(13)
H17 H 0.0158 0.1172 0.1150
C20 C -0.10974(14) 0.04088(17) 0.07093(14)
H18 H -0.1478 0.0896 0.0389
C21 C -0.15168(16) -0.04718(19) 0.07251(16)
H19 H -0.2181 -0.0580 0.0420
C22 C -0.09489(17) -0.11935(18) 0.11956(17)
H20 H -0.1229 -0.1791 0.1204
C23 C 0.00438(15) -0.10299(14) 0.16594(15)
H21 H 0.0424 -0.1518 0.1977
C24 C 0.16176(12) 0.06046(11) 0.43766(11)
C25 C 0.23403(14) 0.07989(13) 0.51758(13)
H22 H 0.2732 0.1341 0.5192
C26 C 0.24787(15) 0.01838(15) 0.59506(14)
H23 H 0.2965 0.0319 0.6490
C27 C 0.19082(13) -0.06319(14) 0.59426(13)
C28 C 0.11882(13) -0.08126(12) 0.51330(13)
H24 H 0.0800 -0.1357 0.5115
C29 C 0.10319(12) -0.02062(12) 0.43514(12)
H25 H 0.0541 -0.0337 0.3814
C30 C 0.20795(17) -0.12970(19) 0.67881(17)
H26 H 0.1523 -0.1251 0.7152
H27 H 0.2705 -0.1139 0.7202
H28 H 0.2121 -0.1927 0.6551
loop_
_geom_bond_atom_site_label_1
_geom_bond_atom_site_label_2
_geom_bond_site_symmetry_1
_geom_bond_site_symmetry_2
S1 O4 1_555 1_555
O1 C1 1_555 1_555
O2 C15 1_555 1_555
O3 C15 1_555 1_555
O5 S1 1_555 1_555
N1 C1 1_555 1_555
N2 S1 1_555 1_555
C1 C9 1_555 1_555
C2 N1 1_555 1_555
H1 C2 1_555 1_555
H2 C2 1_555 1_555
H3 C2 1_555 1_555
C3 N1 1_555 1_555
C4 C3 1_555 1_555
H4 C4 1_555 1_555
C5 C4 1_555 1_555
H5 C5 1_555 1_555
C6 C5 1_555 1_555
H6 C6 1_555 1_555
C7 C6 1_555 1_555
H7 C7 1_555 1_555
C8 C3 1_555 1_555
C9 C8 1_555 1_555
C10 C9 1_555 1_555
H8 C10 1_555 1_555
C11 N2 1_555 1_555
C12 N2 1_555 1_555
H9 C12 1_555 1_555
C13 C12 1_555 1_555
C14 C13 1_555 1_555
H10 C14 1_555 1_555
H11 C14 1_555 1_555
C15 C13 1_555 1_555
C16 O3 1_555 1_555
H12 C16 1_555 1_555
H13 C16 1_555 1_555
C17 C16 1_555 1_555
H14 C17 1_555 1_555
H15 C17 1_555 1_555
H16 C17 1_555 1_555
C18 C11 1_555 1_555
C19 C18 1_555 1_555
H17 C19 1_555 1_555
C20 C19 1_555 1_555
H18 C20 1_555 1_555
C21 C20 1_555 1_555
H19 C21 1_555 1_555
C22 C21 1_555 1_555
H20 C22 1_555 1_555
C23 C18 1_555 1_555
H21 C23 1_555 1_555
C24 S1 1_555 1_555
C25 C24 1_555 1_555
H22 C25 1_555 1_555
C26 C25 1_555 1_555
H23 C26 1_555 1_555
C27 C26 1_555 1_555
C28 C27 1_555 1_555
H24 C28 1_555 1_555
C29 C24 1_555 1_555
H25 C29 1_555 1_555
C30 C27 1_555 1_555
H26 C30 1_555 1_555
H27 C30 1_555 1_555
H28 C30 1_555 1_555
C7 C8 1_555 1_555
C9 C12 1_555 1_555
C10 C11 1_555 1_555
C22 C23 1_555 1_555
C28 C29 1_555 1_555

#END
