
#######################################################################
#
#                 Cambridge Crystallographic Data Centre
#                                CCDC 
#
#######################################################################
#
# If this CIF has been generated from an entry in the Cambridge 
# Structural Database, then it will include bibliographic, chemical, 
# crystal, experimental, refinement or atomic coordinate data resulting 
# from the CCDC's data processing and validation procedures.
#
#######################################################################

data_MUMZUR
_chemical_formula_moiety         
'C20 H26 N2 O4 2+,C36 H36 N24 O12,2(N1 O3 1-),6(H2 O1)'
_chemical_name_systematic        
"[2]-(N,N'-bis(3-Carboxybenzyl)butane-1,4-diaminium)-(cucurbit[6]uril)-pseudorotaxane dinitrate hexahydrate"
_symmetry_cell_setting           monoclinic
_symmetry_space_group_name_H-M   'P 21/c'
_symmetry_Int_Tables_number      14
_space_group_name_Hall           '-P 2ybc'
loop_
_symmetry_equiv_pos_site_id
_symmetry_equiv_pos_as_xyz
1 x,y,z
2 -x,1/2+y,1/2-z
3 -x,-y,-z
4 x,1/2-y,1/2+z
_cell_length_a                   13.4474(8)
_cell_length_b                   20.4072(11)
_cell_length_c                   12.4086(9)
_cell_angle_alpha                90
_cell_angle_beta                 103.678(7)
_cell_angle_gamma                90
_cell_volume                     3308.64
_exptl_crystal_colour            white
_exptl_crystal_description       block
_cell_formula_units_Z            2
loop_
_atom_site_label
_atom_site_type_symbol
_atom_site_fract_x
_atom_site_fract_y
_atom_site_fract_z
C1 C 0.6445(4) 0.5475(2) 0.2451(5)
H1 H 0.5758 0.5633 0.2092
C2 C 0.6772(4) 0.4921(2) 0.1821(5)
H2 H 0.6241 0.4810 0.1158
C3 C 0.6762(4) 0.4536(2) 0.3581(5)
C4 C 0.7900(5) 0.5809(2) 0.1918(5)
C5 C 0.7171(4) 0.3707(2) 0.2315(5)
H3 H 0.6782 0.3611 0.1568
H4 H 0.6932 0.3416 0.2819
C6 C 0.8239(5) 0.4868(2) 0.0806(5)
H5 H 0.8593 0.5200 0.0480
H6 H 0.7749 0.4657 0.0207
C7 C 0.8732(4) 0.3701(2) 0.1472(5)
H7 H 0.8351 0.3507 0.0774
C8 C 0.9803(5) 0.3376(2) 0.1911(5)
H8 H 0.9946 0.3049 0.1390
C9 C 1.2269(4) 0.3224(2) 0.3930(4)
H9 H 1.2551 0.2868 0.3563
C10 C 1.0016(5) 0.4501(2) 0.1645(5)
C11 C 1.2649(4) 0.4329(2) 0.3813(4)
C12 C 1.1586(4) 0.3845(3) 0.2139(5)
H10 H 1.1711 0.3444 0.1771
H11 H 1.1849 0.4208 0.1784
C13 C 1.0506(4) 0.2665(2) 0.3609(5)
H12 H 1.0772 0.2381 0.3118
H13 H 1.0189 0.2390 0.4071
C14 C 0.7162(4) 0.6630(2) 0.2942(5)
H14 H 0.6457 0.6777 0.2763
H15 H 0.7549 0.6920 0.2575
C15 C 0.6088(5) 0.5467(3) 0.4404(5)
H16 H 0.5862 0.5123 0.4829
H17 H 0.5497 0.5734 0.4076
C16 C 0.8500(5) 0.6972(2) 0.4542(4)
C17 C 0.6990(4) 0.6555(2) 0.4970(5)
H18 H 0.6348 0.6803 0.4816
N1 N 0.7573(4) 0.66730(19) 0.4143(4)
N2 N 0.6829(4) 0.5869(2) 0.5145(4)
N3 N 0.6475(4) 0.51738(19) 0.3530(4)
N4 N 0.7205(4) 0.59799(19) 0.2525(4)
N5 N 0.7689(4) 0.51847(19) 0.1529(4)
N6 N 0.6980(4) 0.43774(18) 0.2585(4)
N7 N 0.8244(4) 0.3580(2) 0.2387(4)
N8 N 0.8977(4) 0.43841(19) 0.1352(4)
N9 N 0.9744(4) 0.30811(19) 0.2957(4)
N10 N 1.0486(4) 0.3928(2) 0.2009(4)
N11 N 1.1355(4) 0.30208(19) 0.4317(4)
N12 N 1.2128(4) 0.38156(19) 0.3293(4)
O1 O 1.2703(3) 0.48817(16) 0.3437(4)
O2 O 0.6819(3) 0.41677(16) 0.4359(4)
O3 O 0.8591(3) 0.61559(17) 0.1760(4)
O4 O 0.9089(3) 0.71773(17) 0.4031(3)
O5 O 1.0420(3) 0.50216(17) 0.1591(4)
O6 O 0.8596(3) 0.30495(19) 0.4074(4)
C18 C 0.8832(5) 0.3228(2) 0.3207(6)
C1B C 1.3555(4) 0.4525(2) 0.7549(5)
H1B H 1.4242 0.4367 0.7908
C2B C 1.3228(4) 0.5079(2) 0.8179(5)
H2B H 1.3759 0.5190 0.8842
C3B C 1.3238(4) 0.5464(2) 0.6419(5)
C4B C 1.2100(5) 0.4191(2) 0.8082(5)
C5B C 1.2829(4) 0.6293(2) 0.7685(5)
H3B H 1.3218 0.6389 0.8432
H4B H 1.3068 0.6584 0.7181
C6B C 1.1761(5) 0.5132(2) 0.9194(5)
H5B H 1.1407 0.4800 0.9520
H6B H 1.2251 0.5343 0.9793
C7B C 1.1268(4) 0.6299(2) 0.8528(5)
H7B H 1.1649 0.6493 0.9226
C8B C 1.0197(5) 0.6624(2) 0.8089(5)
H8B H 1.0054 0.6951 0.8610
C9B C 0.7731(4) 0.6776(2) 0.6070(4)
H9B H 0.7449 0.7132 0.6437
C10B C 0.9984(5) 0.5499(2) 0.8355(5)
C11B C 0.7351(4) 0.5671(2) 0.6187(4)
C12B C 0.8414(4) 0.6155(3) 0.7861(5)
H10B H 0.8289 0.6556 0.8229
H11B H 0.8151 0.5792 0.8216
C13B C 0.9494(4) 0.7335(2) 0.6391(5)
H12B H 0.9228 0.7619 0.6882
H13B H 0.9811 0.7610 0.5929
C14B C 1.2838(4) 0.3370(2) 0.7058(5)
H14B H 1.3543 0.3223 0.7237
H15B H 1.2451 0.3080 0.7425
C15B C 1.3912(5) 0.4533(3) 0.5596(5)
H16B H 1.4138 0.4877 0.5171
H17B H 1.4503 0.4266 0.5924
C16B C 1.1500(5) 0.3028(2) 0.5458(4)
C17B C 1.3010(4) 0.3445(2) 0.5030(5)
H18B H 1.3652 0.3197 0.5184
N1B N 1.2427(4) 0.33270(19) 0.5857(4)
N2B N 1.3171(4) 0.4131(2) 0.4855(4)
N3B N 1.3525(4) 0.48262(19) 0.6470(4)
N4B N 1.2795(4) 0.40201(19) 0.7475(4)
N5B N 1.2311(4) 0.48153(19) 0.8471(4)
N6B N 1.3020(4) 0.56226(18) 0.7415(4)
N7B N 1.1756(4) 0.6420(2) 0.7613(4)
N8B N 1.1023(4) 0.56159(19) 0.8648(4)
N9B N 1.0256(4) 0.69189(19) 0.7043(4)
N10B N 0.9514(4) 0.6072(2) 0.7991(4)
N11B N 0.8645(4) 0.69792(19) 0.5683(4)
N12B N 0.7872(4) 0.61844(19) 0.6707(4)
O1B O 0.7297(3) 0.51183(16) 0.6563(4)
O2B O 1.3181(3) 0.58323(16) 0.5641(4)
O3B O 1.1409(3) 0.38441(17) 0.8240(4)
O4B O 1.0911(3) 0.28227(17) 0.5969(3)
O5B O 0.9580(3) 0.49784(17) 0.8409(4)
O6B O 1.1404(3) 0.69505(19) 0.5926(4)
C18B C 1.1168(5) 0.6772(2) 0.6793(6)
C19 C 1.3949(5) 0.6543(3) 0.1122(6)
C20 C 1.3606(4) 0.6758(3) 0.2142(5)
C21 C 1.4236(5) 0.7111(3) 0.2981(6)
H19 H 1.4881 0.7244 0.2917
C22 C 1.3896(5) 0.7267(3) 0.3918(6)
H20 H 1.4326 0.7493 0.4495
C23 C 1.2630(4) 0.6583(3) 0.2231(6)
H21 H 1.2204 0.6349 0.1660
C24 C 1.2931(5) 0.7092(2) 0.4010(6)
H22 H 1.2718 0.7202 0.4647
C25 C 1.2277(4) 0.6754(2) 0.3170(5)
C26 C 1.1263(5) 0.6532(3) 0.3272(5)
H23 H 1.0822 0.6463 0.2541
H24 H 1.0953 0.6864 0.3647
C27 C 1.0491(5) 0.5098(3) 0.4865(5)
H25 H 1.0735 0.4739 0.4484
H26 H 1.0999 0.5179 0.5549
C28 C 1.0385(4) 0.5698(2) 0.4153(5)
H27 H 0.9895 0.5612 0.3458
H28 H 1.0117 0.6053 0.4523
N13 N 1.1370(4) 0.5910(2) 0.3914(5)
H29 H 1.1839 0.5965 0.4557
H30 H 1.1597 0.5594 0.3527
O7 O 1.4930(3) 0.6641(2) 0.1200(4)
H31 H 1.5067 0.6550 0.0608
O8 O 1.3394(4) 0.6324(3) 0.0309(5)
C19B C 0.6051(5) 0.3457(3) 0.8878(6)
C20B C 0.6394(4) 0.3242(3) 0.7858(5)
C21B C 0.5764(5) 0.2889(3) 0.7019(6)
H19B H 0.5119 0.2756 0.7083
C22B C 0.6104(5) 0.2733(3) 0.6082(6)
H20B H 0.5674 0.2507 0.5505
C23B C 0.7370(4) 0.3417(3) 0.7769(6)
H21B H 0.7796 0.3651 0.8340
C24B C 0.7069(5) 0.2908(2) 0.5990(6)
H22B H 0.7282 0.2798 0.5353
C25B C 0.7723(4) 0.3246(2) 0.6830(5)
C26B C 0.8737(5) 0.3468(3) 0.6728(5)
H23B H 0.9178 0.3537 0.7459
H24B H 0.9047 0.3136 0.6353
C27B C 0.9509(5) 0.4902(3) 0.5135(5)
H25B H 0.9265 0.5261 0.5516
H26B H 0.9001 0.4821 0.4451
C28B C 0.9615(4) 0.4302(2) 0.5847(5)
H27B H 1.0105 0.4388 0.6542
H28B H 0.9883 0.3947 0.5477
N13B N 0.8630(4) 0.4090(2) 0.6086(5)
H29B H 0.8161 0.4035 0.5443
H30B H 0.8403 0.4406 0.6473
O7B O 0.5070(3) 0.3359(2) 0.8800(4)
H31B H 0.4933 0.3450 0.9392
O8B O 0.6606(4) 0.3676(3) 0.9691(5)
N14 N 1.3810(7) 0.3402(4) 0.0732(7)
O9 O 1.4465(7) 0.3804(3) 0.0593(7)
O10 O 1.3599(7) 0.3345(7) 0.1648(8)
O11 O 1.3491(8) 0.3036(4) 0.0045(7)
O12 O 0.4770(7) 0.3520(6) 0.3761(8)
H32 H 0.4676 0.3510 0.4415
H33 H 0.5285 0.3760 0.3751
O13 O 0.4105(7) 0.5024(4) 0.1970(8)
H34 H 0.4355 0.4693 0.2356
H35 H 0.3896 0.4911 0.1296
O14 O 0.9967(5) 0.3790(3) -0.0443(6)
loop_
_geom_bond_atom_site_label_1
_geom_bond_atom_site_label_2
_geom_bond_site_symmetry_1
_geom_bond_site_symmetry_2
C1 H1 1_555 1_555
C2 C1 1_555 1_555
H2 C2 1_555 1_555
C3 N3 1_555 1_555
C4 N4 1_555 1_555
C5 H3 1_555 1_555
H4 C5 1_555 1_555
C6 H5 1_555 1_555
H6 C6 1_555 1_555
C7 H7 1_555 1_555
C8 C7 1_555 1_555
H8 C8 1_555 1_555
C9 H9 1_555 1_555
C10 N8 1_555 1_555
C11 N12 1_555 1_555
C12 H10 1_555 1_555
H11 C12 1_555 1_555
C13 H12 1_555 1_555
H13 C13 1_555 1_555
C14 H14 1_555 1_555
H15 C14 1_555 1_555
C15 H16 1_555 1_555
H17 C15 1_555 1_555
C16 N1 1_555 1_555
C17 H18 1_555 1_555
N1 C14 1_555 1_555
N2 C15 1_555 1_555
N3 C1 1_555 1_555
N4 C1 1_555 1_555
N5 C2 1_555 1_555
N6 C2 1_555 1_555
N7 C5 1_555 1_555
N8 C6 1_555 1_555
N9 C8 1_555 1_555
N10 C8 1_555 1_555
N11 C9 1_555 1_555
N12 C9 1_555 1_555
O1 C11 1_555 1_555
O2 C3 1_555 1_555
O3 C4 1_555 1_555
O4 C16 1_555 1_555
O5 C10 1_555 1_555
O6 C18 1_555 1_555
C18 N7 1_555 1_555
C19 C20 1_555 1_555
C20 C21 1_555 1_555
C21 H19 1_555 1_555
C22 C21 1_555 1_555
H20 C22 1_555 1_555
C23 C20 1_555 1_555
H21 C23 1_555 1_555
C24 C22 1_555 1_555
H22 C24 1_555 1_555
C25 C23 1_555 1_555
C26 C25 1_555 1_555
H23 C26 1_555 1_555
H24 C26 1_555 1_555
C27 H25 1_555 1_555
H26 C27 1_555 1_555
C28 C27 1_555 1_555
H27 C28 1_555 1_555
H28 C28 1_555 1_555
N13 C26 1_555 1_555
H29 N13 1_555 1_555
H30 N13 1_555 1_555
O7 C19 1_555 1_555
H31 O7 1_555 1_555
O8 C19 1_555 1_555
N14 O9 1_555 1_555
O10 N14 1_555 1_555
O11 N14 1_555 1_555
O12 H32 1_555 1_555
H33 O12 1_555 1_555
O13 H34 1_555 1_555
H35 O13 1_555 1_555
C1B H1B 1_555 1_555
C2B C1B 1_555 1_555
H2B C2B 1_555 1_555
C3B N3B 1_555 1_555
C4B N4B 1_555 1_555
C5B H3B 1_555 1_555
H4B C5B 1_555 1_555
C6B H5B 1_555 1_555
H6B C6B 1_555 1_555
C7B H7B 1_555 1_555
C8B C7B 1_555 1_555
H8B C8B 1_555 1_555
C9B C17 1_555 1_555
H9B C9B 1_555 1_555
C10B N8B 1_555 1_555
C11B N2 1_555 1_555
C12B H10B 1_555 1_555
H11B C12B 1_555 1_555
C13B H12B 1_555 1_555
H13B C13B 1_555 1_555
C14B H14B 1_555 1_555
H15B C14B 1_555 1_555
C15B H16B 1_555 1_555
H17B C15B 1_555 1_555
C16B N11 1_555 1_555
C17B C9 1_555 1_555
H18B C17B 1_555 1_555
N1B C14B 1_555 1_555
N2B C11 1_555 1_555
N3B C1B 1_555 1_555
N4B C1B 1_555 1_555
N5B C2B 1_555 1_555
N6B C2B 1_555 1_555
N7B C5B 1_555 1_555
N8B C6B 1_555 1_555
N9B C8B 1_555 1_555
N10B C8B 1_555 1_555
N11B C16 1_555 1_555
N12B C9B 1_555 1_555
O1B C11B 1_555 1_555
O2B C3B 1_555 1_555
O3B C4B 1_555 1_555
O4B C16B 1_555 1_555
O5B C10B 1_555 1_555
O6B C18B 1_555 1_555
C18B N7B 1_555 1_555
C19B C20B 1_555 1_555
C20B C21B 1_555 1_555
C21B H19B 1_555 1_555
C22B C21B 1_555 1_555
H20B C22B 1_555 1_555
C23B C20B 1_555 1_555
H21B C23B 1_555 1_555
C24B C22B 1_555 1_555
H22B C24B 1_555 1_555
C25B C23B 1_555 1_555
C26B C25B 1_555 1_555
H23B C26B 1_555 1_555
H24B C26B 1_555 1_555
C27B C27 1_555 1_555
H25B C27B 1_555 1_555
H26B C27B 1_555 1_555
C28B C27B 1_555 1_555
H27B C28B 1_555 1_555
H28B C28B 1_555 1_555
N13B C26B 1_555 1_555
H29B N13B 1_555 1_555
H30B N13B 1_555 1_555
O7B C19B 1_555 1_555
H31B O7B 1_555 1_555
O8B C19B 1_555 1_555
C3 N6 1_555 1_555
C4 N5 1_555 1_555
C5 N6 1_555 1_555
C6 N5 1_555 1_555
C7 N7 1_555 1_555
C7 N8 1_555 1_555
C10 N10 1_555 1_555
C12 N10 1_555 1_555
C12 N12 1_555 1_555
C13 N9 1_555 1_555
C13 N11 1_555 1_555
C14 N4 1_555 1_555
C15 N3 1_555 1_555
C17 N1 1_555 1_555
C17 N2 1_555 1_555
N9 C18 1_555 1_555
C24 C25 1_555 1_555
C28 N13 1_555 1_555
C3B N6B 1_555 1_555
C4B N5B 1_555 1_555
C5B N6B 1_555 1_555
C6B N5B 1_555 1_555
C7B N7B 1_555 1_555
C7B N8B 1_555 1_555
C9B N11B 1_555 1_555
C10B N10B 1_555 1_555
C11B N12B 1_555 1_555
C12B N10B 1_555 1_555
C12B N12B 1_555 1_555
C13B N9B 1_555 1_555
C13B N11B 1_555 1_555
C14B N4B 1_555 1_555
C15B N2B 1_555 1_555
C15B N3B 1_555 1_555
C16B N1B 1_555 1_555
C17B N1B 1_555 1_555
C17B N2B 1_555 1_555
N9B C18B 1_555 1_555
C24B C25B 1_555 1_555
C28B N13B 1_555 1_555

#END
