
#######################################################################
#
#                 Cambridge Crystallographic Data Centre
#                                CCDC 
#
#######################################################################
#
# If this CIF has been generated from an entry in the Cambridge 
# Structural Database, then it will include bibliographic, chemical, 
# crystal, experimental, refinement or atomic coordinate data resulting 
# from the CCDC's data processing and validation procedures.
#
#######################################################################

data_MUNBII
_chemical_formula_moiety         'C22 H28 N2 O4,C36 H36 N24 O12'
_chemical_name_systematic        
"[2]-(3,3'-(Hexane-1,6-diylbis(ammoniomethylene))dibenzoate)-(cucurbit[6]uril)-pseudorotaxane unknown solvate"
_symmetry_cell_setting           monoclinic
_symmetry_space_group_name_H-M   'P 21/n'
_symmetry_Int_Tables_number      14
_space_group_name_Hall           '-P 2yn'
loop_
_symmetry_equiv_pos_site_id
_symmetry_equiv_pos_as_xyz
1 x,y,z
2 1/2-x,1/2+y,1/2-z
3 -x,-y,-z
4 1/2+x,1/2-y,1/2+z
_cell_length_a                   12.6729(12)
_cell_length_b                   12.6015(13)
_cell_length_c                   23.356(3)
_cell_angle_alpha                90
_cell_angle_beta                 105.139(12)
_cell_angle_gamma                90
_cell_volume                     3600.45
_exptl_crystal_colour            colorless
_exptl_crystal_description       prismatic
_cell_formula_units_Z            2
loop_
_atom_site_label
_atom_site_type_symbol
_atom_site_fract_x
_atom_site_fract_y
_atom_site_fract_z
O1 O 0.6063(3) 0.0346(4) 0.44382(15)
O2 O 1.2784(3) 0.1238(4) 0.64114(16)
O3 O 1.0536(3) 0.0619(4) 0.70317(17)
O4 O 0.9159(3) -0.1732(3) 0.65646(18)
N1 N 0.8938(4) 0.2976(4) 0.56334(19)
N2 N 0.7772(3) -0.0512(4) 0.63172(19)
N3 N 0.6327(3) -0.1217(4) 0.49706(18)
N4 N 1.0090(4) 0.2216(4) 0.65399(19)
N5 N 0.7604(4) -0.2052(3) 0.58368(19)
C1 C 0.8184(4) 0.2062(4) 0.6320(2)
H1 H 0.7719 0.2377 0.6551
N6 N 0.7586(3) 0.1889(4) 0.57041(19)
N7 N 1.2843(3) 0.2336(4) 0.56366(19)
N8 N 0.8756(4) 0.1121(4) 0.66093(19)
N9 N 1.1629(4) 0.2665(4) 0.61501(19)
N10 N 0.6497(4) 0.0308(4) 0.54493(18)
C2 C 0.6281(4) -0.0122(5) 0.4902(2)
C3 C 0.6676(4) -0.0482(5) 0.5918(2)
H2 H 0.6125 -0.0417 0.6143
C4 C 1.2447(4) 0.2017(5) 0.6092(2)
C5 C 0.8258(4) -0.1459(5) 0.6267(2)
C6 C 0.8208(5) 0.0250(5) 0.6786(2)
H3 H 0.7612 0.0519 0.6933
H4 H 0.8713 -0.0113 0.7110
C7 C 0.7991(4) 0.2500(4) 0.5325(2)
C8 C 1.1194(5) 0.2634(5) 0.6665(2)
H5 H 1.1668 0.2198 0.6968
H6 H 1.1199 0.3346 0.6823
C9 C 0.7854(5) -0.3136(5) 0.5722(3)
H7 H 0.7193 -0.3556 0.5663
H8 H 0.8379 -0.3411 0.6070
C10 C 0.6557(4) -0.1545(5) 0.5588(2)
H9 H 0.5955 -0.1966 0.5661
C11 C 0.9874(5) 0.1248(5) 0.6756(2)
C12 C 0.6498(4) 0.1447(5) 0.5540(3)
H10 H 0.6082 0.1784 0.5177
H11 H 0.6137 0.1603 0.5849
C13 C 1.1492(5) 0.3549(5) 0.5748(3)
H12 H 1.1627 0.4224 0.5963
C14 C 0.9142(5) 0.2823(5) 0.6280(3)
H13 H 0.9124 0.3494 0.6489
C15 C 1.2357(5) 0.3346(5) 0.5391(2)
H14 H 1.2900 0.3916 0.5446
C16 C 0.6160(4) -0.1946(5) 0.4474(2)
H15 H 0.5734 -0.2545 0.4549
H16 H 0.5737 -0.1589 0.4120
C17 C 0.9443(5) 0.3842(5) 0.5395(3)
H17 H 0.9130 0.4512 0.5319
O5 O 0.7575(3) 0.2579(3) 0.47822(17)
O6 O 0.9896(4) 0.3495(3) 0.42657(19)
C18 C 1.0618(5) 0.3441(4) 0.4727(3)
N11 N 1.1710(4) 0.3275(4) 0.4785(2)
N12 N 1.0457(4) 0.3570(4) 0.5290(2)
O1B O 1.3937(3) -0.0346(4) 0.55618(15)
O2B O 0.7216(3) -0.1238(4) 0.35886(16)
O3B O 0.9464(3) -0.0619(4) 0.29683(17)
O4B O 1.0841(3) 0.1732(3) 0.34354(18)
N1B N 1.1062(4) -0.2976(4) 0.43666(19)
N2B N 1.2228(3) 0.0512(4) 0.36828(19)
N3B N 1.3673(3) 0.1217(4) 0.50294(18)
N4B N 0.9910(4) -0.2216(4) 0.34601(19)
N5B N 1.2396(4) 0.2052(3) 0.41632(19)
C1B C 1.1816(4) -0.2062(4) 0.3680(2)
H1B H 1.2281 -0.2377 0.3449
N6B N 1.2414(3) -0.1889(4) 0.42959(19)
N7B N 0.7157(3) -0.2336(4) 0.43634(19)
N8B N 1.1244(4) -0.1121(4) 0.33907(19)
N9B N 0.8371(4) -0.2665(4) 0.38499(19)
N10B N 1.3503(4) -0.0308(4) 0.45507(18)
C2B C 1.3719(4) 0.0122(5) 0.5098(2)
C3B C 1.3324(4) 0.0482(5) 0.4082(2)
H2B H 1.3875 0.0417 0.3857
C4B C 0.7553(4) -0.2017(5) 0.3908(2)
C5B C 1.1742(4) 0.1459(5) 0.3733(2)
C6B C 1.1792(5) -0.0250(5) 0.3214(2)
H3B H 1.2388 -0.0519 0.3067
H4B H 1.1287 0.0113 0.2890
C7B C 1.2009(4) -0.2500(4) 0.4675(2)
C8B C 0.8806(5) -0.2634(5) 0.3335(2)
H5B H 0.8332 -0.2198 0.3032
H6B H 0.8801 -0.3346 0.3177
C9B C 1.2146(5) 0.3136(5) 0.4278(3)
H7B H 1.2807 0.3556 0.4337
H8B H 1.1621 0.3411 0.3930
C10B C 1.3443(4) 0.1545(5) 0.4412(2)
H9B H 1.4045 0.1966 0.4339
C11B C 1.0126(5) -0.1248(5) 0.3244(2)
C12B C 1.3502(4) -0.1447(5) 0.4460(3)
H10B H 1.3918 -0.1784 0.4823
H11B H 1.3863 -0.1603 0.4151
C13B C 0.8508(5) -0.3549(5) 0.4252(3)
H12B H 0.8373 -0.4224 0.4037
C14B C 1.0858(5) -0.2823(5) 0.3720(3)
H13B H 1.0876 -0.3494 0.3511
C15B C 0.7643(5) -0.3346(5) 0.4609(2)
H14B H 0.7100 -0.3916 0.4554
C16B C 1.3840(4) 0.1946(5) 0.5526(2)
H15B H 1.4266 0.2545 0.5451
H16B H 1.4263 0.1589 0.5880
C17B C 1.0557(5) -0.3842(5) 0.4605(3)
H17B H 1.0870 -0.4512 0.4681
O5B O 1.2425(3) -0.2579(3) 0.52178(17)
O6B O 1.0104(4) -0.3495(3) 0.57343(19)
C18B C 0.9382(5) -0.3441(4) 0.5273(3)
N11B N 0.8290(4) -0.3275(4) 0.5215(2)
N12B N 0.9543(4) -0.3570(4) 0.4710(2)
N13 N 0.7484(4) 0.1100(5) 0.3769(2)
H18 H 0.7280 0.1413 0.4070
H19 H 0.7245 0.0424 0.3743
C19 C 0.8669(5) 0.1109(6) 0.3894(3)
H20 H 0.8927 0.1837 0.3937
H21 H 0.8886 0.0797 0.3562
C20 C 0.4042(8) 0.2505(11) 0.2994(4)
C21 C 0.3560(8) 0.1619(12) 0.2704(5)
H22 H 0.2802 0.1641 0.2567
C22 C 0.5724(6) 0.1636(9) 0.3057(3)
C23 C 0.5208(8) 0.2491(8) 0.3173(4)
H23 H 0.5598 0.3070 0.3367
C24 C 0.6982(6) 0.1654(8) 0.3217(3)
H24 H 0.7226 0.1329 0.2898
H25 H 0.7229 0.2386 0.3252
C25 C 0.5160(7) 0.0751(9) 0.2767(3)
H26 H 0.5555 0.0170 0.2691
C26 C 0.9202(9) 0.0492(11) 0.4458(5)
O7 O 0.2473(10) 0.3517(12) 0.2890(7)
C27 C 0.4039(10) 0.0718(13) 0.2592(4)
H27 H 0.3647 0.0128 0.2412
O8 O 0.3980(16) 0.4110(18) 0.3400(8)
C28 C 0.3414(11) 0.3331(17) 0.3088(6)
C29 C 0.9142(16) 0.025(3) 0.4863(12)
N13B N 1.2516(4) -0.1100(5) 0.6231(2)
H18B H 1.2720 -0.1413 0.5930
H19B H 1.2755 -0.0424 0.6257
C19B C 1.1331(5) -0.1109(6) 0.6106(3)
H20B H 1.1073 -0.1837 0.6063
H21B H 1.1114 -0.0797 0.6438
C20B C 1.5958(8) -0.2505(11) 0.7006(4)
C21B C 1.6440(8) -0.1619(12) 0.7296(5)
H22B H 1.7198 -0.1641 0.7433
C22B C 1.4276(6) -0.1636(9) 0.6943(3)
C23B C 1.4792(8) -0.2491(8) 0.6827(4)
H23B H 1.4402 -0.3070 0.6633
C24B C 1.3018(6) -0.1654(8) 0.6783(3)
H24B H 1.2774 -0.1329 0.7102
H25B H 1.2771 -0.2386 0.6748
C25B C 1.4840(7) -0.0751(9) 0.7233(3)
H26B H 1.4445 -0.0170 0.7309
C26B C 1.0798(9) -0.0492(11) 0.5542(5)
O7B O 1.7527(10) -0.3517(12) 0.7110(7)
C27B C 1.5961(10) -0.0718(13) 0.7408(4)
H27B H 1.6353 -0.0128 0.7588
O8B O 1.6020(16) -0.4110(18) 0.6600(8)
C28B C 1.6586(11) -0.3331(17) 0.6912(6)
C29B C 1.0858(16) -0.025(3) 0.5137(12)
C30? C 1.0309(9) 0.0458(11) 0.4650(5)
loop_
_geom_bond_atom_site_label_1
_geom_bond_atom_site_label_2
_geom_bond_site_symmetry_1
_geom_bond_site_symmetry_2
O1 C2 1_555 1_555
O2 C4 1_555 1_555
O3 C11 1_555 1_555
O4 C5 1_555 1_555
N1 C7 1_555 1_555
N2 C3 1_555 1_555
N3 C2 1_555 1_555
N4 C8 1_555 1_555
N5 C5 1_555 1_555
C1 H1 1_555 1_555
N6 C1 1_555 1_555
N7 C4 1_555 1_555
N8 C1 1_555 1_555
N9 C4 1_555 1_555
N10 C2 1_555 1_555
C3 N10 1_555 1_555
H2 C3 1_555 1_555
C5 N2 1_555 1_555
C6 N2 1_555 1_555
H3 C6 1_555 1_555
H4 C6 1_555 1_555
C7 N6 1_555 1_555
C8 N9 1_555 1_555
H5 C8 1_555 1_555
H6 C8 1_555 1_555
C9 N5 1_555 1_555
H7 C9 1_555 1_555
H8 C9 1_555 1_555
C10 N3 1_555 1_555
H9 C10 1_555 1_555
C11 N4 1_555 1_555
C12 N6 1_555 1_555
H10 C12 1_555 1_555
H11 C12 1_555 1_555
C13 N9 1_555 1_555
H12 C13 1_555 1_555
C14 N1 1_555 1_555
H13 C14 1_555 1_555
C15 N7 1_555 1_555
H14 C15 1_555 1_555
C16 N3 1_555 1_555
H15 C16 1_555 1_555
H16 C16 1_555 1_555
C17 N1 1_555 1_555
H17 C17 1_555 1_555
O5 C7 1_555 1_555
O6 C18 1_555 1_555
C18 N11 1_555 1_555
N11 C15 1_555 1_555
N12 C13 1_555 1_555
N13 H18 1_555 1_555
H19 N13 1_555 1_555
C19 N13 1_555 1_555
H20 C19 1_555 1_555
H21 C19 1_555 1_555
C20 C21 1_555 1_555
C21 H22 1_555 1_555
C22 C23 1_555 1_555
C23 C20 1_555 1_555
H23 C23 1_555 1_555
C24 N13 1_555 1_555
H24 C24 1_555 1_555
H25 C24 1_555 1_555
C25 C22 1_555 1_555
H26 C25 1_555 1_555
C26 C19 1_555 1_555
O7 C28 1_555 1_555
C27 C21 1_555 1_555
H27 C27 1_555 1_555
O8 C28 1_555 1_555
C28 C20 1_555 1_555
C29 C26 1_555 1_555
O1B C2B 1_555 1_555
O2B C4B 1_555 1_555
O3B C11B 1_555 1_555
O4B C5B 1_555 1_555
N1B C7B 1_555 1_555
N2B C3B 1_555 1_555
N3B C2B 1_555 1_555
N4B C8B 1_555 1_555
N5B C5B 1_555 1_555
C1B H1B 1_555 1_555
N6B C1B 1_555 1_555
N7B C16 1_555 1_555
N8B C1B 1_555 1_555
N9B C4B 1_555 1_555
N10B C2B 1_555 1_555
C3B N10B 1_555 1_555
H2B C3B 1_555 1_555
C4B N7B 1_555 1_555
C5B N2B 1_555 1_555
C6B N2B 1_555 1_555
H3B C6B 1_555 1_555
H4B C6B 1_555 1_555
C7B N6B 1_555 1_555
C8B N9B 1_555 1_555
H5B C8B 1_555 1_555
H6B C8B 1_555 1_555
C9B N11 1_555 1_555
H7B C9B 1_555 1_555
H8B C9B 1_555 1_555
C10B N3B 1_555 1_555
H9B C10B 1_555 1_555
C11B N4B 1_555 1_555
C12B N6B 1_555 1_555
H10B C12B 1_555 1_555
H11B C12B 1_555 1_555
C13B N9B 1_555 1_555
H12B C13B 1_555 1_555
C14B N1B 1_555 1_555
H13B C14B 1_555 1_555
C15B N7B 1_555 1_555
H14B C15B 1_555 1_555
C16B N7 1_555 1_555
H15B C16B 1_555 1_555
H16B C16B 1_555 1_555
C17B N1B 1_555 1_555
H17B C17B 1_555 1_555
O5B C7B 1_555 1_555
O6B C18B 1_555 1_555
C18B N11B 1_555 1_555
N11B C9 1_555 1_555
N12B C13B 1_555 1_555
N13B H18B 1_555 1_555
H19B N13B 1_555 1_555
C19B N13B 1_555 1_555
H20B C19B 1_555 1_555
H21B C19B 1_555 1_555
C20B C21B 1_555 1_555
C21B H22B 1_555 1_555
C22B C23B 1_555 1_555
C23B C20B 1_555 1_555
H23B C23B 1_555 1_555
C24B N13B 1_555 1_555
H24B C24B 1_555 1_555
H25B C24B 1_555 1_555
C25B C22B 1_555 1_555
H26B C25B 1_555 1_555
C26B C19B 1_555 1_555
O7B C28B 1_555 1_555
C27B C21B 1_555 1_555
H27B C27B 1_555 1_555
O8B C28B 1_555 1_555
C28B C20B 1_555 1_555
C29B C29 1_555 1_555
N4 C14 1_555 1_555
N5 C10 1_555 1_555
C1 C14 1_555 1_555
N8 C6 1_555 1_555
N8 C11 1_555 1_555
N10 C12 1_555 1_555
C3 C10 1_555 1_555
C13 C15 1_555 1_555
C17 N12 1_555 1_555
C18 N12 1_555 1_555
C22 C24 1_555 1_555
C25 C27 1_555 1_555
N3B C16B 1_555 1_555
N4B C14B 1_555 1_555
N5B C9B 1_555 1_555
N5B C10B 1_555 1_555
C1B C14B 1_555 1_555
N8B C6B 1_555 1_555
N8B C11B 1_555 1_555
N10B C12B 1_555 1_555
C3B C10B 1_555 1_555
C13B C15B 1_555 1_555
C15B N11B 1_555 1_555
C17B N12B 1_555 1_555
C18B N12B 1_555 1_555
C22B C24B 1_555 1_555
C25B C27B 1_555 1_555
C26B C29B 1_555 1_555

#END
