
#######################################################################
#
#                 Cambridge Crystallographic Data Centre
#                                CCDC 
#
#######################################################################
#
# If this CIF has been generated from an entry in the Cambridge 
# Structural Database, then it will include bibliographic, chemical, 
# crystal, experimental, refinement or atomic coordinate data resulting 
# from the CCDC's data processing and validation procedures.
#
#######################################################################

data_MUNDUV
_chemical_formula_moiety         'C28 H33 I1 Li2 O4'
_chemical_name_systematic        
(\m~2~-iodo)-(\m~2~-2,2''-bis(methoxy)-1,1':3',1''-terphenyl-2'-yl)-bis(tetrahydrofuran)-di-lithium
_symmetry_cell_setting           monoclinic
_symmetry_space_group_name_H-M   'P 21/n'
_symmetry_Int_Tables_number      14
_space_group_name_Hall           '-P 2yn'
loop_
_symmetry_equiv_pos_site_id
_symmetry_equiv_pos_as_xyz
1 x,y,z
2 1/2-x,1/2+y,1/2-z
3 -x,-y,-z
4 1/2+x,1/2-y,1/2+z
_cell_length_a                   10.6788(13)
_cell_length_b                   18.338(2)
_cell_length_c                   14.1827(18)
_cell_angle_alpha                90
_cell_angle_beta                 100.334(2)
_cell_angle_gamma                90
_cell_volume                     2732.32
_exptl_crystal_colour            colorless
_exptl_crystal_description       rod
_cell_formula_units_Z            4
loop_
_atom_site_label
_atom_site_type_symbol
_atom_site_fract_x
_atom_site_fract_y
_atom_site_fract_z
I1 I 0.313013(17) 0.181827(10) 0.814704(13)
Li1 Li 0.1150(4) 0.1029(2) 0.8708(3)
Li2 Li 0.1520(4) 0.0906(2) 0.6908(3)
O1 O 0.17967(16) 0.02512(9) 0.96120(11)
O2 O 0.00849(16) 0.13335(9) 0.59862(12)
O3 O 0.0131(2) 0.17408(9) 0.92320(15)
O4 O 0.25146(18) 0.03961(11) 0.61374(15)
C1 C 0.2139(3) 0.04572(16) 1.06010(18)
H1 H 0.2441 0.0032 1.0982
H2 H 0.1400 0.0657 1.0820
H3 H 0.2806 0.0822 1.0670
C2 C 0.2498(2) -0.03008(12) 0.92773(17)
C3 C 0.3657(2) -0.05345(14) 0.9787(2)
H4 H 0.4000 -0.0312 1.0374
C4 C 0.4310(3) -0.10918(16) 0.9439(2)
H5 H 0.5100 -0.1244 0.9786
C5 C 0.3812(3) -0.14257(16) 0.8587(2)
H6 H 0.4266 -0.1799 0.8343
C6 C 0.2629(3) -0.12061(14) 0.80900(19)
H7 H 0.2280 -0.1445 0.7517
C7 C 0.1948(2) -0.06394(12) 0.84194(16)
C8 C 0.0641(2) -0.04675(12) 0.78892(15)
C9 C -0.0166(3) -0.10657(13) 0.76449(17)
H8 H 0.0131 -0.1539 0.7810
C10 C -0.1391(3) -0.09634(14) 0.71637(18)
H9 H -0.1935 -0.1365 0.7001
C11 C -0.1814(2) -0.02628(14) 0.69214(17)
H10 H -0.2656 -0.0188 0.6604
C12 C -0.1002(2) 0.03355(12) 0.71444(15)
C13 C 0.0268(2) 0.02601(12) 0.76359(15)
C14 C -0.1549(2) 0.10699(13) 0.68694(15)
C15 C -0.2680(2) 0.12863(15) 0.71533(19)
H11 H -0.3059 0.0970 0.7541
C16 C -0.3264(3) 0.19462(18) 0.6888(2)
H12 H -0.4021 0.2076 0.7098
C17 C -0.2726(3) 0.24068(15) 0.6315(2)
H13 H -0.3119 0.2856 0.6132
C18 C -0.1606(3) 0.22224(14) 0.59997(19)
H14 H -0.1250 0.2540 0.5600
C19 C -0.1020(2) 0.15575(13) 0.62869(17)
C20 C 0.0413(3) 0.17002(15) 0.5176(2)
H15 H -0.0353 0.1888 0.4778
H16 H 0.0829 0.1361 0.4808
H17 H 0.0985 0.2101 0.5393
C21 C -0.0072(3) 0.24750(15) 0.8888(3)
H18 H -0.0518 0.2479 0.8221
H19 H 0.0741 0.2731 0.8925
C22 C -0.0857(4) 0.2822(2) 0.9524(3)
H20 H -0.0320 0.3037 1.0088
H21 H -0.1401 0.3204 0.9183
C23 C -0.1630(4) 0.2221(2) 0.9801(4)
H22 H -0.2483 0.2225 0.9406
H23 H -0.1713 0.2267 1.0475
C24 C -0.0950(3) 0.15316(19) 0.9645(2)
H24 H -0.0673 0.1278 1.0255
H25 H -0.1509 0.1207 0.9211
C25 C 0.3859(4) 0.0394(2) 0.6229(4)
H26 H 0.4252 0.0634 0.6826
H27 H 0.4115 0.0654 0.5690
C26 C 0.4258(3) -0.0370(2) 0.6233(3)
H28 H 0.4391 -0.0572 0.6883
H29 H 0.5045 -0.0422 0.5974
C27 C 0.3169(3) -0.07361(19) 0.5602(3)
H30 H 0.3047 -0.1231 0.5830
H31 H 0.3318 -0.0763 0.4941
C28 C 0.2030(3) -0.02676(16) 0.5660(2)
H32 H 0.1557 -0.0161 0.5017
H33 H 0.1459 -0.0516 0.6025
loop_
_geom_bond_atom_site_label_1
_geom_bond_atom_site_label_2
_geom_bond_site_symmetry_1
_geom_bond_site_symmetry_2
I1 Li1 1_555 1_555
Li1 O1 1_555 1_555
Li2 I1 1_555 1_555
O1 C1 1_555 1_555
O2 Li2 1_555 1_555
O3 Li1 1_555 1_555
O4 Li2 1_555 1_555
C1 H1 1_555 1_555
H2 C1 1_555 1_555
H3 C1 1_555 1_555
C2 O1 1_555 1_555
C3 C2 1_555 1_555
H4 C3 1_555 1_555
C4 C3 1_555 1_555
H5 C4 1_555 1_555
C5 C4 1_555 1_555
H6 C5 1_555 1_555
C6 C5 1_555 1_555
H7 C6 1_555 1_555
C7 C2 1_555 1_555
C8 C7 1_555 1_555
C9 C8 1_555 1_555
H8 C9 1_555 1_555
C10 C9 1_555 1_555
H9 C10 1_555 1_555
C11 C10 1_555 1_555
H10 C11 1_555 1_555
C12 C11 1_555 1_555
C13 Li1 1_555 1_555
C14 C12 1_555 1_555
C15 C14 1_555 1_555
H11 C15 1_555 1_555
C16 C15 1_555 1_555
H12 C16 1_555 1_555
C17 C16 1_555 1_555
H13 C17 1_555 1_555
C18 C17 1_555 1_555
H14 C18 1_555 1_555
C19 O2 1_555 1_555
C20 O2 1_555 1_555
H15 C20 1_555 1_555
H16 C20 1_555 1_555
H17 C20 1_555 1_555
C21 O3 1_555 1_555
H18 C21 1_555 1_555
H19 C21 1_555 1_555
C22 C21 1_555 1_555
H20 C22 1_555 1_555
H21 C22 1_555 1_555
C23 C22 1_555 1_555
H22 C23 1_555 1_555
H23 C23 1_555 1_555
C24 O3 1_555 1_555
H24 C24 1_555 1_555
H25 C24 1_555 1_555
C25 O4 1_555 1_555
H26 C25 1_555 1_555
H27 C25 1_555 1_555
C26 C25 1_555 1_555
H28 C26 1_555 1_555
H29 C26 1_555 1_555
C27 C26 1_555 1_555
H30 C27 1_555 1_555
H31 C27 1_555 1_555
C28 O4 1_555 1_555
H32 C28 1_555 1_555
H33 C28 1_555 1_555
Li2 C13 1_555 1_555
C6 C7 1_555 1_555
C8 C13 1_555 1_555
C12 C13 1_555 1_555
C14 C19 1_555 1_555
C18 C19 1_555 1_555
C23 C24 1_555 1_555
C27 C28 1_555 1_555

#END
