
#######################################################################
#
#                 Cambridge Crystallographic Data Centre
#                                CCDC 
#
#######################################################################
#
# If this CIF has been generated from an entry in the Cambridge 
# Structural Database, then it will include bibliographic, chemical, 
# crystal, experimental, refinement or atomic coordinate data resulting 
# from the CCDC's data processing and validation procedures.
#
#######################################################################

data_MUNFEH
_chemical_formula_moiety         'C64 H104 K2 Mg1 N4 O3 Si2'
_chemical_name_systematic        
bis(\m~3~-\h^6^,\h^6^-N,N'-bis(2,6-diisopropylphenyl)-1,1-dimethylsilanediamino)-tris(tetrahydrofuran)-di-potassium-magnesium
_symmetry_cell_setting           monoclinic
_symmetry_space_group_name_H-M   'P 21/c'
_symmetry_Int_Tables_number      14
_space_group_name_Hall           '-P 2ybc'
loop_
_symmetry_equiv_pos_site_id
_symmetry_equiv_pos_as_xyz
1 x,y,z
2 -x,1/2+y,1/2-z
3 -x,-y,-z
4 x,1/2-y,1/2+z
_cell_length_a                   15.294(3)
_cell_length_b                   24.825(6)
_cell_length_c                   18.800(4)
_cell_angle_alpha                90
_cell_angle_beta                 112.095(2)
_cell_angle_gamma                90
_cell_volume                     6613.67
_exptl_crystal_colour            colorless
_exptl_crystal_description       block
_chemical_melting_point          '192-194 deg.C (dec.)'
_cell_formula_units_Z            4
loop_
_atom_site_label
_atom_site_type_symbol
_atom_site_fract_x
_atom_site_fract_y
_atom_site_fract_z
Mg1 Mg 0.18521(5) 0.62705(3) 0.29793(4)
K1 K 0.50253(4) 0.70239(2) 0.39085(3)
K2 K -0.11874(5) 0.55384(3) 0.21746(4)
N1 N 0.30302(14) 0.58937(8) 0.28388(11)
N2 N 0.14542(14) 0.54475(8) 0.27424(12)
N3 N 0.05746(14) 0.66919(8) 0.27970(11)
N4 N 0.23000(14) 0.70380(8) 0.34964(12)
O1 O 0.66687(14) 0.69104(10) 0.51781(12)
O2 O 0.60305(16) 0.77742(9) 0.34838(12)
O3 O -0.29619(19) 0.52080(12) 0.15032(16)
Si1 Si 0.24925(5) 0.52784(3) 0.26480(4)
Si2 Si 0.11608(5) 0.72626(3) 0.32323(4)
C1 C 0.38123(17) 0.60700(10) 0.27056(14)
C2 C 0.47606(18) 0.58843(11) 0.31405(15)
C3 C 0.55301(18) 0.61172(12) 0.30346(16)
H1 H 0.6161 0.5940 0.3276
C4 C 0.5428(2) 0.65267(12) 0.25091(17)
H2 H 0.5982 0.6651 0.2393
C5 C 0.45239(19) 0.66841(12) 0.20498(16)
H3 H 0.4440 0.6977 0.1664
C6 C 0.37286(18) 0.64610(11) 0.21259(15)
C7 C 0.49448(19) 0.54208(11) 0.36976(16)
H4 H 0.4345 0.5340 0.3773
C8 C 0.5711(2) 0.55409(14) 0.44854(17)
H5 H 0.5535 0.5862 0.4705
H6 H 0.6313 0.5604 0.4428
H7 H 0.5774 0.5233 0.4828
C9 C 0.5222(2) 0.49178(12) 0.33528(19)
H8 H 0.4732 0.4841 0.2849
H9 H 0.5287 0.4610 0.3695
H10 H 0.5824 0.4982 0.3294
C10 C 0.27698(19) 0.66100(11) 0.15285(15)
H11 H 0.2282 0.6398 0.1643
C11 C 0.2541(2) 0.72018(13) 0.1554(2)
H12 H 0.2585 0.7296 0.2072
H13 H 0.1900 0.7273 0.1187
H14 H 0.2991 0.7419 0.1419
C12 C 0.2708(2) 0.64491(14) 0.07188(16)
H15 H 0.2086 0.6547 0.0341
H16 H 0.2801 0.6060 0.0701
H17 H 0.3198 0.6639 0.0600
C13 C 0.08282(18) 0.50943(10) 0.28723(15)
C14 C 0.02682(19) 0.47100(11) 0.23166(16)
C15 C -0.0400(2) 0.43952(12) 0.24658(18)
H18 H -0.0734 0.4107 0.2090
C16 C -0.0570(2) 0.44364(13) 0.31298(19)
H19 H -0.1046 0.4201 0.3224
C17 C -0.0019(2) 0.47908(13) 0.36847(18)
H20 H -0.0150 0.4838 0.4164
C18 C 0.06847(19) 0.51020(12) 0.35856(16)
C19 C 0.0354(2) 0.46320(12) 0.15444(16)
H21 H 0.0813 0.4905 0.1501
C20 C 0.0741(2) 0.40728(13) 0.1485(2)
H22 H 0.1345 0.4020 0.1914
H23 H 0.0835 0.4043 0.0999
H24 H 0.0291 0.3798 0.1505
C21 C -0.0589(2) 0.47179(15) 0.08667(18)
H25 H -0.0834 0.5078 0.0901
H26 H -0.1044 0.4445 0.0884
H27 H -0.0491 0.4685 0.0383
C22 C 0.1342(2) 0.54088(12) 0.42796(16)
H28 H 0.1851 0.5575 0.4140
C23 C 0.1810(2) 0.50131(14) 0.49570(19)
H29 H 0.2131 0.4725 0.4792
H30 H 0.1325 0.4856 0.5117
H31 H 0.2271 0.5208 0.5389
C24 C 0.0853(2) 0.58522(13) 0.45355(18)
H32 H 0.0558 0.6103 0.4109
H33 H 0.1315 0.6046 0.4968
H34 H 0.0367 0.5696 0.4695
C25 C 0.2957(2) 0.46795(11) 0.33070(16)
H35 H 0.3127 0.4391 0.3027
H36 H 0.2469 0.4550 0.3485
H37 H 0.3516 0.4788 0.3750
C26 C 0.2530(2) 0.50557(12) 0.16977(15)
H38 H 0.2787 0.4690 0.1748
H39 H 0.2932 0.5302 0.1549
H40 H 0.1890 0.5060 0.1304
C27 C 0.30754(16) 0.72711(10) 0.40688(14)
C28 C 0.35508(17) 0.69974(10) 0.47837(14)
C29 C 0.43683(18) 0.72102(12) 0.53373(15)
H41 H 0.4691 0.7004 0.5823
C30 C 0.47396(18) 0.76989(12) 0.52421(16)
H42 H 0.5291 0.7860 0.5666
C31 C 0.42687(18) 0.79843(11) 0.45753(15)
H43 H 0.4487 0.8357 0.4524
C32 C 0.34567(17) 0.77857(11) 0.39965(15)
C33 C 0.31816(19) 0.64688(11) 0.49610(15)
H44 H 0.2519 0.6424 0.4585
C34 C 0.3162(2) 0.64493(13) 0.57752(17)
H45 H 0.2789 0.6752 0.5842
H46 H 0.3808 0.6474 0.6156
H47 H 0.2877 0.6109 0.5844
C35 C 0.3761(2) 0.60004(12) 0.48476(17)
H48 H 0.3769 0.6016 0.4329
H49 H 0.3478 0.5659 0.4914
H50 H 0.4408 0.6024 0.5226
C36 C 0.30070(19) 0.81465(11) 0.33025(16)
H51 H 0.2449 0.7952 0.2931
C37 C 0.3672(2) 0.82767(15) 0.28931(18)
H52 H 0.3897 0.7941 0.2747
H53 H 0.4212 0.8483 0.3237
H54 H 0.3336 0.8490 0.2432
C38 C 0.2652(2) 0.86689(12) 0.3531(2)
H55 H 0.2225 0.8584 0.3794
H56 H 0.2315 0.8882 0.3070
H57 H 0.3190 0.8876 0.3876
C39 C -0.03611(17) 0.66799(10) 0.22906(14)
C40 C -0.11426(18) 0.67207(11) 0.25368(15)
C41 C -0.20707(18) 0.66750(12) 0.20070(17)
H58 H -0.2600 0.6735 0.2187
C42 C -0.22819(19) 0.65875(13) 0.12381(17)
H59 H -0.2951 0.6563 0.0868
C43 C -0.15392(19) 0.65553(12) 0.09861(16)
H60 H -0.1680 0.6480 0.0431
C44 C -0.06025(18) 0.66151(11) 0.14829(15)
C45 C -0.10099(19) 0.67988(13) 0.33689(16)
H61 H -0.0317 0.6815 0.3679
C46 C -0.1448(2) 0.73273(15) 0.3487(2)
H62 H -0.1183 0.7627 0.3294
H63 H -0.1310 0.7379 0.4035
H64 H -0.2133 0.7315 0.3207
C47 C -0.1422(2) 0.63265(16) 0.36711(19)
H65 H -0.1140 0.5988 0.3594
H66 H -0.2107 0.6313 0.3392
H67 H -0.1283 0.6378 0.4220
C48 C 0.01452(19) 0.66252(11) 0.11356(14)
H68 H 0.0751 0.6743 0.1546
C49 C -0.0096(2) 0.70305(15) 0.04788(18)
H69 H -0.0197 0.7386 0.0661
H70 H -0.0673 0.6916 0.0057
H71 H 0.0425 0.7050 0.0297
C50 C 0.0303(2) 0.60685(13) 0.08686(17)
H72 H 0.0459 0.5814 0.1297
H73 H 0.0825 0.6083 0.0686
H74 H -0.0272 0.5949 0.0450
C51 C 0.0686(2) 0.78216(11) 0.25017(18)
H75 H 0.0490 0.8126 0.2739
H76 H 0.0144 0.7688 0.2065
H77 H 0.1180 0.7940 0.2323
C52 C 0.1038(2) 0.75238(14) 0.41289(18)
H78 H 0.0771 0.7888 0.4036
H79 H 0.1660 0.7534 0.4547
H80 H 0.0619 0.7286 0.4271
C53 C 0.6877(2) 0.68671(15) 0.59876(17)
H81 H 0.6583 0.6539 0.6100
H82 H 0.6633 0.7185 0.6172
C54 C 0.7938(2) 0.68375(15) 0.6374(2)
H83 H 0.8218 0.7201 0.6507
H84 H 0.8130 0.6615 0.6846
C55 C 0.8220(3) 0.6581(2) 0.5783(3)
H85 H 0.8205 0.6184 0.5818
H86 H 0.8863 0.6695 0.5838
C56 C 0.7498(2) 0.67772(19) 0.5038(2)
H87 H 0.7737 0.7098 0.4855
H88 H 0.7357 0.6493 0.4641
C57 C 0.5976(2) 0.79963(15) 0.27656(18)
H89 H 0.5316 0.7992 0.2390
H90 H 0.6371 0.7786 0.2553
C58 C 0.6329(4) 0.8560(2) 0.2930(3)
H91 H 0.6833 0.8628 0.2731
H92 H 0.5811 0.8821 0.2691
C59 C 0.6696(7) 0.8609(3) 0.3763(3)
H93 H 0.7374 0.8704 0.3954
H94 H 0.6357 0.8899 0.3914
C60 C 0.6580(3) 0.81344(16) 0.4075(2)
H95 H 0.6258 0.8199 0.4437
H96 H 0.7204 0.7972 0.4366
C61 C -0.3514(3) 0.53151(19) 0.0722(2)
H97 H -0.3664 0.4978 0.0418
H98 H -0.3181 0.5564 0.0497
C62 C -0.4403(3) 0.5574(2) 0.0746(3)
H99 H -0.4303 0.5961 0.0879
H100 H -0.4939 0.5535 0.0248
C63 C -0.4567(3) 0.5256(2) 0.1375(3)
H101 H -0.4911 0.5472 0.1628
H102 H -0.4921 0.4920 0.1172
C64 C -0.3564(3) 0.5139(2) 0.1918(3)
H103 H -0.3378 0.5389 0.2361
H104 H -0.3516 0.4766 0.2114
loop_
_geom_bond_atom_site_label_1
_geom_bond_atom_site_label_2
_geom_bond_site_symmetry_1
_geom_bond_site_symmetry_2
Mg1 N1 1_555 1_555
K1 O1 1_555 1_555
K2 O3 1_555 1_555
N1 Si1 1_555 1_555
N2 Mg1 1_555 1_555
N3 Mg1 1_555 1_555
N4 Mg1 1_555 1_555
O1 C53 1_555 1_555
O2 K1 1_555 1_555
O3 C61 1_555 1_555
Si1 N2 1_555 1_555
Si2 N3 1_555 1_555
C1 K1 1_555 1_555
C2 K1 1_555 1_555
C3 K1 1_555 1_555
H1 C3 1_555 1_555
C4 K1 1_555 1_555
H2 C4 1_555 1_555
C5 K1 1_555 1_555
H3 C5 1_555 1_555
C6 K1 1_555 1_555
C7 C2 1_555 1_555
H4 C7 1_555 1_555
C8 C7 1_555 1_555
H5 C8 1_555 1_555
H6 C8 1_555 1_555
H7 C8 1_555 1_555
C9 C7 1_555 1_555
H8 C9 1_555 1_555
H9 C9 1_555 1_555
H10 C9 1_555 1_555
C10 C6 1_555 1_555
H11 C10 1_555 1_555
C11 C10 1_555 1_555
H12 C11 1_555 1_555
H13 C11 1_555 1_555
H14 C11 1_555 1_555
C12 C10 1_555 1_555
H15 C12 1_555 1_555
H16 C12 1_555 1_555
H17 C12 1_555 1_555
C13 K2 1_555 1_555
C14 K2 1_555 1_555
C15 K2 1_555 1_555
H18 C15 1_555 1_555
C16 K2 1_555 1_555
H19 C16 1_555 1_555
C17 K2 1_555 1_555
H20 C17 1_555 1_555
C18 K2 1_555 1_555
C19 C14 1_555 1_555
H21 C19 1_555 1_555
C20 C19 1_555 1_555
H22 C20 1_555 1_555
H23 C20 1_555 1_555
H24 C20 1_555 1_555
C21 C19 1_555 1_555
H25 C21 1_555 1_555
H26 C21 1_555 1_555
H27 C21 1_555 1_555
C22 C18 1_555 1_555
H28 C22 1_555 1_555
C23 C22 1_555 1_555
H29 C23 1_555 1_555
H30 C23 1_555 1_555
H31 C23 1_555 1_555
C24 C22 1_555 1_555
H32 C24 1_555 1_555
H33 C24 1_555 1_555
H34 C24 1_555 1_555
C25 Si1 1_555 1_555
H35 C25 1_555 1_555
H36 C25 1_555 1_555
H37 C25 1_555 1_555
C26 Si1 1_555 1_555
H38 C26 1_555 1_555
H39 C26 1_555 1_555
H40 C26 1_555 1_555
C27 K1 1_555 1_555
C28 K1 1_555 1_555
C29 K1 1_555 1_555
H41 C29 1_555 1_555
C30 K1 1_555 1_555
H42 C30 1_555 1_555
C31 K1 1_555 1_555
H43 C31 1_555 1_555
C32 K1 1_555 1_555
C33 C28 1_555 1_555
H44 C33 1_555 1_555
C34 C33 1_555 1_555
H45 C34 1_555 1_555
H46 C34 1_555 1_555
H47 C34 1_555 1_555
C35 C33 1_555 1_555
H48 C35 1_555 1_555
H49 C35 1_555 1_555
H50 C35 1_555 1_555
C36 C32 1_555 1_555
H51 C36 1_555 1_555
C37 C36 1_555 1_555
H52 C37 1_555 1_555
H53 C37 1_555 1_555
H54 C37 1_555 1_555
C38 C36 1_555 1_555
H55 C38 1_555 1_555
H56 C38 1_555 1_555
H57 C38 1_555 1_555
C39 K2 1_555 1_555
C40 K2 1_555 1_555
C41 K2 1_555 1_555
H58 C41 1_555 1_555
C42 K2 1_555 1_555
H59 C42 1_555 1_555
C43 K2 1_555 1_555
H60 C43 1_555 1_555
C44 K2 1_555 1_555
C45 C40 1_555 1_555
H61 C45 1_555 1_555
C46 C45 1_555 1_555
H62 C46 1_555 1_555
H63 C46 1_555 1_555
H64 C46 1_555 1_555
C47 C45 1_555 1_555
H65 C47 1_555 1_555
H66 C47 1_555 1_555
H67 C47 1_555 1_555
C48 C44 1_555 1_555
H68 C48 1_555 1_555
C49 C48 1_555 1_555
H69 C49 1_555 1_555
H70 C49 1_555 1_555
H71 C49 1_555 1_555
C50 C48 1_555 1_555
H72 C50 1_555 1_555
H73 C50 1_555 1_555
H74 C50 1_555 1_555
C51 Si2 1_555 1_555
H75 C51 1_555 1_555
H76 C51 1_555 1_555
H77 C51 1_555 1_555
C52 Si2 1_555 1_555
H78 C52 1_555 1_555
H79 C52 1_555 1_555
H80 C52 1_555 1_555
C53 H81 1_555 1_555
H82 C53 1_555 1_555
C54 C53 1_555 1_555
H83 C54 1_555 1_555
H84 C54 1_555 1_555
C55 C54 1_555 1_555
H85 C55 1_555 1_555
H86 C55 1_555 1_555
C56 O1 1_555 1_555
H87 C56 1_555 1_555
H88 C56 1_555 1_555
C57 O2 1_555 1_555
H89 C57 1_555 1_555
H90 C57 1_555 1_555
C58 C57 1_555 1_555
H91 C58 1_555 1_555
H92 C58 1_555 1_555
C59 C58 1_555 1_555
H93 C59 1_555 1_555
H94 C59 1_555 1_555
C60 O2 1_555 1_555
H95 C60 1_555 1_555
H96 C60 1_555 1_555
C61 H97 1_555 1_555
H98 C61 1_555 1_555
C62 C61 1_555 1_555
H99 C62 1_555 1_555
H100 C62 1_555 1_555
C63 C62 1_555 1_555
H101 C63 1_555 1_555
H102 C63 1_555 1_555
C64 O3 1_555 1_555
H103 C64 1_555 1_555
H104 C64 1_555 1_555
N1 C1 1_555 1_555
N2 C13 1_555 1_555
N3 C39 1_555 1_555
N4 Si2 1_555 1_555
N4 C27 1_555 1_555
C1 C2 1_555 1_555
C1 C6 1_555 1_555
C2 C3 1_555 1_555
C3 C4 1_555 1_555
C4 C5 1_555 1_555
C5 C6 1_555 1_555
C13 C14 1_555 1_555
C13 C18 1_555 1_555
C14 C15 1_555 1_555
C15 C16 1_555 1_555
C16 C17 1_555 1_555
C17 C18 1_555 1_555
C27 C28 1_555 1_555
C27 C32 1_555 1_555
C28 C29 1_555 1_555
C29 C30 1_555 1_555
C30 C31 1_555 1_555
C31 C32 1_555 1_555
C39 C40 1_555 1_555
C39 C44 1_555 1_555
C40 C41 1_555 1_555
C41 C42 1_555 1_555
C42 C43 1_555 1_555
C43 C44 1_555 1_555
C55 C56 1_555 1_555
C59 C60 1_555 1_555
C63 C64 1_555 1_555

#END
