
#######################################################################
#
#                 Cambridge Crystallographic Data Centre
#                                CCDC 
#
#######################################################################
#
# If this CIF has been generated from an entry in the Cambridge 
# Structural Database, then it will include bibliographic, chemical, 
# crystal, experimental, refinement or atomic coordinate data resulting 
# from the CCDC's data processing and validation procedures.
#
#######################################################################

data_MUNFAD
_chemical_formula_moiety         'C52 H80 Mg2 N4 Si2'
_chemical_name_systematic        
bis(\m~2~-N,N'-bis(2,6-diisopropylphenyl)-1,1-dimethylsilanediamine)-di-magnesium
_symmetry_cell_setting           orthorhombic
_symmetry_space_group_name_H-M   'P n a 21'
_symmetry_Int_Tables_number      33
_space_group_name_Hall           'P 2c -2n'
loop_
_symmetry_equiv_pos_site_id
_symmetry_equiv_pos_as_xyz
1 x,y,z
2 -x,-y,1/2+z
3 1/2+x,1/2-y,z
4 1/2-x,1/2+y,1/2+z
_cell_length_a                   21.054(3)
_cell_length_b                   18.704(2)
_cell_length_c                   13.4708(16)
_cell_angle_alpha                90
_cell_angle_beta                 90
_cell_angle_gamma                90
_cell_volume                     5304.72
_exptl_crystal_colour            colorless
_exptl_crystal_description       prism
_chemical_melting_point          '119-121 deg.C'
_cell_formula_units_Z            4
loop_
_atom_site_label
_atom_site_type_symbol
_atom_site_fract_x
_atom_site_fract_y
_atom_site_fract_z
Mg1 Mg 0.30945(4) 0.29707(5) 0.67474(8)
Mg2 Mg 0.30618(4) 0.26920(5) 0.46711(7)
N1 N 0.27347(12) 0.22455(13) 0.76386(18)
N2 N 0.24177(11) 0.24989(13) 0.57904(18)
N3 N 0.36781(11) 0.32883(12) 0.56050(17)
N4 N 0.38854(11) 0.23741(13) 0.41371(18)
Si1 Si 0.22613(4) 0.18786(4) 0.67354(7)
Si2 Si 0.43136(4) 0.28370(4) 0.50159(6)
C1 C 0.27924(14) 0.19431(15) 0.8598(2)
C2 C 0.23400(15) 0.20978(16) 0.9345(2)
C3 C 0.23867(16) 0.17752(16) 1.0278(2)
H1 H 0.2075 0.1874 1.0769
C4 C 0.28833(17) 0.13125(18) 1.0497(2)
H2 H 0.2907 0.1088 1.1129
C5 C 0.33421(16) 0.11815(17) 0.9786(2)
H3 H 0.3689 0.0877 0.9945
C6 C 0.33090(15) 0.14832(16) 0.8849(2)
C7 C 0.18106(15) 0.26439(17) 0.9196(2)
H4 H 0.1792 0.2763 0.8473
C8 C 0.11538(16) 0.2371(2) 0.9507(3)
H5 H 0.1055 0.1932 0.9141
H6 H 0.0833 0.2736 0.9358
H7 H 0.1153 0.2271 1.0221
C9 C 0.19622(18) 0.33283(18) 0.9758(3)
H8 H 0.2382 0.3504 0.9558
H9 H 0.1962 0.3231 1.0473
H10 H 0.1641 0.3691 0.9606
C10 C 0.38563(15) 0.13411(18) 0.8137(3)
H11 H 0.3740 0.1543 0.7474
C11 C 0.3994(2) 0.0553(2) 0.8006(3)
H12 H 0.3610 0.0310 0.7770
H13 H 0.4125 0.0348 0.8643
H14 H 0.4335 0.0492 0.7519
C12 C 0.44535(17) 0.1737(2) 0.8513(3)
H15 H 0.4357 0.2246 0.8595
H16 H 0.4798 0.1680 0.8031
H17 H 0.4584 0.1536 0.9153
C13 C 0.19181(13) 0.28071(15) 0.5208(2)
C14 C 0.15749(13) 0.34190(16) 0.5530(2)
C15 C 0.11519(14) 0.37508(17) 0.4899(2)
H18 H 0.0933 0.4166 0.5117
C16 C 0.10390(16) 0.3489(2) 0.3946(3)
H19 H 0.0749 0.3726 0.3516
C17 C 0.13533(16) 0.2882(2) 0.3633(2)
H20 H 0.1269 0.2697 0.2990
C18 C 0.17931(15) 0.25333(19) 0.4241(2)
C19 C 0.21092(17) 0.1846(2) 0.3878(3)
H21 H 0.2439 0.1711 0.4378
C20 C 0.1617(2) 0.1230(3) 0.3837(6)
H22 H 0.1412 0.1180 0.4487
H23 H 0.1833 0.0782 0.3666
H24 H 0.1295 0.1338 0.3333
C21 C 0.2444(3) 0.1951(4) 0.2892(3)
H25 H 0.2744 0.2349 0.2946
H26 H 0.2130 0.2057 0.2376
H27 H 0.2674 0.1513 0.2717
C22 C 0.13858(15) 0.18140(16) 0.6958(2)
H28 H 0.1250 0.1316 0.6887
H29 H 0.1160 0.2111 0.6474
H30 H 0.1289 0.1981 0.7631
C23 C 0.25122(15) 0.09461(17) 0.6425(3)
H31 H 0.2144 0.0627 0.6461
H32 H 0.2835 0.0787 0.6900
H33 H 0.2689 0.0935 0.5753
C24 C 0.16697(13) 0.37219(15) 0.6578(2)
H34 H 0.1900 0.3353 0.6976
C25 C 0.20864(16) 0.43956(17) 0.6552(3)
H35 H 0.2142 0.4579 0.7229
H36 H 0.1881 0.4761 0.6141
H37 H 0.2502 0.4277 0.6271
C26 C 0.10446(16) 0.38693(19) 0.7094(3)
H38 H 0.0789 0.3432 0.7106
H39 H 0.0814 0.4244 0.6735
H40 H 0.1126 0.4028 0.7776
C27 C 0.37531(13) 0.40371(15) 0.5784(2)
C28 C 0.39392(13) 0.42842(15) 0.6737(3)
C29 C 0.39716(17) 0.50172(18) 0.6915(3)
H41 H 0.4102 0.5180 0.7551
C30 C 0.38219(19) 0.55074(18) 0.6203(3)
H42 H 0.3840 0.6004 0.6346
C31 C 0.36426(17) 0.52728(18) 0.5267(3)
H43 H 0.3537 0.5614 0.4771
C32 C 0.36142(14) 0.45496(15) 0.5041(2)
C33 C 0.40951(15) 0.37751(17) 0.7584(2)
H44 H 0.4091 0.3279 0.7307
C34 C 0.35947(17) 0.3806(2) 0.8409(3)
H45 H 0.3173 0.3724 0.8124
H46 H 0.3606 0.4277 0.8726
H47 H 0.3686 0.3436 0.8905
C35 C 0.47575(17) 0.3905(2) 0.8025(3)
H48 H 0.5076 0.3886 0.7495
H49 H 0.4851 0.3536 0.8520
H50 H 0.4769 0.4377 0.8341
C36 C 0.34245(16) 0.43304(16) 0.3989(2)
H51 H 0.3564 0.3825 0.3888
C37 C 0.37433(18) 0.47893(19) 0.3183(3)
H52 H 0.3607 0.4624 0.2526
H53 H 0.4206 0.4745 0.3238
H54 H 0.3620 0.5291 0.3271
C38 C 0.27062(16) 0.4354(2) 0.3858(3)
H55 H 0.2597 0.4210 0.3179
H56 H 0.2553 0.4841 0.3979
H57 H 0.2506 0.4025 0.4331
C39 C 0.41549(14) 0.19046(15) 0.3429(2)
C40 C 0.43676(15) 0.21663(17) 0.2495(2)
C41 C 0.46377(16) 0.17017(19) 0.1812(3)
H58 H 0.4776 0.1884 0.1190
C42 C 0.47108(18) 0.0984(2) 0.2010(2)
H59 H 0.4909 0.0676 0.1542
C43 C 0.44893(16) 0.07220(18) 0.2904(3)
H60 H 0.4533 0.0227 0.3044
C44 C 0.42049(14) 0.11617(16) 0.3603(2)
C45 C 0.42817(16) 0.29411(18) 0.2191(2)
H61 H 0.4128 0.3209 0.2787
C46 C 0.49052(18) 0.3293(2) 0.1851(3)
H62 H 0.5227 0.3239 0.2372
H63 H 0.4832 0.3802 0.1724
H64 H 0.5054 0.3061 0.1242
C47 C 0.3776(2) 0.3021(2) 0.1376(3)
H65 H 0.3379 0.2798 0.1596
H66 H 0.3924 0.2786 0.0768
H67 H 0.3703 0.3529 0.1244
C48 C 0.39287(15) 0.08149(15) 0.4536(2)
H68 H 0.3776 0.1204 0.4986
C49 C 0.44118(17) 0.03661(18) 0.5101(3)
H69 H 0.4210 0.0157 0.5689
H70 H 0.4768 0.0669 0.5308
H71 H 0.4569 -0.0017 0.4671
C50 C 0.33561(16) 0.03438(19) 0.4260(3)
H72 H 0.3183 0.0123 0.4861
H73 H 0.3492 -0.0030 0.3797
H74 H 0.3028 0.0639 0.3945
C51 C 0.47450(15) 0.22468(17) 0.5904(2)
H75 H 0.5194 0.2384 0.5924
H76 H 0.4708 0.1749 0.5687
H77 H 0.4560 0.2298 0.6567
C52 C 0.49264(14) 0.34846(17) 0.4565(2)
H78 H 0.5339 0.3365 0.4857
H79 H 0.4806 0.3970 0.4762
H80 H 0.4955 0.3458 0.3840
loop_
_geom_bond_atom_site_label_1
_geom_bond_atom_site_label_2
_geom_bond_site_symmetry_1
_geom_bond_site_symmetry_2
Mg1 N1 1_555 1_555
Mg2 N2 1_555 1_555
N1 Si1 1_555 1_555
N2 Mg1 1_555 1_555
N3 Mg1 1_555 1_555
N4 Mg2 1_555 1_555
Si1 N2 1_555 1_555
Si2 N3 1_555 1_555
C1 N1 1_555 1_555
C2 C1 1_555 1_555
C3 C2 1_555 1_555
H1 C3 1_555 1_555
C4 C3 1_555 1_555
H2 C4 1_555 1_555
C5 C4 1_555 1_555
H3 C5 1_555 1_555
C6 C1 1_555 1_555
C7 C2 1_555 1_555
H4 C7 1_555 1_555
C8 C7 1_555 1_555
H5 C8 1_555 1_555
H6 C8 1_555 1_555
H7 C8 1_555 1_555
C9 C7 1_555 1_555
H8 C9 1_555 1_555
H9 C9 1_555 1_555
H10 C9 1_555 1_555
C10 C6 1_555 1_555
H11 C10 1_555 1_555
C11 C10 1_555 1_555
H12 C11 1_555 1_555
H13 C11 1_555 1_555
H14 C11 1_555 1_555
C12 C10 1_555 1_555
H15 C12 1_555 1_555
H16 C12 1_555 1_555
H17 C12 1_555 1_555
C13 N2 1_555 1_555
C14 C13 1_555 1_555
C15 C14 1_555 1_555
H18 C15 1_555 1_555
C16 C15 1_555 1_555
H19 C16 1_555 1_555
C17 C16 1_555 1_555
H20 C17 1_555 1_555
C18 C13 1_555 1_555
C19 C18 1_555 1_555
H21 C19 1_555 1_555
C20 C19 1_555 1_555
H22 C20 1_555 1_555
H23 C20 1_555 1_555
H24 C20 1_555 1_555
C21 C19 1_555 1_555
H25 C21 1_555 1_555
H26 C21 1_555 1_555
H27 C21 1_555 1_555
C22 Si1 1_555 1_555
H28 C22 1_555 1_555
H29 C22 1_555 1_555
H30 C22 1_555 1_555
C23 Si1 1_555 1_555
H31 C23 1_555 1_555
H32 C23 1_555 1_555
H33 C23 1_555 1_555
C24 C14 1_555 1_555
H34 C24 1_555 1_555
C25 C24 1_555 1_555
H35 C25 1_555 1_555
H36 C25 1_555 1_555
H37 C25 1_555 1_555
C26 C24 1_555 1_555
H38 C26 1_555 1_555
H39 C26 1_555 1_555
H40 C26 1_555 1_555
C27 N3 1_555 1_555
C28 C27 1_555 1_555
C29 C28 1_555 1_555
H41 C29 1_555 1_555
C30 C29 1_555 1_555
H42 C30 1_555 1_555
C31 C30 1_555 1_555
H43 C31 1_555 1_555
C32 C27 1_555 1_555
C33 C28 1_555 1_555
H44 C33 1_555 1_555
C34 C33 1_555 1_555
H45 C34 1_555 1_555
H46 C34 1_555 1_555
H47 C34 1_555 1_555
C35 C33 1_555 1_555
H48 C35 1_555 1_555
H49 C35 1_555 1_555
H50 C35 1_555 1_555
C36 C32 1_555 1_555
H51 C36 1_555 1_555
C37 C36 1_555 1_555
H52 C37 1_555 1_555
H53 C37 1_555 1_555
H54 C37 1_555 1_555
C38 C36 1_555 1_555
H55 C38 1_555 1_555
H56 C38 1_555 1_555
H57 C38 1_555 1_555
C39 N4 1_555 1_555
C40 C39 1_555 1_555
C41 C40 1_555 1_555
H58 C41 1_555 1_555
C42 C41 1_555 1_555
H59 C42 1_555 1_555
C43 C42 1_555 1_555
H60 C43 1_555 1_555
C44 C39 1_555 1_555
C45 C40 1_555 1_555
H61 C45 1_555 1_555
C46 C45 1_555 1_555
H62 C46 1_555 1_555
H63 C46 1_555 1_555
H64 C46 1_555 1_555
C47 C45 1_555 1_555
H65 C47 1_555 1_555
H66 C47 1_555 1_555
H67 C47 1_555 1_555
C48 C44 1_555 1_555
H68 C48 1_555 1_555
C49 C48 1_555 1_555
H69 C49 1_555 1_555
H70 C49 1_555 1_555
H71 C49 1_555 1_555
C50 C48 1_555 1_555
H72 C50 1_555 1_555
H73 C50 1_555 1_555
H74 C50 1_555 1_555
C51 Si2 1_555 1_555
H75 C51 1_555 1_555
H76 C51 1_555 1_555
H77 C51 1_555 1_555
C52 Si2 1_555 1_555
H78 C52 1_555 1_555
H79 C52 1_555 1_555
H80 C52 1_555 1_555
Mg2 N3 1_555 1_555
N4 Si2 1_555 1_555
C5 C6 1_555 1_555
C17 C18 1_555 1_555
C31 C32 1_555 1_555
C43 C44 1_555 1_555

#END
