
#######################################################################
#
#                 Cambridge Crystallographic Data Centre
#                                CCDC 
#
#######################################################################
#
# If this CIF has been generated from an entry in the Cambridge 
# Structural Database, then it will include bibliographic, chemical, 
# crystal, experimental, refinement or atomic coordinate data resulting 
# from the CCDC's data processing and validation procedures.
#
#######################################################################

data_MUNRAO
_chemical_formula_moiety         'C16 H15 Cl1 O5'
_chemical_name_systematic        4-Chloro-2-(3,4,5-trimethoxybenzoyl)phenol
_chemical_properties_biological  
'some cytotoxic activity against various drug-resistant human cancer cell lines'
_symmetry_cell_setting           orthorhombic
_symmetry_space_group_name_H-M   'P b c a'
_symmetry_Int_Tables_number      61
_space_group_name_Hall           '-P 2ac 2ab'
loop_
_symmetry_equiv_pos_site_id
_symmetry_equiv_pos_as_xyz
1 x,y,z
2 1/2+x,1/2-y,-z
3 -x,1/2+y,1/2-z
4 1/2-x,-y,1/2+z
5 -x,-y,-z
6 1/2-x,1/2+y,z
7 x,1/2-y,1/2+z
8 1/2+x,y,1/2-z
_cell_length_a                   22.859(5)
_cell_length_b                   16.732(7)
_cell_length_c                   7.885(8)
_cell_angle_alpha                90
_cell_angle_beta                 90
_cell_angle_gamma                90
_cell_volume                     3015.83
_exptl_crystal_colour            yellow
_cell_formula_units_Z            8
loop_
_atom_site_label
_atom_site_type_symbol
_atom_site_fract_x
_atom_site_fract_y
_atom_site_fract_z
Cl1 Cl 0.12107(7) 0.22571(8) 0.0681(2)
O1 O 0.1073(2) -0.0892(2) -0.2531(5)
O2 O 0.2209(1) -0.0928(2) -0.2451(5)
O3 O 0.3377(1) 0.2109(2) -0.4039(5)
O4 O 0.4360(1) 0.1416(2) -0.2932(5)
O5 O 0.4350(1) -0.0009(2) -0.1470(5)
C1 C 0.1181(2) 0.1340(3) -0.0351(6)
C2 C 0.0640(2) 0.0994(4) -0.0643(7)
C3 C 0.0617(2) 0.0265(4) -0.1386(7)
C4 C 0.1129(2) -0.0164(3) -0.1834(6)
C5 C 0.1675(2) 0.0210(3) -0.1602(6)
C6 C 0.1695(2) 0.0961(3) -0.0793(6)
C7 C 0.2214(2) -0.0205(3) -0.2113(5)
C8 C 0.2776(2) 0.0248(2) -0.2289(5)
C9 C 0.2784(2) 0.0999(2) -0.3057(5)
C10 C 0.3317(2) 0.1387(2) -0.3278(6)
C11 C 0.3827(2) 0.1043(3) -0.2715(6)
C12 C 0.3817(2) 0.0279(3) -0.1955(6)
C13 C 0.3290(2) -0.0125(2) -0.1780(6)
C14 C 0.2860(2) 0.2483(3) -0.4680(7)
C15 C 0.4466(2) 0.2049(3) -0.1776(9)
C16 C 0.4372(2) -0.0797(3) -0.0782(7)
H1 H 0.0319 0.1431 -0.0371
H2 H 0.0321 -0.0033 -0.1722
H3 H 0.2072 0.1267 -0.0505
H4 H 0.2426 0.1311 -0.3445
H5 H 0.3282 -0.0645 -0.1287
H6 H 0.2656 0.2113 -0.5633
H7 H 0.2606 0.2537 -0.3796
H8 H 0.2957 0.3038 -0.5247
H9 H 0.4267 0.2387 -0.2071
H10 H 0.4931 0.2077 -0.1948
H11 H 0.4406 0.1793 -0.0520
H12 H 0.4770 -0.0906 -0.0649
H13 H 0.4181 -0.1372 -0.1680
H14 H 0.4150 -0.0906 0.0316
H15 H 0.1414 -0.1182 -0.2567
loop_
_geom_bond_atom_site_label_1
_geom_bond_atom_site_label_2
_geom_bond_site_symmetry_1
_geom_bond_site_symmetry_2
Cl1 C1 1_555 1_555
O1 C4 1_555 1_555
O2 C7 1_555 1_555
O3 C10 1_555 1_555
O4 C11 1_555 1_555
O5 C12 1_555 1_555
C1 C2 1_555 1_555
C2 C3 1_555 1_555
C3 C4 1_555 1_555
C4 C5 1_555 1_555
C5 C6 1_555 1_555
C6 C1 1_555 1_555
C7 C5 1_555 1_555
C8 C7 1_555 1_555
C9 C8 1_555 1_555
C10 C9 1_555 1_555
C11 C10 1_555 1_555
C12 C11 1_555 1_555
C13 C8 1_555 1_555
C14 O3 1_555 1_555
C15 O4 1_555 1_555
C16 O5 1_555 1_555
H1 C2 1_555 1_555
H2 C3 1_555 1_555
H3 C6 1_555 1_555
H4 C9 1_555 1_555
H5 C13 1_555 1_555
H6 C14 1_555 1_555
H7 C14 1_555 1_555
H8 C14 1_555 1_555
H9 C15 1_555 1_555
H10 C15 1_555 1_555
H11 C15 1_555 1_555
H12 C16 1_555 1_555
H13 C16 1_555 1_555
H14 C16 1_555 1_555
H15 O1 1_555 1_555
C12 C13 1_555 1_555

#END
