
#######################################################################
#
#                 Cambridge Crystallographic Data Centre
#                                CCDC 
#
#######################################################################
#
# If this CIF has been generated from an entry in the Cambridge 
# Structural Database, then it will include bibliographic, chemical, 
# crystal, experimental, refinement or atomic coordinate data resulting 
# from the CCDC's data processing and validation procedures.
#
#######################################################################

data_MUNRES
_chemical_formula_moiety         'C57 H60 Br1 N1 O6'
_chemical_name_systematic        
N-(10-Bromo-9-anthracenylmethyl)-26,28-(7-aza-1,4,10,13-tetraoxatridecane-1,13-diyl)-25,27-bis(n-propoxy)calix(4)arene
_symmetry_cell_setting           monoclinic
_symmetry_space_group_name_H-M   'P 21/c'
_symmetry_Int_Tables_number      14
_space_group_name_Hall           '-P 2ybc'
loop_
_symmetry_equiv_pos_site_id
_symmetry_equiv_pos_as_xyz
1 x,y,z
2 -x,1/2+y,1/2-z
3 -x,-y,-z
4 x,1/2-y,1/2+z
_cell_length_a                   21.5160(15)
_cell_length_b                   10.3525(7)
_cell_length_c                   21.8913(14)
_cell_angle_alpha                90
_cell_angle_beta                 102.5260(10)
_cell_angle_gamma                90
_cell_volume                     4760.1
_exptl_crystal_colour            yellow
_exptl_crystal_description       block
_chemical_melting_point          222.1-223.7deg.C
_cell_formula_units_Z            4
loop_
_atom_site_label
_atom_site_type_symbol
_atom_site_fract_x
_atom_site_fract_y
_atom_site_fract_z
Br1 Br 0.14810(3) 0.15522(9) 0.44830(5)
O1 O -0.45077(12) 0.2485(2) 0.15885(10)
O2 O -0.25344(12) 0.1340(2) 0.10186(11)
O3 O -0.27558(11) 0.4639(2) 0.21783(10)
O4 O -0.24563(14) 0.6034(3) 0.34690(13)
O5 O -0.30249(11) 0.0215(2) 0.27976(10)
O6 O -0.2150(3) 0.0567(4) 0.4058(2)
N1 N -0.15864(13) 0.3925(3) 0.43401(13)
C1 C -0.42610(16) 0.2802(3) 0.22089(15)
C2 C -0.40546(16) 0.4071(3) 0.23482(16)
C3 C -0.38428(17) 0.4406(4) 0.29676(18)
H1 H -0.3705 0.5275 0.3073
C4 C -0.38259(19) 0.3517(5) 0.34364(18)
H2 H -0.3685 0.3768 0.3866
C5 C -0.40118(18) 0.2266(4) 0.32863(17)
H3 H -0.4003 0.1655 0.3618
C6 C -0.42110(16) 0.1859(4) 0.26761(16)
C7 C -0.30404(18) 0.4669(3) 0.15479(16)
C8 C -0.36907(19) 0.4890(3) 0.13712(16)
C9 C -0.3962(2) 0.4945(4) 0.07307(19)
H4 H -0.4411 0.5101 0.0594
C10 C -0.3597(3) 0.4780(4) 0.02954(19)
H5 H -0.3788 0.4868 -0.0142
C11 C -0.2962(2) 0.4491(4) 0.04774(18)
H6 H -0.2715 0.4359 0.0166
C12 C -0.26718(19) 0.4386(3) 0.11089(17)
C13 C -0.21672(16) 0.1579(3) 0.16137(16)
C14 C -0.18758(18) 0.2779(3) 0.17486(17)
C15 C -0.14414(18) 0.2929(4) 0.23107(18)
H7 H -0.1229 0.3744 0.2404
C16 C -0.13047(18) 0.1937(4) 0.27403(18)
H8 H -0.1007 0.2064 0.3131
C17 C -0.16004(18) 0.0767(4) 0.26002(18)
H9 H -0.1502 0.0075 0.2897
C18 C -0.20375(16) 0.0551(3) 0.20433(16)
C19 C -0.33584(16) -0.0328(3) 0.22464(16)
C20 C -0.30350(17) -0.0898(3) 0.18353(16)
C21 C -0.3397(2) -0.1566(3) 0.13218(18)
H10 H -0.3184 -0.2012 0.1042
C22 C -0.4046(2) -0.1593(4) 0.1213(2)
H11 H -0.4284 -0.2075 0.0865
C23 C -0.43600(19) -0.0933(4) 0.15998(19)
H12 H -0.4817 -0.0935 0.1509
C24 C -0.40280(17) -0.0263(3) 0.21195(17)
C25 C -0.40905(19) 0.5100(3) 0.18472(18)
H13 H -0.4527 0.5178 0.1628
H14 H -0.3969 0.5911 0.2052
C26 C -0.1997(2) 0.3893(4) 0.12949(19)
H15 H -0.1864 0.3638 0.0921
H16 H -0.1729 0.4599 0.1475
C27 C -0.23233(19) -0.0775(3) 0.19054(18)
H17 H -0.2121 -0.1344 0.2235
H18 H -0.2218 -0.1079 0.1526
C28 C -0.43781(18) 0.0464(4) 0.25414(18)
H19 H -0.4825 0.0418 0.2358
H20 H -0.4310 0.0015 0.2934
C29 C -0.5179(2) 0.2302(6) 0.1434(2)
H21 H -0.5260 0.1425 0.1537
H22 H -0.5357 0.2845 0.1707
C30 C -0.5500(3) 0.2515(9) 0.0861(3)
H23 H -0.5287 0.2053 0.0585
H24 H -0.5458 0.3417 0.0778
C31 C -0.6186(2) 0.2197(4) 0.0669(2)
H25 H -0.6337 0.2404 0.0234
H26 H -0.6420 0.2688 0.0915
H27 H -0.6247 0.1291 0.0732
C32 C -0.32116(17) 0.1523(3) 0.09103(15)
H28 H -0.3308 0.2403 0.0993
H29 H -0.3390 0.0970 0.1180
C33 C -0.34792(19) 0.1194(4) 0.02389(17)
H30 H -0.3363 0.0323 0.0161
H31 H -0.3296 0.1756 -0.0023
C34 C -0.4196(2) 0.1321(5) 0.00680(19)
H32 H -0.4347 0.1124 -0.0367
H33 H -0.4315 0.2189 0.0148
H34 H -0.4382 0.0731 0.0316
C35 C -0.2432(2) 0.5815(4) 0.23903(18)
H35 H -0.2736 0.6506 0.2355
H36 H -0.2139 0.6021 0.2131
C36 C -0.2078(2) 0.5693(4) 0.30573(19)
H37 H -0.1937 0.4817 0.3137
H38 H -0.1709 0.6239 0.3126
C37 C -0.2137(2) 0.6066(4) 0.41065(18)
H39 H -0.2350 0.6671 0.4323
H40 H -0.1711 0.6374 0.4134
C38 C -0.21074(18) 0.4782(4) 0.44288(18)
H41 H -0.2064 0.4929 0.4869
H42 H -0.2504 0.4343 0.4280
C39 C -0.2849(2) -0.0736(4) 0.32720(18)
H43 H -0.2509 -0.1250 0.3180
H44 H -0.3205 -0.1296 0.3267
C40 C -0.2644(3) -0.0188(4) 0.3894(2)
H45 H -0.3001 0.0283 0.3977
H46 H -0.2576 -0.0903 0.4180
C41 C -0.2240(2) 0.1970(4) 0.39470(19)
H47 H -0.2658 0.2234 0.3982
H48 H -0.2178 0.2200 0.3539
C42 C -0.17402(19) 0.2580(4) 0.44506(17)
H49 H -0.1881 0.2537 0.4837
H50 H -0.1357 0.2077 0.4501
C43 C -0.09974(16) 0.4310(4) 0.47801(17)
H51 H -0.1052 0.4186 0.5200
H52 H -0.0926 0.5214 0.4726
C44 C -0.04156(17) 0.3566(3) 0.46978(19)
C45 C -0.0137(2) 0.2615(4) 0.5134(2)
C46 C -0.0402(3) 0.2242(5) 0.5651(2)
H53 H -0.0778 0.2668 0.5720
C47 C -0.0130(4) 0.1292(7) 0.6047(3)
H54 H -0.0313 0.1047 0.6393
C48 C 0.0422(5) 0.0667(8) 0.5949(5)
H55 H 0.0602 -0.0018 0.6227
C49 C 0.0698(4) 0.0983(7) 0.5493(5)
H56 H 0.1082 0.0550 0.5454
C50 C 0.0436(3) 0.1968(5) 0.5053(3)
C51 C 0.0698(3) 0.2330(6) 0.4556(4)
C52 C 0.0423(2) 0.3237(5) 0.4107(3)
C53 C 0.0683(3) 0.3602(10) 0.3590(4)
H57 H 0.1071 0.3208 0.3534
C54 C 0.0399(4) 0.4483(11) 0.3183(4)
H58 H 0.0576 0.4679 0.2827
C55 C -0.0155(3) 0.5139(7) 0.3254(3)
H59 H -0.0343 0.5794 0.2961
C56 C -0.0420(2) 0.4824(5) 0.3749(2)
H60 H -0.0801 0.5260 0.3798
C57 C -0.01495(19) 0.3871(4) 0.4192(2)
O7? O -0.2594(9) 0.1064(15) 0.4107(5)
H61? H -0.2911 -0.0599 0.4135
H62? H -0.2227 -0.0542 0.4046
H63? H -0.2516 0.2644 0.3746
H64? H -0.2030 0.1616 0.3640
loop_
_geom_bond_atom_site_label_1
_geom_bond_atom_site_label_2
_geom_bond_site_symmetry_1
_geom_bond_site_symmetry_2
Br1 C51 1_555 1_555
O1 C1 1_555 1_555
O2 C13 1_555 1_555
O3 C7 1_555 1_555
O4 C36 1_555 1_555
O5 C19 1_555 1_555
O6 C40 1_555 1_555
N1 C38 1_555 1_555
C1 C2 1_555 1_555
C2 C3 1_555 1_555
C3 H1 1_555 1_555
C4 C3 1_555 1_555
H2 C4 1_555 1_555
C5 C4 1_555 1_555
H3 C5 1_555 1_555
C6 C1 1_555 1_555
C7 C8 1_555 1_555
C8 C9 1_555 1_555
C9 H4 1_555 1_555
C10 C9 1_555 1_555
H5 C10 1_555 1_555
C11 C10 1_555 1_555
H6 C11 1_555 1_555
C12 C7 1_555 1_555
C13 C14 1_555 1_555
C14 C15 1_555 1_555
C15 H7 1_555 1_555
C16 C15 1_555 1_555
H8 C16 1_555 1_555
C17 C16 1_555 1_555
H9 C17 1_555 1_555
C18 C13 1_555 1_555
C19 C20 1_555 1_555
C20 C21 1_555 1_555
C21 H10 1_555 1_555
C22 C21 1_555 1_555
H11 C22 1_555 1_555
C23 C22 1_555 1_555
H12 C23 1_555 1_555
C24 C19 1_555 1_555
C25 C2 1_555 1_555
H13 C25 1_555 1_555
H14 C25 1_555 1_555
C26 C12 1_555 1_555
H15 C26 1_555 1_555
H16 C26 1_555 1_555
C27 C18 1_555 1_555
H17 C27 1_555 1_555
H18 C27 1_555 1_555
C28 C6 1_555 1_555
H19 C28 1_555 1_555
H20 C28 1_555 1_555
C29 O1 1_555 1_555
H21 C29 1_555 1_555
H22 C29 1_555 1_555
C30 C29 1_555 1_555
H23 C30 1_555 1_555
H24 C30 1_555 1_555
C31 C30 1_555 1_555
H25 C31 1_555 1_555
H26 C31 1_555 1_555
H27 C31 1_555 1_555
C32 O2 1_555 1_555
H28 C32 1_555 1_555
H29 C32 1_555 1_555
C33 C32 1_555 1_555
H30 C33 1_555 1_555
H31 C33 1_555 1_555
C34 C33 1_555 1_555
H32 C34 1_555 1_555
H33 C34 1_555 1_555
H34 C34 1_555 1_555
C35 O3 1_555 1_555
H35 C35 1_555 1_555
H36 C35 1_555 1_555
C36 C35 1_555 1_555
H37 C36 1_555 1_555
H38 C36 1_555 1_555
C37 O4 1_555 1_555
H39 C37 1_555 1_555
H40 C37 1_555 1_555
C38 C37 1_555 1_555
H41 C38 1_555 1_555
H42 C38 1_555 1_555
C39 O5 1_555 1_555
H43 C39 1_555 1_555
H44 C39 1_555 1_555
C40 C39 1_555 1_555
H45 C40 1_555 1_555
H46 C40 1_555 1_555
C41 O6 1_555 1_555
H47 C41 1_555 1_555
H48 C41 1_555 1_555
C42 N1 1_555 1_555
H49 C42 1_555 1_555
H50 C42 1_555 1_555
C43 N1 1_555 1_555
H51 C43 1_555 1_555
H52 C43 1_555 1_555
C44 C43 1_555 1_555
C45 C44 1_555 1_555
C46 C45 1_555 1_555
H53 C46 1_555 1_555
C47 C46 1_555 1_555
H54 C47 1_555 1_555
C48 C47 1_555 1_555
H55 C48 1_555 1_555
C49 C48 1_555 1_555
H56 C49 1_555 1_555
C50 C45 1_555 1_555
C51 C50 1_555 1_555
C52 C51 1_555 1_555
C53 C52 1_555 1_555
H57 C53 1_555 1_555
C54 C53 1_555 1_555
H58 C54 1_555 1_555
C55 C54 1_555 1_555
H59 C55 1_555 1_555
C56 C55 1_555 1_555
H60 C56 1_555 1_555
C57 C44 1_555 1_555
C5 C6 1_555 1_555
C8 C25 1_555 1_555
C11 C12 1_555 1_555
C14 C26 1_555 1_555
C17 C18 1_555 1_555
C20 C27 1_555 1_555
C23 C24 1_555 1_555
C24 C28 1_555 1_555
C41 C42 1_555 1_555
C49 C50 1_555 1_555
C52 C57 1_555 1_555
C56 C57 1_555 1_555

#END
