
#######################################################################
#
#                 Cambridge Crystallographic Data Centre
#                                CCDC 
#
#######################################################################
#
# If this CIF has been generated from an entry in the Cambridge 
# Structural Database, then it will include bibliographic, chemical, 
# crystal, experimental, refinement or atomic coordinate data resulting 
# from the CCDC's data processing and validation procedures.
#
#######################################################################

data_MUNROD
_chemical_formula_moiety         'C23 H16 Cl1 N1 O4'
_chemical_name_systematic        
'Methyl 2-((2-chlorophenyl)(1,3-dioxo-1H-benzo[de]isoquinolin-2(3H)-yl)methyl)acrylate'
_symmetry_cell_setting           monoclinic
_symmetry_space_group_name_H-M   'P 21'
_symmetry_Int_Tables_number      4
_space_group_name_Hall           'P 2yb'
loop_
_symmetry_equiv_pos_site_id
_symmetry_equiv_pos_as_xyz
1 x,y,z
2 -x,1/2+y,-z
_cell_length_a                   9.4926(19)
_cell_length_b                   14.293(3)
_cell_length_c                   13.706(3)
_cell_angle_alpha                90
_cell_angle_beta                 92.76(3)
_cell_angle_gamma                90
_cell_volume                     1857.44
_cell_formula_units_Z            4
loop_
_atom_site_label
_atom_site_type_symbol
_atom_site_fract_x
_atom_site_fract_y
_atom_site_fract_z
Cl1 Cl 1.01774(6) 0.86305(4) 0.60121(4)
O1 O 0.61779(15) 0.71520(11) 0.62954(11)
O2 O 0.86626(17) 0.92583(12) 0.81796(12)
O3 O 0.88801(17) 0.59492(12) 0.96422(11)
O4 O 1.04954(16) 0.67971(12) 0.88917(11)
N1 N 0.75154(18) 0.82124(12) 0.71630(12)
C1 C 0.6380(2) 0.79704(17) 0.65266(14)
C2 C 0.5459(2) 0.87348(16) 0.61584(15)
C3 C 0.4301(2) 0.85384(18) 0.55495(16)
H1 H 0.4062 0.7907 0.5402
C4 C 0.3470(2) 0.92693(19) 0.51454(17)
H2 H 0.2664 0.9127 0.4735
C5 C 0.3809(2) 1.01804(18) 0.53360(17)
H3 H 0.3252 1.0666 0.5042
C6 C 0.4984(2) 1.04105(17) 0.59689(16)
C7 C 0.5413(3) 1.13421(17) 0.61733(18)
H4 H 0.4888 1.1844 0.5883
C8 C 0.6556(2) 1.15355(18) 0.67741(18)
H5 H 0.6831 1.2166 0.6891
C9 C 0.7335(2) 1.07994(17) 0.72248(17)
H6 H 0.8119 1.0935 0.7659
C10 C 0.6960(2) 0.98902(16) 0.70366(16)
C11 C 0.5803(2) 0.96737(16) 0.63908(16)
C12 C 0.7782(2) 0.91249(16) 0.75192(16)
C13 C 0.8575(2) 0.75043(15) 0.74868(15)
H7 H 0.9389 0.7871 0.7777
C14 C 0.9164(2) 0.69675(16) 0.66378(15)
C15 C 0.9039(2) 0.59990(16) 0.65498(16)
H8 H 0.8523 0.5663 0.7012
C16 C 0.9649(2) 0.55192(17) 0.58070(16)
H9 H 0.9571 0.4857 0.5774
C17 C 1.0368(2) 0.59922(17) 0.51144(17)
H10 H 1.0763 0.5661 0.4593
C18 C 1.0514(2) 0.69536(17) 0.51805(16)
H11 H 1.1009 0.7288 0.4705
C19 C 0.9933(2) 0.74207(16) 0.59459(16)
C20 C 0.8093(2) 0.68910(16) 0.83098(15)
C21 C 0.6781(2) 0.67122(18) 0.85077(17)
H12 H 0.6581 0.6359 0.9072
H13 H 0.6031 0.6936 0.8087
C22 C 0.9287(2) 0.65468(17) 0.89591(15)
C23 C 0.9986(3) 0.56116(19) 1.03166(17)
H14 H 1.0709 0.5294 0.9952
H15 H 0.9586 0.5172 1.0777
H16 H 1.0411 0.6141 1.0677
Cl2 Cl 0.25639(7) 0.29688(5) 0.58725(4)
O5 O 0.33278(17) 0.34485(11) 0.91250(11)
O6 O 0.06538(17) 0.13890(12) 0.73099(12)
O7 O -0.24155(18) 0.39560(12) 0.84832(13)
O8 O -0.15830(16) 0.36706(13) 0.69977(13)
N2 N 0.2067(2) 0.24460(13) 0.81265(13)
C24 C 0.3220(2) 0.26668(17) 0.87660(16)
C25 C 0.4240(2) 0.19088(16) 0.90021(15)
C26 C 0.5463(2) 0.21155(18) 0.95411(16)
H17 H 0.5679 0.2745 0.9713
C27 C 0.6388(2) 0.13903(19) 0.98348(17)
H18 H 0.7235 0.1533 1.0201
C28 C 0.6084(3) 0.04872(18) 0.96012(18)
H19 H 0.6710 0.0006 0.9824
C29 C 0.4857(2) 0.02487(17) 0.90340(17)
C30 C 0.4496(3) -0.06727(18) 0.87462(18)
H20 H 0.5098 -0.1174 0.8949
C31 C 0.3314(3) -0.08600(19) 0.81899(19)
H21 H 0.3094 -0.1488 0.8015
C32 C 0.2406(3) -0.01323(18) 0.78673(18)
H22 H 0.1585 -0.0271 0.7470
C33 C 0.2702(2) 0.07734(16) 0.81245(17)
C34 C 0.3928(2) 0.09849(16) 0.87125(16)
C35 C 0.1726(2) 0.15303(17) 0.78094(16)
C36 C 0.1091(2) 0.31945(16) 0.77513(16)
H23 H 0.0607 0.2927 0.7150
C37 C 0.1884(2) 0.40507(17) 0.74020(16)
C38 C 0.1896(2) 0.49020(17) 0.78850(17)
H24 H 0.1390 0.4966 0.8462
C39 C 0.2633(3) 0.56616(17) 0.75427(18)
H25 H 0.2622 0.6240 0.7883
C40 C 0.3378(2) 0.55818(19) 0.67157(17)
H26 H 0.3900 0.6099 0.6490
C41 C 0.3364(2) 0.47452(17) 0.62134(17)
H27 H 0.3868 0.4683 0.5635
C42 C 0.2609(2) 0.39966(17) 0.65590(16)
C43 C -0.0068(2) 0.34094(16) 0.84241(17)
C44 C 0.0017(3) 0.33255(18) 0.93929(18)
H28 H -0.0787 0.3445 0.9760
H29 H 0.0883 0.3146 0.9717
C45 C -0.1414(2) 0.36908(18) 0.78939(19)
C46 C -0.3759(3) 0.4217(2) 0.7992(2)
H30 H -0.3619 0.4763 0.7575
H31 H -0.4441 0.4372 0.8482
H32 H -0.4116 0.3693 0.7592
loop_
_geom_bond_atom_site_label_1
_geom_bond_atom_site_label_2
_geom_bond_site_symmetry_1
_geom_bond_site_symmetry_2
Cl1 C19 1_555 1_555
Cl2 C42 1_555 1_555
O1 C1 1_555 1_555
O2 C12 1_555 1_555
O3 C22 1_555 1_555
O4 C22 1_555 1_555
O5 C24 1_555 1_555
O6 C35 1_555 1_555
O7 C45 1_555 1_555
O8 C45 1_555 1_555
N1 C1 1_555 1_555
N2 C24 1_555 1_555
C1 C2 1_555 1_555
C2 C3 1_555 1_555
C3 H1 1_555 1_555
C4 C3 1_555 1_555
H2 C4 1_555 1_555
C5 C4 1_555 1_555
H3 C5 1_555 1_555
C6 C5 1_555 1_555
C7 C6 1_555 1_555
H4 C7 1_555 1_555
C8 C7 1_555 1_555
H5 C8 1_555 1_555
C9 C8 1_555 1_555
H6 C9 1_555 1_555
C10 C9 1_555 1_555
C11 C2 1_555 1_555
C12 N1 1_555 1_555
C13 N1 1_555 1_555
H7 C13 1_555 1_555
C14 C13 1_555 1_555
C15 C14 1_555 1_555
H8 C15 1_555 1_555
C16 C15 1_555 1_555
H9 C16 1_555 1_555
C17 C16 1_555 1_555
H10 C17 1_555 1_555
C18 C17 1_555 1_555
H11 C18 1_555 1_555
C19 C14 1_555 1_555
C20 C13 1_555 1_555
C21 C20 1_555 1_555
H12 C21 1_555 1_555
H13 C21 1_555 1_555
C22 C20 1_555 1_555
C23 O3 1_555 1_555
H14 C23 1_555 1_555
H15 C23 1_555 1_555
H16 C23 1_555 1_555
C24 C25 1_555 1_555
C25 C26 1_555 1_555
C26 H17 1_555 1_555
C27 C26 1_555 1_555
H18 C27 1_555 1_555
C28 C27 1_555 1_555
H19 C28 1_555 1_555
C29 C28 1_555 1_555
C30 C29 1_555 1_555
H20 C30 1_555 1_555
C31 C30 1_555 1_555
H21 C31 1_555 1_555
C32 C31 1_555 1_555
H22 C32 1_555 1_555
C33 C32 1_555 1_555
C34 C25 1_555 1_555
C35 N2 1_555 1_555
C36 N2 1_555 1_555
H23 C36 1_555 1_555
C37 C36 1_555 1_555
C38 C37 1_555 1_555
H24 C38 1_555 1_555
C39 C38 1_555 1_555
H25 C39 1_555 1_555
C40 C39 1_555 1_555
H26 C40 1_555 1_555
C41 C40 1_555 1_555
H27 C41 1_555 1_555
C42 C37 1_555 1_555
C43 C36 1_555 1_555
C44 C43 1_555 1_555
H28 C44 1_555 1_555
H29 C44 1_555 1_555
C45 C43 1_555 1_555
C46 O7 1_555 1_555
H30 C46 1_555 1_555
H31 C46 1_555 1_555
H32 C46 1_555 1_555
C6 C11 1_555 1_555
C10 C11 1_555 1_555
C10 C12 1_555 1_555
C18 C19 1_555 1_555
C29 C34 1_555 1_555
C33 C34 1_555 1_555
C33 C35 1_555 1_555
C41 C42 1_555 1_555

#END
