
#######################################################################
#
#                 Cambridge Crystallographic Data Centre
#                                CCDC 
#
#######################################################################
#
# If this CIF has been generated from an entry in the Cambridge 
# Structural Database, then it will include bibliographic, chemical, 
# crystal, experimental, refinement or atomic coordinate data resulting 
# from the CCDC's data processing and validation procedures.
#
#######################################################################

data_MUNSIZ
_chemical_formula_moiety         'C34 H30 N1 O2 1+,C2 F6 N1 O4 S2 1-'
_chemical_name_systematic        
'4-(4-(2,2-bis(4-methoxyphenyl)-1-phenylvinyl)phenyl)-1-methylpyridinium bis((trifluoromethyl)sulfonyl)azanide'
_symmetry_cell_setting           monoclinic
_symmetry_space_group_name_H-M   'P 21/n'
_symmetry_Int_Tables_number      14
_space_group_name_Hall           '-P 2yn'
loop_
_symmetry_equiv_pos_site_id
_symmetry_equiv_pos_as_xyz
1 x,y,z
2 1/2-x,1/2+y,1/2-z
3 -x,-y,-z
4 1/2+x,1/2-y,1/2+z
_cell_length_a                   17.477(4)
_cell_length_b                   10.666(2)
_cell_length_c                   19.242(4)
_cell_angle_alpha                90
_cell_angle_beta                 102.91(3)
_cell_angle_gamma                90
_cell_volume                     3496.23
_cell_formula_units_Z            4
loop_
_atom_site_label
_atom_site_type_symbol
_atom_site_fract_x
_atom_site_fract_y
_atom_site_fract_z
O1 O 0.41898(13) 0.5138(2) 0.01606(13)
O2 O 0.30408(12) 0.3107(2) 0.46228(11)
N1 N -0.19318(14) -0.0191(2) 0.36511(13)
C1 C 0.20732(16) 0.2817(3) 0.16148(15)
C2 C 0.26324(16) 0.3414(3) 0.12220(15)
C3 C 0.30165(18) 0.2731(3) 0.07771(16)
H1 H 0.2918 0.1860 0.0702
C4 C 0.35510(19) 0.3351(3) 0.04429(17)
H2 H 0.3825 0.2889 0.0153
C5 C 0.36780(17) 0.4623(3) 0.05337(17)
C6 C 0.33062(18) 0.5303(3) 0.09676(17)
H3 H 0.3396 0.6178 0.1033
C7 C 0.27966(17) 0.4680(3) 0.13075(16)
H4 H 0.2547 0.5147 0.1615
C8 C 0.4402(2) 0.6444(3) 0.0289(2)
H5 H 0.3934 0.6969 0.0138
H6 H 0.4792 0.6676 0.0017
H7 H 0.4624 0.6572 0.0799
C9 C 0.23302(15) 0.2903(3) 0.24021(15)
C10 C 0.18775(17) 0.3467(3) 0.28280(16)
H8 H 0.1381 0.3812 0.2608
C11 C 0.21322(17) 0.3539(3) 0.35594(16)
H9 H 0.1814 0.3934 0.3836
C12 C 0.28525(16) 0.3034(3) 0.38919(15)
C13 C 0.33310(16) 0.2490(3) 0.34836(15)
H10 H 0.3830 0.2159 0.3706
C14 C 0.30663(16) 0.2438(3) 0.27459(15)
H11 H 0.3395 0.2076 0.2468
C15 C 0.37487(18) 0.2523(3) 0.49858(17)
H12 H 0.3721 0.1621 0.4885
H13 H 0.3821 0.2657 0.5500
H14 H 0.4193 0.2887 0.4823
C16 C 0.13832(16) 0.2312(3) 0.12762(15)
C17 C 0.10922(15) 0.2298(3) 0.04788(15)
C18 C 0.08624(16) 0.1170(3) 0.01285(15)
H15 H 0.0897 0.0415 0.0396
C19 C 0.05820(17) 0.1133(3) -0.06100(16)
H16 H 0.0430 0.0358 -0.0843
C20 C 0.05260(17) 0.2229(4) -0.10001(17)
H17 H 0.0343 0.2206 -0.1503
C21 C 0.07353(18) 0.3356(4) -0.06594(17)
H18 H 0.0685 0.4110 -0.0928
C22 C 0.10201(18) 0.3394(3) 0.00775(17)
H19 H 0.1166 0.4174 0.0307
C23 C 0.08165(16) 0.1771(3) 0.16762(14)
C24 C 0.01071(16) 0.2406(3) 0.16432(15)
H20 H -0.0012 0.3125 0.1348
C25 C -0.04216(16) 0.2008(3) 0.20308(15)
H21 H -0.0888 0.2473 0.2015
C26 C -0.02746(16) 0.0922(3) 0.24465(15)
C27 C 0.04129(17) 0.0250(3) 0.24550(15)
H22 H 0.0513 -0.0506 0.2721
C28 C 0.09507(17) 0.0679(3) 0.20766(15)
H23 H 0.1419 0.0216 0.2092
C29 C -0.08417(17) 0.0531(3) 0.28795(15)
C30 C -0.13173(17) 0.1403(3) 0.31236(16)
H24 H -0.1270 0.2268 0.3024
C31 C -0.18495(18) 0.1027(3) 0.35044(17)
H25 H -0.2166 0.1635 0.3668
C32 C -0.1484(2) -0.1052(3) 0.34357(18)
H26 H -0.1545 -0.1910 0.3545
C33 C -0.0933(2) -0.0717(3) 0.30561(18)
H27 H -0.0613 -0.1343 0.2914
C34 C -0.25356(19) -0.0584(3) 0.40413(18)
H28 H -0.3030 -0.0755 0.3699
H29 H -0.2616 0.0089 0.4365
H30 H -0.2359 -0.1343 0.4317
S1 S 0.61221(4) 0.05514(7) 0.21722(4)
S2 S 0.63713(4) -0.00075(8) 0.08137(4)
F1 F 0.48655(11) 0.02732(19) 0.26686(10)
F2 F 0.47245(11) 0.1552(2) 0.17862(13)
F3 F 0.47525(11) -0.0435(2) 0.16053(11)
F4 F 0.77999(13) 0.0909(3) 0.10854(13)
F5 F 0.76441(13) -0.0831(3) 0.05132(13)
F6 F 0.76876(12) -0.0794(2) 0.16396(13)
O3 O 0.63920(13) -0.06727(19) 0.24225(11)
O4 O 0.63355(12) 0.1585(2) 0.26486(12)
O5 O 0.60801(13) -0.1248(2) 0.08572(11)
O6 O 0.62032(15) 0.0631(2) 0.01459(12)
N2 N 0.62422(15) 0.0944(2) 0.14154(14)
C35 C 0.50551(19) 0.0471(3) 0.20382(18)
C36 C 0.7437(2) -0.0199(4) 0.1028(2)
loop_
_geom_bond_atom_site_label_1
_geom_bond_atom_site_label_2
_geom_bond_site_symmetry_1
_geom_bond_site_symmetry_2
O1 C5 1_555 1_555
O2 C12 1_555 1_555
N1 C31 1_555 1_555
C1 C2 1_555 1_555
C2 C3 1_555 1_555
C3 H1 1_555 1_555
C4 C3 1_555 1_555
H2 C4 1_555 1_555
C5 C4 1_555 1_555
C6 C5 1_555 1_555
H3 C6 1_555 1_555
C7 C2 1_555 1_555
H4 C7 1_555 1_555
C8 O1 1_555 1_555
H5 C8 1_555 1_555
H6 C8 1_555 1_555
H7 C8 1_555 1_555
C9 C1 1_555 1_555
C10 C9 1_555 1_555
H8 C10 1_555 1_555
C11 C10 1_555 1_555
H9 C11 1_555 1_555
C12 C11 1_555 1_555
C13 C12 1_555 1_555
H10 C13 1_555 1_555
C14 C9 1_555 1_555
H11 C14 1_555 1_555
C15 O2 1_555 1_555
H12 C15 1_555 1_555
H13 C15 1_555 1_555
H14 C15 1_555 1_555
C16 C1 1_555 1_555
C17 C16 1_555 1_555
C18 C17 1_555 1_555
H15 C18 1_555 1_555
C19 C18 1_555 1_555
H16 C19 1_555 1_555
C20 C19 1_555 1_555
H17 C20 1_555 1_555
C21 C20 1_555 1_555
H18 C21 1_555 1_555
C22 C17 1_555 1_555
H19 C22 1_555 1_555
C23 C16 1_555 1_555
C24 C23 1_555 1_555
H20 C24 1_555 1_555
C25 C24 1_555 1_555
H21 C25 1_555 1_555
C26 C25 1_555 1_555
C27 C26 1_555 1_555
H22 C27 1_555 1_555
C28 C23 1_555 1_555
H23 C28 1_555 1_555
C29 C26 1_555 1_555
C30 C29 1_555 1_555
H24 C30 1_555 1_555
C31 C30 1_555 1_555
H25 C31 1_555 1_555
C32 N1 1_555 1_555
H26 C32 1_555 1_555
C33 C29 1_555 1_555
H27 C33 1_555 1_555
C34 N1 1_555 1_555
H28 C34 1_555 1_555
H29 C34 1_555 1_555
H30 C34 1_555 1_555
S1 O3 1_555 1_555
S2 O5 1_555 1_555
F1 C35 1_555 1_555
F2 C35 1_555 1_555
F3 C35 1_555 1_555
F4 C36 1_555 1_555
F5 C36 1_555 1_555
F6 C36 1_555 1_555
O4 S1 1_555 1_555
O6 S2 1_555 1_555
N2 S1 1_555 1_555
C35 S1 1_555 1_555
C36 S2 1_555 1_555
C6 C7 1_555 1_555
C13 C14 1_555 1_555
C21 C22 1_555 1_555
C27 C28 1_555 1_555
C32 C33 1_555 1_555
S2 N2 1_555 1_555

#END
