
#######################################################################
#
#                 Cambridge Crystallographic Data Centre
#                                CCDC 
#
#######################################################################
#
# If this CIF has been generated from an entry in the Cambridge 
# Structural Database, then it will include bibliographic, chemical, 
# crystal, experimental, refinement or atomic coordinate data resulting 
# from the CCDC's data processing and validation procedures.
#
#######################################################################

data_MUNTOG01
_chemical_formula_moiety         'C26 H22 Br2 N2 O4'
_chemical_name_systematic        
'dimethyl 1,3-bis(4-bromophenyl)-2-phenyl-1,2,3,6-tetrahydropyrimidine-4,5-dicarboxylate'
_symmetry_cell_setting           triclinic
_symmetry_space_group_name_H-M   'P -1'
_symmetry_Int_Tables_number      2
_space_group_name_Hall           '-P 1'
loop_
_symmetry_equiv_pos_site_id
_symmetry_equiv_pos_as_xyz
1 x,y,z
2 -x,-y,-z
_cell_length_a                   12.571(3)
_cell_length_b                   13.241(3)
_cell_length_c                   15.845(3)
_cell_angle_alpha                87.14(3)
_cell_angle_beta                 76.74(3)
_cell_angle_gamma                74.96(3)
_cell_volume                     2479.06
_cell_formula_units_Z            4
loop_
_atom_site_label
_atom_site_type_symbol
_atom_site_fract_x
_atom_site_fract_y
_atom_site_fract_z
Br1 Br 0.17113(10) 0.32837(9) 0.28536(8)
Br2 Br 0.03661(11) 0.83879(11) -0.16489(8)
O1 O 0.6323(5) 0.8520(5) -0.0094(4)
O2 O 0.6984(6) 0.6977(6) 0.0469(5)
O3 O 0.5932(5) 0.5310(5) 0.0752(4)
O4 O 0.5840(6) 0.5840(6) 0.2092(4)
N1 N 0.3614(6) 0.7036(5) 0.1738(5)
N2 N 0.2967(6) 0.8701(5) 0.1085(5)
C1 C 0.4701(7) 0.6973(7) 0.1254(6)
C2 C 0.4990(7) 0.7770(7) 0.0818(6)
C3 C 0.4124(8) 0.8818(7) 0.0806(7)
H1 H 0.4239 0.9309 0.1190
H2 H 0.4233 0.9099 0.0225
C4 C 0.2831(8) 0.8106(7) 0.1882(6)
H3 H 0.2054 0.8032 0.2032
C5 C 0.6185(8) 0.7700(8) 0.0384(6)
C6 C 0.7472(8) 0.8503(9) -0.0551(7)
H4 H 0.7471 0.9134 -0.0875
H5 H 0.7766 0.7911 -0.0939
H6 H 0.7937 0.8451 -0.0139
C7 C 0.5576(8) 0.5982(7) 0.1421(6)
C8 C 0.6788(11) 0.4389(9) 0.0881(8)
H7 H 0.7005 0.3941 0.0379
H8 H 0.6492 0.4021 0.1380
H9 H 0.7435 0.4590 0.0969
C9 C 0.3014(8) 0.8666(7) 0.2627(6)
C10 C 0.2288(9) 0.9673(8) 0.2838(7)
H10 H 0.1748 0.9963 0.2519
C11 C 0.2387(11) 1.0225(9) 0.3523(8)
H11 H 0.1901 1.0883 0.3673
C12 C 0.3196(11) 0.9810(10) 0.3983(8)
H12 H 0.3280 1.0199 0.4425
C13 C 0.3888(10) 0.8811(10) 0.3791(7)
H13 H 0.4415 0.8519 0.4119
C14 C 0.3793(8) 0.8249(9) 0.3111(6)
H14 H 0.4264 0.7582 0.2982
C15 C 0.3215(8) 0.6134(7) 0.1992(6)
C16 C 0.2552(8) 0.6100(8) 0.2819(6)
H15 H 0.2398 0.6656 0.3201
C17 C 0.2116(8) 0.5241(7) 0.3081(6)
H16 H 0.1671 0.5214 0.3634
C18 C 0.2361(7) 0.4446(7) 0.2504(7)
C19 C 0.3025(8) 0.4450(8) 0.1684(6)
H17 H 0.3188 0.3885 0.1309
C20 C 0.3444(8) 0.5309(8) 0.1429(6)
H18 H 0.3885 0.5330 0.0873
C21 C 0.2400(8) 0.8567(7) 0.0440(6)
C22 C 0.2941(9) 0.8331(8) -0.0408(6)
H19 H 0.3724 0.8191 -0.0574
C23 C 0.2317(9) 0.8302(8) -0.1015(7)
H20 H 0.2684 0.8182 -0.1595
C24 C 0.1181(8) 0.8446(7) -0.0782(6)
C25 C 0.0629(8) 0.8649(8) 0.0068(6)
H21 H -0.0152 0.8751 0.0226
C26 C 0.1213(8) 0.8704(8) 0.0681(7)
H22 H 0.0834 0.8831 0.1258
Br3 Br 0.45762(9) 1.14591(9) 0.21128(7)
Br4 Br 0.34968(11) 0.68529(12) 0.64927(8)
O5 O 0.8731(5) 0.9512(5) 0.4213(4)
O6 O 0.9682(6) 0.9137(5) 0.2829(4)
O7 O 1.0456(5) 0.6424(5) 0.5030(4)
O8 O 1.0655(5) 0.7915(5) 0.4367(4)
N3 N 0.7970(6) 0.6121(5) 0.3793(5)
N4 N 0.8055(6) 0.7771(5) 0.3142(5)
C27 C 0.8803(7) 0.7892(7) 0.3615(6)
C28 C 0.9301(7) 0.7080(7) 0.4067(6)
C29 C 0.9002(7) 0.6044(6) 0.4107(6)
H23 H 0.9624 0.5533 0.3757
H24 H 0.8893 0.5803 0.4701
C30 C 0.7967(8) 0.6711(7) 0.2999(6)
H25 H 0.7244 0.6769 0.2841
C31 C 0.9144(7) 0.8916(7) 0.3495(6)
C32 C 0.9054(10) 1.0495(8) 0.4160(8)
H26 H 0.8727 1.0872 0.4699
H27 H 0.8786 1.0906 0.3699
H28 H 0.9862 1.0357 0.4047
C33 C 1.0204(7) 0.7215(6) 0.4487(5)
C34 C 1.1321(9) 0.6495(9) 0.5488(7)
H29 H 1.1453 0.5904 0.5861
H30 H 1.1068 0.7128 0.5829
H31 H 1.2010 0.6501 0.5075
C35 C 0.8923(7) 0.6149(7) 0.2251(6)
C36 C 0.8956(9) 0.5117(8) 0.2067(7)
H32 H 0.8425 0.4800 0.2403
C37 C 0.9769(10) 0.4563(9) 0.1391(7)
H33 H 0.9783 0.3878 0.1272
C38 C 1.0553(10) 0.5030(9) 0.0899(7)
H34 H 1.1103 0.4664 0.0444
C39 C 1.0520(9) 0.6041(9) 0.1081(7)
H35 H 1.1058 0.6351 0.0746
C40 C 0.9711(8) 0.6612(8) 0.1747(6)
H36 H 0.9698 0.7300 0.1854
C41 C 0.7254(7) 0.8656(7) 0.2895(5)
C42 C 0.6665(8) 0.9449(7) 0.3481(6)
H37 H 0.6788 0.9411 0.4040
C43 C 0.5891(8) 1.0306(8) 0.3247(6)
H38 H 0.5510 1.0852 0.3638
C44 C 0.5700(7) 1.0331(7) 0.2425(6)
C45 C 0.6269(8) 0.9540(7) 0.1821(6)
H39 H 0.6130 0.9565 0.1267
C46 C 0.7052(8) 0.8713(7) 0.2075(6)
H40 H 0.7455 0.8177 0.1680
C47 C 0.6920(7) 0.6364(7) 0.4423(6)
C48 C 0.6823(8) 0.6679(8) 0.5261(6)
H41 H 0.7443 0.6804 0.5424
C49 C 0.5782(9) 0.6812(9) 0.5869(7)
H42 H 0.5723 0.7018 0.6434
C50 C 0.4883(8) 0.6646(8) 0.5643(7)
C51 C 0.4970(8) 0.6318(8) 0.4821(7)
H43 H 0.4349 0.6182 0.4669
C52 C 0.5992(8) 0.6188(8) 0.4209(6)
H44 H 0.6040 0.5978 0.3647
loop_
_geom_bond_atom_site_label_1
_geom_bond_atom_site_label_2
_geom_bond_site_symmetry_1
_geom_bond_site_symmetry_2
Br1 C18 1_555 1_555
Br2 C24 1_555 1_555
O1 C5 1_555 1_555
O2 C5 1_555 1_555
O3 C7 1_555 1_555
O4 C7 1_555 1_555
N1 C1 1_555 1_555
N2 C3 1_555 1_555
C1 C2 1_555 1_555
C2 C3 1_555 1_555
C3 H1 1_555 1_555
H2 C3 1_555 1_555
C4 N1 1_555 1_555
H3 C4 1_555 1_555
C5 C2 1_555 1_555
C6 O1 1_555 1_555
H4 C6 1_555 1_555
H5 C6 1_555 1_555
H6 C6 1_555 1_555
C7 C1 1_555 1_555
C8 O3 1_555 1_555
H7 C8 1_555 1_555
H8 C8 1_555 1_555
H9 C8 1_555 1_555
C9 C4 1_555 1_555
C10 C9 1_555 1_555
H10 C10 1_555 1_555
C11 C10 1_555 1_555
H11 C11 1_555 1_555
C12 C11 1_555 1_555
H12 C12 1_555 1_555
C13 C12 1_555 1_555
H13 C13 1_555 1_555
C14 C9 1_555 1_555
H14 C14 1_555 1_555
C15 N1 1_555 1_555
C16 C15 1_555 1_555
H15 C16 1_555 1_555
C17 C16 1_555 1_555
H16 C17 1_555 1_555
C18 C17 1_555 1_555
C19 C18 1_555 1_555
H17 C19 1_555 1_555
C20 C15 1_555 1_555
H18 C20 1_555 1_555
C21 N2 1_555 1_555
C22 C21 1_555 1_555
H19 C22 1_555 1_555
C23 C22 1_555 1_555
H20 C23 1_555 1_555
C24 C23 1_555 1_555
C25 C24 1_555 1_555
H21 C25 1_555 1_555
C26 C21 1_555 1_555
H22 C26 1_555 1_555
Br3 C44 1_555 1_555
Br4 C50 1_555 1_555
O5 C31 1_555 1_555
O6 C31 1_555 1_555
O7 C33 1_555 1_555
O8 C33 1_555 1_555
N3 C29 1_555 1_555
N4 C27 1_555 1_555
C27 C28 1_555 1_555
C28 C29 1_555 1_555
C29 H23 1_555 1_555
H24 C29 1_555 1_555
C30 N3 1_555 1_555
H25 C30 1_555 1_555
C31 C27 1_555 1_555
C32 O5 1_555 1_555
H26 C32 1_555 1_555
H27 C32 1_555 1_555
H28 C32 1_555 1_555
C33 C28 1_555 1_555
C34 O7 1_555 1_555
H29 C34 1_555 1_555
H30 C34 1_555 1_555
H31 C34 1_555 1_555
C35 C30 1_555 1_555
C36 C35 1_555 1_555
H32 C36 1_555 1_555
C37 C36 1_555 1_555
H33 C37 1_555 1_555
C38 C37 1_555 1_555
H34 C38 1_555 1_555
C39 C38 1_555 1_555
H35 C39 1_555 1_555
C40 C35 1_555 1_555
H36 C40 1_555 1_555
C41 N4 1_555 1_555
C42 C41 1_555 1_555
H37 C42 1_555 1_555
C43 C42 1_555 1_555
H38 C43 1_555 1_555
C44 C43 1_555 1_555
C45 C44 1_555 1_555
H39 C45 1_555 1_555
C46 C41 1_555 1_555
H40 C46 1_555 1_555
C47 N3 1_555 1_555
C48 C47 1_555 1_555
H41 C48 1_555 1_555
C49 C48 1_555 1_555
H42 C49 1_555 1_555
C50 C49 1_555 1_555
C51 C50 1_555 1_555
H43 C51 1_555 1_555
C52 C47 1_555 1_555
H44 C52 1_555 1_555
N2 C4 1_555 1_555
C13 C14 1_555 1_555
C19 C20 1_555 1_555
C25 C26 1_555 1_555
N4 C30 1_555 1_555
C39 C40 1_555 1_555
C45 C46 1_555 1_555
C51 C52 1_555 1_555

#END
