
#######################################################################
#
#                 Cambridge Crystallographic Data Centre
#                                CCDC 
#
#######################################################################
#
# If this CIF has been generated from an entry in the Cambridge 
# Structural Database, then it will include bibliographic, chemical, 
# crystal, experimental, refinement or atomic coordinate data resulting 
# from the CCDC's data processing and validation procedures.
#
#######################################################################

data_MUNWEX
_chemical_formula_moiety         'C28 H32 N4 O3'
_chemical_name_systematic        
2,5-bis(o-((4'S)-4'-Isobutyloxazolin-2'-yl)phenyl)-1,3,4-oxadiazole
_symmetry_cell_setting           triclinic
_symmetry_space_group_name_H-M   'P 1'
_symmetry_Int_Tables_number      1
_space_group_name_Hall           'P 1'
loop_
_symmetry_equiv_pos_site_id
_symmetry_equiv_pos_as_xyz
1 x,y,z
_cell_length_a                   12.7271(6)
_cell_length_b                   12.8305(2)
_cell_length_c                   9.6886(1)
_cell_angle_alpha                105.656(3)
_cell_angle_beta                 112.276(2)
_cell_angle_gamma                101.700(2)
_cell_volume                     1324.5
_exptl_crystal_colour            colorless
_exptl_crystal_description       block
_chemical_melting_point          75-76deg.C
_cell_formula_units_Z            2
_exptl_crystal_recrystallization_method 'ethyl acetate/petroleum ether'
loop_
_atom_site_label
_atom_site_type_symbol
_atom_site_fract_x
_atom_site_fract_y
_atom_site_fract_z
O1 O 1.0961(3) -0.1586(3) 1.0589(4)
O2 O 1.2102(3) -0.4718(4) 0.3675(5)
O3 O 1.0917(2) -0.48377(18) 0.7047(3)
N1 N 1.1510(3) -0.3162(3) 1.0187(4)
N2 N 1.0577(3) -0.5844(3) 0.3806(4)
N3 N 0.9800(3) -0.6071(3) 0.7568(4)
N4 N 1.0741(3) -0.6458(3) 0.7454(4)
C1 C 1.4377(6) -0.3556(7) 1.2618(9)
H1 H 1.3680 -0.3727 1.2797
H2 H 1.5044 -0.2965 1.3579
H3 H 1.4582 -0.4238 1.2352
C2 C 1.5188(6) -0.2887(6) 1.0931(9)
H4 H 1.4988 -0.2664 1.0020
H5 H 1.5409 -0.3563 1.0708
H6 H 1.5854 -0.2272 1.1864
C3 C 1.4100(4) -0.3145(4) 1.1248(5)
H7 H 1.3434 -0.3772 1.0277
C4 C 1.3715(4) -0.2100(4) 1.1516(6)
H8 H 1.3623 -0.1855 1.0626
H9 H 1.4360 -0.1481 1.2493
C5 C 1.2557(4) -0.2259(4) 1.1663(5)
H10 H 1.2649 -0.2467 1.2593
C6 C 1.2184(5) -0.1181(5) 1.1838(6)
H11 H 1.2228 -0.0854 1.2893
H12 H 1.2702 -0.0600 1.1689
C7 C 1.0712(4) -0.2712(3) 0.9710(5)
C8 C 0.9505(3) -0.3293(3) 0.8286(5)
C9 C 0.8677(4) -0.2726(4) 0.8025(6)
H13 H 0.8908 -0.1967 0.8716
C10 C 0.7532(5) -0.3246(6) 0.6781(8)
H14 H 0.6992 -0.2845 0.6645
C11 C 0.7169(4) -0.4371(6) 0.5719(7)
H15 H 0.6387 -0.4728 0.4874
C12 C 0.7985(4) -0.4964(4) 0.5929(6)
H16 H 0.7749 -0.5718 0.5221
C13 C 0.9161(3) -0.4426(3) 0.7202(4)
C14 C 0.9951(3) -0.5119(3) 0.7332(4)
C15 C 1.1352(3) -0.5712(3) 0.7138(4)
C16 C 1.2446(3) -0.5711(3) 0.6958(4)
C17 C 1.3338(4) -0.5938(4) 0.8091(5)
H17 H 1.3194 -0.6124 0.8881
C18 C 1.4411(4) -0.5898(4) 0.8084(7)
H18 H 1.4984 -0.6068 0.8842
C19 C 1.4633(4) -0.5601(4) 0.6935(7)
H19 H 1.5378 -0.5540 0.6950
C20 C 1.3779(4) -0.5391(3) 0.5763(5)
H20 H 1.3945 -0.5202 0.4989
C21 C 1.2655(3) -0.5464(3) 0.5740(4)
C22 C 1.1705(4) -0.5365(3) 0.4395(5)
C23 C 1.1033(5) -0.4910(7) 0.2246(8)
H21 H 1.1009 -0.5430 0.1290
H22 H 1.1008 -0.4190 0.2119
C24 C 0.9994(4) -0.5439(4) 0.2523(5)
H23 H 0.9375 -0.6091 0.1542
C25 C 0.9436(4) -0.4597(4) 0.3110(5)
H24 H 0.8821 -0.5002 0.3322
H25 H 1.0057 -0.4002 0.4132
C26 C 0.8873(6) -0.4016(5) 0.2015(7)
H26 H 0.9516 -0.3554 0.1882
C27 C 0.7937(7) -0.4815(7) 0.0408(9)
H27 H 0.8280 -0.5285 -0.0115
H28 H 0.7610 -0.4388 -0.0218
H29 H 0.7304 -0.5297 0.0501
C28 C 0.8356(12) -0.3182(10) 0.2806(13)
H30 H 0.8072 -0.2761 0.2146
H31 H 0.8977 -0.2653 0.3857
H32 H 0.7697 -0.3614 0.2905
O4 O 0.5804(3) -0.1658(3) -0.1805(4)
O5 O 0.5837(2) 0.2751(2) 0.5182(4)
O6 O 0.5622(2) 0.1485(2) 0.2056(3)
N5 N 0.4762(3) 0.1010(3) 0.4926(4)
N6 N 0.4877(3) -0.0520(3) -0.0886(4)
N7 N 0.5416(4) 0.2748(4) 0.0917(6)
N8 N 0.6399(4) 0.2411(3) 0.0877(6)
C29 C 0.8400(11) 0.1364(17) 0.8470(19)
H33 H 0.8514 0.2189 0.8647
H34 H 0.9115 0.1318 0.9177
H35 H 0.7795 0.1184 0.8919
C31 C 0.7823(7) 0.0596(9) 0.6745(11)
H39 H 0.8211 0.1240 0.6476
C32 C 0.8264(14) -0.0363(17) 0.581(2)
H40 H 0.7984 -0.0973 0.5825
H41 H 0.9101 0.0039 0.6188
H42 H 0.7866 -0.0315 0.4655
C34 C 0.6571(4) 0.0465(4) 0.5638(6)
H46 H 0.6052 -0.0305 0.5359
H47 H 0.6566 0.0507 0.4651
C35 C 0.6000(3) 0.1303(4) 0.6205(5)
H48 H 0.5964 0.1254 0.7179
C36 C 0.6630(4) 0.2524(5) 0.6535(8)
H49 H 0.6731 0.3039 0.7552
H50 H 0.7419 0.2623 0.6575
C37 C 0.4788(3) 0.1838(3) 0.4456(5)
C38 C 0.3789(3) 0.1925(3) 0.3107(5)
C39 C 0.2690(4) 0.1844(4) 0.3162(6)
H51 H 0.2588 0.1693 0.3997
C40 C 0.1761(4) 0.1987(4) 0.1989(7)
H52 H 0.1032 0.1915 0.2030
C41 C 0.1901(5) 0.2232(5) 0.0777(8)
H53 H 0.1281 0.2350 0.0008
C42 C 0.2968(5) 0.2302(4) 0.0697(7)
H54 H 0.3054 0.2455 -0.0148
C43 C 0.3920(4) 0.2153(3) 0.1839(5)
C44 C 0.4996(4) 0.2183(4) 0.1625(5)
C45 C 0.6466(4) 0.1669(3) 0.1535(5)
C46 C 0.7332(3) 0.1055(3) 0.1790(4)
C47 C 0.8486(4) 0.1628(4) 0.3076(5)
H55 H 0.8680 0.2377 0.3768
C48 C 0.9344(4) 0.1109(5) 0.3343(6)
H56 H 1.0114 0.1507 0.4203
C49 C 0.9067(4) 0.0015(5) 0.2351(7)
H57 H 0.9650 -0.0336 0.2551
C50 C 0.7934(4) -0.0591(4) 0.1045(6)
H58 H 0.7765 -0.1337 0.0366
C51 C 0.7043(3) -0.0077(3) 0.0750(5)
C52 C 0.5850(4) -0.0721(3) -0.0655(5)
C53 C 0.4588(5) -0.2065(5) -0.3136(7)
H59 H 0.4216 -0.2892 -0.3506
H60 H 0.4603 -0.1877 -0.4035
C54 C 0.3904(4) -0.1430(4) -0.2425(5)
H61 H 0.3393 -0.1959 -0.2183
C55 C 0.3126(4) -0.0940(4) -0.3494(5)
H62 H 0.3631 -0.0437 -0.3759
H63 H 0.2526 -0.1570 -0.4495
C56 C 0.2491(4) -0.0282(5) -0.2790(6)
H64 H 0.3105 0.0294 -0.1728
C57 C 0.1919(7) 0.0377(8) -0.3786(9)
H65 H 0.2540 0.0935 -0.3802
H66 H 0.1494 0.0763 -0.3313
H67 H 0.1363 -0.0153 -0.4870
C58 C 0.1579(8) -0.1023(9) -0.2518(12)
H68 H 0.0913 -0.1543 -0.3540
H69 H 0.1292 -0.0545 -0.1904
H70 H 0.1947 -0.1456 -0.1935
C30? C 0.8093(16) 0.0639(18) 0.820(2)
H36? H 0.8297 0.1414 0.8961
H37? H 0.8866 0.0451 0.8673
H38? H 0.7494 0.0113 0.8249
C33? C 0.824(3) -0.017(3) 0.646(5)
H43? H 0.9115 -0.0296 0.6955
H44? H 0.8287 -0.0537 0.5145
H45? H 0.7777 -0.1144 0.6075
loop_
_geom_bond_atom_site_label_1
_geom_bond_atom_site_label_2
_geom_bond_site_symmetry_1
_geom_bond_site_symmetry_2
O1 C6 1_555 1_555
O2 C22 1_555 1_555
O3 C14 1_555 1_555
O4 C52 1_555 1_555
O5 C36 1_555 1_555
O6 C44 1_555 1_555
N1 C5 1_555 1_555
N2 C22 1_555 1_555
N3 N4 1_555 1_555
N4 C15 1_555 1_555
N5 C35 1_555 1_555
N6 C52 1_555 1_555
N7 N8 1_555 1_555
N8 C45 1_555 1_555
C1 H1 1_555 1_555
H2 C1 1_555 1_555
H3 C1 1_555 1_555
C2 H4 1_555 1_555
H5 C2 1_555 1_555
H6 C2 1_555 1_555
C3 C1 1_555 1_555
H7 C3 1_555 1_555
C4 C3 1_555 1_555
H8 C4 1_555 1_555
H9 C4 1_555 1_555
C5 C4 1_555 1_555
H10 C5 1_555 1_555
C6 C5 1_555 1_555
H11 C6 1_555 1_555
H12 C6 1_555 1_555
C7 O1 1_555 1_555
C8 C7 1_555 1_555
C9 C8 1_555 1_555
H13 C9 1_555 1_555
C10 C9 1_555 1_555
H14 C10 1_555 1_555
C11 C10 1_555 1_555
H15 C11 1_555 1_555
C12 C11 1_555 1_555
H16 C12 1_555 1_555
C13 C8 1_555 1_555
C14 N3 1_555 1_555
C15 O3 1_555 1_555
C16 C15 1_555 1_555
C17 C16 1_555 1_555
H17 C17 1_555 1_555
C18 C17 1_555 1_555
H18 C18 1_555 1_555
C19 C18 1_555 1_555
H19 C19 1_555 1_555
C20 C19 1_555 1_555
H20 C20 1_555 1_555
C21 C16 1_555 1_555
C22 C21 1_555 1_555
C23 O2 1_555 1_555
H21 C23 1_555 1_555
H22 C23 1_555 1_555
C24 N2 1_555 1_555
H23 C24 1_555 1_555
C25 C24 1_555 1_555
H24 C25 1_555 1_555
H25 C25 1_555 1_555
C26 C25 1_555 1_555
H26 C26 1_555 1_555
C27 C26 1_555 1_555
H27 C27 1_555 1_555
H28 C27 1_555 1_555
H29 C27 1_555 1_555
C28 C26 1_555 1_555
H30 C28 1_555 1_555
H31 C28 1_555 1_555
H32 C28 1_555 1_555
C29 H33 1_555 1_555
H34 C29 1_555 1_555
H35 C29 1_555 1_555
C31 C29 1_555 1_555
H39 C31 1_555 1_555
C32 C31 1_555 1_555
H40 C32 1_555 1_555
H41 C32 1_555 1_555
H42 C32 1_555 1_555
C34 C31 1_555 1_555
H46 C34 1_555 1_555
H47 C34 1_555 1_555
C35 C34 1_555 1_555
H48 C35 1_555 1_555
C36 C35 1_555 1_555
H49 C36 1_555 1_555
H50 C36 1_555 1_555
C37 O5 1_555 1_555
C38 C37 1_555 1_555
C39 C38 1_555 1_555
H51 C39 1_555 1_555
C40 C39 1_555 1_555
H52 C40 1_555 1_555
C41 C40 1_555 1_555
H53 C41 1_555 1_555
C42 C41 1_555 1_555
H54 C42 1_555 1_555
C43 C38 1_555 1_555
C44 N7 1_555 1_555
C45 O6 1_555 1_555
C46 C45 1_555 1_555
C47 C46 1_555 1_555
H55 C47 1_555 1_555
C48 C47 1_555 1_555
H56 C48 1_555 1_555
C49 C48 1_555 1_555
H57 C49 1_555 1_555
C50 C49 1_555 1_555
H58 C50 1_555 1_555
C51 C46 1_555 1_555
C52 C51 1_555 1_555
C53 O4 1_555 1_555
H59 C53 1_555 1_555
H60 C53 1_555 1_555
C54 N6 1_555 1_555
H61 C54 1_555 1_555
C55 C54 1_555 1_555
H62 C55 1_555 1_555
H63 C55 1_555 1_555
C56 C55 1_555 1_555
H64 C56 1_555 1_555
C57 C56 1_555 1_555
H65 C57 1_555 1_555
H66 C57 1_555 1_555
H67 C57 1_555 1_555
C58 C56 1_555 1_555
H68 C58 1_555 1_555
H69 C58 1_555 1_555
H70 C58 1_555 1_555
N1 C7 1_555 1_555
N5 C37 1_555 1_555
C2 C3 1_555 1_555
C12 C13 1_555 1_555
C13 C14 1_555 1_555
C20 C21 1_555 1_555
C23 C24 1_555 1_555
C42 C43 1_555 1_555
C43 C44 1_555 1_555
C50 C51 1_555 1_555
C53 C54 1_555 1_555

#END
