
#######################################################################
#
#                 Cambridge Crystallographic Data Centre
#                                CCDC 
#
#######################################################################
#
# If this CIF has been generated from an entry in the Cambridge 
# Structural Database, then it will include bibliographic, chemical, 
# crystal, experimental, refinement or atomic coordinate data resulting 
# from the CCDC's data processing and validation procedures.
#
#######################################################################

data_MUNYEB
_chemical_formula_moiety         'C21 H24 F3 N2 O3 P1'
_chemical_name_systematic        
'diethyl (2-(4-methylphenyl)-4-(trifluoromethyl)-2,3-dihydro-1H-1,5-benzodiazepin-3-yl)phosphonate'
_symmetry_cell_setting           monoclinic
_symmetry_space_group_name_H-M   'C 2/c'
_symmetry_Int_Tables_number      15
_space_group_name_Hall           '-C 2yn'
loop_
_symmetry_equiv_pos_site_id
_symmetry_equiv_pos_as_xyz
1 x,y,z
2 -x,y,1/2-z
3 1/2+x,1/2+y,z
4 1/2-x,1/2+y,1/2-z
5 -x,-y,-z
6 x,-y,1/2+z
7 1/2-x,1/2-y,-z
8 1/2+x,1/2-y,1/2+z
_cell_length_a                   26.802(4)
_cell_length_b                   10.0273(15)
_cell_length_c                   17.600(3)
_cell_angle_alpha                90
_cell_angle_beta                 110.742(2)
_cell_angle_gamma                90
_cell_volume                     4423.45
_cell_formula_units_Z            8
loop_
_atom_site_label
_atom_site_type_symbol
_atom_site_fract_x
_atom_site_fract_y
_atom_site_fract_z
C1 C 0.14875(9) 0.0947(2) 0.70030(13)
C2 C 0.16858(11) 0.1669(3) 0.77336(15)
H1 H 0.2035 0.1980 0.7904
C3 C 0.13880(12) 0.1931(3) 0.82035(17)
H2 H 0.1527 0.2434 0.8676
C4 C 0.08741(12) 0.1432(3) 0.79616(16)
H3 H 0.0665 0.1603 0.8275
C5 C 0.06700(10) 0.0692(3) 0.72689(15)
H4 H 0.0326 0.0353 0.7127
C6 C 0.09641(9) 0.0426(2) 0.67608(13)
C7 C 0.09163(9) -0.0861(2) 0.54958(13)
H5 H 0.0607 -0.1084 0.5013
C8 C 0.12458(9) 0.0178(2) 0.52129(13)
H6 H 0.1337 -0.0259 0.4781
C9 C 0.17688(9) 0.0473(2) 0.58817(14)
C10 C 0.12323(9) -0.2148(2) 0.57557(13)
C11 C 0.15343(11) -0.2431(3) 0.65568(15)
H7 H 0.1535 -0.1834 0.6961
C12 C 0.18345(12) -0.3581(3) 0.67673(16)
H8 H 0.2033 -0.3744 0.7311
C13 C 0.18469(11) -0.4494(3) 0.61894(17)
C14 C 0.15457(13) -0.4216(3) 0.53860(17)
H9 H 0.1549 -0.4810 0.4982
C15 C 0.12403(12) -0.3071(3) 0.51741(15)
H10 H 0.1036 -0.2918 0.4631
C16 C 0.21776(15) -0.5746(3) 0.6422(2)
H11 H 0.2045 -0.6396 0.5997
H12 H 0.2156 -0.6098 0.6917
H13 H 0.2543 -0.5543 0.6501
C17 C 0.22628(10) 0.0316(3) 0.56604(16)
C18 C 0.11616(14) 0.2395(4) 0.35486(18)
H14 H 0.0992 0.1561 0.3317
H15 H 0.1516 0.2409 0.3517
C19 C 0.0852(2) 0.3501(6) 0.3086(3)
H16 H 0.0486 0.3402 0.3040
H17 H 0.0875 0.3509 0.2554
H18 H 0.0990 0.4323 0.3359
C20 C 0.04434(16) 0.3448(4) 0.5424(2)
H19 H 0.0100 0.3004 0.5223
H20 H 0.0443 0.4136 0.5037
C21 C 0.05115(18) 0.4059(4) 0.6193(2)
H21 H 0.0451 0.3408 0.6551
H22 H 0.0261 0.4776 0.6113
H23 H 0.0868 0.4402 0.6428
F1 F 0.2656(4) 0.1053(15) 0.6091(7)
F2 F 0.2184(3) 0.0668(17) 0.4921(4)
F3 F 0.2257(4) -0.0771(15) 0.5260(11)
N1 N 0.18616(7) 0.08031(19) 0.66150(11)
N2 N 0.07043(8) -0.0309(2) 0.60775(12)
O1 O 0.03343(7) 0.1243(2) 0.41602(11)
O2 O 0.08481(7) 0.25119(19) 0.54750(10)
O3 O 0.12046(7) 0.24720(18) 0.43859(10)
P1 P 0.08519(2) 0.16279(7) 0.47481(4)
F4? F 0.2451(8) -0.0843(12) 0.5801(19)
F5? F 0.2345(7) 0.1325(11) 0.5272(15)
F6? F 0.2704(3) 0.013(2) 0.6279(5)
loop_
_geom_bond_atom_site_label_1
_geom_bond_atom_site_label_2
_geom_bond_site_symmetry_1
_geom_bond_site_symmetry_2
C1 C2 1_555 1_555
C2 H1 1_555 1_555
C3 C2 1_555 1_555
H2 C3 1_555 1_555
C4 C3 1_555 1_555
H3 C4 1_555 1_555
C5 C4 1_555 1_555
H4 C5 1_555 1_555
C6 C1 1_555 1_555
C7 H5 1_555 1_555
C8 C7 1_555 1_555
H6 C8 1_555 1_555
C9 C8 1_555 1_555
C10 C7 1_555 1_555
C11 C10 1_555 1_555
H7 C11 1_555 1_555
C12 C11 1_555 1_555
H8 C12 1_555 1_555
C13 C12 1_555 1_555
C14 C13 1_555 1_555
H9 C14 1_555 1_555
C15 C10 1_555 1_555
H10 C15 1_555 1_555
C16 C13 1_555 1_555
H11 C16 1_555 1_555
H12 C16 1_555 1_555
H13 C16 1_555 1_555
C17 C9 1_555 1_555
C18 H14 1_555 1_555
H15 C18 1_555 1_555
C19 C18 1_555 1_555
H16 C19 1_555 1_555
H17 C19 1_555 1_555
H18 C19 1_555 1_555
C20 H19 1_555 1_555
H20 C20 1_555 1_555
C21 C20 1_555 1_555
H21 C21 1_555 1_555
H22 C21 1_555 1_555
H23 C21 1_555 1_555
F1 C17 1_555 1_555
F2 C17 1_555 1_555
F3 C17 1_555 1_555
N1 C1 1_555 1_555
N2 C6 1_555 1_555
O1 P1 1_555 1_555
O2 C20 1_555 1_555
O3 C18 1_555 1_555
P1 C8 1_555 1_555
C5 C6 1_555 1_555
C7 N2 1_555 1_555
C9 N1 1_555 1_555
C14 C15 1_555 1_555
O2 P1 1_555 1_555
O3 P1 1_555 1_555

#END
