
#######################################################################
#
#                 Cambridge Crystallographic Data Centre
#                                CCDC 
#
#######################################################################
#
# If this CIF has been generated from an entry in the Cambridge 
# Structural Database, then it will include bibliographic, chemical, 
# crystal, experimental, refinement or atomic coordinate data resulting 
# from the CCDC's data processing and validation procedures.
#
#######################################################################

data_MUPQOF
_chemical_formula_moiety         'C33 H34 O4 S4'
_chemical_name_systematic        
25-hydroxy-26,27,28-triisopropoxy-2,8,14,20-tetrathiacalix[4]arene
_symmetry_cell_setting           triclinic
_symmetry_space_group_name_H-M   'P -1'
_symmetry_Int_Tables_number      2
_space_group_name_Hall           '-P 1'
loop_
_symmetry_equiv_pos_site_id
_symmetry_equiv_pos_as_xyz
1 x,y,z
2 -x,-y,-z
_cell_length_a                   12.0213(7)
_cell_length_b                   16.1632(9)
_cell_length_c                   17.1991(10)
_cell_angle_alpha                82.003(2)
_cell_angle_beta                 73.165(2)
_cell_angle_gamma                87.4020(10)
_cell_volume                     3167.46
_exptl_crystal_colour            colorless
_exptl_crystal_description       block
_cell_formula_units_Z            4
loop_
_atom_site_label
_atom_site_type_symbol
_atom_site_fract_x
_atom_site_fract_y
_atom_site_fract_z
C1 C 0.3033(5) 0.1155(4) 0.4361(3)
C2 C 0.2343(5) 0.1647(3) 0.3944(3)
C3 C 0.1455(5) 0.2147(4) 0.4383(3)
C4 C 0.1339(5) 0.2194(4) 0.5201(3)
H1 H 0.0750 0.2539 0.5496
C5 C 0.2077(6) 0.1743(4) 0.5593(4)
H2 H 0.2018 0.1799 0.6146
C6 C 0.2903(6) 0.1207(4) 0.5175(4)
H3 H 0.3380 0.0875 0.5452
C7 C -0.0125(5) 0.2106(3) 0.3489(3)
C8 C 0.0146(4) 0.2068(3) 0.2648(3)
C9 C -0.0444(5) 0.1510(3) 0.2355(3)
C10 C -0.1308(5) 0.1006(4) 0.2907(4)
H4 H -0.1708 0.0623 0.2712
C11 C -0.1589(5) 0.1060(4) 0.3736(4)
H5 H -0.2190 0.0720 0.4107
C12 C -0.1000(5) 0.1604(4) 0.4028(4)
H6 H -0.1196 0.1636 0.4599
C13 C 0.0849(7) 0.3429(4) 0.1942(4)
H7 H 0.0612 0.3665 0.2474
C14 C 0.2052(7) 0.3744(5) 0.1458(5)
H8 H 0.2589 0.3607 0.1791
H9 H 0.2024 0.4351 0.1312
H10 H 0.2321 0.3477 0.0957
C15 C -0.0057(6) 0.3634(4) 0.1517(4)
H11 H -0.0780 0.3349 0.1838
H12 H 0.0201 0.3449 0.0974
H13 H -0.0191 0.4239 0.1459
C16 C 0.1269(5) 0.1141(4) 0.0963(3)
C17 C 0.1600(5) 0.0321(3) 0.1205(3)
C18 C 0.2777(5) 0.0097(3) 0.0989(3)
C19 C 0.3594(5) 0.0677(4) 0.0494(3)
H14 H 0.4396 0.0533 0.0357
C20 C 0.3260(6) 0.1456(4) 0.0200(4)
H15 H 0.3819 0.1830 -0.0169
C21 C 0.2101(6) 0.1687(4) 0.0448(4)
H16 H 0.1873 0.2231 0.0262
C22 C 0.0053(5) -0.0619(4) 0.1316(4)
H17 H -0.0419 -0.0167 0.1102
C23 C 0.0700(7) -0.1072(6) 0.0632(5)
H18 H 0.1223 -0.0685 0.0209
H19 H 0.0150 -0.1306 0.0398
H20 H 0.1155 -0.1525 0.0835
C24 C -0.0755(6) -0.1181(4) 0.2005(4)
H21 H -0.1184 -0.0849 0.2432
H22 H -0.0300 -0.1613 0.2236
H23 H -0.1304 -0.1445 0.1792
C25 C 0.2908(5) -0.0806(3) 0.2399(3)
C26 C 0.3621(5) -0.0339(3) 0.2690(3)
C27 C 0.3231(5) -0.0140(3) 0.3487(3)
C28 C 0.2154(5) -0.0421(4) 0.3993(4)
H24 H 0.1882 -0.0276 0.4533
C29 C 0.1476(5) -0.0911(4) 0.3711(4)
H25 H 0.0748 -0.1112 0.4063
C30 C 0.1855(5) -0.1108(3) 0.2923(3)
H26 H 0.1393 -0.1452 0.2737
C31 C 0.5615(5) -0.0637(4) 0.2013(4)
H27 H 0.5390 -0.1085 0.1741
C32 C 0.5895(6) -0.1029(4) 0.2783(4)
H28 H 0.5213 -0.1330 0.3152
H29 H 0.6106 -0.0591 0.3055
H30 H 0.6547 -0.1420 0.2642
C33 C 0.6622(5) -0.0149(4) 0.1417(4)
H31 H 0.6366 0.0157 0.0965
H32 H 0.7252 -0.0534 0.1199
H33 H 0.6900 0.0248 0.1699
O1 O 0.2555(3) 0.1629(2) 0.3134(2)
H34 H 0.2110 0.1887 0.2875
O2 O 0.1048(3) 0.2518(2) 0.2108(2)
O3 O 0.0803(3) -0.0243(2) 0.1695(2)
O4 O 0.4668(3) -0.0035(2) 0.2192(2)
S1 S 0.41168(13) 0.04999(10) 0.38197(10)
S2 S 0.06208(13) 0.28144(9) 0.38684(9)
S3 S -0.01990(14) 0.14741(10) 0.12891(9)
S4 S 0.32565(13) -0.09057(10) 0.13349(9)
C34 C 0.7700(5) 0.3673(3) 0.4474(4)
C35 C 0.7187(4) 0.3344(3) 0.3950(3)
C36 C 0.6419(5) 0.2666(3) 0.4259(3)
C37 C 0.6239(5) 0.2294(4) 0.5068(3)
H35 H 0.5733 0.1829 0.5274
C38 C 0.6793(5) 0.2596(4) 0.5573(3)
H36 H 0.6690 0.2328 0.6117
C39 C 0.7498(5) 0.3290(4) 0.5277(4)
H37 H 0.7852 0.3511 0.5631
C40 C 0.4947(5) 0.3044(3) 0.3291(3)
C41 C 0.5224(5) 0.3394(3) 0.2473(3)
C42 C 0.4557(5) 0.4064(3) 0.2241(3)
C43 C 0.3624(5) 0.4356(4) 0.2826(4)
H38 H 0.3173 0.4812 0.2671
C44 C 0.3343(5) 0.3988(4) 0.3632(4)
H39 H 0.2694 0.4185 0.4027
C45 C 0.4004(5) 0.3335(4) 0.3861(4)
H40 H 0.3810 0.3082 0.4416
C46 C 0.6167(7) 0.2337(5) 0.1609(5)
H41 H 0.6329 0.1891 0.2028
C47 C 0.7171(6) 0.2354(5) 0.0852(5)
H42 H 0.7263 0.1804 0.0663
H43 H 0.7882 0.2495 0.0974
H44 H 0.7027 0.2775 0.0423
C48 C 0.5032(6) 0.2152(5) 0.1504(5)
H45 H 0.4442 0.2094 0.2038
H46 H 0.5089 0.1629 0.1265
H47 H 0.4812 0.2608 0.1138
C49 C 0.6215(5) 0.5002(3) 0.1036(3)
C50 C 0.6292(4) 0.5706(3) 0.1410(3)
C51 C 0.7376(4) 0.6060(3) 0.1289(3)
C52 C 0.8355(5) 0.5753(4) 0.0747(3)
H48 H 0.9089 0.6006 0.0650
C53 C 0.8263(5) 0.5084(4) 0.0350(3)
H49 H 0.8932 0.4887 -0.0028
C54 C 0.7219(5) 0.4706(4) 0.0496(3)
H50 H 0.7170 0.4238 0.0230
C55 C 0.4783(5) 0.6754(4) 0.1651(4)
H51 H 0.5304 0.7231 0.1618
C56 C 0.3665(6) 0.6837(5) 0.2319(4)
H52 H 0.3832 0.6802 0.2848
H53 H 0.3137 0.6386 0.2338
H54 H 0.3300 0.7377 0.2206
C57 C 0.4587(6) 0.6745(4) 0.0832(4)
H55 H 0.5334 0.6683 0.0421
H56 H 0.4215 0.7269 0.0679
H57 H 0.4083 0.6275 0.0860
C58 C 0.7232(5) 0.6371(3) 0.2832(3)
C59 C 0.8039(4) 0.5787(3) 0.3054(3)
C60 C 0.7712(5) 0.5307(3) 0.3814(4)
C61 C 0.6643(5) 0.5432(4) 0.4364(4)
H58 H 0.6428 0.5102 0.4886
C62 C 0.5879(5) 0.6038(4) 0.4156(4)
H59 H 0.5158 0.6137 0.4542
C63 C 0.6174(5) 0.6490(4) 0.3393(3)
H60 H 0.5643 0.6892 0.3247
C64 C 0.9944(5) 0.6333(4) 0.2454(4)
H61 H 0.9545 0.6888 0.2428
C65 C 1.0880(6) 0.6292(6) 0.1668(5)
H62 H 1.0538 0.6375 0.1210
H63 H 1.1262 0.5743 0.1683
H64 H 1.1453 0.6729 0.1595
C66 C 1.0410(6) 0.6217(5) 0.3192(5)
H65 H 0.9760 0.6199 0.3694
H66 H 1.0920 0.6685 0.3159
H67 H 1.0851 0.5693 0.3201
O5 O 0.7450(3) 0.3691(2) 0.3159(2)
H68 H 0.7100 0.3533 0.2841
O6 O 0.6199(3) 0.3150(2) 0.1905(2)
O7 O 0.5296(3) 0.5980(2) 0.1936(2)
O8 O 0.9115(3) 0.5681(2) 0.2517(2)
S5 S 0.86712(13) 0.45202(10) 0.40913(10)
S6 S 0.58228(14) 0.22079(9) 0.35992(10)
S7 S 0.48608(13) 0.45141(9) 0.11926(9)
S8 S 0.75474(13) 0.69007(9) 0.18102(9)
loop_
_geom_bond_atom_site_label_1
_geom_bond_atom_site_label_2
_geom_bond_site_symmetry_1
_geom_bond_site_symmetry_2
C1 C2 1_555 1_555
C2 C3 1_555 1_555
C3 C4 1_555 1_555
C4 H1 1_555 1_555
C5 C4 1_555 1_555
H2 C5 1_555 1_555
C6 C1 1_555 1_555
H3 C6 1_555 1_555
C7 C8 1_555 1_555
C8 C9 1_555 1_555
C9 C10 1_555 1_555
C10 H4 1_555 1_555
C11 C10 1_555 1_555
H5 C11 1_555 1_555
C12 C7 1_555 1_555
H6 C12 1_555 1_555
C13 H7 1_555 1_555
C14 C13 1_555 1_555
H8 C14 1_555 1_555
H9 C14 1_555 1_555
H10 C14 1_555 1_555
C15 C13 1_555 1_555
H11 C15 1_555 1_555
H12 C15 1_555 1_555
H13 C15 1_555 1_555
C16 C17 1_555 1_555
C17 C18 1_555 1_555
C18 C19 1_555 1_555
C19 H14 1_555 1_555
C20 C19 1_555 1_555
H15 C20 1_555 1_555
C21 C16 1_555 1_555
H16 C21 1_555 1_555
C22 H17 1_555 1_555
C23 C22 1_555 1_555
H18 C23 1_555 1_555
H19 C23 1_555 1_555
H20 C23 1_555 1_555
C24 C22 1_555 1_555
H21 C24 1_555 1_555
H22 C24 1_555 1_555
H23 C24 1_555 1_555
C25 C26 1_555 1_555
C26 C27 1_555 1_555
C27 C28 1_555 1_555
C28 H24 1_555 1_555
C29 C28 1_555 1_555
H25 C29 1_555 1_555
C30 C25 1_555 1_555
H26 C30 1_555 1_555
C31 H27 1_555 1_555
C32 C31 1_555 1_555
H28 C32 1_555 1_555
H29 C32 1_555 1_555
H30 C32 1_555 1_555
C33 C31 1_555 1_555
H31 C33 1_555 1_555
H32 C33 1_555 1_555
H33 C33 1_555 1_555
O1 C2 1_555 1_555
H34 O1 1_555 1_555
O2 C8 1_555 1_555
O3 C17 1_555 1_555
O4 C26 1_555 1_555
S1 C1 1_555 1_555
S2 C3 1_555 1_555
S3 C9 1_555 1_555
S4 C18 1_555 1_555
C34 C35 1_555 1_555
C35 C36 1_555 1_555
C36 C37 1_555 1_555
C37 H35 1_555 1_555
C38 C37 1_555 1_555
H36 C38 1_555 1_555
C39 C34 1_555 1_555
H37 C39 1_555 1_555
C40 C41 1_555 1_555
C41 C42 1_555 1_555
C42 C43 1_555 1_555
C43 H38 1_555 1_555
C44 C43 1_555 1_555
H39 C44 1_555 1_555
C45 C40 1_555 1_555
H40 C45 1_555 1_555
C46 H41 1_555 1_555
C47 C46 1_555 1_555
H42 C47 1_555 1_555
H43 C47 1_555 1_555
H44 C47 1_555 1_555
C48 C46 1_555 1_555
H45 C48 1_555 1_555
H46 C48 1_555 1_555
H47 C48 1_555 1_555
C49 C50 1_555 1_555
C50 C51 1_555 1_555
C51 C52 1_555 1_555
C52 H48 1_555 1_555
C53 C52 1_555 1_555
H49 C53 1_555 1_555
C54 C49 1_555 1_555
H50 C54 1_555 1_555
C55 H51 1_555 1_555
C56 C55 1_555 1_555
H52 C56 1_555 1_555
H53 C56 1_555 1_555
H54 C56 1_555 1_555
C57 C55 1_555 1_555
H55 C57 1_555 1_555
H56 C57 1_555 1_555
H57 C57 1_555 1_555
C58 C59 1_555 1_555
C59 C60 1_555 1_555
C60 C61 1_555 1_555
C61 H58 1_555 1_555
C62 C61 1_555 1_555
H59 C62 1_555 1_555
C63 C58 1_555 1_555
H60 C63 1_555 1_555
C64 H61 1_555 1_555
C65 C64 1_555 1_555
H62 C65 1_555 1_555
H63 C65 1_555 1_555
H64 C65 1_555 1_555
C66 C64 1_555 1_555
H65 C66 1_555 1_555
H66 C66 1_555 1_555
H67 C66 1_555 1_555
O5 C35 1_555 1_555
H68 O5 1_555 1_555
O6 C41 1_555 1_555
O7 C50 1_555 1_555
O8 C59 1_555 1_555
S5 C34 1_555 1_555
S6 C36 1_555 1_555
S7 C42 1_555 1_555
S8 C51 1_555 1_555
C5 C6 1_555 1_555
C7 S2 1_555 1_555
C11 C12 1_555 1_555
C13 O2 1_555 1_555
C16 S3 1_555 1_555
C20 C21 1_555 1_555
C22 O3 1_555 1_555
C25 S4 1_555 1_555
C27 S1 1_555 1_555
C29 C30 1_555 1_555
C31 O4 1_555 1_555
C38 C39 1_555 1_555
C40 S6 1_555 1_555
C44 C45 1_555 1_555
C46 O6 1_555 1_555
C49 S7 1_555 1_555
C53 C54 1_555 1_555
C55 O7 1_555 1_555
C58 S8 1_555 1_555
C60 S5 1_555 1_555
C62 C63 1_555 1_555
C64 O8 1_555 1_555

#END
