
#######################################################################
#
#                 Cambridge Crystallographic Data Centre
#                                CCDC 
#
#######################################################################
#
# If this CIF has been generated from an entry in the Cambridge 
# Structural Database, then it will include bibliographic, chemical, 
# crystal, experimental, refinement or atomic coordinate data resulting 
# from the CCDC's data processing and validation procedures.
#
#######################################################################

data_MUPTIB
_chemical_formula_moiety         'C44 H36 N6 O2,C1 H4 O1'
_chemical_name_systematic        
"(S,S,S)-N,N'-bis(2,2'-Bipyridin-6-yl(methoxy)methyl)-1,1'-binaphthalene-2,2'-diamine methanol solvate"
_symmetry_cell_setting           orthorhombic
_symmetry_space_group_name_H-M   'C 2 2 21'
_symmetry_Int_Tables_number      20
_space_group_name_Hall           'C 2n 2'
loop_
_symmetry_equiv_pos_site_id
_symmetry_equiv_pos_as_xyz
1 x,y,z
2 1/2+x,1/2+y,z
3 x,-y,-z
4 1/2+x,1/2-y,-z
5 -x,y,1/2-z
6 1/2-x,1/2+y,1/2-z
7 -x,-y,1/2+z
8 1/2-x,1/2-y,1/2+z
_cell_length_a                   9.6675(7)
_cell_length_b                   18.8815(14)
_cell_length_c                   19.8093(15)
_cell_angle_alpha                90
_cell_angle_beta                 90
_cell_angle_gamma                90
_cell_volume                     3615.93
_exptl_crystal_colour            colorless
_exptl_crystal_description       block
_cell_formula_units_Z            4
loop_
_atom_site_label
_atom_site_type_symbol
_atom_site_fract_x
_atom_site_fract_y
_atom_site_fract_z
C1 C 0.7424(5) 0.5393(2) 0.5043(2)
C2 C 0.8445(5) 0.5806(2) 0.4693(2)
C3 C 0.9446(5) 0.5496(2) 0.4255(2)
C4 C 1.0415(5) 0.5906(3) 0.3938(3)
C5 C 1.0427(5) 0.6647(3) 0.4025(3)
C6 C 0.9490(5) 0.6956(3) 0.4444(3)
C7 C 0.8479(5) 0.6555(2) 0.4791(3)
C8 C 0.7539(5) 0.6855(2) 0.5234(3)
C9 C 0.6575(5) 0.6468(2) 0.5571(3)
C10 C 0.6509(5) 0.5719(2) 0.5476(2)
C11 C 0.4591(5) 0.5599(2) 0.6308(3)
C12 C 0.2824(6) 0.5779(3) 0.5466(3)
C13 C 0.3927(5) 0.4993(3) 0.6694(3)
C14 C 0.3018(5) 0.5145(3) 0.7212(3)
C15 C 0.2465(6) 0.4593(3) 0.7574(3)
C16 C 0.2826(5) 0.3904(3) 0.7403(3)
C17 C 0.3761(5) 0.3796(3) 0.6876(3)
C18 C 0.4263(5) 0.3069(2) 0.6688(3)
C19 C 0.5477(5) 0.2978(3) 0.6327(3)
C20 C 0.5997(6) 0.2312(3) 0.6220(3)
C21 C 0.5242(6) 0.1739(3) 0.6465(3)
C22 C 0.4029(6) 0.1869(3) 0.6796(3)
N1 N 0.5537(4) 0.53263(19) 0.5817(2)
N2 N 0.4294(4) 0.4330(2) 0.6521(2)
N3 N 0.3528(5) 0.2518(3) 0.6921(2)
O1 O 0.3562(4) 0.60626(18) 0.6028(2)
H1 H 0.5484 0.4880 0.5722
H2 H 0.9423 0.5010 0.4171
H3 H 1.1088 0.5700 0.3670
H4 H 1.1086 0.6923 0.3804
H5 H 0.9456 0.7443 0.4477
H6 H 0.7545 0.7347 0.5289
H7 H 0.5932 0.6691 0.5850
H8 H 0.5130 0.5880 0.6641
H9 H 0.2205 0.6132 0.5285
H10 H 0.3458 0.5638 0.5120
H11 H 0.2304 0.5370 0.5605
H12 H 0.2770 0.5611 0.7301
H13 H 0.1969 0.4682 0.7966
H14 H 0.2415 0.3520 0.7621
H15 H 0.5947 0.3371 0.6158
H16 H 0.6815 0.2245 0.5969
H17 H 0.5558 0.1275 0.6408
H18 H 0.3478 0.1487 0.6926
C1B C 0.7424(5) 0.4607(2) 0.4957(2)
C2B C 0.8445(5) 0.4194(2) 0.5307(2)
C3B C 0.9446(5) 0.4504(2) 0.5745(2)
C4B C 1.0415(5) 0.4094(3) 0.6062(3)
C5B C 1.0427(5) 0.3353(3) 0.5975(3)
C6B C 0.9490(5) 0.3044(3) 0.5556(3)
C7B C 0.8479(5) 0.3445(2) 0.5209(3)
C8B C 0.7539(5) 0.3145(2) 0.4766(3)
C9B C 0.6575(5) 0.3532(2) 0.4429(3)
C10B C 0.6509(5) 0.4281(2) 0.4524(2)
C11B C 0.4591(5) 0.4401(2) 0.3692(3)
C12B C 0.2824(6) 0.4221(3) 0.4534(3)
C13B C 0.3927(5) 0.5007(3) 0.3306(3)
C14B C 0.3018(5) 0.4855(3) 0.2788(3)
C15B C 0.2465(6) 0.5407(3) 0.2426(3)
C16B C 0.2826(5) 0.6096(3) 0.2597(3)
C17B C 0.3761(5) 0.6204(3) 0.3124(3)
C18B C 0.4263(5) 0.6931(2) 0.3312(3)
C19B C 0.5477(5) 0.7022(3) 0.3673(3)
C20B C 0.5997(6) 0.7688(3) 0.3780(3)
C21B C 0.5242(6) 0.8261(3) 0.3535(3)
C22B C 0.4029(6) 0.8131(3) 0.3204(3)
N1B N 0.5537(4) 0.46737(19) 0.4183(2)
N2B N 0.4294(4) 0.5670(2) 0.3479(2)
N3B N 0.3528(5) 0.7482(3) 0.3079(2)
O1B O 0.3562(4) 0.39374(18) 0.3972(2)
H1B H 0.5484 0.5120 0.4278
H2B H 0.9423 0.4990 0.5829
H3B H 1.1088 0.4300 0.6330
H4B H 1.1086 0.3077 0.6196
H5B H 0.9456 0.2557 0.5523
H6B H 0.7545 0.2653 0.4711
H7B H 0.5932 0.3309 0.4150
H8B H 0.5130 0.4120 0.3359
H9B H 0.2205 0.3868 0.4715
H10B H 0.3458 0.4362 0.4880
H11B H 0.2304 0.4630 0.4395
H12B H 0.2770 0.4389 0.2699
H13B H 0.1969 0.5318 0.2034
H14B H 0.2415 0.6480 0.2379
H15B H 0.5947 0.6629 0.3842
H16B H 0.6815 0.7755 0.4031
H17B H 0.5558 0.8725 0.3592
H18B H 0.3478 0.8513 0.3074
C23? C -0.0253(16) 0.7732(6) 0.250(2)
O2? O 0.0951(8) 0.8122(4) 0.2722(6)
H19? H 0.1585 0.7840 0.2809
H20? H -0.0978 0.8055 0.2403
H21? H -0.0057 0.7455 0.2114
H22? H -0.0529 0.7431 0.2862
loop_
_geom_bond_atom_site_label_1
_geom_bond_atom_site_label_2
_geom_bond_site_symmetry_1
_geom_bond_site_symmetry_2
C1 C2 1_555 1_555
C2 C3 1_555 1_555
C3 C4 1_555 1_555
C4 C5 1_555 1_555
C5 C6 1_555 1_555
C6 C7 1_555 1_555
C7 C2 1_555 1_555
C8 C7 1_555 1_555
C9 C8 1_555 1_555
C10 C1 1_555 1_555
C11 C13 1_555 1_555
C12 O1 1_555 1_555
C13 C14 1_555 1_555
C14 C15 1_555 1_555
C15 C16 1_555 1_555
C16 C17 1_555 1_555
C17 C18 1_555 1_555
C18 C19 1_555 1_555
C19 C20 1_555 1_555
C20 C21 1_555 1_555
C21 C22 1_555 1_555
C22 N3 1_555 1_555
N1 C10 1_555 1_555
N2 C13 1_555 1_555
N3 C18 1_555 1_555
O1 C11 1_555 1_555
H1 N1 1_555 1_555
H2 C3 1_555 1_555
H3 C4 1_555 1_555
H4 C5 1_555 1_555
H5 C6 1_555 1_555
H6 C8 1_555 1_555
H7 C9 1_555 1_555
H8 C11 1_555 1_555
H9 C12 1_555 1_555
H10 C12 1_555 1_555
H11 C12 1_555 1_555
H12 C14 1_555 1_555
H13 C15 1_555 1_555
H14 C16 1_555 1_555
H15 C19 1_555 1_555
H16 C20 1_555 1_555
H17 C21 1_555 1_555
H18 C22 1_555 1_555
C1B C1 1_555 1_555
C2B C1B 1_555 1_555
C3B C2B 1_555 1_555
C4B C3B 1_555 1_555
C5B C4B 1_555 1_555
C6B C5B 1_555 1_555
C7B C2B 1_555 1_555
C8B C7B 1_555 1_555
C9B C8B 1_555 1_555
C10B C1B 1_555 1_555
C11B C13B 1_555 1_555
C12B O1B 1_555 1_555
C13B C14B 1_555 1_555
C14B C15B 1_555 1_555
C15B C16B 1_555 1_555
C16B C17B 1_555 1_555
C17B C18B 1_555 1_555
C18B C19B 1_555 1_555
C19B C20B 1_555 1_555
C20B C21B 1_555 1_555
C21B C22B 1_555 1_555
C22B N3B 1_555 1_555
N1B C10B 1_555 1_555
N2B C13B 1_555 1_555
N3B C18B 1_555 1_555
O1B C11B 1_555 1_555
H1B N1B 1_555 1_555
H2B C3B 1_555 1_555
H3B C4B 1_555 1_555
H4B C5B 1_555 1_555
H5B C6B 1_555 1_555
H6B C8B 1_555 1_555
H7B C9B 1_555 1_555
H8B C11B 1_555 1_555
H9B C12B 1_555 1_555
H10B C12B 1_555 1_555
H11B C12B 1_555 1_555
H12B C14B 1_555 1_555
H13B C15B 1_555 1_555
H14B C16B 1_555 1_555
H15B C19B 1_555 1_555
H16B C20B 1_555 1_555
H17B C21B 1_555 1_555
H18B C22B 1_555 1_555
C9 C10 1_555 1_555
C11 N1 1_555 1_555
C17 N2 1_555 1_555
C6B C7B 1_555 1_555
C9B C10B 1_555 1_555
C11B N1B 1_555 1_555
C17B N2B 1_555 1_555

#END
