
#######################################################################
#
#                 Cambridge Crystallographic Data Centre
#                                CCDC 
#
#######################################################################
#
# If this CIF has been generated from an entry in the Cambridge 
# Structural Database, then it will include bibliographic, chemical, 
# crystal, experimental, refinement or atomic coordinate data resulting 
# from the CCDC's data processing and validation procedures.
#
#######################################################################

data_MUPVOJ
_chemical_formula_moiety         'C25 H50 Li1 N5 Si1'
_chemical_name_systematic        
(N'-(1-(2-((Dimethylamino)methyl)phenyl)-3,3-dimethylbut-1-en-2-yl)-N,N,1,1-tetramethylsilanediaminato)-(N,N,N',N'-tetramethylethane-1,2-diamine)-lithium
_symmetry_cell_setting           monoclinic
_symmetry_space_group_name_H-M   'P 21/n'
_symmetry_Int_Tables_number      14
_space_group_name_Hall           '-P 2yn'
loop_
_symmetry_equiv_pos_site_id
_symmetry_equiv_pos_as_xyz
1 x,y,z
2 1/2-x,1/2+y,1/2-z
3 -x,-y,-z
4 1/2+x,1/2-y,1/2+z
_cell_length_a                   10.813(4)
_cell_length_b                   18.354(6)
_cell_length_c                   14.636(5)
_cell_angle_alpha                90
_cell_angle_beta                 94.600(4)
_cell_angle_gamma                90
_cell_volume                     2895.33
_exptl_crystal_colour            colorless
_exptl_crystal_description       block
_cell_formula_units_Z            4
loop_
_atom_site_label
_atom_site_type_symbol
_atom_site_fract_x
_atom_site_fract_y
_atom_site_fract_z
Li1 Li 0.7398(3) -0.01985(19) 0.7074(2)
N1 N 0.78565(15) 0.08588(9) 0.72189(11)
N2 N 0.89435(16) -0.02095(10) 0.82146(12)
N3 N 0.34996(16) 0.26417(10) 0.70544(12)
N4 N 0.55405(17) -0.05499(10) 0.70188(12)
N5 N 0.76367(18) -0.10575(10) 0.60936(13)
Si1 Si 0.92219(5) 0.06599(3) 0.77553(4)
C1 C 0.3495(2) 0.18431(12) 0.71248(16)
H1 H 0.3813 0.1639 0.6579
H2 H 0.2647 0.1677 0.7147
C2 C 0.42583(19) 0.15630(12) 0.79541(15)
C3 C 0.3674(2) 0.13221(13) 0.87028(17)
H3 H 0.2812 0.1331 0.8679
C4 C 0.4332(2) 0.10698(15) 0.94843(17)
H4 H 0.3919 0.0906 0.9979
C5 C 0.5603(2) 0.10636(13) 0.95230(15)
H5 H 0.6058 0.0905 1.0052
C6 C 0.6207(2) 0.12925(12) 0.87794(14)
H6 H 0.7070 0.1287 0.8821
C7 C 0.55712(18) 0.15312(11) 0.79680(14)
C8 C 0.62023(19) 0.17554(11) 0.71656(14)
H7 H 0.5853 0.2146 0.6832
C9 C 0.72411(18) 0.14588(10) 0.68513(13)
C10 C 0.2953(3) 0.29750(15) 0.7825(2)
H8 H 0.2113 0.2809 0.7844
H9 H 0.2959 0.3495 0.7758
H10 H 0.3424 0.2842 0.8384
C11 C 0.2837(3) 0.28696(15) 0.61974(19)
H11 H 0.1999 0.2693 0.6173
H12 H 0.3243 0.2674 0.5692
H13 H 0.2832 0.3392 0.6163
C12 C 0.7721(2) 0.17876(11) 0.59706(14)
C13 C 0.6816(3) 0.23134(15) 0.54567(17)
H14 H 0.6687 0.2729 0.5836
H15 H 0.6038 0.2071 0.5309
H16 H 0.7153 0.2470 0.4902
C14 C 0.8922(2) 0.22094(15) 0.62338(18)
H17 H 0.9276 0.2371 0.5688
H18 H 0.9500 0.1897 0.6577
H19 H 0.8740 0.2624 0.6601
C15 C 0.7996(2) 0.11725(13) 0.53110(16)
H20 H 0.7238 0.0925 0.5115
H21 H 0.8565 0.0834 0.5617
H22 H 0.8356 0.1372 0.4787
C16 C 0.9791(2) 0.13161(15) 0.86789(18)
H23 H 0.9959 0.1779 0.8409
H24 H 1.0537 0.1130 0.8995
H25 H 0.9167 0.1375 0.9105
C17 C 1.0568(2) 0.04951(15) 0.70456(19)
H26 H 1.0388 0.0087 0.6647
H27 H 1.1299 0.0394 0.7442
H28 H 1.0705 0.0920 0.6685
C18 C 0.8111(2) -0.02612(14) 0.89399(16)
H29 H 0.7852 -0.0758 0.9001
H30 H 0.7397 0.0040 0.8792
H31 H 0.8531 -0.0100 0.9506
C19 C 1.0001(2) -0.06976(15) 0.8436(2)
H32 H 1.0442 -0.0543 0.8998
H33 H 1.0547 -0.0683 0.7951
H34 H 0.9705 -0.1186 0.8505
C20 C 0.5512(2) -0.12589(13) 0.65630(17)
H35 H 0.4669 -0.1364 0.6321
H36 H 0.5762 -0.1633 0.7008
C21 C 0.6354(2) -0.12816(14) 0.57960(17)
H37 H 0.6366 -0.1773 0.5552
H38 H 0.6027 -0.0962 0.5307
C22 C 0.4924(3) -0.06014(16) 0.78694(18)
H39 H 0.4066 -0.0725 0.7730
H40 H 0.4982 -0.0142 0.8183
H41 H 0.5318 -0.0972 0.8254
C23 C 0.4920(3) -0.00033(15) 0.64300(18)
H42 H 0.5352 0.0053 0.5886
H43 H 0.4915 0.0453 0.6750
H44 H 0.4082 -0.0154 0.6264
C24 C 0.8258(3) -0.16397(15) 0.6626(2)
H45 H 0.8229 -0.2079 0.6270
H46 H 0.7849 -0.1717 0.7176
H47 H 0.9107 -0.1506 0.6783
C25 C 0.8299(3) -0.09055(16) 0.5278(2)
H48 H 0.9131 -0.0753 0.5464
H49 H 0.7878 -0.0526 0.4926
H50 H 0.8323 -0.1338 0.4912
loop_
_geom_bond_atom_site_label_1
_geom_bond_atom_site_label_2
_geom_bond_site_symmetry_1
_geom_bond_site_symmetry_2
Li1 N1 1_555 1_555
N1 Si1 1_555 1_555
N2 Li1 1_555 1_555
N3 C1 1_555 1_555
N4 Li1 1_555 1_555
N5 Li1 1_555 1_555
Si1 N2 1_555 1_555
C1 H1 1_555 1_555
H2 C1 1_555 1_555
C2 C1 1_555 1_555
C3 C2 1_555 1_555
H3 C3 1_555 1_555
C4 C3 1_555 1_555
H4 C4 1_555 1_555
C5 C4 1_555 1_555
H5 C5 1_555 1_555
C6 C5 1_555 1_555
H6 C6 1_555 1_555
C7 C2 1_555 1_555
C8 C7 1_555 1_555
H7 C8 1_555 1_555
C9 N1 1_555 1_555
C10 N3 1_555 1_555
H8 C10 1_555 1_555
H9 C10 1_555 1_555
H10 C10 1_555 1_555
C11 N3 1_555 1_555
H11 C11 1_555 1_555
H12 C11 1_555 1_555
H13 C11 1_555 1_555
C12 C9 1_555 1_555
C13 C12 1_555 1_555
H14 C13 1_555 1_555
H15 C13 1_555 1_555
H16 C13 1_555 1_555
C14 C12 1_555 1_555
H17 C14 1_555 1_555
H18 C14 1_555 1_555
H19 C14 1_555 1_555
C15 C12 1_555 1_555
H20 C15 1_555 1_555
H21 C15 1_555 1_555
H22 C15 1_555 1_555
C16 Si1 1_555 1_555
H23 C16 1_555 1_555
H24 C16 1_555 1_555
H25 C16 1_555 1_555
C17 Si1 1_555 1_555
H26 C17 1_555 1_555
H27 C17 1_555 1_555
H28 C17 1_555 1_555
C18 N2 1_555 1_555
H29 C18 1_555 1_555
H30 C18 1_555 1_555
H31 C18 1_555 1_555
C19 N2 1_555 1_555
H32 C19 1_555 1_555
H33 C19 1_555 1_555
H34 C19 1_555 1_555
C20 N4 1_555 1_555
H35 C20 1_555 1_555
H36 C20 1_555 1_555
C21 N5 1_555 1_555
H37 C21 1_555 1_555
H38 C21 1_555 1_555
C22 N4 1_555 1_555
H39 C22 1_555 1_555
H40 C22 1_555 1_555
H41 C22 1_555 1_555
C23 N4 1_555 1_555
H42 C23 1_555 1_555
H43 C23 1_555 1_555
H44 C23 1_555 1_555
C24 N5 1_555 1_555
H45 C24 1_555 1_555
H46 C24 1_555 1_555
H47 C24 1_555 1_555
C25 N5 1_555 1_555
H48 C25 1_555 1_555
H49 C25 1_555 1_555
H50 C25 1_555 1_555
C6 C7 1_555 1_555
C8 C9 1_555 1_555
C20 C21 1_555 1_555

#END
