
#######################################################################
#
#                 Cambridge Crystallographic Data Centre
#                                CCDC 
#
#######################################################################
#
# If this CIF has been generated from an entry in the Cambridge 
# Structural Database, then it will include bibliographic, chemical, 
# crystal, experimental, refinement or atomic coordinate data resulting 
# from the CCDC's data processing and validation procedures.
#
#######################################################################

data_MUPVAU
_chemical_formula_moiety         'C22 H26 N2'
_chemical_name_systematic        
(3R*,4aS*,8aS*)-6,7-diethyl-3-phenyl-3,4,4a,5,8,8a-hexahydro-1H-naphthalene-2,2-dicarbonitrile
_symmetry_cell_setting           orthorhombic
_symmetry_space_group_name_H-M   'P c a b'
_symmetry_Int_Tables_number      61
_space_group_name_Hall           '-P 2bc 2ac'
loop_
_symmetry_equiv_pos_site_id
_symmetry_equiv_pos_as_xyz
1 x,y,z
2 -x,1/2-y,1/2+z
3 1/2+x,-y,1/2-z
4 1/2-x,1/2+y,-z
5 -x,-y,-z
6 x,1/2+y,1/2-z
7 1/2-x,y,1/2+z
8 1/2+x,1/2-y,z
_cell_length_a                   10.8515(5)
_cell_length_b                   23.366(1)
_cell_length_c                   29.639(1)
_cell_angle_alpha                90
_cell_angle_beta                 90
_cell_angle_gamma                90
_cell_volume                     7515.15
_exptl_crystal_colour            colorless
_exptl_crystal_description       prismatic
_chemical_melting_point          '139-140 deg.C'
_cell_formula_units_Z            16
loop_
_atom_site_label
_atom_site_type_symbol
_atom_site_fract_x
_atom_site_fract_y
_atom_site_fract_z
N1 N 0.4938(3) 0.1781(1) 0.5824(1)
N2 N 0.3150(3) 0.3308(1) 0.5584(1)
C1 C 0.5816(3) 0.2855(1) 0.5063(1)
C2 C 0.6176(3) 0.3469(1) 0.4951(1)
C3 C 0.7217(3) 0.3681(1) 0.5252(1)
C4 C 0.7708(4) 0.4264(1) 0.5107(2)
C5 C 0.6959(3) 0.4772(1) 0.5257(1)
C6 C 0.6158(3) 0.4733(1) 0.5600(1)
C7 C 0.5900(4) 0.4177(1) 0.5842(1)
C8 C 0.6803(3) 0.3690(1) 0.5746(1)
C9 C 0.6300(3) 0.3106(1) 0.5890(1)
C10 C 0.5339(3) 0.2835(1) 0.5563(1)
C11 C 0.4939(3) 0.2584(1) 0.4727(1)
C12 C 0.4036(4) 0.2903(2) 0.4515(1)
C13 C 0.3256(4) 0.2645(3) 0.4201(1)
C14 C 0.3389(5) 0.2081(3) 0.4101(2)
C15 C 0.4270(6) 0.1761(2) 0.4314(2)
C16 C 0.5040(4) 0.2012(2) 0.4623(1)
C17 C 0.5109(3) 0.2237(1) 0.5705(1)
C18 C 0.4111(3) 0.3115(1) 0.5581(1)
C19 C 0.7205(4) 0.5318(2) 0.4994(2)
C20 C 0.8456(5) 0.5566(2) 0.5082(2)
C21 C 0.5413(4) 0.5239(2) 0.5779(1)
C22 C 0.6097(6) 0.5543(3) 0.6149(2)
H1 H 0.652(3) 0.263(1) 0.5038(9)
H2 H 0.645(3) 0.349(1) 0.461(1)
H3 H 0.546(2) 0.373(1) 0.4963(8)
H4 H 0.783(3) 0.339(1) 0.5225(9)
H5 H 0.781(3) 0.427(1) 0.477(1)
H6 H 0.845(3) 0.430(1) 0.522(1)
H7 H 0.506(3) 0.406(1) 0.579(1)
H8 H 0.589(3) 0.425(1) 0.618(1)
H9 H 0.754(3) 0.376(1) 0.5951(9)
H10 H 0.692(3) 0.281(1) 0.5888(9)
H11 H 0.591(3) 0.314(1) 0.620(1)
H12 H 0.395(3) 0.331(1) 0.459(1)
H13 H 0.260(4) 0.289(2) 0.405(1)
H14 H 0.294(6) 0.186(3) 0.386(2)
H15 H 0.450(3) 0.136(1) 0.431(1)
H16 H 0.563(3) 0.181(1) 0.4765(9)
H17 H 0.720(3) 0.523(1) 0.469(1)
H18 H 0.659(3) 0.566(1) 0.503(1)
H19 H 0.851(3) 0.589(1) 0.490(1)
H20 H 0.855(5) 0.568(2) 0.544(2)
H21 H 0.924(6) 0.528(2) 0.508(2)
H22 H 0.453(3) 0.511(1) 0.588(1)
H23 H 0.516(3) 0.555(2) 0.553(1)
H24 H 0.701(6) 0.570(2) 0.599(2)
H25 H 0.566(4) 0.583(2) 0.628(2)
H26 H 0.625(6) 0.526(2) 0.646(2)
N3 N 0.7345(3) 0.5755(1) 0.2299(1)
N4 N 0.9324(3) 0.4264(1) 0.2198(1)
C23 C 0.6928(3) 0.4557(1) 0.2975(1)
C24 C 0.6613(3) 0.3930(1) 0.3058(1)
C25 C 0.5466(3) 0.3754(1) 0.2799(1)
C26 C 0.4995(4) 0.3161(2) 0.2915(1)
C27 C 0.5610(3) 0.2671(1) 0.2674(1)
C28 C 0.6337(4) 0.2752(1) 0.2325(1)
C29 C 0.6592(5) 0.3338(2) 0.2128(1)
C30 C 0.5706(4) 0.3807(2) 0.2289(1)
C31 C 0.6112(4) 0.4410(2) 0.2169(1)
C32 C 0.7183(3) 0.4659(1) 0.2463(1)
C33 C 0.7908(3) 0.4796(1) 0.32843(9)
C34 C 0.7759(4) 0.5339(2) 0.3472(1)
C35 C 0.8619(5) 0.5564(2) 0.3759(1)
C36 C 0.9642(5) 0.5253(2) 0.3867(1)
C37 C 0.9823(4) 0.4716(2) 0.3687(1)
C38 C 0.8947(3) 0.4483(2) 0.3394(1)
C39 C 0.7278(3) 0.5280(2) 0.2369(1)
C40 C 0.8395(3) 0.4420(1) 0.2324(1)
C41 C 0.5326(5) 0.2087(2) 0.2876(2)
C42 C 0.6103(5) 0.1955(3) 0.3282(2)
C43 C 0.7213(7) 0.2265(2) 0.2108(2)
C44 C 0.6503(6) 0.2080(3) 0.1735(2)
H27 H 0.629(2) 0.478(1) 0.3027(8)
H28 H 0.647(2) 0.387(1) 0.3368(9)
H29 H 0.735(2) 0.366(1) 0.2948(8)
H30 H 0.488(3) 0.404(1) 0.285(1)
H31 H 0.412(4) 0.316(2) 0.287(1)
H32 H 0.494(3) 0.309(1) 0.324(1)
H33 H 0.648(3) 0.333(1) 0.176(1)
H34 H 0.747(4) 0.348(2) 0.223(1)
H35 H 0.497(3) 0.374(1) 0.210(1)
H36 H 0.639(3) 0.445(1) 0.186(1)
H37 H 0.539(3) 0.466(1) 0.222(1)
H38 H 0.704(4) 0.557(2) 0.337(1)
H39 H 0.847(3) 0.597(2) 0.387(1)
H40 H 1.033(3) 0.541(1) 0.407(1)
H41 H 1.058(3) 0.448(1) 0.373(1)
H42 H 0.913(3) 0.411(1) 0.326(1)
H43 H 0.548(4) 0.180(2) 0.268(1)
H44 H 0.441(4) 0.206(1) 0.297(1)
H45 H 0.597(3) 0.227(2) 0.347(1)
H46 H 0.598(5) 0.160(2) 0.338(2)
H47 H 0.699(6) 0.200(2) 0.310(2)
H48 H 0.740(3) 0.192(2) 0.238(1)
H49 H 0.799(2) 0.2266(9) 0.1895(8)
H50 H 0.6230 0.2393 0.1483
H51 H 0.7184 0.1792 0.1589
H52 H 0.5770 0.1909 0.1825
loop_
_geom_bond_atom_site_label_1
_geom_bond_atom_site_label_2
_geom_bond_site_symmetry_1
_geom_bond_site_symmetry_2
N1 C17 1_555 1_555
N2 C18 1_555 1_555
N3 C39 1_555 1_555
N4 C40 1_555 1_555
C1 C2 1_555 1_555
C2 C3 1_555 1_555
C3 C4 1_555 1_555
C4 C5 1_555 1_555
C5 C6 1_555 1_555
C6 C7 1_555 1_555
C7 C8 1_555 1_555
C8 C3 1_555 1_555
C9 C8 1_555 1_555
C10 C1 1_555 1_555
C11 C1 1_555 1_555
C12 C11 1_555 1_555
C13 C12 1_555 1_555
C14 C13 1_555 1_555
C15 C14 1_555 1_555
C16 C11 1_555 1_555
C17 C10 1_555 1_555
C18 C10 1_555 1_555
C19 C5 1_555 1_555
C20 C19 1_555 1_555
C21 C6 1_555 1_555
C22 C21 1_555 1_555
C23 C24 1_555 1_555
C24 C25 1_555 1_555
C25 C26 1_555 1_555
C26 C27 1_555 1_555
C27 C28 1_555 1_555
C28 C29 1_555 1_555
C29 C30 1_555 1_555
C30 C25 1_555 1_555
C31 C30 1_555 1_555
C32 C23 1_555 1_555
C33 C23 1_555 1_555
C34 C33 1_555 1_555
C35 C34 1_555 1_555
C36 C35 1_555 1_555
C37 C36 1_555 1_555
C38 C33 1_555 1_555
C39 C32 1_555 1_555
C40 C32 1_555 1_555
C41 C27 1_555 1_555
C42 C41 1_555 1_555
C43 C28 1_555 1_555
C44 C43 1_555 1_555
H1 C1 1_555 1_555
H2 C2 1_555 1_555
H3 C2 1_555 1_555
H4 C3 1_555 1_555
H5 C4 1_555 1_555
H6 C4 1_555 1_555
H7 C7 1_555 1_555
H8 C7 1_555 1_555
H9 C8 1_555 1_555
H10 C9 1_555 1_555
H11 C9 1_555 1_555
H12 C12 1_555 1_555
H13 C13 1_555 1_555
H14 C14 1_555 1_555
H15 C15 1_555 1_555
H16 C16 1_555 1_555
H17 C19 1_555 1_555
H18 C19 1_555 1_555
H19 C20 1_555 1_555
H20 C20 1_555 1_555
H21 C20 1_555 1_555
H22 C21 1_555 1_555
H23 C21 1_555 1_555
H24 C22 1_555 1_555
H25 C22 1_555 1_555
H26 C22 1_555 1_555
H27 C23 1_555 1_555
H28 C24 1_555 1_555
H29 C24 1_555 1_555
H30 C25 1_555 1_555
H31 C26 1_555 1_555
H32 C26 1_555 1_555
H33 C29 1_555 1_555
H34 C29 1_555 1_555
H35 C30 1_555 1_555
H36 C31 1_555 1_555
H37 C31 1_555 1_555
H38 C34 1_555 1_555
H39 C35 1_555 1_555
H40 C36 1_555 1_555
H41 C37 1_555 1_555
H42 C38 1_555 1_555
H43 C41 1_555 1_555
H44 C41 1_555 1_555
H45 C42 1_555 1_555
H46 C42 1_555 1_555
H47 C42 1_555 1_555
H48 C43 1_555 1_555
H49 C43 1_555 1_555
H50 C44 1_555 1_555
H51 C44 1_555 1_555
H52 C44 1_555 1_555
C9 C10 1_555 1_555
C15 C16 1_555 1_555
C31 C32 1_555 1_555
C37 C38 1_555 1_555

#END
