
#######################################################################
#
#                 Cambridge Crystallographic Data Centre
#                                CCDC 
#
#######################################################################
#
# If this CIF has been generated from an entry in the Cambridge 
# Structural Database, then it will include bibliographic, chemical, 
# crystal, experimental, refinement or atomic coordinate data resulting 
# from the CCDC's data processing and validation procedures.
#
#######################################################################

data_MUPXIF
_chemical_formula_moiety         'C18 H8 N2'
_chemical_name_systematic        1,8-bis(4-Pyridyl)-1,3,5,7-octatetrayne
_symmetry_cell_setting           monoclinic
_symmetry_space_group_name_H-M   'P 21/n'
_symmetry_Int_Tables_number      14
_space_group_name_Hall           '-P 2yn'
loop_
_symmetry_equiv_pos_site_id
_symmetry_equiv_pos_as_xyz
1 x,y,z
2 1/2-x,1/2+y,1/2-z
3 -x,-y,-z
4 1/2+x,1/2-y,1/2+z
_cell_length_a                   3.7690(5)
_cell_length_b                   18.064(2)
_cell_length_c                   9.6698(13)
_cell_angle_alpha                90
_cell_angle_beta                 99.88(1)
_cell_angle_gamma                90
_cell_volume                     648.587
_exptl_crystal_colour            'light yellow'
_exptl_crystal_description       plate
_cell_formula_units_Z            2
_exptl_crystal_recrystallization_method chloroform
loop_
_atom_site_label
_atom_site_type_symbol
_atom_site_fract_x
_atom_site_fract_y
_atom_site_fract_z
N1 N 0.1227(3) 0.20668(6) 0.77340(11)
C1 C 0.2280(4) 0.24606(7) 0.67020(13)
H1 H 0.268(4) 0.2983(9) 0.6864(15)
C2 C 0.2836(3) 0.21641(7) 0.54345(12)
H2 H 0.353(4) 0.2463(8) 0.4723(14)
C3 C 0.2297(3) 0.14072(7) 0.52212(12)
C4 C 0.1202(3) 0.09862(7) 0.62853(12)
H3 H 0.078(4) 0.0451(8) 0.6166(13)
C5 C 0.0712(4) 0.13437(8) 0.75043(13)
H4 H -0.005(4) 0.1059(8) 0.8255(15)
C6 C 0.2895(3) 0.10669(7) 0.39421(12)
C7 C 0.3427(3) 0.07828(6) 0.28662(12)
C8 C 0.4063(3) 0.04630(7) 0.16562(12)
C9 C 0.4662(3) 0.01682(7) 0.05925(12)
N1B N 0.8773(3) -0.20668(6) -0.77340(11)
C1B C 0.7720(4) -0.24606(7) -0.67020(13)
H1B H 0.732(4) -0.2983(9) -0.6864(15)
C2B C 0.7164(3) -0.21641(7) -0.54345(12)
H2B H 0.647(4) -0.2463(8) -0.4723(14)
C3B C 0.7703(3) -0.14072(7) -0.52212(12)
C4B C 0.8798(3) -0.09862(7) -0.62853(12)
H3B H 0.922(4) -0.0451(8) -0.6166(13)
C5B C 0.9288(4) -0.13437(8) -0.75043(13)
H4B H 1.005(4) -0.1059(8) -0.8255(15)
C6B C 0.7105(3) -0.10669(7) -0.39421(12)
C7B C 0.6573(3) -0.07828(6) -0.28662(12)
C8B C 0.5937(3) -0.04630(7) -0.16562(12)
C9B C 0.5338(3) -0.01682(7) -0.05925(12)
loop_
_geom_bond_atom_site_label_1
_geom_bond_atom_site_label_2
_geom_bond_site_symmetry_1
_geom_bond_site_symmetry_2
N1 C1 1_555 1_555
C1 H1 1_555 1_555
C2 C1 1_555 1_555
H2 C2 1_555 1_555
C3 C2 1_555 1_555
C4 C3 1_555 1_555
H3 C4 1_555 1_555
C5 N1 1_555 1_555
H4 C5 1_555 1_555
C6 C3 1_555 1_555
C7 C6 1_555 1_555
C8 C7 1_555 1_555
C9 C8 1_555 1_555
N1B C1B 1_555 1_555
C1B H1B 1_555 1_555
C2B C1B 1_555 1_555
H2B C2B 1_555 1_555
C3B C2B 1_555 1_555
C4B C3B 1_555 1_555
H3B C4B 1_555 1_555
C5B N1B 1_555 1_555
H4B C5B 1_555 1_555
C6B C3B 1_555 1_555
C7B C6B 1_555 1_555
C8B C7B 1_555 1_555
C9B C9 1_555 1_555
C4 C5 1_555 1_555
C4B C5B 1_555 1_555
C8B C9B 1_555 1_555

#END
