
#######################################################################
#
#                 Cambridge Crystallographic Data Centre
#                                CCDC 
#
#######################################################################
#
# If this CIF has been generated from an entry in the Cambridge 
# Structural Database, then it will include bibliographic, chemical, 
# crystal, experimental, refinement or atomic coordinate data resulting 
# from the CCDC's data processing and validation procedures.
#
#######################################################################

data_MUQBUX
_chemical_formula_moiety         'C16 H18 F3 N3 S1'
_chemical_name_systematic        
4-(Piperidin-1-yl)-2-(trifluoromethyl)-5,6,7,8-tetrahydrobenzothieno[2,3-d]pyrimidine
_symmetry_cell_setting           orthorhombic
_symmetry_space_group_name_H-M   'P b c a'
_symmetry_Int_Tables_number      61
_space_group_name_Hall           '-P 2ac 2ab'
loop_
_symmetry_equiv_pos_site_id
_symmetry_equiv_pos_as_xyz
1 x,y,z
2 1/2-x,-y,1/2+z
3 -x,1/2+y,1/2-z
4 1/2+x,1/2-y,-z
5 -x,-y,-z
6 1/2+x,y,1/2-z
7 x,1/2-y,1/2+z
8 1/2-x,1/2+y,z
_cell_length_a                   18.225(4)
_cell_length_b                   8.717(2)
_cell_length_c                   20.201(5)
_cell_angle_alpha                90
_cell_angle_beta                 90
_cell_angle_gamma                90
_cell_volume                     3209.28
_exptl_crystal_colour            colorless
_exptl_crystal_description       block
_cell_formula_units_Z            8
loop_
_atom_site_label
_atom_site_type_symbol
_atom_site_fract_x
_atom_site_fract_y
_atom_site_fract_z
C1 C 1.14177(11) 0.1750(3) 0.08898(12)
C2 C 1.20146(13) 0.1761(4) 0.13984(15)
H1 H 1.2439 0.2299 0.1225
H2 H 1.2160 0.0715 0.1498
C3 C 1.17557(15) 0.2538(4) 0.20232(15)
H3 H 1.1470 0.1816 0.2282
H4 H 1.2179 0.2836 0.2285
C4 C 1.12949(13) 0.3940(3) 0.18841(14)
H5 H 1.1576 0.4661 0.1620
H6 H 1.1168 0.4437 0.2298
C5 C 1.06008(11) 0.3508(3) 0.15179(10)
H7 H 1.0270 0.2980 0.1817
H8 H 1.0358 0.4431 0.1364
C6 C 1.07670(10) 0.2489(2) 0.09373(10)
C7 C 1.03333(9) 0.2285(2) 0.03456(9)
C8 C 1.07043(10) 0.1432(2) -0.01352(11)
C9 C 0.98596(12) 0.1903(3) -0.08889(10)
C10 C 0.96371(9) 0.2835(2) 0.01434(9)
C11 C 0.95992(17) 0.1790(3) -0.15995(11)
C12 C 0.89251(10) 0.2600(2) 0.11434(9)
H9 H 0.9346 0.2063 0.1325
H10 H 0.8572 0.1839 0.0997
C13 C 0.85831(11) 0.3590(3) 0.16753(10)
H11 H 0.8950 0.4285 0.1852
H12 H 0.8411 0.2945 0.2034
C14 C 0.79462(11) 0.4509(3) 0.13982(11)
H13 H 0.7551 0.3821 0.1275
H14 H 0.7763 0.5208 0.1733
C15 C 0.81952(11) 0.5404(3) 0.07990(11)
H15 H 0.8550 0.6173 0.0935
H16 H 0.7778 0.5931 0.0606
C16 C 0.85385(10) 0.4369(3) 0.02840(10)
H17 H 0.8176 0.3646 0.0122
H18 H 0.8708 0.4978 -0.0088
F1 F 0.98783(12) 0.29112(19) -0.19601(7)
F2 F 0.98046(10) 0.05060(18) -0.18877(7)
F3 F 0.88817(11) 0.1874(3) -0.16548(7)
N1 N 1.04767(10) 0.1188(2) -0.07578(9)
N2 N 0.94326(9) 0.2711(2) -0.04892(8)
N3 N 0.91581(8) 0.35340(18) 0.05754(7)
S1 S 1.15408(3) 0.07956(8) 0.01447(4)
loop_
_geom_bond_atom_site_label_1
_geom_bond_atom_site_label_2
_geom_bond_site_symmetry_1
_geom_bond_site_symmetry_2
C1 C2 1_555 1_555
C2 H1 1_555 1_555
H2 C2 1_555 1_555
C3 C2 1_555 1_555
H3 C3 1_555 1_555
H4 C3 1_555 1_555
C4 C3 1_555 1_555
H5 C4 1_555 1_555
H6 C4 1_555 1_555
C5 C4 1_555 1_555
H7 C5 1_555 1_555
H8 C5 1_555 1_555
C6 C1 1_555 1_555
C7 C6 1_555 1_555
C8 C7 1_555 1_555
C9 C11 1_555 1_555
C10 C7 1_555 1_555
C11 F1 1_555 1_555
C12 H9 1_555 1_555
H10 C12 1_555 1_555
C13 C12 1_555 1_555
H11 C13 1_555 1_555
H12 C13 1_555 1_555
C14 C13 1_555 1_555
H13 C14 1_555 1_555
H14 C14 1_555 1_555
C15 C14 1_555 1_555
H15 C15 1_555 1_555
H16 C15 1_555 1_555
C16 C15 1_555 1_555
H17 C16 1_555 1_555
H18 C16 1_555 1_555
F2 C11 1_555 1_555
F3 C11 1_555 1_555
N1 C8 1_555 1_555
N2 C9 1_555 1_555
N3 C10 1_555 1_555
S1 C1 1_555 1_555
C5 C6 1_555 1_555
C8 S1 1_555 1_555
C9 N1 1_555 1_555
C10 N2 1_555 1_555
C12 N3 1_555 1_555
C16 N3 1_555 1_555

#END
