
#######################################################################
#
#                 Cambridge Crystallographic Data Centre
#                                CCDC 
#
#######################################################################
#
# If this CIF has been generated from an entry in the Cambridge 
# Structural Database, then it will include bibliographic, chemical, 
# crystal, experimental, refinement or atomic coordinate data resulting 
# from the CCDC's data processing and validation procedures.
#
#######################################################################

data_MUQBEH
_chemical_formula_moiety         'C21 H25 Cl1 F1 N1 O10'
_chemical_name_systematic        
'Tetraethyl 2-(5-chloro-2-nitrophenyl)-1-fluoropropane-1,1,3,3-tetracarboxylate'
_symmetry_cell_setting           monoclinic
_symmetry_space_group_name_H-M   'P 21/c'
_symmetry_Int_Tables_number      14
_space_group_name_Hall           '-P 2ybc'
loop_
_symmetry_equiv_pos_site_id
_symmetry_equiv_pos_as_xyz
1 x,y,z
2 -x,1/2+y,1/2-z
3 -x,-y,-z
4 x,1/2-y,1/2+z
_cell_length_a                   25.4199(12)
_cell_length_b                   9.5099(3)
_cell_length_c                   21.6317(11)
_cell_angle_alpha                90
_cell_angle_beta                 114.838(6)
_cell_angle_gamma                90
_cell_volume                     4745.55
_exptl_crystal_colour            colorless
_exptl_crystal_description       prism
_cell_formula_units_Z            8
loop_
_atom_site_label
_atom_site_type_symbol
_atom_site_fract_x
_atom_site_fract_y
_atom_site_fract_z
Cl1 Cl 0.92794(4) 0.41542(10) 0.41235(5)
F1 F 0.98117(9) 0.7449(2) 0.60940(11)
O1 O 0.77970(10) 0.5597(3) 0.53386(13)
O2 O 0.84696(11) 0.3881(3) 0.57103(14)
O3 O 0.83978(11) 0.7655(3) 0.67552(13)
O4 O 0.88054(11) 0.5571(3) 0.71871(13)
O5 O 0.97584(12) 0.8120(3) 0.72572(13)
O6 O 0.91925(11) 0.9975(3) 0.67235(12)
O7 O 0.89448(11) 1.0126(3) 0.51751(13)
O8 O 0.99075(10) 1.0102(3) 0.58403(13)
O9 O 0.76723(11) 0.8867(3) 0.48549(13)
O10 O 0.77022(11) 0.9697(3) 0.39400(14)
N1 N 0.78381(12) 0.8835(3) 0.43979(16)
C1 C 0.93586(14) 0.8316(4) 0.60323(18)
C2 C 0.87771(15) 0.7513(4) 0.56956(17)
H1 H 0.8460 0.8157 0.5679
C3 C 0.87711(15) 0.6186(4) 0.61162(17)
H2 H 0.9152 0.5688 0.6280
C4 C 0.82834(15) 0.5207(4) 0.56739(18)
C5 C 0.80336(18) 0.2857(4) 0.5285(2)
H3 H 0.7665 0.3022 0.5327
H4 H 0.8168 0.1894 0.5451
C6 C 0.7928(2) 0.2968(5) 0.4552(2)
H5 H 0.8294 0.2825 0.4510
H6 H 0.7774 0.3902 0.4379
H7 H 0.7648 0.2248 0.4287
C7 C 0.86376(14) 0.6587(4) 0.67203(18)
C8 C 0.8600(3) 1.1230(6) 0.7140(3)
H8 H 0.8542 1.1497 0.7545
H9 H 0.8283 1.0611 0.6852
H10 H 0.8603 1.2077 0.6883
C9 C 0.87111(17) 0.5844(4) 0.77983(18)
H11 H 0.8340 0.6350 0.7675
H12 H 0.9028 0.6436 0.8120
C10 C 0.86958(19) 0.4466(4) 0.8124(2)
H13 H 0.8664 0.4634 0.8554
H14 H 0.9053 0.3943 0.8214
H15 H 0.8361 0.3919 0.7818
C11 C 0.86540(14) 0.7092(4) 0.49668(17)
C12 C 0.82163(14) 0.7664(4) 0.43785(18)
C13 C 0.81079(15) 0.7193(4) 0.37324(18)
H16 H 0.7812 0.7622 0.3346
C14 C 0.84292(16) 0.6099(4) 0.36451(18)
H17 H 0.8348 0.5746 0.3203
C15 C 0.88696(15) 0.5534(4) 0.42144(19)
C16 C 0.89855(15) 0.6020(4) 0.48626(19)
H18 H 0.9296 0.5617 0.5244
C17 C 0.93675(15) 0.9618(4) 0.56198(18)
C18 C 0.99765(17) 1.1451(4) 0.5558(2)
H19 H 0.9717 1.1485 0.5065
H20 H 1.0381 1.1549 0.5610
C19 C 0.98332(17) 1.2641(4) 0.5918(2)
H21 H 1.0050 1.2526 0.6411
H22 H 0.9417 1.2635 0.5801
H23 H 0.9939 1.3536 0.5777
C20 C 0.94701(15) 0.8786(4) 0.67566(19)
C21 C 0.9165(2) 1.0476(4) 0.7353(2)
H24 H 0.9492 1.1120 0.7602
H25 H 0.9185 0.9674 0.7654
Cl2 Cl 0.57188(4) 1.09194(10) 0.48716(5)
F2 F 0.51781(9) 0.7726(2) 0.63259(11)
O11 O 0.71962(11) 0.9633(3) 0.76226(15)
O12 O 0.64850(12) 1.1251(3) 0.72565(14)
O13 O 0.66143(11) 0.7345(3) 0.83792(13)
O14 O 0.62918(11) 0.9481(3) 0.85065(12)
O15 O 0.52325(11) 0.7033(3) 0.75403(14)
O16 O 0.57712(11) 0.5139(2) 0.75476(12)
O17 O 0.60436(11) 0.5038(3) 0.62559(13)
O18 O 0.50788(10) 0.5079(3) 0.59600(13)
O19 O 0.73020(11) 0.6291(3) 0.72493(13)
O20 O 0.73259(11) 0.5475(3) 0.63282(14)
N2 N 0.71646(12) 0.6331(3) 0.66317(16)
C22 C 0.56328(14) 0.6846(4) 0.67128(17)
C23 C 0.62143(15) 0.7630(4) 0.69619(18)
H26 H 0.6525 0.6965 0.7251
C24 C 0.62286(15) 0.8920(4) 0.74125(17)
H27 H 0.5841 0.9392 0.7228
C25 C 0.66961(16) 0.9964(4) 0.74433(18)
C26 C 0.69066(19) 1.2316(4) 0.7259(2)
H28 H 0.7278 1.2176 0.7663
H29 H 0.6760 1.3266 0.7290
C27 C 0.7006(2) 1.2214(4) 0.6626(2)
H30 H 0.7181 1.1301 0.6614
H31 H 0.7268 1.2969 0.6623
H32 H 0.6636 1.2305 0.6225
C28 C 0.63988(15) 0.8461(4) 0.81502(18)
C29 C 0.6228(2) 0.3531(5) 0.8448(2)
H33 H 0.6264 0.3207 0.8894
H34 H 0.6599 0.3926 0.8494
H35 H 0.6123 0.2737 0.8130
C30 C 0.64583(17) 0.9143(4) 0.92255(18)
H36 H 0.6865 0.8814 0.9439
H37 H 0.6207 0.8388 0.9266
C31 C 0.63923(17) 1.0445(4) 0.95724(19)
H38 H 0.6482 1.0234 1.0050
H39 H 0.5993 1.0788 0.9344
H40 H 0.6659 1.1169 0.9552
C32 C 0.63490(14) 0.8069(4) 0.63650(17)
C33 C 0.67947(14) 0.7496(4) 0.62248(17)
C34 C 0.69174(15) 0.7942(4) 0.56907(18)
H41 H 0.7221 0.7514 0.5611
C35 C 0.65920(15) 0.9022(4) 0.52719(19)
H42 H 0.6678 0.9370 0.4913
C36 C 0.61418(15) 0.9578(4) 0.53907(18)
C37 C 0.60196(15) 0.9119(4) 0.59253(18)
H43 H 0.5706 0.9529 0.5992
C38 C 0.56220(15) 0.5554(4) 0.62813(18)
C39 C 0.50023(17) 0.3742(4) 0.55966(19)
H44 H 0.5280 0.3686 0.5386
H45 H 0.4605 0.3691 0.5229
C40 C 0.51002(17) 0.2532(4) 0.6077(2)
H46 H 0.5504 0.2535 0.6416
H47 H 0.5018 0.1647 0.5821
H48 H 0.4842 0.2623 0.6308
C41 C 0.55106(15) 0.6361(4) 0.73169(18)
C42 C 0.57701(17) 0.4630(4) 0.81845(19)
H49 H 0.5387 0.4228 0.8102
H50 H 0.5856 0.5409 0.8516
loop_
_geom_bond_atom_site_label_1
_geom_bond_atom_site_label_2
_geom_bond_site_symmetry_1
_geom_bond_site_symmetry_2
Cl1 C15 1_555 1_555
F1 C1 1_555 1_555
O1 C4 1_555 1_555
O2 C4 1_555 1_555
O3 C7 1_555 1_555
O4 C7 1_555 1_555
O5 C20 1_555 1_555
O6 C20 1_555 1_555
O7 C17 1_555 1_555
O8 C17 1_555 1_555
O9 N1 1_555 1_555
O10 N1 1_555 1_555
N1 C12 1_555 1_555
C1 C2 1_555 1_555
C2 H1 1_555 1_555
C3 C2 1_555 1_555
H2 C3 1_555 1_555
C4 C3 1_555 1_555
C5 O2 1_555 1_555
H3 C5 1_555 1_555
H4 C5 1_555 1_555
C6 C5 1_555 1_555
H5 C6 1_555 1_555
H6 C6 1_555 1_555
H7 C6 1_555 1_555
C7 C3 1_555 1_555
C8 H8 1_555 1_555
H9 C8 1_555 1_555
H10 C8 1_555 1_555
C9 O4 1_555 1_555
H11 C9 1_555 1_555
H12 C9 1_555 1_555
C10 C9 1_555 1_555
H13 C10 1_555 1_555
H14 C10 1_555 1_555
H15 C10 1_555 1_555
C11 C2 1_555 1_555
C12 C11 1_555 1_555
C13 C12 1_555 1_555
H16 C13 1_555 1_555
C14 C13 1_555 1_555
H17 C14 1_555 1_555
C15 C14 1_555 1_555
C16 C11 1_555 1_555
H18 C16 1_555 1_555
C17 C1 1_555 1_555
C18 O8 1_555 1_555
H19 C18 1_555 1_555
H20 C18 1_555 1_555
C19 C18 1_555 1_555
H21 C19 1_555 1_555
H22 C19 1_555 1_555
H23 C19 1_555 1_555
C20 C1 1_555 1_555
C21 O6 1_555 1_555
H24 C21 1_555 1_555
H25 C21 1_555 1_555
Cl2 C36 1_555 1_555
F2 C22 1_555 1_555
O11 C25 1_555 1_555
O12 C25 1_555 1_555
O13 C28 1_555 1_555
O14 C28 1_555 1_555
O15 C41 1_555 1_555
O16 C41 1_555 1_555
O17 C38 1_555 1_555
O18 C38 1_555 1_555
O19 N2 1_555 1_555
O20 N2 1_555 1_555
N2 C33 1_555 1_555
C22 C23 1_555 1_555
C23 H26 1_555 1_555
C24 C23 1_555 1_555
H27 C24 1_555 1_555
C25 C24 1_555 1_555
C26 O12 1_555 1_555
H28 C26 1_555 1_555
H29 C26 1_555 1_555
C27 C26 1_555 1_555
H30 C27 1_555 1_555
H31 C27 1_555 1_555
H32 C27 1_555 1_555
C28 C24 1_555 1_555
C29 H33 1_555 1_555
H34 C29 1_555 1_555
H35 C29 1_555 1_555
C30 O14 1_555 1_555
H36 C30 1_555 1_555
H37 C30 1_555 1_555
C31 C30 1_555 1_555
H38 C31 1_555 1_555
H39 C31 1_555 1_555
H40 C31 1_555 1_555
C32 C23 1_555 1_555
C33 C32 1_555 1_555
C34 C33 1_555 1_555
H41 C34 1_555 1_555
C35 C34 1_555 1_555
H42 C35 1_555 1_555
C36 C35 1_555 1_555
C37 C32 1_555 1_555
H43 C37 1_555 1_555
C38 C22 1_555 1_555
C39 O18 1_555 1_555
H44 C39 1_555 1_555
H45 C39 1_555 1_555
C40 C39 1_555 1_555
H46 C40 1_555 1_555
H47 C40 1_555 1_555
H48 C40 1_555 1_555
C41 C22 1_555 1_555
C42 O16 1_555 1_555
H49 C42 1_555 1_555
H50 C42 1_555 1_555
C8 C21 1_555 1_555
C15 C16 1_555 1_555
C29 C42 1_555 1_555
C36 C37 1_555 1_555

#END
