
#######################################################################
#
#                 Cambridge Crystallographic Data Centre
#                                CCDC 
#
#######################################################################
#
# If this CIF has been generated from an entry in the Cambridge 
# Structural Database, then it will include bibliographic, chemical, 
# crystal, experimental, refinement or atomic coordinate data resulting 
# from the CCDC's data processing and validation procedures.
#
#######################################################################

data_MUQBIL
_chemical_formula_moiety         'C12 H12 F1 N1 O3'
_chemical_name_systematic        
'Ethyl 3-fluoro-2-oxo-1,2,3,4-tetrahydroquinoline-3-carboxylate'
_symmetry_cell_setting           monoclinic
_symmetry_space_group_name_H-M   'P 21/c'
_symmetry_Int_Tables_number      14
_space_group_name_Hall           '-P 2ybc'
loop_
_symmetry_equiv_pos_site_id
_symmetry_equiv_pos_as_xyz
1 x,y,z
2 -x,1/2+y,1/2-z
3 -x,-y,-z
4 x,1/2-y,1/2+z
_cell_length_a                   10.5275(12)
_cell_length_b                   6.6687(8)
_cell_length_c                   15.6871(18)
_cell_angle_alpha                90
_cell_angle_beta                 102.677(2)
_cell_angle_gamma                90
_cell_volume                     1074.46
_exptl_crystal_colour            colorless
_exptl_crystal_description       plate
_cell_formula_units_Z            4
loop_
_atom_site_label
_atom_site_type_symbol
_atom_site_fract_x
_atom_site_fract_y
_atom_site_fract_z
F1 F 0.74007(14) 0.3076(2) 0.35840(8)
O1 O 0.61346(16) 0.0258(2) 0.42712(10)
O2 O 0.89118(15) 0.2069(2) 0.57405(10)
O3 O 0.97796(17) 0.2870(3) 0.45942(11)
N1 N 0.60168(19) 0.2248(3) 0.54195(12)
C1 C 0.6340(2) 0.4003(3) 0.59230(14)
C2 C 0.6080(2) 0.4110(3) 0.67541(15)
C3 C 0.6339(2) 0.5881(4) 0.72287(16)
C4 C 0.6857(2) 0.7513(4) 0.68787(16)
C5 C 0.7155(2) 0.7369(3) 0.60597(15)
C6 C 0.6894(2) 0.5618(3) 0.55719(14)
C7 C 0.7163(2) 0.5410(3) 0.46718(15)
C8 C 0.7473(2) 0.3239(3) 0.44753(14)
C9 C 0.6470(2) 0.1771(3) 0.47102(15)
C10 C 0.8871(2) 0.2691(3) 0.49283(15)
C11 C 1.0188(2) 0.1746(4) 0.63081(16)
C12 C 0.9975(3) 0.0486(4) 0.70598(18)
H1 H 0.541(3) 0.140(4) 0.5559(16)
H2 H 0.572(3) 0.298(4) 0.7008(17)
H3 H 0.617(3) 0.587(4) 0.779(2)
H4 H 0.706(2) 0.881(4) 0.7196(16)
H5 H 0.754(2) 0.845(4) 0.5830(15)
H6 H 0.789(2) 0.627(3) 0.4627(14)
H7 H 0.638(3) 0.577(4) 0.4231(17)
H8 H 1.058(2) 0.316(3) 0.6494(14)
H9 H 1.073(3) 0.109(4) 0.6001(17)
H10 H 1.080(3) 0.031(4) 0.7412(17)
H11 H 0.961(2) -0.081(4) 0.6836(15)
H12 H 0.937(3) 0.107(4) 0.7353(19)
loop_
_geom_bond_atom_site_label_1
_geom_bond_atom_site_label_2
_geom_bond_site_symmetry_1
_geom_bond_site_symmetry_2
F1 C8 1_555 1_555
O1 C9 1_555 1_555
O2 C10 1_555 1_555
O3 C10 1_555 1_555
N1 C1 1_555 1_555
C1 C2 1_555 1_555
C2 C3 1_555 1_555
C3 C4 1_555 1_555
C4 C5 1_555 1_555
C5 C6 1_555 1_555
C6 C1 1_555 1_555
C7 C6 1_555 1_555
C8 C7 1_555 1_555
C9 N1 1_555 1_555
C10 C8 1_555 1_555
C11 O2 1_555 1_555
C12 C11 1_555 1_555
H1 N1 1_555 1_555
H2 C2 1_555 1_555
H3 C3 1_555 1_555
H4 C4 1_555 1_555
H5 C5 1_555 1_555
H6 C7 1_555 1_555
H7 C7 1_555 1_555
H8 C11 1_555 1_555
H9 C11 1_555 1_555
H10 C12 1_555 1_555
H11 C12 1_555 1_555
H12 C12 1_555 1_555
C8 C9 1_555 1_555

#END
