
#######################################################################
#
#                 Cambridge Crystallographic Data Centre
#                                CCDC 
#
#######################################################################
#
# If this CIF has been generated from an entry in the Cambridge 
# Structural Database, then it will include bibliographic, chemical, 
# crystal, experimental, refinement or atomic coordinate data resulting 
# from the CCDC's data processing and validation procedures.
#
#######################################################################

data_MUQDEH
_chemical_formula_moiety         'C12 H18 N2 2+,2(Cl1 1-)'
_chemical_name_systematic        
'N-(3-Pyridinomethyl)-7-azoniabicyclo(2.2.1)heptane dichloride'
_chemical_properties_biological  
'potent in vitro inhibition of ($3!H)-cytisine binding in rat brain tissue; in vivo analgesic agonist activity'
_symmetry_cell_setting           monoclinic
_symmetry_space_group_name_H-M   'P 21/c'
_symmetry_Int_Tables_number      14
_space_group_name_Hall           '-P 2ybc'
loop_
_symmetry_equiv_pos_site_id
_symmetry_equiv_pos_as_xyz
1 x,y,z
2 -x,1/2+y,1/2-z
3 -x,-y,-z
4 x,1/2-y,1/2+z
_cell_length_a                   10.4971(5)
_cell_length_b                   6.2554(3)
_cell_length_c                   19.7889(9)
_cell_angle_alpha                90
_cell_angle_beta                 94.2330(10)
_cell_angle_gamma                90
_cell_volume                     1295.86
_exptl_crystal_colour            colorless
_cell_formula_units_Z            4
loop_
_atom_site_label
_atom_site_type_symbol
_atom_site_fract_x
_atom_site_fract_y
_atom_site_fract_z
Cl1 Cl 0.0759(1) 0.0560(1) 0.3986(1)
N1 N 0.2644(1) -0.2897(1) 0.3614(1)
C1 C 0.3350(1) -0.1932(2) 0.3040(1)
C2 C 0.2230(1) -0.1524(2) 0.2516(1)
N2 N 0.2695(1) -0.7685(2) 0.5471(1)
C3 C 0.1306(1) -0.3422(2) 0.2633(1)
C4 C 0.2042(1) -0.4716(2) 0.3192(1)
C5 C 0.3220(1) -0.5754(2) 0.2915(1)
C6 C 0.4128(1) -0.3839(2) 0.2818(1)
C7 C 0.3469(1) -0.3459(2) 0.4236(1)
C8 C 0.2771(1) -0.4650(2) 0.4760(1)
C9 C 0.1759(1) -0.3774(2) 0.5090(1)
C10 C 0.1222(1) -0.4916(2) 0.5599(1)
C11 C 0.1706(1) -0.6896(2) 0.5783(1)
C12 C 0.3218(1) -0.6640(2) 0.4967(1)
H1 H 0.2033(12) -0.1993(19) 0.3722(6)
H2 H 0.3835(10) -0.0703(18) 0.3204(5)
H3 H 0.1819(10) -0.0267(18) 0.2597(6)
H4 H 0.253211 -0.1459(19) 0.2065(6)
H5 H 0.3091(13) -0.8980(20) 0.5606(7)
H6 H 0.1118(11) -0.4237(19) 0.2244(6)
H7 H 0.0513(12) -0.2935(18) 0.2784(6)
H8 H 0.1547(10) -0.5600(17) 0.3461(5)
H9 H 0.3597(11) -0.6833(19) 0.3237(6)
H10 H 0.2971(12) -0.6482(19) 0.2493(7)
H11 H 0.4948(11) -0.4042(18) 0.3087(6)
H12 H 0.4311(10) -0.3658(19) 0.2351(6)
H13 H 0.4179(10) -0.4302(17) 0.4113(5)
H14 H 0.3756(11) -0.2087(19) 0.4417(6)
H15 H 0.1447(10) -0.2385(17) 0.4964(5)
H16 H 0.0375(12) -0.4310(20) 0.5838(6)
H17 H 0.1383(11) -0.7776(18) 0.6114(6)
H18 H 0.3873(11) -0.7337(18) 0.4777(6)
Cl2 Cl 0.4283(1) 0.6467(1) 0.0964(1)
loop_
_geom_bond_atom_site_label_1
_geom_bond_atom_site_label_2
_geom_bond_site_symmetry_1
_geom_bond_site_symmetry_2
N1 C1 1_555 1_555
C1 C2 1_555 1_555
C2 C3 1_555 1_555
N2 C11 1_555 1_555
C3 C4 1_555 1_555
C4 N1 1_555 1_555
C5 C4 1_555 1_555
C6 C1 1_555 1_555
C7 N1 1_555 1_555
C8 C7 1_555 1_555
C9 C8 1_555 1_555
C10 C9 1_555 1_555
C11 C10 1_555 1_555
C12 N2 1_555 1_555
H1 N1 1_555 1_555
H2 C1 1_555 1_555
H3 C2 1_555 1_555
H4 C2 1_555 1_555
H5 N2 1_555 1_555
H6 C3 1_555 1_555
H7 C3 1_555 1_555
H8 C4 1_555 1_555
H9 C5 1_555 1_555
H10 C5 1_555 1_555
H11 C6 1_555 1_555
H12 C6 1_555 1_555
H13 C7 1_555 1_555
H14 C7 1_555 1_555
H15 C9 1_555 1_555
H16 C10 1_555 1_555
H17 C11 1_555 1_555
H18 C12 1_555 1_555
C5 C6 1_555 1_555
C8 C12 1_555 1_555

#END
