
#######################################################################
#
#                 Cambridge Crystallographic Data Centre
#                                CCDC 
#
#######################################################################
#
# If this CIF has been generated from an entry in the Cambridge 
# Structural Database, then it will include bibliographic, chemical, 
# crystal, experimental, refinement or atomic coordinate data resulting 
# from the CCDC's data processing and validation procedures.
#
#######################################################################

data_MUQKAL
_chemical_name_common            
4,5-bis(cyclohexanecarbonylthio)-1,3-dithiolane-2-thione
_chemical_formula_moiety         'C17 H22 O2 S5'
_chemical_name_systematic        
"S,S'-(2-Thioxo-1,3-dithiole-4,5-diyl) dicyclohexanecarbothioate"
_symmetry_cell_setting           triclinic
_symmetry_space_group_name_H-M   'P -1'
_symmetry_Int_Tables_number      2
_space_group_name_Hall           '-P 1'
loop_
_symmetry_equiv_pos_site_id
_symmetry_equiv_pos_as_xyz
1 x,y,z
2 -x,-y,-z
_cell_length_a                   5.37370(10)
_cell_length_b                   12.8618(2)
_cell_length_c                   15.2481(2)
_cell_angle_alpha                74.8530(10)
_cell_angle_beta                 80.6000(10)
_cell_angle_gamma                85.9550(10)
_cell_volume                     1003.18
_exptl_crystal_colour            'orange yellow'
_exptl_crystal_description       prism
_cell_formula_units_Z            2
loop_
_atom_site_label
_atom_site_type_symbol
_atom_site_fract_x
_atom_site_fract_y
_atom_site_fract_z
C1 C 0.8564(4) 1.18633(16) 0.63477(14)
C2 C 0.6075(4) 1.01641(16) 0.64258(15)
C3 C 0.4873(4) 1.05592(16) 0.71170(15)
C4 C 0.6700(5) 0.79736(18) 0.67766(18)
C5 C 0.6427(4) 0.68993(16) 0.65775(16)
H1 H 0.7922 0.6793 0.6144
C6 C 0.4160(5) 0.68248(18) 0.61258(19)
H2 H 0.4236 0.7378 0.5552
H3 H 0.2630 0.6953 0.6523
C7 C 0.4071(6) 0.57260(19) 0.5938(2)
H4 H 0.2534 0.5685 0.5694
H5 H 0.5489 0.5639 0.5478
C8 C 0.4160(6) 0.4829(2) 0.6790(2)
H6 H 0.2619 0.4855 0.7216
H7 H 0.4250 0.4144 0.6630
C9 C 0.6376(6) 0.4903(2) 0.7248(2)
H8 H 0.7914 0.4766 0.6858
H9 H 0.6273 0.4350 0.7822
C10 C 0.6506(6) 0.59980(19) 0.74394(19)
H10 H 0.5097 0.6092 0.7901
H11 H 0.8053 0.6030 0.7681
C11 C 0.3273(4) 0.92729(19) 0.88383(15)
C12 C 0.1308(4) 0.85164(18) 0.94429(15)
H12 H -0.0356 0.8869 0.9386
C13 C 0.1401(5) 0.7494(2) 0.91049(17)
H13 H 0.1106 0.7682 0.8471
H14 H 0.3062 0.7150 0.9130
C14 C -0.0582(6) 0.6715(2) 0.9694(2)
H15 H -0.2250 0.7033 0.9618
H16 H -0.0430 0.6057 0.9490
C15 C -0.0282(8) 0.6451(3) 1.0701(2)
H17 H -0.1635 0.5993 1.1064
H18 H 0.1305 0.6058 1.0788
C16 C -0.0332(6) 0.7462(3) 1.10305(19)
H19 H -0.0045 0.7270 1.1665
H20 H -0.1987 0.7812 1.1006
C17 C 0.1656(5) 0.8243(2) 1.04524(16)
H21 H 0.3325 0.7922 1.0520
H22 H 0.1513 0.8897 1.0663
O1 O 0.5346(4) 0.93824(19) 0.89786(14)
O2 O 0.7800(6) 0.81197(17) 0.7343(2)
S1 S 1.05707(14) 1.28386(6) 0.60623(5)
S2 S 0.86960(12) 1.08587(5) 0.57784(4)
S3 S 0.61240(11) 1.17048(4) 0.72574(4)
S4 S 0.51105(15) 0.90821(5) 0.60775(5)
S5 S 0.20835(11) 1.00462(5) 0.78143(5)
loop_
_geom_bond_atom_site_label_1
_geom_bond_atom_site_label_2
_geom_bond_site_symmetry_1
_geom_bond_site_symmetry_2
C1 S1 1_555 1_555
C2 C3 1_555 1_555
C3 S3 1_555 1_555
C4 C5 1_555 1_555
C5 H1 1_555 1_555
C6 C5 1_555 1_555
H2 C6 1_555 1_555
H3 C6 1_555 1_555
C7 C6 1_555 1_555
H4 C7 1_555 1_555
H5 C7 1_555 1_555
C8 C7 1_555 1_555
H6 C8 1_555 1_555
H7 C8 1_555 1_555
C9 C8 1_555 1_555
H8 C9 1_555 1_555
H9 C9 1_555 1_555
C10 C5 1_555 1_555
H10 C10 1_555 1_555
H11 C10 1_555 1_555
C11 C12 1_555 1_555
C12 H12 1_555 1_555
C13 C12 1_555 1_555
H13 C13 1_555 1_555
H14 C13 1_555 1_555
C14 C13 1_555 1_555
H15 C14 1_555 1_555
H16 C14 1_555 1_555
C15 C14 1_555 1_555
H17 C15 1_555 1_555
H18 C15 1_555 1_555
C16 C15 1_555 1_555
H19 C16 1_555 1_555
H20 C16 1_555 1_555
C17 C12 1_555 1_555
H21 C17 1_555 1_555
H22 C17 1_555 1_555
O1 C11 1_555 1_555
O2 C4 1_555 1_555
S2 C1 1_555 1_555
S3 C1 1_555 1_555
S4 C2 1_555 1_555
S5 C3 1_555 1_555
C2 S2 1_555 1_555
C4 S4 1_555 1_555
C9 C10 1_555 1_555
C11 S5 1_555 1_555
C16 C17 1_555 1_555

#END
