
#######################################################################
#
#                 Cambridge Crystallographic Data Centre
#                                CCDC 
#
#######################################################################
#
# If this CIF has been generated from an entry in the Cambridge 
# Structural Database, then it will include bibliographic, chemical, 
# crystal, experimental, refinement or atomic coordinate data resulting 
# from the CCDC's data processing and validation procedures.
#
#######################################################################

data_MUQMUI
_chemical_formula_moiety         'C30 H22 B2 N2'
_chemical_name_systematic        
6,13-diphenyl-5,6,12,13-tetrahydro[1,2]benzazaborinino[3,4-g]benzo[c][2,1]benzazaborinine
_symmetry_cell_setting           triclinic
_symmetry_space_group_name_H-M   'P -1'
_symmetry_Int_Tables_number      2
_space_group_name_Hall           '-P 1'
loop_
_symmetry_equiv_pos_site_id
_symmetry_equiv_pos_as_xyz
1 x,y,z
2 -x,-y,-z
_cell_length_a                   10.2963(9)
_cell_length_b                   13.5576(12)
_cell_length_c                   17.0707(14)
_cell_angle_alpha                104.480(3)
_cell_angle_beta                 106.810(3)
_cell_angle_gamma                90.286(3)
_cell_volume                     2200.97
_exptl_crystal_colour            colorless
_exptl_crystal_description       needle
_cell_formula_units_Z            4
loop_
_atom_site_label
_atom_site_type_symbol
_atom_site_fract_x
_atom_site_fract_y
_atom_site_fract_z
N1 N 0.8208(2) 0.17974(16) 0.10092(14)
H1 H 0.8961 0.2181 0.1073
B1 B 0.7168(3) 0.1602(2) 0.02284(18)
C1 C 0.6036(3) 0.07575(18) 0.00969(15)
C2 C 0.6122(2) 0.02502(18) 0.07478(15)
C3 C 0.7276(3) 0.05310(18) 0.15325(15)
C4 C 0.7414(3) 0.0070(2) 0.22032(17)
H2 H 0.6758 -0.0463 0.2140
C5 C 0.8471(3) 0.0368(2) 0.29487(17)
H3 H 0.8533 0.0044 0.3390
C6 C 0.9446(3) 0.1146(2) 0.30535(18)
H4 H 1.0167 0.1362 0.3569
C7 C 0.9354(3) 0.1597(2) 0.23999(17)
H5 H 1.0027 0.2118 0.2464
C8 C 0.8282(3) 0.12971(18) 0.16464(16)
C9 C 0.5086(3) -0.04879(19) 0.06277(15)
H6 H 0.5148 -0.0824 0.1062
C10 C 0.7224(3) 0.22901(19) -0.03831(16)
C11 C 0.7705(3) 0.3327(2) -0.00440(18)
H7 H 0.7971 0.3603 0.0554
C12 C 0.7805(3) 0.3962(2) -0.0554(2)
H8 H 0.8116 0.4663 -0.0305
C13 C 0.7448(3) 0.3568(2) -0.1424(2)
H9 H 0.7530 0.3993 -0.1776
C14 C 0.6974(3) 0.2558(2) -0.17757(18)
H10 H 0.6723 0.2287 -0.2374
C15 C 0.6857(3) 0.1927(2) -0.12652(17)
H11 H 0.6519 0.1232 -0.1523
N1A N 0.1792(2) -0.17974(16) -0.10092(14)
H1A H 0.1039 -0.2181 -0.1073
B1A B 0.2832(3) -0.1602(2) -0.02284(18)
C1A C 0.3964(3) -0.07575(18) -0.00969(15)
C2A C 0.3878(2) -0.02502(18) -0.07478(15)
C3A C 0.2724(3) -0.05310(18) -0.15325(15)
C4A C 0.2586(3) -0.0070(2) -0.22032(17)
H2A H 0.3242 0.0463 -0.2140
C5A C 0.1529(3) -0.0368(2) -0.29487(17)
H3A H 0.1467 -0.0044 -0.3390
C6A C 0.0554(3) -0.1146(2) -0.30535(18)
H4A H -0.0167 -0.1362 -0.3569
C7A C 0.0646(3) -0.1597(2) -0.23999(17)
H5A H -0.0027 -0.2118 -0.2464
C8A C 0.1718(3) -0.12971(18) -0.16464(16)
C9A C 0.4914(3) 0.04879(19) -0.06277(15)
H6A H 0.4852 0.0824 -0.1062
C10A C 0.2776(3) -0.22901(19) 0.03831(16)
C11A C 0.2295(3) -0.3327(2) 0.00440(18)
H7A H 0.2029 -0.3603 -0.0554
C12A C 0.2195(3) -0.3962(2) 0.0554(2)
H8A H 0.1884 -0.4663 0.0305
C13A C 0.2552(3) -0.3568(2) 0.1424(2)
H9A H 0.2470 -0.3993 0.1776
C14A C 0.3026(3) -0.2558(2) 0.17757(18)
H10A H 0.3277 -0.2287 0.2374
C15A C 0.3143(3) -0.1927(2) 0.12652(17)
H11A H 0.3481 -0.1232 0.1523
N2 N 0.7088(2) 0.32529(16) 0.38329(13)
H12 H 0.7709 0.2801 0.3735
B2 B 0.6887(3) 0.3408(2) 0.46365(18)
C16 C 0.5914(3) 0.42420(18) 0.48390(15)
C17 C 0.5330(2) 0.47882(18) 0.42283(15)
C18 C 0.5638(3) 0.45525(19) 0.34128(15)
C19 C 0.5081(3) 0.5057(2) 0.27789(17)
H13 H 0.4531 0.5603 0.2893
C20 C 0.5307(3) 0.4782(2) 0.19962(19)
H14 H 0.4896 0.5125 0.1576
C21 C 0.6134(3) 0.4007(2) 0.18290(18)
H15 H 0.6290 0.3814 0.1291
C22 C 0.6732(3) 0.3515(2) 0.24379(17)
H16 H 0.7312 0.2991 0.2323
C23 C 0.6489(3) 0.37832(19) 0.32321(16)
C24 C 0.4441(3) 0.55282(18) 0.44077(16)
H17 H 0.4059 0.5892 0.3998
C25 C 0.7568(3) 0.26860(19) 0.52061(16)
C26 C 0.7688(3) 0.1658(2) 0.48321(18)
H18 H 0.7355 0.1410 0.4232
C27 C 0.8274(3) 0.0988(2) 0.5303(2)
H19 H 0.8321 0.0293 0.5028
C28 C 0.8787(3) 0.1338(2) 0.6173(2)
H20 H 0.9191 0.0885 0.6500
C29 C 0.8711(3) 0.2348(2) 0.65667(19)
H21 H 0.9077 0.2591 0.7165
C30 C 0.8107(3) 0.3011(2) 0.60954(17)
H22 H 0.8054 0.3701 0.6379
N2A N 0.2912(2) 0.67471(16) 0.61671(13)
H12A H 0.2291 0.7199 0.6265
B2A B 0.3113(3) 0.6592(2) 0.53635(18)
C16A C 0.4086(3) 0.57580(18) 0.51610(15)
C17A C 0.4670(2) 0.52118(18) 0.57717(15)
C18A C 0.4362(3) 0.54475(19) 0.65872(15)
C19A C 0.4919(3) 0.4943(2) 0.72211(17)
H13A H 0.5469 0.4397 0.7107
C20A C 0.4693(3) 0.5218(2) 0.80038(19)
H14A H 0.5104 0.4875 0.8424
C21A C 0.3866(3) 0.5993(2) 0.81710(18)
H15A H 0.3710 0.6186 0.8709
C22A C 0.3268(3) 0.6485(2) 0.75621(17)
H16A H 0.2688 0.7009 0.7677
C23A C 0.3511(3) 0.62168(19) 0.67679(16)
C24A C 0.5559(3) 0.44718(18) 0.55923(16)
H17A H 0.5941 0.4108 0.6002
C25A C 0.2432(3) 0.73140(19) 0.47939(16)
C26A C 0.2312(3) 0.8342(2) 0.51679(18)
H18A H 0.2645 0.8590 0.5768
C27A C 0.1726(3) 0.9012(2) 0.4697(2)
H19A H 0.1679 0.9707 0.4972
C28A C 0.1213(3) 0.8662(2) 0.3827(2)
H20A H 0.0809 0.9115 0.3500
C29A C 0.1289(3) 0.7652(2) 0.34333(19)
H21A H 0.0923 0.7409 0.2835
C30A C 0.1893(3) 0.6989(2) 0.39046(17)
H22A H 0.1946 0.6299 0.3621
N3 N 0.2261(2) 0.32537(16) 0.39907(14)
H23 H 0.2832 0.2805 0.3863
B3 B 0.1930(3) 0.3404(2) 0.4756(2)
C31 C 0.0925(3) 0.42365(18) 0.48909(16)
C32 C 0.0271(3) 0.46617(19) 0.42118(16)
C33 C 0.0617(3) 0.43586(18) 0.34075(16)
C34 C -0.0028(3) 0.4704(2) 0.26913(17)
H24 H -0.0769 0.5115 0.2705
C35 C 0.0379(3) 0.4465(2) 0.19687(17)
H25 H -0.0087 0.4707 0.1495
C36 C 0.1465(3) 0.3872(2) 0.19297(17)
H26 H 0.1761 0.3721 0.1438
C37 C 0.2109(3) 0.3505(2) 0.26162(17)
H27 H 0.2857 0.3102 0.2596
C38 C 0.1676(3) 0.37176(19) 0.33406(16)
C39 C -0.0639(3) 0.54003(19) 0.43382(16)
H28 H -0.1088 0.5671 0.3878
C40 C 0.2592(3) 0.27161(19) 0.53656(17)
C41 C 0.3831(3) 0.2307(2) 0.53541(18)
H29 H 0.4274 0.2449 0.4973
C42 C 0.4435(3) 0.1700(2) 0.58819(19)
H30 H 0.5275 0.1428 0.5856
C43 C 0.3806(3) 0.1491(2) 0.6449(2)
H31 H 0.4225 0.1093 0.6824
C44 C 0.2566(3) 0.1869(2) 0.6462(2)
H32 H 0.2126 0.1723 0.6843
C45 C 0.1961(3) 0.2457(2) 0.59218(19)
H33 H 0.1096 0.2693 0.5928
N3A N -0.2261(2) 0.67463(16) 0.60093(14)
H23A H -0.2832 0.7195 0.6137
B3A B -0.1930(3) 0.6596(2) 0.5244(2)
C31A C -0.0925(3) 0.57635(18) 0.51091(16)
C32A C -0.0271(3) 0.53383(19) 0.57882(16)
C33A C -0.0617(3) 0.56414(18) 0.65925(16)
C34A C 0.0028(3) 0.5296(2) 0.73087(17)
H24A H 0.0769 0.4885 0.7295
C35A C -0.0379(3) 0.5535(2) 0.80313(17)
H25A H 0.0087 0.5293 0.8505
C36A C -0.1465(3) 0.6128(2) 0.80703(17)
H26A H -0.1761 0.6279 0.8562
C37A C -0.2109(3) 0.6495(2) 0.73838(17)
H27A H -0.2857 0.6898 0.7404
C38A C -0.1676(3) 0.62824(19) 0.66594(16)
C39A C 0.0639(3) 0.45997(19) 0.56618(16)
H28A H 0.1088 0.4329 0.6122
C40A C -0.2592(3) 0.72839(19) 0.46344(17)
C41A C -0.3831(3) 0.7693(2) 0.46459(18)
H29A H -0.4274 0.7551 0.5027
C42A C -0.4435(3) 0.8300(2) 0.41181(19)
H30A H -0.5275 0.8572 0.4144
C43A C -0.3806(3) 0.8509(2) 0.3551(2)
H31A H -0.4225 0.8907 0.3176
C44A C -0.2566(3) 0.8131(2) 0.3538(2)
H32A H -0.2126 0.8277 0.3157
C45A C -0.1961(3) 0.7543(2) 0.40782(19)
H33A H -0.1096 0.7307 0.4072
N4 N 0.3273(2) 0.17015(16) 0.11151(14)
H34 H 0.4006 0.2219 0.1225
B4 B 0.2222(3) 0.1606(2) 0.03517(19)
C46 C 0.1047(3) 0.07732(18) 0.01620(16)
C47 C 0.1009(3) 0.02855(18) 0.08045(15)
C48 C 0.2083(3) 0.05526(19) 0.16208(16)
C49 C 0.2056(3) 0.0165(2) 0.23100(17)
H35 H 0.1283 -0.0262 0.2255
C50 C 0.3095(3) 0.0380(2) 0.30553(17)
H36 H 0.3031 0.0115 0.3509
C51 C 0.4243(3) 0.0987(2) 0.31421(18)
H37 H 0.4978 0.1127 0.3652
C52 C 0.4317(3) 0.1390(2) 0.24872(17)
H38 H 0.5110 0.1798 0.2548
C53 C 0.3239(3) 0.12032(19) 0.17384(16)
C54 C -0.0047(3) -0.04698(19) 0.06206(16)
H39 H -0.0083 -0.0791 0.1050
C55 C 0.2310(3) 0.23453(19) -0.02127(16)
C56 C 0.3544(3) 0.2686(2) -0.02793(18)
H40 H 0.4363 0.2472 0.0035
C57 C 0.3625(3) 0.3326(2) -0.0786(2)
H41 H 0.4484 0.3529 -0.0825
C58 C 0.2456(3) 0.3664(2) -0.1232(2)
H42 H 0.2501 0.4097 -0.1585
C59 C 0.1220(3) 0.3372(2) -0.1166(2)
H43 H 0.0413 0.3617 -0.1464
C60 C 0.1143(3) 0.2721(2) -0.06646(18)
H44 H 0.0279 0.2526 -0.0628
N4A N -0.3273(2) -0.17015(16) -0.11151(14)
H34A H -0.4006 -0.2219 -0.1225
B4A B -0.2222(3) -0.1606(2) -0.03517(19)
C46A C -0.1047(3) -0.07732(18) -0.01620(16)
C47A C -0.1009(3) -0.02855(18) -0.08045(15)
C48A C -0.2083(3) -0.05526(19) -0.16208(16)
C49A C -0.2056(3) -0.0165(2) -0.23100(17)
H35A H -0.1283 0.0262 -0.2255
C50A C -0.3095(3) -0.0380(2) -0.30553(17)
H36A H -0.3031 -0.0115 -0.3509
C51A C -0.4243(3) -0.0987(2) -0.31421(18)
H37A H -0.4978 -0.1127 -0.3652
C52A C -0.4317(3) -0.1390(2) -0.24872(17)
H38A H -0.5110 -0.1798 -0.2548
C53A C -0.3239(3) -0.12032(19) -0.17384(16)
C54A C 0.0047(3) 0.04698(19) -0.06206(16)
H39A H 0.0083 0.0791 -0.1050
C55A C -0.2310(3) -0.23453(19) 0.02127(16)
C56A C -0.3544(3) -0.2686(2) 0.02793(18)
H40A H -0.4363 -0.2472 -0.0035
C57A C -0.3625(3) -0.3326(2) 0.0786(2)
H41A H -0.4484 -0.3529 0.0825
C58A C -0.2456(3) -0.3664(2) 0.1232(2)
H42A H -0.2501 -0.4097 0.1585
C59A C -0.1220(3) -0.3372(2) 0.1166(2)
H43A H -0.0413 -0.3617 0.1464
C60A C -0.1143(3) -0.2721(2) 0.06646(18)
H44A H -0.0279 -0.2526 0.0628
loop_
_geom_bond_atom_site_label_1
_geom_bond_atom_site_label_2
_geom_bond_site_symmetry_1
_geom_bond_site_symmetry_2
N1 H1 1_555 1_555
B1 N1 1_555 1_555
C1 B1 1_555 1_555
C2 C1 1_555 1_555
C3 C2 1_555 1_555
C4 C3 1_555 1_555
H2 C4 1_555 1_555
C5 C4 1_555 1_555
H3 C5 1_555 1_555
C6 C5 1_555 1_555
H4 C6 1_555 1_555
C7 C6 1_555 1_555
H5 C7 1_555 1_555
C8 N1 1_555 1_555
C9 C2 1_555 1_555
H6 C9 1_555 1_555
C10 B1 1_555 1_555
C11 C10 1_555 1_555
H7 C11 1_555 1_555
C12 C11 1_555 1_555
H8 C12 1_555 1_555
C13 C12 1_555 1_555
H9 C13 1_555 1_555
C14 C13 1_555 1_555
H10 C14 1_555 1_555
C15 C10 1_555 1_555
H11 C15 1_555 1_555
N2 H12 1_555 1_555
B2 N2 1_555 1_555
C16 B2 1_555 1_555
C17 C16 1_555 1_555
C18 C17 1_555 1_555
C19 C18 1_555 1_555
H13 C19 1_555 1_555
C20 C19 1_555 1_555
H14 C20 1_555 1_555
C21 C20 1_555 1_555
H15 C21 1_555 1_555
C22 C21 1_555 1_555
H16 C22 1_555 1_555
C23 N2 1_555 1_555
C24 C17 1_555 1_555
H17 C24 1_555 1_555
C25 B2 1_555 1_555
C26 C25 1_555 1_555
H18 C26 1_555 1_555
C27 C26 1_555 1_555
H19 C27 1_555 1_555
C28 C27 1_555 1_555
H20 C28 1_555 1_555
C29 C28 1_555 1_555
H21 C29 1_555 1_555
C30 C25 1_555 1_555
H22 C30 1_555 1_555
N3 H23 1_555 1_555
B3 N3 1_555 1_555
C31 B3 1_555 1_555
C32 C31 1_555 1_555
C33 C32 1_555 1_555
C34 C33 1_555 1_555
H24 C34 1_555 1_555
C35 C34 1_555 1_555
H25 C35 1_555 1_555
C36 C35 1_555 1_555
H26 C36 1_555 1_555
C37 C36 1_555 1_555
H27 C37 1_555 1_555
C38 N3 1_555 1_555
C39 C32 1_555 1_555
H28 C39 1_555 1_555
C40 B3 1_555 1_555
C41 C40 1_555 1_555
H29 C41 1_555 1_555
C42 C41 1_555 1_555
H30 C42 1_555 1_555
C43 C42 1_555 1_555
H31 C43 1_555 1_555
C44 C43 1_555 1_555
H32 C44 1_555 1_555
C45 C40 1_555 1_555
H33 C45 1_555 1_555
N4 H34 1_555 1_555
B4 N4 1_555 1_555
C46 B4 1_555 1_555
C47 C46 1_555 1_555
C48 C47 1_555 1_555
C49 C48 1_555 1_555
H35 C49 1_555 1_555
C50 C49 1_555 1_555
H36 C50 1_555 1_555
C51 C50 1_555 1_555
H37 C51 1_555 1_555
C52 C51 1_555 1_555
H38 C52 1_555 1_555
C53 N4 1_555 1_555
C54 C47 1_555 1_555
H39 C54 1_555 1_555
C55 B4 1_555 1_555
C56 C55 1_555 1_555
H40 C56 1_555 1_555
C57 C56 1_555 1_555
H41 C57 1_555 1_555
C58 C57 1_555 1_555
H42 C58 1_555 1_555
C59 C58 1_555 1_555
H43 C59 1_555 1_555
C60 C55 1_555 1_555
H44 C60 1_555 1_555
N1A H1A 1_555 1_555
B1A N1A 1_555 1_555
C1A C9 1_555 1_555
C2A C1A 1_555 1_555
C3A C2A 1_555 1_555
C4A C3A 1_555 1_555
H2A C4A 1_555 1_555
C5A C4A 1_555 1_555
H3A C5A 1_555 1_555
C6A C5A 1_555 1_555
H4A C6A 1_555 1_555
C7A C6A 1_555 1_555
H5A C7A 1_555 1_555
C8A N1A 1_555 1_555
C9A C1 1_555 1_555
H6A C9A 1_555 1_555
C10A B1A 1_555 1_555
C11A C10A 1_555 1_555
H7A C11A 1_555 1_555
C12A C11A 1_555 1_555
H8A C12A 1_555 1_555
C13A C12A 1_555 1_555
H9A C13A 1_555 1_555
C14A C13A 1_555 1_555
H10A C14A 1_555 1_555
C15A C10A 1_555 1_555
H11A C15A 1_555 1_555
N2A H12A 1_555 1_555
B2A N2A 1_555 1_555
C16A C24 1_555 1_555
C17A C16A 1_555 1_555
C18A C17A 1_555 1_555
C19A C18A 1_555 1_555
H13A C19A 1_555 1_555
C20A C19A 1_555 1_555
H14A C20A 1_555 1_555
C21A C20A 1_555 1_555
H15A C21A 1_555 1_555
C22A C21A 1_555 1_555
H16A C22A 1_555 1_555
C23A N2A 1_555 1_555
C24A C16 1_555 1_555
H17A C24A 1_555 1_555
C25A B2A 1_555 1_555
C26A C25A 1_555 1_555
H18A C26A 1_555 1_555
C27A C26A 1_555 1_555
H19A C27A 1_555 1_555
C28A C27A 1_555 1_555
H20A C28A 1_555 1_555
C29A C28A 1_555 1_555
H21A C29A 1_555 1_555
C30A C25A 1_555 1_555
H22A C30A 1_555 1_555
N3A H23A 1_555 1_555
B3A N3A 1_555 1_555
C31A C39 1_555 1_555
C32A C31A 1_555 1_555
C33A C32A 1_555 1_555
C34A C33A 1_555 1_555
H24A C34A 1_555 1_555
C35A C34A 1_555 1_555
H25A C35A 1_555 1_555
C36A C35A 1_555 1_555
H26A C36A 1_555 1_555
C37A C36A 1_555 1_555
H27A C37A 1_555 1_555
C38A N3A 1_555 1_555
C39A C31 1_555 1_555
H28A C39A 1_555 1_555
C40A B3A 1_555 1_555
C41A C40A 1_555 1_555
H29A C41A 1_555 1_555
C42A C41A 1_555 1_555
H30A C42A 1_555 1_555
C43A C42A 1_555 1_555
H31A C43A 1_555 1_555
C44A C43A 1_555 1_555
H32A C44A 1_555 1_555
C45A C40A 1_555 1_555
H33A C45A 1_555 1_555
N4A H34A 1_555 1_555
B4A N4A 1_555 1_555
C46A C54 1_555 1_555
C47A C46A 1_555 1_555
C48A C47A 1_555 1_555
C49A C48A 1_555 1_555
H35A C49A 1_555 1_555
C50A C49A 1_555 1_555
H36A C50A 1_555 1_555
C51A C50A 1_555 1_555
H37A C51A 1_555 1_555
C52A C51A 1_555 1_555
H38A C52A 1_555 1_555
C53A N4A 1_555 1_555
C54A C46 1_555 1_555
H39A C54A 1_555 1_555
C55A B4A 1_555 1_555
C56A C55A 1_555 1_555
H40A C56A 1_555 1_555
C57A C56A 1_555 1_555
H41A C57A 1_555 1_555
C58A C57A 1_555 1_555
H42A C58A 1_555 1_555
C59A C58A 1_555 1_555
H43A C59A 1_555 1_555
C60A C55A 1_555 1_555
H44A C60A 1_555 1_555
C3 C8 1_555 1_555
C7 C8 1_555 1_555
C14 C15 1_555 1_555
C18 C23 1_555 1_555
C22 C23 1_555 1_555
C29 C30 1_555 1_555
C33 C38 1_555 1_555
C37 C38 1_555 1_555
C44 C45 1_555 1_555
C48 C53 1_555 1_555
C52 C53 1_555 1_555
C59 C60 1_555 1_555
B1A C1A 1_555 1_555
C2A C9A 1_555 1_555
C3A C8A 1_555 1_555
C7A C8A 1_555 1_555
C14A C15A 1_555 1_555
B2A C16A 1_555 1_555
C17A C24A 1_555 1_555
C18A C23A 1_555 1_555
C22A C23A 1_555 1_555
C29A C30A 1_555 1_555
B3A C31A 1_555 1_555
C32A C39A 1_555 1_555
C33A C38A 1_555 1_555
C37A C38A 1_555 1_555
C44A C45A 1_555 1_555
B4A C46A 1_555 1_555
C47A C54A 1_555 1_555
C48A C53A 1_555 1_555
C52A C53A 1_555 1_555
C59A C60A 1_555 1_555

#END
