
#######################################################################
#
#                 Cambridge Crystallographic Data Centre
#                                CCDC 
#
#######################################################################
#
# If this CIF has been generated from an entry in the Cambridge 
# Structural Database, then it will include bibliographic, chemical, 
# crystal, experimental, refinement or atomic coordinate data resulting 
# from the CCDC's data processing and validation procedures.
#
#######################################################################

data_MUQNET
_chemical_formula_moiety         'C30 H20 B2 N2 S2'
_chemical_name_systematic        
6,13-diphenyl-5,6,12,13-tetrahydro[1,2]benzazaborinino[4'',3'':4',5']thieno[2',3':4,5]thieno[2,3-c][1,2]benzazaborinine
_symmetry_cell_setting           monoclinic
_symmetry_space_group_name_H-M   'C 2/c'
_symmetry_Int_Tables_number      15
_space_group_name_Hall           '-C 2yn'
loop_
_symmetry_equiv_pos_site_id
_symmetry_equiv_pos_as_xyz
1 x,y,z
2 -x,y,1/2-z
3 1/2+x,1/2+y,z
4 1/2-x,1/2+y,1/2-z
5 -x,-y,-z
6 x,-y,1/2+z
7 1/2-x,1/2-y,-z
8 1/2+x,1/2-y,1/2+z
_cell_length_a                   26.563(2)
_cell_length_b                   5.5274(5)
_cell_length_c                   20.585(3)
_cell_angle_alpha                90
_cell_angle_beta                 129.396(2)
_cell_angle_gamma                90
_cell_volume                     2335.63
_exptl_crystal_colour            colorless
_exptl_crystal_description       block
_cell_formula_units_Z            4
loop_
_atom_site_label
_atom_site_type_symbol
_atom_site_fract_x
_atom_site_fract_y
_atom_site_fract_z
S1 S 0.07417(3) 0.76821(10) 0.03238(3)
B1 B 0.00179(12) 0.4769(5) -0.12131(16)
N1 N -0.06149(8) 0.4532(3) -0.19963(11)
H1 H -0.0669 0.3414 -0.2326
C1 C -0.11590(10) 0.5919(4) -0.22890(13)
C2 C -0.17591(11) 0.5454(4) -0.30772(14)
H2 H -0.1796 0.4191 -0.3403
C3 C -0.22931(11) 0.6841(5) -0.33731(14)
H3 H -0.2690 0.6509 -0.3897
C4 C -0.22474(11) 0.8733(5) -0.28980(14)
H4 H -0.2610 0.9679 -0.3103
C5 C -0.16600(10) 0.9203(4) -0.21196(14)
H5 H -0.1632 1.0480 -0.1804
C6 C -0.11033(10) 0.7811(4) -0.17901(12)
C7 C -0.04800(10) 0.8235(4) -0.09700(13)
C8 C 0.00599(10) 0.6812(4) -0.06772(13)
C9 C 0.05844(11) 0.3110(4) -0.09961(13)
C10 C 0.12385(11) 0.3681(4) -0.03665(15)
H6 H 0.1344 0.5067 -0.0047
C11 C 0.17355(12) 0.2261(4) -0.02001(16)
H7 H 0.2167 0.2688 0.0229
C12 C 0.15931(13) 0.0217(5) -0.06678(16)
H8 H 0.1927 -0.0730 -0.0563
C13 C 0.09539(13) -0.0421(4) -0.12923(16)
H9 H 0.0854 -0.1805 -0.1611
C14 C 0.04613(12) 0.0996(4) -0.14450(14)
H10 H 0.0031 0.0524 -0.1863
C15 C 0.03222(9) 0.9962(4) 0.03659(12)
S1D S -0.07417(3) 1.23179(10) -0.03238(3)
B1D B -0.00179(12) 1.5231(5) 0.12131(16)
N1D N 0.06149(8) 1.5468(3) 0.19963(11)
H1D H 0.0669 1.6586 0.2326
C1D C 0.11590(10) 1.4081(4) 0.22890(13)
C2D C 0.17591(11) 1.4546(4) 0.30772(14)
H2D H 0.1796 1.5809 0.3403
C3D C 0.22931(11) 1.3159(5) 0.33731(14)
H3D H 0.2690 1.3491 0.3897
C4D C 0.22474(11) 1.1267(5) 0.28980(14)
H4D H 0.2610 1.0321 0.3103
C5D C 0.16600(10) 1.0797(4) 0.21196(14)
H5D H 0.1632 0.9520 0.1804
C6D C 0.11033(10) 1.2189(4) 0.17901(12)
C7D C 0.04800(10) 1.1765(4) 0.09700(13)
C8D C -0.00599(10) 1.3188(4) 0.06772(13)
C9D C -0.05844(11) 1.6890(4) 0.09961(13)
C10D C -0.12385(11) 1.6319(4) 0.03665(15)
H6D H -0.1344 1.4933 0.0047
C11D C -0.17355(12) 1.7739(4) 0.02001(16)
H7D H -0.2167 1.7312 -0.0229
C12D C -0.15931(13) 1.9783(5) 0.06678(16)
H8D H -0.1927 2.0730 0.0563
C13D C -0.09539(13) 2.0421(4) 0.12923(16)
H9D H -0.0854 2.1805 0.1611
C14D C -0.04613(12) 1.9004(4) 0.14450(14)
H10D H -0.0031 1.9476 0.1863
C15D C -0.03222(9) 1.0038(4) -0.03659(12)
loop_
_geom_bond_atom_site_label_1
_geom_bond_atom_site_label_2
_geom_bond_site_symmetry_1
_geom_bond_site_symmetry_2
S1 C8 1_555 1_555
B1 N1 1_555 1_555
N1 H1 1_555 1_555
C1 N1 1_555 1_555
C2 C1 1_555 1_555
H2 C2 1_555 1_555
C3 C2 1_555 1_555
H3 C3 1_555 1_555
C4 C3 1_555 1_555
H4 C4 1_555 1_555
C5 C4 1_555 1_555
H5 C5 1_555 1_555
C6 C1 1_555 1_555
C7 C6 1_555 1_555
C8 B1 1_555 1_555
C9 B1 1_555 1_555
C10 C9 1_555 1_555
H6 C10 1_555 1_555
C11 C10 1_555 1_555
H7 C11 1_555 1_555
C12 C11 1_555 1_555
H8 C12 1_555 1_555
C13 C12 1_555 1_555
H9 C13 1_555 1_555
C14 C9 1_555 1_555
H10 C14 1_555 1_555
C15 S1 1_555 1_555
S1D C8D 1_555 1_555
B1D N1D 1_555 1_555
N1D H1D 1_555 1_555
C1D N1D 1_555 1_555
C2D C1D 1_555 1_555
H2D C2D 1_555 1_555
C3D C2D 1_555 1_555
H3D C3D 1_555 1_555
C4D C3D 1_555 1_555
H4D C4D 1_555 1_555
C5D C4D 1_555 1_555
H5D C5D 1_555 1_555
C6D C1D 1_555 1_555
C7D C15 1_555 1_555
C8D B1D 1_555 1_555
C9D B1D 1_555 1_555
C10D C9D 1_555 1_555
H6D C10D 1_555 1_555
C11D C10D 1_555 1_555
H7D C11D 1_555 1_555
C12D C11D 1_555 1_555
H8D C12D 1_555 1_555
C13D C12D 1_555 1_555
H9D C13D 1_555 1_555
C14D C9D 1_555 1_555
H10D C14D 1_555 1_555
C15D C7 1_555 1_555
C5 C6 1_555 1_555
C7 C8 1_555 1_555
C13 C14 1_555 1_555
C15 C15D 1_555 1_555
S1D C15D 1_555 1_555
C5D C6D 1_555 1_555
C6D C7D 1_555 1_555
C7D C8D 1_555 1_555
C13D C14D 1_555 1_555

#END
