
#######################################################################
#
#                 Cambridge Crystallographic Data Centre
#                                CCDC 
#
#######################################################################
#
# If this CIF has been generated from an entry in the Cambridge 
# Structural Database, then it will include bibliographic, chemical, 
# crystal, experimental, refinement or atomic coordinate data resulting 
# from the CCDC's data processing and validation procedures.
#
#######################################################################

data_MUQPAR
_chemical_formula_moiety         'C27 H15 N5 O1,2(C1 H4 O1)'
_chemical_name_systematic        
'2-((3,5-bis(1H-benzimidazol-2-yl)phenyl)carbonoimidoyl)phenol methanol solvate'
_symmetry_cell_setting           tetragonal
_symmetry_space_group_name_H-M   'I 41/a c d'
_symmetry_Int_Tables_number      142
_space_group_name_Hall           '-I 4bd 2c'
loop_
_symmetry_equiv_pos_site_id
_symmetry_equiv_pos_as_xyz
1 x,y,z
2 1/4-y,3/4+x,1/4+z
3 -x,1/2-y,z
4 1/4+y,1/4-x,3/4+z
5 x,-y,1/2-z
6 1/2-x,y,-z
7 3/4+y,1/4+x,1/4-z
8 1/4-y,1/4-x,1/4-z
9 1/2+x,1/2+y,1/2+z
10 3/4-y,1/4+x,3/4+z
11 1/2-x,-y,1/2+z
12 3/4+y,3/4-x,1/4+z
13 1/2+x,1/2-y,-z
14 -x,1/2+y,1/2-z
15 1/4+y,3/4+x,3/4-z
16 3/4-y,3/4-x,3/4-z
17 -x,-y,-z
18 3/4+y,1/4-x,3/4-z
19 x,1/2+y,-z
20 3/4-y,3/4+x,1/4-z
21 -x,y,1/2+z
22 1/2+x,-y,z
23 1/4-y,3/4-x,3/4+z
24 3/4+y,3/4+x,3/4+z
25 1/2-x,1/2-y,1/2-z
26 1/4+y,3/4-x,1/4-z
27 1/2+x,y,1/2-z
28 1/4-y,1/4+x,3/4-z
29 1/2-x,1/2+y,z
30 x,1/2-y,1/2+z
31 3/4-y,1/4-x,1/4+z
32 1/4+y,1/4+x,1/4+z
_cell_length_a                   28.2864(11)
_cell_length_b                   28.2864(11)
_cell_length_c                   13.3571(7)
_cell_angle_alpha                90
_cell_angle_beta                 90
_cell_angle_gamma                90
_cell_volume                     10687.3
_exptl_crystal_colour            brown
_exptl_crystal_description       Block
_cell_formula_units_Z            16
_exptl_crystal_recrystallization_method dichloromethane/methanol
loop_
_atom_site_label
_atom_site_type_symbol
_atom_site_fract_x
_atom_site_fract_y
_atom_site_fract_z
O2 O 0.40699(9) 0.47819(10) 0.5789(2)
C17 C 0.43921(14) 0.45946(15) 0.5098(3)
H8 H 0.4457 0.4826 0.4589
H9 H 0.4260 0.4317 0.4795
H10 H 0.4680 0.4513 0.5435
H11 H 0.3977(15) 0.4544(16) 0.620(4)
N1 N 0.37867(8) 0.56788(10) 0.53033(17)
H1 H 0.3839 0.5405 0.5560
N2 N 0.33934(9) 0.62714(9) 0.45784(18)
C1 C 0.2500 0.58050(14) 0.5000
H2 H 0.2500 0.6134 0.5000
C2 C 0.29271(10) 0.55629(10) 0.49723(18)
C3 C 0.2500 0.48217(15) 0.5000
C4 C 0.29277(11) 0.50695(11) 0.49829(19)
H3 H 0.3213 0.4906 0.4979
C5 C 0.41098(11) 0.60374(12) 0.5187(2)
C6 C 0.33684(10) 0.58383(11) 0.49356(19)
C7 C 0.38626(11) 0.64052(12) 0.4717(2)
C8 C 0.40942(13) 0.68263(13) 0.4478(3)
H4 H 0.3938 0.7072 0.4155
C9 C 0.45838(12) 0.60779(15) 0.5451(3)
H5 H 0.4744 0.5833 0.5769
N3 N 0.2500 0.43262(16) 0.5000
C10 C 0.48044(14) 0.64986(17) 0.5218(3)
H6 H 0.5121 0.6539 0.5384
C11 C 0.45643(14) 0.68632(15) 0.4740(3)
H7 H 0.4726 0.7141 0.4593
C12 C 0.2744(3) 0.4042(3) 0.5105(4)
O1 O 0.31717(19) 0.36063(19) 0.5245(4)
C13 C 0.2500 0.2547(2) 0.5000
C14 C 0.2919(2) 0.27852(18) 0.5172(3)
C15 C 0.2912(4) 0.3280(2) 0.5169(4)
C16 C 0.2500 0.3530(3) 0.5000
N1E N 0.12133(8) 0.56788(10) 0.46967(17)
H1E H 0.1161 0.5405 0.4440
N2E N 0.16066(9) 0.62714(9) 0.54216(18)
C2E C 0.20729(10) 0.55629(10) 0.50277(18)
C4E C 0.20723(11) 0.50695(11) 0.50171(19)
H3E H 0.1787 0.4906 0.5021
C5E C 0.08902(11) 0.60374(12) 0.4813(2)
C6E C 0.16316(10) 0.58383(11) 0.50644(19)
C7E C 0.11374(11) 0.64052(12) 0.5283(2)
C8E C 0.09058(13) 0.68263(13) 0.5522(3)
H4E H 0.1062 0.7072 0.5845
C9E C 0.04162(12) 0.60779(15) 0.4549(3)
H5E H 0.0256 0.5833 0.4231
C10E C 0.01956(14) 0.64986(17) 0.4782(3)
H6E H -0.0121 0.6539 0.4616
C11E C 0.04357(14) 0.68632(15) 0.5260(3)
H7E H 0.0274 0.7141 0.5407
C12E C 0.2256(3) 0.4042(3) 0.4895(4)
O1E O 0.18283(19) 0.36063(19) 0.4755(4)
C14E C 0.2081(2) 0.27852(18) 0.4828(3)
C15E C 0.2088(4) 0.3280(2) 0.4831(4)
loop_
_geom_bond_atom_site_label_1
_geom_bond_atom_site_label_2
_geom_bond_site_symmetry_1
_geom_bond_site_symmetry_2
N1 H1 1_555 1_555
N2 C6 1_555 1_555
C1 H2 1_555 1_555
C2 C1 1_555 1_555
C3 C4 1_555 1_555
C4 C2 1_555 1_555
H3 C4 1_555 1_555
C5 N1 1_555 1_555
C6 N1 1_555 1_555
C7 N2 1_555 1_555
C8 C7 1_555 1_555
H4 C8 1_555 1_555
C9 C5 1_555 1_555
H5 C9 1_555 1_555
N3 C3 1_555 1_555
C10 C9 1_555 1_555
H6 C10 1_555 1_555
C11 C8 1_555 1_555
H7 C11 1_555 1_555
C12 N3 1_555 1_555
O1 C15 1_555 1_555
C13 C14 1_555 1_555
C14 C15 1_555 1_555
C15 C16 1_555 1_555
C16 C12 1_555 1_555
O2 C17 1_555 1_555
C17 H8 1_555 1_555
H9 C17 1_555 1_555
H10 C17 1_555 1_555
H11 O2 1_555 1_555
N1E H1E 1_555 1_555
N2E C6E 1_555 1_555
C2E C1 1_555 1_555
C4E C3 1_555 1_555
H3E C4E 1_555 1_555
C5E N1E 1_555 1_555
C6E N1E 1_555 1_555
C7E N2E 1_555 1_555
C8E C7E 1_555 1_555
H4E C8E 1_555 1_555
C9E C5E 1_555 1_555
H5E C9E 1_555 1_555
C10E C9E 1_555 1_555
H6E C10E 1_555 1_555
C11E C8E 1_555 1_555
H7E C11E 1_555 1_555
C12E N3 1_555 1_555
O1E C15E 1_555 1_555
C14E C13 1_555 1_555
C15E C16 1_555 1_555
C2 C6 1_555 1_555
C5 C7 1_555 1_555
C10 C11 1_555 1_555
C16 C12E 1_555 1_555
C2E C4E 1_555 1_555
C2E C6E 1_555 1_555
C5E C7E 1_555 1_555
C10E C11E 1_555 1_555
C14E C15E 1_555 1_555

#END
