
#######################################################################
#
#                 Cambridge Crystallographic Data Centre
#                                CCDC 
#
#######################################################################
#
# If this CIF has been generated from an entry in the Cambridge 
# Structural Database, then it will include bibliographic, chemical, 
# crystal, experimental, refinement or atomic coordinate data resulting 
# from the CCDC's data processing and validation procedures.
#
#######################################################################

data_MUQREX
_chemical_formula_moiety         'C22 H17 N1 O3'
_chemical_name_systematic        
'methyl 10-benzyl-9-oxo-9,10-dihydroacridine-2-carboxylate'
_symmetry_cell_setting           monoclinic
_symmetry_space_group_name_H-M   'P 21/n'
_symmetry_Int_Tables_number      14
_space_group_name_Hall           '-P 2yn'
loop_
_symmetry_equiv_pos_site_id
_symmetry_equiv_pos_as_xyz
1 x,y,z
2 1/2-x,1/2+y,1/2-z
3 -x,-y,-z
4 1/2+x,1/2-y,1/2+z
_cell_length_a                   8.8889(12)
_cell_length_b                   18.248(2)
_cell_length_c                   10.8298(14)
_cell_angle_alpha                90
_cell_angle_beta                 112.606(2)
_cell_angle_gamma                90
_cell_volume                     1621.68
_exptl_crystal_colour            colorless
_exptl_crystal_description       block
_cell_formula_units_Z            4
loop_
_atom_site_label
_atom_site_type_symbol
_atom_site_fract_x
_atom_site_fract_y
_atom_site_fract_z
O1 O 0.62082(13) -0.11615(6) 0.87190(11)
O2 O 0.04066(14) -0.19560(7) 1.05478(12)
O3 O 0.28807(14) -0.23843(6) 1.08180(11)
N1 N 0.31824(14) 0.06224(6) 0.79997(11)
C1 C 0.44246(16) 0.06149(7) 0.75128(13)
C2 C 0.46564(18) 0.12162(8) 0.67899(15)
H1 H 0.3971 0.1634 0.6641
C3 C 0.58693(19) 0.12010(9) 0.62994(16)
H2 H 0.6010 0.1611 0.5813
C4 C 0.69017(19) 0.05957(9) 0.65000(17)
H3 H 0.7738 0.0592 0.6157
C5 C 0.66841(17) 0.00068(8) 0.72020(15)
H4 H 0.7382 -0.0406 0.7347
C6 C 0.54497(16) 0.00026(7) 0.77102(13)
C7 C 0.52574(16) -0.06369(7) 0.84470(13)
C8 C 0.38215(16) -0.06243(7) 0.88053(12)
C9 C 0.34551(16) -0.12421(7) 0.94079(13)
H5 H 0.4174 -0.1650 0.9627
C10 C 0.20646(17) -0.12664(8) 0.96884(13)
C11 C 0.09953(17) -0.06673(8) 0.93365(13)
H6 H 0.0009 -0.0691 0.9483
C12 C 0.13518(17) -0.00455(8) 0.87828(13)
H7 H 0.0621 0.0358 0.8567
C13 C 0.27967(16) -0.00038(7) 0.85333(12)
C14 C 0.16678(18) -0.18947(8) 1.03786(14)
C15 C 0.2682(2) -0.29665(9) 1.16511(17)
H8 H 0.1696 -0.3247 1.1147
H9 H 0.2584 -0.2755 1.2449
H10 H 0.3632 -0.3292 1.1922
C16 C 0.22770(17) 0.13022(7) 0.79351(13)
H11 H 0.3040 0.1721 0.8109
H12 H 0.1850 0.1295 0.8655
C17 C 0.08718(16) 0.14266(7) 0.66131(13)
C18 C 0.05793(17) 0.09719(8) 0.55122(14)
H13 H 0.1271 0.0564 0.5581
C19 C -0.07161(18) 0.11120(8) 0.43175(14)
H14 H -0.0911 0.0798 0.3572
C20 C -0.17294(18) 0.17079(8) 0.42019(14)
H15 H -0.2614 0.1803 0.3380
C21 C -0.14444(17) 0.21641(8) 0.52921(14)
H16 H -0.2137 0.2572 0.5219
C22 C -0.01493(17) 0.20254(7) 0.64883(13)
H17 H 0.0044 0.2342 0.7230
loop_
_geom_bond_atom_site_label_1
_geom_bond_atom_site_label_2
_geom_bond_site_symmetry_1
_geom_bond_site_symmetry_2
O1 C7 1_555 1_555
O2 C14 1_555 1_555
O3 C14 1_555 1_555
N1 C1 1_555 1_555
C1 C2 1_555 1_555
C2 H1 1_555 1_555
C3 C2 1_555 1_555
H2 C3 1_555 1_555
C4 C3 1_555 1_555
H3 C4 1_555 1_555
C5 C4 1_555 1_555
H4 C5 1_555 1_555
C6 C1 1_555 1_555
C7 C6 1_555 1_555
C8 C7 1_555 1_555
C9 C8 1_555 1_555
H5 C9 1_555 1_555
C10 C9 1_555 1_555
C11 C10 1_555 1_555
H6 C11 1_555 1_555
C12 C11 1_555 1_555
H7 C12 1_555 1_555
C13 N1 1_555 1_555
C14 C10 1_555 1_555
C15 O3 1_555 1_555
H8 C15 1_555 1_555
H9 C15 1_555 1_555
H10 C15 1_555 1_555
C16 N1 1_555 1_555
H11 C16 1_555 1_555
H12 C16 1_555 1_555
C17 C16 1_555 1_555
C18 C17 1_555 1_555
H13 C18 1_555 1_555
C19 C18 1_555 1_555
H14 C19 1_555 1_555
C20 C19 1_555 1_555
H15 C20 1_555 1_555
C21 C20 1_555 1_555
H16 C21 1_555 1_555
C22 C17 1_555 1_555
H17 C22 1_555 1_555
C5 C6 1_555 1_555
C8 C13 1_555 1_555
C12 C13 1_555 1_555
C21 C22 1_555 1_555

#END
