
#######################################################################
#
#                 Cambridge Crystallographic Data Centre
#                                CCDC 
#
#######################################################################
#
# If this CIF has been generated from an entry in the Cambridge 
# Structural Database, then it will include bibliographic, chemical, 
# crystal, experimental, refinement or atomic coordinate data resulting 
# from the CCDC's data processing and validation procedures.
#
#######################################################################

data_MUQZIH
_chemical_formula_moiety         'C32 H26 O6,2(C1 H1 Cl3)'
_chemical_name_systematic        
"1,1',8,8'-Tetramethoxy-9,9'-bianthracenyl-10,10'(9H,9'H)-dione chloroform solvate"
_symmetry_cell_setting           monoclinic
_symmetry_space_group_name_H-M   'P 21'
_symmetry_Int_Tables_number      4
_space_group_name_Hall           'P 2yb'
loop_
_symmetry_equiv_pos_site_id
_symmetry_equiv_pos_as_xyz
1 x,y,z
2 -x,1/2+y,-z
_cell_length_a                   12.5964(6)
_cell_length_b                   13.9303(7)
_cell_length_c                   19.9329(9)
_cell_angle_alpha                90
_cell_angle_beta                 108.093(1)
_cell_angle_gamma                90
_cell_volume                     3324.71
_exptl_crystal_colour            colorless
_exptl_crystal_description       plate
_cell_formula_units_Z            4
_exptl_crystal_recrystallization_method chloroform/pentane
loop_
_atom_site_label
_atom_site_type_symbol
_atom_site_fract_x
_atom_site_fract_y
_atom_site_fract_z
O1 O 0.2899(7) 1.0314(6) 1.1601(4)
O2 O 0.2852(6) 0.6304(5) 1.0691(4)
O3 O 0.4205(5) 0.8432(5) 0.9309(4)
C1 C 0.2964(9) 0.6979(8) 1.1193(6)
C2 C 0.3033(9) 0.6763(7) 1.1889(5)
H1 H 0.3033 0.6116 1.2038
C3 C 0.3101(10) 0.7511(9) 1.2358(6)
H2 H 0.3183 0.7368 1.2838
C4 C 0.3054(8) 0.8413(9) 1.2156(5)
H3 H 0.3013 0.8909 1.2474
C5 C 0.4071(8) 1.0708(7) 1.0610(5)
H4 H 0.4069 1.1223 1.0923
C6 C 0.4577(8) 1.0803(8) 1.0092(6)
H5 H 0.4882 1.1411 1.0035
C7 C 0.4661(8) 1.0105(7) 0.9674(5)
H6 H 0.5048 1.0200 0.9339
C8 C 0.4169(8) 0.9204(6) 0.9726(5)
C9 C 0.2991(7) 0.8144(6) 1.0251(4)
H7 H 0.3369 0.7607 1.0081
C10 C 0.3097(7) 0.9655(6) 1.1261(4)
C11 C 0.3569(7) 0.9846(6) 1.0662(5)
C12 C 0.3589(8) 0.9073(7) 1.0192(5)
C13 C 0.3005(7) 0.7917(7) 1.0980(5)
C14 C 0.3065(8) 0.8643(7) 1.1486(4)
C15 C 0.2685(10) 0.5304(8) 1.0846(6)
H8 H 0.2632 0.4910 1.0429
H9 H 0.1994 0.5244 1.0970
H10 H 0.3317 0.5086 1.1242
C16 C 0.4788(10) 0.8527(8) 0.8823(5)
H11 H 0.4743 0.7924 0.8562
H12 H 0.5572 0.8676 0.9072
H13 H 0.4459 0.9046 0.8492
O4 O 0.1611(6) 1.0910(5) 0.8913(4)
O5 O 0.0568(5) 0.7901(5) 1.0716(3)
O6 O 0.1964(6) 0.6676(5) 0.8927(4)
C17 C 0.0534(7) 0.8782(6) 1.0474(4)
C18 C 0.0009(8) 0.9539(7) 1.0718(5)
H14 H -0.0351 0.9415 1.1063
C19 C 0.0014(8) 1.0460(8) 1.0459(5)
H15 H -0.0320 1.0963 1.0646
C20 C 0.0506(8) 1.0680(7) 0.9920(5)
H16 H 0.0508 1.1312 0.9741
C21 C 0.1790(8) 0.9382(8) 0.8019(5)
H17 H 0.1771 1.0008 0.7826
C22 C 0.1942(10) 0.8568(8) 0.7645(6)
H18 H 0.2014 0.8641 0.7187
C23 C 0.1990(10) 0.7651(7) 0.7936(5)
H19 H 0.2093 0.7102 0.7681
C24 C 0.1886(8) 0.7557(8) 0.8600(5)
C25 C 0.1709(7) 0.8202(6) 0.9741(4)
H20 H 0.1339 0.7577 0.9774
C26 C 0.1457(7) 1.0063(7) 0.9088(5)
C27 C 0.1664(8) 0.9240(7) 0.8697(5)
C28 C 0.1719(8) 0.8322(7) 0.8986(5)
C29 C 0.1067(7) 0.8986(7) 0.9959(5)
C30 C 0.0991(7) 0.9896(6) 0.9667(5)
C31 C 0.0163(9) 0.7718(7) 1.1296(5)
H21 H 0.0242 0.7033 1.1413
H22 H -0.0627 0.7900 1.1168
H23 H 0.0594 0.8095 1.1705
C32 C 0.2237(11) 0.5870(9) 0.8619(7)
H24 H 0.2256 0.5313 0.8923
H25 H 0.2973 0.5957 0.8557
H26 H 0.1677 0.5765 0.8158
O7 O -0.3585(6) 0.2873(5) 0.3335(4)
O8 O -0.2809(6) -0.1197(5) 0.4138(4)
O9 O -0.0063(5) 0.0872(4) 0.5566(3)
C33 C -0.3208(7) -0.0522(7) 0.3670(5)
C34 C -0.3846(8) -0.0672(8) 0.2977(5)
H27 H -0.4006 -0.1315 0.2821
C35 C -0.4261(8) 0.0046(7) 0.2502(5)
H28 H -0.4688 -0.0098 0.2029
C36 C -0.4043(8) 0.1005(7) 0.2728(5)
H29 H -0.4365 0.1517 0.2416
C37 C -0.1532(9) 0.3238(7) 0.4353(6)
H30 H -0.1882 0.3767 0.4069
C38 C -0.0513(10) 0.3376(7) 0.4874(5)
H31 H -0.0176 0.3993 0.4958
C39 C 0.0018(8) 0.2557(7) 0.5284(5)
H32 H 0.0734 0.2621 0.5625
C40 C -0.0515(8) 0.1678(7) 0.5181(5)
C41 C -0.2180(7) 0.0624(6) 0.4629(4)
H33 H -0.1620 0.0094 0.4778
C42 C -0.3048(8) 0.2184(7) 0.3666(5)
C43 C -0.2050(8) 0.2345(8) 0.4237(5)
C44 C -0.1568(8) 0.1552(6) 0.4673(5)
C45 C -0.2918(7) 0.0429(6) 0.3871(4)
C46 C -0.3342(7) 0.1206(7) 0.3424(4)
C47 C -0.3245(10) -0.2154(8) 0.4006(6)
H34 H -0.2864 -0.2567 0.4407
H35 H -0.3122 -0.2403 0.3576
H36 H -0.4048 -0.2146 0.3945
C48 C 0.1003(8) 0.0969(8) 0.6091(5)
H37 H 0.1229 0.0350 0.6326
H38 H 0.0956 0.1449 0.6440
H39 H 0.1556 0.1175 0.5867
O10 O -0.2261(6) 0.3277(5) 0.6080(4)
O11 O -0.5062(5) 0.0306(5) 0.4206(3)
O12 O -0.1923(6) -0.0943(5) 0.5890(4)
C49 C -0.4867(8) 0.1262(6) 0.4444(4)
C50 C -0.5646(9) 0.1963(9) 0.4271(5)
H40 H -0.6365 0.1834 0.3951
C51 C -0.5390(8) 0.2882(7) 0.4565(5)
H41 H -0.5914 0.3390 0.4418
C52 C -0.4393(9) 0.3040(6) 0.5060(5)
H42 H -0.4224 0.3657 0.5268
C53 C -0.1170(8) 0.1686(9) 0.6897(5)
H43 H -0.0974 0.2297 0.7111
C54 C -0.0700(8) 0.0869(9) 0.7236(5)
H44 H -0.0196 0.0926 0.7701
C55 C -0.0909(8) -0.0030(9) 0.6947(5)
H45 H -0.0562 -0.0577 0.7210
C56 C -0.1656(8) -0.0138(7) 0.6246(5)
C57 C -0.2954(7) 0.0627(6) 0.5151(4)
H46 H -0.3354 -0.0002 0.5100
C58 C -0.2570(8) 0.2456(7) 0.5845(5)
C59 C -0.1954(7) 0.1598(6) 0.6223(5)
C60 C -0.2189(7) 0.0706(7) 0.5899(5)
C61 C -0.3794(7) 0.1400(6) 0.4979(5)
C62 C -0.3607(8) 0.2299(7) 0.5267(5)
C63 C -0.6087(9) 0.0147(7) 0.3667(5)
H47 H -0.6151 -0.0534 0.3537
H48 H -0.6111 0.0536 0.3253
H49 H -0.6708 0.0328 0.3839
C64 C -0.1435(9) -0.1822(7) 0.6251(6)
H50 H -0.1697 -0.2371 0.5935
H51 H -0.1662 -0.1905 0.6676
H52 H -0.0619 -0.1783 0.6385
C65 C 0.4425(8) -0.0081(7) 0.6410(6)
H53 H 0.4288 -0.0788 0.6418
Cl1 Cl 0.3990(3) 0.0441(2) 0.70896(15)
Cl2 Cl 0.5851(3) 0.0077(3) 0.65632(19)
Cl3 Cl 0.3640(3) 0.0336(2) 0.55921(16)
C66 C 0.7866(9) 0.7398(8) 0.8483(6)
H54 H 0.7827 0.6681 0.8500
Cl4 Cl 0.7878(3) 0.7862(2) 0.93090(16)
Cl5 Cl 0.9124(3) 0.7726(3) 0.83278(19)
Cl6 Cl 0.6704(3) 0.7818(3) 0.78039(17)
C67 C 0.0608(8) -0.0123(9) 0.3460(6)
H55 H 0.1013 -0.0738 0.3626
Cl7 Cl 0.1056(4) 0.0716(3) 0.4150(2)
Cl8 Cl 0.0922(3) 0.0241(5) 0.27005(18)
Cl9 Cl -0.0833(3) -0.0338(4) 0.3303(2)
C68 C 0.6927(9) 0.7420(8) 1.1420(6)
H56 H 0.7149 0.6820 1.1222
Cl10 Cl 0.6767(3) 0.8349(3) 1.0803(2)
Cl11 Cl 0.5651(3) 0.7230(3) 1.15676(18)
Cl12 Cl 0.7963(3) 0.7723(4) 1.21860(17)
loop_
_geom_bond_atom_site_label_1
_geom_bond_atom_site_label_2
_geom_bond_site_symmetry_1
_geom_bond_site_symmetry_2
O1 C10 1_555 1_555
O2 C1 1_555 1_555
O3 C8 1_555 1_555
C1 C2 1_555 1_555
C2 H1 1_555 1_555
C3 C2 1_555 1_555
H2 C3 1_555 1_555
C4 C3 1_555 1_555
H3 C4 1_555 1_555
C5 H4 1_555 1_555
C6 C5 1_555 1_555
H5 C6 1_555 1_555
C7 C6 1_555 1_555
H6 C7 1_555 1_555
C8 C7 1_555 1_555
C9 H7 1_555 1_555
C10 C11 1_555 1_555
C11 C5 1_555 1_555
C12 C8 1_555 1_555
C13 C1 1_555 1_555
C14 C4 1_555 1_555
C15 O2 1_555 1_555
H8 C15 1_555 1_555
H9 C15 1_555 1_555
H10 C15 1_555 1_555
C16 O3 1_555 1_555
H11 C16 1_555 1_555
H12 C16 1_555 1_555
H13 C16 1_555 1_555
O4 C26 1_555 1_555
O5 C17 1_555 1_555
O6 C24 1_555 1_555
C17 C18 1_555 1_555
C18 H14 1_555 1_555
C19 C18 1_555 1_555
H15 C19 1_555 1_555
C20 C19 1_555 1_555
H16 C20 1_555 1_555
C21 H17 1_555 1_555
C22 C21 1_555 1_555
H18 C22 1_555 1_555
C23 C22 1_555 1_555
H19 C23 1_555 1_555
C24 C23 1_555 1_555
C25 C9 1_555 1_555
H20 C25 1_555 1_555
C26 C27 1_555 1_555
C27 C21 1_555 1_555
C28 C24 1_555 1_555
C29 C17 1_555 1_555
C30 C20 1_555 1_555
C31 O5 1_555 1_555
H21 C31 1_555 1_555
H22 C31 1_555 1_555
H23 C31 1_555 1_555
C32 O6 1_555 1_555
H24 C32 1_555 1_555
H25 C32 1_555 1_555
H26 C32 1_555 1_555
O7 C42 1_555 1_555
O8 C33 1_555 1_555
O9 C40 1_555 1_555
C33 C34 1_555 1_555
C34 H27 1_555 1_555
C35 C34 1_555 1_555
H28 C35 1_555 1_555
C36 C35 1_555 1_555
H29 C36 1_555 1_555
C37 H30 1_555 1_555
C38 C37 1_555 1_555
H31 C38 1_555 1_555
C39 C38 1_555 1_555
H32 C39 1_555 1_555
C40 C39 1_555 1_555
C41 H33 1_555 1_555
C42 C43 1_555 1_555
C43 C37 1_555 1_555
C44 C40 1_555 1_555
C45 C33 1_555 1_555
C46 C36 1_555 1_555
C47 O8 1_555 1_555
H34 C47 1_555 1_555
H35 C47 1_555 1_555
H36 C47 1_555 1_555
C48 O9 1_555 1_555
H37 C48 1_555 1_555
H38 C48 1_555 1_555
H39 C48 1_555 1_555
O10 C58 1_555 1_555
O11 C49 1_555 1_555
O12 C56 1_555 1_555
C49 C50 1_555 1_555
C50 H40 1_555 1_555
C51 C50 1_555 1_555
H41 C51 1_555 1_555
C52 C51 1_555 1_555
H42 C52 1_555 1_555
C53 H43 1_555 1_555
C54 C53 1_555 1_555
H44 C54 1_555 1_555
C55 C54 1_555 1_555
H45 C55 1_555 1_555
C56 C55 1_555 1_555
C57 C41 1_555 1_555
H46 C57 1_555 1_555
C58 C59 1_555 1_555
C59 C53 1_555 1_555
C60 C56 1_555 1_555
C61 C49 1_555 1_555
C62 C52 1_555 1_555
C63 O11 1_555 1_555
H47 C63 1_555 1_555
H48 C63 1_555 1_555
H49 C63 1_555 1_555
C64 O12 1_555 1_555
H50 C64 1_555 1_555
H51 C64 1_555 1_555
H52 C64 1_555 1_555
C65 H53 1_555 1_555
Cl1 C65 1_555 1_555
Cl2 C65 1_555 1_555
Cl3 C65 1_555 1_555
C66 H54 1_555 1_555
Cl4 C66 1_555 1_555
Cl5 C66 1_555 1_555
Cl6 C66 1_555 1_555
C67 H55 1_555 1_555
Cl7 C67 1_555 1_555
Cl8 C67 1_555 1_555
Cl9 C67 1_555 1_555
C68 H56 1_555 1_555
Cl10 C68 1_555 1_555
Cl11 C68 1_555 1_555
Cl12 C68 1_555 1_555
C9 C12 1_555 1_555
C9 C13 1_555 1_555
C10 C14 1_555 1_555
C11 C12 1_555 1_555
C13 C14 1_555 1_555
C25 C28 1_555 1_555
C25 C29 1_555 1_555
C26 C30 1_555 1_555
C27 C28 1_555 1_555
C29 C30 1_555 1_555
C41 C44 1_555 1_555
C41 C45 1_555 1_555
C42 C46 1_555 1_555
C43 C44 1_555 1_555
C45 C46 1_555 1_555
C57 C60 1_555 1_555
C57 C61 1_555 1_555
C58 C62 1_555 1_555
C59 C60 1_555 1_555
C61 C62 1_555 1_555

#END
