
#######################################################################
#
#                 Cambridge Crystallographic Data Centre
#                                CCDC 
#
#######################################################################
#
# If this CIF has been generated from an entry in the Cambridge 
# Structural Database, then it will include bibliographic, chemical, 
# crystal, experimental, refinement or atomic coordinate data resulting 
# from the CCDC's data processing and validation procedures.
#
#######################################################################

data_MURBEG
_chemical_formula_moiety         'C28 H22'
_chemical_name_systematic        9,9',10,10'-Tetrahydro-9,9'-bianthracenyl
_symmetry_cell_setting           monoclinic
_symmetry_space_group_name_H-M   'P 21/n'
_symmetry_Int_Tables_number      14
_space_group_name_Hall           '-P 2yn'
loop_
_symmetry_equiv_pos_site_id
_symmetry_equiv_pos_as_xyz
1 x,y,z
2 1/2+x,1/2-y,1/2+z
3 -x,-y,-z
4 1/2-x,1/2+y,1/2-z
_cell_length_a                   12.4930(3)
_cell_length_b                   5.8085(2)
_cell_length_c                   12.8297(4)
_cell_angle_alpha                90
_cell_angle_beta                 95.1440(10)
_cell_angle_gamma                90
_cell_volume                     927.245
_exptl_crystal_colour            colorless
_cell_formula_units_Z            2
loop_
_atom_site_label
_atom_site_type_symbol
_atom_site_fract_x
_atom_site_fract_y
_atom_site_fract_z
C1 C 0.53181(10) 0.0708(2) 0.04569(9)
H1 H 0.53058(10) 0.2371(2) 0.02552(9)
C2 C 0.47846(10) 0.0461(2) 0.14689(10)
C3 C 0.40349(10) 0.2052(2) 0.17664(10)
H2 H 0.38554(10) 0.3343(2) 0.13308(10)
C4 C 0.35449(11) 0.1782(2) 0.26894(10)
H3 H 0.30418(11) 0.2891(2) 0.28873(10)
C5 C 0.37965(11) -0.0121(3) 0.33203(10)
H4 H 0.34606(11) -0.0326(3) 0.39495(10)
C6 C 0.45375(11) -0.1718(2) 0.30310(10)
H5 H 0.47043(11) -0.3018(2) 0.34646(10)
C7 C 0.50431(10) -0.1446(2) 0.21115(10)
C8 C 0.58707(11) -0.3150(2) 0.18006(11)
H6 H 0.55083(11) -0.4347(2) 0.13464(11)
H7 H 0.62072(11) -0.3919(2) 0.24366(11)
C9 C 0.67366(10) -0.2019(2) 0.12265(10)
C10 C 0.77861(11) -0.2852(3) 0.13163(11)
H8 H 0.79601(11) -0.4179(3) 0.17297(11)
C11 C 0.85805(11) -0.1762(3) 0.08082(10)
H9 H 0.92919(11) -0.2356(3) 0.08659(10)
C12 C 0.83330(11) 0.0194(3) 0.02160(10)
H10 H 0.88778(11) 0.0962(3) -0.01216(10)
C13 C 0.72869(11) 0.1030(3) 0.01173(10)
H11 H 0.71208(11) 0.2373(3) -0.02881(10)
C14 C 0.64805(10) -0.0076(2) 0.06050(9)
C1B C 0.46819(10) -0.0708(2) -0.04569(9)
H1B H 0.46942(10) -0.2371(2) -0.02552(9)
C2B C 0.52154(10) -0.0461(2) -0.14689(10)
C3B C 0.59651(10) -0.2052(2) -0.17664(10)
H2B H 0.61446(10) -0.3343(2) -0.13308(10)
C4B C 0.64551(11) -0.1782(2) -0.26894(10)
H3B H 0.69582(11) -0.2891(2) -0.28873(10)
C5B C 0.62035(11) 0.0121(3) -0.33203(10)
H4B H 0.65394(11) 0.0326(3) -0.39495(10)
C6B C 0.54625(11) 0.1718(2) -0.30310(10)
H5B H 0.52957(11) 0.3018(2) -0.34646(10)
C7B C 0.49569(10) 0.1446(2) -0.21115(10)
C8B C 0.41293(11) 0.3150(2) -0.18006(11)
H6B H 0.44917(11) 0.4347(2) -0.13464(11)
H7B H 0.37928(11) 0.3919(2) -0.24366(11)
C9B C 0.32634(10) 0.2019(2) -0.12265(10)
C10B C 0.22139(11) 0.2852(3) -0.13163(11)
H8B H 0.20399(11) 0.4179(3) -0.17297(11)
C11B C 0.14195(11) 0.1762(3) -0.08082(10)
H9B H 0.07081(11) 0.2356(3) -0.08659(10)
C12B C 0.16670(11) -0.0194(3) -0.02160(10)
H10B H 0.11222(11) -0.0962(3) 0.01216(10)
C13B C 0.27131(11) -0.1030(3) -0.01173(10)
H11B H 0.28792(11) -0.2373(3) 0.02881(10)
C14B C 0.35195(10) 0.0076(2) -0.06050(9)
loop_
_geom_bond_atom_site_label_1
_geom_bond_atom_site_label_2
_geom_bond_site_symmetry_1
_geom_bond_site_symmetry_2
C1 H1 1_555 1_555
C2 C1 1_555 1_555
C3 C2 1_555 1_555
H2 C3 1_555 1_555
C4 C3 1_555 1_555
H3 C4 1_555 1_555
C5 C4 1_555 1_555
H4 C5 1_555 1_555
C6 C5 1_555 1_555
H5 C6 1_555 1_555
C7 C2 1_555 1_555
C8 C7 1_555 1_555
H6 C8 1_555 1_555
H7 C8 1_555 1_555
C9 C8 1_555 1_555
C10 C9 1_555 1_555
H8 C10 1_555 1_555
C11 C10 1_555 1_555
H9 C11 1_555 1_555
C12 C11 1_555 1_555
H10 C12 1_555 1_555
C13 C12 1_555 1_555
H11 C13 1_555 1_555
C14 C1 1_555 1_555
C1B C1 1_555 1_555
H1B C1B 1_555 1_555
C2B C1B 1_555 1_555
C3B C2B 1_555 1_555
H2B C3B 1_555 1_555
C4B C3B 1_555 1_555
H3B C4B 1_555 1_555
C5B C4B 1_555 1_555
H4B C5B 1_555 1_555
C6B C5B 1_555 1_555
H5B C6B 1_555 1_555
C7B C2B 1_555 1_555
C8B C7B 1_555 1_555
H6B C8B 1_555 1_555
H7B C8B 1_555 1_555
C9B C8B 1_555 1_555
C10B C9B 1_555 1_555
H8B C10B 1_555 1_555
C11B C10B 1_555 1_555
H9B C11B 1_555 1_555
C12B C11B 1_555 1_555
H10B C12B 1_555 1_555
C13B C12B 1_555 1_555
H11B C13B 1_555 1_555
C14B C1B 1_555 1_555
C6 C7 1_555 1_555
C9 C14 1_555 1_555
C13 C14 1_555 1_555
C6B C7B 1_555 1_555
C9B C14B 1_555 1_555
C13B C14B 1_555 1_555

#END
