
#######################################################################
#
#                 Cambridge Crystallographic Data Centre
#                                CCDC 
#
#######################################################################
#
# If this CIF has been generated from an entry in the Cambridge 
# Structural Database, then it will include bibliographic, chemical, 
# crystal, experimental, refinement or atomic coordinate data resulting 
# from the CCDC's data processing and validation procedures.
#
#######################################################################

data_MURBAC
_chemical_formula_moiety         'C28 H22 N4 O2'
_chemical_name_systematic        
4,4',5,5'-Tetra-amino-9,9'-bianthracenyl-10,10'(9H,9'H)-dione
_symmetry_cell_setting           orthorhombic
_symmetry_space_group_name_H-M   'P c a 21'
_symmetry_Int_Tables_number      29
_space_group_name_Hall           'P 2c -2ac'
loop_
_symmetry_equiv_pos_site_id
_symmetry_equiv_pos_as_xyz
1 x,y,z
2 -x,-y,1/2+z
3 1/2+x,-y,z
4 1/2-x,y,1/2+z
_cell_length_a                   20.5891(4)
_cell_length_b                   9.6376(2)
_cell_length_c                   10.5452(3)
_cell_angle_alpha                90
_cell_angle_beta                 90
_cell_angle_gamma                90
_cell_volume                     2092.48
_exptl_crystal_colour            brown
_exptl_crystal_description       plate
_chemical_melting_point          '185-190 deg.C(dec.)'
_cell_formula_units_Z            4
_chemical_properties_physical    'extremely air-sensitive'
_exptl_crystal_recrystallization_method 'ethyl acetate/hexane'
loop_
_atom_site_label
_atom_site_type_symbol
_atom_site_fract_x
_atom_site_fract_y
_atom_site_fract_z
O1 O 0.37980(11) 0.1156(3) 0.2983(2)
N1 N 0.39045(14) 0.3878(3) 0.3247(3)
H1 H 0.4084 0.4653 0.3515
H2 H 0.4089 0.3075 0.3415
N2 N 0.40274(14) -0.1322(3) 0.1993(3)
H3 H 0.4248 -0.2094 0.1879
H4 H 0.4140 -0.0742 0.2599
C1 C 0.22169(16) 0.4131(4) 0.1080(4)
H5 H 0.1840 0.4213 0.0565
C2 C 0.25042(17) 0.5312(4) 0.1574(4)
H6 H 0.2319 0.6195 0.1401
C3 C 0.30546(18) 0.5223(4) 0.2312(4)
H7 H 0.3245 0.6041 0.2651
C4 C 0.33353(16) 0.3922(4) 0.2563(4)
C5 C 0.35129(15) -0.1027(4) 0.1236(3)
C6 C 0.33474(18) -0.1974(4) 0.0283(4)
H8 H 0.3614 -0.2764 0.0145
C7 C 0.28026(18) -0.1779(4) -0.0463(4)
H9 H 0.2696 -0.2441 -0.1098
C8 C 0.24082(17) -0.0617(4) -0.0287(4)
H10 H 0.2030 -0.0496 -0.0790
C9 C 0.21172(16) 0.1546(3) 0.0906(3)
H11 H 0.1868 0.1769 0.0118
C10 C 0.33470(15) 0.1332(4) 0.2210(3)
C11 C 0.31347(16) 0.0203(4) 0.1362(3)
C12 C 0.25703(15) 0.0359(3) 0.0622(3)
C13 C 0.24718(16) 0.2837(3) 0.1330(3)
C14 C 0.30460(16) 0.2716(3) 0.2054(4)
O2 O 0.00758(11) 0.2420(3) -0.0102(2)
N3 N -0.01019(14) 0.4575(3) 0.1439(3)
H12 H -0.0286 0.5353 0.1689
H13 H -0.0244 0.4148 0.0757
N4 N -0.02271(15) -0.0171(4) -0.0792(3)
H14 H -0.0314 0.0712 -0.0919
H15 H -0.0452 -0.0813 -0.1190
C15 C 0.14398(17) 0.2986(4) 0.3545(3)
H16 H 0.1789 0.2640 0.4041
C16 C 0.11274(18) 0.4204(4) 0.3896(4)
H17 H 0.1265 0.4683 0.4636
C17 C 0.06235(18) 0.4726(4) 0.3190(4)
H18 H 0.0422 0.5570 0.3442
C18 C 0.04010(16) 0.4038(4) 0.2106(4)
C19 C 0.12811(17) -0.1424(4) 0.1591(4)
H19 H 0.1635 -0.1727 0.2099
C20 C 0.08767(18) -0.2395(4) 0.0988(4)
H20 H 0.0949 -0.3358 0.1116
C21 C 0.03815(19) -0.1973(4) 0.0221(4)
H21 H 0.0117 -0.2647 -0.0186
C22 C 0.02554(17) -0.0544(4) 0.0022(4)
C23 C 0.16104(15) 0.1051(4) 0.1979(3)
H22 H 0.1859 0.0628 0.2696
C24 C 0.04618(15) 0.1914(4) 0.0694(3)
C25 C 0.11597(16) -0.0029(3) 0.1438(3)
C26 C 0.06334(16) 0.0440(4) 0.0690(3)
C27 C 0.12418(16) 0.2278(3) 0.2471(3)
C28 C 0.07073(16) 0.2765(3) 0.1754(3)
loop_
_geom_bond_atom_site_label_1
_geom_bond_atom_site_label_2
_geom_bond_site_symmetry_1
_geom_bond_site_symmetry_2
O1 C10 1_555 1_555
N1 H1 1_555 1_555
H2 N1 1_555 1_555
N2 H3 1_555 1_555
H4 N2 1_555 1_555
C1 H5 1_555 1_555
C2 C1 1_555 1_555
H6 C2 1_555 1_555
C3 C2 1_555 1_555
H7 C3 1_555 1_555
C4 N1 1_555 1_555
C5 N2 1_555 1_555
C6 C5 1_555 1_555
H8 C6 1_555 1_555
C7 C6 1_555 1_555
H9 C7 1_555 1_555
C8 C7 1_555 1_555
H10 C8 1_555 1_555
C9 H11 1_555 1_555
C10 C11 1_555 1_555
C11 C5 1_555 1_555
C12 C8 1_555 1_555
C13 C1 1_555 1_555
C14 C4 1_555 1_555
O2 C24 1_555 1_555
N3 H12 1_555 1_555
H13 N3 1_555 1_555
N4 H14 1_555 1_555
H15 N4 1_555 1_555
C15 H16 1_555 1_555
C16 C15 1_555 1_555
H17 C16 1_555 1_555
C17 C16 1_555 1_555
H18 C17 1_555 1_555
C18 N3 1_555 1_555
C19 H19 1_555 1_555
C20 C19 1_555 1_555
H20 C20 1_555 1_555
C21 C20 1_555 1_555
H21 C21 1_555 1_555
C22 N4 1_555 1_555
C23 C9 1_555 1_555
H22 C23 1_555 1_555
C24 C26 1_555 1_555
C25 C19 1_555 1_555
C26 C22 1_555 1_555
C27 C15 1_555 1_555
C28 C18 1_555 1_555
C3 C4 1_555 1_555
C9 C12 1_555 1_555
C9 C13 1_555 1_555
C10 C14 1_555 1_555
C11 C12 1_555 1_555
C13 C14 1_555 1_555
C17 C18 1_555 1_555
C21 C22 1_555 1_555
C23 C25 1_555 1_555
C23 C27 1_555 1_555
C24 C28 1_555 1_555
C25 C26 1_555 1_555
C27 C28 1_555 1_555

#END
