
#######################################################################
#
#                 Cambridge Crystallographic Data Centre
#                                CCDC 
#
#######################################################################
#
# If this CIF has been generated from an entry in the Cambridge 
# Structural Database, then it will include bibliographic, chemical, 
# crystal, experimental, refinement or atomic coordinate data resulting 
# from the CCDC's data processing and validation procedures.
#
#######################################################################

data_MURJUG01
_chemical_formula_moiety         'C28 H34 N4 O4'
_chemical_name_systematic        
5,5'-bis(4-(hexyloxy)phenyl)-2,2'-bi-1,3,4-oxadiazole
_symmetry_cell_setting           triclinic
_symmetry_space_group_name_H-M   'P -1'
_symmetry_Int_Tables_number      2
_space_group_name_Hall           '-P 1'
loop_
_symmetry_equiv_pos_site_id
_symmetry_equiv_pos_as_xyz
1 x,y,z
2 -x,-y,-z
_cell_length_a                   8.134(6)
_cell_length_b                   8.142(7)
_cell_length_c                   10.657(12)
_cell_angle_alpha                110.13(4)
_cell_angle_beta                 93.00(4)
_cell_angle_gamma                98.55(3)
_cell_volume                     651.219
_exptl_crystal_colour            colorless
_exptl_crystal_description       block
_cell_formula_units_Z            1
loop_
_atom_site_label
_atom_site_type_symbol
_atom_site_fract_x
_atom_site_fract_y
_atom_site_fract_z
C1 C 1.42557(18) 0.4385(2) 0.49978(16)
C2 C 1.17214(19) 0.3120(2) 0.44887(16)
C3 C 1.00221(19) 0.2756(2) 0.38536(16)
C4 C 0.8793(2) 0.1504(2) 0.40545(18)
H1 H 0.9064 0.0888 0.4604
C5 C 0.7189(2) 0.1178(2) 0.34458(18)
H2 H 0.6381 0.0337 0.3580
C6 C 0.67684(19) 0.2099(2) 0.26299(18)
C7 C 0.7966(2) 0.3354(2) 0.24346(18)
H3 H 0.7689 0.3980 0.1894
C8 C 0.95798(19) 0.3672(2) 0.30472(17)
H4 H 1.0384 0.4518 0.2915
C9 C 0.4690(2) 0.2562(3) 0.11646(19)
H5 H 0.5400 0.2363 0.0442
H6 H 0.4818 0.3832 0.1647
C10 C 0.2893(2) 0.1796(3) 0.06050(19)
H7 H 0.2211 0.1951 0.1343
H8 H 0.2793 0.0530 0.0117
C11 C 0.2233(2) 0.2656(2) -0.03275(19)
H9 H 0.2356 0.3926 0.0154
H10 H 0.2897 0.2476 -0.1078
C12 C 0.0417(2) 0.1910(2) -0.08603(18)
H11 H 0.0304 0.0643 -0.1349
H12 H -0.0236 0.2067 -0.0105
C13 C -0.0302(2) 0.2747(3) -0.1772(2)
H13 H 0.0328 0.2556 -0.2543
H14 H -0.0157 0.4020 -0.1293
C14 C -0.2136(2) 0.2039(3) -0.2270(2)
H15 H -0.2287 0.0792 -0.2789
H16 H -0.2512 0.2657 -0.2821
H17 H -0.2773 0.2220 -0.1515
N1 N 1.40635(17) 0.32697(19) 0.56023(16)
N2 N 1.23859(16) 0.24227(19) 0.52613(15)
O1 O 1.28471(12) 0.43888(14) 0.42632(11)
O2 O 0.51523(14) 0.16827(17) 0.20649(13)
C1A C 1.57443(18) 0.5615(2) 0.50022(16)
C2A C 1.82786(19) 0.6880(2) 0.55113(16)
C3A C 1.99779(19) 0.7244(2) 0.61464(16)
C4A C 2.1207(2) 0.8496(2) 0.59455(18)
H1A H 2.0936 0.9112 0.5396
C5A C 2.2811(2) 0.8822(2) 0.65542(18)
H2A H 2.3619 0.9663 0.6420
C6A C 2.32316(19) 0.7901(2) 0.73701(18)
C7A C 2.2034(2) 0.6646(2) 0.75654(18)
H3A H 2.2311 0.6020 0.8106
C8A C 2.04202(19) 0.6328(2) 0.69528(17)
H4A H 1.9616 0.5482 0.7085
C9A C 2.5310(2) 0.7438(3) 0.88354(19)
H5A H 2.4600 0.7637 0.9558
H6A H 2.5182 0.6168 0.8353
C10A C 2.7107(2) 0.8204(3) 0.93950(19)
H7A H 2.7789 0.8049 0.8657
H8A H 2.7207 0.9470 0.9883
C11A C 2.7767(2) 0.7344(2) 1.03275(19)
H9A H 2.7644 0.6074 0.9846
H10A H 2.7103 0.7524 1.1078
C12A C 2.9583(2) 0.8090(2) 1.08603(18)
H11A H 2.9696 0.9357 1.1349
H12A H 3.0236 0.7933 1.0105
C13A C 3.0302(2) 0.7253(3) 1.1772(2)
H13A H 2.9672 0.7444 1.2543
H14A H 3.0157 0.5980 1.1293
C14A C 3.2136(2) 0.7961(3) 1.2270(2)
H15A H 3.2287 0.9208 1.2789
H16A H 3.2512 0.7343 1.2821
H17A H 3.2773 0.7780 1.1515
N1A N 1.59365(17) 0.67303(19) 0.43977(16)
N2A N 1.76141(16) 0.75773(19) 0.47387(15)
O1A O 1.71529(12) 0.56112(14) 0.57368(11)
O2A O 2.48477(14) 0.83173(17) 0.79351(13)
loop_
_geom_bond_atom_site_label_1
_geom_bond_atom_site_label_2
_geom_bond_site_symmetry_1
_geom_bond_site_symmetry_2
C1 N1 1_555 1_555
C2 C3 1_555 1_555
C3 C4 1_555 1_555
C4 H1 1_555 1_555
C5 C4 1_555 1_555
H2 C5 1_555 1_555
C6 C5 1_555 1_555
C7 C6 1_555 1_555
H3 C7 1_555 1_555
C8 C3 1_555 1_555
H4 C8 1_555 1_555
C9 H5 1_555 1_555
H6 C9 1_555 1_555
C10 C9 1_555 1_555
H7 C10 1_555 1_555
H8 C10 1_555 1_555
C11 C10 1_555 1_555
H9 C11 1_555 1_555
H10 C11 1_555 1_555
C12 C11 1_555 1_555
H11 C12 1_555 1_555
H12 C12 1_555 1_555
C13 C12 1_555 1_555
H13 C13 1_555 1_555
H14 C13 1_555 1_555
C14 C13 1_555 1_555
H15 C14 1_555 1_555
H16 C14 1_555 1_555
H17 C14 1_555 1_555
N1 N2 1_555 1_555
N2 C2 1_555 1_555
O1 C1 1_555 1_555
O2 C6 1_555 1_555
C1A C1 1_555 1_555
C2A C3A 1_555 1_555
C3A C4A 1_555 1_555
C4A H1A 1_555 1_555
C5A C4A 1_555 1_555
H2A C5A 1_555 1_555
C6A C5A 1_555 1_555
C7A C6A 1_555 1_555
H3A C7A 1_555 1_555
C8A C3A 1_555 1_555
H4A C8A 1_555 1_555
C9A H5A 1_555 1_555
H6A C9A 1_555 1_555
C10A C9A 1_555 1_555
H7A C10A 1_555 1_555
H8A C10A 1_555 1_555
C11A C10A 1_555 1_555
H9A C11A 1_555 1_555
H10A C11A 1_555 1_555
C12A C11A 1_555 1_555
H11A C12A 1_555 1_555
H12A C12A 1_555 1_555
C13A C12A 1_555 1_555
H13A C13A 1_555 1_555
H14A C13A 1_555 1_555
C14A C13A 1_555 1_555
H15A C14A 1_555 1_555
H16A C14A 1_555 1_555
H17A C14A 1_555 1_555
N1A C1A 1_555 1_555
N2A C2A 1_555 1_555
O1A C1A 1_555 1_555
O2A C6A 1_555 1_555
C2 O1 1_555 1_555
C7 C8 1_555 1_555
C9 O2 1_555 1_555
C2A O1A 1_555 1_555
C7A C8A 1_555 1_555
C9A O2A 1_555 1_555
N1A N2A 1_555 1_555

#END
