
#######################################################################
#
#                 Cambridge Crystallographic Data Centre
#                                CCDC 
#
#######################################################################
#
# If this CIF has been generated from an entry in the Cambridge 
# Structural Database, then it will include bibliographic, chemical, 
# crystal, experimental, refinement or atomic coordinate data resulting 
# from the CCDC's data processing and validation procedures.
#
#######################################################################

data_MURRIC
_chemical_formula_moiety         'C24 H21 Br1 O6'
_chemical_name_systematic        
'dimethyl 7-(4-bromophenyl)-1-oxo-3-phenyl-4a,5,7,7a-tetrahydrocyclopenta[c]pyran-6,6(1H)-dicarboxylate'
_symmetry_cell_setting           orthorhombic
_symmetry_space_group_name_H-M   'P 21 21 21'
_symmetry_Int_Tables_number      19
_space_group_name_Hall           'P 2ac 2ab'
loop_
_symmetry_equiv_pos_site_id
_symmetry_equiv_pos_as_xyz
1 x,y,z
2 1/2-x,-y,1/2+z
3 -x,1/2+y,1/2-z
4 1/2+x,1/2-y,-z
_cell_length_a                   6.625(3)
_cell_length_b                   10.223(4)
_cell_length_c                   31.029(12)
_cell_angle_alpha                90
_cell_angle_beta                 90
_cell_angle_gamma                90
_cell_volume                     2101.51
_exptl_crystal_colour            colorless
_exptl_crystal_description       block
_cell_formula_units_Z            4
loop_
_atom_site_label
_atom_site_type_symbol
_atom_site_fract_x
_atom_site_fract_y
_atom_site_fract_z
Br1 Br 0.40814(12) 1.09396(7) 0.60676(3)
O1 O 0.6316(7) 0.5328(5) 0.52727(16)
O2 O 0.9334(7) 0.6329(5) 0.52395(14)
O3 O 1.1997(7) 0.3895(6) 0.59597(16)
O4 O 1.0436(8) 0.3633(5) 0.53196(15)
O5 O 1.2565(8) 0.5604(5) 0.68367(17)
O6 O 1.1643(7) 0.3571(5) 0.69348(16)
C1 C 0.8776(10) 0.4932(6) 0.5834(2)
C2 C 0.9363(10) 0.5952(7) 0.61881(19)
H1 H 1.0775 0.6208 0.6147
C3 C 0.9183(11) 0.5155(6) 0.66203(19)
H2 H 0.8544 0.5732 0.6833
C4 C 0.7688(10) 0.4005(7) 0.65342(19)
H3 H 0.6446 0.4183 0.6695
C5 C 0.7171(9) 0.4056(7) 0.6046(2)
H4 H 0.7206 0.3184 0.5923
H5 H 0.5834 0.4420 0.6003
C6 C 0.7960(10) 0.5543(7) 0.5418(2)
C7 C 0.8785(14) 0.6904(8) 0.4826(2)
H6 H 0.8445 0.6221 0.4626
H7 H 0.9904 0.7398 0.4716
H8 H 0.7644 0.7472 0.4863
C8 C 1.0612(10) 0.4102(7) 0.5720(2)
C9 C 1.2190(12) 0.2934(8) 0.5158(3)
H9 H 1.2069 0.2822 0.4852
H10 H 1.2270 0.2092 0.5294
H11 H 1.3389 0.3425 0.5221
C10 C 0.8068(10) 0.7161(7) 0.61781(19)
C11 C 0.8816(11) 0.8310(6) 0.5994(2)
H12 H 1.0121 0.8320 0.5884
C12 C 0.7662(10) 0.9429(7) 0.5972(2)
H13 H 0.8209 1.0190 0.5857
C13 C 0.5702(10) 0.9426(7) 0.6120(2)
C14 C 0.4929(11) 0.8317(7) 0.6319(2)
H14 H 0.3631 0.8322 0.6433
C15 C 0.6121(11) 0.7193(7) 0.6345(2)
H15 H 0.5600 0.6449 0.6477
C16 C 1.1250(11) 0.4809(7) 0.6793(2)
C17 C 1.0284(10) 0.2545(7) 0.6869(2)
C18 C 0.8484(11) 0.2717(7) 0.6681(2)
H16 H 0.7677 0.1984 0.6639
C19 C 1.1079(12) 0.1304(7) 0.7045(2)
C20 C 1.3020(12) 0.1256(8) 0.7228(2)
H17 H 1.3762 0.2023 0.7256
C21 C 1.3845(13) 0.0083(9) 0.7367(2)
H18 H 1.5121 0.0066 0.7492
C22 C 1.2752(13) -0.1060(9) 0.7319(2)
H19 H 1.3327 -0.1851 0.7401
C23 C 1.0813(13) -0.1048(8) 0.7150(2)
H20 H 1.0076 -0.1819 0.7126
C24 C 0.9983(12) 0.0146(7) 0.7016(2)
H21 H 0.8678 0.0165 0.6905
loop_
_geom_bond_atom_site_label_1
_geom_bond_atom_site_label_2
_geom_bond_site_symmetry_1
_geom_bond_site_symmetry_2
Br1 C13 1_555 1_555
O1 C6 1_555 1_555
O2 C6 1_555 1_555
O3 C8 1_555 1_555
O4 C8 1_555 1_555
O5 C16 1_555 1_555
O6 C16 1_555 1_555
C1 C2 1_555 1_555
C2 H1 1_555 1_555
C3 C2 1_555 1_555
H2 C3 1_555 1_555
C4 C3 1_555 1_555
H3 C4 1_555 1_555
C5 C1 1_555 1_555
H4 C5 1_555 1_555
H5 C5 1_555 1_555
C6 C1 1_555 1_555
C7 O2 1_555 1_555
H6 C7 1_555 1_555
H7 C7 1_555 1_555
H8 C7 1_555 1_555
C8 C1 1_555 1_555
C9 O4 1_555 1_555
H9 C9 1_555 1_555
H10 C9 1_555 1_555
H11 C9 1_555 1_555
C10 C2 1_555 1_555
C11 C10 1_555 1_555
H12 C11 1_555 1_555
C12 C11 1_555 1_555
H13 C12 1_555 1_555
C13 C12 1_555 1_555
C14 C13 1_555 1_555
H14 C14 1_555 1_555
C15 C10 1_555 1_555
H15 C15 1_555 1_555
C16 C3 1_555 1_555
C17 O6 1_555 1_555
C18 C4 1_555 1_555
H16 C18 1_555 1_555
C19 C17 1_555 1_555
C20 C19 1_555 1_555
H17 C20 1_555 1_555
C21 C20 1_555 1_555
H18 C21 1_555 1_555
C22 C21 1_555 1_555
H19 C22 1_555 1_555
C23 C22 1_555 1_555
H20 C23 1_555 1_555
C24 C19 1_555 1_555
H21 C24 1_555 1_555
C4 C5 1_555 1_555
C14 C15 1_555 1_555
C17 C18 1_555 1_555
C23 C24 1_555 1_555

#END
