
#######################################################################
#
#                 Cambridge Crystallographic Data Centre
#                                CCDC 
#
#######################################################################
#
# If this CIF has been generated from an entry in the Cambridge 
# Structural Database, then it will include bibliographic, chemical, 
# crystal, experimental, refinement or atomic coordinate data resulting 
# from the CCDC's data processing and validation procedures.
#
#######################################################################

data_MURSAV
_chemical_formula_moiety         'C13 H18 N2 O1'
_chemical_name_systematic        3-(benzylamino)azepan-2-one
_symmetry_cell_setting           orthorhombic
_symmetry_space_group_name_H-M   'P b c a'
_symmetry_Int_Tables_number      61
_space_group_name_Hall           '-P 2ac 2ab'
loop_
_symmetry_equiv_pos_site_id
_symmetry_equiv_pos_as_xyz
1 x,y,z
2 1/2-x,-y,1/2+z
3 -x,1/2+y,1/2-z
4 1/2+x,1/2-y,-z
5 -x,-y,-z
6 1/2+x,y,1/2-z
7 x,1/2-y,1/2+z
8 1/2-x,1/2+y,z
_cell_length_a                   9.933(2)
_cell_length_b                   9.941(2)
_cell_length_c                   23.754(5)
_cell_angle_alpha                90
_cell_angle_beta                 90
_cell_angle_gamma                90
_cell_volume                     2345.56
_exptl_crystal_colour            colorless
_exptl_crystal_description       block
_cell_formula_units_Z            8
loop_
_atom_site_label
_atom_site_type_symbol
_atom_site_fract_x
_atom_site_fract_y
_atom_site_fract_z
O1 O 0.5616(2) 0.1616(2) 0.52009(9)
N1 N 0.4123(2) 0.1245(2) 0.42826(10)
H1 H 0.4492 0.0557 0.4474
C1 C 0.5408(4) 0.0921(4) 0.29585(13)
H2 H 0.5187 0.1826 0.2923
N2 N 0.6849(3) 0.3305(3) 0.48502(10)
H3 H 0.7216 0.3401 0.5176
C2 C 0.6398(5) 0.0382(4) 0.26205(15)
H4 H 0.6854 0.0922 0.2364
C3 C 0.6705(4) -0.0960(5) 0.26661(15)
H5 H 0.7372 -0.1330 0.2439
C4 C 0.6036(4) -0.1762(4) 0.30444(15)
H6 H 0.6233 -0.2675 0.3068
C5 C 0.5077(4) -0.1205(4) 0.33873(13)
H7 H 0.4645 -0.1743 0.3652
C6 C 0.4739(3) 0.0137(3) 0.33489(13)
C7 C 0.3685(3) 0.0733(3) 0.37303(13)
H8 H 0.3256 0.1468 0.3530
H9 H 0.3002 0.0053 0.3795
C8 C 0.5116(3) 0.2330(3) 0.42583(12)
H10 H 0.5758 0.2131 0.3956
C9 C 0.4403(3) 0.3651(3) 0.41211(13)
H11 H 0.3652 0.3455 0.3873
H12 H 0.4034 0.4013 0.4468
C10 C 0.5258(3) 0.4735(3) 0.38468(15)
H13 H 0.4683 0.5491 0.3753
H14 H 0.5620 0.4383 0.3497
C11 C 0.6422(3) 0.5240(3) 0.42087(14)
H15 H 0.6930 0.5898 0.3994
H16 H 0.6056 0.5694 0.4536
C12 C 0.7365(3) 0.4158(3) 0.44035(12)
H17 H 0.7592 0.3595 0.4084
H18 H 0.8191 0.4577 0.4533
C13 C 0.5881(3) 0.2400(3) 0.48145(13)
loop_
_geom_bond_atom_site_label_1
_geom_bond_atom_site_label_2
_geom_bond_site_symmetry_1
_geom_bond_site_symmetry_2
O1 C13 1_555 1_555
N1 H1 1_555 1_555
C1 H2 1_555 1_555
N2 H3 1_555 1_555
C2 C1 1_555 1_555
H4 C2 1_555 1_555
C3 C2 1_555 1_555
H5 C3 1_555 1_555
C4 C3 1_555 1_555
H6 C4 1_555 1_555
C5 C4 1_555 1_555
H7 C5 1_555 1_555
C6 C1 1_555 1_555
C7 N1 1_555 1_555
H8 C7 1_555 1_555
H9 C7 1_555 1_555
C8 N1 1_555 1_555
H10 C8 1_555 1_555
C9 C8 1_555 1_555
H11 C9 1_555 1_555
H12 C9 1_555 1_555
C10 C9 1_555 1_555
H13 C10 1_555 1_555
H14 C10 1_555 1_555
C11 C10 1_555 1_555
H15 C11 1_555 1_555
H16 C11 1_555 1_555
C12 N2 1_555 1_555
H17 C12 1_555 1_555
H18 C12 1_555 1_555
C13 N2 1_555 1_555
C5 C6 1_555 1_555
C6 C7 1_555 1_555
C8 C13 1_555 1_555
C11 C12 1_555 1_555

#END
