
#######################################################################
#
#                 Cambridge Crystallographic Data Centre
#                                CCDC 
#
#######################################################################
#
# If this CIF has been generated from an entry in the Cambridge 
# Structural Database, then it will include bibliographic, chemical, 
# crystal, experimental, refinement or atomic coordinate data resulting 
# from the CCDC's data processing and validation procedures.
#
#######################################################################

data_MUSBOT
_chemical_formula_moiety         'C20 H16 Br2 O4'
_chemical_name_systematic        
3,3'-Dibromo-2,2'-dihydroxy-7,7',8,8'-tetrahydro-1,1'-binaphthalene-5,5'(6H,6'H)-dione
_symmetry_cell_setting           orthorhombic
_symmetry_space_group_name_H-M   'P 21 21 21'
_symmetry_Int_Tables_number      19
_space_group_name_Hall           'P 2ac 2ab'
loop_
_symmetry_equiv_pos_site_id
_symmetry_equiv_pos_as_xyz
1 x,y,z
2 1/2-x,-y,1/2+z
3 -x,1/2+y,1/2-z
4 1/2+x,1/2-y,-z
_cell_length_a                   16.919(3)
_cell_length_b                   8.8800(18)
_cell_length_c                   11.919(2)
_cell_angle_alpha                90
_cell_angle_beta                 90
_cell_angle_gamma                90
_cell_volume                     1790.72
_exptl_crystal_description       block
_cell_formula_units_Z            4
loop_
_atom_site_label
_atom_site_type_symbol
_atom_site_fract_x
_atom_site_fract_y
_atom_site_fract_z
Br1 Br 0.43562(13) 0.3642(2) 0.55175(13)
O1 O 0.4682(5) 0.8850(12) 0.3129(8)
C1 C 0.3581(8) 0.5637(16) 0.2091(10)
Br2 Br 0.35654(12) 0.1677(3) -0.17294(14)
O2 O 0.3531(6) 0.2063(11) 0.3530(7)
H1 H 0.3776 0.1812 0.4124
C2 C 0.3251(10) 0.635(2) 0.1002(12)
H2 H 0.3607 0.6111 0.0388
H3 H 0.2744 0.5889 0.0834
O3 O 0.0903(6) -0.0066(13) 0.0376(9)
C3 C 0.3149(12) 0.7971(19) 0.1053(14)
H4 H 0.2662 0.8179 0.1455
H5 H 0.3083 0.8341 0.0294
O4 O 0.4191(6) 0.3227(11) 0.0277(7)
H6 H 0.4431 0.3349 0.0867
C4 C 0.3804(10) 0.886(2) 0.1600(13)
H7 H 0.3592 0.9820 0.1844
H8 H 0.4206 0.9065 0.1041
C5 C 0.4193(9) 0.8108(17) 0.2593(11)
C6 C 0.3983(7) 0.6574(16) 0.2845(10)
C7 C 0.4219(8) 0.5922(15) 0.3872(11)
H9 H 0.4485 0.6507 0.4397
C8 C 0.4069(8) 0.4505(16) 0.4098(11)
C9 C 0.3687(8) 0.3535(15) 0.3338(11)
C10 C 0.3426(9) 0.4162(17) 0.2319(12)
C11 C 0.3006(9) 0.3108(16) 0.1508(10)
C12 C 0.2295(9) 0.2609(16) 0.1650(12)
C13 C 0.1780(9) 0.2994(19) 0.2646(12)
H10 H 0.1909 0.4007 0.2891
H11 H 0.1910 0.2314 0.3256
C14 C 0.0881(10) 0.2908(19) 0.2429(14)
H12 H 0.0605 0.2966 0.3141
H13 H 0.0723 0.3770 0.1983
C15 C 0.0654(9) 0.1600(18) 0.1879(11)
H14 H 0.0128 0.1768 0.1581
H15 H 0.0610 0.0813 0.2439
C16 C 0.1137(11) 0.101(2) 0.0970(14)
C17 C 0.1927(9) 0.1655(18) 0.0786(11)
C18 C 0.2339(10) 0.1421(18) -0.0145(10)
H16 H 0.2115 0.0812 -0.0695
C19 C 0.3031(10) 0.1984(18) -0.0339(11)
C20 C 0.3429(10) 0.2789(16) 0.0504(13)
loop_
_geom_bond_atom_site_label_1
_geom_bond_atom_site_label_2
_geom_bond_site_symmetry_1
_geom_bond_site_symmetry_2
Br1 C8 1_555 1_555
O1 C5 1_555 1_555
C1 C2 1_555 1_555
Br2 C19 1_555 1_555
O2 H1 1_555 1_555
C2 H2 1_555 1_555
H3 C2 1_555 1_555
O3 C16 1_555 1_555
C3 C2 1_555 1_555
H4 C3 1_555 1_555
H5 C3 1_555 1_555
O4 H6 1_555 1_555
C4 C3 1_555 1_555
H7 C4 1_555 1_555
H8 C4 1_555 1_555
C5 C4 1_555 1_555
C6 C1 1_555 1_555
C7 C6 1_555 1_555
H9 C7 1_555 1_555
C8 C7 1_555 1_555
C9 O2 1_555 1_555
C10 C1 1_555 1_555
C11 C10 1_555 1_555
C12 C11 1_555 1_555
C13 C12 1_555 1_555
H10 C13 1_555 1_555
H11 C13 1_555 1_555
C14 C13 1_555 1_555
H12 C14 1_555 1_555
H13 C14 1_555 1_555
C15 C14 1_555 1_555
H14 C15 1_555 1_555
H15 C15 1_555 1_555
C16 C15 1_555 1_555
C17 C12 1_555 1_555
C18 C17 1_555 1_555
H16 C18 1_555 1_555
C19 C18 1_555 1_555
C20 O4 1_555 1_555
C5 C6 1_555 1_555
C8 C9 1_555 1_555
C9 C10 1_555 1_555
C11 C20 1_555 1_555
C16 C17 1_555 1_555
C19 C20 1_555 1_555

#END
