
#######################################################################
#
#                 Cambridge Crystallographic Data Centre
#                                CCDC 
#
#######################################################################
#
# If this CIF has been generated from an entry in the Cambridge 
# Structural Database, then it will include bibliographic, chemical, 
# crystal, experimental, refinement or atomic coordinate data resulting 
# from the CCDC's data processing and validation procedures.
#
#######################################################################

data_MUSCEK
_chemical_formula_moiety         'C21 H25 N1 O4 S1'
_chemical_name_systematic        
't-butyl 2-oxo-5-(2-(3-oxocyclohex-1-en-1-yl)-1-(3-thienyl)ethyl)-2,5-dihydro-1H-pyrrole-1-carboxylate'
_symmetry_cell_setting           monoclinic
_symmetry_space_group_name_H-M   'P 21'
_symmetry_Int_Tables_number      4
_space_group_name_Hall           'P 2yb'
loop_
_symmetry_equiv_pos_site_id
_symmetry_equiv_pos_as_xyz
1 x,y,z
2 -x,1/2+y,-z
_cell_length_a                   8.7073(17)
_cell_length_b                   10.752(2)
_cell_length_c                   10.999(2)
_cell_angle_alpha                90
_cell_angle_beta                 96.227(5)
_cell_angle_gamma                90
_cell_volume                     1023.66
_exptl_crystal_colour            colorless
_exptl_crystal_description       prismatic
_cell_formula_units_Z            2
loop_
_atom_site_label
_atom_site_type_symbol
_atom_site_fract_x
_atom_site_fract_y
_atom_site_fract_z
N1 N 0.4650(7) 0.2506(6) 0.3111(6)
O1 O 0.5875(11) 0.0718(8) 0.2490(11)
O2 O -0.1989(8) 0.6055(8) 0.0836(6)
O3 O 0.3365(9) 0.0855(6) 0.3843(7)
O4 O 0.2886(7) 0.2838(5) 0.4374(5)
C1 C 0.5758(10) 0.1847(9) 0.2526(10)
C2 C 0.6723(10) 0.2797(9) 0.2047(11)
H1 H 0.7550 0.2638 0.1601
C3 C 0.6256(8) 0.3916(8) 0.2335(8)
H2 H 0.6735 0.4651 0.2140
C4 C 0.4872(8) 0.3854(6) 0.3008(7)
H3 H 0.5122 0.4208 0.3827
C5 C 0.3458(7) 0.4544(6) 0.2349(6)
C6 C 0.3051(9) 0.4085(8) 0.1056(6)
H4 H 0.3080 0.3184 0.1068
H5 H 0.3851 0.4363 0.0569
C7 C 0.1507(8) 0.4482(7) 0.0411(6)
C8 C 0.1246(11) 0.4164(10) -0.0906(7)
H6 H 0.1684 0.3351 -0.1033
H7 H 0.1776 0.4765 -0.1369
C9 C -0.0449(11) 0.4152(13) -0.1379(8)
H8 H -0.0935 0.3432 -0.1051
H9 H -0.0554 0.4075 -0.2263
C10 C -0.1275(12) 0.5316(12) -0.1033(9)
H10 H -0.0883 0.6029 -0.1443
H11 H -0.2371 0.5241 -0.1295
C11 C -0.1033(9) 0.5506(7) 0.0313(7)
C12 C 0.0423(10) 0.5082(8) 0.0938(6)
H12 H 0.0612 0.5241 0.1772
S1 S 0.4658(5) 0.8081(4) 0.1687(4)
C13 C 0.376(3) 0.5908(12) 0.235(2)
C14 C 0.436(2) 0.6496(12) 0.1370(16)
H13 H 0.4565 0.6103 0.0653
C15 C 0.400(2) 0.7959(19) 0.3085(19)
C16 C 0.358(3) 0.6776(17) 0.3295(19)
H14 H 0.3200 0.6544 0.4019
C17 C 0.3590(9) 0.1960(7) 0.3776(7)
C18 C 0.1511(11) 0.2561(10) 0.4993(7)
C19 C 0.0216(12) 0.2081(14) 0.3980(9)
H15 H 0.0082 0.2673 0.3323
H16 H -0.0740 0.1986 0.4331
H17 H 0.0521 0.1294 0.3670
C20 C 0.1137(17) 0.3825(15) 0.5449(12)
H18 H 0.1990 0.4126 0.5996
H19 H 0.0232 0.3777 0.5874
H20 H 0.0948 0.4385 0.4769
C21 C 0.1846(16) 0.1619(15) 0.5991(9)
H21 H 0.1876 0.0804 0.5639
H22 H 0.1051 0.1650 0.6530
H23 H 0.2826 0.1801 0.6443
H24 H 0.264(4) 0.434(5) 0.290(4)
H25 H 0.3932 0.8616 0.3627
S2? S 0.3605(9) 0.7984(6) 0.3786(8)
C22? C 0.366(8) 0.595(3) 0.247(7)
C23? C 0.335(3) 0.6434(18) 0.363(3)
H26? H 0.3043 0.5934 0.4250
C24? C 0.437(2) 0.807(2) 0.238(2)
H27? H 0.4804 0.8785 0.2079
C25? C 0.425(3) 0.682(2) 0.171(3)
H28? H 0.4521 0.6674 0.0927
loop_
_geom_bond_atom_site_label_1
_geom_bond_atom_site_label_2
_geom_bond_site_symmetry_1
_geom_bond_site_symmetry_2
N1 C1 1_555 1_555
O1 C1 1_555 1_555
O2 C11 1_555 1_555
O3 C17 1_555 1_555
O4 C17 1_555 1_555
C1 C2 1_555 1_555
C2 H1 1_555 1_555
C3 C2 1_555 1_555
H2 C3 1_555 1_555
C4 N1 1_555 1_555
H3 C4 1_555 1_555
C5 C4 1_555 1_555
C6 C5 1_555 1_555
H4 C6 1_555 1_555
H5 C6 1_555 1_555
C7 C6 1_555 1_555
C8 C7 1_555 1_555
H6 C8 1_555 1_555
H7 C8 1_555 1_555
C9 C8 1_555 1_555
H8 C9 1_555 1_555
H9 C9 1_555 1_555
C10 C9 1_555 1_555
H10 C10 1_555 1_555
H11 C10 1_555 1_555
C11 C10 1_555 1_555
C12 C7 1_555 1_555
H12 C12 1_555 1_555
S1 C14 1_555 1_555
C13 C5 1_555 1_555
C14 C13 1_555 1_555
H13 C14 1_555 1_555
C15 S1 1_555 1_555
C16 C13 1_555 1_555
H14 C16 1_555 1_555
C17 N1 1_555 1_555
C18 O4 1_555 1_555
C19 C18 1_555 1_555
H15 C19 1_555 1_555
H16 C19 1_555 1_555
H17 C19 1_555 1_555
C20 C18 1_555 1_555
H18 C20 1_555 1_555
H19 C20 1_555 1_555
H20 C20 1_555 1_555
C21 C18 1_555 1_555
H21 C21 1_555 1_555
H22 C21 1_555 1_555
H23 C21 1_555 1_555
H24 C5 1_555 1_555
H25 C15 1_555 1_555
C3 C4 1_555 1_555
C11 C12 1_555 1_555
C15 C16 1_555 1_555

#END
