
#######################################################################
#
#                 Cambridge Crystallographic Data Centre
#                                CCDC 
#
#######################################################################
#
# If this CIF has been generated from an entry in the Cambridge 
# Structural Database, then it will include bibliographic, chemical, 
# crystal, experimental, refinement or atomic coordinate data resulting 
# from the CCDC's data processing and validation procedures.
#
#######################################################################

data_MUSGUE
_chemical_formula_moiety         'C32 H26 O4'
_chemical_name_systematic        
2,2'-dihydroxy-3,3'-diphenyl-7,7',8,8'-tetrahydro-1,1'-binaphthalene-5,5'(6H,6'H)-dione
_symmetry_cell_setting           monoclinic
_symmetry_space_group_name_H-M   'P 21/n'
_symmetry_Int_Tables_number      14
_space_group_name_Hall           '-P 2yn'
loop_
_symmetry_equiv_pos_site_id
_symmetry_equiv_pos_as_xyz
1 x,y,z
2 1/2-x,1/2+y,1/2-z
3 -x,-y,-z
4 1/2+x,1/2-y,1/2+z
_cell_length_a                   11.805(2)
_cell_length_b                   14.050(3)
_cell_length_c                   15.310(3)
_cell_angle_alpha                90
_cell_angle_beta                 112.52(3)
_cell_angle_gamma                90
_cell_volume                     2345.69
_exptl_crystal_description       block
_cell_formula_units_Z            4
loop_
_atom_site_label
_atom_site_type_symbol
_atom_site_fract_x
_atom_site_fract_y
_atom_site_fract_z
O1 O -0.1755(3) 0.0512(2) 0.6826(2)
H1 H -0.2257 0.0092 0.6574
C1 C -0.0720(4) 0.0356(3) 0.6654(3)
O2 O 0.2491(3) -0.0729(2) 0.5574(3)
C2 C -0.0058(4) 0.1165(3) 0.6623(3)
O3 O -0.1210(3) 0.2414(2) 0.5107(2)
H2 H -0.1596 0.1914 0.5012
C3 C 0.1014(4) 0.1064(3) 0.6442(3)
O4 O -0.1116(3) 0.4487(2) 0.8755(2)
C4 C 0.1816(4) 0.1899(3) 0.6481(4)
H3 H 0.1457 0.2258 0.5898
H4 H 0.1844 0.2311 0.6997
C5 C 0.3090(5) 0.1622(4) 0.6616(5)
H5 H 0.3510 0.2176 0.6508
H6 H 0.3522 0.1424 0.7266
C6 C 0.3153(5) 0.0853(4) 0.5988(5)
H7 H 0.3993 0.0629 0.6206
H8 H 0.2946 0.1114 0.5359
C7 C 0.2350(5) 0.0030(4) 0.5918(4)
C8 C 0.1333(5) 0.0155(3) 0.6234(3)
C9 C 0.0681(4) -0.0630(3) 0.6319(3)
H9 H 0.0926 -0.1228 0.6197
C10 C -0.0316(4) -0.0573(3) 0.6575(3)
C11 C -0.0857(4) -0.1469(3) 0.6787(3)
C12 C -0.1150(4) -0.1522(3) 0.7552(4)
H10 H -0.1129 -0.0975 0.7899
C13 C -0.1483(5) -0.2374(4) 0.7828(4)
H11 H -0.1678 -0.2397 0.8361
C14 C -0.1527(5) -0.3192(4) 0.7321(4)
H12 H -0.1770 -0.3766 0.7498
C15 C -0.1206(5) -0.3143(3) 0.6547(4)
H13 H -0.1224 -0.3691 0.6200
C16 C -0.0856(4) -0.2283(3) 0.6281(3)
H14 H -0.0622 -0.2255 0.5767
C17 C -0.1001(4) 0.2728(3) 0.5992(3)
C18 C -0.0481(4) 0.2133(3) 0.6765(3)
C19 C -0.0302(4) 0.2456(3) 0.7678(3)
C20 C 0.0236(5) 0.1836(3) 0.8501(3)
H15 H -0.0271 0.1271 0.8403
H16 H 0.1038 0.1633 0.8536
C21 C 0.0367(7) 0.2242(5) 0.9372(5)
H17 H 0.0030 0.1778 0.9676
H18 H 0.1243 0.2255 0.9741
C22 C -0.0070(6) 0.3118(4) 0.9528(4)
H19 H 0.0609 0.3466 0.9984
H20 H -0.0664 0.3005 0.9812
C23 C -0.0651(5) 0.3732(4) 0.8685(4)
C24 C -0.0674(4) 0.3377(3) 0.7772(3)
C25 C -0.1157(4) 0.3963(3) 0.6983(3)
H21 H -0.1369 0.4584 0.7066
C26 C -0.1334(4) 0.3661(3) 0.6085(4)
C27 C -0.1870(4) 0.4335(3) 0.5268(3)
C28 C -0.1410(5) 0.4411(3) 0.4596(4)
H22 H -0.0766 0.4018 0.4617
C29 C -0.1882(7) 0.5071(5) 0.3867(4)
H23 H -0.1540 0.5127 0.3414
C30 C -0.2839(7) 0.5631(4) 0.3816(5)
H24 H -0.3157 0.6069 0.3328
C31 C -0.3328(6) 0.5550(4) 0.4479(4)
H25 H -0.3987 0.5934 0.4442
C32 C -0.2857(5) 0.4899(3) 0.5216(4)
H26 H -0.3200 0.4843 0.5668
loop_
_geom_bond_atom_site_label_1
_geom_bond_atom_site_label_2
_geom_bond_site_symmetry_1
_geom_bond_site_symmetry_2
O1 H1 1_555 1_555
C1 O1 1_555 1_555
O2 C7 1_555 1_555
C2 C1 1_555 1_555
O3 H2 1_555 1_555
C3 C2 1_555 1_555
O4 C23 1_555 1_555
C4 C3 1_555 1_555
H3 C4 1_555 1_555
H4 C4 1_555 1_555
C5 C4 1_555 1_555
H5 C5 1_555 1_555
H6 C5 1_555 1_555
C6 C5 1_555 1_555
H7 C6 1_555 1_555
H8 C6 1_555 1_555
C7 C6 1_555 1_555
C8 C3 1_555 1_555
C9 C8 1_555 1_555
H9 C9 1_555 1_555
C10 C1 1_555 1_555
C11 C10 1_555 1_555
C12 C11 1_555 1_555
H10 C12 1_555 1_555
C13 C12 1_555 1_555
H11 C13 1_555 1_555
C14 C13 1_555 1_555
H12 C14 1_555 1_555
C15 C14 1_555 1_555
H13 C15 1_555 1_555
C16 C11 1_555 1_555
H14 C16 1_555 1_555
C17 O3 1_555 1_555
C18 C2 1_555 1_555
C19 C18 1_555 1_555
C20 C19 1_555 1_555
H15 C20 1_555 1_555
H16 C20 1_555 1_555
C21 C20 1_555 1_555
H17 C21 1_555 1_555
H18 C21 1_555 1_555
C22 C21 1_555 1_555
H19 C22 1_555 1_555
H20 C22 1_555 1_555
C23 C22 1_555 1_555
C24 C19 1_555 1_555
C25 C24 1_555 1_555
H21 C25 1_555 1_555
C26 C17 1_555 1_555
C27 C26 1_555 1_555
C28 C27 1_555 1_555
H22 C28 1_555 1_555
C29 C28 1_555 1_555
H23 C29 1_555 1_555
C30 C29 1_555 1_555
H24 C30 1_555 1_555
C31 C30 1_555 1_555
H25 C31 1_555 1_555
C32 C27 1_555 1_555
H26 C32 1_555 1_555
C7 C8 1_555 1_555
C9 C10 1_555 1_555
C15 C16 1_555 1_555
C17 C18 1_555 1_555
C23 C24 1_555 1_555
C25 C26 1_555 1_555
C31 C32 1_555 1_555

#END
