
#######################################################################
#
#                 Cambridge Crystallographic Data Centre
#                                CCDC 
#
#######################################################################
#
# If this CIF has been generated from an entry in the Cambridge 
# Structural Database, then it will include bibliographic, chemical, 
# crystal, experimental, refinement or atomic coordinate data resulting 
# from the CCDC's data processing and validation procedures.
#
#######################################################################

data_MUSKER
_chemical_formula_moiety         'C18 H18 N4 O2'
_chemical_name_systematic        
2,2'-(Butane-2,3-diylidenebis(hydrazine-2,1-diylidenemethylylidene))-diphenol
_symmetry_cell_setting           monoclinic
_symmetry_space_group_name_H-M   'P 21/n'
_symmetry_Int_Tables_number      14
_space_group_name_Hall           '-P 2yn'
loop_
_symmetry_equiv_pos_site_id
_symmetry_equiv_pos_as_xyz
1 x,y,z
2 1/2-x,1/2+y,1/2-z
3 -x,-y,-z
4 1/2+x,1/2-y,1/2+z
_cell_length_a                   18.054(4)
_cell_length_b                   4.6824(10)
_cell_length_c                   19.780(4)
_cell_angle_alpha                90
_cell_angle_beta                 101.051(5)
_cell_angle_gamma                90
_cell_volume                     1641.12
_exptl_crystal_colour            yellow
_exptl_crystal_description       needles
_cell_formula_units_Z            4
_exptl_crystal_recrystallization_method chloroform
loop_
_atom_site_label
_atom_site_type_symbol
_atom_site_fract_x
_atom_site_fract_y
_atom_site_fract_z
C1 C 0.1119(3) 0.9116(12) 0.2992(3)
H1 H 0.0649 0.8974 0.2703
C2 C 0.1268(3) 0.7473(10) 0.3595(3)
C3 C 0.1649(4) 1.0928(10) 0.2817(2)
H2 H 0.1538 1.2010 0.2416
C4 C 0.2513(3) 0.9520(13) 0.3831(3)
H3 H 0.2990 0.9634 0.4108
C5 C 0.1979(4) 0.7738(11) 0.4013(3)
C6 C 0.2345(3) 1.1128(10) 0.3242(4)
H4 H 0.2706 1.2365 0.3129
O1 O 0.21724(15) 0.6259(7) 0.46091(16)
H5 H 0.1821 0.5224 0.4661
C7 C 0.0710(2) 0.5576(10) 0.3774(3)
H6 H 0.0250 0.5405 0.3471
N1 N 0.0815(2) 0.4120(9) 0.43265(19)
N2 N 0.02109(19) 0.2372(8) 0.4397(2)
C8 C 0.0311(2) 0.0927(8) 0.4952(2)
C9 C 0.1015(2) 0.1066(9) 0.5500(2)
H7 H 0.1446 0.0632 0.5299
H8 H 0.0980 -0.0297 0.5855
H9 H 0.1067 0.2950 0.5694
C1B C -0.1119(3) -0.9116(12) 0.7008(3)
H1B H -0.0649 -0.8974 0.7297
C2B C -0.1268(3) -0.7473(10) 0.6405(3)
C3B C -0.1649(4) -1.0928(10) 0.7183(2)
H2B H -0.1538 -1.2010 0.7584
C4B C -0.2513(3) -0.9520(13) 0.6169(3)
H3B H -0.2990 -0.9634 0.5892
C5B C -0.1979(4) -0.7738(11) 0.5987(3)
C6B C -0.2345(3) -1.1128(10) 0.6758(4)
H4B H -0.2706 -1.2365 0.6871
O1B O -0.21724(15) -0.6259(7) 0.53909(16)
H5B H -0.1821 -0.5224 0.5339
C7B C -0.0710(2) -0.5576(10) 0.6226(3)
H6B H -0.0250 -0.5405 0.6529
N1B N -0.0815(2) -0.4120(9) 0.56735(19)
N2B N -0.02109(19) -0.2372(8) 0.5603(2)
C8B C -0.0311(2) -0.0927(8) 0.5048(2)
C9B C -0.1015(2) -0.1066(9) 0.4500(2)
H7B H -0.1446 -0.0632 0.4701
H8B H -0.0980 0.0297 0.4145
H9B H -0.1067 -0.2950 0.4306
C10 C 0.3040(3) 0.4301(13) 0.6252(3)
H10 H 0.2724 0.4363 0.5822
C11 C 0.3968(3) 0.4196(13) 0.7525(2)
H11 H 0.4279 0.4143 0.7959
C12 C 0.3343(4) 0.5911(11) 0.7404(3)
H12 H 0.3234 0.7058 0.7757
C13 C 0.4132(3) 0.2537(10) 0.6992(3)
C14 C 0.3668(3) 0.2530(10) 0.6351(3)
C15 C 0.2877(3) 0.5961(10) 0.6775(4)
H13 H 0.2450 0.7116 0.6700
N3 N 0.4404(2) -0.2501(8) 0.52575(17)
N4 N 0.4392(2) -0.0884(8) 0.58515(18)
C16 C 0.3812(3) 0.0744(11) 0.5795(2)
H14 H 0.3470 0.0774 0.5379
O2 O 0.47625(17) 0.0867(7) 0.71230(12)
H15 H 0.4791 -0.0073 0.6779
C17 C 0.4989(3) -0.4100(9) 0.5305(2)
C18 C 0.5622(2) -0.4257(9) 0.5915(2)
H16 H 0.5786 -0.2361 0.6056
H17 H 0.6035 -0.5305 0.5794
H18 H 0.5451 -0.5206 0.6288
C10B C 0.6960(3) -1.4301(13) 0.3748(3)
H10B H 0.7276 -1.4363 0.4178
C11B C 0.6032(3) -1.4196(13) 0.2475(2)
H11B H 0.5721 -1.4143 0.2041
C12B C 0.6657(4) -1.5911(11) 0.2596(3)
H12B H 0.6766 -1.7058 0.2243
C13B C 0.5868(3) -1.2537(10) 0.3008(3)
C14B C 0.6332(3) -1.2530(10) 0.3649(3)
C15B C 0.7123(3) -1.5961(10) 0.3225(4)
H13B H 0.7550 -1.7116 0.3300
N3B N 0.5596(2) -0.7499(8) 0.47425(17)
N4B N 0.5608(2) -0.9116(8) 0.41485(18)
C16B C 0.6188(3) -1.0744(11) 0.4205(2)
H14B H 0.6530 -1.0774 0.4621
O2B O 0.52375(17) -1.0867(7) 0.28770(12)
H15B H 0.5209 -0.9927 0.3221
C17B C 0.5011(3) -0.5900(9) 0.4695(2)
C18B C 0.4378(2) -0.5743(9) 0.4085(2)
H16B H 0.4214 -0.7639 0.3944
H17B H 0.3965 -0.4695 0.4206
H18B H 0.4549 -0.4794 0.3712
loop_
_geom_bond_atom_site_label_1
_geom_bond_atom_site_label_2
_geom_bond_site_symmetry_1
_geom_bond_site_symmetry_2
C1 H1 1_555 1_555
C2 C1 1_555 1_555
C3 C1 1_555 1_555
H2 C3 1_555 1_555
C4 H3 1_555 1_555
C5 C2 1_555 1_555
C6 C3 1_555 1_555
H4 C6 1_555 1_555
O1 C5 1_555 1_555
H5 O1 1_555 1_555
C7 C2 1_555 1_555
H6 C7 1_555 1_555
N1 C7 1_555 1_555
N2 N1 1_555 1_555
C8 N2 1_555 1_555
C9 C8 1_555 1_555
H7 C9 1_555 1_555
H8 C9 1_555 1_555
H9 C9 1_555 1_555
C10 H10 1_555 1_555
C11 H11 1_555 1_555
C12 C11 1_555 1_555
H12 C12 1_555 1_555
C13 C11 1_555 1_555
C14 C10 1_555 1_555
C15 C10 1_555 1_555
H13 C15 1_555 1_555
N3 N4 1_555 1_555
N4 C16 1_555 1_555
C16 C14 1_555 1_555
H14 C16 1_555 1_555
O2 C13 1_555 1_555
H15 O2 1_555 1_555
C17 N3 1_555 1_555
C18 C17 1_555 1_555
H16 C18 1_555 1_555
H17 C18 1_555 1_555
H18 C18 1_555 1_555
C1B H1B 1_555 1_555
C2B C1B 1_555 1_555
C3B C1B 1_555 1_555
H2B C3B 1_555 1_555
C4B H3B 1_555 1_555
C5B C2B 1_555 1_555
C6B C3B 1_555 1_555
H4B C6B 1_555 1_555
O1B C5B 1_555 1_555
H5B O1B 1_555 1_555
C7B C2B 1_555 1_555
H6B C7B 1_555 1_555
N1B C7B 1_555 1_555
N2B N1B 1_555 1_555
C8B C8 1_555 1_555
C9B C8B 1_555 1_555
H7B C9B 1_555 1_555
H8B C9B 1_555 1_555
H9B C9B 1_555 1_555
C10B H10B 1_555 1_555
C11B H11B 1_555 1_555
C12B C11B 1_555 1_555
H12B C12B 1_555 1_555
C13B C11B 1_555 1_555
C14B C10B 1_555 1_555
C15B C10B 1_555 1_555
H13B C15B 1_555 1_555
N3B N4B 1_555 1_555
N4B C16B 1_555 1_555
C16B C14B 1_555 1_555
H14B C16B 1_555 1_555
O2B C13B 1_555 1_555
H15B O2B 1_555 1_555
C17B C17 1_555 1_555
C18B C17B 1_555 1_555
H16B C18B 1_555 1_555
H17B C18B 1_555 1_555
H18B C18B 1_555 1_555
C4 C5 1_555 1_555
C4 C6 1_555 1_555
C12 C15 1_555 1_555
C13 C14 1_555 1_555
C4B C5B 1_555 1_555
C4B C6B 1_555 1_555
N2B C8B 1_555 1_555
C12B C15B 1_555 1_555
C13B C14B 1_555 1_555
N3B C17B 1_555 1_555

#END
