
#######################################################################
#
#                 Cambridge Crystallographic Data Centre
#                                CCDC 
#
#######################################################################
#
# If this CIF has been generated from an entry in the Cambridge 
# Structural Database, then it will include bibliographic, chemical, 
# crystal, experimental, refinement or atomic coordinate data resulting 
# from the CCDC's data processing and validation procedures.
#
#######################################################################

data_MUSLOB
_chemical_formula_moiety         'C19 H35 N3 O6'
_chemical_name_systematic        
't-Butoxycarbonyl-leucyl-\a-aminoisobutyryl-\b-alanine methyl ester'
_symmetry_cell_setting           orthorhombic
_symmetry_space_group_name_H-M   'P 21 21 21'
_symmetry_Int_Tables_number      19
_space_group_name_Hall           'P 2ac 2ab'
loop_
_symmetry_equiv_pos_site_id
_symmetry_equiv_pos_as_xyz
1 x,y,z
2 -x,1/2+y,1/2-z
3 1/2+x,1/2-y,-z
4 1/2-x,-y,1/2+z
_cell_length_a                   10.210(14)
_cell_length_b                   10.373(14)
_cell_length_c                   44.00(6)
_cell_angle_alpha                90
_cell_angle_beta                 90
_cell_angle_gamma                90
_cell_volume                     4659.97
_cell_formula_units_Z            8
_exptl_crystal_recrystallization_method methanol/water
loop_
_atom_site_label
_atom_site_type_symbol
_atom_site_fract_x
_atom_site_fract_y
_atom_site_fract_z
O1 O 0.2969(15) 0.7187(13) 0.8789(2)
O2 O 0.3452(10) 0.5350(13) 0.8764(2)
C1 C 0.2931(14) 0.5156(15) 0.9076(2)
H1 H 0.2044 0.5460 0.9086
H2 H 0.3458 0.5628 0.9219
H3 H 0.2955 0.4256 0.9126
C2 C 0.3354(7) 0.6207(12) 0.86173(19)
C3 C 0.3918(9) 0.6446(9) 0.83347(15)
H4 H 0.3829 0.5672 0.8213
H5 H 0.4847 0.6589 0.8366
C4 C 0.3392(5) 0.7561(6) 0.81514(12)
H6 H 0.2556 0.7321 0.8063
H7 H 0.3247 0.8292 0.8285
N1 N 0.4288(4) 0.7929(4) 0.79113(9)
H8 H 0.4690 0.8655 0.7924
C5 C 0.4505(5) 0.7185(5) 0.76742(11)
O3 O 0.3866(4) 0.6212(3) 0.76281(9)
C6 C 0.5539(4) 0.7617(4) 0.74386(11)
C7 C 0.4788(6) 0.8257(6) 0.71785(11)
H9 H 0.4156 0.7663 0.7098
H10 H 0.5389 0.8501 0.7021
H11 H 0.4346 0.9011 0.7253
C8 C 0.6304(6) 0.6473(6) 0.73245(14)
H12 H 0.6752 0.6072 0.7491
H13 H 0.6933 0.6755 0.7176
H14 H 0.5716 0.5865 0.7233
N2 N 0.6411(4) 0.8598(4) 0.75681(8)
H15 H 0.6379 0.9362 0.7492
C9 C 0.7246(5) 0.8388(5) 0.77946(10)
O4 O 0.7358(4) 0.7365(4) 0.79338(8)
C10 C 0.8129(5) 0.9537(5) 0.78694(10)
H16 H 0.7841 1.0289 0.7752
C11 C 0.9551(5) 0.9202(6) 0.77824(12)
H17 H 1.0099 0.9941 0.7828
H18 H 0.9842 0.8497 0.7910
C12 C 0.9767(5) 0.8828(6) 0.74554(12)
H19 H 0.9189 0.8095 0.7413
C13 C 1.1164(6) 0.8372(7) 0.74001(17)
H20 H 1.1763 0.9058 0.7446
H21 H 1.1261 0.8124 0.7191
H22 H 1.1349 0.7646 0.7528
C14 C 0.9419(7) 0.9884(9) 0.72289(16)
H23 H 0.8542 1.0177 0.7266
H24 H 0.9480 0.9550 0.7026
H25 H 1.0017 1.0592 0.7252
N3 N 0.8079(4) 0.9840(5) 0.81951(9)
H26 H 0.8791 0.9845 0.8299
C15 C 0.6951(5) 1.0107(6) 0.83309(11)
O5 O 0.5875(4) 1.0035(4) 0.82050(8)
O6 O 0.7136(4) 1.0490(5) 0.86154(8)
C16 C 0.6067(6) 1.0866(6) 0.88180(11)
C17 C 0.5257(10) 1.1931(8) 0.86848(18)
H27 H 0.4725 1.1595 0.8523
H28 H 0.5824 1.2591 0.8606
H29 H 0.4704 1.2291 0.8840
C18 C 0.6779(9) 1.1369(12) 0.90948(18)
H30 H 0.6152 1.1642 0.9244
H31 H 0.7319 1.2087 0.9038
H32 H 0.7317 1.0699 0.9178
C19 C 0.5245(11) 0.9741(9) 0.8886(2)
H33 H 0.5793 0.9019 0.8936
H34 H 0.4722 0.9534 0.8711
H35 H 0.4683 0.9934 0.9055
C20 C 1.1234(7) 0.8728(7) 0.93008(16)
H36 H 1.1481 0.8197 0.9129
H37 H 1.1985 0.9255 0.9354
C21 C 1.0170(10) 0.9563(9) 0.92111(19)
H38 H 0.9951 1.0121 0.9381
H39 H 0.9407 0.9037 0.9168
C22 C 1.0457(9) 1.0377(9) 0.8941(2)
O7 O 1.0429(8) 0.9903(8) 0.86804(16)
O8 O 1.0537(9) 1.1568(7) 0.89951(17)
C23 C 1.080(2) 1.2302(14) 0.8702(4)
H40 H 0.9998 1.2419 0.8593
H41 H 1.1407 1.1821 0.8579
H42 H 1.1175 1.3128 0.8749
N4 N 1.0927(4) 0.7904(4) 0.95530(9)
H43 H 1.0247 0.7417 0.9542
C24 C 1.1653(4) 0.7864(5) 0.98036(12)
O9 O 1.2596(4) 0.8575(4) 0.98432(10)
C25 C 1.1232(5) 0.6938(4) 1.00589(11)
C26 C 1.2437(5) 0.6265(6) 1.01905(15)
H44 H 1.2887 0.5811 1.0032
H45 H 1.2169 0.5666 1.0345
H46 H 1.3013 0.6896 1.0278
C27 C 1.0625(6) 0.7763(6) 1.03091(13)
H47 H 1.0412 0.7228 1.0480
H48 H 0.9843 0.8166 1.0234
H49 H 1.1238 0.8414 1.0371
N5 N 1.0248(3) 0.6024(3) 0.99567(8)
H50 H 0.9467 0.6125 1.0026
C28 C 1.0436(4) 0.5046(4) 0.97660(10)
O10 O 1.1509(4) 0.4817(4) 0.96442(9)
C29 C 0.9256(5) 0.4201(5) 0.97069(10)
H51 H 0.8485 0.4565 0.9808
C30 C 0.9512(5) 0.2831(5) 0.98259(11)
H52 H 0.8760 0.2299 0.9778
H53 H 1.0259 0.2478 0.9718
C31 C 0.9777(5) 0.2731(5) 1.01674(11)
H54 H 1.0495 0.3323 1.0216
C32 C 1.0241(7) 0.1364(6) 1.02409(15)
H55 H 0.9553 0.0762 1.0196
H56 H 1.0463 0.1309 1.0452
H57 H 1.0997 0.1163 1.0120
C33 C 0.8618(7) 0.3124(6) 1.03535(13)
H58 H 0.7873 0.2615 1.0296
H59 H 0.8432 0.4019 1.0319
H60 H 0.8806 0.2990 1.0565
N6 N 0.9007(5) 0.4089(4) 0.93807(9)
H61 H 0.8998 0.3338 0.9298
C34 C 0.8794(5) 0.5130(5) 0.92088(11)
O11 O 0.8841(4) 0.6231(4) 0.92977(8)
O12 O 0.8497(4) 0.4763(4) 0.89230(7)
C35 C 0.8250(6) 0.5685(6) 0.86760(12)
C36 C 0.7833(9) 0.4843(7) 0.84198(13)
H62 H 0.6943 0.4575 0.8451
H63 H 0.8390 0.4099 0.8411
H64 H 0.7896 0.5313 0.8232
C37 C 0.7212(10) 0.6639(11) 0.87586(18)
H65 H 0.7515 0.7168 0.8923
H66 H 0.6434 0.6189 0.8820
H67 H 0.7021 0.7172 0.8586
C38 C 0.9530(10) 0.6322(9) 0.85963(17)
H68 H 1.0168 0.5674 0.8548
H69 H 0.9830 0.6824 0.8766
H70 H 0.9407 0.6875 0.8424
loop_
_geom_bond_atom_site_label_1
_geom_bond_atom_site_label_2
_geom_bond_site_symmetry_1
_geom_bond_site_symmetry_2
O1 C2 1_555 1_555
O2 C1 1_555 1_555
C1 H1 1_555 1_555
H2 C1 1_555 1_555
H3 C1 1_555 1_555
C2 O2 1_555 1_555
C3 C2 1_555 1_555
H4 C3 1_555 1_555
H5 C3 1_555 1_555
C4 C3 1_555 1_555
H6 C4 1_555 1_555
H7 C4 1_555 1_555
N1 C4 1_555 1_555
H8 N1 1_555 1_555
C5 N1 1_555 1_555
O3 C5 1_555 1_555
C6 C5 1_555 1_555
C7 C6 1_555 1_555
H9 C7 1_555 1_555
H10 C7 1_555 1_555
H11 C7 1_555 1_555
C8 C6 1_555 1_555
H12 C8 1_555 1_555
H13 C8 1_555 1_555
H14 C8 1_555 1_555
N2 C6 1_555 1_555
H15 N2 1_555 1_555
C9 N2 1_555 1_555
O4 C9 1_555 1_555
C10 C9 1_555 1_555
H16 C10 1_555 1_555
C11 C10 1_555 1_555
H17 C11 1_555 1_555
H18 C11 1_555 1_555
C12 C11 1_555 1_555
H19 C12 1_555 1_555
C13 C12 1_555 1_555
H20 C13 1_555 1_555
H21 C13 1_555 1_555
H22 C13 1_555 1_555
C14 C12 1_555 1_555
H23 C14 1_555 1_555
H24 C14 1_555 1_555
H25 C14 1_555 1_555
N3 C10 1_555 1_555
H26 N3 1_555 1_555
C15 N3 1_555 1_555
O5 C15 1_555 1_555
O6 C15 1_555 1_555
C16 O6 1_555 1_555
C17 C16 1_555 1_555
H27 C17 1_555 1_555
H28 C17 1_555 1_555
H29 C17 1_555 1_555
C18 C16 1_555 1_555
H30 C18 1_555 1_555
H31 C18 1_555 1_555
H32 C18 1_555 1_555
C19 C16 1_555 1_555
H33 C19 1_555 1_555
H34 C19 1_555 1_555
H35 C19 1_555 1_555
C20 H36 1_555 1_555
H37 C20 1_555 1_555
C21 C20 1_555 1_555
H38 C21 1_555 1_555
H39 C21 1_555 1_555
C22 C21 1_555 1_555
O7 C22 1_555 1_555
O8 C22 1_555 1_555
C23 O8 1_555 1_555
H40 C23 1_555 1_555
H41 C23 1_555 1_555
H42 C23 1_555 1_555
N4 C20 1_555 1_555
H43 N4 1_555 1_555
C24 N4 1_555 1_555
O9 C24 1_555 1_555
C25 C24 1_555 1_555
C26 C25 1_555 1_555
H44 C26 1_555 1_555
H45 C26 1_555 1_555
H46 C26 1_555 1_555
C27 C25 1_555 1_555
H47 C27 1_555 1_555
H48 C27 1_555 1_555
H49 C27 1_555 1_555
N5 C25 1_555 1_555
H50 N5 1_555 1_555
C28 N5 1_555 1_555
O10 C28 1_555 1_555
C29 C28 1_555 1_555
H51 C29 1_555 1_555
C30 C29 1_555 1_555
H52 C30 1_555 1_555
H53 C30 1_555 1_555
C31 C30 1_555 1_555
H54 C31 1_555 1_555
C32 C31 1_555 1_555
H55 C32 1_555 1_555
H56 C32 1_555 1_555
H57 C32 1_555 1_555
C33 C31 1_555 1_555
H58 C33 1_555 1_555
H59 C33 1_555 1_555
H60 C33 1_555 1_555
N6 C29 1_555 1_555
H61 N6 1_555 1_555
C34 N6 1_555 1_555
O11 C34 1_555 1_555
O12 C34 1_555 1_555
C35 O12 1_555 1_555
C36 C35 1_555 1_555
H62 C36 1_555 1_555
H63 C36 1_555 1_555
H64 C36 1_555 1_555
C37 C35 1_555 1_555
H65 C37 1_555 1_555
H66 C37 1_555 1_555
H67 C37 1_555 1_555
C38 C35 1_555 1_555
H68 C38 1_555 1_555
H69 C38 1_555 1_555
H70 C38 1_555 1_555

#END
