
#######################################################################
#
#                 Cambridge Crystallographic Data Centre
#                                CCDC 
#
#######################################################################
#
# If this CIF has been generated from an entry in the Cambridge 
# Structural Database, then it will include bibliographic, chemical, 
# crystal, experimental, refinement or atomic coordinate data resulting 
# from the CCDC's data processing and validation procedures.
#
#######################################################################

data_MUSMOC
_chemical_name_common            
N-((2S,3S)-8-acetyl-7-methyl-2,3-bis(2-methylphenyl)-1,4,6-trioxaspiro(4.5)dec-7-en-9-yl)acetamide
_chemical_formula_moiety         'C26 H29 N1 O5'
_chemical_name_systematic        
(4S,4'S,5'S)-4-Acetylamino-3,4-dihydro-6-methyl-bis(2-methylphenyl)-5-(1-oxoethyl)spiro(2H-pyran-2,2'-(1,3)dioxolan)
_symmetry_cell_setting           monoclinic
_symmetry_space_group_name_H-M   'C 2'
_symmetry_Int_Tables_number      5
_space_group_name_Hall           'C 2y'
loop_
_symmetry_equiv_pos_site_id
_symmetry_equiv_pos_as_xyz
1 x,y,z
2 -x,y,-z
3 1/2+x,1/2+y,z
4 1/2-x,1/2+y,-z
_cell_length_a                   21.201(4)
_cell_length_b                   9.944(2)
_cell_length_c                   13.660(2)
_cell_angle_alpha                90
_cell_angle_beta                 109.860(10)
_cell_angle_gamma                90
_cell_volume                     2708.56
_exptl_crystal_colour            colorless
_exptl_crystal_description       'irregular block'
_chemical_melting_point          '112-115 deg.C'
_cell_formula_units_Z            4
_exptl_crystal_recrystallization_method isohexane
loop_
_atom_site_label
_atom_site_type_symbol
_atom_site_fract_x
_atom_site_fract_y
_atom_site_fract_z
C1 C 0.3375(5) 0.4302(15) 1.0886(9)
H1 H 0.3349(5) 0.3866(15) 1.0271(9)
C2 C 0.3548(6) 0.3588(18) 1.1819(9)
H2 H 0.3671(6) 0.2688(18) 1.1840(9)
C3 C 0.3537(6) 0.4213(19) 1.2701(11)
H3 H 0.3603(6) 0.3723(19) 1.3308(11)
C4 C 0.3425(6) 0.5585(17) 1.2685(10)
H4 H 0.3468(6) 0.6027(17) 1.3305(10)
C5 C 0.3258(5) 0.6288(14) 1.1801(7)
C6 C 0.3243(4) 0.5667(14) 1.0882(6)
C7 C 0.3090(7) 0.7798(18) 1.1835(11)
H5 H 0.3132(7) 0.8046(18) 1.2533(11)
H6 H 0.2639(7) 0.7961(18) 1.1382(11)
H7 H 0.3395(7) 0.8325(18) 1.1609(11)
C8 C 0.4896(6) 0.7702(18) 1.1513(10)
H8 H 0.4737(6) 0.6821(18) 1.1262(10)
H9 H 0.4889(6) 0.7810(18) 1.2207(10)
H10 H 0.5347(6) 0.7811(18) 1.1517(10)
C9 C 0.4458(5) 0.8732(14) 1.0822(9)
C10 C 0.4593(7) 1.0087(14) 1.1045(11)
H11 H 0.4962(34) 1.0320(20) 1.1621(59)
C11 C 0.4206(7) 1.1096(21) 1.0451(11)
H12 H 0.4318(7) 1.1993(21) 1.0611(11)
C12 C 0.3668(6) 1.0768(18) 0.9645(10)
H13 H 0.3397(6) 1.1444(18) 0.9249(10)
C13 C 0.3504(6) 0.9419(15) 0.9380(9)
H14 H 0.3130(6) 0.9208(15) 0.8806(9)
C14 C 0.3894(5) 0.8409(15) 0.9965(8)
C15 C 0.3085(5) 0.6459(13) 0.9850(7)
H15 H 0.2784(5) 0.7214(13) 0.9833(7)
C16 C 0.3715(5) 0.6955(15) 0.9674(8)
H16 H 0.4096(5) 0.6361(15) 1.0010(8)
C17 C 0.3153(4) 0.5710(14) 0.8301(7)
C18 C 0.2681(5) 0.5757(15) 0.7157(7)
H17 H 0.2417(5) 0.4939(15) 0.6983(7)
H18 H 0.2378(5) 0.6515(15) 0.7050(7)
C19 C 0.3111(5) 0.5895(15) 0.6478(7)
H19 H 0.3281(5) 0.6818(15) 0.6532(7)
C20 C 0.3707(5) 0.4921(14) 0.6831(8)
C21 C 0.3891(5) 0.4336(15) 0.7773(8)
C22 C 0.4475(7) 0.3412(20) 0.8236(12)
H20 H 0.4491(7) 0.3141(20) 0.8918(12)
H21 H 0.4883(7) 0.3870(20) 0.8284(12)
H22 H 0.4425(7) 0.2632(20) 0.7801(12)
C23 C 0.4108(8) 0.4709(20) 0.6125(12)
C24 C 0.4284(8) 0.6015(21) 0.5695(12)
H23 H 0.4539(8) 0.5817(21) 0.5251(12)
H24 H 0.4545(8) 0.6574(21) 0.6261(12)
H25 H 0.3880(8) 0.6477(21) 0.5303(12)
C25 C 0.2451(6) 0.6625(17) 0.4700(10)
C26 C 0.1989(6) 0.6161(18) 0.3674(10)
H26 H 0.1924(6) 0.5208(18) 0.3696(10)
H27 H 0.2180(6) 0.6364(18) 0.3146(10)
H28 H 0.1566(6) 0.6612(18) 0.3517(10)
O1 O 0.2787(3) 0.5579 0.8989(5)
O2 O 0.3516(3) 0.6872(11) 0.8555(5)
O3 O 0.3566(4) 0.4574(11) 0.8475(5)
O4 O 0.4298(10) 0.3592(20) 0.6010(13)
O5 O 0.2620(6) 0.7780(12) 0.4888(8)
N1 N 0.2705(4) 0.5631(12) 0.5404(5)
H29 H 0.2623(4) 0.4809(12) 0.5205(5)
loop_
_geom_bond_atom_site_label_1
_geom_bond_atom_site_label_2
_geom_bond_site_symmetry_1
_geom_bond_site_symmetry_2
C1 H1 1_555 1_555
C2 C1 1_555 1_555
H2 C2 1_555 1_555
C3 C2 1_555 1_555
H3 C3 1_555 1_555
C4 C3 1_555 1_555
H4 C4 1_555 1_555
C5 C4 1_555 1_555
C6 C1 1_555 1_555
C7 C5 1_555 1_555
H5 C7 1_555 1_555
H6 C7 1_555 1_555
H7 C7 1_555 1_555
C8 H8 1_555 1_555
H9 C8 1_555 1_555
H10 C8 1_555 1_555
C9 C8 1_555 1_555
C10 C9 1_555 1_555
H11 C10 1_555 1_555
C11 C10 1_555 1_555
H12 C11 1_555 1_555
C12 C11 1_555 1_555
H13 C12 1_555 1_555
C13 C12 1_555 1_555
H14 C13 1_555 1_555
C14 C9 1_555 1_555
C15 C6 1_555 1_555
H15 C15 1_555 1_555
C16 C14 1_555 1_555
H16 C16 1_555 1_555
C17 C18 1_555 1_555
C18 H17 1_555 1_555
H18 C18 1_555 1_555
C19 C18 1_555 1_555
H19 C19 1_555 1_555
C20 C19 1_555 1_555
C21 C20 1_555 1_555
C22 C21 1_555 1_555
H20 C22 1_555 1_555
H21 C22 1_555 1_555
H22 C22 1_555 1_555
C23 C20 1_555 1_555
C24 C23 1_555 1_555
H23 C24 1_555 1_555
H24 C24 1_555 1_555
H25 C24 1_555 1_555
C25 C26 1_555 1_555
C26 H26 1_555 1_555
H27 C26 1_555 1_555
H28 C26 1_555 1_555
O1 C15 1_555 1_555
O2 C16 1_555 1_555
O3 C17 1_555 1_555
O4 C23 1_555 1_555
O5 C25 1_555 1_555
N1 C19 1_555 1_555
H29 N1 1_555 1_555
C5 C6 1_555 1_555
C13 C14 1_555 1_555
C15 C16 1_555 1_555
C17 O2 1_555 1_555
C17 O1 1_555 1_555
C21 O3 1_555 1_555
C25 N1 1_555 1_555

#END
