
#######################################################################
#
#                 Cambridge Crystallographic Data Centre
#                                CCDC 
#
#######################################################################
#
# If this CIF has been generated from an entry in the Cambridge 
# Structural Database, then it will include bibliographic, chemical, 
# crystal, experimental, refinement or atomic coordinate data resulting 
# from the CCDC's data processing and validation procedures.
#
#######################################################################

data_MUSPAT
_chemical_compound_source        'leaves from Solanum capsicoides'
_chemical_formula_moiety         'C28 H42 O6,2.5(H2 O1)'
_chemical_name_systematic        
'17,24,25,26-tetrahydroxy-22,26-epoxyergosta-2,5-dien-1-one hydrate'
_symmetry_cell_setting           orthorhombic
_symmetry_space_group_name_H-M   'P 21 21 21'
_symmetry_Int_Tables_number      19
_space_group_name_Hall           'P 2ac 2ab'
loop_
_symmetry_equiv_pos_site_id
_symmetry_equiv_pos_as_xyz
1 x,y,z
2 1/2+x,1/2-y,-z
3 -x,1/2+y,1/2-z
4 1/2-x,-y,1/2+z
_cell_length_a                   7.5227(4)
_cell_length_b                   9.6240(6)
_cell_length_c                   37.396(2)
_cell_angle_alpha                90
_cell_angle_beta                 90
_cell_angle_gamma                90
_cell_volume                     2707.41
_exptl_crystal_colour            colorless
_exptl_crystal_description       Lamellar
_cell_formula_units_Z            4
_exptl_crystal_recrystallization_method methanol/water
loop_
_atom_site_label
_atom_site_type_symbol
_atom_site_fract_x
_atom_site_fract_y
_atom_site_fract_z
C1 C 0.7774(12) 0.3387(8) 1.0925(2)
C2 C 0.8176(13) 0.3085(9) 1.1295(2)
H1 H 0.7332 0.2581 1.1432
C3 C 0.9668(12) 0.3482(10) 1.1449(2)
H2 H 0.9863 0.3232 1.1692
C4 C 1.1068(12) 0.4305(11) 1.1260(2)
H3 H 1.2245 0.3888 1.1310
H4 H 1.1074 0.5264 1.1357
C5 C 1.0788(11) 0.4363(8) 1.0862(2)
C6 C 1.2216(11) 0.4313(8) 1.0643(2)
H5 H 1.3354 0.4200 1.0749
C7 C 1.2124(10) 0.4421(8) 1.0249(2)
H6 H 1.2293 0.3488 1.0143
H7 H 1.3099 0.5026 1.0164
C8 C 1.0311(10) 0.5026(8) 1.0123(2)
H8 H 1.0285 0.6040 1.0181
C9 C 0.8778(9) 0.4319(7) 1.0317(2)
H9 H 0.8880 0.3303 1.0266
C10 C 0.8890(10) 0.4484(7) 1.0729(2)
C11 C 0.6985(10) 0.4808(9) 1.0155(2)
H10 H 0.6023 0.4229 1.0257
H11 H 0.6770 0.5778 1.0231
C12 C 0.6849(10) 0.4746(9) 0.9747(2)
H12 H 0.6845 0.3763 0.9670
H13 H 0.5711 0.5170 0.9671
C13 C 0.8369(9) 0.5497(7) 0.9568(2)
C14 C 1.0108(10) 0.4863(8) 0.9722(2)
H14 H 1.0045 0.3842 0.9675
C15 C 1.1596(11) 0.5430(8) 0.9481(2)
H15 H 1.2598 0.4766 0.9467
H16 H 1.2045 0.6330 0.9572
C16 C 1.0698(10) 0.5612(9) 0.9112(2)
H17 H 1.1262 0.4992 0.8934
H18 H 1.0825 0.6584 0.9029
C17 C 0.8701(11) 0.5238(7) 0.9156(2)
C18 C 0.8294(11) 0.7065(8) 0.9638(2)
H19 H 0.7186 0.7443 0.9540
H20 H 0.9309 0.7517 0.9522
H21 H 0.8340 0.7238 0.9896
C19 C 0.8117(11) 0.5905(9) 1.0856(2)
H22 H 0.6831 0.5920 1.0816
H23 H 0.8677 0.6661 1.0721
H24 H 0.8360 0.6027 1.1112
C20 C 0.7536(10) 0.6093(8) 0.8901(2)
H25 H 0.7662 0.7090 0.8972
C21 C 0.5543(11) 0.5711(9) 0.8940(2)
H26 H 0.4867 0.6133 0.8744
H27 H 0.5096 0.6061 0.9169
H28 H 0.5407 0.4699 0.8931
C22 C 0.8122(11) 0.5981(8) 0.8512(2)
H29 H 0.9439 0.6110 0.8498
C23 C 0.7605(13) 0.4639(9) 0.8314(2)
H30 H 0.8187 0.3836 0.8431
H31 H 0.6303 0.4504 0.8330
C24 C 0.8147(12) 0.4687(9) 0.7924(2)
C25 C 0.7229(13) 0.6004(9) 0.7750(2)
C26 C 0.7752(12) 0.7287(9) 0.7971(2)
H32 H 0.9062 0.7451 0.7953
C27 C 0.5224(13) 0.5826(11) 0.7724(3)
H33 H 0.4717 0.6597 0.7587
H34 H 0.4712 0.5818 0.7965
H35 H 0.4953 0.4946 0.7604
C28 C 1.0157(15) 0.4689(12) 0.7874(3)
H36 H 1.0692 0.3981 0.8028
H37 H 1.0633 0.5605 0.7937
H38 H 1.0440 0.4484 0.7623
O1 O 0.6523(9) 0.2826(6) 1.07746(16)
O2 O 0.8418(7) 0.3794(5) 0.90722(15)
H39 H 0.9259 0.3319 0.9155
O3 O 0.7412(12) 0.3437(7) 0.77708(18)
H40 H 0.7584 0.3438 0.7549
O4 O 0.7918(10) 0.6186(7) 0.73976(17)
H41 H 0.8563 0.6898 0.7392
O5 O 0.6832(10) 0.8426(7) 0.78406(18)
H42 H 0.7256 0.9156 0.7929
O6 O 0.7248(9) 0.7135(6) 0.83326(16)
O7 O 0.8743(9) 0.0881(7) 0.79718(19)
H43 H 0.8269 0.1804 0.7943
H44 H 0.9551 0.0826 0.7773
O8 O 0.6999(11) 0.3732(9) 0.7010(2)
H45 H 0.7764 0.4177 0.6836
H46 H 0.6118 0.3293 0.6857
O9 O 1.0240(19) 0.9160(13) 0.8484(3)
H47 H 1.0965 0.9858 0.8633
H48 H 0.9437 0.9758 0.8341
loop_
_geom_bond_atom_site_label_1
_geom_bond_atom_site_label_2
_geom_bond_site_symmetry_1
_geom_bond_site_symmetry_2
C1 C2 1_555 1_555
C2 H1 1_555 1_555
C3 C2 1_555 1_555
H2 C3 1_555 1_555
C4 C3 1_555 1_555
H3 C4 1_555 1_555
H4 C4 1_555 1_555
C5 C4 1_555 1_555
C6 C5 1_555 1_555
H5 C6 1_555 1_555
C7 C6 1_555 1_555
H6 C7 1_555 1_555
H7 C7 1_555 1_555
C8 C7 1_555 1_555
H8 C8 1_555 1_555
C9 C8 1_555 1_555
H9 C9 1_555 1_555
C10 C1 1_555 1_555
C11 C9 1_555 1_555
H10 C11 1_555 1_555
H11 C11 1_555 1_555
C12 C11 1_555 1_555
H12 C12 1_555 1_555
H13 C12 1_555 1_555
C13 C12 1_555 1_555
C14 C8 1_555 1_555
H14 C14 1_555 1_555
C15 C14 1_555 1_555
H15 C15 1_555 1_555
H16 C15 1_555 1_555
C16 C15 1_555 1_555
H17 C16 1_555 1_555
H18 C16 1_555 1_555
C17 C13 1_555 1_555
C18 C13 1_555 1_555
H19 C18 1_555 1_555
H20 C18 1_555 1_555
H21 C18 1_555 1_555
C19 C10 1_555 1_555
H22 C19 1_555 1_555
H23 C19 1_555 1_555
H24 C19 1_555 1_555
C20 C17 1_555 1_555
H25 C20 1_555 1_555
C21 C20 1_555 1_555
H26 C21 1_555 1_555
H27 C21 1_555 1_555
H28 C21 1_555 1_555
C22 C20 1_555 1_555
H29 C22 1_555 1_555
C23 C22 1_555 1_555
H30 C23 1_555 1_555
H31 C23 1_555 1_555
C24 C23 1_555 1_555
C25 C24 1_555 1_555
C26 C25 1_555 1_555
H32 C26 1_555 1_555
C27 C25 1_555 1_555
H33 C27 1_555 1_555
H34 C27 1_555 1_555
H35 C27 1_555 1_555
C28 C24 1_555 1_555
H36 C28 1_555 1_555
H37 C28 1_555 1_555
H38 C28 1_555 1_555
O1 C1 1_555 1_555
O2 C17 1_555 1_555
H39 O2 1_555 1_555
O3 C24 1_555 1_555
H40 O3 1_555 1_555
O4 C25 1_555 1_555
H41 O4 1_555 1_555
O5 C26 1_555 1_555
H42 O5 1_555 1_555
O6 C22 1_555 1_555
O7 H43 1_555 1_555
H44 O7 1_555 1_555
O8 H45 1_555 1_555
H46 O8 1_555 1_555
O9 H47 1_555 1_555
H48 O9 1_555 1_555
C5 C10 1_555 1_555
C9 C10 1_555 1_555
C13 C14 1_555 1_555
C16 C17 1_555 1_555
C26 O6 1_555 1_555

#END
