
#######################################################################
#
#                 Cambridge Crystallographic Data Centre
#                                CCDC 
#
#######################################################################
#
# If this CIF has been generated from an entry in the Cambridge 
# Structural Database, then it will include bibliographic, chemical, 
# crystal, experimental, refinement or atomic coordinate data resulting 
# from the CCDC's data processing and validation procedures.
#
#######################################################################

data_MUSPUM
_chemical_formula_moiety         'C62 H52 Mg2 O6,C7 H8'
_chemical_name_systematic        
'bis((\m~2~-2-(1-(Methoxy)-2-naphthyl)-6-(1-(oxido)-2-naphthyl)phenyl)-(tetrahydrofuran))-di-magnesium toluene solvate'
_symmetry_cell_setting           monoclinic
_symmetry_space_group_name_H-M   'P 21/c'
_symmetry_Int_Tables_number      14
_space_group_name_Hall           '-P 2ybc'
loop_
_symmetry_equiv_pos_site_id
_symmetry_equiv_pos_as_xyz
1 x,y,z
2 -x,1/2+y,1/2-z
3 -x,-y,-z
4 x,1/2-y,1/2+z
_cell_length_a                   10.793(3)
_cell_length_b                   19.072(5)
_cell_length_c                   26.106(6)
_cell_angle_alpha                90
_cell_angle_beta                 98.207(4)
_cell_angle_gamma                90
_cell_volume                     5318.73
_exptl_crystal_colour            colorless
_exptl_crystal_description       plate
_cell_formula_units_Z            4
loop_
_atom_site_label
_atom_site_type_symbol
_atom_site_fract_x
_atom_site_fract_y
_atom_site_fract_z
Mg1 Mg 0.07667(5) 0.08911(3) 0.16178(2)
Mg2 Mg -0.15690(5) 0.17604(3) 0.12002(2)
O1 O 0.02645(10) 0.18855(6) 0.14322(4)
O2 O 0.07499(11) -0.01326(6) 0.19761(5)
O3 O -0.10214(10) 0.07547(6) 0.12685(5)
O4 O -0.18487(11) 0.28006(6) 0.14839(5)
O5 O 0.19740(11) 0.07261(6) 0.10843(5)
O6 O -0.20502(11) 0.18302(6) 0.04014(5)
C1 C 0.09512(15) 0.24530(9) 0.16012(7)
C2 C 0.10483(15) 0.30031(9) 0.12330(7)
C3 C 0.06194(16) 0.29045(9) 0.06996(7)
H1 H 0.0245 0.2471 0.0584
C4 C 0.07357(17) 0.34245(10) 0.03465(7)
H2 H 0.0485 0.3340 -0.0012
C5 C 0.12258(17) 0.40834(10) 0.05137(8)
H3 H 0.1263 0.4450 0.0270
C6 C 0.16477(16) 0.41962(9) 0.10252(8)
H4 H 0.1973 0.4643 0.1134
C7 C 0.16083(15) 0.36571(9) 0.13971(7)
C8 C 0.21256(16) 0.37351(9) 0.19218(7)
H5 H 0.2478 0.4171 0.2044
C9 C 0.21188(16) 0.31832(9) 0.22541(7)
H6 H 0.2520 0.3240 0.2600
C10 C 0.15432(15) 0.25260(9) 0.21113(7)
C11 C 0.16628(16) 0.19493(10) 0.25065(7)
C12 C 0.18320(19) 0.21346(11) 0.30342(7)
H7 H 0.1709 0.2606 0.3133
C13 C 0.2179(2) 0.16290(12) 0.34110(7)
H8 H 0.2254 0.1750 0.3767
C14 C 0.24130(19) 0.09521(11) 0.32669(7)
H9 H 0.2725 0.0616 0.3522
C15 C 0.21895(16) 0.07619(10) 0.27434(7)
C16 C 0.17382(15) 0.12423(9) 0.23480(7)
C17 C 0.25942(16) 0.00529(10) 0.25927(7)
C18 C 0.37784(17) -0.02165(11) 0.28273(8)
H10 H 0.4237 0.0032 0.3108
C19 C 0.42665(18) -0.08192(11) 0.26604(9)
H11 H 0.5059 -0.0978 0.2825
C20 C 0.36231(18) -0.12120(11) 0.22506(8)
C21 C 0.4122(2) -0.18266(12) 0.20542(10)
H12 H 0.4944 -0.1974 0.2190
C22 C 0.3443(3) -0.22078(12) 0.16752(10)
H13 H 0.3795 -0.2617 0.1546
C23 C 0.2219(3) -0.20015(11) 0.14712(9)
H14 H 0.1742 -0.2282 0.1214
C24 C 0.1708(2) -0.14019(10) 0.16388(8)
H15 H 0.0886 -0.1265 0.1494
C25 C 0.24005(18) -0.09862(10) 0.20270(7)
C26 C 0.19458(16) -0.03501(9) 0.22095(7)
C27 C -0.02013(17) -0.03700(11) 0.22777(8)
H16 H -0.0006 -0.0848 0.2402
H17 H -0.1021 -0.0365 0.2061
H18 H -0.0219 -0.0057 0.2574
C28 C -0.18178(16) 0.02059(9) 0.12262(6)
C29 C -0.14670(17) -0.04001(9) 0.09539(7)
C30 C -0.04580(17) -0.03817(9) 0.06635(7)
H19 H -0.0003 0.0042 0.0645
C31 C -0.01246(19) -0.09636(10) 0.04083(7)
H20 H 0.0547 -0.0937 0.0210
C32 C -0.0771(2) -0.16017(10) 0.04375(8)
H21 H -0.0512 -0.2008 0.0271
C33 C -0.1763(2) -0.16347(10) 0.07040(8)
H22 H -0.2198 -0.2066 0.0718
C34 C -0.21600(18) -0.10379(10) 0.09608(7)
C35 C -0.32317(18) -0.10425(10) 0.12124(8)
H23 H -0.3688 -0.1465 0.1235
C36 C -0.36104(17) -0.04416(10) 0.14232(7)
H24 H -0.4368 -0.0453 0.1569
C37 C -0.29386(16) 0.02062(9) 0.14392(7)
C38 C -0.35171(16) 0.08358(10) 0.16529(7)
C39 C -0.43809(17) 0.07281(11) 0.20017(7)
H25 H -0.4455 0.0277 0.2148
C40 C -0.51211(17) 0.12711(11) 0.21330(7)
H26 H -0.5688 0.1195 0.2374
C41 C -0.50373(17) 0.19266(11) 0.19132(7)
H27 H -0.5593 0.2291 0.1980
C42 C -0.41282(16) 0.20493(10) 0.15921(7)
C43 C -0.32999(16) 0.15186(10) 0.14668(7)
C44 C -0.41002(16) 0.27508(10) 0.13453(7)
C45 C -0.52394(17) 0.30928(11) 0.11400(8)
H28 H -0.6013 0.2870 0.1171
C46 C -0.52527(18) 0.37273(11) 0.09013(8)
H29 H -0.6033 0.3939 0.0773
C47 C -0.41336(17) 0.40781(10) 0.08399(7)
C48 C -0.41134(19) 0.47347(11) 0.05908(7)
H30 H -0.4883 0.4956 0.0461
C49 C -0.3014(2) 0.50596(11) 0.05324(7)
H31 H -0.3023 0.5497 0.0358
C50 C -0.18598(19) 0.47404(10) 0.07345(7)
H32 H -0.1094 0.4966 0.0695
C51 C -0.18418(17) 0.41122(9) 0.09841(7)
H33 H -0.1062 0.3908 0.1121
C52 C -0.29695(17) 0.37592(10) 0.10426(7)
C53 C -0.30086(16) 0.31001(9) 0.12857(7)
C54 C -0.15618(17) 0.29229(11) 0.20383(7)
H34 H -0.1730 0.3414 0.2114
H35 H -0.0677 0.2818 0.2154
H36 H -0.2085 0.2618 0.2221
C55 C 0.24976(17) 0.13625(9) 0.08853(7)
H37 H 0.2747 0.1700 0.1170
H38 H 0.1873 0.1590 0.0623
C56 C 0.36320(17) 0.11310(10) 0.06447(7)
H39 H 0.3685 0.1387 0.0319
H40 H 0.4415 0.1206 0.0886
C57 C 0.33943(18) 0.03547(10) 0.05429(8)
H41 H 0.2826 0.0277 0.0215
H42 H 0.4186 0.0097 0.0531
C58 C 0.27859(18) 0.01405(10) 0.10066(8)
H43 H 0.2296 -0.0296 0.0935
H44 H 0.3423 0.0068 0.1315
C59 C -0.23524(18) 0.24484(10) 0.00778(7)
H45 H -0.1795 0.2483 -0.0191
H46 H -0.2268 0.2881 0.0289
C60 C -0.36945(19) 0.23382(11) -0.01641(8)
H47 H -0.3896 0.2610 -0.0489
H48 H -0.4285 0.2469 0.0077
C61 C -0.37204(19) 0.15516(11) -0.02685(8)
H49 H -0.4584 0.1365 -0.0302
H50 H -0.3358 0.1440 -0.0586
C62 C -0.29183(17) 0.12635(10) 0.02079(7)
H51 H -0.3445 0.1129 0.0473
H52 H -0.2449 0.0845 0.0119
C63 C 0.18927(19) 0.61010(10) 0.15551(8)
C64 C 0.1199(2) 0.61063(10) 0.10619(8)
H53 H 0.0321 0.6183 0.1024
C65 C 0.1773(2) 0.60017(10) 0.06277(8)
H54 H 0.1284 0.6001 0.0295
C66 C 0.3048(2) 0.58986(10) 0.06737(8)
H55 H 0.3443 0.5836 0.0374
C67 C 0.3745(2) 0.58870(11) 0.11604(8)
H56 H 0.4624 0.5813 0.1197
C68 C 0.3167(2) 0.59832(11) 0.15961(8)
H57 H 0.3655 0.5968 0.1929
C69 C 0.1286(2) 0.62472(14) 0.20291(10)
H58 H 0.1918 0.6223 0.2338
H59 H 0.0632 0.5898 0.2055
H60 H 0.0912 0.6716 0.2002
loop_
_geom_bond_atom_site_label_1
_geom_bond_atom_site_label_2
_geom_bond_site_symmetry_1
_geom_bond_site_symmetry_2
Mg1 O1 1_555 1_555
Mg2 O1 1_555 1_555
O1 C1 1_555 1_555
O2 Mg1 1_555 1_555
O3 Mg1 1_555 1_555
O4 Mg2 1_555 1_555
O5 Mg1 1_555 1_555
O6 Mg2 1_555 1_555
C1 C2 1_555 1_555
C2 C3 1_555 1_555
C3 H1 1_555 1_555
C4 C3 1_555 1_555
H2 C4 1_555 1_555
C5 C4 1_555 1_555
H3 C5 1_555 1_555
C6 C5 1_555 1_555
H4 C6 1_555 1_555
C7 C2 1_555 1_555
C8 C7 1_555 1_555
H5 C8 1_555 1_555
C9 C8 1_555 1_555
H6 C9 1_555 1_555
C10 C1 1_555 1_555
C11 C10 1_555 1_555
C12 C11 1_555 1_555
H7 C12 1_555 1_555
C13 C12 1_555 1_555
H8 C13 1_555 1_555
C14 C13 1_555 1_555
H9 C14 1_555 1_555
C15 C14 1_555 1_555
C16 Mg1 1_555 1_555
C17 C15 1_555 1_555
C18 C17 1_555 1_555
H10 C18 1_555 1_555
C19 C18 1_555 1_555
H11 C19 1_555 1_555
C20 C19 1_555 1_555
C21 C20 1_555 1_555
H12 C21 1_555 1_555
C22 C21 1_555 1_555
H13 C22 1_555 1_555
C23 C22 1_555 1_555
H14 C23 1_555 1_555
C24 C23 1_555 1_555
H15 C24 1_555 1_555
C25 C20 1_555 1_555
C26 O2 1_555 1_555
C27 O2 1_555 1_555
H16 C27 1_555 1_555
H17 C27 1_555 1_555
H18 C27 1_555 1_555
C28 O3 1_555 1_555
C29 C28 1_555 1_555
C30 C29 1_555 1_555
H19 C30 1_555 1_555
C31 C30 1_555 1_555
H20 C31 1_555 1_555
C32 C31 1_555 1_555
H21 C32 1_555 1_555
C33 C32 1_555 1_555
H22 C33 1_555 1_555
C34 C29 1_555 1_555
C35 C34 1_555 1_555
H23 C35 1_555 1_555
C36 C35 1_555 1_555
H24 C36 1_555 1_555
C37 C28 1_555 1_555
C38 C37 1_555 1_555
C39 C38 1_555 1_555
H25 C39 1_555 1_555
C40 C39 1_555 1_555
H26 C40 1_555 1_555
C41 C40 1_555 1_555
H27 C41 1_555 1_555
C42 C41 1_555 1_555
C43 Mg2 1_555 1_555
C44 C42 1_555 1_555
C45 C44 1_555 1_555
H28 C45 1_555 1_555
C46 C45 1_555 1_555
H29 C46 1_555 1_555
C47 C46 1_555 1_555
C48 C47 1_555 1_555
H30 C48 1_555 1_555
C49 C48 1_555 1_555
H31 C49 1_555 1_555
C50 C49 1_555 1_555
H32 C50 1_555 1_555
C51 C50 1_555 1_555
H33 C51 1_555 1_555
C52 C47 1_555 1_555
C53 O4 1_555 1_555
C54 O4 1_555 1_555
H34 C54 1_555 1_555
H35 C54 1_555 1_555
H36 C54 1_555 1_555
C55 O5 1_555 1_555
H37 C55 1_555 1_555
H38 C55 1_555 1_555
C56 C55 1_555 1_555
H39 C56 1_555 1_555
H40 C56 1_555 1_555
C57 C56 1_555 1_555
H41 C57 1_555 1_555
H42 C57 1_555 1_555
C58 O5 1_555 1_555
H43 C58 1_555 1_555
H44 C58 1_555 1_555
C59 O6 1_555 1_555
H45 C59 1_555 1_555
H46 C59 1_555 1_555
C60 C59 1_555 1_555
H47 C60 1_555 1_555
H48 C60 1_555 1_555
C61 C60 1_555 1_555
H49 C61 1_555 1_555
H50 C61 1_555 1_555
C62 O6 1_555 1_555
H51 C62 1_555 1_555
H52 C62 1_555 1_555
C63 C64 1_555 1_555
C64 H53 1_555 1_555
C65 C64 1_555 1_555
H54 C65 1_555 1_555
C66 C65 1_555 1_555
H55 C66 1_555 1_555
C67 C66 1_555 1_555
H56 C67 1_555 1_555
C68 C63 1_555 1_555
H57 C68 1_555 1_555
C69 C63 1_555 1_555
H58 C69 1_555 1_555
H59 C69 1_555 1_555
H60 C69 1_555 1_555
Mg2 O3 1_555 1_555
C6 C7 1_555 1_555
C9 C10 1_555 1_555
C11 C16 1_555 1_555
C15 C16 1_555 1_555
C17 C26 1_555 1_555
C24 C25 1_555 1_555
C25 C26 1_555 1_555
C33 C34 1_555 1_555
C36 C37 1_555 1_555
C38 C43 1_555 1_555
C42 C43 1_555 1_555
C44 C53 1_555 1_555
C51 C52 1_555 1_555
C52 C53 1_555 1_555
C57 C58 1_555 1_555
C61 C62 1_555 1_555
C67 C68 1_555 1_555

#END
