
#######################################################################
#
#                 Cambridge Crystallographic Data Centre
#                                CCDC 
#
#######################################################################
#
# If this CIF has been generated from an entry in the Cambridge 
# Structural Database, then it will include bibliographic, chemical, 
# crystal, experimental, refinement or atomic coordinate data resulting 
# from the CCDC's data processing and validation procedures.
#
#######################################################################

data_MUSQIB
_chemical_name_common            
2,6-Di-isopropyl-N-(1-(1,10-phenanthrolin-2-yl)propylidene)aniline
_chemical_formula_moiety         'C27 H29 N3'
_chemical_name_systematic        
(E)-N-(1-(1,10-phenanthrolin-9-yl)propylidene)-2,6-diisopropylbenzenamine
_symmetry_cell_setting           rhombohedral
_symmetry_space_group_name_H-M   'R -3'
_symmetry_Int_Tables_number      148
_space_group_name_Hall           '-R 3'
loop_
_symmetry_equiv_pos_site_id
_symmetry_equiv_pos_as_xyz
1 x,y,z
2 -y,x-y,z
3 -x+y,-x,z
4 2/3+x,1/3+y,1/3+z
5 2/3-y,1/3+x-y,1/3+z
6 2/3-x+y,1/3-x,1/3+z
7 1/3+x,2/3+y,2/3+z
8 1/3-y,2/3+x-y,2/3+z
9 1/3-x+y,2/3-x,2/3+z
10 -x,-y,-z
11 y,-x+y,-z
12 x-y,x,-z
13 1/3-x,2/3-y,2/3-z
14 1/3+y,2/3-x+y,2/3-z
15 1/3+x-y,2/3+x,2/3-z
16 2/3-x,1/3-y,1/3-z
17 2/3+y,1/3-x+y,1/3-z
18 2/3+x-y,1/3+x,1/3-z
_cell_length_a                   31.478(5)
_cell_length_b                   31.478(5)
_cell_length_c                   13.455(3)
_cell_angle_alpha                90
_cell_angle_beta                 90
_cell_angle_gamma                120
_cell_volume                     11545.9
_exptl_crystal_colour            colorless
_exptl_crystal_description       prism
_cell_formula_units_Z            18
loop_
_atom_site_label
_atom_site_type_symbol
_atom_site_fract_x
_atom_site_fract_y
_atom_site_fract_z
N1 N 0.10851(6) 0.27238(6) 0.54206(13)
C1 C 0.05949(7) 0.24061(7) 0.55240(16)
N2 N 0.21078(6) 0.35027(6) 0.68529(13)
C2 C 0.13202(7) 0.30245(7) 0.61701(15)
C3 C 0.10851(8) 0.30405(8) 0.70463(16)
H1 H 0.1267 0.3262 0.7565
C4 C 0.03295(7) 0.24003(8) 0.63714(16)
C5 C 0.26267(7) 0.38052(8) 0.68834(15)
N3 N 0.06042(7) 0.20639(8) 0.39251(15)
C6 C 0.18632(7) 0.33523(7) 0.60474(16)
C7 C 0.03392(8) 0.20596(8) 0.47259(17)
C8 C 0.05909(8) 0.27327(8) 0.71401(17)
H2 H 0.0425 0.2743 0.7721
C9 C 0.29176(8) 0.35815(8) 0.69411(16)
C10 C 0.28319(8) 0.43154(8) 0.69711(17)
C11 C -0.01685(8) 0.17334(8) 0.48215(19)
C12 C 0.34176(8) 0.38844(9) 0.71326(16)
H3 H 0.3622 0.3743 0.7185
C13 C 0.36216(8) 0.43845(9) 0.72471(18)
H4 H 0.3962 0.4582 0.7388
C14 C 0.26924(8) 0.30283(8) 0.68221(17)
H5 H 0.2428 0.2918 0.6311
C15 C -0.04270(8) 0.17402(9) 0.56922(19)
H6 H -0.0769 0.1517 0.5750
C16 C 0.20702(8) 0.34715(8) 0.50113(16)
H7 H 0.1986 0.3163 0.4661
H8 H 0.2432 0.3671 0.5050
C17 C 0.25105(9) 0.45476(8) 0.68846(18)
H9 H 0.2245 0.4346 0.6398
C18 C -0.01869(8) 0.20622(8) 0.64309(19)
H10 H -0.0364 0.2065 0.7001
C19 C 0.33330(8) 0.45970(9) 0.71582(17)
H11 H 0.3478 0.4943 0.7226
C20 C -0.04038(9) 0.14000(10) 0.4030(2)
H12 H -0.0746 0.1174 0.4057
C21 C 0.18750(9) 0.37535(9) 0.44084(18)
H13 H 0.2021 0.3823 0.3743
H14 H 0.1962 0.4063 0.4746
H15 H 0.1517 0.3554 0.4352
C22 C 0.30572(10) 0.28755(10) 0.6460(2)
H16 H 0.3209 0.3048 0.5839
H17 H 0.2884 0.2521 0.6343
H18 H 0.3312 0.2960 0.6964
C23 C 0.03645(10) 0.17430(11) 0.3214(2)
H19 H 0.0546 0.1741 0.2651
C24 C -0.01373(10) 0.14063(11) 0.3235(2)
H20 H -0.0290 0.1185 0.2698
C25 C 0.24535(11) 0.27641(10) 0.7785(2)
H21 H 0.2218 0.2862 0.8008
H22 H 0.2706 0.2852 0.8295
H23 H 0.2282 0.2409 0.7674
C26 C 0.27799(12) 0.50692(11) 0.6481(3)
H24 H 0.2553 0.5196 0.6441
H25 H 0.2908 0.5070 0.5817
H26 H 0.3052 0.5278 0.6925
C27 C 0.22601(12) 0.45217(13) 0.7866(2)
H27 H 0.2055 0.4673 0.7790
H28 H 0.2509 0.4697 0.8377
H29 H 0.2054 0.4178 0.8063
loop_
_geom_bond_atom_site_label_1
_geom_bond_atom_site_label_2
_geom_bond_site_symmetry_1
_geom_bond_site_symmetry_2
N1 C1 1_555 1_555
C1 C4 1_555 1_555
N2 C5 1_555 1_555
C2 N1 1_555 1_555
C3 C2 1_555 1_555
H1 C3 1_555 1_555
C4 C8 1_555 1_555
C5 C9 1_555 1_555
N3 C7 1_555 1_555
C6 N2 1_555 1_555
C7 C1 1_555 1_555
C8 C3 1_555 1_555
H2 C8 1_555 1_555
C9 C12 1_555 1_555
C10 C5 1_555 1_555
C11 C7 1_555 1_555
C12 H3 1_555 1_555
C13 C12 1_555 1_555
H4 C13 1_555 1_555
C14 C9 1_555 1_555
H5 C14 1_555 1_555
C15 C11 1_555 1_555
H6 C15 1_555 1_555
C16 C6 1_555 1_555
H7 C16 1_555 1_555
H8 C16 1_555 1_555
C17 C10 1_555 1_555
H9 C17 1_555 1_555
C18 C4 1_555 1_555
H10 C18 1_555 1_555
C19 C10 1_555 1_555
H11 C19 1_555 1_555
C20 C11 1_555 1_555
H12 C20 1_555 1_555
C21 C16 1_555 1_555
H13 C21 1_555 1_555
H14 C21 1_555 1_555
H15 C21 1_555 1_555
C22 C14 1_555 1_555
H16 C22 1_555 1_555
H17 C22 1_555 1_555
H18 C22 1_555 1_555
C23 N3 1_555 1_555
H19 C23 1_555 1_555
C24 C20 1_555 1_555
H20 C24 1_555 1_555
C25 C14 1_555 1_555
H21 C25 1_555 1_555
H22 C25 1_555 1_555
H23 C25 1_555 1_555
C26 C17 1_555 1_555
H24 C26 1_555 1_555
H25 C26 1_555 1_555
H26 C26 1_555 1_555
C27 C17 1_555 1_555
H27 C27 1_555 1_555
H28 C27 1_555 1_555
H29 C27 1_555 1_555
C2 C6 1_555 1_555
C13 C19 1_555 1_555
C15 C18 1_555 1_555
C23 C24 1_555 1_555

#END
