
#######################################################################
#
#                 Cambridge Crystallographic Data Centre
#                                CCDC 
#
#######################################################################
#
# If this CIF has been generated from an entry in the Cambridge 
# Structural Database, then it will include bibliographic, chemical, 
# crystal, experimental, refinement or atomic coordinate data resulting 
# from the CCDC's data processing and validation procedures.
#
#######################################################################

data_MUSSUP
_chemical_formula_moiety         'C24 H26 N2 O3'
_chemical_name_systematic        
2-(2S)-(Benzyl(1-(4-nitrophenyl)propan-2-yl)amino)-1-phenylethanol
_symmetry_cell_setting           triclinic
_symmetry_space_group_name_H-M   'P 1'
_symmetry_Int_Tables_number      1
_space_group_name_Hall           'P 1'
loop_
_symmetry_equiv_pos_site_id
_symmetry_equiv_pos_as_xyz
1 x,y,z
_cell_length_a                   9.523(5)
_cell_length_b                   9.796(6)
_cell_length_c                   13.333(4)
_cell_angle_alpha                71.92(3)
_cell_angle_beta                 85.59(3)
_cell_angle_gamma                63.64(4)
_cell_volume                     1056.73
_exptl_crystal_colour            'light yellow'
_exptl_crystal_description       prismatic
_cell_formula_units_Z            2
loop_
_atom_site_label
_atom_site_type_symbol
_atom_site_fract_x
_atom_site_fract_y
_atom_site_fract_z
O1 O 1.2278(7) 1.3068(6) 0.0917(4)
O2 O 1.4471(6) 1.1123(6) 0.0812(3)
O3 O 0.7264(4) 0.6107(4) 0.4491(2)
N1 N 1.3067(7) 1.1673(6) 0.0925(3)
N2 N 0.8542(5) 0.6239(5) 0.2593(3)
C1 C 1.2263(6) 1.0673(6) 0.1074(3)
C2 C 1.0714(7) 1.1242(7) 0.1265(4)
C3 C 0.9962(6) 1.0301(7) 0.1384(4)
C4 C 1.0754(6) 0.8747(6) 0.1325(3)
C5 C 1.2334(5) 0.8192(6) 0.1142(3)
C6 C 1.3096(6) 0.9120(6) 0.1011(3)
C7 C 0.9907(6) 0.7770(7) 0.1410(3)
C8 C 0.9744(6) 0.6823(6) 0.2535(3)
C9 C 0.6957(6) 0.7470(6) 0.2617(3)
C10 C 0.6630(6) 0.7619(6) 0.3734(3)
C11 C 0.4889(6) 0.8455(5) 0.3830(3)
C12 C 0.3979(6) 0.7657(7) 0.3891(3)
C13 C 0.2376(8) 0.8379(10) 0.3973(4)
C14 C 0.1660(9) 0.9903(11) 0.3991(5)
C15 C 0.2501(11) 1.0753(8) 0.3920(5)
C16 C 0.4138(9) 1.0016(7) 0.3833(4)
C17 C 0.8623(6) 0.5511(6) 0.1766(4)
C18 C 0.7596(5) 0.4659(6) 0.1913(3)
C19 C 0.7586(6) 0.3577(6) 0.2871(4)
C20 C 0.6691(8) 0.2779(7) 0.2973(4)
C21 C 0.5781(7) 0.3012(7) 0.2125(4)
C22 C 0.5806(6) 0.4055(6) 0.1158(4)
C23 C 0.6702(6) 0.4865(6) 0.1070(3)
C24 C 1.1307(7) 0.5449(8) 0.3037(5)
H1 H 0.8131 0.5412 0.4205
H2 H 1.0175 1.2283 0.1338
H3 H 0.8876 1.0705 0.1504
H4 H 1.2895 0.7121 0.1124
H5 H 1.4170 0.8737 0.0858
H6 H 0.8870 0.8454 0.1095
H7 H 1.0447 0.7025 0.1033
H8 H 0.9418 0.7553 0.2933
H9 H 0.6838 0.8465 0.2133
H10 H 0.6211 0.7185 0.2420
H11 H 0.7111 0.8225 0.3856
H12 H 0.4452 0.6591 0.3860
H13 H 0.1753 0.7826 0.4036
H14 H 0.0558 1.0412 0.4048
H15 H 0.2015 1.1832 0.3927
H16 H 0.4756 1.0574 0.3773
H17 H 0.8281 0.6341 0.1109
H18 H 0.9681 0.4769 0.1744
H19 H 0.8231 0.3354 0.3466
H20 H 0.6632 0.2102 0.3645
H21 H 0.5186 0.2430 0.2192
H22 H 0.5192 0.4232 0.0561
H23 H 0.6706 0.5587 0.0403
H24 H 1.1371 0.5330 0.3770
H25 H 1.2140 0.5663 0.2710
H26 H 1.1387 0.4489 0.2953
O4 O 0.4435(7) 0.0750(6) 0.8591(4)
O5 O 0.6534(7) -0.1447(6) 0.9164(4)
O6 O 0.9335(5) 0.7856(5) 0.5324(2)
N3 N 0.5849(7) 0.0007(7) 0.8822(3)
N4 N 1.0205(5) 0.5601(5) 0.7238(2)
C25 C 0.6762(6) 0.0922(6) 0.8702(3)
C26 C 0.8364(7) 0.0143(6) 0.8772(3)
C27 C 0.9211(6) 0.0994(6) 0.8668(3)
C28 C 0.8468(5) 0.2637(6) 0.8500(3)
C29 C 0.6834(6) 0.3382(6) 0.8427(4)
C30 C 0.5990(6) 0.2545(6) 0.8518(4)
C31 C 0.9382(6) 0.3572(7) 0.8429(3)
C32 C 0.9652(6) 0.4390(6) 0.7292(3)
C33 C 0.8919(6) 0.7195(6) 0.7180(3)
C34 C 0.8158(6) 0.8155(6) 0.6054(3)
C35 C 0.7333(6) 0.9888(6) 0.5933(3)
C36 C 0.8179(7) 1.0745(6) 0.5896(3)
C37 C 0.7443(12) 1.2358(10) 0.5782(4)
C38 C 0.5882(15) 1.3127(10) 0.5728(5)
C39 C 0.5007(10) 1.2343(12) 0.5785(6)
C40 C 0.5707(7) 1.0691(9) 0.5869(4)
C41 C 1.1443(6) 0.5069(7) 0.8054(4)
C42 C 1.2263(5) 0.6104(5) 0.7864(3)
C43 C 1.2836(7) 0.6577(7) 0.6894(3)
C44 C 1.3616(8) 0.7508(8) 0.6746(4)
C45 C 1.3863(7) 0.7968(7) 0.7570(4)
C46 C 1.3334(7) 0.7499(7) 0.8520(4)
C47 C 1.2531(6) 0.6603(6) 0.8665(3)
C48 C 1.0757(8) 0.3193(8) 0.6767(5)
H27 H 1.0172 0.6824 0.5631
H28 H 0.8865 -0.0982 0.8892
H29 H 1.0325 0.0464 0.8696
H30 H 0.6315 0.4506 0.8309
H31 H 0.4874 0.3069 0.8452
H32 H 0.8869 0.4356 0.8780
H33 H 1.0393 0.2838 0.8773
H34 H 0.8662 0.4934 0.6900
H35 H 0.8150 0.7060 0.7645
H36 H 0.9333 0.7793 0.7392
H37 H 0.7418 0.7813 0.5924
H38 H 0.9295 1.0199 0.5942
H39 H 0.8033 1.2939 0.5742
H40 H 0.5382 1.4238 0.5655
H41 H 0.3895 1.2916 0.5755
H42 H 0.5098 1.0135 0.5888
H43 H 1.1007 0.5007 0.8722
H44 H 1.2207 0.4032 0.8057
H45 H 1.2700 0.6228 0.6335
H46 H 1.4021 0.7787 0.6080
H47 H 1.4372 0.8641 0.7455
H48 H 1.3547 0.7763 0.9101
H49 H 1.2107 0.6339 0.9325
H50 H 1.0486 0.3548 0.6029
H51 H 1.0713 0.2202 0.7084
H52 H 1.1790 0.3056 0.6880
loop_
_geom_bond_atom_site_label_1
_geom_bond_atom_site_label_2
_geom_bond_site_symmetry_1
_geom_bond_site_symmetry_2
O1 N1 1_555 1_555
O2 N1 1_555 1_555
O3 C10 1_555 1_555
N1 C1 1_555 1_555
N2 C8 1_555 1_555
C1 C2 1_555 1_555
C2 C3 1_555 1_555
C3 C4 1_555 1_555
C4 C5 1_555 1_555
C5 C6 1_555 1_555
C6 C1 1_555 1_555
C7 C4 1_555 1_555
C8 C7 1_555 1_555
C9 N2 1_555 1_555
C10 C9 1_555 1_555
C11 C10 1_555 1_555
C12 C11 1_555 1_555
C13 C12 1_555 1_555
C14 C13 1_555 1_555
C15 C14 1_555 1_555
C16 C11 1_555 1_555
C17 N2 1_555 1_555
C18 C17 1_555 1_555
C19 C18 1_555 1_555
C20 C19 1_555 1_555
C21 C20 1_555 1_555
C22 C21 1_555 1_555
C23 C18 1_555 1_555
C24 C8 1_555 1_555
H1 O3 1_555 1_555
H2 C2 1_555 1_555
H3 C3 1_555 1_555
H4 C5 1_555 1_555
H5 C6 1_555 1_555
H6 C7 1_555 1_555
H7 C7 1_555 1_555
H8 C8 1_555 1_555
H9 C9 1_555 1_555
H10 C9 1_555 1_555
H11 C10 1_555 1_555
H12 C12 1_555 1_555
H13 C13 1_555 1_555
H14 C14 1_555 1_555
H15 C15 1_555 1_555
H16 C16 1_555 1_555
H17 C17 1_555 1_555
H18 C17 1_555 1_555
H19 C19 1_555 1_555
H20 C20 1_555 1_555
H21 C21 1_555 1_555
H22 C22 1_555 1_555
H23 C23 1_555 1_555
H24 C24 1_555 1_555
H25 C24 1_555 1_555
H26 C24 1_555 1_555
O4 N3 1_555 1_555
O5 N3 1_555 1_555
O6 C34 1_555 1_555
N3 C25 1_555 1_555
N4 C32 1_555 1_555
C25 C26 1_555 1_555
C26 C27 1_555 1_555
C27 C28 1_555 1_555
C28 C29 1_555 1_555
C29 C30 1_555 1_555
C30 C25 1_555 1_555
C31 C28 1_555 1_555
C32 C31 1_555 1_555
C33 N4 1_555 1_555
C34 C33 1_555 1_555
C35 C34 1_555 1_555
C36 C35 1_555 1_555
C37 C36 1_555 1_555
C38 C37 1_555 1_555
C39 C38 1_555 1_555
C40 C35 1_555 1_555
C41 N4 1_555 1_555
C42 C41 1_555 1_555
C43 C42 1_555 1_555
C44 C43 1_555 1_555
C45 C44 1_555 1_555
C46 C45 1_555 1_555
C47 C42 1_555 1_555
C48 C32 1_555 1_555
H27 O6 1_555 1_555
H28 C26 1_555 1_555
H29 C27 1_555 1_555
H30 C29 1_555 1_555
H31 C30 1_555 1_555
H32 C31 1_555 1_555
H33 C31 1_555 1_555
H34 C32 1_555 1_555
H35 C33 1_555 1_555
H36 C33 1_555 1_555
H37 C34 1_555 1_555
H38 C36 1_555 1_555
H39 C37 1_555 1_555
H40 C38 1_555 1_555
H41 C39 1_555 1_555
H42 C40 1_555 1_555
H43 C41 1_555 1_555
H44 C41 1_555 1_555
H45 C43 1_555 1_555
H46 C44 1_555 1_555
H47 C45 1_555 1_555
H48 C46 1_555 1_555
H49 C47 1_555 1_555
H50 C48 1_555 1_555
H51 C48 1_555 1_555
H52 C48 1_555 1_555
C15 C16 1_555 1_555
C22 C23 1_555 1_555
C39 C40 1_555 1_555
C46 C47 1_555 1_555

#END
