
#######################################################################
#
#                 Cambridge Crystallographic Data Centre
#                                CCDC 
#
#######################################################################
#
# If this CIF has been generated from an entry in the Cambridge 
# Structural Database, then it will include bibliographic, chemical, 
# crystal, experimental, refinement or atomic coordinate data resulting 
# from the CCDC's data processing and validation procedures.
#
#######################################################################

data_MUTBEK
_chemical_formula_moiety         'C13 H15 N1 O3'
_chemical_name_systematic        
3-(6-Methyl-3,4-dihydro-2H-chromen-2-yl)-1,3-oxazolidin-2-one
_symmetry_cell_setting           triclinic
_symmetry_space_group_name_H-M   'P -1'
_symmetry_Int_Tables_number      2
_space_group_name_Hall           '-P 1'
loop_
_symmetry_equiv_pos_site_id
_symmetry_equiv_pos_as_xyz
1 x,y,z
2 -x,-y,-z
_cell_length_a                   10.7856(14)
_cell_length_b                   11.0756(15)
_cell_length_c                   12.1131(16)
_cell_angle_alpha                69.1857(19)
_cell_angle_beta                 65.3217(18)
_cell_angle_gamma                63.0462(19)
_cell_volume                     1147.1
_exptl_crystal_colour            colorless
_exptl_crystal_description       block
_cell_formula_units_Z            4
loop_
_atom_site_label
_atom_site_type_symbol
_atom_site_fract_x
_atom_site_fract_y
_atom_site_fract_z
N1 N 0.32836(9) 0.65183(9) 0.48415(8)
C1 C 0.34394(10) 0.66217(11) 0.58651(9)
O1 O 0.39523(10) 0.73585(10) 0.59173(8)
O2 O 0.29356(8) 0.57252(8) 0.68728(7)
C2 C 0.25126(13) 0.49114(11) 0.64801(10)
H1 H 0.3287(16) 0.4008(15) 0.6465(14)
H2 H 0.1616(16) 0.4810(14) 0.7082(13)
C3 C 0.23654(14) 0.57121(12) 0.51999(11)
H3 H 0.1334(17) 0.6353(16) 0.5231(14)
H4 H 0.2673(17) 0.5139(16) 0.4634(15)
C4 C 0.34375(10) 0.75416(10) 0.37204(9)
H5 H 0.4197(13) 0.7869(12) 0.3628(11)
C5 C 0.37714(11) 0.70147(10) 0.25901(9)
H6 H 0.4652(16) 0.6169(15) 0.2525(14)
H7 H 0.2958(15) 0.6787(14) 0.2662(13)
C6 C 0.40074(12) 0.81395(11) 0.14333(10)
H8 H 0.5004(16) 0.8182(14) 0.1204(13)
H9 H 0.3952(17) 0.7950(16) 0.0705(15)
C7 C 0.28705(10) 0.95463(10) 0.16416(8)
C8 C 0.19688(9) 0.97541(9) 0.28365(8)
O3 O 0.20670(7) 0.87089(7) 0.38858(6)
C9 C 0.09015(10) 1.10457(10) 0.30262(9)
H10 H 0.0315(15) 1.1133(14) 0.3874(14)
C10 C 0.07659(10) 1.21496(10) 0.20203(9)
H11 H 0.0033(15) 1.3052(14) 0.2154(12)
C11 C 0.16684(10) 1.19878(10) 0.08117(9)
C12 C 0.26906(10) 1.06755(10) 0.06491(9)
H12 H 0.3292(15) 1.0543(13) -0.0207(13)
C13 C 0.15500(13) 1.31943(11) -0.02736(10)
H13 H 0.056(2) 1.374(2) -0.0281(18)
H14 H 0.207(3) 1.292(2) -0.109(2)
H15 H 0.199(2) 1.3783(19) -0.0299(17)
N2 N 0.24337(9) 0.12052(8) 0.60368(7)
C14 C 0.26346(9) 0.11676(9) 0.70881(8)
O4 O 0.34055(8) 0.16264(8) 0.71828(7)
O5 O 0.18363(8) 0.04863(8) 0.80862(6)
C15 C 0.11689(13) -0.00751(13) 0.76600(10)
H16 H 0.0164(19) 0.0108(17) 0.8196(16)
H17 H 0.1750(19) -0.1112(18) 0.7733(15)
C16 C 0.13138(12) 0.06564(11) 0.63081(10)
H18 H 0.0432(16) 0.1392(14) 0.6170(13)
H19 H 0.1613(17) 0.0018(17) 0.5774(15)
C17 C 0.30446(9) 0.19458(9) 0.48401(8)
H20 H 0.3750(13) 0.2198(12) 0.4905(11)
C18 C 0.37304(10) 0.11218(10) 0.38315(9)
H21 H 0.2970(15) 0.0917(13) 0.3752(12)
H22 H 0.4491(15) 0.0243(14) 0.4065(13)
C19 C 0.43810(10) 0.19699(10) 0.25971(9)
H23 H 0.4678(16) 0.1509(15) 0.1922(13)
H24 H 0.5262(15) 0.2023(14) 0.2614(12)
C20 C 0.32763(9) 0.34117(10) 0.23693(8)
C21 C 0.20782(9) 0.39290(9) 0.33541(8)
O6 O 0.18512(7) 0.32022(7) 0.45702(6)
C22 C 0.10176(10) 0.52378(10) 0.31496(9)
H25 H 0.0183(14) 0.5587(13) 0.3866(12)
C23 C 0.11651(11) 0.60457(10) 0.19584(9)
H26 H 0.0411(16) 0.6953(15) 0.1817(13)
C24 C 0.23650(11) 0.55768(11) 0.09497(9)
C25 C 0.33907(10) 0.42599(11) 0.11827(9)
H27 H 0.4241(15) 0.3900(14) 0.0476(13)
C26 C 0.25229(14) 0.64676(14) -0.03392(10)
H28 H 0.175(2) 0.670(2) -0.062(2)
H29 H 0.343(2) 0.604(2) -0.094(2)
H30 H 0.255(2) 0.736(2) -0.0386(19)
loop_
_geom_bond_atom_site_label_1
_geom_bond_atom_site_label_2
_geom_bond_site_symmetry_1
_geom_bond_site_symmetry_2
N1 C1 1_555 1_555
C1 O1 1_555 1_555
O2 C1 1_555 1_555
C2 O2 1_555 1_555
H1 C2 1_555 1_555
H2 C2 1_555 1_555
C3 N1 1_555 1_555
H3 C3 1_555 1_555
H4 C3 1_555 1_555
C4 N1 1_555 1_555
H5 C4 1_555 1_555
C5 C4 1_555 1_555
H6 C5 1_555 1_555
H7 C5 1_555 1_555
C6 C5 1_555 1_555
H8 C6 1_555 1_555
H9 C6 1_555 1_555
C7 C6 1_555 1_555
C8 C7 1_555 1_555
O3 C4 1_555 1_555
C9 C8 1_555 1_555
H10 C9 1_555 1_555
C10 C9 1_555 1_555
H11 C10 1_555 1_555
C11 C10 1_555 1_555
C12 C7 1_555 1_555
H12 C12 1_555 1_555
C13 C11 1_555 1_555
H13 C13 1_555 1_555
H14 C13 1_555 1_555
H15 C13 1_555 1_555
N2 C14 1_555 1_555
C14 O4 1_555 1_555
O5 C14 1_555 1_555
C15 O5 1_555 1_555
H16 C15 1_555 1_555
H17 C15 1_555 1_555
C16 N2 1_555 1_555
H18 C16 1_555 1_555
H19 C16 1_555 1_555
C17 N2 1_555 1_555
H20 C17 1_555 1_555
C18 C17 1_555 1_555
H21 C18 1_555 1_555
H22 C18 1_555 1_555
C19 C18 1_555 1_555
H23 C19 1_555 1_555
H24 C19 1_555 1_555
C20 C19 1_555 1_555
C21 C20 1_555 1_555
O6 C17 1_555 1_555
C22 C21 1_555 1_555
H25 C22 1_555 1_555
C23 C22 1_555 1_555
H26 C23 1_555 1_555
C24 C23 1_555 1_555
C25 C20 1_555 1_555
H27 C25 1_555 1_555
C26 C24 1_555 1_555
H28 C26 1_555 1_555
H29 C26 1_555 1_555
H30 C26 1_555 1_555
C2 C3 1_555 1_555
C8 O3 1_555 1_555
C11 C12 1_555 1_555
C15 C16 1_555 1_555
C21 O6 1_555 1_555
C24 C25 1_555 1_555

#END
