
#######################################################################
#
#                 Cambridge Crystallographic Data Centre
#                                CCDC 
#
#######################################################################
#
# If this CIF has been generated from an entry in the Cambridge 
# Structural Database, then it will include bibliographic, chemical, 
# crystal, experimental, refinement or atomic coordinate data resulting 
# from the CCDC's data processing and validation procedures.
#
#######################################################################

data_MUTDOW
_chemical_formula_moiety         'C12 H13 Cl1 N2 O2'
_chemical_name_systematic        
'3-butyl-1-chloroimidazo[1,5-a]pyridine-7-carboxylic acid'
_symmetry_cell_setting           monoclinic
_symmetry_space_group_name_H-M   'P 21/c'
_symmetry_Int_Tables_number      14
_space_group_name_Hall           '-P 2ybc'
loop_
_symmetry_equiv_pos_site_id
_symmetry_equiv_pos_as_xyz
1 x,y,z
2 -x,1/2+y,1/2-z
3 -x,-y,-z
4 x,1/2-y,1/2+z
_cell_length_a                   4.7190(13)
_cell_length_b                   22.606(6)
_cell_length_c                   11.214(3)
_cell_angle_alpha                90
_cell_angle_beta                 92.837(3)
_cell_angle_gamma                90
_cell_volume                     1194.82
_cell_formula_units_Z            4
loop_
_atom_site_label
_atom_site_type_symbol
_atom_site_fract_x
_atom_site_fract_y
_atom_site_fract_z
C1 C 0.5827(3) 0.43090(6) 0.09227(12)
C2 C 0.6551(3) 0.37694(6) 0.16127(12)
C3 C 0.8650(3) 0.37845(6) 0.24980(11)
H1 H 0.9632 0.4143 0.2681
C4 C 0.9335(3) 0.32649(6) 0.31326(11)
C5 C 1.1198(3) 0.30976(6) 0.40601(11)
C6 C 0.8967(3) 0.23040(6) 0.35713(12)
C7 C 0.5764(3) 0.27259(6) 0.19290(11)
H2 H 0.4795 0.2368 0.1734
C8 C 0.5086(3) 0.32255(6) 0.13370(12)
H3 H 0.3616 0.3220 0.0727
C9 C 0.7979(3) 0.16787(6) 0.35190(13)
H4 H 0.5880 0.1675 0.3507
H5 H 0.8684 0.1474 0.4255
C10 C 0.8938(3) 0.13306(6) 0.24372(13)
H6 H 0.8382 0.1550 0.1698
H7 H 1.1033 0.1297 0.2486
C11 C 0.7641(3) 0.07143(7) 0.23744(15)
H8 H 0.8216 0.0496 0.3113
H9 H 0.5548 0.0751 0.2341
C12 C 0.8515(4) 0.03584(7) 0.13039(17)
H10 H 0.8056 0.0582 0.0570
H11 H 0.7492 -0.0019 0.1276
H12 H 1.0562 0.0283 0.1375
Cl1 Cl 1.35756(7) 0.35569(2) 0.48069(3)
N1 N 1.0987(2) 0.25205(5) 0.43256(10)
N2 N 0.7900(2) 0.27365(5) 0.28322(10)
O1 O 0.7286(2) 0.47720(5) 0.11502(10)
H13 H 0.6749 0.5044 0.0681
O2 O 0.3803(2) 0.42857(5) 0.01382(10)
loop_
_geom_bond_atom_site_label_1
_geom_bond_atom_site_label_2
_geom_bond_site_symmetry_1
_geom_bond_site_symmetry_2
C1 C2 1_555 1_555
C2 C3 1_555 1_555
C3 H1 1_555 1_555
C4 C3 1_555 1_555
C5 C4 1_555 1_555
C6 C9 1_555 1_555
C7 H2 1_555 1_555
C8 C2 1_555 1_555
H3 C8 1_555 1_555
C9 H4 1_555 1_555
H5 C9 1_555 1_555
C10 C9 1_555 1_555
H6 C10 1_555 1_555
H7 C10 1_555 1_555
C11 C10 1_555 1_555
H8 C11 1_555 1_555
H9 C11 1_555 1_555
C12 C11 1_555 1_555
H10 C12 1_555 1_555
H11 C12 1_555 1_555
H12 C12 1_555 1_555
Cl1 C5 1_555 1_555
N1 C5 1_555 1_555
N2 C4 1_555 1_555
O1 C1 1_555 1_555
H13 O1 1_555 1_555
O2 C1 1_555 1_555
C6 N1 1_555 1_555
C6 N2 1_555 1_555
C7 C8 1_555 1_555
C7 N2 1_555 1_555

#END
