
#######################################################################
#
#                 Cambridge Crystallographic Data Centre
#                                CCDC 
#
#######################################################################
#
# If this CIF has been generated from an entry in the Cambridge 
# Structural Database, then it will include bibliographic, chemical, 
# crystal, experimental, refinement or atomic coordinate data resulting 
# from the CCDC's data processing and validation procedures.
#
#######################################################################

data_MUTFUE
_chemical_formula_moiety         'C50 H61 O6 P1,C1 H2 Cl2'
_chemical_name_systematic        
"4-hydroxy-2,6-bis(2,4,6-triisopropylphenyl)-9,10,11,12,13,14-hexahydrodinaphtho[2,1-d:1',2'-f][1,3,2]dioxaphosphepine-8,15-dione 4-oxide dichloromethane solvate"
_symmetry_cell_setting           orthorhombic
_symmetry_space_group_name_H-M   'P 21 21 21'
_symmetry_Int_Tables_number      19
_space_group_name_Hall           'P 2ac 2ab'
loop_
_symmetry_equiv_pos_site_id
_symmetry_equiv_pos_as_xyz
1 x,y,z
2 1/2-x,-y,1/2+z
3 1/2+x,1/2-y,-z
4 -x,1/2+y,1/2-z
_cell_length_a                   8.9488(18)
_cell_length_b                   19.741(4)
_cell_length_c                   28.129(6)
_cell_angle_alpha                90
_cell_angle_beta                 90
_cell_angle_gamma                90
_cell_volume                     4969.22
_exptl_crystal_description       block
_cell_formula_units_Z            4
loop_
_atom_site_label
_atom_site_type_symbol
_atom_site_fract_x
_atom_site_fract_y
_atom_site_fract_z
P1 P 0.0704(4) -0.46640(15) 0.29811(11)
O1 O -0.0279(8) -0.4394(4) 0.3426(3)
C1 C 0.0450(12) -0.4056(5) 0.3801(4)
O2 O 0.1974(9) -0.4078(3) 0.2926(3)
C2 C 0.1019(11) -0.3423(5) 0.3718(3)
O3 O -0.0272(9) -0.4776(4) 0.2574(3)
C3 C 0.1822(13) -0.3102(6) 0.4094(4)
O4 O 0.1674(10) -0.5249(4) 0.3156(3)
H1 H 0.1383 -0.5604 0.3036
C4 C 0.2806(14) -0.2481(6) 0.3989(5)
H2 H 0.3489 -0.2588 0.3732
H3 H 0.2178 -0.2108 0.3886
O5 O 0.2678(11) -0.3387(5) 0.5340(3)
C5 C 0.3580(16) -0.2293(8) 0.4366(6)
H4 H 0.3344 -0.1816 0.4403
H5 H 0.4611 -0.2307 0.4260
O6 O -0.0835(10) -0.1385(4) 0.2199(3)
C6 C 0.3640(15) -0.2550(7) 0.4858(5)
H6 H 0.4670 -0.2663 0.4933
H7 H 0.3336 -0.2190 0.5071
C7 C 0.2723(15) -0.3138(6) 0.4953(5)
C8 C 0.1843(12) -0.3426(6) 0.4550(5)
C9 C 0.1136(12) -0.4066(6) 0.4602(4)
H8 H 0.1149 -0.4264 0.4902
C10 C 0.0442(12) -0.4412(6) 0.4247(4)
C11 C -0.0369(14) -0.5079(5) 0.4310(3)
C12 C 0.0438(12) -0.5674(6) 0.4298(4)
C13 C -0.0298(15) -0.6295(5) 0.4364(4)
H9 H 0.0259 -0.6692 0.4382
C14 C -0.1748(16) -0.6324(7) 0.4400(5)
C15 C -0.2521(10) -0.5675(8) 0.4407(4)
H10 H -0.3550 -0.5688 0.4452
C16 C -0.1904(12) -0.5058(7) 0.4356(4)
C17 C 0.2216(13) -0.5705(5) 0.4269(4)
H11 H 0.2555 -0.5292 0.4108
C18 C 0.2798(15) -0.6298(7) 0.3990(5)
H12 H 0.3870 -0.6285 0.3986
H13 H 0.2425 -0.6276 0.3671
H14 H 0.2470 -0.6711 0.4137
C19 C 0.2902(12) -0.5710(7) 0.4762(4)
H15 H 0.3971 -0.5727 0.4736
H16 H 0.2553 -0.6099 0.4934
H17 H 0.2616 -0.5306 0.4929
C20 C -0.267(2) -0.6971(9) 0.4474(5)
H18 H -0.1781 -0.7263 0.4480
C21 C -0.317(2) -0.7231(9) 0.4010(7)
H19 H -0.3682 -0.7654 0.4054
H20 H -0.2327 -0.7297 0.3806
H21 H -0.3844 -0.6910 0.3867
C22 C -0.308(3) -0.7148(11) 0.4886(7)
H22 H -0.3571 -0.7580 0.4869
H23 H -0.3762 -0.6817 0.5011
H24 H -0.2225 -0.7181 0.5090
C23 C -0.2801(13) -0.4432(7) 0.4358(6)
H25 H -0.2121 -0.4053 0.4297
C24 C -0.399(2) -0.4409(9) 0.3998(7)
H26 H -0.3559 -0.4476 0.3689
H27 H -0.4473 -0.3976 0.4009
H28 H -0.4703 -0.4760 0.4061
C25 C -0.351(2) -0.4318(8) 0.4859(6)
H29 H -0.2743 -0.4323 0.5097
H30 H -0.4219 -0.4673 0.4923
H31 H -0.4016 -0.3889 0.4865
C26 C 0.1471(13) -0.3423(5) 0.2848(4)
C27 C 0.0829(13) -0.3104(5) 0.3236(4)
C28 C 0.0068(12) -0.2476(5) 0.3164(4)
C29 C -0.0717(11) -0.2118(5) 0.3568(4)
H32 H -0.1457 -0.2419 0.3705
H33 H 0.0005 -0.2010 0.3814
C30 C -0.1356(13) -0.1576(7) 0.3432(5)
H34 H -0.0938 -0.1236 0.3643
H35 H -0.2378 -0.1638 0.3539
C31 C -0.1536(13) -0.1211(6) 0.2988(4)
H36 H -0.2587 -0.1173 0.2909
H37 H -0.1125 -0.0758 0.3017
C32 C -0.0759(13) -0.1580(6) 0.2623(5)
C33 C 0.0032(12) -0.2232(5) 0.2711(4)
C34 C 0.0808(16) -0.2560(6) 0.2334(4)
H38 H 0.0829 -0.2358 0.2035
C35 C 0.1506(12) -0.3151(5) 0.2399(4)
C36 C 0.2314(12) -0.3512(5) 0.2018(4)
C37 C 0.3879(11) -0.3562(6) 0.2021(4)
C38 C 0.4649(13) -0.3919(6) 0.1673(6)
H39 H 0.5688 -0.3935 0.1672
C39 C 0.3833(17) -0.4250(7) 0.1329(5)
C40 C 0.2271(15) -0.4220(6) 0.1313(5)
H40 H 0.1734 -0.4449 0.1080
C41 C 0.1530(15) -0.3824(6) 0.1668(4)
C42 C 0.4807(11) -0.3185(7) 0.2384(5)
H41 H 0.4106 -0.2970 0.2605
C43 C 0.583(2) -0.3619(9) 0.2675(6)
H42 H 0.5255 -0.3968 0.2829
H43 H 0.6311 -0.3346 0.2911
H44 H 0.6564 -0.3822 0.2473
C44 C 0.571(2) -0.2621(8) 0.2158(6)
H45 H 0.5060 -0.2325 0.1985
H46 H 0.6437 -0.2813 0.1945
H47 H 0.6219 -0.2369 0.2402
C45 C 0.465(2) -0.4673(9) 0.0942(7)
H48 H 0.3793 -0.4749 0.0731
C46 C 0.500(2) -0.5316(8) 0.1018(7)
H49 H 0.5475 -0.5499 0.0739
H50 H 0.4114 -0.5570 0.1087
H51 H 0.5679 -0.5346 0.1282
C47 C 0.5518(17) -0.4248(9) 0.0626(5)
H52 H 0.5972 -0.4523 0.0385
H53 H 0.6282 -0.4020 0.0805
H54 H 0.4876 -0.3918 0.0480
C48 C -0.0204(11) -0.3831(6) 0.1622(4)
H55 H -0.0623 -0.3697 0.1930
C49 C -0.0625(18) -0.3277(7) 0.1256(5)
H56 H -0.0197 -0.2852 0.1351
H57 H -0.1692 -0.3235 0.1240
H58 H -0.0245 -0.3401 0.0949
C50 C -0.0912(17) -0.4508(6) 0.1481(5)
H59 H -0.0679 -0.4844 0.1717
H60 H -0.0524 -0.4649 0.1179
H61 H -0.1976 -0.4456 0.1460
Cl1 Cl -0.6609(9) -0.1209(4) 0.2921(3)
C51 C -0.660(4) -0.0595(17) 0.2520(9)
H62 H -0.7627 -0.0512 0.2424
H63 H -0.6239 -0.0186 0.2672
Cl2 Cl -0.567(2) -0.0719(6) 0.2070(5)
loop_
_geom_bond_atom_site_label_1
_geom_bond_atom_site_label_2
_geom_bond_site_symmetry_1
_geom_bond_site_symmetry_2
P1 O1 1_555 1_555
O1 C1 1_555 1_555
C1 C2 1_555 1_555
O2 P1 1_555 1_555
C2 C3 1_555 1_555
O3 P1 1_555 1_555
C3 C4 1_555 1_555
O4 P1 1_555 1_555
H1 O4 1_555 1_555
C4 H2 1_555 1_555
H3 C4 1_555 1_555
O5 C7 1_555 1_555
C5 C4 1_555 1_555
H4 C5 1_555 1_555
H5 C5 1_555 1_555
O6 C32 1_555 1_555
C6 C5 1_555 1_555
H6 C6 1_555 1_555
H7 C6 1_555 1_555
C7 C6 1_555 1_555
C8 C3 1_555 1_555
C9 C8 1_555 1_555
H8 C9 1_555 1_555
C10 C1 1_555 1_555
C11 C10 1_555 1_555
C12 C11 1_555 1_555
C13 C12 1_555 1_555
H9 C13 1_555 1_555
C14 C13 1_555 1_555
C15 C14 1_555 1_555
H10 C15 1_555 1_555
C16 C11 1_555 1_555
C17 C12 1_555 1_555
H11 C17 1_555 1_555
C18 C17 1_555 1_555
H12 C18 1_555 1_555
H13 C18 1_555 1_555
H14 C18 1_555 1_555
C19 C17 1_555 1_555
H15 C19 1_555 1_555
H16 C19 1_555 1_555
H17 C19 1_555 1_555
C20 C14 1_555 1_555
H18 C20 1_555 1_555
C21 C20 1_555 1_555
H19 C21 1_555 1_555
H20 C21 1_555 1_555
H21 C21 1_555 1_555
C22 C20 1_555 1_555
H22 C22 1_555 1_555
H23 C22 1_555 1_555
H24 C22 1_555 1_555
C23 C16 1_555 1_555
H25 C23 1_555 1_555
C24 C23 1_555 1_555
H26 C24 1_555 1_555
H27 C24 1_555 1_555
H28 C24 1_555 1_555
C25 C23 1_555 1_555
H29 C25 1_555 1_555
H30 C25 1_555 1_555
H31 C25 1_555 1_555
C26 O2 1_555 1_555
C27 C2 1_555 1_555
C28 C27 1_555 1_555
C29 C28 1_555 1_555
H32 C29 1_555 1_555
H33 C29 1_555 1_555
C30 C29 1_555 1_555
H34 C30 1_555 1_555
H35 C30 1_555 1_555
C31 C30 1_555 1_555
H36 C31 1_555 1_555
H37 C31 1_555 1_555
C32 C31 1_555 1_555
C33 C28 1_555 1_555
C34 C33 1_555 1_555
H38 C34 1_555 1_555
C35 C26 1_555 1_555
C36 C35 1_555 1_555
C37 C36 1_555 1_555
C38 C37 1_555 1_555
H39 C38 1_555 1_555
C39 C38 1_555 1_555
C40 C39 1_555 1_555
H40 C40 1_555 1_555
C41 C36 1_555 1_555
C42 C37 1_555 1_555
H41 C42 1_555 1_555
C43 C42 1_555 1_555
H42 C43 1_555 1_555
H43 C43 1_555 1_555
H44 C43 1_555 1_555
C44 C42 1_555 1_555
H45 C44 1_555 1_555
H46 C44 1_555 1_555
H47 C44 1_555 1_555
C45 C39 1_555 1_555
H48 C45 1_555 1_555
C46 C45 1_555 1_555
H49 C46 1_555 1_555
H50 C46 1_555 1_555
H51 C46 1_555 1_555
C47 C45 1_555 1_555
H52 C47 1_555 1_555
H53 C47 1_555 1_555
H54 C47 1_555 1_555
C48 C41 1_555 1_555
H55 C48 1_555 1_555
C49 C48 1_555 1_555
H56 C49 1_555 1_555
H57 C49 1_555 1_555
H58 C49 1_555 1_555
C50 C48 1_555 1_555
H59 C50 1_555 1_555
H60 C50 1_555 1_555
H61 C50 1_555 1_555
Cl1 C51 1_555 1_555
C51 H62 1_555 1_555
H63 C51 1_555 1_555
Cl2 C51 1_555 1_555
C7 C8 1_555 1_555
C9 C10 1_555 1_555
C15 C16 1_555 1_555
C26 C27 1_555 1_555
C32 C33 1_555 1_555
C34 C35 1_555 1_555
C40 C41 1_555 1_555

#END
