
#######################################################################
#
#                 Cambridge Crystallographic Data Centre
#                                CCDC 
#
#######################################################################
#
# If this CIF has been generated from an entry in the Cambridge 
# Structural Database, then it will include bibliographic, chemical, 
# crystal, experimental, refinement or atomic coordinate data resulting 
# from the CCDC's data processing and validation procedures.
#
#######################################################################

data_MUTKAP
_chemical_formula_moiety         'C50 H65 O4 P1'
_chemical_name_systematic        
"2,6-bis(2,4,6-triisopropylphenyl)-8,9,10,11,12,13,14,15-octahydrodinaphtho[2,1-d:1',2'-f][1,3,2]dioxaphosphepin-4-ol 4-oxide"
_symmetry_cell_setting           orthorhombic
_symmetry_space_group_name_H-M   'P 21 21 21'
_symmetry_Int_Tables_number      19
_space_group_name_Hall           'P 2ac 2ab'
loop_
_symmetry_equiv_pos_site_id
_symmetry_equiv_pos_as_xyz
1 x,y,z
2 1/2-x,-y,1/2+z
3 1/2+x,1/2-y,-z
4 -x,1/2+y,1/2-z
_cell_length_a                   15.166(5)
_cell_length_b                   17.314(6)
_cell_length_c                   17.550(6)
_cell_angle_alpha                90
_cell_angle_beta                 90
_cell_angle_gamma                90
_cell_volume                     4608.35
_exptl_crystal_description       block
_cell_formula_units_Z            4
loop_
_atom_site_label
_atom_site_type_symbol
_atom_site_fract_x
_atom_site_fract_y
_atom_site_fract_z
C1 C 0.6888(3) 0.9657(3) 0.6994(4)
C2 C 0.7557(3) 0.9882(3) 0.7493(4)
C3 C 0.7648(4) 0.9435(4) 0.8136(4)
H1 H 0.8098 0.9556 0.8476
C4 C 0.7097(4) 0.8804(4) 0.8310(3)
C5 C 0.6426(3) 0.8616(3) 0.7795(3)
C6 C 0.6353(3) 0.9030(3) 0.7104(3)
C7 C 0.727(3) 0.834(2) 0.9001(15)
H2 H 0.7899 0.8230 0.9026
H3 H 0.7119 0.8642 0.9445
C8 C 0.6796(13) 0.7600(11) 0.9043(11)
H4 H 0.6829 0.7402 0.9559
H5 H 0.7078 0.7229 0.8708
C9 C 0.5813(13) 0.7690(10) 0.8810(10)
H6 H 0.5522 0.7191 0.8815
H7 H 0.5510 0.8029 0.9163
C10 C 0.5801(16) 0.7995(14) 0.8096(14)
H8 H 0.5210 0.8197 0.8023
H9 H 0.5858 0.7561 0.7750
C11 C 0.8141(3) 1.0545(3) 0.7310(3)
C12 C 0.8744(4) 1.0492(4) 0.6706(3)
C13 C 0.8839(4) 0.9738(4) 0.6249(4)
H10 H 0.8385 0.9369 0.6409
C14 C 0.8735(6) 0.9914(6) 0.5399(5)
H11 H 0.9208 1.0242 0.5235
H12 H 0.8182 1.0170 0.5314
H13 H 0.8749 0.9440 0.5115
C15 C 0.9736(6) 0.9397(6) 0.6383(6)
H14 H 0.9832 0.9336 0.6920
H15 H 1.0177 0.9735 0.6176
H16 H 0.9773 0.8903 0.6137
C16 C 0.9287(5) 1.1106(4) 0.6534(4)
H17 H 0.9671 1.1061 0.6123
C17 C 0.9284(5) 1.1763(4) 0.6934(4)
C18 C 0.8696(5) 1.1813(4) 0.7534(5)
H18 H 0.8674 1.2270 0.7812
C19 C 0.8143(4) 1.1224(4) 0.7739(4)
C20 C 0.7537(5) 1.1323(4) 0.8428(5)
H19 H 0.7096 1.0910 0.8404
C21 C 0.8090(6) 1.1191(6) 0.9167(5)
H20 H 0.8574 1.1548 0.9179
H21 H 0.8314 1.0672 0.9171
H22 H 0.7723 1.1270 0.9606
C22 C 0.7034(6) 1.2090(5) 0.8443(7)
H23 H 0.7387 1.2476 0.8690
H24 H 0.6491 1.2025 0.8718
H25 H 0.6908 1.2250 0.7931
C23 C 0.9827(6) 1.2453(6) 0.6718(6)
H26 H 0.9451 1.2888 0.6867
C24 C 0.9940(9) 1.2569(7) 0.5924(7)
H27 H 1.0055 1.2082 0.5682
H28 H 1.0428 1.2911 0.5839
H29 H 0.9414 1.2792 0.5714
C25 C 1.0571(8) 1.2554(9) 0.7169(8)
H30 H 1.0578 1.2193 0.7584
H31 H 1.1085 1.2478 0.6858
H32 H 1.0570 1.3071 0.7366
C26 C 0.5729(3) 0.8783(3) 0.6499(3)
C27 C 0.5102(3) 0.9283(3) 0.6225(3)
C28 C 0.4435(3) 0.9095(3) 0.5714(3)
C29 C 0.4466(4) 0.8335(3) 0.5455(3)
H33 H 0.4011 0.8159 0.5145
C30 C 0.5146(4) 0.7826(3) 0.5638(4)
C31 C 0.5796(4) 0.8046(3) 0.6146(3)
C32 C 0.5237(16) 0.7067(10) 0.5198(12)
H34 H 0.4659 0.6831 0.5155
H35 H 0.5442 0.7181 0.4687
C33 C 0.5817(15) 0.6531(11) 0.5535(15)
H36 H 0.5916 0.6104 0.5188
H37 H 0.5556 0.6327 0.5997
C34 C 0.6665(11) 0.6903(11) 0.5716(12)
H38 H 0.7058 0.6517 0.5930
H39 H 0.6929 0.7086 0.5246
C35 C 0.6609(6) 0.7545(5) 0.6243(7)
H40 H 0.7128 0.7865 0.6180
H41 H 0.6616 0.7343 0.6758
C36 C 0.3756(3) 0.9656(3) 0.5423(3)
C37 C 0.3117(4) 0.9939(4) 0.5906(4)
C38 C 0.2483(4) 1.0441(4) 0.5616(4)
H42 H 0.2061 1.0644 0.5943
C39 C 0.2463(4) 1.0639(4) 0.4874(4)
C40 C 0.3117(4) 1.0346(5) 0.4401(4)
H43 H 0.3112 1.0484 0.3890
C41 C 0.3760(3) 0.9868(3) 0.4651(3)
C42 C 0.3040(4) 0.9732(4) 0.6752(4)
H44 H 0.3525 0.9378 0.6871
C43 C 0.3137(6) 1.0415(6) 0.7263(4)
H45 H 0.2643 1.0754 0.7195
H46 H 0.3671 1.0684 0.7140
H47 H 0.3159 1.0245 0.7784
C44 C 0.2196(5) 0.9306(6) 0.6908(5)
H48 H 0.2109 0.8918 0.6524
H49 H 0.1712 0.9662 0.6899
H50 H 0.2229 0.9064 0.7400
C45 C 0.4439(4) 0.9576(4) 0.4091(4)
H51 H 0.4910 0.9330 0.4388
C46 C 0.4066(6) 0.8969(5) 0.3561(4)
H52 H 0.4515 0.8806 0.3211
H53 H 0.3579 0.9182 0.3283
H54 H 0.3869 0.8533 0.3854
C47 C 0.4853(5) 1.0219(6) 0.3644(5)
H55 H 0.5190 1.0542 0.3980
H56 H 0.4399 1.0521 0.3405
H57 H 0.5233 1.0006 0.3260
C48 C 0.1720(6) 1.1174(7) 0.4582(5)
H58 H 0.1492 1.1433 0.5038
C49 C 0.0977(6) 1.0689(7) 0.4301(9)
H59 H 0.1199 1.0304 0.3957
H60 H 0.0558 1.1009 0.4040
H61 H 0.0695 1.0441 0.4725
C50 C 0.1968(8) 1.1798(8) 0.4060(7)
H62 H 0.2126 1.2248 0.4349
H63 H 0.2466 1.1632 0.3764
H64 H 0.1486 1.1920 0.3726
O1 O 0.6750(2) 1.0106(2) 0.6341(2)
O2 O 0.5110(2) 1.0045(2) 0.6509(2)
O3 O 0.5867(2) 1.13611(17) 0.6954(2)
O4 O 0.5801(2) 1.0889(2) 0.5350(2)
P1 P 0.58773(12) 1.05967(10) 0.62744(12)
C51? C 0.715(4) 0.841(3) 0.907(2)
H65? H 0.7656 0.8067 0.9054
H66? H 0.7275 0.8804 0.9446
C52? C 0.6465(17) 0.801(2) 0.9299(13)
H67? H 0.5991 0.8359 0.9441
H68? H 0.6623 0.7706 0.9742
C53? C 0.614(2) 0.7440(17) 0.8605(16)
H69? H 0.5686 0.7089 0.8789
H70? H 0.6629 0.7136 0.8418
C54? C 0.5738(17) 0.7986(15) 0.7915(18)
H71? H 0.5657 0.7687 0.7453
H72? H 0.5177 0.8208 0.8063
C55? C 0.508(2) 0.7004(12) 0.5376(19)
H73? H 0.4704 0.6972 0.4928
H74? H 0.4817 0.6688 0.5774
C56? C 0.6080(12) 0.6696(11) 0.5175(13)
H75? H 0.6402 0.7047 0.4845
H76? H 0.6086 0.6178 0.4964
C57? C 0.6430(16) 0.6727(12) 0.6086(17)
H77? H 0.6127 0.6322 0.6363
H78? H 0.7053 0.6598 0.6088
C58? C 0.633(3) 0.7408(17) 0.649(2)
H79? H 0.6910 0.7610 0.6598
H80? H 0.6060 0.7278 0.6977
loop_
_geom_bond_atom_site_label_1
_geom_bond_atom_site_label_2
_geom_bond_site_symmetry_1
_geom_bond_site_symmetry_2
C1 C2 1_555 1_555
C2 C3 1_555 1_555
C3 H1 1_555 1_555
C4 C3 1_555 1_555
C5 C4 1_555 1_555
C6 C1 1_555 1_555
C7 C4 1_555 1_555
H2 C7 1_555 1_555
H3 C7 1_555 1_555
C8 C7 1_555 1_555
H4 C8 1_555 1_555
H5 C8 1_555 1_555
C9 C8 1_555 1_555
H6 C9 1_555 1_555
H7 C9 1_555 1_555
C10 C5 1_555 1_555
H8 C10 1_555 1_555
H9 C10 1_555 1_555
C11 C2 1_555 1_555
C12 C11 1_555 1_555
C13 C12 1_555 1_555
H10 C13 1_555 1_555
C14 C13 1_555 1_555
H11 C14 1_555 1_555
H12 C14 1_555 1_555
H13 C14 1_555 1_555
C15 C13 1_555 1_555
H14 C15 1_555 1_555
H15 C15 1_555 1_555
H16 C15 1_555 1_555
C16 C12 1_555 1_555
H17 C16 1_555 1_555
C17 C16 1_555 1_555
C18 C17 1_555 1_555
H18 C18 1_555 1_555
C19 C11 1_555 1_555
C20 C19 1_555 1_555
H19 C20 1_555 1_555
C21 C20 1_555 1_555
H20 C21 1_555 1_555
H21 C21 1_555 1_555
H22 C21 1_555 1_555
C22 C20 1_555 1_555
H23 C22 1_555 1_555
H24 C22 1_555 1_555
H25 C22 1_555 1_555
C23 C17 1_555 1_555
H26 C23 1_555 1_555
C24 C23 1_555 1_555
H27 C24 1_555 1_555
H28 C24 1_555 1_555
H29 C24 1_555 1_555
C25 C23 1_555 1_555
H30 C25 1_555 1_555
H31 C25 1_555 1_555
H32 C25 1_555 1_555
C26 C6 1_555 1_555
C27 C26 1_555 1_555
C28 C27 1_555 1_555
C29 C28 1_555 1_555
H33 C29 1_555 1_555
C30 C29 1_555 1_555
C31 C26 1_555 1_555
C32 C30 1_555 1_555
H34 C32 1_555 1_555
H35 C32 1_555 1_555
C33 C32 1_555 1_555
H36 C33 1_555 1_555
H37 C33 1_555 1_555
C34 C33 1_555 1_555
H38 C34 1_555 1_555
H39 C34 1_555 1_555
C35 C31 1_555 1_555
H40 C35 1_555 1_555
H41 C35 1_555 1_555
C36 C28 1_555 1_555
C37 C36 1_555 1_555
C38 C37 1_555 1_555
H42 C38 1_555 1_555
C39 C38 1_555 1_555
C40 C39 1_555 1_555
H43 C40 1_555 1_555
C41 C36 1_555 1_555
C42 C37 1_555 1_555
H44 C42 1_555 1_555
C43 C42 1_555 1_555
H45 C43 1_555 1_555
H46 C43 1_555 1_555
H47 C43 1_555 1_555
C44 C42 1_555 1_555
H48 C44 1_555 1_555
H49 C44 1_555 1_555
H50 C44 1_555 1_555
C45 C41 1_555 1_555
H51 C45 1_555 1_555
C46 C45 1_555 1_555
H52 C46 1_555 1_555
H53 C46 1_555 1_555
H54 C46 1_555 1_555
C47 C45 1_555 1_555
H55 C47 1_555 1_555
H56 C47 1_555 1_555
H57 C47 1_555 1_555
C48 C39 1_555 1_555
H58 C48 1_555 1_555
C49 C48 1_555 1_555
H59 C49 1_555 1_555
H60 C49 1_555 1_555
H61 C49 1_555 1_555
C50 C48 1_555 1_555
H62 C50 1_555 1_555
H63 C50 1_555 1_555
H64 C50 1_555 1_555
O1 C1 1_555 1_555
O2 C27 1_555 1_555
O3 P1 1_555 1_555
O4 P1 1_555 1_555
P1 O1 1_555 1_555
C5 C6 1_555 1_555
C9 C10 1_555 1_555
C18 C19 1_555 1_555
C30 C31 1_555 1_555
C34 C35 1_555 1_555
C40 C41 1_555 1_555
O2 P1 1_555 1_555

#END
