
#######################################################################
#
#                 Cambridge Crystallographic Data Centre
#                                CCDC 
#
#######################################################################
#
# If this CIF has been generated from an entry in the Cambridge 
# Structural Database, then it will include bibliographic, chemical, 
# crystal, experimental, refinement or atomic coordinate data resulting 
# from the CCDC's data processing and validation procedures.
#
#######################################################################

data_MUTMEV
_chemical_name_common            Octamethoxy[22]porphyrin(2.2.2.2)
_chemical_formula_moiety         'C32 H34 N4 O8'
_chemical_name_systematic        
5,6,11,12,17,18,23,24-Octamethoxy-25,26,27,28-tetra-azapentacyclo[20.2.1.1^4,7^.1^10,13^.1^16,19^]octacosa-1(25),2,4,6,8,10(27),11,13,15,17,19,21,23-tridecaene
_symmetry_cell_setting           monoclinic
_symmetry_space_group_name_H-M   'P 21/n'
_symmetry_Int_Tables_number      14
_space_group_name_Hall           '-P 2yn'
loop_
_symmetry_equiv_pos_site_id
_symmetry_equiv_pos_as_xyz
1 x,y,z
2 1/2-x,1/2+y,1/2-z
3 -x,-y,-z
4 1/2+x,1/2-y,1/2+z
_cell_length_a                   9.2798(12)
_cell_length_b                   22.731(3)
_cell_length_c                   13.745(4)
_cell_angle_alpha                90
_cell_angle_beta                 101.57(2)
_cell_angle_gamma                90
_cell_volume                     2840.44
_exptl_crystal_colour            'deep blue'
_exptl_crystal_description       block
_cell_formula_units_Z            4
loop_
_atom_site_label
_atom_site_type_symbol
_atom_site_fract_x
_atom_site_fract_y
_atom_site_fract_z
O1 O 0.4085(4) 0.21025(16) 0.7277(3)
O2 O 0.9041(4) -0.09422(16) 1.1964(3)
N1 N 0.5333(5) 0.1328(2) 1.1185(5)
H1 H 0.5732 0.1004 1.1053
O3 O 0.9536(4) -0.15506(16) 0.8718(4)
O4 O 0.4594(4) 0.14085(18) 0.5431(4)
N2 N 0.5820(5) 0.0688(2) 0.7710(5)
O5 O 0.8282(5) -0.0309(2) 1.3815(4)
N3 N 0.7232(5) -0.0317(2) 0.8041(5)
H2 H 0.6697 -0.0028 0.8162
O6 O 0.8826(4) -0.11957(18) 0.6472(4)
C1 C 0.7316(6) -0.0235(3) 1.0194(6)
H3 H 0.6731 0.0029 0.9772
O7 O 0.4130(4) 0.2316(2) 1.2785(4)
C2 C 0.8180(6) -0.0454(3) 1.2027(6)
N4 N 0.6645(5) 0.0311(2) 1.1508(5)
C3 C 0.4642(6) 0.1547(3) 0.7209(6)
O8 O 0.3702(5) 0.27139(19) 1.0592(4)
C4 C 0.4249(6) 0.2194(3) 1.1025(7)
C5 C 0.7957(6) -0.0691(3) 0.8737(6)
C6 C 0.6425(6) 0.0674(3) 1.3162(5)
H4 H 0.6667 0.0567 1.3828
C7 C 0.5275(5) 0.1257(3) 0.9022(6)
H5 H 0.5680 0.0946 0.9426
C8 C 0.5634(6) 0.0731(3) 0.6724(6)
C9 C 0.4887(6) 0.1275(3) 0.6386(6)
C10 C 0.4812(6) 0.1712(3) 0.9503(6)
H6 H 0.4460 0.2040 0.9123
C11 C 0.6114(5) 0.0351(2) 0.6073(5)
H7 H 0.5858 0.0457 0.5407
C12 C 0.8715(6) -0.1099(3) 0.8238(6)
C13 C 0.8415(7) -0.0962(3) 0.7270(7)
C14 C 0.6912(6) 0.0291(3) 1.2506(6)
C15 C 0.5151(6) 0.1486(3) 1.2103(6)
C16 C 0.7466(7) -0.0460(3) 0.7124(6)
C17 C 0.7378(6) -0.0143(3) 1.1188(6)
C18 C 0.4808(6) 0.1742(3) 1.0505(6)
C19 C 0.5638(6) 0.1186(3) 1.2967(5)
H8 H 0.5392 0.1361 1.3523
C20 C 0.7981(6) -0.0651(3) 0.9740(5)
H9 H 0.8507 -0.0938 1.0144
C21 C 0.7884(7) -0.0203(3) 1.2849(7)
C22 C 0.4422(7) 0.2046(3) 1.1992(7)
C23 C 0.6926(6) -0.0168(3) 0.6260(6)
H10 H 0.7135 -0.0347 0.5696
C24 C 0.5245(6) 0.1180(3) 0.8029(6)
C25 C 1.0009(6) -0.1591(2) 0.6618(5)
H11 H 1.0879 -0.1397 0.6967
H12 H 1.0167 -0.1727 0.5986
H13 H 0.9790 -0.1921 0.7001
C26 C 0.2559(5) 0.2119(2) 0.7307(5)
H14 H 0.1989 0.2031 0.6661
H15 H 0.2307 0.2505 0.7506
H16 H 0.2354 0.1834 0.7776
C27 C 0.2951(7) 0.2713(3) 1.2617(6)
H17 H 0.3225 0.3059 1.2295
H18 H 0.2707 0.2821 1.3239
H19 H 0.2114 0.2532 1.2200
C28 C 0.3665(6) 0.1895(3) 0.5123(5)
H20 H 0.2712 0.1821 0.5268
H21 H 0.3575 0.1952 0.4421
H22 H 0.4079 0.2241 0.5470
C29 C 0.9451(6) -0.0683(3) 1.4165(6)
H23 H 0.9261 -0.1061 1.3854
H24 H 0.9565 -0.0725 1.4872
H25 H 1.0336 -0.0521 1.4013
C30 C 1.0994(5) -0.1390(2) 0.9182(6)
H26 H 1.1440 -0.1172 0.8723
H27 H 1.1560 -0.1739 0.9383
H28 H 1.0967 -0.1152 0.9755
C31 C 1.0504(5) -0.0791(3) 1.1869(6)
H29 H 1.0475 -0.0446 1.1462
H30 H 1.0926 -0.1111 1.1567
H31 H 1.1092 -0.0713 1.2515
C32 C 0.2285(7) 0.2689(3) 1.0025(7)
H32 H 0.2272 0.2435 0.9465
H33 H 0.1976 0.3076 0.9796
H34 H 0.1628 0.2537 1.0422
loop_
_geom_bond_atom_site_label_1
_geom_bond_atom_site_label_2
_geom_bond_site_symmetry_1
_geom_bond_site_symmetry_2
O1 C3 1_555 1_555
O2 C2 1_555 1_555
N1 H1 1_555 1_555
O3 C12 1_555 1_555
O4 C9 1_555 1_555
N2 C8 1_555 1_555
O5 C21 1_555 1_555
N3 H2 1_555 1_555
O6 C13 1_555 1_555
C1 H3 1_555 1_555
O7 C22 1_555 1_555
C2 C17 1_555 1_555
N4 C14 1_555 1_555
C3 C9 1_555 1_555
O8 C4 1_555 1_555
C4 C18 1_555 1_555
C5 N3 1_555 1_555
C6 H4 1_555 1_555
C7 H5 1_555 1_555
C8 C9 1_555 1_555
C10 C7 1_555 1_555
H6 C10 1_555 1_555
C11 C8 1_555 1_555
H7 C11 1_555 1_555
C12 C5 1_555 1_555
C13 C12 1_555 1_555
C14 C6 1_555 1_555
C15 N1 1_555 1_555
C16 N3 1_555 1_555
C17 C1 1_555 1_555
C18 N1 1_555 1_555
C19 C6 1_555 1_555
H8 C19 1_555 1_555
C20 C1 1_555 1_555
H9 C20 1_555 1_555
C21 C2 1_555 1_555
C22 C4 1_555 1_555
C23 C11 1_555 1_555
H10 C23 1_555 1_555
C24 N2 1_555 1_555
C25 O6 1_555 1_555
H11 C25 1_555 1_555
H12 C25 1_555 1_555
H13 C25 1_555 1_555
C26 O1 1_555 1_555
H14 C26 1_555 1_555
H15 C26 1_555 1_555
H16 C26 1_555 1_555
C27 O7 1_555 1_555
H17 C27 1_555 1_555
H18 C27 1_555 1_555
H19 C27 1_555 1_555
C28 O4 1_555 1_555
H20 C28 1_555 1_555
H21 C28 1_555 1_555
H22 C28 1_555 1_555
C29 O5 1_555 1_555
H23 C29 1_555 1_555
H24 C29 1_555 1_555
H25 C29 1_555 1_555
C30 O3 1_555 1_555
H26 C30 1_555 1_555
H27 C30 1_555 1_555
H28 C30 1_555 1_555
C31 O2 1_555 1_555
H29 C31 1_555 1_555
H30 C31 1_555 1_555
H31 C31 1_555 1_555
C32 O8 1_555 1_555
H32 C32 1_555 1_555
H33 C32 1_555 1_555
H34 C32 1_555 1_555
N4 C17 1_555 1_555
C3 C24 1_555 1_555
C5 C20 1_555 1_555
C7 C24 1_555 1_555
C10 C18 1_555 1_555
C13 C16 1_555 1_555
C14 C21 1_555 1_555
C15 C19 1_555 1_555
C15 C22 1_555 1_555
C16 C23 1_555 1_555

#END
