
#######################################################################
#
#                 Cambridge Crystallographic Data Centre
#                                CCDC 
#
#######################################################################
#
# If this CIF has been generated from an entry in the Cambridge 
# Structural Database, then it will include bibliographic, chemical, 
# crystal, experimental, refinement or atomic coordinate data resulting 
# from the CCDC's data processing and validation procedures.
#
#######################################################################

data_MUTMUK
_chemical_formula_moiety         'C27 H28 N2 O2'
_chemical_name_systematic        
'N-Benzoyl-3t-isopropyl-2,6-diaryl piperidine-4-one oxime'
_symmetry_cell_setting           triclinic
_symmetry_space_group_name_H-M   'P -1'
_symmetry_Int_Tables_number      2
_space_group_name_Hall           '-P 1'
loop_
_symmetry_equiv_pos_site_id
_symmetry_equiv_pos_as_xyz
1 x,y,z
2 -x,-y,-z
_cell_length_a                   9.2961(4)
_cell_length_b                   11.0213(5)
_cell_length_c                   11.3398(5)
_cell_angle_alpha                78.436(2)
_cell_angle_beta                 85.898(3)
_cell_angle_gamma                81.218(4)
_cell_volume                     1123.89
_exptl_crystal_colour            colorless
_exptl_crystal_description       prism
_chemical_melting_point          188deg.C
_cell_formula_units_Z            2
_exptl_crystal_recrystallization_method ethanol
loop_
_atom_site_label
_atom_site_type_symbol
_atom_site_fract_x
_atom_site_fract_y
_atom_site_fract_z
C1 C 0.81680(14) 0.01462(12) 0.34430(12)
C2 C 0.65422(15) 0.00730(14) 0.33902(15)
C3 C 0.55862(15) 0.13037(14) 0.32379(12)
C4 C 0.62893(15) 0.24675(14) 0.28739(14)
C5 C 0.75159(14) 0.21822(13) 0.19334(13)
C6 C 0.69243(15) 0.19090(14) 0.08113(13)
C7 C 0.59885(18) 0.28443(17) 0.01243(15)
H1 H 0.5735 0.3612 0.0361
C8 C 0.5429(2) 0.2647(2) -0.09086(17)
H2 H 0.4803 0.3282 -0.1359
C9 C 0.5792(2) 0.1521(2) -0.12729(17)
H3 H 0.5415 0.1393 -0.1969
C10 C 0.6711(2) 0.05904(19) -0.06075(16)
H4 H 0.6954 -0.0176 -0.0849
C11 C 0.72822(18) 0.07824(15) 0.04246(14)
H5 H 0.7916 0.0145 0.0864
C12 C 0.90400(14) -0.11219(13) 0.33705(12)
C13 C 1.00626(16) -0.13484(14) 0.24675(14)
H6 H 1.0246 -0.0695 0.1843
C14 C 1.08173(19) -0.25315(15) 0.24778(16)
H7 H 1.1502 -0.2667 0.1862
C15 C 1.0564(2) -0.35032(16) 0.33873(17)
H8 H 1.1080 -0.4298 0.3399
C16 C 0.9535(2) -0.32919(16) 0.42869(16)
H9 H 0.9346 -0.3951 0.4903
C17 C 0.87870(18) -0.21172(14) 0.42804(14)
H10 H 0.8100 -0.1988 0.4897
C18 C 1.00011(14) 0.14447(13) 0.26313(12)
C19 C 1.05993(14) 0.24348(13) 0.17117(13)
C20 C 1.05504(18) 0.24773(16) 0.04873(14)
H11 H 1.0061 0.1920 0.0212
C21 C 1.1227(2) 0.33446(18) -0.03268(16)
H12 H 1.1210 0.3360 -0.1149
C22 C 1.1924(2) 0.41843(17) 0.00801(18)
H13 H 1.2363 0.4778 -0.0469
C23 C 1.19748(19) 0.41509(16) 0.12898(17)
H14 H 1.2443 0.4725 0.1560
C24 C 1.13358(17) 0.32690(15) 0.21062(15)
H15 H 1.1399 0.3233 0.2928
C25 C 0.68116(19) 0.29718(15) 0.39157(15)
C26 C 0.5631(3) 0.3054(2) 0.4905(2)
H16 H 0.5958 0.3432 0.5511
H17 H 0.5425 0.2229 0.5261
H18 H 0.4764 0.3553 0.4570
C27 C 0.7290(3) 0.42488(19) 0.3468(2)
H19 H 0.6500 0.4816 0.3077
H20 H 0.8107 0.4176 0.2906
H21 H 0.7566 0.4562 0.4138
N1 N 0.86389(11) 0.11841(10) 0.25181(10)
N2 N 0.42001(13) 0.14377(12) 0.32838(12)
O1 O 1.07614(10) 0.08381(10) 0.34491(9)
O2 O 0.36970(11) 0.02678(11) 0.35447(11)
H22 H 0.2804 0.0372 0.3571
H23 H 0.6258(19) -0.0456(16) 0.4106(16)
H24 H 0.5532(19) 0.3149(16) 0.2471(15)
H25 H 0.8001(16) 0.2920(14) 0.1710(13)
H26 H 0.768(2) 0.2368(17) 0.4291(16)
H27 H 0.6382(18) -0.0336(15) 0.2736(15)
H28 H 0.8360(15) 0.0345(13) 0.4218(13)
loop_
_geom_bond_atom_site_label_1
_geom_bond_atom_site_label_2
_geom_bond_site_symmetry_1
_geom_bond_site_symmetry_2
C1 C2 1_555 1_555
C2 C3 1_555 1_555
C3 C4 1_555 1_555
C4 C5 1_555 1_555
C5 C6 1_555 1_555
C6 C7 1_555 1_555
C7 H1 1_555 1_555
C8 C7 1_555 1_555
H2 C8 1_555 1_555
C9 C8 1_555 1_555
H3 C9 1_555 1_555
C10 C9 1_555 1_555
H4 C10 1_555 1_555
C11 C6 1_555 1_555
H5 C11 1_555 1_555
C12 C1 1_555 1_555
C13 C12 1_555 1_555
H6 C13 1_555 1_555
C14 C13 1_555 1_555
H7 C14 1_555 1_555
C15 C14 1_555 1_555
H8 C15 1_555 1_555
C16 C15 1_555 1_555
H9 C16 1_555 1_555
C17 C12 1_555 1_555
H10 C17 1_555 1_555
C18 C19 1_555 1_555
C19 C20 1_555 1_555
C20 H11 1_555 1_555
C21 C20 1_555 1_555
H12 C21 1_555 1_555
C22 C21 1_555 1_555
H13 C22 1_555 1_555
C23 C22 1_555 1_555
H14 C23 1_555 1_555
C24 C19 1_555 1_555
H15 C24 1_555 1_555
C25 C4 1_555 1_555
C26 C25 1_555 1_555
H16 C26 1_555 1_555
H17 C26 1_555 1_555
H18 C26 1_555 1_555
C27 C25 1_555 1_555
H19 C27 1_555 1_555
H20 C27 1_555 1_555
H21 C27 1_555 1_555
N1 C1 1_555 1_555
N2 C3 1_555 1_555
O1 C18 1_555 1_555
O2 N2 1_555 1_555
H22 O2 1_555 1_555
H23 C2 1_555 1_555
H24 C4 1_555 1_555
H25 C5 1_555 1_555
H26 C25 1_555 1_555
H27 C2 1_555 1_555
H28 C1 1_555 1_555
C5 N1 1_555 1_555
C10 C11 1_555 1_555
C16 C17 1_555 1_555
C18 N1 1_555 1_555
C23 C24 1_555 1_555

#END
