
#######################################################################
#
#                 Cambridge Crystallographic Data Centre
#                                CCDC 
#
#######################################################################
#
# If this CIF has been generated from an entry in the Cambridge 
# Structural Database, then it will include bibliographic, chemical, 
# crystal, experimental, refinement or atomic coordinate data resulting 
# from the CCDC's data processing and validation procedures.
#
#######################################################################

data_MUTSAW01
_chemical_formula_moiety         'C6 H11 N3 O3'
_chemical_name_systematic        
2-[(E)-2-(Nitromethylidene)imidazolidin-1-yl]ethanol
_symmetry_cell_setting           monoclinic
_symmetry_space_group_name_H-M   'P 21/n'
_symmetry_Int_Tables_number      14
_space_group_name_Hall           '-P 2yn'
loop_
_symmetry_equiv_pos_site_id
_symmetry_equiv_pos_as_xyz
1 x,y,z
2 1/2-x,1/2+y,1/2-z
3 -x,-y,-z
4 1/2+x,1/2-y,1/2+z
_cell_length_a                   6.9422(2)
_cell_length_b                   8.7142(3)
_cell_length_c                   12.9698(4)
_cell_angle_alpha                90
_cell_angle_beta                 94.153(3)
_cell_angle_gamma                90
_cell_volume                     782.557
_exptl_crystal_colour            colorless
_exptl_crystal_description       prism
_cell_formula_units_Z            4
loop_
_atom_site_label
_atom_site_type_symbol
_atom_site_fract_x
_atom_site_fract_y
_atom_site_fract_z
C1 C 0.7352(2) 0.66673(18) 0.73309(13)
H1 H 0.7010 0.7696 0.7099
H2 H 0.8709 0.6509 0.7230
C2 C 0.70406(19) 0.65267(18) 0.84644(12)
H3 H 0.7338 0.5485 0.8687
H4 H 0.7932 0.7207 0.8851
C3 C 0.4516(2) 0.84632(17) 0.89333(14)
H5 H 0.4536 0.9106 0.8324
H6 H 0.5364 0.8904 0.9483
C4 C 0.2490(3) 0.82924(18) 0.92650(15)
H7 H 0.1570 0.8840 0.8802
H8 H 0.2396 0.8668 0.9964
C5 C 0.36609(19) 0.59107(16) 0.88760(10)
C6 C 0.3790(2) 0.43186(17) 0.87112(11)
H9 H 0.4933 0.3920 0.8490
N1 N 0.50847(16) 0.68944(13) 0.87087(9)
N2 N 0.21646(17) 0.66554(14) 0.92072(10)
H10 H 0.1119 0.6216 0.9370
N3 N 0.23318(18) 0.33545(14) 0.88605(10)
O1 O 0.62388(16) 0.55935(12) 0.67291(8)
H11 H 0.5161 0.5949 0.6580
O2 O 0.07390(15) 0.38210(13) 0.91700(9)
O3 O 0.25342(18) 0.19348(13) 0.86750(10)
loop_
_geom_bond_atom_site_label_1
_geom_bond_atom_site_label_2
_geom_bond_site_symmetry_1
_geom_bond_site_symmetry_2
C1 H1 1_555 1_555
H2 C1 1_555 1_555
C2 C1 1_555 1_555
H3 C2 1_555 1_555
H4 C2 1_555 1_555
C3 H5 1_555 1_555
H6 C3 1_555 1_555
C4 C3 1_555 1_555
H7 C4 1_555 1_555
H8 C4 1_555 1_555
C5 C6 1_555 1_555
C6 H9 1_555 1_555
N1 C2 1_555 1_555
N2 C4 1_555 1_555
H10 N2 1_555 1_555
N3 C6 1_555 1_555
O1 C1 1_555 1_555
H11 O1 1_555 1_555
O2 N3 1_555 1_555
O3 N3 1_555 1_555
C3 N1 1_555 1_555
C5 N1 1_555 1_555
C5 N2 1_555 1_555

#END
