
#######################################################################
#
#                 Cambridge Crystallographic Data Centre
#                                CCDC 
#
#######################################################################
#
# If this CIF has been generated from an entry in the Cambridge 
# Structural Database, then it will include bibliographic, chemical, 
# crystal, experimental, refinement or atomic coordinate data resulting 
# from the CCDC's data processing and validation procedures.
#
#######################################################################

data_MUTVEE
_chemical_formula_moiety         'C5 H4 N2 O2'
_chemical_name_systematic        'Pyridazine-4-carboxylic acid'
_symmetry_cell_setting           orthorhombic
_symmetry_space_group_name_H-M   'P n m a'
_symmetry_Int_Tables_number      62
_space_group_name_Hall           '-P 2ac 2n'
loop_
_symmetry_equiv_pos_site_id
_symmetry_equiv_pos_as_xyz
1 x,y,z
2 1/2-x,-y,1/2+z
3 -x,1/2+y,-z
4 1/2+x,1/2-y,1/2-z
5 -x,-y,-z
6 1/2+x,y,1/2-z
7 x,1/2-y,z
8 1/2-x,1/2+y,1/2+z
_cell_length_a                   11.165(2)
_cell_length_b                   6.2147(12)
_cell_length_c                   7.4130(15)
_cell_angle_alpha                90
_cell_angle_beta                 90
_cell_angle_gamma                90
_cell_volume                     514.367
_exptl_crystal_colour            'light yellow'
_exptl_crystal_description       block
_cell_formula_units_Z            4
loop_
_atom_site_label
_atom_site_type_symbol
_atom_site_fract_x
_atom_site_fract_y
_atom_site_fract_z
C1 C 0.2818(2) 0.2500 0.5013(4)
C2 C 0.1684(2) 0.2500 0.5785(4)
C3 C 0.0713(2) 0.2500 0.4658(4)
C4 C 0.0941(2) 0.2500 0.2796(4)
C5 C 0.1504(2) 0.2500 0.7812(4)
H1 H -0.0085 0.2500 0.5082
H2 H 0.0285 0.2500 0.2006
H3 H 0.3523 0.2500 0.5689
H4 H 0.2322 0.2500 0.9939
N1 N 0.2039(2) 0.2500 0.2149(3)
N2 N 0.3004(2) 0.2500 0.3227(3)
O1 O 0.05172(18) 0.2500 0.8455(3)
O2 O 0.25162(17) 0.2500 0.8715(3)
loop_
_geom_bond_atom_site_label_1
_geom_bond_atom_site_label_2
_geom_bond_site_symmetry_1
_geom_bond_site_symmetry_2
C1 C2 1_555 1_555
C2 C3 1_555 1_555
C3 C4 1_555 1_555
C4 H2 1_555 1_555
C5 C2 1_555 1_555
H1 C3 1_555 1_555
H3 C1 1_555 1_555
H4 O2 1_555 1_555
N1 C4 1_555 1_555
N2 C1 1_555 1_555
O1 C5 1_555 1_555
O2 C5 1_555 1_555
N1 N2 1_555 1_555

#END
