
#######################################################################
#
#                 Cambridge Crystallographic Data Centre
#                                CCDC 
#
#######################################################################
#
# If this CIF has been generated from an entry in the Cambridge 
# Structural Database, then it will include bibliographic, chemical, 
# crystal, experimental, refinement or atomic coordinate data resulting 
# from the CCDC's data processing and validation procedures.
#
#######################################################################

data_MUVCUD
_chemical_formula_moiety         'C24 H23 N3 O6'
_chemical_name_systematic        
9b-benzoyl-5-methoxy-2,8-dimethyl-3a,3b,4,6a,6b,9a,9b,9c-octahydropyrrolo[3,4-a]pyrrolo[3',4':3,4]pyrrolo[2,1,5-cd]indolizine-1,3,7,9(2H,8H)-tetrone
_symmetry_cell_setting           triclinic
_symmetry_space_group_name_H-M   'P -1'
_symmetry_Int_Tables_number      2
_space_group_name_Hall           '-P 1'
loop_
_symmetry_equiv_pos_site_id
_symmetry_equiv_pos_as_xyz
1 x,y,z
2 -x,-y,-z
_cell_length_a                   8.066(3)
_cell_length_b                   10.852(3)
_cell_length_c                   12.895(4)
_cell_angle_alpha                80.263(9)
_cell_angle_beta                 80.029(10)
_cell_angle_gamma                84.865(9)
_cell_volume                     1093.55
_exptl_crystal_colour            colorless
_exptl_crystal_description       block
_cell_formula_units_Z            2
loop_
_atom_site_label
_atom_site_type_symbol
_atom_site_fract_x
_atom_site_fract_y
_atom_site_fract_z
C1 C 0.1743(10) 0.1482(8) 0.9533(7)
H1 H 0.2256 0.1058 0.8981
C2 C 0.1887(13) 0.0963(9) 1.0570(7)
H2 H 0.2488 0.0198 1.0710
C3 C 0.1141(11) 0.1577(10) 1.1394(7)
H3 H 0.1227 0.1233 1.2096
C4 C 0.0258(11) 0.2716(10) 1.1166(7)
H4 H -0.0235 0.3145 1.1719
C5 C 0.0100(9) 0.3220(8) 1.0141(6)
H5 H -0.0523 0.3978 1.0010
C6 C 0.0847(8) 0.2626(7) 0.9295(6)
C7 C 0.0660(8) 0.3290(6) 0.8193(6)
C8 C 0.1946(7) 0.3101(5) 0.7171(5)
C9 C 0.1911(9) 0.4080(7) 0.5130(6)
C10 C 0.0951(8) 0.3461(6) 0.6185(5)
H6 H -0.0081 0.3972 0.6387
C11 C 0.0499(7) 0.2215(6) 0.5950(5)
H7 H -0.0730 0.2180 0.6063
C12 C 0.1196(7) 0.2206(6) 0.4791(5)
C13 C 0.2741(10) 0.3664(8) 0.3267(6)
H8 H 0.1869 0.3961 0.2848
H9 H 0.3342 0.2940 0.3015
H10 H 0.3507 0.4311 0.3204
C14 C 0.1272(7) 0.1174(5) 0.6791(5)
H11 H 0.0371 0.0963 0.7395
C15 C 0.1989(8) -0.0012(6) 0.6424(5)
H12 H 0.1284 -0.0514 0.6204
C16 C 0.3612(8) -0.0381(6) 0.6399(5)
C17 C 0.3242(9) -0.2402(7) 0.6038(7)
H13 H 0.2523 -0.2632 0.6706
H14 H 0.3890 -0.3131 0.5829
H15 H 0.2564 -0.2051 0.5504
C18 C 0.4919(7) 0.0414(6) 0.6612(5)
H16 H 0.5957 0.0328 0.6115
H17 H 0.5161 0.0155 0.7331
C19 C 0.4197(7) 0.1776(5) 0.6474(5)
H18 H 0.4025 0.2026 0.5731
C20 C 0.5857(8) 0.2480(6) 0.7791(6)
C21 C 0.5054(7) 0.2820(6) 0.6797(5)
H19 H 0.5866 0.3200 0.6198
C22 C 0.3593(7) 0.3790(6) 0.7102(5)
H20 H 0.3627 0.4541 0.6559
C23 C 0.3920(8) 0.4094(6) 0.8145(6)
C24 C 0.5682(11) 0.3224(10) 0.9545(7)
H21 H 0.6292 0.3948 0.9530
H22 H 0.6393 0.2480 0.9697
H23 H 0.4703 0.3218 1.0088
N1 N 0.1976(6) 0.3326(5) 0.4396(5)
N2 N 0.2527(6) 0.1807(4) 0.7170(4)
N3 N 0.5162(7) 0.3262(5) 0.8515(5)
O1 O -0.0528(6) 0.4077(5) 0.8098(4)
O2 O 0.2493(8) 0.5117(5) 0.4960(5)
O3 O 0.1123(6) 0.1420(5) 0.4255(4)
O4 O 0.4342(5) -0.1505(4) 0.6146(4)
O5 O 0.7008(6) 0.1689(5) 0.7934(5)
O6 O 0.3235(7) 0.4939(5) 0.8611(5)
loop_
_geom_bond_atom_site_label_1
_geom_bond_atom_site_label_2
_geom_bond_site_symmetry_1
_geom_bond_site_symmetry_2
C1 H1 1_555 1_555
C2 C1 1_555 1_555
H2 C2 1_555 1_555
C3 C2 1_555 1_555
H3 C3 1_555 1_555
C4 C3 1_555 1_555
H4 C4 1_555 1_555
C5 C4 1_555 1_555
H5 C5 1_555 1_555
C6 C1 1_555 1_555
C7 C6 1_555 1_555
C8 C7 1_555 1_555
C9 C10 1_555 1_555
C10 C8 1_555 1_555
H6 C10 1_555 1_555
C11 C10 1_555 1_555
H7 C11 1_555 1_555
C12 C11 1_555 1_555
C13 H8 1_555 1_555
H9 C13 1_555 1_555
H10 C13 1_555 1_555
C14 C11 1_555 1_555
H11 C14 1_555 1_555
C15 C14 1_555 1_555
H12 C15 1_555 1_555
C16 C15 1_555 1_555
C17 H13 1_555 1_555
H14 C17 1_555 1_555
H15 C17 1_555 1_555
C18 C16 1_555 1_555
H16 C18 1_555 1_555
H17 C18 1_555 1_555
C19 C18 1_555 1_555
H18 C19 1_555 1_555
C20 C21 1_555 1_555
C21 C19 1_555 1_555
H19 C21 1_555 1_555
C22 C8 1_555 1_555
H20 C22 1_555 1_555
C23 C22 1_555 1_555
C24 H21 1_555 1_555
H22 C24 1_555 1_555
H23 C24 1_555 1_555
N1 C9 1_555 1_555
N2 C8 1_555 1_555
N3 C20 1_555 1_555
O1 C7 1_555 1_555
O2 C9 1_555 1_555
O3 C12 1_555 1_555
O4 C16 1_555 1_555
O5 C20 1_555 1_555
O6 C23 1_555 1_555
C5 C6 1_555 1_555
C12 N1 1_555 1_555
C13 N1 1_555 1_555
C14 N2 1_555 1_555
C17 O4 1_555 1_555
C19 N2 1_555 1_555
C21 C22 1_555 1_555
C23 N3 1_555 1_555
C24 N3 1_555 1_555

#END
