
#######################################################################
#
#                 Cambridge Crystallographic Data Centre
#                                CCDC 
#
#######################################################################
#
# If this CIF has been generated from an entry in the Cambridge 
# Structural Database, then it will include bibliographic, chemical, 
# crystal, experimental, refinement or atomic coordinate data resulting 
# from the CCDC's data processing and validation procedures.
#
#######################################################################

data_MUVDEO
_chemical_formula_moiety         'C25 H25 N3 O7'
_chemical_name_systematic        
"5-methoxy-9b-(4-methoxybenzoyl)-2,8-dimethyl-3a,3b,4,6a,6b,9a,9b,9c-octahydropyrrolo[3,4-a]pyrrolo[3',4':3,4]pyrrolo[2,1,5-cd]indolizine-1,3,7,9(2H,8H)-tetrone unknown solvate"
_symmetry_cell_setting           triclinic
_symmetry_space_group_name_H-M   'P -1'
_symmetry_Int_Tables_number      2
_space_group_name_Hall           '-P 1'
loop_
_symmetry_equiv_pos_site_id
_symmetry_equiv_pos_as_xyz
1 x,y,z
2 -x,-y,-z
_cell_length_a                   11.1021(13)
_cell_length_b                   15.7067(18)
_cell_length_c                   15.7119(17)
_cell_angle_alpha                99.370(3)
_cell_angle_beta                 104.232(3)
_cell_angle_gamma                105.543(3)
_cell_volume                     2480.69
_exptl_crystal_colour            colorless
_exptl_crystal_description       block
_cell_formula_units_Z            4
loop_
_atom_site_label
_atom_site_type_symbol
_atom_site_fract_x
_atom_site_fract_y
_atom_site_fract_z
C1 C 0.1975(3) 0.6492(2) 0.3490(2)
H1 H 0.2493 0.6320 0.3976
H2 H 0.1114 0.6412 0.3551
H3 H 0.2387 0.7120 0.3513
C2 C 0.0817(3) 0.51516(19) 0.21730(18)
C3 C 0.1079(2) 0.47007(17) 0.13385(16)
H4 H 0.0340 0.4591 0.0797
C4 C 0.2314(2) 0.53954(17) 0.12895(17)
H5 H 0.2085 0.5682 0.0791
C5 C 0.2801(3) 0.60892(19) 0.21788(19)
C6 C 0.3204(2) 0.48481(17) 0.11091(17)
H6 H 0.2896 0.4556 0.0460
C7 C 0.4667(2) 0.52650(18) 0.13782(18)
H7 H 0.5011 0.5573 0.2017
H8 H 0.4904 0.5707 0.1032
C8 C 0.5220(2) 0.4505(2) 0.11879(17)
C9 C 0.7053(3) 0.4168(2) 0.0882(2)
H9 H 0.7167 0.3866 0.1367
H10 H 0.7894 0.4467 0.0825
H11 H 0.6520 0.3727 0.0326
C10 C 0.4583(3) 0.3636(2) 0.11249(18)
H12 H 0.4965 0.3196 0.0977
C11 C 0.3278(2) 0.33446(17) 0.12835(17)
H13 H 0.3365 0.3021 0.1767
C12 C 0.2097(2) 0.27021(18) 0.04570(17)
H14 H 0.1873 0.2077 0.0533
C13 C 0.0952(2) 0.30697(18) 0.04761(16)
H15 H 0.0194 0.2578 0.0480
C14 C 0.0637(2) 0.33612(18) -0.04043(17)
C15 C 0.1228(3) 0.3204(2) -0.18314(18)
H16 H 0.0351 0.2865 -0.2212
H17 H 0.1841 0.2981 -0.2060
H18 H 0.1402 0.3837 -0.1827
C16 C 0.2241(3) 0.27040(19) -0.04734(18)
C17 C 0.1451(2) 0.38100(17) 0.13819(16)
C18 C 0.0974(3) 0.3354(2) 0.20982(18)
C19 C 0.1595(2) 0.37434(19) 0.30898(17)
C20 C 0.2818(3) 0.43972(19) 0.35119(18)
H19 H 0.3357 0.4598 0.3167
C21 C 0.3243(3) 0.4753(2) 0.44338(19)
H20 H 0.4060 0.5197 0.4705
C22 C 0.2469(3) 0.4458(2) 0.49581(18)
C23 C 0.2178(4) 0.4620(3) 0.6440(2)
H21 H 0.1398 0.4783 0.6250
H22 H 0.2657 0.4944 0.7056
H23 H 0.1940 0.3976 0.6394
C24 C 0.1271(3) 0.3807(2) 0.4565(2)
H24 H 0.0748 0.3601 0.4917
C25 C 0.0844(3) 0.3457(2) 0.3644(2)
H25 H 0.0025 0.3013 0.3382
N1 N 0.1868(2) 0.59215(15) 0.26240(14)
N2 N 0.28830(18) 0.41259(13) 0.15924(13)
N3 N 0.1364(2) 0.30934(14) -0.09140(14)
O1 O -0.01485(19) 0.49024(14) 0.24084(13)
O2 O 0.3818(2) 0.67124(14) 0.24746(15)
O3 O 0.64268(17) 0.48228(13) 0.10733(13)
O4 O -0.01677(18) 0.37294(13) -0.06549(12)
O5 O 0.2960(2) 0.24119(17) -0.08036(13)
O6 O -0.0001(2) 0.26914(16) 0.18260(14)
O7 O 0.2989(2) 0.48540(15) 0.58645(13)
C26 C 0.3506(5) 0.7050(2) 0.6285(3)
H26 H 0.4322 0.6951 0.6283
H27 H 0.2799 0.6585 0.5820
H28 H 0.3375 0.7027 0.6864
C27 C 0.4683(3) 0.8682(2) 0.6405(2)
C28 C 0.4319(2) 0.94919(17) 0.61688(16)
H29 H 0.4888 0.9799 0.5847
C29 C 0.2889(2) 0.90887(18) 0.55582(17)
H30 H 0.2834 0.9121 0.4933
C30 C 0.2493(4) 0.8117(2) 0.5619(2)
C31 C 0.2166(2) 0.96787(18) 0.59499(16)
H31 H 0.2311 1.0229 0.5719
C32 C 0.0720(2) 0.9310(2) 0.58571(19)
H32 H 0.0198 0.9182 0.5229
H33 H 0.0536 0.8749 0.6057
C33 C 0.0386(3) 1.0018(2) 0.6432(2)
C34 C -0.1426(3) 1.0486(3) 0.6657(3)
H34 H -0.1165 1.0481 0.7285
H35 H -0.2367 1.0290 0.6427
H36 H -0.1073 1.1092 0.6593
C35 C 0.1271(3) 1.0678(2) 0.71052(19)
H37 H 0.1005 1.1121 0.7406
C36 C 0.2683(2) 1.07385(17) 0.73993(17)
H38 H 0.2910 1.0735 0.8042
C37 C 0.3521(3) 1.2309(2) 0.5131(2)
H39 H 0.4051 1.2938 0.5291
H40 H 0.2611 1.2261 0.4933
H41 H 0.3735 1.1978 0.4651
C38 C 0.3222(3) 1.2053(2) 0.6599(2)
C39 C 0.3722(2) 1.15897(17) 0.73093(17)
H42 H 0.4159 1.2030 0.7898
C40 C 0.4710(2) 1.12186(17) 0.69764(16)
H43 H 0.5592 1.1535 0.7400
C41 C 0.4643(3) 1.14525(17) 0.60803(18)
C42 C 0.4295(2) 1.01828(17) 0.69913(16)
C43 C 0.5217(3) 1.00930(18) 0.78688(17)
C44 C 0.4798(2) 0.94945(17) 0.84470(16)
C45 C 0.5792(3) 0.94150(19) 0.91441(18)
H44 H 0.6664 0.9703 0.9194
C46 C 0.5511(3) 0.8924(2) 0.97529(19)
H45 H 0.6189 0.8877 1.0207
C47 C 0.4225(3) 0.84986(18) 0.96953(18)
C48 C 0.3220(3) 0.85218(18) 0.89920(19)
H46 H 0.2352 0.8208 0.8931
C49 C 0.3517(3) 0.90169(19) 0.83797(18)
H47 H 0.2835 0.9031 0.7906
C50 C 0.2723(3) 0.7742(2) 1.0405(2)
H48 H 0.2400 0.8246 1.0507
H49 H 0.2717 0.7444 1.0892
H50 H 0.2172 0.7317 0.9843
N4 N 0.3541(3) 0.79419(17) 0.61178(19)
N5 N 0.29006(18) 0.99432(14) 0.69216(13)
N6 N 0.3774(2) 1.19281(14) 0.59169(14)
O8 O 0.5745(2) 0.86461(15) 0.67764(16)
O9 O 0.1416(3) 0.75556(16) 0.5270(2)
O10 O -0.09396(19) 0.98784(16) 0.61568(14)
O11 O 0.5281(2) 1.12959(13) 0.55838(13)
O12 O 0.2458(2) 1.24838(17) 0.65955(16)
O13 O 0.63756(18) 1.05307(13) 0.80473(13)
O14 O 0.40353(19) 0.80666(14) 1.03624(13)
loop_
_geom_bond_atom_site_label_1
_geom_bond_atom_site_label_2
_geom_bond_site_symmetry_1
_geom_bond_site_symmetry_2
C1 H1 1_555 1_555
H2 C1 1_555 1_555
H3 C1 1_555 1_555
C2 C3 1_555 1_555
C3 H4 1_555 1_555
C4 C3 1_555 1_555
H5 C4 1_555 1_555
C5 C4 1_555 1_555
C6 C4 1_555 1_555
H6 C6 1_555 1_555
C7 C6 1_555 1_555
H7 C7 1_555 1_555
H8 C7 1_555 1_555
C8 C7 1_555 1_555
C9 H9 1_555 1_555
H10 C9 1_555 1_555
H11 C9 1_555 1_555
C10 C8 1_555 1_555
H12 C10 1_555 1_555
C11 C10 1_555 1_555
H13 C11 1_555 1_555
C12 C11 1_555 1_555
H14 C12 1_555 1_555
C13 C12 1_555 1_555
H15 C13 1_555 1_555
C14 C13 1_555 1_555
C15 H16 1_555 1_555
H17 C15 1_555 1_555
H18 C15 1_555 1_555
C16 C12 1_555 1_555
C17 C3 1_555 1_555
C18 C17 1_555 1_555
C19 C18 1_555 1_555
C20 C19 1_555 1_555
H19 C20 1_555 1_555
C21 C20 1_555 1_555
H20 C21 1_555 1_555
C22 C21 1_555 1_555
C23 H21 1_555 1_555
H22 C23 1_555 1_555
H23 C23 1_555 1_555
C24 C22 1_555 1_555
H24 C24 1_555 1_555
C25 C19 1_555 1_555
H25 C25 1_555 1_555
N1 C1 1_555 1_555
N2 C6 1_555 1_555
N3 C14 1_555 1_555
O1 C2 1_555 1_555
O2 C5 1_555 1_555
O3 C8 1_555 1_555
O4 C14 1_555 1_555
O5 C16 1_555 1_555
O6 C18 1_555 1_555
O7 C22 1_555 1_555
C26 H26 1_555 1_555
H27 C26 1_555 1_555
H28 C26 1_555 1_555
C27 C28 1_555 1_555
C28 H29 1_555 1_555
C29 C28 1_555 1_555
H30 C29 1_555 1_555
C30 C29 1_555 1_555
C31 C29 1_555 1_555
H31 C31 1_555 1_555
C32 C31 1_555 1_555
H32 C32 1_555 1_555
H33 C32 1_555 1_555
C33 C32 1_555 1_555
C34 H34 1_555 1_555
H35 C34 1_555 1_555
H36 C34 1_555 1_555
C35 C33 1_555 1_555
H37 C35 1_555 1_555
C36 C35 1_555 1_555
H38 C36 1_555 1_555
C37 H39 1_555 1_555
H40 C37 1_555 1_555
H41 C37 1_555 1_555
C38 C39 1_555 1_555
C39 C36 1_555 1_555
H42 C39 1_555 1_555
C40 C39 1_555 1_555
H43 C40 1_555 1_555
C41 C40 1_555 1_555
C42 C28 1_555 1_555
C43 C42 1_555 1_555
C44 C43 1_555 1_555
C45 C44 1_555 1_555
H44 C45 1_555 1_555
C46 C45 1_555 1_555
H45 C46 1_555 1_555
C47 C46 1_555 1_555
C48 C47 1_555 1_555
H46 C48 1_555 1_555
C49 C44 1_555 1_555
H47 C49 1_555 1_555
C50 H48 1_555 1_555
H49 C50 1_555 1_555
H50 C50 1_555 1_555
N4 C26 1_555 1_555
N5 C31 1_555 1_555
N6 C37 1_555 1_555
O8 C27 1_555 1_555
O9 C30 1_555 1_555
O10 C33 1_555 1_555
O11 C41 1_555 1_555
O12 C38 1_555 1_555
O13 C43 1_555 1_555
O14 C47 1_555 1_555
C2 N1 1_555 1_555
C5 N1 1_555 1_555
C9 O3 1_555 1_555
C11 N2 1_555 1_555
C13 C17 1_555 1_555
C15 N3 1_555 1_555
C16 N3 1_555 1_555
C17 N2 1_555 1_555
C23 O7 1_555 1_555
C24 C25 1_555 1_555
C27 N4 1_555 1_555
C30 N4 1_555 1_555
C34 O10 1_555 1_555
C36 N5 1_555 1_555
C38 N6 1_555 1_555
C40 C42 1_555 1_555
C41 N6 1_555 1_555
C42 N5 1_555 1_555
C48 C49 1_555 1_555
C50 O14 1_555 1_555

#END
