
#######################################################################
#
#                 Cambridge Crystallographic Data Centre
#                                CCDC 
#
#######################################################################
#
# If this CIF has been generated from an entry in the Cambridge 
# Structural Database, then it will include bibliographic, chemical, 
# crystal, experimental, refinement or atomic coordinate data resulting 
# from the CCDC's data processing and validation procedures.
#
#######################################################################

data_MUVDOY
_chemical_formula_moiety         'C22 H27 N2 O2 1+,Cl1 O4 1-'
_chemical_name_systematic        
'14-(ethoxycarbonyl)eburnamenin-4-ium perchlorate'
_symmetry_cell_setting           monoclinic
_symmetry_space_group_name_H-M   'P 21'
_symmetry_Int_Tables_number      4
_space_group_name_Hall           'P 2yb'
loop_
_symmetry_equiv_pos_site_id
_symmetry_equiv_pos_as_xyz
1 x,y,z
2 -x,1/2+y,-z
_cell_length_a                   6.9140(14)
_cell_length_b                   11.711(2)
_cell_length_c                   13.989(3)
_cell_angle_alpha                90
_cell_angle_beta                 99.90(3)
_cell_angle_gamma                90
_cell_volume                     1115.82
_exptl_crystal_colour            colorless
_exptl_crystal_description       block
_cell_formula_units_Z            2
loop_
_atom_site_label
_atom_site_type_symbol
_atom_site_fract_x
_atom_site_fract_y
_atom_site_fract_z
Cl1 Cl 0.1129(4) 0.6365(2) 0.55994(15)
O1 O 0.0785(12) 0.6703(14) 0.4632(6)
O2 O 0.111(7) 0.7215(19) 0.610(2)
O3 O 0.290(3) 0.606(4) 0.5882(9)
O4 O -0.059(3) 0.603(3) 0.5815(18)
O5 O 0.5186(10) 0.5947(5) -0.0840(4)
N1 N 0.6800(12) 0.6767(7) 0.3790(4)
O6 O 0.4236(9) 0.7748(6) -0.0662(4)
C1 C 0.4943(10) 0.7450(6) 0.2289(5)
N2 N 0.4086(8) 0.7294(5) 0.1327(4)
C2 C 0.5017(11) 0.6579(6) 0.0736(5)
C3 C 0.4410(15) 0.8379(8) 0.3829(6)
H1 H 0.4348 0.9197 0.3929
H2 H 0.3511 0.8012 0.4193
C4 C 0.2295(10) 0.7858(7) 0.1184(6)
C5 C 0.6952(13) 0.5670(8) 0.2217(6)
C6 C 0.4731(12) 0.6846(7) -0.0330(5)
C7 C 0.6379(13) 0.5833(8) 0.1118(6)
H3 H 0.7004 0.5396 0.0707
C8 C 0.3827(11) 0.8108(6) 0.2760(6)
C9 C 0.2076(11) 0.8383(6) 0.2077(6)
C10 C 0.5137(17) 0.6124(9) -0.1875(6)
H4 H 0.4009 0.6590 -0.2136
H5 H 0.4999 0.5394 -0.2207
C11 C 0.6778(11) 0.6840(7) 0.2694(5)
H6 H 0.7891 0.7312 0.2585
C12 C 0.0786(12) 0.7935(9) 0.0387(7)
H7 H 0.0891 0.7582 -0.0197
C13 C 0.0388(14) 0.9036(8) 0.2140(8)
H8 H 0.0263 0.9417 0.2709
C14 C 0.574(2) 0.4724(10) 0.3672(7)
H9 H 0.7035 0.4433 0.3938
H10 H 0.4771 0.4200 0.3846
C15 C 0.5511(18) 0.4808(8) 0.2568(7)
H11 H 0.4176 0.5037 0.2309
H12 H 0.5722 0.4059 0.2309
C16 C 0.6978(19) 0.6702(12) -0.2057(9)
H13 H 0.7067 0.7447 -0.1766
H14 H 0.6946 0.6772 -0.2743
H15 H 0.8097 0.6256 -0.1776
C17 C -0.0858(13) 0.8543(10) 0.0487(8)
H16 H -0.1880 0.8588 -0.0039
C18 C 0.9195(18) 0.5317(11) 0.2444(9)
H17 H 0.9942 0.5869 0.2140
H18 H 0.9637 0.5366 0.3139
C19 C 0.6459(16) 0.7959(9) 0.4176(7)
H19 H 0.6708 0.7942 0.4879
H20 H 0.7384 0.8489 0.3968
C20 C 0.5463(15) 0.5907(8) 0.4091(6)
H21 H 0.4117 0.6151 0.3880
H22 H 0.5693 0.5859 0.4794
C21 C -0.1062(17) 0.9095(9) 0.1338(10)
H23 H -0.2196 0.9510 0.1367
C22 C 0.966(3) 0.4166(13) 0.2120(12)
H24 H 0.9084 0.3603 0.2486
H25 H 1.1053 0.4065 0.2221
H26 H 0.9128 0.4081 0.1443
H27 H 0.799(10) 0.650(6) 0.406(5)
loop_
_geom_bond_atom_site_label_1
_geom_bond_atom_site_label_2
_geom_bond_site_symmetry_1
_geom_bond_site_symmetry_2
Cl1 O1 1_555 1_555
O2 Cl1 1_555 1_555
O3 Cl1 1_555 1_555
O4 Cl1 1_555 1_555
O5 C6 1_555 1_555
N1 C11 1_555 1_555
O6 C6 1_555 1_555
C1 N2 1_555 1_555
N2 C2 1_555 1_555
C2 C6 1_555 1_555
C3 H1 1_555 1_555
H2 C3 1_555 1_555
C4 N2 1_555 1_555
C5 C7 1_555 1_555
C7 C2 1_555 1_555
H3 C7 1_555 1_555
C8 C1 1_555 1_555
C9 C4 1_555 1_555
C10 O5 1_555 1_555
H4 C10 1_555 1_555
H5 C10 1_555 1_555
C11 C1 1_555 1_555
H6 C11 1_555 1_555
C12 C4 1_555 1_555
H7 C12 1_555 1_555
C13 C9 1_555 1_555
H8 C13 1_555 1_555
C14 H9 1_555 1_555
H10 C14 1_555 1_555
C15 C5 1_555 1_555
H11 C15 1_555 1_555
H12 C15 1_555 1_555
C16 C10 1_555 1_555
H13 C16 1_555 1_555
H14 C16 1_555 1_555
H15 C16 1_555 1_555
C17 C12 1_555 1_555
H16 C17 1_555 1_555
C18 C5 1_555 1_555
H17 C18 1_555 1_555
H18 C18 1_555 1_555
C19 N1 1_555 1_555
H19 C19 1_555 1_555
H20 C19 1_555 1_555
C20 N1 1_555 1_555
H21 C20 1_555 1_555
H22 C20 1_555 1_555
C21 C13 1_555 1_555
H23 C21 1_555 1_555
C22 C18 1_555 1_555
H24 C22 1_555 1_555
H25 C22 1_555 1_555
H26 C22 1_555 1_555
H27 N1 1_555 1_555
C3 C8 1_555 1_555
C3 C19 1_555 1_555
C5 C11 1_555 1_555
C8 C9 1_555 1_555
C14 C15 1_555 1_555
C14 C20 1_555 1_555
C17 C21 1_555 1_555

#END
