
#######################################################################
#
#                 Cambridge Crystallographic Data Centre
#                                CCDC 
#
#######################################################################
#
# If this CIF has been generated from an entry in the Cambridge 
# Structural Database, then it will include bibliographic, chemical, 
# crystal, experimental, refinement or atomic coordinate data resulting 
# from the CCDC's data processing and validation procedures.
#
#######################################################################

data_MUVDOX
_chemical_formula_moiety         'C8 H6 N4 O2'
_chemical_name_systematic        1,2-bis(1H-Pyrazol-1-yl)ethane-1,2-dione
_symmetry_cell_setting           monoclinic
_symmetry_space_group_name_H-M   'P 21/c'
_symmetry_Int_Tables_number      14
_space_group_name_Hall           '-P 2ybc'
loop_
_symmetry_equiv_pos_site_id
_symmetry_equiv_pos_as_xyz
1 x,y,z
2 -x,1/2+y,1/2-z
3 -x,-y,-z
4 x,1/2-y,1/2+z
_cell_length_a                   11.0178(5)
_cell_length_b                   7.5596(4)
_cell_length_c                   10.9232(5)
_cell_angle_alpha                90
_cell_angle_beta                 106.5910(10)
_cell_angle_gamma                90
_cell_volume                     871.918
_chemical_melting_point          '123-125 deg.C'
_cell_formula_units_Z            4
_exptl_crystal_recrystallization_method toluene
loop_
_atom_site_label
_atom_site_type_symbol
_atom_site_fract_x
_atom_site_fract_y
_atom_site_fract_z
N1 N 0.68554(12) 0.21799(16) 0.53893(10)
N2 N 0.66698(10) 0.29356(15) 0.64688(10)
O1 O 0.61880(11) 0.61523(15) 0.45373(10)
C1 C 0.67343(13) 0.47547(18) 0.66009(12)
O2 O 0.65261(12) 0.55378(15) 0.74771(10)
N3 N 0.82633(12) 0.62158(16) 0.57010(12)
C2 C 0.70080(14) 0.57347(18) 0.54747(13)
C3 C 0.63530(14) 0.17042(19) 0.72457(13)
H1 H 0.6182 0.1918 0.8018
C4 C 0.66431(16) 0.0485(2) 0.55255(14)
H2 H 0.6689 -0.0376 0.4932
C5 C 0.63384(15) 0.0121(2) 0.66703(14)
H3 H 0.6164 -0.0977 0.6966
N4 N 0.91133(13) 0.5755(2) 0.68431(14)
C6 C 0.88253(18) 0.7176(2) 0.49392(18)
H4 H 0.8433 0.7626 0.4130
C7 C 1.0049(2) 0.7333(3) 0.5595(2)
H5 H 1.0680 0.7907 0.5335
C8 C 1.01841(19) 0.6443(3) 0.6766(2)
H6 H 1.0945 0.6354 0.7409
loop_
_geom_bond_atom_site_label_1
_geom_bond_atom_site_label_2
_geom_bond_site_symmetry_1
_geom_bond_site_symmetry_2
N1 N2 1_555 1_555
N2 C1 1_555 1_555
O1 C2 1_555 1_555
C1 O2 1_555 1_555
N3 C2 1_555 1_555
C2 C1 1_555 1_555
C3 N2 1_555 1_555
H1 C3 1_555 1_555
C4 N1 1_555 1_555
H2 C4 1_555 1_555
C5 C3 1_555 1_555
H3 C5 1_555 1_555
N4 N3 1_555 1_555
C6 N3 1_555 1_555
H4 C6 1_555 1_555
C7 C6 1_555 1_555
H5 C7 1_555 1_555
C8 N4 1_555 1_555
H6 C8 1_555 1_555
C4 C5 1_555 1_555
C7 C8 1_555 1_555

#END
