
#######################################################################
#
#                 Cambridge Crystallographic Data Centre
#                                CCDC 
#
#######################################################################
#
# If this CIF has been generated from an entry in the Cambridge 
# Structural Database, then it will include bibliographic, chemical, 
# crystal, experimental, refinement or atomic coordinate data resulting 
# from the CCDC's data processing and validation procedures.
#
#######################################################################

data_MUVDIS
_chemical_formula_moiety         'C24 H23 N3 O7'
_chemical_name_systematic        
"9b-(4-methoxybenzoyl)-2,8-dimethyloctahydropyrrolo[3,4-a]pyrrolo[3',4':3,4]pyrrolo[2,1,5-cd]indolizine-1,3,5,7,9(2H,3aH,8H)-pentone  unknown solvate"
_symmetry_cell_setting           triclinic
_symmetry_space_group_name_H-M   'P -1'
_symmetry_Int_Tables_number      2
_space_group_name_Hall           '-P 1'
loop_
_symmetry_equiv_pos_site_id
_symmetry_equiv_pos_as_xyz
1 x,y,z
2 -x,-y,-z
_cell_length_a                   11.768(2)
_cell_length_b                   13.060(3)
_cell_length_c                   14.363(3)
_cell_angle_alpha                91.671(7)
_cell_angle_beta                 98.006(7)
_cell_angle_gamma                96.044(7)
_cell_volume                     2171.63
_exptl_crystal_colour            colorless
_exptl_crystal_description       block
_cell_formula_units_Z            4
loop_
_atom_site_label
_atom_site_type_symbol
_atom_site_fract_x
_atom_site_fract_y
_atom_site_fract_z
C1 C 0.6842(2) 0.4555(2) 0.2569(2)
H1 H 0.7234 0.4381 0.2053
H2 H 0.7400 0.4798 0.3103
H3 H 0.6359 0.5086 0.2392
C2 C 0.5406(2) 0.3014(2) 0.2164(2)
C3 C 0.4735(2) 0.2212(2) 0.26653(18)
H4 H 0.3919 0.2330 0.2582
C4 C 0.5249(2) 0.2396(2) 0.37106(17)
H5 H 0.4649 0.2591 0.4068
C5 C 0.6160(2) 0.3301(2) 0.3716(2)
C6 C 0.5614(2) 0.1336(2) 0.40324(17)
H6 H 0.4954 0.0977 0.4281
C7 C 0.6666(2) 0.1305(2) 0.47815(18)
H7 H 0.6683 0.1876 0.5232
H8 H 0.6556 0.0675 0.5115
C8 C 0.7821(3) 0.1356(2) 0.4451(2)
C9 C 0.7842(2) 0.0826(2) 0.35083(18)
H9 H 0.7774 0.0085 0.3566
H10 H 0.8564 0.1038 0.3280
C10 C 0.68367(19) 0.1122(2) 0.28257(17)
H11 H 0.6902 0.1876 0.2819
C11 C 0.5575(3) -0.2038(2) 0.1058(2)
H12 H 0.4766 -0.2279 0.0964
H13 H 0.5962 -0.2394 0.1563
H14 H 0.5893 -0.2167 0.0492
C12 C 0.6772(3) -0.0416(2) 0.1694(2)
C13 C 0.6621(2) 0.0702(2) 0.18078(17)
H15 H 0.7088 0.1120 0.1415
C14 C 0.5326(2) 0.0761(2) 0.15007(17)
H16 H 0.5199 0.1279 0.1028
C15 C 0.4871(3) -0.0313(2) 0.10974(19)
C16 C 0.4837(2) 0.1049(2) 0.24233(17)
C17 C 0.3653(2) 0.0426(2) 0.2516(2)
C18 C 0.2572(2) 0.0700(2) 0.1981(2)
C19 C 0.1525(2) 0.0318(2) 0.2279(2)
H17 H 0.1545 -0.0076 0.2809
C20 C 0.0493(3) 0.0508(3) 0.1818(3)
H18 H -0.0185 0.0262 0.2041
C21 C 0.0449(3) 0.1057(3) 0.1030(3)
C22 C -0.0748(4) 0.1635(3) -0.0280(3)
H19 H -0.0404 0.2337 -0.0212
H20 H -0.1551 0.1614 -0.0530
H21 H -0.0365 0.1256 -0.0702
C23 C 0.1457(3) 0.1455(3) 0.0693(2)
H22 H 0.1426 0.1832 0.0152
C24 C 0.2511(3) 0.1267(2) 0.1196(2)
H23 H 0.3192 0.1537 0.0991
N1 N 0.61347(18) 0.36470(16) 0.28106(15)
N2 N 0.57362(16) 0.07665(15) 0.31621(13)
N3 N 0.5729(2) -0.09426(18) 0.12935(16)
O1 O 0.53151(18) 0.31129(15) 0.13125(14)
O2 O 0.68013(19) 0.36992(15) 0.43949(14)
O3 O 0.8681(2) 0.1769(2) 0.49358(17)
O4 O 0.7640(2) -0.08250(18) 0.18930(17)
O5 O 0.39387(19) -0.05880(18) 0.06644(16)
O6 O 0.36290(16) -0.02490(18) 0.30803(16)
O7 O -0.0640(2) 0.1197(2) 0.0589(2)
C25 C 1.0845(3) 0.2501(3) 0.7167(3)
H24 H 1.0659 0.1795 0.6943
H25 H 1.0953 0.2535 0.7843
H26 H 1.1543 0.2782 0.6950
C26 C 0.8812(2) 0.2897(2) 0.70581(19)
C27 C 0.8063(2) 0.3645(2) 0.65660(17)
H27 H 0.7455 0.3272 0.6107
C28 C 0.8884(2) 0.4349(2) 0.60567(18)
H28 H 0.8604 0.4299 0.5380
C29 C 1.0013(2) 0.3899(3) 0.6233(2)
C30 C 0.8797(2) 0.5453(2) 0.64427(19)
H29 H 0.8204 0.5740 0.6010
C31 C 0.9887(3) 0.6242(3) 0.6555(2)
H30 H 1.0453 0.5954 0.6224
H31 H 0.9681 0.6854 0.6235
C32 C 1.0463(3) 0.6575(2) 0.7524(2)
C33 C 0.9980(2) 0.6165(2) 0.8372(2)
H32 H 1.0605 0.6073 0.8868
H33 H 0.9507 0.6653 0.8605
C34 C 0.9263(2) 0.5151(2) 0.81060(17)
H34 H 0.9755 0.4679 0.7859
C35 C 0.6466(3) 0.5725(3) 1.0116(2)
H35 H 0.5910 0.6107 0.9765
H36 H 0.7003 0.6189 1.0535
H37 H 0.6076 0.5226 1.0473
C36 C 0.8269(2) 0.5268(2) 0.95783(19)
C37 C 0.8626(2) 0.4588(2) 0.88321(17)
H38 H 0.9079 0.4063 0.9122
C38 C 0.7479(2) 0.4076(2) 0.82693(16)
H39 H 0.7411 0.3326 0.8319
C39 C 0.6557(2) 0.4543(2) 0.87304(17)
C40 C 0.7520(2) 0.43790(19) 0.72212(16)
C41 C 0.6324(2) 0.4603(2) 0.67200(18)
C42 C 0.5396(2) 0.3735(2) 0.63997(17)
C43 C 0.5450(2) 0.2714(2) 0.66401(17)
H40 H 0.6097 0.2537 0.7023
C44 C 0.4557(2) 0.1961(2) 0.63188(18)
H41 H 0.4603 0.1282 0.6485
C45 C 0.3588(2) 0.2223(2) 0.57454(18)
C46 C 0.1801(3) 0.1614(3) 0.4781(3)
H42 H 0.1365 0.2086 0.5066
H43 H 0.1322 0.0978 0.4603
H44 H 0.2063 0.1907 0.4233
C47 C 0.3521(2) 0.3232(2) 0.55147(18)
H45 H 0.2867 0.3415 0.5144
C48 C 0.4424(2) 0.3969(2) 0.58349(17)
H46 H 0.4375 0.4646 0.5664
N4 N 0.99101(18) 0.30888(19) 0.68149(16)
N5 N 0.83370(17) 0.53212(16) 0.73451(14)
N6 N 0.70867(18) 0.51985(17) 0.94669(14)
O8 O 0.85285(18) 0.22353(17) 0.75747(16)
O9 O 1.08995(18) 0.4194(2) 0.59259(16)
O10 O 1.1351(2) 0.7142(2) 0.76218(19)
O11 O 0.88914(16) 0.57917(17) 1.01947(14)
O12 O 0.55220(16) 0.43675(16) 0.85208(13)
O13 O 0.61599(15) 0.54856(15) 0.65687(14)
O14 O 0.27688(17) 0.14218(16) 0.54347(15)
loop_
_geom_bond_atom_site_label_1
_geom_bond_atom_site_label_2
_geom_bond_site_symmetry_1
_geom_bond_site_symmetry_2
C1 H1 1_555 1_555
H2 C1 1_555 1_555
H3 C1 1_555 1_555
C2 C3 1_555 1_555
C3 H4 1_555 1_555
C4 C3 1_555 1_555
H5 C4 1_555 1_555
C5 C4 1_555 1_555
C6 C4 1_555 1_555
H6 C6 1_555 1_555
C7 C6 1_555 1_555
H7 C7 1_555 1_555
H8 C7 1_555 1_555
C8 C7 1_555 1_555
C9 C8 1_555 1_555
H9 C9 1_555 1_555
H10 C9 1_555 1_555
C10 C9 1_555 1_555
H11 C10 1_555 1_555
C11 H12 1_555 1_555
H13 C11 1_555 1_555
H14 C11 1_555 1_555
C12 C13 1_555 1_555
C13 C10 1_555 1_555
H15 C13 1_555 1_555
C14 C13 1_555 1_555
H16 C14 1_555 1_555
C15 C14 1_555 1_555
C16 C3 1_555 1_555
C17 C16 1_555 1_555
C18 C17 1_555 1_555
C19 C18 1_555 1_555
H17 C19 1_555 1_555
C20 C19 1_555 1_555
H18 C20 1_555 1_555
C21 C20 1_555 1_555
C22 H19 1_555 1_555
H20 C22 1_555 1_555
H21 C22 1_555 1_555
C23 C21 1_555 1_555
H22 C23 1_555 1_555
C24 C18 1_555 1_555
H23 C24 1_555 1_555
N1 C1 1_555 1_555
N2 C6 1_555 1_555
N3 C11 1_555 1_555
O1 C2 1_555 1_555
O2 C5 1_555 1_555
O3 C8 1_555 1_555
O4 C12 1_555 1_555
O5 C15 1_555 1_555
O6 C17 1_555 1_555
O7 C21 1_555 1_555
C25 H24 1_555 1_555
H25 C25 1_555 1_555
H26 C25 1_555 1_555
C26 C27 1_555 1_555
C27 H27 1_555 1_555
C28 C27 1_555 1_555
H28 C28 1_555 1_555
C29 C28 1_555 1_555
C30 C28 1_555 1_555
H29 C30 1_555 1_555
C31 C30 1_555 1_555
H30 C31 1_555 1_555
H31 C31 1_555 1_555
C32 C31 1_555 1_555
C33 C32 1_555 1_555
H32 C33 1_555 1_555
H33 C33 1_555 1_555
C34 C33 1_555 1_555
H34 C34 1_555 1_555
C35 H35 1_555 1_555
H36 C35 1_555 1_555
H37 C35 1_555 1_555
C36 C37 1_555 1_555
C37 C34 1_555 1_555
H38 C37 1_555 1_555
C38 C37 1_555 1_555
H39 C38 1_555 1_555
C39 C38 1_555 1_555
C40 C27 1_555 1_555
C41 C40 1_555 1_555
C42 C41 1_555 1_555
C43 C42 1_555 1_555
H40 C43 1_555 1_555
C44 C43 1_555 1_555
H41 C44 1_555 1_555
C45 C44 1_555 1_555
C46 H42 1_555 1_555
H43 C46 1_555 1_555
H44 C46 1_555 1_555
C47 C45 1_555 1_555
H45 C47 1_555 1_555
C48 C42 1_555 1_555
H46 C48 1_555 1_555
N4 C25 1_555 1_555
N5 C30 1_555 1_555
N6 C35 1_555 1_555
O8 C26 1_555 1_555
O9 C29 1_555 1_555
O10 C32 1_555 1_555
O11 C36 1_555 1_555
O12 C39 1_555 1_555
O13 C41 1_555 1_555
O14 C45 1_555 1_555
C2 N1 1_555 1_555
C5 N1 1_555 1_555
C10 N2 1_555 1_555
C12 N3 1_555 1_555
C14 C16 1_555 1_555
C15 N3 1_555 1_555
C16 N2 1_555 1_555
C22 O7 1_555 1_555
C23 C24 1_555 1_555
C26 N4 1_555 1_555
C29 N4 1_555 1_555
C34 N5 1_555 1_555
C36 N6 1_555 1_555
C38 C40 1_555 1_555
C39 N6 1_555 1_555
C40 N5 1_555 1_555
C46 O14 1_555 1_555
C47 C48 1_555 1_555

#END
