
#######################################################################
#
#                 Cambridge Crystallographic Data Centre
#                                CCDC 
#
#######################################################################
#
# If this CIF has been generated from an entry in the Cambridge 
# Structural Database, then it will include bibliographic, chemical, 
# crystal, experimental, refinement or atomic coordinate data resulting 
# from the CCDC's data processing and validation procedures.
#
#######################################################################

data_MUVDUE
_chemical_formula_moiety         'C22 H27 N2 O2 1+,H2 O4 P1 1-'
_chemical_name_systematic        
'14-(ethoxycarbonyl)eburnamenin-4-ium (dihydrogen phosphate)'
_symmetry_cell_setting           monoclinic
_symmetry_space_group_name_H-M   'C 2'
_symmetry_Int_Tables_number      5
_space_group_name_Hall           'C 2y'
loop_
_symmetry_equiv_pos_site_id
_symmetry_equiv_pos_as_xyz
1 x,y,z
2 -x,y,-z
3 1/2+x,1/2+y,z
4 1/2-x,1/2+y,-z
_cell_length_a                   18.248(4)
_cell_length_b                   6.4100(13)
_cell_length_c                   21.004(4)
_cell_angle_alpha                90
_cell_angle_beta                 108.93(3)
_cell_angle_gamma                90
_cell_volume                     2323.95
_exptl_crystal_colour            colorless
_exptl_crystal_description       block
_cell_formula_units_Z            4
loop_
_atom_site_label
_atom_site_type_symbol
_atom_site_fract_x
_atom_site_fract_y
_atom_site_fract_z
P1 P 0.66751(5) 0.58286(15) 0.47971(4)
O1 O 0.66189(18) 0.7750(5) 0.52306(15)
H1 H 0.6888 0.8698 0.5166
O2 O 0.59886(15) 0.5823(5) 0.41776(12)
O3 O 0.66174(18) 0.3928(5) 0.52448(15)
H2 H 0.6931 0.3033 0.5227
O4 O 0.74429(13) 0.5824(5) 0.46808(11)
N1 N 0.46645(17) 0.2397(5) 0.63589(13)
C1 C 0.4044(2) 0.0748(8) 0.61954(16)
H3 H 0.3737 0.0841 0.5723
H4 H 0.4283 -0.0621 0.6275
N2 N 0.59652(17) -0.0216(5) 0.78468(13)
C2 C 0.5775(2) 0.0715(9) 0.83730(15)
C3 C 0.56556(18) 0.0609(7) 0.72140(14)
C4 C 0.40048(19) 0.0842(8) 0.73463(17)
H5 H 0.4248 -0.0521 0.7430
H6 H 0.3670 0.0972 0.7621
C5 C 0.51378(19) 0.2480(6) 0.70864(15)
H7 H 0.5461 0.3737 0.7165
C6 C 0.5875(2) -0.0514(6) 0.67662(17)
C7 C 0.35245(19) 0.1002(8) 0.66179(17)
H8 H 0.3269 0.2349 0.6530
H9 H 0.3130 -0.0075 0.6506
C8 C 0.5185(2) 0.2123(7) 0.59415(18)
H10 H 0.5572 0.3218 0.6054
H11 H 0.4881 0.2281 0.5471
C9 C 0.6674(2) -0.3917(7) 0.6919(2)
H12 H 0.6669 -0.4020 0.6475
C10 C 0.6322(2) -0.2238(6) 0.71221(18)
C11 C 0.4301(2) 0.4751(7) 0.7536(2)
H13 H 0.4727 0.5713 0.7720
H14 H 0.4048 0.5134 0.7069
O5 O 0.70258(18) 0.0299(8) 0.91729(14)
C12 C 0.4637(2) 0.2541(6) 0.75545(16)
C13 C 0.5174(2) 0.2018(7) 0.82450(17)
H15 H 0.5081 0.2649 0.8610
O6 O 0.6009(2) 0.0625(11) 0.95143(13)
C14 C 0.6354(3) 0.0490(10) 0.90659(18)
C15 C 0.6364(2) -0.2047(6) 0.77873(18)
C16 C 0.5589(3) 0.0037(8) 0.60378(19)
H16 H 0.5232 -0.1026 0.5789
H17 H 0.6021 0.0097 0.5865
C17 C 0.7031(2) -0.5425(8) 0.7382(2)
H18 H 0.7266 -0.6557 0.7250
C18 C 0.3728(3) 0.5045(9) 0.7912(3)
H19 H 0.3303 0.4094 0.7739
H20 H 0.3537 0.6452 0.7853
H21 H 0.3980 0.4777 0.8382
C19 C 0.7044(2) -0.5280(8) 0.8030(3)
H22 H 0.7277 -0.6337 0.8331
C20 C 0.6717(2) -0.3577(7) 0.8257(2)
H23 H 0.6734 -0.3472 0.8703
C21 C 0.6519(4) 0.054(2) 1.0211(2)
H24 H 0.6842 -0.0699 1.0280
H25 H 0.6854 0.1752 1.0312
C22 C 0.6080(5) 0.048(3) 1.0628(3)
H26 H 0.5809 0.1781 1.0599
H27 H 0.6410 0.0264 1.1083
H28 H 0.5712 -0.0638 1.0496
H29 H 0.442(3) 0.357(11) 0.626(3)
loop_
_geom_bond_atom_site_label_1
_geom_bond_atom_site_label_2
_geom_bond_site_symmetry_1
_geom_bond_site_symmetry_2
P1 O1 1_555 1_555
O1 H1 1_555 1_555
O2 P1 1_555 1_555
O3 P1 1_555 1_555
H2 O3 1_555 1_555
O4 P1 1_555 1_555
N1 C1 1_555 1_555
C1 H3 1_555 1_555
H4 C1 1_555 1_555
N2 C2 1_555 1_555
C2 C13 1_555 1_555
C3 N2 1_555 1_555
C4 H5 1_555 1_555
H6 C4 1_555 1_555
C5 N1 1_555 1_555
H7 C5 1_555 1_555
C6 C3 1_555 1_555
C7 C1 1_555 1_555
H8 C7 1_555 1_555
H9 C7 1_555 1_555
C8 N1 1_555 1_555
H10 C8 1_555 1_555
H11 C8 1_555 1_555
C9 H12 1_555 1_555
C10 C6 1_555 1_555
C11 H13 1_555 1_555
H14 C11 1_555 1_555
O5 C14 1_555 1_555
C12 C4 1_555 1_555
C13 C12 1_555 1_555
H15 C13 1_555 1_555
O6 C14 1_555 1_555
C14 C2 1_555 1_555
C15 N2 1_555 1_555
C16 C6 1_555 1_555
H16 C16 1_555 1_555
H17 C16 1_555 1_555
C17 C9 1_555 1_555
H18 C17 1_555 1_555
C18 C11 1_555 1_555
H19 C18 1_555 1_555
H20 C18 1_555 1_555
H21 C18 1_555 1_555
C19 C17 1_555 1_555
H22 C19 1_555 1_555
C20 C15 1_555 1_555
H23 C20 1_555 1_555
C21 O6 1_555 1_555
H24 C21 1_555 1_555
H25 C21 1_555 1_555
C22 C21 1_555 1_555
H26 C22 1_555 1_555
H27 C22 1_555 1_555
H28 C22 1_555 1_555
H29 N1 1_555 1_555
C3 C5 1_555 1_555
C4 C7 1_555 1_555
C5 C12 1_555 1_555
C8 C16 1_555 1_555
C9 C10 1_555 1_555
C10 C15 1_555 1_555
C11 C12 1_555 1_555
C19 C20 1_555 1_555

#END
