
#######################################################################
#
#                 Cambridge Crystallographic Data Centre
#                                CCDC 
#
#######################################################################
#
# If this CIF has been generated from an entry in the Cambridge 
# Structural Database, then it will include bibliographic, chemical, 
# crystal, experimental, refinement or atomic coordinate data resulting 
# from the CCDC's data processing and validation procedures.
#
#######################################################################

data_MUVFEP
_chemical_formula_moiety         'C17 H12 N4 O2'
_chemical_name_systematic        1,3-bis(1H-indazol-1-yl)propane-1,3-dione
_symmetry_cell_setting           monoclinic
_symmetry_space_group_name_H-M   'P 21/n'
_symmetry_Int_Tables_number      14
_space_group_name_Hall           '-P 2yn'
loop_
_symmetry_equiv_pos_site_id
_symmetry_equiv_pos_as_xyz
1 x,y,z
2 1/2-x,1/2+y,1/2-z
3 -x,-y,-z
4 1/2+x,1/2-y,1/2+z
_cell_length_a                   7.6935(4)
_cell_length_b                   14.8559(8)
_cell_length_c                   12.8855(7)
_cell_angle_alpha                90
_cell_angle_beta                 105.972(2)
_cell_angle_gamma                90
_cell_volume                     1415.88
_chemical_melting_point          '190-192 deg.C'
_cell_formula_units_Z            4
_exptl_crystal_recrystallization_method chloroform
loop_
_atom_site_label
_atom_site_type_symbol
_atom_site_fract_x
_atom_site_fract_y
_atom_site_fract_z
N1 N 0.12470(15) 0.02779(7) 0.40129(9)
N2 N 0.12664(17) -0.06532(8) 0.38973(10)
N3 N 0.02494(13) 0.10233(8) 0.07403(9)
N4 N 0.19757(14) 0.07360(9) 0.12923(10)
O1 O 0.03507(14) 0.16186(7) 0.32165(8)
O2 O -0.26651(13) 0.11567(8) 0.07295(9)
C1 C 0.03134(17) 0.08052(9) 0.31525(11)
C2 C -0.07530(19) 0.02956(10) 0.21750(11)
H1 H -0.0066 -0.0227 0.2069
H2 H -0.1871 0.0084 0.2300
C3 C -0.11857(18) 0.08632(10) 0.11714(11)
C4 C 0.2405(2) -0.09464(9) 0.47761(12)
H3 H 0.2680 -0.1552 0.4912
C5 C 0.31869(19) -0.02417(9) 0.55094(11)
C6 C 0.4476(2) -0.01971(11) 0.65056(12)
H4 H 0.5023 -0.0717 0.6847
C7 C 0.4919(2) 0.06284(12) 0.69697(12)
H5 H 0.5790 0.0672 0.7631
C8 C 0.4084(2) 0.14061(11) 0.64665(12)
H6 H 0.4397 0.1957 0.6809
C9 C 0.2810(2) 0.13853(9) 0.54779(11)
H7 H 0.2255 0.1907 0.5147
C10 C 0.23973(16) 0.05443(9) 0.50013(10)
C11 C 0.30177(19) 0.10007(11) 0.07073(12)
H8 H 0.4257 0.0896 0.0891
C12 C 0.20574(18) 0.14686(9) -0.02454(11)
C13 C 0.2521(2) 0.18680(10) -0.11137(13)
H9 H 0.3713 0.1875 -0.1146
C14 C 0.1179(3) 0.22469(11) -0.19107(13)
H10 H 0.1463 0.2514 -0.2496
C15 C -0.0609(2) 0.22418(10) -0.18668(12)
H11 H -0.1491 0.2508 -0.2424
C16 C -0.1109(2) 0.18540(9) -0.10217(11)
H12 H -0.2306 0.1848 -0.0997
C17 C 0.02610(17) 0.14734(8) -0.02099(10)
loop_
_geom_bond_atom_site_label_1
_geom_bond_atom_site_label_2
_geom_bond_site_symmetry_1
_geom_bond_site_symmetry_2
N1 N2 1_555 1_555
N2 C4 1_555 1_555
N3 N4 1_555 1_555
N4 C11 1_555 1_555
O1 C1 1_555 1_555
O2 C3 1_555 1_555
C1 N1 1_555 1_555
C2 C1 1_555 1_555
H1 C2 1_555 1_555
H2 C2 1_555 1_555
C3 N3 1_555 1_555
C4 H3 1_555 1_555
C5 C4 1_555 1_555
C6 C5 1_555 1_555
H4 C6 1_555 1_555
C7 C6 1_555 1_555
H5 C7 1_555 1_555
C8 C7 1_555 1_555
H6 C8 1_555 1_555
C9 C8 1_555 1_555
H7 C9 1_555 1_555
C10 N1 1_555 1_555
C11 H8 1_555 1_555
C12 C11 1_555 1_555
C13 C12 1_555 1_555
H9 C13 1_555 1_555
C14 C13 1_555 1_555
H10 C14 1_555 1_555
C15 C14 1_555 1_555
H11 C15 1_555 1_555
C16 C15 1_555 1_555
H12 C16 1_555 1_555
C17 N3 1_555 1_555
C2 C3 1_555 1_555
C5 C10 1_555 1_555
C9 C10 1_555 1_555
C12 C17 1_555 1_555
C16 C17 1_555 1_555

#END
