
#######################################################################
#
#                 Cambridge Crystallographic Data Centre
#                                CCDC 
#
#######################################################################
#
# If this CIF has been generated from an entry in the Cambridge 
# Structural Database, then it will include bibliographic, chemical, 
# crystal, experimental, refinement or atomic coordinate data resulting 
# from the CCDC's data processing and validation procedures.
#
#######################################################################

data_MUVLOE01
_chemical_name_common            (22S,23S)-24-Epibrassinolide
_chemical_formula_moiety         'C28 H48 O6'
_chemical_name_systematic        
10-(3,4-Dihydroxy-5,6-dimethyl-2-heptanyl)-5,6-dihydroxy-7a,9a-dimethylhexadecahydro-3H-benzo[c]indeno[5,4-e]oxepin-3-one
_symmetry_cell_setting           orthorhombic
_symmetry_space_group_name_H-M   'P 21 21 21'
_symmetry_Int_Tables_number      19
_space_group_name_Hall           'P 2ac 2ab'
loop_
_symmetry_equiv_pos_site_id
_symmetry_equiv_pos_as_xyz
1 x,y,z
2 1/2-x,-y,1/2+z
3 -x,1/2+y,1/2-z
4 1/2+x,1/2-y,-z
_cell_length_a                   6.3792(6)
_cell_length_b                   11.3896(10)
_cell_length_c                   35.855(3)
_cell_angle_alpha                90
_cell_angle_beta                 90
_cell_angle_gamma                90
_cell_volume                     2605.1
_exptl_crystal_colour            colorless
_exptl_crystal_description       prismatic
_cell_formula_units_Z            4
_exptl_crystal_recrystallization_method acetone
loop_
_atom_site_label
_atom_site_type_symbol
_atom_site_fract_x
_atom_site_fract_y
_atom_site_fract_z
O1 O 0.1825(4) 0.32827(18) 0.08964(6)
O2 O -0.1972(3) 0.4630(2) 0.10668(7)
O3 O 0.0798(4) 0.86483(18) 0.10393(6)
O4 O 0.0032(3) 0.86050(16) 0.16228(5)
O5 O 0.0666(3) 0.6298(2) 0.38256(5)
O6 O 0.4073(4) 0.76159(19) 0.41104(6)
C1 C 0.2232(4) 0.4809(2) 0.13601(7)
H1 H 0.3597 0.4484 0.1420
H2 H 0.1211 0.4412 0.1516
C2 C 0.1747(5) 0.4520(2) 0.09572(7)
H3 H 0.2843 0.4879 0.0803
C3 C -0.0319(4) 0.5047(3) 0.08404(8)
H4 H -0.0602 0.4857 0.0579
C4 C -0.0155(5) 0.6356(3) 0.08875(7)
H5 H -0.1450 0.6718 0.0805
H6 H 0.0970 0.6649 0.0731
C5 C 0.0266(4) 0.6711(2) 0.12916(7)
H7 H -0.0954 0.6477 0.1440
C6 C 0.0407(4) 0.8034(2) 0.13022(8)
C7 C -0.0262(5) 0.7959(3) 0.19642(7)
H8 H -0.1358 0.7380 0.1927
H9 H -0.0731 0.8495 0.2157
C8 C 0.1692(4) 0.7344(2) 0.20965(7)
H10 H 0.2899 0.7863 0.2059
C9 C 0.2127(4) 0.6159(2) 0.19037(7)
H11 H 0.0945 0.5652 0.1971
C10 C 0.2244(4) 0.6125(2) 0.14678(7)
C11 C 0.4053(4) 0.5599(2) 0.20854(7)
H12 H 0.4330 0.4851 0.1966
H13 H 0.5258 0.6102 0.2043
C12 C 0.3804(4) 0.5402(2) 0.25028(7)
H14 H 0.2676 0.4846 0.2545
H15 H 0.5084 0.5062 0.2601
C13 C 0.3330(4) 0.6533(2) 0.27104(7)
C14 C 0.1434(4) 0.7100(2) 0.25163(7)
H16 H 0.0287 0.6531 0.2537
C15 C 0.0859(5) 0.8116(2) 0.27744(7)
H17 H 0.1768 0.8786 0.2734
H18 H -0.0587 0.8355 0.2739
C16 C 0.1195(5) 0.7588(2) 0.31602(7)
H19 H -0.0145 0.7440 0.3279
H20 H 0.1985 0.8127 0.3315
C17 C 0.2419(4) 0.6422(2) 0.31127(7)
H21 H 0.1388 0.5784 0.3109
C18 C 0.5243(4) 0.7336(2) 0.27081(8)
H22 H 0.5523 0.7588 0.2457
H23 H 0.6435 0.6916 0.2803
H24 H 0.4977 0.8008 0.2862
C19 C 0.4240(4) 0.6708(3) 0.13215(8)
H25 H 0.5434 0.6241 0.1389
H26 H 0.4376 0.7476 0.1429
H27 H 0.4164 0.6775 0.1055
C20 C 0.3923(4) 0.6184(2) 0.34378(7)
H28 H 0.4758 0.6895 0.3478
C21 C 0.5431(5) 0.5177(3) 0.33626(9)
H29 H 0.4657 0.4501 0.3281
H30 H 0.6178 0.4989 0.3587
H31 H 0.6409 0.5404 0.3172
C22 C 0.2784(4) 0.5893(2) 0.38089(7)
H32 H 0.2752 0.5036 0.3833
C23 C 0.3968(5) 0.6370(2) 0.41431(7)
H33 H 0.5401 0.6061 0.4135
C24 C 0.3025(5) 0.6060(3) 0.45222(8)
H34 H 0.1635 0.6426 0.4531
C25 C 0.4315(7) 0.6623(3) 0.48339(9)
H35 H 0.5731 0.6340 0.4822
H36 H 0.3716 0.6422 0.5071
H37 H 0.4307 0.7461 0.4804
C26 C 0.2693(8) 0.4748(4) 0.45848(9)
H38 H 0.1933 0.4456 0.4366
C27 C 0.4667(11) 0.4050(4) 0.46089(15)
H39 H 0.5519 0.4346 0.4809
H40 H 0.5421 0.4112 0.4378
H41 H 0.4332 0.3241 0.4656
C28 C 0.1302(9) 0.4502(5) 0.49221(12)
H42 H 0.0919 0.3687 0.4925
H43 H 0.0059 0.4975 0.4907
H44 H 0.2052 0.4690 0.5146
H45 H 0.083(6) 0.287(4) 0.1002(11)
H46 H -0.249(5) 0.400(3) 0.0981(9)
H47 H -0.009(7) 0.568(4) 0.3858(13)
H48 H 0.536(3) 0.778(3) 0.4112(10)
loop_
_geom_bond_atom_site_label_1
_geom_bond_atom_site_label_2
_geom_bond_site_symmetry_1
_geom_bond_site_symmetry_2
O1 C2 1_555 1_555
O2 C3 1_555 1_555
O3 C6 1_555 1_555
O4 C6 1_555 1_555
O5 C22 1_555 1_555
O6 C23 1_555 1_555
C1 H1 1_555 1_555
H2 C1 1_555 1_555
C2 C1 1_555 1_555
H3 C2 1_555 1_555
C3 C2 1_555 1_555
H4 C3 1_555 1_555
C4 C3 1_555 1_555
H5 C4 1_555 1_555
H6 C4 1_555 1_555
C5 C4 1_555 1_555
H7 C5 1_555 1_555
C6 C5 1_555 1_555
C7 O4 1_555 1_555
H8 C7 1_555 1_555
H9 C7 1_555 1_555
C8 C7 1_555 1_555
H10 C8 1_555 1_555
C9 C8 1_555 1_555
H11 C9 1_555 1_555
C10 C1 1_555 1_555
C11 C9 1_555 1_555
H12 C11 1_555 1_555
H13 C11 1_555 1_555
C12 C11 1_555 1_555
H14 C12 1_555 1_555
H15 C12 1_555 1_555
C13 C12 1_555 1_555
C14 C8 1_555 1_555
H16 C14 1_555 1_555
C15 C14 1_555 1_555
H17 C15 1_555 1_555
H18 C15 1_555 1_555
C16 C15 1_555 1_555
H19 C16 1_555 1_555
H20 C16 1_555 1_555
C17 C13 1_555 1_555
H21 C17 1_555 1_555
C18 C13 1_555 1_555
H22 C18 1_555 1_555
H23 C18 1_555 1_555
H24 C18 1_555 1_555
C19 C10 1_555 1_555
H25 C19 1_555 1_555
H26 C19 1_555 1_555
H27 C19 1_555 1_555
C20 C17 1_555 1_555
H28 C20 1_555 1_555
C21 C20 1_555 1_555
H29 C21 1_555 1_555
H30 C21 1_555 1_555
H31 C21 1_555 1_555
C22 C20 1_555 1_555
H32 C22 1_555 1_555
C23 C22 1_555 1_555
H33 C23 1_555 1_555
C24 C23 1_555 1_555
H34 C24 1_555 1_555
C25 C24 1_555 1_555
H35 C25 1_555 1_555
H36 C25 1_555 1_555
H37 C25 1_555 1_555
C26 C24 1_555 1_555
H38 C26 1_555 1_555
C27 C26 1_555 1_555
H39 C27 1_555 1_555
H40 C27 1_555 1_555
H41 C27 1_555 1_555
C28 C26 1_555 1_555
H42 C28 1_555 1_555
H43 C28 1_555 1_555
H44 C28 1_555 1_555
H45 O1 1_555 1_555
H46 O2 1_555 1_555
H47 O5 1_555 1_555
H48 O6 1_555 1_555
C5 C10 1_555 1_555
C9 C10 1_555 1_555
C13 C14 1_555 1_555
C16 C17 1_555 1_555

#END
