
#######################################################################
#
#                 Cambridge Crystallographic Data Centre
#                                CCDC 
#
#######################################################################
#
# If this CIF has been generated from an entry in the Cambridge 
# Structural Database, then it will include bibliographic, chemical, 
# crystal, experimental, refinement or atomic coordinate data resulting 
# from the CCDC's data processing and validation procedures.
#
#######################################################################

data_MUVMUL
_chemical_compound_source        'fungus Cladobotryum varium CL12284'
_chemical_name_common            CJ-16171
_chemical_formula_moiety         'C19 H19 N1 O3'
_chemical_name_systematic        
2,3,4a-Trimethyl-8-phenyl-4a,9a-dihydro-2H-1,9-dioxa-6-azafluoren-5-ol
_chemical_properties_biological  
'antibacterial activity against several drug-resistant bacteria'
_symmetry_cell_setting           monoclinic
_symmetry_space_group_name_H-M   'P 21'
_symmetry_Int_Tables_number      4
_space_group_name_Hall           'P 2yb'
loop_
_symmetry_equiv_pos_site_id
_symmetry_equiv_pos_as_xyz
1 x,y,z
2 -x,1/2+y,-z
_cell_length_a                   11.260(1)
_cell_length_b                   5.600(1)
_cell_length_c                   13.615(2)
_cell_angle_alpha                90
_cell_angle_beta                 107.90(1)
_cell_angle_gamma                90
_cell_volume                     816.951
_exptl_crystal_colour            colorless
_exptl_crystal_description       needles
_chemical_melting_point          '243-244 deg.C'
_cell_formula_units_Z            2
_exptl_crystal_recrystallization_method methanol
loop_
_atom_site_label
_atom_site_type_symbol
_atom_site_fract_x
_atom_site_fract_y
_atom_site_fract_z
N1 N -0.1563(5) 0.7154 0.4498(4)
C1 C -0.2806(6) 0.7328(14) 0.4350(5)
C2 C -0.3647(5) 0.6061(14) 0.3593(4)
C3 C -0.3101(6) 0.4631(13) 0.3010(4)
C4 C -0.1856(6) 0.4470(12) 0.3149(5)
O1 O 0.0172(4) 0.5724(10) 0.4176(3)
C5 C -0.0990(5) 0.5786(12) 0.3958(5)
O2 O -0.3801(4) 0.3293(11) 0.2187(3)
C6 C -0.2934(7) 0.1945(16) 0.1810(6)
C7 C -0.1618(6) 0.2982(13) 0.2311(5)
O3 O -0.3343(5) 0.1933(14) 0.0744(4)
C8 C -0.3302(9) 0.3990(18) 0.0279(7)
C9 C -0.2040(9) 0.5169(15) 0.0620(7)
C10 C -0.1228(8) 0.4563(14) 0.1572(5)
C11 C -0.4994(6) 0.6221(15) 0.3463(5)
C12 C -0.5796(9) 0.4356(19) 0.3102(7)
C13 C -0.7056(8) 0.4495(19) 0.3004(8)
C14 C -0.7546(8) 0.6498(18) 0.3273(7)
C15 C -0.6760(10) 0.8168(20) 0.3726(9)
C16 C -0.5471(8) 0.8069(19) 0.3803(9)
C17 C -0.0651(9) 0.1051(16) 0.2668(7)
C18 C -0.3758(10) 0.3277(21) -0.0870(7)
C19 C -0.1586(13) 0.6926(18) -0.0035(9)
H1 H -0.3101 0.8362 0.4787
H2 H -0.2891 0.0291 0.2003
H3 H -0.3807 0.5214 0.0444
H4 H -0.0390 0.5167 0.1768
H5 H -0.5473 0.2902 0.2910
H6 H -0.7587 0.3148 0.2743
H7 H -0.8430 0.6686 0.3136
H8 H -0.7062 0.9510 0.4018
H9 H -0.4939 0.9383 0.4110
H10 H -0.0881 0.0017 0.3142
H11 H 0.0146 0.1762 0.3005
H12 H -0.0603 0.0143 0.2083
H13 H -0.3767 0.4658 -0.1291
H14 H -0.4586 0.2629 -0.1035
H15 H -0.3206 0.2097 -0.1000
H16 H -0.2236 0.7194 -0.0673
H17 H -0.0865 0.6285 -0.0177
H18 H -0.1372 0.8410 0.0329
H19? H -0.1239(22) 0.7684(23) 0.4792(22)
loop_
_geom_bond_atom_site_label_1
_geom_bond_atom_site_label_2
_geom_bond_site_symmetry_1
_geom_bond_site_symmetry_2
N1 C1 1_555 1_555
C1 C2 1_555 1_555
C2 C3 1_555 1_555
C3 C4 1_555 1_555
C4 C5 1_555 1_555
O1 C5 1_555 1_555
C5 N1 1_555 1_555
O2 C3 1_555 1_555
C6 O2 1_555 1_555
C7 C4 1_555 1_555
O3 C6 1_555 1_555
C8 O3 1_555 1_555
C9 C8 1_555 1_555
C10 C7 1_555 1_555
C11 C2 1_555 1_555
C12 C11 1_555 1_555
C13 C12 1_555 1_555
C14 C13 1_555 1_555
C15 C14 1_555 1_555
C16 C11 1_555 1_555
C17 C7 1_555 1_555
C18 C8 1_555 1_555
C19 C9 1_555 1_555
H1 C1 1_555 1_555
H2 C6 1_555 1_555
H3 C8 1_555 1_555
H4 C10 1_555 1_555
H5 C12 1_555 1_555
H6 C13 1_555 1_555
H7 C14 1_555 1_555
H8 C15 1_555 1_555
H9 C16 1_555 1_555
H10 C17 1_555 1_555
H11 C17 1_555 1_555
H12 C17 1_555 1_555
H13 C18 1_555 1_555
H14 C18 1_555 1_555
H15 C18 1_555 1_555
H16 C19 1_555 1_555
H17 C19 1_555 1_555
H18 C19 1_555 1_555
C6 C7 1_555 1_555
C9 C10 1_555 1_555
C15 C16 1_555 1_555

#END
