
#######################################################################
#
#                 Cambridge Crystallographic Data Centre
#                                CCDC 
#
#######################################################################
#
# If this CIF has been generated from an entry in the Cambridge 
# Structural Database, then it will include bibliographic, chemical, 
# crystal, experimental, refinement or atomic coordinate data resulting 
# from the CCDC's data processing and validation procedures.
#
#######################################################################

data_MUVNUN
_chemical_name_common            4-Anilino-1-thia-4-azaspiro[4.5]decan-3-one
_chemical_formula_moiety         'C14 H18 N2 O1 S1'
_chemical_name_systematic        
2-cyclohexanyl-3-(N-phenyl)-1,3-thiazolidin-4-one
_symmetry_cell_setting           monoclinic
_symmetry_space_group_name_H-M   'P 21/n'
_symmetry_Int_Tables_number      14
_space_group_name_Hall           '-P 2yn'
loop_
_symmetry_equiv_pos_site_id
_symmetry_equiv_pos_as_xyz
1 x,y,z
2 1/2-x,1/2+y,1/2-z
3 -x,-y,-z
4 1/2+x,1/2-y,1/2+z
_cell_length_a                   9.4203(4)
_cell_length_b                   6.8798(3)
_cell_length_c                   20.8371(9)
_cell_angle_alpha                90
_cell_angle_beta                 101.496(3)
_cell_angle_gamma                90
_cell_volume                     1323.36
_exptl_crystal_colour            colorless
_exptl_crystal_description       block
_chemical_melting_point          169-171deg.C
_cell_formula_units_Z            4
loop_
_atom_site_label
_atom_site_type_symbol
_atom_site_fract_x
_atom_site_fract_y
_atom_site_fract_z
S1 S 0.30592(4) 0.66976(6) 0.18958(2)
O1 O 0.69389(13) 0.85223(18) 0.25908(6)
N1 N 0.57162(14) 0.67840(19) 0.17248(6)
N2 N 0.69559(15) 0.6391(2) 0.14673(7)
H1 H 0.756(2) 0.570(3) 0.1752(9)
C1 C 0.46794(18) 0.3478(2) 0.16503(8)
H2 H 0.5560 0.3036 0.1501
H3 H 0.4855 0.3334 0.2132
C2 C 0.76354(18) 0.7999(2) 0.12345(8)
C3 C 0.44079(17) 0.5625(2) 0.14712(8)
C4 C 0.69073(18) 0.9708(2) 0.10290(8)
H4 H 0.5921 0.9854 0.1061
C5 C 0.90829(18) 0.7802(3) 0.11817(8)
H5 H 0.9594 0.6640 0.1325
C6 C 0.33995(18) 0.2195(2) 0.13406(8)
H6 H 0.3648 0.0814 0.1440
H7 H 0.2550 0.2520 0.1533
C7 C 0.3013(2) 0.2475(3) 0.06016(9)
H8 H 0.2165 0.1658 0.0416
H9 H 0.3836 0.2059 0.0404
C8 C 0.97742(19) 0.9296(3) 0.09209(9)
H10 H 1.0755 0.9144 0.0881
C9 C 0.26616(19) 0.4609(3) 0.04357(9)
H11 H 0.1797 0.4998 0.0608
H12 H 0.2436 0.4777 -0.0046
C10 C 0.58325(18) 0.7728(2) 0.23037(8)
C11 C 0.7617(2) 1.1206(3) 0.07767(8)
H13 H 0.7114 1.2381 0.0643
C12 C 0.44343(19) 0.7661(3) 0.25511(9)
H14 H 0.4163 0.8981 0.2672
H15 H 0.4542 0.6816 0.2942
C13 C 0.39398(19) 0.5914(2) 0.07321(8)
H16 H 0.4768 0.5624 0.0520
H17 H 0.3664 0.7290 0.0641
C14 C 0.9051(2) 1.1014(3) 0.07171(9)
H18 H 0.9530 1.2039 0.0540
loop_
_geom_bond_atom_site_label_1
_geom_bond_atom_site_label_2
_geom_bond_site_symmetry_1
_geom_bond_site_symmetry_2
S1 C3 1_555 1_555
O1 C10 1_555 1_555
N1 N2 1_555 1_555
N2 H1 1_555 1_555
C1 H2 1_555 1_555
H3 C1 1_555 1_555
C2 N2 1_555 1_555
C3 N1 1_555 1_555
C4 C2 1_555 1_555
H4 C4 1_555 1_555
C5 C2 1_555 1_555
H5 C5 1_555 1_555
C6 C1 1_555 1_555
H6 C6 1_555 1_555
H7 C6 1_555 1_555
C7 C6 1_555 1_555
H8 C7 1_555 1_555
H9 C7 1_555 1_555
C8 C5 1_555 1_555
H10 C8 1_555 1_555
C9 C7 1_555 1_555
H11 C9 1_555 1_555
H12 C9 1_555 1_555
C10 N1 1_555 1_555
C11 C4 1_555 1_555
H13 C11 1_555 1_555
C12 S1 1_555 1_555
H14 C12 1_555 1_555
H15 C12 1_555 1_555
C13 C3 1_555 1_555
H16 C13 1_555 1_555
H17 C13 1_555 1_555
C14 C8 1_555 1_555
H18 C14 1_555 1_555
C1 C3 1_555 1_555
C9 C13 1_555 1_555
C10 C12 1_555 1_555
C11 C14 1_555 1_555

#END
