
#######################################################################
#
#                 Cambridge Crystallographic Data Centre
#                                CCDC 
#
#######################################################################
#
# If this CIF has been generated from an entry in the Cambridge 
# Structural Database, then it will include bibliographic, chemical, 
# crystal, experimental, refinement or atomic coordinate data resulting 
# from the CCDC's data processing and validation procedures.
#
#######################################################################

data_MUVSON
_chemical_formula_moiety         'C19 H16 O2'
_chemical_name_systematic        9-methoxy-2,6-dimethylphenanthro[9,10-b]furan
_symmetry_cell_setting           monoclinic
_symmetry_space_group_name_H-M   'P 21/c'
_symmetry_Int_Tables_number      14
_space_group_name_Hall           '-P 2ybc'
loop_
_symmetry_equiv_pos_site_id
_symmetry_equiv_pos_as_xyz
1 x,y,z
2 -x,1/2+y,1/2-z
3 -x,-y,-z
4 x,1/2-y,1/2+z
_cell_length_a                   19.7036(8)
_cell_length_b                   13.6382(6)
_cell_length_c                   10.8241(4)
_cell_angle_alpha                90
_cell_angle_beta                 103.558(2)
_cell_angle_gamma                90
_cell_volume                     2827.61
_exptl_crystal_colour            colorless
_cell_formula_units_Z            8
loop_
_atom_site_label
_atom_site_type_symbol
_atom_site_fract_x
_atom_site_fract_y
_atom_site_fract_z
C1 C 0.23142(13) 0.63898(17) 0.7135(2)
C2 C 0.21918(13) 0.63019(17) 0.5867(2)
H1 H 0.1756 0.6251 0.5309
C3 C 0.28427(12) 0.62998(16) 0.5528(2)
C4 C 0.30748(12) 0.62221(16) 0.4370(2)
C5 C 0.26049(13) 0.61026(18) 0.3180(2)
H2 H 0.2128 0.6075 0.3137
C6 C 0.28352(13) 0.60269(19) 0.2087(2)
H3 H 0.2514 0.5946 0.1314
C7 C 0.35465(13) 0.60691(18) 0.2118(2)
C8 C 0.40087(13) 0.61697(17) 0.3276(2)
H4 H 0.4484 0.6187 0.3302
C9 C 0.37974(12) 0.62474(15) 0.4423(2)
C10 C 0.43014(12) 0.63349(15) 0.5654(2)
C11 C 0.50342(12) 0.63403(16) 0.5764(2)
H5 H 0.5204 0.6295 0.5033
C12 C 0.54994(12) 0.64109(17) 0.6932(2)
C13 C 0.52526(13) 0.64855(19) 0.8041(2)
H6 H 0.5567 0.6534 0.8828
C14 C 0.45464(13) 0.64869(18) 0.7969(2)
H7 H 0.4386 0.6539 0.8709
C15 C 0.40621(12) 0.64104(15) 0.6785(2)
C16 C 0.33314(12) 0.63961(16) 0.6652(2)
C17 C 0.18625(14) 0.6407(2) 0.8056(3)
H8 H 0.1381 0.6400 0.7603
H9 H 0.1955 0.6991 0.8563
H10 H 0.1959 0.5842 0.8597
C18 C 0.37959(14) 0.6019(2) 0.0909(2)
H11 H 0.4279 0.6204 0.1078
H12 H 0.3525 0.6459 0.0293
H13 H 0.3743 0.5362 0.0582
C19 C 0.64991(14) 0.6369(2) 0.6039(3)
H14 H 0.6368 0.5758 0.5611
H15 H 0.6999 0.6408 0.6306
H16 H 0.6328 0.6902 0.5470
O1 O 0.30179(8) 0.64471(12) 0.76511(14)
O2 O 0.62071(9) 0.64310(13) 0.71168(17)
C20 C 1.02525(13) 0.86808(18) 0.6205(2)
C21 C 1.03712(13) 0.87027(18) 0.7481(2)
H17 H 1.0805 0.8702 0.8052
C22 C 0.97089(12) 0.87274(17) 0.7796(2)
C23 C 0.94719(12) 0.87631(16) 0.8958(2)
C24 C 0.99428(13) 0.87841(18) 1.0161(2)
H18 H 1.0421 0.8779 1.0214
C25 C 0.97055(13) 0.88119(18) 1.1247(2)
H19 H 1.0025 0.8819 1.2029
C26 C 0.89918(13) 0.88307(17) 1.1208(2)
C27 C 0.85309(12) 0.88236(16) 1.0034(2)
H20 H 0.8055 0.8841 0.9999
C28 C 0.87489(12) 0.87906(15) 0.88889(19)
C29 C 0.82515(12) 0.87801(15) 0.7643(2)
C30 C 0.75255(12) 0.88151(17) 0.7530(2)
H21 H 0.7353 0.8845 0.8259
C31 C 0.70679(13) 0.88059(18) 0.6356(2)
C32 C 0.73212(13) 0.87532(18) 0.5249(2)
H22 H 0.7010 0.8744 0.4457
C33 C 0.80115(13) 0.87158(17) 0.5329(2)
H23 H 0.8173 0.8673 0.4590
C34 C 0.84950(12) 0.87398(16) 0.6518(2)
C35 C 0.92250(12) 0.87187(16) 0.6666(2)
C36 C 1.07161(14) 0.8680(2) 0.5296(3)
H24 H 1.0649 0.9277 0.4811
H25 H 1.0603 0.8130 0.4732
H26 H 1.1194 0.8634 0.5759
C37 C 0.87398(14) 0.88396(19) 1.2416(2)
H27 H 0.8239 0.8855 1.2213
H28 H 0.8919 0.9409 1.2905
H29 H 0.8901 0.8260 1.2899
C38 C 0.60691(13) 0.8880(2) 0.7240(3)
H30 H 0.6216 0.8316 0.7765
H31 H 0.5569 0.8887 0.6972
H32 H 0.6227 0.9464 0.7714
O3 O 0.95490(9) 0.86956(11) 0.56728(14)
O4 O 0.63580(9) 0.88377(14) 0.61556(16)
loop_
_geom_bond_atom_site_label_1
_geom_bond_atom_site_label_2
_geom_bond_site_symmetry_1
_geom_bond_site_symmetry_2
C1 C2 1_555 1_555
C2 H1 1_555 1_555
C3 C2 1_555 1_555
C4 C3 1_555 1_555
C5 C4 1_555 1_555
H2 C5 1_555 1_555
C6 C5 1_555 1_555
H3 C6 1_555 1_555
C7 C6 1_555 1_555
C8 C7 1_555 1_555
H4 C8 1_555 1_555
C9 C4 1_555 1_555
C10 C9 1_555 1_555
C11 C10 1_555 1_555
H5 C11 1_555 1_555
C12 C11 1_555 1_555
C13 C12 1_555 1_555
H6 C13 1_555 1_555
C14 C13 1_555 1_555
H7 C14 1_555 1_555
C15 C10 1_555 1_555
C16 C3 1_555 1_555
C17 C1 1_555 1_555
H8 C17 1_555 1_555
H9 C17 1_555 1_555
H10 C17 1_555 1_555
C18 C7 1_555 1_555
H11 C18 1_555 1_555
H12 C18 1_555 1_555
H13 C18 1_555 1_555
C19 H14 1_555 1_555
H15 C19 1_555 1_555
H16 C19 1_555 1_555
O1 C1 1_555 1_555
O2 C12 1_555 1_555
C20 C21 1_555 1_555
C21 H17 1_555 1_555
C22 C21 1_555 1_555
C23 C22 1_555 1_555
C24 C23 1_555 1_555
H18 C24 1_555 1_555
C25 C24 1_555 1_555
H19 C25 1_555 1_555
C26 C25 1_555 1_555
C27 C26 1_555 1_555
H20 C27 1_555 1_555
C28 C23 1_555 1_555
C29 C28 1_555 1_555
C30 C29 1_555 1_555
H21 C30 1_555 1_555
C31 C30 1_555 1_555
C32 C31 1_555 1_555
H22 C32 1_555 1_555
C33 C32 1_555 1_555
H23 C33 1_555 1_555
C34 C29 1_555 1_555
C35 C22 1_555 1_555
C36 C20 1_555 1_555
H24 C36 1_555 1_555
H25 C36 1_555 1_555
H26 C36 1_555 1_555
C37 C26 1_555 1_555
H27 C37 1_555 1_555
H28 C37 1_555 1_555
H29 C37 1_555 1_555
C38 H30 1_555 1_555
H31 C38 1_555 1_555
H32 C38 1_555 1_555
O3 C20 1_555 1_555
O4 C31 1_555 1_555
C8 C9 1_555 1_555
C14 C15 1_555 1_555
C15 C16 1_555 1_555
C16 O1 1_555 1_555
C19 O2 1_555 1_555
C27 C28 1_555 1_555
C33 C34 1_555 1_555
C34 C35 1_555 1_555
C35 O3 1_555 1_555
C38 O4 1_555 1_555

#END
