
#######################################################################
#
#                 Cambridge Crystallographic Data Centre
#                                CCDC 
#
#######################################################################
#
# If this CIF has been generated from an entry in the Cambridge 
# Structural Database, then it will include bibliographic, chemical, 
# crystal, experimental, refinement or atomic coordinate data resulting 
# from the CCDC's data processing and validation procedures.
#
#######################################################################

data_MUVSUT
_chemical_formula_moiety         'C18 H13 F1 O2'
_chemical_name_systematic        
6-fluoro-9-methoxy-2-methylphenanthro[9,10-b]furan
_symmetry_cell_setting           monoclinic
_symmetry_space_group_name_H-M   'P 21/c'
_symmetry_Int_Tables_number      14
_space_group_name_Hall           '-P 2ybc'
loop_
_symmetry_equiv_pos_site_id
_symmetry_equiv_pos_as_xyz
1 x,y,z
2 -x,1/2+y,1/2-z
3 -x,-y,-z
4 x,1/2-y,1/2+z
_cell_length_a                   31.469(3)
_cell_length_b                   5.0480(4)
_cell_length_c                   17.5880(15)
_cell_angle_alpha                90
_cell_angle_beta                 104.549(2)
_cell_angle_gamma                90
_cell_volume                     2704.36
_exptl_crystal_colour            colorless
_cell_formula_units_Z            8
loop_
_atom_site_label
_atom_site_type_symbol
_atom_site_fract_x
_atom_site_fract_y
_atom_site_fract_z
F1 F 0.21556(5) -0.1163(4) 0.19359(12)
O1 O 0.44602(5) 0.4603(4) 0.32316(10)
O2 O 0.40703(6) -0.4511(4) 0.05917(11)
C1 C 0.46704(10) 0.8091(7) 0.42049(18)
H1 H 0.4544 0.9245 0.4523
H2 H 0.4787 0.9128 0.3847
H3 H 0.4902 0.7071 0.4537
C2 C 0.43272(9) 0.6279(6) 0.37539(15)
C3 C 0.40982(7) 0.3157(5) 0.28747(13)
C4 C 0.40963(7) 0.1200(5) 0.22979(13)
C5 C 0.44677(8) 0.0565(6) 0.20205(15)
H4 H 0.4731 0.1453 0.2222
C6 C 0.44448(8) -0.1333(6) 0.14621(15)
H5 H 0.4692 -0.1745 0.1287
C7 C 0.40522(8) -0.2656(5) 0.11543(14)
C8 C 0.36901(10) -0.5999(6) 0.02498(17)
H6 H 0.3586 -0.6855 0.0656
H7 H 0.3760 -0.7313 -0.0095
H8 H 0.3466 -0.4841 -0.0044
C9 C 0.36952(7) -0.0135(5) 0.19866(13)
C10 C 0.36822(8) -0.2105(5) 0.14118(14)
H9 H 0.3424 -0.3033 0.1206
C11 C 0.33076(7) 0.0575(5) 0.22657(13)
C12 C 0.28979(8) -0.0657(6) 0.19653(16)
H10 H 0.2868 -0.1961 0.1582
C13 C 0.25466(8) 0.0065(6) 0.22367(18)
C14 C 0.25652(9) 0.1985(7) 0.28008(18)
H11 H 0.2318 0.2426 0.2971
C15 C 0.29551(8) 0.3216(6) 0.31011(16)
H12 H 0.2973 0.4514 0.3483
C16 C 0.33335(7) 0.2565(5) 0.28448(14)
C17 C 0.37475(8) 0.3843(5) 0.31563(13)
C18 C 0.39022(9) 0.5884(5) 0.37210(15)
H13 H 0.3738 0.6775 0.4012
F2 F 0.27371(5) -0.2577(4) 0.48096(11)
O3 O 0.09247(6) -0.4508(4) 0.14537(10)
O4 O 0.05378(5) 0.4640(3) 0.37383(9)
C19 C 0.13025(9) -0.6086(6) 0.14952(16)
H14 H 0.1550 -0.4959 0.1505
H15 H 0.1253 -0.7226 0.1044
H16 H 0.1361 -0.7141 0.1964
C20 C 0.09376(7) -0.2732(5) 0.20452(13)
C21 C 0.12890(7) -0.2344(5) 0.26769(13)
H17 H 0.1540 -0.3370 0.2728
C22 C 0.12762(7) -0.0422(5) 0.32495(12)
C23 C 0.08879(7) 0.1098(5) 0.31585(12)
C24 C 0.08903(7) 0.3042(5) 0.37392(13)
C25 C 0.06679(8) 0.6234(5) 0.44007(14)
C26 C 0.03326(9) 0.8123(6) 0.45273(17)
H18 H 0.0457 0.9214 0.4975
H19 H 0.0087 0.7160 0.4618
H20 H 0.0236 0.9220 0.4071
C27 C 0.12335(7) 0.3573(5) 0.43716(12)
C28 C 0.16294(7) 0.2076(5) 0.44766(12)
C29 C 0.16481(7) 0.0054(5) 0.39272(13)
C30 C 0.05290(7) 0.0650(5) 0.25063(13)
H21 H 0.0274 0.1645 0.2447
C31 C 0.05537(7) -0.1234(5) 0.19623(13)
H22 H 0.0315 -0.1525 0.1536
C32 C 0.20336(7) -0.1492(5) 0.40568(14)
H23 H 0.2056 -0.2840 0.3708
C33 C 0.23709(8) -0.1002(6) 0.46917(17)
C34 C 0.23648(8) 0.1010(6) 0.52290(17)
H24 H 0.2605 0.1317 0.5651
C35 C 0.19963(8) 0.2510(6) 0.51166(14)
H25 H 0.1985 0.3861 0.5471
C36 C 0.10819(8) 0.5669(5) 0.47887(14)
H26 H 0.1242 0.6485 0.5245
loop_
_geom_bond_atom_site_label_1
_geom_bond_atom_site_label_2
_geom_bond_site_symmetry_1
_geom_bond_site_symmetry_2
F1 C13 1_555 1_555
O1 C2 1_555 1_555
O2 C7 1_555 1_555
C1 H1 1_555 1_555
H2 C1 1_555 1_555
H3 C1 1_555 1_555
C2 C1 1_555 1_555
C3 O1 1_555 1_555
C4 C3 1_555 1_555
C5 C4 1_555 1_555
H4 C5 1_555 1_555
C6 C5 1_555 1_555
H5 C6 1_555 1_555
C7 C6 1_555 1_555
C8 O2 1_555 1_555
H6 C8 1_555 1_555
H7 C8 1_555 1_555
H8 C8 1_555 1_555
C9 C4 1_555 1_555
C10 C7 1_555 1_555
H9 C10 1_555 1_555
C11 C9 1_555 1_555
C12 C11 1_555 1_555
H10 C12 1_555 1_555
C13 C12 1_555 1_555
C14 C13 1_555 1_555
H11 C14 1_555 1_555
C15 C14 1_555 1_555
H12 C15 1_555 1_555
C16 C11 1_555 1_555
C17 C3 1_555 1_555
C18 C2 1_555 1_555
H13 C18 1_555 1_555
F2 C33 1_555 1_555
O3 C19 1_555 1_555
O4 C24 1_555 1_555
C19 H14 1_555 1_555
H15 C19 1_555 1_555
H16 C19 1_555 1_555
C20 O3 1_555 1_555
C21 C20 1_555 1_555
H17 C21 1_555 1_555
C22 C21 1_555 1_555
C23 C22 1_555 1_555
C24 C23 1_555 1_555
C25 O4 1_555 1_555
C26 C25 1_555 1_555
H18 C26 1_555 1_555
H19 C26 1_555 1_555
H20 C26 1_555 1_555
C27 C24 1_555 1_555
C28 C27 1_555 1_555
C29 C22 1_555 1_555
C30 C23 1_555 1_555
H21 C30 1_555 1_555
C31 C20 1_555 1_555
H22 C31 1_555 1_555
C32 C29 1_555 1_555
H23 C32 1_555 1_555
C33 C32 1_555 1_555
C34 C33 1_555 1_555
H24 C34 1_555 1_555
C35 C28 1_555 1_555
H25 C35 1_555 1_555
C36 C25 1_555 1_555
H26 C36 1_555 1_555
C9 C10 1_555 1_555
C15 C16 1_555 1_555
C16 C17 1_555 1_555
C17 C18 1_555 1_555
C27 C36 1_555 1_555
C28 C29 1_555 1_555
C30 C31 1_555 1_555
C34 C35 1_555 1_555

#END
