
#######################################################################
#
#                 Cambridge Crystallographic Data Centre
#                                CCDC 
#
#######################################################################
#
# If this CIF has been generated from an entry in the Cambridge 
# Structural Database, then it will include bibliographic, chemical, 
# crystal, experimental, refinement or atomic coordinate data resulting 
# from the CCDC's data processing and validation procedures.
#
#######################################################################

data_MUVZIM
_chemical_formula_moiety         'C24 H20 N2 O8'
_chemical_name_systematic        
3,4-trans-4,5-trans-2-amino-3-cyano-1,3-bis(methoxycarbonyl)-4,5-bis(3,4-methylenedioxyphenyl)cyclopentene
_symmetry_cell_setting           monoclinic
_symmetry_space_group_name_H-M   'P 21/n'
_symmetry_Int_Tables_number      14
_space_group_name_Hall           '-P 2yn'
loop_
_symmetry_equiv_pos_site_id
_symmetry_equiv_pos_as_xyz
1 x,y,z
2 1/2+x,1/2-y,1/2+z
3 -x,-y,-z
4 1/2-x,1/2+y,1/2-z
_cell_length_a                   10.963(3)
_cell_length_b                   10.142(3)
_cell_length_c                   20.001(4)
_cell_angle_alpha                90
_cell_angle_beta                 93.81(2)
_cell_angle_gamma                90
_cell_volume                     2218.93
_exptl_crystal_colour            yellow
_chemical_melting_point          219-220deg.C
_cell_formula_units_Z            4
_exptl_crystal_recrystallization_method ethanol
loop_
_atom_site_label
_atom_site_type_symbol
_atom_site_fract_x
_atom_site_fract_y
_atom_site_fract_z
O1 O 0.1541(2) 0.5180(2) -0.05157(12)
O2 O 0.36250(19) 0.5344(2) -0.05576(11)
O3 O 0.1113(3) 1.3328(3) 0.07758(14)
O4 O 0.0891(3) 1.1996(3) 0.16752(14)
O5 O 0.7244(2) 0.9699(2) 0.09599(13)
O6 O 0.6842(2) 1.1617(2) 0.14345(12)
O7 O 0.43820(19) 0.53409(19) 0.19867(11)
O8 O 0.63460(19) 0.55967(19) 0.23626(11)
N1 N 0.5184(3) 1.1011(3) 0.27908(15)
N2 N 0.7266(2) 0.8173(3) 0.23044(14)
H1 H 0.7487 0.7424 0.2474
H2 H 0.7751 0.8839 0.2345
C1 C 0.4108(2) 0.8018(3) 0.15440(14)
H3 H 0.3570 0.8221 0.1902
C2 C 0.4598(3) 0.9334(3) 0.12680(14)
H4 H 0.4905 0.9122 0.0832
C3 C 0.5750(3) 0.9670(3) 0.17425(14)
C4 C 0.6165(3) 0.8301(3) 0.19763(15)
C5 C 0.5275(3) 0.7399(3) 0.18561(14)
C6 C 0.3381(3) 0.7255(3) 0.10014(15)
C7 C 0.3968(3) 0.6682(3) 0.04695(15)
H5 H 0.4810 0.6743 0.0444
C8 C 0.3250(3) 0.6031(3) -0.00094(15)
C9 C 0.2008(3) 0.5934(3) 0.00130(16)
C10 C 0.1420(3) 0.6471(3) 0.05237(17)
H6 H 0.0578 0.6390 0.0543
C11 C 0.2122(3) 0.7145(3) 0.10161(16)
H7 H 0.1736 0.7534 0.1366
C12 C 0.2528(3) 0.5034(4) -0.09405(18)
H8 H 0.2559 0.4136 -0.1106
H9 H 0.2418 0.5624 -0.1322
C13 C 0.3696(3) 1.0442(3) 0.11425(15)
C14 C 0.2708(3) 1.0633(3) 0.15380(17)
H10 H 0.2588 1.0087 0.1902
C15 C 0.1923(3) 1.1646(3) 0.13735(17)
C16 C 0.2070(3) 1.2459(3) 0.08410(18)
C17 C 0.3037(4) 1.2327(4) 0.0461(2)
H11 H 0.3159 1.2899 0.0108
C18 C 0.3845(3) 1.1293(4) 0.06206(18)
H12 H 0.4512 1.1176 0.0363
C19 C 0.0458(4) 1.3139(5) 0.1338(2)
H13 H -0.0405 1.3043 0.1206
H14 H 0.0557 1.3897 0.1633
C20 C 0.5434(3) 1.0449(3) 0.23249(17)
C21 C 0.6680(3) 1.0461(3) 0.13696(16)
C22 C 0.8206(4) 1.0324(5) 0.0587(2)
H15 H 0.7902 1.0475 0.0132
H16 H 0.8906 0.9754 0.0592
H17 H 0.8437 1.1149 0.0794
C23 C 0.5404(3) 0.6055(3) 0.20930(15)
C24 C 0.4460(3) 0.3965(3) 0.2173(2)
H18 H 0.5040 0.3529 0.1910
H19 H 0.3672 0.3560 0.2093
H20 H 0.4718 0.3892 0.2640
loop_
_geom_bond_atom_site_label_1
_geom_bond_atom_site_label_2
_geom_bond_site_symmetry_1
_geom_bond_site_symmetry_2
O1 C9 1_555 1_555
O2 C8 1_555 1_555
O3 C16 1_555 1_555
O4 C15 1_555 1_555
O5 C21 1_555 1_555
O6 C21 1_555 1_555
O7 C23 1_555 1_555
O8 C23 1_555 1_555
N1 C20 1_555 1_555
N2 H1 1_555 1_555
H2 N2 1_555 1_555
C1 H3 1_555 1_555
C2 C1 1_555 1_555
H4 C2 1_555 1_555
C3 C2 1_555 1_555
C4 N2 1_555 1_555
C5 C1 1_555 1_555
C6 C1 1_555 1_555
C7 C6 1_555 1_555
H5 C7 1_555 1_555
C8 C7 1_555 1_555
C9 C8 1_555 1_555
C10 C9 1_555 1_555
H6 C10 1_555 1_555
C11 C6 1_555 1_555
H7 C11 1_555 1_555
C12 O1 1_555 1_555
H8 C12 1_555 1_555
H9 C12 1_555 1_555
C13 C2 1_555 1_555
C14 C13 1_555 1_555
H10 C14 1_555 1_555
C15 C14 1_555 1_555
C16 C15 1_555 1_555
C17 C16 1_555 1_555
H11 C17 1_555 1_555
C18 C13 1_555 1_555
H12 C18 1_555 1_555
C19 O3 1_555 1_555
H13 C19 1_555 1_555
H14 C19 1_555 1_555
C20 C3 1_555 1_555
C21 C3 1_555 1_555
C22 O5 1_555 1_555
H15 C22 1_555 1_555
H16 C22 1_555 1_555
H17 C22 1_555 1_555
C23 C5 1_555 1_555
C24 O7 1_555 1_555
H18 C24 1_555 1_555
H19 C24 1_555 1_555
H20 C24 1_555 1_555
O2 C12 1_555 1_555
O4 C19 1_555 1_555
C3 C4 1_555 1_555
C4 C5 1_555 1_555
C10 C11 1_555 1_555
C17 C18 1_555 1_555

#END
