
#######################################################################
#
#                 Cambridge Crystallographic Data Centre
#                                CCDC 
#
#######################################################################
#
# If this CIF has been generated from an entry in the Cambridge 
# Structural Database, then it will include bibliographic, chemical, 
# crystal, experimental, refinement or atomic coordinate data resulting 
# from the CCDC's data processing and validation procedures.
#
#######################################################################

data_MUVZEI
_chemical_formula_moiety         'C23 H23 N1 O1'
_chemical_name_systematic        
7,7-Dimethyl-2,4-diphenyl-5-oxo-1,4,5,6,7,8-hexahydroquinolin
_symmetry_cell_setting           triclinic
_symmetry_space_group_name_H-M   'P -1'
_symmetry_Int_Tables_number      2
_space_group_name_Hall           '-P 1'
loop_
_symmetry_equiv_pos_site_id
_symmetry_equiv_pos_as_xyz
1 x,y,z
2 -x,-y,-z
_cell_length_a                   7.129(2)
_cell_length_b                   10.514(3)
_cell_length_c                   13.040(3)
_cell_angle_alpha                76.58(2)
_cell_angle_beta                 88.97(2)
_cell_angle_gamma                79.24(2)
_cell_volume                     933.672
_exptl_crystal_colour            yellow
_chemical_melting_point          206-208deg.C
_cell_formula_units_Z            2
_exptl_crystal_recrystallization_method ethanol
loop_
_atom_site_label
_atom_site_type_symbol
_atom_site_fract_x
_atom_site_fract_y
_atom_site_fract_z
O1 O 0.65062(17) 0.50313(15) 0.72430(11)
N1 N 0.0359(2) 0.42721(15) 0.81110(12)
H1 H -0.0847 0.4476 0.7963
C1 C 0.1035(2) 0.32554(17) 0.89952(14)
C2 C 0.2901(3) 0.27392(18) 0.91049(14)
H2 H 0.3346 0.2120 0.9724
C3 C 0.4304(2) 0.31145(18) 0.82745(14)
H3 H 0.5464 0.3191 0.8629
C4 C 0.3493(2) 0.44734(17) 0.75745(14)
C5 C 0.1570(2) 0.49438(17) 0.74813(14)
C6 C 0.0677(2) 0.62323(18) 0.67649(15)
H4 H 0.0336 0.6893 0.7180
H5 H -0.0494 0.6118 0.6459
C7 C 0.1948(3) 0.67595(18) 0.58748(15)
C8 C 0.1095(3) 0.8215(2) 0.53784(19)
H6 H 0.1000 0.8723 0.5908
H7 H -0.0153 0.8273 0.5086
H8 H 0.1904 0.8564 0.4829
C9 C 0.2101(3) 0.5967(2) 0.50283(17)
H9 H 0.2914 0.6319 0.4483
H10 H 0.0855 0.6030 0.4733
H11 H 0.2632 0.5050 0.5335
C10 C 0.3928(3) 0.66576(19) 0.63504(15)
H12 H 0.4798 0.6849 0.5779
H13 H 0.3860 0.7340 0.6745
C11 C 0.4758(2) 0.53320(19) 0.70675(14)
C12 C 0.4843(3) 0.20263(18) 0.76662(14)
C13 C 0.3600(3) 0.1834(2) 0.69444(18)
H14 H 0.2423 0.2404 0.6797
C14 C 0.4079(4) 0.0803(2) 0.64336(19)
H15 H 0.3219 0.0693 0.5947
C15 C 0.5783(4) -0.0050(2) 0.66332(19)
H16 H 0.6092 -0.0742 0.6291
C16 C 0.7028(4) 0.0125(2) 0.7341(2)
H17 H 0.8201 -0.0451 0.7484
C17 C 0.6566(3) 0.1152(2) 0.78519(18)
H18 H 0.7440 0.1256 0.8333
C18 C -0.0423(3) 0.28740(18) 0.97694(14)
C19 C -0.1951(3) 0.3813(2) 0.99762(15)
H19 H -0.2045 0.4706 0.9639
C20 C -0.3323(3) 0.3425(2) 1.06777(16)
H20 H -0.4334 0.4060 1.0811
C21 C -0.3214(3) 0.2113(3) 1.11799(16)
H21 H -0.4165 0.1855 1.1635
C22 C -0.1687(4) 0.1181(2) 1.10068(17)
H22 H -0.1584 0.0294 1.1361
C23 C -0.0308(3) 0.1561(2) 1.03074(16)
H23 H 0.0718 0.0922 1.0195
loop_
_geom_bond_atom_site_label_1
_geom_bond_atom_site_label_2
_geom_bond_site_symmetry_1
_geom_bond_site_symmetry_2
O1 C11 1_555 1_555
N1 H1 1_555 1_555
C1 N1 1_555 1_555
C2 C1 1_555 1_555
H2 C2 1_555 1_555
C3 C2 1_555 1_555
H3 C3 1_555 1_555
C4 C3 1_555 1_555
C5 N1 1_555 1_555
C6 C5 1_555 1_555
H4 C6 1_555 1_555
H5 C6 1_555 1_555
C7 C6 1_555 1_555
C8 C7 1_555 1_555
H6 C8 1_555 1_555
H7 C8 1_555 1_555
H8 C8 1_555 1_555
C9 C7 1_555 1_555
H9 C9 1_555 1_555
H10 C9 1_555 1_555
H11 C9 1_555 1_555
C10 C7 1_555 1_555
H12 C10 1_555 1_555
H13 C10 1_555 1_555
C11 C4 1_555 1_555
C12 C3 1_555 1_555
C13 C12 1_555 1_555
H14 C13 1_555 1_555
C14 C13 1_555 1_555
H15 C14 1_555 1_555
C15 C14 1_555 1_555
H16 C15 1_555 1_555
C16 C15 1_555 1_555
H17 C16 1_555 1_555
C17 C12 1_555 1_555
H18 C17 1_555 1_555
C18 C1 1_555 1_555
C19 C18 1_555 1_555
H19 C19 1_555 1_555
C20 C19 1_555 1_555
H20 C20 1_555 1_555
C21 C20 1_555 1_555
H21 C21 1_555 1_555
C22 C21 1_555 1_555
H22 C22 1_555 1_555
C23 C18 1_555 1_555
H23 C23 1_555 1_555
C4 C5 1_555 1_555
C10 C11 1_555 1_555
C16 C17 1_555 1_555
C22 C23 1_555 1_555

#END
