
#######################################################################
#
#                 Cambridge Crystallographic Data Centre
#                                CCDC 
#
#######################################################################
#
# If this CIF has been generated from an entry in the Cambridge 
# Structural Database, then it will include bibliographic, chemical, 
# crystal, experimental, refinement or atomic coordinate data resulting 
# from the CCDC's data processing and validation procedures.
#
#######################################################################

data_MUWCEO
_chemical_formula_moiety         'C20 H25 N5 O3'
_chemical_name_systematic        
1-(1H-Benzotriazol-1-yloxy)-3-(4-(2-methoxyphenyl)piperazin-1-yl)propan-2-ol
_symmetry_cell_setting           tetragonal
_symmetry_space_group_name_H-M   'P 43 21 2'
_symmetry_Int_Tables_number      96
_space_group_name_Hall           'P 4nw 2abw'
loop_
_symmetry_equiv_pos_site_id
_symmetry_equiv_pos_as_xyz
1 x,y,z
2 1/2-y,1/2+x,3/4+z
3 -x,-y,1/2+z
4 1/2+y,1/2-x,1/4+z
5 1/2+x,1/2-y,1/4-z
6 1/2-x,1/2+y,3/4-z
7 y,x,-z
8 -y,-x,1/2-z
_cell_length_a                   10.0928(14)
_cell_length_b                   10.0928(14)
_cell_length_c                   41.368(8)
_cell_angle_alpha                90
_cell_angle_beta                 90
_cell_angle_gamma                90
_cell_volume                     4213.94
_exptl_crystal_colour            colorless
_cell_formula_units_Z            8
_exptl_crystal_recrystallization_method dichloromethane/Cyclohexane
loop_
_atom_site_label
_atom_site_type_symbol
_atom_site_fract_x
_atom_site_fract_y
_atom_site_fract_z
O1 O 0.7095(2) 0.4307(2) 0.59384(5)
O2 O 0.0215(2) 0.8891(3) 0.71854(5)
O3 O 0.2066(3) 0.6764(3) 0.72170(5)
H1 H 0.2541 0.6138 0.7166
N1 N -0.1130(2) 0.8872(3) 0.72340(5)
N2 N 0.6343(2) 0.5611(2) 0.64766(5)
N3 N 0.3743(2) 0.6395(3) 0.66793(5)
N4 N -0.1715(3) 0.7840(3) 0.73728(6)
N5 N -0.2936(3) 0.8161(3) 0.74308(6)
C1 C 0.7603(3) 0.4986(3) 0.64692(7)
C2 C 0.2006(3) 0.7679(3) 0.69574(6)
H2 H 0.2555 0.8454 0.7006
C3 C 0.7998(3) 0.4316(3) 0.61853(7)
C4 C 0.2468(3) 0.7045(4) 0.66436(7)
H3 H 0.1816 0.6401 0.6574
H4 H 0.2535 0.7722 0.6478
C5 C -0.3134(3) 0.9433(3) 0.73312(7)
C6 C -0.1968(3) 0.9916(3) 0.72016(7)
C7 C 0.5225(3) 0.4670(3) 0.64755(7)
H5 H 0.5198 0.4197 0.6680
H6 H 0.5348 0.4027 0.6304
C8 C 0.0581(3) 0.8101(3) 0.69097(7)
H7 H 0.0494 0.8615 0.6713
H8 H 0.0012 0.7330 0.6894
C9 C 0.8507(3) 0.5024(3) 0.67217(8)
H9 H 0.8275 0.5462 0.6911
C10 C 0.3938(3) 0.5402(3) 0.64251(7)
H10 H 0.3948 0.5834 0.6216
H11 H 0.3208 0.4777 0.6428
C11 C 0.6152(3) 0.6595(3) 0.67266(7)
H12 H 0.6878 0.7225 0.6722
H13 H 0.6146 0.6168 0.6937
C12 C 0.4856(3) 0.7311(3) 0.66736(8)
H14 H 0.4739 0.7974 0.6841
H15 H 0.4880 0.7763 0.6467
C13 C 0.9231(4) 0.3749(4) 0.61665(9)
H16 H 0.9487 0.3330 0.5976
C14 C -0.4260(4) 1.0264(4) 0.73544(8)
H17 H -0.5052 0.9959 0.7442
C15 C 0.7423(4) 0.3636(5) 0.56485(8)
H18 H 0.6675 0.3650 0.5505
H19 H 0.7654 0.2735 0.5697
H20 H 0.8161 0.4070 0.5547
C16 C 0.9749(4) 0.4430(4) 0.67023(10)
H21 H 1.0333 0.4468 0.6876
C17 C -0.1844(4) 1.1194(4) 0.70803(10)
H22 H -0.1065 1.1503 0.6987
C18 C 1.0098(4) 0.3786(4) 0.64230(11)
H23 H 1.0920 0.3375 0.6407
C19 C -0.4138(4) 1.1522(5) 0.72436(11)
H24 H -0.4856 1.2096 0.7258
C20 C -0.2960(5) 1.1970(4) 0.71090(13)
H25 H -0.2923 1.2838 0.7034
loop_
_geom_bond_atom_site_label_1
_geom_bond_atom_site_label_2
_geom_bond_site_symmetry_1
_geom_bond_site_symmetry_2
O1 C3 1_555 1_555
O2 N1 1_555 1_555
O3 H1 1_555 1_555
N1 N4 1_555 1_555
N2 C1 1_555 1_555
N3 C4 1_555 1_555
N4 N5 1_555 1_555
N5 C5 1_555 1_555
C1 C3 1_555 1_555
C2 O3 1_555 1_555
H2 C2 1_555 1_555
C3 C13 1_555 1_555
C4 C2 1_555 1_555
H3 C4 1_555 1_555
H4 C4 1_555 1_555
C5 C6 1_555 1_555
C6 N1 1_555 1_555
C7 N2 1_555 1_555
H5 C7 1_555 1_555
H6 C7 1_555 1_555
C8 O2 1_555 1_555
H7 C8 1_555 1_555
H8 C8 1_555 1_555
C9 C1 1_555 1_555
H9 C9 1_555 1_555
C10 N3 1_555 1_555
H10 C10 1_555 1_555
H11 C10 1_555 1_555
C11 N2 1_555 1_555
H12 C11 1_555 1_555
H13 C11 1_555 1_555
C12 N3 1_555 1_555
H14 C12 1_555 1_555
H15 C12 1_555 1_555
C13 H16 1_555 1_555
C14 C5 1_555 1_555
H17 C14 1_555 1_555
C15 O1 1_555 1_555
H18 C15 1_555 1_555
H19 C15 1_555 1_555
H20 C15 1_555 1_555
C16 C9 1_555 1_555
H21 C16 1_555 1_555
C17 C6 1_555 1_555
H22 C17 1_555 1_555
C18 C13 1_555 1_555
H23 C18 1_555 1_555
C19 C14 1_555 1_555
H24 C19 1_555 1_555
C20 C17 1_555 1_555
H25 C20 1_555 1_555
C2 C8 1_555 1_555
C7 C10 1_555 1_555
C11 C12 1_555 1_555
C16 C18 1_555 1_555
C19 C20 1_555 1_555

#END
