
#######################################################################
#
#                 Cambridge Crystallographic Data Centre
#                                CCDC 
#
#######################################################################
#
# If this CIF has been generated from an entry in the Cambridge 
# Structural Database, then it will include bibliographic, chemical, 
# crystal, experimental, refinement or atomic coordinate data resulting 
# from the CCDC's data processing and validation procedures.
#
#######################################################################

data_MUWFUG
_chemical_formula_moiety         'C24 H24 F1 N1 O7'
_chemical_name_systematic        
'anti-4-(5-((Benzyloxy)methyl)-2,2-dimethyl-1,3-dioxolan-4-yl)-4-fluorobut-2-yn-1-yl 4-nitrobenzoate'
_symmetry_cell_setting           monoclinic
_symmetry_space_group_name_H-M   'P 21'
_symmetry_Int_Tables_number      4
_space_group_name_Hall           'P 2yb'
loop_
_symmetry_equiv_pos_site_id
_symmetry_equiv_pos_as_xyz
1 x,y,z
2 -x,1/2+y,-z
_cell_length_a                   8.6307(10)
_cell_length_b                   20.200(2)
_cell_length_c                   13.4246(16)
_cell_angle_alpha                90
_cell_angle_beta                 100.861(2)
_cell_angle_gamma                90
_cell_volume                     2298.52
_exptl_crystal_colour            colorless
_exptl_crystal_description       prismatic
_cell_formula_units_Z            4
loop_
_atom_site_label
_atom_site_type_symbol
_atom_site_fract_x
_atom_site_fract_y
_atom_site_fract_z
F1 F 0.0754(3) 0.02366(14) -0.2959(2)
N1 N 0.2809(5) 0.0970(3) 0.4516(3)
O1 O -0.2383(3) 0.13080(14) -0.21965(18)
O2 O -0.1261(3) 0.13053(16) -0.35800(18)
O3 O -0.0844(3) 0.13783(14) -0.00955(18)
O4 O 0.4329(4) 0.19164(15) 0.0254(2)
O5 O 0.5000(3) 0.08539(14) 0.02511(19)
O6 O 0.2992(5) 0.0426(2) 0.4890(3)
O7 O 0.2259(5) 0.1443(2) 0.4895(2)
C1 C -0.0177(5) 0.1603(2) -0.0925(3)
H1 H 0.0964 0.1581 -0.0753
H2 H -0.0479 0.2060 -0.1081
C2 C -0.0768(4) 0.11722(18) -0.1825(2)
H3 H -0.0612 0.0703 -0.1646
C3 C -0.2726(4) 0.1180(2) -0.3247(3)
C4 C -0.0016(4) 0.13435(19) -0.2743(2)
H4 H 0.0374 0.1800 -0.2674
C5 C 0.1306(5) 0.0893(2) -0.2917(3)
H5 H 0.1581 0.1004 -0.3572
C6 C 0.2730(5) 0.0932(2) -0.2137(3)
C7 C 0.3905(5) 0.0955(2) -0.1515(3)
C8 C 0.5333(5) 0.0952(2) -0.0761(3)
H6 H 0.5881 0.1369 -0.0784
H7 H 0.6019 0.0600 -0.0912
C9 C 0.4478(5) 0.1389(2) 0.0659(3)
C10 C 0.4092(5) 0.1256(2) 0.1679(3)
C11 C 0.3560(5) 0.1780(2) 0.2189(3)
H8 H 0.3482 0.2201 0.1901
C12 C 0.3144(5) 0.1683(2) 0.3118(3)
H9 H 0.2771 0.2030 0.3462
C13 C 0.3295(5) 0.1065(2) 0.3518(3)
C14 C 0.3806(5) 0.0538(2) 0.3040(3)
H10 H 0.3892 0.0120 0.3338
C15 C 0.4191(5) 0.0638(2) 0.2107(3)
H11 H 0.4522 0.0282 0.1760
C16 C -0.0567(5) 0.1819(2) 0.0720(3)
H12 H -0.1210 0.2211 0.0552
H13 H 0.0531 0.1953 0.0846
C17 C -0.0950(5) 0.1505(2) 0.1657(3)
C18 C -0.1804(5) 0.1864(2) 0.2257(3)
H14 H -0.2211 0.2279 0.2050
C19 C -0.2035(6) 0.1597(3) 0.3158(4)
H15 H -0.2575 0.1842 0.3570
C20 C -0.1499(7) 0.0989(3) 0.3461(4)
H16 H -0.1685 0.0815 0.4069
C21 C -0.0685(6) 0.0632(2) 0.2871(4)
H17 H -0.0314 0.0212 0.3076
C22 C -0.0405(5) 0.0891(2) 0.1963(3)
H18 H 0.0155 0.0646 0.1564
C23 C -0.3206(6) 0.0471(2) -0.3459(3)
H19 H -0.2387 0.0184 -0.3119
H20 H -0.3373 0.0392 -0.4176
H21 H -0.4164 0.0385 -0.3216
C24 C -0.3928(6) 0.1654(3) -0.3738(3)
H22 H -0.4867 0.1606 -0.3458
H23 H -0.4171 0.1568 -0.4454
H24 H -0.3531 0.2097 -0.3623
F2 F 0.5222(3) 0.26860(14) 0.45230(19)
N2 N 0.3478(4) 0.3541(3) -0.2943(3)
O8 O 0.8557(3) 0.3502(2) 0.37581(19)
O9 O 0.7485(3) 0.3633(2) 0.51556(18)
O10 O 0.7029(3) 0.37382(13) 0.16750(17)
O11 O 0.1821(5) 0.45516(18) 0.1238(2)
O12 O 0.1273(3) 0.34905(14) 0.13083(18)
O13 O 0.3501(5) 0.2978(3) -0.3241(3)
O14 O 0.3845(6) 0.4030(3) -0.3386(3)
C25 C 0.6519(5) 0.40065(19) 0.2540(2)
H25 H 0.5390 0.4083 0.2388
H26 H 0.7041 0.4426 0.2725
C26 C 0.6919(4) 0.3526(2) 0.3399(2)
H27 H 0.6524 0.3085 0.3180
C27 C 0.8944(4) 0.3543(2) 0.4818(3)
C28 C 0.6266(4) 0.3740(2) 0.4335(2)
H28 H 0.6008 0.4213 0.4286
C29 C 0.4842(5) 0.3354(2) 0.4498(3)
H29 H 0.4592 0.3479 0.5154
C30 C 0.3449(5) 0.3456(2) 0.3716(3)
C31 C 0.2324(5) 0.3526(2) 0.3082(3)
C32 C 0.0902(5) 0.3582(3) 0.2304(3)
H30 H 0.0142 0.3250 0.2420
H31 H 0.0432 0.4015 0.2345
C33 C 0.1738(5) 0.4021(2) 0.0865(3)
C34 C 0.2134(4) 0.38721(19) -0.0138(3)
C35 C 0.2266(5) 0.3239(2) -0.0466(3)
H32 H 0.2072 0.2884 -0.0065
C36 C 0.2688(5) 0.3124(2) -0.1393(3)
H33 H 0.2781 0.2695 -0.1626
C37 C 0.2967(5) 0.3657(3) -0.1959(3)
C38 C 0.2838(5) 0.4287(3) -0.1649(3)
H34 H 0.3040 0.4640 -0.2050
C39 C 0.2410(5) 0.4395(2) -0.0743(3)
H35 H 0.2301 0.4827 -0.0526
C40 C 0.6863(5) 0.4206(2) 0.0879(3)
H36 H 0.7595 0.4569 0.1074
H37 H 0.5802 0.4386 0.0760
C41 C 0.7176(5) 0.3900(2) -0.0077(3)
C42 C 0.6689(5) 0.3273(2) -0.0366(3)
H38 H 0.6218 0.3014 0.0067
C43 C 0.6882(5) 0.3018(2) -0.1286(3)
H39 H 0.6526 0.2594 -0.1479
C44 C 0.7608(6) 0.3397(3) -0.1918(3)
H40 H 0.7747 0.3231 -0.2542
C45 C 0.8112(6) 0.4007(3) -0.1629(3)
H41 H 0.8593 0.4264 -0.2059
C46 C 0.7933(5) 0.4259(2) -0.0716(3)
H42 H 0.8325 0.4678 -0.0522
C47 C 0.9682(7) 0.2915(3) 0.5241(4)
H43 H 0.8969 0.2554 0.5035
H44 H 0.9911 0.2941 0.5968
H45 H 1.0642 0.2843 0.4994
C48 C 0.9951(7) 0.4130(3) 0.5096(4)
H46 H 1.0930 0.4072 0.4865
H47 H 1.0158 0.4183 0.5819
H48 H 0.9421 0.4516 0.4784
loop_
_geom_bond_atom_site_label_1
_geom_bond_atom_site_label_2
_geom_bond_site_symmetry_1
_geom_bond_site_symmetry_2
F1 C5 1_555 1_555
F2 C29 1_555 1_555
N1 O6 1_555 1_555
N2 O13 1_555 1_555
O1 C2 1_555 1_555
O2 C3 1_555 1_555
O3 C1 1_555 1_555
O4 C9 1_555 1_555
O5 C8 1_555 1_555
O7 N1 1_555 1_555
O8 C26 1_555 1_555
O9 C27 1_555 1_555
O10 C25 1_555 1_555
O11 C33 1_555 1_555
O12 C32 1_555 1_555
O14 N2 1_555 1_555
C1 H1 1_555 1_555
H2 C1 1_555 1_555
C2 C1 1_555 1_555
H3 C2 1_555 1_555
C3 O1 1_555 1_555
C4 O2 1_555 1_555
H4 C4 1_555 1_555
C5 C4 1_555 1_555
H5 C5 1_555 1_555
C6 C5 1_555 1_555
C7 C6 1_555 1_555
C8 C7 1_555 1_555
H6 C8 1_555 1_555
H7 C8 1_555 1_555
C9 O5 1_555 1_555
C10 C9 1_555 1_555
C11 C10 1_555 1_555
H8 C11 1_555 1_555
C12 C11 1_555 1_555
H9 C12 1_555 1_555
C13 N1 1_555 1_555
C14 C13 1_555 1_555
H10 C14 1_555 1_555
C15 C10 1_555 1_555
H11 C15 1_555 1_555
C16 O3 1_555 1_555
H12 C16 1_555 1_555
H13 C16 1_555 1_555
C17 C16 1_555 1_555
C18 C17 1_555 1_555
H14 C18 1_555 1_555
C19 C18 1_555 1_555
H15 C19 1_555 1_555
C20 C19 1_555 1_555
H16 C20 1_555 1_555
C21 C20 1_555 1_555
H17 C21 1_555 1_555
C22 C17 1_555 1_555
H18 C22 1_555 1_555
C23 C3 1_555 1_555
H19 C23 1_555 1_555
H20 C23 1_555 1_555
H21 C23 1_555 1_555
C24 C3 1_555 1_555
H22 C24 1_555 1_555
H23 C24 1_555 1_555
H24 C24 1_555 1_555
C25 H25 1_555 1_555
H26 C25 1_555 1_555
C26 C25 1_555 1_555
H27 C26 1_555 1_555
C27 O8 1_555 1_555
C28 O9 1_555 1_555
H28 C28 1_555 1_555
C29 C28 1_555 1_555
H29 C29 1_555 1_555
C30 C29 1_555 1_555
C31 C30 1_555 1_555
C32 C31 1_555 1_555
H30 C32 1_555 1_555
H31 C32 1_555 1_555
C33 O12 1_555 1_555
C34 C33 1_555 1_555
C35 C34 1_555 1_555
H32 C35 1_555 1_555
C36 C35 1_555 1_555
H33 C36 1_555 1_555
C37 N2 1_555 1_555
C38 C37 1_555 1_555
H34 C38 1_555 1_555
C39 C34 1_555 1_555
H35 C39 1_555 1_555
C40 O10 1_555 1_555
H36 C40 1_555 1_555
H37 C40 1_555 1_555
C41 C40 1_555 1_555
C42 C41 1_555 1_555
H38 C42 1_555 1_555
C43 C42 1_555 1_555
H39 C43 1_555 1_555
C44 C43 1_555 1_555
H40 C44 1_555 1_555
C45 C44 1_555 1_555
H41 C45 1_555 1_555
C46 C41 1_555 1_555
H42 C46 1_555 1_555
C47 C27 1_555 1_555
H43 C47 1_555 1_555
H44 C47 1_555 1_555
H45 C47 1_555 1_555
C48 C27 1_555 1_555
H46 C48 1_555 1_555
H47 C48 1_555 1_555
H48 C48 1_555 1_555
C2 C4 1_555 1_555
C12 C13 1_555 1_555
C14 C15 1_555 1_555
C21 C22 1_555 1_555
C26 C28 1_555 1_555
C36 C37 1_555 1_555
C38 C39 1_555 1_555
C45 C46 1_555 1_555

#END
