
#######################################################################
#
#                 Cambridge Crystallographic Data Centre
#                                CCDC 
#
#######################################################################
#
# If this CIF has been generated from an entry in the Cambridge 
# Structural Database, then it will include bibliographic, chemical, 
# crystal, experimental, refinement or atomic coordinate data resulting 
# from the CCDC's data processing and validation procedures.
#
#######################################################################

data_MUWGAN
_chemical_formula_moiety         'C19 H19 F1 O3'
_chemical_name_systematic        
anti-4-(1-Fluoro-3-(6-methoxy-2-naphthyl)prop-2-yn-1-yl)-2,2-dimethyl-1,3-dioxolane
_symmetry_cell_setting           monoclinic
_symmetry_space_group_name_H-M   'P 21'
_symmetry_Int_Tables_number      4
_space_group_name_Hall           'P 2yb'
loop_
_symmetry_equiv_pos_site_id
_symmetry_equiv_pos_as_xyz
1 x,y,z
2 -x,1/2+y,-z
_cell_length_a                   7.560(3)
_cell_length_b                   6.076(2)
_cell_length_c                   18.135(6)
_cell_angle_alpha                90
_cell_angle_beta                 96.640(7)
_cell_angle_gamma                90
_cell_volume                     827.436
_exptl_crystal_colour            colorless
_exptl_crystal_description       prismatic
_cell_formula_units_Z            2
loop_
_atom_site_label
_atom_site_type_symbol
_atom_site_fract_x
_atom_site_fract_y
_atom_site_fract_z
F1 F 0.2724(4) 0.7816(7) 0.63524(14)
O1 O 0.6919(5) 0.5031(7) 0.66510(17)
O2 O 0.5968(6) 0.2725(8) 0.5722(2)
O3 O 0.8801(4) 1.0753(5) 1.20652(17)
C1 C 0.7520(8) 0.3771(10) 0.6061(3)
C2 C 0.4489(8) 0.4007(10) 0.5825(3)
H1 H 0.3452 0.3094 0.5866
H2 H 0.4220 0.5035 0.5418
C3 C 0.5054(7) 0.5218(9) 0.6550(2)
H3 H 0.4547 0.4486 0.6960
C4 C 0.4571(6) 0.7627(10) 0.6535(2)
H4 H 0.5169 0.8360 0.6151
C5 C 0.5116(6) 0.8695(9) 0.7252(3)
C6 C 0.5706(6) 0.9299(9) 0.7840(3)
C7 C 0.6456(6) 0.9965(9) 0.8575(3)
C8 C 0.6331(5) 0.8535(8) 0.9158(3)
H5 H 0.5795 0.7171 0.9064
C9 C 0.6993(5) 0.9091(8) 0.9885(3)
C10 C 0.6835(5) 0.7713(8) 1.0493(3)
H6 H 0.6305 0.6340 1.0412
C11 C 0.7430(6) 0.8325(8) 1.1191(3)
H7 H 0.7276 0.7392 1.1585
C12 C 0.8288(5) 1.0379(9) 1.1330(3)
C13 C 0.8482(5) 1.1755(7) 1.0765(3)
H8 H 0.9032 1.3112 1.0858
C14 C 0.7850(5) 1.1138(8) 1.0027(2)
C15 C 0.8012(5) 1.2551(9) 0.9415(3)
H9 H 0.8601 1.3889 0.9496
C16 C 0.7324(6) 1.1996(8) 0.8709(3)
H10 H 0.7431 1.2960 0.8318
C17 C 0.8333(9) 0.5261(14) 0.5561(3)
H11 H 0.9338 0.5985 0.5829
H12 H 0.7474 0.6342 0.5368
H13 H 0.8718 0.4433 0.5158
C18 C 0.8742(8) 0.2023(10) 0.6396(3)
H14 H 0.8135 0.1144 0.6728
H15 H 0.9770 0.2693 0.6667
H16 H 0.9109 0.1107 0.6010
C19 C 0.9674(6) 1.2749(11) 1.2261(2)
H17 H 0.8865 1.3952 1.2147
H18 H 1.0680 1.2910 1.1987
H19 H 1.0072 1.2748 1.2783
loop_
_geom_bond_atom_site_label_1
_geom_bond_atom_site_label_2
_geom_bond_site_symmetry_1
_geom_bond_site_symmetry_2
F1 C4 1_555 1_555
O1 C1 1_555 1_555
O2 C1 1_555 1_555
O3 C12 1_555 1_555
C1 C17 1_555 1_555
C2 O2 1_555 1_555
H1 C2 1_555 1_555
H2 C2 1_555 1_555
C3 O1 1_555 1_555
H3 C3 1_555 1_555
C4 C3 1_555 1_555
H4 C4 1_555 1_555
C5 C4 1_555 1_555
C6 C5 1_555 1_555
C7 C6 1_555 1_555
C8 C7 1_555 1_555
H5 C8 1_555 1_555
C9 C8 1_555 1_555
C10 C9 1_555 1_555
H6 C10 1_555 1_555
C11 C10 1_555 1_555
H7 C11 1_555 1_555
C12 C11 1_555 1_555
C13 C12 1_555 1_555
H8 C13 1_555 1_555
C14 C9 1_555 1_555
C15 C14 1_555 1_555
H9 C15 1_555 1_555
C16 C7 1_555 1_555
H10 C16 1_555 1_555
C17 H11 1_555 1_555
H12 C17 1_555 1_555
H13 C17 1_555 1_555
C18 C1 1_555 1_555
H14 C18 1_555 1_555
H15 C18 1_555 1_555
H16 C18 1_555 1_555
C19 O3 1_555 1_555
H17 C19 1_555 1_555
H18 C19 1_555 1_555
H19 C19 1_555 1_555
C2 C3 1_555 1_555
C13 C14 1_555 1_555
C15 C16 1_555 1_555

#END
