
#######################################################################
#
#                 Cambridge Crystallographic Data Centre
#                                CCDC 
#
#######################################################################
#
# If this CIF has been generated from an entry in the Cambridge 
# Structural Database, then it will include bibliographic, chemical, 
# crystal, experimental, refinement or atomic coordinate data resulting 
# from the CCDC's data processing and validation procedures.
#
#######################################################################

data_MUWHOC
_chemical_formula_moiety         'C31 H18 Br2 N4'
_chemical_name_systematic        
11,11-bis(5-bromo-1H-indol-3-yl)-11H-indeno[1,2-b]quinoxaline
_symmetry_cell_setting           monoclinic
_symmetry_space_group_name_H-M   'C 2/c'
_symmetry_Int_Tables_number      15
_space_group_name_Hall           '-C 2yn'
loop_
_symmetry_equiv_pos_site_id
_symmetry_equiv_pos_as_xyz
1 x,y,z
2 -x,y,1/2-z
3 1/2+x,1/2+y,z
4 1/2-x,1/2+y,1/2-z
5 -x,-y,-z
6 x,-y,1/2+z
7 1/2-x,1/2-y,-z
8 1/2+x,1/2-y,1/2+z
_cell_length_a                   21.996(5)
_cell_length_b                   19.218(4)
_cell_length_c                   14.002(3)
_cell_angle_alpha                90
_cell_angle_beta                 121.19(3)
_cell_angle_gamma                90
_cell_volume                     5063.36
_exptl_crystal_colour            yellow
_exptl_crystal_description       block
_chemical_melting_point          274-276deg.C
_cell_formula_units_Z            8
loop_
_atom_site_label
_atom_site_type_symbol
_atom_site_fract_x
_atom_site_fract_y
_atom_site_fract_z
Br1 Br 0.10056(3) 0.12067(3) -0.23096(3)
Br2 Br 0.298595(19) 0.515649(17) 0.34868(3)
C1 C 0.07601(12) 0.30307(13) 0.0801(2)
N1 N 0.09692(11) 0.36167(11) 0.06084(18)
C2 C 0.04424(14) 0.40069(14) -0.0243(2)
C3 C 0.06217(16) 0.46600(16) -0.0474(2)
C4 C 0.01008(18) 0.50842(17) -0.1263(3)
C5 C -0.06054(18) 0.48671(17) -0.1852(3)
C6 C -0.07925(16) 0.42259(16) -0.1661(2)
C7 C -0.02716(14) 0.37778(14) -0.0853(2)
N2 N -0.04673(11) 0.31331(12) -0.06629(19)
C8 C 0.00476(12) 0.27731(13) 0.0139(2)
C9 C 0.00317(13) 0.20705(14) 0.0526(2)
C10 C -0.05113(16) 0.15777(16) 0.0110(3)
C11 C -0.03694(19) 0.09328(18) 0.0622(3)
C12 C 0.0297(2) 0.07799(17) 0.1523(3)
C13 C 0.08427(17) 0.12684(16) 0.1943(3)
C14 C 0.07041(13) 0.19146(14) 0.1441(2)
C15 C 0.12186(12) 0.25259(13) 0.1754(2)
C16 C 0.18906(12) 0.23165(13) 0.1776(2)
C17 C 0.25700(14) 0.23877(15) 0.2648(2)
N3 N 0.30345(13) 0.21487(13) 0.2349(2)
C18 C 0.26612(14) 0.19132(13) 0.1275(2)
C19 C 0.28941(17) 0.16252(15) 0.0612(3)
C20 C 0.23955(18) 0.14212(16) -0.0448(3)
C21 C 0.16762(17) 0.15061(15) -0.0828(2)
C22 C 0.14257(15) 0.17940(14) -0.0198(2)
C23 C 0.19266(13) 0.20068(12) 0.0883(2)
C24 C 0.13694(13) 0.28573(14) 0.2844(2)
C25 C 0.11101(15) 0.26372(17) 0.3489(2)
N4 N 0.13504(14) 0.30572(15) 0.4404(2)
C26 C 0.17681(15) 0.35714(16) 0.4366(2)
C27 C 0.21323(18) 0.41124(18) 0.5105(3)
C28 C 0.25023(19) 0.45699(18) 0.4843(3)
C29 C 0.25085(15) 0.44808(15) 0.3859(3)
C30 C 0.21712(14) 0.39388(14) 0.3133(2)
C31 C 0.17879(13) 0.34668(14) 0.3384(2)
H1 H 0.114(2) 0.4791(18) -0.002(3)
H2 H -0.095(2) 0.519(2) -0.231(4)
H3 H 0.0224(18) 0.5513(19) -0.144(3)
H4 H -0.1301(18) 0.4081(17) -0.213(3)
H5 H -0.0948(19) 0.1677(19) -0.051(3)
H6 H -0.072(2) 0.0629(19) 0.038(3)
H7 H 0.038(2) 0.036(3) 0.189(4)
H8 H 0.1309(19) 0.1196(17) 0.260(3)
H9 H 0.2743(16) 0.2555(16) 0.337(3)
H10 H 0.3471(18) 0.2168(16) 0.280(3)
H11 H 0.3345(19) 0.1534(17) 0.086(3)
H12 H 0.253(2) 0.125(2) -0.099(3)
H13 H 0.0917(15) 0.1832(14) -0.049(2)
H14 H 0.0801(18) 0.2211(18) 0.337(3)
H15 H 0.1224(17) 0.3032(17) 0.483(3)
H16 H 0.2178(19) 0.4181(19) 0.583(3)
H17 H 0.278(2) 0.490(2) 0.533(3)
H18 H 0.2174(18) 0.3883(17) 0.243(3)
loop_
_geom_bond_atom_site_label_1
_geom_bond_atom_site_label_2
_geom_bond_site_symmetry_1
_geom_bond_site_symmetry_2
Br1 C21 1_555 1_555
Br2 C29 1_555 1_555
C1 N1 1_555 1_555
N1 C2 1_555 1_555
C2 C3 1_555 1_555
C3 C4 1_555 1_555
C4 C5 1_555 1_555
C5 C6 1_555 1_555
C6 C7 1_555 1_555
C7 C2 1_555 1_555
N2 C7 1_555 1_555
C8 C1 1_555 1_555
C9 C8 1_555 1_555
C10 C9 1_555 1_555
C11 C10 1_555 1_555
C12 C11 1_555 1_555
C13 C12 1_555 1_555
C14 C9 1_555 1_555
C15 C1 1_555 1_555
C16 C15 1_555 1_555
C17 C16 1_555 1_555
N3 C17 1_555 1_555
C18 N3 1_555 1_555
C19 C18 1_555 1_555
C20 C19 1_555 1_555
C21 C20 1_555 1_555
C22 C21 1_555 1_555
C23 C16 1_555 1_555
C24 C15 1_555 1_555
C25 C24 1_555 1_555
N4 C25 1_555 1_555
C26 N4 1_555 1_555
C27 C26 1_555 1_555
C28 C27 1_555 1_555
C29 C28 1_555 1_555
C30 C29 1_555 1_555
C31 C24 1_555 1_555
H1 C3 1_555 1_555
H2 C5 1_555 1_555
H3 C4 1_555 1_555
H4 C6 1_555 1_555
H5 C10 1_555 1_555
H6 C11 1_555 1_555
H7 C12 1_555 1_555
H8 C13 1_555 1_555
H9 C17 1_555 1_555
H10 N3 1_555 1_555
H11 C19 1_555 1_555
H12 C20 1_555 1_555
H13 C22 1_555 1_555
H14 C25 1_555 1_555
H15 N4 1_555 1_555
H16 C27 1_555 1_555
H17 C28 1_555 1_555
H18 C30 1_555 1_555
N2 C8 1_555 1_555
C13 C14 1_555 1_555
C14 C15 1_555 1_555
C18 C23 1_555 1_555
C22 C23 1_555 1_555
C26 C31 1_555 1_555
C30 C31 1_555 1_555

#END
