
#######################################################################
#
#                 Cambridge Crystallographic Data Centre
#                                CCDC 
#
#######################################################################
#
# If this CIF has been generated from an entry in the Cambridge 
# Structural Database, then it will include bibliographic, chemical, 
# crystal, experimental, refinement or atomic coordinate data resulting 
# from the CCDC's data processing and validation procedures.
#
#######################################################################

data_MUWJAQ
_chemical_formula_moiety         'C27 H20 N2 O4'
_chemical_name_systematic        
2,2-bis(5-methoxy-1H-indol-3-yl)-1H-indene-1,3(2H)-dione
_symmetry_cell_setting           triclinic
_symmetry_space_group_name_H-M   'P -1'
_symmetry_Int_Tables_number      2
_space_group_name_Hall           '-P 1'
loop_
_symmetry_equiv_pos_site_id
_symmetry_equiv_pos_as_xyz
1 x,y,z
2 -x,-y,-z
_cell_length_a                   10.4755(11)
_cell_length_b                   11.2253(11)
_cell_length_c                   11.3541(19)
_cell_angle_alpha                115.209(8)
_cell_angle_beta                 107.583(8)
_cell_angle_gamma                102.220(6)
_cell_volume                     1058.1
_exptl_crystal_colour            yellowish
_exptl_crystal_description       rectangular
_chemical_melting_point          114-116deg.C
_cell_formula_units_Z            2
loop_
_atom_site_label
_atom_site_type_symbol
_atom_site_fract_x
_atom_site_fract_y
_atom_site_fract_z
C1 C 0.8766(3) 0.6032(3) 0.3690(3)
C2 C 0.6603(2) 0.3031(3) 0.3975(3)
H1 H 0.6921 0.4001 0.4297
C3 C 0.7668(2) 0.3525(2) 0.1700(2)
C4 C 0.7352(3) 0.5777(3) 0.2839(3)
C5 C 0.6640(2) 0.2045(3) 0.2716(3)
C6 C 0.7109(2) 0.2176(3) 0.1705(3)
C7 C 1.0143(3) 0.2377(2) 0.0876(3)
H2 H 1.0127 0.2321 0.1666
C8 C 0.6162(3) 0.0593(3) 0.2265(3)
C9 C 0.9707(3) 0.7380(3) 0.4886(3)
H3 H 1.0652 0.7551 0.5460
C10 C 0.6586(3) 0.4256(3) 0.1672(3)
C11 C 0.6081(3) 0.2519(3) 0.4719(3)
C12 C 0.9168(3) 0.2815(2) 0.0191(3)
C13 C 0.9024(3) 0.4707(3) 0.3114(3)
C14 C 0.6865(3) 0.6874(3) 0.3163(3)
H4 H 0.5921 0.6710 0.2592
C15 C 0.8061(3) 0.3297(3) 0.0453(3)
C16 C 0.9193(3) 0.2843(3) -0.1020(3)
C17 C 0.5603(3) 0.0098(3) 0.3012(4)
H5 H 0.5255 -0.0872 0.2687
C18 C 0.5577(3) 0.1075(3) 0.4235(3)
H6 H 0.5214 0.0762 0.4751
C19 C 0.9205(4) 0.8455(3) 0.5197(3)
H7 H 0.9818 0.9368 0.6000
C20 C 1.0168(4) 0.2469(3) -0.1551(3)
H8 H 1.0160 0.2478 -0.2368
C21 C 1.1140(3) 0.2086(3) -0.0835(3)
H9 H 1.1824 0.1859 -0.1154
C22 C 1.1128(3) 0.2029(3) 0.0366(3)
C23 C 0.6912(3) 0.0832(3) 0.0726(3)
H10 H 0.7126 0.0602 -0.0061
C24 C 0.7482(3) 0.3593(3) -0.0589(3)
H11 H 0.6743 0.3932 -0.0676
C25 C 1.2156(3) 0.1448(3) 0.2132(3)
H12 H 1.2226 0.2312 0.2904
H13 H 1.2963 0.1218 0.2490
H14 H 1.1260 0.0678 0.1778
C26 C 0.7800(4) 0.8210(3) 0.4341(4)
H15 H 0.7489 0.8961 0.4569
C27 C 0.6392(3) 0.4813(3) 0.6525(3)
H16 H 0.7371 0.5248 0.6688
H17 H 0.6321 0.5261 0.7422
H18 H 0.5735 0.4935 0.5827
O1 O 1.01342(19) 0.45634(17) 0.36352(17)
O2 O 0.5294(2) 0.36593(19) 0.0822(2)
O3 O 0.6030(2) 0.3366(2) 0.6002(2)
O4 O 1.2184(2) 0.16484(19) 0.0983(2)
N1 N 0.6362(2) -0.0119(2) 0.1058(3)
H19 H 0.6170 -0.1022 0.0588
N2 N 0.8141(3) 0.3322(2) -0.1474(2)
H20 H 0.7938 0.3430 -0.2205
loop_
_geom_bond_atom_site_label_1
_geom_bond_atom_site_label_2
_geom_bond_site_symmetry_1
_geom_bond_site_symmetry_2
C1 C4 1_555 1_555
C2 H1 1_555 1_555
C3 C6 1_555 1_555
C4 C10 1_555 1_555
C5 C2 1_555 1_555
C6 C5 1_555 1_555
C7 H2 1_555 1_555
C8 C5 1_555 1_555
C9 C1 1_555 1_555
H3 C9 1_555 1_555
C10 C3 1_555 1_555
C11 C2 1_555 1_555
C12 C7 1_555 1_555
C13 C1 1_555 1_555
C14 C4 1_555 1_555
H4 C14 1_555 1_555
C15 C3 1_555 1_555
C16 C12 1_555 1_555
C17 C8 1_555 1_555
H5 C17 1_555 1_555
C18 C11 1_555 1_555
H6 C18 1_555 1_555
C19 C9 1_555 1_555
H7 C19 1_555 1_555
C20 C16 1_555 1_555
H8 C20 1_555 1_555
C21 C20 1_555 1_555
H9 C21 1_555 1_555
C22 C7 1_555 1_555
C23 C6 1_555 1_555
H10 C23 1_555 1_555
C24 C15 1_555 1_555
H11 C24 1_555 1_555
C25 H12 1_555 1_555
H13 C25 1_555 1_555
H14 C25 1_555 1_555
C26 C14 1_555 1_555
H15 C26 1_555 1_555
C27 H16 1_555 1_555
H17 C27 1_555 1_555
H18 C27 1_555 1_555
O1 C13 1_555 1_555
O2 C10 1_555 1_555
O3 C11 1_555 1_555
O4 C22 1_555 1_555
N1 C8 1_555 1_555
H19 N1 1_555 1_555
N2 C16 1_555 1_555
H20 N2 1_555 1_555
C3 C13 1_555 1_555
C12 C15 1_555 1_555
C17 C18 1_555 1_555
C19 C26 1_555 1_555
C21 C22 1_555 1_555
C23 N1 1_555 1_555
C24 N2 1_555 1_555
C25 O4 1_555 1_555
C27 O3 1_555 1_555

#END
