
#######################################################################
#
#                 Cambridge Crystallographic Data Centre
#                                CCDC 
#
#######################################################################
#
# If this CIF has been generated from an entry in the Cambridge 
# Structural Database, then it will include bibliographic, chemical, 
# crystal, experimental, refinement or atomic coordinate data resulting 
# from the CCDC's data processing and validation procedures.
#
#######################################################################

data_MUWZOV
_chemical_formula_moiety         'C18 H24 N2 O2'
_chemical_name_systematic        
(Z)-1-(1,1-dimethylhexahydro-1H,6H-cyclopenta[c]pyrrolo[1,2-b][1,2]oxazol-3-yl)-N-hydroxy-1-phenylmethanimine
_symmetry_cell_setting           monoclinic
_symmetry_space_group_name_H-M   'P 21/c'
_symmetry_Int_Tables_number      14
_space_group_name_Hall           '-P 2ybc'
loop_
_symmetry_equiv_pos_site_id
_symmetry_equiv_pos_as_xyz
1 x,y,z
2 -x,1/2+y,1/2-z
3 -x,-y,-z
4 x,1/2-y,1/2+z
_cell_length_a                   13.2223(3)
_cell_length_b                   8.06237(16)
_cell_length_c                   16.5867(4)
_cell_angle_alpha                90
_cell_angle_beta                 109.428(2)
_cell_angle_gamma                90
_cell_volume                     1667.51
_exptl_crystal_colour            'light yellow'
_exptl_crystal_description       block
_cell_formula_units_Z            4
loop_
_atom_site_label
_atom_site_type_symbol
_atom_site_fract_x
_atom_site_fract_y
_atom_site_fract_z
O1 O 0.30439(8) 0.81010(14) 0.28330(7)
O2 O -0.00414(8) 0.60843(15) 0.08305(7)
H1 H -0.0412(17) 0.595(3) 0.0298(16)
N1 N 0.26146(8) 0.65111(14) 0.29403(7)
N2 N 0.08194(9) 0.50173(16) 0.08656(7)
C1 C 0.24545(11) 0.65958(18) 0.37813(8)
C2 C 0.35110(13) 0.6238(3) 0.45134(10)
H2 H 0.3377 0.5553 0.4948
H3 H 0.4013 0.5666 0.4297
C3 C 0.39589(18) 0.7915(4) 0.48835(13)
H4 H 0.4402 0.7816 0.5479
H5 H 0.4380 0.8406 0.4565
C4 C 0.2961(2) 0.8930(3) 0.47882(15)
H6 H 0.3119 1.0108 0.4829
H7 H 0.2646 0.8632 0.5220
C5 C 0.22190(14) 0.8468(2) 0.38943(11)
H8 H 0.1464 0.8644 0.3835
C6 C 0.25027(16) 0.9312(2) 0.31828(13)
H9 H 0.1859 0.9702 0.2744
H10 H 0.2968 1.0255 0.3405
C7 C 0.15367(11) 0.53449(19) 0.36749(9)
C8 C 0.08001(11) 0.5710(2) 0.27608(9)
H11 H 0.0286 0.6569 0.2760
H12 H 0.0412 0.4720 0.2499
C9 C 0.15479(10) 0.62926(17) 0.22759(8)
H13 H 0.1298 0.7376 0.2019
C10 C 0.15900(10) 0.51192(17) 0.15762(8)
C11 C 0.24957(10) 0.39764(19) 0.16440(8)
C12 C 0.22934(13) 0.2305(2) 0.14562(10)
H14 H 0.1598 0.1900 0.1316
C13 C 0.31230(18) 0.1239(2) 0.14766(12)
H15 H 0.2987 0.0116 0.1364
C14 C 0.41545(16) 0.1847(3) 0.16651(12)
H16 H 0.4709 0.1135 0.1667
C15 C 0.43617(13) 0.3495(3) 0.18493(12)
H17 H 0.5056 0.3898 0.1976
C16 C 0.35425(11) 0.4561(2) 0.18472(10)
H18 H 0.3691 0.5674 0.1982
C17 C 0.09540(15) 0.5563(3) 0.43280(12)
H19 H 0.0646 0.6653 0.4272
H20 H 0.1455 0.5425 0.4895
H21 H 0.0396 0.4748 0.4226
C18 C 0.19558(16) 0.3566(2) 0.37268(14)
H22 H 0.1362 0.2809 0.3557
H23 H 0.2399 0.3327 0.4303
H24 H 0.2370 0.3444 0.3352
loop_
_geom_bond_atom_site_label_1
_geom_bond_atom_site_label_2
_geom_bond_site_symmetry_1
_geom_bond_site_symmetry_2
O1 N1 1_555 1_555
O2 H1 1_555 1_555
N1 C1 1_555 1_555
N2 O2 1_555 1_555
C1 C2 1_555 1_555
C2 H2 1_555 1_555
H3 C2 1_555 1_555
C3 C2 1_555 1_555
H4 C3 1_555 1_555
H5 C3 1_555 1_555
C4 C3 1_555 1_555
H6 C4 1_555 1_555
H7 C4 1_555 1_555
C5 C1 1_555 1_555
H8 C5 1_555 1_555
C6 O1 1_555 1_555
H9 C6 1_555 1_555
H10 C6 1_555 1_555
C7 C1 1_555 1_555
C8 C7 1_555 1_555
H11 C8 1_555 1_555
H12 C8 1_555 1_555
C9 N1 1_555 1_555
H13 C9 1_555 1_555
C10 N2 1_555 1_555
C11 C10 1_555 1_555
C12 C11 1_555 1_555
H14 C12 1_555 1_555
C13 C12 1_555 1_555
H15 C13 1_555 1_555
C14 C13 1_555 1_555
H16 C14 1_555 1_555
C15 C14 1_555 1_555
H17 C15 1_555 1_555
C16 C11 1_555 1_555
H18 C16 1_555 1_555
C17 C7 1_555 1_555
H19 C17 1_555 1_555
H20 C17 1_555 1_555
H21 C17 1_555 1_555
C18 C7 1_555 1_555
H22 C18 1_555 1_555
H23 C18 1_555 1_555
H24 C18 1_555 1_555
C4 C5 1_555 1_555
C5 C6 1_555 1_555
C8 C9 1_555 1_555
C9 C10 1_555 1_555
C15 C16 1_555 1_555

#END
