
#######################################################################
#
#                 Cambridge Crystallographic Data Centre
#                                CCDC 
#
#######################################################################
#
# If this CIF has been generated from an entry in the Cambridge 
# Structural Database, then it will include bibliographic, chemical, 
# crystal, experimental, refinement or atomic coordinate data resulting 
# from the CCDC's data processing and validation procedures.
#
#######################################################################

data_MUWZUB
_chemical_formula_moiety         'C18 H24 N2 O2'
_chemical_name_systematic        
(E)-1-(1,1-dimethylhexahydro-1H,6H-cyclopenta[c]pyrrolo[1,2-b][1,2]oxazol-3-yl)-N-hydroxy-1-phenylmethanimine
_symmetry_cell_setting           triclinic
_symmetry_space_group_name_H-M   'P -1'
_symmetry_Int_Tables_number      2
_space_group_name_Hall           '-P 1'
loop_
_symmetry_equiv_pos_site_id
_symmetry_equiv_pos_as_xyz
1 x,y,z
2 -x,-y,-z
_cell_length_a                   6.4874(10)
_cell_length_b                   11.048(2)
_cell_length_c                   12.397(3)
_cell_angle_alpha                69.31(2)
_cell_angle_beta                 77.922(17)
_cell_angle_gamma                88.901(14)
_cell_volume                     811.366
_exptl_crystal_colour            colorless
_exptl_crystal_description       block
_cell_formula_units_Z            2
loop_
_atom_site_label
_atom_site_type_symbol
_atom_site_fract_x
_atom_site_fract_y
_atom_site_fract_z
O1 O 1.1129(3) 0.48107(18) 0.35741(15)
H1 H 1.1772 0.5279 0.3795
O2 O 0.4520(3) 0.39119(16) 0.64984(15)
C1 C 0.2832(5) 0.1461(4) 0.8946(2)
H2 H 0.1571 0.1838 0.9236
H3 H 0.2709 0.0532 0.9371
C2 C 0.6538(4) 0.3864(3) 0.2378(2)
H4 H 0.5292 0.4111 0.2750
C3 C 0.4793(5) 0.2068(3) 0.9077(3)
H5 H 0.4994 0.1705 0.9881
H6 H 0.4729 0.3001 0.8852
C4 C 0.5430(5) -0.0524(2) 0.7165(3)
H7 H 0.3931 -0.0523 0.7225
H8 H 0.5719 -0.0856 0.7943
H9 H 0.6028 -0.1062 0.6733
C5 C 0.6702(5) 0.3795(3) 0.1263(3)
H10 H 0.5572 0.4005 0.0890
C6 C 1.0039(4) 0.3176(3) 0.2367(3)
H11 H 1.1177 0.2957 0.2733
N1 N 0.6153(3) 0.31007(18) 0.62124(16)
N2 N 0.9370(3) 0.4185(2) 0.44641(17)
C7 C 0.8228(4) 0.3566(2) 0.2937(2)
C8 C 0.6532(4) 0.1713(3) 0.8229(2)
H12 H 0.6945 0.0840 0.8601
H13 H 0.7763 0.2309 0.7986
C9 C 0.8521(6) 0.3419(3) 0.0717(3)
H14 H 0.8628 0.3375 -0.0027
C10 C 1.0181(5) 0.3108(4) 0.1264(3)
H15 H 1.1414 0.2849 0.0891
C11 C 0.5768(4) 0.1514(2) 0.5332(2)
H16 H 0.4304 0.1280 0.5391
H17 H 0.6652 0.1263 0.4721
C12 C 0.8814(4) 0.0816(3) 0.6334(3)
H18 H 0.9200 0.0462 0.7086
H19 H 0.9453 0.1677 0.5920
H20 H 0.9296 0.0281 0.5878
C13 C 0.8048(4) 0.3613(2) 0.4135(2)
C14 C 0.6406(4) 0.0861(2) 0.6521(2)
C15 C 0.3164(4) 0.1771(3) 0.7621(2)
H21 H 0.2432 0.1111 0.7453
C16 C 0.6090(4) 0.2977(2) 0.5061(2)
H22 H 0.4857 0.3405 0.4792
C17 C 0.5601(4) 0.1805(2) 0.7158(2)
C18 C 0.2587(4) 0.3120(3) 0.6939(2)
H23 H 0.1973 0.3112 0.6292
H24 H 0.1576 0.3446 0.7451
loop_
_geom_bond_atom_site_label_1
_geom_bond_atom_site_label_2
_geom_bond_site_symmetry_1
_geom_bond_site_symmetry_2
O1 H1 1_555 1_555
O2 N1 1_555 1_555
C1 H2 1_555 1_555
H3 C1 1_555 1_555
C2 H4 1_555 1_555
C3 C1 1_555 1_555
H5 C3 1_555 1_555
H6 C3 1_555 1_555
C4 H7 1_555 1_555
H8 C4 1_555 1_555
H9 C4 1_555 1_555
C5 C2 1_555 1_555
H10 C5 1_555 1_555
C6 H11 1_555 1_555
N1 C16 1_555 1_555
N2 O1 1_555 1_555
C7 C2 1_555 1_555
C8 C3 1_555 1_555
H12 C8 1_555 1_555
H13 C8 1_555 1_555
C9 C5 1_555 1_555
H14 C9 1_555 1_555
C10 C6 1_555 1_555
H15 C10 1_555 1_555
C11 H16 1_555 1_555
H17 C11 1_555 1_555
C12 H18 1_555 1_555
H19 C12 1_555 1_555
H20 C12 1_555 1_555
C13 N2 1_555 1_555
C14 C4 1_555 1_555
C15 C1 1_555 1_555
H21 C15 1_555 1_555
C16 C11 1_555 1_555
H22 C16 1_555 1_555
C17 N1 1_555 1_555
C18 O2 1_555 1_555
H23 C18 1_555 1_555
H24 C18 1_555 1_555
C6 C7 1_555 1_555
C7 C13 1_555 1_555
C8 C17 1_555 1_555
C9 C10 1_555 1_555
C11 C14 1_555 1_555
C12 C14 1_555 1_555
C13 C16 1_555 1_555
C14 C17 1_555 1_555
C15 C17 1_555 1_555
C15 C18 1_555 1_555

#END
