
#######################################################################
#
#                 Cambridge Crystallographic Data Centre
#                                CCDC 
#
#######################################################################
#
# If this CIF has been generated from an entry in the Cambridge 
# Structural Database, then it will include bibliographic, chemical, 
# crystal, experimental, refinement or atomic coordinate data resulting 
# from the CCDC's data processing and validation procedures.
#
#######################################################################

data_MUXBEO
_chemical_formula_moiety         'C14 H12 Br2 N2'
_chemical_name_systematic        bis(5-bromo-2-methylphenyl)diazene
_symmetry_cell_setting           monoclinic
_symmetry_space_group_name_H-M   'P 21/c'
_symmetry_Int_Tables_number      14
_space_group_name_Hall           '-P 2ybc'
loop_
_symmetry_equiv_pos_site_id
_symmetry_equiv_pos_as_xyz
1 x,y,z
2 -x,1/2+y,1/2-z
3 -x,-y,-z
4 x,1/2-y,1/2+z
_cell_length_a                   7.065(12)
_cell_length_b                   4.079(7)
_cell_length_c                   23.86(4)
_cell_angle_alpha                90
_cell_angle_beta                 90.13(2)
_cell_angle_gamma                90
_cell_volume                     687.599
_exptl_crystal_colour            yellow
_exptl_crystal_description       block
_cell_formula_units_Z            2
loop_
_atom_site_label
_atom_site_type_symbol
_atom_site_fract_x
_atom_site_fract_y
_atom_site_fract_z
N1 N 0.5639(5) 0.4180(9) 0.48897(14)
C1 C 0.3501(5) 0.3349(10) 0.34680(15)
C2 C 0.3680(5) 0.4248(10) 0.40203(16)
H1 H 0.2731 0.5449 0.4195
C3 C 0.5322(5) 0.3326(10) 0.43184(14)
C4 C 0.6773(5) 0.1556(10) 0.40525(16)
C5 C 0.6500(6) 0.0688(10) 0.34922(18)
H2 H 0.7431 -0.0531 0.3312
C6 C 0.4904(6) 0.1570(11) 0.31957(16)
H3 H 0.4768 0.0988 0.2821
C7 C 0.8547(6) 0.0539(11) 0.4366(2)
H4 H 0.9375 -0.0623 0.4117
H5 H 0.8210 -0.0859 0.4674
H6 H 0.9181 0.2454 0.4506
Br1 Br 0.13112(6) 0.46376(12) 0.305503(18)
N1B N 0.4361(5) 0.5820(9) 0.51103(14)
C1B C 0.6499(5) 0.6651(10) 0.65320(15)
C2B C 0.6320(5) 0.5752(10) 0.59797(16)
H1B H 0.7269 0.4551 0.5805
C3B C 0.4678(5) 0.6674(10) 0.56816(14)
C4B C 0.3227(5) 0.8444(10) 0.59475(16)
C5B C 0.3500(6) 0.9312(10) 0.65078(18)
H2B H 0.2569 1.0531 0.6688
C6B C 0.5096(6) 0.8430(11) 0.68043(16)
H3B H 0.5232 0.9012 0.7179
C7B C 0.1453(6) 0.9461(11) 0.5634(2)
H4B H 0.0625 1.0623 0.5883
H5B H 0.1790 1.0859 0.5326
H6B H 0.0819 0.7546 0.5494
Br1B Br 0.86888(6) 0.53624(12) 0.694497(18)
loop_
_geom_bond_atom_site_label_1
_geom_bond_atom_site_label_2
_geom_bond_site_symmetry_1
_geom_bond_site_symmetry_2
N1 C3 1_555 1_555
C1 C2 1_555 1_555
C2 H1 1_555 1_555
C3 C2 1_555 1_555
C4 C3 1_555 1_555
C5 C4 1_555 1_555
H2 C5 1_555 1_555
C6 C1 1_555 1_555
H3 C6 1_555 1_555
C7 C4 1_555 1_555
H4 C7 1_555 1_555
H5 C7 1_555 1_555
H6 C7 1_555 1_555
Br1 C1 1_555 1_555
N1B N1 1_555 1_555
C1B C2B 1_555 1_555
C2B H1B 1_555 1_555
C3B N1B 1_555 1_555
C4B C3B 1_555 1_555
C5B C4B 1_555 1_555
H2B C5B 1_555 1_555
C6B C1B 1_555 1_555
H3B C6B 1_555 1_555
C7B C4B 1_555 1_555
H4B C7B 1_555 1_555
H5B C7B 1_555 1_555
H6B C7B 1_555 1_555
Br1B C1B 1_555 1_555
C5 C6 1_555 1_555
C2B C3B 1_555 1_555
C5B C6B 1_555 1_555

#END
