
#######################################################################
#
#                 Cambridge Crystallographic Data Centre
#                                CCDC 
#
#######################################################################
#
# If this CIF has been generated from an entry in the Cambridge 
# Structural Database, then it will include bibliographic, chemical, 
# crystal, experimental, refinement or atomic coordinate data resulting 
# from the CCDC's data processing and validation procedures.
#
#######################################################################

data_MUXCIR01
_chemical_formula_moiety         'C20 H23 N2 O5'
_chemical_name_systematic        
1-Formyl-4,8-dimethoxy-5-(4,4,5,5-tetramethylimidazolin-2-yl-1-oxy-3-oxide)naphthalene
_symmetry_cell_setting           monoclinic
_symmetry_space_group_name_H-M   'P 21/n'
_symmetry_Int_Tables_number      14
_space_group_name_Hall           '-P 2yn'
loop_
_symmetry_equiv_pos_site_id
_symmetry_equiv_pos_as_xyz
1 x,y,z
2 1/2-x,1/2+y,1/2-z
3 -x,-y,-z
4 1/2+x,1/2-y,1/2+z
_cell_length_a                   6.4253(4)
_cell_length_b                   25.5003(17)
_cell_length_c                   11.5497(6)
_cell_angle_alpha                90
_cell_angle_beta                 95.000(3)
_cell_angle_gamma                90
_cell_volume                     1885.18
_exptl_crystal_colour            'dark red'
_exptl_crystal_description       plate
_chemical_melting_point          222-223deg.C
_cell_formula_units_Z            4
_exptl_crystal_recrystallization_method dichloromethane
loop_
_atom_site_label
_atom_site_type_symbol
_atom_site_fract_x
_atom_site_fract_y
_atom_site_fract_z
O1 O 0.6759(2) 0.15679(6) 0.38547(15)
O2 O 1.0721(3) 0.09467(7) 0.10141(16)
O3 O 1.2842(2) 0.33452(6) 0.28596(15)
O4 O 0.9134(4) 0.42467(8) 0.1390(3)
O5 O 0.6090(2) 0.18863(7) 0.09905(14)
N1 N 0.7510(2) 0.12562(6) 0.31265(15)
N2 N 0.9406(3) 0.09668(7) 0.17788(16)
C1 C 0.9899(3) 0.19063(7) 0.23473(17)
C2 C 1.1852(3) 0.19383(8) 0.29213(18)
H1 H 1.2492 0.1633 0.3213
C3 C 1.2909(3) 0.24114(8) 0.30820(18)
H2 H 1.4239 0.2419 0.3470
C4 C 1.1994(3) 0.28632(8) 0.26699(17)
C5 C 0.9037(4) 0.33253(9) 0.1521(2)
C6 C 0.7093(4) 0.32926(10) 0.0953(2)
H3 H 0.6451 0.3599 0.0670
C7 C 0.6031(3) 0.28240(11) 0.0778(2)
H4 H 0.4703 0.2819 0.0387
C8 C 0.6947(3) 0.23668(9) 0.11850(17)
C9 C 0.8937(3) 0.23698(8) 0.18482(16)
C10 C 1.0016(3) 0.28576(8) 0.20014(16)
C11 C 0.8888(3) 0.13890(8) 0.23677(17)
C12 C 0.8084(4) 0.05015(9) 0.2019(2)
C13 C 0.7161(3) 0.06747(8) 0.31581(19)
C14 C 1.4695(4) 0.33896(11) 0.3639(2)
H5 H 1.5121 0.3750 0.3694
H6 H 1.5790 0.3184 0.3351
H7 H 1.4416 0.3264 0.4394
C15 C 1.0058(6) 0.38426(11) 0.1487(3)
H8 H 1.1510 0.3853 0.1544
C16 C 0.4158(4) 0.18568(12) 0.0267(2)
H9 H 0.3713 0.1498 0.0198
H10 H 0.4358 0.1993 -0.0490
H11 H 0.3111 0.2060 0.0608
C17 C 0.6449(6) 0.04578(15) 0.0976(3)
H12 H 0.7115 0.0349 0.0303
H13 H 0.5797 0.0793 0.0828
H14 H 0.5409 0.0205 0.1141
C18 C 0.9447(5) 0.00131(10) 0.2111(3)
H15 H 1.0450 0.0043 0.2775
H16 H 1.0165 -0.0022 0.1421
H17 H 0.8588 -0.0290 0.2197
C19 C 0.8395(4) 0.04783(10) 0.4250(2)
H18 H 0.7747 0.0598 0.4920
H19 H 0.9797 0.0610 0.4277
H20 H 0.8421 0.0102 0.4244
C20 C 0.4849(3) 0.05617(9) 0.3218(3)
H21 H 0.4422 0.0684 0.3947
H22 H 0.4610 0.0191 0.3152
H23 H 0.4056 0.0739 0.2592
loop_
_geom_bond_atom_site_label_1
_geom_bond_atom_site_label_2
_geom_bond_site_symmetry_1
_geom_bond_site_symmetry_2
O1 N1 1_555 1_555
O2 N2 1_555 1_555
O3 C4 1_555 1_555
O4 C15 1_555 1_555
O5 C8 1_555 1_555
N1 C11 1_555 1_555
N2 C11 1_555 1_555
C1 C2 1_555 1_555
C2 H1 1_555 1_555
C3 C2 1_555 1_555
H2 C3 1_555 1_555
C4 C3 1_555 1_555
C5 C6 1_555 1_555
C6 H3 1_555 1_555
C7 C6 1_555 1_555
H4 C7 1_555 1_555
C8 C7 1_555 1_555
C9 C1 1_555 1_555
C10 C4 1_555 1_555
C11 C1 1_555 1_555
C12 N2 1_555 1_555
C13 N1 1_555 1_555
C14 O3 1_555 1_555
H5 C14 1_555 1_555
H6 C14 1_555 1_555
H7 C14 1_555 1_555
C15 C5 1_555 1_555
H8 C15 1_555 1_555
C16 O5 1_555 1_555
H9 C16 1_555 1_555
H10 C16 1_555 1_555
H11 C16 1_555 1_555
C17 C12 1_555 1_555
H12 C17 1_555 1_555
H13 C17 1_555 1_555
H14 C17 1_555 1_555
C18 C12 1_555 1_555
H15 C18 1_555 1_555
H16 C18 1_555 1_555
H17 C18 1_555 1_555
C19 C13 1_555 1_555
H18 C19 1_555 1_555
H19 C19 1_555 1_555
H20 C19 1_555 1_555
C20 C13 1_555 1_555
H21 C20 1_555 1_555
H22 C20 1_555 1_555
H23 C20 1_555 1_555
C5 C10 1_555 1_555
C8 C9 1_555 1_555
C9 C10 1_555 1_555
C12 C13 1_555 1_555

#END
