
#######################################################################
#
#                 Cambridge Crystallographic Data Centre
#                                CCDC 
#
#######################################################################
#
# If this CIF has been generated from an entry in the Cambridge 
# Structural Database, then it will include bibliographic, chemical, 
# crystal, experimental, refinement or atomic coordinate data resulting 
# from the CCDC's data processing and validation procedures.
#
#######################################################################

data_MUXLAU
_chemical_formula_moiety         'C9 H10 N2 S3'
_chemical_name_systematic        
1,2,4,5-tetrahydro-3H,6H,8H-7-thia-2a,5a-diazaacenaphthylene-6,8-dithione
_symmetry_cell_setting           orthorhombic
_symmetry_space_group_name_H-M   'P n m a'
_symmetry_Int_Tables_number      62
_space_group_name_Hall           '-P 2ac 2n'
loop_
_symmetry_equiv_pos_site_id
_symmetry_equiv_pos_as_xyz
1 x,y,z
2 1/2-x,-y,1/2+z
3 -x,1/2+y,-z
4 1/2+x,1/2-y,1/2-z
5 -x,-y,-z
6 1/2+x,y,1/2-z
7 x,1/2-y,z
8 1/2-x,1/2+y,1/2+z
_cell_length_a                   10.460(3)
_cell_length_b                   7.083(2)
_cell_length_c                   13.866(5)
_cell_angle_alpha                90
_cell_angle_beta                 90
_cell_angle_gamma                90
_cell_volume                     1027.31
_exptl_crystal_colour            orange
_exptl_crystal_description       needle
_cell_formula_units_Z            4
loop_
_atom_site_label
_atom_site_type_symbol
_atom_site_fract_x
_atom_site_fract_y
_atom_site_fract_z
S1 S 0.12433(7) 0.7500 0.75942(6)
S2 S -0.07025(6) 0.7500 0.61491(5)
S3 S -0.23498(8) 0.7500 0.44744(7)
N1 N 0.2389(2) 0.7500 0.40793(18)
N2 N 0.1817(2) 0.7500 0.57152(16)
C1 C 0.3753(4) 0.7500 0.4257(3)
H1 H 0.405(3) 0.6379(7) 0.410(2)
C2 C 0.4042(4) 0.6888(6) 0.5219(4)
H2 H 0.495(4) 0.7500 0.543(2)
H3 H 0.388(4) 0.552(8) 0.514(3)
C3 C 0.3185(3) 0.7500 0.6000(3)
H4 H 0.331(2) 0.845(3) 0.6398(17)
C4 C 0.1498(3) 0.7500 0.4757(2)
C5 C 0.0261(3) 0.7500 0.43602(19)
C6 C 0.0396(3) 0.7500 0.3279(2)
H5 H -0.002(2) 0.864(3) 0.3006(16)
C7 C 0.1838(4) 0.7500 0.3111(3)
H6 H 0.216(2) 0.865(4) 0.2790(18)
C8 C 0.0908(2) 0.7500 0.6430(2)
C9 C -0.0836(3) 0.7500 0.4889(2)
H1F H 0.405(3) 0.8621(7) 0.410(2)
C2F C 0.4042(4) 0.8112(6) 0.5219(4)
H3F H 0.388(4) 0.948(8) 0.514(3)
H4F H 0.331(2) 0.655(3) 0.6398(17)
H5F H -0.002(2) 0.636(3) 0.3006(16)
H6F H 0.216(2) 0.635(4) 0.2790(18)
loop_
_geom_bond_atom_site_label_1
_geom_bond_atom_site_label_2
_geom_bond_site_symmetry_1
_geom_bond_site_symmetry_2
S1 C8 1_555 1_555
S2 C8 1_555 1_555
S3 C9 1_555 1_555
N1 C1 1_555 1_555
N2 C3 1_555 1_555
C1 H1 1_555 1_555
C2 C1 1_555 1_555
H2 C2 1_555 1_555
H3 C2 1_555 1_555
C3 C2 1_555 1_555
H4 C3 1_555 1_555
C4 N1 1_555 1_555
C5 C4 1_555 1_555
C6 C5 1_555 1_555
H5 C6 1_555 1_555
C7 N1 1_555 1_555
H6 C7 1_555 1_555
C8 N2 1_555 1_555
C9 S2 1_555 1_555
H1F C1 1_555 1_555
C2F C1 1_555 1_555
H3F C2F 1_555 1_555
H4F C3 1_555 1_555
H5F C6 1_555 1_555
H6F C7 1_555 1_555
N2 C4 1_555 1_555
H2 C2F 1_555 1_555
C3 C2F 1_555 1_555
C5 C9 1_555 1_555
C6 C7 1_555 1_555

#END
