
#######################################################################
#
#                 Cambridge Crystallographic Data Centre
#                                CCDC 
#
#######################################################################
#
# If this CIF has been generated from an entry in the Cambridge 
# Structural Database, then it will include bibliographic, chemical, 
# crystal, experimental, refinement or atomic coordinate data resulting 
# from the CCDC's data processing and validation procedures.
#
#######################################################################

data_MUXPUQ
_chemical_name_common            'Trigonellinium perchlorate'
_chemical_formula_moiety         'Cl1 O4 1-,C7 H8 N1 O2 1+'
_chemical_name_systematic        'N-methyl-3-carboxy-pyridinium perchlorate'
_symmetry_cell_setting           monoclinic
_symmetry_space_group_name_H-M   'P 21/n'
_symmetry_Int_Tables_number      14
_space_group_name_Hall           '-P 2yn'
loop_
_symmetry_equiv_pos_site_id
_symmetry_equiv_pos_as_xyz
1 x,y,z
2 1/2+x,1/2-y,1/2+z
3 -x,-y,-z
4 1/2-x,1/2+y,1/2-z
_cell_length_a                   5.2850(10)
_cell_length_b                   14.662(3)
_cell_length_c                   12.494(2)
_cell_angle_alpha                90
_cell_angle_beta                 95.96(3)
_cell_angle_gamma                90
_cell_volume                     962.91
_cell_formula_units_Z            4
loop_
_atom_site_label
_atom_site_type_symbol
_atom_site_fract_x
_atom_site_fract_y
_atom_site_fract_z
Cl1 Cl -0.0114(5) 0.64363(18) 0.6820(2)
O3 O 0.1120(13) 0.7295(5) 0.6776(6)
O4 O 0.0556(14) 0.5861(6) 0.5947(7)
O5 O -0.2797(11) 0.6546(5) 0.6709(6)
O6 O 0.0668(16) 0.6025(5) 0.7831(6)
N1 N -0.2061(16) 0.3023(5) 0.6264(6)
C1 C -0.0672(18) 0.2242(6) 0.5821(8)
H1 H -0.1501 0.2075 0.5129
H2 H -0.0674 0.1731 0.6302
H3 H 0.1050 0.2420 0.5749
C2 C -0.1259(17) 0.3367(6) 0.7229(8)
H4 H 0.0167 0.3118 0.7622
C3 C -0.2461(18) 0.4060(6) 0.7639(8)
C4 C -0.155(2) 0.4431(7) 0.8742(9)
O1 O 0.0708(13) 0.4208(5) 0.9108(5)
H5 H 0.1587 0.4534 0.9759
O2 O -0.2993(13) 0.4942(5) 0.9202(6)
C5 C -0.4682(17) 0.4438(6) 0.7060(8)
H6 H -0.5605 0.4900 0.7350
C6 C -0.5398(16) 0.4090(7) 0.6055(8)
H7 H -0.6771 0.4342 0.5630
C7 C -0.4071(16) 0.3358(7) 0.5668(7)
H8 H -0.4592 0.3107 0.4998
loop_
_geom_bond_atom_site_label_1
_geom_bond_atom_site_label_2
_geom_bond_site_symmetry_1
_geom_bond_site_symmetry_2
Cl1 O3 1_555 1_555
N1 C1 1_555 1_555
C1 H1 1_555 1_555
H2 C1 1_555 1_555
H3 C1 1_555 1_555
C2 N1 1_555 1_555
H4 C2 1_555 1_555
C3 C2 1_555 1_555
C4 C3 1_555 1_555
O1 C4 1_555 1_555
H5 O1 1_555 1_555
O2 C4 1_555 1_555
O4 Cl1 1_555 1_555
O5 Cl1 1_555 1_555
O6 Cl1 1_555 1_555
C5 C3 1_555 1_555
H6 C5 1_555 1_555
C6 C5 1_555 1_555
H7 C6 1_555 1_555
C7 N1 1_555 1_555
H8 C7 1_555 1_555
C6 C7 1_555 1_555

#END
