
#######################################################################
#
#                 Cambridge Crystallographic Data Centre
#                                CCDC 
#
#######################################################################
#
# If this CIF has been generated from an entry in the Cambridge 
# Structural Database, then it will include bibliographic, chemical, 
# crystal, experimental, refinement or atomic coordinate data resulting 
# from the CCDC's data processing and validation procedures.
#
#######################################################################

data_MUXSAB
_chemical_formula_moiety         'C16 H18 N2 O2,C7 H8'
_chemical_name_systematic        
'2-(butyl(phenyl)amino)nicotinic acid toluene solvate'
_symmetry_cell_setting           monoclinic
_symmetry_space_group_name_H-M   'P 21/c'
_symmetry_Int_Tables_number      14
_space_group_name_Hall           '-P 2ybc'
loop_
_symmetry_equiv_pos_site_id
_symmetry_equiv_pos_as_xyz
1 x,y,z
2 -x,1/2+y,1/2-z
3 -x,-y,-z
4 x,1/2-y,1/2+z
_cell_length_a                   11.2030(2)
_cell_length_b                   14.0780(2)
_cell_length_c                   13.0633(2)
_cell_angle_alpha                90
_cell_angle_beta                 105.6710(7)
_cell_angle_gamma                90
_cell_volume                     1983.71
_exptl_crystal_colour            colorless
_exptl_crystal_description       block
_cell_formula_units_Z            4
loop_
_atom_site_label
_atom_site_type_symbol
_atom_site_fract_x
_atom_site_fract_y
_atom_site_fract_z
N1 N 0.46132(10) 0.21712(8) 0.23732(8)
C1 C 0.49612(12) 0.12735(9) 0.22473(10)
C2 C 0.46385(12) 0.05168(9) 0.28447(10)
C3 C 0.40735(12) 0.07365(9) 0.36309(10)
H1 H 0.3909 0.0248 0.4076
C4 C 0.37438(13) 0.16699(9) 0.37747(11)
H2 H 0.3354 0.1831 0.4313
C5 C 0.40002(12) 0.23476(10) 0.31129(10)
H3 H 0.3731 0.2979 0.3178
N2 N 0.56260(10) 0.11143(8) 0.15136(8)
C6 C 0.65757(13) 0.04029(9) 0.17065(10)
C7 C 0.67472(14) -0.01301(10) 0.08577(11)
H4 H 0.6208 -0.0049 0.0165
C8 C 0.77112(15) -0.07794(10) 0.10342(13)
H5 H 0.7834 -0.1138 0.0455
C9 C 0.84994(15) -0.09131(11) 0.20433(14)
H6 H 0.9153 -0.1364 0.2157
C10 C 0.83230(14) -0.03814(11) 0.28826(13)
H7 H 0.8857 -0.0469 0.3577
C11 C 0.73722(13) 0.02765(10) 0.27142(11)
H8 H 0.7264 0.0644 0.3292
C12 C 0.47166(12) -0.04990(9) 0.25500(10)
O1 O 0.43074(9) -0.07840(7) 0.16461(7)
O2 O 0.52032(9) -0.10598(6) 0.33745(7)
H9 H 0.5213 -0.1623 0.3163
C13 C 0.57540(13) 0.18715(9) 0.07719(10)
H10 H 0.5007 0.2280 0.0620
H11 H 0.5796 0.1579 0.0093
C14 C 0.68956(12) 0.24880(9) 0.11949(10)
H12 H 0.6860 0.2775 0.1878
H13 H 0.7644 0.2082 0.1336
C15 C 0.70100(13) 0.32755(9) 0.04304(11)
H14 H 0.6263 0.3683 0.0290
H15 H 0.7047 0.2990 -0.0253
C16 C 0.81580(14) 0.38864(11) 0.08643(12)
H16 H 0.8124 0.4173 0.1539
H17 H 0.8187 0.4389 0.0352
H18 H 0.8902 0.3490 0.0981
C17 C 1.04264(14) 0.33886(11) 0.57484(12)
C18 C 0.93357(14) 0.36544(12) 0.50055(12)
H19 H 0.8903 0.4204 0.5130
C19 C 0.88717(15) 0.31305(12) 0.40886(12)
H20 H 0.8126 0.3323 0.3590
C20 C 0.94860(16) 0.23303(12) 0.38942(12)
H21 H 0.9169 0.1972 0.3263
C21 C 1.05681(16) 0.20538(11) 0.46279(13)
H22 H 1.0996 0.1503 0.4499
C22 C 1.10319(14) 0.25734(11) 0.55469(12)
H23 H 1.1772 0.2373 0.6047
C23 C 1.09383(17) 0.39748(13) 0.67309(12)
H24 H 1.1183 0.3556 0.7352
H25 H 1.0303 0.4420 0.6823
H26 H 1.1663 0.4330 0.6659
loop_
_geom_bond_atom_site_label_1
_geom_bond_atom_site_label_2
_geom_bond_site_symmetry_1
_geom_bond_site_symmetry_2
N1 C1 1_555 1_555
C1 C2 1_555 1_555
C2 C3 1_555 1_555
C3 H1 1_555 1_555
C4 C3 1_555 1_555
H2 C4 1_555 1_555
C5 N1 1_555 1_555
H3 C5 1_555 1_555
N2 C1 1_555 1_555
C6 N2 1_555 1_555
C7 C6 1_555 1_555
H4 C7 1_555 1_555
C8 C7 1_555 1_555
H5 C8 1_555 1_555
C9 C8 1_555 1_555
H6 C9 1_555 1_555
C10 C9 1_555 1_555
H7 C10 1_555 1_555
C11 C6 1_555 1_555
H8 C11 1_555 1_555
C12 C2 1_555 1_555
O1 C12 1_555 1_555
O2 C12 1_555 1_555
H9 O2 1_555 1_555
C13 N2 1_555 1_555
H10 C13 1_555 1_555
H11 C13 1_555 1_555
C14 C13 1_555 1_555
H12 C14 1_555 1_555
H13 C14 1_555 1_555
C15 C14 1_555 1_555
H14 C15 1_555 1_555
H15 C15 1_555 1_555
C16 C15 1_555 1_555
H16 C16 1_555 1_555
H17 C16 1_555 1_555
H18 C16 1_555 1_555
C17 C18 1_555 1_555
C18 H19 1_555 1_555
C19 C18 1_555 1_555
H20 C19 1_555 1_555
C20 C19 1_555 1_555
H21 C20 1_555 1_555
C21 C20 1_555 1_555
H22 C21 1_555 1_555
C22 C17 1_555 1_555
H23 C22 1_555 1_555
C23 C17 1_555 1_555
H24 C23 1_555 1_555
H25 C23 1_555 1_555
H26 C23 1_555 1_555
C4 C5 1_555 1_555
C10 C11 1_555 1_555
C21 C22 1_555 1_555

#END
