
#######################################################################
#
#                 Cambridge Crystallographic Data Centre
#                                CCDC 
#
#######################################################################
#
# If this CIF has been generated from an entry in the Cambridge 
# Structural Database, then it will include bibliographic, chemical, 
# crystal, experimental, refinement or atomic coordinate data resulting 
# from the CCDC's data processing and validation procedures.
#
#######################################################################

data_MUXWIM
_chemical_formula_moiety         'C34 H42 N6 O6,C10 H8 N2'
_chemical_name_systematic        
"5,11,17,23-Tetra-t-butyl-2,8,14,20-tetraoxa-4,6,16,18,26,28-hexaazapentacyclo[19.3.1.1^3,7^.1^9,13^.1^15,19^]octacosa-1(25),3(28),4,6,9(27),10,12,15(26),16,18,21,23-dodecaene-25,27-diol 4,4'-bipyridine solvate"
_symmetry_cell_setting           monoclinic
_symmetry_space_group_name_H-M   'P 21/c'
_symmetry_Int_Tables_number      14
_space_group_name_Hall           '-P 2ybc'
loop_
_symmetry_equiv_pos_site_id
_symmetry_equiv_pos_as_xyz
1 x,y,z
2 -x,1/2+y,1/2-z
3 -x,-y,-z
4 x,1/2-y,1/2+z
_cell_length_a                   10.626(2)
_cell_length_b                   18.268(4)
_cell_length_c                   22.502(4)
_cell_angle_alpha                90
_cell_angle_beta                 96.46(3)
_cell_angle_gamma                90
_cell_volume                     4340.26
_exptl_crystal_colour            colorless
_exptl_crystal_description       block
_cell_formula_units_Z            4
loop_
_atom_site_label
_atom_site_type_symbol
_atom_site_fract_x
_atom_site_fract_y
_atom_site_fract_z
O1 O 1.2577(4) 0.3635(2) 0.3254(2)
O2 O 1.0049(4) 0.5831(2) 0.3023(2)
O3 O 0.6472(4) 0.4478(3) 0.2449(2)
O4 O 0.8897(4) 0.2308(2) 0.2979(2)
O5 O 1.0866(5) 0.4527(3) 0.3683(2)
H1 H 1.0340 0.4827 0.3769
O6 O 0.7631(5) 0.3512(3) 0.3327(2)
H2 H 0.6921 0.3659 0.3375
N1 N 1.2441(5) 0.2575(3) 0.3734(3)
N2 N 1.0535(5) 0.1882(3) 0.3585(3)
N3 N 1.0685(5) 0.3020(3) 0.3075(2)
N4 N 0.8338(5) 0.5107(3) 0.2705(2)
N5 N 0.8142(5) 0.6332(3) 0.3047(3)
N6 N 0.6312(5) 0.5631(3) 0.2760(3)
C1 C 1.2412(16) 0.0701(8) 0.3859(6)
H3 H 1.2801 0.0315 0.4104
H4 H 1.2898 0.0791 0.3532
H5 H 1.1567 0.0560 0.3706
C2 C 1.3707(12) 0.1610(7) 0.4478(7)
H6 H 1.4081 0.1227 0.4731
H7 H 1.3680 0.2053 0.4706
H8 H 1.4205 0.1689 0.4153
C3 C 1.1581(14) 0.1285(9) 0.4735(6)
H9 H 1.1953 0.0910 0.4997
H10 H 1.0739 0.1142 0.4579
H11 H 1.1548 0.1735 0.4954
C4 C 1.2365(7) 0.1391(4) 0.4230(3)
C5 C 1.1731(7) 0.1997(4) 0.3817(3)
C6 C 1.0093(6) 0.2425(4) 0.3222(3)
C7 C 1.1838(6) 0.3060(4) 0.3358(3)
C8 C 1.2071(6) 0.4225(4) 0.2905(3)
C9 C 1.1215(6) 0.4686(4) 0.3143(3)
C10 C 1.0830(6) 0.5294(4) 0.2800(3)
C11 C 1.1300(6) 0.5434(4) 0.2268(3)
H12 H 1.1014 0.5845 0.2049
C12 C 1.2186(6) 0.4983(4) 0.2047(3)
C13 C 1.2543(6) 0.4366(4) 0.2376(3)
H13 H 1.3115 0.4040 0.2236
C14 C 1.2702(7) 0.5154(4) 0.1445(3)
C15 C 1.1618(11) 0.5296(10) 0.0959(6)
H14 H 1.1133 0.4856 0.0883
H15 H 1.1952 0.5447 0.0599
H16 H 1.1083 0.5675 0.1087
C16 C 1.3481(16) 0.5866(7) 0.1559(6)
H17 H 1.4264 0.5758 0.1799
H18 H 1.3007 0.6212 0.1765
H19 H 1.3657 0.6071 0.1184
C17 C 1.3564(15) 0.4554(8) 0.1250(7)
H20 H 1.3084 0.4112 0.1172
H21 H 1.4241 0.4468 0.1562
H22 H 1.3908 0.4704 0.0893
C18 C 0.8789(7) 0.5746(4) 0.2917(3)
C19 C 0.7072(7) 0.5090(4) 0.2645(3)
C20 C 0.6902(7) 0.6247(4) 0.2965(3)
C21 C 0.6060(7) 0.6889(4) 0.3087(3)
C22 C 0.5779(19) 0.7329(9) 0.2534(6)
H23 H 0.6553 0.7527 0.2419
H24 H 0.5216 0.7722 0.2606
H25 H 0.5387 0.7023 0.2219
C23 C 0.4763(17) 0.6618(8) 0.3277(12)
H26 H 0.4447 0.6222 0.3022
H27 H 0.4165 0.7014 0.3241
H28 H 0.4883 0.6453 0.3684
C24 C 0.6736(16) 0.7378(10) 0.3583(9)
H29 H 0.7544 0.7527 0.3472
H30 H 0.6856 0.7109 0.3951
H31 H 0.6229 0.7803 0.3634
C25 C 0.7194(6) 0.3873(4) 0.2290(3)
C26 C 0.7708(6) 0.3411(4) 0.2736(3)
C27 C 0.8371(6) 0.2812(4) 0.2546(3)
C28 C 0.8466(6) 0.2678(4) 0.1956(3)
H32 H 0.8919 0.2271 0.1851
C29 C 0.7909(7) 0.3131(4) 0.1511(3)
C30 C 0.7267(6) 0.3747(4) 0.1694(3)
H33 H 0.6888 0.4072 0.1409
C31 C 0.8039(8) 0.2992(4) 0.0855(4)
C32 C 0.829(2) 0.2192(7) 0.0728(10)
H34 H 0.9073 0.2044 0.0950
H35 H 0.8343 0.2128 0.0309
H36 H 0.7611 0.1898 0.0846
C33 C 0.6725(14) 0.3163(12) 0.0490(8)
H37 H 0.6059 0.3065 0.0734
H38 H 0.6616 0.2861 0.0139
H39 H 0.6696 0.3669 0.0374
C34 C 0.890(2) 0.3534(13) 0.0637(9)
H40 H 0.9738 0.3466 0.0840
H41 H 0.8610 0.4018 0.0715
H42 H 0.8921 0.3471 0.0215
N7 N 0.5525(5) 0.3982(4) 0.3775(3)
N8 N 0.0900(6) 0.4790(4) 0.5719(3)
C35 C 0.4870(7) 0.4612(5) 0.3728(3)
H43 H 0.5018 0.4937 0.3425
C36 C 0.3993(6) 0.4802(4) 0.4106(3)
H44 H 0.3592 0.5255 0.4067
C37 C 0.3709(7) 0.4312(4) 0.4546(3)
C38 C 0.4387(7) 0.3671(4) 0.4592(3)
H45 H 0.4256 0.3335 0.4890
C39 C 0.5267(7) 0.3522(4) 0.4196(4)
H46 H 0.5693 0.3077 0.4229
C40 C 0.2717(6) 0.4490(4) 0.4938(3)
C41 C 0.2536(7) 0.5181(4) 0.5155(3)
H47 H 0.3032 0.5567 0.5045
C42 C 0.1636(7) 0.5302(5) 0.5528(3)
H48 H 0.1530 0.5779 0.5659
C43 C 0.1061(8) 0.4120(5) 0.5510(4)
H49 H 0.0539 0.3747 0.5621
C44 C 0.1961(7) 0.3949(4) 0.5136(3)
H50 H 0.2059 0.3466 0.5018
C45? C 1.351(2) 0.1140(14) 0.3970(11)
C46? C 1.174(3) 0.481(2) 0.0955(14)
C47? C 1.273(3) 0.5987(12) 0.1309(13)
C48? C 1.401(2) 0.4829(17) 0.1441(14)
C49? C 1.272(2) 0.1695(12) 0.4856(8)
C50? C 0.526(4) 0.712(3) 0.2507(12)
C51? C 0.527(4) 0.662(2) 0.3556(16)
C52? C 0.691(3) 0.7552(16) 0.329(2)
C53? C 1.143(2) 0.0741(13) 0.4314(11)
C54? C 0.756(2) 0.2212(9) 0.0683(10)
C55? C 0.745(3) 0.3531(12) 0.0429(9)
C56? C 0.9508(14) 0.2954(13) 0.0788(9)
H51? H 1.3919 0.0761 0.4217
H52? H 1.4083 0.1543 0.3950
H53? H 1.3272 0.0952 0.3575
H54? H 1.1539 0.4323 0.1072
H55? H 1.2111 0.4793 0.0585
H56? H 1.0988 0.5102 0.0906
H57? H 1.1963 0.6125 0.1069
H58? H 1.3442 0.6095 0.1096
H59? H 1.2806 0.6256 0.1677
H60? H 1.3940 0.4312 0.1370
H61? H 1.4495 0.4914 0.1821
H62? H 1.4426 0.5055 0.1131
H63? H 1.3109 0.1317 0.5110
H64? H 1.1969 0.1865 0.5015
H65? H 1.3301 0.2094 0.4839
H66? H 0.5789 0.7362 0.2251
H67? H 0.4600 0.7442 0.2599
H68? H 0.4894 0.6690 0.2308
H69? H 0.5770 0.6624 0.3939
H70? H 0.4988 0.6131 0.3461
H71? H 0.4551 0.6936 0.3568
H72? H 0.7653 0.7545 0.3079
H73? H 0.7158 0.7526 0.3709
H74? H 0.6450 0.7997 0.3194
H75? H 1.1853 0.0377 0.4571
H76? H 1.1150 0.0527 0.3932
H77? H 1.0708 0.0922 0.4491
H78? H 0.8163 0.1857 0.0850
H79? H 0.7444 0.2165 0.0256
H80? H 0.6761 0.2130 0.0838
H81? H 0.8041 0.3917 0.0378
H82? H 0.6712 0.3733 0.0579
H83? H 0.7206 0.3298 0.0051
H84? H 0.9957 0.2772 0.1152
H85? H 0.9811 0.3435 0.0707
H86? H 0.9644 0.2633 0.0464
loop_
_geom_bond_atom_site_label_1
_geom_bond_atom_site_label_2
_geom_bond_site_symmetry_1
_geom_bond_site_symmetry_2
O1 C7 1_555 1_555
O2 C10 1_555 1_555
O3 C19 1_555 1_555
O4 C6 1_555 1_555
O5 H1 1_555 1_555
O6 H2 1_555 1_555
N1 C5 1_555 1_555
N2 C5 1_555 1_555
N3 C6 1_555 1_555
N4 C18 1_555 1_555
N5 C18 1_555 1_555
N6 C19 1_555 1_555
C1 H3 1_555 1_555
H4 C1 1_555 1_555
H5 C1 1_555 1_555
C2 H6 1_555 1_555
H7 C2 1_555 1_555
H8 C2 1_555 1_555
C3 H9 1_555 1_555
H10 C3 1_555 1_555
H11 C3 1_555 1_555
C4 C1 1_555 1_555
C5 C4 1_555 1_555
C6 N2 1_555 1_555
C7 N1 1_555 1_555
C8 O1 1_555 1_555
C9 O5 1_555 1_555
C10 C9 1_555 1_555
C11 C10 1_555 1_555
H12 C11 1_555 1_555
C12 C11 1_555 1_555
C13 C8 1_555 1_555
H13 C13 1_555 1_555
C14 C12 1_555 1_555
C15 C14 1_555 1_555
H14 C15 1_555 1_555
H15 C15 1_555 1_555
H16 C15 1_555 1_555
C16 C14 1_555 1_555
H17 C16 1_555 1_555
H18 C16 1_555 1_555
H19 C16 1_555 1_555
C17 C14 1_555 1_555
H20 C17 1_555 1_555
H21 C17 1_555 1_555
H22 C17 1_555 1_555
C18 O2 1_555 1_555
C19 N4 1_555 1_555
C20 N5 1_555 1_555
C21 C20 1_555 1_555
C22 C21 1_555 1_555
H23 C22 1_555 1_555
H24 C22 1_555 1_555
H25 C22 1_555 1_555
C23 C21 1_555 1_555
H26 C23 1_555 1_555
H27 C23 1_555 1_555
H28 C23 1_555 1_555
C24 C21 1_555 1_555
H29 C24 1_555 1_555
H30 C24 1_555 1_555
H31 C24 1_555 1_555
C25 O3 1_555 1_555
C26 O6 1_555 1_555
C27 O4 1_555 1_555
C28 C27 1_555 1_555
H32 C28 1_555 1_555
C29 C28 1_555 1_555
C30 C25 1_555 1_555
H33 C30 1_555 1_555
C31 C29 1_555 1_555
C32 C31 1_555 1_555
H34 C32 1_555 1_555
H35 C32 1_555 1_555
H36 C32 1_555 1_555
C33 C31 1_555 1_555
H37 C33 1_555 1_555
H38 C33 1_555 1_555
H39 C33 1_555 1_555
C34 C31 1_555 1_555
H40 C34 1_555 1_555
H41 C34 1_555 1_555
H42 C34 1_555 1_555
N7 C35 1_555 1_555
N8 C42 1_555 1_555
C35 H43 1_555 1_555
C36 C35 1_555 1_555
H44 C36 1_555 1_555
C37 C36 1_555 1_555
C38 C37 1_555 1_555
H45 C38 1_555 1_555
C39 N7 1_555 1_555
H46 C39 1_555 1_555
C40 C37 1_555 1_555
C41 C40 1_555 1_555
H47 C41 1_555 1_555
C42 C41 1_555 1_555
H48 C42 1_555 1_555
C43 N8 1_555 1_555
H49 C43 1_555 1_555
C44 C40 1_555 1_555
H50 C44 1_555 1_555
N3 C7 1_555 1_555
N6 C20 1_555 1_555
C2 C4 1_555 1_555
C3 C4 1_555 1_555
C8 C9 1_555 1_555
C12 C13 1_555 1_555
C25 C26 1_555 1_555
C26 C27 1_555 1_555
C29 C30 1_555 1_555
C38 C39 1_555 1_555
C43 C44 1_555 1_555

#END
