
#######################################################################
#
#                 Cambridge Crystallographic Data Centre
#                                CCDC 
#
#######################################################################
#
# If this CIF has been generated from an entry in the Cambridge 
# Structural Database, then it will include bibliographic, chemical, 
# crystal, experimental, refinement or atomic coordinate data resulting 
# from the CCDC's data processing and validation procedures.
#
#######################################################################

data_MUXWAE
_chemical_formula_moiety         'C41 H46 N8 O10'
_chemical_name_systematic        
'Dimethyl 25-(benzyloxy)-5,17-bis(dipropylamino)-27-hydroxy-2,8,14,20-tetraoxa-4,6,16,18,26,28-hexaazapentacyclo[19.3.1.1^3,7^.1^9,13^.1^15,19^]octacosa-1(25),3(28),4,6,9(27),10,12,15(26),16,18,21,23-dodecaene-11,23-dicarboxylate'
_symmetry_cell_setting           monoclinic
_symmetry_space_group_name_H-M   'C 2/c'
_symmetry_Int_Tables_number      15
_space_group_name_Hall           '-C 2yn'
loop_
_symmetry_equiv_pos_site_id
_symmetry_equiv_pos_as_xyz
1 x,y,z
2 -x,y,1/2-z
3 1/2+x,1/2+y,z
4 1/2-x,1/2+y,1/2-z
5 -x,-y,-z
6 x,-y,1/2+z
7 1/2-x,1/2-y,-z
8 1/2+x,1/2-y,1/2+z
_cell_length_a                   12.979(3)
_cell_length_b                   24.289(5)
_cell_length_c                   26.134(5)
_cell_angle_alpha                90
_cell_angle_beta                 101.16(3)
_cell_angle_gamma                90
_cell_volume                     8082.87
_exptl_crystal_colour            colorless
_exptl_crystal_description       plate
_cell_formula_units_Z            8
loop_
_atom_site_label
_atom_site_type_symbol
_atom_site_fract_x
_atom_site_fract_y
_atom_site_fract_z
O1 O -0.32478(17) 0.20479(12) 0.13783(9)
O2 O 0.01704(17) 0.12651(13) 0.19793(8)
O3 O -0.0709(2) -0.01531(16) 0.08284(12)
O4 O -0.4104(2) 0.0654(2) 0.02021(15)
O5 O -0.0911(2) 0.28403(17) 0.01813(13)
O6 O 0.0635(2) 0.24370(15) 0.05107(10)
O7 O -0.19794(18) 0.13505(13) 0.20246(9)
H1 H -0.1538 0.1164 0.2216
O8 O -0.1730(3) 0.1494(2) -0.09000(15)
O9 O -0.0134(3) 0.13055(17) -0.04364(14)
N1 N -0.4927(2) 0.17711(14) 0.11649(11)
N2 N -0.3585(2) 0.13259(18) 0.08154(12)
N3 N -0.5367(2) 0.10350(18) 0.05489(13)
N4 N 0.0969(2) 0.04564(15) 0.21590(11)
N5 N 0.0476(3) -0.03008(16) 0.15619(13)
N6 N -0.0350(2) 0.05750(17) 0.13894(11)
N7 N -0.6634(2) 0.14726(15) 0.09213(12)
N8 N 0.1764(3) -0.03893(16) 0.23155(13)
C1 C -0.5617(3) 0.14224(19) 0.08794(14)
C2 C -0.3954(3) 0.16946(19) 0.11058(13)
C3 C -0.4366(3) 0.1024(2) 0.05413(17)
C4 C -0.2201(3) 0.19897(19) 0.13260(13)
C5 C -0.1838(3) 0.22736(19) 0.09461(14)
H2 H -0.2291 0.2498 0.0716
C6 C -0.0788(3) 0.2227(2) 0.09037(13)
C7 C -0.0124(3) 0.18874(19) 0.12538(13)
H3 H 0.0580 0.1855 0.1233
C8 C -0.0512(3) 0.16040(19) 0.16258(13)
C9 C -0.1561(3) 0.16371(19) 0.16729(13)
C10 C 0.0259(3) 0.07378(19) 0.18302(12)
C11 C 0.1057(3) -0.00742(19) 0.20089(15)
C12 C -0.0174(3) 0.0055(2) 0.12860(15)
C13 C -0.1341(2) 0.02177(14) 0.04987(11)
C14 C -0.2405(2) 0.02509(15) 0.05117(11)
C15 C -0.30440(15) 0.06180(17) 0.01865(13)
C16 C -0.2619(2) 0.09519(14) -0.01517(12)
H4 H -0.3046 0.1198 -0.0369
C17 C -0.1555(2) 0.09187(14) -0.01647(11)
C18 C -0.09165(16) 0.05516(15) 0.01605(11)
H5 H -0.0205 0.0529 0.0152
C19 C -0.7471(3) 0.1141(2) 0.06023(17)
H6 H -0.7210 0.0995 0.0306
H7 H -0.8059 0.1381 0.0468
C20 C -0.7864(3) 0.0666(2) 0.08898(19)
H8 H -0.8140 0.0813 0.1181
H9 H -0.8439 0.0488 0.0656
C21 C -0.7040(3) 0.0240(2) 0.10923(18)
H10 H -0.7344 -0.0044 0.1272
H11 H -0.6471 0.0411 0.1328
H12 H -0.6781 0.0081 0.0805
C22 C -0.6931(3) 0.1880(2) 0.12710(15)
H13 H -0.7671 0.1953 0.1179
H14 H -0.6559 0.2217 0.1244
C23 C -0.6647(8) 0.1653(4) 0.1840(3)
H15 H -0.7089 0.1339 0.1877
H16 H -0.5921 0.1532 0.1913
C24 C -0.6810(8) 0.2105(4) 0.2227(3)
H17 H -0.6645 0.1962 0.2575
H18 H -0.7528 0.2224 0.2151
H19 H -0.6358 0.2411 0.2195
C25 C -0.0388(3) 0.2533(2) 0.04940(15)
C26 C 0.1098(3) 0.2753(2) 0.01512(17)
H20 H 0.1825 0.2655 0.0186
H21 H 0.1043 0.3138 0.0225
H22 H 0.0737 0.2679 -0.0198
C27 C 0.2476(3) -0.01578(18) 0.27758(14)
H23 H 0.2749 -0.0455 0.3011
H24 H 0.2080 0.0086 0.2959
C28 C 0.3379(3) 0.0155(2) 0.26354(16)
H25 H 0.3105 0.0449 0.2396
H26 H 0.3781 -0.0090 0.2456
C29 C 0.4104(3) 0.0401(2) 0.31032(17)
H27 H 0.4665 0.0593 0.2990
H28 H 0.4388 0.0112 0.3339
H29 H 0.3717 0.0653 0.3277
C30 C 0.1921(5) -0.0987(2) 0.2203(2)
H30 H 0.1450 -0.1081 0.1884
H31 H 0.1724 -0.1204 0.2475
C31 C 0.3059(7) -0.1157(4) 0.2140(4)
H32 H 0.3217 -0.0976 0.1833
H33 H 0.3557 -0.1023 0.2440
C32 C 0.3221(9) -0.1782(4) 0.2089(4)
H34 H 0.3933 -0.1852 0.2055
H35 H 0.2751 -0.1917 0.1785
H36 H 0.3081 -0.1965 0.2393
O10 O -0.2795(2) -0.00658(18) 0.08614(12)
C33 C -0.3757(5) -0.0287(3) 0.0625(3)
H37 H -0.3793 -0.0359 0.0257
H38 H -0.4342 -0.0055 0.0671
C34 C -0.3698(5) -0.0800(2) 0.0935(2)
C35 C -0.2759(4) -0.1088(2) 0.1072(2)
H39 H -0.2151 -0.0952 0.0980
C36 C -0.2730(5) -0.1579(2) 0.1348(2)
H40 H -0.2103 -0.1772 0.1440
C37 C -0.3640(6) -0.1782(2) 0.1487(2)
H41 H -0.3620 -0.2111 0.1671
C38 C -0.4578(5) -0.1494(3) 0.1349(3)
H42 H -0.5186 -0.1630 0.1442
C39 C -0.4607(4) -0.1003(3) 0.1074(3)
H43 H -0.5235 -0.0810 0.0982
C40 C -0.1179(4) 0.1274(3) -0.0552(2)
C41 C 0.0282(5) 0.1614(3) -0.0841(3)
H44 H 0.1034 0.1628 -0.0749
H45 H 0.0004 0.1981 -0.0865
H46 H 0.0077 0.1432 -0.1171
C42? C -0.7136(10) 0.1779(6) 0.1809(4)
C43? C -0.6108(9) 0.1635(6) 0.2166(5)
C44? C 0.0952(10) -0.1285(5) 0.2353(6)
C45? C 0.1054(15) -0.1892(6) 0.2216(8)
C46? C -0.3207(10) -0.0724(6) 0.0712(5)
C47? C -0.3809(6) -0.1009(4) 0.1076(3)
C48? C -0.3366(5) -0.1429(4) 0.1407(3)
C49? C -0.3956(7) -0.1692(3) 0.1725(3)
C50? C -0.4990(6) -0.1534(3) 0.1712(3)
C51? C -0.5434(5) -0.1113(4) 0.1381(3)
C52? C -0.4843(7) -0.0851(4) 0.1063(3)
H47? H -0.7557 0.2050 0.1081
H48? H -0.6392 0.2156 0.1310
H49? H -0.7631 0.1478 0.1801
H50? H -0.7435 0.2105 0.1935
H51? H -0.6230 0.1571 0.2512
H52? H -0.5623 0.1935 0.2173
H53? H -0.5820 0.1310 0.2041
H54? H 0.2567 -0.1121 0.2407
H55? H 0.1932 -0.1039 0.1840
H56? H 0.0956 -0.1243 0.2722
H57? H 0.0303 -0.1133 0.2157
H58? H 0.0458 -0.2092 0.2287
H59? H 0.1684 -0.2040 0.2423
H60? H 0.1082 -0.1925 0.1853
H61? H -0.3646 -0.0721 0.0366
H62? H -0.2594 -0.0945 0.0693
H63? H -0.2674 -0.1535 0.1416
H64? H -0.3659 -0.1973 0.1947
H65? H -0.5385 -0.1710 0.1925
H66? H -0.6126 -0.1008 0.1372
H67? H -0.5140 -0.0569 0.0841
loop_
_geom_bond_atom_site_label_1
_geom_bond_atom_site_label_2
_geom_bond_site_symmetry_1
_geom_bond_site_symmetry_2
O1 C2 1_555 1_555
O2 C8 1_555 1_555
O3 C12 1_555 1_555
O4 C3 1_555 1_555
O5 C25 1_555 1_555
O6 C25 1_555 1_555
O7 H1 1_555 1_555
O8 C40 1_555 1_555
O9 C40 1_555 1_555
N1 C1 1_555 1_555
N2 C2 1_555 1_555
N3 C1 1_555 1_555
N4 C10 1_555 1_555
N5 C11 1_555 1_555
N6 C10 1_555 1_555
N7 C1 1_555 1_555
N8 C11 1_555 1_555
C2 N1 1_555 1_555
C3 N2 1_555 1_555
C4 O1 1_555 1_555
C5 C4 1_555 1_555
H2 C5 1_555 1_555
C6 C5 1_555 1_555
C7 C6 1_555 1_555
H3 C7 1_555 1_555
C8 C7 1_555 1_555
C9 O7 1_555 1_555
C10 O2 1_555 1_555
C11 N4 1_555 1_555
C12 N5 1_555 1_555
C13 O3 1_555 1_555
C14 C13 1_555 1_555
C15 O4 1_555 1_555
C16 C15 1_555 1_555
H4 C16 1_555 1_555
C17 C16 1_555 1_555
C18 C13 1_555 1_555
H5 C18 1_555 1_555
C19 N7 1_555 1_555
H6 C19 1_555 1_555
H7 C19 1_555 1_555
C20 C19 1_555 1_555
H8 C20 1_555 1_555
H9 C20 1_555 1_555
C21 C20 1_555 1_555
H10 C21 1_555 1_555
H11 C21 1_555 1_555
H12 C21 1_555 1_555
C22 N7 1_555 1_555
H13 C22 1_555 1_555
H14 C22 1_555 1_555
C23 C22 1_555 1_555
H15 C23 1_555 1_555
H16 C23 1_555 1_555
C24 C23 1_555 1_555
H17 C24 1_555 1_555
H18 C24 1_555 1_555
H19 C24 1_555 1_555
C25 C6 1_555 1_555
C26 O6 1_555 1_555
H20 C26 1_555 1_555
H21 C26 1_555 1_555
H22 C26 1_555 1_555
C27 N8 1_555 1_555
H23 C27 1_555 1_555
H24 C27 1_555 1_555
C28 C27 1_555 1_555
H25 C28 1_555 1_555
H26 C28 1_555 1_555
C29 C28 1_555 1_555
H27 C29 1_555 1_555
H28 C29 1_555 1_555
H29 C29 1_555 1_555
C30 N8 1_555 1_555
H30 C30 1_555 1_555
H31 C30 1_555 1_555
C31 C30 1_555 1_555
H32 C31 1_555 1_555
H33 C31 1_555 1_555
C32 C31 1_555 1_555
H34 C32 1_555 1_555
H35 C32 1_555 1_555
H36 C32 1_555 1_555
O10 C14 1_555 1_555
C33 O10 1_555 1_555
H37 C33 1_555 1_555
H38 C33 1_555 1_555
C34 C33 1_555 1_555
C35 C34 1_555 1_555
H39 C35 1_555 1_555
C36 C35 1_555 1_555
H40 C36 1_555 1_555
C37 C36 1_555 1_555
H41 C37 1_555 1_555
C38 C37 1_555 1_555
H42 C38 1_555 1_555
C39 C34 1_555 1_555
H43 C39 1_555 1_555
C40 C17 1_555 1_555
C41 O9 1_555 1_555
H44 C41 1_555 1_555
H45 C41 1_555 1_555
H46 C41 1_555 1_555
N3 C3 1_555 1_555
N6 C12 1_555 1_555
C4 C9 1_555 1_555
C8 C9 1_555 1_555
C14 C15 1_555 1_555
C17 C18 1_555 1_555
C38 C39 1_555 1_555

#END
