
#######################################################################
#
#                 Cambridge Crystallographic Data Centre
#                                CCDC 
#
#######################################################################
#
# If this CIF has been generated from an entry in the Cambridge 
# Structural Database, then it will include bibliographic, chemical, 
# crystal, experimental, refinement or atomic coordinate data resulting 
# from the CCDC's data processing and validation procedures.
#
#######################################################################

data_MUXWOS
_chemical_formula_moiety         'C34 H42 N6 O6,C10 H8 N2'
_chemical_name_systematic        
"5,11,17,23-Tetra-t-butyl-2,8,14,20-tetraoxa-4,6,16,18,26,28-hexaazapentacyclo[19.3.1.1^3,7^.1^9,13^.1^15,19^]octacosa-1(25),3(28),4,6,9(27),10,12,15(26),16,18,21,23-dodecaene-25,27-diol 2,2'-bipyridine solvate"
_symmetry_cell_setting           monoclinic
_symmetry_space_group_name_H-M   'P 21/c'
_symmetry_Int_Tables_number      14
_space_group_name_Hall           '-P 2ybc'
loop_
_symmetry_equiv_pos_site_id
_symmetry_equiv_pos_as_xyz
1 x,y,z
2 -x,1/2+y,1/2-z
3 -x,-y,-z
4 x,1/2-y,1/2+z
_cell_length_a                   10.7382(5)
_cell_length_b                   17.8451(7)
_cell_length_c                   22.4369(11)
_cell_angle_alpha                90
_cell_angle_beta                 97.868(2)
_cell_angle_gamma                90
_cell_volume                     4258.98
_exptl_crystal_colour            colorless
_exptl_crystal_description       block
_cell_formula_units_Z            4
loop_
_atom_site_label
_atom_site_type_symbol
_atom_site_fract_x
_atom_site_fract_y
_atom_site_fract_z
O1 O 0.94799(12) 0.53612(7) 0.13120(6)
H1 H 0.9091 0.5067 0.1060
O2 O 1.19903(12) 0.38752(7) 0.16264(5)
H2 H 1.2406 0.4247 0.1536
O3 O 0.75166(11) 0.43209(6) 0.15286(5)
O4 O 1.08100(11) 0.27095(6) 0.20995(6)
O5 O 1.35651(11) 0.48287(7) 0.24138(6)
O6 O 1.01965(11) 0.64431(6) 0.21389(6)
N1 N 0.92016(13) 0.35587(8) 0.18608(6)
N2 N 0.74788(13) 0.31528(8) 0.11473(6)
N3 N 0.91910(13) 0.23300(8) 0.14390(7)
N4 N 1.18170(13) 0.55864(8) 0.23021(6)
N5 N 1.38725(14) 0.60395(8) 0.22090(7)
N6 N 1.21293(14) 0.68744(8) 0.20746(7)
C1 C 0.89509(15) 0.53467(9) 0.18237(8)
C2 C 0.93561(15) 0.58729(9) 0.22682(8)
C3 C 0.88832(16) 0.59155(9) 0.28079(8)
H3 H 0.9206 0.6279 0.3098
C4 C 0.79333(15) 0.54285(10) 0.29331(8)
C5 C 0.75149(15) 0.48976(10) 0.24957(8)
H4 H 0.6864 0.4560 0.2563
C6 C 0.80339(15) 0.48547(9) 0.19639(8)
C7 C 0.81052(15) 0.36508(9) 0.15178(7)
C8 C 0.80676(16) 0.24905(9) 0.11307(8)
C9 C 0.96883(15) 0.28831(9) 0.17891(8)
C10 C 1.20902(15) 0.38152(10) 0.22348(8)
C11 C 1.14441(15) 0.32460(9) 0.24856(8)
C12 C 1.15010(15) 0.31443(9) 0.30962(8)
H5 H 1.1031 0.2752 0.3245
C13 C 1.22448(15) 0.36133(10) 0.35009(8)
C14 C 1.29018(15) 0.41813(10) 0.32555(8)
H6 H 1.3421 0.4509 0.3515
C15 C 1.28102(15) 0.42759(9) 0.26383(8)
C16 C 1.30435(16) 0.55125(10) 0.23059(8)
C17 C 1.33578(17) 0.67188(10) 0.21000(8)
C18 C 1.14218(16) 0.62845(9) 0.21743(7)
C19 C 0.74182(17) 0.54894(10) 0.35371(8)
C20 C 0.7245(3) 0.63153(14) 0.36961(12)
H7 H 0.6683 0.6558 0.3372
H8 H 0.8063 0.6568 0.3746
H9 H 0.6878 0.6348 0.4072
C21 C 0.8365(2) 0.51479(17) 0.40228(10)
H10 H 0.8046 0.5182 0.4411
H11 H 0.9162 0.5420 0.4045
H12 H 0.8498 0.4621 0.3927
C22 C 0.6171(2) 0.5098(2) 0.35206(12)
H13 H 0.6290 0.4557 0.3480
H14 H 0.5589 0.5282 0.3177
H15 H 0.5824 0.5201 0.3894
C23 C 0.74142(17) 0.18625(10) 0.07488(8)
C24 C 0.7112(3) 0.12485(16) 0.11765(13)
H16 H 0.6590 0.1455 0.1463
H17 H 0.7895 0.1052 0.1396
H18 H 0.6656 0.0843 0.0946
C25 C 0.6204(3) 0.21326(16) 0.03687(14)
H19 H 0.6397 0.2551 0.0114
H20 H 0.5605 0.2298 0.0634
H21 H 0.5834 0.1721 0.0114
C26 C 0.8305(3) 0.15597(17) 0.03246(14)
H22 H 0.7915 0.1128 0.0102
H23 H 0.9098 0.1404 0.0561
H24 H 0.8469 0.1953 0.0041
C27 C 1.23307(17) 0.34875(11) 0.41824(8)
C28 C 1.3270(2) 0.40270(13) 0.45331(9)
H25 H 1.4093 0.3971 0.4396
H26 H 1.3343 0.3912 0.4964
H27 H 1.2974 0.4543 0.4464
C29 C 1.1026(2) 0.36152(14) 0.43745(10)
H28 H 1.1063 0.3513 0.4806
H29 H 1.0415 0.3278 0.4147
H30 H 1.0768 0.4136 0.4293
C30 C 1.2757(2) 0.26840(12) 0.43423(9)
H31 H 1.3600 0.2605 0.4233
H32 H 1.2169 0.2330 0.4121
H33 H 1.2775 0.2604 0.4776
C31 C 1.42269(18) 0.73668(10) 0.20011(9)
C32 C 1.4186(3) 0.79282(14) 0.25121(12)
H34 H 1.3319 0.8099 0.2515
H35 H 1.4722 0.8359 0.2452
H36 H 1.4490 0.7687 0.2897
C33 C 1.5577(2) 0.70949(13) 0.19992(12)
H37 H 1.5883 0.6863 0.2388
H38 H 1.6115 0.7521 0.1932
H39 H 1.5599 0.6726 0.1677
C34 C 1.3757(2) 0.77309(15) 0.13979(12)
H40 H 1.3707 0.7352 0.1079
H41 H 1.4341 0.8128 0.1315
H42 H 1.2922 0.7947 0.1411
N7 N 0.33364(15) 0.47557(10) 0.08379(7)
N8 N 0.10759(13) 0.55227(8) -0.03386(6)
C35 C 0.43233(19) 0.42874(13) 0.09147(10)
H43 H 0.4691 0.4177 0.1315
C36 C 0.48345(19) 0.39575(12) 0.04512(11)
H44 H 0.5546 0.3638 0.0530
C37 C 0.42951(18) 0.40988(11) -0.01293(10)
H45 H 0.4607 0.3863 -0.0458
C38 C 0.32905(17) 0.45900(11) -0.02278(9)
H46 H 0.2912 0.4703 -0.0625
C39 C 0.28428(16) 0.49171(10) 0.02656(8)
C40 C 0.18392(16) 0.54966(10) 0.01920(8)
C41 C 0.17175(18) 0.60044(11) 0.06493(8)
H47 H 0.2274 0.5981 0.1017
C42 C 0.0785(2) 0.65434(11) 0.05687(9)
H48 H 0.0693 0.6893 0.0879
C43 C -0.00075(19) 0.65656(11) 0.00313(9)
H49 H -0.0660 0.6928 -0.0037
C44 C 0.01732(17) 0.60459(10) -0.04067(8)
H50 H -0.0374 0.6061 -0.0777
C45? C 0.6219(12) 0.1647(7) 0.1039(6)
C46? C 0.7093(11) 0.2122(6) 0.0134(4)
C47? C 0.8253(12) 0.1156(6) 0.0772(6)
H51? H 0.5624 0.2067 0.0997
H52? H 0.6463 0.1535 0.1467
H53? H 0.5821 0.1205 0.0835
H54? H 0.6583 0.2578 0.0130
H55? H 0.6614 0.1733 -0.0106
H56? H 0.7865 0.2231 -0.0038
H57? H 0.7847 0.0778 0.0494
H58? H 0.8370 0.0953 0.1182
H59? H 0.9072 0.1289 0.0656
loop_
_geom_bond_atom_site_label_1
_geom_bond_atom_site_label_2
_geom_bond_site_symmetry_1
_geom_bond_site_symmetry_2
O1 H1 1_555 1_555
O2 H2 1_555 1_555
O3 C6 1_555 1_555
O4 C9 1_555 1_555
O5 C15 1_555 1_555
O6 C2 1_555 1_555
N1 C7 1_555 1_555
N2 C7 1_555 1_555
N3 C8 1_555 1_555
N4 C16 1_555 1_555
N5 C16 1_555 1_555
N6 C17 1_555 1_555
C1 O1 1_555 1_555
C2 C1 1_555 1_555
C3 C2 1_555 1_555
H3 C3 1_555 1_555
C4 C3 1_555 1_555
C5 C4 1_555 1_555
H4 C5 1_555 1_555
C6 C1 1_555 1_555
C7 O3 1_555 1_555
C8 N2 1_555 1_555
C9 N1 1_555 1_555
C10 O2 1_555 1_555
C11 O4 1_555 1_555
C12 C11 1_555 1_555
H5 C12 1_555 1_555
C13 C12 1_555 1_555
C14 C13 1_555 1_555
H6 C14 1_555 1_555
C15 C10 1_555 1_555
C16 O5 1_555 1_555
C17 N5 1_555 1_555
C18 O6 1_555 1_555
C19 C4 1_555 1_555
C20 C19 1_555 1_555
H7 C20 1_555 1_555
H8 C20 1_555 1_555
H9 C20 1_555 1_555
C21 C19 1_555 1_555
H10 C21 1_555 1_555
H11 C21 1_555 1_555
H12 C21 1_555 1_555
C22 C19 1_555 1_555
H13 C22 1_555 1_555
H14 C22 1_555 1_555
H15 C22 1_555 1_555
C23 C8 1_555 1_555
C24 C23 1_555 1_555
H16 C24 1_555 1_555
H17 C24 1_555 1_555
H18 C24 1_555 1_555
C25 C23 1_555 1_555
H19 C25 1_555 1_555
H20 C25 1_555 1_555
H21 C25 1_555 1_555
C26 C23 1_555 1_555
H22 C26 1_555 1_555
H23 C26 1_555 1_555
H24 C26 1_555 1_555
C27 C13 1_555 1_555
C28 C27 1_555 1_555
H25 C28 1_555 1_555
H26 C28 1_555 1_555
H27 C28 1_555 1_555
C29 C27 1_555 1_555
H28 C29 1_555 1_555
H29 C29 1_555 1_555
H30 C29 1_555 1_555
C30 C27 1_555 1_555
H31 C30 1_555 1_555
H32 C30 1_555 1_555
H33 C30 1_555 1_555
C31 C17 1_555 1_555
C32 C31 1_555 1_555
H34 C32 1_555 1_555
H35 C32 1_555 1_555
H36 C32 1_555 1_555
C33 C31 1_555 1_555
H37 C33 1_555 1_555
H38 C33 1_555 1_555
H39 C33 1_555 1_555
C34 C31 1_555 1_555
H40 C34 1_555 1_555
H41 C34 1_555 1_555
H42 C34 1_555 1_555
N7 C35 1_555 1_555
N8 C40 1_555 1_555
C35 H43 1_555 1_555
C36 C35 1_555 1_555
H44 C36 1_555 1_555
C37 C36 1_555 1_555
H45 C37 1_555 1_555
C38 C37 1_555 1_555
H46 C38 1_555 1_555
C39 N7 1_555 1_555
C40 C39 1_555 1_555
C41 C40 1_555 1_555
H47 C41 1_555 1_555
C42 C41 1_555 1_555
H48 C42 1_555 1_555
C43 C42 1_555 1_555
H49 C43 1_555 1_555
C44 N8 1_555 1_555
H50 C44 1_555 1_555
N3 C9 1_555 1_555
N4 C18 1_555 1_555
N6 C18 1_555 1_555
C5 C6 1_555 1_555
C10 C11 1_555 1_555
C14 C15 1_555 1_555
C38 C39 1_555 1_555
C43 C44 1_555 1_555

#END
