
#######################################################################
#
#                 Cambridge Crystallographic Data Centre
#                                CCDC 
#
#######################################################################
#
# If this CIF has been generated from an entry in the Cambridge 
# Structural Database, then it will include bibliographic, chemical, 
# crystal, experimental, refinement or atomic coordinate data resulting 
# from the CCDC's data processing and validation procedures.
#
#######################################################################

data_MUXXAF
_chemical_compound_source        'Abies georgei'
_chemical_name_common            'Abiesatrine A methanol solvate'
_chemical_formula_moiety         'C30 H46 O4,C1 H4 O1'
_chemical_name_systematic        
"10'-Hydroxy-4,4',4a',6a',9',9',12a'-heptamethyl-3,3',4,4',4a',5',6',6a',8',8a',9',10',11',12',12a',12b',13',14'-octadecahydro-5H-spiro[furan-2,2'-naphtho[2',1':4,5]indeno[7a,1-b]pyran]-5-one methanol solvate"
_chemical_properties_biological  'antiproliferative activity'
_symmetry_cell_setting           orthorhombic
_symmetry_space_group_name_H-M   'P 21 21 21'
_symmetry_Int_Tables_number      19
_space_group_name_Hall           'P 2ac 2ab'
loop_
_symmetry_equiv_pos_site_id
_symmetry_equiv_pos_as_xyz
1 x,y,z
2 1/2-x,-y,1/2+z
3 -x,1/2+y,1/2-z
4 1/2+x,1/2-y,-z
_cell_length_a                   8.165(15)
_cell_length_b                   13.02(3)
_cell_length_c                   26.83(6)
_cell_angle_alpha                90
_cell_angle_beta                 90
_cell_angle_gamma                90
_cell_volume                     2852.25
_exptl_crystal_colour            colorless
_exptl_crystal_description       plate
_cell_formula_units_Z            4
loop_
_atom_site_label
_atom_site_type_symbol
_atom_site_fract_x
_atom_site_fract_y
_atom_site_fract_z
O1 O 1.0307(5) 0.7614(3) 0.05596(12)
H1 H 1.1100 0.7783 0.0391
O2 O 0.4952(4) 0.3673(3) 0.10714(10)
O3 O 0.5295(5) 0.3034(3) 0.02673(13)
O4 O 0.5522(6) 0.3960(4) -0.04202(15)
C1 C 1.0917(7) 0.6218(4) 0.1374(2)
H2 H 1.1682 0.5768 0.1544
H3 H 1.0752 0.5947 0.1041
C2 C 1.1667(7) 0.7255(5) 0.1332(2)
H4 H 1.2696 0.7207 0.1153
H5 H 1.1891 0.7523 0.1663
C3 C 1.0514(7) 0.7978(4) 0.10580(18)
H6 H 1.1018 0.8660 0.1046
C4 C 0.8839(7) 0.8069(4) 0.13147(17)
C5 C 0.8139(6) 0.6993(4) 0.14116(17)
H7 H 0.7891 0.6718 0.1080
C6 C 0.6512(7) 0.6992(5) 0.1684(2)
H8 H 0.6633 0.7378 0.1992
H9 H 0.5708 0.7345 0.1481
C7 C 0.5884(7) 0.5956(4) 0.18057(16)
H10 H 0.4789 0.5906 0.1899
C8 C 0.6734(7) 0.5101(4) 0.17938(15)
C9 C 0.8469(7) 0.5134(4) 0.16037(16)
H11 H 0.9100 0.4668 0.1817
C10 C 0.9279(7) 0.6190(4) 0.16521(16)
C11 C 0.8380(7) 0.4618(4) 0.10911(17)
H12 H 0.7583 0.4970 0.0884
H13 H 0.9438 0.4660 0.0928
C12 C 0.7892(7) 0.3508(4) 0.11537(19)
H14 H 0.8735 0.3161 0.1345
H15 H 0.7854 0.3190 0.0827
C13 C 0.6228(7) 0.3337(4) 0.14137(16)
C14 C 0.5999(7) 0.4035(4) 0.18713(15)
C15 C 0.6839(8) 0.3380(4) 0.22741(18)
H16 H 0.8021 0.3405 0.2241
H17 H 0.6537 0.3609 0.2606
C16 C 0.6192(8) 0.2305(5) 0.21720(18)
H18 H 0.5146 0.2203 0.2336
H19 H 0.6956 0.1792 0.2294
C17 C 0.5997(7) 0.2219(4) 0.15969(18)
C18 C 0.7323(9) 0.1448(5) 0.1421(2)
H20 H 0.7263 0.1373 0.1065
H21 H 0.7139 0.0794 0.1576
H22 H 0.8387 0.1700 0.1512
C19 C 0.9565(8) 0.6358(5) 0.22130(17)
H23 H 1.0292 0.5838 0.2337
H24 H 0.8538 0.6317 0.2386
H25 H 1.0042 0.7023 0.2266
C20 C 0.4325(8) 0.1813(4) 0.14505(19)
H26 H 0.3515 0.2271 0.1603
C21 C 0.3883(10) 0.0731(5) 0.1611(2)
H27 H 0.3979 0.0675 0.1967
H28 H 0.4614 0.0250 0.1455
H29 H 0.2778 0.0582 0.1513
C22 C 0.4131(9) 0.1923(4) 0.0886(2)
H30 H 0.4961 0.1513 0.0721
H31 H 0.3068 0.1661 0.0788
C23 C 0.4283(7) 0.3012(5) 0.07183(18)
C24 C 0.2728(7) 0.3563(5) 0.05472(19)
H32 H 0.1944 0.3077 0.0412
H33 H 0.2223 0.3927 0.0823
C25 C 0.3285(8) 0.4305(5) 0.01502(18)
H34 H 0.2466 0.4338 -0.0116
C26 C 0.3707(9) 0.5379(5) 0.0322(2)
H35 H 0.4037 0.5785 0.0041
H36 H 0.4586 0.5348 0.0559
H37 H 0.2764 0.5686 0.0476
C27 C 0.4816(8) 0.3783(5) -0.0039(2)
C28 C 0.7680(8) 0.8661(4) 0.09702(19)
H38 H 0.6616 0.8701 0.1121
H39 H 0.7600 0.8311 0.0656
H40 H 0.8098 0.9341 0.0918
C29 C 0.9084(8) 0.8735(4) 0.17790(18)
H41 H 0.8060 0.8809 0.1951
H42 H 0.9480 0.9399 0.1682
H43 H 0.9867 0.8413 0.1996
C30 C 0.4201(7) 0.4138(4) 0.20248(17)
H44 H 0.3738 0.3467 0.2072
H45 H 0.3608 0.4493 0.1768
H46 H 0.4129 0.4518 0.2331
O5 O 0.8056(7) 0.6739(5) 0.9926(2)
H47 H 0.8708 0.7049 1.0104
C31 C 0.8726(10) 0.5820(7) 0.9783(2)
H48 H 0.9209 0.5892 0.9458
H49 H 0.7886 0.5305 0.9771
H50 H 0.9553 0.5620 1.0018
loop_
_geom_bond_atom_site_label_1
_geom_bond_atom_site_label_2
_geom_bond_site_symmetry_1
_geom_bond_site_symmetry_2
O1 H1 1_555 1_555
O2 C13 1_555 1_555
O3 C23 1_555 1_555
O4 C27 1_555 1_555
C1 H2 1_555 1_555
H3 C1 1_555 1_555
C2 C1 1_555 1_555
H4 C2 1_555 1_555
H5 C2 1_555 1_555
C3 O1 1_555 1_555
H6 C3 1_555 1_555
C4 C3 1_555 1_555
C5 C4 1_555 1_555
H7 C5 1_555 1_555
C6 C5 1_555 1_555
H8 C6 1_555 1_555
H9 C6 1_555 1_555
C7 C6 1_555 1_555
H10 C7 1_555 1_555
C8 C7 1_555 1_555
C9 C8 1_555 1_555
H11 C9 1_555 1_555
C10 C1 1_555 1_555
C11 C9 1_555 1_555
H12 C11 1_555 1_555
H13 C11 1_555 1_555
C12 C11 1_555 1_555
H14 C12 1_555 1_555
H15 C12 1_555 1_555
C13 C12 1_555 1_555
C14 C8 1_555 1_555
C15 C14 1_555 1_555
H16 C15 1_555 1_555
H17 C15 1_555 1_555
C16 C15 1_555 1_555
H18 C16 1_555 1_555
H19 C16 1_555 1_555
C17 C13 1_555 1_555
C18 C17 1_555 1_555
H20 C18 1_555 1_555
H21 C18 1_555 1_555
H22 C18 1_555 1_555
C19 C10 1_555 1_555
H23 C19 1_555 1_555
H24 C19 1_555 1_555
H25 C19 1_555 1_555
C20 C17 1_555 1_555
H26 C20 1_555 1_555
C21 C20 1_555 1_555
H27 C21 1_555 1_555
H28 C21 1_555 1_555
H29 C21 1_555 1_555
C22 C20 1_555 1_555
H30 C22 1_555 1_555
H31 C22 1_555 1_555
C23 O2 1_555 1_555
C24 C23 1_555 1_555
H32 C24 1_555 1_555
H33 C24 1_555 1_555
C25 C24 1_555 1_555
H34 C25 1_555 1_555
C26 C25 1_555 1_555
H35 C26 1_555 1_555
H36 C26 1_555 1_555
H37 C26 1_555 1_555
C27 O3 1_555 1_555
C28 C4 1_555 1_555
H38 C28 1_555 1_555
H39 C28 1_555 1_555
H40 C28 1_555 1_555
C29 C4 1_555 1_555
H41 C29 1_555 1_555
H42 C29 1_555 1_555
H43 C29 1_555 1_555
C30 C14 1_555 1_555
H44 C30 1_555 1_555
H45 C30 1_555 1_555
H46 C30 1_555 1_555
O5 H47 1_555 1_555
C31 O5 1_555 1_555
H48 C31 1_555 1_555
H49 C31 1_555 1_555
H50 C31 1_555 1_555
C2 C3 1_555 1_555
C5 C10 1_555 1_555
C9 C10 1_555 1_555
C13 C14 1_555 1_555
C16 C17 1_555 1_555
C22 C23 1_555 1_555
C25 C27 1_555 1_555

#END
