
#######################################################################
#
#                 Cambridge Crystallographic Data Centre
#                                CCDC 
#
#######################################################################
#
# If this CIF has been generated from an entry in the Cambridge 
# Structural Database, then it will include bibliographic, chemical, 
# crystal, experimental, refinement or atomic coordinate data resulting 
# from the CCDC's data processing and validation procedures.
#
#######################################################################

data_MUYJUM
_chemical_formula_moiety         'C25 H25 Br1 N2 O5 S1'
_chemical_name_systematic        
4-(2-Bromophenyl)-3-methyl-1-((4-methylphenyl)sulfonyl)-5-nitro-6-phenylpiperidin-2-ol
_symmetry_cell_setting           monoclinic
_symmetry_space_group_name_H-M   'P 21'
_symmetry_Int_Tables_number      4
_space_group_name_Hall           'P 2yb'
loop_
_symmetry_equiv_pos_site_id
_symmetry_equiv_pos_as_xyz
1 x,y,z
2 -x,1/2+y,-z
_cell_length_a                   13.632(6)
_cell_length_b                   6.301(3)
_cell_length_c                   15.414(7)
_cell_angle_alpha                90
_cell_angle_beta                 110.27(2)
_cell_angle_gamma                90
_cell_volume                     1242
_exptl_crystal_colour            colorless
_exptl_crystal_description       block
_cell_formula_units_Z            2
loop_
_atom_site_label
_atom_site_type_symbol
_atom_site_fract_x
_atom_site_fract_y
_atom_site_fract_z
Br1 Br 0.39081(5) 1.37321(15) 0.21552(6)
C1 C 0.4217(4) 1.1428(12) 0.3009(4)
N1 N 0.7260(3) 1.0319(7) 0.1737(3)
C2 C 0.5624(5) 0.8730(14) 0.1772(5)
H1 H 0.5411 0.7381 0.1969
C3 C 0.6628(5) 0.8361(10) 0.1561(5)
H2 H 0.6441 0.7973 0.0908
S1 S 0.76314(11) 1.1320(2) 0.09280(10)
O1 O 0.7725(3) 1.3560(8) 0.1088(2)
O2 O 0.6947(3) 1.0550(7) 0.0078(3)
C4 C 0.9000(4) 0.8370(11) 0.0748(4)
H3 H 0.8417 0.7526 0.0466
C5 C 0.8887(4) 1.0394(9) 0.1058(4)
C6 C 0.9750(4) 1.1650(10) 0.1467(4)
H4 H 0.9672 1.3013 0.1665
O3 O 0.7475(3) 1.0860(9) 0.4776(3)
C7 C 0.6927(4) 1.0316(9) 0.3185(4)
H5 H 0.7140 0.8853 0.3375
C8 C 0.5036(4) 1.0057(10) 0.3088(4)
N2 N 0.7102(4) 1.1699(10) 0.4021(4)
O4 O 0.6860(3) 1.3549(10) 0.3915(3)
C9 C 0.5156(5) 0.8311(12) 0.3668(5)
H6 H 0.5689 0.7339 0.3727
C10 C 0.4483(6) 0.8014(13) 0.4160(5)
H7 H 0.4571 0.6856 0.4554
C11 C 0.3555(5) 1.1146(16) 0.3505(5)
H8 H 0.3026 1.2122 0.3456
C12 C 1.0868(5) 0.8862(15) 0.1291(4)
C13 C 0.8778(4) 1.1121(11) 0.3212(4)
C14 C 0.9340(5) 0.9246(11) 0.3263(4)
H9 H 0.9014 0.8030 0.2954
C15 C 0.3684(5) 0.9440(17) 0.4063(5)
H10 H 0.3229 0.9223 0.4386
C16 C 1.0732(5) 1.0868(12) 0.1580(4)
H11 H 1.1315 1.1716 0.1858
C17 C 1.0323(5) 1.2865(15) 0.4187(5)
H12 H 1.0650 1.4077 0.4499
C18 C 1.0864(6) 1.1057(19) 0.4238(6)
H13 H 1.1573 1.1040 0.4589
C19 C 1.1945(5) 0.8035(15) 0.1417(5)
H14 H 1.2253 0.8888 0.1063
H15 H 1.1895 0.6591 0.1208
H16 H 1.2371 0.8100 0.2059
C20 C 1.0409(6) 0.9242(15) 0.3793(5)
H17 H 1.0804 0.8016 0.3841
C21 C 0.9993(5) 0.7629(11) 0.0867(5)
H18 H 1.0074 0.6278 0.0657
C22 C 0.7616(4) 1.1267(10) 0.2663(4)
H19 H 0.7446 1.2782 0.2580
C23 C 0.5799(4) 1.0378(9) 0.2563(4)
H20 H 0.5665 1.1788 0.2278
C24 C 0.9271(5) 1.2885(11) 0.3660(4)
H21 H 0.8892 1.4134 0.3612
C25 C 0.4759(5) 0.9477(18) 0.0905(5)
H22 H 0.4137 0.9746 0.1046
H23 H 0.4619 0.8400 0.0437
H24 H 0.4973 1.0757 0.0684
O5 O 0.7197(5) 0.6659(7) 0.2118(4)
H25 H 0.7348 0.5788 0.1789
loop_
_geom_bond_atom_site_label_1
_geom_bond_atom_site_label_2
_geom_bond_site_symmetry_1
_geom_bond_site_symmetry_2
Br1 C1 1_555 1_555
C1 C8 1_555 1_555
N1 C3 1_555 1_555
C2 H1 1_555 1_555
C3 C2 1_555 1_555
H2 C3 1_555 1_555
S1 N1 1_555 1_555
O1 S1 1_555 1_555
O2 S1 1_555 1_555
C4 H3 1_555 1_555
C5 S1 1_555 1_555
C6 C5 1_555 1_555
H4 C6 1_555 1_555
O3 N2 1_555 1_555
C7 H5 1_555 1_555
C8 C9 1_555 1_555
N2 C7 1_555 1_555
O4 N2 1_555 1_555
C9 H6 1_555 1_555
C10 C9 1_555 1_555
H7 C10 1_555 1_555
C11 C1 1_555 1_555
H8 C11 1_555 1_555
C12 C16 1_555 1_555
C13 C14 1_555 1_555
C14 H9 1_555 1_555
C15 C10 1_555 1_555
H10 C15 1_555 1_555
C16 C6 1_555 1_555
H11 C16 1_555 1_555
C17 H12 1_555 1_555
C18 C17 1_555 1_555
H13 C18 1_555 1_555
C19 C12 1_555 1_555
H14 C19 1_555 1_555
H15 C19 1_555 1_555
H16 C19 1_555 1_555
C20 C14 1_555 1_555
H17 C20 1_555 1_555
C21 C4 1_555 1_555
H18 C21 1_555 1_555
C22 N1 1_555 1_555
H19 C22 1_555 1_555
C23 C2 1_555 1_555
H20 C23 1_555 1_555
C24 C13 1_555 1_555
H21 C24 1_555 1_555
C25 C2 1_555 1_555
H22 C25 1_555 1_555
H23 C25 1_555 1_555
H24 C25 1_555 1_555
O5 C3 1_555 1_555
H25 O5 1_555 1_555
C4 C5 1_555 1_555
C7 C22 1_555 1_555
C7 C23 1_555 1_555
C8 C23 1_555 1_555
C11 C15 1_555 1_555
C12 C21 1_555 1_555
C13 C22 1_555 1_555
C17 C24 1_555 1_555
C18 C20 1_555 1_555

#END
