
#######################################################################
#
#                 Cambridge Crystallographic Data Centre
#                                CCDC 
#
#######################################################################
#
# If this CIF has been generated from an entry in the Cambridge 
# Structural Database, then it will include bibliographic, chemical, 
# crystal, experimental, refinement or atomic coordinate data resulting 
# from the CCDC's data processing and validation procedures.
#
#######################################################################

data_MUYWOU
_chemical_formula_moiety         'C21 H20 N2'
_chemical_name_systematic        
8-methyl-13-methylene-10-phenyl-8,11-diazatetracyclo[9.2.2.0^1,9^.0^2,7^]pentadeca-2,4,6,9-tetraene
_symmetry_cell_setting           monoclinic
_symmetry_space_group_name_H-M   'P 21/c'
_symmetry_Int_Tables_number      14
_space_group_name_Hall           '-P 2ybc'
loop_
_symmetry_equiv_pos_site_id
_symmetry_equiv_pos_as_xyz
1 x,y,z
2 -x,1/2+y,1/2-z
3 -x,-y,-z
4 x,1/2-y,1/2+z
_cell_length_a                   10.0875(8)
_cell_length_b                   18.8960(15)
_cell_length_c                   8.6137(7)
_cell_angle_alpha                90
_cell_angle_beta                 104.1630(10)
_cell_angle_gamma                90
_cell_volume                     1591.98
_exptl_crystal_colour            colorless
_exptl_crystal_description       block
_cell_formula_units_Z            4
loop_
_atom_site_label
_atom_site_type_symbol
_atom_site_fract_x
_atom_site_fract_y
_atom_site_fract_z
C1 C 0.25000(14) 1.10266(7) 0.56918(17)
C2 C 0.22519(16) 1.17420(8) 0.54359(19)
H1 H 0.1692 1.1908 0.4482
C3 C 0.28680(18) 1.22043(8) 0.6652(2)
H2 H 0.2713 1.2688 0.6506
C4 C 0.36988(18) 1.19684(9) 0.8062(2)
H3 H 0.4106 1.2291 0.8851
C5 C 0.39329(16) 1.12474(8) 0.83153(19)
H4 H 0.4498 1.1085 0.9268
C6 C 0.33141(14) 1.07760(7) 0.71320(16)
C7 C 0.34405(14) 0.99887(8) 0.70192(16)
C8 C 0.28243(14) 0.95207(8) 0.81016(16)
C9 C 0.28440(18) 0.87576(8) 0.75630(19)
H5 H 0.3400 0.8478 0.8425
H6 H 0.1922 0.8569 0.7321
C10 C 0.48291(16) 0.89505(8) 0.6583(2)
H7 H 0.5225 0.8912 0.5667
H8 H 0.5356 0.8652 0.7428
C11 C 0.49197(15) 0.97238(8) 0.71612(18)
H9 H 0.5364 1.0013 0.6506
H10 H 0.5447 0.9753 0.8264
C12 C 0.23177(17) 0.97424(9) 0.92790(19)
H11 H 0.1931 0.9421 0.9858
H12 H 0.2345 1.0221 0.9536
C13 C 0.26089(13) 0.98311(7) 0.53275(16)
C14 C 0.25854(14) 0.91489(8) 0.48725(16)
C15 C 0.18988(15) 0.87836(7) 0.33787(17)
C16 C 0.05194(16) 0.88648(9) 0.2659(2)
H13 H -0.0003 0.9171 0.3111
C17 C -0.00937(19) 0.84983(10) 0.1280(2)
H14 H -0.1021 0.8559 0.0818
C18 C 0.0663(2) 0.80440(9) 0.0590(2)
H15 H 0.0252 0.7802 -0.0343
C19 C 0.2028(2) 0.79511(9) 0.1288(2)
H16 H 0.2542 0.7644 0.0827
C20 C 0.26421(17) 0.83120(8) 0.26763(18)
H17 H 0.3565 0.8239 0.3147
C21 C 0.13787(18) 1.05756(9) 0.29647(19)
H18 H 0.1512 1.0169 0.2352
H19 H 0.1751 1.0987 0.2571
H20 H 0.0419 1.0644 0.2866
N1 N 0.20588(12) 1.04663(6) 0.46213(13)
N2 N 0.33993(13) 0.86981(6) 0.61298(14)
loop_
_geom_bond_atom_site_label_1
_geom_bond_atom_site_label_2
_geom_bond_site_symmetry_1
_geom_bond_site_symmetry_2
C1 C2 1_555 1_555
C2 H1 1_555 1_555
C3 C2 1_555 1_555
H2 C3 1_555 1_555
C4 C3 1_555 1_555
H3 C4 1_555 1_555
C5 C4 1_555 1_555
H4 C5 1_555 1_555
C6 C1 1_555 1_555
C7 C6 1_555 1_555
C8 C7 1_555 1_555
C9 C8 1_555 1_555
H5 C9 1_555 1_555
H6 C9 1_555 1_555
C10 H7 1_555 1_555
H8 C10 1_555 1_555
C11 C7 1_555 1_555
H9 C11 1_555 1_555
H10 C11 1_555 1_555
C12 C8 1_555 1_555
H11 C12 1_555 1_555
H12 C12 1_555 1_555
C13 C7 1_555 1_555
C14 C13 1_555 1_555
C15 C14 1_555 1_555
C16 C15 1_555 1_555
H13 C16 1_555 1_555
C17 C16 1_555 1_555
H14 C17 1_555 1_555
C18 C17 1_555 1_555
H15 C18 1_555 1_555
C19 C18 1_555 1_555
H16 C19 1_555 1_555
C20 C15 1_555 1_555
H17 C20 1_555 1_555
C21 H18 1_555 1_555
H19 C21 1_555 1_555
H20 C21 1_555 1_555
N1 C1 1_555 1_555
N2 C9 1_555 1_555
C5 C6 1_555 1_555
C10 C11 1_555 1_555
C10 N2 1_555 1_555
C13 N1 1_555 1_555
C14 N2 1_555 1_555
C19 C20 1_555 1_555
C21 N1 1_555 1_555

#END
