
#######################################################################
#
#                 Cambridge Crystallographic Data Centre
#                                CCDC 
#
#######################################################################
#
# If this CIF has been generated from an entry in the Cambridge 
# Structural Database, then it will include bibliographic, chemical, 
# crystal, experimental, refinement or atomic coordinate data resulting 
# from the CCDC's data processing and validation procedures.
#
#######################################################################

data_MUZCAN
_chemical_formula_moiety         'C11 H15 Br1 O2'
_chemical_name_systematic        1-(4-bromophenyl)-2-methylbutane-1,4-diol
_symmetry_cell_setting           monoclinic
_symmetry_space_group_name_H-M   'P 21'
_symmetry_Int_Tables_number      4
_space_group_name_Hall           'P 2yb'
loop_
_symmetry_equiv_pos_site_id
_symmetry_equiv_pos_as_xyz
1 x,y,z
2 -x,1/2+y,-z
_cell_length_a                   5.7323(12)
_cell_length_b                   7.920(2)
_cell_length_c                   12.149(2)
_cell_angle_alpha                90
_cell_angle_beta                 98.524(6)
_cell_angle_gamma                90
_cell_volume                     545.47
_exptl_crystal_colour            colorless
_exptl_crystal_description       prism
_cell_formula_units_Z            2
loop_
_atom_site_label
_atom_site_type_symbol
_atom_site_fract_x
_atom_site_fract_y
_atom_site_fract_z
C1 C 0.8039(4) 0.5546(3) 0.36559(17)
C2 C 0.8445(4) 0.4948(3) 0.26245(17)
H1 H 0.9796 0.5298 0.2317
C3 C 0.6838(4) 0.3832(3) 0.20544(17)
H2 H 0.7103 0.3412 0.1351
C4 C 0.4841(4) 0.3314(3) 0.24922(16)
C5 C 0.4472(4) 0.3944(3) 0.35231(16)
H3 H 0.3113 0.3607 0.3829
C6 C 0.6072(4) 0.5061(3) 0.41100(17)
H4 H 0.5813 0.5484 0.4814
C7 C 0.3115(3) 0.2064(5) 0.18705(13)
H5 H 0.1748 0.1925 0.2287
C8 C 0.4239(4) 0.0335(3) 0.17539(16)
H6 H 0.5541 0.0470 0.1297
C9 C 0.2425(4) -0.0909(3) 0.11572(17)
H7 H 0.1043 -0.0950 0.1558
H8 H 0.1876 -0.0487 0.0396
C10 C 0.3389(4) -0.2686(3) 0.10816(17)
H9 H 0.4880 -0.2653 0.0762
H10 H 0.3718 -0.3194 0.1833
C11 C 0.5293(6) -0.0338(3) 0.2897(2)
H11 H 0.4023 -0.0570 0.3334
H12 H 0.6367 0.0506 0.3283
H13 H 0.6164 -0.1381 0.2807
O1 O 0.2288(3) 0.2826(2) 0.08073(13)
O2 O 0.1669(3) -0.3674(2) 0.03867(13)
Br1 Br 1.02276(3) 0.70573(4) 0.44722(2)
H14 H 0.121(5) 0.228(5) 0.049(2)
H15 H 0.190(6) -0.464(4) 0.048(3)
loop_
_geom_bond_atom_site_label_1
_geom_bond_atom_site_label_2
_geom_bond_site_symmetry_1
_geom_bond_site_symmetry_2
C1 C2 1_555 1_555
C2 H1 1_555 1_555
C3 C2 1_555 1_555
H2 C3 1_555 1_555
C4 C3 1_555 1_555
C5 C4 1_555 1_555
H3 C5 1_555 1_555
C6 C1 1_555 1_555
H4 C6 1_555 1_555
C7 C4 1_555 1_555
H5 C7 1_555 1_555
C8 C7 1_555 1_555
H6 C8 1_555 1_555
C9 C8 1_555 1_555
H7 C9 1_555 1_555
H8 C9 1_555 1_555
C10 C9 1_555 1_555
H9 C10 1_555 1_555
H10 C10 1_555 1_555
C11 C8 1_555 1_555
H11 C11 1_555 1_555
H12 C11 1_555 1_555
H13 C11 1_555 1_555
O1 C7 1_555 1_555
O2 C10 1_555 1_555
Br1 C1 1_555 1_555
H14 O1 1_555 1_555
H15 O2 1_555 1_555
C5 C6 1_555 1_555

#END
