
#######################################################################
#
#                 Cambridge Crystallographic Data Centre
#                                CCDC 
#
#######################################################################
#
# If this CIF has been generated from an entry in the Cambridge 
# Structural Database, then it will include bibliographic, chemical, 
# crystal, experimental, refinement or atomic coordinate data resulting 
# from the CCDC's data processing and validation procedures.
#
#######################################################################

data_MUZCEP
_chemical_formula_moiety         'C30 H35 N1 O8'
_chemical_name_systematic        2,3,6,7,10,11-Hexaethoxy-1-nitrotriphenylene
_symmetry_cell_setting           triclinic
_symmetry_space_group_name_H-M   'P -1'
_symmetry_Int_Tables_number      2
_space_group_name_Hall           '-P 1'
loop_
_symmetry_equiv_pos_site_id
_symmetry_equiv_pos_as_xyz
1 x,y,z
2 -x,-y,-z
_cell_length_a                   9.4054(2)
_cell_length_b                   10.8386(2)
_cell_length_c                   14.5913(4)
_cell_angle_alpha                70.1430(10)
_cell_angle_beta                 73.7890(10)
_cell_angle_gamma                89.6730(10)
_cell_volume                     1336.84
_exptl_crystal_colour            orange
_exptl_crystal_description       prism
_cell_formula_units_Z            2
_exptl_crystal_recrystallization_method 'ethyl acetate'
loop_
_atom_site_label
_atom_site_type_symbol
_atom_site_fract_x
_atom_site_fract_y
_atom_site_fract_z
C1 C 0.31348(19) 0.11636(16) 0.71265(12)
C2 C 0.20821(19) 0.01168(17) 0.74304(12)
C3 C 0.19151(19) -0.04062(16) 0.66952(13)
C4 C 0.27622(19) 0.01966(16) 0.56984(13)
H1 H 0.2637 -0.0139 0.5200
C5 C 0.38113(18) 0.12962(16) 0.53875(12)
C6 C 0.45838(19) 0.19750(16) 0.43077(12)
C7 C 0.42638(19) 0.15792(16) 0.35493(13)
H2 H 0.3578 0.0828 0.3754
C8 C 0.49143(19) 0.22481(16) 0.25286(13)
C9 C 0.59536(19) 0.33584(16) 0.22212(12)
C10 C 0.62991(19) 0.37492(16) 0.29418(12)
H3 H 0.7011 0.4486 0.2726
C11 C 0.56197(19) 0.30807(16) 0.40010(12)
C12 C 0.59880(19) 0.35023(16) 0.47642(12)
C13 C 0.71003(19) 0.45553(16) 0.44795(13)
H4 H 0.7608 0.4991 0.3777
C14 C 0.74665(19) 0.49651(16) 0.51860(13)
C15 C 0.67293(19) 0.43003(17) 0.62351(13)
C16 C 0.56875(19) 0.32589(17) 0.65233(13)
H5 H 0.5244 0.2790 0.7230
C17 C 0.52432(19) 0.28510(16) 0.58104(13)
C18 C 0.40781(19) 0.17830(16) 0.61192(12)
C19 C 0.1359(2) -0.15712(17) 0.90587(13)
H6 H 0.2385 -0.1559 0.9112
H7 H 0.1211 -0.2263 0.8783
C20 C 0.0241(2) -0.18408(18) 1.00925(13)
H8 H 0.0459 -0.1198 1.0384
H9 H 0.0302 -0.2732 1.0545
H10 H -0.0763 -0.1767 1.0018
C21 C 0.0570(2) -0.19302(17) 0.63039(13)
H11 H 0.1506 -0.2158 0.5908
H12 H 0.0155 -0.1253 0.5825
C22 C -0.0524(2) -0.31354(18) 0.68755(14)
H13 H -0.0079 -0.3817 0.7318
H14 H -0.0780 -0.3467 0.6389
H15 H -0.1425 -0.2908 0.7292
C23 C 0.3551(2) 0.08575(17) 0.20222(13)
H16 H 0.2579 0.0994 0.2442
H17 H 0.3884 0.0030 0.2416
C24 C 0.3416(2) 0.07839(18) 0.10354(14)
H18 H 0.3171 0.1635 0.0627
H19 H 0.2626 0.0096 0.1184
H20 H 0.4361 0.0572 0.0655
C25 C 0.7619(2) 0.50741(17) 0.08177(13)
H21 H 0.8517 0.4791 0.1029
H22 H 0.7230 0.5770 0.1090
C26 C 0.7987(2) 0.55809(18) -0.03313(13)
H23 H 0.8340 0.4873 -0.0587
H24 H 0.8765 0.6320 -0.0624
H25 H 0.7094 0.5878 -0.0528
C27 C 0.9406(2) 0.65962(17) 0.39401(13)
H26 H 0.8763 0.6934 0.3494
H27 H 1.0023 0.5960 0.3701
C28 C 1.0386(2) 0.77193(17) 0.39071(14)
H28 H 0.9764 0.8314 0.4183
H29 H 1.0968 0.8205 0.3200
H30 H 1.1061 0.7367 0.4317
C29 C 0.6385(2) 0.42441(18) 0.79502(13)
H31 H 0.5320 0.4044 0.8034
H32 H 0.6456 0.4924 0.8253
C30 C 0.6974(2) 0.3021(2) 0.85132(16)
H33 H 0.6779 0.2306 0.8282
H34 H 0.6479 0.2766 0.9247
H35 H 0.8048 0.3190 0.8379
O1 O 0.24876(14) 0.27287(12) 0.78955(9)
O2 O 0.35650(15) 0.10717(12) 0.86465(9)
O3 O 0.11176(13) -0.02937(11) 0.83986(8)
O4 O 0.08508(14) -0.14361(12) 0.70428(9)
O5 O 0.46272(14) 0.19519(12) 0.17545(9)
O6 O 0.65103(14) 0.39770(11) 0.11880(8)
O7 O 0.85134(14) 0.59680(12) 0.49781(9)
O8 O 0.71777(14) 0.47606(12) 0.68831(9)
N1 N 0.30554(16) 0.16940(14) 0.79521(10)
loop_
_geom_bond_atom_site_label_1
_geom_bond_atom_site_label_2
_geom_bond_site_symmetry_1
_geom_bond_site_symmetry_2
C1 C2 1_555 1_555
C2 C3 1_555 1_555
C3 C4 1_555 1_555
C4 H1 1_555 1_555
C5 C4 1_555 1_555
C6 C5 1_555 1_555
C7 C6 1_555 1_555
H2 C7 1_555 1_555
C8 C7 1_555 1_555
C9 C8 1_555 1_555
C10 C9 1_555 1_555
H3 C10 1_555 1_555
C11 C6 1_555 1_555
C12 C11 1_555 1_555
C13 C12 1_555 1_555
H4 C13 1_555 1_555
C14 C13 1_555 1_555
C15 C14 1_555 1_555
C16 C15 1_555 1_555
H5 C16 1_555 1_555
C17 C12 1_555 1_555
C18 C1 1_555 1_555
C19 H6 1_555 1_555
H7 C19 1_555 1_555
C20 C19 1_555 1_555
H8 C20 1_555 1_555
H9 C20 1_555 1_555
H10 C20 1_555 1_555
C21 H11 1_555 1_555
H12 C21 1_555 1_555
C22 C21 1_555 1_555
H13 C22 1_555 1_555
H14 C22 1_555 1_555
H15 C22 1_555 1_555
C23 H16 1_555 1_555
H17 C23 1_555 1_555
C24 C23 1_555 1_555
H18 C24 1_555 1_555
H19 C24 1_555 1_555
H20 C24 1_555 1_555
C25 H21 1_555 1_555
H22 C25 1_555 1_555
C26 C25 1_555 1_555
H23 C26 1_555 1_555
H24 C26 1_555 1_555
H25 C26 1_555 1_555
C27 H26 1_555 1_555
H27 C27 1_555 1_555
C28 C27 1_555 1_555
H28 C28 1_555 1_555
H29 C28 1_555 1_555
H30 C28 1_555 1_555
C29 H31 1_555 1_555
H32 C29 1_555 1_555
C30 C29 1_555 1_555
H33 C30 1_555 1_555
H34 C30 1_555 1_555
H35 C30 1_555 1_555
O1 N1 1_555 1_555
O2 N1 1_555 1_555
O3 C2 1_555 1_555
O4 C3 1_555 1_555
O5 C8 1_555 1_555
O6 C9 1_555 1_555
O7 C14 1_555 1_555
O8 C15 1_555 1_555
N1 C1 1_555 1_555
C5 C18 1_555 1_555
C10 C11 1_555 1_555
C16 C17 1_555 1_555
C17 C18 1_555 1_555
C19 O3 1_555 1_555
C21 O4 1_555 1_555
C23 O5 1_555 1_555
C25 O6 1_555 1_555
C27 O7 1_555 1_555
C29 O8 1_555 1_555

#END
