
#######################################################################
#
#                 Cambridge Crystallographic Data Centre
#                                CCDC 
#
#######################################################################
#
# If this CIF has been generated from an entry in the Cambridge 
# Structural Database, then it will include bibliographic, chemical, 
# crystal, experimental, refinement or atomic coordinate data resulting 
# from the CCDC's data processing and validation procedures.
#
#######################################################################

data_MUZNEC
_chemical_formula_moiety         'C3 H4 N4 O2'
_chemical_name_systematic        4-Methyl-5-nitro-2H-1,2,3-triazole
_symmetry_cell_setting           orthorhombic
_symmetry_space_group_name_H-M   'P b c a'
_symmetry_Int_Tables_number      61
_space_group_name_Hall           '-P 2ac 2ab'
loop_
_symmetry_equiv_pos_site_id
_symmetry_equiv_pos_as_xyz
1 x,y,z
2 1/2-x,-y,1/2+z
3 -x,1/2+y,1/2-z
4 1/2+x,1/2-y,-z
5 -x,-y,-z
6 1/2+x,y,1/2-z
7 x,1/2-y,1/2+z
8 1/2-x,1/2+y,z
_cell_length_a                   8.7139(17)
_cell_length_b                   9.8198(19)
_cell_length_c                   12.889(3)
_cell_angle_alpha                90
_cell_angle_beta                 90
_cell_angle_gamma                90
_cell_volume                     1102.9
_cell_formula_units_Z            8
loop_
_atom_site_label
_atom_site_type_symbol
_atom_site_fract_x
_atom_site_fract_y
_atom_site_fract_z
N1 N 0.5694(2) 0.48826(19) 0.88743(14)
N2 N 0.3107(2) 0.45994(16) 0.82582(14)
N3 N 0.2136(2) 0.36221(18) 0.81198(15)
H1 H 0.1217 0.3703 0.7886
N4 N 0.28217(19) 0.24572(16) 0.84068(13)
O1 O 0.5627(2) 0.60924(17) 0.86328(16)
O2 O 0.6776(2) 0.43573(18) 0.93169(15)
C1 C 0.4407(2) 0.40443(19) 0.86332(14)
C2 C 0.4256(2) 0.26641(19) 0.87391(14)
C3 C 0.5278(3) 0.1566(2) 0.9115(2)
H2 H 0.5272 0.1554 0.9860
H3 H 0.6304 0.1726 0.8872
H4 H 0.4921 0.0705 0.8858
loop_
_geom_bond_atom_site_label_1
_geom_bond_atom_site_label_2
_geom_bond_site_symmetry_1
_geom_bond_site_symmetry_2
N1 O1 1_555 1_555
N2 N3 1_555 1_555
N3 H1 1_555 1_555
N4 N3 1_555 1_555
O2 N1 1_555 1_555
C1 N1 1_555 1_555
C2 N4 1_555 1_555
C3 C2 1_555 1_555
H2 C3 1_555 1_555
H3 C3 1_555 1_555
H4 C3 1_555 1_555
N2 C1 1_555 1_555
C1 C2 1_555 1_555

#END
