
#######################################################################
#
#                 Cambridge Crystallographic Data Centre
#                                CCDC 
#
#######################################################################
#
# If this CIF has been generated from an entry in the Cambridge 
# Structural Database, then it will include bibliographic, chemical, 
# crystal, experimental, refinement or atomic coordinate data resulting 
# from the CCDC's data processing and validation procedures.
#
#######################################################################

data_MUZSAD
_chemical_formula_moiety         'C23 H22 O9'
_chemical_name_systematic        
'3,5-diacetoxy-2-(3-(4-acetoxyphenyl)propanoyl)phenyl acetate'
_symmetry_cell_setting           monoclinic
_symmetry_space_group_name_H-M   'P 21/c'
_symmetry_Int_Tables_number      14
_space_group_name_Hall           '-P 2ybc'
loop_
_symmetry_equiv_pos_site_id
_symmetry_equiv_pos_as_xyz
1 x,y,z
2 -x,1/2+y,1/2-z
3 -x,-y,-z
4 x,1/2-y,1/2+z
_cell_length_a                   10.4343(7)
_cell_length_b                   19.9379(13)
_cell_length_c                   21.1546(14)
_cell_angle_alpha                90
_cell_angle_beta                 95.0460(10)
_cell_angle_gamma                90
_cell_volume                     4383.9
_exptl_crystal_colour            colorless
_exptl_crystal_description       block
_cell_formula_units_Z            8
loop_
_atom_site_label
_atom_site_type_symbol
_atom_site_fract_x
_atom_site_fract_y
_atom_site_fract_z
O1 O 1.19632(18) 0.47761(9) 0.30950(10)
O2 O 1.32696(14) 0.56690(8) 0.31367(8)
O3 O 0.92203(17) 0.54785(8) 0.44473(8)
O4 O 1.05760(15) 0.63127(7) 0.47617(7)
O5 O 1.05095(16) 0.75631(8) 0.28301(8)
O6 O 0.9329(3) 0.69219(12) 0.21499(12)
O7 O 0.84548(19) 0.70772(9) 0.41784(11)
O8 O 0.91119(18) 1.12643(9) 0.43267(9)
O9 O 0.7564(2) 1.16128(11) 0.36090(10)
C1 C 1.4049(3) 0.46766(15) 0.27191(16)
H1 H 1.3857 0.4209 0.2660
H2 H 1.4820 0.4726 0.2998
H3 H 1.4171 0.4877 0.2316
C2 C 1.2975(2) 0.50106(12) 0.29989(12)
C3 C 1.2309(2) 0.60687(11) 0.33593(11)
C4 C 1.1901(2) 0.59648(11) 0.39523(11)
H4 H 1.2247 0.5621 0.4212
C5 C 1.0969(2) 0.63822(10) 0.41512(10)
C6 C 1.0458(2) 0.69168(10) 0.37825(11)
C7 C 1.0940(2) 0.70073(11) 0.31942(11)
C8 C 1.1844(2) 0.65883(11) 0.29756(11)
H5 H 1.2137 0.6653 0.2577
C9 C 0.9616(2) 0.58595(11) 0.48505(11)
C10 C 0.9195(3) 0.59306(13) 0.54982(12)
H6 H 0.8780 0.6357 0.5536
H7 H 0.9929 0.5903 0.5804
H8 H 0.8602 0.5578 0.5574
C11 C 0.9667(3) 0.74651(14) 0.23120(13)
C12 C 0.9299(3) 0.81126(14) 0.20086(14)
H9 H 0.8806 0.8032 0.1611
H10 H 1.0060 0.8361 0.1936
H11 H 0.8792 0.8365 0.2282
C13 C 0.9404(2) 0.73471(12) 0.40083(12)
C14 C 0.9571(2) 0.80942(11) 0.40398(13)
H12 H 1.0096 0.8235 0.3707
H13 H 1.0026 0.8212 0.4444
C15 C 0.8315(3) 0.84683(12) 0.39671(16)
H14 H 0.7769 0.8307 0.4283
H15 H 0.7883 0.8372 0.3552
C16 C 0.8472(2) 0.92169(12) 0.40378(14)
C17 C 0.8783(3) 0.96180(13) 0.35410(13)
H16 H 0.8881 0.9423 0.3149
C18 C 0.8951(3) 1.02997(14) 0.36140(13)
H17 H 0.9157 1.0564 0.3275
C19 C 0.8810(2) 1.05811(12) 0.41949(13)
C20 C 0.8486(3) 1.02046(13) 0.46894(13)
H18 H 0.8367 1.0404 0.5077
C21 C 0.8335(3) 0.95245(13) 0.46110(14)
H19 H 0.8136 0.9265 0.4954
C22 C 0.8393(3) 1.17325(13) 0.40210(13)
C23 C 0.8727(3) 1.24108(13) 0.42622(16)
H20 H 0.8399 1.2739 0.3958
H21 H 0.9645 1.2452 0.4330
H22 H 0.8354 1.2482 0.4656
O10 O 0.30716(17) 1.02795(8) 0.18260(10)
O11 O 0.18437(14) 0.93628(7) 0.18725(8)
O12 O 0.58812(17) 0.95339(9) 0.05696(8)
O13 O 0.45634(15) 0.86776(7) 0.02797(7)
O14 O 0.6469(2) 0.79320(11) 0.25385(12)
O15 O 0.45578(15) 0.74814(7) 0.22568(7)
O16 O 0.66251(18) 0.78904(9) 0.08202(10)
O17 O 0.6065(2) 0.36804(9) 0.12432(9)
O18 O 0.6813(3) 0.34772(11) 0.03178(11)
C24 C 0.0932(2) 1.03891(13) 0.21305(12)
H23 H 0.1156 1.0843 0.2245
H24 H 0.0628 1.0163 0.2489
H25 H 0.0266 1.0390 0.1787
C25 C 0.2072(2) 1.00384(11) 0.19320(11)
C26 C 0.2822(2) 0.89596(10) 0.16682(11)
C27 C 0.3284(2) 0.84530(10) 0.20661(10)
H26 H 0.2989 0.8401 0.2466
C28 C 0.4190(2) 0.80249(10) 0.18598(10)
C29 C 0.4686(2) 0.80982(10) 0.12739(10)
C30 C 0.4177(2) 0.86225(10) 0.08929(10)
C31 C 0.3241(2) 0.90465(11) 0.10742(11)
H27 H 0.2899 0.9382 0.0804
C32 C 0.5496(2) 0.91418(11) 0.01763(11)
C33 C 0.5896(3) 0.90685(14) -0.04741(12)
H28 H 0.6474 0.9425 -0.0559
H29 H 0.5152 0.9087 -0.0774
H30 H 0.6322 0.8645 -0.0511
C34 C 0.5754(3) 0.74741(13) 0.25620(13)
C35 C 0.6016(3) 0.68235(15) 0.28887(15)
H31 H 0.6352 0.6511 0.2600
H32 H 0.5232 0.6650 0.3030
H33 H 0.6633 0.6889 0.3247
C36 C 0.5702(2) 0.76472(12) 0.10390(11)
C37 C 0.5479(3) 0.69084(12) 0.10471(14)
H34 H 0.5224 0.6785 0.1462
H35 H 0.4765 0.6804 0.0738
C38 C 0.6583(3) 0.64941(13) 0.09118(18)
H36 H 0.7328 0.6642 0.1182
H37 H 0.6762 0.6572 0.0476
C39 C 0.6418(3) 0.57476(12) 0.10063(14)
C40 C 0.5273(3) 0.54222(14) 0.08496(19)
H38 H 0.4559 0.5668 0.0690
C41 C 0.5164(3) 0.47374(15) 0.09256(18)
H39 H 0.4383 0.4524 0.0818
C42 C 0.6202(3) 0.43776(13) 0.11574(12)
C43 C 0.7345(3) 0.46857(14) 0.13230(13)
H40 H 0.8054 0.4439 0.1486
C44 C 0.7435(3) 0.53680(13) 0.12452(14)
H41 H 0.8217 0.5578 0.1359
C45 C 0.6352(3) 0.32765(13) 0.07708(14)
C46 C 0.5976(4) 0.25754(14) 0.08841(17)
H42 H 0.5059 0.2532 0.0809
H43 H 0.6241 0.2455 0.1315
H44 H 0.6384 0.2284 0.0601
loop_
_geom_bond_atom_site_label_1
_geom_bond_atom_site_label_2
_geom_bond_site_symmetry_1
_geom_bond_site_symmetry_2
O1 C2 1_555 1_555
O2 C2 1_555 1_555
O3 C9 1_555 1_555
O4 C5 1_555 1_555
O5 C7 1_555 1_555
O6 C11 1_555 1_555
O7 C13 1_555 1_555
O8 C19 1_555 1_555
O9 C22 1_555 1_555
C1 H1 1_555 1_555
H2 C1 1_555 1_555
H3 C1 1_555 1_555
C2 C1 1_555 1_555
C3 O2 1_555 1_555
C4 C3 1_555 1_555
H4 C4 1_555 1_555
C5 C4 1_555 1_555
C6 C5 1_555 1_555
C7 C6 1_555 1_555
C8 C3 1_555 1_555
H5 C8 1_555 1_555
C9 O4 1_555 1_555
C10 C9 1_555 1_555
H6 C10 1_555 1_555
H7 C10 1_555 1_555
H8 C10 1_555 1_555
C11 O5 1_555 1_555
C12 C11 1_555 1_555
H9 C12 1_555 1_555
H10 C12 1_555 1_555
H11 C12 1_555 1_555
C13 C6 1_555 1_555
C14 C13 1_555 1_555
H12 C14 1_555 1_555
H13 C14 1_555 1_555
C15 C14 1_555 1_555
H14 C15 1_555 1_555
H15 C15 1_555 1_555
C16 C15 1_555 1_555
C17 C16 1_555 1_555
H16 C17 1_555 1_555
C18 C17 1_555 1_555
H17 C18 1_555 1_555
C19 C18 1_555 1_555
C20 C19 1_555 1_555
H18 C20 1_555 1_555
C21 C16 1_555 1_555
H19 C21 1_555 1_555
C22 O8 1_555 1_555
C23 C22 1_555 1_555
H20 C23 1_555 1_555
H21 C23 1_555 1_555
H22 C23 1_555 1_555
O10 C25 1_555 1_555
O11 C25 1_555 1_555
O12 C32 1_555 1_555
O13 C30 1_555 1_555
O14 C34 1_555 1_555
O15 C28 1_555 1_555
O16 C36 1_555 1_555
O17 C42 1_555 1_555
O18 C45 1_555 1_555
C24 H23 1_555 1_555
H24 C24 1_555 1_555
H25 C24 1_555 1_555
C25 C24 1_555 1_555
C26 O11 1_555 1_555
C27 C26 1_555 1_555
H26 C27 1_555 1_555
C28 C27 1_555 1_555
C29 C28 1_555 1_555
C30 C29 1_555 1_555
C31 C26 1_555 1_555
H27 C31 1_555 1_555
C32 O13 1_555 1_555
C33 C32 1_555 1_555
H28 C33 1_555 1_555
H29 C33 1_555 1_555
H30 C33 1_555 1_555
C34 O15 1_555 1_555
C35 C34 1_555 1_555
H31 C35 1_555 1_555
H32 C35 1_555 1_555
H33 C35 1_555 1_555
C36 C29 1_555 1_555
C37 C36 1_555 1_555
H34 C37 1_555 1_555
H35 C37 1_555 1_555
C38 C37 1_555 1_555
H36 C38 1_555 1_555
H37 C38 1_555 1_555
C39 C38 1_555 1_555
C40 C39 1_555 1_555
H38 C40 1_555 1_555
C41 C40 1_555 1_555
H39 C41 1_555 1_555
C42 C41 1_555 1_555
C43 C42 1_555 1_555
H40 C43 1_555 1_555
C44 C39 1_555 1_555
H41 C44 1_555 1_555
C45 O17 1_555 1_555
C46 C45 1_555 1_555
H42 C46 1_555 1_555
H43 C46 1_555 1_555
H44 C46 1_555 1_555
C7 C8 1_555 1_555
C20 C21 1_555 1_555
C30 C31 1_555 1_555
C43 C44 1_555 1_555

#END
