
#######################################################################
#
#                 Cambridge Crystallographic Data Centre
#                                CCDC 
#
#######################################################################
#
# If this CIF has been generated from an entry in the Cambridge 
# Structural Database, then it will include bibliographic, chemical, 
# crystal, experimental, refinement or atomic coordinate data resulting 
# from the CCDC's data processing and validation procedures.
#
#######################################################################

data_MUZSUW
_chemical_formula_moiety         'C23 H19 N1 O3'
_chemical_name_systematic        
'16-Hydroxytetracyclo[7.7.1.0^2,7^.0^10,15^]heptadeca-2,4,6,10,12,14-hexaen-8-yl pyridine-2-carboxylate'
_symmetry_cell_setting           rhombohedral
_symmetry_space_group_name_H-M   'R -3'
_symmetry_Int_Tables_number      148
_space_group_name_Hall           '-R 3'
loop_
_symmetry_equiv_pos_site_id
_symmetry_equiv_pos_as_xyz
1 x,y,z
2 -y,x-y,z
3 -x+y,-x,z
4 2/3+x,1/3+y,1/3+z
5 2/3-y,1/3+x-y,1/3+z
6 2/3-x+y,1/3-x,1/3+z
7 1/3+x,2/3+y,2/3+z
8 1/3-y,2/3+x-y,2/3+z
9 1/3-x+y,2/3-x,2/3+z
10 -x,-y,-z
11 y,-x+y,-z
12 x-y,x,-z
13 1/3-x,2/3-y,2/3-z
14 1/3+y,2/3-x+y,2/3-z
15 1/3+x-y,2/3+x,2/3-z
16 2/3-x,1/3-y,1/3-z
17 2/3+y,1/3-x+y,1/3-z
18 2/3+x-y,1/3+x,1/3-z
_cell_length_a                   29.891(5)
_cell_length_b                   29.891(5)
_cell_length_c                   10.3773(17)
_cell_angle_alpha                90
_cell_angle_beta                 90
_cell_angle_gamma                120
_cell_volume                     8029.64
_exptl_crystal_colour            colorless
_exptl_crystal_description       block
_cell_formula_units_Z            18
loop_
_atom_site_label
_atom_site_type_symbol
_atom_site_fract_x
_atom_site_fract_y
_atom_site_fract_z
C1 C 0.51970(4) 0.13469(4) 0.83813(11)
C2 C 0.52534(5) 0.14843(5) 0.96834(12)
H1 H 0.5224 0.1773 0.9943
C3 C 0.53517(5) 0.12084(5) 1.06034(12)
H2 H 0.5390 0.1309 1.1483
C4 C 0.53938(5) 0.07836(5) 1.02350(13)
H3 H 0.5460 0.0592 1.0861
C5 C 0.53388(5) 0.06424(4) 0.89487(12)
H4 H 0.5367 0.0352 0.8699
C6 C 0.52428(4) 0.09200(4) 0.80115(11)
C7 C 0.51650(4) 0.07421(4) 0.66209(12)
H5 H 0.4833 0.0407 0.6554
C8 C 0.51514(4) 0.11237(4) 0.56592(11)
H6 H 0.4991 0.0934 0.4841
C9 C 0.48016(4) 0.13119(5) 0.62276(12)
H7 H 0.4738 0.1517 0.5578
H8 H 0.4465 0.1013 0.6478
C10 C 0.50681(4) 0.16453(4) 0.74086(11)
H9 H 0.4824 0.1739 0.7824
C11 C 0.55442(4) 0.21463(4) 0.69389(11)
H10 H 0.5416 0.2362 0.6515
O1 O 0.58669(3) 0.24384(3) 0.79892(9)
H11 H 0.5807(6) 0.2677(7) 0.8156(16)
C12 C 0.58638(4) 0.20532(4) 0.59551(10)
C13 C 0.56795(4) 0.15772(4) 0.53454(10)
C14 C 0.59783(5) 0.15267(5) 0.43751(11)
H12 H 0.5855 0.1203 0.3957
C15 C 0.64514(5) 0.19432(5) 0.40179(12)
H13 H 0.6650 0.1904 0.3360
C16 C 0.66327(5) 0.24155(5) 0.46232(12)
H14 H 0.6956 0.2702 0.4380
C17 C 0.63423(4) 0.24697(5) 0.55829(11)
H15 H 0.6469 0.2795 0.5997
O2 O 0.55881(3) 0.06557(3) 0.62598(8)
C18 C 0.55012(5) 0.01702(4) 0.62301(11)
O3 O 0.50915(4) -0.02098(3) 0.64636(10)
C19 C 0.59925(5) 0.01683(5) 0.59111(11)
C20 C 0.64592(6) 0.06229(6) 0.57913(13)
H16 H 0.6475 0.0948 0.5849
C21 C 0.69044(6) 0.05953(7) 0.55843(14)
H17 H 0.7231 0.0901 0.5505
C22 C 0.68608(6) 0.01155(7) 0.54964(13)
H18 H 0.7158 0.0082 0.5370
C23 C 0.63762(6) -0.03167(6) 0.55961(14)
H19 H 0.6349 -0.0646 0.5505
N1 N 0.59419(5) -0.03023(5) 0.58134(11)
loop_
_geom_bond_atom_site_label_1
_geom_bond_atom_site_label_2
_geom_bond_site_symmetry_1
_geom_bond_site_symmetry_2
C1 C2 1_555 1_555
C2 H1 1_555 1_555
C3 C2 1_555 1_555
H2 C3 1_555 1_555
C4 C3 1_555 1_555
H3 C4 1_555 1_555
C5 C4 1_555 1_555
H4 C5 1_555 1_555
C6 C1 1_555 1_555
C7 C6 1_555 1_555
H5 C7 1_555 1_555
C8 C7 1_555 1_555
H6 C8 1_555 1_555
C9 C8 1_555 1_555
H7 C9 1_555 1_555
H8 C9 1_555 1_555
C10 C1 1_555 1_555
H9 C10 1_555 1_555
C11 C10 1_555 1_555
H10 C11 1_555 1_555
O1 C11 1_555 1_555
H11 O1 1_555 1_555
C12 C11 1_555 1_555
C13 C8 1_555 1_555
C14 C13 1_555 1_555
H12 C14 1_555 1_555
C15 C14 1_555 1_555
H13 C15 1_555 1_555
C16 C15 1_555 1_555
H14 C16 1_555 1_555
C17 C12 1_555 1_555
H15 C17 1_555 1_555
O2 C7 1_555 1_555
C18 O2 1_555 1_555
O3 C18 1_555 1_555
C19 C18 1_555 1_555
C20 C19 1_555 1_555
H16 C20 1_555 1_555
C21 C20 1_555 1_555
H17 C21 1_555 1_555
C22 C21 1_555 1_555
H18 C22 1_555 1_555
C23 C22 1_555 1_555
H19 C23 1_555 1_555
N1 C19 1_555 1_555
C5 C6 1_555 1_555
C9 C10 1_555 1_555
C12 C13 1_555 1_555
C16 C17 1_555 1_555
C23 N1 1_555 1_555

#END
