
#######################################################################
#
#                 Cambridge Crystallographic Data Centre
#                                CCDC 
#
#######################################################################
#
# If this CIF has been generated from an entry in the Cambridge 
# Structural Database, then it will include bibliographic, chemical, 
# crystal, experimental, refinement or atomic coordinate data resulting 
# from the CCDC's data processing and validation procedures.
#
#######################################################################

data_MUZTAD
_chemical_formula_moiety         'C23 H21 N1 O2'
_chemical_name_systematic        
16-(Pyridin-4-ylmethoxy)tetracyclo[7.7.1.0^2,7^.0^10,15^]heptadeca-2,4,6,10,12,14-hexaen-8-ol
_symmetry_cell_setting           monoclinic
_symmetry_space_group_name_H-M   'P 21/c'
_symmetry_Int_Tables_number      14
_space_group_name_Hall           '-P 2ybc'
loop_
_symmetry_equiv_pos_site_id
_symmetry_equiv_pos_as_xyz
1 x,y,z
2 -x,1/2+y,1/2-z
3 -x,-y,-z
4 x,1/2-y,1/2+z
_cell_length_a                   13.193(3)
_cell_length_b                   13.011(3)
_cell_length_c                   10.553(2)
_cell_angle_alpha                90
_cell_angle_beta                 104.612(3)
_cell_angle_gamma                90
_cell_volume                     1752.88
_exptl_crystal_colour            colorless
_exptl_crystal_description       lath
_cell_formula_units_Z            4
loop_
_atom_site_label
_atom_site_type_symbol
_atom_site_fract_x
_atom_site_fract_y
_atom_site_fract_z
C1 C 0.8601(4) 0.4007(4) 0.8775(4)
C2 C 0.9266(5) 0.4598(5) 0.8317(6)
H1 H 0.9220 0.5325 0.8365
C3 C 1.0000(5) 0.4173(5) 0.7789(8)
H2 H 1.0454 0.4604 0.7458
C4 C 1.0098(4) 0.3098(6) 0.7724(8)
H3 H 1.0593 0.2794 0.7323
C5 C 0.9434(4) 0.2488(4) 0.8277(6)
H4 H 0.9496 0.1760 0.8288
C6 C 0.8698(3) 0.2955(3) 0.8797(4)
C7 C 0.8012(6) 0.2275(4) 0.9446(4)
H5 H 0.8422 0.2161 1.0370
C8 C 0.7032(6) 0.2782(4) 0.9516(5)
H6 H 0.6676 0.2347 1.0056
C9 C 0.7365(7) 0.3818(4) 1.0246(5)
H7 H 0.6770 0.4118 1.0533
H8 H 0.7952 0.3704 1.1029
C10 C 0.7697(5) 0.4526(3) 0.9307(4)
H9 H 0.7990 0.5163 0.9796
C11 C 0.6797(5) 0.4836(4) 0.8200(5)
H10 H 0.6320 0.5267 0.8582
O1 O 0.7091(3) 0.5444(2) 0.7224(3)
H11 H 0.7209 0.6050 0.7497
C12 C 0.6186(4) 0.3911(4) 0.7601(6)
C13 C 0.6295(4) 0.2938(3) 0.8184(5)
C14 C 0.5660(4) 0.2147(4) 0.7506(6)
H12 H 0.5712 0.1485 0.7896
C15 C 0.4973(4) 0.2281(5) 0.6319(7)
H13 H 0.4570 0.1720 0.5885
C16 C 0.4873(4) 0.3221(5) 0.5767(8)
H14 H 0.4393 0.3319 0.4938
C17 C 0.5444(4) 0.4034(4) 0.6371(7)
H15 H 0.5347 0.4691 0.5967
O2 O 0.7839(3) 0.1271(2) 0.8837(2)
C18 C 0.7703(6) 0.0516(3) 0.9732(4)
H16 H 0.7055 0.0660 1.0012
H17 H 0.8300 0.0536 1.0518
C19 C 0.7631(4) -0.0530(3) 0.9121(4)
C20 C 0.7146(5) -0.0716(3) 0.7828(4)
H18 H 0.6865 -0.0161 0.7263
C21 C 0.7066(4) -0.1701(3) 0.7353(4)
H19 H 0.6720 -0.1806 0.6457
N1 N 0.7445(3) -0.2523(3) 0.8076(3)
C22 C 0.7931(3) -0.2342(3) 0.9328(4)
H20 H 0.8220 -0.2910 0.9865
C23 C 0.8034(4) -0.1377(3) 0.9882(4)
H21 H 0.8381 -0.1292 1.0781
loop_
_geom_bond_atom_site_label_1
_geom_bond_atom_site_label_2
_geom_bond_site_symmetry_1
_geom_bond_site_symmetry_2
C1 C2 1_555 1_555
C2 H1 1_555 1_555
C3 C2 1_555 1_555
H2 C3 1_555 1_555
C4 C3 1_555 1_555
H3 C4 1_555 1_555
C5 C4 1_555 1_555
H4 C5 1_555 1_555
C6 C1 1_555 1_555
C7 C6 1_555 1_555
H5 C7 1_555 1_555
C8 C7 1_555 1_555
H6 C8 1_555 1_555
C9 C8 1_555 1_555
H7 C9 1_555 1_555
H8 C9 1_555 1_555
C10 C1 1_555 1_555
H9 C10 1_555 1_555
C11 C10 1_555 1_555
H10 C11 1_555 1_555
O1 C11 1_555 1_555
H11 O1 1_555 1_555
C12 C11 1_555 1_555
C13 C8 1_555 1_555
C14 C13 1_555 1_555
H12 C14 1_555 1_555
C15 C14 1_555 1_555
H13 C15 1_555 1_555
C16 C15 1_555 1_555
H14 C16 1_555 1_555
C17 C12 1_555 1_555
H15 C17 1_555 1_555
O2 C7 1_555 1_555
C18 O2 1_555 1_555
H16 C18 1_555 1_555
H17 C18 1_555 1_555
C19 C18 1_555 1_555
C20 C19 1_555 1_555
H18 C20 1_555 1_555
C21 C20 1_555 1_555
H19 C21 1_555 1_555
N1 C21 1_555 1_555
C22 N1 1_555 1_555
H20 C22 1_555 1_555
C23 C19 1_555 1_555
H21 C23 1_555 1_555
C5 C6 1_555 1_555
C9 C10 1_555 1_555
C12 C13 1_555 1_555
C16 C17 1_555 1_555
C22 C23 1_555 1_555

#END
