
#######################################################################
#
#                 Cambridge Crystallographic Data Centre
#                                CCDC 
#
#######################################################################
#
# If this CIF has been generated from an entry in the Cambridge 
# Structural Database, then it will include bibliographic, chemical, 
# crystal, experimental, refinement or atomic coordinate data resulting 
# from the CCDC's data processing and validation procedures.
#
#######################################################################

data_MUZWUB02
_chemical_formula_moiety         'C3 H5 N2 1+,2(C1 H4 N2 S1),Cl1 1-'
_chemical_name_systematic        '1H-Imidazol-3-ium chloride bis(thiourea)'
_symmetry_cell_setting           orthorhombic
_symmetry_space_group_name_H-M   'C m c m'
_symmetry_Int_Tables_number      63
_space_group_name_Hall           '-C 2n 2'
loop_
_symmetry_equiv_pos_site_id
_symmetry_equiv_pos_as_xyz
1 x,y,z
2 -x,-y,1/2+z
3 x,-y,-z
4 -x,y,1/2-z
5 1/2+x,1/2+y,z
6 1/2-x,1/2-y,1/2+z
7 1/2+x,1/2-y,-z
8 1/2-x,1/2+y,1/2-z
9 -x,-y,-z
10 x,y,1/2-z
11 -x,y,z
12 x,-y,1/2+z
13 1/2-x,1/2-y,-z
14 1/2+x,1/2+y,1/2-z
15 1/2-x,1/2+y,z
16 1/2+x,1/2-y,1/2+z
_cell_length_a                   14.750(10)
_cell_length_b                   9.887(10)
_cell_length_c                   8.419(7)
_cell_angle_alpha                90
_cell_angle_beta                 90
_cell_angle_gamma                90
_cell_volume                     1227.77
_exptl_crystal_colour            colorless
_exptl_crystal_description       needlelike
_cell_formula_units_Z            4
loop_
_atom_site_label
_atom_site_type_symbol
_atom_site_fract_x
_atom_site_fract_y
_atom_site_fract_z
C2 C 0.5647(18) 0.522(2) 0.523(5)
H3 H 0.6286 0.5320 0.5412
C3 C 0.5219(16) 0.418(3) 0.461(4)
H4 H 0.5503 0.3366 0.4240
C4 C 0.4207(17) 0.562(4) 0.500(4)
H5 H 0.3629 0.6048 0.5134
N2 N 0.4349(16) 0.436(4) 0.444(3)
H6 H 0.3932 0.3779 0.4054
N3 N 0.5000 0.616(2) 0.550(3)
H7 H 0.5095 0.6982 0.5925
C2B C 0.5647(18) 0.478(2) 0.477(5)
H3B H 0.6286 0.4680 0.4588
C3B C 0.5219(16) 0.582(3) 0.539(4)
H4B H 0.5503 0.6634 0.5760
C4B C 0.4207(17) 0.438(4) 0.500(4)
H5B H 0.3629 0.3952 0.4866
N2B N 0.4349(16) 0.564(4) 0.556(3)
H6B H 0.3932 0.6221 0.5946
N3B N 0.5000 0.384(2) 0.450(3)
H7B H 0.5095 0.3018 0.4075
C2H C 0.4353(18) 0.478(2) 0.477(5)
H3H H 0.3714 0.4680 0.4588
C3H C 0.4781(16) 0.582(3) 0.539(4)
H4H H 0.4497 0.6634 0.5760
C4H C 0.5793(17) 0.438(4) 0.500(4)
H5H H 0.6371 0.3952 0.4866
N2H N 0.5651(16) 0.564(4) 0.556(3)
H6H H 0.6068 0.6221 0.5946
H7H H 0.4905 0.3018 0.4075
C2J C 0.4353(18) 0.522(2) 0.523(5)
H3J H 0.3714 0.5320 0.5412
C3J C 0.4781(16) 0.418(3) 0.461(4)
H4J H 0.4497 0.3366 0.4240
C4J C 0.5793(17) 0.562(4) 0.500(4)
H5J H 0.6371 0.6048 0.5134
N2J N 0.5651(16) 0.436(4) 0.444(3)
H6J H 0.6068 0.3779 0.4054
H7J H 0.4905 0.6982 0.5925
Cl1 Cl 0.5000 0.90128(12) 0.7500
C1 C 0.6827(2) 0.1758(3) 0.7500
N1 N 0.64583(16) 0.1340(2) 0.8840(2)
H1 H 0.5994 0.0815 0.8820
H2 H 0.6682 0.1594 0.9735
S1 S 0.77488(8) 0.28006(13) 0.7500
N1I N 0.64583(16) 0.1340(2) 0.6160(2)
H1I H 0.5994 0.0815 0.6180
H2I H 0.6682 0.1594 0.5265
loop_
_geom_bond_atom_site_label_1
_geom_bond_atom_site_label_2
_geom_bond_site_symmetry_1
_geom_bond_site_symmetry_2
C1 N1 1_555 1_555
N1 H1 1_555 1_555
H2 N1 1_555 1_555
S1 C1 1_555 1_555
C2 H3 1_555 1_555
H3 C2B 1_555 1_555
C3 H4 1_555 1_555
H4 N3B 1_555 1_555
C4 H5 1_555 1_555
H5 N2B 1_555 1_555
N2 C4 1_555 1_555
H6 N2 1_555 1_555
N3 C2 1_555 1_555
H7 N3 1_555 1_555
N1I C1 1_555 1_555
H1I N1I 1_555 1_555
H2I N1I 1_555 1_555
C2B C2 1_555 1_555
H3B C2 1_555 1_555
C3B H7 1_555 1_555
H4B N3 1_555 1_555
C4B C4 1_555 1_555
H5B N2 1_555 1_555
N2B N2 1_555 1_555
H6B C4 1_555 1_555
N3B C2 1_555 1_555
H7B C3 1_555 1_555
C2H C4 1_555 1_555
H3H C4 1_555 1_555
C3H H7 1_555 1_555
H4H C4 1_555 1_555
C4H C2 1_555 1_555
H5H C2B 1_555 1_555
N2H H3 1_555 1_555
H6H C2 1_555 1_555
H7H C3 1_555 1_555
C2J H5 1_555 1_555
H3J C4 1_555 1_555
C3J H7B 1_555 1_555
H4J N2 1_555 1_555
C4J H3 1_555 1_555
H5J C2 1_555 1_555
N2J C2 1_555 1_555
H6J C2B 1_555 1_555
H7J N3 1_555 1_555
H3 C4H 1_555 1_555
H4 C4H 1_555 1_555
H4 N2J 1_555 1_555
C4 N3 1_555 1_555
N2 N3B 1_555 1_555
N2 H3H 1_555 1_555
N2 C2J 1_555 1_555
H6 C4B 1_555 1_555
H6 C2H 1_555 1_555
N3 C2B 1_555 1_555
N3 N2B 1_555 1_555
N3 C2H 1_555 1_555
N3 H4H 1_555 1_555
N3 N2H 1_555 1_555
N3 C2J 1_555 1_555
N3 C4J 1_555 1_555
C2B H3B 1_555 1_555
C2B N3B 1_555 1_555
C2B N2H 1_555 1_555
C2B C4J 1_555 1_555
H3B C4H 1_555 1_555
H3B C4J 1_555 1_555
H3B N2J 1_555 1_555
C3B H4B 1_555 1_555
C3B H7J 1_555 1_555
H4B N2H 1_555 1_555
H4B C4J 1_555 1_555
C4B H5B 1_555 1_555
C4B N2B 1_555 1_555
C4B N3B 1_555 1_555
C4B H3H 1_555 1_555
C4B C2J 1_555 1_555
C4B H3J 1_555 1_555
C4B H4J 1_555 1_555
H5B C2H 1_555 1_555
N2B H6B 1_555 1_555
N2B C2H 1_555 1_555
N2B H4H 1_555 1_555
N2B H3J 1_555 1_555
H6B C2J 1_555 1_555
N3B H7B 1_555 1_555
N3B C2H 1_555 1_555
N3B C4H 1_555 1_555
N3B H7H 1_555 1_555
N3B C2J 1_555 1_555
N3B H4J 1_555 1_555
N3B N2J 1_555 1_555
C2H H3H 1_555 1_555
C2H C2J 1_555 1_555
C2H H3J 1_555 1_555
H3H C2J 1_555 1_555
C3H H4H 1_555 1_555
C3H H7J 1_555 1_555
C4H H5H 1_555 1_555
C4H N2H 1_555 1_555
C4H C4J 1_555 1_555
C4H H6J 1_555 1_555
H5H N2J 1_555 1_555
N2H H6H 1_555 1_555
N2H H5J 1_555 1_555
N2H N2J 1_555 1_555
H6H C4J 1_555 1_555
H7H C3J 1_555 1_555
C2J H3J 1_555 1_555
C3J H4J 1_555 1_555
C4J H5J 1_555 1_555
C4J N2J 1_555 1_555
N2J H6J 1_555 1_555

#END
