
#######################################################################
#
#                 Cambridge Crystallographic Data Centre
#                                CCDC 
#
#######################################################################
#
# If this CIF has been generated from an entry in the Cambridge 
# Structural Database, then it will include bibliographic, chemical, 
# crystal, experimental, refinement or atomic coordinate data resulting 
# from the CCDC's data processing and validation procedures.
#
#######################################################################

data_MUZZEN
_chemical_formula_moiety         'C15 H16 O4'
_chemical_name_systematic        
'Ethyl 6-methyl-2-oxo-4-phenyl-3,4-dihydro-2H-pyran-5-carboxylate'
_symmetry_cell_setting           monoclinic
_symmetry_space_group_name_H-M   'C c'
_symmetry_Int_Tables_number      9
_space_group_name_Hall           'C -2yc'
loop_
_symmetry_equiv_pos_site_id
_symmetry_equiv_pos_as_xyz
1 x,y,z
2 x,-y,1/2+z
3 1/2+x,1/2+y,z
4 1/2+x,1/2-y,1/2+z
_cell_length_a                   9.417(6)
_cell_length_b                   34.16(2)
_cell_length_c                   9.723(6)
_cell_angle_alpha                90
_cell_angle_beta                 117.217(11)
_cell_angle_gamma                90
_cell_volume                     2781.44
_exptl_crystal_colour            colorless
_exptl_crystal_description       prismatic
_cell_formula_units_Z            8
loop_
_atom_site_label
_atom_site_type_symbol
_atom_site_fract_x
_atom_site_fract_y
_atom_site_fract_z
O1 O 0.3591(7) 0.01194(18) -0.2430(6)
O2 O 0.4213(5) 0.05242(14) -0.0481(5)
O3 O 0.7832(5) 0.09001(15) 0.4052(5)
O4 O 0.9556(5) 0.06735(11) 0.3240(4)
C1 C 0.4519(8) 0.01895(18) -0.1132(8)
C2 C 0.5935(8) -0.00411(17) -0.0071(7)
H1 H 0.6210 -0.0225 -0.0671
H2 H 0.5672 -0.0190 0.0631
C3 C 0.7404(6) 0.02241(15) 0.0884(6)
H3 H 0.8178 0.0064 0.1732
C4 C 0.6862(6) 0.05535(16) 0.1621(6)
C5 C 0.5353(7) 0.06690(16) 0.0961(7)
C6 C 0.4545(9) 0.0962(2) 0.1501(9)
H4 H 0.3743 0.0834 0.1688
H5 H 0.4056 0.1160 0.0723
H6 H 0.5318 0.1081 0.2440
C7 C 0.8245(6) 0.03720(13) -0.0046(6)
C8 C 0.9757(7) 0.02361(17) 0.0290(7)
H7 H 1.0240 0.0057 0.1091
C9 C 1.0569(9) 0.0352(2) -0.0494(9)
H8 H 1.1579 0.0253 -0.0236
C10 C 0.9858(9) 0.0621(2) -0.1684(9)
H9 H 1.0397 0.0708 -0.2223
C11 C 0.8338(10) 0.07600(18) -0.2064(8)
H10 H 0.7855 0.0935 -0.2881
C12 C 0.7527(8) 0.06427(16) -0.1253(7)
H11 H 0.6519 0.0742 -0.1506
C13 C 0.8076(6) 0.07292(16) 0.3078(6)
C14 C 1.0901(7) 0.0841(2) 0.4572(7)
H12 H 1.1002 0.0719 0.5514
H13 H 1.0738 0.1120 0.4631
C15 C 1.2373(9) 0.0772(2) 0.4404(9)
H14 H 1.2600 0.0497 0.4479
H15 H 1.3252 0.0908 0.5210
H16 H 1.2217 0.0867 0.3416
O5 O 0.3236(9) 0.24224(19) 0.1068(8)
O6 O 0.4600(6) 0.20533(16) 0.3097(6)
O7 O 0.4979(7) 0.1550(2) 0.7296(7)
O8 O 0.2657(7) 0.18371(16) 0.6682(6)
C16 C 0.3495(9) 0.2352(2) 0.2352(9)
C17 C 0.2831(8) 0.25406(18) 0.3288(8)
H17 H 0.1906 0.2695 0.2619
H18 H 0.3621 0.2717 0.4023
C18 C 0.2332(7) 0.22346(16) 0.4182(7)
H19 H 0.2139 0.2377 0.4955
C19 C 0.3748(7) 0.19658(16) 0.5041(6)
C20 C 0.4814(8) 0.19007(18) 0.4503(8)
C21 C 0.6325(10) 0.1668(3) 0.5207(11)
H20 H 0.6745 0.1667 0.6312
H21 H 0.7091 0.1784 0.4934
H22 H 0.6109 0.1404 0.4827
C22 C 0.0791(7) 0.20247(17) 0.3114(7)
C23 C -0.0652(8) 0.2132(2) 0.3054(9)
H23 H -0.0673 0.2330 0.3699
C24 C -0.2087(9) 0.1948(3) 0.2042(12)
H24 H -0.3043 0.2023 0.2028
C25 C -0.2077(11) 0.1649(3) 0.1048(10)
H25 H -0.3019 0.1528 0.0355
C26 C -0.0669(11) 0.1545(3) 0.1133(9)
H26 H -0.0647 0.1342 0.0503
C27 C 0.0762(9) 0.1724(2) 0.2118(8)
H27 H 0.1706 0.1645 0.2117
C28 C 0.3885(8) 0.1767(2) 0.6438(8)
C29 C 0.2617(12) 0.1650(3) 0.8006(11)
H28 H 0.2822 0.1372 0.8004
H29 H 0.3430 0.1762 0.8958
C30 C 0.1050(15) 0.1714(4) 0.7895(15)
H30 H 0.0870 0.1990 0.7920
H31 H 0.0987 0.1589 0.8749
H32 H 0.0255 0.1606 0.6942
loop_
_geom_bond_atom_site_label_1
_geom_bond_atom_site_label_2
_geom_bond_site_symmetry_1
_geom_bond_site_symmetry_2
O1 C1 1_555 1_555
O2 C1 1_555 1_555
O3 C13 1_555 1_555
O4 C13 1_555 1_555
O5 C16 1_555 1_555
O6 C16 1_555 1_555
O7 C28 1_555 1_555
O8 C28 1_555 1_555
C1 C2 1_555 1_555
C2 H1 1_555 1_555
H2 C2 1_555 1_555
C3 C2 1_555 1_555
H3 C3 1_555 1_555
C4 C3 1_555 1_555
C5 O2 1_555 1_555
C6 C5 1_555 1_555
H4 C6 1_555 1_555
H5 C6 1_555 1_555
H6 C6 1_555 1_555
C7 C3 1_555 1_555
C8 C7 1_555 1_555
H7 C8 1_555 1_555
C9 C8 1_555 1_555
H8 C9 1_555 1_555
C10 C9 1_555 1_555
H9 C10 1_555 1_555
C11 C10 1_555 1_555
H10 C11 1_555 1_555
C12 C7 1_555 1_555
H11 C12 1_555 1_555
C13 C4 1_555 1_555
C14 O4 1_555 1_555
H12 C14 1_555 1_555
H13 C14 1_555 1_555
C15 C14 1_555 1_555
H14 C15 1_555 1_555
H15 C15 1_555 1_555
H16 C15 1_555 1_555
C16 C17 1_555 1_555
C17 H17 1_555 1_555
H18 C17 1_555 1_555
C18 C17 1_555 1_555
H19 C18 1_555 1_555
C19 C18 1_555 1_555
C20 O6 1_555 1_555
C21 C20 1_555 1_555
H20 C21 1_555 1_555
H21 C21 1_555 1_555
H22 C21 1_555 1_555
C22 C18 1_555 1_555
C23 C22 1_555 1_555
H23 C23 1_555 1_555
C24 C23 1_555 1_555
H24 C24 1_555 1_555
C25 C24 1_555 1_555
H25 C25 1_555 1_555
C26 C25 1_555 1_555
H26 C26 1_555 1_555
C27 C22 1_555 1_555
H27 C27 1_555 1_555
C28 C19 1_555 1_555
C29 O8 1_555 1_555
H28 C29 1_555 1_555
H29 C29 1_555 1_555
C30 C29 1_555 1_555
H30 C30 1_555 1_555
H31 C30 1_555 1_555
H32 C30 1_555 1_555
C4 C5 1_555 1_555
C11 C12 1_555 1_555
C19 C20 1_555 1_555
C26 C27 1_555 1_555

#END
