
#######################################################################
#
#                 Cambridge Crystallographic Data Centre
#                                CCDC 
#
#######################################################################
#
# If this CIF has been generated from an entry in the Cambridge 
# Structural Database, then it will include bibliographic, chemical, 
# crystal, experimental, refinement or atomic coordinate data resulting 
# from the CCDC's data processing and validation procedures.
#
#######################################################################

data_MXCBCO
_chemical_formula_moiety         'C11 H14 Cl1 N1 O1'
_chemical_name_systematic        
1-Methoxy-3-methyl-6-chloro-6-cyano-bicyclo(2.2.2)oct-2-ene
_symmetry_cell_setting           monoclinic
_symmetry_space_group_name_H-M   'P 21/c'
_symmetry_Int_Tables_number      14
_space_group_name_Hall           '-P 2ybc'
loop_
_symmetry_equiv_pos_site_id
_symmetry_equiv_pos_as_xyz
1 x,y,z
2 -x,1/2+y,1/2-z
3 -x,-y,-z
4 x,1/2-y,1/2+z
_cell_length_a                   10.203(2)
_cell_length_b                   8.559(2)
_cell_length_c                   12.380(2)
_cell_angle_alpha                90
_cell_angle_beta                 93.47(2)
_cell_angle_gamma                90
_cell_volume                     1079.13
_cell_formula_units_Z            4
loop_
_atom_site_label
_atom_site_type_symbol
_atom_site_fract_x
_atom_site_fract_y
_atom_site_fract_z
Cl1 Cl 0.11417 0.39065 0.44578
O1 O 0.40490 0.33840 0.44520
N1 N 0.26380 0.55830 0.22590
C1 C 0.33010 0.22540 0.38550
C2 C 0.28160 0.09230 0.45100
C3 C 0.20260 -0.00740 0.39780
C4 C 0.18080 0.03090 0.27920
C5 C 0.12040 0.19540 0.26850
C6 C 0.20580 0.31200 0.33740
C7 C 0.39960 0.16060 0.28770
C8 C 0.31470 0.03510 0.22950
C9 C 0.52670 0.28410 0.49460
C10 C 0.13700 -0.14500 0.44540
C11 C 0.24030 0.45080 0.27520
loop_
_geom_bond_atom_site_label_1
_geom_bond_atom_site_label_2
_geom_bond_site_symmetry_1
_geom_bond_site_symmetry_2
Cl1 C6 1_555 1_555
O1 C1 1_555 1_555
N1 C11 1_555 1_555
C1 C2 1_555 1_555
C2 C3 1_555 1_555
C3 C4 1_555 1_555
C4 C5 1_555 1_555
C5 C6 1_555 1_555
C6 C1 1_555 1_555
C7 C1 1_555 1_555
C8 C4 1_555 1_555
C9 O1 1_555 1_555
C10 C3 1_555 1_555
C11 C6 1_555 1_555
C7 C8 1_555 1_555

#END
