
#######################################################################
#
#                 Cambridge Crystallographic Data Centre
#                                CCDC 
#
#######################################################################
#
# If this CIF has been generated from an entry in the Cambridge 
# Structural Database, then it will include bibliographic, chemical, 
# crystal, experimental, refinement or atomic coordinate data resulting 
# from the CCDC's data processing and validation procedures.
#
#######################################################################

data_MYCPHA02
_chemical_name_common            'mycophenolic acid'
_chemical_formula_moiety         'C17 H20 O6'
_chemical_name_systematic        
'6-(4-hydroxy-6-methoxy-7-methyl-3-oxo-1,3-dihydro-2-benzofuran-5-yl)-4-methylhex-4-enoic acid'
_symmetry_cell_setting           triclinic
_symmetry_space_group_name_H-M   'P -1'
_symmetry_Int_Tables_number      2
_space_group_name_Hall           '-P 1'
loop_
_symmetry_equiv_pos_site_id
_symmetry_equiv_pos_as_xyz
1 x,y,z
2 -x,-y,-z
_cell_length_a                   7.3469(2)
_cell_length_b                   9.5469(3)
_cell_length_c                   11.6228(4)
_cell_angle_alpha                102.809(2)
_cell_angle_beta                 90.902(2)
_cell_angle_gamma                90.873(2)
_cell_volume                     794.692
_exptl_crystal_colour            colorless
_exptl_crystal_description       block
_cell_formula_units_Z            2
loop_
_atom_site_label
_atom_site_type_symbol
_atom_site_fract_x
_atom_site_fract_y
_atom_site_fract_z
C1 C 0.3308(3) -0.2509(3) 0.8928(3)
C2 C 0.3251(3) -0.1400(3) 1.0882(3)
H1 H 0.4327 -0.1050 1.1360
H2 H 0.2283 -0.1566 1.1397
C3 C 0.2677(3) -0.0343(2) 1.0169(2)
C4 C 0.2142(3) 0.1057(2) 1.05289(19)
C5 C 0.1653(3) 0.1730(2) 0.9613(2)
C6 C 0.1721(3) 0.1068(2) 0.84162(19)
C7 C 0.2257(3) -0.0358(2) 0.8115(2)
C8 C 0.2722(3) -0.1035(2) 0.9005(2)
C9 C 0.1235(3) 0.1860(3) 0.7466(2)
H3 H 0.0561 0.1214 0.6836
H4 H 0.0450 0.2652 0.7794
C10 C 0.2893(3) 0.2438(3) 0.6961(2)
H5 H 0.3654 0.3062 0.7493
C11 C 0.3377(4) 0.2153(3) 0.5851(2)
C12 C 0.5034(4) 0.2775(4) 0.5395(3)
H6 H 0.5705 0.1984 0.4933
H7 H 0.4624 0.3356 0.4858
C13 C 0.6298(4) 0.3645(4) 0.6241(3)
H8 H 0.6700 0.3086 0.6796
H9 H 0.5662 0.4471 0.6681
C14 C 0.7946(4) 0.4168(3) 0.5690(3)
C15 C 0.2036(4) 0.1783(3) 1.1807(2)
H10 H 0.1727 0.1086 1.2257
H11 H 0.1121 0.2505 1.1905
H12 H 0.3194 0.2225 1.2078
C16 C 0.2203(4) 0.4251(3) 1.0191(3)
H13 H 0.3087 0.4072 1.0756
H14 H 0.1570 0.5116 1.0519
H15 H 0.2808 0.4357 0.9488
C17 C 0.2317(6) 0.1140(5) 0.4883(3)
H16 H 0.1611 0.0480 0.5217
H17 H 0.3147 0.0615 0.4325
H18 H 0.1519 0.1680 0.4491
O1 O 0.3509(3) -0.3452(2) 0.8071(2)
O2 O 0.3630(2) -0.2687(2) 1.0037(2)
O3 O 0.0935(2) 0.30767(16) 0.99091(16)
O4 O 0.2272(3) -0.1036(2) 0.69556(16)
H19 H 0.2631 -0.1858 0.6894
O5 O 0.9122(3) 0.4875(3) 0.6459(2)
H20 H 0.9958 0.5174 0.6114
O6 O 0.8180(3) 0.3979(3) 0.4642(2)
loop_
_geom_bond_atom_site_label_1
_geom_bond_atom_site_label_2
_geom_bond_site_symmetry_1
_geom_bond_site_symmetry_2
C1 C8 1_555 1_555
C2 H1 1_555 1_555
H2 C2 1_555 1_555
C3 C2 1_555 1_555
C4 C3 1_555 1_555
C5 C4 1_555 1_555
C6 C5 1_555 1_555
C7 C6 1_555 1_555
C8 C3 1_555 1_555
C9 C6 1_555 1_555
H3 C9 1_555 1_555
H4 C9 1_555 1_555
C10 C9 1_555 1_555
H5 C10 1_555 1_555
C11 C10 1_555 1_555
C12 C11 1_555 1_555
H6 C12 1_555 1_555
H7 C12 1_555 1_555
C13 C12 1_555 1_555
H8 C13 1_555 1_555
H9 C13 1_555 1_555
C14 C13 1_555 1_555
C15 C4 1_555 1_555
H10 C15 1_555 1_555
H11 C15 1_555 1_555
H12 C15 1_555 1_555
C16 H13 1_555 1_555
H14 C16 1_555 1_555
H15 C16 1_555 1_555
C17 C11 1_555 1_555
H16 C17 1_555 1_555
H17 C17 1_555 1_555
H18 C17 1_555 1_555
O1 C1 1_555 1_555
O2 C1 1_555 1_555
O3 C5 1_555 1_555
O4 C7 1_555 1_555
H19 O4 1_555 1_555
O5 C14 1_555 1_555
H20 O5 1_555 1_555
O6 C14 1_555 1_555
C2 O2 1_555 1_555
C7 C8 1_555 1_555
C16 O3 1_555 1_555

#END
