
#######################################################################
#
#                 Cambridge Crystallographic Data Centre
#                                CCDC 
#
#######################################################################
#
# If this CIF has been generated from an entry in the Cambridge 
# Structural Database, then it will include bibliographic, chemical, 
# crystal, experimental, refinement or atomic coordinate data resulting 
# from the CCDC's data processing and validation procedures.
#
#######################################################################

data_NABJUW
_chemical_formula_moiety         'C42 H53 N3 O4 S1'
_chemical_name_systematic        
syn-anti-5-Amino-17-(N'-methylthioureido)-25,26,27,28-tetrakis(n-propoxy)calix(4)arene
_symmetry_cell_setting           orthorhombic
_symmetry_space_group_name_H-M   'P b c a'
_symmetry_Int_Tables_number      61
_space_group_name_Hall           '-P 2ac 2ab'
loop_
_symmetry_equiv_pos_site_id
_symmetry_equiv_pos_as_xyz
1 x,y,z
2 1/2-x,-y,1/2+z
3 -x,1/2+y,1/2-z
4 1/2+x,1/2-y,-z
5 -x,-y,-z
6 1/2+x,y,1/2-z
7 x,1/2-y,1/2+z
8 1/2-x,1/2+y,z
_cell_length_a                   10.646(4)
_cell_length_b                   18.820(10)
_cell_length_c                   40.113(15)
_cell_angle_alpha                90
_cell_angle_beta                 90
_cell_angle_gamma                90
_cell_volume                     8036.95
_chemical_melting_point          '205.8-207.3 deg.C'
_cell_formula_units_Z            8
loop_
_atom_site_label
_atom_site_type_symbol
_atom_site_fract_x
_atom_site_fract_y
_atom_site_fract_z
S1 S 0.04963(13) 0.11615(10) 0.21325(3)
O1 O -0.1026(4) 0.3486(2) 0.40402(8)
O2 O 0.1967(3) 0.33453(19) 0.38527(9)
O3 O 0.3257(3) 0.1681(2) 0.39936(8)
O4 O -0.0008(3) 0.1834(2) 0.40962(9)
N1 N -0.1340(7) 0.2688(4) 0.27030(14)
H1 H -0.208(6) 0.253(4) 0.2645(16)
H2 H -0.122(8) 0.304(4) 0.254(2)
N2 N 0.1102(4) 0.1675(2) 0.27250(10)
H3 H 0.0487 0.1972 0.2693
N3 N 0.2547(4) 0.0935(2) 0.24968(10)
H4 H 0.2984 0.1016 0.2676
C1 C -0.1334(5) 0.2918(3) 0.30378(13)
C2 C -0.0645(5) 0.3509(3) 0.31320(13)
H5 H -0.0247 0.3783 0.2967
C3 C -0.0528(5) 0.3707(3) 0.34651(13)
C4 C -0.1136(5) 0.3305(3) 0.37060(13)
C5 C -0.1821(5) 0.2692(3) 0.36163(13)
C6 C -0.1914(5) 0.2519(3) 0.32822(13)
H6 H -0.2387 0.2119 0.3220
C7 C 0.0309(5) 0.4340(3) 0.35509(14)
H7 H -0.0034 0.4771 0.3449
H8 H 0.0320 0.4409 0.3793
C8 C 0.1634(5) 0.4221(3) 0.34275(13)
C9 C 0.2386(5) 0.3694(3) 0.35715(12)
C10 C 0.3487(5) 0.3464(3) 0.34211(13)
C11 C 0.3915(6) 0.3828(3) 0.31395(14)
H9 H 0.4670 0.3692 0.3036
C12 C 0.3219(6) 0.4394(3) 0.30116(15)
H10 H 0.3532 0.4657 0.2830
C13 C 0.2080(6) 0.4569(3) 0.31492(15)
H11 H 0.1596 0.4933 0.3052
C14 C 0.4064(5) 0.2770(3) 0.35282(14)
H12 H 0.4235 0.2778 0.3768
H13 H 0.4859 0.2693 0.3410
C15 C 0.3135(4) 0.2171(3) 0.34456(12)
C16 C 0.2766(4) 0.1663(3) 0.36755(11)
C17 C 0.1840(5) 0.1160(3) 0.35971(12)
C18 C 0.1325(5) 0.1170(3) 0.32817(12)
H14 H 0.0713 0.0831 0.3224
C19 C 0.1695(5) 0.1668(3) 0.30489(12)
C20 C 0.2597(5) 0.2163(3) 0.31304(12)
H15 H 0.2852 0.2498 0.2971
C21 C 0.1319(5) 0.0644(3) 0.38572(13)
H16 H 0.1608 0.0161 0.3809
H17 H 0.1617 0.0777 0.4080
C22 C -0.0084(5) 0.0675(3) 0.38453(12)
C23 C -0.0788(6) 0.0156(3) 0.36897(13)
H18 H -0.0414 -0.0283 0.3638
C24 C -0.2028(6) 0.0271(3) 0.36101(13)
H19 H -0.2501 -0.0094 0.3511
C25 C -0.2575(5) 0.0912(4) 0.36743(13)
H20 H -0.3410 0.0990 0.3607
C26 C -0.1920(5) 0.1459(3) 0.38379(13)
C27 C -0.0695(5) 0.1305(3) 0.39339(12)
C28 C -0.2410(5) 0.2203(3) 0.38757(13)
H21 H -0.2215 0.2380 0.4100
H22 H -0.3325 0.2204 0.3849
C29 C 0.1442(5) 0.1253(3) 0.24697(12)
C30 C 0.3081(6) 0.0463(4) 0.22495(14)
H23 H 0.3895 0.0298 0.2325
H24 H 0.3177 0.0716 0.2040
H25 H 0.2528 0.0060 0.2217
C31 C -0.2033(7) 0.3926(4) 0.41568(16)
H26 H -0.2772 0.3631 0.4201
H27 H -0.2257 0.4270 0.3983
C32 C -0.2042(14) 0.3980(8) 0.4513(3)
H28 H -0.1189 0.4066 0.4595
H29 H -0.2350 0.3536 0.4611
C33 C -0.2930(10) 0.4616(6) 0.4615(2)
H30 H -0.2721 0.4870 0.4818
H31 H -0.3504 0.4231 0.4667
H32 H -0.3324 0.4939 0.4458
C34 C 0.2045(8) 0.3759(5) 0.4153(2)
H33 H 0.1392 0.3600 0.4308
H34 H 0.1882 0.4259 0.4099
C35 C 0.3291(9) 0.3700(6) 0.4318(2)
H35 H 0.3958 0.3812 0.4158
H36 H 0.3419 0.3213 0.4398
C36 C 0.3355(15) 0.4234(8) 0.4623(4)
H37 H 0.4166 0.4193 0.4731
H38 H 0.2696 0.4120 0.4782
H39 H 0.3241 0.4717 0.4543
C37 C 0.4269(6) 0.1204(4) 0.40423(16)
H40 H 0.3943 0.0717 0.4034
H41 H 0.4862 0.1258 0.3857
C38 C 0.4927(13) 0.1296(8) 0.4345(3)
H42 H 0.5075 0.1802 0.4388
H43 H 0.5739 0.1052 0.4336
C39 C 0.4167(16) 0.1002(10) 0.4598(4)
H44 H 0.4569 0.1072 0.4813
H45 H 0.4056 0.0498 0.4558
H46 H 0.3355 0.1235 0.4598
C40 C -0.0248(15) 0.1785(9) 0.4469(4)
H47 H -0.0195 0.1294 0.4549
H48 H -0.1067 0.1985 0.4529
C41 C 0.0891(14) 0.2263(8) 0.4608(3)
H49 H 0.1670 0.2098 0.4503
H50 H 0.0754 0.2754 0.4536
C42 C 0.106(2) 0.2261(12) 0.4951(5)
H51 H 0.1771 0.2558 0.5009
H52 H 0.1212 0.1779 0.5027
H53 H 0.0309 0.2444 0.5059
C43? C -0.169(2) 0.4302(13) 0.4456(6)
H54? H -0.1106 0.4687 0.4402
H55? H -0.1283 0.3978 0.4613
C44? C 0.281(2) 0.3430(14) 0.4146(6)
H56? H 0.3653 0.3568 0.4076
H57? H 0.2855 0.2987 0.4274
C45? C 0.218(3) 0.4022(16) 0.4351(7)
H58? H 0.1282 0.3928 0.4383
H59? H 0.2284 0.4486 0.4244
C46? C 0.290(2) 0.3988(13) 0.4690(5)
H60? H 0.2542 0.4328 0.4844
H61? H 0.3781 0.4103 0.4653
H62? H 0.2838 0.3514 0.4782
C47? C 0.445(3) 0.1339(19) 0.4482(8)
H63? H 0.4776 0.1814 0.4533
H64? H 0.3657 0.1265 0.4602
C48? C 0.542(3) 0.0752(14) 0.4561(6)
H65? H 0.5567 0.0736 0.4799
H66? H 0.6198 0.0854 0.4446
H67? H 0.5095 0.0296 0.4487
C49? C 0.030(2) 0.1736(10) 0.4421(4)
H68? H 0.1211 0.1651 0.4431
H69? H -0.0108 0.1298 0.4497
C50? C 0.002(3) 0.2267(14) 0.4653(6)
H70? H 0.0410 0.2706 0.4572
H71? H -0.0888 0.2340 0.4646
C51? C 0.035(3) 0.2203(17) 0.4983(7)
H72? H 0.0194 0.2649 0.5096
H73? H 0.1232 0.2083 0.5000
H74? H -0.0151 0.1831 0.5085
loop_
_geom_bond_atom_site_label_1
_geom_bond_atom_site_label_2
_geom_bond_site_symmetry_1
_geom_bond_site_symmetry_2
S1 C29 1_555 1_555
O1 C4 1_555 1_555
O2 C9 1_555 1_555
O3 C16 1_555 1_555
O4 C27 1_555 1_555
N1 H1 1_555 1_555
H2 N1 1_555 1_555
N2 H3 1_555 1_555
N3 H4 1_555 1_555
C1 N1 1_555 1_555
C2 C1 1_555 1_555
H5 C2 1_555 1_555
C3 C2 1_555 1_555
C4 C3 1_555 1_555
C5 C4 1_555 1_555
C6 C1 1_555 1_555
H6 C6 1_555 1_555
C7 C3 1_555 1_555
H7 C7 1_555 1_555
H8 C7 1_555 1_555
C8 C7 1_555 1_555
C9 C8 1_555 1_555
C10 C9 1_555 1_555
C11 C10 1_555 1_555
H9 C11 1_555 1_555
C12 C11 1_555 1_555
H10 C12 1_555 1_555
C13 C8 1_555 1_555
H11 C13 1_555 1_555
C14 C10 1_555 1_555
H12 C14 1_555 1_555
H13 C14 1_555 1_555
C15 C14 1_555 1_555
C16 C15 1_555 1_555
C17 C16 1_555 1_555
C18 C17 1_555 1_555
H14 C18 1_555 1_555
C19 N2 1_555 1_555
C20 C15 1_555 1_555
H15 C20 1_555 1_555
C21 C17 1_555 1_555
H16 C21 1_555 1_555
H17 C21 1_555 1_555
C22 C21 1_555 1_555
C23 C22 1_555 1_555
H18 C23 1_555 1_555
C24 C23 1_555 1_555
H19 C24 1_555 1_555
C25 C24 1_555 1_555
H20 C25 1_555 1_555
C26 C25 1_555 1_555
C27 C22 1_555 1_555
C28 C5 1_555 1_555
H21 C28 1_555 1_555
H22 C28 1_555 1_555
C29 N2 1_555 1_555
C30 N3 1_555 1_555
H23 C30 1_555 1_555
H24 C30 1_555 1_555
H25 C30 1_555 1_555
C31 O1 1_555 1_555
H26 C31 1_555 1_555
H27 C31 1_555 1_555
C32 C31 1_555 1_555
H28 C32 1_555 1_555
H29 C32 1_555 1_555
C33 C32 1_555 1_555
H30 C33 1_555 1_555
H31 C33 1_555 1_555
H32 C33 1_555 1_555
C34 O2 1_555 1_555
H33 C34 1_555 1_555
H34 C34 1_555 1_555
C35 C34 1_555 1_555
H35 C35 1_555 1_555
H36 C35 1_555 1_555
C36 C35 1_555 1_555
H37 C36 1_555 1_555
H38 C36 1_555 1_555
H39 C36 1_555 1_555
C37 O3 1_555 1_555
H40 C37 1_555 1_555
H41 C37 1_555 1_555
C38 C37 1_555 1_555
H42 C38 1_555 1_555
H43 C38 1_555 1_555
C39 C38 1_555 1_555
H44 C39 1_555 1_555
H45 C39 1_555 1_555
H46 C39 1_555 1_555
C40 O4 1_555 1_555
H47 C40 1_555 1_555
H48 C40 1_555 1_555
C41 C40 1_555 1_555
H49 C41 1_555 1_555
H50 C41 1_555 1_555
C42 C41 1_555 1_555
H51 C42 1_555 1_555
H52 C42 1_555 1_555
H53 C42 1_555 1_555
N3 C29 1_555 1_555
C5 C6 1_555 1_555
C12 C13 1_555 1_555
C18 C19 1_555 1_555
C19 C20 1_555 1_555
C26 C27 1_555 1_555
C26 C28 1_555 1_555

#END
