
#######################################################################
#
#                 Cambridge Crystallographic Data Centre
#                                CCDC 
#
#######################################################################
#
# If this CIF has been generated from an entry in the Cambridge 
# Structural Database, then it will include bibliographic, chemical, 
# crystal, experimental, refinement or atomic coordinate data resulting 
# from the CCDC's data processing and validation procedures.
#
#######################################################################

data_NABKEH
_chemical_formula_moiety         'C85 H104 N6 O8 S3,C1 H4 O1,C2 H3 N1,H2 O1'
_chemical_name_systematic        
"N,N'-bis(syn-anti-5-(N'-methylthioureido)-25,26,27,28-tetrakis(n-propoxy)calix(4)aren-17-yl)-syn-syn-thiourea methanol acetonitrile solvate monohydrate"
_symmetry_cell_setting           monoclinic
_symmetry_space_group_name_H-M   'P 21/c'
_symmetry_Int_Tables_number      14
_space_group_name_Hall           '-P 2ybc'
loop_
_symmetry_equiv_pos_site_id
_symmetry_equiv_pos_as_xyz
1 x,y,z
2 -x,1/2+y,1/2-z
3 -x,-y,-z
4 x,1/2-y,1/2+z
_cell_length_a                   19.464(4)
_cell_length_b                   24.295(5)
_cell_length_c                   17.955(3)
_cell_angle_alpha                90
_cell_angle_beta                 94.981(4)
_cell_angle_gamma                90
_cell_volume                     8458.46
_chemical_melting_point          '256.4-257.9 deg.C'
_cell_formula_units_Z            4
loop_
_atom_site_label
_atom_site_type_symbol
_atom_site_fract_x
_atom_site_fract_y
_atom_site_fract_z
S1 S 0.28997(7) 0.06915(6) 0.36389(8)
S2 S 0.35877(7) 0.30077(5) 0.32069(8)
S3 S 0.47044(7) 0.11210(6) 0.50864(8)
O1 O 0.65929(18) 0.00490(13) 0.2008(2)
O2 O 0.69421(19) 0.11609(14) 0.3088(2)
O3 O 0.66832(18) 0.24393(14) 0.2316(2)
O4 O 0.60784(18) 0.13725(14) 0.1409(2)
O5 O 0.03455(17) 0.26614(15) 0.4003(2)
O6 O 0.09971(18) 0.25382(15) 0.5743(2)
O7 O 0.08958(18) 0.12596(15) 0.6606(2)
O8 O 0.0520(2) 0.13894(16) 0.4768(2)
N1 N 0.3367(2) 0.01683(19) 0.2497(3)
H1 H 0.3703 0.0035 0.2263
N2 N 0.4190(2) 0.05343(18) 0.3349(2)
H2 H 0.4265 0.0694 0.3782
N3 N 0.4212(2) 0.20594(16) 0.3592(2)
H3 H 0.4207 0.1765 0.3868
N4 N 0.3088(2) 0.20770(16) 0.3750(2)
H4 H 0.3173 0.1736 0.3872
N5 N 0.3390(2) 0.12181(17) 0.5306(2)
H5 H 0.3345 0.1204 0.4820
N6 N 0.4142(2) 0.12830(17) 0.6361(2)
H6 H 0.3783 0.1374 0.6592
C1 C 0.2668(3) 0.0072(3) 0.2176(4)
H7 H 0.2678 -0.0143 0.1722
H8 H 0.2444 0.0422 0.2059
H9 H 0.2413 -0.0126 0.2532
C2 C 0.3526(3) 0.0446(2) 0.3122(3)
C3 C 0.4788(3) 0.04058(19) 0.2988(3)
C4 C 0.5378(3) 0.02807(19) 0.3421(3)
H10 H 0.5368 0.0268 0.3943
C5 C 0.5992(3) 0.01718(18) 0.3110(3)
C6 C 0.5989(3) 0.01668(19) 0.2336(3)
C7 C 0.5405(3) 0.03131(19) 0.1882(3)
C8 C 0.4808(3) 0.0440(2) 0.2217(3)
H11 H 0.4411 0.0551 0.1918
C9 C 0.6646(3) 0.0105(2) 0.3621(3)
H12 H 0.7042 0.0072 0.3322
H13 H 0.6618 -0.0232 0.3918
C10 C 0.6745(3) 0.0598(2) 0.4137(3)
C11 C 0.6652(3) 0.0562(3) 0.4889(3)
H14 H 0.6600 0.0214 0.5105
C12 C 0.6633(3) 0.1025(3) 0.5328(4)
H15 H 0.6584 0.0991 0.5842
C13 C 0.6685(3) 0.1539(3) 0.5011(3)
H16 H 0.6654 0.1854 0.5310
C14 C 0.6784(3) 0.1599(2) 0.4261(3)
C15 C 0.6846(3) 0.1118(2) 0.3836(3)
C16 C 0.6747(3) 0.2153(2) 0.3879(3)
H17 H 0.7137 0.2192 0.3572
H18 H 0.6782 0.2445 0.4257
C17 C 0.6077(2) 0.22169(18) 0.3388(3)
C18 C 0.5454(2) 0.21247(19) 0.3696(3)
H19 H 0.5453 0.2034 0.4205
C19 C 0.4837(2) 0.21660(18) 0.3255(3)
C20 C 0.4841(3) 0.22641(19) 0.2499(3)
H20 H 0.4420 0.2271 0.2200
C21 C 0.5450(3) 0.23526(18) 0.2171(3)
C22 C 0.6065(3) 0.23444(19) 0.2633(3)
C23 C 0.5441(3) 0.2410(2) 0.1322(3)
H21 H 0.5179 0.2740 0.1160
H22 H 0.5914 0.2456 0.1184
C24 C 0.5121(3) 0.1915(2) 0.0927(3)
C25 C 0.5435(3) 0.1400(2) 0.1022(3)
C26 C 0.5103(3) 0.0915(2) 0.0776(3)
C27 C 0.4466(3) 0.0960(3) 0.0385(3)
H23 H 0.4234 0.0640 0.0210
C28 C 0.4162(3) 0.1464(3) 0.0245(3)
H24 H 0.3736 0.1488 -0.0042
C29 C 0.4484(3) 0.1933(3) 0.0524(3)
H25 H 0.4265 0.2275 0.0438
C30 C 0.5397(3) 0.0366(2) 0.1042(3)
H26 H 0.5867 0.0329 0.0895
H27 H 0.5118 0.0069 0.0803
C31 C 0.6675(3) -0.0525(2) 0.1864(4)
H28 H 0.6359 -0.0639 0.1436
H29 H 0.6570 -0.0742 0.2300
C32 C 0.7301(9) -0.0596(7) 0.1388(11)
H30 H 0.7606 -0.0849 0.1686
H31 H 0.7112 -0.0813 0.0957
C33 C 0.7685(10) -0.0291(8) 0.1130(11)
H32 H 0.8084 -0.0493 0.0991
H33 H 0.7830 -0.0012 0.1495
H34 H 0.7456 -0.0118 0.0689
C34 C 0.7633(4) 0.1277(3) 0.2916(4)
H35 H 0.7838 0.1550 0.3270
H36 H 0.7622 0.1435 0.2413
C35 C 0.8055(5) 0.0789(3) 0.2951(5)
H37 H 0.7833 0.0501 0.2632
H38 H 0.8112 0.0651 0.3465
C36 C 0.8796(4) 0.0940(4) 0.2671(6)
H39 H 0.9084 0.0614 0.2690
H40 H 0.9015 0.1222 0.2993
H41 H 0.8736 0.1076 0.2162
C37 C 0.6892(3) 0.3004(2) 0.2363(4)
H42 H 0.6938 0.3123 0.2887
H43 H 0.6544 0.3236 0.2088
C38 C 0.7571(3) 0.3061(3) 0.2034(4)
H44 H 0.7510 0.2963 0.1502
H45 H 0.7901 0.2801 0.2282
C39 C 0.7863(4) 0.3636(3) 0.2112(4)
H46 H 0.8301 0.3651 0.1892
H47 H 0.7932 0.3733 0.2637
H48 H 0.7544 0.3894 0.1856
C40 C 0.6627(3) 0.1237(3) 0.0980(4)
H49 H 0.6455 0.0994 0.0570
H50 H 0.6978 0.1035 0.1294
C41 C 0.6940(4) 0.1713(3) 0.0672(5)
H51 H 0.7127 0.1953 0.1079
H52 H 0.6591 0.1921 0.0363
C42 C 0.7549(4) 0.1534(4) 0.0174(5)
H53 H 0.7750 0.1859 -0.0032
H54 H 0.7363 0.1297 -0.0230
H55 H 0.7900 0.1336 0.0483
C43 C 0.3630(2) 0.23609(19) 0.3532(2)
C44 C 0.2392(2) 0.2254(2) 0.3809(3)
C45 C 0.1870(3) 0.1919(2) 0.3494(3)
H56 H 0.1982 0.1601 0.3233
C46 C 0.1181(3) 0.2048(2) 0.3560(3)
C47 C 0.1031(3) 0.2527(2) 0.3928(3)
C48 C 0.1547(3) 0.2870(2) 0.4258(3)
C49 C 0.2231(3) 0.2723(2) 0.4188(3)
H57 H 0.2588 0.2948 0.4403
C50 C 0.1384(3) 0.3355(2) 0.4753(3)
H58 H 0.1535 0.3699 0.4532
H59 H 0.0886 0.3377 0.4789
C51 C 0.1750(3) 0.3281(2) 0.5519(3)
C52 C 0.2328(3) 0.3590(2) 0.5755(3)
H60 H 0.2452 0.3893 0.5469
C53 C 0.2728(3) 0.3455(2) 0.6416(3)
H61 H 0.3110 0.3674 0.6581
C54 C 0.2560(3) 0.3002(2) 0.6823(3)
H62 H 0.2843 0.2904 0.7254
C55 C 0.1982(3) 0.2689(2) 0.6610(3)
C56 C 0.1566(3) 0.28492(19) 0.5978(3)
C57 C 0.1858(3) 0.2145(2) 0.6992(3)
H63 H 0.2161 0.2117 0.7456
H64 H 0.1379 0.2128 0.7121
C58 C 0.1998(3) 0.1669(2) 0.6483(3)
C59 C 0.2627(3) 0.1659(2) 0.6157(3)
H65 H 0.2957 0.1935 0.6275
C60 C 0.2766(3) 0.12402(19) 0.5659(3)
C61 C 0.2269(3) 0.0847(2) 0.5452(3)
H66 H 0.2357 0.0575 0.5101
C62 C 0.1639(3) 0.0857(2) 0.5766(3)
C63 C 0.1526(3) 0.1254(2) 0.6288(3)
C64 C 0.1080(3) 0.0449(2) 0.5468(3)
H67 H 0.1220 0.0074 0.5614
H68 H 0.0647 0.0531 0.5686
C65 C 0.0974(3) 0.0488(2) 0.4629(3)
C66 C 0.1175(3) 0.0078(2) 0.4160(4)
H69 H 0.1340 -0.0258 0.4366
C67 C 0.1141(3) 0.0150(3) 0.3408(4)
H70 H 0.1252 -0.0143 0.3098
C68 C 0.0945(3) 0.0652(3) 0.3092(3)
H71 H 0.0941 0.0702 0.2573
C69 C 0.0752(3) 0.1086(2) 0.3542(3)
C70 C 0.0725(3) 0.0980(2) 0.4301(3)
C71 C 0.0630(3) 0.1657(2) 0.3238(3)
H72 H 0.0177 0.1787 0.3361
H73 H 0.0630 0.1649 0.2692
C72 C 0.0051(3) 0.2994(3) 0.3409(4)
H74 H 0.0267 0.2905 0.2950
H75 H 0.0144 0.3382 0.3526
C73 C -0.0716(9) 0.2905(7) 0.3282(10)
H76 H -0.0899 0.3100 0.2831
H77 H -0.0814 0.2512 0.3213
C74 C -0.1042(12) 0.3111(9) 0.3931(12)
H78 H -0.1534 0.3043 0.3862
H79 H -0.0958 0.3503 0.3984
H80 H -0.0849 0.2922 0.4378
C75 C 0.0440(5) 0.2559(4) 0.6224(6)
H81 H 0.0622 0.2671 0.6727
H82 H 0.0240 0.2190 0.6259
C76 C -0.0114(6) 0.2956(5) 0.5935(7)
H83 H -0.0232 0.2897 0.5400
H84 H 0.0047 0.3335 0.6010
C77 C -0.0749(4) 0.2855(5) 0.6369(6)
H85 H -0.1115 0.3106 0.6193
H86 H -0.0628 0.2915 0.6898
H87 H -0.0907 0.2478 0.6290
C78 C 0.0887(3) 0.0908(3) 0.7245(3)
H88 H 0.1097 0.1098 0.7689
H89 H 0.1155 0.0574 0.7169
C79 C 0.0169(4) 0.0760(3) 0.7355(4)
H90 H -0.0027 0.0544 0.6927
H91 H -0.0107 0.1095 0.7385
C80 C 0.0138(5) 0.0415(3) 0.8092(4)
H92 H -0.0338 0.0324 0.8160
H93 H 0.0330 0.0630 0.8516
H94 H 0.0402 0.0079 0.8057
C81 C -0.0196(14) 0.1234(11) 0.4970(16)
H95 H -0.0293 0.0856 0.4803
H96 H -0.0197 0.1240 0.5515
C82 C -0.0707(17) 0.1563(13) 0.4675(19)
H97 H -0.0806 0.1482 0.4142
H98 H -0.0566 0.1949 0.4726
C83 C -0.1372(4) 0.1460(4) 0.5102(5)
H99 H -0.1752 0.1676 0.4871
H100 H -0.1281 0.1568 0.5621
H101 H -0.1491 0.1072 0.5075
C84 C 0.4047(3) 0.12157(18) 0.5625(3)
C85 C 0.4790(3) 0.1218(2) 0.6811(3)
H102 H 0.4723 0.1290 0.7331
H103 H 0.5126 0.1474 0.6643
H104 H 0.4957 0.0844 0.6761
N7 N 0.5390(4) 0.3545(3) 0.3881(4)
C86 C 0.5803(4) 0.4024(3) 0.3774(4)
C87 C 0.6107(4) 0.4403(4) 0.3716(6)
H105 H 0.5803 0.4698 0.3529
H106 H 0.6453 0.4339 0.3369
H107 H 0.6330 0.4506 0.4200
C88 C 0.0986(10) 0.4734(8) 0.5577(11)
H108 H 0.1288 0.4441 0.5441
H109 H 0.0578 0.4743 0.5227
H110 H 0.0852 0.4670 0.6078
O9 O 0.1300(12) 0.5192(10) 0.5559(13)
O10 O 0.0766(13) 0.5573(9) 0.4763(13)
C89? C 0.7409(7) -0.0623(5) 0.1697(8)
H111? H 0.7521 -0.1016 0.1682
H112? H 0.7738 -0.0435 0.2055
C90? C 0.7372(7) -0.0313(5) 0.0785(8)
H113? H 0.7822 -0.0337 0.0593
H114? H 0.7240 0.0070 0.0820
H115? H 0.7036 -0.0506 0.0451
C91? C -0.0640(6) 0.3223(5) 0.3657(7)
H116? H -0.0556 0.3407 0.4142
H117? H -0.0831 0.3494 0.3292
C92? C -0.1156(6) 0.2753(5) 0.3718(8)
H118? H -0.1581 0.2897 0.3885
H119? H -0.0963 0.2483 0.4076
H120? H -0.1250 0.2579 0.3233
C93? C 0.0369(11) 0.2791(9) 0.5808(12)
H121? H 0.0098 0.2773 0.5323
H122? H 0.0452 0.3181 0.5924
C94? C -0.0066(13) 0.2548(10) 0.6403(14)
H123? H -0.0147 0.2155 0.6307
H124? H 0.0179 0.2588 0.6900
C95? C -0.0158(6) 0.1563(5) 0.4708(7)
H125? H -0.0347 0.1535 0.4186
H126? H -0.0177 0.1950 0.4858
C96? C -0.0579(8) 0.1232(6) 0.5179(8)
H127? H -0.0389 0.1254 0.5702
H128? H -0.0571 0.0845 0.5024
O11? O 0.0155(14) 0.5568(10) 0.4701(14)
loop_
_geom_bond_atom_site_label_1
_geom_bond_atom_site_label_2
_geom_bond_site_symmetry_1
_geom_bond_site_symmetry_2
S1 C2 1_555 1_555
S2 C43 1_555 1_555
S3 C84 1_555 1_555
O1 C6 1_555 1_555
O2 C15 1_555 1_555
O3 C22 1_555 1_555
O4 C25 1_555 1_555
O5 C47 1_555 1_555
O6 C56 1_555 1_555
O7 C63 1_555 1_555
O8 C70 1_555 1_555
N1 H1 1_555 1_555
N2 H2 1_555 1_555
N3 H3 1_555 1_555
N4 H4 1_555 1_555
N5 H5 1_555 1_555
N6 H6 1_555 1_555
C1 N1 1_555 1_555
H7 C1 1_555 1_555
H8 C1 1_555 1_555
H9 C1 1_555 1_555
C2 N1 1_555 1_555
C3 N2 1_555 1_555
C4 C3 1_555 1_555
H10 C4 1_555 1_555
C5 C4 1_555 1_555
C6 C5 1_555 1_555
C7 C6 1_555 1_555
C8 C3 1_555 1_555
H11 C8 1_555 1_555
C9 C5 1_555 1_555
H12 C9 1_555 1_555
H13 C9 1_555 1_555
C10 C9 1_555 1_555
C11 C10 1_555 1_555
H14 C11 1_555 1_555
C12 C11 1_555 1_555
H15 C12 1_555 1_555
C13 C12 1_555 1_555
H16 C13 1_555 1_555
C14 C13 1_555 1_555
C15 C10 1_555 1_555
C16 C14 1_555 1_555
H17 C16 1_555 1_555
H18 C16 1_555 1_555
C17 C16 1_555 1_555
C18 C17 1_555 1_555
H19 C18 1_555 1_555
C19 N3 1_555 1_555
C20 C19 1_555 1_555
H20 C20 1_555 1_555
C21 C20 1_555 1_555
C22 C17 1_555 1_555
C23 C21 1_555 1_555
H21 C23 1_555 1_555
H22 C23 1_555 1_555
C24 C23 1_555 1_555
C25 C24 1_555 1_555
C26 C25 1_555 1_555
C27 C26 1_555 1_555
H23 C27 1_555 1_555
C28 C27 1_555 1_555
H24 C28 1_555 1_555
C29 C24 1_555 1_555
H25 C29 1_555 1_555
C30 C7 1_555 1_555
H26 C30 1_555 1_555
H27 C30 1_555 1_555
C31 O1 1_555 1_555
H28 C31 1_555 1_555
H29 C31 1_555 1_555
C32 C31 1_555 1_555
H30 C32 1_555 1_555
H31 C32 1_555 1_555
C33 C32 1_555 1_555
H32 C33 1_555 1_555
H33 C33 1_555 1_555
H34 C33 1_555 1_555
C34 O2 1_555 1_555
H35 C34 1_555 1_555
H36 C34 1_555 1_555
C35 C34 1_555 1_555
H37 C35 1_555 1_555
H38 C35 1_555 1_555
C36 C35 1_555 1_555
H39 C36 1_555 1_555
H40 C36 1_555 1_555
H41 C36 1_555 1_555
C37 O3 1_555 1_555
H42 C37 1_555 1_555
H43 C37 1_555 1_555
C38 C37 1_555 1_555
H44 C38 1_555 1_555
H45 C38 1_555 1_555
C39 C38 1_555 1_555
H46 C39 1_555 1_555
H47 C39 1_555 1_555
H48 C39 1_555 1_555
C40 O4 1_555 1_555
H49 C40 1_555 1_555
H50 C40 1_555 1_555
C41 C40 1_555 1_555
H51 C41 1_555 1_555
H52 C41 1_555 1_555
C42 C41 1_555 1_555
H53 C42 1_555 1_555
H54 C42 1_555 1_555
H55 C42 1_555 1_555
C43 N3 1_555 1_555
C44 N4 1_555 1_555
C45 C44 1_555 1_555
H56 C45 1_555 1_555
C46 C45 1_555 1_555
C47 C46 1_555 1_555
C48 C47 1_555 1_555
C49 C44 1_555 1_555
H57 C49 1_555 1_555
C50 C48 1_555 1_555
H58 C50 1_555 1_555
H59 C50 1_555 1_555
C51 C50 1_555 1_555
C52 C51 1_555 1_555
H60 C52 1_555 1_555
C53 C52 1_555 1_555
H61 C53 1_555 1_555
C54 C53 1_555 1_555
H62 C54 1_555 1_555
C55 C54 1_555 1_555
C56 C51 1_555 1_555
C57 C55 1_555 1_555
H63 C57 1_555 1_555
H64 C57 1_555 1_555
C58 C57 1_555 1_555
C59 C58 1_555 1_555
H65 C59 1_555 1_555
C60 N5 1_555 1_555
C61 C60 1_555 1_555
H66 C61 1_555 1_555
C62 C61 1_555 1_555
C63 C58 1_555 1_555
C64 C62 1_555 1_555
H67 C64 1_555 1_555
H68 C64 1_555 1_555
C65 C64 1_555 1_555
C66 C65 1_555 1_555
H69 C66 1_555 1_555
C67 C66 1_555 1_555
H70 C67 1_555 1_555
C68 C67 1_555 1_555
H71 C68 1_555 1_555
C69 C68 1_555 1_555
C70 C65 1_555 1_555
C71 C46 1_555 1_555
H72 C71 1_555 1_555
H73 C71 1_555 1_555
C72 O5 1_555 1_555
H74 C72 1_555 1_555
H75 C72 1_555 1_555
C73 C72 1_555 1_555
H76 C73 1_555 1_555
H77 C73 1_555 1_555
C74 C73 1_555 1_555
H78 C74 1_555 1_555
H79 C74 1_555 1_555
H80 C74 1_555 1_555
C75 O6 1_555 1_555
H81 C75 1_555 1_555
H82 C75 1_555 1_555
C76 C75 1_555 1_555
H83 C76 1_555 1_555
H84 C76 1_555 1_555
C77 C76 1_555 1_555
H85 C77 1_555 1_555
H86 C77 1_555 1_555
H87 C77 1_555 1_555
C78 O7 1_555 1_555
H88 C78 1_555 1_555
H89 C78 1_555 1_555
C79 C78 1_555 1_555
H90 C79 1_555 1_555
H91 C79 1_555 1_555
C80 C79 1_555 1_555
H92 C80 1_555 1_555
H93 C80 1_555 1_555
H94 C80 1_555 1_555
C81 O8 1_555 1_555
H95 C81 1_555 1_555
H96 C81 1_555 1_555
C82 C81 1_555 1_555
H97 C82 1_555 1_555
H98 C82 1_555 1_555
C83 C82 1_555 1_555
H99 C83 1_555 1_555
H100 C83 1_555 1_555
H101 C83 1_555 1_555
C84 N5 1_555 1_555
C85 N6 1_555 1_555
H102 C85 1_555 1_555
H103 C85 1_555 1_555
H104 C85 1_555 1_555
N7 C86 1_555 1_555
C86 C87 1_555 1_555
C87 H105 1_555 1_555
H106 C87 1_555 1_555
H107 C87 1_555 1_555
C88 H108 1_555 1_555
H109 C88 1_555 1_555
H110 C88 1_555 1_555
O9 C88 1_555 1_555
N2 C2 1_555 1_555
N4 C43 1_555 1_555
N6 C84 1_555 1_555
C7 C8 1_555 1_555
C14 C15 1_555 1_555
C18 C19 1_555 1_555
C21 C22 1_555 1_555
C26 C30 1_555 1_555
C28 C29 1_555 1_555
C48 C49 1_555 1_555
C55 C56 1_555 1_555
C59 C60 1_555 1_555
C62 C63 1_555 1_555
C69 C70 1_555 1_555
C69 C71 1_555 1_555

#END
