
#######################################################################
#
#                 Cambridge Crystallographic Data Centre
#                                CCDC 
#
#######################################################################
#
# If this CIF has been generated from an entry in the Cambridge 
# Structural Database, then it will include bibliographic, chemical, 
# crystal, experimental, refinement or atomic coordinate data resulting 
# from the CCDC's data processing and validation procedures.
#
#######################################################################

data_NABVER
_chemical_formula_moiety         
'C32 H24 Ba1 N12 O4 P2,C64 H48 Ba2 N24 O8 P4,6(C2 H3 N1),2(H2 O1)'
_chemical_name_systematic        
'bis(bis(3-(2-Pyridyl)pyrazol-1-yl)phosphinato)-barium bis(\m~2~-bis(3-(2-pyridyl)pyrazol-1-yl)phosphinato)-bis(bis(3-(2-pyridyl)pyrazol-1-yl)phosphinato)-di-barium(ii) acetonitrile solvate dihydrate'
_symmetry_cell_setting           triclinic
_symmetry_space_group_name_H-M   'P -1'
_symmetry_Int_Tables_number      2
_space_group_name_Hall           '-P 1'
loop_
_symmetry_equiv_pos_site_id
_symmetry_equiv_pos_as_xyz
1 x,y,z
2 -x,-y,-z
_cell_length_a                   10.663(3)
_cell_length_b                   14.729(4)
_cell_length_c                   20.674(9)
_cell_angle_alpha                100.27(2)
_cell_angle_beta                 101.54(4)
_cell_angle_gamma                107.18(3)
_cell_volume                     2940.03
_cell_formula_units_Z            1
loop_
_atom_site_label
_atom_site_type_symbol
_atom_site_fract_x
_atom_site_fract_y
_atom_site_fract_z
Ba1 Ba -0.0168(1) 0.9687(1) 0.8658(1)
P1 P -0.1957(3) 1.1077(2) 0.9718(2)
O1 O -0.2704(7) 1.1464(5) 0.9233(3)
O2 O -0.1526(7) 1.0218(5) 0.9565(3)
P2 P -0.2247(3) 1.0470(2) 0.7137(2)
O3 O -0.2947(7) 1.0779(5) 0.6569(4)
O4 O -0.2785(7) 1.0115(6) 0.7681(4)
N1 N -0.0509(9) 1.2043(7) 1.0191(4)
N2 N -0.0420(10) 0.8104(7) 0.9313(5)
C1 C -0.1410(13) 0.7228(9) 0.9062(6)
C2 C -0.1114(13) 0.6543(9) 0.9387(6)
C3 C -0.0123(13) 1.2989(9) 1.0152(6)
N3 N -0.2600(9) 0.7903(7) 0.8281(5)
C4 C -0.2643(12) 0.7102(9) 0.8511(6)
C5 C -0.3728(13) 0.6207(9) 0.8266(6)
C6 C -0.4829(13) 0.6158(10) 0.7767(7)
C7 C -0.4835(12) 0.6952(11) 0.7537(6)
C8 C -0.3724(12) 0.7841(10) 0.7793(6)
N4 N -0.2848(9) 1.0902(6) 1.0330(5)
N5 N 0.2492(8) 0.9530(6) 0.9169(4)
C9 C 0.3371(10) 0.9503(7) 0.8781(5)
C10 C 0.4303(11) 0.9087(8) 0.9064(5)
C11 C -0.3948(11) 1.1163(7) 1.0379(6)
N6 N 0.2166(9) 1.0144(6) 0.7983(5)
C12 C 0.3251(11) 0.9878(7) 0.8165(5)
C13 C 0.4190(11) 0.9904(8) 0.7785(6)
C14 C 0.4012(11) 1.0167(8) 0.7189(6)
C15 C 0.2888(11) 1.0435(8) 0.6991(6)
C16 C 0.2016(10) 1.0420(8) 0.7404(6)
N7 N -0.0726(8) 1.1418(6) 0.7538(5)
N8 N 0.0045(9) 1.1405(7) 0.8152(5)
C17 C 0.1172(12) 1.2204(8) 0.8314(6)
C18 C 0.1153(13) 1.2719(9) 0.7815(6)
C19 C -0.0058(12) 1.2197(8) 0.7312(6)
N9 N 0.1958(9) 1.1723(6) 0.9306(4)
C20 C 0.2194(11) 1.2380(8) 0.8946(6)
C21 C 0.3383(12) 1.3206(9) 0.9153(6)
C22 C 0.4337(12) 1.3372(9) 0.9751(7)
C23 C 0.4080(12) 1.2704(8) 1.0135(6)
C24 C 0.2892(11) 1.1853(8) 0.9889(6)
N10 N -0.1694(8) 0.9542(6) 0.6770(4)
N11 N -0.1066(8) 0.9106(6) 0.7196(4)
C25 C -0.0686(11) 0.8487(8) 0.6783(6)
C26 C -0.1061(10) 0.8532(8) 0.6091(6)
C27 C -0.1687(10) 0.9243(8) 0.6112(5)
N12 N 0.0197(8) 0.7936(6) 0.7743(4)
C28 C 0.0076(11) 0.7903(8) 0.7088(6)
C29 C 0.0671(10) 0.7389(7) 0.6678(6)
C30 C 0.1437(10) 0.6883(7) 0.6975(6)
C31 C 0.1564(10) 0.6894(7) 0.7649(6)
C32 C 0.0916(10) 0.7431(7) 0.8009(6)
H1 H -0.1668(13) 0.5875(9) 0.9304(6)
H2 H -0.0617(13) 1.3270(9) 0.9861(6)
H3 H -0.3705(13) 0.5655(9) 0.8439(6)
H4 H -0.5584(13) 0.5563(10) 0.7585(7)
H5 H -0.5603(12) 0.6914(11) 0.7194(6)
H6 H -0.3753(12) 0.8398(10) 0.7627(6)
H7 H 0.5040(11) 0.8998(8) 0.8900(5)
H8 H -0.4389(11) 1.1465(7) 1.0081(6)
H9 H 0.4968(11) 0.9735(8) 0.7945(6)
H10 H 0.4634(11) 1.0167(8) 0.6918(6)
H11 H 0.2717(11) 1.0627(8) 0.6576(6)
H12 H 0.1258(10) 1.0620(8) 0.7264(6)
H13 H 0.1829(13) 1.3309(9) 0.7816(6)
H14 H -0.0363(12) 1.2350(8) 0.6894(6)
H15 H 0.3528(12) 1.3656(9) 0.8875(6)
H16 H 0.5149(12) 1.3930(9) 0.9896(7)
H17 H 0.4697(12) 1.2811(8) 1.0565(6)
H18 H 0.2755(11) 1.1367(8) 1.0140(6)
H19 H -0.0918(10) 0.8164(8) 0.5703(6)
H20 H -0.2040(1) 0.9471(8) 0.5739(5)
H21 H 0.0553(10) 0.7388(7) 0.6210(6)
H22 H 0.1867(10) 0.6534(7) 0.6715(6)
H23 H 0.2075(10) 0.6550(7) 0.7866(6)
H24 H 0.0999(10) 0.7431(7) 0.8475(6)
N2A N 0.0420(10) 1.1896(7) 1.0687(5)
Ba1A Ba 0.0168(1) 1.0313(1) 1.1342(1)
O2A O 0.1526(7) 0.9782(5) 1.0435(3)
P1A P 0.1957(3) 0.8923(2) 1.0282(2)
O1A O 0.2704(7) 0.8536(5) 1.0767(3)
N1A N 0.0509(9) 0.7957(7) 0.9809(4)
C3A C 0.0123(13) 0.7011(9) 0.9848(6)
H2A H 0.0617(13) 0.6730(9) 1.0139(6)
N4A N 0.2848(9) 0.9098(6) 0.9670(5)
C11A C 0.3948(11) 0.8837(7) 0.9621(6)
H8A H 0.4389(11) 0.8535(7) 0.9919(6)
N3A N 0.2600(9) 1.2097(7) 1.1719(5)
C4A C 0.2643(12) 1.2898(9) 1.1489(6)
C1A C 0.1410(13) 1.2772(9) 1.0938(6)
C2A C 0.1114(13) 1.3457(9) 1.0613(6)
H1A H 0.1668(13) 1.4125(9) 1.0696(6)
C5A C 0.3728(13) 1.3793(9) 1.1734(6)
C6A C 0.4829(13) 1.3842(10) 1.2233(7)
C7A C 0.4835(12) 1.3048(11) 1.2463(6)
C8A C 0.3724(12) 1.2159(10) 1.2207(6)
H6A H 0.3753(12) 1.1602(10) 1.2373(6)
H5A H 0.5603(12) 1.3086(11) 1.2806(6)
H4A H 0.5584(13) 1.4437(10) 1.2415(7)
H3A H 0.3705(13) 1.4345(9) 1.1561(6)
N5A N -0.2492(8) 1.0470(6) 1.0831(4)
C10A C -0.4303(11) 1.0913(8) 1.0936(5)
C9A C -0.3371(10) 1.0497(7) 1.1219(5)
C12A C -0.3251(11) 1.0122(7) 1.1835(5)
N6A N -0.2166(9) 0.9856(6) 1.2017(5)
N8A N -0.0045(9) 0.8595(7) 1.1848(5)
N7A N 0.0726(8) 0.8582(6) 1.2462(5)
P2A P 0.2247(3) 0.9530(2) 1.2863(2)
O3A O 0.2947(7) 0.9221(5) 1.3431(4)
O4A O 0.2785(7) 0.9885(6) 1.2319(4)
N10A N 0.1694(8) 1.0458(6) 1.3230(4)
N11A N 0.1066(8) 1.0894(6) 1.2804(4)
N9A N -0.1958(9) 0.8277(6) 1.0694(4)
C20A C -0.2194(11) 0.7620(8) 1.1054(6)
C17A C -0.1172(12) 0.7796(8) 1.1686(6)
C18A C -0.1153(13) 0.7281(9) 1.2185(6)
C19A C 0.0058(12) 0.7803(8) 1.2688(6)
H14A H 0.0363(12) 0.7650(8) 1.3106(6)
H13A H -0.1829(13) 0.6691(9) 1.2184(6)
C21A C -0.3383(12) 0.6794(9) 1.0847(6)
C22A C -0.4337(12) 0.6628(9) 1.0249(7)
C23A C -0.4080(12) 0.7296(8) 0.9865(6)
C24A C -0.2892(11) 0.8147(8) 1.0111(6)
H18A H -0.2755(11) 0.8633(8) 0.9860(6)
H17A H -0.4697(12) 0.7189(8) 0.9435(6)
H16A H -0.5149(12) 0.6070(9) 1.0104(7)
H15A H -0.3528(12) 0.6344(9) 1.1125(6)
N12A N -0.0197(8) 1.2064(6) 1.2257(4)
C28A C -0.0076(11) 1.2097(8) 1.2912(6)
C25A C 0.0686(11) 1.1513(8) 1.3217(6)
C26A C 0.1061(10) 1.1468(8) 1.3909(6)
C27A C 0.1687(10) 1.0757(8) 1.3888(5)
H20A H 0.2040(1) 1.0529(8) 1.4261(5)
H19A H 0.0918(10) 1.1836(8) 1.4297(6)
C29A C -0.0671(10) 1.2611(7) 1.3322(6)
C30A C -0.1437(10) 1.3117(7) 1.3025(6)
C31A C -0.1564(10) 1.3106(7) 1.2351(6)
C32A C -0.0916(10) 1.2569(7) 1.1991(6)
H24A H -0.0999(10) 1.2569(7) 1.1525(6)
H23A H -0.2075(10) 1.3450(7) 1.2134(6)
H22A H -0.1867(10) 1.3466(7) 1.3285(6)
H21A H -0.0553(10) 1.2612(7) 1.3790(6)
C16A C -0.2016(10) 0.9580(8) 1.2596(6)
C15A C -0.2888(11) 0.9565(8) 1.3009(6)
C14A C -0.4012(11) 0.9833(8) 1.2811(6)
C13A C -0.4190(11) 1.0096(8) 1.2215(6)
H9A H -0.4968(11) 1.0265(8) 1.2055(6)
H10A H -0.4634(11) 0.9833(8) 1.3082(6)
H11A H -0.2717(11) 0.9373(8) 1.3424(6)
H12A H -0.1258(10) 0.9380(8) 1.2736(6)
H7A H -0.5040(11) 1.1002(8) 1.1100(5)
Ba2 Ba 0.0000 0.5000 0.5000
P3 P -0.2864(3) 0.5815(2) 0.4048(2)
O5 O -0.3961(7) 0.6068(5) 0.3652(3)
O6 O -0.2432(7) 0.4967(5) 0.3842(3)
N13 N -0.1401(8) 0.6846(6) 0.4278(4)
N14 N -0.0235(9) 0.6752(6) 0.4646(4)
C33 C 0.0723(11) 0.7641(8) 0.4782(5)
C34 C 0.0171(11) 0.8296(8) 0.4512(5)
C35 C -0.1152(11) 0.7767(8) 0.4211(5)
N15 N 0.2277(9) 0.6990(7) 0.5360(4)
C36 C 0.2122(12) 0.7786(9) 0.5176(6)
C37 C 0.3153(11) 0.8688(8) 0.5307(6)
C38 C 0.4456(12) 0.8767(8) 0.5679(6)
C39 C 0.4616(12) 0.7968(9) 0.5883(5)
C40 C 0.3550(11) 0.7103(8) 0.5729(5)
N16 N -0.3103(8) 0.5780(6) 0.4845(4)
N17 N -0.2340(8) 0.5405(6) 0.5248(4)
C41 C -0.2674(10) 0.5518(7) 0.5833(5)
C42 C -0.3605(10) 0.6018(7) 0.5834(6)
C43 C -0.3857(11) 0.6184(7) 0.5194(6)
N18 N -0.1025(9) 0.4816(6) 0.6269(4)
C44 C -0.2023(10) 0.5161(7) 0.6384(5)
C45 C -0.2427(11) 0.5165(8) 0.6974(6)
C46 C -0.1803(12) 0.4821(8) 0.7472(6)
C47 C -0.0799(11) 0.4420(7) 0.7352(6)
C48 C -0.0469(11) 0.4465(7) 0.6746(6)
H25 H 0.0633(11) 0.8966(8) 0.4537(5)
H26 H -0.1805(11) 0.8008(8) 0.3986(5)
H27 H 0.2987(11) 0.9223(8) 0.5154(6)
H28 H 0.5205(12) 0.9362(8) 0.5785(6)
H29 H 0.5489(12) 0.8013(9) 0.6138(5)
H30 H 0.3701(11) 0.6565(8) 0.5885(5)
H31 H -0.3980(10) 0.6202(7) 0.6195(6)
H32 H -0.4442(11) 0.6515(7) 0.5026(6)
H33 H -0.3139(11) 0.5407(8) 0.7037(6)
H34 H -0.2043(12) 0.4852(8) 0.7891(6)
H35 H -0.0376(11) 0.4136(7) 0.7671(6)
H36 H 0.0229(11) 0.4218(7) 0.6665(6)
O6A O 0.2432(7) 0.5033(5) 0.6158(3)
P3A P 0.2864(3) 0.4185(2) 0.5952(2)
O5A O 0.3961(7) 0.3932(5) 0.6348(3)
N13A N 0.1401(8) 0.3154(6) 0.5722(4)
N14A N 0.0235(9) 0.3248(6) 0.5354(4)
N15A N -0.2277(9) 0.3010(7) 0.4640(4)
C36A C -0.2122(12) 0.2214(9) 0.4824(6)
C33A C -0.0723(11) 0.2359(8) 0.5218(5)
C34A C -0.0171(11) 0.1704(8) 0.5488(5)
C35A C 0.1152(11) 0.2233(8) 0.5789(5)
H26A H 0.1805(11) 0.1992(8) 0.6014(5)
H25A H -0.0633(11) 0.1034(8) 0.5463(5)
C37A C -0.3153(11) 0.1312(8) 0.4693(6)
C38A C -0.4456(12) 0.1233(8) 0.4321(6)
C39A C -0.4616(12) 0.2032(9) 0.4117(5)
C40A C -0.3550(11) 0.2897(8) 0.4271(5)
H30A H -0.3701(11) 0.3435(8) 0.4115(5)
H29A H -0.5489(12) 0.1987(9) 0.3862(5)
H28A H -0.5205(12) 0.0638(8) 0.4215(6)
H27A H -0.2987(11) 0.0777(8) 0.4846(6)
N17A N 0.2340(8) 0.4595(6) 0.4752(4)
N16A N 0.3103(8) 0.4220(6) 0.5155(4)
C43A C 0.3857(11) 0.3816(7) 0.4806(6)
C42A C 0.3605(10) 0.3982(7) 0.4166(6)
C41A C 0.2674(10) 0.4482(7) 0.4167(5)
C44A C 0.2023(10) 0.4839(7) 0.3616(5)
N18A N 0.1025(9) 0.5184(6) 0.3731(4)
C48A C 0.0469(11) 0.5535(7) 0.3254(6)
C47A C 0.0799(11) 0.5580(7) 0.2648(6)
C46A C 0.1803(12) 0.5179(8) 0.2528(6)
C45A C 0.2427(11) 0.4835(8) 0.3026(6)
H33A H 0.3139(11) 0.4593(8) 0.2963(6)
H34A H 0.2043(12) 0.5148(8) 0.2109(6)
H35A H 0.0376(11) 0.5864(7) 0.2329(6)
H36A H -0.0229(11) 0.5782(7) 0.3335(6)
H31A H 0.3980(10) 0.3798(7) 0.3805(6)
H32A H 0.4442(11) 0.3485(7) 0.4974(6)
C49 C 0.4607(15) 0.1747(11) 0.5792(7)
N19 N 0.3589(11) 0.1152(8) 0.5507(6)
C50 C 0.5965(12) 0.2510(9) 0.6157(6)
H37 H 0.6502(28) 0.2647(37) 0.5830(8)
H38 H 0.6445(31) 0.2270(21) 0.6507(24)
H39 H 0.5839(12) 0.3113(18) 0.6374(29)
C51 C -0.3095(26) 1.3226(14) 0.8629(10)
N20 N -0.3827(25) 1.2306(12) 0.8151(8)
C52 C -0.2542(18) 1.3954(10) 0.8994(7)
H40 H -0.1630(38) 1.4222(33) 0.8930(34)
H41 H -0.2461(87) 1.3885(15) 0.9461(7)
H42 H -0.3044(52) 1.4401(23) 0.8912(33)
C53 C 0.2162(18) 0.5216(12) 0.8923(8)
N21 N 0.2885(14) 0.5430(12) 0.8648(8)
C54 C 0.1106(15) 0.4833(12) 0.9245(7)
H43 H 0.0395(57) 0.5123(63) 0.9144(47)
H44 H 0.1497(27) 0.4999(72) 0.9740(9)
H45 H 0.0708(79) 0.4118(15) 0.9069(43)
O7 O -0.4448(21) 0.6400(16) 0.2395(10)
loop_
_geom_bond_atom_site_label_1
_geom_bond_atom_site_label_2
_geom_bond_site_symmetry_1
_geom_bond_site_symmetry_2
Ba1 O2 1_555 1_555
P1 O1 1_555 1_555
O2 P1 1_555 1_555
P2 O3 1_555 1_555
O4 P2 1_555 1_555
Ba2 O6 1_555 1_555
P3 O5 1_555 1_555
O6 P3 1_555 1_555
N1 P1 1_555 1_555
N2 Ba1 1_555 1_555
C1 N2 1_555 1_555
C2 C1 1_555 1_555
C3 N1 1_555 1_555
N3 Ba1 1_555 1_555
C4 C1 1_555 1_555
C5 C4 1_555 1_555
C6 C5 1_555 1_555
C7 C6 1_555 1_555
C8 N3 1_555 1_555
N4 P1 1_555 1_555
N5 Ba1 1_555 1_555
C9 N5 1_555 1_555
C10 C9 1_555 1_555
C11 N4 1_555 1_555
N6 Ba1 1_555 1_555
C12 C9 1_555 1_555
C13 C12 1_555 1_555
C14 C13 1_555 1_555
C15 C14 1_555 1_555
C16 N6 1_555 1_555
N7 P2 1_555 1_555
N8 Ba1 1_555 1_555
C17 N8 1_555 1_555
C18 C17 1_555 1_555
C19 N7 1_555 1_555
N9 Ba1 1_555 1_555
C20 C17 1_555 1_555
C21 C20 1_555 1_555
C22 C21 1_555 1_555
C23 C22 1_555 1_555
C24 N9 1_555 1_555
N10 P2 1_555 1_555
N11 Ba1 1_555 1_555
C25 N11 1_555 1_555
C26 C25 1_555 1_555
C27 N10 1_555 1_555
N12 Ba1 1_555 1_555
C28 C25 1_555 1_555
C29 C28 1_555 1_555
C30 C29 1_555 1_555
C31 C30 1_555 1_555
C32 N12 1_555 1_555
N13 P3 1_555 1_555
N14 Ba2 1_555 1_555
C33 N14 1_555 1_555
C34 C33 1_555 1_555
C35 N13 1_555 1_555
N15 Ba2 1_555 1_555
C36 C33 1_555 1_555
C37 C36 1_555 1_555
C38 C37 1_555 1_555
C39 C38 1_555 1_555
C40 N15 1_555 1_555
N16 P3 1_555 1_555
N17 Ba2 1_555 1_555
C41 N17 1_555 1_555
C42 C41 1_555 1_555
C43 N16 1_555 1_555
N18 Ba2 1_555 1_555
C44 C41 1_555 1_555
C45 C44 1_555 1_555
C46 C45 1_555 1_555
C47 C46 1_555 1_555
C48 N18 1_555 1_555
C49 N19 1_555 1_555
C50 C49 1_555 1_555
C51 N20 1_555 1_555
C52 C51 1_555 1_555
C53 N21 1_555 1_555
C54 C53 1_555 1_555
H1 C2 1_555 1_555
H2 C3 1_555 1_555
H3 C5 1_555 1_555
H4 C6 1_555 1_555
H5 C7 1_555 1_555
H6 C8 1_555 1_555
H7 C10 1_555 1_555
H8 C11 1_555 1_555
H9 C13 1_555 1_555
H10 C14 1_555 1_555
H11 C15 1_555 1_555
H12 C16 1_555 1_555
H13 C18 1_555 1_555
H14 C19 1_555 1_555
H15 C21 1_555 1_555
H16 C22 1_555 1_555
H17 C23 1_555 1_555
H18 C24 1_555 1_555
H19 C26 1_555 1_555
H20 C27 1_555 1_555
H21 C29 1_555 1_555
H22 C30 1_555 1_555
H23 C31 1_555 1_555
H24 C32 1_555 1_555
H25 C34 1_555 1_555
H26 C35 1_555 1_555
H27 C37 1_555 1_555
H28 C38 1_555 1_555
H29 C39 1_555 1_555
H30 C40 1_555 1_555
H31 C42 1_555 1_555
H32 C43 1_555 1_555
H33 C45 1_555 1_555
H34 C46 1_555 1_555
H35 C47 1_555 1_555
H36 C48 1_555 1_555
H37 C50 1_555 1_555
H38 C50 1_555 1_555
H39 C50 1_555 1_555
H40 C52 1_555 1_555
H41 C52 1_555 1_555
H42 C52 1_555 1_555
H43 C54 1_555 1_555
H44 C54 1_555 1_555
H45 C54 1_555 1_555
N2A N1 1_555 1_555
Ba1A N2A 1_555 1_555
O2A Ba1A 1_555 1_555
P1A O2A 1_555 1_555
O1A P1A 1_555 1_555
N1A N2 1_555 1_555
C3A C2 1_555 1_555
H2A C3A 1_555 1_555
N4A N5 1_555 1_555
C11A C10 1_555 1_555
H8A C11A 1_555 1_555
N3A Ba1A 1_555 1_555
C4A N3A 1_555 1_555
C1A N2A 1_555 1_555
C2A C3 1_555 1_555
H1A C2A 1_555 1_555
C5A C4A 1_555 1_555
C6A C5A 1_555 1_555
C7A C6A 1_555 1_555
C8A N3A 1_555 1_555
H6A C8A 1_555 1_555
H5A C7A 1_555 1_555
H4A C6A 1_555 1_555
H3A C5A 1_555 1_555
N5A N4 1_555 1_555
C10A C11 1_555 1_555
C9A N5A 1_555 1_555
C12A C9A 1_555 1_555
N6A Ba1A 1_555 1_555
N8A Ba1A 1_555 1_555
N7A N8A 1_555 1_555
P2A N7A 1_555 1_555
O3A P2A 1_555 1_555
O4A P2A 1_555 1_555
N10A P2A 1_555 1_555
N11A Ba1A 1_555 1_555
N9A Ba1A 1_555 1_555
C20A N9A 1_555 1_555
C17A N8A 1_555 1_555
C18A C17A 1_555 1_555
C19A N7A 1_555 1_555
H14A C19A 1_555 1_555
H13A C18A 1_555 1_555
C21A C20A 1_555 1_555
C22A C21A 1_555 1_555
C23A C22A 1_555 1_555
C24A N9A 1_555 1_555
H18A C24A 1_555 1_555
H17A C23A 1_555 1_555
H16A C22A 1_555 1_555
H15A C21A 1_555 1_555
N12A Ba1A 1_555 1_555
C28A N12A 1_555 1_555
C25A N11A 1_555 1_555
C26A C25A 1_555 1_555
C27A N10A 1_555 1_555
H20A C27A 1_555 1_555
H19A C26A 1_555 1_555
C29A C28A 1_555 1_555
C30A C29A 1_555 1_555
C31A C30A 1_555 1_555
C32A N12A 1_555 1_555
H24A C32A 1_555 1_555
H23A C31A 1_555 1_555
H22A C30A 1_555 1_555
H21A C29A 1_555 1_555
C16A N6A 1_555 1_555
C15A C16A 1_555 1_555
C14A C15A 1_555 1_555
C13A C12A 1_555 1_555
H9A C13A 1_555 1_555
H10A C14A 1_555 1_555
H11A C15A 1_555 1_555
H12A C16A 1_555 1_555
H7A C10A 1_555 1_555
O6A Ba2 1_555 1_555
P3A O6A 1_555 1_555
O5A P3A 1_555 1_555
N13A P3A 1_555 1_555
N14A Ba2 1_555 1_555
N15A Ba2 1_555 1_555
C36A N15A 1_555 1_555
C33A N14A 1_555 1_555
C34A C33A 1_555 1_555
C35A N13A 1_555 1_555
H26A C35A 1_555 1_555
H25A C34A 1_555 1_555
C37A C36A 1_555 1_555
C38A C37A 1_555 1_555
C39A C38A 1_555 1_555
C40A N15A 1_555 1_555
H30A C40A 1_555 1_555
H29A C39A 1_555 1_555
H28A C38A 1_555 1_555
H27A C37A 1_555 1_555
N17A Ba2 1_555 1_555
N16A P3A 1_555 1_555
C43A N16A 1_555 1_555
C42A C43A 1_555 1_555
C41A N17A 1_555 1_555
C44A C41A 1_555 1_555
N18A Ba2 1_555 1_555
C48A N18A 1_555 1_555
C47A C48A 1_555 1_555
C46A C47A 1_555 1_555
C45A C44A 1_555 1_555
H33A C45A 1_555 1_555
H34A C46A 1_555 1_555
H35A C47A 1_555 1_555
H36A C48A 1_555 1_555
H31A C42A 1_555 1_555
H32A C43A 1_555 1_555
N3 C4 1_555 1_555
C7 C8 1_555 1_555
N6 C12 1_555 1_555
C15 C16 1_555 1_555
N7 N8 1_555 1_555
C18 C19 1_555 1_555
N9 C20 1_555 1_555
C23 C24 1_555 1_555
N10 N11 1_555 1_555
C26 C27 1_555 1_555
N12 C28 1_555 1_555
C31 C32 1_555 1_555
N13 N14 1_555 1_555
C34 C35 1_555 1_555
N15 C36 1_555 1_555
C39 C40 1_555 1_555
N16 N17 1_555 1_555
C42 C43 1_555 1_555
N18 C44 1_555 1_555
C47 C48 1_555 1_555
Ba1A N5A 1_555 1_555
P1A N1A 1_555 1_555
P1A N4A 1_555 1_555
N1A C3A 1_555 1_555
N4A C11A 1_555 1_555
C4A C1A 1_555 1_555
C1A C2A 1_555 1_555
C7A C8A 1_555 1_555
C10A C9A 1_555 1_555
C12A N6A 1_555 1_555
N10A N11A 1_555 1_555
C20A C17A 1_555 1_555
C18A C19A 1_555 1_555
C23A C24A 1_555 1_555
C28A C25A 1_555 1_555
C26A C27A 1_555 1_555
C31A C32A 1_555 1_555
C14A C13A 1_555 1_555
N13A N14A 1_555 1_555
C36A C33A 1_555 1_555
C34A C35A 1_555 1_555
C39A C40A 1_555 1_555
N17A N16A 1_555 1_555
C42A C41A 1_555 1_555
C44A N18A 1_555 1_555
C46A C45A 1_555 1_555

#END
