
#######################################################################
#
#                 Cambridge Crystallographic Data Centre
#                                CCDC 
#
#######################################################################
#
# If this CIF has been generated from an entry in the Cambridge 
# Structural Database, then it will include bibliographic, chemical, 
# crystal, experimental, refinement or atomic coordinate data resulting 
# from the CCDC's data processing and validation procedures.
#
#######################################################################

data_NABYEX
_chemical_formula_moiety         'C14 H19 N1 O1'
_chemical_name_systematic        4-(mesitylamino)pent-3-en-2-one
_symmetry_cell_setting           monoclinic
_symmetry_space_group_name_H-M   'P 21/n'
_symmetry_Int_Tables_number      14
_space_group_name_Hall           '-P 2yn'
loop_
_symmetry_equiv_pos_site_id
_symmetry_equiv_pos_as_xyz
1 x,y,z
2 1/2-x,1/2+y,1/2-z
3 -x,-y,-z
4 1/2+x,1/2-y,1/2+z
_cell_length_a                   9.974(3)
_cell_length_b                   9.876(3)
_cell_length_c                   12.793(4)
_cell_angle_alpha                90
_cell_angle_beta                 99.218(5)
_cell_angle_gamma                90
_cell_volume                     1243.88
_exptl_crystal_colour            colorless
_exptl_crystal_description       block
_cell_formula_units_Z            4
loop_
_atom_site_label
_atom_site_type_symbol
_atom_site_fract_x
_atom_site_fract_y
_atom_site_fract_z
O1 O 0.63729(9) 1.06416(10) 0.50705(7)
N1 N 0.58964(10) 0.92521(10) 0.67511(8)
C1 C 0.86004(13) 1.13355(15) 0.48979(11)
H1 H 0.8273 1.2234 0.4722
H2 H 0.8703 1.0859 0.4261
H3 H 0.9463 1.1385 0.5354
C2 C 0.75977(12) 1.05934(12) 0.54588(9)
C3 C 0.80924(11) 0.98982(12) 0.64225(9)
H4 H 0.9026 0.9846 0.6640
C4 C 0.72475(11) 0.92992(11) 0.70466(9)
C5 C 0.49465(11) 0.88528(12) 0.74231(9)
C6 C 0.43154(11) 0.75896(12) 0.72737(9)
C7 C 0.33500(12) 0.72446(12) 0.79070(9)
H5 H 0.2926 0.6405 0.7816
C8 C 0.30054(11) 0.81246(13) 0.86716(9)
C9 C 0.19624(13) 0.77389(15) 0.93525(11)
H6 H 0.1438 0.8522 0.9473
H7 H 0.2414 0.7394 1.0018
H8 H 0.1372 0.7055 0.8999
C10 C 0.46534(14) 0.66432(13) 0.64329(10)
H9 H 0.4176 0.5804 0.6468
H10 H 0.5614 0.6475 0.6545
H11 H 0.4386 0.7046 0.5748
C11 C 0.36567(12) 0.93728(12) 0.88007(9)
H12 H 0.3442 0.9965 0.9315
C12 C 0.46219(11) 0.97630(12) 0.81816(9)
C13 C 0.52553(13) 1.11514(13) 0.83125(10)
H13 H 0.5099 1.1536 0.8972
H14 H 0.4855 1.1722 0.7739
H15 H 0.6215 1.1080 0.8311
C14 C 0.78262(12) 0.86608(13) 0.80868(10)
H16 H 0.7548 0.7730 0.8088
H17 H 0.7501 0.9135 0.8651
H18 H 0.8800 0.8709 0.8186
H19 H 0.5573(18) 0.9568(19) 0.6118(15)
loop_
_geom_bond_atom_site_label_1
_geom_bond_atom_site_label_2
_geom_bond_site_symmetry_1
_geom_bond_site_symmetry_2
O1 C2 1_555 1_555
N1 C4 1_555 1_555
C1 H1 1_555 1_555
H2 C1 1_555 1_555
H3 C1 1_555 1_555
C2 C1 1_555 1_555
C3 C2 1_555 1_555
H4 C3 1_555 1_555
C4 C3 1_555 1_555
C5 N1 1_555 1_555
C6 C5 1_555 1_555
C7 C6 1_555 1_555
H5 C7 1_555 1_555
C8 C7 1_555 1_555
C9 C8 1_555 1_555
H6 C9 1_555 1_555
H7 C9 1_555 1_555
H8 C9 1_555 1_555
C10 C6 1_555 1_555
H9 C10 1_555 1_555
H10 C10 1_555 1_555
H11 C10 1_555 1_555
C11 C8 1_555 1_555
H12 C11 1_555 1_555
C12 C5 1_555 1_555
C13 C12 1_555 1_555
H13 C13 1_555 1_555
H14 C13 1_555 1_555
H15 C13 1_555 1_555
C14 C4 1_555 1_555
H16 C14 1_555 1_555
H17 C14 1_555 1_555
H18 C14 1_555 1_555
H19 N1 1_555 1_555
C11 C12 1_555 1_555

#END
