
#######################################################################
#
#                 Cambridge Crystallographic Data Centre
#                                CCDC 
#
#######################################################################
#
# If this CIF has been generated from an entry in the Cambridge 
# Structural Database, then it will include bibliographic, chemical, 
# crystal, experimental, refinement or atomic coordinate data resulting 
# from the CCDC's data processing and validation procedures.
#
#######################################################################

data_NACDOM
_chemical_formula_moiety         'C15 H17 Br2 N1 O3 S1'
_chemical_name_systematic        
4,8-Dibromo-6-((4-methylphenyl)sulfonyl)-2-oxa-6-azatricyclo[3.3.1.1^3,7^]decane
_symmetry_cell_setting           monoclinic
_symmetry_space_group_name_H-M   'P 21/c'
_symmetry_Int_Tables_number      14
_space_group_name_Hall           '-P 2ybc'
loop_
_symmetry_equiv_pos_site_id
_symmetry_equiv_pos_as_xyz
1 x,y,z
2 -x,1/2+y,1/2-z
3 -x,-y,-z
4 x,1/2-y,1/2+z
_cell_length_a                   9.8227(8)
_cell_length_b                   10.5273(9)
_cell_length_c                   15.7170(13)
_cell_angle_alpha                90
_cell_angle_beta                 97.6490(10)
_cell_angle_gamma                90
_cell_volume                     1610.78
_exptl_crystal_colour            colorless
_exptl_crystal_description       block
_cell_formula_units_Z            4
loop_
_atom_site_label
_atom_site_type_symbol
_atom_site_fract_x
_atom_site_fract_y
_atom_site_fract_z
Br1 Br 0.027552(19) 0.15539(2) 0.107420(13)
Br2 Br 0.691270(19) 0.23849(2) 0.181650(13)
S1 S 0.35674(5) 0.26208(4) 0.28978(3)
O1 O 0.35920(15) 0.39832(14) 0.28648(9)
O2 O 0.46239(14) 0.19219(16) 0.34207(9)
O3 O 0.38134(14) 0.13318(14) -0.01145(9)
N1 N 0.35421(16) 0.21138(15) 0.19218(9)
C1 C 0.28918(19) 0.28680(18) 0.11887(11)
H1 H 0.2376 0.3602 0.1393
C2 C 0.19321(18) 0.20281(19) 0.05840(12)
H2 H 0.1642 0.2522 0.0047
C3 C 0.2732(2) 0.08656(19) 0.03455(12)
H3 H 0.2107 0.0298 -0.0039
C4 C 0.3358(2) 0.01190(18) 0.11349(12)
H4 H 0.3870 -0.0624 0.0957
H5 H 0.2624 -0.0191 0.1457
C5 C 0.43297(18) 0.09989(17) 0.17022(11)
H6 H 0.4748 0.0547 0.2233
C6 C 0.54383(18) 0.14068(18) 0.11612(11)
H7 H 0.5849 0.0624 0.0940
C7 C 0.47722(19) 0.21746(19) 0.03921(12)
H8 H 0.5495 0.2453 0.0040
C8 C 0.4013(2) 0.33399(17) 0.06692(12)
H9 H 0.3595 0.3820 0.0159
H10 H 0.4660 0.3907 0.1026
C9 C 0.19762(18) 0.21988(17) 0.32238(11)
C10 C 0.09898(19) 0.31313(18) 0.32757(12)
H11 H 0.1155 0.3984 0.3119
C11 C -0.02419(19) 0.27987(19) 0.35593(13)
H12 H -0.0918 0.3434 0.3597
C12 C -0.0511(2) 0.1551(2) 0.37906(13)
C13 C 0.0489(2) 0.06307(19) 0.37186(13)
H13 H 0.0318 -0.0226 0.3863
C14 C 0.17307(19) 0.09440(18) 0.34399(12)
H14 H 0.2405 0.0309 0.3397
C15 C -0.1845(2) 0.1234(2) 0.41200(17)
H15 H -0.2554 0.1062 0.3634
H16 H -0.2129 0.1952 0.4452
H17 H -0.1717 0.0480 0.4488
loop_
_geom_bond_atom_site_label_1
_geom_bond_atom_site_label_2
_geom_bond_site_symmetry_1
_geom_bond_site_symmetry_2
Br1 C2 1_555 1_555
Br2 C6 1_555 1_555
S1 O1 1_555 1_555
O2 S1 1_555 1_555
O3 C3 1_555 1_555
N1 S1 1_555 1_555
C1 N1 1_555 1_555
H1 C1 1_555 1_555
C2 C1 1_555 1_555
H2 C2 1_555 1_555
C3 C2 1_555 1_555
H3 C3 1_555 1_555
C4 C3 1_555 1_555
H4 C4 1_555 1_555
H5 C4 1_555 1_555
C5 N1 1_555 1_555
H6 C5 1_555 1_555
C6 C5 1_555 1_555
H7 C6 1_555 1_555
C7 O3 1_555 1_555
H8 C7 1_555 1_555
C8 C1 1_555 1_555
H9 C8 1_555 1_555
H10 C8 1_555 1_555
C9 S1 1_555 1_555
C10 C9 1_555 1_555
H11 C10 1_555 1_555
C11 C10 1_555 1_555
H12 C11 1_555 1_555
C12 C11 1_555 1_555
C13 C12 1_555 1_555
H13 C13 1_555 1_555
C14 C9 1_555 1_555
H14 C14 1_555 1_555
C15 C12 1_555 1_555
H15 C15 1_555 1_555
H16 C15 1_555 1_555
H17 C15 1_555 1_555
C4 C5 1_555 1_555
C6 C7 1_555 1_555
C7 C8 1_555 1_555
C13 C14 1_555 1_555

#END
