
#######################################################################
#
#                 Cambridge Crystallographic Data Centre
#                                CCDC 
#
#######################################################################
#
# If this CIF has been generated from an entry in the Cambridge 
# Structural Database, then it will include bibliographic, chemical, 
# crystal, experimental, refinement or atomic coordinate data resulting 
# from the CCDC's data processing and validation procedures.
#
#######################################################################

data_NACGUW
_chemical_formula_moiety         'C34 H18 F12'
_chemical_name_systematic        1,2,4,5-tetra(4-trifluoromethylphenyl)benzene
_symmetry_cell_setting           monoclinic
_symmetry_space_group_name_H-M   'P 21/n'
_symmetry_Int_Tables_number      14
_space_group_name_Hall           '-P 2yn'
loop_
_symmetry_equiv_pos_site_id
_symmetry_equiv_pos_as_xyz
1 x,y,z
2 1/2-x,1/2+y,1/2-z
3 -x,-y,-z
4 1/2+x,1/2-y,1/2+z
_cell_length_a                   11.5105(3)
_cell_length_b                   11.0142(2)
_cell_length_c                   22.6107(5)
_cell_angle_alpha                90
_cell_angle_beta                 99.575(1)
_cell_angle_gamma                90
_cell_volume                     2826.63
_exptl_crystal_colour            colorless
_exptl_crystal_description       prism
_cell_formula_units_Z            4
loop_
_atom_site_label
_atom_site_type_symbol
_atom_site_fract_x
_atom_site_fract_y
_atom_site_fract_z
C1 C 0.32835(14) 0.23298(16) 1.01776(7)
H1 H 0.2607 0.2057 1.0329
C2 C 0.43804(14) 0.18738(16) 1.04387(7)
C3 C 0.53798(14) 0.22886(16) 1.02133(7)
C4 C 0.52193(14) 0.31002(16) 0.97340(7)
H2 H 0.5895 0.3363 0.9579
C5 C 0.41177(14) 0.35499(16) 0.94689(7)
C6 C 0.31232(14) 0.31643(16) 0.97067(7)
C7 C 0.44216(14) 0.09583(16) 1.09274(7)
C8 C 0.36812(15) 0.10935(17) 1.13565(8)
H3 H 0.3189 0.1789 1.1343
C9 C 0.36543(17) 0.02324(19) 1.17998(8)
H4 H 0.3146 0.0336 1.2087
C10 C 0.43747(18) -0.07829(18) 1.18220(8)
C11 C 0.51182(17) -0.09329(17) 1.14033(8)
H5 H 0.5615 -0.1626 1.1422
C12 C 0.51364(15) -0.00724(17) 1.09577(8)
H6 H 0.5641 -0.0185 1.0670
C13 C 0.43476(15) -0.17039(17) 1.23085(8)
C14 C 0.66113(14) 0.19197(16) 1.04595(8)
C15 C 0.70578(15) 0.20325(17) 1.10691(8)
H7 H 0.6564 0.2326 1.1335
C16 C 0.82187(15) 0.17204(17) 1.12922(8)
H8 H 0.8518 0.1804 1.1708
C17 C 0.89342(14) 0.12876(16) 1.09040(8)
C18 C 0.85040(16) 0.11726(19) 1.02964(8)
H9 H 0.9001 0.0878 1.0032
C19 C 0.73481(15) 0.14879(18) 1.00751(8)
H10 H 0.7055 0.1410 0.9659
C20 C 1.01968(16) 0.09777(18) 1.11266(9)
C21 C 0.40678(14) 0.43427(16) 0.89315(7)
C22 C 0.49675(15) 0.51803(16) 0.89013(8)
H11 H 0.5571 0.5289 0.9239
C23 C 0.49937(16) 0.58534(17) 0.83877(8)
H12 H 0.5623 0.6403 0.8370
C24 C 0.40983(17) 0.57259(17) 0.78972(8)
C25 C 0.31880(17) 0.49101(19) 0.79192(8)
H13 H 0.2571 0.4828 0.7586
C26 C 0.31826(16) 0.42151(18) 0.84308(8)
H14 H 0.2568 0.3644 0.8441
C27 C 0.4109(2) 0.6525(2) 0.73650(9)
C28 C 0.18980(14) 0.35869(16) 0.94831(7)
C29 C 0.16071(16) 0.48138(17) 0.94475(8)
H15 H 0.2203 0.5406 0.9561
C30 C 0.04538(16) 0.51812(18) 0.92479(9)
H16 H 0.0259 0.6020 0.9228
C31 C -0.04109(15) 0.43152(18) 0.90783(8)
C32 C -0.01348(16) 0.30898(18) 0.91108(9)
H17 H -0.0731 0.2500 0.8992
C33 C 0.10149(15) 0.27282(17) 0.93168(8)
H18 H 0.1202 0.1888 0.9345
C34 C -0.16598(16) 0.4670(2) 0.88461(9)
F1 F 0.32796(16) -0.18929(18) 1.24344(9)
F2 F 0.4756(2) -0.27719(15) 1.21791(9)
F3 F 0.49584(19) -0.13504(18) 1.28274(7)
F4 F 1.04902(12) 0.09893(17) 1.17155(7)
F5 F 1.04850(12) -0.01180(14) 1.09558(7)
F6 F 1.09126(12) 0.17472(19) 1.09198(12)
F7 F 0.51813(15) 0.66449(18) 0.72202(7)
F8 F 0.37808(18) 0.76582(14) 0.74665(7)
F9 F 0.34046(16) 0.61404(15) 0.68757(6)
F10 F -0.18968(12) 0.58208(15) 0.89519(8)
F11 F -0.19544(12) 0.45129(17) 0.82602(6)
F12 F -0.24203(11) 0.40076(17) 0.90921(8)
loop_
_geom_bond_atom_site_label_1
_geom_bond_atom_site_label_2
_geom_bond_site_symmetry_1
_geom_bond_site_symmetry_2
C1 H1 1_555 1_555
C2 C1 1_555 1_555
C3 C2 1_555 1_555
C4 C3 1_555 1_555
H2 C4 1_555 1_555
C5 C4 1_555 1_555
C6 C1 1_555 1_555
C7 C2 1_555 1_555
C8 C7 1_555 1_555
H3 C8 1_555 1_555
C9 C8 1_555 1_555
H4 C9 1_555 1_555
C10 C9 1_555 1_555
C11 C10 1_555 1_555
H5 C11 1_555 1_555
C12 C7 1_555 1_555
H6 C12 1_555 1_555
C13 C10 1_555 1_555
C14 C3 1_555 1_555
C15 C14 1_555 1_555
H7 C15 1_555 1_555
C16 C15 1_555 1_555
H8 C16 1_555 1_555
C17 C16 1_555 1_555
C18 C17 1_555 1_555
H9 C18 1_555 1_555
C19 C14 1_555 1_555
H10 C19 1_555 1_555
C20 C17 1_555 1_555
C21 C5 1_555 1_555
C22 C21 1_555 1_555
H11 C22 1_555 1_555
C23 C22 1_555 1_555
H12 C23 1_555 1_555
C24 C23 1_555 1_555
C25 C24 1_555 1_555
H13 C25 1_555 1_555
C26 C21 1_555 1_555
H14 C26 1_555 1_555
C27 C24 1_555 1_555
C28 C6 1_555 1_555
C29 C28 1_555 1_555
H15 C29 1_555 1_555
C30 C29 1_555 1_555
H16 C30 1_555 1_555
C31 C30 1_555 1_555
C32 C31 1_555 1_555
H17 C32 1_555 1_555
C33 C28 1_555 1_555
H18 C33 1_555 1_555
C34 C31 1_555 1_555
F1 C13 1_555 1_555
F2 C13 1_555 1_555
F3 C13 1_555 1_555
F4 C20 1_555 1_555
F5 C20 1_555 1_555
F6 C20 1_555 1_555
F7 C27 1_555 1_555
F8 C27 1_555 1_555
F9 C27 1_555 1_555
F10 C34 1_555 1_555
F11 C34 1_555 1_555
F12 C34 1_555 1_555
C5 C6 1_555 1_555
C11 C12 1_555 1_555
C18 C19 1_555 1_555
C25 C26 1_555 1_555
C32 C33 1_555 1_555

#END
