
#######################################################################
#
#                 Cambridge Crystallographic Data Centre
#                                CCDC 
#
#######################################################################
#
# If this CIF has been generated from an entry in the Cambridge 
# Structural Database, then it will include bibliographic, chemical, 
# crystal, experimental, refinement or atomic coordinate data resulting 
# from the CCDC's data processing and validation procedures.
#
#######################################################################

data_NACHEG
_chemical_formula_moiety         'C22 H21 Br1 O3'
_chemical_name_systematic        
'1-(2-Benzoylcyclopentyl)prop-2-en-1-yl 4-bromobenzoate'
_symmetry_cell_setting           triclinic
_symmetry_space_group_name_H-M   'P -1'
_symmetry_Int_Tables_number      2
_space_group_name_Hall           '-P 1'
loop_
_symmetry_equiv_pos_site_id
_symmetry_equiv_pos_as_xyz
1 x,y,z
2 -x,-y,-z
_cell_length_a                   10.290(2)
_cell_length_b                   11.499(2)
_cell_length_c                   18.124(4)
_cell_angle_alpha                96.42(3)
_cell_angle_beta                 100.91(3)
_cell_angle_gamma                109.24(3)
_cell_volume                     1952.74
_exptl_crystal_colour            colorless
_exptl_crystal_description       block
_cell_formula_units_Z            4
loop_
_atom_site_label
_atom_site_type_symbol
_atom_site_fract_x
_atom_site_fract_y
_atom_site_fract_z
Br1 Br 0.39882(4) 1.23107(3) 0.519922(19)
O1 O 0.4274(2) 0.8240(2) 0.18371(14)
O3 O 0.2969(2) 0.67131(18) 0.30677(11)
O5 O 0.1282(2) 0.5988(2) 0.37081(13)
C1 C 0.2756(4) 0.9818(3) 0.19312(18)
H1 H 0.3762 1.0174 0.2087
C3 C 0.1966(4) 1.0587(3) 0.1947(2)
H3 H 0.2433 1.1467 0.2116
C5 C 0.0504(5) 1.0083(4) 0.1719(2)
H5 H -0.0033 1.0613 0.1732
C7 C -0.0175(4) 0.8805(4) 0.1472(2)
H7 H -0.1180 0.8460 0.1311
C9 C 0.0602(3) 0.8017(3) 0.14564(19)
H9 H 0.0128 0.7138 0.1290
C11 C 0.2081(3) 0.8524(3) 0.16867(16)
C13 C 0.2986(3) 0.7741(3) 0.16773(16)
C15 C 0.2301(3) 0.6328(3) 0.14433(16)
H11 H 0.1294 0.6056 0.1486
C18 C 0.2340(6) 0.5911(4) 0.0615(2)
H15 H 0.1447 0.5836 0.0257
H16 H 0.3142 0.6531 0.0478
C19 C 0.2517(5) 0.4664(4) 0.05691(19)
H17 H 0.3368 0.4700 0.0379
H18 H 0.1679 0.4010 0.0213
C21 C 0.2679(4) 0.4356(3) 0.13675(17)
H21 H 0.3436 0.4003 0.1479
H22 H 0.1780 0.3744 0.1421
C23 C 0.3075(3) 0.5618(3) 0.19094(15)
H25 H 0.4121 0.6079 0.2012
C25 C 0.2674(3) 0.5449(3) 0.26599(16)
H27 H 0.1640 0.4942 0.2564
C27 C 0.3524(4) 0.4851(3) 0.31385(18)
H29 H 0.4517 0.5296 0.3316
C29 C 0.3009(5) 0.3771(4) 0.3329(2)
H31 H 0.2021 0.3298 0.3162
H32 H 0.3618 0.3451 0.3635
C31 C 0.2211(3) 0.6849(3) 0.35803(15)
C33 C 0.2654(3) 0.8181(3) 0.39541(15)
C35 C 0.2009(3) 0.8470(3) 0.45255(16)
H35 H 0.1294 0.7822 0.4659
C37 C 0.2410(3) 0.9700(3) 0.48983(17)
H37 H 0.1982 0.9900 0.5291
C39 C 0.3439(3) 1.0627(3) 0.46888(16)
C41 C 0.4074(3) 1.0368(3) 0.41183(17)
H39 H 0.4768 1.1024 0.3977
C43 C 0.3684(3) 0.9137(3) 0.37554(17)
H41 H 0.4125 0.8944 0.3367
Br2 Br 0.63872(5) -0.20210(3) -0.02353(2)
O2 O 0.5870(2) 0.2006(2) 0.30018(13)
O4 O 0.7433(2) 0.35852(18) 0.19081(11)
O6 O 0.9235(2) 0.4251(2) 0.13399(13)
C2 C 0.7202(3) 0.0256(3) 0.29911(17)
H2 H 0.6228 -0.0019 0.2735
C4 C 0.7875(4) -0.0598(3) 0.30450(19)
H4 H 0.7365 -0.1458 0.2825
C6 C 0.9290(4) -0.0209(3) 0.3419(2)
H6 H 0.9752 -0.0800 0.3455
C8 C 1.0030(4) 0.1033(3) 0.3738(2)
H8 H 1.1001 0.1298 0.3998
C10 C 0.9366(3) 0.1904(3) 0.36820(18)
H10 H 0.9887 0.2763 0.3899
C12 C 0.7943(3) 0.1525(3) 0.33104(16)
C14 C 0.7152(3) 0.2412(3) 0.32481(15)
C16 C 0.7956(3) 0.3804(3) 0.35288(16)
H12 H 0.8969 0.4010 0.3506
C17 C 0.7881(5) 0.4173(3) 0.43673(19)
H13 H 0.7099 0.3517 0.4495
H14 H 0.8782 0.4279 0.4728
C20 C 0.7625(5) 0.5386(4) 0.4418(2)
H19 H 0.8327 0.6011 0.4855
H20 H 0.6664 0.5256 0.4495
C22 C 0.7765(4) 0.5850(3) 0.36719(18)
H23 H 0.8753 0.6397 0.3705
H24 H 0.7127 0.6317 0.3539
C24 C 0.7327(3) 0.4634(3) 0.30851(16)
H26 H 0.6269 0.4233 0.2944
C26 C 0.7849(4) 0.4835(3) 0.23641(18)
H28 H 0.8908 0.5218 0.2509
C28 C 0.7284(5) 0.5674(4) 0.1933(2)
H30 H 0.7561 0.6513 0.2196
C30 C 0.6497(5) 0.5423(4) 0.1275(3)
H33 H 0.6180 0.4601 0.0980
H34 H 0.6217 0.6053 0.1070
C32 C 0.8234(3) 0.3417(3) 0.14302(16)
C34 C 0.7746(3) 0.2095(3) 0.10342(15)
C36 C 0.8479(3) 0.1789(3) 0.05153(16)
H36 H 0.9264 0.2425 0.0424
C38 C 0.8075(4) 0.0569(3) 0.01328(18)
H38 H 0.8565 0.0361 -0.0226
C40 C 0.6939(4) -0.0345(3) 0.02848(18)
C42 C 0.6212(4) -0.0070(3) 0.08035(19)
H40 H 0.5444 -0.0714 0.0903
C44 C 0.6614(3) 0.1156(3) 0.11774(17)
H42 H 0.6116 0.1358 0.1533
loop_
_geom_bond_atom_site_label_1
_geom_bond_atom_site_label_2
_geom_bond_site_symmetry_1
_geom_bond_site_symmetry_2
Br1 C39 1_555 1_555
Br2 C40 1_555 1_555
O1 C13 1_555 1_555
O2 C14 1_555 1_555
O3 C25 1_555 1_555
O4 C26 1_555 1_555
O5 C31 1_555 1_555
O6 C32 1_555 1_555
C1 H1 1_555 1_555
C2 H2 1_555 1_555
C3 C1 1_555 1_555
H3 C3 1_555 1_555
C4 C2 1_555 1_555
H4 C4 1_555 1_555
C5 C3 1_555 1_555
H5 C5 1_555 1_555
C6 C4 1_555 1_555
H6 C6 1_555 1_555
C7 C5 1_555 1_555
H7 C7 1_555 1_555
C8 C6 1_555 1_555
H8 C8 1_555 1_555
C9 C7 1_555 1_555
H9 C9 1_555 1_555
C10 C8 1_555 1_555
H10 C10 1_555 1_555
C11 C1 1_555 1_555
C12 C2 1_555 1_555
C13 C11 1_555 1_555
C14 C12 1_555 1_555
C15 C13 1_555 1_555
H11 C15 1_555 1_555
C16 C14 1_555 1_555
H12 C16 1_555 1_555
C17 C16 1_555 1_555
H13 C17 1_555 1_555
H14 C17 1_555 1_555
C18 C15 1_555 1_555
H15 C18 1_555 1_555
H16 C18 1_555 1_555
C19 C18 1_555 1_555
H17 C19 1_555 1_555
H18 C19 1_555 1_555
C20 C17 1_555 1_555
H19 C20 1_555 1_555
H20 C20 1_555 1_555
C21 C19 1_555 1_555
H21 C21 1_555 1_555
H22 C21 1_555 1_555
C22 C20 1_555 1_555
H23 C22 1_555 1_555
H24 C22 1_555 1_555
C23 C15 1_555 1_555
H25 C23 1_555 1_555
C24 C16 1_555 1_555
H26 C24 1_555 1_555
C25 C23 1_555 1_555
H27 C25 1_555 1_555
C26 C24 1_555 1_555
H28 C26 1_555 1_555
C27 C25 1_555 1_555
H29 C27 1_555 1_555
C28 C26 1_555 1_555
H30 C28 1_555 1_555
C29 C27 1_555 1_555
H31 C29 1_555 1_555
H32 C29 1_555 1_555
C30 C28 1_555 1_555
H33 C30 1_555 1_555
H34 C30 1_555 1_555
C31 O3 1_555 1_555
C32 O4 1_555 1_555
C33 C31 1_555 1_555
C34 C32 1_555 1_555
C35 C33 1_555 1_555
H35 C35 1_555 1_555
C36 C34 1_555 1_555
H36 C36 1_555 1_555
C37 C35 1_555 1_555
H37 C37 1_555 1_555
C38 C36 1_555 1_555
H38 C38 1_555 1_555
C39 C37 1_555 1_555
C40 C38 1_555 1_555
C41 C39 1_555 1_555
H39 C41 1_555 1_555
C42 C40 1_555 1_555
H40 C42 1_555 1_555
C43 C33 1_555 1_555
H41 C43 1_555 1_555
C44 C34 1_555 1_555
H42 C44 1_555 1_555
C9 C11 1_555 1_555
C10 C12 1_555 1_555
C21 C23 1_555 1_555
C22 C24 1_555 1_555
C41 C43 1_555 1_555
C42 C44 1_555 1_555

#END
