
#######################################################################
#
#                 Cambridge Crystallographic Data Centre
#                                CCDC 
#
#######################################################################
#
# If this CIF has been generated from an entry in the Cambridge 
# Structural Database, then it will include bibliographic, chemical, 
# crystal, experimental, refinement or atomic coordinate data resulting 
# from the CCDC's data processing and validation procedures.
#
#######################################################################

data_NACMIP
_chemical_formula_moiety         'C13 H16 Br1 N5 O3 S1'
_chemical_name_systematic        
4-((2-(4-Bromo-1H-pyrrol-2-yl)-4,5-dihydro-1,3-oxazol-5-yl)methyl)-N,N-dimethyl-1H-imidazole-1-sulfonamide
_symmetry_cell_setting           triclinic
_symmetry_space_group_name_H-M   'P -1'
_symmetry_Int_Tables_number      2
_space_group_name_Hall           '-P 1'
loop_
_symmetry_equiv_pos_site_id
_symmetry_equiv_pos_as_xyz
1 x,y,z
2 -x,-y,-z
_cell_length_a                   5.4028(9)
_cell_length_b                   10.6938(18)
_cell_length_c                   15.060(3)
_cell_angle_alpha                82.712(3)
_cell_angle_beta                 82.337(3)
_cell_angle_gamma                82.411(3)
_cell_volume                     849.488
_exptl_crystal_colour            colorless
_exptl_crystal_description       prism
_cell_formula_units_Z            2
loop_
_atom_site_label
_atom_site_type_symbol
_atom_site_fract_x
_atom_site_fract_y
_atom_site_fract_z
Br1 Br 1.1521(2) 0.29960(9) 0.39232(5)
S1 S 0.0538(3) 0.8597(2) 0.33171(13)
O1 O -0.0851(10) 0.9743(6) 0.3555(4)
O2 O -0.0632(10) 0.7637(6) 0.3040(4)
O3 O 0.8662(10) 0.6683(4) 0.1013(3)
N1 N 0.2103(12) 0.7988(6) 0.4123(4)
N2 N 0.2612(10) 0.9049(5) 0.2431(3)
N3 N 0.5075(16) 1.0271(7) 0.1546(5)
N4 N 1.2037(9) 0.6330(5) 0.0014(3)
N5 N 1.3953(10) 0.4297(5) 0.1377(3)
H1 H 1.5042 0.4311 0.0905
C1 C 0.3349(15) 0.8862(9) 0.4545(5)
H2 H 0.3556 0.8520 0.5155
H3 H 0.2337 0.9671 0.4543
H4 H 0.4967 0.8966 0.4213
C2 C 0.3489(18) 0.6710(9) 0.4051(6)
H5 H 0.5124 0.6787 0.3725
H6 H 0.2577 0.6229 0.3737
H7 H 0.3664 0.6285 0.4644
C3 C 0.3328(19) 1.0212(8) 0.2209(6)
H8 H 0.2624 1.0908 0.2507
C4 C 0.4041(14) 0.8302(7) 0.1833(5)
H9 H 0.3973 0.7445 0.1799
C5 C 0.5555(17) 0.9063(8) 0.1309(5)
C6 C 0.7808(19) 0.8862(9) 0.0601(6)
H10 H 0.7583 0.9503 0.0092
H11 H 0.9291 0.9010 0.0853
C7 C 0.8267(19) 0.7725(8) 0.0289(5)
H12 H 0.6731 0.7597 0.0048
C8 C 1.0452(12) 0.7391(6) -0.0438(4)
H13 H 0.9839 0.7132 -0.0955
H14 H 1.1388 0.8111 -0.0636
C9 C 1.0883(11) 0.6028(5) 0.0781(4)
C10 C 1.1697(12) 0.5067(5) 0.1470(4)
C11 C 1.0537(13) 0.4759(6) 0.2336(4)
H15 H 0.8995 0.5128 0.2593
C12 C 1.2116(14) 0.3798(6) 0.2742(4)
C13 C 1.4175(14) 0.3516(7) 0.2150(4)
H16 H 1.5509 0.2894 0.2256
loop_
_geom_bond_atom_site_label_1
_geom_bond_atom_site_label_2
_geom_bond_site_symmetry_1
_geom_bond_site_symmetry_2
Br1 C12 1_555 1_555
S1 O1 1_555 1_555
O2 S1 1_555 1_555
O3 C7 1_555 1_555
N1 S1 1_555 1_555
N2 S1 1_555 1_555
N3 C3 1_555 1_555
N4 C8 1_555 1_555
N5 H1 1_555 1_555
C1 N1 1_555 1_555
H2 C1 1_555 1_555
H3 C1 1_555 1_555
H4 C1 1_555 1_555
C2 N1 1_555 1_555
H5 C2 1_555 1_555
H6 C2 1_555 1_555
H7 C2 1_555 1_555
C3 N2 1_555 1_555
H8 C3 1_555 1_555
C4 N2 1_555 1_555
H9 C4 1_555 1_555
C5 N3 1_555 1_555
C6 C5 1_555 1_555
H10 C6 1_555 1_555
H11 C6 1_555 1_555
C7 C6 1_555 1_555
H12 C7 1_555 1_555
C8 C7 1_555 1_555
H13 C8 1_555 1_555
H14 C8 1_555 1_555
C9 O3 1_555 1_555
C10 N5 1_555 1_555
C11 C10 1_555 1_555
H15 C11 1_555 1_555
C12 C11 1_555 1_555
C13 N5 1_555 1_555
H16 C13 1_555 1_555
N4 C9 1_555 1_555
C4 C5 1_555 1_555
C9 C10 1_555 1_555
C12 C13 1_555 1_555

#END
