
#######################################################################
#
#                 Cambridge Crystallographic Data Centre
#                                CCDC 
#
#######################################################################
#
# If this CIF has been generated from an entry in the Cambridge 
# Structural Database, then it will include bibliographic, chemical, 
# crystal, experimental, refinement or atomic coordinate data resulting 
# from the CCDC's data processing and validation procedures.
#
#######################################################################

data_NACTEQ01
_chemical_formula_moiety         'C25 H21 P1'
_chemical_name_systematic        'Triphenylphosphonium benzylide'
_symmetry_cell_setting           monoclinic
_symmetry_space_group_name_H-M   'P 21/c'
_symmetry_Int_Tables_number      14
_space_group_name_Hall           '-P 2ybc'
loop_
_symmetry_equiv_pos_site_id
_symmetry_equiv_pos_as_xyz
1 x,y,z
2 -x,1/2+y,1/2-z
3 -x,-y,-z
4 x,1/2-y,1/2+z
_cell_length_a                   9.447(1)
_cell_length_b                   11.005(1)
_cell_length_c                   18.516(1)
_cell_angle_alpha                90
_cell_angle_beta                 91.39(1)
_cell_angle_gamma                90
_cell_volume                     1924.44
_exptl_crystal_colour            orange
_cell_formula_units_Z            4
loop_
_atom_site_label
_atom_site_type_symbol
_atom_site_fract_x
_atom_site_fract_y
_atom_site_fract_z
P1 P 0.04710(8) 0.27036(7) 0.56023(4)
C1 C 0.1909(3) 0.4398(3) 0.6494(2)
C2 C 0.1889(4) 0.5517(3) 0.6875(2)
C3 C 0.3044(4) 0.5912(3) 0.7284(2)
C4 C 0.4299(4) 0.5243(3) 0.7328(2)
C5 C 0.4349(4) 0.4172(3) 0.6940(2)
C6 C 0.3201(3) 0.3759(3) 0.6532(2)
C7 C 0.0658(3) 0.3988(3) 0.6102(2)
C8 C 0.1188(3) 0.1368(3) 0.6059(2)
C9 C 0.0817(3) 0.1152(3) 0.6774(2)
C10 C 0.1337(4) 0.0156(3) 0.7150(2)
C11 C 0.2264(4) -0.0639(3) 0.6822(2)
C12 C 0.2674(4) -0.0417(3) 0.6123(2)
C13 C 0.2134(3) 0.0562(3) 0.5736(2)
C14 C 0.1285(3) 0.2693(3) 0.4718(2)
C15 C 0.0980(4) 0.1828(3) 0.4189(2)
C16 C 0.1660(4) 0.1843(3) 0.3537(2)
C17 C 0.2649(4) 0.2741(3) 0.3396(2)
C18 C 0.2942(3) 0.3623(3) 0.3912(2)
C19 C 0.2262(3) 0.3602(3) 0.4566(2)
C20 C -0.1406(3) 0.2484(3) 0.5422(2)
C21 C -0.2223(3) 0.1649(3) 0.5801(2)
C22 C -0.3677(4) 0.1605(3) 0.5682(2)
C23 C -0.4330(4) 0.2391(3) 0.5194(2)
C24 C -0.3523(4) 0.3216(3) 0.4809(2)
C25 C -0.2068(3) 0.3255(3) 0.4920(2)
H1 H 0.1041(32) 0.6008(27) 0.6833(15)
H2 H 0.2962(29) 0.6641(27) 0.7555(15)
H3 H 0.5076(37) 0.5550(31) 0.7625(18)
H4 H 0.5230(33) 0.3698(28) 0.6948(16)
H5 H 0.3270(29) 0.2991(27) 0.6266(15)
H6 H -0.0137(27) 0.4474(24) 0.6089(13)
H7 H 0.0195(30) 0.1715(27) 0.6983(15)
H8 H 0.1056(32) 0.0035(29) 0.7639(18)
H9 H 0.2708(38) -0.1345(34) 0.7090(19)
H10 H 0.3320(34) -0.0956(30) 0.5912(17)
H11 H 0.2409(33) 0.0735(28) 0.5213(18)
H12 H 0.0372(34) 0.1267(30) 0.4284(17)
H13 H 0.1437(32) 0.1256(29) 0.3169(17)
H14 H 0.3094(31) 0.2767(27) 0.2935(17)
H15 H 0.3571(34) 0.4272(30) 0.3817(17)
H16 H 0.2459(31) 0.4176(27) 0.4922(16)
H17 H -0.1796(31) 0.1107(27) 0.6138(16)
H18 H -0.4232(34) 0.1007(30) 0.5929(17)
H19 H -0.5316(34) 0.2357(28) 0.5094(16)
H20 H -0.3985(32) 0.3732(29) 0.4462(17)
H21 H -0.1505(31) 0.3820(28) 0.4620(16)
loop_
_geom_bond_atom_site_label_1
_geom_bond_atom_site_label_2
_geom_bond_site_symmetry_1
_geom_bond_site_symmetry_2
P1 C7 1_555 1_555
C1 C2 1_555 1_555
C2 C3 1_555 1_555
C3 C4 1_555 1_555
C4 C5 1_555 1_555
C5 C6 1_555 1_555
C6 C1 1_555 1_555
C7 C1 1_555 1_555
C8 P1 1_555 1_555
C9 C8 1_555 1_555
C10 C9 1_555 1_555
C11 C10 1_555 1_555
C12 C11 1_555 1_555
C13 C8 1_555 1_555
C14 P1 1_555 1_555
C15 C14 1_555 1_555
C16 C15 1_555 1_555
C17 C16 1_555 1_555
C18 C17 1_555 1_555
C19 C14 1_555 1_555
C20 P1 1_555 1_555
C21 C20 1_555 1_555
C22 C21 1_555 1_555
C23 C22 1_555 1_555
C24 C23 1_555 1_555
C25 C20 1_555 1_555
H1 C2 1_555 1_555
H2 C3 1_555 1_555
H3 C4 1_555 1_555
H4 C5 1_555 1_555
H5 C6 1_555 1_555
H6 C7 1_555 1_555
H7 C9 1_555 1_555
H8 C10 1_555 1_555
H9 C11 1_555 1_555
H10 C12 1_555 1_555
H11 C13 1_555 1_555
H12 C15 1_555 1_555
H13 C16 1_555 1_555
H14 C17 1_555 1_555
H15 C18 1_555 1_555
H16 C19 1_555 1_555
H17 C21 1_555 1_555
H18 C22 1_555 1_555
H19 C23 1_555 1_555
H20 C24 1_555 1_555
H21 C25 1_555 1_555
C12 C13 1_555 1_555
C18 C19 1_555 1_555
C24 C25 1_555 1_555

#END
