
#######################################################################
#
#                 Cambridge Crystallographic Data Centre
#                                CCDC 
#
#######################################################################
#
# If this CIF has been generated from an entry in the Cambridge 
# Structural Database, then it will include bibliographic, chemical, 
# crystal, experimental, refinement or atomic coordinate data resulting 
# from the CCDC's data processing and validation procedures.
#
#######################################################################

data_NACXEU
_chemical_formula_moiety         'C8 H3 N5 O10'
_chemical_name_systematic        1,2,3,5,7-Pentanitrocubane
_symmetry_cell_setting           monoclinic
_symmetry_space_group_name_H-M   'P 21/c'
_symmetry_Int_Tables_number      14
_space_group_name_Hall           '-P 2ybc'
loop_
_symmetry_equiv_pos_site_id
_symmetry_equiv_pos_as_xyz
1 x,y,z
2 -x,1/2+y,1/2-z
3 -x,-y,-z
4 x,1/2-y,1/2+z
_cell_length_a                   6.637(3)
_cell_length_b                   23.275(14)
_cell_length_c                   7.860(5)
_cell_angle_alpha                90
_cell_angle_beta                 113.21(5)
_cell_angle_gamma                90
_cell_volume                     1115.91
_exptl_crystal_colour            yellow
_cell_formula_units_Z            4
loop_
_atom_site_label
_atom_site_type_symbol
_atom_site_fract_x
_atom_site_fract_y
_atom_site_fract_z
C1 C 0.5080(15) 0.3921(4) 0.3803(15)
N1 N 0.6949(14) 0.4094(5) 0.5516(12)
O1 O 0.7022(12) 0.4575(4) 0.6077(11)
O2 O 0.8248(14) 0.3715(4) 0.6300(12)
C2 C 0.5087(14) 0.3409(4) 0.2574(14)
N2 N 0.6981(16) 0.3054(5) 0.2785(13)
O3 O 0.8544(13) 0.3304(4) 0.2689(12)
O4 O 0.6936(12) 0.2550(4) 0.3099(12)
C3 C 0.3802(14) 0.3801(4) 0.0887(13)
N3 N 0.4203(15) 0.3875(4) -0.0863(12)
O5 O 0.5523(15) 0.3568(4) -0.1090(12)
O6 O 0.3184(15) 0.4245(4) -0.1866(12)
C4 C 0.1573(15) 0.3581(4) 0.0862(16)
H1 H 0.028(16) 0.3447(39) -0.007(14)
C5 C 0.2831(13) 0.3214(4) 0.2568(13)
N4 N 0.2416(15) 0.2611(4) 0.2978(16)
O7 O 0.1149(16) 0.2330(4) 0.1740(14)
O8 O 0.3414(15) 0.2445(4) 0.4545(14)
C6 C 0.2858(15) 0.3707(4) 0.3860(15)
H2 H 0.257(14) 0.3646(37) 0.490(13)
C7 C 0.1617(14) 0.4084(4) 0.2167(13)
N5 N -0.0291(15) 0.4427(4) 0.1966(17)
O9 O -0.0654(15) 0.4545(4) 0.3303(14)
O10 O -0.1459(14) 0.4585(4) 0.0412(14)
C8 C 0.3818(14) 0.4310(5) 0.2110(13)
H3 H 0.410(15) 0.4704(41) 0.195(12)
loop_
_geom_bond_atom_site_label_1
_geom_bond_atom_site_label_2
_geom_bond_site_symmetry_1
_geom_bond_site_symmetry_2
C1 N1 1_555 1_555
N1 O1 1_555 1_555
O2 N1 1_555 1_555
C2 C1 1_555 1_555
N2 C2 1_555 1_555
O3 N2 1_555 1_555
O4 N2 1_555 1_555
C3 C2 1_555 1_555
N3 C3 1_555 1_555
O5 N3 1_555 1_555
O6 N3 1_555 1_555
C4 C3 1_555 1_555
H1 C4 1_555 1_555
C5 C2 1_555 1_555
N4 C5 1_555 1_555
O7 N4 1_555 1_555
O8 N4 1_555 1_555
C6 C1 1_555 1_555
H2 C6 1_555 1_555
C7 C4 1_555 1_555
N5 C7 1_555 1_555
O9 N5 1_555 1_555
O10 N5 1_555 1_555
C8 C1 1_555 1_555
H3 C8 1_555 1_555
C3 C8 1_555 1_555
C4 C5 1_555 1_555
C5 C6 1_555 1_555
C6 C7 1_555 1_555
C7 C8 1_555 1_555

#END
