
#######################################################################
#
#                 Cambridge Crystallographic Data Centre
#                                CCDC 
#
#######################################################################
#
# If this CIF has been generated from an entry in the Cambridge 
# Structural Database, then it will include bibliographic, chemical, 
# crystal, experimental, refinement or atomic coordinate data resulting 
# from the CCDC's data processing and validation procedures.
#
#######################################################################

data_NADJAD
_chemical_formula_moiety         'C26 H23 N3 O2 S1'
_chemical_name_systematic        
1-Naphthyl-(6-isothiocyanato-1-(2-(4-morpholinyl)ethyl)-1H-indol-3-yl)methanone
_chemical_properties_biological  
'potent agonist in inhibiting adenylate cyclase activity in the neuroblastoma model membrane'
_symmetry_cell_setting           monoclinic
_symmetry_space_group_name_H-M   'P 21/c'
_symmetry_Int_Tables_number      14
_space_group_name_Hall           '-P 2ybc'
loop_
_symmetry_equiv_pos_site_id
_symmetry_equiv_pos_as_xyz
1 x,y,z
2 -x,1/2+y,1/2-z
3 -x,-y,-z
4 x,1/2-y,1/2+z
_cell_length_a                   9.038
_cell_length_b                   13.3640(10)
_cell_length_c                   18.370(2)
_cell_angle_alpha                90
_cell_angle_beta                 94.810(10)
_cell_angle_gamma                90
_cell_volume                     2210.98
_exptl_crystal_colour            colorless
_chemical_melting_point          166-167deg.C
_cell_formula_units_Z            4
loop_
_atom_site_label
_atom_site_type_symbol
_atom_site_fract_x
_atom_site_fract_y
_atom_site_fract_z
N1 N 0.0156(3) 0.5278(2) -0.10343(13)
C1 C -0.1232(3) 0.5659(2) -0.1106(2)
H1 H -0.1464(3) 0.6308(2) -0.1258(2)
C2 C -0.1424(3) 0.4064(2) -0.07312(15)
C3 C -0.2266(3) 0.4958(2) -0.09252(15)
C4 C -0.1798(4) 0.3108(2) -0.0499(2)
H2 H -0.2782(4) 0.2944(2) -0.0442(2)
C5 C -0.0685(4) 0.2409(2) -0.0357(2)
H3 H -0.0918(4) 0.1767(2) -0.0208(2)
S1 S 0.29429(12) 0.00962(7) 0.01821(6)
N2 N 0.1895(3) 0.1935(2) -0.0277(2)
C6 C 0.0790(4) 0.2668(2) -0.0438(2)
C7 C 0.2280(4) 0.1140(3) -0.0077(2)
C8 C 0.1211(4) 0.3595(2) -0.0665(2)
H4 H 0.2199(4) 0.3752(2) -0.0717(2)
C9 C 0.0073(3) 0.4288(2) -0.0813(2)
C10 C 0.1443(4) 0.5750(2) -0.1325(2)
H5 H 0.2332(4) 0.5374(2) -0.1170(2)
H6 H 0.1562(4) 0.6424(2) -0.1133(2)
C11 C 0.1241(4) 0.5785(2) -0.2156(2)
H7 H 0.0472(4) 0.6265(2) -0.2308(2)
H8 H 0.2158(4) 0.6008(2) -0.2343(2)
N3 N 0.0838(3) 0.4814(2) -0.24659(14)
C12 C 0.2087(4) 0.4134(3) -0.2507(2)
H9 H 0.2667(4) 0.4106(3) -0.2039(2)
H10 H 0.2724(4) 0.4368(3) -0.2871(2)
C13 C 0.1490(5) 0.3111(3) -0.2712(3)
H11 H 0.2310(5) 0.2645(3) -0.2727(3)
H12 H 0.0865(5) 0.2880(3) -0.2342(3)
O1 O 0.0656(3) 0.3121(2) -0.3400(2)
C14 C -0.0537(5) 0.3797(4) -0.3377(2)
H13 H -0.1197(5) 0.3566(4) -0.3023(2)
H14 H -0.1095(5) 0.3813(4) -0.3852(2)
C15 C -0.0002(5) 0.4847(3) -0.3175(2)
H15 H 0.0619(5) 0.5098(3) -0.3540(2)
H16 H -0.0846(5) 0.5293(3) -0.3156(2)
O2 O -0.4729(2) 0.4434(2) -0.08362(12)
C16 C -0.3852(4) 0.5101(2) -0.0973(2)
C17 C -0.4452(3) 0.6109(2) -0.1220(2)
C18 C -0.4875(3) 0.6774(2) -0.0720(2)
H17 H -0.4785(3) 0.6606(2) -0.0227(2)
C19 C -0.5446(4) 0.7715(2) -0.0938(2)
H18 H -0.5714(4) 0.8169(2) -0.0588(2)
C20 C -0.5202(3) 0.7294(2) -0.2195(2)
C21 C -0.5607(4) 0.7962(2) -0.1652(2)
H19 H -0.5992(4) 0.8586(2) -0.1788(2)
C22 C -0.5343(4) 0.7527(3) -0.2951(2)
H20 H -0.5746(4) 0.8140(3) -0.3104(2)
C23 C -0.4907(5) 0.6882(3) -0.3451(2)
H21 H -0.5004(5) 0.7054(3) -0.3943(2)
C24 C -0.4309(5) 0.5952(3) -0.3237(2)
H22 H -0.4014(5) 0.5510(3) -0.3588(2)
C25 C -0.4594(3) 0.6347(2) -0.1972(2)
C26 C -0.4156(4) 0.5692(2) -0.2523(2)
H23 H -0.3756(4) 0.5070(2) -0.2391(2)
loop_
_geom_bond_atom_site_label_1
_geom_bond_atom_site_label_2
_geom_bond_site_symmetry_1
_geom_bond_site_symmetry_2
N1 C1 1_555 1_555
C1 H1 1_555 1_555
C2 C3 1_555 1_555
C3 C1 1_555 1_555
C4 C2 1_555 1_555
H2 C4 1_555 1_555
C5 C4 1_555 1_555
H3 C5 1_555 1_555
S1 C7 1_555 1_555
N2 C6 1_555 1_555
C6 C5 1_555 1_555
C7 N2 1_555 1_555
C8 C6 1_555 1_555
H4 C8 1_555 1_555
C9 N1 1_555 1_555
C10 N1 1_555 1_555
H5 C10 1_555 1_555
H6 C10 1_555 1_555
C11 C10 1_555 1_555
H7 C11 1_555 1_555
H8 C11 1_555 1_555
N3 C11 1_555 1_555
C12 N3 1_555 1_555
H9 C12 1_555 1_555
H10 C12 1_555 1_555
C13 C12 1_555 1_555
H11 C13 1_555 1_555
H12 C13 1_555 1_555
O1 C13 1_555 1_555
C14 O1 1_555 1_555
H13 C14 1_555 1_555
H14 C14 1_555 1_555
C15 N3 1_555 1_555
H15 C15 1_555 1_555
H16 C15 1_555 1_555
O2 C16 1_555 1_555
C16 C3 1_555 1_555
C17 C16 1_555 1_555
C18 C17 1_555 1_555
H17 C18 1_555 1_555
C19 C18 1_555 1_555
H18 C19 1_555 1_555
C20 C21 1_555 1_555
C21 C19 1_555 1_555
H19 C21 1_555 1_555
C22 C20 1_555 1_555
H20 C22 1_555 1_555
C23 C22 1_555 1_555
H21 C23 1_555 1_555
C24 C23 1_555 1_555
H22 C24 1_555 1_555
C25 C17 1_555 1_555
C26 C24 1_555 1_555
H23 C26 1_555 1_555
C2 C9 1_555 1_555
C8 C9 1_555 1_555
C14 C15 1_555 1_555
C20 C25 1_555 1_555
C25 C26 1_555 1_555

#END
