
#######################################################################
#
#                 Cambridge Crystallographic Data Centre
#                                CCDC 
#
#######################################################################
#
# If this CIF has been generated from an entry in the Cambridge 
# Structural Database, then it will include bibliographic, chemical, 
# crystal, experimental, refinement or atomic coordinate data resulting 
# from the CCDC's data processing and validation procedures.
#
#######################################################################

data_NADPIU
_chemical_formula_moiety         'C13 H9 Cl1 N2'
_chemical_name_systematic        3-(4-chlorophenyl)pyrazolo[1,5-a]pyridine
_symmetry_cell_setting           monoclinic
_symmetry_space_group_name_H-M   'P c'
_symmetry_Int_Tables_number      7
_space_group_name_Hall           'P -2yc'
loop_
_symmetry_equiv_pos_site_id
_symmetry_equiv_pos_as_xyz
1 x,y,z
2 x,-y,1/2+z
_cell_length_a                   12.6083(9)
_cell_length_b                   11.4037(8)
_cell_length_c                   7.3882(6)
_cell_angle_alpha                90
_cell_angle_beta                 96.485(4)
_cell_angle_gamma                90
_cell_volume                     1055.49
_exptl_crystal_colour            colorless
_exptl_crystal_description       prism
_cell_formula_units_Z            4
loop_
_atom_site_label
_atom_site_type_symbol
_atom_site_fract_x
_atom_site_fract_y
_atom_site_fract_z
C1 C 1.0584(2) 0.0692(3) 0.0474(4)
H1 H 1.1171 0.1147 0.0174
C2 C 1.0657(2) -0.0479(3) 0.0607(4)
H2 H 1.1307 -0.0860 0.0430
C3 C 0.9763(3) -0.1154(2) 0.1011(5)
H3 H 0.9820 -0.1983 0.1088
C4 C 0.8830(2) -0.0628(2) 0.1288(4)
H4 H 0.8238 -0.1088 0.1549
C5 C 0.8741(2) 0.0609(2) 0.1187(3)
C6 C 0.7949(2) 0.1466(2) 0.1322(4)
C7 C 0.8460(2) 0.2520(2) 0.0995(4)
H5 H 0.8115 0.3261 0.1006
C8 C 0.6842(2) 0.1321(2) 0.1698(4)
C9 C 0.6493(2) 0.0358(2) 0.2659(3)
H6 H 0.6996 -0.0223 0.3104
C10 C 0.54365(19) 0.0231(2) 0.2976(3)
H7 H 0.5218 -0.0431 0.3622
C11 C 0.4705(3) 0.1080(2) 0.2339(4)
C12 C 0.5009(2) 0.2053(2) 0.1413(3)
H8 H 0.4500 0.2634 0.0993
C13 C 0.6077(2) 0.2169(2) 0.1101(3)
H9 H 0.6290 0.2839 0.0470
N1 N 0.9638(2) 0.12192(18) 0.0784(4)
N2 N 0.9477(2) 0.23963(19) 0.0664(4)
Cl1 Cl 0.33622(5) 0.09070(6) 0.27110(9)
C14 C 0.0875(2) 0.5542(3) 0.3624(4)
H10 H 0.0274 0.5987 0.3885
C15 C 0.0840(2) 0.4357(3) 0.3596(4)
H11 H 0.0208 0.3964 0.3845
C16 C 0.1731(3) 0.3701(2) 0.3200(5)
H12 H 0.1690 0.2870 0.3152
C17 C 0.2659(2) 0.4255(2) 0.2885(4)
H13 H 0.3262 0.3807 0.2638
C18 C 0.2715(2) 0.5487(2) 0.2927(3)
C19 C 0.3459(3) 0.6368(2) 0.2647(4)
C20 C 0.2907(2) 0.7418(2) 0.2833(4)
H14 H 0.3216 0.8168 0.2695
C21 C 0.4587(2) 0.6261(2) 0.2266(4)
C22 C 0.5228(2) 0.5304(2) 0.2863(3)
H15 H 0.4928 0.4683 0.3496
C23 C 0.6296(2) 0.5241(2) 0.2552(4)
H16 H 0.6715 0.4576 0.2938
C24 C 0.6740(3) 0.6163(2) 0.1670(5)
C25 C 0.6126(2) 0.7126(2) 0.1068(4)
H17 H 0.6432 0.7753 0.0458
C26 C 0.5061(2) 0.7162(2) 0.1368(4)
H18 H 0.4641 0.7821 0.0949
N3 N 0.1797(2) 0.60868(18) 0.3267(3)
N4 N 0.19079(19) 0.72707(19) 0.3223(4)
Cl2 Cl 0.80820(5) 0.60874(6) 0.12949(9)
loop_
_geom_bond_atom_site_label_1
_geom_bond_atom_site_label_2
_geom_bond_site_symmetry_1
_geom_bond_site_symmetry_2
C1 H1 1_555 1_555
C2 C1 1_555 1_555
H2 C2 1_555 1_555
C3 C2 1_555 1_555
H3 C3 1_555 1_555
C4 C3 1_555 1_555
H4 C4 1_555 1_555
C5 C4 1_555 1_555
C6 C5 1_555 1_555
C7 C6 1_555 1_555
H5 C7 1_555 1_555
C8 C6 1_555 1_555
C9 C8 1_555 1_555
H6 C9 1_555 1_555
C10 C9 1_555 1_555
H7 C10 1_555 1_555
C11 C10 1_555 1_555
C12 C11 1_555 1_555
H8 C12 1_555 1_555
C13 C8 1_555 1_555
H9 C13 1_555 1_555
N1 C1 1_555 1_555
N2 C7 1_555 1_555
Cl1 C11 1_555 1_555
C14 H10 1_555 1_555
C15 C14 1_555 1_555
H11 C15 1_555 1_555
C16 C15 1_555 1_555
H12 C16 1_555 1_555
C17 C16 1_555 1_555
H13 C17 1_555 1_555
C18 C17 1_555 1_555
C19 C18 1_555 1_555
C20 C19 1_555 1_555
H14 C20 1_555 1_555
C21 C19 1_555 1_555
C22 C21 1_555 1_555
H15 C22 1_555 1_555
C23 C22 1_555 1_555
H16 C23 1_555 1_555
C24 C23 1_555 1_555
C25 C24 1_555 1_555
H17 C25 1_555 1_555
C26 C21 1_555 1_555
H18 C26 1_555 1_555
N3 C14 1_555 1_555
N4 C20 1_555 1_555
Cl2 C24 1_555 1_555
C5 N1 1_555 1_555
C12 C13 1_555 1_555
N1 N2 1_555 1_555
C18 N3 1_555 1_555
C25 C26 1_555 1_555
N3 N4 1_555 1_555

#END
