
#######################################################################
#
#                 Cambridge Crystallographic Data Centre
#                                CCDC 
#
#######################################################################
#
# If this CIF has been generated from an entry in the Cambridge 
# Structural Database, then it will include bibliographic, chemical, 
# crystal, experimental, refinement or atomic coordinate data resulting 
# from the CCDC's data processing and validation procedures.
#
#######################################################################

data_NADPOA
_chemical_formula_moiety         'C15 H12 N2 O2'
_chemical_name_systematic        
'methyl 7-phenylpyrazolo[1,5-a]pyridine-3-carboxylate'
_symmetry_cell_setting           monoclinic
_symmetry_space_group_name_H-M   'P 21'
_symmetry_Int_Tables_number      4
_space_group_name_Hall           'P 2yb'
loop_
_symmetry_equiv_pos_site_id
_symmetry_equiv_pos_as_xyz
1 x,y,z
2 -x,1/2+y,-z
_cell_length_a                   3.8617(2)
_cell_length_b                   14.2043(9)
_cell_length_c                   11.0554(7)
_cell_angle_alpha                90
_cell_angle_beta                 95.734(3)
_cell_angle_gamma                90
_cell_volume                     603.385
_exptl_crystal_colour            colorless
_exptl_crystal_description       prism
_cell_formula_units_Z            2
loop_
_atom_site_label
_atom_site_type_symbol
_atom_site_fract_x
_atom_site_fract_y
_atom_site_fract_z
C1 C 0.3833(7) -0.0211(2) 0.2650(2)
C2 C 0.5598(10) -0.1628(2) 0.1743(3)
H1 H 0.6534 -0.1849 0.1002
H2 H 0.3352 -0.1933 0.1818
H3 H 0.7226 -0.1787 0.2451
C3 C 0.3543(7) 0.0794(2) 0.2492(2)
C4 C 0.4474(7) 0.1350(2) 0.1528(2)
H4 H 0.5408 0.1096 0.0835
C5 C 0.2286(7) 0.1438(2) 0.3307(2)
C6 C 0.1026(7) 0.1386(2) 0.4454(2)
H5 H 0.0734 0.0794 0.4832
C7 C 0.0232(7) 0.2202(2) 0.5012(2)
H6 H -0.0552 0.2180 0.5799
C8 C 0.0555(7) 0.3073(2) 0.4441(2)
H7 H -0.0028 0.3630 0.4850
C9 C 0.1683(6) 0.3144(2) 0.33125(19)
C10 C 0.1924(7) 0.4046(2) 0.2656(2)
C11 C 0.0454(7) 0.4145(2) 0.1460(2)
H8 H -0.0584 0.3620 0.1032
C12 C 0.0522(8) 0.5012(2) 0.0906(2)
H9 H -0.0482 0.5082 0.0091
C13 C 0.2024(8) 0.5780(2) 0.1513(2)
H10 H 0.2053 0.6374 0.1121
C14 C 0.3481(7) 0.5679(2) 0.2694(2)
H11 H 0.4536 0.6204 0.3115
C15 C 0.3417(8) 0.4819(2) 0.3269(2)
H12 H 0.4399 0.4756 0.4088
N1 N 0.3928(6) 0.22652(17) 0.16742(17)
N2 N 0.2561(5) 0.23122(15) 0.27773(15)
O1 O 0.3048(6) -0.06574(15) 0.35148(17)
O2 O 0.5129(5) -0.06204(14) 0.16825(15)
loop_
_geom_bond_atom_site_label_1
_geom_bond_atom_site_label_2
_geom_bond_site_symmetry_1
_geom_bond_site_symmetry_2
C1 C3 1_555 1_555
C2 H1 1_555 1_555
H2 C2 1_555 1_555
H3 C2 1_555 1_555
C3 C4 1_555 1_555
C4 H4 1_555 1_555
C5 C3 1_555 1_555
C6 C5 1_555 1_555
H5 C6 1_555 1_555
C7 C6 1_555 1_555
H6 C7 1_555 1_555
C8 C7 1_555 1_555
H7 C8 1_555 1_555
C9 C8 1_555 1_555
C10 C9 1_555 1_555
C11 C10 1_555 1_555
H8 C11 1_555 1_555
C12 C11 1_555 1_555
H9 C12 1_555 1_555
C13 C12 1_555 1_555
H10 C13 1_555 1_555
C14 C13 1_555 1_555
H11 C14 1_555 1_555
C15 C10 1_555 1_555
H12 C15 1_555 1_555
N1 C4 1_555 1_555
N2 C5 1_555 1_555
O1 C1 1_555 1_555
O2 C1 1_555 1_555
C2 O2 1_555 1_555
C9 N2 1_555 1_555
C14 C15 1_555 1_555
N1 N2 1_555 1_555

#END
