
#######################################################################
#
#                 Cambridge Crystallographic Data Centre
#                                CCDC 
#
#######################################################################
#
# If this CIF has been generated from an entry in the Cambridge 
# Structural Database, then it will include bibliographic, chemical, 
# crystal, experimental, refinement or atomic coordinate data resulting 
# from the CCDC's data processing and validation procedures.
#
#######################################################################

data_NAFBOL
_chemical_formula_moiety         'C12 H16 O2'
_chemical_name_systematic        
5,9-Dimethyltricyclo(4.3.1.0^2,5^)decane-3,8-dione
_symmetry_cell_setting           monoclinic
_symmetry_space_group_name_H-M   'P 21'
_symmetry_Int_Tables_number      4
_space_group_name_Hall           'P 2yb'
loop_
_symmetry_equiv_pos_site_id
_symmetry_equiv_pos_as_xyz
1 x,y,z
2 -x,1/2+y,-z
_cell_length_a                   7.053(4)
_cell_length_b                   8.576(4)
_cell_length_c                   8.823(6)
_cell_angle_alpha                90
_cell_angle_beta                 91.67(5)
_cell_angle_gamma                90
_cell_volume                     533.446
_exptl_crystal_colour            colorless
_chemical_melting_point          75-77deg.C
_cell_formula_units_Z            2
loop_
_atom_site_label
_atom_site_type_symbol
_atom_site_fract_x
_atom_site_fract_y
_atom_site_fract_z
O1 O 0.4065(6) 0.2616 0.4269(4)
O2 O -0.0905(5) 0.2100(7) 1.0002(4)
C1 C 0.3850(7) 0.1775(7) 0.5347(6)
C2 C 0.2059(7) 0.0805(8) 0.5510(5)
H1 H 0.2371(7) -0.0247(8) 0.5239(5)
C3 C 0.1476(6) 0.0767(7) 0.7176(6)
H2 H 0.0334(6) 0.0175(7) 0.7295(6)
C4 C 0.3121(6) 0.0161(7) 0.8189(6)
H3 H 0.3671(6) -0.0753(7) 0.7752(6)
H4 H 0.2741(6) -0.0061(7) 0.9202(6)
C5 C 0.4503(6) 0.1539(8) 0.8148(5)
H5 H 0.5468(6) 0.1472(8) 0.8935(5)
C6 C 0.5362(6) 0.1585(8) 0.6580(6)
H6 H 0.6242(6) 0.2435(8) 0.6526(6)
H7 H 0.6033(6) 0.0630(8) 0.6408(6)
C7 C 0.1216(5) 0.2423(7) 0.7812(5)
H8 H 0.0587(5) 0.3153(7) 0.7143(5)
C8 C 0.0548(7) 0.2447(8) 0.9430(6)
C9 C 0.2422(6) 0.3022(8) 1.0063(5)
H9 H 0.3027(6) 0.2325(8) 1.0778(5)
H10 H 0.2368(6) 0.4067(8) 1.0451(5)
C10 C 0.3227(6) 0.2967(7) 0.8436(5)
C11 C 0.0487(8) 0.1289(10) 0.4427(6)
H11 H 0.0891(8) 0.1279(10) 0.3397(6)
H12 H -0.0582(8) 0.0606(10) 0.4522(6)
H13 H 0.0130(8) 0.2330(10) 0.4700(6)
C12 C 0.3970(7) 0.4530(7) 0.7912(6)
H14 H 0.4416(7) 0.4439(7) 0.6898(6)
H15 H 0.2951(7) 0.5271(7) 0.7928(6)
H16 H 0.4988(7) 0.4876(7) 0.8575(6)
loop_
_geom_bond_atom_site_label_1
_geom_bond_atom_site_label_2
_geom_bond_site_symmetry_1
_geom_bond_site_symmetry_2
O1 C1 1_555 1_555
O2 C8 1_555 1_555
C1 C2 1_555 1_555
C2 H1 1_555 1_555
C3 C2 1_555 1_555
H2 C3 1_555 1_555
C4 C3 1_555 1_555
H3 C4 1_555 1_555
H4 C4 1_555 1_555
C5 C4 1_555 1_555
H5 C5 1_555 1_555
C6 C1 1_555 1_555
H6 C6 1_555 1_555
H7 C6 1_555 1_555
C7 C3 1_555 1_555
H8 C7 1_555 1_555
C8 C7 1_555 1_555
C9 C8 1_555 1_555
H9 C9 1_555 1_555
H10 C9 1_555 1_555
C10 C5 1_555 1_555
C11 C2 1_555 1_555
H11 C11 1_555 1_555
H12 C11 1_555 1_555
H13 C11 1_555 1_555
C12 C10 1_555 1_555
H14 C12 1_555 1_555
H15 C12 1_555 1_555
H16 C12 1_555 1_555
C5 C6 1_555 1_555
C7 C10 1_555 1_555
C9 C10 1_555 1_555

#END
