
#######################################################################
#
#                 Cambridge Crystallographic Data Centre
#                                CCDC 
#
#######################################################################
#
# If this CIF has been generated from an entry in the Cambridge 
# Structural Database, then it will include bibliographic, chemical, 
# crystal, experimental, refinement or atomic coordinate data resulting 
# from the CCDC's data processing and validation procedures.
#
#######################################################################

data_NAFLIS
_chemical_formula_moiety         'C84 H54,C1 H1 Cl3,1.5(C6 H14)'
_chemical_name_systematic        
'2,15,28-tris(Diphenylmethylene)heptacyclo[34.3.1.1^3,7^.1^10,14^.1^16,20^.1^23,27^.1^29,33^]pentatetraconta-1(40),3(45),4,6,10(44),11,13,16(43),17,19,23(42),24,26,29(41),30,32,36,38-octadecaene-8,21,34-triyne chloroform n-hexane solvate'
_symmetry_cell_setting           orthorhombic
_symmetry_space_group_name_H-M   'P 21 21 21'
_symmetry_Int_Tables_number      19
_space_group_name_Hall           'P 2ac 2ab'
loop_
_symmetry_equiv_pos_site_id
_symmetry_equiv_pos_as_xyz
1 x,y,z
2 1/2-x,-y,1/2+z
3 1/2+x,1/2-y,-z
4 -x,1/2+y,1/2-z
_cell_length_a                   9.7244(2)
_cell_length_b                   25.9218(7)
_cell_length_c                   29.1355(11)
_cell_angle_alpha                90
_cell_angle_beta                 90
_cell_angle_gamma                90
_cell_volume                     7344.3
_exptl_crystal_colour            colorless
_exptl_crystal_description       needle
_cell_formula_units_Z            4
loop_
_atom_site_label
_atom_site_type_symbol
_atom_site_fract_x
_atom_site_fract_y
_atom_site_fract_z
C1 C 0.8836(4) 0.33300(17) 0.22540(17)
C2 C 0.8005(5) 0.37745(17) 0.23001(17)
H1 H 0.7652 0.3866 0.2593
C3 C 0.7702(5) 0.40783(17) 0.19213(19)
C4 C 0.8159(5) 0.39325(18) 0.14849(17)
H2 H 0.7950 0.4138 0.1224
C5 C 0.8925(5) 0.34806(18) 0.14379(18)
H3 H 0.9214 0.3373 0.1142
C6 C 0.9271(4) 0.31880(17) 0.18179(17)
H4 H 0.9812 0.2886 0.1780
C7 C 0.6985(5) 0.45588(18) 0.1997(2)
C8 C 0.6526(5) 0.49717(19) 0.20938(19)
C9 C 0.6135(5) 0.54861(18) 0.22242(18)
C10 C 0.4992(5) 0.55785(17) 0.25023(18)
H5 H 0.4427 0.5298 0.2594
C11 C 0.4668(5) 0.60780(17) 0.26482(17)
C12 C 0.5522(5) 0.64832(17) 0.25049(18)
H6 H 0.5332 0.6824 0.2605
C13 C 0.6639(5) 0.63951(18) 0.22194(19)
H7 H 0.7187 0.6677 0.2119
C14 C 0.6963(5) 0.58948(18) 0.20793(18)
H8 H 0.7737 0.5833 0.1888
C15 C 0.3480(5) 0.61915(17) 0.29517(17)
C16 C 0.3789(5) 0.65501(18) 0.33454(17)
C17 C 0.4743(5) 0.64077(17) 0.36788(18)
H9 H 0.5250 0.6097 0.3642
C18 C 0.4966(5) 0.67135(17) 0.40650(18)
C19 C 0.4263(6) 0.71911(19) 0.41005(18)
H10 H 0.4421 0.7409 0.4357
C20 C 0.3349(6) 0.73396(19) 0.37628(19)
H11 H 0.2888 0.7662 0.3788
C21 C 0.3092(5) 0.70230(18) 0.33849(17)
H12 H 0.2451 0.7126 0.3156
C22 C 0.5875(5) 0.65502(18) 0.44207(18)
C23 C 0.6654(5) 0.64097(18) 0.47138(19)
C24 C 0.7630(5) 0.62389(18) 0.50518(18)
C25 C 0.7984(5) 0.57208(18) 0.50805(17)
H13 H 0.7566 0.5478 0.4880
C26 C 0.8959(5) 0.55537(18) 0.54043(17)
C27 C 0.9526(5) 0.5919(2) 0.57030(19)
H14 H 1.0160 0.5810 0.5931
C28 C 0.9176(5) 0.64385(19) 0.56710(18)
H15 H 0.9595 0.6681 0.5871
C29 C 0.8231(5) 0.66028(19) 0.53523(18)
H16 H 0.7984 0.6957 0.5334
C30 C 0.9295(5) 0.49935(17) 0.54440(16)
C31 C 0.8106(5) 0.46447(16) 0.53779(17)
C32 C 0.8135(5) 0.42902(17) 0.50163(16)
H17 H 0.8958 0.4246 0.4845
C33 C 0.6970(5) 0.40004(17) 0.49023(16)
C34 C 0.5773(5) 0.40608(19) 0.51639(18)
H18 H 0.4976 0.3865 0.5093
C35 C 0.5751(5) 0.4408(2) 0.55286(19)
H19 H 0.4937 0.4445 0.5706
C36 C 0.6888(5) 0.46963(18) 0.56350(18)
H20 H 0.6853 0.4933 0.5884
C37 C 0.6983(5) 0.36775(18) 0.45114(18)
C38 C 0.6982(5) 0.34260(17) 0.41549(16)
C39 C 0.6938(5) 0.31650(17) 0.37241(17)
C40 C 0.8116(5) 0.31650(17) 0.34400(17)
H21 H 0.8957 0.3307 0.3548
C41 C 0.8035(4) 0.29541(16) 0.29983(17)
C42 C 0.6792(5) 0.27314(19) 0.28543(18)
H22 H 0.6724 0.2587 0.2556
C43 C 0.5661(5) 0.27208(19) 0.31445(18)
H23 H 0.4831 0.2563 0.3046
C44 C 0.5737(5) 0.29389(18) 0.35757(18)
H24 H 0.4955 0.2933 0.3771
C45 C 0.9200(5) 0.30291(16) 0.26750(16)
C46 C 1.0510(5) 0.28762(18) 0.27620(18)
C47 C 1.0871(5) 0.25232(19) 0.31448(18)
C48 C 1.1980(5) 0.2625(2) 0.3428(2)
H25 H 1.2507 0.2929 0.3380
C49 C 1.2340(6) 0.2293(3) 0.3783(3)
H26 H 1.3077 0.2380 0.3983
C50 C 1.1628(6) 0.1834(3) 0.3847(3)
H27 H 1.1899 0.1596 0.4078
C51 C 1.0510(5) 0.1730(2) 0.3564(2)
H28 H 0.9996 0.1422 0.3609
C52 C 1.0139(5) 0.20642(19) 0.3221(2)
H29 H 0.9372 0.1984 0.3032
C53 C 1.1709(5) 0.3071(2) 0.2491(2)
C54 C 1.1983(6) 0.3598(2) 0.2455(2)
H30 H 1.1378 0.3839 0.2595
C55 C 1.3117(8) 0.3773(3) 0.2220(3)
H31 H 1.3287 0.4133 0.2201
C56 C 1.4011(6) 0.3433(4) 0.2012(3)
H32 H 1.4789 0.3554 0.1847
C57 C 1.3750(6) 0.2915(3) 0.2050(2)
H33 H 1.4369 0.2676 0.1914
C58 C 1.2606(6) 0.2730(3) 0.2281(2)
H34 H 1.2438 0.2369 0.2295
C59 C 0.2199(5) 0.59968(19) 0.29002(18)
C60 C 0.1761(5) 0.56944(19) 0.24967(18)
C61 C 0.2036(5) 0.58415(19) 0.20468(19)
H35 H 0.2603 0.6133 0.1990
C62 C 0.1493(6) 0.5568(2) 0.1682(2)
H36 H 0.1677 0.5676 0.1376
C63 C 0.0678(7) 0.5137(3) 0.1761(2)
H37 H 0.0300 0.4951 0.1510
C64 C 0.0419(6) 0.4978(3) 0.2209(2)
H38 H -0.0122 0.4679 0.2262
C65 C 0.0936(6) 0.5248(2) 0.2573(2)
H39 H 0.0745 0.5139 0.2878
C66 C 0.1088(5) 0.6098(2) 0.32402(18)
C67 C -0.0144(7) 0.6292(3) 0.3091(2)
H40 H -0.0259 0.6369 0.2775
C68 C -0.1234(9) 0.6380(5) 0.3393(3)
H41 H -0.2079 0.6523 0.3290
C69 C -0.1036(10) 0.6249(6) 0.3850(3)
H42 H -0.1776 0.6285 0.4060
C70 C 0.0205(9) 0.6068(4) 0.4004(3)
H43 H 0.0323 0.5995 0.4321
C71 C 0.1277(7) 0.5991(3) 0.3707(2)
H44 H 0.2136 0.5867 0.3817
C72 C 1.0591(5) 0.48238(18) 0.55148(18)
C73 C 1.1793(5) 0.51756(17) 0.5456(2)
C74 C 1.2172(6) 0.5344(2) 0.5029(2)
H45 H 1.1671 0.5237 0.4765
C75 C 1.3311(7) 0.5676(3) 0.4982(3)
H46 H 1.3575 0.5794 0.4686
C76 C 1.4046(6) 0.5832(3) 0.5363(3)
H47 H 1.4818 0.6053 0.5329
C77 C 1.3659(6) 0.5667(2) 0.5782(3)
H48 H 1.4146 0.5783 0.6045
C78 C 1.2568(6) 0.5332(2) 0.5835(2)
H49 H 1.2342 0.5206 0.6132
C79 C 1.0929(5) 0.4288(2) 0.56591(19)
C80 C 1.2065(5) 0.4036(2) 0.5472(2)
H50 H 1.2568 0.4190 0.5228
C81 C 1.2461(7) 0.3554(2) 0.5644(3)
H51 H 1.3244 0.3386 0.5519
C82 C 1.1738(6) 0.3321(2) 0.5990(3)
H52 H 1.2018 0.2993 0.6102
C83 C 1.0595(6) 0.3563(2) 0.6175(2)
H53 H 1.0084 0.3402 0.6413
C84 C 1.0200(5) 0.4051(2) 0.60074(19)
H54 H 0.9421 0.4219 0.6136
C85 C 0.8057(12) 0.7644(6) 0.4419(4)
H55 H 0.7701 0.7283 0.4417
Cl1 Cl 0.7689(3) 0.78864(16) 0.39032(10)
Cl2 Cl 0.9835(3) 0.75964(12) 0.45338(11)
Cl3 Cl 0.7213(3) 0.79540(11) 0.48646(11)
C86 C 0.8112(16) 0.4837(7) 0.3431(6)
H56 H 0.7899 0.4755 0.3111
H57 H 0.8645 0.4555 0.3567
H58 H 0.8649 0.5156 0.3445
C87 C 0.6738(16) 0.4909(5) 0.3707(6)
H59 H 0.6876 0.4806 0.4031
H60 H 0.6456 0.5276 0.3700
C88 C 0.5698(13) 0.4597(4) 0.3503(4)
H61 H 0.5995 0.4232 0.3509
H62 H 0.5579 0.4700 0.3178
C89 C 0.4334(15) 0.4646(5) 0.3750(5)
H63 H 0.4031 0.5010 0.3731
H64 H 0.4482 0.4565 0.4078
C90 C 0.3165(16) 0.4301(6) 0.3570(7)
H65 H 0.3505 0.3943 0.3541
H66 H 0.2893 0.4421 0.3260
C91 C 0.177(2) 0.4307(8) 0.3915(7)
H67 H 0.0988 0.4154 0.3753
H68 H 0.1552 0.4663 0.4000
H69 H 0.1966 0.4107 0.4193
C92? C 1.1740(17) 0.2970(6) 0.4658(6)
C93? C 1.0103(19) 0.2832(7) 0.4799(7)
C94? C 0.9340(15) 0.2407(6) 0.5101(6)
C95? C 0.7711(14) 0.2443(5) 0.5099(5)
loop_
_geom_bond_atom_site_label_1
_geom_bond_atom_site_label_2
_geom_bond_site_symmetry_1
_geom_bond_site_symmetry_2
C1 C2 1_555 1_555
C2 H1 1_555 1_555
C3 C2 1_555 1_555
C4 C3 1_555 1_555
H2 C4 1_555 1_555
C5 C4 1_555 1_555
H3 C5 1_555 1_555
C6 C1 1_555 1_555
H4 C6 1_555 1_555
C7 C3 1_555 1_555
C8 C7 1_555 1_555
C9 C8 1_555 1_555
C10 C9 1_555 1_555
H5 C10 1_555 1_555
C11 C10 1_555 1_555
C12 C11 1_555 1_555
H6 C12 1_555 1_555
C13 C12 1_555 1_555
H7 C13 1_555 1_555
C14 C9 1_555 1_555
H8 C14 1_555 1_555
C15 C11 1_555 1_555
C16 C15 1_555 1_555
C17 C16 1_555 1_555
H9 C17 1_555 1_555
C18 C17 1_555 1_555
C19 C18 1_555 1_555
H10 C19 1_555 1_555
C20 C19 1_555 1_555
H11 C20 1_555 1_555
C21 C16 1_555 1_555
H12 C21 1_555 1_555
C22 C18 1_555 1_555
C23 C22 1_555 1_555
C24 C23 1_555 1_555
C25 C24 1_555 1_555
H13 C25 1_555 1_555
C26 C25 1_555 1_555
C27 C26 1_555 1_555
H14 C27 1_555 1_555
C28 C27 1_555 1_555
H15 C28 1_555 1_555
C29 C24 1_555 1_555
H16 C29 1_555 1_555
C30 C26 1_555 1_555
C31 C30 1_555 1_555
C32 C31 1_555 1_555
H17 C32 1_555 1_555
C33 C32 1_555 1_555
C34 C33 1_555 1_555
H18 C34 1_555 1_555
C35 C34 1_555 1_555
H19 C35 1_555 1_555
C36 C31 1_555 1_555
H20 C36 1_555 1_555
C37 C33 1_555 1_555
C38 C37 1_555 1_555
C39 C38 1_555 1_555
C40 C39 1_555 1_555
H21 C40 1_555 1_555
C41 C40 1_555 1_555
C42 C41 1_555 1_555
H22 C42 1_555 1_555
C43 C42 1_555 1_555
H23 C43 1_555 1_555
C44 C39 1_555 1_555
H24 C44 1_555 1_555
C45 C1 1_555 1_555
C46 C45 1_555 1_555
C47 C46 1_555 1_555
C48 C47 1_555 1_555
H25 C48 1_555 1_555
C49 C48 1_555 1_555
H26 C49 1_555 1_555
C50 C49 1_555 1_555
H27 C50 1_555 1_555
C51 C50 1_555 1_555
H28 C51 1_555 1_555
C52 C47 1_555 1_555
H29 C52 1_555 1_555
C53 C46 1_555 1_555
C54 C53 1_555 1_555
H30 C54 1_555 1_555
C55 C54 1_555 1_555
H31 C55 1_555 1_555
C56 C55 1_555 1_555
H32 C56 1_555 1_555
C57 C56 1_555 1_555
H33 C57 1_555 1_555
C58 C53 1_555 1_555
H34 C58 1_555 1_555
C59 C15 1_555 1_555
C60 C59 1_555 1_555
C61 C60 1_555 1_555
H35 C61 1_555 1_555
C62 C61 1_555 1_555
H36 C62 1_555 1_555
C63 C62 1_555 1_555
H37 C63 1_555 1_555
C64 C63 1_555 1_555
H38 C64 1_555 1_555
C65 C60 1_555 1_555
H39 C65 1_555 1_555
C66 C59 1_555 1_555
C67 C66 1_555 1_555
H40 C67 1_555 1_555
C68 C67 1_555 1_555
H41 C68 1_555 1_555
C69 C68 1_555 1_555
H42 C69 1_555 1_555
C70 C69 1_555 1_555
H43 C70 1_555 1_555
C71 C66 1_555 1_555
H44 C71 1_555 1_555
C72 C30 1_555 1_555
C73 C72 1_555 1_555
C74 C73 1_555 1_555
H45 C74 1_555 1_555
C75 C74 1_555 1_555
H46 C75 1_555 1_555
C76 C75 1_555 1_555
H47 C76 1_555 1_555
C77 C76 1_555 1_555
H48 C77 1_555 1_555
C78 C73 1_555 1_555
H49 C78 1_555 1_555
C79 C72 1_555 1_555
C80 C79 1_555 1_555
H50 C80 1_555 1_555
C81 C80 1_555 1_555
H51 C81 1_555 1_555
C82 C81 1_555 1_555
H52 C82 1_555 1_555
C83 C82 1_555 1_555
H53 C83 1_555 1_555
C84 C79 1_555 1_555
H54 C84 1_555 1_555
C85 H55 1_555 1_555
Cl1 C85 1_555 1_555
Cl2 C85 1_555 1_555
Cl3 C85 1_555 1_555
C86 H56 1_555 1_555
H57 C86 1_555 1_555
H58 C86 1_555 1_555
C87 C86 1_555 1_555
H59 C87 1_555 1_555
H60 C87 1_555 1_555
C88 C87 1_555 1_555
H61 C88 1_555 1_555
H62 C88 1_555 1_555
C89 C88 1_555 1_555
H63 C89 1_555 1_555
H64 C89 1_555 1_555
C90 C89 1_555 1_555
H65 C90 1_555 1_555
H66 C90 1_555 1_555
C91 C90 1_555 1_555
H67 C91 1_555 1_555
H68 C91 1_555 1_555
H69 C91 1_555 1_555
C5 C6 1_555 1_555
C13 C14 1_555 1_555
C20 C21 1_555 1_555
C28 C29 1_555 1_555
C35 C36 1_555 1_555
C41 C45 1_555 1_555
C43 C44 1_555 1_555
C51 C52 1_555 1_555
C57 C58 1_555 1_555
C64 C65 1_555 1_555
C70 C71 1_555 1_555
C77 C78 1_555 1_555
C83 C84 1_555 1_555

#END
