
#######################################################################
#
#                 Cambridge Crystallographic Data Centre
#                                CCDC 
#
#######################################################################
#
# If this CIF has been generated from an entry in the Cambridge 
# Structural Database, then it will include bibliographic, chemical, 
# crystal, experimental, refinement or atomic coordinate data resulting 
# from the CCDC's data processing and validation procedures.
#
#######################################################################

data_NAFLOY
_chemical_formula_moiety         'C16 H13 N3 O2'
_chemical_name_systematic        
'(1-phenyl-1H-1,2,3-triazol-4-yl)methyl benzoate'
_symmetry_cell_setting           monoclinic
_symmetry_space_group_name_H-M   'P 21'
_symmetry_Int_Tables_number      4
_space_group_name_Hall           'P 2yb'
loop_
_symmetry_equiv_pos_site_id
_symmetry_equiv_pos_as_xyz
1 x,y,z
2 -x,1/2+y,-z
_cell_length_a                   4.5661(5)
_cell_length_b                   10.5573(14)
_cell_length_c                   13.9694(19)
_cell_angle_alpha                90
_cell_angle_beta                 90.594(6)
_cell_angle_gamma                90
_cell_volume                     673.368
_exptl_crystal_colour            colorless
_exptl_crystal_description       Lath
_cell_formula_units_Z            2
loop_
_atom_site_label
_atom_site_type_symbol
_atom_site_fract_x
_atom_site_fract_y
_atom_site_fract_z
O1 O 1.1790(6) 0.8790(3) 0.2321(2)
O2 O 0.9141(7) 1.0590(3) 0.2347(3)
N1 N 0.7467(7) 0.8903(3) -0.0538(3)
N2 N 0.9881(8) 0.7659(3) 0.0393(3)
N3 N 0.7924(8) 0.7676(3) -0.0312(3)
C1 C 0.9879(9) 0.9601(4) 0.2724(4)
C2 C 0.8846(9) 0.9160(4) 0.3667(4)
C3 C 0.5492(8) 0.9241(4) -0.1306(4)
C4 C 0.1697(9) 0.9897(4) -0.2764(4)
H1 H 0.0397 1.0126 -0.3270
C5 C 0.6816(9) 0.9923(4) 0.4142(4)
H2 H 0.6135 1.0687 0.3857
C6 C 0.1884(10) 0.8652(4) -0.2470(4)
H3 H 0.0697 0.8025 -0.2770
C7 C 0.5327(10) 1.0483(4) -0.1587(4)
H4 H 0.6512 1.1109 -0.1284
C8 C 1.2844(9) 0.9152(4) 0.1374(3)
H5 H 1.4684 0.8692 0.1241
H6 H 1.3282 1.0071 0.1371
C9 C 0.3815(9) 0.8311(4) -0.1733(3)
H7 H 0.3968 0.7455 -0.1529
C10 C 0.9137(9) 0.9674(4) 0.0021(3)
H8 H 0.9223 1.0573 0.0007
C11 C 0.3408(10) 1.0813(4) -0.2320(4)
H9 H 0.3263 1.1671 -0.2519
C12 C 0.6772(10) 0.8443(5) 0.5439(4)
H10 H 0.6067 0.8195 0.6049
C13 C 1.0678(9) 0.8868(4) 0.0614(3)
C14 C 0.8758(10) 0.7681(5) 0.4971(4)
H11 H 0.9408 0.6915 0.5259
C15 C 0.9808(10) 0.8036(4) 0.4076(4)
H12 H 1.1168 0.7513 0.3751
C16 C 0.5808(11) 0.9553(5) 0.5035(4)
H13 H 0.4448 1.0070 0.5366
loop_
_geom_bond_atom_site_label_1
_geom_bond_atom_site_label_2
_geom_bond_site_symmetry_1
_geom_bond_site_symmetry_2
O1 C1 1_555 1_555
O2 C1 1_555 1_555
N1 N3 1_555 1_555
N2 N3 1_555 1_555
C1 C2 1_555 1_555
C2 C5 1_555 1_555
C3 N1 1_555 1_555
C4 H1 1_555 1_555
C5 H2 1_555 1_555
C6 C4 1_555 1_555
H3 C6 1_555 1_555
C7 C3 1_555 1_555
H4 C7 1_555 1_555
C8 O1 1_555 1_555
H5 C8 1_555 1_555
H6 C8 1_555 1_555
C9 C3 1_555 1_555
H7 C9 1_555 1_555
C10 N1 1_555 1_555
H8 C10 1_555 1_555
C11 C4 1_555 1_555
H9 C11 1_555 1_555
C12 H10 1_555 1_555
C13 N2 1_555 1_555
C14 C12 1_555 1_555
H11 C14 1_555 1_555
C15 C2 1_555 1_555
H12 C15 1_555 1_555
C16 C5 1_555 1_555
H13 C16 1_555 1_555
C6 C9 1_555 1_555
C7 C11 1_555 1_555
C8 C13 1_555 1_555
C10 C13 1_555 1_555
C12 C16 1_555 1_555
C14 C15 1_555 1_555

#END
