
#######################################################################
#
#                 Cambridge Crystallographic Data Centre
#                                CCDC 
#
#######################################################################
#
# If this CIF has been generated from an entry in the Cambridge 
# Structural Database, then it will include bibliographic, chemical, 
# crystal, experimental, refinement or atomic coordinate data resulting 
# from the CCDC's data processing and validation procedures.
#
#######################################################################

data_NAFMIS
_chemical_formula_moiety         'C33 H42 N4 O3'
_chemical_name_systematic        
N,N',N''-(Nitrilotri-2,1-phenylene)tris(2,2-dimethylpropanamide)
_symmetry_cell_setting           orthorhombic
_symmetry_space_group_name_H-M   'P 21 21 21'
_symmetry_Int_Tables_number      19
_space_group_name_Hall           'P 2ac 2ab'
loop_
_symmetry_equiv_pos_site_id
_symmetry_equiv_pos_as_xyz
1 x,y,z
2 1/2-x,-y,1/2+z
3 -x,1/2+y,1/2-z
4 1/2+x,1/2-y,-z
_cell_length_a                   9.216(2)
_cell_length_b                   15.926(4)
_cell_length_c                   20.360(5)
_cell_angle_alpha                90
_cell_angle_beta                 90
_cell_angle_gamma                90
_cell_volume                     2988.32
_exptl_crystal_colour            colorless
_exptl_crystal_description       rhombic
_cell_formula_units_Z            4
loop_
_atom_site_label
_atom_site_type_symbol
_atom_site_fract_x
_atom_site_fract_y
_atom_site_fract_z
N1 N 0.63882(15) -0.01306(9) 0.12339(6)
C1 C 0.69224(17) 0.05634(11) 0.08713(7)
C2 C 0.64188(18) 0.13792(11) 0.09865(8)
C3 C 0.7033(2) 0.20503(12) 0.06585(9)
H1 H 0.6722 0.2604 0.0758
C4 C 0.8098(2) 0.19281(13) 0.01858(9)
H2 H 0.8514 0.2394 -0.0037
C5 C 0.8543(2) 0.11234(12) 0.00450(9)
H3 H 0.9243 0.1031 -0.0290
C6 C 0.79830(19) 0.04517(12) 0.03854(8)
H4 H 0.8321 -0.0098 0.0290
N2 N 0.52899(15) 0.15636(9) 0.14459(7)
H5 H 0.5482 0.1911 0.1771
C7 C 0.39469(17) 0.12325(10) 0.14068(8)
O1 O 0.36516(13) 0.06637(8) 0.10178(6)
C8 C 0.28050(19) 0.16087(11) 0.18633(8)
C9 C 0.2431(2) 0.24848(13) 0.16121(12)
H6 H 0.2054 0.2445 0.1163
H7 H 0.3305 0.2835 0.1615
H8 H 0.1693 0.2737 0.1897
C10 C 0.3394(2) 0.16706(14) 0.25677(9)
H9 H 0.3632 0.1107 0.2729
H10 H 0.2657 0.1924 0.2852
H11 H 0.4270 0.2020 0.2571
C11 C 0.1465(2) 0.10525(14) 0.18596(10)
H12 H 0.1086 0.1011 0.1411
H13 H 0.0723 0.1296 0.2147
H14 H 0.1723 0.0491 0.2019
C12 C 0.65643(17) -0.09432(11) 0.09533(7)
C13 C 0.57992(17) -0.11636(10) 0.03802(7)
C14 C 0.5972(2) -0.19683(11) 0.01227(8)
H15 H 0.5437 -0.2131 -0.0255
C15 C 0.6914(2) -0.25307(12) 0.04118(8)
H16 H 0.7034 -0.3074 0.0227
C16 C 0.7686(2) -0.23115(12) 0.09681(8)
H17 H 0.8341 -0.2699 0.1162
C17 C 0.74966(19) -0.15244(12) 0.12397(8)
H18 H 0.8010 -0.1378 0.1628
N3 N 0.48812(15) -0.05624(9) 0.00863(6)
H19 H 0.4476 -0.0187 0.0345
C18 C 0.45704(17) -0.05168(10) -0.05729(7)
O2 O 0.49583(13) -0.10510(8) -0.09641(5)
C19 C 0.37296(18) 0.02622(12) -0.07901(8)
C20 C 0.3449(2) 0.02046(13) -0.15317(8)
H20 H 0.2913 0.0703 -0.1677
H21 H 0.2877 -0.0300 -0.1627
H22 H 0.4377 0.0174 -0.1765
C21 C 0.4645(2) 0.10437(12) -0.06533(9)
H23 H 0.4110 0.1545 -0.0792
H24 H 0.5558 0.1007 -0.0898
H25 H 0.4852 0.1080 -0.0182
C22 C 0.2266(2) 0.03138(13) -0.04371(9)
H26 H 0.1746 0.0817 -0.0582
H27 H 0.2426 0.0343 0.0038
H28 H 0.1688 -0.0186 -0.0541
C23 C 0.65167(18) -0.00772(10) 0.19360(7)
C24 C 0.54729(17) -0.04530(10) 0.23374(7)
C25 C 0.56261(19) -0.04051(11) 0.30192(8)
H29 H 0.4923 -0.0660 0.3296
C26 C 0.6789(2) 0.00098(12) 0.32917(8)
H30 H 0.6886 0.0035 0.3756
C27 C 0.78154(19) 0.03885(11) 0.28985(8)
H31 H 0.8609 0.0680 0.3090
C28 C 0.76810(18) 0.03411(10) 0.22193(8)
H32 H 0.8391 0.0597 0.1947
N4 N 0.42626(14) -0.08459(9) 0.20393(6)
H33 H 0.3911 -0.0610 0.1682
C29 C 0.36008(17) -0.15498(11) 0.22538(8)
O3 O 0.39337(13) -0.18946(8) 0.27724(6)
C30 C 0.24382(19) -0.19251(11) 0.18025(8)
C31 C 0.3187(2) -0.26600(11) 0.14462(9)
H34 H 0.2495 -0.2930 0.1148
H35 H 0.3529 -0.3070 0.1770
H36 H 0.4015 -0.2447 0.1194
C32 C 0.1827(2) -0.13205(12) 0.12965(10)
H37 H 0.1099 -0.1610 0.1029
H38 H 0.2613 -0.1118 0.1013
H39 H 0.1375 -0.0843 0.1521
C33 C 0.1209(2) -0.22619(13) 0.22347(10)
H40 H 0.0454 -0.2509 0.1956
H41 H 0.0794 -0.1801 0.2492
H42 H 0.1592 -0.2691 0.2532
loop_
_geom_bond_atom_site_label_1
_geom_bond_atom_site_label_2
_geom_bond_site_symmetry_1
_geom_bond_site_symmetry_2
N1 C1 1_555 1_555
C1 C2 1_555 1_555
C2 C3 1_555 1_555
C3 H1 1_555 1_555
C4 C3 1_555 1_555
H2 C4 1_555 1_555
C5 C4 1_555 1_555
H3 C5 1_555 1_555
C6 C1 1_555 1_555
H4 C6 1_555 1_555
N2 C2 1_555 1_555
H5 N2 1_555 1_555
C7 N2 1_555 1_555
O1 C7 1_555 1_555
C8 C7 1_555 1_555
C9 C8 1_555 1_555
H6 C9 1_555 1_555
H7 C9 1_555 1_555
H8 C9 1_555 1_555
C10 C8 1_555 1_555
H9 C10 1_555 1_555
H10 C10 1_555 1_555
H11 C10 1_555 1_555
C11 C8 1_555 1_555
H12 C11 1_555 1_555
H13 C11 1_555 1_555
H14 C11 1_555 1_555
C12 N1 1_555 1_555
C13 C12 1_555 1_555
C14 C13 1_555 1_555
H15 C14 1_555 1_555
C15 C14 1_555 1_555
H16 C15 1_555 1_555
C16 C15 1_555 1_555
H17 C16 1_555 1_555
C17 C12 1_555 1_555
H18 C17 1_555 1_555
N3 C13 1_555 1_555
H19 N3 1_555 1_555
C18 N3 1_555 1_555
O2 C18 1_555 1_555
C19 C18 1_555 1_555
C20 C19 1_555 1_555
H20 C20 1_555 1_555
H21 C20 1_555 1_555
H22 C20 1_555 1_555
C21 C19 1_555 1_555
H23 C21 1_555 1_555
H24 C21 1_555 1_555
H25 C21 1_555 1_555
C22 C19 1_555 1_555
H26 C22 1_555 1_555
H27 C22 1_555 1_555
H28 C22 1_555 1_555
C23 N1 1_555 1_555
C24 C23 1_555 1_555
C25 C24 1_555 1_555
H29 C25 1_555 1_555
C26 C25 1_555 1_555
H30 C26 1_555 1_555
C27 C26 1_555 1_555
H31 C27 1_555 1_555
C28 C23 1_555 1_555
H32 C28 1_555 1_555
N4 C24 1_555 1_555
H33 N4 1_555 1_555
C29 N4 1_555 1_555
O3 C29 1_555 1_555
C30 C29 1_555 1_555
C31 C30 1_555 1_555
H34 C31 1_555 1_555
H35 C31 1_555 1_555
H36 C31 1_555 1_555
C32 C30 1_555 1_555
H37 C32 1_555 1_555
H38 C32 1_555 1_555
H39 C32 1_555 1_555
C33 C30 1_555 1_555
H40 C33 1_555 1_555
H41 C33 1_555 1_555
H42 C33 1_555 1_555
C5 C6 1_555 1_555
C16 C17 1_555 1_555
C27 C28 1_555 1_555

#END
