
#######################################################################
#
#                 Cambridge Crystallographic Data Centre
#                                CCDC 
#
#######################################################################
#
# If this CIF has been generated from an entry in the Cambridge 
# Structural Database, then it will include bibliographic, chemical, 
# crystal, experimental, refinement or atomic coordinate data resulting 
# from the CCDC's data processing and validation procedures.
#
#######################################################################

data_NAFNIR
_chemical_formula_moiety         'C9 H7 N1 O6 Se2'
_chemical_name_systematic        
1-(4,5-bis(Methoxycarbonyl)-1,3-diselenol-2-ylidene)-1-nitroso-ethanal
_symmetry_cell_setting           orthorhombic
_symmetry_space_group_name_H-M   'P n a 21'
_symmetry_Int_Tables_number      33
_space_group_name_Hall           'P 2c -2n'
loop_
_symmetry_equiv_pos_site_id
_symmetry_equiv_pos_as_xyz
1 x,y,z
2 -x,-y,1/2+z
3 1/2-x,1/2+y,1/2+z
4 1/2+x,1/2-y,z
_cell_length_a                   9.270(1)
_cell_length_b                   24.337(3)
_cell_length_c                   5.3406(6)
_cell_angle_alpha                90
_cell_angle_beta                 90
_cell_angle_gamma                90
_cell_volume                     1204.86
_exptl_crystal_colour            'dark green'
_chemical_melting_point          405-406K
_cell_formula_units_Z            4
loop_
_atom_site_label
_atom_site_type_symbol
_atom_site_fract_x
_atom_site_fract_y
_atom_site_fract_z
Se1 Se 0.09732(9) 0.22504(4) 0.0699(2)
Se2 Se 0.32655(9) 0.20951(4) 0.5031(3)
O1 O 0.0685(8) 0.3273(3) 0.0271(20)
O2 O 0.3804(10) 0.3131(4) 0.6771(20)
O3 O -0.0240(8) 0.0871(3) 0.1474(18)
O4 O 0.1200(10) 0.0910(4) -0.1828(21)
O5 O 0.4155(8) 0.1026(2) 0.5958(19)
O6 O 0.2938(8) 0.0501(3) 0.3200(17)
N1 N 0.1458(11) 0.3490(4) 0.1897(23)
C1 C 0.2151(10) 0.2567(4) 0.3115(20)
C2 C 0.1565(10) 0.1533(4) 0.1562(23)
C3 C 0.2565(10) 0.1471(4) 0.3323(21)
C4 C 0.0876(9) 0.1066(4) 0.0168(22)
C5 C 0.3198(10) 0.0939(4) 0.4166(23)
C6 C 0.2200(10) 0.3135(4) 0.3409(24)
C7 C 0.3053(10) 0.3389(4) 0.5332(29)
H1 H 0.3034(10) 0.3769(4) 0.5484(29)
C8 C -0.1046(12) 0.0427(4) 0.0372(35)
H2 H -0.1954(48) 0.0386(26) 0.122(12)
H3 H -0.0501(50) 0.0093(8) 0.053(17)
H4 H -0.1214(90) 0.0504(19) -0.1365(56)
C9 C 0.4810(15) 0.0550(4) 0.7088(30)
H5 H 0.5303(88) 0.0656(8) 0.8592(97)
H6 H 0.5488(76) 0.0393(23) 0.5933(72)
H7 H 0.4081(19) 0.0284(17) 0.748(17)
loop_
_geom_bond_atom_site_label_1
_geom_bond_atom_site_label_2
_geom_bond_site_symmetry_1
_geom_bond_site_symmetry_2
Se1 C1 1_555 1_555
Se2 C1 1_555 1_555
O1 N1 1_555 1_555
O2 C7 1_555 1_555
O3 C4 1_555 1_555
O4 C4 1_555 1_555
O5 C5 1_555 1_555
O6 C5 1_555 1_555
N1 C6 1_555 1_555
C1 C6 1_555 1_555
C2 Se1 1_555 1_555
C3 Se2 1_555 1_555
C4 C2 1_555 1_555
C5 C3 1_555 1_555
C6 C7 1_555 1_555
C7 H1 1_555 1_555
C8 O3 1_555 1_555
H2 C8 1_555 1_555
H3 C8 1_555 1_555
H4 C8 1_555 1_555
C9 O5 1_555 1_555
H5 C9 1_555 1_555
H6 C9 1_555 1_555
H7 C9 1_555 1_555
C2 C3 1_555 1_555

#END
