
#######################################################################
#
#                 Cambridge Crystallographic Data Centre
#                                CCDC 
#
#######################################################################
#
# If this CIF has been generated from an entry in the Cambridge 
# Structural Database, then it will include bibliographic, chemical, 
# crystal, experimental, refinement or atomic coordinate data resulting 
# from the CCDC's data processing and validation procedures.
#
#######################################################################

data_NAFNUF
_chemical_formula_moiety         'C18 H16 Br1 N1 O1'
_chemical_name_systematic        
5-Bromo-3-methyl-4-(4-methylphenyl)-1,3-dihydro-2H-3-benzazepin-2-one
_symmetry_cell_setting           monoclinic
_symmetry_space_group_name_H-M   'P 21/c'
_symmetry_Int_Tables_number      14
_space_group_name_Hall           '-P 2ybc'
loop_
_symmetry_equiv_pos_site_id
_symmetry_equiv_pos_as_xyz
1 x,y,z
2 -x,1/2+y,1/2-z
3 -x,-y,-z
4 x,1/2-y,1/2+z
_cell_length_a                   12.7440(12)
_cell_length_b                   14.3064(14)
_cell_length_c                   17.7456(17)
_cell_angle_alpha                90
_cell_angle_beta                 105.566(2)
_cell_angle_gamma                90
_cell_volume                     3116.72
_exptl_crystal_colour            colorless
_exptl_crystal_description       prismatic
_cell_formula_units_Z            8
loop_
_atom_site_label
_atom_site_type_symbol
_atom_site_fract_x
_atom_site_fract_y
_atom_site_fract_z
Br1 Br 0.65431(3) 0.25140(3) 0.10316(2)
N1 N 0.3467(2) 0.2924(2) 0.14048(17)
O1 O 0.2053(2) 0.39119(19) 0.11477(16)
C1 C 0.2883(3) 0.3645(3) 0.1004(2)
C2 C 0.3337(3) 0.4099(3) 0.0399(2)
H1 H 0.3496 0.3624 0.0054
H2 H 0.2802 0.4524 0.0085
C3 C 0.4358(3) 0.4627(3) 0.0780(2)
C4 C 0.5295(3) 0.4136(3) 0.1162(2)
C5 C 0.5259(3) 0.3120(3) 0.11916(19)
C6 C 0.4464(3) 0.2568(3) 0.12890(19)
C7 C 0.4382(4) 0.5590(3) 0.0753(2)
H3 H 0.3754 0.5922 0.0512
C8 C 0.5345(5) 0.6062(3) 0.1088(3)
H4 H 0.5362 0.6711 0.1061
C9 C 0.6272(4) 0.5585(4) 0.1457(3)
H5 H 0.6915 0.5906 0.1680
C10 C 0.6244(3) 0.4637(3) 0.1493(2)
H6 H 0.6873 0.4314 0.1746
C11 C 0.2990(3) 0.2431(3) 0.1964(2)
H7 H 0.2943 0.2851 0.2376
H8 H 0.3442 0.1908 0.2183
H9 H 0.2274 0.2213 0.1698
C12 C 0.4535(3) 0.1528(2) 0.1292(2)
C13 C 0.5099(3) 0.1038(3) 0.1946(2)
H10 H 0.5451 0.1359 0.2399
C14 C 0.5143(3) 0.0079(3) 0.1930(3)
H11 H 0.5517 -0.0237 0.2380
C15 C 0.4663(3) -0.0420(3) 0.1285(3)
C16 C 0.4125(3) 0.0071(3) 0.0623(3)
H12 H 0.3807 -0.0254 0.0165
C17 C 0.4049(3) 0.1031(3) 0.0630(2)
H13 H 0.3664 0.1345 0.0182
C18 C 0.4703(4) -0.1468(3) 0.1269(3)
H14 H 0.4088 -0.1699 0.0874
H15 H 0.4683 -0.1709 0.1770
H16 H 0.5363 -0.1665 0.1154
Br2 Br 1.19139(3) 0.97758(3) 0.13883(3)
N2 N 0.8718(2) 0.9105(2) 0.13823(17)
O2 O 0.7498(2) 0.7938(2) 0.10124(16)
C19 C 0.8312(3) 0.8336(3) 0.0941(2)
C20 C 0.8933(3) 0.8021(3) 0.0383(2)
H17 H 0.8492 0.7595 0.0001
H18 H 0.9117 0.8555 0.0106
C21 C 0.9949(3) 0.7540(3) 0.0834(2)
C22 C 1.0764(3) 0.8066(3) 0.1332(2)
C23 C 1.0617(3) 0.9075(3) 0.13894(19)
C24 C 0.9721(3) 0.9556(3) 0.13896(19)
C25 C 1.0092(4) 0.6588(3) 0.0773(2)
H19 H 0.9542 0.6233 0.0448
C26 C 1.1030(4) 0.6163(3) 0.1182(3)
H20 H 1.1121 0.5524 0.1128
C27 C 1.1832(4) 0.6672(4) 0.1668(3)
H21 H 1.2466 0.6377 0.1950
C28 C 1.1716(3) 0.7612(3) 0.1745(2)
H22 H 1.2274 0.7954 0.2075
C29 C 0.8097(3) 0.9479(3) 0.1897(2)
H23 H 0.7337 0.9492 0.1623
H24 H 0.8341 1.0102 0.2054
H25 H 0.8204 0.9089 0.2351
C30 C 0.9656(3) 1.0592(3) 0.1386(2)
C31 C 1.0184(3) 1.1132(3) 0.2019(2)
H26 H 1.0603 1.0847 0.2471
C32 C 1.0094(3) 1.2093(4) 0.1984(3)
H27 H 1.0460 1.2443 0.2416
C33 C 0.9486(3) 1.2547(3) 0.1338(3)
C34 C 0.8947(3) 1.2005(3) 0.0714(2)
H28 H 0.8524 1.2294 0.0265
C35 C 0.9020(3) 1.1043(3) 0.0739(2)
H29 H 0.8634 1.0694 0.0313
C36 C 0.9394(4) 1.3595(3) 0.1319(3)
H30 H 0.9309 1.3815 0.1810
H31 H 0.8773 1.3779 0.0906
H32 H 1.0042 1.3861 0.1229
loop_
_geom_bond_atom_site_label_1
_geom_bond_atom_site_label_2
_geom_bond_site_symmetry_1
_geom_bond_site_symmetry_2
Br1 C5 1_555 1_555
Br2 C23 1_555 1_555
N1 C1 1_555 1_555
N2 C19 1_555 1_555
O1 C1 1_555 1_555
O2 C19 1_555 1_555
C1 C2 1_555 1_555
C2 H1 1_555 1_555
H2 C2 1_555 1_555
C3 C2 1_555 1_555
C4 C3 1_555 1_555
C5 C4 1_555 1_555
C6 N1 1_555 1_555
C7 C3 1_555 1_555
H3 C7 1_555 1_555
C8 C7 1_555 1_555
H4 C8 1_555 1_555
C9 C8 1_555 1_555
H5 C9 1_555 1_555
C10 C4 1_555 1_555
H6 C10 1_555 1_555
C11 N1 1_555 1_555
H7 C11 1_555 1_555
H8 C11 1_555 1_555
H9 C11 1_555 1_555
C12 C6 1_555 1_555
C13 C12 1_555 1_555
H10 C13 1_555 1_555
C14 C13 1_555 1_555
H11 C14 1_555 1_555
C15 C14 1_555 1_555
C16 C15 1_555 1_555
H12 C16 1_555 1_555
C17 C12 1_555 1_555
H13 C17 1_555 1_555
C18 C15 1_555 1_555
H14 C18 1_555 1_555
H15 C18 1_555 1_555
H16 C18 1_555 1_555
C19 C20 1_555 1_555
C20 H17 1_555 1_555
H18 C20 1_555 1_555
C21 C20 1_555 1_555
C22 C21 1_555 1_555
C23 C22 1_555 1_555
C24 N2 1_555 1_555
C25 C21 1_555 1_555
H19 C25 1_555 1_555
C26 C25 1_555 1_555
H20 C26 1_555 1_555
C27 C26 1_555 1_555
H21 C27 1_555 1_555
C28 C22 1_555 1_555
H22 C28 1_555 1_555
C29 N2 1_555 1_555
H23 C29 1_555 1_555
H24 C29 1_555 1_555
H25 C29 1_555 1_555
C30 C24 1_555 1_555
C31 C30 1_555 1_555
H26 C31 1_555 1_555
C32 C31 1_555 1_555
H27 C32 1_555 1_555
C33 C32 1_555 1_555
C34 C33 1_555 1_555
H28 C34 1_555 1_555
C35 C30 1_555 1_555
H29 C35 1_555 1_555
C36 C33 1_555 1_555
H30 C36 1_555 1_555
H31 C36 1_555 1_555
H32 C36 1_555 1_555
C5 C6 1_555 1_555
C9 C10 1_555 1_555
C16 C17 1_555 1_555
C23 C24 1_555 1_555
C27 C28 1_555 1_555
C34 C35 1_555 1_555

#END
