
#######################################################################
#
#                 Cambridge Crystallographic Data Centre
#                                CCDC 
#
#######################################################################
#
# If this CIF has been generated from an entry in the Cambridge 
# Structural Database, then it will include bibliographic, chemical, 
# crystal, experimental, refinement or atomic coordinate data resulting 
# from the CCDC's data processing and validation procedures.
#
#######################################################################

data_NAFQUI
_chemical_name_common            
11,25-Dichlorohomo[2]tetraoxacalix[2]arene[2]triazine
_chemical_formula_moiety         'C20 H12 Cl2 N6 O4'
_chemical_name_systematic        
11,25-Dichloro-2,8,14,22-tetraoxa-10,12,24,26,27,29-hexaazapentacyclo[21.3.1.1^3,7^.1^9,13^.1^16,20^]triaconta-1(27),3(30),4,6,9(29),10,12,16(28),17,19,23,25-dodecaene
_symmetry_cell_setting           orthorhombic
_symmetry_space_group_name_H-M   'P n m a'
_symmetry_Int_Tables_number      62
_space_group_name_Hall           '-P 2ac 2n'
loop_
_symmetry_equiv_pos_site_id
_symmetry_equiv_pos_as_xyz
1 x,y,z
2 1/2-x,-y,1/2+z
3 -x,1/2+y,-z
4 1/2+x,1/2-y,1/2-z
5 -x,-y,-z
6 1/2+x,y,1/2-z
7 x,1/2-y,z
8 1/2-x,1/2+y,1/2+z
_cell_length_a                   15.8354(2)
_cell_length_b                   15.6986(2)
_cell_length_c                   8.4557(1)
_cell_angle_alpha                90
_cell_angle_beta                 90
_cell_angle_gamma                90
_cell_volume                     2102.03
_exptl_crystal_colour            colorless
_exptl_crystal_description       block
_chemical_melting_point          'above 300 deg.C'
_cell_formula_units_Z            4
_exptl_crystal_recrystallization_method 'ethyl acetate/n-hexane'
loop_
_atom_site_label
_atom_site_type_symbol
_atom_site_fract_x
_atom_site_fract_y
_atom_site_fract_z
C1 C 0.80228(15) 0.90869(19) 0.2313(3)
H1 H 0.7768 0.8995 0.3343
H2 H 0.8605 0.9257 0.2479
C2 C 0.80062(12) 0.82707(18) 0.1404(3)
C3 C 0.81370(16) 0.8258(2) -0.0220(3)
H3 H 0.8187 0.8768 -0.0771
C4 C 0.8193(3) 0.7500 -0.1019(4)
H4 H 0.8269 0.7500 -0.2109
C5 C 0.79289(18) 0.7500 0.2190(4)
H5 H 0.7823 0.7500 0.3272
C6 C 0.54750(12) 0.82476(13) 0.4524(2)
C7 C 0.60391(14) 0.82657(15) 0.5749(3)
H6 H 0.6230 0.8780 0.6162
C8 C 0.6316(2) 0.7500 0.6351(4)
H7 H 0.6699 0.7500 0.7185
C9 C 0.51849(17) 0.7500 0.3888(4)
H8 H 0.4803 0.7500 0.3053
Cl1 Cl 0.50723(7) 1.14338(5) 0.04986(9)
C10 C 0.55984(19) 1.06070(15) 0.1419(3)
N1 N 0.64043(16) 1.05279(13) 0.1073(2)
C11 C 0.67599(16) 0.98621(15) 0.1796(3)
N2 N 0.63770(11) 0.93142(11) 0.2749(2)
C12 C 0.55722(14) 0.95009(13) 0.2986(3)
N3 N 0.51317(13) 1.01389(12) 0.2366(2)
O1 O 0.75749(12) 0.97729(13) 0.1507(2)
O2 O 0.51116(9) 0.90038(10) 0.3933(2)
C1F C 0.80228(15) 0.59131(19) 0.2313(3)
H1F H 0.7768 0.6005 0.3343
H2F H 0.8605 0.5743 0.2479
C2F C 0.80062(12) 0.67293(18) 0.1404(3)
C3F C 0.81370(16) 0.6742(2) -0.0220(3)
H3F H 0.8187 0.6232 -0.0771
C6F C 0.54750(12) 0.67524(13) 0.4524(2)
C7F C 0.60391(14) 0.67343(15) 0.5749(3)
H6F H 0.6230 0.6220 0.6162
Cl1F Cl 0.50723(7) 0.35662(5) 0.04986(9)
C10F C 0.55984(19) 0.43930(15) 0.1419(3)
N1F N 0.64043(16) 0.44721(13) 0.1073(2)
C11F C 0.67599(16) 0.51379(15) 0.1796(3)
N2F N 0.63770(11) 0.56858(11) 0.2749(2)
C12F C 0.55722(14) 0.54991(13) 0.2986(3)
N3F N 0.51317(13) 0.48611(12) 0.2366(2)
O1F O 0.75749(12) 0.52271(13) 0.1507(2)
O2F O 0.51116(9) 0.59962(10) 0.3933(2)
loop_
_geom_bond_atom_site_label_1
_geom_bond_atom_site_label_2
_geom_bond_site_symmetry_1
_geom_bond_site_symmetry_2
C1 H1 1_555 1_555
H2 C1 1_555 1_555
C2 C1 1_555 1_555
C3 C2 1_555 1_555
H3 C3 1_555 1_555
C4 C3 1_555 1_555
H4 C4 1_555 1_555
C5 C2 1_555 1_555
H5 C5 1_555 1_555
C6 C7 1_555 1_555
C7 H6 1_555 1_555
C8 C7 1_555 1_555
H7 C8 1_555 1_555
C9 C6 1_555 1_555
H8 C9 1_555 1_555
Cl1 C10 1_555 1_555
C10 N1 1_555 1_555
N1 C11 1_555 1_555
C11 N2 1_555 1_555
N2 C12 1_555 1_555
C12 N3 1_555 1_555
N3 C10 1_555 1_555
O1 C1 1_555 1_555
O2 C6 1_555 1_555
C1F H1F 1_555 1_555
H2F C1F 1_555 1_555
C2F C5 1_555 1_555
C3F C4 1_555 1_555
H3F C3F 1_555 1_555
C6F C9 1_555 1_555
C7F C8 1_555 1_555
H6F C7F 1_555 1_555
Cl1F C10F 1_555 1_555
C10F N1F 1_555 1_555
N1F C11F 1_555 1_555
C11F N2F 1_555 1_555
N2F C12F 1_555 1_555
C12F N3F 1_555 1_555
N3F C10F 1_555 1_555
O1F C1F 1_555 1_555
O2F C6F 1_555 1_555
C11 O1 1_555 1_555
C12 O2 1_555 1_555
C1F C2F 1_555 1_555
C2F C3F 1_555 1_555
C6F C7F 1_555 1_555
C11F O1F 1_555 1_555
C12F O2F 1_555 1_555

#END
