
#######################################################################
#
#                 Cambridge Crystallographic Data Centre
#                                CCDC 
#
#######################################################################
#
# If this CIF has been generated from an entry in the Cambridge 
# Structural Database, then it will include bibliographic, chemical, 
# crystal, experimental, refinement or atomic coordinate data resulting 
# from the CCDC's data processing and validation procedures.
#
#######################################################################

data_NAFQEQ
_chemical_formula_moiety         'C17 H13 Cl1 O1'
_chemical_name_systematic        
2,3,4-Naphthaleno-7-(3'-propenyl)-7-chlorobicyclo(3.2.0)hept-2-en-6-one
_symmetry_cell_setting           monoclinic
_symmetry_space_group_name_H-M   'P 21/c'
_symmetry_Int_Tables_number      14
_space_group_name_Hall           '-P 2ybc'
loop_
_symmetry_equiv_pos_site_id
_symmetry_equiv_pos_as_xyz
1 x,y,z
2 -x,1/2+y,1/2-z
3 -x,-y,-z
4 x,1/2-y,1/2+z
_cell_length_a                   11.482(2)
_cell_length_b                   15.311(3)
_cell_length_c                   7.973(2)
_cell_angle_alpha                90
_cell_angle_beta                 105.18(3)
_cell_angle_gamma                90
_cell_volume                     1352.75
_exptl_crystal_colour            colorless
_cell_formula_units_Z            4
loop_
_atom_site_label
_atom_site_type_symbol
_atom_site_fract_x
_atom_site_fract_y
_atom_site_fract_z
Cl1 Cl 0.38601(6) 0.08895(5) 0.01687(9)
O1 O 0.1666(2) 0.22924(13) -0.1294(3)
C1 C 0.0321(2) 0.0538(2) -0.2987(3)
C2 C -0.0832(2) 0.0684(2) -0.2899(4)
H1 H -0.1228(2) 0.1229(2) -0.3280(4)
C3 C -0.1425(3) 0.0015(2) -0.2245(4)
H2 H -0.2234(3) 0.0116(2) -0.2168(4)
C4 C -0.0903(3) -0.0773(2) -0.1693(4)
H3 H -0.1350(3) -0.1215(2) -0.1274(4)
C5 C 0.0295(3) -0.0939(2) -0.1753(4)
C6 C 0.0977(3) -0.1704(2) -0.1211(5)
H4 H 0.0621(3) -0.2185(2) -0.0752(5)
C7 C 0.2142(3) -0.1756(2) -0.1350(5)
H5 H 0.2591(3) -0.2281(2) -0.0975(5)
C8 C 0.2708(3) -0.1068(2) -0.1990(5)
H6 H 0.3524(3) -0.1122(2) -0.2076(5)
C9 C 0.2075(2) -0.0317(2) -0.2522(4)
C10 C 0.0876(2) -0.0265(2) -0.2397(3)
C11 C 0.2404(2) 0.0526(2) -0.3252(4)
H7 H 0.2681(2) 0.0450(2) -0.4278(4)
C12 C 0.1230(2) 0.1103(2) -0.3539(3)
H8 H 0.0953(2) 0.1367(2) -0.4665(3)
C13 C 0.1931(2) 0.1704(2) -0.2110(4)
C14 C 0.3124(2) 0.1232(2) -0.1989(4)
C15 C 0.3979(3) 0.1778(2) -0.2754(4)
H9 H 0.4259(3) 0.2265(2) -0.1998(4)
H10 H 0.3536(3) 0.2005(2) -0.3860(4)
C16 C 0.5043(3) 0.1290(2) -0.2997(5)
H11 H 0.5609(3) 0.1070(2) -0.1975(5)
C17 C 0.5274(4) 0.1131(3) -0.4452(6)
H12 H 0.4725(4) 0.1342(3) -0.5498(6)
H13 H 0.5975(4) 0.0805(3) -0.4512(6)
loop_
_geom_bond_atom_site_label_1
_geom_bond_atom_site_label_2
_geom_bond_site_symmetry_1
_geom_bond_site_symmetry_2
Cl1 C14 1_555 1_555
O1 C13 1_555 1_555
C1 C2 1_555 1_555
C2 H1 1_555 1_555
C3 C2 1_555 1_555
H2 C3 1_555 1_555
C4 C3 1_555 1_555
H3 C4 1_555 1_555
C5 C4 1_555 1_555
C6 C5 1_555 1_555
H4 C6 1_555 1_555
C7 C6 1_555 1_555
H5 C7 1_555 1_555
C8 C7 1_555 1_555
H6 C8 1_555 1_555
C9 C8 1_555 1_555
C10 C1 1_555 1_555
C11 C9 1_555 1_555
H7 C11 1_555 1_555
C12 C1 1_555 1_555
H8 C12 1_555 1_555
C13 C12 1_555 1_555
C14 C11 1_555 1_555
C15 C14 1_555 1_555
H9 C15 1_555 1_555
H10 C15 1_555 1_555
C16 C15 1_555 1_555
H11 C16 1_555 1_555
C17 C16 1_555 1_555
H12 C17 1_555 1_555
H13 C17 1_555 1_555
C5 C10 1_555 1_555
C9 C10 1_555 1_555
C11 C12 1_555 1_555
C13 C14 1_555 1_555

#END
