
#######################################################################
#
#                 Cambridge Crystallographic Data Centre
#                                CCDC 
#
#######################################################################
#
# If this CIF has been generated from an entry in the Cambridge 
# Structural Database, then it will include bibliographic, chemical, 
# crystal, experimental, refinement or atomic coordinate data resulting 
# from the CCDC's data processing and validation procedures.
#
#######################################################################

data_NAFQAM
_chemical_formula_moiety         'C15 H18 O1'
_chemical_name_systematic        8,9-Benzobicyclo(5.4.0)undecan-2-one
_symmetry_cell_setting           monoclinic
_symmetry_space_group_name_H-M   'P 21'
_symmetry_Int_Tables_number      4
_space_group_name_Hall           'P 2yb'
loop_
_symmetry_equiv_pos_site_id
_symmetry_equiv_pos_as_xyz
1 x,y,z
2 -x,1/2+y,-z
_cell_length_a                   7.1448(6)
_cell_length_b                   6.1034(7)
_cell_length_c                   13.5040(10)
_cell_angle_alpha                90
_cell_angle_beta                 93.120(10)
_cell_angle_gamma                90
_cell_volume                     588.004
_exptl_crystal_colour            colorless
_cell_formula_units_Z            2
loop_
_atom_site_label
_atom_site_type_symbol
_atom_site_fract_x
_atom_site_fract_y
_atom_site_fract_z
O1 O -0.2299(5) -0.2051 0.9672(2)
C1 C -0.1863(5) -0.0476(9) 0.9199(2)
C2 C -0.2883(4) 0.1656(9) 0.9301(2)
H1 H -0.2026(4) 0.2835(9) 0.9197(2)
H2 H -0.3295(4) 0.1778(9) 0.9963(2)
C3 C -0.4550(4) 0.1844(9) 0.8564(2)
H3 H -0.5324(4) 0.3031(9) 0.8766(2)
H4 H -0.5278(4) 0.0524(9) 0.8589(2)
C4 C -0.4035(4) 0.2210(9) 0.7494(2)
H5 H -0.3496(4) 0.3644(9) 0.7445(2)
H6 H -0.5163(4) 0.2180(9) 0.7074(2)
C5 C -0.2676(3) 0.0555(9) 0.7087(2)
H7 H -0.2632(3) 0.0720(9) 0.6381(2)
H8 H -0.3144(3) -0.0887(9) 0.7213(2)
C6 C -0.0646(3) 0.0735(8) 0.7546(2)
H9 H -0.0444(3) 0.2234(8) 0.7738(2)
C7 C 0.0776(4) 0.0193(8) 0.6772(2)
C8 C 0.0914(4) 0.1634(9) 0.5978(2)
H10 H 0.0179(4) 0.2951(9) 0.5969(2)
C9 C 0.2148(4) 0.1240(11) 0.5241(2)
H11 H 0.2227(4) 0.2250(11) 0.4699(2)
C10 C 0.3249(4) -0.0635(10) 0.5293(2)
H12 H 0.4049(4) -0.0972(10) 0.4765(2)
C11 C 0.3123(4) -0.2041(9) 0.6066(2)
H13 H 0.3949(4) -0.3279(9) 0.6133(2)
C12 C 0.1905(4) -0.1656(8) 0.6817(2)
C13 C 0.1868(4) -0.3216(9) 0.7675(2)
H14 H 0.2892(4) -0.2857(9) 0.8137(2)
H15 H 0.2051(4) -0.4686(9) 0.7448(2)
C14 C 0.0092(4) -0.3041(8) 0.8229(2)
H16 H 0.0169(4) -0.3929(8) 0.8816(2)
H17 H -0.0923(4) -0.3574(8) 0.7799(2)
C15 C -0.0308(4) -0.0668(9) 0.8483(2)
H18 H 0.0819(4) -0.0140(9) 0.8823(2)
loop_
_geom_bond_atom_site_label_1
_geom_bond_atom_site_label_2
_geom_bond_site_symmetry_1
_geom_bond_site_symmetry_2
O1 C1 1_555 1_555
C1 C2 1_555 1_555
C2 H1 1_555 1_555
H2 C2 1_555 1_555
C3 C2 1_555 1_555
H3 C3 1_555 1_555
H4 C3 1_555 1_555
C4 C3 1_555 1_555
H5 C4 1_555 1_555
H6 C4 1_555 1_555
C5 C4 1_555 1_555
H7 C5 1_555 1_555
H8 C5 1_555 1_555
C6 C5 1_555 1_555
H9 C6 1_555 1_555
C7 C6 1_555 1_555
C8 C7 1_555 1_555
H10 C8 1_555 1_555
C9 C8 1_555 1_555
H11 C9 1_555 1_555
C10 C9 1_555 1_555
H12 C10 1_555 1_555
C11 C10 1_555 1_555
H13 C11 1_555 1_555
C12 C7 1_555 1_555
C13 C12 1_555 1_555
H14 C13 1_555 1_555
H15 C13 1_555 1_555
C14 C13 1_555 1_555
H16 C14 1_555 1_555
H17 C14 1_555 1_555
C15 C1 1_555 1_555
H18 C15 1_555 1_555
C6 C15 1_555 1_555
C11 C12 1_555 1_555
C14 C15 1_555 1_555

#END
