
#######################################################################
#
#                 Cambridge Crystallographic Data Centre
#                                CCDC 
#
#######################################################################
#
# If this CIF has been generated from an entry in the Cambridge 
# Structural Database, then it will include bibliographic, chemical, 
# crystal, experimental, refinement or atomic coordinate data resulting 
# from the CCDC's data processing and validation procedures.
#
#######################################################################

data_NAFROD
_chemical_name_common            
13,27-bis(Diethylamino)homo[4]diazadioxacalix[2]arene[2]triazine
_chemical_formula_moiety         'C30 H38 N10 O2'
_chemical_name_systematic        
N,N,N',N'-Tetraethyl-2,10-dioxa-12,14,16,24,26,28,29,31-octaazapentacyclo[23.3.1.1^4,8^.1^11,15^.1^18,22^]dotriaconta-1(29),4(32),5,7,11(31),12,14,18(30),19,21,25,27-dodecaene-13,27-diamine
_symmetry_cell_setting           monoclinic
_symmetry_space_group_name_H-M   'P 21/c'
_symmetry_Int_Tables_number      14
_space_group_name_Hall           '-P 2ybc'
loop_
_symmetry_equiv_pos_site_id
_symmetry_equiv_pos_as_xyz
1 x,y,z
2 -x,1/2+y,1/2-z
3 -x,-y,-z
4 x,1/2-y,1/2+z
_cell_length_a                   9.3195(19)
_cell_length_b                   26.600(5)
_cell_length_c                   12.980(3)
_cell_angle_alpha                90
_cell_angle_beta                 103.64(3)
_cell_angle_gamma                90
_cell_volume                     3126.97
_exptl_crystal_colour            colorless
_exptl_crystal_description       needle
_chemical_melting_point          '260-262 deg.C'
_cell_formula_units_Z            4
_exptl_crystal_recrystallization_method chloroform/methanol
loop_
_atom_site_label
_atom_site_type_symbol
_atom_site_fract_x
_atom_site_fract_y
_atom_site_fract_z
O1 O 0.0393(3) 0.67238(9) 0.97427(19)
O2 O -0.3921(3) 0.56148(9) 0.98242(18)
N1 N 0.1621(3) 0.60787(10) 1.0605(2)
N2 N -0.3222(3) 0.56723(11) 1.1635(2)
N3 N -0.2638(3) 0.49742(11) 1.0663(2)
N4 N -0.1418(3) 0.43068(10) 1.1552(2)
H1 H -0.1597 0.4162 1.0942
C1 C -0.1971(4) 0.47663(13) 1.1609(3)
N5 N 0.1403(3) 0.68368(11) 1.1513(3)
N6 N 0.2873(3) 0.54186(10) 1.1493(2)
H2 H 0.2614 0.5266 1.0893
N7 N 0.2686(3) 0.61340(12) 1.2461(2)
N8 N -0.1873(3) 0.49761(11) 1.2552(2)
C2 C -0.3234(3) 0.54213(13) 1.0761(3)
C3 C 0.2391(4) 0.58883(13) 1.1538(3)
C4 C 0.1679(4) 0.45628(12) 1.2396(2)
H3 H 0.1042 0.4830 1.2161
N9 N -0.2416(3) 0.56665(13) 1.3447(2)
C5 C -0.2497(4) 0.54316(15) 1.2515(3)
C6 C 0.1093(4) 0.41076(12) 1.2585(2)
C7 C -0.2650(4) 0.66198(12) 0.9846(3)
H4 H -0.2295 0.6379 0.9449
C8 C 0.1171(4) 0.65447(13) 1.0679(3)
C9 C -0.3943(4) 0.65284(13) 1.0153(3)
C10 C 0.3180(4) 0.46380(12) 1.2541(2)
C11 C -0.4822(4) 0.60539(14) 0.9836(3)
H5 H -0.5447 0.5997 1.0326
H6 H -0.5461 0.6100 0.9136
C12 C -0.1865(4) 0.70630(12) 1.0113(3)
C13 C -0.0490(4) 0.71679(14) 0.9750(3)
H7 H -0.0755 0.7308 0.9040
H8 H 0.0091 0.7417 1.0214
C14 C 0.2198(4) 0.66115(16) 1.2397(3)
N10 N 0.2528(4) 0.68885(14) 1.3292(3)
C15 C -0.0538(4) 0.40355(13) 1.2446(3)
H9 H -0.0762 0.3680 1.2354
H10 H -0.0813 0.4145 1.3085
C16 C 0.3792(4) 0.51422(14) 1.2362(3)
H11 H 0.3915 0.5340 1.3005
H12 H 0.4761 0.5097 1.2221
C17 C 0.4117(5) 0.42404(15) 1.2884(3)
H13 H 0.5131 0.4283 1.2985
C18 C -0.1676(5) 0.54299(19) 1.4443(3)
H14 H -0.1335 0.5689 1.4969
H15 H -0.0816 0.5249 1.4340
C19 C -0.4460(5) 0.68919(16) 1.0730(4)
H16 H -0.5334 0.6836 1.0941
C20 C -0.3070(5) 0.61627(18) 1.3482(3)
H17 H -0.3403 0.6193 1.4133
H18 H -0.3928 0.6194 1.2894
C21 C -0.2422(5) 0.74186(15) 1.0682(4)
H19 H -0.1920 0.7721 1.0857
C22 C 0.3359(5) 0.6672(2) 1.4299(4)
H20 H 0.4019 0.6925 1.4688
H21 H 0.3960 0.6396 1.4149
C23 C 0.2205(6) 0.74295(19) 1.3254(4)
H22 H 0.2136 0.7541 1.3952
H23 H 0.1255 0.7488 1.2770
C24 C 0.3561(5) 0.37827(17) 1.3078(4)
H24 H 0.4200 0.3516 1.3311
C25 C 0.2063(5) 0.37163(15) 1.2931(3)
H25 H 0.1697 0.3404 1.3065
C26 C -0.3709(6) 0.73336(17) 1.0997(4)
H26 H -0.4069 0.7575 1.1390
C27 C 0.2390(7) 0.6485(3) 1.4975(4)
H27 H 0.2987 0.6347 1.5618
H28 H 0.1746 0.6229 1.4601
H29 H 0.1812 0.6758 1.5143
C28 C 0.3369(7) 0.7739(2) 1.2902(5)
H30 H 0.3106 0.8088 1.2888
H31 H 0.3430 0.7635 1.2205
H32 H 0.4308 0.7690 1.3388
C29 C -0.2646(7) 0.5074(2) 1.4854(4)
H33 H -0.2101 0.4927 1.5505
H34 H -0.2977 0.4813 1.4342
H35 H -0.3484 0.5252 1.4980
C30 C -0.2015(7) 0.6585(2) 1.3427(6)
H36 H -0.2503 0.6901 1.3446
H37 H -0.1691 0.6559 1.2780
H38 H -0.1177 0.6562 1.4020
loop_
_geom_bond_atom_site_label_1
_geom_bond_atom_site_label_2
_geom_bond_site_symmetry_1
_geom_bond_site_symmetry_2
O1 C8 1_555 1_555
O2 C2 1_555 1_555
N1 C3 1_555 1_555
N2 C2 1_555 1_555
N3 C1 1_555 1_555
N4 H1 1_555 1_555
C1 N4 1_555 1_555
N5 C8 1_555 1_555
N6 H2 1_555 1_555
N7 C3 1_555 1_555
N8 C1 1_555 1_555
C2 N3 1_555 1_555
C3 N6 1_555 1_555
C4 H3 1_555 1_555
N9 C5 1_555 1_555
C5 N2 1_555 1_555
C6 C4 1_555 1_555
C7 H4 1_555 1_555
C8 N1 1_555 1_555
C9 C7 1_555 1_555
C10 C4 1_555 1_555
C11 O2 1_555 1_555
H5 C11 1_555 1_555
H6 C11 1_555 1_555
C12 C7 1_555 1_555
C13 O1 1_555 1_555
H7 C13 1_555 1_555
H8 C13 1_555 1_555
C14 N5 1_555 1_555
N10 C14 1_555 1_555
C15 N4 1_555 1_555
H9 C15 1_555 1_555
H10 C15 1_555 1_555
C16 N6 1_555 1_555
H11 C16 1_555 1_555
H12 C16 1_555 1_555
C17 C10 1_555 1_555
H13 C17 1_555 1_555
C18 N9 1_555 1_555
H14 C18 1_555 1_555
H15 C18 1_555 1_555
C19 C9 1_555 1_555
H16 C19 1_555 1_555
C20 N9 1_555 1_555
H17 C20 1_555 1_555
H18 C20 1_555 1_555
C21 C12 1_555 1_555
H19 C21 1_555 1_555
C22 N10 1_555 1_555
H20 C22 1_555 1_555
H21 C22 1_555 1_555
C23 N10 1_555 1_555
H22 C23 1_555 1_555
H23 C23 1_555 1_555
C24 C17 1_555 1_555
H24 C24 1_555 1_555
C25 C6 1_555 1_555
H25 C25 1_555 1_555
C26 C19 1_555 1_555
H26 C26 1_555 1_555
C27 C22 1_555 1_555
H27 C27 1_555 1_555
H28 C27 1_555 1_555
H29 C27 1_555 1_555
C28 C23 1_555 1_555
H30 C28 1_555 1_555
H31 C28 1_555 1_555
H32 C28 1_555 1_555
C29 C18 1_555 1_555
H33 C29 1_555 1_555
H34 C29 1_555 1_555
H35 C29 1_555 1_555
C30 C20 1_555 1_555
H36 C30 1_555 1_555
H37 C30 1_555 1_555
H38 C30 1_555 1_555
N7 C14 1_555 1_555
N8 C5 1_555 1_555
C6 C15 1_555 1_555
C9 C11 1_555 1_555
C10 C16 1_555 1_555
C12 C13 1_555 1_555
C21 C26 1_555 1_555
C24 C25 1_555 1_555

#END
