
#######################################################################
#
#                 Cambridge Crystallographic Data Centre
#                                CCDC 
#
#######################################################################
#
# If this CIF has been generated from an entry in the Cambridge 
# Structural Database, then it will include bibliographic, chemical, 
# crystal, experimental, refinement or atomic coordinate data resulting 
# from the CCDC's data processing and validation procedures.
#
#######################################################################

data_NAFRAP
_chemical_name_common            
13,27-bis(Dipropylamino)homo[4]tetraoxacalix[2]arene[2]triazine
_chemical_formula_moiety         'C34 H44 N8 O4'
_chemical_name_systematic        
N,N,N',N'-Tetrapropyl-2,10,16,24-tetraoxa-12,14,26,28,29,31-hexaazapentacyclo[23.3.1.1^4,8^.1^11,15^.1^18,22^]dotriaconta-1(29),4(32),5,7,11(31),12,14,18(30),19,21,25,27-dodecaene-13,27-diamine
_symmetry_cell_setting           triclinic
_symmetry_space_group_name_H-M   'P -1'
_symmetry_Int_Tables_number      2
_space_group_name_Hall           '-P 1'
loop_
_symmetry_equiv_pos_site_id
_symmetry_equiv_pos_as_xyz
1 x,y,z
2 -x,-y,-z
_cell_length_a                   8.0502(16)
_cell_length_b                   10.501(2)
_cell_length_c                   11.409(2)
_cell_angle_alpha                117.05(3)
_cell_angle_beta                 94.98(3)
_cell_angle_gamma                99.20(3)
_cell_volume                     833.835
_exptl_crystal_colour            colorless
_exptl_crystal_description       block
_chemical_melting_point          '205 deg.C'
_cell_formula_units_Z            1
_exptl_crystal_recrystallization_method dichloromethane/n-hexane
loop_
_atom_site_label
_atom_site_type_symbol
_atom_site_fract_x
_atom_site_fract_y
_atom_site_fract_z
O1 O 0.9368(2) 0.4361(2) 1.3197(2)
O2 O 0.4682(2) 0.2193(2) 0.99206(19)
N1 N 0.7227(3) 0.5499(2) 1.3442(2)
N2 N 0.4718(3) 0.4386(2) 1.1738(2)
N3 N 0.7054(3) 0.3224(2) 1.1479(2)
N4 N 0.4911(3) 0.6571(2) 1.3648(2)
C1 C 1.0041(4) 0.3080(3) 1.2476(4)
H1 H 1.1295 0.3331 1.2783
H2 H 0.9829 0.2788 1.1510
C2 C 0.7818(3) 0.4350(3) 1.2674(3)
C3 C 0.5655(3) 0.5467(3) 1.2931(3)
C4 C 0.5776(4) 0.7779(3) 1.4963(3)
H3 H 0.5404 0.8681 1.5093
H4 H 0.7025 0.7956 1.4979
C5 C 0.5423(4) 0.7493(3) 1.6114(3)
H5 H 0.5896 0.6651 1.6041
H6 H 0.4171 0.7234 1.6062
C6 C 0.6221(4) 0.8838(3) 1.7459(3)
H7 H 0.5960 0.8628 1.8185
H8 H 0.5751 0.9671 1.7532
H9 H 0.7464 0.9078 1.7522
C7 C 0.3157(4) 0.6526(3) 1.3160(3)
H10 H 0.2616 0.7058 1.3936
H11 H 0.2507 0.5492 1.2678
C8 C 0.3034(5) 0.7188(4) 1.2244(4)
H12 H 0.3597 0.6672 1.1478
H13 H 0.3655 0.8230 1.2732
C9 C 0.1213(5) 0.7097(5) 1.1725(4)
H14 H 0.1197 0.7525 1.1120
H15 H 0.0662 0.7640 1.2478
H16 H 0.0592 0.6067 1.1239
C10 C 0.5506(3) 0.3337(3) 1.1100(3)
C11 C 0.2976(4) 0.2230(3) 0.9455(3)
H17 H 0.3020 0.3020 0.9204
H18 H 0.2288 0.2425 1.0172
C12 C 0.2181(4) 0.0766(3) 0.8261(3)
C13 C 0.1545(3) -0.0448(3) 0.8424(3)
H19 H 0.1658 -0.0352 0.9299
C14 C 0.0749(3) -0.1796(3) 0.7334(3)
C15 C 0.0611(4) -0.1928(3) 0.6050(3)
H20 H 0.0073 -0.2842 0.5292
C16 C 0.1261(4) -0.0724(3) 0.5880(3)
H21 H 0.1171 -0.0822 0.5005
C17 C 0.2035(4) 0.0611(3) 0.6975(3)
H22 H 0.2469 0.1428 0.6850
O1A O 0.0632(2) -0.4361(2) 0.6803(2)
O2A O 0.5318(2) -0.2193(2) 1.00794(19)
N1A N 0.2773(3) -0.5499(2) 0.6558(2)
N2A N 0.5282(3) -0.4386(2) 0.8262(2)
N3A N 0.2946(3) -0.3224(2) 0.8521(2)
N4A N 0.5089(3) -0.6571(2) 0.6352(2)
C1A C -0.0041(4) -0.3080(3) 0.7524(4)
H1A H -0.1295 -0.3331 0.7217
H2A H 0.0171 -0.2788 0.8490
C2A C 0.2182(3) -0.4350(3) 0.7326(3)
C3A C 0.4345(3) -0.5467(3) 0.7069(3)
C4A C 0.4224(4) -0.7779(3) 0.5037(3)
H3A H 0.4596 -0.8681 0.4907
H4A H 0.2975 -0.7956 0.5021
C5A C 0.4577(4) -0.7493(3) 0.3886(3)
H5A H 0.4104 -0.6651 0.3959
H6A H 0.5829 -0.7234 0.3938
C6A C 0.3779(4) -0.8838(3) 0.2541(3)
H7A H 0.4040 -0.8628 0.1815
H8A H 0.4249 -0.9671 0.2468
H9A H 0.2536 -0.9078 0.2478
C7A C 0.6843(4) -0.6526(3) 0.6840(3)
H10A H 0.7384 -0.7058 0.6064
H11A H 0.7493 -0.5492 0.7322
C8A C 0.6966(5) -0.7188(4) 0.7756(4)
H12A H 0.6403 -0.6672 0.8522
H13A H 0.6345 -0.8230 0.7268
C9A C 0.8787(5) -0.7097(5) 0.8275(4)
H14A H 0.8803 -0.7525 0.8880
H15A H 0.9338 -0.7640 0.7522
H16A H 0.9408 -0.6067 0.8761
C10A C 0.4494(3) -0.3337(3) 0.8900(3)
C11A C 0.7024(4) -0.2230(3) 1.0545(3)
H17A H 0.6980 -0.3020 1.0796
H18A H 0.7712 -0.2425 0.9828
C12A C 0.7819(4) -0.0766(3) 1.1739(3)
C13A C 0.8455(3) 0.0448(3) 1.1576(3)
H19A H 0.8342 0.0352 1.0701
C14A C 0.9251(3) 0.1796(3) 1.2666(3)
C15A C 0.9389(4) 0.1928(3) 1.3950(3)
H20A H 0.9927 0.2842 1.4708
C16A C 0.8739(4) 0.0724(3) 1.4120(3)
H21A H 0.8829 0.0822 1.4995
C17A C 0.7965(4) -0.0611(3) 1.3025(3)
H22A H 0.7531 -0.1428 1.3150
loop_
_geom_bond_atom_site_label_1
_geom_bond_atom_site_label_2
_geom_bond_site_symmetry_1
_geom_bond_site_symmetry_2
O1 C1 1_555 1_555
O2 C10 1_555 1_555
N1 C2 1_555 1_555
N2 C3 1_555 1_555
N3 C2 1_555 1_555
N4 C3 1_555 1_555
C1 H1 1_555 1_555
H2 C1 1_555 1_555
C2 O1 1_555 1_555
C3 N1 1_555 1_555
C4 N4 1_555 1_555
H3 C4 1_555 1_555
H4 C4 1_555 1_555
C5 C4 1_555 1_555
H5 C5 1_555 1_555
H6 C5 1_555 1_555
C6 C5 1_555 1_555
H7 C6 1_555 1_555
H8 C6 1_555 1_555
H9 C6 1_555 1_555
C7 N4 1_555 1_555
H10 C7 1_555 1_555
H11 C7 1_555 1_555
C8 C7 1_555 1_555
H12 C8 1_555 1_555
H13 C8 1_555 1_555
C9 C8 1_555 1_555
H14 C9 1_555 1_555
H15 C9 1_555 1_555
H16 C9 1_555 1_555
C10 N2 1_555 1_555
C11 O2 1_555 1_555
H17 C11 1_555 1_555
H18 C11 1_555 1_555
C12 C11 1_555 1_555
C13 C12 1_555 1_555
H19 C13 1_555 1_555
C14 C13 1_555 1_555
C15 C14 1_555 1_555
H20 C15 1_555 1_555
C16 C15 1_555 1_555
H21 C16 1_555 1_555
C17 C12 1_555 1_555
H22 C17 1_555 1_555
O1A C1A 1_555 1_555
O2A C10A 1_555 1_555
N1A C2A 1_555 1_555
N2A C3A 1_555 1_555
N3A C2A 1_555 1_555
N4A C3A 1_555 1_555
C1A C14 1_555 1_555
H1A C1A 1_555 1_555
H2A C1A 1_555 1_555
C2A O1A 1_555 1_555
C3A N1A 1_555 1_555
C4A N4A 1_555 1_555
H3A C4A 1_555 1_555
H4A C4A 1_555 1_555
C5A C4A 1_555 1_555
H5A C5A 1_555 1_555
H6A C5A 1_555 1_555
C6A C5A 1_555 1_555
H7A C6A 1_555 1_555
H8A C6A 1_555 1_555
H9A C6A 1_555 1_555
C7A N4A 1_555 1_555
H10A C7A 1_555 1_555
H11A C7A 1_555 1_555
C8A C7A 1_555 1_555
H12A C8A 1_555 1_555
H13A C8A 1_555 1_555
C9A C8A 1_555 1_555
H14A C9A 1_555 1_555
H15A C9A 1_555 1_555
H16A C9A 1_555 1_555
C10A N2A 1_555 1_555
C11A O2A 1_555 1_555
H17A C11A 1_555 1_555
H18A C11A 1_555 1_555
C12A C11A 1_555 1_555
C13A C12A 1_555 1_555
H19A C13A 1_555 1_555
C14A C1 1_555 1_555
C15A C14A 1_555 1_555
H20A C15A 1_555 1_555
C16A C15A 1_555 1_555
H21A C16A 1_555 1_555
C17A C12A 1_555 1_555
H22A C17A 1_555 1_555
N3 C10 1_555 1_555
C16 C17 1_555 1_555
N3A C10A 1_555 1_555
C13A C14A 1_555 1_555
C16A C17A 1_555 1_555

#END
