
#######################################################################
#
#                 Cambridge Crystallographic Data Centre
#                                CCDC 
#
#######################################################################
#
# If this CIF has been generated from an entry in the Cambridge 
# Structural Database, then it will include bibliographic, chemical, 
# crystal, experimental, refinement or atomic coordinate data resulting 
# from the CCDC's data processing and validation procedures.
#
#######################################################################

data_NAFRUJ
_chemical_name_common            
'11,25-bis(Diethylamino)homo[2]tetraazacalix[2]arene[2]triazine methanol solvate'
_chemical_formula_moiety         'C28 H36 N12,2(C1 H4 O1)'
_chemical_name_systematic        
"N,N,N',N'-Tetraethyl-2,8,10,12,14,22,24,26,27,29-decaazapentacyclo[21.3.1.1^3,7^.1^9,13^.1^16,20^]triaconta-1(27),3(30),4,6,9(29),10,12,16(28),17,19,23,25-dodecaene-11,25-diamine methanol solvate"
_symmetry_cell_setting           triclinic
_symmetry_space_group_name_H-M   'P -1'
_symmetry_Int_Tables_number      2
_space_group_name_Hall           '-P 1'
loop_
_symmetry_equiv_pos_site_id
_symmetry_equiv_pos_as_xyz
1 x,y,z
2 -x,-y,-z
_cell_length_a                   7.9477(16)
_cell_length_b                   15.796(3)
_cell_length_c                   26.207(5)
_cell_angle_alpha                85.58(3)
_cell_angle_beta                 83.92(3)
_cell_angle_gamma                89.73(3)
_cell_volume                     3261.82
_exptl_crystal_colour            colorless
_exptl_crystal_description       needle
_cell_formula_units_Z            4
_exptl_crystal_recrystallization_method dichloromethane/methanol
loop_
_atom_site_label
_atom_site_type_symbol
_atom_site_fract_x
_atom_site_fract_y
_atom_site_fract_z
O1 O 0.2941(3) 0.25518(15) 0.22815(9)
H1 H 0.3481 0.2532 0.2541
C3 C 0.4103(5) 0.2785(3) 0.18432(16)
H14 H 0.4578 0.3347 0.1877
H15 H 0.3514 0.2801 0.1532
H16 H 0.5018 0.2367 0.1818
O2 O 0.4992(3) 0.23639(18) 0.30242(10)
H2 H 0.5080 0.2875 0.3087
C6 C 0.6628(5) 0.2006(3) 0.29295(19)
H19 H 0.7330 0.2385 0.2681
H20 H 0.6531 0.1453 0.2790
H21 H 0.7151 0.1934 0.3252
O3 O 0.5436(4) 0.0179(2) 0.17737(11)
H3 H 0.6278 0.0494 0.1785
C9 C 0.4418(6) 0.0135(3) 0.22349(17)
H22 H 0.5097 -0.0037 0.2516
H23 H 0.3514 -0.0282 0.2226
H24 H 0.3918 0.0693 0.2290
O4 O 0.5332(3) 0.40815(18) 0.31320(10)
H4 H 0.6350 0.4139 0.3183
C12 C 0.4917(5) 0.4648(3) 0.27200(16)
H27 H 0.5073 0.5234 0.2805
H28 H 0.3735 0.4560 0.2661
H29 H 0.5656 0.4542 0.2408
N1 N 0.9357(3) 0.63817(16) 0.43207(9)
H5 H 1.0306 0.6131 0.4214
N3 N 0.7209(3) 0.72737(16) 0.40926(9)
N5 N 0.6583(3) 0.73260(16) 0.32193(9)
N7 N 0.8721(3) 0.63845(16) 0.34935(9)
N9 N 0.7970(3) 0.64856(16) 0.26532(9)
H6 H 0.7571 0.6848 0.2424
N11 N 1.0402(3) 0.36329(16) 0.28342(10)
H8 H 1.1264 0.3355 0.2690
N13 N 0.8378(3) 0.36899(16) 0.35352(9)
N15 N 1.0697(3) 0.27157(16) 0.35299(10)
N17 N 0.8669(3) 0.27380(16) 0.42724(9)
N19 N 0.6499(3) 0.36967(16) 0.42621(9)
H10 H 0.5820 0.4001 0.4077
N21 N 0.5096(3) 0.81328(17) 0.37998(10)
N23 N 1.0859(3) 0.17880(17) 0.42487(10)
C1 C 0.6980(4) 0.4852(2) 0.59241(13)
H12 H 0.6783 0.4804 0.6289
C4 C 0.7815(4) 0.5557(2) 0.56722(13)
H17 H 0.8200 0.5989 0.5865
C7 C 0.8093(4) 0.5636(2) 0.51390(12)
C10 C 0.7542(4) 0.4992(2) 0.48659(12)
H25 H 0.7742 0.5039 0.4501
C13 C 0.6703(4) 0.4279(2) 0.51120(12)
C15 C 0.6430(4) 0.4213(2) 0.56428(12)
H30 H 0.5863 0.3729 0.5817
C17 C 0.8963(4) 0.6430(2) 0.48682(12)
H32 H 0.8221 0.6925 0.4928
H33 H 1.0024 0.6525 0.5023
C19 C 0.8372(4) 0.66945(19) 0.39602(11)
C21 C 0.6329(4) 0.75584(19) 0.37003(12)
C23 C 0.7775(4) 0.67237(19) 0.31422(11)
C25 C 0.8710(4) 0.5750(2) 0.24528(12)
C27 C 0.8734(5) 0.5694(2) 0.19248(13)
H36 H 0.8374 0.6161 0.1713
C29 C 0.9283(5) 0.4958(2) 0.17104(13)
H38 H 0.9298 0.4922 0.1350
C31 C 0.9814(5) 0.4269(2) 0.20123(12)
H40 H 1.0174 0.3761 0.1863
C33 C 0.9810(4) 0.4336(2) 0.25339(12)
C35 C 0.9297(4) 0.5079(2) 0.27557(11)
H42 H 0.9350 0.5127 0.3113
C37 C 0.9793(4) 0.33400(19) 0.33183(11)
C39 C 0.7901(4) 0.33619(19) 0.40193(11)
C41 C 1.0044(4) 0.24289(19) 0.40081(11)
C43 C 0.6063(4) 0.3579(2) 0.48113(12)
H44 H 0.6530 0.3030 0.4938
H45 H 0.4815 0.3544 0.4882
C45 C 0.4799(5) 0.8483(2) 0.43009(13)
H48 H 0.5183 0.8069 0.4567
H49 H 0.3570 0.8570 0.4385
C48 C 0.5706(6) 0.9310(3) 0.43142(16)
H55 H 0.5462 0.9523 0.4656
H56 H 0.5322 0.9723 0.4054
H57 H 0.6928 0.9223 0.4242
C49 C 0.3964(5) 0.8409(2) 0.34140(13)
H58 H 0.4601 0.8426 0.3068
H59 H 0.3568 0.8992 0.3474
C51 C 0.2447(6) 0.7829(3) 0.34298(19)
H62 H 0.1726 0.8039 0.3167
H63 H 0.1800 0.7818 0.3770
H64 H 0.2831 0.7254 0.3363
C53 C 1.0154(4) 0.1419(2) 0.47522(12)
H68 H 0.9700 0.1879 0.4963
H69 H 1.1066 0.1132 0.4928
C55 C 0.8752(5) 0.0784(2) 0.47134(14)
H72 H 0.8312 0.0553 0.5059
H73 H 0.9203 0.0320 0.4512
H74 H 0.7838 0.1068 0.4544
C57 C 1.2430(4) 0.1437(2) 0.40210(13)
H78 H 1.2530 0.1569 0.3643
H79 H 1.2402 0.0811 0.4088
C59 C 1.3964(5) 0.1785(3) 0.42331(15)
H82 H 1.4992 0.1536 0.4067
H83 H 1.3886 0.1642 0.4605
H84 H 1.4005 0.2404 0.4164
N2 N 0.6190(3) 0.13504(17) 0.08487(10)
N4 N 0.8215(3) 0.24007(17) 0.07057(10)
N6 N 1.0304(3) 0.24627(16) 0.12922(10)
N8 N 0.8099(3) 0.14130(16) 0.14473(10)
N10 N 1.0253(3) 0.14917(16) 0.19793(10)
H7 H 1.1114 0.1792 0.2052
N12 N 0.7950(3) -0.13839(16) 0.23603(9)
H9 H 0.7550 -0.1734 0.2622
N14 N 0.8619(3) -0.13059(16) 0.14701(10)
N16 N 0.6457(3) -0.22246(16) 0.19044(10)
N18 N 0.6995(3) -0.21693(16) 0.09875(9)
N20 N 0.9200(3) -0.13116(16) 0.06073(9)
H11 H 1.0166 -0.1072 0.0652
N22 N 1.0233(4) 0.34474(19) 0.05963(11)
N24 N 0.4850(4) -0.30069(18) 0.14325(10)
C2 C 0.7205(5) 0.0307(2) -0.08738(13)
H13 H 0.7134 0.0384 -0.1234
C5 C 0.6525(4) 0.0907(2) -0.05568(13)
H18 H 0.5989 0.1394 -0.0701
C8 C 0.6613(4) 0.0809(2) -0.00283(12)
C11 C 0.7393(4) 0.0087(2) 0.01716(12)
H26 H 0.7468 0.0013 0.0532
C14 C 0.8069(4) -0.0535(2) -0.01421(12)
C16 C 0.7995(4) -0.0412(2) -0.06687(12)
H31 H 0.8483 -0.0817 -0.0890
C18 C 0.5811(4) 0.1462(2) 0.03128(12)
H34 H 0.6200 0.2033 0.0167
H35 H 0.4569 0.1439 0.0307
C20 C 0.7545(4) 0.1734(2) 0.10009(12)
C22 C 0.9556(4) 0.2746(2) 0.08790(13)
C24 C 0.9505(4) 0.17912(19) 0.15562(12)
C26 C 0.9834(4) 0.0766(2) 0.23163(12)
C28 C 1.0127(4) 0.0805(2) 0.28277(12)
H37 H 1.0600 0.1300 0.2941
C30 C 0.9713(5) 0.0105(2) 0.31670(13)
H39 H 0.9909 0.0121 0.3518
C32 C 0.9020(4) -0.0618(2) 0.30066(12)
H41 H 0.8722 -0.1087 0.3248
C34 C 0.8757(4) -0.0658(2) 0.24927(12)
C36 C 0.9213(4) 0.00338(19) 0.21448(12)
H43 H 0.9098 0.0004 0.1790
C38 C 0.7689(4) -0.16315(19) 0.18864(12)
C40 C 0.8214(4) -0.16109(19) 0.10345(12)
C42 C 0.6140(4) -0.2449(2) 0.14379(12)
C44 C 0.8805(4) -0.1352(2) 0.00847(12)
H46 H 0.7985 -0.1819 0.0075
H47 H 0.9849 -0.1490 -0.0133
C46 C 0.9261(9) 0.3876(4) 0.0194(2)
H50 H 0.9363 0.4499 0.0201
H51 H 0.8050 0.3722 0.0269
C47 C 0.9920(8) 0.3615(4) -0.0338(2)
H52 H 0.9266 0.3903 -0.0596
H53 H 0.9803 0.2999 -0.0346
H54 H 1.1115 0.3775 -0.0413
C50 C 1.1810(5) 0.3822(2) 0.07075(14)
H60 H 1.1810 0.3821 0.1085
H61 H 1.1865 0.4420 0.0563
C52 C 1.3362(5) 0.3366(3) 0.04929(15)
H65 H 1.4376 0.3649 0.0580
H66 H 1.3387 0.3374 0.0118
H67 H 1.3335 0.2776 0.0641
C54 C 0.4416(5) -0.3328(2) 0.09563(13)
H70 H 0.4992 -0.2978 0.0660
H71 H 0.3181 -0.3274 0.0941
C56 C 0.4914(7) -0.4243(3) 0.09130(18)
H75 H 0.4602 -0.4430 0.0588
H76 H 0.4325 -0.4594 0.1201
H77 H 0.6139 -0.4299 0.0922
C58 C 0.3671(5) -0.3205(2) 0.18934(14)
H80 H 0.4309 -0.3246 0.2199
H81 H 0.3145 -0.3766 0.1870
C60 C 0.2292(6) -0.2549(3) 0.19657(18)
H85 H 0.1546 -0.2710 0.2280
H86 H 0.1633 -0.2517 0.1669
H87 H 0.2803 -0.1993 0.1995
C61? C 0.977(2) 0.3627(12) 0.0072(5)
C62? C 0.815(2) 0.4173(12) 0.0145(8)
H88? H 0.9533 0.3095 -0.0085
H89? H 0.0679 0.3943 -0.0149
H90? H 0.7747 0.4324 -0.0191
H91? H 0.8411 0.4692 0.0304
H92? H 0.7273 0.3850 0.0368
loop_
_geom_bond_atom_site_label_1
_geom_bond_atom_site_label_2
_geom_bond_site_symmetry_1
_geom_bond_site_symmetry_2
O1 H1 1_555 1_555
O2 H2 1_555 1_555
O3 H3 1_555 1_555
O4 H4 1_555 1_555
N1 H5 1_555 1_555
N2 C18 1_555 1_555
N3 C19 1_555 1_555
N4 C20 1_555 1_555
N5 C21 1_555 1_555
N6 C22 1_555 1_555
N7 C19 1_555 1_555
N8 C20 1_555 1_555
N9 H6 1_555 1_555
N10 H7 1_555 1_555
N11 H8 1_555 1_555
N12 H9 1_555 1_555
N13 C37 1_555 1_555
N14 C38 1_555 1_555
N15 C37 1_555 1_555
N16 C38 1_555 1_555
N17 C39 1_555 1_555
N18 C40 1_555 1_555
N19 H10 1_555 1_555
N20 H11 1_555 1_555
N21 C21 1_555 1_555
N22 C22 1_555 1_555
N23 C41 1_555 1_555
N24 C42 1_555 1_555
C1 H12 1_555 1_555
C2 H13 1_555 1_555
C3 O1 1_555 1_555
H14 C3 1_555 1_555
H15 C3 1_555 1_555
H16 C3 1_555 1_555
C4 C1 1_555 1_555
H17 C4 1_555 1_555
C5 C2 1_555 1_555
H18 C5 1_555 1_555
C6 O2 1_555 1_555
H19 C6 1_555 1_555
H20 C6 1_555 1_555
H21 C6 1_555 1_555
C7 C4 1_555 1_555
C8 C5 1_555 1_555
C9 O3 1_555 1_555
H22 C9 1_555 1_555
H23 C9 1_555 1_555
H24 C9 1_555 1_555
C10 C7 1_555 1_555
H25 C10 1_555 1_555
C11 C8 1_555 1_555
H26 C11 1_555 1_555
C12 O4 1_555 1_555
H27 C12 1_555 1_555
H28 C12 1_555 1_555
H29 C12 1_555 1_555
C13 C10 1_555 1_555
C14 C11 1_555 1_555
C15 C1 1_555 1_555
H30 C15 1_555 1_555
C16 C2 1_555 1_555
H31 C16 1_555 1_555
C17 N1 1_555 1_555
H32 C17 1_555 1_555
H33 C17 1_555 1_555
C18 C8 1_555 1_555
H34 C18 1_555 1_555
H35 C18 1_555 1_555
C19 N1 1_555 1_555
C20 N2 1_555 1_555
C21 N3 1_555 1_555
C22 N4 1_555 1_555
C23 N5 1_555 1_555
C24 N6 1_555 1_555
C25 N9 1_555 1_555
C26 N10 1_555 1_555
C27 C25 1_555 1_555
H36 C27 1_555 1_555
C28 C26 1_555 1_555
H37 C28 1_555 1_555
C29 C27 1_555 1_555
H38 C29 1_555 1_555
C30 C28 1_555 1_555
H39 C30 1_555 1_555
C31 C29 1_555 1_555
H40 C31 1_555 1_555
C32 C30 1_555 1_555
H41 C32 1_555 1_555
C33 N11 1_555 1_555
C34 N12 1_555 1_555
C35 C25 1_555 1_555
H42 C35 1_555 1_555
C36 C26 1_555 1_555
H43 C36 1_555 1_555
C37 N11 1_555 1_555
C38 N12 1_555 1_555
C39 N13 1_555 1_555
C40 N14 1_555 1_555
C41 N15 1_555 1_555
C42 N16 1_555 1_555
C43 N19 1_555 1_555
H44 C43 1_555 1_555
H45 C43 1_555 1_555
C44 N20 1_555 1_555
H46 C44 1_555 1_555
H47 C44 1_555 1_555
C45 N21 1_555 1_555
H48 C45 1_555 1_555
H49 C45 1_555 1_555
C46 N22 1_555 1_555
H50 C46 1_555 1_555
H51 C46 1_555 1_555
C47 C46 1_555 1_555
H52 C47 1_555 1_555
H53 C47 1_555 1_555
H54 C47 1_555 1_555
C48 C45 1_555 1_555
H55 C48 1_555 1_555
H56 C48 1_555 1_555
H57 C48 1_555 1_555
C49 N21 1_555 1_555
H58 C49 1_555 1_555
H59 C49 1_555 1_555
C50 N22 1_555 1_555
H60 C50 1_555 1_555
H61 C50 1_555 1_555
C51 C49 1_555 1_555
H62 C51 1_555 1_555
H63 C51 1_555 1_555
H64 C51 1_555 1_555
C52 C50 1_555 1_555
H65 C52 1_555 1_555
H66 C52 1_555 1_555
H67 C52 1_555 1_555
C53 N23 1_555 1_555
H68 C53 1_555 1_555
H69 C53 1_555 1_555
C54 N24 1_555 1_555
H70 C54 1_555 1_555
H71 C54 1_555 1_555
C55 C53 1_555 1_555
H72 C55 1_555 1_555
H73 C55 1_555 1_555
H74 C55 1_555 1_555
C56 C54 1_555 1_555
H75 C56 1_555 1_555
H76 C56 1_555 1_555
H77 C56 1_555 1_555
C57 N23 1_555 1_555
H78 C57 1_555 1_555
H79 C57 1_555 1_555
C58 N24 1_555 1_555
H80 C58 1_555 1_555
H81 C58 1_555 1_555
C59 C57 1_555 1_555
H82 C59 1_555 1_555
H83 C59 1_555 1_555
H84 C59 1_555 1_555
C60 C58 1_555 1_555
H85 C60 1_555 1_555
H86 C60 1_555 1_555
H87 C60 1_555 1_555
N7 C23 1_555 1_555
N8 C24 1_555 1_555
N9 C23 1_555 1_555
N10 C24 1_555 1_555
N17 C41 1_555 1_555
N18 C42 1_555 1_555
N19 C39 1_555 1_555
N20 C40 1_555 1_555
C7 C17 1_555 1_555
C13 C15 1_555 1_555
C13 C43 1_555 1_555
C14 C16 1_555 1_555
C14 C44 1_555 1_555
C31 C33 1_555 1_555
C32 C34 1_555 1_555
C33 C35 1_555 1_555
C34 C36 1_555 1_555

#END
