
#######################################################################
#
#                 Cambridge Crystallographic Data Centre
#                                CCDC 
#
#######################################################################
#
# If this CIF has been generated from an entry in the Cambridge 
# Structural Database, then it will include bibliographic, chemical, 
# crystal, experimental, refinement or atomic coordinate data resulting 
# from the CCDC's data processing and validation procedures.
#
#######################################################################

data_NAFRET
_chemical_name_common            
11,25-Dichloro-homo[2]diazadioxacalix[2]arene[2]triazine
_chemical_formula_moiety         'C20 H14 Cl2 N8 O2'
_chemical_name_systematic        
11,25-Dichloro-14,22-dioxa-2,8,10,12,24,26,27,29-octaazapentacyclo[21.3.1.1^3,7^.1^9,13^.1^16,20^]triaconta-1(27),3(30),4,6,9(29),10,12,16(28),17,19,23,25-dodecaene
_symmetry_cell_setting           triclinic
_symmetry_space_group_name_H-M   'P -1'
_symmetry_Int_Tables_number      2
_space_group_name_Hall           '-P 1'
loop_
_symmetry_equiv_pos_site_id
_symmetry_equiv_pos_as_xyz
1 x,y,z
2 -x,-y,-z
_cell_length_a                   8.3378(17)
_cell_length_b                   10.574(2)
_cell_length_c                   12.317(3)
_cell_angle_alpha                72.71(3)
_cell_angle_beta                 75.53(3)
_cell_angle_gamma                88.81(3)
_cell_volume                     1002.27
_exptl_crystal_colour            colorless
_exptl_crystal_description       needle
_chemical_melting_point          'above 300 deg.C'
_cell_formula_units_Z            2
_exptl_crystal_recrystallization_method acetone/n-hexane
loop_
_atom_site_label
_atom_site_type_symbol
_atom_site_fract_x
_atom_site_fract_y
_atom_site_fract_z
Cl1 Cl 0.27003(10) 0.49839(10) 0.38757(9)
Cl2 Cl -0.51395(13) -0.16879(11) 0.10321(9)
O1 O -0.0593(3) 0.0822(2) 0.1436(2)
O2 O -0.2746(3) 0.4168(2) 0.3308(2)
N1 N -0.0965(3) 0.1065(3) 0.6118(2)
H1 H -0.0306 0.0936 0.6573
N2 N -0.1922(3) 0.2624(3) 0.4679(2)
N3 N -0.4554(3) -0.1704(3) 0.2993(3)
N4 N -0.2283(3) -0.0438(3) 0.3084(2)
N5 N 0.0668(3) 0.2948(3) 0.5087(3)
N6 N -0.4261(3) -0.1647(3) 0.4769(2)
H2 H -0.5102 -0.2209 0.5024
C1 C -0.3657(4) -0.1242(3) 0.3592(3)
C2 C -0.4046(4) -0.1169(3) 0.1863(3)
N7 N -0.0135(3) 0.4525(3) 0.3519(2)
C3 C -0.0752(4) 0.2232(3) 0.5275(3)
C4 C -0.1541(4) 0.3773(3) 0.3848(3)
N8 N -0.2814(3) -0.0261(3) 0.1239(2)
C5 C -0.2595(4) -0.0258(3) 0.5424(3)
H3 H -0.2125 0.0257 0.4655
C6 C 0.0868(4) 0.4027(3) 0.4205(3)
C7 C -0.2159(4) 0.0010(3) 0.6350(3)
C8 C -0.1956(4) 0.0014(3) 0.1922(3)
C9 C -0.4455(4) -0.2045(3) 0.6806(3)
H4 H -0.5243 -0.2730 0.6966
C10 C -0.2221(4) 0.4650(3) 0.1199(3)
C11 C -0.2848(4) -0.0750(3) 0.7508(3)
H5 H -0.2539 -0.0574 0.8126
C12 C -0.3737(4) -0.1298(3) 0.5649(3)
C13 C -0.2399(5) 0.5225(3) 0.2196(3)
H6 H -0.1384 0.5727 0.2095
H7 H -0.3296 0.5824 0.2197
C14 C -0.1267(4) 0.2957(3) 0.0275(3)
C15 C -0.1885(4) 0.3627(4) -0.0665(3)
H8 H -0.1773 0.3286 -0.1293
C16 C -0.2844(5) 0.5292(4) 0.0249(3)
H9 H -0.3388 0.6070 0.0242
C17 C -0.3991(4) -0.1764(4) 0.7718(3)
H10 H -0.4465 -0.2275 0.8488
C18 C -0.1436(4) 0.3485(3) 0.1201(3)
H11 H -0.1013 0.3047 0.1835
C19 C -0.0363(5) 0.1719(4) 0.0263(3)
H12 H -0.0767 0.1282 -0.0215
H13 H 0.0811 0.1952 -0.0089
C20 C -0.2667(5) 0.4794(4) -0.0689(3)
H14 H -0.3071 0.5240 -0.1330
loop_
_geom_bond_atom_site_label_1
_geom_bond_atom_site_label_2
_geom_bond_site_symmetry_1
_geom_bond_site_symmetry_2
Cl1 C6 1_555 1_555
Cl2 C2 1_555 1_555
O1 C8 1_555 1_555
O2 C4 1_555 1_555
N1 H1 1_555 1_555
N2 C3 1_555 1_555
N3 C1 1_555 1_555
N4 C1 1_555 1_555
N5 C3 1_555 1_555
N6 H2 1_555 1_555
C1 N6 1_555 1_555
C2 N3 1_555 1_555
N7 C4 1_555 1_555
C3 N1 1_555 1_555
C4 N2 1_555 1_555
N8 C2 1_555 1_555
C5 H3 1_555 1_555
C6 N5 1_555 1_555
C7 N1 1_555 1_555
C8 N4 1_555 1_555
C9 H4 1_555 1_555
C10 C13 1_555 1_555
C11 C7 1_555 1_555
H5 C11 1_555 1_555
C12 N6 1_555 1_555
C13 O2 1_555 1_555
H6 C13 1_555 1_555
H7 C13 1_555 1_555
C14 C15 1_555 1_555
C15 H8 1_555 1_555
C16 C10 1_555 1_555
H9 C16 1_555 1_555
C17 C9 1_555 1_555
H10 C17 1_555 1_555
C18 C10 1_555 1_555
H11 C18 1_555 1_555
C19 O1 1_555 1_555
H12 C19 1_555 1_555
H13 C19 1_555 1_555
C20 C15 1_555 1_555
H14 C20 1_555 1_555
N7 C6 1_555 1_555
N8 C8 1_555 1_555
C5 C7 1_555 1_555
C5 C12 1_555 1_555
C9 C12 1_555 1_555
C11 C17 1_555 1_555
C14 C18 1_555 1_555
C14 C19 1_555 1_555
C16 C20 1_555 1_555

#END
