
#######################################################################
#
#                 Cambridge Crystallographic Data Centre
#                                CCDC 
#
#######################################################################
#
# If this CIF has been generated from an entry in the Cambridge 
# Structural Database, then it will include bibliographic, chemical, 
# crystal, experimental, refinement or atomic coordinate data resulting 
# from the CCDC's data processing and validation procedures.
#
#######################################################################

data_NAFSIY
_chemical_name_common            
2,10,16,24-Tetrabenzyl-13,27-bis(diethylamino)-homo[4]tetraazacalix[2]arene[2]triazine
_chemical_formula_moiety         'C58 H64 N12'
_chemical_name_systematic        
2,10,16,24-Tetrabenzyl-N,N,N',N'-tetraethyl-2,10,12,14,16,24,26,28,29,31-decaazapentacyclo[23.3.1.1^4,8^.1^11,15^.1^18,22^]dotriaconta-1(29),4(32),5,7,11(31),12,14,18(30),19,21,25,27-dodecaene-13,27-diamine
_symmetry_cell_setting           triclinic
_symmetry_space_group_name_H-M   'P -1'
_symmetry_Int_Tables_number      2
_space_group_name_Hall           '-P 1'
loop_
_symmetry_equiv_pos_site_id
_symmetry_equiv_pos_as_xyz
1 x,y,z
2 -x,-y,-z
_cell_length_a                   10.748(2)
_cell_length_b                   11.622(2)
_cell_length_c                   12.647(3)
_cell_angle_alpha                115.77(3)
_cell_angle_beta                 98.47(3)
_cell_angle_gamma                103.57(3)
_cell_volume                     1325.68
_exptl_crystal_colour            colorless
_exptl_crystal_description       needle
_chemical_melting_point          '218-219 deg.C'
_cell_formula_units_Z            1
_exptl_crystal_recrystallization_method dichloromethane/methanol
loop_
_atom_site_label
_atom_site_type_symbol
_atom_site_fract_x
_atom_site_fract_y
_atom_site_fract_z
N1 N -0.0779(2) 0.2633(2) 0.8063(2)
N2 N 0.0105(2) 0.2449(2) 0.9816(2)
N3 N 0.1576(2) 0.3443(2) 0.8959(2)
N4 N 0.0692(2) 0.3581(2) 0.7281(2)
N5 N -0.2153(2) 0.1668(2) 0.8898(2)
N6 N 0.2398(3) 0.3206(3) 1.0610(3)
C1 C -0.0892(3) 0.2278(3) 0.8928(3)
C2 C 0.1314(3) 0.3031(3) 0.9768(3)
C3 C 0.0487(3) 0.3209(3) 0.8134(2)
C4 C -0.0398(3) 0.3489(3) 0.6386(3)
H1 H -0.0205 0.4346 0.6385
H2 H -0.1208 0.3341 0.6633
C5 C -0.0641(3) 0.2360(3) 0.5096(3)
C6 C -0.1069(4) 0.1024(4) 0.4820(3)
H3 H -0.1225 0.0807 0.5425
C7 C -0.1265(5) 0.0013(4) 0.3660(4)
H4 H -0.1556 -0.0886 0.3486
C8 C -0.1045(4) 0.0298(5) 0.2764(4)
H5 H -0.1164 -0.0398 0.1984
C9 C -0.0652(4) 0.1594(6) 0.3009(4)
H6 H -0.0527 0.1795 0.2387
C10 C -0.0431(4) 0.2640(4) 0.4185(3)
H7 H -0.0138 0.3536 0.4349
C11 C 0.2019(3) 0.4090(3) 0.7191(3)
H8 H 0.2008 0.3638 0.6338
H9 H 0.2634 0.3854 0.7637
C12 C 0.2245(3) 0.6491(3) 0.8691(2)
H10 H 0.1691 0.6142 0.9058
C13 C 0.2533(3) 0.5607(3) 0.7682(2)
C14 C 0.3350(3) 0.6151(4) 0.7141(3)
H11 H 0.3543 0.5574 0.6450
C15 C 0.3875(3) 0.7521(4) 0.7613(3)
H12 H 0.4434 0.7871 0.7251
C16 C 0.3581(3) 0.8381(3) 0.8615(3)
H13 H 0.3939 0.9313 0.8926
C17 C 0.2757(3) 0.7878(3) 0.9170(2)
C18 C -0.2389(3) 0.1170(3) 0.9747(3)
H14 H -0.1591 0.1023 1.0050
H15 H -0.3104 0.0302 0.9310
C19 C -0.3302(3) 0.1429(3) 0.7982(3)
H16 H -0.3084 0.2108 0.7725
H17 H -0.4027 0.1543 0.8348
C20 C -0.3773(3) 0.0041(3) 0.6868(3)
C21 C -0.5060(3) -0.0505(4) 0.6124(3)
H18 H -0.5656 -0.0035 0.6327
C22 C -0.5477(5) -0.1767(5) 0.5064(4)
H19 H -0.6344 -0.2125 0.4554
C23 C -0.4621(7) -0.2475(5) 0.4775(4)
H20 H -0.4906 -0.3318 0.4072
C24 C -0.3359(5) -0.1956(5) 0.5505(4)
H21 H -0.2776 -0.2443 0.5304
C25 C -0.2927(4) -0.0701(4) 0.6554(3)
H22 H -0.2056 -0.0355 0.7053
C26 C 0.2240(4) 0.2755(4) 1.1524(3)
H23 H 0.1423 0.1988 1.1192
H24 H 0.2981 0.2464 1.1702
C27 C 0.2194(6) 0.3851(5) 1.2653(4)
H25 H 0.2162 0.3561 1.3256
H26 H 0.1412 0.4081 1.2491
H27 H 0.2976 0.4630 1.2954
C28 C 0.3754(3) 0.3889(5) 1.0653(4)
H28 H 0.3741 0.4606 1.0456
H29 H 0.4334 0.4304 1.1479
C29 C 0.4293(5) 0.2962(6) 0.9803(6)
H30 H 0.5201 0.3437 0.9904
H31 H 0.3769 0.2612 0.8979
H32 H 0.4266 0.2225 0.9968
N1A N 0.0779(2) 0.7367(2) 1.1937(2)
N2A N -0.0105(2) 0.7551(2) 1.0184(2)
N3A N -0.1576(2) 0.6557(2) 1.1041(2)
N4A N -0.0692(2) 0.6419(2) 1.2719(2)
N5A N 0.2153(2) 0.8332(2) 1.1102(2)
N6A N -0.2398(3) 0.6794(3) 0.9390(3)
C1A C 0.0892(3) 0.7722(3) 1.1072(3)
C2A C -0.1314(3) 0.6969(3) 1.0232(3)
C3A C -0.0487(3) 0.6791(3) 1.1866(2)
C4A C 0.0398(3) 0.6511(3) 1.3614(3)
H1A H 0.0205 0.5654 1.3615
H2A H 0.1208 0.6659 1.3367
C5A C 0.0641(3) 0.7640(3) 1.4904(3)
C6A C 0.1069(4) 0.8976(4) 1.5180(3)
H3A H 0.1225 0.9193 1.4575
C7A C 0.1265(5) 0.9987(4) 1.6340(4)
H4A H 0.1556 1.0886 1.6514
C8A C 0.1045(4) 0.9702(5) 1.7236(4)
H5A H 0.1164 1.0398 1.8016
C9A C 0.0652(4) 0.8406(6) 1.6991(4)
H6A H 0.0527 0.8205 1.7613
C10A C 0.0431(4) 0.7360(4) 1.5815(3)
H7A H 0.0138 0.6464 1.5651
C11A C -0.2019(3) 0.5910(3) 1.2809(3)
H8A H -0.2008 0.6362 1.3662
H9A H -0.2634 0.6146 1.2363
C12A C -0.2245(3) 0.3509(3) 1.1309(2)
H10A H -0.1691 0.3858 1.0942
C13A C -0.2533(3) 0.4393(3) 1.2318(2)
C14A C -0.3350(3) 0.3849(4) 1.2859(3)
H11A H -0.3543 0.4426 1.3550
C15A C -0.3875(3) 0.2479(4) 1.2387(3)
H12A H -0.4434 0.2129 1.2749
C16A C -0.3581(3) 0.1619(3) 1.1385(3)
H13A H -0.3939 0.0687 1.1074
C17A C -0.2757(3) 0.2122(3) 1.0830(2)
C18A C 0.2389(3) 0.8830(3) 1.0253(3)
H14A H 0.1591 0.8977 0.9950
H15A H 0.3104 0.9698 1.0690
C19A C 0.3302(3) 0.8571(3) 1.2018(3)
H16A H 0.3084 0.7892 1.2275
H17A H 0.4027 0.8457 1.1652
C20A C 0.3773(3) 0.9959(3) 1.3132(3)
C21A C 0.5060(3) 1.0505(4) 1.3876(3)
H18A H 0.5656 1.0035 1.3673
C22A C 0.5477(5) 1.1767(5) 1.4936(4)
H19A H 0.6344 1.2125 1.5446
C23A C 0.4621(7) 1.2475(5) 1.5225(4)
H20A H 0.4906 1.3318 1.5928
C24A C 0.3359(5) 1.1956(5) 1.4495(4)
H21A H 0.2776 1.2443 1.4696
C25A C 0.2927(4) 1.0701(4) 1.3446(3)
H22A H 0.2056 1.0355 1.2947
C26A C -0.2240(4) 0.7245(4) 0.8476(3)
H23A H -0.1423 0.8012 0.8808
H24A H -0.2981 0.7536 0.8298
C27A C -0.2194(6) 0.6149(5) 0.7347(4)
H25A H -0.2162 0.6439 0.6744
H26A H -0.1412 0.5919 0.7509
H27A H -0.2976 0.5370 0.7046
C28A C -0.3754(3) 0.6111(5) 0.9347(4)
H28A H -0.3741 0.5394 0.9544
H29A H -0.4334 0.5696 0.8521
C29A C -0.4293(5) 0.7038(6) 1.0197(6)
H30A H -0.5201 0.6563 1.0096
H31A H -0.3769 0.7388 1.1021
H32A H -0.4266 0.7775 1.0032
loop_
_geom_bond_atom_site_label_1
_geom_bond_atom_site_label_2
_geom_bond_site_symmetry_1
_geom_bond_site_symmetry_2
N1 C1 1_555 1_555
N2 C1 1_555 1_555
N3 C2 1_555 1_555
N4 C3 1_555 1_555
N5 C1 1_555 1_555
N6 C2 1_555 1_555
C2 N2 1_555 1_555
C3 N1 1_555 1_555
C4 N4 1_555 1_555
H1 C4 1_555 1_555
H2 C4 1_555 1_555
C5 C4 1_555 1_555
C6 C5 1_555 1_555
H3 C6 1_555 1_555
C7 C6 1_555 1_555
H4 C7 1_555 1_555
C8 C7 1_555 1_555
H5 C8 1_555 1_555
C9 C8 1_555 1_555
H6 C9 1_555 1_555
C10 C5 1_555 1_555
H7 C10 1_555 1_555
C11 N4 1_555 1_555
H8 C11 1_555 1_555
H9 C11 1_555 1_555
C12 H10 1_555 1_555
C13 C11 1_555 1_555
C14 C13 1_555 1_555
H11 C14 1_555 1_555
C15 C14 1_555 1_555
H12 C15 1_555 1_555
C16 C15 1_555 1_555
H13 C16 1_555 1_555
C17 C12 1_555 1_555
C18 N5 1_555 1_555
H14 C18 1_555 1_555
H15 C18 1_555 1_555
C19 N5 1_555 1_555
H16 C19 1_555 1_555
H17 C19 1_555 1_555
C20 C19 1_555 1_555
C21 C20 1_555 1_555
H18 C21 1_555 1_555
C22 C21 1_555 1_555
H19 C22 1_555 1_555
C23 C22 1_555 1_555
H20 C23 1_555 1_555
C24 C23 1_555 1_555
H21 C24 1_555 1_555
C25 C20 1_555 1_555
H22 C25 1_555 1_555
C26 N6 1_555 1_555
H23 C26 1_555 1_555
H24 C26 1_555 1_555
C27 C26 1_555 1_555
H25 C27 1_555 1_555
H26 C27 1_555 1_555
H27 C27 1_555 1_555
C28 N6 1_555 1_555
H28 C28 1_555 1_555
H29 C28 1_555 1_555
C29 C28 1_555 1_555
H30 C29 1_555 1_555
H31 C29 1_555 1_555
H32 C29 1_555 1_555
N1A C1A 1_555 1_555
N2A C1A 1_555 1_555
N3A C2A 1_555 1_555
N4A C3A 1_555 1_555
N5A C1A 1_555 1_555
N6A C2A 1_555 1_555
C2A N2A 1_555 1_555
C3A N1A 1_555 1_555
C4A N4A 1_555 1_555
H1A C4A 1_555 1_555
H2A C4A 1_555 1_555
C5A C4A 1_555 1_555
C6A C5A 1_555 1_555
H3A C6A 1_555 1_555
C7A C6A 1_555 1_555
H4A C7A 1_555 1_555
C8A C7A 1_555 1_555
H5A C8A 1_555 1_555
C9A C8A 1_555 1_555
H6A C9A 1_555 1_555
C10A C5A 1_555 1_555
H7A C10A 1_555 1_555
C11A N4A 1_555 1_555
H8A C11A 1_555 1_555
H9A C11A 1_555 1_555
C12A H10A 1_555 1_555
C13A C11A 1_555 1_555
C14A C13A 1_555 1_555
H11A C14A 1_555 1_555
C15A C14A 1_555 1_555
H12A C15A 1_555 1_555
C16A C15A 1_555 1_555
H13A C16A 1_555 1_555
C17A C18 1_555 1_555
C18A C17 1_555 1_555
H14A C18A 1_555 1_555
H15A C18A 1_555 1_555
C19A N5A 1_555 1_555
H16A C19A 1_555 1_555
H17A C19A 1_555 1_555
C20A C19A 1_555 1_555
C21A C20A 1_555 1_555
H18A C21A 1_555 1_555
C22A C21A 1_555 1_555
H19A C22A 1_555 1_555
C23A C22A 1_555 1_555
H20A C23A 1_555 1_555
C24A C23A 1_555 1_555
H21A C24A 1_555 1_555
C25A C20A 1_555 1_555
H22A C25A 1_555 1_555
C26A N6A 1_555 1_555
H23A C26A 1_555 1_555
H24A C26A 1_555 1_555
C27A C26A 1_555 1_555
H25A C27A 1_555 1_555
H26A C27A 1_555 1_555
H27A C27A 1_555 1_555
C28A N6A 1_555 1_555
H28A C28A 1_555 1_555
H29A C28A 1_555 1_555
C29A C28A 1_555 1_555
H30A C29A 1_555 1_555
H31A C29A 1_555 1_555
H32A C29A 1_555 1_555
N3 C3 1_555 1_555
C9 C10 1_555 1_555
C12 C13 1_555 1_555
C16 C17 1_555 1_555
C24 C25 1_555 1_555
N3A C3A 1_555 1_555
N5A C18A 1_555 1_555
C9A C10A 1_555 1_555
C12A C13A 1_555 1_555
C12A C17A 1_555 1_555
C16A C17A 1_555 1_555
C24A C25A 1_555 1_555

#END
