
#######################################################################
#
#                 Cambridge Crystallographic Data Centre
#                                CCDC 
#
#######################################################################
#
# If this CIF has been generated from an entry in the Cambridge 
# Structural Database, then it will include bibliographic, chemical, 
# crystal, experimental, refinement or atomic coordinate data resulting 
# from the CCDC's data processing and validation procedures.
#
#######################################################################

data_NAFSAQ
_chemical_name_common            
'13,27-bis(Dimethylamino)homo[4]tetraazacalix[2]arene[2]triazine dimethylsulfoxide solvate'
_chemical_formula_moiety         'C26 H32 N12,2(C2 H6 O1 S1)'
_chemical_name_systematic        
"N,N,N',N'-Tetramethyl-2,10,12,14,16,24,26,28,29,31-decaazapentacyclo[23.3.1.1^4,8^.1^11,15^.1^18,22^]dotriaconta-1(29),4(32),5,7,11(31),12,14,18(30),19,21,25,27-dodecaene-13,27-diamine dimethylsulfoxide solvate"
_symmetry_cell_setting           monoclinic
_symmetry_space_group_name_H-M   'C 2/c'
_symmetry_Int_Tables_number      15
_space_group_name_Hall           '-C 2yn'
loop_
_symmetry_equiv_pos_site_id
_symmetry_equiv_pos_as_xyz
1 x,y,z
2 -x,y,1/2-z
3 1/2+x,1/2+y,z
4 1/2-x,1/2+y,1/2-z
5 -x,-y,-z
6 x,-y,1/2+z
7 1/2-x,1/2-y,-z
8 1/2+x,1/2-y,1/2+z
_cell_length_a                   23.065(5)
_cell_length_b                   8.4644(17)
_cell_length_c                   17.376(4)
_cell_angle_alpha                90
_cell_angle_beta                 98.53(3)
_cell_angle_gamma                90
_cell_volume                     3354.82
_exptl_crystal_colour            colorless
_exptl_crystal_description       block
_cell_formula_units_Z            4
loop_
_atom_site_label
_atom_site_type_symbol
_atom_site_fract_x
_atom_site_fract_y
_atom_site_fract_z
S1 S 0.16522(4) 0.47263(9) 0.13270(4)
O1 O 0.22622(10) 0.5273(3) 0.16416(12)
C14 C 0.12055(17) 0.6443(4) 0.1197(2)
H17 H 0.1149 0.6851 0.1697
H18 H 0.0832 0.6178 0.0904
H19 H 0.1394 0.7229 0.0922
C15 C 0.16708(18) 0.4293(5) 0.03358(18)
H20 H 0.1901 0.3359 0.0297
H21 H 0.1843 0.5164 0.0097
H22 H 0.1279 0.4120 0.0076
N1 N 0.26227(10) 0.4560(3) 0.32860(13)
H1 H 0.2689 0.4719 0.2818
N2 N 0.29349(10) 0.4759(3) 0.46036(12)
N3 N 0.35470(10) 0.5511(3) 0.36610(12)
C1 C 0.33891(13) 0.5162(3) 0.51498(15)
N4 N 0.39137(10) 0.5688(3) 0.50263(12)
N5 N 0.44721(11) 0.6436(3) 0.40965(13)
C2 C 0.30461(12) 0.4958(3) 0.38757(15)
N6 N 0.33001(11) 0.5007(3) 0.59012(12)
H2 H 0.2979 0.4584 0.5996
C3 C 0.39603(12) 0.5859(3) 0.42629(15)
C4 C 0.37251(13) 0.5527(4) 0.65462(15)
H3 H 0.4097 0.5023 0.6507
H4 H 0.3600 0.5169 0.7026
C5 C 0.15687(12) 0.5048(4) 0.33811(15)
C6 C 0.10004(14) 0.4463(4) 0.33539(17)
H5 H 0.0937 0.3377 0.3344
C7 C 0.16482(12) 0.6674(3) 0.34041(14)
H6 H 0.2024 0.7082 0.3420
C8 C 0.20647(13) 0.3886(3) 0.33906(16)
H7 H 0.2113 0.3327 0.3883
H8 H 0.1955 0.3114 0.2982
C9 C 0.49207(13) 0.7073(4) 0.46924(17)
H9 H 0.4811 0.6887 0.5197
H10 H 0.4959 0.8189 0.4614
H11 H 0.5288 0.6564 0.4660
C10 C 0.43803(14) 0.7909(4) 0.66345(17)
H12 H 0.4699 0.7232 0.6644
C11 C 0.38195(12) 0.7294(4) 0.65963(14)
C12 C 0.45633(14) 0.6615(4) 0.32935(16)
H13 H 0.4241 0.6151 0.2957
H14 H 0.4921 0.6096 0.3218
H15 H 0.4589 0.7718 0.3173
C13 C 0.05314(14) 0.5478(4) 0.3342(2)
H16 H 0.0154 0.5074 0.3317
N1F N 0.23773(10) 1.0440(3) 0.67140(13)
H1F H 0.2311 1.0281 0.7182
N2F N 0.20651(10) 1.0241(3) 0.53964(12)
N3F N 0.14530(10) 0.9489(3) 0.63390(12)
C1F C 0.16109(13) 0.9838(3) 0.48502(15)
N4F N 0.10863(10) 0.9312(3) 0.49737(12)
N5F N 0.05279(11) 0.8564(3) 0.59035(13)
C2F C 0.19539(12) 1.0042(3) 0.61243(15)
N6F N 0.16999(11) 0.9993(3) 0.40988(12)
H2F H 0.2021 1.0416 0.4004
C3F C 0.10397(12) 0.9141(3) 0.57371(15)
C4F C 0.12749(13) 0.9473(4) 0.34538(15)
H3F H 0.0903 0.9977 0.3493
H4F H 0.1400 0.9831 0.2974
C5F C 0.34313(12) 0.9952(4) 0.66189(15)
C6F C 0.39996(14) 1.0537(4) 0.66461(17)
H5F H 0.4063 1.1623 0.6656
C7F C 0.33518(12) 0.8326(3) 0.65959(14)
H6F H 0.2976 0.7918 0.6580
C8F C 0.29353(13) 1.1114(3) 0.66094(16)
H7F H 0.2887 1.1673 0.6117
H8F H 0.3045 1.1886 0.7018
C9F C 0.00793(13) 0.7927(4) 0.53076(17)
H9F H 0.0189 0.8113 0.4803
H10F H 0.0041 0.6811 0.5386
H11F H -0.0288 0.8436 0.5340
C10F C 0.06197(14) 0.7091(4) 0.33655(17)
H12F H 0.0301 0.7768 0.3356
C11F C 0.11805(12) 0.7706(4) 0.34037(14)
C12F C 0.04367(14) 0.8385(4) 0.67065(16)
H13F H 0.0759 0.8849 0.7043
H14F H 0.0079 0.8904 0.6782
H15F H 0.0411 0.7282 0.6827
C13F C 0.44686(14) 0.9522(4) 0.6658(2)
H16F H 0.4846 0.9926 0.6683
loop_
_geom_bond_atom_site_label_1
_geom_bond_atom_site_label_2
_geom_bond_site_symmetry_1
_geom_bond_site_symmetry_2
S1 O1 1_555 1_555
N1 H1 1_555 1_555
N2 C1 1_555 1_555
N3 C2 1_555 1_555
C1 N4 1_555 1_555
N4 C3 1_555 1_555
N5 C3 1_555 1_555
C2 N1 1_555 1_555
N6 C1 1_555 1_555
H2 N6 1_555 1_555
C3 N3 1_555 1_555
C4 N6 1_555 1_555
H3 C4 1_555 1_555
H4 C4 1_555 1_555
C5 C6 1_555 1_555
C6 H5 1_555 1_555
C7 C5 1_555 1_555
H6 C7 1_555 1_555
C8 N1 1_555 1_555
H7 C8 1_555 1_555
H8 C8 1_555 1_555
C9 N5 1_555 1_555
H9 C9 1_555 1_555
H10 C9 1_555 1_555
H11 C9 1_555 1_555
C10 H12 1_555 1_555
C11 C4 1_555 1_555
C12 N5 1_555 1_555
H13 C12 1_555 1_555
H14 C12 1_555 1_555
H15 C12 1_555 1_555
C13 C6 1_555 1_555
H16 C13 1_555 1_555
C14 S1 1_555 1_555
H17 C14 1_555 1_555
H18 C14 1_555 1_555
H19 C14 1_555 1_555
C15 S1 1_555 1_555
H20 C15 1_555 1_555
H21 C15 1_555 1_555
H22 C15 1_555 1_555
N1F H1F 1_555 1_555
N2F C1F 1_555 1_555
N3F C2F 1_555 1_555
C1F N4F 1_555 1_555
N4F C3F 1_555 1_555
N5F C3F 1_555 1_555
C2F N1F 1_555 1_555
N6F C1F 1_555 1_555
H2F N6F 1_555 1_555
C3F N3F 1_555 1_555
C4F N6F 1_555 1_555
H3F C4F 1_555 1_555
H4F C4F 1_555 1_555
C5F C6F 1_555 1_555
C6F H5F 1_555 1_555
C7F C11 1_555 1_555
H6F C7F 1_555 1_555
C8F N1F 1_555 1_555
H7F C8F 1_555 1_555
H8F C8F 1_555 1_555
C9F N5F 1_555 1_555
H9F C9F 1_555 1_555
H10F C9F 1_555 1_555
H11F C9F 1_555 1_555
C10F C13 1_555 1_555
H12F C10F 1_555 1_555
C11F C7 1_555 1_555
C12F N5F 1_555 1_555
H13F C12F 1_555 1_555
H14F C12F 1_555 1_555
H15F C12F 1_555 1_555
C13F C10 1_555 1_555
H16F C13F 1_555 1_555
N2 C2 1_555 1_555
C5 C8 1_555 1_555
C10 C11 1_555 1_555
N2F C2F 1_555 1_555
C4F C11F 1_555 1_555
C5F C7F 1_555 1_555
C5F C8F 1_555 1_555
C6F C13F 1_555 1_555
C10F C11F 1_555 1_555

#END
