
#######################################################################
#
#                 Cambridge Crystallographic Data Centre
#                                CCDC 
#
#######################################################################
#
# If this CIF has been generated from an entry in the Cambridge 
# Structural Database, then it will include bibliographic, chemical, 
# crystal, experimental, refinement or atomic coordinate data resulting 
# from the CCDC's data processing and validation procedures.
#
#######################################################################

data_NAFTIY
_chemical_compound_source        'stems of Eremosparton songoricum (Litv) Vass'
_chemical_name_common            7,3'-dihydroxy-4'-methoxyisoflavone
_chemical_formula_moiety         'C16 H12 O5'
_chemical_name_systematic        
7-hydroxy-3-(3-hydroxy-4-methoxyphenyl)-4H-chromen-4-one
_chemical_properties_biological  'antitumour and antioxidant activities'
_symmetry_cell_setting           monoclinic
_symmetry_space_group_name_H-M   'P 21/c'
_symmetry_Int_Tables_number      14
_space_group_name_Hall           '-P 2ybc'
loop_
_symmetry_equiv_pos_site_id
_symmetry_equiv_pos_as_xyz
1 x,y,z
2 x,1/2-y,1/2+z
3 -x,-y,-z
4 -x,1/2+y,1/2-z
_cell_length_a                   9.926(8)
_cell_length_b                   17.091(5)
_cell_length_c                   8.001(4)
_cell_angle_alpha                90.00
_cell_angle_beta                 99.07(3)
_cell_angle_gamma                90.00
_cell_volume                     1340.36
_exptl_crystal_colour            colorless
_exptl_crystal_description       platelet
_cell_formula_units_Z            4
_exptl_crystal_recrystallization_method chloroform/methanol
loop_
_atom_site_label
_atom_site_type_symbol
_atom_site_fract_x
_atom_site_fract_y
_atom_site_fract_z
O1 O 0.80521(5) 0.16449(3) 0.03917(6)
O2 O 0.62627(6) 0.12795(4) 0.76757(6)
O3 O 0.04581(6) 0.20618(3) 0.91176(7)
H1 H -0.0063(11) 0.1840(7) 0.9791(12)
O4 O 0.10124(5) 0.08361(3) 1.12258(6)
O5 O 0.40456(5) 0.16145(3) 0.29653(6)
C1 C 0.54457(7) 0.15682(4) 0.31425(9)
C2 C 0.60123(8) 0.16332(4) 0.16626(9)
H2 H 0.5400(7) 0.1690(4) 0.0637(8)
C3 C 0.74138(8) 0.16024(4) 0.17779(9)
C4 C 0.82496(8) 0.15255(5) 0.33656(10)
H3 H 0.9225(9) 0.1516(5) 0.3380(9)
C5 C 0.76758(8) 0.14610(5) 0.48044(9)
H4 H 0.8302(8) 0.1409(4) 0.5928(9)
C6 C 0.62425(7) 0.14678(4) 0.47360(9)
C7 C 0.55903(8) 0.13627(4) 0.62336(9)
C8 C 0.41033(8) 0.13594(4) 0.59369(9)
C9 C 0.34443(8) 0.15017(5) 0.43633(10)
H5 H 0.2512(8) 0.1549(4) 0.4049(9)
C10 C 0.33091(8) 0.12102(4) 0.73405(9)
C11 C 0.35971(8) 0.05654(5) 0.83931(10)
H6 H 0.4350(8) 0.0213(5) 0.8194(9)
C12 C 0.28458(9) 0.04080(4) 0.96874(10)
H7 H 0.3068(8) -0.0025(4) 1.0408(9)
C13 C 0.18035(8) 0.09082(4) 0.99566(9)
C14 C 0.14854(8) 0.15552(4) 0.88907(9)
C15 C 0.22354(8) 0.17019(4) 0.76078(9)
H8 H 0.1967(7) 0.2141(4) 0.6838(8)
C16 C 0.11402(10) 0.01223(5) 1.21807(11)
H9 H 0.2036(9) 0.0105(5) 1.2957(11)
H10 H 0.0963(9) -0.0369(6) 1.1416(10)
H11 H 0.0468(11) 0.0156(6) 1.2901(12)
H12 H 0.7379(11) 0.1557(6) -0.0587(12)
loop_
_geom_bond_atom_site_label_1
_geom_bond_atom_site_label_2
_geom_bond_site_symmetry_1
_geom_bond_site_symmetry_2
O1 C3 1_555 1_555
O2 C7 1_555 1_555
O3 H1 1_555 1_555
O4 C13 1_555 1_555
O5 C1 1_555 1_555
C1 C2 1_555 1_555
C2 H2 1_555 1_555
C3 C2 1_555 1_555
C4 C3 1_555 1_555
H3 C4 1_555 1_555
C5 C4 1_555 1_555
H4 C5 1_555 1_555
C6 C1 1_555 1_555
C7 C6 1_555 1_555
C8 C7 1_555 1_555
C9 O5 1_555 1_555
H5 C9 1_555 1_555
C10 C8 1_555 1_555
C11 C10 1_555 1_555
H6 C11 1_555 1_555
C12 C11 1_555 1_555
H7 C12 1_555 1_555
C13 C12 1_555 1_555
C14 O3 1_555 1_555
C15 C10 1_555 1_555
H8 C15 1_555 1_555
C16 O4 1_555 1_555
H9 C16 1_555 1_555
H10 C16 1_555 1_555
H11 C16 1_555 1_555
H12 O1 1_555 1_555
C5 C6 1_555 1_555
C8 C9 1_555 1_555
C13 C14 1_555 1_555
C14 C15 1_555 1_555

#END
