
#######################################################################
#
#                 Cambridge Crystallographic Data Centre
#                                CCDC 
#
#######################################################################
#
# If this CIF has been generated from an entry in the Cambridge 
# Structural Database, then it will include bibliographic, chemical, 
# crystal, experimental, refinement or atomic coordinate data resulting 
# from the CCDC's data processing and validation procedures.
#
#######################################################################

data_NAGPOC
_chemical_formula_moiety         'C16 H26 N1 O2 P1'
_chemical_name_systematic        
'2-Isopropyl-5-methylcyclohexyl P-phenylphosphonamidate'
_symmetry_cell_setting           monoclinic
_symmetry_space_group_name_H-M   'P 21'
_symmetry_Int_Tables_number      4
_space_group_name_Hall           'P 2yb'
loop_
_symmetry_equiv_pos_site_id
_symmetry_equiv_pos_as_xyz
1 x,y,z
2 -x,1/2+y,-z
_cell_length_a                   8.6140(10)
_cell_length_b                   5.7613(7)
_cell_length_c                   16.5693(19)
_cell_angle_alpha                90
_cell_angle_beta                 93.186(2)
_cell_angle_gamma                90
_cell_volume                     821.028
_exptl_crystal_colour            colorless
_exptl_crystal_description       rectangular
_cell_formula_units_Z            2
loop_
_atom_site_label
_atom_site_type_symbol
_atom_site_fract_x
_atom_site_fract_y
_atom_site_fract_z
C1 C 0.81475(17) 0.2883(4) 0.61453(8)
C2 C 0.8826(2) 0.0918(4) 0.58203(12)
H1 H 0.8200 -0.0337 0.5641
C3 C 1.0430(3) 0.0816(6) 0.57611(14)
H2 H 1.0885 -0.0506 0.5540
C4 C 1.1339(2) 0.2622(8) 0.60217(14)
H3 H 1.2423 0.2531 0.5988
C5 C 1.0682(3) 0.4600(7) 0.63363(14)
H4 H 1.1323 0.5848 0.6505
C6 C 0.9075(2) 0.4753(4) 0.64043(12)
H5 H 0.8629 0.6090 0.6620
C7 C 0.60272(17) 0.1164(3) 0.76933(8)
H6 H 0.6741 0.0055 0.7447
C8 C 0.44403(19) 0.0029(3) 0.77439(9)
H7 H 0.4059 -0.0465 0.7203
H8 H 0.3704 0.1166 0.7941
C9 C 0.45148(19) -0.2064(4) 0.83073(9)
H9 H 0.5243 -0.3204 0.8090
C10 C 0.5175(2) -0.1304(3) 0.91381(10)
H10 H 0.4458 -0.0201 0.9372
H11 H 0.5267 -0.2657 0.9496
C11 C 0.6753(2) -0.0178(4) 0.90875(10)
H12 H 0.7488 -0.1332 0.8901
H13 H 0.7125 0.0323 0.9629
C12 C 0.67340(18) 0.1918(3) 0.85171(9)
H14 H 0.6021 0.3081 0.8735
C13 C 0.83403(18) 0.3087(4) 0.84831(9)
H15 H 0.8232 0.4368 0.8086
C14 C 0.9608(2) 0.1471(4) 0.82069(13)
H16 H 1.0559 0.2345 0.8153
H17 H 0.9280 0.0794 0.7689
H18 H 0.9790 0.0246 0.8602
C15 C 0.8860(3) 0.4161(4) 0.93003(12)
H19 H 0.9190 0.2941 0.9675
H20 H 0.7999 0.5005 0.9514
H21 H 0.9718 0.5218 0.9229
C16 C 0.2946(3) -0.3241(4) 0.83588(13)
H22 H 0.3061 -0.4612 0.8697
H23 H 0.2553 -0.3689 0.7821
H24 H 0.2222 -0.2176 0.8591
N1 N 0.53098(19) 0.5350(3) 0.58829(9)
O1 O 0.58498(12) 0.3219(2) 0.71740(6)
O2 O 0.53723(15) 0.0847(2) 0.58574(7)
P1 P 0.60790(4) 0.29479(6) 0.623180(18)
loop_
_geom_bond_atom_site_label_1
_geom_bond_atom_site_label_2
_geom_bond_site_symmetry_1
_geom_bond_site_symmetry_2
C1 C2 1_555 1_555
C2 H1 1_555 1_555
C3 C2 1_555 1_555
H2 C3 1_555 1_555
C4 C3 1_555 1_555
H3 C4 1_555 1_555
C5 C4 1_555 1_555
H4 C5 1_555 1_555
C6 C1 1_555 1_555
H5 C6 1_555 1_555
C7 H6 1_555 1_555
C8 C7 1_555 1_555
H7 C8 1_555 1_555
H8 C8 1_555 1_555
C9 C8 1_555 1_555
H9 C9 1_555 1_555
C10 C9 1_555 1_555
H10 C10 1_555 1_555
H11 C10 1_555 1_555
C11 C10 1_555 1_555
H12 C11 1_555 1_555
H13 C11 1_555 1_555
C12 C7 1_555 1_555
H14 C12 1_555 1_555
C13 C12 1_555 1_555
H15 C13 1_555 1_555
C14 C13 1_555 1_555
H16 C14 1_555 1_555
H17 C14 1_555 1_555
H18 C14 1_555 1_555
C15 C13 1_555 1_555
H19 C15 1_555 1_555
H20 C15 1_555 1_555
H21 C15 1_555 1_555
C16 C9 1_555 1_555
H22 C16 1_555 1_555
H23 C16 1_555 1_555
H24 C16 1_555 1_555
N1 P1 1_555 1_555
O1 C7 1_555 1_555
O2 P1 1_555 1_555
P1 C1 1_555 1_555
C5 C6 1_555 1_555
C11 C12 1_555 1_555
O1 P1 1_555 1_555

#END
