
#######################################################################
#
#                 Cambridge Crystallographic Data Centre
#                                CCDC 
#
#######################################################################
#
# If this CIF has been generated from an entry in the Cambridge 
# Structural Database, then it will include bibliographic, chemical, 
# crystal, experimental, refinement or atomic coordinate data resulting 
# from the CCDC's data processing and validation procedures.
#
#######################################################################

data_NAGPIX
_chemical_formula_moiety         'C33 H29 Cl2 F1'
_chemical_name_systematic        
((1E,4E)-1-(3,5-Dichloro-4-fluorophenyl)-6,6-dimethylhepta-1,4-diene-1,2,3-triyl)tribenzene
_symmetry_cell_setting           monoclinic
_symmetry_space_group_name_H-M   'P 21/n'
_symmetry_Int_Tables_number      14
_space_group_name_Hall           '-P 2yn'
loop_
_symmetry_equiv_pos_site_id
_symmetry_equiv_pos_as_xyz
1 x,y,z
2 1/2-x,1/2+y,1/2-z
3 -x,-y,-z
4 1/2+x,1/2-y,1/2+z
_cell_length_a                   9.5553(11)
_cell_length_b                   27.755(3)
_cell_length_c                   10.9004(13)
_cell_angle_alpha                90
_cell_angle_beta                 105.431(2)
_cell_angle_gamma                90
_cell_volume                     2786.66
_exptl_crystal_colour            colorless
_exptl_crystal_description       block
_cell_formula_units_Z            4
_exptl_crystal_recrystallization_method methanol
loop_
_atom_site_label
_atom_site_type_symbol
_atom_site_fract_x
_atom_site_fract_y
_atom_site_fract_z
F1 F 0.66397(16) 0.01142(5) 0.46829(13)
C1 C 0.5778(2) 0.02919(8) 0.2501(2)
C2 C 0.5839(2) 0.03928(8) 0.3755(2)
C3 C 0.5101(3) 0.07794(9) 0.4054(2)
C4 C 0.4279(2) 0.10622(8) 0.3093(2)
H1 H 0.3764 0.1321 0.3297
C5 C 0.4202(2) 0.09699(8) 0.1827(2)
C6 C 0.4978(2) 0.05822(8) 0.1547(2)
H2 H 0.4958 0.0518 0.0705
C7 C 0.3363(2) 0.13038(8) 0.08222(19)
C8 C 0.4264(2) 0.15688(8) 0.0123(2)
C9 C 0.5560(3) 0.17799(9) 0.0758(3)
H3 H 0.5864 0.1763 0.1641
C10 C 0.6417(3) 0.20168(11) 0.0109(4)
H4 H 0.7277 0.2164 0.0551
C11 C 0.5983(4) 0.20320(12) -0.1199(4)
H5 H 0.6556 0.2188 -0.1645
C12 C 0.4714(4) 0.18196(12) -0.1845(3)
H6 H 0.4426 0.1830 -0.2729
C13 C 0.3861(3) 0.15909(9) -0.1191(2)
H7 H 0.2996 0.1448 -0.1641
C14 C 0.1923(2) 0.13585(7) 0.06034(18)
C15 C 0.1135(2) 0.17709(8) -0.0164(2)
C16 C 0.1298(3) 0.22239(9) 0.0372(2)
H8 H 0.1900 0.2265 0.1189
C17 C 0.0586(3) 0.26180(9) -0.0280(3)
H9 H 0.0710 0.2921 0.0096
C18 C -0.0305(3) 0.25594(10) -0.1485(3)
H10 H -0.0782 0.2824 -0.1931
C19 C -0.0489(3) 0.21162(10) -0.2023(2)
H11 H -0.1095 0.2078 -0.2839
C20 C 0.0210(3) 0.17234(9) -0.1373(2)
H12 H 0.0061 0.1421 -0.1751
C21 C 0.1002(2) 0.10170(7) 0.11645(19)
H13 H 0.1651 0.0762 0.1610
C22 C -0.0123(2) 0.07760(8) 0.0084(2)
C23 C 0.0365(3) 0.04955(8) -0.0770(2)
H14 H 0.1358 0.0455 -0.0656
C24 C -0.0592(3) 0.02751(9) -0.1785(2)
H15 H -0.0243 0.0090 -0.2350
C25 C -0.2050(3) 0.03286(10) -0.1961(3)
H16 H -0.2698 0.0182 -0.2649
C26 C -0.2554(3) 0.05983(11) -0.1122(3)
H17 H -0.3548 0.0633 -0.1238
C27 C -0.1597(3) 0.08210(9) -0.0100(2)
H18 H -0.1954 0.1003 0.0467
C28 C 0.0378(2) 0.12568(8) 0.2132(2)
H19 H -0.0225 0.1522 0.1877
C29 C 0.0634(3) 0.11146(9) 0.3314(2)
H20 H 0.1231 0.0846 0.3526
C30 C 0.0103(3) 0.13222(12) 0.4379(2)
C31 C 0.1381(4) 0.15527(14) 0.5327(3)
H21 H 0.1735 0.1818 0.4930
H22 H 0.2140 0.1319 0.5604
H23 H 0.1078 0.1667 0.6046
C32 C -0.0456(5) 0.09104(17) 0.5039(4)
H24 H -0.1271 0.0761 0.4452
H25 H -0.0750 0.1033 0.5755
H26 H 0.0301 0.0677 0.5326
C33 C -0.1050(4) 0.16945(18) 0.3914(3)
H27 H -0.0668 0.1952 0.3511
H28 H -0.1358 0.1820 0.4621
H29 H -0.1863 0.1551 0.3313
Cl1 Cl 0.67103(9) -0.01979(3) 0.21643(7)
Cl2 Cl 0.52504(9) 0.09166(3) 0.56189(6)
loop_
_geom_bond_atom_site_label_1
_geom_bond_atom_site_label_2
_geom_bond_site_symmetry_1
_geom_bond_site_symmetry_2
F1 C2 1_555 1_555
C1 C2 1_555 1_555
C2 C3 1_555 1_555
C3 C4 1_555 1_555
C4 H1 1_555 1_555
C5 C4 1_555 1_555
C6 C1 1_555 1_555
H2 C6 1_555 1_555
C7 C5 1_555 1_555
C8 C7 1_555 1_555
C9 C8 1_555 1_555
H3 C9 1_555 1_555
C10 C9 1_555 1_555
H4 C10 1_555 1_555
C11 C10 1_555 1_555
H5 C11 1_555 1_555
C12 C11 1_555 1_555
H6 C12 1_555 1_555
C13 C8 1_555 1_555
H7 C13 1_555 1_555
C14 C7 1_555 1_555
C15 C14 1_555 1_555
C16 C15 1_555 1_555
H8 C16 1_555 1_555
C17 C16 1_555 1_555
H9 C17 1_555 1_555
C18 C17 1_555 1_555
H10 C18 1_555 1_555
C19 C18 1_555 1_555
H11 C19 1_555 1_555
C20 C15 1_555 1_555
H12 C20 1_555 1_555
C21 C14 1_555 1_555
H13 C21 1_555 1_555
C22 C21 1_555 1_555
C23 C22 1_555 1_555
H14 C23 1_555 1_555
C24 C23 1_555 1_555
H15 C24 1_555 1_555
C25 C24 1_555 1_555
H16 C25 1_555 1_555
C26 C25 1_555 1_555
H17 C26 1_555 1_555
C27 C22 1_555 1_555
H18 C27 1_555 1_555
C28 C21 1_555 1_555
H19 C28 1_555 1_555
C29 C28 1_555 1_555
H20 C29 1_555 1_555
C30 C29 1_555 1_555
C31 C30 1_555 1_555
H21 C31 1_555 1_555
H22 C31 1_555 1_555
H23 C31 1_555 1_555
C32 C30 1_555 1_555
H24 C32 1_555 1_555
H25 C32 1_555 1_555
H26 C32 1_555 1_555
C33 C30 1_555 1_555
H27 C33 1_555 1_555
H28 C33 1_555 1_555
H29 C33 1_555 1_555
Cl1 C1 1_555 1_555
Cl2 C3 1_555 1_555
C5 C6 1_555 1_555
C12 C13 1_555 1_555
C19 C20 1_555 1_555
C26 C27 1_555 1_555

#END
