
#######################################################################
#
#                 Cambridge Crystallographic Data Centre
#                                CCDC 
#
#######################################################################
#
# If this CIF has been generated from an entry in the Cambridge 
# Structural Database, then it will include bibliographic, chemical, 
# crystal, experimental, refinement or atomic coordinate data resulting 
# from the CCDC's data processing and validation procedures.
#
#######################################################################

data_NAGVID
_chemical_name_common            
"N,N,N',N',N'',N'',N''',N'''-octamethyl(but-2-yne)bisamidinium bis(tetraphenylborate)"
_chemical_formula_moiety         '2(C24 H20 B1 1-),C12 H24 N4 2+'
_chemical_name_systematic        
"1,4-bis(dimethylamino)-N,N,N',N'-tetramethylbut-2-yne-1,4-diiminium bis(tetraphenylborate)"
_symmetry_cell_setting           monoclinic
_symmetry_space_group_name_H-M   'P 21/n'
_symmetry_Int_Tables_number      14
_space_group_name_Hall           '-P 2yn'
loop_
_symmetry_equiv_pos_site_id
_symmetry_equiv_pos_as_xyz
1 x,y,z
2 1/2-x,1/2+y,1/2-z
3 -x,-y,-z
4 1/2+x,1/2-y,1/2+z
_cell_length_a                   13.8527(5)
_cell_length_b                   10.4892(4)
_cell_length_c                   16.7462(6)
_cell_angle_alpha                90
_cell_angle_beta                 103.034(2)
_cell_angle_gamma                90
_cell_volume                     2370.6
_exptl_crystal_colour            yellow
_exptl_crystal_description       block
_cell_formula_units_Z            2
_exptl_crystal_recrystallization_method acetonitrile
loop_
_atom_site_label
_atom_site_type_symbol
_atom_site_fract_x
_atom_site_fract_y
_atom_site_fract_z
N1 N 0.35927(6) 0.47150(8) 0.10360(5)
C1 C 0.36503(6) 0.50484(8) 0.02850(5)
N2 N 0.28770(5) 0.54206(8) -0.02893(5)
C2 C 0.46046(7) 0.50074(9) 0.00825(5)
C3 C 0.44900(7) 0.46323(11) 0.16970(6)
H1 H 0.4792 0.3789 0.1688
H2 H 0.4315 0.4763 0.2226
H3 H 0.4962 0.5290 0.1618
C4 C 0.26820(7) 0.41956(11) 0.12146(6)
H4 H 0.2361 0.4851 0.1482
H5 H 0.2844 0.3458 0.1579
H6 H 0.2232 0.3931 0.0702
C5 C 0.29145(7) 0.53857(11) -0.11567(6)
H7 H 0.3159 0.6204 -0.1312
H8 H 0.2249 0.5228 -0.1492
H9 H 0.3361 0.4702 -0.1246
C6 C 0.20340(7) 0.60966(10) -0.00906(6)
H10 H 0.1480 0.5503 -0.0124
H11 H 0.1831 0.6795 -0.0481
H12 H 0.2228 0.6444 0.0466
N1B N 0.64073(6) 0.52850(8) -0.10360(5)
C1B C 0.63497(6) 0.49516(8) -0.02850(5)
N2B N 0.71230(5) 0.45794(8) 0.02893(5)
C2B C 0.53954(7) 0.49926(9) -0.00825(5)
C3B C 0.55100(7) 0.53677(11) -0.16970(6)
H1B H 0.5208 0.6211 -0.1688
H2B H 0.5685 0.5237 -0.2226
H3B H 0.5038 0.4710 -0.1618
C4B C 0.73180(7) 0.58044(11) -0.12146(6)
H4B H 0.7639 0.5149 -0.1482
H5B H 0.7156 0.6542 -0.1579
H6B H 0.7768 0.6069 -0.0702
C5B C 0.70855(7) 0.46143(11) 0.11567(6)
H7B H 0.6841 0.3796 0.1312
H8B H 0.7751 0.4772 0.1492
H9B H 0.6639 0.5298 0.1246
C6B C 0.79660(7) 0.39034(10) 0.00906(6)
H10B H 0.8520 0.4497 0.0124
H11B H 0.8169 0.3205 0.0481
H12B H 0.7772 0.3556 -0.0466
B1 B 0.48759(7) 0.85310(10) 0.22798(6)
C7 C 0.51523(7) 0.83135(9) 0.13802(5)
C8 C 0.44148(7) 0.82171(9) 0.06504(6)
H13 H 0.3741 0.8182 0.0688
C9 C 0.46258(7) 0.81705(9) -0.01235(6)
H14 H 0.4099 0.8123 -0.0597
C10 C 0.55982(8) 0.81925(10) -0.02087(6)
H15 H 0.5745 0.8168 -0.0736
C11 C 0.63533(7) 0.82504(10) 0.04943(6)
H16 H 0.7025 0.8245 0.0450
C12 C 0.61303(7) 0.83171(10) 0.12652(6)
H17 H 0.6662 0.8367 0.1735
C13 C 0.36643(6) 0.86150(9) 0.21106(5)
C14 C 0.31746(7) 0.97595(9) 0.18302(6)
H18 H 0.3559 1.0508 0.1825
C15 C 0.21492(7) 0.98402(9) 0.15596(6)
H19 H 0.1850 1.0629 0.1363
C16 C 0.15618(7) 0.87675(10) 0.15760(6)
H20 H 0.0862 0.8815 0.1390
C17 C 0.20162(7) 0.76264(10) 0.18688(6)
H21 H 0.1625 0.6890 0.1895
C18 C 0.30466(6) 0.75586(9) 0.21241(5)
H22 H 0.3341 0.6765 0.2315
C19 C 0.53348(6) 0.74262(8) 0.29627(5)
C20 C 0.62028(7) 0.67306(9) 0.29618(6)
H23 H 0.6510 0.6835 0.2513
C21 C 0.66342(7) 0.58937(9) 0.35897(6)
H24 H 0.7224 0.5451 0.3562
C22 C 0.62051(7) 0.57050(9) 0.42547(6)
H25 H 0.6501 0.5147 0.4688
C23 C 0.53331(7) 0.63495(9) 0.42726(6)
H26 H 0.5021 0.6221 0.4716
C24 C 0.49160(6) 0.71839(9) 0.36407(5)
H27 H 0.4320 0.7611 0.3669
C25 C 0.53179(6) 0.99115(9) 0.26813(6)
C26 C 0.51539(7) 1.02990(9) 0.34439(6)
H28 H 0.4804 0.9740 0.3725
C27 C 0.54799(8) 1.14631(10) 0.38057(7)
H29 H 0.5351 1.1683 0.4322
C28 C 0.59942(8) 1.23028(10) 0.34106(8)
H30 H 0.6223 1.3097 0.3654
C29 C 0.61661(8) 1.19598(10) 0.26577(7)
H31 H 0.6518 1.2524 0.2382
C30 C 0.58281(7) 1.07926(10) 0.22980(6)
H32 H 0.5948 1.0588 0.1776
loop_
_geom_bond_atom_site_label_1
_geom_bond_atom_site_label_2
_geom_bond_site_symmetry_1
_geom_bond_site_symmetry_2
N1 C1 1_555 1_555
C1 N2 1_555 1_555
N2 C5 1_555 1_555
C2 C1 1_555 1_555
C3 N1 1_555 1_555
H1 C3 1_555 1_555
H2 C3 1_555 1_555
H3 C3 1_555 1_555
C4 N1 1_555 1_555
H4 C4 1_555 1_555
H5 C4 1_555 1_555
H6 C4 1_555 1_555
C5 H7 1_555 1_555
H8 C5 1_555 1_555
H9 C5 1_555 1_555
C6 N2 1_555 1_555
H10 C6 1_555 1_555
H11 C6 1_555 1_555
H12 C6 1_555 1_555
B1 C7 1_555 1_555
C7 C8 1_555 1_555
C8 H13 1_555 1_555
C9 C8 1_555 1_555
H14 C9 1_555 1_555
C10 C9 1_555 1_555
H15 C10 1_555 1_555
C11 C10 1_555 1_555
H16 C11 1_555 1_555
C12 C7 1_555 1_555
H17 C12 1_555 1_555
C13 B1 1_555 1_555
C14 C13 1_555 1_555
H18 C14 1_555 1_555
C15 C14 1_555 1_555
H19 C15 1_555 1_555
C16 C15 1_555 1_555
H20 C16 1_555 1_555
C17 C16 1_555 1_555
H21 C17 1_555 1_555
C18 C13 1_555 1_555
H22 C18 1_555 1_555
C19 B1 1_555 1_555
C20 C19 1_555 1_555
H23 C20 1_555 1_555
C21 C20 1_555 1_555
H24 C21 1_555 1_555
C22 C21 1_555 1_555
H25 C22 1_555 1_555
C23 C22 1_555 1_555
H26 C23 1_555 1_555
C24 C19 1_555 1_555
H27 C24 1_555 1_555
C25 B1 1_555 1_555
C26 C25 1_555 1_555
H28 C26 1_555 1_555
C27 C26 1_555 1_555
H29 C27 1_555 1_555
C28 C27 1_555 1_555
H30 C28 1_555 1_555
C29 C28 1_555 1_555
H31 C29 1_555 1_555
C30 C25 1_555 1_555
H32 C30 1_555 1_555
N1B C1B 1_555 1_555
C1B N2B 1_555 1_555
N2B C5B 1_555 1_555
C2B C2 1_555 1_555
C3B N1B 1_555 1_555
H1B C3B 1_555 1_555
H2B C3B 1_555 1_555
H3B C3B 1_555 1_555
C4B N1B 1_555 1_555
H4B C4B 1_555 1_555
H5B C4B 1_555 1_555
H6B C4B 1_555 1_555
C5B H7B 1_555 1_555
H8B C5B 1_555 1_555
H9B C5B 1_555 1_555
C6B N2B 1_555 1_555
H10B C6B 1_555 1_555
H11B C6B 1_555 1_555
H12B C6B 1_555 1_555
C11 C12 1_555 1_555
C17 C18 1_555 1_555
C23 C24 1_555 1_555
C29 C30 1_555 1_555
C1B C2B 1_555 1_555

#END
