
#######################################################################
#
#                 Cambridge Crystallographic Data Centre
#                                CCDC 
#
#######################################################################
#
# If this CIF has been generated from an entry in the Cambridge 
# Structural Database, then it will include bibliographic, chemical, 
# crystal, experimental, refinement or atomic coordinate data resulting 
# from the CCDC's data processing and validation procedures.
#
#######################################################################

data_NAGZED
_chemical_formula_moiety         'C36 H40 Cl2 N4 Na2 O16,C1 H2 Cl2'
_chemical_name_systematic        
"bis(\m-2,2'-(ethane-1,2-diylbis(iminiomethylylidene))bis(6-methoxyphenolato))-bis(perchlorato)-di-sodium dichloromethane solvate"
_symmetry_cell_setting           triclinic
_symmetry_space_group_name_H-M   'P -1'
_symmetry_Int_Tables_number      2
_space_group_name_Hall           '-P 1'
loop_
_symmetry_equiv_pos_site_id
_symmetry_equiv_pos_as_xyz
1 x,y,z
2 -x,-y,-z
_cell_length_a                   9.998(2)
_cell_length_b                   10.943(2)
_cell_length_c                   11.469(2)
_cell_angle_alpha                83.47(3)
_cell_angle_beta                 73.97(3)
_cell_angle_gamma                80.44(3)
_cell_volume                     1186.21
_exptl_crystal_colour            yellow
_exptl_crystal_description       block
_cell_formula_units_Z            1
loop_
_atom_site_label
_atom_site_type_symbol
_atom_site_fract_x
_atom_site_fract_y
_atom_site_fract_z
C1 C 0.0831(4) 1.1404(4) 0.0358(4)
C2 C 0.0637(5) 1.1839(4) 0.1504(4)
C3 C -0.0405(6) 1.2805(6) 0.1897(6)
H1 H -0.0546 1.3095 0.2659
C4 C -0.1247(7) 1.3341(7) 0.1135(7)
H2 H -0.1958 1.3989 0.1405
C5 C -0.1065(6) 1.2954(6) 0.0020(6)
H3 H -0.1639 1.3335 -0.0471
C6 C -0.0005(4) 1.1973(5) -0.0392(5)
C7 C 0.0259(5) 1.1580(5) -0.1625(4)
H4 H -0.0310 1.1971 -0.2116
C8 C 0.1506(5) 1.0361(6) -0.3280(4)
H5 H 0.0984 1.0964 -0.3737
H6 H 0.1205 0.9559 -0.3261
C9 C 0.3070(5) 1.0286(5) -0.3884(4)
H7 H 0.3278 0.9981 -0.4686
H8 H 0.3350 1.1106 -0.3978
C10 C 0.4298(5) 0.8291(5) -0.3259(4)
H9 H 0.4176 0.7932 -0.3912
C11 C 0.4964(4) 0.7543(4) -0.2441(4)
C12 C 0.5478(6) 0.6250(5) -0.2637(5)
H10 H 0.5380 0.5913 -0.3313
C13 C 0.6109(6) 0.5516(5) -0.1834(6)
H11 H 0.6451 0.4686 -0.1972
C14 C 0.6239(5) 0.6007(4) -0.0815(5)
H12 H 0.6674 0.5497 -0.0281
C15 C 0.5750(4) 0.7214(4) -0.0572(4)
C16 C 0.5115(4) 0.8036(4) -0.1394(3)
C17 C 0.6450(5) 0.7057(5) 0.1269(5)
H13 H 0.6004 0.6327 0.1551
H14 H 0.6353 0.7537 0.1946
H15 H 0.7429 0.6818 0.0892
C18 C 0.1491(5) 1.1674(6) 0.3278(4)
H16 H 0.1580 1.2543 0.3143
H17 H 0.2246 1.1237 0.3594
H18 H 0.0609 1.1566 0.3852
Cl1 Cl 0.29617(11) 0.79447(10) 0.35947(9)
N1 N 0.1231(4) 1.0731(4) -0.2040(3)
H19 H 0.1604 1.0669 -0.1406
N2 N 0.3855(4) 0.9447(4) -0.3136(3)
H20 H 0.4114 0.9561 -0.2465
Na1 Na 0.36143(15) 0.96175(15) 0.09712(14)
O1 O 0.1814(3) 1.0431(3) 0.0024(3)
O2 O 0.1547(3) 1.1197(3) 0.2162(3)
O3 O 0.4677(3) 0.9204(2) -0.1171(2)
O4 O 0.5803(3) 0.7785(3) 0.0407(3)
O5 O 0.1738(5) 0.8320(5) 0.4463(4)
O6 O 0.3663(6) 0.6835(5) 0.4001(5)
O7 O 0.2719(4) 0.7775(5) 0.2448(4)
O8 O 0.3885(5) 0.8859(5) 0.3358(4)
C1A C 0.9169(4) 0.8596(4) -0.0358(4)
C2A C 0.9363(5) 0.8161(4) -0.1504(4)
C3A C 1.0405(6) 0.7195(6) -0.1897(6)
H1A H 1.0546 0.6905 -0.2659
C4A C 1.1247(7) 0.6659(7) -0.1135(7)
H2A H 1.1958 0.6011 -0.1405
C5A C 1.1065(6) 0.7046(6) -0.0020(6)
H3A H 1.1639 0.6665 0.0471
C6A C 1.0005(4) 0.8027(5) 0.0392(5)
C7A C 0.9741(5) 0.8420(5) 0.1625(4)
H4A H 1.0310 0.8029 0.2116
C8A C 0.8494(5) 0.9639(6) 0.3280(4)
H5A H 0.9016 0.9036 0.3737
H6A H 0.8795 1.0441 0.3261
C9A C 0.6930(5) 0.9714(5) 0.3884(4)
H7A H 0.6722 1.0019 0.4686
H8A H 0.6650 0.8894 0.3978
C10A C 0.5702(5) 1.1709(5) 0.3259(4)
H9A H 0.5824 1.2068 0.3912
C11A C 0.5036(4) 1.2457(4) 0.2441(4)
C12A C 0.4522(6) 1.3750(5) 0.2637(5)
H10A H 0.4620 1.4087 0.3313
C13A C 0.3891(6) 1.4484(5) 0.1834(6)
H11A H 0.3549 1.5314 0.1972
C14A C 0.3761(5) 1.3993(4) 0.0815(5)
H12A H 0.3326 1.4503 0.0281
C15A C 0.4250(4) 1.2786(4) 0.0572(4)
C16A C 0.4885(4) 1.1964(4) 0.1394(3)
C17A C 0.3550(5) 1.2943(5) -0.1269(5)
H13A H 0.3996 1.3673 -0.1551
H14A H 0.3647 1.2463 -0.1946
H15A H 0.2571 1.3182 -0.0892
C18A C 0.8509(5) 0.8326(6) -0.3278(4)
H16A H 0.8420 0.7457 -0.3143
H17A H 0.7754 0.8763 -0.3594
H18A H 0.9391 0.8434 -0.3852
Cl1A Cl 0.70383(11) 1.20553(10) -0.35947(9)
N1A N 0.8769(4) 0.9269(4) 0.2040(3)
H19A H 0.8396 0.9331 0.1406
N2A N 0.6145(4) 1.0553(4) 0.3136(3)
H20A H 0.5886 1.0439 0.2465
Na1A Na 0.63857(15) 1.03825(15) -0.09712(14)
O1A O 0.8186(3) 0.9569(3) -0.0024(3)
O2A O 0.8453(3) 0.8803(3) -0.2162(3)
O3A O 0.5323(3) 1.0796(2) 0.1171(2)
O4A O 0.4197(3) 1.2215(3) -0.0407(3)
O5A O 0.8262(5) 1.1680(5) -0.4463(4)
O6A O 0.6337(6) 1.3165(5) -0.4001(5)
O7A O 0.7281(4) 1.2225(5) -0.2448(4)
O8A O 0.6115(5) 1.1141(5) -0.3358(4)
C19 C 0.1745(19) 0.4663(17) 0.5499(16)
H21 H 0.1608 0.5564 0.5460
H22 H 0.1936 0.4427 0.4673
Cl2 Cl 0.0324(8) 0.4231(8) 0.6225(9)
Cl3 Cl 0.3205(7) 0.4162(6) 0.5975(4)
loop_
_geom_bond_atom_site_label_1
_geom_bond_atom_site_label_2
_geom_bond_site_symmetry_1
_geom_bond_site_symmetry_2
C1 C2 1_555 1_555
C2 C3 1_555 1_555
C3 H1 1_555 1_555
C4 C3 1_555 1_555
H2 C4 1_555 1_555
C5 C4 1_555 1_555
H3 C5 1_555 1_555
C6 C1 1_555 1_555
C7 C6 1_555 1_555
H4 C7 1_555 1_555
C8 H5 1_555 1_555
H6 C8 1_555 1_555
C9 C8 1_555 1_555
H7 C9 1_555 1_555
H8 C9 1_555 1_555
C10 H9 1_555 1_555
C11 C10 1_555 1_555
C12 C11 1_555 1_555
H10 C12 1_555 1_555
C13 C12 1_555 1_555
H11 C13 1_555 1_555
C14 C13 1_555 1_555
H12 C14 1_555 1_555
C15 C14 1_555 1_555
C16 C11 1_555 1_555
C17 H13 1_555 1_555
H14 C17 1_555 1_555
H15 C17 1_555 1_555
C18 H16 1_555 1_555
H17 C18 1_555 1_555
H18 C18 1_555 1_555
Cl1 O5 1_555 1_555
N1 C7 1_555 1_555
H19 N1 1_555 1_555
N2 C9 1_555 1_555
H20 N2 1_555 1_555
Na1 O1 1_555 1_555
O1 C1 1_555 1_555
O2 C2 1_555 1_555
O3 C16 1_555 1_555
O4 C15 1_555 1_555
O6 Cl1 1_555 1_555
O7 Cl1 1_555 1_555
O8 Cl1 1_555 1_555
C19 H21 1_555 1_555
H22 C19 1_555 1_555
Cl2 C19 1_555 1_555
Cl3 C19 1_555 1_555
C1A C2A 1_555 1_555
C2A C3A 1_555 1_555
C3A H1A 1_555 1_555
C4A C3A 1_555 1_555
H2A C4A 1_555 1_555
C5A C4A 1_555 1_555
H3A C5A 1_555 1_555
C6A C1A 1_555 1_555
C7A C6A 1_555 1_555
H4A C7A 1_555 1_555
C8A H5A 1_555 1_555
H6A C8A 1_555 1_555
C9A C8A 1_555 1_555
H7A C9A 1_555 1_555
H8A C9A 1_555 1_555
C10A H9A 1_555 1_555
C11A C10A 1_555 1_555
C12A C11A 1_555 1_555
H10A C12A 1_555 1_555
C13A C12A 1_555 1_555
H11A C13A 1_555 1_555
C14A C13A 1_555 1_555
H12A C14A 1_555 1_555
C15A C14A 1_555 1_555
C16A C11A 1_555 1_555
C17A H13A 1_555 1_555
H14A C17A 1_555 1_555
H15A C17A 1_555 1_555
C18A H16A 1_555 1_555
H17A C18A 1_555 1_555
H18A C18A 1_555 1_555
Cl1A O5A 1_555 1_555
N1A C7A 1_555 1_555
H19A N1A 1_555 1_555
N2A C9A 1_555 1_555
H20A N2A 1_555 1_555
Na1A O3 1_555 1_555
O1A C1A 1_555 1_555
O2A C2A 1_555 1_555
O3A Na1 1_555 1_555
O4A C15A 1_555 1_555
O6A Cl1A 1_555 1_555
O7A Cl1A 1_555 1_555
O8A Cl1A 1_555 1_555
C5 C6 1_555 1_555
C8 N1 1_555 1_555
C10 N2 1_555 1_555
C15 C16 1_555 1_555
C17 O4 1_555 1_555
C18 O2 1_555 1_555
Na1 O2 1_555 1_555
Na1 O3 1_555 1_555
Na1 O4 1_555 1_555
Na1 O7 1_555 1_555
Na1 O8 1_555 1_555
C5A C6A 1_555 1_555
C8A N1A 1_555 1_555
C10A N2A 1_555 1_555
C15A C16A 1_555 1_555
C16A O3A 1_555 1_555
C17A O4A 1_555 1_555
C18A O2A 1_555 1_555
Na1A O1A 1_555 1_555
Na1A O2A 1_555 1_555
Na1A O3A 1_555 1_555
Na1A O4A 1_555 1_555
Na1A O7A 1_555 1_555
Na1A O8A 1_555 1_555

#END
