
#######################################################################
#
#                 Cambridge Crystallographic Data Centre
#                                CCDC 
#
#######################################################################
#
# If this CIF has been generated from an entry in the Cambridge 
# Structural Database, then it will include bibliographic, chemical, 
# crystal, experimental, refinement or atomic coordinate data resulting 
# from the CCDC's data processing and validation procedures.
#
#######################################################################

data_NAHMIT
_chemical_formula_moiety         'C24 H44 N4 O7,H2 O1'
_chemical_name_systematic        
't-Butoxycarbonyl-(\b-alanyl)-(L-leucyl)-(\a-aminoisobutyryl)-(L-valine) methyl ester monohydrate'
_symmetry_cell_setting           monoclinic
_symmetry_space_group_name_H-M   'C 2'
_symmetry_Int_Tables_number      5
_space_group_name_Hall           'C 2y'
loop_
_symmetry_equiv_pos_site_id
_symmetry_equiv_pos_as_xyz
1 x,y,z
2 -x,y,-z
3 1/2+x,1/2+y,z
4 1/2-x,1/2+y,-z
_cell_length_a                   20.987(1)
_cell_length_b                   9.619(2)
_cell_length_c                   17.225(2)
_cell_angle_alpha                90
_cell_angle_beta                 113.20(1)
_cell_angle_gamma                90
_cell_volume                     3196.09
_exptl_crystal_colour            colorless
_exptl_crystal_description       plate
_cell_formula_units_Z            4
_exptl_crystal_recrystallization_method methanol/water
loop_
_atom_site_label
_atom_site_type_symbol
_atom_site_fract_x
_atom_site_fract_y
_atom_site_fract_z
C1 C 0.2565(7) 1.2051(11) 0.1435(7)
H1 H 0.2336 1.2890 0.1166
H2 H 0.3053 1.2223 0.1720
H3 H 0.2382 1.1752 0.1838
C2 C 0.2777(7) 1.1272(14) 0.0168(6)
H4 H 0.2559 1.2075 -0.0160
H5 H 0.2717 1.0490 -0.0201
H6 H 0.3263 1.1451 0.0470
C3 C 0.1670(5) 1.0652(15) 0.0344(5)
H7 H 0.1599 0.9931 -0.0067
H8 H 0.1432 1.1479 0.0068
H9 H 0.1492 1.0355 0.0753
C4 C 0.2449(4) 1.0957(8) 0.0792(4)
O1 O 0.2808(2) 0.9679(5) 0.1165(2)
O2 O 0.2246(2) 0.9357(5) 0.2042(2)
C5 C 0.2670(2) 0.9006(5) 0.1751(2)
N1 N 0.3053(2) 0.7857(5) 0.1991(3)
H10 H 0.3309 0.7625 0.1726
C6 C 0.3059(3) 0.6997(6) 0.2666(3)
H11 H 0.3230 0.6084 0.2606
H12 H 0.2587 0.6888 0.2625
C7 C 0.3498(2) 0.7559(5) 0.3525(3)
H13 H 0.3981 0.7542 0.3602
H14 H 0.3370 0.8518 0.3564
C8 C 0.34103(19) 0.6733(4) 0.4208(3)
O3 O 0.2881(2) 0.6819(6) 0.4355(3)
N2 N 0.39224(13) 0.5853(3) 0.46254(17)
H15 H 0.4283 0.5844 0.4504
C9 C 0.39027(16) 0.4919(4) 0.52683(19)
H16 H 0.3457 0.5016 0.5323
C10 C 0.3995(2) 0.3416(5) 0.5050(3)
H17 H 0.3969 0.2819 0.5491
H18 H 0.4455 0.3315 0.5052
C11 C 0.3464(3) 0.2896(6) 0.4195(3)
H19 H 0.3490 0.3529 0.3763
C12 C 0.2760(5) 0.2934(16) 0.4132(7)
H20 H 0.2646 0.3864 0.4235
H21 H 0.2711 0.2317 0.4543
H22 H 0.2453 0.2648 0.3576
C13 C 0.3684(7) 0.1480(9) 0.4013(6)
H23 H 0.4163 0.1508 0.4092
H24 H 0.3405 0.1223 0.3440
H25 H 0.3623 0.0809 0.4391
C14 C 0.44935(17) 0.5289(4) 0.6111(2)
O4 O 0.50317(14) 0.5822(4) 0.61374(16)
N3 N 0.43836(15) 0.4944(4) 0.67931(17)
H26 H 0.3981 0.4646 0.6733
C15 C 0.49289(19) 0.5055(5) 0.7650(2)
C16 C 0.5542(3) 0.4133(8) 0.7757(4)
H27 H 0.5388 0.3189 0.7630
H28 H 0.5876 0.4190 0.8329
H29 H 0.5751 0.4434 0.7381
C17 C 0.4606(4) 0.4621(9) 0.8276(3)
H30 H 0.4535 0.3634 0.8245
H31 H 0.4170 0.5086 0.8133
H32 H 0.4913 0.4874 0.8838
C18 C 0.5151(2) 0.6575(6) 0.7847(3)
O5 O 0.57577(18) 0.6876(5) 0.8299(2)
N4 N 0.4645(2) 0.7555(6) 0.7563(3)
H33 H 0.4246 0.7277 0.7213
C19 C 0.4704(4) 0.9006(8) 0.7782(5)
H34 H 0.5185 0.9192 0.8163
C20 C 0.4511(5) 1.0008(10) 0.7015(8)
H35 H 0.4576 1.0959 0.7238
C21 C 0.3784(7) 0.9878(19) 0.6425(10)
H36 H 0.3487 1.0011 0.6724
H37 H 0.3707 0.8969 0.6174
H38 H 0.3682 1.0569 0.5990
C22 C 0.5006(9) 0.9802(15) 0.6600(12)
H39 H 0.5472 0.9851 0.7016
H40 H 0.4936 1.0514 0.6183
H41 H 0.4928 0.8907 0.6332
C23 C 0.4222(7) 0.9328(14) 0.8272(9)
O6 O 0.3752(7) 0.8694(13) 0.8232(10)
O7 O 0.4372(5) 1.0623(10) 0.8628(7)
C24 C 0.3902(12) 1.116(2) 0.9005(12)
H42 H 0.3437 1.1192 0.8583
H43 H 0.4044 1.2082 0.9220
H44 H 0.3917 1.0564 0.9459
O8 O 0.1883(2) 0.8719(6) 0.3408(3)
loop_
_geom_bond_atom_site_label_1
_geom_bond_atom_site_label_2
_geom_bond_site_symmetry_1
_geom_bond_site_symmetry_2
C1 H1 1_555 1_555
H2 C1 1_555 1_555
H3 C1 1_555 1_555
C2 H4 1_555 1_555
H5 C2 1_555 1_555
H6 C2 1_555 1_555
C3 H7 1_555 1_555
H8 C3 1_555 1_555
H9 C3 1_555 1_555
C4 C1 1_555 1_555
O1 C4 1_555 1_555
O2 C5 1_555 1_555
C5 O1 1_555 1_555
N1 C5 1_555 1_555
H10 N1 1_555 1_555
C6 N1 1_555 1_555
H11 C6 1_555 1_555
H12 C6 1_555 1_555
C7 C6 1_555 1_555
H13 C7 1_555 1_555
H14 C7 1_555 1_555
C8 C7 1_555 1_555
O3 C8 1_555 1_555
N2 C8 1_555 1_555
H15 N2 1_555 1_555
C9 N2 1_555 1_555
H16 C9 1_555 1_555
C10 C9 1_555 1_555
H17 C10 1_555 1_555
H18 C10 1_555 1_555
C11 C10 1_555 1_555
H19 C11 1_555 1_555
C12 C11 1_555 1_555
H20 C12 1_555 1_555
H21 C12 1_555 1_555
H22 C12 1_555 1_555
C13 C11 1_555 1_555
H23 C13 1_555 1_555
H24 C13 1_555 1_555
H25 C13 1_555 1_555
C14 C9 1_555 1_555
O4 C14 1_555 1_555
N3 C14 1_555 1_555
H26 N3 1_555 1_555
C15 N3 1_555 1_555
C16 C15 1_555 1_555
H27 C16 1_555 1_555
H28 C16 1_555 1_555
H29 C16 1_555 1_555
C17 C15 1_555 1_555
H30 C17 1_555 1_555
H31 C17 1_555 1_555
H32 C17 1_555 1_555
C18 C15 1_555 1_555
O5 C18 1_555 1_555
N4 C18 1_555 1_555
H33 N4 1_555 1_555
C19 N4 1_555 1_555
H34 C19 1_555 1_555
C20 C19 1_555 1_555
H35 C20 1_555 1_555
C21 C20 1_555 1_555
H36 C21 1_555 1_555
H37 C21 1_555 1_555
H38 C21 1_555 1_555
C22 C20 1_555 1_555
H39 C22 1_555 1_555
H40 C22 1_555 1_555
H41 C22 1_555 1_555
C23 C19 1_555 1_555
O6 C23 1_555 1_555
O7 C23 1_555 1_555
C24 O7 1_555 1_555
H42 C24 1_555 1_555
H43 C24 1_555 1_555
H44 C24 1_555 1_555
C2 C4 1_555 1_555
C3 C4 1_555 1_555

#END
