
#######################################################################
#
#                 Cambridge Crystallographic Data Centre
#                                CCDC 
#
#######################################################################
#
# If this CIF has been generated from an entry in the Cambridge 
# Structural Database, then it will include bibliographic, chemical, 
# crystal, experimental, refinement or atomic coordinate data resulting 
# from the CCDC's data processing and validation procedures.
#
#######################################################################

data_NAHNIT01
_chemical_name_common            Glycolide
_chemical_formula_moiety         'C4 H4 O4'
_chemical_name_systematic        1,4-dioxane-2,5-dione
_symmetry_cell_setting           monoclinic
_symmetry_space_group_name_H-M   'P 21/n'
_symmetry_Int_Tables_number      14
_space_group_name_Hall           '-P 2yn'
loop_
_symmetry_equiv_pos_site_id
_symmetry_equiv_pos_as_xyz
1 x,y,z
2 1/2-x,1/2+y,1/2-z
3 -x,-y,-z
4 1/2+x,1/2-y,1/2+z
_cell_length_a                   6.7039(2)
_cell_length_b                   14.9481(4)
_cell_length_c                   9.6177(2)
_cell_angle_alpha                90
_cell_angle_beta                 98.9365(18)
_cell_angle_gamma                90
_cell_volume                     952.096
_exptl_crystal_colour            colorless
_exptl_crystal_description       plate
_cell_formula_units_Z            8
_chemical_properties_physical    Heat-sensitive
_exptl_crystal_recrystallization_method Acetone
loop_
_atom_site_label
_atom_site_type_symbol
_atom_site_fract_x
_atom_site_fract_y
_atom_site_fract_z
C1 C 0.59830(19) 0.29744(9) 0.33718(15)
C2 C 0.7146(2) 0.23282(9) 0.43661(14)
C3 C 0.75904(18) 0.13766(8) 0.24795(13)
C4 C 0.7614(2) 0.22365(9) 0.16997(14)
O1 O 0.60930(15) 0.28494(6) 0.20108(10)
O2 O 0.71627(14) 0.14402(6) 0.37884(9)
O3 O 0.79193(16) 0.06589(7) 0.20128(12)
O4 O 0.49975(17) 0.35693(7) 0.37441(14)
H1 H 0.8522 0.2533 0.4606
H2 H 0.6518 0.2280 0.5197
H3 H 0.7326 0.2110 0.0712
H4 H 0.8951 0.2509 0.1944
C5 C 0.74431(19) 0.40155(9) 0.82127(14)
C6 C 0.7350(2) 0.49357(10) 0.88049(14)
C7 C 0.89326(18) 0.55389(8) 0.69889(13)
C8 C 0.7832(2) 0.48000(8) 0.61496(13)
O5 O 0.79095(13) 0.39693(6) 0.69129(9)
O6 O 0.88231(15) 0.55324(6) 0.83677(9)
O7 O 0.98784(15) 0.61079(7) 0.65030(11)
O8 O 0.71314(18) 0.33469(8) 0.88216(13)
H5 H 0.6002 0.5182 0.8491
H6 H 0.7627 0.4902 0.9802
H7 H 0.8443 0.4697 0.5323
H8 H 0.6449 0.4971 0.5883
loop_
_geom_bond_atom_site_label_1
_geom_bond_atom_site_label_2
_geom_bond_site_symmetry_1
_geom_bond_site_symmetry_2
C1 C2 1_555 1_555
C2 O2 1_555 1_555
C3 C4 1_555 1_555
C4 O1 1_555 1_555
O1 C1 1_555 1_555
O2 C3 1_555 1_555
O3 C3 1_555 1_555
O4 C1 1_555 1_555
H1 C2 1_555 1_555
H2 C2 1_555 1_555
H3 C4 1_555 1_555
H4 C4 1_555 1_555
C5 C6 1_555 1_555
C6 O6 1_555 1_555
C7 C8 1_555 1_555
C8 O5 1_555 1_555
O5 C5 1_555 1_555
O6 C7 1_555 1_555
O7 C7 1_555 1_555
O8 C5 1_555 1_555
H5 C6 1_555 1_555
H6 C6 1_555 1_555
H7 C8 1_555 1_555
H8 C8 1_555 1_555

#END
