
#######################################################################
#
#                 Cambridge Crystallographic Data Centre
#                                CCDC 
#
#######################################################################
#
# If this CIF has been generated from an entry in the Cambridge 
# Structural Database, then it will include bibliographic, chemical, 
# crystal, experimental, refinement or atomic coordinate data resulting 
# from the CCDC's data processing and validation procedures.
#
#######################################################################

data_NAHPES
_chemical_formula_moiety         'C20 H14 O4'
_chemical_name_systematic        1,4-bis(4-Methoxycarbonylphenyl)butadiyne
_symmetry_cell_setting           triclinic
_symmetry_space_group_name_H-M   'P -1'
_symmetry_Int_Tables_number      2
_space_group_name_Hall           '-P 1'
loop_
_symmetry_equiv_pos_site_id
_symmetry_equiv_pos_as_xyz
1 x,y,z
2 -x,-y,-z
_cell_length_a                   7.0249(5)
_cell_length_b                   10.4613(8)
_cell_length_c                   11.7016(8)
_cell_angle_alpha                75.204(3)
_cell_angle_beta                 72.585(3)
_cell_angle_gamma                75.457(3)
_cell_volume                     778.969
_exptl_crystal_colour            colorless
_exptl_crystal_description       plate
_chemical_melting_point          '463-464 K'
_cell_formula_units_Z            2
_exptl_crystal_recrystallization_method benzene
loop_
_atom_site_label
_atom_site_type_symbol
_atom_site_fract_x
_atom_site_fract_y
_atom_site_fract_z
O1 O 1.46831(14) 0.16169(10) -0.17472(9)
O2 O 1.59167(16) 0.14033(11) -0.01323(10)
O3 O -0.60045(15) 0.89651(11) 0.69760(9)
O4 O -0.77697(16) 0.85373(12) 0.58505(10)
C1 C 1.6633(2) 0.09023(16) -0.23387(14)
H1 H 1.685(3) -0.0015(19) -0.1888(16)
H2 H 1.652(3) 0.091(2) -0.3183(19)
H3 H 1.768(3) 0.1394(19) -0.2385(17)
C2 C 1.4530(2) 0.17758(14) -0.06238(12)
C3 C 1.2460(2) 0.24665(13) -0.00447(12)
C4 C 1.0819(2) 0.26805(14) -0.05525(13)
H4 H 1.099(3) 0.2384(17) -0.1307(16)
C5 C 0.8913(2) 0.33098(15) 0.00194(13)
H5 H 0.778(3) 0.3442(18) -0.0341(16)
C6 C 0.8630(2) 0.37307(13) 0.11105(12)
C7 C 1.0287(2) 0.35155(14) 0.16184(13)
H6 H 1.010(3) 0.3798(18) 0.2385(17)
C8 C 1.2183(2) 0.28865(14) 0.10439(13)
H7 H 1.329(3) 0.2746(19) 0.1405(17)
C9 C 0.6653(2) 0.43632(14) 0.17086(13)
C10 C 0.4975(2) 0.48759(14) 0.22121(13)
C11 C 0.3076(2) 0.54473(14) 0.28099(12)
C12 C 0.1416(2) 0.59329(14) 0.33574(13)
C13 C -0.0498(2) 0.65413(14) 0.40514(12)
C14 C -0.2336(2) 0.63591(14) 0.39376(13)
H8 H -0.232(3) 0.5804(19) 0.3386(17)
C15 C -0.4161(2) 0.69796(15) 0.46109(13)
H9 H -0.538(3) 0.6836(16) 0.4533(15)
C16 C -0.4176(2) 0.77831(14) 0.54013(12)
C17 C -0.2348(2) 0.79545(15) 0.55218(12)
H10 H -0.235(3) 0.8502(17) 0.6032(16)
C18 C -0.0519(2) 0.73409(15) 0.48515(12)
H11 H 0.076(3) 0.7508(16) 0.4906(15)
C19 C -0.6178(2) 0.84568(14) 0.60818(12)
C20 C -0.7878(2) 0.96755(16) 0.76567(14)
H12 H -0.824(3) 1.0544(19) 0.7157(17)
H13 H -0.754(3) 0.9762(18) 0.8376(17)
H14 H -0.892(3) 0.914(2) 0.7886(17)
loop_
_geom_bond_atom_site_label_1
_geom_bond_atom_site_label_2
_geom_bond_site_symmetry_1
_geom_bond_site_symmetry_2
O1 C1 1_555 1_555
O2 C2 1_555 1_555
O3 C19 1_555 1_555
O4 C19 1_555 1_555
C1 H1 1_555 1_555
H2 C1 1_555 1_555
H3 C1 1_555 1_555
C2 O1 1_555 1_555
C3 C2 1_555 1_555
C4 C3 1_555 1_555
H4 C4 1_555 1_555
C5 C4 1_555 1_555
H5 C5 1_555 1_555
C6 C5 1_555 1_555
C7 C6 1_555 1_555
H6 C7 1_555 1_555
C8 C3 1_555 1_555
H7 C8 1_555 1_555
C9 C6 1_555 1_555
C10 C9 1_555 1_555
C11 C10 1_555 1_555
C12 C11 1_555 1_555
C13 C12 1_555 1_555
C14 C13 1_555 1_555
H8 C14 1_555 1_555
C15 C14 1_555 1_555
H9 C15 1_555 1_555
C16 C15 1_555 1_555
C17 C16 1_555 1_555
H10 C17 1_555 1_555
C18 C13 1_555 1_555
H11 C18 1_555 1_555
C19 C16 1_555 1_555
C20 O3 1_555 1_555
H12 C20 1_555 1_555
H13 C20 1_555 1_555
H14 C20 1_555 1_555
C7 C8 1_555 1_555
C17 C18 1_555 1_555

#END
