
#######################################################################
#
#                 Cambridge Crystallographic Data Centre
#                                CCDC 
#
#######################################################################
#
# If this CIF has been generated from an entry in the Cambridge 
# Structural Database, then it will include bibliographic, chemical, 
# crystal, experimental, refinement or atomic coordinate data resulting 
# from the CCDC's data processing and validation procedures.
#
#######################################################################

data_NAHWID
_chemical_formula_moiety         'C10 H10 Cl1 N5 S1'
_chemical_name_systematic        
(6-(2-Chlorothiazol-5-ylmethyl)-4,6-diazaspiro(2.4)hept-5-ylidene)cyanamide
_symmetry_cell_setting           triclinic
_symmetry_space_group_name_H-M   'P -1'
_symmetry_Int_Tables_number      2
_space_group_name_Hall           '-P 1'
loop_
_symmetry_equiv_pos_site_id
_symmetry_equiv_pos_as_xyz
1 x,y,z
2 -x,-y,-z
_cell_length_a                   5.7101(2)
_cell_length_b                   14.0746(4)
_cell_length_c                   14.9377(5)
_cell_angle_alpha                101.29(1)
_cell_angle_beta                 96.68(1)
_cell_angle_gamma                94.01(1)
_cell_volume                     1163.97
_exptl_crystal_colour            colorless
_exptl_crystal_description       plate
_chemical_melting_point          179-180deg.C
_cell_formula_units_Z            4
_exptl_crystal_recrystallization_method 'hexane/diethyl ether'
loop_
_atom_site_label
_atom_site_type_symbol
_atom_site_fract_x
_atom_site_fract_y
_atom_site_fract_z
Cl1 Cl 0.55918(7) 0.92419(3) 0.38846(3)
S1 S 0.39979(7) 0.73370(3) 0.43330(3)
N1 N 0.1261(2) 0.83419(9) 0.34793(9)
N2 N -0.0004(2) 0.51641(9) 0.33628(9)
N3 N 0.1237(2) 0.40131(10) 0.23568(9)
N4 N 0.3299(2) 0.44565(9) 0.38972(9)
N5 N 0.6348(2) 0.32994(10) 0.36028(9)
C1 C 0.3415(3) 0.83240(10) 0.38431(10)
C2 C -0.0078(3) 0.75232(11) 0.35794(11)
C3 C 0.1061(3) 0.68949(10) 0.40200(10)
C4 C 0.0082(3) 0.59289(10) 0.41791(10)
C5 C 0.1610(3) 0.45183(10) 0.32273(10)
C6 C 0.4876(3) 0.38279(11) 0.37054(10)
C7 C -0.0842(3) 0.42930(10) 0.18539(10)
C8 C -0.0929(3) 0.42950(12) 0.08503(11)
C9 C -0.2490(3) 0.35501(12) 0.11786(12)
C10 C -0.1656(3) 0.51239(11) 0.25312(10)
H1 H 0.175(4) 0.3456(16) 0.2170(15)
H3 H -0.168(4) 0.7412(14) 0.3346(14)
H4 H 0.108(4) 0.5712(15) 0.4687(14)
H5 H -0.160(3) 0.5965(13) 0.4326(13)
H6 H -0.145(3) 0.5731(13) 0.2334(12)
H7 H -0.333(3) 0.4988(14) 0.2634(13)
H8 H -0.164(4) 0.4817(15) 0.0657(14)
H9 H 0.037(3) 0.4082(14) 0.0553(13)
H10 H -0.416(4) 0.3635(14) 0.1165(14)
H11 H -0.208(4) 0.2904(16) 0.1098(14)
Cl2 Cl 0.31677(8) 0.63224(3) 0.16491(3)
S2 S 0.47573(7) 0.83043(3) 0.13899(3)
N6 N 0.7061(3) 0.68086(10) 0.09757(10)
N7 N 0.8619(2) 1.01927(9) 0.16156(8)
N8 N 0.7607(2) 1.13682(10) 0.26662(9)
N9 N 0.5368(2) 1.09676(9) 0.11550(9)
N10 N 0.2372(3) 1.21302(10) 0.15078(10)
C11 C 0.5181(3) 0.70921(11) 0.13039(11)
C12 C 0.8319(3) 0.75990(11) 0.07749(12)
C13 C 0.7386(3) 0.84649(10) 0.09481(9)
C14 C 0.8337(3) 0.94336(10) 0.07909(10)
C15 C 0.7099(3) 1.08726(10) 0.17933(10)
C16 C 0.3838(3) 1.16072(11) 0.13857(10)
C17 C 1.0337(3) 1.01913(11) 0.24218(10)
C18 C 0.9684(3) 1.10375(10) 0.31249(10)
C19 C 1.1471(3) 1.17441(12) 0.37717(11)
C20 C 0.9891(3) 1.10311(12) 0.41289(11)
H2 H 0.715(4) 1.1933(15) 0.2857(14)
H12 H 0.977(4) 0.7510(14) 0.0520(13)
H13 H 0.991(3) 0.9360(12) 0.0544(11)
H14 H 0.725(3) 0.9646(13) 0.0330(13)
H15 H 1.010(3) 0.9570(14) 0.2623(13)
H16 H 1.198(3) 1.0282(14) 0.2264(13)
H17 H 1.307(4) 1.1631(15) 0.3748(13)
H18 H 1.113(4) 1.2421(15) 0.3907(14)
H19 H 1.054(4) 1.0495(16) 0.4328(14)
H20 H 0.859(4) 1.1279(16) 0.4447(15)
loop_
_geom_bond_atom_site_label_1
_geom_bond_atom_site_label_2
_geom_bond_site_symmetry_1
_geom_bond_site_symmetry_2
Cl1 C1 1_555 1_555
Cl2 C11 1_555 1_555
S1 C1 1_555 1_555
S2 C11 1_555 1_555
N1 C1 1_555 1_555
N2 C4 1_555 1_555
N3 C5 1_555 1_555
N4 C5 1_555 1_555
N5 C6 1_555 1_555
N6 C11 1_555 1_555
N7 C14 1_555 1_555
N8 C15 1_555 1_555
N9 C15 1_555 1_555
N10 C16 1_555 1_555
C2 N1 1_555 1_555
C3 S1 1_555 1_555
C4 C3 1_555 1_555
C5 N2 1_555 1_555
C6 N4 1_555 1_555
C7 N3 1_555 1_555
C8 C7 1_555 1_555
C9 C7 1_555 1_555
C10 N2 1_555 1_555
C12 N6 1_555 1_555
C13 S2 1_555 1_555
C14 C13 1_555 1_555
C15 N7 1_555 1_555
C16 N9 1_555 1_555
C17 N7 1_555 1_555
C18 N8 1_555 1_555
C19 C18 1_555 1_555
C20 C18 1_555 1_555
H1 N3 1_555 1_555
H2 N8 1_555 1_555
H3 C2 1_555 1_555
H4 C4 1_555 1_555
H5 C4 1_555 1_555
H6 C10 1_555 1_555
H7 C10 1_555 1_555
H8 C8 1_555 1_555
H9 C8 1_555 1_555
H10 C9 1_555 1_555
H11 C9 1_555 1_555
H12 C12 1_555 1_555
H13 C14 1_555 1_555
H14 C14 1_555 1_555
H15 C17 1_555 1_555
H16 C17 1_555 1_555
H17 C19 1_555 1_555
H18 C19 1_555 1_555
H19 C20 1_555 1_555
H20 C20 1_555 1_555
C2 C3 1_555 1_555
C7 C10 1_555 1_555
C8 C9 1_555 1_555
C12 C13 1_555 1_555
C17 C18 1_555 1_555
C19 C20 1_555 1_555

#END
