
#######################################################################
#
#                 Cambridge Crystallographic Data Centre
#                                CCDC 
#
#######################################################################
#
# If this CIF has been generated from an entry in the Cambridge 
# Structural Database, then it will include bibliographic, chemical, 
# crystal, experimental, refinement or atomic coordinate data resulting 
# from the CCDC's data processing and validation procedures.
#
#######################################################################

data_NAHWEZ
_chemical_formula_moiety         'C10 H9 Cl1 N4 S2'
_chemical_name_systematic        
N-(4-(2-Chlorothiazol-5-ylmethyl)-6-thia-4-azaspiro(2.4)hept-5-ylidene)cyanamide
_symmetry_cell_setting           orthorhombic
_symmetry_space_group_name_H-M   'P n a 21'
_symmetry_Int_Tables_number      33
_space_group_name_Hall           'P 2c -2n'
loop_
_symmetry_equiv_pos_site_id
_symmetry_equiv_pos_as_xyz
1 x,y,z
2 -x,-y,1/2+z
3 1/2+x,1/2-y,z
4 1/2-x,1/2+y,1/2+z
_cell_length_a                   13.4197(3)
_cell_length_b                   13.1871(4)
_cell_length_c                   6.9676(2)
_cell_angle_alpha                90
_cell_angle_beta                 90
_cell_angle_gamma                90
_cell_volume                     1233.03
_exptl_crystal_colour            colorless
_exptl_crystal_description       plate
_chemical_melting_point          103-105deg.C
_cell_formula_units_Z            4
_exptl_crystal_recrystallization_method 'hexane/diethyl ether'
loop_
_atom_site_label
_atom_site_type_symbol
_atom_site_fract_x
_atom_site_fract_y
_atom_site_fract_z
Cl1 Cl 0.14780(3) -0.50798(4) -0.66869(7)
S1 S -0.05787(3) -0.42502(3) -0.64509(7)
S2 S -0.31803(3) -0.29020(3) -0.21757(6)
N1 N 0.08941(11) -0.32728(13) -0.7950(2)
N2 N -0.21979(10) -0.24468(10) -0.52474(19)
N3 N -0.30127(11) -0.39820(10) -0.5529(2)
N4 N -0.40918(13) -0.53306(11) -0.4173(2)
C1 C 0.06475(12) -0.41178(13) -0.7131(3)
C2 C 0.00605(13) -0.26488(14) -0.8036(3)
C3 C -0.07955(12) -0.30373(11) -0.7299(2)
C4 C -0.18008(11) -0.25251(11) -0.7200(3)
C5 C -0.27865(12) -0.31718(12) -0.4530(2)
C6 C -0.36046(13) -0.46703(12) -0.4730(2)
C7 C -0.26883(13) -0.16151(12) -0.2372(3)
C8 C -0.18673(12) -0.17045(12) -0.3834(2)
C9 C -0.12382(16) -0.08203(15) -0.4361(3)
C10 C -0.07956(14) -0.16898(16) -0.3219(3)
H1 H 0.0106(18) -0.1982(18) -0.854(4)
H2 H -0.2279(17) -0.2898(16) -0.801(4)
H3 H -0.1751(15) -0.1860(17) -0.764(3)
H4 H -0.2472(14) -0.1413(14) -0.111(3)
H5 H -0.3205(15) -0.1185(16) -0.275(3)
H6 H -0.1350(18) -0.0179(18) -0.369(4)
H7 H -0.1038(19) -0.0744(18) -0.565(4)
H8 H -0.0673(16) -0.1565(17) -0.196(4)
H9 H -0.0335(19) -0.2150(17) -0.388(4)
loop_
_geom_bond_atom_site_label_1
_geom_bond_atom_site_label_2
_geom_bond_site_symmetry_1
_geom_bond_site_symmetry_2
Cl1 C1 1_555 1_555
S1 C1 1_555 1_555
S2 C5 1_555 1_555
N1 C1 1_555 1_555
N2 C4 1_555 1_555
N3 C5 1_555 1_555
N4 C6 1_555 1_555
C2 N1 1_555 1_555
C3 S1 1_555 1_555
C4 C3 1_555 1_555
C5 N2 1_555 1_555
C6 N3 1_555 1_555
C7 S2 1_555 1_555
C8 N2 1_555 1_555
C9 C8 1_555 1_555
C10 C8 1_555 1_555
H1 C2 1_555 1_555
H2 C4 1_555 1_555
H3 C4 1_555 1_555
H4 C7 1_555 1_555
H5 C7 1_555 1_555
H6 C9 1_555 1_555
H7 C9 1_555 1_555
H8 C10 1_555 1_555
H9 C10 1_555 1_555
C2 C3 1_555 1_555
C7 C8 1_555 1_555
C9 C10 1_555 1_555

#END
