
#######################################################################
#
#                 Cambridge Crystallographic Data Centre
#                                CCDC 
#
#######################################################################
#
# If this CIF has been generated from an entry in the Cambridge 
# Structural Database, then it will include bibliographic, chemical, 
# crystal, experimental, refinement or atomic coordinate data resulting 
# from the CCDC's data processing and validation procedures.
#
#######################################################################

data_NAHWAV
_chemical_formula_moiety         'C10 H9 Cl1 N4 S2'
_chemical_name_systematic        
N-(2-Chlorothiazol-5-ylmethyl)-N-(6-thia-4-azaspiro(2.4)hept-4-en-5-yl)cyanamide
_symmetry_cell_setting           monoclinic
_symmetry_space_group_name_H-M   'P 21/c'
_symmetry_Int_Tables_number      14
_space_group_name_Hall           '-P 2ybc'
loop_
_symmetry_equiv_pos_site_id
_symmetry_equiv_pos_as_xyz
1 x,y,z
2 -x,1/2+y,1/2-z
3 -x,-y,-z
4 x,1/2-y,1/2+z
_cell_length_a                   5.2823(2)
_cell_length_b                   12.0185(4)
_cell_length_c                   19.9117(7)
_cell_angle_alpha                90
_cell_angle_beta                 97.44(2)
_cell_angle_gamma                90
_cell_volume                     1253.46
_exptl_crystal_colour            colorless
_exptl_crystal_description       needle
_chemical_melting_point          105-107deg.C
_cell_formula_units_Z            4
_exptl_crystal_recrystallization_method 'hexane/diethyl ether'
loop_
_atom_site_label
_atom_site_type_symbol
_atom_site_fract_x
_atom_site_fract_y
_atom_site_fract_z
Cl1 Cl 0.17263(10) 0.05378(4) -0.12654(3)
S1 S 0.02717(8) 0.14956(3) 0.000822(19)
S2 S 0.26639(8) 0.44894(3) 0.16878(2)
N1 N -0.2065(3) 0.19401(16) -0.11798(7)
N2 N -0.1552(2) 0.37786(9) 0.08697(6)
N3 N -0.2045(3) 0.57242(11) 0.04535(8)
N4 N 0.0830(2) 0.24556(10) 0.15191(6)
C1 C -0.0213(3) 0.13857(14) -0.08615(8)
C2 C -0.3276(3) 0.25170(17) -0.07089(8)
C3 C -0.2318(3) 0.23833(12) -0.00494(7)
C4 C -0.3297(3) 0.29087(12) 0.05431(7)
C5 C -0.1788(3) 0.48273(12) 0.06455(7)
C6 C 0.0528(2) 0.34620(11) 0.13377(6)
C7 C 0.4457(3) 0.34288(13) 0.21897(8)
C8 C 0.3019(3) 0.23331(12) 0.20270(7)
C9 C 0.4459(3) 0.12560(14) 0.20225(10)
C10 C 0.2814(4) 0.14896(16) 0.25694(9)
H1 H -0.473(4) 0.2980(18) -0.0865(11)
H2 H -0.363(3) 0.2374(14) 0.0903(9)
H3 H -0.498(3) 0.3283(15) 0.0396(9)
H4 H 0.623(4) 0.3379(17) 0.2053(11)
H5 H 0.458(4) 0.3619(18) 0.2644(12)
H6 H 0.385(4) 0.0696(18) 0.1677(11)
H7 H 0.628(5) 0.1313(18) 0.2130(11)
H8 H 0.122(4) 0.1081(17) 0.2569(10)
H9 H 0.359(5) 0.167(2) 0.3008(13)
loop_
_geom_bond_atom_site_label_1
_geom_bond_atom_site_label_2
_geom_bond_site_symmetry_1
_geom_bond_site_symmetry_2
Cl1 C1 1_555 1_555
S1 C1 1_555 1_555
S2 C6 1_555 1_555
N1 C1 1_555 1_555
N2 C4 1_555 1_555
N3 C5 1_555 1_555
N4 C6 1_555 1_555
C2 N1 1_555 1_555
C3 S1 1_555 1_555
C4 C3 1_555 1_555
C5 N2 1_555 1_555
C6 N2 1_555 1_555
C7 S2 1_555 1_555
C8 N4 1_555 1_555
C9 C8 1_555 1_555
C10 C8 1_555 1_555
H1 C2 1_555 1_555
H2 C4 1_555 1_555
H3 C4 1_555 1_555
H4 C7 1_555 1_555
H5 C7 1_555 1_555
H6 C9 1_555 1_555
H7 C9 1_555 1_555
H8 C10 1_555 1_555
H9 C10 1_555 1_555
C2 C3 1_555 1_555
C7 C8 1_555 1_555
C9 C10 1_555 1_555

#END
