
#######################################################################
#
#                 Cambridge Crystallographic Data Centre
#                                CCDC 
#
#######################################################################
#
# If this CIF has been generated from an entry in the Cambridge 
# Structural Database, then it will include bibliographic, chemical, 
# crystal, experimental, refinement or atomic coordinate data resulting 
# from the CCDC's data processing and validation procedures.
#
#######################################################################

data_NAJDIM
_chemical_formula_moiety         'C14 H11 N3'
_chemical_name_systematic        anti-1-Amino-3-(phenylimino)isoindole
_symmetry_cell_setting           tetragonal
_symmetry_space_group_name_H-M   'P 41 21 2'
_symmetry_Int_Tables_number      92
_space_group_name_Hall           'P 4abw 2nw'
loop_
_symmetry_equiv_pos_site_id
_symmetry_equiv_pos_as_xyz
1 x,y,z
2 1/2-y,1/2+x,1/4+z
3 -x,-y,1/2+z
4 1/2+y,1/2-x,3/4+z
5 1/2-x,1/2+y,1/4-z
6 y,x,-z
7 1/2+x,1/2-y,3/4-z
8 -y,-x,1/2-z
_cell_length_a                   9.5328(18)
_cell_length_b                   9.5328(18)
_cell_length_c                   25.9609(12)
_cell_angle_alpha                90
_cell_angle_beta                 90
_cell_angle_gamma                90
_cell_volume                     2359.18
_exptl_crystal_colour            yellow
_exptl_crystal_description       prism
_chemical_melting_point          203deg.C.(dec.)
_cell_formula_units_Z            8
loop_
_atom_site_label
_atom_site_type_symbol
_atom_site_fract_x
_atom_site_fract_y
_atom_site_fract_z
N1 N 0.77454(11) 0.0122(1) 0.04043(3)
N2 N 0.71211(13) 0.08670(12) 0.12563(3)
N3 N 0.74845(13) -0.06133(16) -0.04463(4)
C1 C 0.69600(13) -0.01730(12) -0.00056(4)
C2 C 0.54401(14) 0.00461(12) 0.00860(5)
C3 C 0.53501(14) 0.05118(13) 0.05920(5)
C4 C 0.68113(13) 0.05358(11) 0.07889(4)
C5 C 0.40517(16) 0.07677(17) 0.08140(6)
C6 C 0.28619(17) 0.0539(2) 0.05170(7)
C7 C 0.29634(18) 0.00707(17) 0.00124(8)
C8 C 0.42612(17) -0.01766(18) -0.02119(6)
C9 C 0.85420(14) 0.07927(13) 0.14245(4)
C10 C 0.93443(19) 0.19786(17) 0.14549(9)
C11 C 1.0689(2) 0.1939(2) 0.16579(11)
C12 C 1.1240(2) 0.0708(2) 0.18286(8)
C13 C 1.0458(3) -0.0485(2) 0.17952(12)
C14 C 0.9112(2) -0.04469(18) 0.1593(1)
H1 H 0.8427 -0.0884 -0.0458
H2 H 0.6886 -0.0955 -0.0686
H3 H 0.3978 0.1090 0.1159
H4 H 0.1962 0.0707 0.0662
H5 H 0.2133 -0.0083 -0.0182
H6 H 0.4336 -0.0489 -0.0558
H7 H 0.8975 0.2844 0.1335
H8 H 1.1228 0.2775 0.1678
H9 H 1.2158 0.0680 0.1970
H10 H 1.0838 -0.1350 0.1912
H11 H 0.8580 -0.1287 0.1570
loop_
_geom_bond_atom_site_label_1
_geom_bond_atom_site_label_2
_geom_bond_site_symmetry_1
_geom_bond_site_symmetry_2
N1 C1 1_555 1_555
N2 C4 1_555 1_555
N3 C1 1_555 1_555
C1 C2 1_555 1_555
C2 C3 1_555 1_555
C3 C4 1_555 1_555
C4 N1 1_555 1_555
C5 C3 1_555 1_555
C6 C5 1_555 1_555
C7 C6 1_555 1_555
C8 C2 1_555 1_555
C9 N2 1_555 1_555
C10 C9 1_555 1_555
C11 C10 1_555 1_555
C12 C11 1_555 1_555
C13 C12 1_555 1_555
C14 C9 1_555 1_555
H1 N3 1_555 1_555
H2 N3 1_555 1_555
H3 C5 1_555 1_555
H4 C6 1_555 1_555
H5 C7 1_555 1_555
H6 C8 1_555 1_555
H7 C10 1_555 1_555
H8 C11 1_555 1_555
H9 C12 1_555 1_555
H10 C13 1_555 1_555
H11 C14 1_555 1_555
C7 C8 1_555 1_555
C13 C14 1_555 1_555

#END
