
#######################################################################
#
#                 Cambridge Crystallographic Data Centre
#                                CCDC 
#
#######################################################################
#
# If this CIF has been generated from an entry in the Cambridge 
# Structural Database, then it will include bibliographic, chemical, 
# crystal, experimental, refinement or atomic coordinate data resulting 
# from the CCDC's data processing and validation procedures.
#
#######################################################################

data_NAJDUY
_chemical_formula_moiety         'C20 H15 N3,0.19(C6 H14)'
_chemical_name_systematic        
'syn,anti-1,3-bis(Phenylimino)isoindoline n-hexane solvate'
_symmetry_cell_setting           rhombohedral
_symmetry_space_group_name_H-M   'R -3'
_symmetry_Int_Tables_number      148
_space_group_name_Hall           '-R 3'
loop_
_symmetry_equiv_pos_site_id
_symmetry_equiv_pos_as_xyz
1 x,y,z
2 1/3+x,2/3+y,2/3+z
3 2/3+x,1/3+y,1/3+z
4 -y,x-y,z
5 2/3-y,1/3+x-y,1/3+z
6 -x+y,-x,z
7 2/3-x+y,1/3-x,1/3+z
8 1/3-y,2/3+x-y,2/3+z
9 1/3-x+y,2/3-x,2/3+z
10 -x,-y,-z
11 2/3-x,1/3-y,1/3-z
12 1/3-x,2/3-y,2/3-z
13 y,-x+y,-z
14 1/3+y,2/3-x+y,2/3-z
15 x-y,x,-z
16 1/3+x-y,2/3+x,2/3-z
17 2/3+y,1/3-x+y,1/3-z
18 2/3+x-y,1/3+x,1/3-z
_cell_length_a                   25.475(8)
_cell_length_b                   25.475(8)
_cell_length_c                   13.610(2)
_cell_angle_alpha                90
_cell_angle_beta                 90
_cell_angle_gamma                120.0
_cell_volume                     7649.22
_exptl_crystal_colour            orange
_cell_formula_units_Z            18
loop_
_atom_site_label
_atom_site_type_symbol
_atom_site_fract_x
_atom_site_fract_y
_atom_site_fract_z
N1 N 0.95246(5) 0.35071(5) 0.91565(8)
N2 N 0.91045(7) 0.37467(6) 0.78528(9)
N3 N 0.97889(5) 0.33411(5) 1.07740(8)
C1 C 0.96214(5) 0.36036(6) 1.01529(9)
C2 C 0.94448(5) 0.40590(6) 1.04009(9)
C3 C 0.92350(6) 0.41997(6) 0.95569(9)
C4 C 0.92655(6) 0.38268(6) 0.87450(9)
C5 C 0.90469(7) 0.46252(7) 0.95810(11)
C6 C 0.90621(8) 0.48894(7) 1.04798(13)
C7 C 0.92594(8) 0.47387(8) 1.13189(13)
C8 C 0.94544(7) 0.43183(7) 1.1297(1)
C9 C 0.88086(8) 0.40308(7) 0.7414(1)
C10 C 0.8192(1) 0.37732(9) 0.74710(17)
C11 C 0.78979(12) 0.40204(11) 0.6953(2)
C12 C 0.82229(16) 0.45237(11) 0.63744(18)
C13 C 0.88319(15) 0.47822(9) 0.63325(15)
C14 C 0.9131(1) 0.45411(8) 0.68348(14)
C15 C 0.99155(7) 0.28859(7) 1.0441(1)
C16 C 1.03952(8) 0.30214(8) 0.98193(11)
C17 C 1.05193(9) 0.25717(11) 0.95352(14)
C18 C 1.0170(1) 0.1993(1) 0.98705(18)
C19 C 0.9698(1) 0.18539(9) 1.05105(19)
C20 C 0.95714(8) 0.23012(8) 1.08010(15)
H1 H 0.9627(7) 0.3282(7) 0.8758(12)
H2 H 0.8913 0.4732 0.9003
H3 H 0.8934 0.5181 1.0517
H4 H 0.9262 0.4926 1.1924
H5 H 0.9589 0.4213 1.1876
H6 H 0.7964 0.3424 0.7866
H7 H 0.7470 0.3841 0.7000
H8 H 0.8021 0.4687 0.6008
H9 H 0.9059 0.5138 0.5949
H10 H 0.9560 0.4725 0.6785
H11 H 1.0641 0.3424 0.9586
H12 H 1.0849 0.2667 0.9105
H13 H 1.0252 0.1685 0.9663
H14 H 0.9459 0.1452 1.0753
H15 H 0.9249 0.2207 1.1247
C21? C 0.9461(8) -0.0434(8) 0.1258(13)
C22? C 1.0000 0.0000 0.159(2)
C23? C 1.0410(8) 0.0353(8) 0.0822(13)
C24? C 1.0436(8) 0.038(1) -0.0193(15)
loop_
_geom_bond_atom_site_label_1
_geom_bond_atom_site_label_2
_geom_bond_site_symmetry_1
_geom_bond_site_symmetry_2
N1 C1 1_555 1_555
N2 C4 1_555 1_555
N3 C1 1_555 1_555
C1 C2 1_555 1_555
C2 C3 1_555 1_555
C3 C4 1_555 1_555
C4 N1 1_555 1_555
C5 C3 1_555 1_555
C6 C5 1_555 1_555
C7 C6 1_555 1_555
C8 C2 1_555 1_555
C9 N2 1_555 1_555
C10 C9 1_555 1_555
C11 C10 1_555 1_555
C12 C11 1_555 1_555
C13 C12 1_555 1_555
C14 C9 1_555 1_555
C15 N3 1_555 1_555
C16 C15 1_555 1_555
C17 C16 1_555 1_555
C18 C17 1_555 1_555
C19 C18 1_555 1_555
C20 C15 1_555 1_555
H1 N1 1_555 1_555
H2 C5 1_555 1_555
H3 C6 1_555 1_555
H4 C7 1_555 1_555
H5 C8 1_555 1_555
H6 C10 1_555 1_555
H7 C11 1_555 1_555
H8 C12 1_555 1_555
H9 C13 1_555 1_555
H10 C14 1_555 1_555
H11 C16 1_555 1_555
H12 C17 1_555 1_555
H13 C18 1_555 1_555
H14 C19 1_555 1_555
H15 C20 1_555 1_555
C7 C8 1_555 1_555
C13 C14 1_555 1_555
C19 C20 1_555 1_555

#END
