
#######################################################################
#
#                 Cambridge Crystallographic Data Centre
#                                CCDC 
#
#######################################################################
#
# If this CIF has been generated from an entry in the Cambridge 
# Structural Database, then it will include bibliographic, chemical, 
# crystal, experimental, refinement or atomic coordinate data resulting 
# from the CCDC's data processing and validation procedures.
#
#######################################################################

data_NAJKUH
_chemical_formula_moiety         'C20 H16 Br1 N1 O4'
_chemical_name_systematic        
'Ethyl 2-amino-4-benzoyl-5-(4-bromophenyl)-3-furoate'
_symmetry_cell_setting           monoclinic
_symmetry_space_group_name_H-M   'P 21/c'
_symmetry_Int_Tables_number      14
_space_group_name_Hall           '-P 2ybc'
loop_
_symmetry_equiv_pos_site_id
_symmetry_equiv_pos_as_xyz
1 x,y,z
2 -x,1/2+y,1/2-z
3 -x,-y,-z
4 x,1/2-y,1/2+z
_cell_length_a                   12.1383(19)
_cell_length_b                   8.1740(14)
_cell_length_c                   18.331(3)
_cell_angle_alpha                90
_cell_angle_beta                 97.012(6)
_cell_angle_gamma                90
_cell_volume                     1805.17
_exptl_crystal_colour            yellow
_exptl_crystal_description       block
_cell_formula_units_Z            4
loop_
_atom_site_label
_atom_site_type_symbol
_atom_site_fract_x
_atom_site_fract_y
_atom_site_fract_z
Br1 Br 0.13784(4) -0.24387(5) 1.09588(2)
C1 C 0.1962(3) -0.0420(4) 1.0661(2)
C2 C 0.2735(3) 0.0407(5) 1.1132(2)
H1 H 0.2991 -0.0036 1.1601
C3 C 0.3139(3) 0.1892(5) 1.0917(2)
H2 H 0.3665 0.2469 1.1247
C4 C 0.2791(3) 0.2563(4) 1.0226(2)
C5 C 0.2015(3) 0.1675(5) 0.9760(2)
H3 H 0.1768 0.2093 0.9284
C6 C 0.1598(3) 0.0196(5) 0.9975(2)
H4 H 0.1065 -0.0387 0.9652
C7 C 0.3186(3) 0.4148(4) 1.00213(19)
C8 C 0.3060(3) 0.5093(4) 0.94090(19)
C9 C 0.3618(3) 0.6623(5) 0.9588(2)
C10 C 0.4090(3) 0.6483(4) 1.0304(2)
C11 C 0.2490(3) 0.4642(4) 0.8666(2)
C12 C 0.1347(3) 0.5238(4) 0.84544(19)
C13 C 0.0732(3) 0.5900(5) 0.8975(2)
H5 H 0.1058 0.5999 0.9472
C14 C -0.0340(3) 0.6413(5) 0.8780(3)
H6 H -0.0750 0.6869 0.9140
C15 C -0.0819(4) 0.6268(5) 0.8068(3)
H7 H -0.1565 0.6607 0.7935
C16 C -0.0220(4) 0.5633(7) 0.7549(3)
H8 H -0.0548 0.5550 0.7052
C17 C 0.0852(3) 0.5115(5) 0.7740(2)
H9 H 0.1256 0.4666 0.7375
C18 C 0.3749(3) 0.8042(6) 0.9138(2)
C19 C 0.3266(4) 0.9187(6) 0.7937(3)
H10 H 0.3207 1.0223 0.8209
H11 H 0.2609 0.9105 0.7561
C20 C 0.4269(6) 0.9223(9) 0.7573(3)
H12 H 0.4904 0.9531 0.7929
H13 H 0.4180 1.0024 0.7172
H14 H 0.4398 0.8137 0.7373
N1 N 0.4701(3) 0.7504(3) 1.0758(2)
H15 H 0.4904(8) 0.7229(9) 1.1183(15)
H16 H 0.4872(7) 0.841(3) 1.0610(5)
O1 O 0.38350(18) 0.5011(3) 1.05801(13)
O2 O 0.2980(2) 0.3798(3) 0.82585(14)
O3 O 0.4215(2) 0.9294(3) 0.93463(15)
O4 O 0.3268(3) 0.7821(3) 0.84423(17)
loop_
_geom_bond_atom_site_label_1
_geom_bond_atom_site_label_2
_geom_bond_site_symmetry_1
_geom_bond_site_symmetry_2
Br1 C1 1_555 1_555
C1 C2 1_555 1_555
C2 H1 1_555 1_555
C3 C2 1_555 1_555
H2 C3 1_555 1_555
C4 C3 1_555 1_555
C5 C4 1_555 1_555
H3 C5 1_555 1_555
C6 C1 1_555 1_555
H4 C6 1_555 1_555
C7 C4 1_555 1_555
C8 C7 1_555 1_555
C9 C8 1_555 1_555
C10 C9 1_555 1_555
C11 C8 1_555 1_555
C12 C11 1_555 1_555
C13 C12 1_555 1_555
H5 C13 1_555 1_555
C14 C13 1_555 1_555
H6 C14 1_555 1_555
C15 C14 1_555 1_555
H7 C15 1_555 1_555
C16 C15 1_555 1_555
H8 C16 1_555 1_555
C17 C12 1_555 1_555
H9 C17 1_555 1_555
C18 C9 1_555 1_555
C19 H10 1_555 1_555
H11 C19 1_555 1_555
C20 C19 1_555 1_555
H12 C20 1_555 1_555
H13 C20 1_555 1_555
H14 C20 1_555 1_555
N1 C10 1_555 1_555
H15 N1 1_555 1_555
H16 N1 1_555 1_555
O1 C7 1_555 1_555
O2 C11 1_555 1_555
O3 C18 1_555 1_555
O4 C18 1_555 1_555
C5 C6 1_555 1_555
C10 O1 1_555 1_555
C16 C17 1_555 1_555
C19 O4 1_555 1_555

#END
