
#######################################################################
#
#                 Cambridge Crystallographic Data Centre
#                                CCDC 
#
#######################################################################
#
# If this CIF has been generated from an entry in the Cambridge 
# Structural Database, then it will include bibliographic, chemical, 
# crystal, experimental, refinement or atomic coordinate data resulting 
# from the CCDC's data processing and validation procedures.
#
#######################################################################

data_NAJMUH
_chemical_formula_moiety         'C23 H14 F6 N4 S2'
_chemical_name_systematic        
1,2-bis(4-Methyl-2-(2-pyridyl)[1,3]thiazol-5-yl)perfluorocyclopentene
_symmetry_cell_setting           orthorhombic
_symmetry_space_group_name_H-M   'P b c n'
_symmetry_Int_Tables_number      60
_space_group_name_Hall           '-P 2n 2ab'
loop_
_symmetry_equiv_pos_site_id
_symmetry_equiv_pos_as_xyz
1 x,y,z
2 1/2-x,1/2-y,1/2+z
3 1/2+x,1/2-y,-z
4 -x,y,1/2-z
5 -x,-y,-z
6 1/2+x,1/2+y,1/2-z
7 1/2-x,1/2+y,z
8 x,-y,1/2+z
_cell_length_a                   10.902(1)
_cell_length_b                   12.360(1)
_cell_length_c                   17.546(2)
_cell_angle_alpha                90
_cell_angle_beta                 90
_cell_angle_gamma                90
_cell_volume                     2364.3
_exptl_crystal_colour            yellow-green
_exptl_crystal_description       prism
_chemical_melting_point          160deg.C
_cell_formula_units_Z            4
_exptl_crystal_recrystallization_method 'diethyl ether'
_exptl_crystal_preparation       fluorescent
loop_
_atom_site_label
_atom_site_type_symbol
_atom_site_fract_x
_atom_site_fract_y
_atom_site_fract_z
S1 S 0.18749(5) -0.09922(4) 0.11135(3)
F1 F -0.0829(2) -0.4445(2) 0.2185(2)
F2 F 0.0182(3) -0.3304(2) 0.1206(1)
F3 F 0.1796(2) -0.3243(1) 0.1871(1)
N1 N 0.0309(2) 0.0544(2) 0.09730(9)
N2 N 0.3207(2) 0.0330(2) -0.0002(1)
C1 C 0.0543(2) -0.1044(2) 0.1650(1)
C2 C -0.0183(2) -0.0169(2) 0.1491(1)
C3 C 0.1375(2) 0.0211(2) 0.0731(1)
C4 C 0.0271(2) -0.1952(2) 0.2151(1)
C5 C 0.0576(2) -0.3076(2) 0.1906(1)
C6 C 0.0000 -0.3829(3) 0.2500
C7 C -0.1429(2) 0.0068(2) 0.1798(1)
C8 C 0.2138(2) 0.0809(2) 0.0180(1)
C9 C 0.1764(3) 0.1800(2) -0.0097(1)
C10 C 0.2551(3) 0.2350(2) -0.0585(1)
C11 C 0.3655(3) 0.1876(2) -0.0777(2)
C12 C 0.3939(2) 0.0874(2) -0.0479(2)
H1 H 0.0992 0.2098 0.0041
H2 H 0.2333 0.3039 -0.0782
H3 H 0.4209 0.2234 -0.1110
H4 H 0.4697 0.0553 -0.0620
H5 H -0.1907 0.0412 0.1416
H6 H -0.1359 0.0531 0.2228
H7 H -0.1813 -0.0589 0.1946
S1C S -0.18749(5) -0.09922(4) 0.38865(3)
F1C F 0.0829(2) -0.4445(2) 0.2815(2)
F2C F -0.0182(3) -0.3304(2) 0.3794(1)
F3C F -0.1796(2) -0.3243(1) 0.3129(1)
N1C N -0.0309(2) 0.0544(2) 0.40270(9)
N2C N -0.3207(2) 0.0330(2) 0.5002(1)
C1C C -0.0543(2) -0.1044(2) 0.3350(1)
C2C C 0.0183(2) -0.0169(2) 0.3509(1)
C3C C -0.1375(2) 0.0211(2) 0.4269(1)
C4C C -0.0271(2) -0.1952(2) 0.2849(1)
C5C C -0.0576(2) -0.3076(2) 0.3094(1)
C7C C 0.1429(2) 0.0068(2) 0.3202(1)
C8C C -0.2138(2) 0.0809(2) 0.4820(1)
C9C C -0.1764(3) 0.1800(2) 0.5097(1)
C10C C -0.2551(3) 0.2350(2) 0.5585(1)
C11C C -0.3655(3) 0.1876(2) 0.5777(2)
C12C C -0.3939(2) 0.0874(2) 0.5479(2)
H1C H -0.0992 0.2098 0.4959
H2C H -0.2333 0.3039 0.5782
H3C H -0.4209 0.2234 0.6110
H4C H -0.4697 0.0553 0.5620
H5C H 0.1907 0.0412 0.3584
H6C H 0.1359 0.0531 0.2772
H7C H 0.1813 -0.0589 0.3054
loop_
_geom_bond_atom_site_label_1
_geom_bond_atom_site_label_2
_geom_bond_site_symmetry_1
_geom_bond_site_symmetry_2
S1 C1 1_555 1_555
F1 C6 1_555 1_555
F2 C5 1_555 1_555
F3 C5 1_555 1_555
N1 C2 1_555 1_555
N2 C8 1_555 1_555
C1 C2 1_555 1_555
C2 C7 1_555 1_555
C3 S1 1_555 1_555
C4 C1 1_555 1_555
C5 C4 1_555 1_555
C6 C5 1_555 1_555
C7 H5 1_555 1_555
C8 C3 1_555 1_555
C9 C8 1_555 1_555
C10 C9 1_555 1_555
C11 C10 1_555 1_555
C12 N2 1_555 1_555
H1 C9 1_555 1_555
H2 C10 1_555 1_555
H3 C11 1_555 1_555
H4 C12 1_555 1_555
H6 C7 1_555 1_555
H7 C7 1_555 1_555
S1C C1C 1_555 1_555
F1C C6 1_555 1_555
F2C C5C 1_555 1_555
F3C C5C 1_555 1_555
N1C C2C 1_555 1_555
N2C C8C 1_555 1_555
C1C C2C 1_555 1_555
C2C C7C 1_555 1_555
C3C S1C 1_555 1_555
C4C C4 1_555 1_555
C5C C6 1_555 1_555
C7C H5C 1_555 1_555
C8C C3C 1_555 1_555
C9C C8C 1_555 1_555
C10C C9C 1_555 1_555
C11C C10C 1_555 1_555
C12C N2C 1_555 1_555
H1C C9C 1_555 1_555
H2C C10C 1_555 1_555
H3C C11C 1_555 1_555
H4C C12C 1_555 1_555
H6C C7C 1_555 1_555
H7C C7C 1_555 1_555
N1 C3 1_555 1_555
C11 C12 1_555 1_555
N1C C3C 1_555 1_555
C1C C4C 1_555 1_555
C4C C5C 1_555 1_555
C11C C12C 1_555 1_555

#END
