
#######################################################################
#
#                 Cambridge Crystallographic Data Centre
#                                CCDC 
#
#######################################################################
#
# If this CIF has been generated from an entry in the Cambridge 
# Structural Database, then it will include bibliographic, chemical, 
# crystal, experimental, refinement or atomic coordinate data resulting 
# from the CCDC's data processing and validation procedures.
#
#######################################################################

data_NAJNAO
_chemical_formula_moiety         'C23 H14 F6 N4 S2'
_chemical_name_systematic        
1,2-bis(5-Methyl-2-(2-pyridyl)[1,3]thiazol-4-yl)perfluorocyclopentene
_symmetry_cell_setting           monoclinic
_symmetry_space_group_name_H-M   'P 21/n'
_symmetry_Int_Tables_number      14
_space_group_name_Hall           '-P 2yn'
loop_
_symmetry_equiv_pos_site_id
_symmetry_equiv_pos_as_xyz
1 x,y,z
2 1/2-x,1/2+y,1/2-z
3 -x,-y,-z
4 1/2+x,1/2-y,1/2+z
_cell_length_a                   16.492(6)
_cell_length_b                   8.379(3)
_cell_length_c                   16.790(7)
_cell_angle_alpha                90
_cell_angle_beta                 93.52(4)
_cell_angle_gamma                90
_cell_volume                     2315.77
_exptl_crystal_colour            colorless
_exptl_crystal_description       prism
_chemical_melting_point          143deg.C
_cell_formula_units_Z            4
_exptl_crystal_recrystallization_method hexane
loop_
_atom_site_label
_atom_site_type_symbol
_atom_site_fract_x
_atom_site_fract_y
_atom_site_fract_z
S1 S 0.25602(4) 0.00852(7) 0.89048(4)
C1 C 0.31461(12) 0.1391(3) 0.83964(13)
C2 C 0.34590(12) 0.2528(3) 0.89187(12)
N1 N 0.32377(10) 0.2387(2) 0.96968(10)
C3 C 0.27741(12) 0.1154(3) 0.97716(13)
C4 C 0.3243(2) 0.1179(4) 0.75237(14)
H1 H 0.2788 0.0590 0.7291
H2 H 0.3735 0.0604 0.74470
H3 H 0.3266 0.2206 0.7273
C5 C 0.24402(12) 0.0637(3) 1.05211(14)
C6 C 0.25371(15) 0.1539(4) 1.12058(15)
H4 H 0.28136 0.2506 1.12069
C7 C 0.2214(2) 0.0973(4) 1.1891(2)
H5 H 0.2271 0.1551 1.2364
C8 C 0.1810(2) -0.0442(5) 1.1862(2)
H6 H 0.1589 -0.0848 1.2316
C9 C 0.1735(2) -0.1257(4) 1.1159(2)
H7 H 0.1453 -0.2218 1.1151
N2 N 0.20408(14) -0.0765(3) 1.04785(15)
S2 S 0.57901(4) 0.04786(8) 0.73786(4)
C10 C 0.53607(13) 0.1569(3) 0.81147(13)
C11 C 0.49570(12) 0.2840(3) 0.77718(12)
N3 N 0.49939(11) 0.2992(2) 0.69550(10)
C12 C 0.54105(12) 0.1824(3) 0.66731(12)
C13 C 0.5487(2) 0.1144(3) 0.89815(14)
H8 H 0.5898 0.1822 0.9230
H9 H 0.5657 0.0051 0.90311
H10 H 0.4988 0.1287 0.9238
C14 C 0.55967(13) 0.1668(3) 0.58298(14)
C15 C 0.5324(2) 0.2775(4) 0.52705(15)
H11 H 0.4991 0.3616 0.54062
C16 C 0.5560(2) 0.2594(5) 0.4499(2)
H12 H 0.5389 0.3322 0.4105
C17 C 0.6040(2) 0.1359(5) 0.4320(2)
H13 H 0.6211 0.1233 0.3806
C18 C 0.6268(2) 0.0301(5) 0.4906(2)
H14 H 0.6587 -0.0563 0.4771
N4 N 0.60639(14) 0.0421(3) 0.56677(15)
C19 C 0.39427(12) 0.3920(2) 0.87198(11)
C20 C 0.45327(12) 0.4075(3) 0.82061(11)
C21 C 0.37796(13) 0.5497(3) 0.91107(12)
F1 F 0.3003(4) 0.5840(10) 0.9144(4)
F2 F 0.4137(2) 0.5561(3) 0.98552(14)
C22 C 0.47995(14) 0.5779(3) 0.81517(13)
F5 F 0.48990(13) 0.6331(2) 0.74139(10)
F6 F 0.55655(10) 0.5976(2) 0.85392(14)
C23 C 0.4170(2) 0.6711(4) 0.8570(3)
F9 F 0.4454(2) 0.8016(2) 0.8964(2)
F10 F 0.36117(12) 0.7282(2) 0.80071(13)
F3? F 0.3865(6) 0.5536(17) 0.9917(7)
F4? F 0.2941(14) 0.5821(33) 0.9099(13)
F7? F 0.4321(8) 0.6288(16) 0.7414(7)
F8? F 0.5460(7) 0.6101(15) 0.8083(8)
C24? C 0.4387(10) 0.6640(22) 0.8807(10)
F11? F 0.4950(5) 0.7127(11) 0.9344(5)
F12? F 0.3977(7) 0.7870(16) 0.8506(7)
loop_
_geom_bond_atom_site_label_1
_geom_bond_atom_site_label_2
_geom_bond_site_symmetry_1
_geom_bond_site_symmetry_2
S1 C1 1_555 1_555
C1 C2 1_555 1_555
C2 N1 1_555 1_555
N1 C3 1_555 1_555
C3 S1 1_555 1_555
C4 C1 1_555 1_555
H1 C4 1_555 1_555
H2 C4 1_555 1_555
H3 C4 1_555 1_555
C5 C3 1_555 1_555
C6 C5 1_555 1_555
H4 C6 1_555 1_555
C7 C6 1_555 1_555
H5 C7 1_555 1_555
C8 C7 1_555 1_555
H6 C8 1_555 1_555
C9 C8 1_555 1_555
H7 C9 1_555 1_555
N2 C5 1_555 1_555
S2 C10 1_555 1_555
C10 C11 1_555 1_555
C11 N3 1_555 1_555
N3 C12 1_555 1_555
C12 S2 1_555 1_555
C13 C10 1_555 1_555
H8 C13 1_555 1_555
H9 C13 1_555 1_555
H10 C13 1_555 1_555
C14 C12 1_555 1_555
C15 C14 1_555 1_555
H11 C15 1_555 1_555
C16 C15 1_555 1_555
H12 C16 1_555 1_555
C17 C16 1_555 1_555
H13 C17 1_555 1_555
C18 C17 1_555 1_555
H14 C18 1_555 1_555
N4 C14 1_555 1_555
C19 C2 1_555 1_555
C20 C11 1_555 1_555
C21 C19 1_555 1_555
F1 C21 1_555 1_555
F2 C21 1_555 1_555
C22 C20 1_555 1_555
F5 C22 1_555 1_555
F6 C22 1_555 1_555
C23 C21 1_555 1_555
F9 C23 1_555 1_555
F10 C23 1_555 1_555
C9 N2 1_555 1_555
C18 N4 1_555 1_555
C19 C20 1_555 1_555
C22 C23 1_555 1_555

#END
