
#######################################################################
#
#                 Cambridge Crystallographic Data Centre
#                                CCDC 
#
#######################################################################
#
# If this CIF has been generated from an entry in the Cambridge 
# Structural Database, then it will include bibliographic, chemical, 
# crystal, experimental, refinement or atomic coordinate data resulting 
# from the CCDC's data processing and validation procedures.
#
#######################################################################

data_NAJRUN
_chemical_formula_moiety         'C14 H21 N1 O4'
_chemical_name_systematic        
2,3,5,6,8,9,11,12-Octahydro-13H-1,4,7,10,13-benzotetraoxaazacyclopentadecine
_symmetry_cell_setting           orthorhombic
_symmetry_space_group_name_H-M   'P c a 21'
_symmetry_Int_Tables_number      29
_space_group_name_Hall           'P 2c -2ac'
loop_
_symmetry_equiv_pos_site_id
_symmetry_equiv_pos_as_xyz
1 x,y,z
2 -x,-y,1/2+z
3 1/2+x,-y,z
4 1/2-x,y,1/2+z
_cell_length_a                   20.1308(6)
_cell_length_b                   8.4639(3)
_cell_length_c                   16.4133(6)
_cell_angle_alpha                90
_cell_angle_beta                 90
_cell_angle_gamma                90
_cell_volume                     2796.58
_exptl_crystal_colour            'light rose'
_exptl_crystal_description       block
_chemical_melting_point          '98-102deg. C'
_cell_formula_units_Z            8
_exptl_crystal_recrystallization_method dichloromethane/hexane
loop_
_atom_site_label
_atom_site_type_symbol
_atom_site_fract_x
_atom_site_fract_y
_atom_site_fract_z
O1 O 0.25575(6) 0.75739(13) 0.01123(8)
O2 O 0.13784(6) 0.58290(13) 0.01657(7)
O3 O 0.08583(6) 0.74860(13) 0.15678(7)
O4 O 0.19057(6) 0.84330(13) 0.26732(7)
N1 N 0.28441(7) 0.90810(15) 0.14610(8)
C1 C 0.33740(8) 0.84418(19) 0.10337(10)
C2 C 0.40337(9) 0.8582(2) 0.12720(12)
C3 C 0.45380(10) 0.7885(2) 0.08062(13)
C4 C 0.43811(10) 0.7059(2) 0.01129(13)
C5 C 0.37205(9) 0.6914(2) -0.01441(11)
C6 C 0.32192(8) 0.76151(18) 0.03088(10)
C7 C 0.23472(9) 0.6579(2) -0.05511(10)
C8 C 0.16026(10) 0.6583(2) -0.05622(11)
C9 C 0.06926(9) 0.6091(2) 0.03361(11)
C10 C 0.05756(9) 0.7631(2) 0.07780(11)
C11 C 0.08376(9) 0.8910(2) 0.20234(11)
C12 C 0.12097(9) 0.8628(2) 0.28073(11)
C13 C 0.22649(9) 0.9886(2) 0.26656(11)
C14 C 0.29335(9) 0.9578(2) 0.22959(11)
H1 H 0.2475(10) 0.865(3) 0.1350(18)
H3 H 0.4177(10) 0.911(2) 0.1763(14)
H4 H 0.5014(12) 0.798(3) 0.1022(16)
H5 H 0.4711(11) 0.653(2) -0.0216(14)
H6 H 0.3610(11) 0.637(2) -0.0635(15)
H7 H 0.2509(9) 0.555(2) -0.0461(13)
H8 H 0.2493(11) 0.698(2) -0.1094(15)
H9 H 0.1426(10) 0.769(3) -0.0568(14)
H10 H 0.1426(10) 0.597(2) -0.1065(14)
H11 H 0.0552(9) 0.520(2) 0.0680(12)
H12 H 0.0442(9) 0.607(2) -0.0184(12)
H13 H 0.0793(9) 0.854(2) 0.0477(11)
H14 H 0.0083(10) 0.782(2) 0.0817(12)
H15 H 0.0368(11) 0.921(2) 0.2149(14)
H16 H 0.1021(10) 0.985(2) 0.1667(13)
H17 H 0.1145(9) 0.953(2) 0.3157(13)
H18 H 0.1045(11) 0.763(3) 0.3076(15)
H19 H 0.2307(9) 1.026(2) 0.3215(14)
H20 H 0.2037(10) 1.065(2) 0.2323(13)
H21 H 0.3199(9) 1.055(2) 0.2343(12)
H22 H 0.3185(9) 0.876(2) 0.2626(13)
O5 O 0.20410(6) 0.27000(14) 0.43069(8)
O6 O 0.33136(6) 0.14154(14) 0.43597(8)
O7 O 0.39722(7) 0.31824(15) 0.31287(8)
O8 O 0.30286(6) 0.38346(14) 0.19416(9)
N2 N 0.18648(7) 0.40753(15) 0.28953(8)
C15 C 0.13209(9) 0.33237(19) 0.32267(10)
C16 C 0.06992(10) 0.3263(2) 0.28575(12)
C17 C 0.01782(10) 0.2450(2) 0.32267(13)
C18 C 0.02746(10) 0.1694(2) 0.39625(13)
C19 C 0.08919(9) 0.1753(2) 0.43488(11)
C20 C 0.14115(8) 0.25671(19) 0.39891(10)
C21 C 0.22356(10) 0.1614(2) 0.49409(10)
C22 C 0.29658(9) 0.1819(2) 0.50816(11)
C23 C 0.39914(9) 0.1875(2) 0.43920(12)
C24 C 0.42688(10) 0.1908(2) 0.35474(12)
C25 C 0.41499(10) 0.3291(2) 0.22964(12)
C26 C 0.36871(10) 0.4450(2) 0.19051(13)
C27 C 0.25407(10) 0.5007(2) 0.17840(11)
C28 C 0.18726(9) 0.4400(2) 0.20278(10)
H2 H 0.2239(9) 0.378(3) 0.3088(16)
H23 H 0.0637(10) 0.384(3) 0.2339(14)
H24 H -0.0282(11) 0.245(3) 0.2942(15)
H25 H -0.0097(11) 0.114(3) 0.4224(14)
H26 H 0.0964(10) 0.126(2) 0.4879(13)
H27 H 0.2109(9) 0.054(2) 0.4768(12)
H28 H 0.2005(9) 0.182(2) 0.5418(12)
H29 H 0.3059(9) 0.291(2) 0.5212(13)
H30 H 0.3105(11) 0.117(3) 0.5569(15)
H31 H 0.4248(11) 0.108(3) 0.4753(14)
H32 H 0.4029(10) 0.297(2) 0.4658(13)
H33 H 0.4778(11) 0.205(2) 0.3585(14)
H34 H 0.4145(9) 0.085(2) 0.3240(12)
H35 H 0.4108(11) 0.220(3) 0.2030(14)
H36 H 0.4608(12) 0.363(3) 0.2228(14)
H37 H 0.3732(10) 0.550(3) 0.2195(13)
H38 H 0.3837(11) 0.465(2) 0.1289(16)
H39 H 0.2537(11) 0.523(3) 0.1222(16)
H40 H 0.2666(10) 0.594(2) 0.2080(13)
H41 H 0.1541(10) 0.523(3) 0.1930(14)
H42 H 0.1758(10) 0.341(2) 0.1698(12)
loop_
_geom_bond_atom_site_label_1
_geom_bond_atom_site_label_2
_geom_bond_site_symmetry_1
_geom_bond_site_symmetry_2
O1 C6 1_555 1_555
O2 C8 1_555 1_555
O3 C10 1_555 1_555
O4 C12 1_555 1_555
O5 C20 1_555 1_555
O6 C22 1_555 1_555
O7 C24 1_555 1_555
O8 C26 1_555 1_555
N1 C1 1_555 1_555
N2 C15 1_555 1_555
C1 C2 1_555 1_555
C2 C3 1_555 1_555
C3 C4 1_555 1_555
C4 C5 1_555 1_555
C5 C6 1_555 1_555
C6 C1 1_555 1_555
C7 O1 1_555 1_555
C8 C7 1_555 1_555
C9 O2 1_555 1_555
C10 C9 1_555 1_555
C11 O3 1_555 1_555
C12 C11 1_555 1_555
C13 O4 1_555 1_555
C14 N1 1_555 1_555
C15 C16 1_555 1_555
C16 C17 1_555 1_555
C17 C18 1_555 1_555
C18 C19 1_555 1_555
C19 C20 1_555 1_555
C20 C15 1_555 1_555
C21 O5 1_555 1_555
C22 C21 1_555 1_555
C23 O6 1_555 1_555
C24 C23 1_555 1_555
C25 O7 1_555 1_555
C26 C25 1_555 1_555
C27 O8 1_555 1_555
C28 N2 1_555 1_555
H1 N1 1_555 1_555
H2 N2 1_555 1_555
H3 C2 1_555 1_555
H4 C3 1_555 1_555
H5 C4 1_555 1_555
H6 C5 1_555 1_555
H7 C7 1_555 1_555
H8 C7 1_555 1_555
H9 C8 1_555 1_555
H10 C8 1_555 1_555
H11 C9 1_555 1_555
H12 C9 1_555 1_555
H13 C10 1_555 1_555
H14 C10 1_555 1_555
H15 C11 1_555 1_555
H16 C11 1_555 1_555
H17 C12 1_555 1_555
H18 C12 1_555 1_555
H19 C13 1_555 1_555
H20 C13 1_555 1_555
H21 C14 1_555 1_555
H22 C14 1_555 1_555
H23 C16 1_555 1_555
H24 C17 1_555 1_555
H25 C18 1_555 1_555
H26 C19 1_555 1_555
H27 C21 1_555 1_555
H28 C21 1_555 1_555
H29 C22 1_555 1_555
H30 C22 1_555 1_555
H31 C23 1_555 1_555
H32 C23 1_555 1_555
H33 C24 1_555 1_555
H34 C24 1_555 1_555
H35 C25 1_555 1_555
H36 C25 1_555 1_555
H37 C26 1_555 1_555
H38 C26 1_555 1_555
H39 C27 1_555 1_555
H40 C27 1_555 1_555
H41 C28 1_555 1_555
H42 C28 1_555 1_555
C13 C14 1_555 1_555
C27 C28 1_555 1_555

#END
