
#######################################################################
#
#                 Cambridge Crystallographic Data Centre
#                                CCDC 
#
#######################################################################
#
# If this CIF has been generated from an entry in the Cambridge 
# Structural Database, then it will include bibliographic, chemical, 
# crystal, experimental, refinement or atomic coordinate data resulting 
# from the CCDC's data processing and validation procedures.
#
#######################################################################

data_NAJTID
_chemical_formula_moiety         'C14 H21 N1 O4'
_chemical_name_systematic        
2-(1,4,7-Trioxa-10-azacyclododecen-10-yl)phenol
_symmetry_cell_setting           triclinic
_symmetry_space_group_name_H-M   'P -1'
_symmetry_Int_Tables_number      2
_space_group_name_Hall           '-P 1'
loop_
_symmetry_equiv_pos_site_id
_symmetry_equiv_pos_as_xyz
1 x,y,z
2 -x,-y,-z
_cell_length_a                   6.4366(4)
_cell_length_b                   10.2180(7)
_cell_length_c                   11.4097(7)
_cell_angle_alpha                67.697(2)
_cell_angle_beta                 86.696(2)
_cell_angle_gamma                82.179(2)
_cell_volume                     687.796
_exptl_crystal_colour            rose
_exptl_crystal_description       block
_chemical_melting_point          '73deg. C'
_cell_formula_units_Z            2
_exptl_crystal_recrystallization_method dichloromethane/hexane
loop_
_atom_site_label
_atom_site_type_symbol
_atom_site_fract_x
_atom_site_fract_y
_atom_site_fract_z
O1 O 0.63897(18) 0.56767(13) 0.19088(11)
H1 H 0.596(3) 0.489(2) 0.2044(18)
O2 O 0.55866(17) 0.31217(10) 0.13645(9)
O3 O 0.82839(19) 0.15880(12) 0.36116(9)
O4 O 0.42944(19) 0.24146(11) 0.46355(10)
N1 N 0.2560(2) 0.47283(12) 0.23667(11)
C1 C 0.2668(2) 0.62130(15) 0.20438(13)
C2 C 0.0932(3) 0.72220(17) 0.19272(15)
C3 C 0.1179(3) 0.86541(17) 0.15801(15)
C4 C 0.3163(3) 0.90665(17) 0.13587(14)
C5 C 0.4916(3) 0.80773(16) 0.14708(14)
C6 C 0.4669(2) 0.66451(16) 0.18138(13)
C7 C 0.2166(3) 0.43556(17) 0.12776(14)
C8 C 0.3420(3) 0.29545(16) 0.13992(15)
C9 C 0.6940(3) 0.18204(17) 0.16369(15)
C10 C 0.7089(3) 0.09208(17) 0.30375(15)
C11 C 0.7824(3) 0.1280(2) 0.49214(15)
C12 C 0.6289(3) 0.2428(2) 0.51061(16)
C13 C 0.2763(3) 0.35472(18) 0.46696(15)
C14 C 0.1385(3) 0.40210(17) 0.35183(14)
H2 H -0.045(3) 0.6902(18) 0.2081(16)
H3 H -0.005(3) 0.9341(19) 0.1542(16)
H4 H 0.336(3) 1.006(2) 0.1070(17)
H5 H 0.636(3) 0.8345(18) 0.1354(15)
H6 H 0.261(3) 0.5087(18) 0.0515(16)
H7 H 0.061(3) 0.4283(18) 0.1231(16)
H8 H 0.304(3) 0.2202(17) 0.2210(14)
H9 H 0.311(3) 0.2720(18) 0.0679(16)
H10 H 0.830(3) 0.2065(18) 0.1309(16)
H11 H 0.641(3) 0.1240(18) 0.1201(15)
H12 H 0.567(3) 0.0846(17) 0.3410(15)
H13 H 0.786(3) -0.0051(19) 0.3159(15)
H14 H 0.912(3) 0.1236(19) 0.5315(17)
H15 H 0.727(3) 0.0321(19) 0.5322(16)
H16 H 0.616(3) 0.228(2) 0.605(2)
H17 H 0.681(3) 0.342(2) 0.4611(18)
H18 H 0.349(3) 0.4373(19) 0.4649(15)
H19 H 0.191(3) 0.3259(18) 0.5451(17)
H20 H 0.091(3) 0.3206(19) 0.3454(14)
H21 H 0.014(3) 0.4664(17) 0.3622(14)
loop_
_geom_bond_atom_site_label_1
_geom_bond_atom_site_label_2
_geom_bond_site_symmetry_1
_geom_bond_site_symmetry_2
O1 H1 1_555 1_555
O2 C8 1_555 1_555
O3 C10 1_555 1_555
O4 C12 1_555 1_555
N1 C1 1_555 1_555
C1 C2 1_555 1_555
C2 C3 1_555 1_555
C3 C4 1_555 1_555
C4 C5 1_555 1_555
C5 C6 1_555 1_555
C6 O1 1_555 1_555
C7 N1 1_555 1_555
C8 C7 1_555 1_555
C9 O2 1_555 1_555
C10 C9 1_555 1_555
C11 O3 1_555 1_555
C12 C11 1_555 1_555
C13 O4 1_555 1_555
C14 N1 1_555 1_555
H2 C2 1_555 1_555
H3 C3 1_555 1_555
H4 C4 1_555 1_555
H5 C5 1_555 1_555
H6 C7 1_555 1_555
H7 C7 1_555 1_555
H8 C8 1_555 1_555
H9 C8 1_555 1_555
H10 C9 1_555 1_555
H11 C9 1_555 1_555
H12 C10 1_555 1_555
H13 C10 1_555 1_555
H14 C11 1_555 1_555
H15 C11 1_555 1_555
H16 C12 1_555 1_555
H17 C12 1_555 1_555
H18 C13 1_555 1_555
H19 C13 1_555 1_555
H20 C14 1_555 1_555
H21 C14 1_555 1_555
C1 C6 1_555 1_555
C13 C14 1_555 1_555

#END
