
#######################################################################
#
#                 Cambridge Crystallographic Data Centre
#                                CCDC 
#
#######################################################################
#
# If this CIF has been generated from an entry in the Cambridge 
# Structural Database, then it will include bibliographic, chemical, 
# crystal, experimental, refinement or atomic coordinate data resulting 
# from the CCDC's data processing and validation procedures.
#
#######################################################################

data_NAJYAB02
_chemical_formula_moiety         '2(C9 H22 N1 1+),C2 H2 O4,C2 O4 2-'
_chemical_name_systematic        'bis(tripropylammonium) oxalate oxalic acid'
_symmetry_cell_setting           monoclinic
_symmetry_space_group_name_H-M   'P 21/c'
_symmetry_Int_Tables_number      14
_space_group_name_Hall           '-P 2ybc'
loop_
_symmetry_equiv_pos_site_id
_symmetry_equiv_pos_as_xyz
1 x,y,z
2 -x,1/2+y,1/2-z
3 -x,-y,-z
4 x,1/2-y,1/2+z
_cell_length_a                   22.291(3)
_cell_length_b                   16.816(3)
_cell_length_c                   15.553(3)
_cell_angle_alpha                90
_cell_angle_beta                 107.343(2)
_cell_angle_gamma                90
_cell_volume                     5564.93
_exptl_crystal_colour            colorless
_exptl_crystal_description       Prism
_cell_formula_units_Z            8
loop_
_atom_site_label
_atom_site_type_symbol
_atom_site_fract_x
_atom_site_fract_y
_atom_site_fract_z
C1 C 0.06675(10) 0.76334(14) 0.63983(15)
H1 H 0.0412 0.7687 0.6818
H2 H 0.0380 0.7682 0.5778
C2 C 0.11349(11) 0.83054(14) 0.65665(17)
H3 H 0.1345 0.8312 0.6088
H4 H 0.1460 0.8224 0.7152
C3 C 0.08038(14) 0.90985(16) 0.6575(2)
H5 H 0.0490 0.9184 0.5990
H6 H 0.1113 0.9530 0.6694
H7 H 0.0596 0.9090 0.7049
C4 C 0.04672(9) 0.62122(14) 0.65003(15)
H8 H 0.0147 0.6221 0.5902
H9 H 0.0257 0.6361 0.6954
C5 C 0.07215(11) 0.53751(15) 0.66933(17)
H10 H 0.1081 0.5372 0.7251
H11 H 0.0873 0.5187 0.6191
C6 C 0.02126(13) 0.48203(17) 0.6804(2)
H12 H 0.0081 0.4989 0.7323
H13 H 0.0377 0.4276 0.6901
H14 H -0.0149 0.4837 0.6259
C7 C 0.13291(10) 0.66409(14) 0.58719(15)
H15 H 0.1621 0.7088 0.5888
H16 H 0.1587 0.6161 0.6089
C8 C 0.09485(12) 0.6506(2) 0.49177(17)
H17 H 0.0704 0.6992 0.4681
H18 H 0.0647 0.6068 0.4892
C9 C 0.13617(14) 0.62990(17) 0.43294(18)
H19 H 0.1652 0.6739 0.4339
H20 H 0.1098 0.6208 0.3710
H21 H 0.1603 0.5817 0.4560
N1 N 0.09614(7) 0.68201(11) 0.65114(11)
H22 H 0.1267 0.6806 0.7130
C10 C 0.36681(10) 0.60710(14) 1.09584(16)
H23 H 0.3996 0.6020 1.1547
H24 H 0.3872 0.6287 1.0523
C11 C 0.34146(12) 0.52524(15) 1.06475(18)
H25 H 0.3029 0.5300 1.0130
H26 H 0.3304 0.4974 1.1141
C12 C 0.39067(16) 0.47805(18) 1.0373(3)
H27 H 0.4003 0.5049 0.9871
H28 H 0.3746 0.4245 1.0186
H29 H 0.4289 0.4742 1.0885
C13 C 0.28527(10) 0.64065(15) 1.17195(15)
H30 H 0.2619 0.5909 1.1503
H31 H 0.2540 0.6821 1.1734
C14 C 0.32692(12) 0.62744(18) 1.26614(16)
H32 H 0.3539 0.6747 1.2865
H33 H 0.3546 0.5812 1.2672
C15 C 0.28816(16) 0.6125(2) 1.3298(2)
H34 H 0.2607 0.6582 1.3288
H35 H 0.3162 0.6049 1.3911
H36 H 0.2625 0.5647 1.3108
C16 C 0.34756(10) 0.74690(13) 1.12157(15)
H37 H 0.3797 0.7475 1.1813
H38 H 0.3693 0.7574 1.0757
C17 C 0.30135(10) 0.81243(15) 1.11822(17)
H39 H 0.2831 0.8062 1.1685
H40 H 0.2668 0.8093 1.0610
C18 C 0.33326(13) 0.89277(15) 1.12506(19)
H41 H 0.3680 0.8954 1.1811
H42 H 0.3028 0.9349 1.1249
H43 H 0.3496 0.9000 1.0736
N2 N 0.31833(8) 0.66527(11) 1.10539(12)
H44 H 0.2855 0.6675 1.0454
C19 C 0.44089(9) 0.25405(13) 0.35298(14)
H45 H 0.4738 0.2547 0.4121
H46 H 0.4621 0.2560 0.3054
C20 C 0.40398(10) 0.17751(14) 0.34393(16)
H47 H 0.3691 0.1781 0.2870
H48 H 0.3857 0.1728 0.3944
C21 C 0.44635(14) 0.10674(17) 0.3445(2)
H49 H 0.4660 0.1128 0.2962
H50 H 0.4214 0.0578 0.3349
H51 H 0.4791 0.1039 0.4027
C22 C 0.37977(10) 0.33731(13) 0.42822(14)
H52 H 0.4177 0.3424 0.4809
H53 H 0.3570 0.2890 0.4372
C23 C 0.33822(11) 0.40855(14) 0.42549(17)
H54 H 0.3026 0.4075 0.3693
H55 H 0.3625 0.4579 0.4257
C24 C 0.31327(12) 0.40813(16) 0.50653(18)
H56 H 0.2866 0.3612 0.5038
H57 H 0.2885 0.4564 0.5060
H58 H 0.3486 0.4065 0.5620
C25 C 0.43075(10) 0.39906(14) 0.32056(15)
H59 H 0.3998 0.4430 0.3075
H60 H 0.4415 0.3877 0.2645
C26 C 0.48931(11) 0.42682(15) 0.39123(16)
H61 H 0.5216 0.3845 0.4034
H62 H 0.4796 0.4385 0.4480
C27 C 0.51420(13) 0.50144(17) 0.3579(2)
H63 H 0.5223 0.4901 0.3006
H64 H 0.5533 0.5182 0.4026
H65 H 0.4830 0.5441 0.3493
N3 N 0.40016(7) 0.32639(10) 0.34546(11)
H66 H 0.3612 0.3163 0.2945
C28 C 0.17436(10) 0.23248(13) -0.14935(14)
H67 H 0.2117 0.2060 -0.1584
H68 H 0.1420 0.2359 -0.2087
C29 C 0.14949(11) 0.18193(14) -0.08790(16)
H69 H 0.1090 0.2039 -0.0847
H70 H 0.1795 0.1826 -0.0265
C30 C 0.13993(13) 0.09672(15) -0.1226(2)
H71 H 0.1095 0.0961 -0.1829
H72 H 0.1241 0.0643 -0.0818
H73 H 0.1801 0.0750 -0.1255
C31 C 0.13732(9) 0.36184(13) -0.10510(14)
H74 H 0.1189 0.3331 -0.0635
H75 H 0.1048 0.3651 -0.1644
C32 C 0.15468(11) 0.44520(14) -0.06962(16)
H76 H 0.1639 0.4781 -0.1169
H77 H 0.1930 0.4432 -0.0173
C33 C 0.10172(14) 0.48291(16) -0.0415(2)
H78 H 0.0640 0.4860 -0.0937
H79 H 0.1141 0.5366 -0.0184
H80 H 0.0928 0.4506 0.0056
C34 C 0.22797(10) 0.35611(14) -0.17053(15)
H81 H 0.2649 0.3232 -0.1697
H82 H 0.2438 0.4076 -0.1417
C35 C 0.19055(11) 0.37163(15) -0.26783(15)
H83 H 0.1512 0.4001 -0.2700
H84 H 0.1791 0.3204 -0.2998
C36 C 0.22859(14) 0.4211(2) -0.3144(2)
H85 H 0.2392 0.4723 -0.2834
H86 H 0.2038 0.4303 -0.3772
H87 H 0.2673 0.3927 -0.3127
N4 N 0.19240(7) 0.31534(10) -0.11516(11)
H88 H 0.2224 0.3096 -0.0532
C37 C -0.07014(10) 0.70952(16) 0.89747(15)
C38 C -0.01659(9) 0.70287(15) 0.85583(14)
O1 O -0.11879(7) 0.66765(10) 0.85674(11)
O2 O -0.06530(8) 0.75329(16) 0.96051(13)
O3 O -0.02075(7) 0.73593(13) 0.78534(12)
O4 O 0.03131(7) 0.66467(11) 0.90498(11)
H89 H -0.1546(15) 0.6796(18) 0.879(2)
H90 H 0.0729(18) 0.664(2) 0.883(2)
C39 C 0.17878(9) 0.66763(12) 0.90179(13)
C40 C 0.23247(9) 0.67300(14) 0.85742(14)
O5 O 0.12385(6) 0.66665(9) 0.84631(10)
O6 O 0.19241(6) 0.66574(10) 0.98463(10)
O7 O 0.21883(7) 0.67762(12) 0.77526(10)
O8 O 0.28753(6) 0.67339(11) 0.91266(10)
C41 C 0.26687(9) 0.30863(13) 0.14219(13)
C42 C 0.32006(9) 0.29965(13) 0.09696(13)
O9 O 0.21216(6) 0.31127(11) 0.08799(10)
O10 O 0.28108(6) 0.31226(10) 0.22553(10)
O11 O 0.30561(6) 0.30113(10) 0.01377(9)
O12 O 0.37489(6) 0.29166(11) 0.15048(10)
C43 C 0.57274(10) 0.21048(18) 0.59981(15)
C44 C 0.51658(11) 0.2057(2) 0.63778(17)
O13 O 0.57017(8) 0.24867(15) 0.53358(13)
O14 O 0.62052(7) 0.17143(13) 0.64755(12)
O15 O 0.46472(7) 0.21373(13) 0.58415(11)
O16 O 0.52384(12) 0.1731(3) 0.71397(19)
H91 H 0.6580(15) 0.1780(18) 0.625(2)
H92 H 0.4269(17) 0.210(2) 0.609(2)
O17? O 0.5220(3) 0.2706(6) 0.7003(4)
loop_
_geom_bond_atom_site_label_1
_geom_bond_atom_site_label_2
_geom_bond_site_symmetry_1
_geom_bond_site_symmetry_2
C1 H1 1_555 1_555
H2 C1 1_555 1_555
C2 C1 1_555 1_555
H3 C2 1_555 1_555
H4 C2 1_555 1_555
C3 C2 1_555 1_555
H5 C3 1_555 1_555
H6 C3 1_555 1_555
H7 C3 1_555 1_555
C4 H8 1_555 1_555
H9 C4 1_555 1_555
C5 C4 1_555 1_555
H10 C5 1_555 1_555
H11 C5 1_555 1_555
C6 C5 1_555 1_555
H12 C6 1_555 1_555
H13 C6 1_555 1_555
H14 C6 1_555 1_555
C7 H15 1_555 1_555
H16 C7 1_555 1_555
C8 C7 1_555 1_555
H17 C8 1_555 1_555
H18 C8 1_555 1_555
C9 C8 1_555 1_555
H19 C9 1_555 1_555
H20 C9 1_555 1_555
H21 C9 1_555 1_555
N1 C1 1_555 1_555
H22 N1 1_555 1_555
C10 H23 1_555 1_555
H24 C10 1_555 1_555
C11 C10 1_555 1_555
H25 C11 1_555 1_555
H26 C11 1_555 1_555
C12 C11 1_555 1_555
H27 C12 1_555 1_555
H28 C12 1_555 1_555
H29 C12 1_555 1_555
C13 H30 1_555 1_555
H31 C13 1_555 1_555
C14 C13 1_555 1_555
H32 C14 1_555 1_555
H33 C14 1_555 1_555
C15 C14 1_555 1_555
H34 C15 1_555 1_555
H35 C15 1_555 1_555
H36 C15 1_555 1_555
C16 H37 1_555 1_555
H38 C16 1_555 1_555
C17 C16 1_555 1_555
H39 C17 1_555 1_555
H40 C17 1_555 1_555
C18 C17 1_555 1_555
H41 C18 1_555 1_555
H42 C18 1_555 1_555
H43 C18 1_555 1_555
N2 C10 1_555 1_555
H44 N2 1_555 1_555
C19 H45 1_555 1_555
H46 C19 1_555 1_555
C20 C19 1_555 1_555
H47 C20 1_555 1_555
H48 C20 1_555 1_555
C21 C20 1_555 1_555
H49 C21 1_555 1_555
H50 C21 1_555 1_555
H51 C21 1_555 1_555
C22 H52 1_555 1_555
H53 C22 1_555 1_555
C23 C22 1_555 1_555
H54 C23 1_555 1_555
H55 C23 1_555 1_555
C24 C23 1_555 1_555
H56 C24 1_555 1_555
H57 C24 1_555 1_555
H58 C24 1_555 1_555
C25 H59 1_555 1_555
H60 C25 1_555 1_555
C26 C25 1_555 1_555
H61 C26 1_555 1_555
H62 C26 1_555 1_555
C27 C26 1_555 1_555
H63 C27 1_555 1_555
H64 C27 1_555 1_555
H65 C27 1_555 1_555
N3 C19 1_555 1_555
H66 N3 1_555 1_555
C28 H67 1_555 1_555
H68 C28 1_555 1_555
C29 C28 1_555 1_555
H69 C29 1_555 1_555
H70 C29 1_555 1_555
C30 C29 1_555 1_555
H71 C30 1_555 1_555
H72 C30 1_555 1_555
H73 C30 1_555 1_555
C31 H74 1_555 1_555
H75 C31 1_555 1_555
C32 C31 1_555 1_555
H76 C32 1_555 1_555
H77 C32 1_555 1_555
C33 C32 1_555 1_555
H78 C33 1_555 1_555
H79 C33 1_555 1_555
H80 C33 1_555 1_555
C34 H81 1_555 1_555
H82 C34 1_555 1_555
C35 C34 1_555 1_555
H83 C35 1_555 1_555
H84 C35 1_555 1_555
C36 C35 1_555 1_555
H85 C36 1_555 1_555
H86 C36 1_555 1_555
H87 C36 1_555 1_555
N4 C28 1_555 1_555
H88 N4 1_555 1_555
C37 C38 1_555 1_555
C38 O3 1_555 1_555
O1 C37 1_555 1_555
O2 C37 1_555 1_555
O4 C38 1_555 1_555
H89 O1 1_555 1_555
H90 O4 1_555 1_555
C39 C40 1_555 1_555
C40 O7 1_555 1_555
O5 C39 1_555 1_555
O6 C39 1_555 1_555
O8 C40 1_555 1_555
C41 C42 1_555 1_555
C42 O11 1_555 1_555
O9 C41 1_555 1_555
O10 C41 1_555 1_555
O12 C42 1_555 1_555
C43 C44 1_555 1_555
C44 O15 1_555 1_555
O13 C43 1_555 1_555
O14 C43 1_555 1_555
O15 H92 1_555 1_555
O16 C44 1_555 1_555
H91 O14 1_555 1_555
C4 N1 1_555 1_555
C7 N1 1_555 1_555
C13 N2 1_555 1_555
C16 N2 1_555 1_555
C22 N3 1_555 1_555
C25 N3 1_555 1_555
C31 N4 1_555 1_555
C34 N4 1_555 1_555

#END
