
#######################################################################
#
#                 Cambridge Crystallographic Data Centre
#                                CCDC 
#
#######################################################################
#
# If this CIF has been generated from an entry in the Cambridge 
# Structural Database, then it will include bibliographic, chemical, 
# crystal, experimental, refinement or atomic coordinate data resulting 
# from the CCDC's data processing and validation procedures.
#
#######################################################################

data_NAJYAB01
_chemical_formula_moiety         '2(C9 H22 N1 1+),C2 H2 O4,C2 O4 2-'
_chemical_name_systematic        'bis(tripropylammonium) oxalate oxalic acid'
_symmetry_cell_setting           triclinic
_symmetry_space_group_name_H-M   'P -1'
_symmetry_Int_Tables_number      2
_space_group_name_Hall           '-P 1'
loop_
_symmetry_equiv_pos_site_id
_symmetry_equiv_pos_as_xyz
1 x,y,z
2 -x,-y,-z
_cell_length_a                   8.648(5)
_cell_length_b                   11.985(7)
_cell_length_c                   14.567(8)
_cell_angle_alpha                106.623(5)
_cell_angle_beta                 105.424(5)
_cell_angle_gamma                93.996(5)
_cell_volume                     1377.14
_exptl_crystal_colour            colorless
_exptl_crystal_description       Prism
_cell_formula_units_Z            2
loop_
_atom_site_label
_atom_site_type_symbol
_atom_site_fract_x
_atom_site_fract_y
_atom_site_fract_z
O1 O 0.4695(3) 0.11066(17) 0.44419(16)
O2 O 0.5126(4) -0.07314(19) 0.38088(17)
C1 C 0.4951(3) 0.0092(2) 0.4488(2)
O1A O 0.5305(3) -0.11066(17) 0.55581(16)
O2A O 0.4874(4) 0.07314(19) 0.61912(17)
C1A C 0.5049(3) -0.0092(2) 0.5512(2)
O3 O 0.1884(3) 0.57832(19) 0.0784(2)
O4 O 0.0879(3) 0.39003(17) 0.04199(19)
C2 C 0.0814(4) 0.4939(2) 0.0356(2)
O3A O -0.1884(3) 0.42168(19) -0.0784(2)
O4A O -0.0879(3) 0.60997(17) -0.04199(19)
C2A C -0.0814(4) 0.5061(2) -0.0356(2)
O5 O 0.3012(3) 0.36574(19) 0.1842(2)
O6 O 0.2862(16) 0.1782(6) 0.0970(9)
O7 O 0.518(2) 0.3221(5) 0.3381(5)
O8 O 0.3831(4) 0.1457(2) 0.2793(2)
C3 C 0.3366(4) 0.2620(3) 0.1727(2)
C4 C 0.4301(4) 0.2449(2) 0.2722(2)
H1 H 0.203(5) 0.345(4) 0.114(4)
H2 H 0.429(4) 0.131(3) 0.348(3)
N1 N -0.1784(3) 0.1965(2) -0.0415(2)
H3 H -0.1287 0.2758 -0.0341
C5 C -0.3580(4) 0.1904(3) -0.0829(3)
H4 H -0.3905 0.2587 -0.0424
H5 H -0.3815 0.1954 -0.1504
C6 C -0.1295(4) 0.1830(3) 0.0608(3)
H6 H -0.0126 0.1866 0.0826
H7 H -0.1784 0.1055 0.0563
C7 C -0.4593(4) 0.0818(3) -0.0865(3)
H8 H -0.4505 0.0819 -0.0187
H9 H -0.4195 0.0125 -0.1197
C8 C -0.1074(5) 0.1126(3) -0.1094(3)
H10 H -0.1614 0.0329 -0.1246
H11 H 0.0069 0.1164 -0.0758
C9 C -0.1773(6) 0.2747(4) 0.1398(3)
H12 H -0.2946 0.2648 0.1244
H13 H -0.1392 0.3532 0.1406
C10 C -0.6351(5) 0.0770(5) -0.1426(4)
H14 H -0.6456 0.0663 -0.2120
H15 H -0.6711 0.1493 -0.1141
H16 H -0.7002 0.0122 -0.1374
C11 C -0.1016(9) 0.2601(5) 0.2419(4)
H17 H -0.1531 0.1878 0.2443
H18 H -0.1166 0.3252 0.2936
H19 H 0.0123 0.2581 0.2523
C12 C -0.0686(8) 0.0597(7) -0.2806(5)
H20 H -0.1085 0.0711 -0.3449
H21 H -0.1073 -0.0195 -0.2856
H22 H 0.0480 0.0729 -0.2597
C13 C -0.1256(8) 0.1416(7) -0.2081(4)
H23 H -0.2394 0.1435 -0.2383
H24 H -0.0664 0.2198 -0.1923
N2 N 0.5932(3) -0.2930(2) 0.39623(18)
H25 H 0.5566 -0.2165 0.4156
C14 C 0.7630(4) -0.2784(3) 0.4637(2)
H26 H 0.8014 -0.3538 0.4489
H27 H 0.7609 -0.2561 0.5328
C15 C 0.5820(4) -0.3219(3) 0.2857(2)
H28 H 0.4683 -0.3341 0.2472
H29 H 0.6357 -0.2539 0.2764
C16 C 0.4794(4) -0.3797(3) 0.4141(3)
H30 H 0.5005 -0.4586 0.3854
H31 H 0.5028 -0.3644 0.4858
C17 C 0.3035(5) -0.3756(3) 0.3707(3)
H32 H 0.2754 -0.4009 0.2981
H33 H 0.2831 -0.2952 0.3933
C18 C 0.6540(5) -0.4275(3) 0.2430(2)
H34 H 0.6043 -0.4963 0.2532
H35 H 0.7697 -0.4147 0.2767
C19 C 0.8816(5) -0.1876(4) 0.4537(3)
H36 H 0.8958 -0.2146 0.3874
H37 H 0.8380 -0.1143 0.4605
C20 C 1.0423(6) -0.1664(5) 0.5314(5)
H38 H 1.1189 -0.1156 0.5185
H39 H 1.0804 -0.2402 0.5292
H40 H 1.0310 -0.1297 0.5966
C21 C 0.6245(7) -0.4478(4) 0.1317(3)
H41 H 0.5098 -0.4606 0.0987
H42 H 0.6698 -0.5158 0.1038
H43 H 0.6753 -0.3799 0.1222
C22 C 0.1986(7) -0.4544(4) 0.4022(4)
H44 H 0.0867 -0.4599 0.3657
H45 H 0.2132 -0.4219 0.4729
H46 H 0.2292 -0.5316 0.3882
O9? O 0.359(11) 0.206(6) 0.096(3)
O10? O 0.5628(15) 0.3136(19) 0.3300(16)
loop_
_geom_bond_atom_site_label_1
_geom_bond_atom_site_label_2
_geom_bond_site_symmetry_1
_geom_bond_site_symmetry_2
O1 C1 1_555 1_555
O2 C1 1_555 1_555
C1 C1A 1_555 1_555
O3 C2 1_555 1_555
O4 C2 1_555 1_555
C2 C2A 1_555 1_555
O5 C3 1_555 1_555
O6 C3 1_555 1_555
O7 C4 1_555 1_555
O8 C4 1_555 1_555
C3 C4 1_555 1_555
H1 O5 1_555 1_555
H2 O8 1_555 1_555
N1 H3 1_555 1_555
C5 N1 1_555 1_555
H4 C5 1_555 1_555
H5 C5 1_555 1_555
C6 N1 1_555 1_555
H6 C6 1_555 1_555
H7 C6 1_555 1_555
C7 C5 1_555 1_555
H8 C7 1_555 1_555
H9 C7 1_555 1_555
C8 N1 1_555 1_555
H10 C8 1_555 1_555
H11 C8 1_555 1_555
C9 C6 1_555 1_555
H12 C9 1_555 1_555
H13 C9 1_555 1_555
C10 C7 1_555 1_555
H14 C10 1_555 1_555
H15 C10 1_555 1_555
H16 C10 1_555 1_555
C11 C9 1_555 1_555
H17 C11 1_555 1_555
H18 C11 1_555 1_555
H19 C11 1_555 1_555
C12 H20 1_555 1_555
H21 C12 1_555 1_555
H22 C12 1_555 1_555
C13 C8 1_555 1_555
H23 C13 1_555 1_555
H24 C13 1_555 1_555
N2 H25 1_555 1_555
C14 N2 1_555 1_555
H26 C14 1_555 1_555
H27 C14 1_555 1_555
C15 N2 1_555 1_555
H28 C15 1_555 1_555
H29 C15 1_555 1_555
C16 N2 1_555 1_555
H30 C16 1_555 1_555
H31 C16 1_555 1_555
C17 C16 1_555 1_555
H32 C17 1_555 1_555
H33 C17 1_555 1_555
C18 C15 1_555 1_555
H34 C18 1_555 1_555
H35 C18 1_555 1_555
C19 C14 1_555 1_555
H36 C19 1_555 1_555
H37 C19 1_555 1_555
C20 C19 1_555 1_555
H38 C20 1_555 1_555
H39 C20 1_555 1_555
H40 C20 1_555 1_555
C21 C18 1_555 1_555
H41 C21 1_555 1_555
H42 C21 1_555 1_555
H43 C21 1_555 1_555
C22 C17 1_555 1_555
H44 C22 1_555 1_555
H45 C22 1_555 1_555
H46 C22 1_555 1_555
O1A C1A 1_555 1_555
O2A C1A 1_555 1_555
O3A C2A 1_555 1_555
O4A C2A 1_555 1_555
C12 C13 1_555 1_555

#END
