
#######################################################################
#
#                 Cambridge Crystallographic Data Centre
#                                CCDC 
#
#######################################################################
#
# If this CIF has been generated from an entry in the Cambridge 
# Structural Database, then it will include bibliographic, chemical, 
# crystal, experimental, refinement or atomic coordinate data resulting 
# from the CCDC's data processing and validation procedures.
#
#######################################################################

data_NAKDOV
_chemical_formula_moiety         'C23 H33 N1 O1'
_chemical_name_systematic        
2,4-di-t-butyl-6-(((1-phenylethyl)amino)methyl)phenol
_symmetry_cell_setting           monoclinic
_symmetry_space_group_name_H-M   'P 21'
_symmetry_Int_Tables_number      4
_space_group_name_Hall           'P 2yb'
loop_
_symmetry_equiv_pos_site_id
_symmetry_equiv_pos_as_xyz
1 x,y,z
2 -x,1/2+y,-z
_cell_length_a                   6.588(2)
_cell_length_b                   16.582(5)
_cell_length_c                   19.448(7)
_cell_angle_alpha                90
_cell_angle_beta                 95.051(7)
_cell_angle_gamma                90
_cell_volume                     2116.29
_exptl_crystal_colour            colorless
_exptl_crystal_description       block
_cell_formula_units_Z            4
loop_
_atom_site_label
_atom_site_type_symbol
_atom_site_fract_x
_atom_site_fract_y
_atom_site_fract_z
C1 C 0.002(2) 0.0516(9) 0.2051(5)
H1 H -0.0755 0.0198 0.2364
H2 H -0.0012 0.1086 0.2182
H3 H 0.1429 0.0327 0.2080
C2 C -0.3216(19) 0.0780(10) 0.1401(8)
H4 H -0.4033 0.0749 0.0956
H5 H -0.3108 0.1344 0.1551
H6 H -0.3873 0.0464 0.1745
C3 C -0.121(5) -0.0371(11) 0.1065(11)
H7 H -0.1441 -0.0356 0.0560
H8 H -0.2385 -0.0617 0.1257
H9 H 0.0015 -0.0691 0.1198
O1 O 0.2230(6) 0.2600(2) -0.05915(18)
H10 H 0.2510 0.3033 -0.0380
N1 N 0.5173(7) 0.3004(3) 0.0393(2)
H11 H 0.5539 0.2729 0.0037
C4 C 0.1535(7) 0.2047(3) -0.0145(2)
C5 C 0.2315(7) 0.2050(3) 0.0552(2)
C6 C 0.1551(7) 0.1502(3) 0.1001(2)
H12 H 0.2130 0.1485 0.1465
C7 C 0.0009(6) 0.0988(3) 0.0803(2)
C8 C -0.0714(7) 0.1005(3) 0.0107(2)
H13 H -0.1772 0.0640 -0.0046
C9 C 0.0007(7) 0.1515(3) -0.0373(2)
C10 C -0.0932(9) 0.0419(3) 0.1321(2)
C11 C -0.0804(9) 0.1491(3) -0.1148(2)
C12 C -0.2347(12) 0.0804(5) -0.1276(3)
H14 H -0.3534 0.0909 -0.1019
H15 H -0.1713 0.0293 -0.1120
H16 H -0.2780 0.0770 -0.1770
C13 C 0.0966(11) 0.1297(4) -0.1583(3)
H17 H 0.0452 0.1255 -0.2070
H18 H 0.1591 0.0784 -0.1430
H19 H 0.1986 0.1728 -0.1527
C14 C -0.1734(10) 0.2287(4) -0.1375(3)
H20 H -0.2258 0.2255 -0.1861
H21 H -0.0695 0.2711 -0.1317
H22 H -0.2853 0.2415 -0.1093
C15 C 0.3698(9) 0.2743(4) 0.0855(3)
H23 H 0.2833 0.3208 0.0959
H24 H 0.4427 0.2561 0.1294
C16 C 0.5943(8) 0.3780(3) 0.0606(3)
H25 H 0.4769 0.4161 0.0618
C17 C 0.7075(5) 0.3754(2) 0.13118(16)
C18 C 0.8795(6) 0.3269(2) 0.14234(18)
H26 H 0.9194 0.2932 0.1064
C19 C 0.9930(5) 0.3279(3) 0.2061(2)
H27 H 1.1105 0.2948 0.2137
C20 C 0.9346(7) 0.3772(3) 0.25861(15)
H28 H 1.0122 0.3779 0.3022
C21 C 0.7627(8) 0.4257(3) 0.24745(18)
H29 H 0.7228 0.4594 0.2834
C22 C 0.6492(6) 0.4248(2) 0.1837(2)
H30 H 0.5317 0.4579 0.1761
C23 C 0.7234(11) 0.4047(4) 0.0050(3)
H31 H 0.8386 0.3677 0.0030
H32 H 0.7747 0.4593 0.0152
H33 H 0.6414 0.4047 -0.0396
O2 O 0.7629(4) 0.4986(2) 0.42848(15)
H43 H 0.8874 0.4901 0.4390
N2 N 0.9640(6) 0.4225(2) 0.5348(2)
H44 H 0.8473 0.4015 0.5180
C27 C 0.6895(6) 0.5482(2) 0.4763(2)
C28 C 0.7895(6) 0.5516(2) 0.5428(2)
C29 C 0.7135(6) 0.6000(2) 0.5921(2)
H45 H 0.7803 0.6007 0.6374
C30 C 0.5437(6) 0.6473(2) 0.57751(19)
C31 C 0.4506(6) 0.6443(2) 0.51041(19)
H46 H 0.3335 0.6769 0.4997
C32 C 0.5179(6) 0.5967(2) 0.45790(19)
C33 C 0.4572(6) 0.7020(3) 0.6309(2)
C34 C 0.5766(10) 0.6990(5) 0.7006(3)
H47 H 0.5738 0.6440 0.7190
H48 H 0.5158 0.7361 0.7322
H49 H 0.7180 0.7149 0.6960
C35 C 0.4545(11) 0.7894(3) 0.6058(3)
H50 H 0.5943 0.8101 0.6082
H51 H 0.3737 0.8223 0.6351
H52 H 0.3940 0.7917 0.5579
C36 C 0.2391(7) 0.6778(4) 0.6410(3)
H53 H 0.1581 0.6774 0.5962
H54 H 0.1805 0.7165 0.6717
H55 H 0.2381 0.6238 0.6615
C37 C 0.4145(7) 0.5973(3) 0.3846(2)
C38 C 0.2335(8) 0.6556(4) 0.3773(3)
H56 H 0.1303 0.6382 0.4075
H57 H 0.1743 0.6559 0.3293
H58 H 0.2802 0.7100 0.3904
C39 C 0.3278(7) 0.5140(3) 0.3651(2)
H59 H 0.4366 0.4737 0.3711
H60 H 0.2713 0.5145 0.3167
H61 H 0.2200 0.5005 0.3948
C40 C 0.5659(8) 0.6238(3) 0.3345(2)
H62 H 0.6118 0.6789 0.3458
H63 H 0.5001 0.6225 0.2873
H64 H 0.6832 0.5873 0.3380
C41 C 0.9848(7) 0.5052(3) 0.5595(2)
H65 H 1.0971 0.5320 0.5377
H66 H 1.0196 0.5051 0.6101
C42 C 1.1597(6) 0.3768(3) 0.5406(2)
H67 H 1.2542 0.4038 0.5103
C43 C 1.2628(6) 0.3745(2) 0.6128(2)
C44 C 1.4481(8) 0.4077(4) 0.6272(3)
H68 H 1.5117 0.4331 0.5909
C45 C 1.5481(11) 0.4065(5) 0.6913(5)
H69 H 1.6758 0.4329 0.6999
C46 C 1.4645(16) 0.3675(5) 0.7425(4)
H70 H 1.5381 0.3630 0.7866
C47 C 1.2768(14) 0.3346(4) 0.7317(3)
H71 H 1.2146 0.3099 0.7686
C48 C 1.1759(9) 0.3374(3) 0.6662(3)
H72 H 1.0451 0.3134 0.6580
C49 C 1.1126(8) 0.2931(3) 0.5116(3)
H73 H 1.0082 0.2677 0.5372
H74 H 1.2367 0.2603 0.5160
H75 H 1.0625 0.2974 0.4627
C24? C 0.102(2) -0.0139(8) 0.1618(7)
H34? H 0.2070 0.0205 0.1855
H35? H 0.1587 -0.0417 0.1233
H36? H 0.0568 -0.0539 0.1943
C25? C -0.169(3) 0.0835(11) 0.1868(9)
H37? H -0.2516 0.1292 0.1688
H38? H -0.0555 0.1032 0.2182
H39? H -0.2540 0.0471 0.2119
C26? C -0.244(5) -0.0142(18) 0.0947(16)
H40? H -0.3062 -0.0483 0.1282
H41? H -0.1741 -0.0482 0.0630
H42? H -0.3503 0.0174 0.0685
loop_
_geom_bond_atom_site_label_1
_geom_bond_atom_site_label_2
_geom_bond_site_symmetry_1
_geom_bond_site_symmetry_2
C1 H1 1_555 1_555
H2 C1 1_555 1_555
H3 C1 1_555 1_555
C2 H4 1_555 1_555
H5 C2 1_555 1_555
H6 C2 1_555 1_555
C3 H7 1_555 1_555
H8 C3 1_555 1_555
H9 C3 1_555 1_555
O1 H10 1_555 1_555
N1 H11 1_555 1_555
C4 O1 1_555 1_555
C5 C4 1_555 1_555
C6 C5 1_555 1_555
H12 C6 1_555 1_555
C7 C6 1_555 1_555
C8 C7 1_555 1_555
H13 C8 1_555 1_555
C9 C4 1_555 1_555
C10 C1 1_555 1_555
C11 C9 1_555 1_555
C12 C11 1_555 1_555
H14 C12 1_555 1_555
H15 C12 1_555 1_555
H16 C12 1_555 1_555
C13 C11 1_555 1_555
H17 C13 1_555 1_555
H18 C13 1_555 1_555
H19 C13 1_555 1_555
C14 C11 1_555 1_555
H20 C14 1_555 1_555
H21 C14 1_555 1_555
H22 C14 1_555 1_555
C15 N1 1_555 1_555
H23 C15 1_555 1_555
H24 C15 1_555 1_555
C16 N1 1_555 1_555
H25 C16 1_555 1_555
C17 C16 1_555 1_555
C18 C17 1_555 1_555
H26 C18 1_555 1_555
C19 C18 1_555 1_555
H27 C19 1_555 1_555
C20 C19 1_555 1_555
H28 C20 1_555 1_555
C21 C20 1_555 1_555
H29 C21 1_555 1_555
C22 C17 1_555 1_555
H30 C22 1_555 1_555
C23 C16 1_555 1_555
H31 C23 1_555 1_555
H32 C23 1_555 1_555
H33 C23 1_555 1_555
O2 H43 1_555 1_555
N2 H44 1_555 1_555
C27 O2 1_555 1_555
C28 C27 1_555 1_555
C29 C28 1_555 1_555
H45 C29 1_555 1_555
C30 C29 1_555 1_555
C31 C30 1_555 1_555
H46 C31 1_555 1_555
C32 C27 1_555 1_555
C33 C30 1_555 1_555
C34 C33 1_555 1_555
H47 C34 1_555 1_555
H48 C34 1_555 1_555
H49 C34 1_555 1_555
C35 C33 1_555 1_555
H50 C35 1_555 1_555
H51 C35 1_555 1_555
H52 C35 1_555 1_555
C36 C33 1_555 1_555
H53 C36 1_555 1_555
H54 C36 1_555 1_555
H55 C36 1_555 1_555
C37 C32 1_555 1_555
C38 C37 1_555 1_555
H56 C38 1_555 1_555
H57 C38 1_555 1_555
H58 C38 1_555 1_555
C39 C37 1_555 1_555
H59 C39 1_555 1_555
H60 C39 1_555 1_555
H61 C39 1_555 1_555
C40 C37 1_555 1_555
H62 C40 1_555 1_555
H63 C40 1_555 1_555
H64 C40 1_555 1_555
C41 N2 1_555 1_555
H65 C41 1_555 1_555
H66 C41 1_555 1_555
C42 N2 1_555 1_555
H67 C42 1_555 1_555
C43 C42 1_555 1_555
C44 C43 1_555 1_555
H68 C44 1_555 1_555
C45 C44 1_555 1_555
H69 C45 1_555 1_555
C46 C45 1_555 1_555
H70 C46 1_555 1_555
C47 C46 1_555 1_555
H71 C47 1_555 1_555
C48 C43 1_555 1_555
H72 C48 1_555 1_555
C49 C42 1_555 1_555
H73 C49 1_555 1_555
H74 C49 1_555 1_555
H75 C49 1_555 1_555
C2 C10 1_555 1_555
C3 C10 1_555 1_555
C5 C15 1_555 1_555
C7 C10 1_555 1_555
C8 C9 1_555 1_555
C21 C22 1_555 1_555
C28 C41 1_555 1_555
C31 C32 1_555 1_555
C47 C48 1_555 1_555

#END
