
#######################################################################
#
#                 Cambridge Crystallographic Data Centre
#                                CCDC 
#
#######################################################################
#
# If this CIF has been generated from an entry in the Cambridge 
# Structural Database, then it will include bibliographic, chemical, 
# crystal, experimental, refinement or atomic coordinate data resulting 
# from the CCDC's data processing and validation procedures.
#
#######################################################################

data_NAKDIP
_chemical_formula_moiety         'C8 H4 Br1 N1 O2'
_chemical_name_systematic        5-bromo-1H-indole-2,3-dione
_symmetry_cell_setting           orthorhombic
_symmetry_space_group_name_H-M   'P n a 21'
_symmetry_Int_Tables_number      33
_space_group_name_Hall           'P 2c -2n'
loop_
_symmetry_equiv_pos_site_id
_symmetry_equiv_pos_as_xyz
1 x,y,z
2 -x,-y,1/2+z
3 1/2-x,1/2+y,1/2+z
4 1/2+x,1/2-y,z
_cell_length_a                   25.1411(18)
_cell_length_b                   5.6851(4)
_cell_length_c                   5.1593(3)
_cell_angle_alpha                90
_cell_angle_beta                 90
_cell_angle_gamma                90
_cell_volume                     737.417
_exptl_crystal_colour            orange
_exptl_crystal_description       block
_cell_formula_units_Z            4
loop_
_atom_site_label
_atom_site_type_symbol
_atom_site_fract_x
_atom_site_fract_y
_atom_site_fract_z
Br1 Br 0.26549(2) 0.64837(9) 0.99780(18)
O1 O 0.50004(16) 0.2784(7) 0.1243(9)
O2 O 0.42674(16) 0.6864(6) 0.1519(8)
N1 N 0.45090(16) 0.1622(7) 0.4830(18)
H1 H 0.4664(18) 0.028(5) 0.496(19)
C1 C 0.4649(2) 0.3068(9) 0.2839(11)
C2 C 0.4258(2) 0.5187(9) 0.2971(12)
C3 C 0.38981(18) 0.4647(8) 0.5154(17)
C4 C 0.3472(2) 0.5867(10) 0.6209(12)
H2 H 0.3359 0.7335 0.5523
C5 C 0.3218(2) 0.4844(10) 0.8311(11)
C6 C 0.3381(2) 0.2689(10) 0.9336(10)
H3 H 0.3195 0.2040 1.0771
C7 C 0.3812(2) 0.1476(11) 0.8286(11)
H4 H 0.3925 0.0011 0.8980
C8 C 0.4068(2) 0.2485(10) 0.6199(11)
loop_
_geom_bond_atom_site_label_1
_geom_bond_atom_site_label_2
_geom_bond_site_symmetry_1
_geom_bond_site_symmetry_2
Br1 C5 1_555 1_555
O1 C1 1_555 1_555
O2 C2 1_555 1_555
N1 H1 1_555 1_555
C1 N1 1_555 1_555
C2 C1 1_555 1_555
C3 C2 1_555 1_555
C4 C3 1_555 1_555
H2 C4 1_555 1_555
C5 C4 1_555 1_555
C6 C5 1_555 1_555
H3 C6 1_555 1_555
C7 C6 1_555 1_555
H4 C7 1_555 1_555
C8 N1 1_555 1_555
C3 C8 1_555 1_555
C7 C8 1_555 1_555

#END
