
#######################################################################
#
#                 Cambridge Crystallographic Data Centre
#                                CCDC 
#
#######################################################################
#
# If this CIF has been generated from an entry in the Cambridge 
# Structural Database, then it will include bibliographic, chemical, 
# crystal, experimental, refinement or atomic coordinate data resulting 
# from the CCDC's data processing and validation procedures.
#
#######################################################################

data_NAKHUF
_chemical_formula_moiety         'C22 H18 N2 O4'
_chemical_name_systematic        
'ethyl 2-(2,2-dicyano-1-ethoxyvinyl)-4-(1-naphthyl)-4-oxobut-2-enoate'
_symmetry_cell_setting           monoclinic
_symmetry_space_group_name_H-M   'C c'
_symmetry_Int_Tables_number      9
_space_group_name_Hall           'C -2yc'
loop_
_symmetry_equiv_pos_site_id
_symmetry_equiv_pos_as_xyz
1 x,y,z
2 x,-y,1/2+z
3 1/2+x,1/2+y,z
4 1/2+x,1/2-y,1/2+z
_cell_length_a                   18.610(3)
_cell_length_b                   13.797(3)
_cell_length_c                   7.7321(12)
_cell_angle_alpha                90
_cell_angle_beta                 104.984(6)
_cell_angle_gamma                90
_cell_volume                     1917.81
_exptl_crystal_colour            yellow
_exptl_crystal_description       needle
_cell_formula_units_Z            4
loop_
_atom_site_label
_atom_site_type_symbol
_atom_site_fract_x
_atom_site_fract_y
_atom_site_fract_z
O1 O 0.68590(16) 0.6162(2) 0.5109(4)
O2 O 0.85973(16) 0.8444(2) 0.6539(4)
O3 O 0.81114(17) 0.6242(2) 0.5737(4)
O4 O 0.73306(16) 0.9503(2) 0.7398(4)
C1 C 0.7517(3) 0.6579(3) 0.5754(6)
N1 N 0.9827(2) 0.8432(3) 1.0706(5)
N2 N 0.7786(2) 0.6907(3) 1.1154(5)
C2 C 0.4649(3) 0.9995(4) 0.7541(6)
H1 H 0.4183 1.0192 0.7710
C3 C 0.9237(3) 0.8169(3) 1.0051(6)
C4 C 0.5864(3) 1.0419(3) 0.7069(5)
C5 C 0.5506(2) 0.8737(3) 0.7317(5)
H2 H 0.5618 0.8066 0.7300
C6 C 0.5151(2) 1.0703(3) 0.7267(6)
C7 C 0.8499(2) 0.7830(3) 0.9216(5)
C8 C 0.8101(3) 0.7311(3) 1.0271(6)
C9 C 0.6752(2) 0.9029(3) 0.6988(5)
C10 C 0.6345(3) 1.1161(3) 0.6774(5)
H3 H 0.6818 1.0991 0.6613
C11 C 0.4815(3) 0.9028(4) 0.7569(6)
H4 H 0.4469 0.8559 0.7756
C12 C 0.8190(2) 0.7995(3) 0.7446(6)
C13 C 0.5446(3) 1.2393(4) 0.6929(6)
H5 H 0.5309 1.3058 0.6882
C14 C 0.7448(2) 0.7565(3) 0.6516(5)
C15 C 0.4963(3) 1.1697(3) 0.7205(6)
H6 H 0.4493 1.1886 0.7358
C16 C 0.6023(2) 0.9404(3) 0.7094(6)
C17 C 0.6797(2) 0.8023(3) 0.6338(6)
H7 H 0.6349 0.7692 0.5779
C18 C 0.6142(3) 1.2120(3) 0.6716(6)
H8 H 0.6478 1.2603 0.6529
C19 C 0.6121(3) 0.4786(4) 0.3885(7)
H9 H 0.6006 0.4650 0.5028
H10 H 0.6106 0.4181 0.3212
H11 H 0.5753 0.5241 0.3189
C20 C 0.6883(3) 0.5225(3) 0.4229(6)
H12 H 0.7255 0.4795 0.5010
H13 H 0.7022 0.5317 0.3088
C21 C 0.8266(3) 0.8710(3) 0.4679(6)
H14 H 0.7855 0.9177 0.4598
H15 H 0.8066 0.8128 0.3965
C22 C 0.8874(3) 0.9161(4) 0.3993(7)
H16 H 0.9096 0.9701 0.4774
H17 H 0.8666 0.9403 0.2774
H18 H 0.9257 0.8675 0.3984
loop_
_geom_bond_atom_site_label_1
_geom_bond_atom_site_label_2
_geom_bond_site_symmetry_1
_geom_bond_site_symmetry_2
O1 C1 1_555 1_555
O2 C12 1_555 1_555
O3 C1 1_555 1_555
O4 C9 1_555 1_555
C1 C14 1_555 1_555
N1 C3 1_555 1_555
N2 C8 1_555 1_555
C2 H1 1_555 1_555
C3 C7 1_555 1_555
C4 C6 1_555 1_555
C5 H2 1_555 1_555
C6 C2 1_555 1_555
C7 C8 1_555 1_555
C9 C16 1_555 1_555
C10 C4 1_555 1_555
H3 C10 1_555 1_555
C11 C2 1_555 1_555
H4 C11 1_555 1_555
C12 C7 1_555 1_555
C13 H5 1_555 1_555
C14 C12 1_555 1_555
C15 C6 1_555 1_555
H6 C15 1_555 1_555
C16 C4 1_555 1_555
C17 C9 1_555 1_555
H7 C17 1_555 1_555
C18 C10 1_555 1_555
H8 C18 1_555 1_555
C19 H9 1_555 1_555
H10 C19 1_555 1_555
H11 C19 1_555 1_555
C20 O1 1_555 1_555
H12 C20 1_555 1_555
H13 C20 1_555 1_555
C21 O2 1_555 1_555
H14 C21 1_555 1_555
H15 C21 1_555 1_555
C22 C21 1_555 1_555
H16 C22 1_555 1_555
H17 C22 1_555 1_555
H18 C22 1_555 1_555
C5 C11 1_555 1_555
C5 C16 1_555 1_555
C13 C15 1_555 1_555
C13 C18 1_555 1_555
C14 C17 1_555 1_555
C19 C20 1_555 1_555

#END
