
#######################################################################
#
#                 Cambridge Crystallographic Data Centre
#                                CCDC 
#
#######################################################################
#
# If this CIF has been generated from an entry in the Cambridge 
# Structural Database, then it will include bibliographic, chemical, 
# crystal, experimental, refinement or atomic coordinate data resulting 
# from the CCDC's data processing and validation procedures.
#
#######################################################################

data_NAKJER
_chemical_formula_moiety         'C20 H17 N3 O4'
_chemical_name_systematic        
'ethyl 2-(2,2-dicyano-1-ethoxyvinyl)-4-(1H-indol-5-yl)-4-oxobut-2-enoate'
_symmetry_cell_setting           orthorhombic
_symmetry_space_group_name_H-M   'P b c a'
_symmetry_Int_Tables_number      61
_space_group_name_Hall           '-P 2ac 2ab'
loop_
_symmetry_equiv_pos_site_id
_symmetry_equiv_pos_as_xyz
1 x,y,z
2 1/2-x,-y,1/2+z
3 -x,1/2+y,1/2-z
4 1/2+x,1/2-y,-z
5 -x,-y,-z
6 1/2+x,y,1/2-z
7 x,1/2-y,1/2+z
8 1/2-x,1/2+y,z
_cell_length_a                   7.7159(6)
_cell_length_b                   12.5831(9)
_cell_length_c                   37.373(3)
_cell_angle_alpha                90
_cell_angle_beta                 90
_cell_angle_gamma                90
_cell_volume                     3628.54
_exptl_crystal_colour            yellow
_exptl_crystal_description       plate
_cell_formula_units_Z            8
loop_
_atom_site_label
_atom_site_type_symbol
_atom_site_fract_x
_atom_site_fract_y
_atom_site_fract_z
O1 O 0.97322(14) 0.75902(9) 0.57663(3)
O2 O 0.76766(14) 0.54443(9) 0.56557(3)
O3 O 0.70473(15) 0.44722(9) 0.63884(3)
O4 O 1.11119(15) 0.75689(10) 0.62998(3)
N1 N 0.32946(18) 0.61615(12) 0.55166(4)
N2 N 0.7367(2) 0.41500(13) 0.80857(4)
H1 H 0.691(3) 0.3625(14) 0.8210(5)
N3 N 0.50149(19) 0.77962(13) 0.64789(4)
C1 C 0.57948(19) 0.65495(12) 0.59574(4)
C2 C 0.7389(2) 0.60868(12) 0.59293(4)
C3 C 1.00165(19) 0.72390(12) 0.60990(4)
C4 C 0.4424(2) 0.63266(12) 0.57095(4)
C5 C 0.87906(19) 0.63537(12) 0.61918(4)
C6 C 0.5397(2) 0.72457(13) 0.62477(4)
C7 C 0.8959(2) 0.58774(13) 0.65087(4)
H2 H 0.9828 0.6124 0.6669
C8 C 0.7724(2) 0.47170(13) 0.70053(4)
C9 C 0.7828(2) 0.49654(13) 0.66227(4)
C10 C 0.8145(2) 0.51855(13) 0.76245(4)
C11 C 0.8350(2) 0.54227(13) 0.72623(4)
H3 H 0.8912 0.6060 0.7191
C12 C 0.7352(2) 0.42094(14) 0.77203(4)
C13 C 0.9323(2) 0.48629(14) 0.56405(5)
H4 H 0.9592 0.4546 0.5876
H5 H 1.0279 0.5348 0.5573
C14 C 0.6898(2) 0.37629(14) 0.71102(5)
H6 H 0.6460 0.3296 0.6932
C15 C 1.0812(2) 0.84816(13) 0.56514(4)
H7 H 1.2007 0.8394 0.5744
H8 H 1.0338 0.9157 0.5746
C16 C 0.9110(2) 0.40064(14) 0.53631(5)
H9 H 0.8744 0.4326 0.5136
H10 H 0.8231 0.3497 0.5443
H11 H 1.0216 0.3638 0.5329
C17 C 0.8123(2) 0.50476(15) 0.82238(5)
H12 H 0.8281 0.5188 0.8471
C18 C 0.8613(2) 0.57072(15) 0.79533(4)
H13 H 0.9158 0.6381 0.7977
C19 C 1.0825(2) 0.85022(15) 0.52496(5)
H14 H 1.1358 0.7849 0.5159
H15 H 1.1492 0.9117 0.5167
H16 H 0.9633 0.8554 0.5161
C20 C 0.6715(2) 0.34971(14) 0.74652(5)
H17 H 0.6175 0.2851 0.7535
loop_
_geom_bond_atom_site_label_1
_geom_bond_atom_site_label_2
_geom_bond_site_symmetry_1
_geom_bond_site_symmetry_2
O1 C3 1_555 1_555
O2 C2 1_555 1_555
O3 C9 1_555 1_555
O4 C3 1_555 1_555
N1 C4 1_555 1_555
N2 H1 1_555 1_555
N3 C6 1_555 1_555
C1 C2 1_555 1_555
C2 C5 1_555 1_555
C3 C5 1_555 1_555
C4 C1 1_555 1_555
C5 C7 1_555 1_555
C6 C1 1_555 1_555
C7 H2 1_555 1_555
C8 C9 1_555 1_555
C9 C7 1_555 1_555
C10 C11 1_555 1_555
C11 C8 1_555 1_555
H3 C11 1_555 1_555
C12 N2 1_555 1_555
C13 O2 1_555 1_555
H4 C13 1_555 1_555
H5 C13 1_555 1_555
C14 C8 1_555 1_555
H6 C14 1_555 1_555
C15 O1 1_555 1_555
H7 C15 1_555 1_555
H8 C15 1_555 1_555
C16 C13 1_555 1_555
H9 C16 1_555 1_555
H10 C16 1_555 1_555
H11 C16 1_555 1_555
C17 N2 1_555 1_555
H12 C17 1_555 1_555
C18 C10 1_555 1_555
H13 C18 1_555 1_555
C19 C15 1_555 1_555
H14 C19 1_555 1_555
H15 C19 1_555 1_555
H16 C19 1_555 1_555
C20 C12 1_555 1_555
H17 C20 1_555 1_555
C10 C12 1_555 1_555
C14 C20 1_555 1_555
C17 C18 1_555 1_555

#END
