
#######################################################################
#
#                 Cambridge Crystallographic Data Centre
#                                CCDC 
#
#######################################################################
#
# If this CIF has been generated from an entry in the Cambridge 
# Structural Database, then it will include bibliographic, chemical, 
# crystal, experimental, refinement or atomic coordinate data resulting 
# from the CCDC's data processing and validation procedures.
#
#######################################################################

data_NAKKOA
_chemical_formula_moiety         'C21 H13 N1'
_chemical_name_systematic        5-Aza[5]helicene
_symmetry_cell_setting           orthorhombic
_symmetry_space_group_name_H-M   'P 21 n b'
_symmetry_Int_Tables_number      33
_space_group_name_Hall           'P -2bc 2a'
loop_
_symmetry_equiv_pos_site_id
_symmetry_equiv_pos_as_xyz
1 x,y,z
2 1/2+x,-y,-z
3 1/2+x,1/2-y,1/2+z
4 x,1/2+y,1/2-z
_cell_length_a                   8.2496(4)
_cell_length_b                   9.9987(5)
_cell_length_c                   17.2243(8)
_cell_angle_alpha                90
_cell_angle_beta                 90
_cell_angle_gamma                90
_cell_volume                     1420.75
_exptl_crystal_colour            brown
_exptl_crystal_description       prism
_cell_formula_units_Z            4
loop_
_atom_site_label
_atom_site_type_symbol
_atom_site_fract_x
_atom_site_fract_y
_atom_site_fract_z
C1 C 0.4143(2) -0.00986(18) 0.47210(11)
H1 H 0.4606 0.0367 0.4309
C2 C 0.3969(3) -0.1458(2) 0.46618(14)
H2 H 0.4314 -0.19 0.4216
C3 C 0.3282(3) -0.2168(2) 0.52641(16)
H3 H 0.3105 -0.3082 0.5212
C4 C 0.2869(3) -0.1544(3) 0.59267(16)
H4 H 0.243 -0.2039 0.6333
C5 C 0.3177(4) 0.1655(3) 0.68270(13)
H5 H 0.3063 0.2011 0.7323
C6 C 0.4318(3) 0.3858(3) 0.64021(15)
H6 H 0.4238 0.4191 0.6905
C7 C 0.4968(3) 0.4616(2) 0.58401(16)
H7 H 0.5486 0.5411 0.5971
C8 C 0.5477(3) 0.5074(2) 0.44477(17)
H8 H 0.6049 0.5841 0.4582
C9 C 0.5247(3) 0.4802(2) 0.36998(17)
H9 H 0.5747 0.5324 0.3323
C10 C 0.3764(4) 0.3550(3) 0.26906(13)
H10 H 0.4224 0.4089 0.231
C11 C 0.2656(4) 0.2623(3) 0.24828(14)
H11 H 0.2372 0.2516 0.1964
C12 C 0.1941(3) 0.1826(2) 0.30542(12)
H12 H 0.1136 0.1219 0.2918
C13 C 0.2415(2) 0.19325(19) 0.38115(11)
H13 H 0.1927 0.1388 0.4182
C14 C 0.3647(2) 0.06153(19) 0.53821(11)
C15 C 0.3089(3) -0.0147(2) 0.60183(12)
C16 C 0.3806(2) 0.20628(19) 0.54663(11)
C17 C 0.3752(3) 0.2543(2) 0.62319(11)
C18 C 0.4118(2) 0.30045(17) 0.48515(11)
C19 C 0.4877(3) 0.4229(2) 0.50521(14)
C20 C 0.3622(2) 0.28417(17) 0.40488(11)
C21 C 0.4246(2) 0.3724(2) 0.34771(13)
N1 N 0.2800(3) 0.0403(3) 0.67392(12)
loop_
_geom_bond_atom_site_label_1
_geom_bond_atom_site_label_2
_geom_bond_site_symmetry_1
_geom_bond_site_symmetry_2
C1 H1 1_555 1_555
C2 C1 1_555 1_555
H2 C2 1_555 1_555
C3 C2 1_555 1_555
H3 C3 1_555 1_555
C4 C3 1_555 1_555
H4 C4 1_555 1_555
C5 H5 1_555 1_555
C6 H6 1_555 1_555
C7 C6 1_555 1_555
H7 C7 1_555 1_555
C8 H8 1_555 1_555
C9 C8 1_555 1_555
H9 C9 1_555 1_555
C10 H10 1_555 1_555
C11 C10 1_555 1_555
H11 C11 1_555 1_555
C12 C11 1_555 1_555
H12 C12 1_555 1_555
C13 C12 1_555 1_555
H13 C13 1_555 1_555
C14 C1 1_555 1_555
C15 C4 1_555 1_555
C16 C14 1_555 1_555
C17 C5 1_555 1_555
C18 C16 1_555 1_555
C19 C7 1_555 1_555
C20 C13 1_555 1_555
C21 C9 1_555 1_555
N1 C5 1_555 1_555
C6 C17 1_555 1_555
C8 C19 1_555 1_555
C10 C21 1_555 1_555
C14 C15 1_555 1_555
C15 N1 1_555 1_555
C16 C17 1_555 1_555
C18 C19 1_555 1_555
C18 C20 1_555 1_555
C20 C21 1_555 1_555

#END
