
#######################################################################
#
#                 Cambridge Crystallographic Data Centre
#                                CCDC 
#
#######################################################################
#
# If this CIF has been generated from an entry in the Cambridge 
# Structural Database, then it will include bibliographic, chemical, 
# crystal, experimental, refinement or atomic coordinate data resulting 
# from the CCDC's data processing and validation procedures.
#
#######################################################################

data_NAKNAO
_chemical_formula_moiety         'C16 H23 N1 O3 S1'
_chemical_name_systematic        
5,5-Dimethyl-2-p-tosylaminebicyclo(2.2.1)heptan-6-ol
_symmetry_cell_setting           monoclinic
_symmetry_space_group_name_H-M   'P 21'
_symmetry_Int_Tables_number      4
_space_group_name_Hall           'P 2yb'
loop_
_symmetry_equiv_pos_site_id
_symmetry_equiv_pos_as_xyz
1 x,y,z
2 -x,1/2+y,-z
_cell_length_a                   8.496(5)
_cell_length_b                   20.384(3)
_cell_length_c                   9.834(2)
_cell_angle_alpha                90
_cell_angle_beta                 92.65(3)
_cell_angle_gamma                90
_cell_volume                     1701.26
_exptl_crystal_colour            colorless
_exptl_crystal_description       block
_cell_formula_units_Z            4
loop_
_atom_site_label
_atom_site_type_symbol
_atom_site_fract_x
_atom_site_fract_y
_atom_site_fract_z
S1 S 1.2692(1) 0.61333(6) 1.1308(1)
O1 O 1.3099(5) 0.6761(2) 1.0787(4)
O2 O 1.3928(4) 0.5698(2) 1.1802(4)
O3 O 0.9669(5) 0.7993(2) 1.3677(6)
N1 N 1.1591(5) 0.6248(2) 1.2574(4)
C1 C 1.0310(5) 0.6723(3) 1.2530(5)
C2 C 0.9688(7) 0.6813(3) 1.3958(6)
C3 C 0.8741(7) 0.7439(3) 1.4008(6)
C4 C 0.7253(7) 0.7322(3) 1.3044(7)
C5 C 0.7534(6) 0.6580(3) 1.2705(7)
C6 C 0.8829(6) 0.6509(3) 1.1693(6)
C7 C 0.8374(8) 0.6317(4) 1.3963(8)
C8 C 0.5740(7) 0.7390(4) 1.3801(10)
C9 C 0.7137(9) 0.7748(4) 1.1800(8)
C10 C 1.1205(7) 0.5067(3) 1.0198(6)
C11 C 1.0347(8) 0.4746(3) 0.9183(7)
C12 C 0.9905(7) 0.5041(3) 0.7958(6)
C13 C 1.0344(8) 0.5680(4) 0.7802(6)
C14 C 1.1201(7) 0.6016(3) 0.8800(6)
C15 C 1.1625(6) 0.5713(3) 1.0006(5)
C16 C 0.8972(9) 0.4672(5) 0.6875(6)
H1 H 0.9127(5) 0.8326(2) 1.3695(6)
H2 H 1.1765(5) 0.6020(2) 1.3302(4)
H3 H 1.0686(5) 0.7144(3) 1.2190(5)
H4 H 1.0486(7) 0.6763(3) 1.4702(6)
H5 H 0.8394(7) 0.7496(3) 1.4937(6)
H6 H 0.6567(6) 0.6341(3) 1.2441(7)
H7 H 0.8917(6) 0.6059(3) 1.1386(6)
H8 H 0.8636(6) 0.6792(3) 1.0910(6)
H9 H 0.7751(8) 0.6351(4) 1.4762(8)
H10 H 0.8741(8) 0.5871(4) 1.3854(8)
H11 H 0.5818(7) 0.7132(4) 1.4619(10)
H12 H 0.4867(7) 0.7238(4) 1.3232(10)
H13 H 0.5581(7) 0.7842(4) 1.4031(10)
H14 H 0.8099(9) 0.7720(4) 1.1329(8)
H15 H 0.6963(9) 0.8195(4) 1.2065(8)
H16 H 0.6275(9) 0.7603(4) 1.1211(8)
H17 H 1.1499(7) 0.4852(3) 1.1004(6)
H18 H 1.0052(8) 0.4313(3) 0.9325(7)
H19 H 1.0055(8) 0.5895(4) 0.6995(6)
H20 H 1.1491(7) 0.6450(3) 0.8655(6)
H21 H 0.8769(9) 0.4952(5) 0.6102(6)
H22 H 0.7991(9) 0.4532(5) 0.7225(6)
H23 H 0.9560(9) 0.4295(5) 0.6605(6)
S2 S 0.2666(2) 0.4570(1) 0.4544(1)
O4 O 0.1407(4) 0.4988(2) 0.4057(4)
O5 O 0.2290(5) 0.3942(2) 0.5087(4)
O6 O 0.7320(4) 0.3351(2) 0.4984(4)
N2 N 0.3740(5) 0.4461(2) 0.3273(4)
C17 C 0.5029(6) 0.3977(3) 0.3254(5)
C18 C 0.6669(6) 0.4270(3) 0.3519(6)
C19 C 0.7824(6) 0.3720(3) 0.3873(6)
C20 C 0.7915(8) 0.3341(3) 0.2492(6)
C21 C 0.6885(8) 0.3763(4) 0.1536(6)
C22 C 0.5146(8) 0.3698(4) 0.1809(7)
C23 C 0.7136(8) 0.4455(4) 0.2098(7)
C24 C 0.9625(8) 0.3329(5) 0.2024(8)
C25 C 0.7322(11) 0.2634(4) 0.2615(9)
C26 C 0.4107(8) 0.5654(3) 0.5642(7)
C27 C 0.4916(8) 0.5997(4) 0.6642(7)
C28 C 0.5369(7) 0.5706(5) 0.7855(7)
C29 C 0.4989(9) 0.5052(5) 0.8025(7)
C30 C 0.4200(9) 0.4710(4) 0.7035(7)
C31 C 0.3730(6) 0.5004(3) 0.5826(5)
C32 C 0.6245(8) 0.6084(5) 0.8966(7)
H24 H 0.7968(4) 0.3063(2) 0.5174(4)
H25 H 0.3555(5) 0.4697(2) 0.2559(4)
H26 H 0.4849(6) 0.3623(3) 0.3902(5)
H27 H 0.6706(6) 0.4635(3) 0.4168(6)
H28 H 0.8859(6) 0.3911(3) 0.4114(6)
H29 H 0.7121(8) 0.3717(4) 0.0574(6)
H30 H 0.4814(8) 0.3243(4) 0.1770(7)
H31 H 0.4503(8) 0.3949(4) 0.1155(7)
H32 H 0.6434(8) 0.4775(4) 0.1664(7)
H33 H 0.8221(8) 0.4601(4) 0.2071(7)
H34 H 1.0247(8) 0.3039(5) 0.2601(8)
H35 H 1.0060(8) 0.3763(5) 0.2079(8)
H36 H 0.9632(8) 0.3176(5) 0.1101(8)
H37 H 0.8023(11) 0.2394(4) 0.3224(9)
H38 H 0.7286(11) 0.2430(4) 0.1735(9)
H39 H 0.6285(11) 0.2637(4) 0.2964(9)
H40 H 0.3808(8) 0.5861(3) 0.4828(7)
H41 H 0.5164(8) 0.6435(4) 0.6498(7)
H42 H 0.5283(9) 0.4844(5) 0.8839(7)
H43 H 0.3971(9) 0.4270(4) 0.7173(7)
H44 H 0.6505(8) 0.6512(5) 0.8636(7)
H45 H 0.7194(8) 0.5855(5) 0.9238(7)
H46 H 0.5593(8) 0.6127(5) 0.9733(7)
loop_
_geom_bond_atom_site_label_1
_geom_bond_atom_site_label_2
_geom_bond_site_symmetry_1
_geom_bond_site_symmetry_2
S1 O1 1_555 1_555
O2 S1 1_555 1_555
O3 C3 1_555 1_555
N1 S1 1_555 1_555
C1 N1 1_555 1_555
C2 C1 1_555 1_555
C3 C2 1_555 1_555
C4 C3 1_555 1_555
C5 C4 1_555 1_555
C6 C1 1_555 1_555
C7 C2 1_555 1_555
C8 C4 1_555 1_555
C9 C4 1_555 1_555
C10 C11 1_555 1_555
C11 C12 1_555 1_555
C12 C13 1_555 1_555
C13 C14 1_555 1_555
C14 C15 1_555 1_555
C15 S1 1_555 1_555
C16 C12 1_555 1_555
H1 O3 1_555 1_555
H2 N1 1_555 1_555
H3 C1 1_555 1_555
H4 C2 1_555 1_555
H5 C3 1_555 1_555
H6 C5 1_555 1_555
H7 C6 1_555 1_555
H8 C6 1_555 1_555
H9 C7 1_555 1_555
H10 C7 1_555 1_555
H11 C8 1_555 1_555
H12 C8 1_555 1_555
H13 C8 1_555 1_555
H14 C9 1_555 1_555
H15 C9 1_555 1_555
H16 C9 1_555 1_555
H17 C10 1_555 1_555
H18 C11 1_555 1_555
H19 C13 1_555 1_555
H20 C14 1_555 1_555
H21 C16 1_555 1_555
H22 C16 1_555 1_555
H23 C16 1_555 1_555
S2 O4 1_555 1_555
O5 S2 1_555 1_555
O6 C19 1_555 1_555
N2 S2 1_555 1_555
C17 N2 1_555 1_555
C18 C17 1_555 1_555
C19 C18 1_555 1_555
C20 C19 1_555 1_555
C21 C20 1_555 1_555
C22 C17 1_555 1_555
C23 C18 1_555 1_555
C24 C20 1_555 1_555
C25 C20 1_555 1_555
C26 C27 1_555 1_555
C27 C28 1_555 1_555
C28 C29 1_555 1_555
C29 C30 1_555 1_555
C30 C31 1_555 1_555
C31 S2 1_555 1_555
C32 C28 1_555 1_555
H24 O6 1_555 1_555
H25 N2 1_555 1_555
H26 C17 1_555 1_555
H27 C18 1_555 1_555
H28 C19 1_555 1_555
H29 C21 1_555 1_555
H30 C22 1_555 1_555
H31 C22 1_555 1_555
H32 C23 1_555 1_555
H33 C23 1_555 1_555
H34 C24 1_555 1_555
H35 C24 1_555 1_555
H36 C24 1_555 1_555
H37 C25 1_555 1_555
H38 C25 1_555 1_555
H39 C25 1_555 1_555
H40 C26 1_555 1_555
H41 C27 1_555 1_555
H42 C29 1_555 1_555
H43 C30 1_555 1_555
H44 C32 1_555 1_555
H45 C32 1_555 1_555
H46 C32 1_555 1_555
C5 C6 1_555 1_555
C5 C7 1_555 1_555
C10 C15 1_555 1_555
C21 C22 1_555 1_555
C21 C23 1_555 1_555
C26 C31 1_555 1_555

#END
