
#######################################################################
#
#                 Cambridge Crystallographic Data Centre
#                                CCDC 
#
#######################################################################
#
# If this CIF has been generated from an entry in the Cambridge 
# Structural Database, then it will include bibliographic, chemical, 
# crystal, experimental, refinement or atomic coordinate data resulting 
# from the CCDC's data processing and validation procedures.
#
#######################################################################

data_NAKNEV
_chemical_formula_moiety         'C6 H14 N2 2+,2(Cl1 O4 1-),H2 O1'
_chemical_name_systematic        
'1,4-diazoniabicyclo[2.2.2]octane diperchlorate monohydrate'
_symmetry_cell_setting           orthorhombic
_symmetry_space_group_name_H-M   'P c a 21'
_symmetry_Int_Tables_number      29
_space_group_name_Hall           'P 2c -2ac'
loop_
_symmetry_equiv_pos_site_id
_symmetry_equiv_pos_as_xyz
1 x,y,z
2 -x,-y,1/2+z
3 1/2+x,-y,z
4 1/2-x,y,1/2+z
_cell_length_a                   13.357(10)
_cell_length_b                   8.073(7)
_cell_length_c                   11.836(10)
_cell_angle_alpha                90
_cell_angle_beta                 90
_cell_angle_gamma                90
_cell_volume                     1276.29
_exptl_crystal_colour            colorless
_exptl_crystal_description       sheet
_cell_formula_units_Z            4
loop_
_atom_site_label
_atom_site_type_symbol
_atom_site_fract_x
_atom_site_fract_y
_atom_site_fract_z
C1 C 0.1425(3) 0.4483(5) 0.2890(3)
H1 H 0.2149 0.4570 0.2871
H2 H 0.1148 0.5593 0.2882
C2 C 0.1061(3) 0.3531(5) 0.1871(3)
H3 H 0.0628 0.4228 0.1416
H4 H 0.1626 0.3195 0.1411
C3 C 0.1561(3) 0.1900(4) 0.3961(4)
H5 H 0.1377 0.1330 0.4652
H6 H 0.2285 0.1977 0.3929
C4 C 0.1171(4) 0.0960(5) 0.2946(4)
H7 H 0.1729 0.0598 0.2483
H8 H 0.0809 -0.0014 0.3197
C5 C -0.0002(3) 0.3487(4) 0.3997(4)
H9 H -0.0291 0.4589 0.4025
H10 H -0.0201 0.2896 0.4674
C6 C -0.0379(3) 0.2578(6) 0.2958(4)
H11 H -0.0771 0.1622 0.3185
H12 H -0.0805 0.3303 0.2515
N1 N 0.1106(2) 0.3603(3) 0.3942(3)
H13 H 0.1346 0.4225 0.4599
N2 N 0.0496(3) 0.2033(4) 0.2265(3)
H14 H 0.0256 0.1412 0.1607
Cl1 Cl 0.22699(6) 0.72133(9) 0.52888(7)
O1 O 0.27479(19) 0.5726(3) 0.4909(3)
O2 O 0.1213(2) 0.7004(4) 0.5168(3)
O3 O 0.2606(3) 0.8556(4) 0.4612(4)
O4 O 0.2507(3) 0.7508(4) 0.6444(3)
H15 H 0.121(4) 0.012(7) 0.014(6)
H16 H 0.062(5) 0.119(11) -0.028(8)
O5 O 0.0658(3) 0.0563(4) 0.0152(3)
Cl2 Cl 0.08844(6) 0.23972(9) 0.71355(8)
O6 O 0.1457(15) 0.345(2) 0.6489(13)
O7 O -0.0155(8) 0.250(2) 0.6776(13)
O8 O 0.1197(12) 0.0757(10) 0.7000(14)
O9 O 0.0914(14) 0.279(2) 0.8294(9)
O10? O 0.119(2) 0.379(2) 0.6412(17)
O11? O -0.0082(13) 0.201(4) 0.692(2)
O12? O 0.159(2) 0.111(3) 0.695(2)
O13? O 0.1040(14) 0.303(3) 0.8275(12)
loop_
_geom_bond_atom_site_label_1
_geom_bond_atom_site_label_2
_geom_bond_site_symmetry_1
_geom_bond_site_symmetry_2
C1 H1 1_555 1_555
H2 C1 1_555 1_555
C2 C1 1_555 1_555
H3 C2 1_555 1_555
H4 C2 1_555 1_555
C3 H5 1_555 1_555
H6 C3 1_555 1_555
C4 C3 1_555 1_555
H7 C4 1_555 1_555
H8 C4 1_555 1_555
C5 H9 1_555 1_555
H10 C5 1_555 1_555
C6 C5 1_555 1_555
H11 C6 1_555 1_555
H12 C6 1_555 1_555
N1 C1 1_555 1_555
H13 N1 1_555 1_555
N2 C2 1_555 1_555
H14 N2 1_555 1_555
Cl1 O1 1_555 1_555
O2 Cl1 1_555 1_555
O3 Cl1 1_555 1_555
O4 Cl1 1_555 1_555
H15 O5 1_555 1_555
H16 O5 1_555 1_555
Cl2 O6 1_555 1_555
O7 Cl2 1_555 1_555
O8 Cl2 1_555 1_555
O9 Cl2 1_555 1_555
C3 N1 1_555 1_555
C4 N2 1_555 1_555
C5 N1 1_555 1_555
C6 N2 1_555 1_555

#END
