
#######################################################################
#
#                 Cambridge Crystallographic Data Centre
#                                CCDC 
#
#######################################################################
#
# If this CIF has been generated from an entry in the Cambridge 
# Structural Database, then it will include bibliographic, chemical, 
# crystal, experimental, refinement or atomic coordinate data resulting 
# from the CCDC's data processing and validation procedures.
#
#######################################################################

data_NAKNOF
_chemical_formula_moiety         'C6 H14 N2 2+,2(B1 F4 1-),H2 O1'
_chemical_name_systematic        
'1,4-diazoniabicyclo[2.2.2]octane bis(tetrafluoroborate) monohydrate'
_symmetry_cell_setting           orthorhombic
_symmetry_space_group_name_H-M   'P c a 21'
_symmetry_Int_Tables_number      29
_space_group_name_Hall           'P 2c -2ac'
loop_
_symmetry_equiv_pos_site_id
_symmetry_equiv_pos_as_xyz
1 x,y,z
2 -x,-y,1/2+z
3 1/2+x,-y,z
4 1/2-x,y,1/2+z
_cell_length_a                   13.231(10)
_cell_length_b                   7.883(7)
_cell_length_c                   11.786(10)
_cell_angle_alpha                90
_cell_angle_beta                 90
_cell_angle_gamma                90
_cell_volume                     1229.28
_exptl_crystal_colour            colorless
_exptl_crystal_description       block
_cell_formula_units_Z            4
loop_
_atom_site_label
_atom_site_type_symbol
_atom_site_fract_x
_atom_site_fract_y
_atom_site_fract_z
O1 O 0.0750(3) 0.0623(5) 1.0122(3)
H1 H 0.131(4) -0.005(8) 1.005(7)
H2 H 0.092(4) 0.138(9) 0.958(7)
C1 C 0.1396(3) 0.4564(4) 0.2924(4)
H3 H 0.2126 0.4664 0.2909
H4 H 0.1110 0.5697 0.2925
C2 C 0.1040(4) 0.3613(6) 0.1893(4)
H5 H 0.0599 0.4329 0.1442
H6 H 0.1614 0.3291 0.1429
C3 C 0.1526(3) 0.1896(4) 0.3982(4)
H7 H 0.1326 0.1302 0.4667
H8 H 0.2258 0.1975 0.3971
C4 C 0.1163(3) 0.0942(5) 0.2957(4)
H9 H 0.1736 0.0592 0.2500
H10 H 0.0800 -0.0067 0.3192
C5 C -0.0056(2) 0.3493(5) 0.4005(3)
H11 H -0.0356 0.4615 0.4035
H12 H -0.0264 0.2871 0.4675
C6 C -0.0404(3) 0.2576(6) 0.2950(4)
H13 H -0.0792 0.1581 0.3161
H14 H -0.0836 0.3314 0.2505
N1 N 0.10730(17) 0.3633(3) 0.3970(2)
H15 H 0.1305 0.4259 0.4640
N2 N 0.0480(2) 0.2061(4) 0.2268(3)
H16 H 0.0248 0.1436 0.1599
B1 B 0.2263(3) 0.7188(5) 0.5311(4)
F1 F 0.27109(17) 0.5689(3) 0.4935(3)
F2 F 0.12298(15) 0.6978(4) 0.5225(3)
F3 F 0.2584(2) 0.8482(4) 0.4620(4)
F4 F 0.2534(2) 0.7471(5) 0.6408(3)
B2 B 0.0908(3) 0.2366(5) 0.7106(4)
F5 F 0.1448(11) 0.340(2) 0.6459(12)
F6 F -0.0063(7) 0.2514(17) 0.6771(10)
F7 F 0.1138(11) 0.0759(10) 0.6916(12)
F8 F 0.0913(15) 0.262(2) 0.8184(13)
F9? F 0.1063(16) 0.3705(13) 0.6428(12)
F10? F 0.0089(13) 0.166(3) 0.6800(15)
F11? F 0.1648(15) 0.123(3) 0.6925(16)
F12? F 0.1044(8) 0.298(2) 0.8239(11)
loop_
_geom_bond_atom_site_label_1
_geom_bond_atom_site_label_2
_geom_bond_site_symmetry_1
_geom_bond_site_symmetry_2
O1 H1 1_555 1_555
H2 O1 1_555 1_555
C1 H3 1_555 1_555
H4 C1 1_555 1_555
C2 C1 1_555 1_555
H5 C2 1_555 1_555
H6 C2 1_555 1_555
C3 H7 1_555 1_555
H8 C3 1_555 1_555
C4 C3 1_555 1_555
H9 C4 1_555 1_555
H10 C4 1_555 1_555
C5 H11 1_555 1_555
H12 C5 1_555 1_555
C6 C5 1_555 1_555
H13 C6 1_555 1_555
H14 C6 1_555 1_555
N1 C1 1_555 1_555
H15 N1 1_555 1_555
N2 C2 1_555 1_555
H16 N2 1_555 1_555
B1 F1 1_555 1_555
F2 B1 1_555 1_555
F3 B1 1_555 1_555
F4 B1 1_555 1_555
B2 F5 1_555 1_555
F6 B2 1_555 1_555
F7 B2 1_555 1_555
F8 B2 1_555 1_555
C3 N1 1_555 1_555
C4 N2 1_555 1_555
C5 N1 1_555 1_555
C6 N2 1_555 1_555

#END
