
#######################################################################
#
#                 Cambridge Crystallographic Data Centre
#                                CCDC 
#
#######################################################################
#
# If this CIF has been generated from an entry in the Cambridge 
# Structural Database, then it will include bibliographic, chemical, 
# crystal, experimental, refinement or atomic coordinate data resulting 
# from the CCDC's data processing and validation procedures.
#
#######################################################################

data_NAKPUL
_chemical_formula_moiety         'C15 H14 N6'
_chemical_name_systematic        2,4-bis(2-Pyridylamino)-6-methylpyrimidine
_symmetry_cell_setting           monoclinic
_symmetry_space_group_name_H-M   'P 21/n'
_symmetry_Int_Tables_number      14
_space_group_name_Hall           '-P 2yn'
loop_
_symmetry_equiv_pos_site_id
_symmetry_equiv_pos_as_xyz
1 x,y,z
2 1/2-x,1/2+y,1/2-z
3 -x,-y,-z
4 1/2+x,1/2-y,1/2+z
_cell_length_a                   9.8006(4)
_cell_length_b                   16.2106(6)
_cell_length_c                   17.2988(7)
_cell_angle_alpha                90
_cell_angle_beta                 91.5387(11)
_cell_angle_gamma                90
_cell_volume                     2747.33
_exptl_crystal_colour            colorless
_exptl_crystal_description       block
_cell_formula_units_Z            8
loop_
_atom_site_label
_atom_site_type_symbol
_atom_site_fract_x
_atom_site_fract_y
_atom_site_fract_z
N1 N 0.5021(2) 0.16353(15) 0.17769(13)
N2 N 0.3717(2) 0.09924(14) 0.08559(13)
H1 H 0.3240 0.0848 0.1243
N3 N 0.3972(2) 0.08332(13) -0.04783(12)
N4 N 0.4106(3) 0.06461(15) -0.18130(13)
H2 H 0.3844 0.0354 -0.2205
N5 N 0.4816(3) 0.16291(16) -0.26548(14)
N6 N 0.2398(2) 0.00172(15) 0.02342(14)
C1 C 0.6001(3) 0.2166(2) 0.19891(19)
H5 H 0.6232 0.2205 0.2513
C2 C 0.6694(3) 0.2658(2) 0.1486(2)
H6 H 0.7384 0.3010 0.1660
C3 C 0.6327(3) 0.26080(19) 0.07194(19)
H7 H 0.6761 0.2940 0.0363
C4 C 0.5322(3) 0.20721(18) 0.04720(17)
H8 H 0.5056 0.2042 -0.0047
C5 C 0.4714(3) 0.15764(17) 0.10191(15)
C6 C 0.3372(3) 0.06079(16) 0.01694(15)
C7 C 0.2053(3) -0.03840(17) -0.04261(18)
C8 C 0.2616(3) -0.01917(17) -0.11147(17)
H9 H 0.2363 -0.0468 -0.1567
C9 C 0.3569(3) 0.04254(18) -0.11124(16)
C10 C 0.5017(3) 0.12821(17) -0.19663(16)
C11 C 0.6078(3) 0.15104(19) -0.14615(18)
H10 H 0.6221 0.1238 -0.0993
C12 C 0.6909(3) 0.2149(2) -0.16734(19)
H11 H 0.7625 0.2318 -0.1347
C13 C 0.6677(4) 0.2540(2) -0.2373(2)
H12 H 0.7208 0.2985 -0.2522
C14 C 0.5644(4) 0.2251(2) -0.28352(19)
H13 H 0.5502 0.2504 -0.3313
C15 C 0.1006(3) -0.1052(2) -0.0371(2)
H14 H 0.0727 -0.1101 0.0155
H15 H 0.1391 -0.1566 -0.0536
H16 H 0.0229 -0.0919 -0.0697
N7 N 0.2580(3) -0.01353(16) 0.67402(14)
N8 N 0.3623(2) 0.06831(15) 0.58587(13)
H3 H 0.3975 0.0906 0.6269
N9 N 0.3676(2) 0.06612(14) 0.45103(13)
N10 N 0.3826(2) 0.06854(15) 0.31622(13)
H4 H 0.4282 0.0865 0.2779
N11 N 0.2214(2) 0.02810(15) 0.22670(13)
N12 N 0.5100(3) 0.15760(18) 0.52555(17)
C16 C 0.1673(4) -0.0720(2) 0.6908(2)
H17 H 0.1630 -0.0888 0.7421
C17 C 0.0810(4) -0.1087(2) 0.6384(2)
H18 H 0.0213 -0.1500 0.6532
C18 C 0.0849(4) -0.0828(2) 0.5639(2)
H19 H 0.0258 -0.1057 0.5267
C19 C 0.1761(3) -0.0231(2) 0.54329(18)
H20 H 0.1791 -0.0046 0.4925
C20 C 0.2635(3) 0.00890(17) 0.59961(16)
C21 C 0.4132(3) 0.09729(17) 0.51793(16)
C22 C 0.5606(3) 0.18728(19) 0.4578(2)
C23 C 0.5183(3) 0.15855(17) 0.38743(16)
H21 H 0.5520 0.1796 0.3417
C25 C 0.4240(3) 0.09749(17) 0.38772(16)
C26 C 0.2769(3) 0.01411(17) 0.29702(16)
C27 C 0.2356(3) -0.04946(18) 0.34432(17)
H23 H 0.2810 -0.0603 0.3911
C28 C 0.1257(4) -0.0960(2) 0.3201(2)
H24 H 0.0941 -0.1384 0.3511
C29 C 0.0622(4) -0.0800(2) 0.2497(2)
H25 H -0.0148 -0.1094 0.2333
C30 C 0.1156(3) -0.0197(2) 0.20504(19)
H26 H 0.0762 -0.0111 0.1562
C31 C 0.6660(4) 0.2548(2) 0.4615(3)
H27 H 0.6917 0.2690 0.4100
H28 H 0.7448 0.2360 0.4905
H29 H 0.6286 0.3024 0.4863
N13? N 0.5183(3) 0.15855(17) 0.38743(16)
C24? C 0.5100(3) 0.15760(18) 0.52555(17)
H22? H 0.5398 0.1773 0.5736
loop_
_geom_bond_atom_site_label_1
_geom_bond_atom_site_label_2
_geom_bond_site_symmetry_1
_geom_bond_site_symmetry_2
N1 C1 1_555 1_555
N2 H1 1_555 1_555
N3 C6 1_555 1_555
N4 H2 1_555 1_555
N5 C10 1_555 1_555
N6 C6 1_555 1_555
N7 C16 1_555 1_555
N8 H3 1_555 1_555
N9 C21 1_555 1_555
N10 H4 1_555 1_555
N11 C26 1_555 1_555
N12 C21 1_555 1_555
C1 H5 1_555 1_555
C2 C1 1_555 1_555
H6 C2 1_555 1_555
C3 C2 1_555 1_555
H7 C3 1_555 1_555
C4 C3 1_555 1_555
H8 C4 1_555 1_555
C5 N1 1_555 1_555
C6 N2 1_555 1_555
C7 N6 1_555 1_555
C8 C7 1_555 1_555
H9 C8 1_555 1_555
C9 N3 1_555 1_555
C10 N4 1_555 1_555
C11 C10 1_555 1_555
H10 C11 1_555 1_555
C12 C11 1_555 1_555
H11 C12 1_555 1_555
C13 C12 1_555 1_555
H12 C13 1_555 1_555
C14 N5 1_555 1_555
H13 C14 1_555 1_555
C15 C7 1_555 1_555
H14 C15 1_555 1_555
H15 C15 1_555 1_555
H16 C15 1_555 1_555
C16 H17 1_555 1_555
C17 C16 1_555 1_555
H18 C17 1_555 1_555
C18 C17 1_555 1_555
H19 C18 1_555 1_555
C19 C18 1_555 1_555
H20 C19 1_555 1_555
C20 N7 1_555 1_555
C21 N8 1_555 1_555
C22 N12 1_555 1_555
C23 C22 1_555 1_555
H21 C23 1_555 1_555
C25 N9 1_555 1_555
C26 N10 1_555 1_555
C27 C26 1_555 1_555
H23 C27 1_555 1_555
C28 C27 1_555 1_555
H24 C28 1_555 1_555
C29 C28 1_555 1_555
H25 C29 1_555 1_555
C30 N11 1_555 1_555
H26 C30 1_555 1_555
C31 C22 1_555 1_555
H27 C31 1_555 1_555
H28 C31 1_555 1_555
H29 C31 1_555 1_555
N2 C5 1_555 1_555
N4 C9 1_555 1_555
N8 C20 1_555 1_555
N10 C25 1_555 1_555
C4 C5 1_555 1_555
C8 C9 1_555 1_555
C13 C14 1_555 1_555
C19 C20 1_555 1_555
C23 C25 1_555 1_555
C29 C30 1_555 1_555

#END
