
#######################################################################
#
#                 Cambridge Crystallographic Data Centre
#                                CCDC 
#
#######################################################################
#
# If this CIF has been generated from an entry in the Cambridge 
# Structural Database, then it will include bibliographic, chemical, 
# crystal, experimental, refinement or atomic coordinate data resulting 
# from the CCDC's data processing and validation procedures.
#
#######################################################################

data_NAKSAW
_chemical_name_common            
2-(2-(6-iodo-4,7-bis(trimethylsilyl)-1,3-benzodioxol-5-yl)-3,4,5-trimethoxyphenyl)-4-isopropyl-4,5-dihydro-1,3-oxazole
_chemical_formula_moiety         'C28 H40 I1 N1 O6 Si2'
_chemical_name_systematic        
(S)-2-((R)-2-(6-iodo-4,7-bis(trimethylsilyl)benzo[d][1,3]dioxol-5-yl)-3,4,5-trimethoxyphenyl)-4-isopropyl-4,5-dihydrooxazole
_symmetry_cell_setting           monoclinic
_symmetry_space_group_name_H-M   'P 21'
_symmetry_Int_Tables_number      4
_space_group_name_Hall           'P 2yb'
loop_
_symmetry_equiv_pos_site_id
_symmetry_equiv_pos_as_xyz
1 x,y,z
2 -x,1/2+y,-z
_cell_length_a                   10.5602(2)
_cell_length_b                   15.1516(3)
_cell_length_c                   11.1432(3)
_cell_angle_alpha                90
_cell_angle_beta                 118.3530(10)
_cell_angle_gamma                90
_cell_volume                     1569.07
_exptl_crystal_colour            colorless
_exptl_crystal_description       prism
_cell_formula_units_Z            2
loop_
_atom_site_label
_atom_site_type_symbol
_atom_site_fract_x
_atom_site_fract_y
_atom_site_fract_z
C1 C 0.5515(4) 0.4485(2) 0.7343(4)
C2 C 0.5003(4) 0.3645(2) 0.7490(4)
C3 C 0.6067(4) 0.3091(2) 0.8383(4)
C4 C 0.7508(4) 0.3308(2) 0.9109(4)
C5 C 0.8065(4) 0.4119(2) 0.9034(4)
C6 C 0.6976(4) 0.4689(2) 0.8089(4)
C7 C 0.7254(4) 0.1895(3) 0.9540(5)
H1 H 0.7481 0.1436 0.9039
H2 H 0.7298 0.1623 1.0367
C8 C 0.2635(5) 0.2658(6) 0.7789(7)
H3 H 0.1624 0.2474 0.7323
H4 H 0.2785 0.3086 0.8505
H5 H 0.3249 0.2141 0.8199
C9 C 0.3187(5) 0.2336(3) 0.5354(5)
H6 H 0.2253 0.2040 0.4867
H7 H 0.3931 0.1899 0.5881
H8 H 0.3420 0.2622 0.4694
C10 C 0.1668(5) 0.3998(3) 0.5532(6)
H9 H 0.1849 0.4261 0.4824
H10 H 0.1667 0.4462 0.6144
H11 H 0.0732 0.3700 0.5105
C11 C 1.0967(6) 0.3505(5) 1.1388(9)
H12 H 1.1124 0.3017 1.0895
H13 H 1.0378 0.3298 1.1796
H14 H 1.1896 0.3715 1.2108
C12 C 1.0987(6) 0.4629(4) 0.9179(7)
H15 H 1.1983 0.4800 0.9797
H16 H 1.0505 0.5105 0.8523
H17 H 1.0981 0.4091 0.8688
C13 C 1.0119(7) 0.5399(4) 1.1246(6)
H18 H 0.9310 0.5383 1.1447
H19 H 1.0070 0.5942 1.0749
H20 H 1.1027 0.5385 1.2102
C14 C 0.4470(4) 0.5180(2) 0.6474(4)
C15 C 0.4138(4) 0.5395(2) 0.5137(4)
C16 C 0.3263(4) 0.6128(2) 0.4478(4)
H21 H 0.3088 0.6285 0.3586
C17 C 0.2656(4) 0.6621(2) 0.5118(4)
C18 C 0.2915(4) 0.6388(2) 0.6429(4)
C19 C 0.3830(4) 0.5684(2) 0.7095(4)
C20 C 0.1700(5) 0.7681(3) 0.3323(5)
H22 H 0.2673 0.7788 0.3455
H23 H 0.1159 0.8236 0.3084
H24 H 0.1211 0.7252 0.2586
C21 C 0.0851(5) 0.6749(4) 0.6612(6)
H25 H 0.0331 0.6955 0.5666
H26 H 0.0539 0.7089 0.7173
H27 H 0.0649 0.6122 0.6652
C22 C 0.5089(5) 0.5989(5) 0.9441(4)
H28 H 0.6053 0.5839 0.9581
H29 H 0.5041 0.5882 1.0286
H30 H 0.4891 0.6613 0.9189
C23 C 0.4644(4) 0.4890(2) 0.4310(4)
C24 C 0.5305(5) 0.3674(3) 0.3602(4)
H31 H 0.4538 0.3238 0.3087
H32 H 0.6252 0.3382 0.3951
C25 C 0.5194(5) 0.4467(3) 0.2702(5)
H33 H 0.4489 0.4328 0.1734
C26 C 0.6619(6) 0.4760(3) 0.2774(5)
H34 H 0.6454 0.5353 0.2329
C27 C 0.7834(6) 0.4863(4) 0.4243(6)
H35 H 0.8100 0.4281 0.4677
H36 H 0.7506 0.5239 0.4756
H37 H 0.8672 0.5134 0.4235
C28 C 0.7035(9) 0.4129(5) 0.1955(9)
H38 H 0.7147 0.3532 0.2331
H39 H 0.7946 0.4321 0.2005
H40 H 0.6281 0.4128 0.1001
N1 N 0.4587(4) 0.5172(2) 0.3207(4)
O1 O 0.5856(3) 0.22420(18) 0.8699(3)
O2 O 0.8264(3) 0.2599(2) 0.9913(4)
O3 O 0.1785(3) 0.73411(18) 0.4555(3)
O4 O 0.2354(3) 0.6870(2) 0.7114(3)
O5 O 0.4043(4) 0.5453(2) 0.8373(3)
O6 O 0.5128(3) 0.40536(18) 0.4715(3)
Si1 Si 0.31081(11) 0.31805(7) 0.65271(12)
Si2 Si 1.00223(13) 0.44217(9) 1.01813(14)
I1 I 0.76180(3) 0.59556(2) 0.77421(3)
loop_
_geom_bond_atom_site_label_1
_geom_bond_atom_site_label_2
_geom_bond_site_symmetry_1
_geom_bond_site_symmetry_2
C1 C2 1_555 1_555
C2 C3 1_555 1_555
C3 C4 1_555 1_555
C4 C5 1_555 1_555
C5 C6 1_555 1_555
C6 C1 1_555 1_555
C7 H1 1_555 1_555
H2 C7 1_555 1_555
C8 H3 1_555 1_555
H4 C8 1_555 1_555
H5 C8 1_555 1_555
C9 H6 1_555 1_555
H7 C9 1_555 1_555
H8 C9 1_555 1_555
C10 H9 1_555 1_555
H10 C10 1_555 1_555
H11 C10 1_555 1_555
C11 H12 1_555 1_555
H13 C11 1_555 1_555
H14 C11 1_555 1_555
C12 H15 1_555 1_555
H16 C12 1_555 1_555
H17 C12 1_555 1_555
C13 H18 1_555 1_555
H19 C13 1_555 1_555
H20 C13 1_555 1_555
C14 C1 1_555 1_555
C15 C14 1_555 1_555
C16 C15 1_555 1_555
H21 C16 1_555 1_555
C17 C16 1_555 1_555
C18 C17 1_555 1_555
C19 C14 1_555 1_555
C20 H22 1_555 1_555
H23 C20 1_555 1_555
H24 C20 1_555 1_555
C21 H25 1_555 1_555
H26 C21 1_555 1_555
H27 C21 1_555 1_555
C22 H28 1_555 1_555
H29 C22 1_555 1_555
H30 C22 1_555 1_555
C23 C15 1_555 1_555
C24 H31 1_555 1_555
H32 C24 1_555 1_555
C25 C24 1_555 1_555
H33 C25 1_555 1_555
C26 C25 1_555 1_555
H34 C26 1_555 1_555
C27 C26 1_555 1_555
H35 C27 1_555 1_555
H36 C27 1_555 1_555
H37 C27 1_555 1_555
C28 C26 1_555 1_555
H38 C28 1_555 1_555
H39 C28 1_555 1_555
H40 C28 1_555 1_555
N1 C23 1_555 1_555
O1 C3 1_555 1_555
O2 C4 1_555 1_555
O3 C17 1_555 1_555
O4 C18 1_555 1_555
O5 C19 1_555 1_555
O6 C23 1_555 1_555
Si1 C2 1_555 1_555
Si2 C5 1_555 1_555
I1 C6 1_555 1_555
C7 O1 1_555 1_555
C7 O2 1_555 1_555
C8 Si1 1_555 1_555
C9 Si1 1_555 1_555
C10 Si1 1_555 1_555
C11 Si2 1_555 1_555
C12 Si2 1_555 1_555
C13 Si2 1_555 1_555
C18 C19 1_555 1_555
C20 O3 1_555 1_555
C21 O4 1_555 1_555
C22 O5 1_555 1_555
C24 O6 1_555 1_555
C25 N1 1_555 1_555

#END
