
#######################################################################
#
#                 Cambridge Crystallographic Data Centre
#                                CCDC 
#
#######################################################################
#
# If this CIF has been generated from an entry in the Cambridge 
# Structural Database, then it will include bibliographic, chemical, 
# crystal, experimental, refinement or atomic coordinate data resulting 
# from the CCDC's data processing and validation procedures.
#
#######################################################################

data_NAKVIH
_chemical_formula_moiety         'C44 H48 N8 O4,C1 H4 O1'
_chemical_name_systematic        
'14,29-di-t-butyl-2,5,38,41-tetraoxa-8,9,10,18,25,33,34,35-octaazanonacyclo[40.3.1.1^8,11^.1^32,35^.0^12,17^.0^16,20^.0^19,24^.0^23,27^.0^26,31^]octatetraconta-1(46),9,11(48),12,14,16,19,21,23,26,28,30,32(47),33,42,44-hexadecaene methanol solvate'
_symmetry_cell_setting           monoclinic
_symmetry_space_group_name_H-M   'P 21/c'
_symmetry_Int_Tables_number      14
_space_group_name_Hall           '-P 2ybc'
loop_
_symmetry_equiv_pos_site_id
_symmetry_equiv_pos_as_xyz
1 x,y,z
2 -x,1/2+y,1/2-z
3 -x,-y,-z
4 x,1/2-y,1/2+z
_cell_length_a                   15.612(3)
_cell_length_b                   13.356(3)
_cell_length_c                   20.763(4)
_cell_angle_alpha                90
_cell_angle_beta                 102.05(3)
_cell_angle_gamma                90
_cell_volume                     4233.98
_exptl_crystal_colour            colorless
_exptl_crystal_description       block
_cell_formula_units_Z            4
loop_
_atom_site_label
_atom_site_type_symbol
_atom_site_fract_x
_atom_site_fract_y
_atom_site_fract_z
O1 O -0.13776(11) 0.67917(13) 0.22177(9)
O2 O -0.27983(10) 0.81278(13) 0.25299(8)
O3 O 0.28467(10) 0.59411(12) 0.39364(8)
O4 O 0.14038(10) 0.52910(12) 0.29734(8)
N1 N -0.20125(12) 0.72288(14) 0.37738(9)
N2 N -0.12184(13) 0.68578(14) 0.40466(10)
N3 N -0.12906(12) 0.58695(14) 0.40150(10)
N4 N -0.09378(11) 0.37552(13) 0.39570(9)
H1 H -0.0592 0.4282 0.4008
N5 N 0.09916(11) 0.28010(13) 0.43828(9)
H2 H 0.1094 0.3449 0.4398
N6 N 0.38502(14) 0.30376(17) 0.53018(12)
N7 N 0.41636(14) 0.39520(17) 0.53655(12)
N8 N 0.35453(12) 0.45600(15) 0.50248(10)
C1 C 0.01574(16) 0.42642(19) 0.26965(12)
H3 H 0.0520 0.3697 0.2826
C2 C -0.07285(17) 0.4152(2) 0.24610(12)
H4 H -0.0971 0.3497 0.2422
C3 C -0.12788(16) 0.49660(19) 0.22791(12)
H5 H -0.1889 0.4875 0.2114
C4 C -0.09165(15) 0.59087(18) 0.23445(11)
C5 C -0.00199(15) 0.60502(19) 0.25679(12)
H6 H 0.0222 0.6705 0.2600
C6 C 0.05133(15) 0.52263(18) 0.27424(11)
C7 C -0.22934(15) 0.6740(2) 0.19401(12)
H7 H -0.2592 0.6316 0.2217
H8 H -0.2393 0.6447 0.1493
C8 C -0.26449(16) 0.7788(2) 0.19101(12)
H9 H -0.2223 0.8244 0.1764
H10 H -0.3201 0.7817 0.1578
C9 C -0.20637(17) 0.85590(18) 0.29661(11)
H11 H -0.2064 0.9295 0.2908
H12 H -0.1513 0.8288 0.2872
C10 C -0.21316(17) 0.83027(17) 0.36633(12)
H13 H -0.1678 0.8673 0.3979
H14 H -0.2713 0.8506 0.3738
C11 C -0.25855(15) 0.64955(17) 0.35672(11)
H15 H -0.3186 0.6565 0.3362
C12 C -0.21262(14) 0.56199(17) 0.37134(11)
C13 C -0.24113(14) 0.45838(17) 0.35894(11)
C14 C -0.32843(15) 0.43619(18) 0.33191(11)
H16 H -0.3686 0.4903 0.3224
C15 C -0.36067(15) 0.33878(19) 0.31784(12)
C16 C -0.30241(15) 0.25939(18) 0.33355(11)
H17 H -0.3227 0.1926 0.3256
C17 C -0.21381(14) 0.27754(17) 0.36116(11)
C18 C -0.18351(14) 0.37702(17) 0.37171(11)
C19 C -0.45773(15) 0.3253(2) 0.28552(12)
C20 C -0.4749(2) 0.3715(3) 0.21654(16)
H18 H -0.4392 0.3372 0.1897
H19 H -0.4595 0.4427 0.2198
H20 H -0.5371 0.3642 0.1959
C21 C -0.51437(19) 0.3790(3) 0.32661(19)
H21 H -0.5041 0.3496 0.3708
H22 H -0.5763 0.3716 0.3054
H23 H -0.4990 0.4502 0.3299
C22 C -0.4852(2) 0.2161(2) 0.27888(18)
H24 H -0.4498 0.1806 0.2524
H25 H -0.5472 0.2116 0.2573
H26 H -0.4764 0.1855 0.3227
C23 C -0.13835(14) 0.21318(17) 0.38060(11)
C24 C -0.12801(16) 0.10804(18) 0.38379(12)
H27 H -0.1776 0.0656 0.3718
C25 C -0.04616(16) 0.06753(18) 0.40416(12)
H28 H -0.0388 -0.0031 0.4064
C26 C 0.02675(15) 0.13081(17) 0.42168(11)
C27 C 0.01766(14) 0.23559(16) 0.41949(11)
C28 C -0.06585(14) 0.27727(16) 0.39979(10)
C29 C 0.11946(15) 0.11197(17) 0.44363(11)
C30 C 0.16758(16) 0.02286(17) 0.45353(12)
H29 H 0.1385 -0.0399 0.4462
C31 C 0.25811(16) 0.02663(18) 0.47410(12)
C32 C 0.29806(16) 0.12051(17) 0.48616(11)
H30 H 0.3598 0.1224 0.5012
C33 C 0.25308(15) 0.21159(17) 0.47746(11)
C34 C 0.16181(14) 0.20577(17) 0.45437(11)
C35 C 0.31533(18) -0.06830(19) 0.48237(14)
C36 C 0.2604(2) -0.1636(2) 0.47168(18)
H31 H 0.2234 -0.1630 0.4273
H32 H 0.2232 -0.1669 0.5043
H33 H 0.2991 -0.2220 0.4766
C37 C 0.3726(2) -0.0708(2) 0.55200(16)
H34 H 0.3351 -0.0734 0.5844
H35 H 0.4091 -0.0104 0.5593
H36 H 0.4103 -0.1302 0.5568
C38 C 0.3748(2) -0.0653(2) 0.43200(17)
H37 H 0.3386 -0.0648 0.3873
H38 H 0.4127 -0.1245 0.4376
H39 H 0.4110 -0.0047 0.4389
C39 C 0.30200(14) 0.30500(17) 0.49233(11)
C40 C 0.28260(14) 0.40273(18) 0.47516(11)
H40 H 0.2295 0.4278 0.4493
C41 C 0.37361(16) 0.56256(18) 0.49797(12)
H41 H 0.4318 0.5772 0.5260
H42 H 0.3294 0.6021 0.5149
C42 C 0.37309(15) 0.59387(18) 0.42836(12)
H43 H 0.3988 0.6615 0.4277
H44 H 0.4079 0.5464 0.4077
C43 C 0.27503(15) 0.6167(2) 0.32608(12)
H45 H 0.3009 0.5628 0.3036
H46 H 0.3054 0.6802 0.3205
C44 C 0.17916(16) 0.62610(19) 0.29723(12)
H47 H 0.1517 0.6733 0.3237
H48 H 0.1701 0.6521 0.2517
O5 O -0.07248(10) 0.51156(12) 0.53840(8)
H49 H -0.0885 0.5329 0.4997
C45 C -0.08857(17) 0.40936(18) 0.55251(13)
H50 H -0.0768 0.3994 0.6003
H51 H -0.0501 0.3658 0.5331
H52 H -0.1498 0.3928 0.5338
loop_
_geom_bond_atom_site_label_1
_geom_bond_atom_site_label_2
_geom_bond_site_symmetry_1
_geom_bond_site_symmetry_2
O1 C4 1_555 1_555
O2 C8 1_555 1_555
O3 C42 1_555 1_555
O4 C6 1_555 1_555
N1 N2 1_555 1_555
N2 N3 1_555 1_555
N3 C12 1_555 1_555
N4 H1 1_555 1_555
N5 H2 1_555 1_555
N6 N7 1_555 1_555
N7 N8 1_555 1_555
N8 C40 1_555 1_555
C1 H3 1_555 1_555
C2 C1 1_555 1_555
H4 C2 1_555 1_555
C3 C2 1_555 1_555
H5 C3 1_555 1_555
C4 C3 1_555 1_555
C5 C4 1_555 1_555
H6 C5 1_555 1_555
C6 C1 1_555 1_555
C7 O1 1_555 1_555
H7 C7 1_555 1_555
H8 C7 1_555 1_555
C8 C7 1_555 1_555
H9 C8 1_555 1_555
H10 C8 1_555 1_555
C9 O2 1_555 1_555
H11 C9 1_555 1_555
H12 C9 1_555 1_555
C10 N1 1_555 1_555
H13 C10 1_555 1_555
H14 C10 1_555 1_555
C11 N1 1_555 1_555
H15 C11 1_555 1_555
C12 C11 1_555 1_555
C13 C12 1_555 1_555
C14 C13 1_555 1_555
H16 C14 1_555 1_555
C15 C14 1_555 1_555
C16 C15 1_555 1_555
H17 C16 1_555 1_555
C17 C16 1_555 1_555
C18 N4 1_555 1_555
C19 C15 1_555 1_555
C20 C19 1_555 1_555
H18 C20 1_555 1_555
H19 C20 1_555 1_555
H20 C20 1_555 1_555
C21 C19 1_555 1_555
H21 C21 1_555 1_555
H22 C21 1_555 1_555
H23 C21 1_555 1_555
C22 C19 1_555 1_555
H24 C22 1_555 1_555
H25 C22 1_555 1_555
H26 C22 1_555 1_555
C23 C17 1_555 1_555
C24 C23 1_555 1_555
H27 C24 1_555 1_555
C25 C24 1_555 1_555
H28 C25 1_555 1_555
C26 C25 1_555 1_555
C27 N5 1_555 1_555
C28 N4 1_555 1_555
C29 C26 1_555 1_555
C30 C29 1_555 1_555
H29 C30 1_555 1_555
C31 C30 1_555 1_555
C32 C31 1_555 1_555
H30 C32 1_555 1_555
C33 C32 1_555 1_555
C34 N5 1_555 1_555
C35 C31 1_555 1_555
C36 C35 1_555 1_555
H31 C36 1_555 1_555
H32 C36 1_555 1_555
H33 C36 1_555 1_555
C37 C35 1_555 1_555
H34 C37 1_555 1_555
H35 C37 1_555 1_555
H36 C37 1_555 1_555
C38 C35 1_555 1_555
H37 C38 1_555 1_555
H38 C38 1_555 1_555
H39 C38 1_555 1_555
C39 N6 1_555 1_555
C40 C39 1_555 1_555
H40 C40 1_555 1_555
C41 N8 1_555 1_555
H41 C41 1_555 1_555
H42 C41 1_555 1_555
C42 C41 1_555 1_555
H43 C42 1_555 1_555
H44 C42 1_555 1_555
C43 O3 1_555 1_555
H45 C43 1_555 1_555
H46 C43 1_555 1_555
C44 O4 1_555 1_555
H47 C44 1_555 1_555
H48 C44 1_555 1_555
O5 H49 1_555 1_555
C45 O5 1_555 1_555
H50 C45 1_555 1_555
H51 C45 1_555 1_555
H52 C45 1_555 1_555
C5 C6 1_555 1_555
C9 C10 1_555 1_555
C13 C18 1_555 1_555
C17 C18 1_555 1_555
C23 C28 1_555 1_555
C26 C27 1_555 1_555
C27 C28 1_555 1_555
C29 C34 1_555 1_555
C33 C34 1_555 1_555
C33 C39 1_555 1_555
C43 C44 1_555 1_555

#END
