
#######################################################################
#
#                 Cambridge Crystallographic Data Centre
#                                CCDC 
#
#######################################################################
#
# If this CIF has been generated from an entry in the Cambridge 
# Structural Database, then it will include bibliographic, chemical, 
# crystal, experimental, refinement or atomic coordinate data resulting 
# from the CCDC's data processing and validation procedures.
#
#######################################################################

data_NAKXEC
_chemical_name_common            
'7,10-dithiabenzofluoranthene 2,5-dibromo-7,7,8,8-tetracyanoquinodimethane'
_chemical_formula_moiety         'C18 H10 S2,C12 H2 Br2 N4'
_chemical_name_systematic        
'Acenaphtho(1,2-b)(1,4)benzodithiine 2,5-dibromo-7,7,8,8-tetracyanoquinodimethane'
_symmetry_cell_setting           triclinic
_symmetry_space_group_name_H-M   'P -1'
_symmetry_Int_Tables_number      2
_space_group_name_Hall           '-P 1'
loop_
_symmetry_equiv_pos_site_id
_symmetry_equiv_pos_as_xyz
1 x,y,z
2 -x,-y,-z
_cell_length_a                   7.0648(8)
_cell_length_b                   10.2871(12)
_cell_length_c                   18.8222(15)
_cell_angle_alpha                97.337(8)
_cell_angle_beta                 98.577(8)
_cell_angle_gamma                109.071(8)
_cell_volume                     1255.4
_exptl_crystal_colour            black
_cell_formula_units_Z            2
loop_
_atom_site_label
_atom_site_type_symbol
_atom_site_fract_x
_atom_site_fract_y
_atom_site_fract_z
Br1 Br 0.06468(8) 0.15121(5) 0.31034(2)
Br2 Br 0.56033(7) 0.71973(4) 0.19548(2)
C1 C 0.1817(7) 0.3151(4) 0.1984(2)
C2 C 0.2036(7) 0.3123(4) 0.2762(2)
C3 C 0.3187(7) 0.4270(4) 0.3273(2)
H1 H 0.3380(68) 0.4216(47) 0.3738(26)
C4 C 0.4242(7) 0.5607(4) 0.3083(2)
C5 C 0.4148(6) 0.5611(4) 0.2307(2)
C6 C 0.3027(7) 0.4453(5) 0.1803(2)
H2 H 0.2992(77) 0.4504(54) 0.1301(29)
C7 C 0.0572(7) 0.2079(5) 0.1413(2)
C8 C 0.0466(7) 0.2275(4) 0.0675(2)
C9 C -0.0706(8) 0.0693(5) 0.1460(2)
C10 C 0.5176(7) 0.6755(4) 0.3651(2)
C11 C 0.6200(8) 0.8175(5) 0.3577(3)
C12 C 0.5096(7) 0.6623(5) 0.4396(2)
N1 N 0.0327(7) 0.2397(5) 0.0071(2)
N2 N -0.1787(7) -0.0445(4) 0.1394(2)
N3 N 0.7003(8) 0.9356(4) 0.3615(2)
N4 N 0.5052(7) 0.6570(5) 0.4998(2)
S1 S 1.0470(2) 0.67042(11) 0.25133(6)
S2 S 0.8464(2) 0.43125(12) 0.36220(6)
C13 C 0.7758(7) 0.4383(5) 0.1474(2)
C14 C 0.7829(8) 0.4828(6) 0.0817(3)
H3 H 0.8673(92) 0.5719(64) 0.0834(32)
C15 C 0.6611(9) 0.3848(6) 0.0171(3)
H4 H 0.6696(94) 0.4120(66) -0.0308(34)
C16 C 0.5370(9) 0.2519(6) 0.0180(3)
H5 H 0.454(10) 0.1902(71) -0.0228(37)
C17 C 0.4053(8) 0.0717(5) 0.0980(3)
H6 H 0.318(10) 0.0092(70) 0.0607(37)
C18 C 0.4110(8) 0.0461(5) 0.1684(3)
H7 H 0.331(10) -0.0381(74) 0.1736(37)
C19 C 0.5340(8) 0.1466(5) 0.2317(3)
H8 H 0.5374(87) 0.1239(61) 0.2768(33)
C20 C 0.6529(7) 0.2758(5) 0.2208(2)
C21 C 0.6479(7) 0.3008(5) 0.1478(2)
C22 C 0.5266(8) 0.2035(5) 0.0855(3)
C23 C 0.8696(7) 0.5016(4) 0.2247(2)
C24 C 0.7951(7) 0.4077(5) 0.2679(2)
C25 C 1.0549(7) 0.7084(5) 0.3459(2)
C26 C 0.9687(7) 0.6147(5) 0.3896(2)
C27 C 0.9858(9) 0.6644(6) 0.4640(3)
H9 H 0.9169(91) 0.6052(64) 0.4938(33)
C28 C 1.0903(10) 0.8037(6) 0.4949(3)
H10 H 1.101(11) 0.8357(76) 0.5462(40)
C29 C 1.1796(10) 0.8973(6) 0.4522(3)
H11 H 1.249(11) 0.9887(78) 0.4714(39)
C30 C 1.1591(8) 0.8509(5) 0.3778(3)
H12 H 1.2086(77) 0.9157(54) 0.3468(27)
loop_
_geom_bond_atom_site_label_1
_geom_bond_atom_site_label_2
_geom_bond_site_symmetry_1
_geom_bond_site_symmetry_2
Br1 C2 1_555 1_555
Br2 C5 1_555 1_555
C1 C2 1_555 1_555
C2 C3 1_555 1_555
C3 H1 1_555 1_555
C4 C3 1_555 1_555
C5 C4 1_555 1_555
C6 C1 1_555 1_555
H2 C6 1_555 1_555
C7 C1 1_555 1_555
C8 C7 1_555 1_555
C9 C7 1_555 1_555
C10 C4 1_555 1_555
C11 C10 1_555 1_555
C12 C10 1_555 1_555
N1 C8 1_555 1_555
N2 C9 1_555 1_555
N3 C11 1_555 1_555
N4 C12 1_555 1_555
S1 C23 1_555 1_555
S2 C24 1_555 1_555
C13 C14 1_555 1_555
C14 H3 1_555 1_555
C15 C14 1_555 1_555
H4 C15 1_555 1_555
C16 C15 1_555 1_555
H5 C16 1_555 1_555
C17 H6 1_555 1_555
C18 C17 1_555 1_555
H7 C18 1_555 1_555
C19 C18 1_555 1_555
H8 C19 1_555 1_555
C20 C19 1_555 1_555
C21 C13 1_555 1_555
C22 C16 1_555 1_555
C23 C13 1_555 1_555
C24 C20 1_555 1_555
C25 S1 1_555 1_555
C26 S2 1_555 1_555
C27 C26 1_555 1_555
H9 C27 1_555 1_555
C28 C27 1_555 1_555
H10 C28 1_555 1_555
C29 C28 1_555 1_555
H11 C29 1_555 1_555
C30 C25 1_555 1_555
H12 C30 1_555 1_555
C5 C6 1_555 1_555
C17 C22 1_555 1_555
C20 C21 1_555 1_555
C21 C22 1_555 1_555
C23 C24 1_555 1_555
C25 C26 1_555 1_555
C29 C30 1_555 1_555

#END
