
#######################################################################
#
#                 Cambridge Crystallographic Data Centre
#                                CCDC 
#
#######################################################################
#
# If this CIF has been generated from an entry in the Cambridge 
# Structural Database, then it will include bibliographic, chemical, 
# crystal, experimental, refinement or atomic coordinate data resulting 
# from the CCDC's data processing and validation procedures.
#
#######################################################################

data_NAKXAY
_chemical_name_common            7,10-Dithiabenzofluoranthene
_chemical_formula_moiety         'C18 H10 S2'
_chemical_name_systematic        Acenaphtho(1,2-b)(1,4)benzodithiine
_symmetry_cell_setting           monoclinic
_symmetry_space_group_name_H-M   'P 21/c'
_symmetry_Int_Tables_number      14
_space_group_name_Hall           '-P 2ybc'
loop_
_symmetry_equiv_pos_site_id
_symmetry_equiv_pos_as_xyz
1 x,y,z
2 -x,1/2+y,1/2-z
3 -x,-y,-z
4 x,1/2-y,1/2+z
_cell_length_a                   16.562(8)
_cell_length_b                   10.664(4)
_cell_length_c                   7.645(3)
_cell_angle_alpha                90
_cell_angle_beta                 94.55(3)
_cell_angle_gamma                90
_cell_volume                     1345.98
_exptl_crystal_colour            red
_chemical_melting_point          120deg.C
_cell_formula_units_Z            4
loop_
_atom_site_label
_atom_site_type_symbol
_atom_site_fract_x
_atom_site_fract_y
_atom_site_fract_z
S1 S 0.28179(3) 0.41002(5) 0.20243(7)
S2 S 0.14107(3) 0.61153(5) 0.04663(7)
C1 C 0.36667(11) 0.6424(2) 0.2715(2)
C2 C 0.44090(12) 0.6128(2) 0.3530(3)
H1 H 0.4570(12) 0.5253(21) 0.3727(26)
C3 C 0.49424(13) 0.7122(2) 0.4057(3)
H2 H 0.5469(13) 0.6915(20) 0.4626(28)
C4 C 0.47418(12) 0.8358(2) 0.3808(3)
H3 H 0.5118(13) 0.9022(20) 0.4167(27)
C5 C 0.36458(13) 0.9913(2) 0.2649(3)
H4 H 0.3966(13) 1.0642(22) 0.3015(28)
C6 C 0.28830(13) 1.0057(2) 0.1842(3)
H5 H 0.2669(13) 1.0913(21) 0.1615(27)
C7 C 0.23863(13) 0.9022(2) 0.1312(3)
H6 H 0.1870(13) 0.9163(19) 0.0788(27)
C8 C 0.26790(11) 0.7841(2) 0.1630(2)
C9 C 0.34670(11) 0.7705(2) 0.2451(2)
C10 C 0.39719(12) 0.8696(2) 0.2979(2)
C11 C 0.29539(11) 0.5724(2) 0.1980(2)
C12 C 0.23768(11) 0.6549(2) 0.1341(2)
C13 C 0.17937(12) 0.4029(2) 0.2574(2)
C14 C 0.12065(11) 0.4887(2) 0.1940(2)
C15 C 0.04153(13) 0.4761(2) 0.2411(3)
H7 H 0.0024(13) 0.5377(22) 0.1990(29)
C16 C 0.02069(14) 0.3765(2) 0.3449(3)
H8 H -0.0345(15) 0.3695(21) 0.3745(30)
C17 C 0.07859(14) 0.2919(2) 0.4073(3)
H9 H 0.0651(14) 0.2239(24) 0.4802(33)
C18 C 0.15798(14) 0.3054(2) 0.3654(3)
H10 H 0.1966(13) 0.2482(21) 0.4060(28)
loop_
_geom_bond_atom_site_label_1
_geom_bond_atom_site_label_2
_geom_bond_site_symmetry_1
_geom_bond_site_symmetry_2
S1 C11 1_555 1_555
S2 C12 1_555 1_555
C1 C2 1_555 1_555
C2 H1 1_555 1_555
C3 C2 1_555 1_555
H2 C3 1_555 1_555
C4 C3 1_555 1_555
H3 C4 1_555 1_555
C5 H4 1_555 1_555
C6 C5 1_555 1_555
H5 C6 1_555 1_555
C7 C6 1_555 1_555
H6 C7 1_555 1_555
C8 C7 1_555 1_555
C9 C1 1_555 1_555
C10 C4 1_555 1_555
C11 C1 1_555 1_555
C12 C8 1_555 1_555
C13 S1 1_555 1_555
C14 S2 1_555 1_555
C15 C14 1_555 1_555
H7 C15 1_555 1_555
C16 C15 1_555 1_555
H8 C16 1_555 1_555
C17 C16 1_555 1_555
H9 C17 1_555 1_555
C18 C13 1_555 1_555
H10 C18 1_555 1_555
C5 C10 1_555 1_555
C8 C9 1_555 1_555
C9 C10 1_555 1_555
C11 C12 1_555 1_555
C13 C14 1_555 1_555
C17 C18 1_555 1_555

#END
