
#######################################################################
#
#                 Cambridge Crystallographic Data Centre
#                                CCDC 
#
#######################################################################
#
# If this CIF has been generated from an entry in the Cambridge 
# Structural Database, then it will include bibliographic, chemical, 
# crystal, experimental, refinement or atomic coordinate data resulting 
# from the CCDC's data processing and validation procedures.
#
#######################################################################

data_NALBAD
_chemical_formula_moiety         'C14 H20 O4'
_chemical_name_systematic        2-(3-Methyl-2-butenyl)-3,4,5-trimethoxyphenol
_chemical_properties_biological  
'potent antiinvasive agent against solid tumours'
_symmetry_cell_setting           monoclinic
_symmetry_space_group_name_H-M   'P 21/c'
_symmetry_Int_Tables_number      14
_space_group_name_Hall           '-P 2ybc'
loop_
_symmetry_equiv_pos_site_id
_symmetry_equiv_pos_as_xyz
1 x,y,z
2 -x,1/2+y,1/2-z
3 -x,-y,-z
4 x,1/2-y,1/2+z
_cell_length_a                   11.124(8)
_cell_length_b                   10.729(7)
_cell_length_c                   11.914(8)
_cell_angle_alpha                90
_cell_angle_beta                 101.99(5)
_cell_angle_gamma                90
_cell_volume                     1390.91
_exptl_crystal_colour            colorless
_chemical_melting_point          88-90deg.C
_cell_formula_units_Z            4
loop_
_atom_site_label
_atom_site_type_symbol
_atom_site_fract_x
_atom_site_fract_y
_atom_site_fract_z
O1 O 0.80485(11) 0.16026(14) 0.54741(11)
H1 H 0.8405(2) 0.1290(18) 0.6091(9)
O2 O 1.21934(11) 0.21477(14) 0.49225(11)
O3 O 1.13398(12) 0.37513(12) 0.31767(10)
O4 O 0.88915(12) 0.43161(11) 0.26052(10)
C1 C 0.84547(15) 0.2950(2) 0.40437(14)
C2 C 0.8895(2) 0.2122(2) 0.49332(14)
C3 C 1.01346(15) 0.1833(2) 0.52574(14)
H2 H 1.04089(15) 0.1265(2) 0.58560(14)
C4 C 1.09620(15) 0.2386(2) 0.46956(15)
C5 C 1.0557(2) 0.3238(2) 0.38090(14)
C6 C 0.9316(2) 0.35010(15) 0.35086(14)
C7 C 1.2665(2) 0.1317(2) 0.5842(2)
H3 H 1.3546(3) 0.1229(11) 0.5916(9)
H4 H 1.2275(10) 0.0509(4) 0.5686(6)
H5 H 1.2494(12) 0.1647(7) 0.6551(3)
C8 C 1.2224(2) 0.4610(2) 0.3789(2)
H6 H 1.2557(12) 0.5109(11) 0.3247(2)
H7 H 1.2883(8) 0.4151(2) 0.4277(11)
H8 H 1.1830(4) 0.5150(11) 0.4257(11)
C9 C 0.9113(3) 0.5608(2) 0.2860(2)
H9 H 0.8579(12) 0.6108(2) 0.2285(9)
H10 H 0.9964(5) 0.5802(4) 0.2857(15)
H11 H 0.8947(15) 0.5790(4) 0.3610(7)
C10 C 0.7106(2) 0.3261(2) 0.3701(2)
H12 H 0.6725(2) 0.3141(2) 0.4365(2)
H13 H 0.7017(2) 0.4142(2) 0.3482(2)
C11 C 0.6438(2) 0.2483(2) 0.2726(2)
H14 H 0.6728(17) 0.2555(18) 0.2016(18)
C12 C 0.5491(2) 0.1735(2) 0.2718(2)
C13 C 0.4916(2) 0.1504(3) 0.3726(3)
H15 H 0.4698(17) 0.0630(5) 0.3748(10)
H16 H 0.4182(11) 0.2011(15) 0.3658(10)
H17 H 0.5494(8) 0.1721(19) 0.4426(3)
C14 C 0.4922(2) 0.1028(2) 0.1649(3)
H18 H 0.4053(4) 0.1224(14) 0.1435(10)
H19 H 0.5025(15) 0.0140(2) 0.1791(5)
H20 H 0.5322(12) 0.1264(13) 0.1030(5)
loop_
_geom_bond_atom_site_label_1
_geom_bond_atom_site_label_2
_geom_bond_site_symmetry_1
_geom_bond_site_symmetry_2
O1 H1 1_555 1_555
O2 C4 1_555 1_555
O3 C5 1_555 1_555
O4 C6 1_555 1_555
C1 C2 1_555 1_555
C2 O1 1_555 1_555
C3 C2 1_555 1_555
H2 C3 1_555 1_555
C4 C3 1_555 1_555
C5 C4 1_555 1_555
C6 C1 1_555 1_555
C7 O2 1_555 1_555
H3 C7 1_555 1_555
H4 C7 1_555 1_555
H5 C7 1_555 1_555
C8 O3 1_555 1_555
H6 C8 1_555 1_555
H7 C8 1_555 1_555
H8 C8 1_555 1_555
C9 O4 1_555 1_555
H9 C9 1_555 1_555
H10 C9 1_555 1_555
H11 C9 1_555 1_555
C10 C1 1_555 1_555
H12 C10 1_555 1_555
H13 C10 1_555 1_555
C11 C10 1_555 1_555
H14 C11 1_555 1_555
C12 C11 1_555 1_555
C13 C12 1_555 1_555
H15 C13 1_555 1_555
H16 C13 1_555 1_555
H17 C13 1_555 1_555
C14 C12 1_555 1_555
H18 C14 1_555 1_555
H19 C14 1_555 1_555
H20 C14 1_555 1_555
C5 C6 1_555 1_555

#END
