
#######################################################################
#
#                 Cambridge Crystallographic Data Centre
#                                CCDC 
#
#######################################################################
#
# If this CIF has been generated from an entry in the Cambridge 
# Structural Database, then it will include bibliographic, chemical, 
# crystal, experimental, refinement or atomic coordinate data resulting 
# from the CCDC's data processing and validation procedures.
#
#######################################################################

data_NALCUB
_chemical_formula_moiety         'C26 H22 N10 O5,0.3(H2 O1)'
_chemical_name_systematic        
'5-(2,6-diazido-9H-purin-9-yl)-2-(((4-methylbenzoyl)oxy)methyl)tetrahydrofuran-3-yl 4-methylbenzoate hydrate'
_symmetry_cell_setting           monoclinic
_symmetry_space_group_name_H-M   'P 21'
_symmetry_Int_Tables_number      4
_space_group_name_Hall           'P 2yb'
loop_
_symmetry_equiv_pos_site_id
_symmetry_equiv_pos_as_xyz
1 x,y,z
2 -x,1/2+y,-z
_cell_length_a                   10.1754(4)
_cell_length_b                   14.5781(5)
_cell_length_c                   17.9857(8)
_cell_angle_alpha                90
_cell_angle_beta                 92.2620(10)
_cell_angle_gamma                90
_cell_volume                     2665.88
_exptl_crystal_colour            yellow
_exptl_crystal_description       prism
_cell_formula_units_Z            4
loop_
_atom_site_label
_atom_site_type_symbol
_atom_site_fract_x
_atom_site_fract_y
_atom_site_fract_z
O1 O 0.4871(3) 0.98294(19) 1.89123(17)
O2 O 0.5093(3) 1.10425(18) 2.01735(15)
O3 O 0.5014(3) 0.83149(19) 1.87641(17)
C1 C 0.3414(4) 0.9148(3) 1.8051(2)
O4 O 0.7688(3) 1.19364(19) 2.01376(17)
N1 N 0.5139(3) 0.9044(3) 2.12112(19)
N2 N 0.4681(4) 1.0665(2) 2.1411(2)
N3 N 0.3721(4) 0.8051(3) 2.1895(2)
C2 C 0.4509(4) 0.9035(3) 1.8604(2)
C3 C 0.5968(4) 0.9803(3) 1.9441(3)
H1 H 0.6752 0.9583 1.9209
H2 H 0.5781 0.9405 1.9856
O5 O 0.8829(3) 1.1703(2) 1.91020(19)
C4 C 0.6144(4) 1.0784(3) 1.9698(2)
H3 H 0.6131 1.1189 1.9263
N4 N 0.6208(5) 0.7596(3) 2.0755(3)
N5 N 0.2052(4) 0.8629(3) 2.2656(2)
C5 C 0.4704(5) 0.8246(3) 2.1439(3)
C6 C 0.7902(4) 1.4750(3) 1.9893(3)
H4 H 0.7366 1.5134 2.0161
C7 C 0.2988(5) 1.0009(3) 1.7792(2)
H5 H 0.3388 1.0539 1.7979
C8 C 0.2768(5) 0.8380(3) 1.7768(3)
H6 H 0.3015 0.7801 1.7941
C9 C 0.1361(5) 0.9309(3) 1.6968(3)
N6 N 0.5324(4) 0.7432(2) 2.1193(2)
N7 N 0.3035(4) 1.0530(3) 2.2218(2)
C10 C 0.9487(5) 1.3605(3) 1.9102(3)
H7 H 1.0021 1.3222 1.8831
C11 C 0.1758(5) 0.8460(4) 1.7229(3)
H8 H 0.1344 0.7935 1.7042
C12 C 0.8541(4) 1.3233(3) 1.9552(2)
C13 C 0.3470(5) 0.9658(3) 2.2008(3)
C14 C 0.7748(4) 1.3811(3) 1.9943(2)
H9 H 0.7108 1.3568 2.0241
N8 N 0.7045(5) 0.7648(3) 2.0364(3)
C15 C 0.7397(4) 1.0962(3) 2.0173(3)
H10 H 0.8136 1.0576 2.0033
C16 C 0.3769(5) 1.1096(4) 2.1844(3)
H11 H 0.3683 1.1731 2.1868
N9 N 0.1807(5) 0.7780(5) 2.2754(3)
C17 C 0.3095(5) 0.8777(4) 2.2177(3)
C18 C 0.8847(5) 1.5130(3) 1.9448(3)
C19 C 0.9627(5) 1.4540(4) 1.9060(3)
H12 H 1.0266 1.4783 1.8760
C20 C 0.0288(5) 0.9396(4) 1.6366(3)
H13 H -0.0508 0.9127 1.6534
H14 H 0.0551 0.9084 1.5926
H15 H 0.0140 1.0033 1.6254
C21 C 0.4481(5) 0.9744(3) 2.1519(2)
C22 C 0.1975(5) 1.0073(3) 1.7260(3)
H16 H 0.1702 1.0650 1.7096
C23 C 0.6972(4) 1.0780(3) 2.0956(2)
H17 H 0.7519 1.1111 2.1320
H18 H 0.7001 1.0130 2.1072
C24 C 0.5558(5) 1.1142(3) 2.0927(3)
H19 H 0.5569 1.1795 2.1057
C25 C 0.8382(4) 1.2226(3) 1.9552(3)
C26 C 0.8985(5) 1.6154(3) 1.9397(3)
H20 H 0.9608 1.6303 1.9028
H21 H 0.9287 1.6393 1.9870
H22 H 0.8147 1.6420 1.9258
N10 N 0.1465(5) 0.7075(4) 2.2903(3)
O6 O 0.5059(3) 0.62963(18) 1.50241(16)
O7 O 0.4911(3) 0.50206(19) 1.37992(16)
O8 O 0.5151(3) 0.3508(2) 1.37857(18)
O9 O 0.7639(3) 0.72499(19) 1.50027(17)
O10 O 0.8798(3) 0.7042(2) 1.39772(18)
N11 N 0.6312(5) 0.2915(2) 1.5746(3)
C27 C 0.4582(4) 0.4190(3) 1.3549(2)
N12 N 0.5194(3) 0.4366(2) 1.6145(2)
N13 N 0.3831(4) 0.3392(3) 1.6882(2)
N14 N 0.4662(3) 0.5989(2) 1.6281(2)
C28 C 0.3190(5) 0.4119(4) 1.7130(2)
N15 N 0.3032(4) 0.5870(3) 1.7100(2)
C29 C 0.4787(5) 0.3575(3) 1.6415(3)
C30 C 0.3042(5) 0.4998(3) 1.2665(3)
H23 H 0.3409 0.5559 1.2806
C31 C 0.8372(4) 0.7545(3) 1.4435(3)
C32 C 0.1467(5) 0.4143(4) 1.1908(2)
C33 C 0.1922(5) 0.3355(4) 1.2242(3)
H24 H 0.1546 0.2796 1.2103
C34 C 0.7797(4) 0.9126(3) 1.4908(2)
H25 H 0.7157 0.8873 1.5201
C35 C 0.8562(4) 0.8558(3) 1.4474(3)
C36 C 0.9528(4) 0.8952(3) 1.4048(3)
H26 H 1.0045 0.8583 1.3756
C37 C 0.6020(4) 0.5071(3) 1.4330(2)
H27 H 0.6820 0.4871 1.4103
H28 H 0.5870 0.4686 1.4758
C38 C 0.2920(5) 0.3370(3) 1.2778(3)
H29 H 0.3211 0.2827 1.3000
C39 C 0.3513(5) 0.4998(3) 1.6926(2)
N16 N 0.5444(4) 0.2756(3) 1.6198(2)
C40 C 0.4514(4) 0.5067(3) 1.6423(2)
C41 C 0.3747(5) 0.6422(4) 1.6702(3)
H30 H 0.3642 0.7055 1.6704
N17 N 0.2143(4) 0.3976(3) 1.7612(2)
C42 C 0.8948(5) 1.0465(3) 1.4478(3)
C43 C 0.5541(4) 0.6433(3) 1.5774(3)
H31 H 0.5552 0.7093 1.5879
C44 C 0.9718(5) 0.9889(3) 1.4059(3)
H32 H 1.0378 1.0141 1.3780
C45 C 0.2039(5) 0.4961(3) 1.2130(3)
H33 H 0.1738 0.5503 1.1911
C46 C 0.6943(4) 0.6083(3) 1.5815(2)
H34 H 0.7480 0.6420 1.6179
H35 H 0.6979 0.5434 1.5932
C47 C 0.7359(4) 0.6268(3) 1.5035(3)
H36 H 0.8113 0.5893 1.4900
C48 C 0.6129(4) 0.6056(3) 1.4559(2)
H37 H 0.6104 0.6447 1.4116
C49 C 0.7992(5) 1.0061(3) 1.4904(3)
H38 H 0.7471 1.0432 1.5193
C50 C 0.9137(5) 1.1484(3) 1.4472(3)
H39 H 0.9403 1.1688 1.4963
H40 H 0.8325 1.1776 1.4320
H41 H 0.9803 1.1640 1.4131
C51 C 0.3496(4) 0.4204(3) 1.2989(2)
C52 C 0.0418(5) 0.4119(4) 1.1290(3)
H42 H -0.0304 0.3747 1.1440
H43 H 0.0778 0.3864 1.0850
H44 H 0.0112 0.4731 1.1188
N18 N 0.1931(5) 0.3146(4) 1.7714(2)
N19 N 0.1613(5) 0.2422(4) 1.7854(3)
N20 N 0.7130(5) 0.2953(3) 1.5337(3)
O11 O 0.0049(7) 1.1275(5) 2.2494(4)
loop_
_geom_bond_atom_site_label_1
_geom_bond_atom_site_label_2
_geom_bond_site_symmetry_1
_geom_bond_site_symmetry_2
O1 C2 1_555 1_555
O2 C4 1_555 1_555
O3 C2 1_555 1_555
C1 C2 1_555 1_555
O4 C15 1_555 1_555
N1 C5 1_555 1_555
N2 C16 1_555 1_555
N3 C5 1_555 1_555
C3 O1 1_555 1_555
H1 C3 1_555 1_555
H2 C3 1_555 1_555
O5 C25 1_555 1_555
C4 C3 1_555 1_555
H3 C4 1_555 1_555
N4 N6 1_555 1_555
N5 N9 1_555 1_555
C5 N6 1_555 1_555
C6 H4 1_555 1_555
C7 C1 1_555 1_555
H5 C7 1_555 1_555
C8 C1 1_555 1_555
H6 C8 1_555 1_555
C9 C11 1_555 1_555
N7 C13 1_555 1_555
C10 H7 1_555 1_555
C11 C8 1_555 1_555
H8 C11 1_555 1_555
C12 C10 1_555 1_555
C13 C17 1_555 1_555
C14 C6 1_555 1_555
H9 C14 1_555 1_555
N8 N4 1_555 1_555
C15 C4 1_555 1_555
H10 C15 1_555 1_555
C16 N7 1_555 1_555
H11 C16 1_555 1_555
N9 N10 1_555 1_555
C17 N3 1_555 1_555
C18 C6 1_555 1_555
C19 C10 1_555 1_555
H12 C19 1_555 1_555
C20 C9 1_555 1_555
H13 C20 1_555 1_555
H14 C20 1_555 1_555
H15 C20 1_555 1_555
C21 N1 1_555 1_555
C22 C7 1_555 1_555
H16 C22 1_555 1_555
C23 C15 1_555 1_555
H17 C23 1_555 1_555
H18 C23 1_555 1_555
C24 O2 1_555 1_555
H19 C24 1_555 1_555
C25 O4 1_555 1_555
C26 C18 1_555 1_555
H20 C26 1_555 1_555
H21 C26 1_555 1_555
H22 C26 1_555 1_555
O6 C43 1_555 1_555
O7 C27 1_555 1_555
O8 C27 1_555 1_555
O9 C31 1_555 1_555
O10 C31 1_555 1_555
N11 N16 1_555 1_555
C27 C51 1_555 1_555
N12 C29 1_555 1_555
N13 C28 1_555 1_555
N14 C40 1_555 1_555
C28 C39 1_555 1_555
N15 C39 1_555 1_555
C29 N13 1_555 1_555
C30 H23 1_555 1_555
C31 C35 1_555 1_555
C32 C33 1_555 1_555
C33 H24 1_555 1_555
C34 H25 1_555 1_555
C35 C34 1_555 1_555
C36 C35 1_555 1_555
H26 C36 1_555 1_555
C37 O7 1_555 1_555
H27 C37 1_555 1_555
H28 C37 1_555 1_555
C38 C33 1_555 1_555
H29 C38 1_555 1_555
C39 C40 1_555 1_555
N16 C29 1_555 1_555
C40 N12 1_555 1_555
C41 N14 1_555 1_555
H30 C41 1_555 1_555
N17 C28 1_555 1_555
C42 C44 1_555 1_555
C43 N14 1_555 1_555
H31 C43 1_555 1_555
C44 C36 1_555 1_555
H32 C44 1_555 1_555
C45 C30 1_555 1_555
H33 C45 1_555 1_555
C46 C43 1_555 1_555
H34 C46 1_555 1_555
H35 C46 1_555 1_555
C47 O9 1_555 1_555
H36 C47 1_555 1_555
C48 O6 1_555 1_555
H37 C48 1_555 1_555
C49 C34 1_555 1_555
H38 C49 1_555 1_555
C50 C42 1_555 1_555
H39 C50 1_555 1_555
H40 C50 1_555 1_555
H41 C50 1_555 1_555
C51 C30 1_555 1_555
C52 C32 1_555 1_555
H42 C52 1_555 1_555
H43 C52 1_555 1_555
H44 C52 1_555 1_555
N18 N17 1_555 1_555
N19 N18 1_555 1_555
N20 N11 1_555 1_555
N2 C21 1_555 1_555
N2 C24 1_555 1_555
N5 C17 1_555 1_555
C9 C22 1_555 1_555
C12 C14 1_555 1_555
C12 C25 1_555 1_555
C13 C21 1_555 1_555
C18 C19 1_555 1_555
C23 C24 1_555 1_555
N15 C41 1_555 1_555
C32 C45 1_555 1_555
C37 C48 1_555 1_555
C38 C51 1_555 1_555
C42 C49 1_555 1_555
C46 C47 1_555 1_555
C47 C48 1_555 1_555

#END
