
#######################################################################
#
#                 Cambridge Crystallographic Data Centre
#                                CCDC 
#
#######################################################################
#
# If this CIF has been generated from an entry in the Cambridge 
# Structural Database, then it will include bibliographic, chemical, 
# crystal, experimental, refinement or atomic coordinate data resulting 
# from the CCDC's data processing and validation procedures.
#
#######################################################################

data_NALDEM
_chemical_compound_source        'Tinospora capillipes'
_chemical_name_common            'tinocallone A'
_chemical_formula_moiety         'C19 H22 O4'
_chemical_name_systematic        
2-(3-furyl)-6a,10b-dimethyl-1,4a,5,6,6a,8,10a,10b-octahydro-2H-benzo[f]isochromene-4,7-dione
_chemical_properties_biological  'cytotoxic activity'
_symmetry_cell_setting           orthorhombic
_symmetry_space_group_name_H-M   'P 21 21 21'
_symmetry_Int_Tables_number      19
_space_group_name_Hall           'P 2ac 2ab'
loop_
_symmetry_equiv_pos_site_id
_symmetry_equiv_pos_as_xyz
1 x,y,z
2 1/2-x,-y,1/2+z
3 -x,1/2+y,1/2-z
4 1/2+x,1/2-y,-z
_cell_length_a                   7.3058(9)
_cell_length_b                   11.0684(12)
_cell_length_c                   20.159(2)
_cell_angle_alpha                90
_cell_angle_beta                 90
_cell_angle_gamma                90
_cell_volume                     1630.13
_exptl_crystal_colour            colorless
_exptl_crystal_description       prism
_chemical_melting_point          '398 K'
_cell_formula_units_Z            4
_exptl_crystal_preparation       methanol
loop_
_atom_site_label
_atom_site_type_symbol
_atom_site_fract_x
_atom_site_fract_y
_atom_site_fract_z
O1 O 0.7767(5) 0.4876(4) 0.48053(18)
O2 O 1.0292(5) 0.3823(3) 0.47311(19)
O3 O 0.8019(5) 0.1890(3) 0.20955(17)
O4 O 0.2985(6) 0.6541(4) 0.58508(19)
C1 C 0.8719(7) 0.3934(5) 0.4563(3)
C2 C 0.7761(6) 0.2999(5) 0.4141(2)
H1 H 0.7354 0.2365 0.4447
C3 C 0.9117(7) 0.2390(5) 0.3661(2)
H2 H 1.0197 0.2136 0.3904
H3 H 0.8553 0.1677 0.3470
C4 C 0.9677(6) 0.3253(4) 0.3107(2)
H4 H 1.0355 0.3921 0.3298
H5 H 1.0489 0.2832 0.2804
C5 C 0.8060(6) 0.3754(4) 0.2715(2)
C6 C 0.7264(7) 0.2835(5) 0.2235(3)
C7 C 0.5544(8) 0.3193(5) 0.1883(3)
H6 H 0.5863 0.3476 0.1442
H7 H 0.4783 0.2481 0.1831
C8 C 0.4444(7) 0.4149(5) 0.2219(3)
H8 H 0.3386 0.4417 0.2009
C9 C 0.4875(7) 0.4641(5) 0.2798(2)
H9 H 0.4115 0.5232 0.2976
C10 C 0.6563(6) 0.4270(4) 0.3175(2)
H10 H 0.7070 0.5014 0.3364
C11 C 0.6032(6) 0.3447(5) 0.3782(2)
C12 C 0.4922(6) 0.4168(4) 0.4290(2)
H11 H 0.3809 0.4457 0.4082
H12 H 0.4574 0.3637 0.4652
C13 C 0.5962(7) 0.5228(5) 0.4566(2)
H13 H 0.6138 0.5808 0.4205
C14 C 0.3366(8) 0.5700(5) 0.5367(3)
H14 H 0.2569 0.5094 0.5229
C15 C 0.5040(7) 0.5877(5) 0.5123(3)
C16 C 0.5790(8) 0.6910(5) 0.5457(3)
H15 H 0.6934 0.7258 0.5391
C17 C 0.4495(10) 0.7262(6) 0.5880(3)
H16 H 0.4609 0.7922 0.6163
C18 C 0.8787(7) 0.4799(5) 0.2261(3)
H17 H 0.7800 0.5109 0.1997
H18 H 0.9732 0.4493 0.1976
H19 H 0.9274 0.5435 0.2533
C19 C 0.4867(6) 0.2363(4) 0.3571(2)
H20 H 0.3681 0.2639 0.3433
H21 H 0.4736 0.1818 0.3938
H22 H 0.5455 0.1954 0.3209
loop_
_geom_bond_atom_site_label_1
_geom_bond_atom_site_label_2
_geom_bond_site_symmetry_1
_geom_bond_site_symmetry_2
O1 C1 1_555 1_555
O2 C1 1_555 1_555
O3 C6 1_555 1_555
O4 C14 1_555 1_555
C1 C2 1_555 1_555
C2 H1 1_555 1_555
C3 C2 1_555 1_555
H2 C3 1_555 1_555
H3 C3 1_555 1_555
C4 C3 1_555 1_555
H4 C4 1_555 1_555
H5 C4 1_555 1_555
C5 C4 1_555 1_555
C6 C5 1_555 1_555
C7 C6 1_555 1_555
H6 C7 1_555 1_555
H7 C7 1_555 1_555
C8 C7 1_555 1_555
H8 C8 1_555 1_555
C9 C8 1_555 1_555
H9 C9 1_555 1_555
C10 C5 1_555 1_555
H10 C10 1_555 1_555
C11 C2 1_555 1_555
C12 C11 1_555 1_555
H11 C12 1_555 1_555
H12 C12 1_555 1_555
C13 O1 1_555 1_555
H13 C13 1_555 1_555
C14 H14 1_555 1_555
C15 C13 1_555 1_555
C16 C15 1_555 1_555
H15 C16 1_555 1_555
C17 O4 1_555 1_555
H16 C17 1_555 1_555
C18 C5 1_555 1_555
H17 C18 1_555 1_555
H18 C18 1_555 1_555
H19 C18 1_555 1_555
C19 C11 1_555 1_555
H20 C19 1_555 1_555
H21 C19 1_555 1_555
H22 C19 1_555 1_555
C9 C10 1_555 1_555
C10 C11 1_555 1_555
C12 C13 1_555 1_555
C14 C15 1_555 1_555
C16 C17 1_555 1_555

#END
