
#######################################################################
#
#                 Cambridge Crystallographic Data Centre
#                                CCDC 
#
#######################################################################
#
# If this CIF has been generated from an entry in the Cambridge 
# Structural Database, then it will include bibliographic, chemical, 
# crystal, experimental, refinement or atomic coordinate data resulting 
# from the CCDC's data processing and validation procedures.
#
#######################################################################

data_NALLOD
_chemical_formula_moiety         'C10 H11 Cl1 O3'
_chemical_name_systematic        
5-Chloro-3-(ethoxymethyl)-2-hydroxybenzaldehyde
_symmetry_cell_setting           monoclinic
_symmetry_space_group_name_H-M   'P 21/c'
_symmetry_Int_Tables_number      14
_space_group_name_Hall           '-P 2ybc'
loop_
_symmetry_equiv_pos_site_id
_symmetry_equiv_pos_as_xyz
1 x,y,z
2 -x,1/2+y,1/2-z
3 -x,-y,-z
4 x,1/2-y,1/2+z
_cell_length_a                   13.804(13)
_cell_length_b                   9.238(9)
_cell_length_c                   8.435(6)
_cell_angle_alpha                90
_cell_angle_beta                 103.31(3)
_cell_angle_gamma                90
_cell_volume                     1046.75
_exptl_crystal_colour            'light green'
_exptl_crystal_description       needle
_cell_formula_units_Z            4
loop_
_atom_site_label
_atom_site_type_symbol
_atom_site_fract_x
_atom_site_fract_y
_atom_site_fract_z
C1 C 0.12396(16) 0.2791(3) -0.0314(3)
C2 C 0.11606(18) 0.1291(3) -0.0353(3)
H1 H 0.0629 0.0850 -0.1069
C3 C 0.18592(17) 0.0463(3) 0.0653(3)
C4 C 0.26620(15) 0.1118(2) 0.1716(3)
H2 H 0.3136 0.0546 0.2398
C5 C 0.27629(15) 0.2592(2) 0.1772(3)
C6 C 0.20376(16) 0.3442(2) 0.0753(3)
C7 C 0.05022(19) 0.3676(4) -0.1404(3)
H3 H -0.0022 0.3203 -0.2103
C8 C 0.36188(17) 0.3341(2) 0.2874(3)
H4 H 0.3937 0.3990 0.2245
H5 H 0.3381 0.3912 0.3673
C9 C 0.51244(17) 0.2958(3) 0.4786(3)
H6 H 0.4891 0.3426 0.5658
H7 H 0.5431 0.3686 0.4233
C10 C 0.5855(2) 0.1839(3) 0.5461(4)
H8 H 0.5535 0.1084 0.5935
H9 H 0.6379 0.2257 0.6282
H10 H 0.6129 0.1442 0.4607
Cl1 Cl 0.17751(6) -0.14129(8) 0.06165(13)
O1 O 0.21543(13) 0.48853(17) 0.0845(2)
H11 H 0.1724 0.5272 0.0139
O2 O 0.05241(14) 0.4986(3) -0.1462(2)
O3 O 0.43069(10) 0.23108(15) 0.36666(19)
loop_
_geom_bond_atom_site_label_1
_geom_bond_atom_site_label_2
_geom_bond_site_symmetry_1
_geom_bond_site_symmetry_2
C1 C2 1_555 1_555
C2 H1 1_555 1_555
C3 C2 1_555 1_555
C4 C3 1_555 1_555
H2 C4 1_555 1_555
C5 C4 1_555 1_555
C6 C1 1_555 1_555
C7 C1 1_555 1_555
H3 C7 1_555 1_555
C8 C5 1_555 1_555
H4 C8 1_555 1_555
H5 C8 1_555 1_555
C9 H6 1_555 1_555
H7 C9 1_555 1_555
C10 C9 1_555 1_555
H8 C10 1_555 1_555
H9 C10 1_555 1_555
H10 C10 1_555 1_555
Cl1 C3 1_555 1_555
O1 C6 1_555 1_555
H11 O1 1_555 1_555
O2 C7 1_555 1_555
O3 C8 1_555 1_555
C5 C6 1_555 1_555
C9 O3 1_555 1_555

#END
