
#######################################################################
#
#                 Cambridge Crystallographic Data Centre
#                                CCDC 
#
#######################################################################
#
# If this CIF has been generated from an entry in the Cambridge 
# Structural Database, then it will include bibliographic, chemical, 
# crystal, experimental, refinement or atomic coordinate data resulting 
# from the CCDC's data processing and validation procedures.
#
#######################################################################

data_NALWUS03
_chemical_formula_moiety         'C21 H19 D4 N1 S1'
_chemical_name_systematic        
\a,\a,\a',\a'-Tetradeutero-N,N-dibenzyl-1-cyclohexenecarbothioamide
_symmetry_cell_setting           monoclinic
_symmetry_space_group_name_H-M   'P 21'
_symmetry_Int_Tables_number      4
_space_group_name_Hall           'P 2yb'
loop_
_symmetry_equiv_pos_site_id
_symmetry_equiv_pos_as_xyz
1 x,y,z
2 -x,1/2+y,-z
_cell_length_a                   8.679(6)
_cell_length_b                   10.202(8)
_cell_length_c                   10.083(6)
_cell_angle_alpha                90
_cell_angle_beta                 99.059(5)
_cell_angle_gamma                90
_cell_volume                     881.645
_exptl_crystal_colour            yellow
_exptl_crystal_description       prism
_chemical_melting_point          '346-347 K'
_cell_formula_units_Z            2
_chemical_properties_physical    light-sensitive
_exptl_crystal_recrystallization_method 'diethyl ether'
loop_
_atom_site_label
_atom_site_type_symbol
_atom_site_fract_x
_atom_site_fract_y
_atom_site_fract_z
S1 S 0.426(11) 0.675(13) 0.677(11)
N1 N 0.631(4) 0.776(4) 0.505(3)
C1 C 0.626(5) 0.713(6) 0.628(5)
C2 C 0.759(5) 0.659(6) 0.709(5)
C3 C 0.851(5) 0.563(6) 0.664(4)
C4 C 0.976(4) 0.498(4) 0.753(5)
C5 C 0.992(4) 0.535(5) 0.893(4)
C6 C 0.974(7) 0.687(6) 0.917(4)
C7 C 0.802(4) 0.728(4) 0.850(5)
C8 C 0.797(8) 0.797(6) 0.469(7)
C9 C 0.884(8) 0.892(8) 0.563(7)
C10 C 1.059(6) 0.861(5) 0.609(5)
C11 C 1.151(6) 0.940(7) 0.695(6)
H1 H 1.2588 0.9215 0.7192
C12 C 1.084(4) 1.053(5) 0.751(4)
C13 C 0.930(7) 1.089(6) 0.702(6)
C14 C 0.836(4) 1.008(5) 0.608(5)
C15 C 0.500(7) 0.836(5) 0.411(6)
C16 C 0.487(5) 0.756(6) 0.283(5)
C17 C 0.497(7) 0.618(6) 0.283(5)
C18 C 0.475(6) 0.559(4) 0.145(5)
C19 C 0.415(5) 0.619(5) 0.041(4)
C20 C 0.386(7) 0.763(6) 0.048(5)
C21 C 0.426(7) 0.835(5) 0.177(7)
H2 H 0.4112 0.9266 0.1861
H3 H 0.834(11) 0.533(12) 0.569(5)
H4 H 0.976(12) 0.400(4) 0.744(11)
H5 H 1.075(6) 0.529(10) 0.724(9)
H6 H 1.106(7) 0.518(18) 0.924(17)
H7 H 0.901(10) 0.497(13) 0.928(12)
H8 H 0.985(10) 0.709(10) 1.014(5)
H9 H 1.034(8) 0.749(8) 0.867(8)
H10 H 0.803(15) 0.825(4) 0.841(14)
H11 H 0.708(6) 0.713(10) 0.894(8)
D1 D 0.849(7) 0.710(6) 0.463(7)
D2 D 0.760(10) 0.853(8) 0.389(7)
H12 H 1.094(10) 0.783(8) 0.563(9)
H13 H 1.169(9) 1.103(11) 0.808(9)
H14 H 0.888(10) 1.169(7) 0.742(9)
H15 H 0.735(6) 1.050(9) 0.569(7)
D3 D 0.512(8) 0.933(5) 0.401(7)
D4 D 0.411(8) 0.827(9) 0.465(8)
H16 H 0.529(8) 0.560(8) 0.363(6)
H17 H 0.504(11) 0.466(5) 0.170(10)
H18 H 0.422(12) 0.576(12) -0.046(7)
H19 H 0.339(9) 0.814(9) -0.033(7)
loop_
_geom_bond_atom_site_label_1
_geom_bond_atom_site_label_2
_geom_bond_site_symmetry_1
_geom_bond_site_symmetry_2
S1 C1 1_555 1_555
N1 C1 1_555 1_555
C1 C2 1_555 1_555
C2 C3 1_555 1_555
C3 C4 1_555 1_555
C4 C5 1_555 1_555
C5 C6 1_555 1_555
C6 C7 1_555 1_555
C7 C2 1_555 1_555
C8 N1 1_555 1_555
C9 C8 1_555 1_555
C10 C9 1_555 1_555
C11 C10 1_555 1_555
H1 C11 1_555 1_555
C12 C11 1_555 1_555
C13 C12 1_555 1_555
C14 C9 1_555 1_555
C15 N1 1_555 1_555
C16 C15 1_555 1_555
C17 C16 1_555 1_555
C18 C17 1_555 1_555
C19 C18 1_555 1_555
C20 C19 1_555 1_555
C21 C16 1_555 1_555
H2 C21 1_555 1_555
H3 C3 1_555 1_555
H4 C4 1_555 1_555
H5 C4 1_555 1_555
H6 C5 1_555 1_555
H7 C5 1_555 1_555
H8 C6 1_555 1_555
H9 C6 1_555 1_555
H10 C7 1_555 1_555
H11 C7 1_555 1_555
D1 C8 1_555 1_555
D2 C8 1_555 1_555
H12 C10 1_555 1_555
H13 C12 1_555 1_555
H14 C13 1_555 1_555
H15 C14 1_555 1_555
D3 C15 1_555 1_555
D4 C15 1_555 1_555
H16 C17 1_555 1_555
H17 C18 1_555 1_555
H18 C19 1_555 1_555
H19 C20 1_555 1_555
C13 C14 1_555 1_555
C20 C21 1_555 1_555

#END
