
#######################################################################
#
#                 Cambridge Crystallographic Data Centre
#                                CCDC 
#
#######################################################################
#
# If this CIF has been generated from an entry in the Cambridge 
# Structural Database, then it will include bibliographic, chemical, 
# crystal, experimental, refinement or atomic coordinate data resulting 
# from the CCDC's data processing and validation procedures.
#
#######################################################################

data_NALWUV
_chemical_formula_moiety         'C16 H17 Cl1 N2 O4 S1'
_chemical_name_systematic        
2-(3-chloro-4-hydroxyphenyl)-N-(2-(4-sulfamoylphenyl)ethyl)acetamide
_symmetry_cell_setting           triclinic
_symmetry_space_group_name_H-M   'P -1'
_symmetry_Int_Tables_number      2
_space_group_name_Hall           '-P 1'
loop_
_symmetry_equiv_pos_site_id
_symmetry_equiv_pos_as_xyz
1 x,y,z
2 -x,-y,-z
_cell_length_a                   9.2054(6)
_cell_length_b                   9.7814(7)
_cell_length_c                   9.8252(6)
_cell_angle_alpha                104.962(6)
_cell_angle_beta                 104.414(5)
_cell_angle_gamma                96.490(6)
_cell_volume                     812.785
_exptl_crystal_colour            colorless
_exptl_crystal_description       needle
_chemical_melting_point          '527-530 K'
_cell_formula_units_Z            2
_exptl_crystal_recrystallization_method methanol/water
loop_
_atom_site_label
_atom_site_type_symbol
_atom_site_fract_x
_atom_site_fract_y
_atom_site_fract_z
Cl1 Cl 1.02039(6) 0.08103(4) 0.25331(4)
S1 S 0.48099(5) 0.22026(4) 0.14358(4)
O1 O 1.09735(15) 0.39511(13) 0.26644(13)
O2 O 1.05383(13) 0.22535(12) 0.98317(11)
O3 O 0.44365(15) 0.35968(12) 0.14763(13)
O4 O 0.60230(14) 0.17817(13) 0.08330(12)
N1 N 0.93519(15) 0.34605(15) 0.83425(14)
N2 N 0.32922(19) 0.10294(18) 0.05295(17)
C1 C 1.16022(17) 0.32451(17) 0.67659(16)
C2 C 1.10560(18) 0.20811(16) 0.54881(16)
H1 H 1.0836 0.1155 0.5559
C3 C 1.08370(18) 0.22869(16) 0.41129(16)
C4 C 1.11553(17) 0.36616(16) 0.39702(16)
C5 C 1.17008(18) 0.48247(17) 0.52477(17)
H2 H 1.1922 0.5751 0.5178
C6 C 1.19179(17) 0.46165(17) 0.66220(17)
H3 H 1.2281 0.5407 0.7462
C7 C 1.18809(18) 0.29898(19) 0.82560(16)
H4 H 1.2668 0.3772 0.8960
H5 H 1.2285 0.2109 0.8198
C8 C 1.05215(18) 0.28681(16) 0.88662(15)
C9 C 0.79487(19) 0.34025(18) 0.87788(17)
H6 H 0.7551 0.4274 0.8744
H7 H 0.8178 0.3367 0.9786
C10 C 0.6726(2) 0.20900(19) 0.77818(17)
H8 H 0.7123 0.1221 0.7829
H9 H 0.5842 0.2072 0.8151
C11 C 0.62263(17) 0.20858(17) 0.61909(16)
C12 C 0.67302(19) 0.11949(18) 0.51257(18)
H10 H 0.7368 0.0577 0.5393
C13 C 0.63024(19) 0.12073(17) 0.36685(17)
H11 H 0.6656 0.0610 0.2970
C14 C 0.53386(17) 0.21245(16) 0.32695(16)
C15 C 0.48192(18) 0.30270(18) 0.43155(17)
H12 H 0.4176 0.3640 0.4045
C16 C 0.52710(18) 0.30046(19) 0.57685(17)
H13 H 0.4930 0.3613 0.6470
H14 H 0.942(2) 0.391(2) 0.767(2)
H15 H 0.248(3) 0.136(2) 0.048(2)
H16 H 1.077(3) 0.322(3) 0.194(3)
H17 H 0.337(2) 0.018(2) 0.026(2)
loop_
_geom_bond_atom_site_label_1
_geom_bond_atom_site_label_2
_geom_bond_site_symmetry_1
_geom_bond_site_symmetry_2
Cl1 C3 1_555 1_555
S1 O3 1_555 1_555
O1 C4 1_555 1_555
O2 C8 1_555 1_555
O4 S1 1_555 1_555
N1 C8 1_555 1_555
N2 S1 1_555 1_555
C1 C2 1_555 1_555
C2 H1 1_555 1_555
C3 C2 1_555 1_555
C4 C3 1_555 1_555
C5 C4 1_555 1_555
H2 C5 1_555 1_555
C6 C1 1_555 1_555
H3 C6 1_555 1_555
C7 C1 1_555 1_555
H4 C7 1_555 1_555
H5 C7 1_555 1_555
C8 C7 1_555 1_555
C9 N1 1_555 1_555
H6 C9 1_555 1_555
H7 C9 1_555 1_555
C10 C9 1_555 1_555
H8 C10 1_555 1_555
H9 C10 1_555 1_555
C11 C10 1_555 1_555
C12 C11 1_555 1_555
H10 C12 1_555 1_555
C13 C12 1_555 1_555
H11 C13 1_555 1_555
C14 S1 1_555 1_555
C15 C14 1_555 1_555
H12 C15 1_555 1_555
C16 C11 1_555 1_555
H13 C16 1_555 1_555
H14 N1 1_555 1_555
H15 N2 1_555 1_555
H16 O1 1_555 1_555
H17 N2 1_555 1_555
C5 C6 1_555 1_555
C13 C14 1_555 1_555
C15 C16 1_555 1_555

#END
