
#######################################################################
#
#                 Cambridge Crystallographic Data Centre
#                                CCDC 
#
#######################################################################
#
# If this CIF has been generated from an entry in the Cambridge 
# Structural Database, then it will include bibliographic, chemical, 
# crystal, experimental, refinement or atomic coordinate data resulting 
# from the CCDC's data processing and validation procedures.
#
#######################################################################

data_NALWIG
_chemical_formula_moiety         'C10 H8 S8 1+,C10 H8 S8,C2 H2 F7 O3 S2 1-'
_chemical_name_systematic        
'bis(bis(Ethylenedithio)tetrathiafulvalenium) 1-pentafluorothio-2,2-difluoroethane-2-sulfonate'
_symmetry_cell_setting           triclinic
_symmetry_space_group_name_H-M   'P -1'
_symmetry_Int_Tables_number      2
_space_group_name_Hall           '-P 1'
loop_
_symmetry_equiv_pos_site_id
_symmetry_equiv_pos_as_xyz
1 x,y,z
2 -x,-y,-z
_cell_length_a                   9.1536(6)
_cell_length_b                   11.4395(8)
_cell_length_c                   17.4905(12)
_cell_angle_alpha                94.316(1)
_cell_angle_beta                 91.129(1)
_cell_angle_gamma                102.764(1)
_cell_volume                     1779.91
_exptl_crystal_colour            black
_cell_formula_units_Z            2
loop_
_atom_site_label
_atom_site_type_symbol
_atom_site_fract_x
_atom_site_fract_y
_atom_site_fract_z
S1 S 0.68701(9) 0.22159(8) 0.00545(5)
F1 F 0.8156(2) 0.1497(2) 0.00824(13)
F2 F 0.8106(2) 0.3356(2) -0.01331(12)
F3 F 0.7226(2) 0.2596(2) 0.09485(11)
F4 F 0.5753(2) 0.1039(2) 0.02586(14)
F5 F 0.6634(2) 0.1795(2) -0.08309(12)
C1 C 0.5462(4) 0.3107(3) 0.0011(2)
C2 C 0.3840(4) 0.2470(3) 0.0003(2)
F6 F 0.3463(2) 0.1643(2) -0.06038(14)
F7 F 0.3504(2) 0.1869(2) 0.06467(14)
S2 S 0.26247(9) 0.35455(9) -0.00200(5)
O1 O 0.3058(3) 0.4165(2) -0.06995(14)
O2 O 0.1133(3) 0.2789(3) -0.0066(2)
O3 O 0.3034(3) 0.4291(3) 0.06926(15)
H1 H 0.5610 0.3516 -0.0444
H2 H 0.5640 0.3676 0.0446
S3 S 0.83041(9) 0.12943(8) 0.45970(5)
S4 S 0.61793(9) -0.10495(8) 0.46093(5)
S5 S 0.96692(10) 0.08876(8) 0.62760(5)
S6 S 0.76330(9) -0.15017(8) 0.62040(5)
S7 S 0.72968(10) 0.18471(8) 0.30916(5)
S8 S 0.46176(10) -0.08805(8) 0.31470(5)
S9 S 1.07921(10) 0.08285(8) 0.78711(5)
S10 S 0.83075(10) -0.20179(8) 0.77746(5)
C3 C 0.7660(4) 0.0010(3) 0.5079(2)
C4 C 0.8260(4) -0.0172(3) 0.5768(2)
C5 C 0.7054(4) 0.0847(3) 0.3805(2)
C6 C 0.6052(4) -0.0228(3) 0.3823(2)
C7 C 0.9625(4) 0.0088(3) 0.7098(2)
C8 C 0.8674(4) -0.1008(3) 0.7067(2)
C9 C 0.5610(4) 0.1281(3) 0.2500(2)
C10 C 0.5245(4) -0.0070(4) 0.2325(2)
C11 C 0.9953(4) -0.0013(3) 0.8648(2)
C12 C 0.9780(4) -0.1361(3) 0.8485(2)
H3 H 0.5730 0.1647 0.2029
H4 H 0.4795 0.1499 0.2760
H5 H 0.4476 -0.0276 0.1934
H6 H 0.6120 -0.0306 0.2147
H7 H 0.8990 0.0147 0.8728
H8 H 1.0569 0.0243 0.9100
H9 H 1.0700 -0.1508 0.8303
H10 H 0.9555 -0.1735 0.8948
S11 S 0.95186(9) 0.58889(8) 0.62184(5)
S12 S 0.75241(9) 0.34921(8) 0.61469(5)
S13 S 0.81936(9) 0.62809(8) 0.45382(5)
S14 S 0.60805(9) 0.39341(8) 0.45388(5)
S15 S 1.07185(9) 0.58308(8) 0.77895(5)
S16 S 0.83214(10) 0.29478(8) 0.76971(5)
S17 S 0.70813(10) 0.69147(8) 0.30811(5)
S18 S 0.44967(10) 0.41520(8) 0.30830(5)
C13 C 0.8127(4) 0.4825(3) 0.5712(2)
C14 C 0.7528(4) 0.5002(3) 0.5018(2)
C15 C 0.9516(4) 0.5084(3) 0.7031(2)
C16 C 0.8591(4) 0.3975(3) 0.6997(2)
C17 C 0.6887(4) 0.5874(3) 0.3768(2)
C18 C 0.5905(4) 0.4800(3) 0.3775(2)
C19 C 1.0042(4) 0.4911(3) 0.8562(2)
C20 C 0.9926(4) 0.3582(3) 0.8339(2)
C21 C 0.5610(4) 0.6232(3) 0.2367(2)
C22 C 0.5313(4) 0.4870(3) 0.2254(2)
H11 H 0.9078 0.5027 0.8692
H12 H 1.0715 0.5152 0.8995
H13 H 1.0811 0.3489 0.8090
H14 H 0.9832 0.3162 0.8790
H15 H 0.5888 0.6546 0.1890
H16 H 0.4709 0.6447 0.2521
H17 H 0.4643 0.4603 0.1822
H18 H 0.6235 0.4642 0.2160
loop_
_geom_bond_atom_site_label_1
_geom_bond_atom_site_label_2
_geom_bond_site_symmetry_1
_geom_bond_site_symmetry_2
S1 F1 1_555 1_555
F2 S1 1_555 1_555
F3 S1 1_555 1_555
F4 S1 1_555 1_555
F5 S1 1_555 1_555
C1 S1 1_555 1_555
C2 C1 1_555 1_555
F6 C2 1_555 1_555
F7 C2 1_555 1_555
S2 C2 1_555 1_555
O1 S2 1_555 1_555
O2 S2 1_555 1_555
O3 S2 1_555 1_555
S3 C3 1_555 1_555
S4 C3 1_555 1_555
S5 C4 1_555 1_555
S6 C4 1_555 1_555
S7 C5 1_555 1_555
S8 C6 1_555 1_555
S9 C7 1_555 1_555
S10 C8 1_555 1_555
C3 C4 1_555 1_555
C5 S3 1_555 1_555
C6 S4 1_555 1_555
C7 S5 1_555 1_555
C8 S6 1_555 1_555
C9 S7 1_555 1_555
C10 S8 1_555 1_555
C11 S9 1_555 1_555
C12 S10 1_555 1_555
S11 C13 1_555 1_555
S12 C13 1_555 1_555
S13 C14 1_555 1_555
S14 C14 1_555 1_555
S15 C15 1_555 1_555
S16 C16 1_555 1_555
S17 C17 1_555 1_555
S18 C18 1_555 1_555
C13 C14 1_555 1_555
C15 S11 1_555 1_555
C16 S12 1_555 1_555
C17 S13 1_555 1_555
C18 S14 1_555 1_555
C19 S15 1_555 1_555
C20 S16 1_555 1_555
C21 S17 1_555 1_555
C22 S18 1_555 1_555
H1 C1 1_555 1_555
H2 C1 1_555 1_555
H3 C9 1_555 1_555
H4 C9 1_555 1_555
H5 C10 1_555 1_555
H6 C10 1_555 1_555
H7 C11 1_555 1_555
H8 C11 1_555 1_555
H9 C12 1_555 1_555
H10 C12 1_555 1_555
H11 C19 1_555 1_555
H12 C19 1_555 1_555
H13 C20 1_555 1_555
H14 C20 1_555 1_555
H15 C21 1_555 1_555
H16 C21 1_555 1_555
H17 C22 1_555 1_555
H18 C22 1_555 1_555
C5 C6 1_555 1_555
C7 C8 1_555 1_555
C9 C10 1_555 1_555
C11 C12 1_555 1_555
C15 C16 1_555 1_555
C17 C18 1_555 1_555
C19 C20 1_555 1_555
C21 C22 1_555 1_555

#END
