
#######################################################################
#
#                 Cambridge Crystallographic Data Centre
#                                CCDC 
#
#######################################################################
#
# If this CIF has been generated from an entry in the Cambridge 
# Structural Database, then it will include bibliographic, chemical, 
# crystal, experimental, refinement or atomic coordinate data resulting 
# from the CCDC's data processing and validation procedures.
#
#######################################################################

data_NAMHUH
_chemical_formula_moiety         'C18 H19 N1 O1 S3'
_chemical_name_systematic        
2-(1,3-benzothiazol-2-yl)-5-(bis(ethylsulfanyl)methyl)phenol
_symmetry_cell_setting           orthorhombic
_symmetry_space_group_name_H-M   'P b 21 a'
_symmetry_Int_Tables_number      29
_space_group_name_Hall           'P -2a -2ab'
loop_
_symmetry_equiv_pos_site_id
_symmetry_equiv_pos_as_xyz
1 x,y,z
2 1/2+x,y,-z
3 1/2-x,1/2+y,z
4 -x,1/2+y,-z
_cell_length_a                   15.0821(12)
_cell_length_b                   40.391(4)
_cell_length_c                   5.8259(5)
_cell_angle_alpha                90
_cell_angle_beta                 90
_cell_angle_gamma                90
_cell_volume                     3549.03
_cell_formula_units_Z            8
loop_
_atom_site_label
_atom_site_type_symbol
_atom_site_fract_x
_atom_site_fract_y
_atom_site_fract_z
S1 S 0.44256(17) 0.64872(8) 1.0251(4)
S2 S 0.2616(3) 0.48053(13) 1.4756(7)
S3 S 0.4405(3) 0.45855(12) 1.3348(9)
O1 O 0.5107(7) 0.5779(3) 1.6231(13)
H1 H 0.5227 0.5975 1.6028
N1 N 0.5131(5) 0.6362(2) 1.4212(15)
C1 C 0.4943(7) 0.6811(3) 1.1751(18)
C2 C 0.5054(7) 0.7142(3) 1.1035(19)
H2 H 0.4834 0.7218 0.9640
C3 C 0.5511(7) 0.7346(3) 1.2536(19)
H3 H 0.5613 0.7566 1.2132
C4 C 0.5818(8) 0.7230(4) 1.462(2)
H4 H 0.6097 0.7376 1.5625
C5 C 0.5724(7) 0.6907(3) 1.5253(17)
H5 H 0.5952 0.6832 1.6641
C6 C 0.5283(7) 0.6693(3) 1.3802(17)
C7 C 0.4681(7) 0.6222(3) 1.2549(18)
C8 C 0.4399(7) 0.5875(3) 1.2550(16)
C9 C 0.4626(8) 0.5667(3) 1.445(2)
C10 C 0.4320(7) 0.5342(4) 1.448(2)
H6 H 0.4441 0.5208 1.5739
C11 C 0.3845(9) 0.5219(3) 1.269(2)
C12 C 0.3640(8) 0.5424(3) 1.082(2)
H7 H 0.3309 0.5341 0.9607
C13 C 0.3921(8) 0.5743(3) 1.078(2)
H8 H 0.3786 0.5874 0.9514
C14 C 0.3503(10) 0.4871(3) 1.268(2)
H9 H 0.3277 0.4820 1.1142
C15 C 0.3941(13) 0.4207(5) 1.231(4)
H10 H 0.4312 0.4026 1.2832
H11 H 0.3362 0.4178 1.3007
C16 C 0.384(3) 0.4177(9) 0.972(7)
H12 H 0.4410 0.4169 0.9016
H13 H 0.3515 0.4365 0.9152
H14 H 0.3515 0.3978 0.9365
C17 C 0.1709(8) 0.5029(5) 1.345(3)
H15 H 0.1234 0.5051 1.4558
H16 H 0.1910 0.5250 1.3059
C18 C 0.1343(11) 0.4867(6) 1.130(3)
H17 H 0.1734 0.4909 1.0036
H18 H 0.0767 0.4956 1.0971
H19 H 0.1297 0.4632 1.1545
S4 S 0.29474(17) 0.66281(8) 0.5246(4)
S5 S 0.4794(3) 0.83161(13) 0.9717(7)
S6 S 0.3002(3) 0.85311(13) 0.8209(10)
O2 O 0.2301(7) 0.7339(3) 1.1226(15)
H20 H 0.2354 0.7138 1.1365
N2 N 0.2284(6) 0.6757(3) 0.9237(17)
C19 C 0.2448(7) 0.6309(3) 0.6721(17)
C20 C 0.2342(8) 0.5975(3) 0.6070(19)
H21 H 0.2576 0.5896 0.4698
C21 C 0.1882(9) 0.5770(4) 0.7533(19)
H22 H 0.1784 0.5551 0.7092
C22 C 0.1561(8) 0.5875(4) 0.962(2)
H23 H 0.1267 0.5727 1.0583
C23 C 0.1674(8) 0.6194(4) 1.0284(19)
H24 H 0.1459 0.6264 1.1697
C24 C 0.2120(6) 0.6420(3) 0.8826(17)
C25 C 0.2710(6) 0.6890(3) 0.7543(16)
C26 C 0.2986(6) 0.7234(3) 0.7604(19)
C27 C 0.2772(6) 0.7441(3) 0.945(2)
C28 C 0.3068(9) 0.7765(4) 0.946(2)
H25 H 0.2932 0.7900 1.0708
C29 C 0.3574(7) 0.7895(3) 0.763(2)
C30 C 0.3756(7) 0.7701(4) 0.576(2)
H26 H 0.4054 0.7791 0.4512
C31 C 0.3493(7) 0.7368(3) 0.573(2)
H27 H 0.3646 0.7233 0.4494
C32 C 0.3890(7) 0.8252(4) 0.765(3)
H28 H 0.4121 0.8302 0.6115
C33 C 0.5655(11) 0.8077(5) 0.847(3)
H29 H 0.6117 0.8051 0.9618
H30 H 0.5419 0.7859 0.8156
C34 C 0.6103(17) 0.8207(6) 0.622(4)
H31 H 0.5660 0.8235 0.5053
H32 H 0.6539 0.8050 0.5713
H33 H 0.6383 0.8416 0.6520
C35 C 0.3476(17) 0.8929(5) 0.728(5)
H34 H 0.3067 0.9104 0.7682
H35 H 0.4022 0.8967 0.8117
C36 C 0.366(2) 0.8951(7) 0.486(5)
H36 H 0.3494 0.8748 0.4117
H37 H 0.4287 0.8988 0.4634
H38 H 0.3335 0.9132 0.4204
loop_
_geom_bond_atom_site_label_1
_geom_bond_atom_site_label_2
_geom_bond_site_symmetry_1
_geom_bond_site_symmetry_2
S1 C1 1_555 1_555
S2 C14 1_555 1_555
S3 C14 1_555 1_555
O1 H1 1_555 1_555
N1 C6 1_555 1_555
C1 C2 1_555 1_555
C2 H2 1_555 1_555
C3 C2 1_555 1_555
H3 C3 1_555 1_555
C4 C3 1_555 1_555
H4 C4 1_555 1_555
C5 C4 1_555 1_555
H5 C5 1_555 1_555
C6 C1 1_555 1_555
C7 S1 1_555 1_555
C8 C7 1_555 1_555
C9 O1 1_555 1_555
C10 C9 1_555 1_555
H6 C10 1_555 1_555
C11 C10 1_555 1_555
C12 C11 1_555 1_555
H7 C12 1_555 1_555
C13 C8 1_555 1_555
H8 C13 1_555 1_555
C14 C11 1_555 1_555
H9 C14 1_555 1_555
C15 S3 1_555 1_555
H10 C15 1_555 1_555
H11 C15 1_555 1_555
C16 C15 1_555 1_555
H12 C16 1_555 1_555
H13 C16 1_555 1_555
H14 C16 1_555 1_555
C17 S2 1_555 1_555
H15 C17 1_555 1_555
H16 C17 1_555 1_555
C18 C17 1_555 1_555
H17 C18 1_555 1_555
H18 C18 1_555 1_555
H19 C18 1_555 1_555
S4 C19 1_555 1_555
S5 C32 1_555 1_555
S6 C32 1_555 1_555
O2 H20 1_555 1_555
N2 C24 1_555 1_555
C19 C20 1_555 1_555
C20 H21 1_555 1_555
C21 C20 1_555 1_555
H22 C21 1_555 1_555
C22 C21 1_555 1_555
H23 C22 1_555 1_555
C23 C22 1_555 1_555
H24 C23 1_555 1_555
C24 C19 1_555 1_555
C25 S4 1_555 1_555
C26 C25 1_555 1_555
C27 O2 1_555 1_555
C28 C27 1_555 1_555
H25 C28 1_555 1_555
C29 C28 1_555 1_555
C30 C29 1_555 1_555
H26 C30 1_555 1_555
C31 C26 1_555 1_555
H27 C31 1_555 1_555
C32 C29 1_555 1_555
H28 C32 1_555 1_555
C33 S5 1_555 1_555
H29 C33 1_555 1_555
H30 C33 1_555 1_555
C34 C33 1_555 1_555
H31 C34 1_555 1_555
H32 C34 1_555 1_555
H33 C34 1_555 1_555
C35 S6 1_555 1_555
H34 C35 1_555 1_555
H35 C35 1_555 1_555
C36 C35 1_555 1_555
H36 C36 1_555 1_555
H37 C36 1_555 1_555
H38 C36 1_555 1_555
N1 C7 1_555 1_555
C5 C6 1_555 1_555
C8 C9 1_555 1_555
C12 C13 1_555 1_555
N2 C25 1_555 1_555
C23 C24 1_555 1_555
C26 C27 1_555 1_555
C30 C31 1_555 1_555

#END
