
#######################################################################
#
#                 Cambridge Crystallographic Data Centre
#                                CCDC 
#
#######################################################################
#
# If this CIF has been generated from an entry in the Cambridge 
# Structural Database, then it will include bibliographic, chemical, 
# crystal, experimental, refinement or atomic coordinate data resulting 
# from the CCDC's data processing and validation procedures.
#
#######################################################################

data_NAMHAL
_chemical_formula_moiety         'C19 H27 N1 O3,H2 O1'
_chemical_name_systematic        
'9-Ethyl-N-hydroxy-3,3,6,6-tetramethyl-1,8-dioxo-1,2,3,4,5,6,7,8,9,10-decahydroacridine monohydrate'
_chemical_properties_biological  'potential pharmaceutical activity'
_symmetry_cell_setting           monoclinic
_symmetry_space_group_name_H-M   'P 21/c'
_symmetry_Int_Tables_number      14
_space_group_name_Hall           '-P 2ybc'
loop_
_symmetry_equiv_pos_site_id
_symmetry_equiv_pos_as_xyz
1 x,y,z
2 -x,1/2+y,1/2-z
3 -x,-y,-z
4 x,1/2-y,1/2+z
_cell_length_a                   12.533(1)
_cell_length_b                   13.184(2)
_cell_length_c                   11.883(2)
_cell_angle_alpha                90
_cell_angle_beta                 109.06(1)
_cell_angle_gamma                90
_cell_volume                     1855.84
_exptl_crystal_colour            yellow
_exptl_crystal_description       prism
_chemical_melting_point          '204-205 deg.C'
_cell_formula_units_Z            4
_exptl_crystal_recrystallization_method ethanol
loop_
_atom_site_label
_atom_site_type_symbol
_atom_site_fract_x
_atom_site_fract_y
_atom_site_fract_z
O1 O 0.34172(14) 0.57124(12) 0.53170(16)
O2 O 0.26703(14) 0.22324(11) 0.81097(15)
O3 O -0.01776(13) 0.49731(12) 0.74153(17)
N1 N 0.29118(14) 0.52159(12) 0.60542(16)
C1 C 0.32800(16) 0.42454(15) 0.64342(18)
C2 C 0.41571(19) 0.37923(17) 0.5986(2)
H1 H 0.4698 0.4313 0.5967
H2 H 0.3799 0.3556 0.5177
C3 C 0.47853(18) 0.29063(18) 0.6753(2)
C4 C 0.3910(2) 0.21952(17) 0.6969(2)
H3 H 0.3487 0.1875 0.6221
H4 H 0.4302 0.1664 0.7513
C5 C 0.30978(17) 0.27059(15) 0.74708(19)
C6 C 0.28120(16) 0.37592(15) 0.71670(18)
C7 C 0.20645(18) 0.43138(16) 0.77276(18)
H5 H 0.1501 0.3839 0.7829
C8 C 0.14587(17) 0.51605(14) 0.69055(18)
C9 C 0.03307(18) 0.54498(16) 0.68554(19)
C10 C -0.02429(18) 0.63146(16) 0.6053(2)
H6 H -0.0734 0.6662 0.6412
H7 H -0.0714 0.6037 0.5299
C11 C 0.05601(18) 0.70876(16) 0.5813(2)
C12 C 0.14394(18) 0.65216(16) 0.54039(19)
H8 H 0.1087 0.6297 0.4589
H9 H 0.2042 0.6987 0.5415
C13 C 0.19357(17) 0.56219(15) 0.61651(18)
C14 C 0.2793(2) 0.4706(2) 0.89697(19)
H10 H 0.3183 0.4133 0.9437
H11 H 0.3363 0.5160 0.8866
C15 C 0.2167(3) 0.5252(3) 0.9666(3)
H12 H 0.1965 0.5918 0.9341
H13 H 0.2638 0.5306 1.0483
H14 H 0.1495 0.4881 0.9622
C16 C 0.5586(2) 0.3303(2) 0.7933(2)
H15 H 0.6147 0.3729 0.7785
H16 H 0.5947 0.2741 0.8425
H17 H 0.5166 0.3688 0.8332
C17 C 0.5464(2) 0.2342(2) 0.6099(3)
H18 H 0.6020 0.2788 0.5975
H19 H 0.4967 0.2111 0.5343
H20 H 0.5832 0.1770 0.6565
C18 C 0.1143(2) 0.76990(17) 0.6929(2)
H21 H 0.0586 0.8028 0.7195
H22 H 0.1622 0.8201 0.6754
H23 H 0.1591 0.7254 0.7541
C19 C -0.0120(2) 0.7800(2) 0.4819(3)
H24 H -0.0483 0.7412 0.4113
H25 H 0.0377 0.8288 0.4655
H26 H -0.0681 0.8144 0.5066
H27 H 0.311(3) 0.548(3) 0.4623(16)
O4 O 0.25069(16) 0.48898(14) 0.32245(17)
H28 H 0.265(2) 0.4278(9) 0.321(2)
H29 H 0.1837(13) 0.487(3) 0.282(3)
loop_
_geom_bond_atom_site_label_1
_geom_bond_atom_site_label_2
_geom_bond_site_symmetry_1
_geom_bond_site_symmetry_2
O1 N1 1_555 1_555
O2 C5 1_555 1_555
O3 C9 1_555 1_555
O4 H28 1_555 1_555
N1 C1 1_555 1_555
C1 C2 1_555 1_555
C2 H1 1_555 1_555
H2 C2 1_555 1_555
C3 C2 1_555 1_555
C4 C3 1_555 1_555
H3 C4 1_555 1_555
H4 C4 1_555 1_555
C5 C4 1_555 1_555
C6 C1 1_555 1_555
C7 C6 1_555 1_555
H5 C7 1_555 1_555
C8 C7 1_555 1_555
C9 C8 1_555 1_555
C10 C9 1_555 1_555
H6 C10 1_555 1_555
H7 C10 1_555 1_555
C11 C10 1_555 1_555
C12 C11 1_555 1_555
H8 C12 1_555 1_555
H9 C12 1_555 1_555
C13 N1 1_555 1_555
C14 C7 1_555 1_555
H10 C14 1_555 1_555
H11 C14 1_555 1_555
C15 C14 1_555 1_555
H12 C15 1_555 1_555
H13 C15 1_555 1_555
H14 C15 1_555 1_555
C16 C3 1_555 1_555
H15 C16 1_555 1_555
H16 C16 1_555 1_555
H17 C16 1_555 1_555
C17 C3 1_555 1_555
H18 C17 1_555 1_555
H19 C17 1_555 1_555
H20 C17 1_555 1_555
C18 C11 1_555 1_555
H21 C18 1_555 1_555
H22 C18 1_555 1_555
H23 C18 1_555 1_555
C19 C11 1_555 1_555
H24 C19 1_555 1_555
H25 C19 1_555 1_555
H26 C19 1_555 1_555
H27 O1 1_555 1_555
H29 O4 1_555 1_555
C5 C6 1_555 1_555
C8 C13 1_555 1_555
C12 C13 1_555 1_555

#END
