
#######################################################################
#
#                 Cambridge Crystallographic Data Centre
#                                CCDC 
#
#######################################################################
#
# If this CIF has been generated from an entry in the Cambridge 
# Structural Database, then it will include bibliographic, chemical, 
# crystal, experimental, refinement or atomic coordinate data resulting 
# from the CCDC's data processing and validation procedures.
#
#######################################################################

data_NAMJAN
_chemical_formula_moiety         'C18 H16 O2'
_chemical_name_systematic        
3a-Hydroxy-3-phenyl-1,2,3,3a,8a-pentahydrocyclopenta(a)inden-8-one
_symmetry_cell_setting           monoclinic
_symmetry_space_group_name_H-M   'P 21/n'
_symmetry_Int_Tables_number      14
_space_group_name_Hall           '-P 2yn'
loop_
_symmetry_equiv_pos_site_id
_symmetry_equiv_pos_as_xyz
1 x,y,z
2 1/2-x,1/2+y,1/2-z
3 -x,-y,-z
4 1/2+x,1/2-y,1/2+z
_cell_length_a                   9.947(3)
_cell_length_b                   10.336(3)
_cell_length_c                   13.239(4)
_cell_angle_alpha                90
_cell_angle_beta                 95.565(6)
_cell_angle_gamma                90
_cell_volume                     1354.72
_exptl_crystal_colour            colorless
_exptl_crystal_description       block
_cell_formula_units_Z            4
_exptl_crystal_recrystallization_method chloroform
loop_
_atom_site_label
_atom_site_type_symbol
_atom_site_fract_x
_atom_site_fract_y
_atom_site_fract_z
O1 O 0.42216(15) 0.50437(13) 0.63556(10)
H1 H 0.3798 0.4722 0.6814
O2 O 0.19351(16) 0.88371(16) 0.70131(11)
C1 C 0.3757(2) 0.8206(2) 0.53599(16)
H2 H 0.3558 0.7877 0.4659
H3 H 0.3353 0.9077 0.5407
C2 C 0.5278(2) 0.8242(2) 0.56653(16)
H4 H 0.5498 0.8821 0.6253
H5 H 0.5776 0.8534 0.5094
C3 C 0.56129(19) 0.68344(19) 0.59427(14)
H6 H 0.5516 0.6340 0.5290
C4 C 0.44290(19) 0.63897(18) 0.65454(14)
C5 C 0.3222(2) 0.7273(2) 0.61347(14)
H7 H 0.2462 0.6740 0.5808
C6 C 0.45720(19) 0.66491(18) 0.76831(14)
C7 C 0.5459(2) 0.60742(19) 0.84242(15)
H8 H 0.6127 0.5482 0.8245
C8 C 0.5350(2) 0.6383(2) 0.94322(15)
H9 H 0.5956 0.6002 0.9946
C9 C 0.4363(2) 0.7243(2) 0.97054(15)
H10 H 0.4306 0.7437 1.0401
C10 C 0.3473(2) 0.7812(2) 0.89758(15)
H11 H 0.2798 0.8395 0.9157
C11 C 0.35953(19) 0.75059(18) 0.79623(14)
C12 C 0.27881(19) 0.79870(19) 0.70510(15)
C13 C 0.7021(2) 0.6557(2) 0.64284(14)
C14 C 0.7650(2) 0.5409(2) 0.62034(16)
H12 H 0.7182 0.4805 0.5757
C15 C 0.8952(2) 0.5128(2) 0.66189(19)
H13 H 0.9367 0.4337 0.6455
C16 C 0.9644(2) 0.5995(3) 0.72689(19)
H14 H 1.0537 0.5806 0.7551
C17 C 0.9032(2) 0.7141(3) 0.75071(16)
H15 H 0.9503 0.7738 0.7958
C18 C 0.7731(2) 0.7421(2) 0.70884(15)
H16 H 0.7319 0.8213 0.7254
loop_
_geom_bond_atom_site_label_1
_geom_bond_atom_site_label_2
_geom_bond_site_symmetry_1
_geom_bond_site_symmetry_2
O1 H1 1_555 1_555
O2 C12 1_555 1_555
C1 H2 1_555 1_555
H3 C1 1_555 1_555
C2 C1 1_555 1_555
H4 C2 1_555 1_555
H5 C2 1_555 1_555
C3 C2 1_555 1_555
H6 C3 1_555 1_555
C4 O1 1_555 1_555
C5 C1 1_555 1_555
H7 C5 1_555 1_555
C6 C4 1_555 1_555
C7 C6 1_555 1_555
H8 C7 1_555 1_555
C8 C7 1_555 1_555
H9 C8 1_555 1_555
C9 C8 1_555 1_555
H10 C9 1_555 1_555
C10 C9 1_555 1_555
H11 C10 1_555 1_555
C11 C6 1_555 1_555
C12 C5 1_555 1_555
C13 C3 1_555 1_555
C14 C13 1_555 1_555
H12 C14 1_555 1_555
C15 C14 1_555 1_555
H13 C15 1_555 1_555
C16 C15 1_555 1_555
H14 C16 1_555 1_555
C17 C16 1_555 1_555
H15 C17 1_555 1_555
C18 C13 1_555 1_555
H16 C18 1_555 1_555
C3 C4 1_555 1_555
C4 C5 1_555 1_555
C10 C11 1_555 1_555
C11 C12 1_555 1_555
C17 C18 1_555 1_555

#END
