
#######################################################################
#
#                 Cambridge Crystallographic Data Centre
#                                CCDC 
#
#######################################################################
#
# If this CIF has been generated from an entry in the Cambridge 
# Structural Database, then it will include bibliographic, chemical, 
# crystal, experimental, refinement or atomic coordinate data resulting 
# from the CCDC's data processing and validation procedures.
#
#######################################################################

data_NAMKAN01
_chemical_formula_moiety         'C12 H12 N2'
_chemical_name_systematic        4,4'-Dimethyl-2,2'-bipyridine
_symmetry_cell_setting           orthorhombic
_symmetry_space_group_name_H-M   'P b c a'
_symmetry_Int_Tables_number      61
_space_group_name_Hall           '-P 2ac 2ab'
loop_
_symmetry_equiv_pos_site_id
_symmetry_equiv_pos_as_xyz
1 x,y,z
2 1/2-x,-y,1/2+z
3 1/2+x,1/2-y,-z
4 -x,1/2+y,1/2-z
5 -x,-y,-z
6 1/2+x,y,1/2-z
7 1/2-x,1/2+y,z
8 x,1/2-y,1/2+z
_cell_length_a                   12.033(5)
_cell_length_b                   10.783(3)
_cell_length_c                   7.677(4)
_cell_angle_alpha                90
_cell_angle_beta                 90
_cell_angle_gamma                90
_cell_volume                     996.105
_cell_formula_units_Z            4
loop_
_atom_site_label
_atom_site_type_symbol
_atom_site_fract_x
_atom_site_fract_y
_atom_site_fract_z
N1 N 0.9818(1) 0.1435(1) 0.8839(2)
C1 C 0.8993(1) 0.2187(2) 0.8351(2)
C2 C 0.7886(1) 0.1984(2) 0.8748(2)
C3 C 0.7587(1) 0.0943(2) 0.9680(2)
C4 C 0.8442(1) 0.0147(2) 1.0182(2)
C5 C 0.9534(1) 0.0419(1) 0.9732(2)
C6 C 0.6397(2) 0.0680(2) 1.0154(3)
H1 H 0.920(2) 0.292(2) 0.769(2)
H2 H 0.732(2) 0.258(2) 0.829(2)
H3 H 0.829(1) -0.057(2) 1.086(2)
H4 H 0.595(3) 0.065(4) 0.921(4)
H5 H 0.604(3) 0.136(5) 1.093(5)
H6 H 0.631(2) -0.008(4) 1.072(4)
C5D C 1.0466(1) -0.0419(1) 1.0268(2)
N1D N 1.0182(1) -0.1435(1) 1.1161(2)
C1D C 1.1007(1) -0.2187(2) 1.1649(2)
C2D C 1.2114(1) -0.1984(2) 1.1252(2)
C3D C 1.2413(1) -0.0943(2) 1.0320(2)
C4D C 1.1558(1) -0.0147(2) 0.9818(2)
H3D H 1.171(1) 0.057(2) 0.914(2)
C6D C 1.3603(2) -0.0680(2) 0.9846(3)
H4D H 1.405(3) -0.065(4) 1.079(4)
H5D H 1.396(3) -0.136(5) 0.907(5)
H6D H 1.369(2) 0.008(4) 0.928(4)
H2D H 1.268(2) -0.258(2) 1.171(2)
H1D H 1.080(2) -0.292(2) 1.231(2)
loop_
_geom_bond_atom_site_label_1
_geom_bond_atom_site_label_2
_geom_bond_site_symmetry_1
_geom_bond_site_symmetry_2
N1 C1 1_555 1_555
C1 C2 1_555 1_555
C2 C3 1_555 1_555
C3 C4 1_555 1_555
C4 C5 1_555 1_555
C5 N1 1_555 1_555
C6 C3 1_555 1_555
H1 C1 1_555 1_555
H2 C2 1_555 1_555
H3 C4 1_555 1_555
H4 C6 1_555 1_555
H5 C6 1_555 1_555
H6 C6 1_555 1_555
C5D C5 1_555 1_555
N1D C5D 1_555 1_555
C1D N1D 1_555 1_555
C2D C1D 1_555 1_555
C3D C2D 1_555 1_555
C4D C5D 1_555 1_555
H3D C4D 1_555 1_555
C6D C3D 1_555 1_555
H4D C6D 1_555 1_555
H5D C6D 1_555 1_555
H6D C6D 1_555 1_555
H2D C2D 1_555 1_555
H1D C1D 1_555 1_555
C3D C4D 1_555 1_555

#END
