
#######################################################################
#
#                 Cambridge Crystallographic Data Centre
#                                CCDC 
#
#######################################################################
#
# If this CIF has been generated from an entry in the Cambridge 
# Structural Database, then it will include bibliographic, chemical, 
# crystal, experimental, refinement or atomic coordinate data resulting 
# from the CCDC's data processing and validation procedures.
#
#######################################################################

data_NAMKAN02
_chemical_formula_moiety         'C12 H12 N2'
_chemical_name_systematic        4,4'-Dimethyl-2,2'-bipyridyl
_symmetry_cell_setting           orthorhombic
_symmetry_space_group_name_H-M   'P b c a'
_symmetry_Int_Tables_number      61
_space_group_name_Hall           '-P 2ac 2ab'
loop_
_symmetry_equiv_pos_site_id
_symmetry_equiv_pos_as_xyz
1 x,y,z
2 1/2+x,y,1/2-z
3 1/2-x,1/2+y,z
4 x,1/2-y,1/2+z
5 -x,-y,-z
6 1/2-x,-y,1/2+z
7 1/2+x,1/2-y,-z
8 -x,1/2+y,1/2-z
_cell_length_a                   11.991(3)
_cell_length_b                   10.746(2)
_cell_length_c                   7.456(2)
_cell_angle_alpha                90
_cell_angle_beta                 90
_cell_angle_gamma                90
_cell_volume                     960.745
_exptl_crystal_colour            colorless
_cell_formula_units_Z            4
loop_
_atom_site_label
_atom_site_type_symbol
_atom_site_fract_x
_atom_site_fract_y
_atom_site_fract_z
N1 N 0.51891(6) 0.64671(7) 0.38626(10)
C1 C 0.60226(8) 0.72323(8) 0.33973(13)
H1 H 0.5796(10) 0.8012(11) 0.2723(17)
C2 C 0.71401(7) 0.70104(9) 0.37892(12)
H2 H 0.7702(11) 0.7620(12) 0.3374(17)
C3 C 0.74315(7) 0.59317(8) 0.47176(12)
C4 C 0.65696(7) 0.51257(8) 0.51934(12)
H3 H 0.6723(10) 0.4370(12) 0.5872(15)
C5 C 0.54662(7) 0.54222(8) 0.47498(11)
C6 C 0.86251(8) 0.56513(10) 0.51765(13)
H4 H 0.9077 0.5668 0.4081
H5 H 0.8673 0.4825 0.5728
H6 H 0.8904 0.6278 0.6019
C5D C 0.45338(7) 0.45778(8) 0.52502(11)
N1D N 0.48109(6) 0.35329(7) 0.61374(10)
C1D C 0.39774(8) 0.27677(8) 0.66027(13)
H1D H 0.4204(10) 0.1988(11) 0.7277(17)
C2D C 0.28599(7) 0.29896(9) 0.62108(12)
H2D H 0.2298(11) 0.2380(12) 0.6626(17)
C3D C 0.25685(7) 0.40683(8) 0.52824(12)
C4D C 0.34304(7) 0.48743(8) 0.48066(12)
H3D H 0.3277(10) 0.5630(12) 0.4128(15)
C6D C 0.13749(8) 0.43487(10) 0.48235(13)
H4D H 0.0923 0.4332 0.5919
H5D H 0.1327 0.5175 0.4272
H6D H 0.1096 0.3722 0.3981
loop_
_geom_bond_atom_site_label_1
_geom_bond_atom_site_label_2
_geom_bond_site_symmetry_1
_geom_bond_site_symmetry_2
N1 C1 1_555 1_555
C1 H1 1_555 1_555
C2 C1 1_555 1_555
H2 C2 1_555 1_555
C3 C2 1_555 1_555
C4 C3 1_555 1_555
H3 C4 1_555 1_555
C5 N1 1_555 1_555
C6 C3 1_555 1_555
H4 C6 1_555 1_555
H5 C6 1_555 1_555
H6 C6 1_555 1_555
C5D C5 1_555 1_555
N1D C5D 1_555 1_555
C1D N1D 1_555 1_555
H1D C1D 1_555 1_555
C2D C1D 1_555 1_555
H2D C2D 1_555 1_555
C3D C2D 1_555 1_555
C4D C5D 1_555 1_555
H3D C4D 1_555 1_555
C6D C3D 1_555 1_555
H4D C6D 1_555 1_555
H5D C6D 1_555 1_555
H6D C6D 1_555 1_555
C4 C5 1_555 1_555
C3D C4D 1_555 1_555

#END
