
#######################################################################
#
#                 Cambridge Crystallographic Data Centre
#                                CCDC 
#
#######################################################################
#
# If this CIF has been generated from an entry in the Cambridge 
# Structural Database, then it will include bibliographic, chemical, 
# crystal, experimental, refinement or atomic coordinate data resulting 
# from the CCDC's data processing and validation procedures.
#
#######################################################################

data_NAMPOI
_chemical_formula_moiety         '4(C1 F3 O3 S1 1-),C66 H56 N8 4+'
_chemical_name_systematic        
'4,5,10,11,15,16,21,22-Octaphenyl-3,9,14,20-tetraaza-1,6,12,17-tetraazoniapentacyclo[18.2.1.1^3,6^.1^9,12^.1^14,17^]hexacosa-1(23),4,6(26),10,12(25),15,17(24),21-octaene tetrakis(trifluoromethanesulfonate)'
_symmetry_cell_setting           monoclinic
_symmetry_space_group_name_H-M   'C 2/c'
_symmetry_Int_Tables_number      15
_space_group_name_Hall           '-C 2yn'
loop_
_symmetry_equiv_pos_site_id
_symmetry_equiv_pos_as_xyz
1 x,y,z
2 -x,y,1/2-z
3 1/2+x,1/2+y,z
4 1/2-x,1/2+y,1/2-z
5 -x,-y,-z
6 x,-y,1/2+z
7 1/2-x,1/2-y,-z
8 1/2+x,1/2-y,1/2+z
_cell_length_a                   31.220(13)
_cell_length_b                   9.095(4)
_cell_length_c                   27.918(17)
_cell_angle_alpha                90
_cell_angle_beta                 121.881(4)
_cell_angle_gamma                90
_cell_volume                     6731.36
_exptl_crystal_colour            colorless
_exptl_crystal_description       needle
_cell_formula_units_Z            4
loop_
_atom_site_label
_atom_site_type_symbol
_atom_site_fract_x
_atom_site_fract_y
_atom_site_fract_z
S1 S 0.23832(8) 0.5820(2) 0.09479(9)
F1 F 0.31996(18) 0.4273(6) 0.1570(2)
F2 F 0.26046(19) 0.3840(6) 0.1723(2)
F3 F 0.3040(2) 0.5829(6) 0.2036(2)
O1 O 0.2681(2) 0.6911(7) 0.0874(3)
O2 O 0.2221(2) 0.4617(7) 0.0545(2)
O3 O 0.2011(2) 0.6381(7) 0.1049(3)
C6 C 0.2828(3) 0.4904(11) 0.1603(4)
S2 S 0.09105(9) 0.2470(3) -0.10625(10)
O4 O 0.0802(3) 0.0996(8) -0.0980(3)
O5 O 0.1156(3) 0.3371(8) -0.0564(3)
F4 F 0.0007(2) 0.2674(7) -0.1961(3)
F5 F 0.0350(3) 0.4742(7) -0.1595(3)
O6 O 0.1116(3) 0.2599(9) -0.1414(3)
F6 F 0.0059(3) 0.3330(12) -0.1216(4)
C34 C 0.0293(4) 0.3317(12) -0.1475(5)
N1 N 0.1963(3) 0.4912(8) -0.1001(3)
N2 N 0.1370(3) 0.8149(8) -0.0379(3)
N3 N 0.1863(2) 0.9963(8) 0.0092(3)
N4 N 0.1422(3) 0.6383(8) -0.1007(3)
C1 C 0.1749(3) 0.8970(10) -0.0310(4)
H1 H 0.1914 0.8867 -0.0513
C2 C 0.1527(3) 0.9786(9) 0.0286(3)
C3 C 0.1658(3) 0.5415(9) -0.1549(3)
C4 C 0.1105(3) 0.6990(10) -0.0812(4)
H2 H 0.1003 0.6188 -0.0652
H3 H 0.0794 0.7409 -0.1138
C5 C 0.1521(3) 1.0632(10) 0.0727(4)
C7 C 0.0658(3) 0.6757(11) -0.2564(4)
H4 H 0.0670 0.5739 -0.2631
C8 C 0.1225(3) 0.8624(10) -0.0015(4)
C9 C 0.0768(3) 0.8076(10) -0.0032(4)
C10 C 0.1312(3) 0.6361(9) -0.1555(3)
C11 C 0.0943(3) 0.7304(10) -0.2021(4)
C12 C 0.0353(3) 0.7688(11) -0.3013(4)
H5 H 0.0157 0.7304 -0.3385
C13 C 0.1477(3) 1.2180(10) 0.0704(4)
H6 H 0.1466 1.2714 0.0405
C14 C 0.0913(3) 0.8796(10) -0.1934(4)
H7 H 0.1109 0.9191 -0.1564
C15 C 0.0603(3) 0.9710(11) -0.2378(4)
H8 H 0.0573 1.0718 -0.2311
C16 C 0.1804(3) 0.5489(9) -0.0687(4)
H9 H 0.1940 0.5294 -0.0299
C17 C 0.0335(4) 0.9163(12) -0.2919(4)
H10 H 0.0138 0.9805 -0.3227
C18 C 0.1727(3) 0.4899(10) -0.2001(4)
C19 C 0.2224(3) 1.1160(9) 0.0227(4)
H11 H 0.2039 1.2105 0.0129
H12 H 0.2368 1.1057 -0.0013
C20 C 0.1457(3) 1.2166(11) 0.1551(4)
H13 H 0.1438 1.2690 0.1833
C21 C 0.2353(3) 0.3770(9) -0.0827(3)
H14 H 0.2495 0.3848 -0.1071
H15 H 0.2190 0.2794 -0.0897
C22 C 0.1482(4) 0.3321(11) -0.2792(4)
H16 H 0.1260 0.2602 -0.3051
C23 C 0.1493(3) 1.0645(11) 0.1571(4)
H17 H 0.1490 1.0118 0.1863
C24 C 0.1423(4) 0.3792(11) -0.2369(4)
H18 H 0.1169 0.3360 -0.2323
C25 C 0.1534(3) 0.9900(10) 0.1167(4)
H19 H 0.1572 0.8861 0.1192
C26 C 0.0806(4) 0.6948(11) 0.0316(4)
H20 H 0.1118 0.6450 0.0543
C27 C 0.2118(3) 0.5470(11) -0.2058(4)
H21 H 0.2338 0.6205 -0.1806
C28 C 0.0311(3) 0.8765(10) -0.0375(4)
H22 H 0.0285 0.9534 -0.0619
C29 C 0.1868(4) 0.3888(12) -0.2848(4)
H23 H 0.1916 0.3539 -0.3137
C30 C -0.0065(4) 0.7222(13) -0.0009(5)
H24 H -0.0355 0.6923 -0.0004
C31 C 0.1449(3) 1.2901(10) 0.1120(4)
H25 H 0.1424 1.3943 0.1107
C32 C -0.0109(3) 0.8342(11) -0.0364(4)
H26 H -0.0424 0.8818 -0.0599
C33 C 0.0382(4) 0.6534(12) 0.0335(5)
H27 H 0.0407 0.5783 0.0585
C35 C 0.2179(4) 0.4954(12) -0.2481(4)
H28 H 0.2441 0.5343 -0.2521
N1F N 0.3037(3) 1.0088(8) 0.1001(3)
N2F N 0.3630(3) 0.6851(8) 0.0379(3)
N3F N 0.3137(2) 0.5037(8) -0.0092(3)
N4F N 0.3578(3) 0.8617(8) 0.1007(3)
C1F C 0.3251(3) 0.6030(10) 0.0310(4)
H1F H 0.3086 0.6133 0.0513
C2F C 0.3473(3) 0.5214(9) -0.0286(3)
C3F C 0.3342(3) 0.9585(9) 0.1549(3)
C4F C 0.3895(3) 0.8010(10) 0.0812(4)
H2F H 0.3997 0.8812 0.0652
H3F H 0.4206 0.7591 0.1138
C5F C 0.3479(3) 0.4368(10) -0.0727(4)
C7F C 0.4342(3) 0.8243(11) 0.2564(4)
H4F H 0.4330 0.9261 0.2631
C8F C 0.3775(3) 0.6376(10) 0.0015(4)
C9F C 0.4232(3) 0.6924(10) 0.0032(4)
C10F C 0.3688(3) 0.8639(9) 0.1555(3)
C11F C 0.4057(3) 0.7696(10) 0.2021(4)
C12F C 0.4647(3) 0.7312(11) 0.3013(4)
H5F H 0.4843 0.7696 0.3385
C13F C 0.3523(3) 0.2820(10) -0.0704(4)
H6F H 0.3534 0.2286 -0.0405
C14F C 0.4087(3) 0.6204(10) 0.1934(4)
H7F H 0.3891 0.5809 0.1564
C15F C 0.4397(3) 0.5290(11) 0.2378(4)
H8F H 0.4427 0.4282 0.2311
C16F C 0.3196(3) 0.9511(9) 0.0687(4)
H9F H 0.3060 0.9706 0.0299
C17F C 0.4665(4) 0.5837(12) 0.2919(4)
H10F H 0.4862 0.5195 0.3227
C18F C 0.3273(3) 1.0101(10) 0.2001(4)
C19F C 0.2776(3) 0.3840(9) -0.0227(4)
H11F H 0.2961 0.2895 -0.0129
H12F H 0.2632 0.3943 0.0013
C20F C 0.3543(3) 0.2834(11) -0.1551(4)
H13F H 0.3562 0.2310 -0.1833
C21F C 0.2647(3) 1.1230(9) 0.0827(3)
H14F H 0.2505 1.1152 0.1071
H15F H 0.2810 1.2206 0.0897
C22F C 0.3518(4) 1.1679(11) 0.2792(4)
H16F H 0.3740 1.2398 0.3051
C23F C 0.3507(3) 0.4355(11) -0.1571(4)
H17F H 0.3510 0.4882 -0.1863
C24F C 0.3577(4) 1.1208(11) 0.2369(4)
H18F H 0.3831 1.1640 0.2323
C25F C 0.3466(3) 0.5100(10) -0.1167(4)
H19F H 0.3428 0.6139 -0.1192
C26F C 0.4194(4) 0.8052(11) -0.0316(4)
H20F H 0.3882 0.8550 -0.0543
C27F C 0.2882(3) 0.9530(11) 0.2058(4)
H21F H 0.2662 0.8795 0.1806
C28F C 0.4689(3) 0.6235(10) 0.0375(4)
H22F H 0.4715 0.5466 0.0619
C29F C 0.3132(4) 1.1112(12) 0.2848(4)
H23F H 0.3084 1.1461 0.3137
C30F C 0.5065(4) 0.7778(13) 0.0009(5)
H24F H 0.5355 0.8077 0.0004
C31F C 0.3551(3) 0.2099(10) -0.1120(4)
H25F H 0.3576 0.1057 -0.1107
C32F C 0.5109(3) 0.6658(11) 0.0364(4)
H26F H 0.5424 0.6182 0.0599
C33F C 0.4618(4) 0.8466(12) -0.0335(5)
H27F H 0.4593 0.9217 -0.0585
C35F C 0.2821(4) 1.0046(12) 0.2481(4)
H28F H 0.2559 0.9657 0.2521
loop_
_geom_bond_atom_site_label_1
_geom_bond_atom_site_label_2
_geom_bond_site_symmetry_1
_geom_bond_site_symmetry_2
S1 O1 1_555 1_555
S2 O4 1_555 1_555
F1 C6 1_555 1_555
F2 C6 1_555 1_555
F3 C6 1_555 1_555
N1 C3 1_555 1_555
O2 S1 1_555 1_555
O3 S1 1_555 1_555
N2 C1 1_555 1_555
N3 C1 1_555 1_555
N4 C4 1_555 1_555
O5 S2 1_555 1_555
C1 H1 1_555 1_555
F4 C34 1_555 1_555
C2 N3 1_555 1_555
C3 C10 1_555 1_555
C4 N2 1_555 1_555
H2 C4 1_555 1_555
H3 C4 1_555 1_555
C5 C2 1_555 1_555
C6 S1 1_555 1_555
C7 H4 1_555 1_555
F5 C34 1_555 1_555
C8 N2 1_555 1_555
C9 C8 1_555 1_555
C10 N4 1_555 1_555
O6 S2 1_555 1_555
C11 C7 1_555 1_555
C12 C7 1_555 1_555
H5 C12 1_555 1_555
C13 C5 1_555 1_555
H6 C13 1_555 1_555
C14 C11 1_555 1_555
H7 C14 1_555 1_555
C15 C14 1_555 1_555
H8 C15 1_555 1_555
C16 N1 1_555 1_555
H9 C16 1_555 1_555
C17 C12 1_555 1_555
H10 C17 1_555 1_555
C18 C3 1_555 1_555
C19 N3 1_555 1_555
H11 C19 1_555 1_555
H12 C19 1_555 1_555
C20 H13 1_555 1_555
C21 N1 1_555 1_555
H14 C21 1_555 1_555
H15 C21 1_555 1_555
C22 H16 1_555 1_555
C23 C20 1_555 1_555
H17 C23 1_555 1_555
C24 C18 1_555 1_555
H18 C24 1_555 1_555
C25 C5 1_555 1_555
H19 C25 1_555 1_555
C26 C9 1_555 1_555
H20 C26 1_555 1_555
C27 C18 1_555 1_555
H21 C27 1_555 1_555
C28 C9 1_555 1_555
H22 C28 1_555 1_555
F6 C34 1_555 1_555
C29 C22 1_555 1_555
H23 C29 1_555 1_555
C30 H24 1_555 1_555
C31 C13 1_555 1_555
H25 C31 1_555 1_555
C32 C28 1_555 1_555
H26 C32 1_555 1_555
C33 C26 1_555 1_555
H27 C33 1_555 1_555
C34 S2 1_555 1_555
C35 C27 1_555 1_555
H28 C35 1_555 1_555
N1F C3F 1_555 1_555
N2F C1F 1_555 1_555
N3F C1F 1_555 1_555
N4F C4F 1_555 1_555
C1F H1F 1_555 1_555
C2F N3F 1_555 1_555
C3F C10F 1_555 1_555
C4F N2F 1_555 1_555
H2F C4F 1_555 1_555
H3F C4F 1_555 1_555
C5F C2F 1_555 1_555
C7F H4F 1_555 1_555
C8F N2F 1_555 1_555
C9F C8F 1_555 1_555
C10F N4F 1_555 1_555
C11F C7F 1_555 1_555
C12F C7F 1_555 1_555
H5F C12F 1_555 1_555
C13F C5F 1_555 1_555
H6F C13F 1_555 1_555
C14F C11F 1_555 1_555
H7F C14F 1_555 1_555
C15F C14F 1_555 1_555
H8F C15F 1_555 1_555
C16F N1F 1_555 1_555
H9F C16F 1_555 1_555
C17F C12F 1_555 1_555
H10F C17F 1_555 1_555
C18F C3F 1_555 1_555
C19F C21 1_555 1_555
H11F C19F 1_555 1_555
H12F C19F 1_555 1_555
C20F H13F 1_555 1_555
C21F C19 1_555 1_555
H14F C21F 1_555 1_555
H15F C21F 1_555 1_555
C22F H16F 1_555 1_555
C23F C20F 1_555 1_555
H17F C23F 1_555 1_555
C24F C18F 1_555 1_555
H18F C24F 1_555 1_555
C25F C5F 1_555 1_555
H19F C25F 1_555 1_555
C26F C9F 1_555 1_555
H20F C26F 1_555 1_555
C27F C18F 1_555 1_555
H21F C27F 1_555 1_555
C28F C9F 1_555 1_555
H22F C28F 1_555 1_555
C29F C22F 1_555 1_555
H23F C29F 1_555 1_555
C30F H24F 1_555 1_555
C31F C13F 1_555 1_555
H25F C31F 1_555 1_555
C32F C28F 1_555 1_555
H26F C32F 1_555 1_555
C33F C26F 1_555 1_555
H27F C33F 1_555 1_555
C35F C27F 1_555 1_555
H28F C35F 1_555 1_555
N4 C16 1_555 1_555
C2 C8 1_555 1_555
C10 C11 1_555 1_555
C15 C17 1_555 1_555
C20 C31 1_555 1_555
C22 C24 1_555 1_555
C23 C25 1_555 1_555
C29 C35 1_555 1_555
C30 C32 1_555 1_555
C30 C33 1_555 1_555
N1F C21F 1_555 1_555
N3F C19F 1_555 1_555
N4F C16F 1_555 1_555
C2F C8F 1_555 1_555
C10F C11F 1_555 1_555
C15F C17F 1_555 1_555
C20F C31F 1_555 1_555
C22F C24F 1_555 1_555
C23F C25F 1_555 1_555
C29F C35F 1_555 1_555
C30F C32F 1_555 1_555
C30F C33F 1_555 1_555

#END
