
#######################################################################
#
#                 Cambridge Crystallographic Data Centre
#                                CCDC 
#
#######################################################################
#
# If this CIF has been generated from an entry in the Cambridge 
# Structural Database, then it will include bibliographic, chemical, 
# crystal, experimental, refinement or atomic coordinate data resulting 
# from the CCDC's data processing and validation procedures.
#
#######################################################################

data_NAMPIC
_chemical_formula_moiety         '4(C2 H3 N1),4(I1 1-),C66 H56 N8 4+'
_chemical_name_systematic        
'4,5,10,11,15,16,21,22-Octaphenyl-3,9,14,20-tetraaza-1,6,12,17-tetraazoniapentacyclo[18.2.1.1^3,6^.1^9,12^.1^14,17^]hexacosa-1(23),4,6(26),10,12(25),15,17(24),21-octaene tetrakis(iodide) acetonitrile solvate'
_symmetry_cell_setting           monoclinic
_symmetry_space_group_name_H-M   'C 2/c'
_symmetry_Int_Tables_number      15
_space_group_name_Hall           '-C 2yn'
loop_
_symmetry_equiv_pos_site_id
_symmetry_equiv_pos_as_xyz
1 x,y,z
2 -x,y,1/2-z
3 1/2+x,1/2+y,z
4 1/2-x,1/2+y,1/2-z
5 -x,-y,-z
6 x,-y,1/2+z
7 1/2-x,1/2-y,-z
8 1/2+x,1/2-y,1/2+z
_cell_length_a                   29.568(8)
_cell_length_b                   8.640(2)
_cell_length_c                   27.957(8)
_cell_angle_alpha                90
_cell_angle_beta                 104.272(3)
_cell_angle_gamma                90
_cell_volume                     6921.67
_exptl_crystal_colour            colorless
_exptl_crystal_description       needle
_cell_formula_units_Z            4
loop_
_atom_site_label
_atom_site_type_symbol
_atom_site_fract_x
_atom_site_fract_y
_atom_site_fract_z
C1 C 0.0476(3) 0.5757(9) 0.0707(3)
H1 H 0.0499 0.4895 0.0923
C2 C 0.1475(3) 1.0345(10) 0.1853(3)
H2 H 0.1508 0.9774 0.2150
C7 C 0.1250(2) 0.7122(8) -0.0516(2)
H9 H 0.1142 0.6199 -0.0366
H10 H 0.0977 0.7586 -0.0750
N3 N 0.18790(17) 1.0011(6) 0.03106(17)
N4 N 0.14504(17) 0.8257(6) -0.01247(17)
N5 N 0.29009(17) 0.9888(6) 0.09595(17)
C8 C 0.1822(2) 0.9163(7) -0.0094(2)
H11 H 0.2012 0.9194 -0.0323
C9 C 0.1922(2) 0.5622(7) -0.0602(2)
H12 H 0.2017 0.5301 -0.0267
N6 N 0.15898(17) 0.6659(6) -0.07803(17)
C10 C 0.1367(2) 1.2010(8) 0.0987(2)
H13 H 0.1324 1.2581 0.0689
C11 C 0.2567(2) 1.1155(7) 0.0928(2)
H14 H 0.2740 1.2142 0.1000
H15 H 0.2392 1.1004 0.1185
C12 C 0.1849(2) 0.5794(7) -0.1403(2)
C13 C 0.2220(2) 1.1278(7) 0.0425(2)
H16 H 0.2048 1.2268 0.0411
H17 H 0.2396 1.1312 0.0167
C14 C 0.1212(2) 0.7849(8) -0.1612(2)
C15 C 0.1537(2) 0.6764(7) -0.1291(2)
C16 C 0.1950(2) 0.5439(8) -0.1887(2)
C17 C 0.1473(2) 1.0460(8) 0.0995(2)
C18 C 0.1261(2) 0.8551(7) 0.0274(2)
C19 C 0.1527(2) 0.9665(8) 0.0543(2)
C20 C 0.1221(2) 0.9411(9) -0.1486(3)
H18 H 0.1425 0.9765 -0.1188
C21 C 0.0839(2) 0.7746(7) 0.0338(2)
C22 C 0.1325(2) 1.2740(9) 0.1416(2)
H19 H 0.1260 1.3817 0.1412
C23 C 0.0932(3) 1.0449(10) -0.1797(3)
H20 H 0.0937 1.1515 -0.1713
C24 C 0.0045(2) 0.6244(9) 0.0451(3)
H21 H -0.0228 0.5728 0.0491
C25 C 0.1527(3) 0.9606(9) 0.1431(2)
H22 H 0.1598 0.8533 0.1437
C26 C 0.0402(2) 0.8239(9) 0.0081(2)
H23 H 0.0375 0.9102 -0.0135
C27 C 0.2098(3) 0.4870(10) -0.2808(3)
H24 H 0.2151 0.4661 -0.3124
C28 C 0.0006(3) 0.7492(9) 0.0134(3)
H25 H -0.0293 0.7833 -0.0047
C29 C 0.0878(2) 0.6486(8) 0.0660(2)
H26 H 0.1175 0.6138 0.0842
C30 C 0.0915(2) 0.7335(9) -0.2045(2)
H27 H 0.0911 0.6272 -0.2133
C31 C 0.0636(3) 0.9927(10) -0.2231(3)
H28 H 0.0441 1.0639 -0.2446
C32 C 0.2275(3) 0.6270(10) -0.2052(2)
H29 H 0.2452 0.7047 -0.1848
C33 C 0.1689(3) 0.4310(9) -0.2181(3)
H30 H 0.1461 0.3731 -0.2071
C34 C 0.1770(3) 0.4046(9) -0.2645(3)
H31 H 0.1594 0.3275 -0.2852
C35 C 0.1376(3) 1.1923(9) 0.1845(3)
H32 H 0.1344 1.2429 0.2137
C36 C 0.0623(2) 0.8374(10) -0.2350(2)
H33 H 0.0413 0.8016 -0.2644
C37 C 0.2348(3) 0.5986(12) -0.2517(3)
H34 H 0.2573 0.6572 -0.2631
C1F C 0.4524(3) 0.9243(9) -0.0707(3)
H1F H 0.4501 1.0105 -0.0923
C2F C 0.3525(3) 0.4655(10) -0.1853(3)
H2F H 0.3492 0.5226 -0.2150
C7F C 0.3750(2) 0.7878(8) 0.0516(2)
H9F H 0.3858 0.8801 0.0366
H10F H 0.4023 0.7414 0.0750
N3F N 0.31210(17) 0.4989(6) -0.03106(17)
N4F N 0.35496(17) 0.6743(6) 0.01247(17)
N5F N 0.20991(17) 0.5112(6) -0.09595(17)
C8F C 0.3178(2) 0.5837(7) 0.0094(2)
H11F H 0.2988 0.5806 0.0323
C9F C 0.3078(2) 0.9378(7) 0.0602(2)
H12F H 0.2983 0.9699 0.0267
N6F N 0.34102(17) 0.8341(6) 0.07803(17)
C10F C 0.3633(2) 0.2990(8) -0.0987(2)
H13F H 0.3676 0.2419 -0.0689
C11F C 0.2433(2) 0.3845(7) -0.0928(2)
H14F H 0.2260 0.2858 -0.1000
H15F H 0.2608 0.3996 -0.1185
C12F C 0.3151(2) 0.9206(7) 0.1403(2)
C13F C 0.2780(2) 0.3722(7) -0.0425(2)
H16F H 0.2952 0.2732 -0.0411
H17F H 0.2604 0.3688 -0.0167
C14F C 0.3788(2) 0.7151(8) 0.1612(2)
C15F C 0.3463(2) 0.8236(7) 0.1291(2)
C16F C 0.3050(2) 0.9561(8) 0.1887(2)
C17F C 0.3527(2) 0.4540(8) -0.0995(2)
C18F C 0.3739(2) 0.6449(7) -0.0274(2)
C19F C 0.3473(2) 0.5335(8) -0.0543(2)
C20F C 0.3779(2) 0.5589(9) 0.1486(3)
H18F H 0.3575 0.5235 0.1188
C21F C 0.4161(2) 0.7254(7) -0.0338(2)
C22F C 0.3675(2) 0.2260(9) -0.1416(2)
H19F H 0.3740 0.1183 -0.1412
C23F C 0.4068(3) 0.4551(10) 0.1797(3)
H20F H 0.4063 0.3485 0.1713
C24F C 0.4955(2) 0.8756(9) -0.0451(3)
H21F H 0.5228 0.9272 -0.0491
C25F C 0.3473(3) 0.5394(9) -0.1431(2)
H22F H 0.3402 0.6467 -0.1437
C26F C 0.4598(2) 0.6761(9) -0.0081(2)
H23F H 0.4625 0.5898 0.0135
C27F C 0.2902(3) 1.0130(10) 0.2808(3)
H24F H 0.2849 1.0339 0.3124
C28F C 0.4994(3) 0.7508(9) -0.0134(3)
H25F H 0.5293 0.7167 0.0047
C29F C 0.4122(2) 0.8514(8) -0.0660(2)
H26F H 0.3825 0.8862 -0.0842
C30F C 0.4085(2) 0.7665(9) 0.2045(2)
H27F H 0.4089 0.8728 0.2133
C31F C 0.4364(3) 0.5073(10) 0.2231(3)
H28F H 0.4559 0.4361 0.2446
C32F C 0.2725(3) 0.8730(10) 0.2052(2)
H29F H 0.2548 0.7953 0.1848
C33F C 0.3311(3) 1.0690(9) 0.2181(3)
H30F H 0.3539 1.1269 0.2071
C34F C 0.3230(3) 1.0954(9) 0.2645(3)
H31F H 0.3406 1.1725 0.2852
C35F C 0.3624(3) 0.3077(9) -0.1845(3)
H32F H 0.3656 0.2571 -0.2137
C36F C 0.4377(2) 0.6626(10) 0.2350(2)
H33F H 0.4587 0.6984 0.2644
C37F C 0.2652(3) 0.9014(12) 0.2517(3)
H34F H 0.2427 0.8428 0.2631
N1 N 0.4904(3) 0.7380(11) 0.1206(3)
C3 C 0.5041(3) 0.6164(11) 0.1249(3)
C6 C 0.5207(4) 0.4577(11) 0.1291(4)
H6 H 0.4950 0.3881 0.1142
H7 H 0.5327 0.4313 0.1641
H8 H 0.5458 0.4467 0.1120
C4 C 0.4732(3) 0.0770(11) 0.1655(3)
H3 H 0.4501 0.0930 0.1849
H4 H 0.4712 -0.0298 0.1534
H5 H 0.4669 0.1486 0.1375
C5 C 0.5203(4) 0.1058(12) 0.1968(3)
N2 N 0.5555(3) 0.1325(12) 0.2231(3)
I1 I 0.272276(14) 0.92679(5) -0.080705(13)
I2 I 0.120993(14) 0.73062(5) 0.445091(15)
loop_
_geom_bond_atom_site_label_1
_geom_bond_atom_site_label_2
_geom_bond_site_symmetry_1
_geom_bond_site_symmetry_2
C1 H1 1_555 1_555
C2 H2 1_555 1_555
N1 C3 1_555 1_555
C3 C6 1_555 1_555
C4 H3 1_555 1_555
H4 C4 1_555 1_555
H5 C4 1_555 1_555
C5 C4 1_555 1_555
C6 H6 1_555 1_555
H7 C6 1_555 1_555
H8 C6 1_555 1_555
N2 C5 1_555 1_555
C7 H9 1_555 1_555
H10 C7 1_555 1_555
N3 C8 1_555 1_555
N4 C7 1_555 1_555
N5 C11 1_555 1_555
C8 N4 1_555 1_555
H11 C8 1_555 1_555
C9 H12 1_555 1_555
N6 C7 1_555 1_555
C10 H13 1_555 1_555
C11 H14 1_555 1_555
H15 C11 1_555 1_555
C12 C15 1_555 1_555
C13 N3 1_555 1_555
H16 C13 1_555 1_555
H17 C13 1_555 1_555
C14 C15 1_555 1_555
C15 N6 1_555 1_555
C16 C12 1_555 1_555
C17 C10 1_555 1_555
C18 N4 1_555 1_555
C19 N3 1_555 1_555
C20 C14 1_555 1_555
H18 C20 1_555 1_555
C21 C18 1_555 1_555
C22 C10 1_555 1_555
H19 C22 1_555 1_555
C23 C20 1_555 1_555
H20 C23 1_555 1_555
C24 C1 1_555 1_555
H21 C24 1_555 1_555
C25 C2 1_555 1_555
H22 C25 1_555 1_555
C26 C21 1_555 1_555
H23 C26 1_555 1_555
C27 H24 1_555 1_555
C28 C24 1_555 1_555
H25 C28 1_555 1_555
C29 C1 1_555 1_555
H26 C29 1_555 1_555
C30 C14 1_555 1_555
H27 C30 1_555 1_555
C31 C23 1_555 1_555
H28 C31 1_555 1_555
C32 C16 1_555 1_555
H29 C32 1_555 1_555
C33 C16 1_555 1_555
H30 C33 1_555 1_555
C34 C27 1_555 1_555
H31 C34 1_555 1_555
C35 C2 1_555 1_555
H32 C35 1_555 1_555
C36 C30 1_555 1_555
H33 C36 1_555 1_555
C37 C27 1_555 1_555
H34 C37 1_555 1_555
C1F H1F 1_555 1_555
C2F H2F 1_555 1_555
C7F H9F 1_555 1_555
H10F C7F 1_555 1_555
N3F C8F 1_555 1_555
N4F C7F 1_555 1_555
N5F C9 1_555 1_555
C8F N4F 1_555 1_555
H11F C8F 1_555 1_555
C9F N5 1_555 1_555
H12F C9F 1_555 1_555
N6F C7F 1_555 1_555
C10F H13F 1_555 1_555
C11F N5F 1_555 1_555
H14F C11F 1_555 1_555
H15F C11F 1_555 1_555
C12F N5 1_555 1_555
C13F N3F 1_555 1_555
H16F C13F 1_555 1_555
H17F C13F 1_555 1_555
C14F C15F 1_555 1_555
C15F N6F 1_555 1_555
C16F C12F 1_555 1_555
C17F C10F 1_555 1_555
C18F N4F 1_555 1_555
C19F N3F 1_555 1_555
C20F C14F 1_555 1_555
H18F C20F 1_555 1_555
C21F C18F 1_555 1_555
C22F C10F 1_555 1_555
H19F C22F 1_555 1_555
C23F C20F 1_555 1_555
H20F C23F 1_555 1_555
C24F C1F 1_555 1_555
H21F C24F 1_555 1_555
C25F C2F 1_555 1_555
H22F C25F 1_555 1_555
C26F C21F 1_555 1_555
H23F C26F 1_555 1_555
C27F H24F 1_555 1_555
C28F C24F 1_555 1_555
H25F C28F 1_555 1_555
C29F C1F 1_555 1_555
H26F C29F 1_555 1_555
C30F C14F 1_555 1_555
H27F C30F 1_555 1_555
C31F C23F 1_555 1_555
H28F C31F 1_555 1_555
C32F C16F 1_555 1_555
H29F C32F 1_555 1_555
C33F C16F 1_555 1_555
H30F C33F 1_555 1_555
C34F C27F 1_555 1_555
H31F C34F 1_555 1_555
C35F C2F 1_555 1_555
H32F C35F 1_555 1_555
C36F C30F 1_555 1_555
H33F C36F 1_555 1_555
C37F C27F 1_555 1_555
H34F C37F 1_555 1_555
C9 N6 1_555 1_555
C11 C13 1_555 1_555
C12 N5F 1_555 1_555
C17 C19 1_555 1_555
C17 C25 1_555 1_555
C18 C19 1_555 1_555
C21 C29 1_555 1_555
C22 C35 1_555 1_555
C26 C28 1_555 1_555
C31 C36 1_555 1_555
C32 C37 1_555 1_555
C33 C34 1_555 1_555
C9F N6F 1_555 1_555
C11F C13F 1_555 1_555
C12F C15F 1_555 1_555
C17F C19F 1_555 1_555
C17F C25F 1_555 1_555
C18F C19F 1_555 1_555
C21F C29F 1_555 1_555
C22F C35F 1_555 1_555
C26F C28F 1_555 1_555
C31F C36F 1_555 1_555
C32F C37F 1_555 1_555
C33F C34F 1_555 1_555

#END
