
#######################################################################
#
#                 Cambridge Crystallographic Data Centre
#                                CCDC 
#
#######################################################################
#
# If this CIF has been generated from an entry in the Cambridge 
# Structural Database, then it will include bibliographic, chemical, 
# crystal, experimental, refinement or atomic coordinate data resulting 
# from the CCDC's data processing and validation procedures.
#
#######################################################################

data_NAMROJ
_chemical_formula_moiety         'C16 H16 N2 O3'
_chemical_name_systematic        
'Ethyl 6-amino-5-cyano-2-methyl-4-phenyl-4H-pyran-3-carboxylate'
_symmetry_cell_setting           triclinic
_symmetry_space_group_name_H-M   'P -1'
_symmetry_Int_Tables_number      2
_space_group_name_Hall           '-P 1'
loop_
_symmetry_equiv_pos_site_id
_symmetry_equiv_pos_as_xyz
1 x,y,z
2 -x,-y,-z
_cell_length_a                   8.1402(16)
_cell_length_b                   9.3393(19)
_cell_length_c                   11.206(2)
_cell_angle_alpha                107.047(3)
_cell_angle_beta                 103.066(4)
_cell_angle_gamma                106.257(3)
_cell_volume                     736.543
_exptl_crystal_colour            colorless
_exptl_crystal_description       block
_chemical_melting_point          '465-467 K'
_cell_formula_units_Z            2
loop_
_atom_site_label
_atom_site_type_symbol
_atom_site_fract_x
_atom_site_fract_y
_atom_site_fract_z
O1 O 0.13498(15) 0.40090(13) 0.82664(11)
O2 O 0.61798(16) 0.57641(16) 0.74546(13)
O3 O 0.72773(17) 0.43183(15) 0.84284(14)
N1 N -0.0462(2) 0.2452(2) 0.89645(16)
N2 N 0.1987(2) -0.0067(2) 0.98632(17)
C1 C 0.1105(2) 0.27912(19) 0.87218(15)
C2 C 0.2348(2) 0.20971(18) 0.88705(15)
C3 C 0.3921(2) 0.24600(18) 0.83584(15)
H1 H 0.5011 0.2584 0.9034
C4 C 0.4240(2) 0.40389(18) 0.81725(15)
C5 C 0.3009(2) 0.47198(19) 0.81313(15)
C6 C 0.3602(2) 0.10740(18) 0.70930(16)
C7 C 0.4325(3) -0.0085(2) 0.7129(2)
H2 H 0.5069 -0.0002 0.7929
C8 C 0.3947(3) -0.1382(2) 0.5970(3)
H3 H 0.4433 -0.2165 0.6001
C9 C 0.2863(3) -0.1512(2) 0.4781(2)
H4 H 0.2620 -0.2378 0.4009
C10 C 0.2146(3) -0.0372(2) 0.4738(2)
H5 H 0.1411 -0.0457 0.3933
C11 C 0.2506(3) 0.0917(2) 0.58876(18)
H6 H 0.2002 0.1688 0.5848
C12 C 0.3033(3) 0.6245(2) 0.7961(2)
H7 H 0.4256 0.6905 0.8106
H8 H 0.2579 0.6813 0.8588
H9 H 0.2281 0.6001 0.7078
C13 C 0.2111(2) 0.0898(2) 0.94084(16)
C14 C 0.6038(2) 0.47212(19) 0.80435(16)
C15 C 0.7911(6) 0.6809(6) 0.7451(6)
H10 H 0.8935 0.6780 0.8072
H11 H 0.7983 0.7916 0.7687
C16 C 0.7893(8) 0.6121(7) 0.6054(5)
H12 H 0.7875 0.5043 0.5854
H13 H 0.8960 0.6780 0.5962
H14 H 0.6831 0.6101 0.5452
H15 H -0.082 0.1677 0.9240
H16 H -0.110 0.3031 0.8846
C17? C 0.7991(6) 0.6204(7) 0.7311(8)
H17? H 0.8201 0.5246 0.6866
H18? H 0.8934 0.6806 0.8172
C18? C 0.7974(9) 0.7225(11) 0.6497(8)
H19? H 0.7072 0.6594 0.5636
H20? H 0.9147 0.7601 0.6406
H21? H 0.7694 0.8132 0.6928
loop_
_geom_bond_atom_site_label_1
_geom_bond_atom_site_label_2
_geom_bond_site_symmetry_1
_geom_bond_site_symmetry_2
O1 C1 1_555 1_555
O2 C14 1_555 1_555
O3 C14 1_555 1_555
N1 C1 1_555 1_555
N2 C13 1_555 1_555
C1 C2 1_555 1_555
C2 C3 1_555 1_555
C3 H1 1_555 1_555
C4 C3 1_555 1_555
C5 O1 1_555 1_555
C6 C3 1_555 1_555
C7 C6 1_555 1_555
H2 C7 1_555 1_555
C8 C7 1_555 1_555
H3 C8 1_555 1_555
C9 C8 1_555 1_555
H4 C9 1_555 1_555
C10 C9 1_555 1_555
H5 C10 1_555 1_555
C11 C6 1_555 1_555
H6 C11 1_555 1_555
C12 C5 1_555 1_555
H7 C12 1_555 1_555
H8 C12 1_555 1_555
H9 C12 1_555 1_555
C13 C2 1_555 1_555
C14 C4 1_555 1_555
C15 O2 1_555 1_555
H10 C15 1_555 1_555
H11 C15 1_555 1_555
C16 C15 1_555 1_555
H12 C16 1_555 1_555
H13 C16 1_555 1_555
H14 C16 1_555 1_555
H15 N1 1_555 1_555
H16 N1 1_555 1_555
C4 C5 1_555 1_555
C10 C11 1_555 1_555

#END
