
#######################################################################
#
#                 Cambridge Crystallographic Data Centre
#                                CCDC 
#
#######################################################################
#
# If this CIF has been generated from an entry in the Cambridge 
# Structural Database, then it will include bibliographic, chemical, 
# crystal, experimental, refinement or atomic coordinate data resulting 
# from the CCDC's data processing and validation procedures.
#
#######################################################################

data_NAMSIF
_chemical_formula_moiety         'C44 H56 S5'
_chemical_name_systematic        
2,5,9,12-Tetrahexylbisbisthieno[2',3':3,4;3'',2'':5,6]benzo[1,2-b:1',2'-d]thiophene
_symmetry_cell_setting           triclinic
_symmetry_space_group_name_H-M   'P -1'
_symmetry_Int_Tables_number      2
_space_group_name_Hall           '-P 1'
loop_
_symmetry_equiv_pos_site_id
_symmetry_equiv_pos_as_xyz
1 x,y,z
2 -x,-y,-z
_cell_length_a                   10.1471(4)
_cell_length_b                   11.6413(4)
_cell_length_c                   18.6557(7)
_cell_angle_alpha                104.485(2)
_cell_angle_beta                 96.393(2)
_cell_angle_gamma                98.156(2)
_cell_volume                     2087.15
_exptl_crystal_colour            black
_exptl_crystal_description       block
_cell_formula_units_Z            2
loop_
_atom_site_label
_atom_site_type_symbol
_atom_site_fract_x
_atom_site_fract_y
_atom_site_fract_z
C1 C -0.1364(5) 0.0547(5) 0.4099(3)
C2 C -0.0998(5) 0.0172(5) 0.3426(3)
H1 H -0.1576 -0.0351 0.3016
C3 C 0.0361(5) 0.0647(4) 0.3393(3)
C4 C 0.1010(5) 0.0436(5) 0.2746(3)
C5 C 0.0506(6) -0.0266(6) 0.1992(4)
H2 H -0.0373 -0.0682 0.1834
C6 C 0.2348(5) 0.0968(5) 0.2824(3)
C7 C 0.3040(5) 0.1695(5) 0.3516(3)
C8 C 0.4667(5) 0.2992(4) 0.4581(3)
C9 C 0.5794(5) 0.3709(4) 0.5076(3)
C10 C 0.7976(5) 0.4923(5) 0.5782(3)
C11 C 0.6984(5) 0.4946(5) 0.6211(3)
H3 H 0.7108 0.5378 0.6713
C12 C 0.5722(5) 0.4234(4) 0.5813(3)
C13 C 0.4466(5) 0.4008(4) 0.6068(3)
C14 C 0.4192(5) 0.4455(5) 0.6807(3)
H4 H 0.4828 0.4969 0.7194
C15 C 0.2922(5) 0.4063(5) 0.6894(3)
C16 C 0.3349(5) 0.3263(4) 0.5580(3)
C17 C 0.3417(4) 0.2728(4) 0.4802(3)
C18 C 0.2442(5) 0.1944(4) 0.4174(3)
C19 C 0.1051(5) 0.1379(4) 0.4081(3)
C20 C -0.2725(5) 0.0234(5) 0.4335(3)
H5 H -0.2614 -0.0194 0.4716
H6 H -0.3028 0.0976 0.4561
C21 C -0.3793(5) -0.0518(5) 0.3711(3)
H7 H -0.3490 -0.1260 0.3483
H8 H -0.3911 -0.0088 0.3332
C22 C -0.5140(5) -0.0830(5) 0.3957(3)
H9 H -0.5011 -0.1235 0.4348
H10 H -0.5451 -0.0087 0.4172
C23 C -0.6226(5) -0.1620(5) 0.3343(3)
H11 H -0.5934 -0.2379 0.3142
H12 H -0.6330 -0.1233 0.2941
C24 C -0.7589(5) -0.1883(5) 0.3591(4)
H13 H -0.7479 -0.2267 0.3993
H14 H -0.7876 -0.1122 0.3792
C25 C -0.8666(7) -0.2655(7) 0.3000(5)
H15 H -0.8743 -0.2316 0.2581
H16 H -0.9505 -0.2703 0.3192
H17 H -0.8452 -0.3448 0.2841
C26 C 0.9436(5) 0.5544(5) 0.5997(3)
H18 H 1.0006 0.4938 0.5894
H19 H 0.9617 0.6079 0.5682
C27 C 0.9813(5) 0.6254(5) 0.6797(3)
H20 H 0.9658 0.5716 0.7113
H21 H 0.9230 0.6848 0.6905
C28 C 1.1286(5) 0.6902(5) 0.6997(3)
H22 H 1.1868 0.6309 0.6881
H23 H 1.1436 0.7449 0.6687
C29 C 1.1674(6) 0.7603(6) 0.7808(4)
H24 H 1.1511 0.7057 0.8118
H25 H 1.1097 0.8201 0.7922
C30 C 1.3137(7) 0.8238(7) 0.8015(4)
H26 H 1.3719 0.7644 0.7905
H27 H 1.3305 0.8790 0.7710
C31 C 1.3483(10) 0.8924(10) 0.8828(5)
H28 H 1.2854 0.9459 0.8951
H29 H 1.4378 0.9385 0.8920
H30 H 1.3439 0.8369 0.9131
C32 C 0.2294(6) 0.4306(6) 0.7601(3)
H31 H 0.2773 0.5062 0.7938
H32 H 0.1370 0.4403 0.7474
C33 C 0.2294(8) 0.3365(7) 0.7998(4)
H33 H 0.1885 0.2596 0.7649
H34 H 0.1736 0.3529 0.8389
C34 C 0.3674(10) 0.3257(11) 0.8349(6)
H35 H 0.4201 0.3045 0.7948
H36 H 0.4103 0.4050 0.8662
C35 C 0.3771(14) 0.2437(16) 0.8786(9)
H37 H 0.3359 0.1639 0.8474
H38 H 0.3242 0.2641 0.9186
C36 C 0.520(2) 0.2370(15) 0.9140(11)
H39 H 0.5191 0.1625 0.9285
H40 H 0.5820 0.2388 0.8780
S1 S -0.00476(13) 0.14757(12) 0.47376(8)
S2 S 0.29754(17) 0.06111(17) 0.19894(9)
S3 S 0.47128(13) 0.23742(13) 0.36450(8)
S4 S 0.74120(13) 0.40537(13) 0.48722(8)
S5 S 0.19928(13) 0.31390(12) 0.60647(8)
C37 C 0.1450(7) -0.0256(6) 0.1538(4)
C38 C 0.559(3) 0.329(2) 0.9728(15)
H41 H 0.5448 0.4017 0.9598
H42 H 0.6534 0.3350 0.9900
H43 H 0.5084 0.3188 1.0118
C39 C 0.1331(8) -0.0919(8) 0.0720(4)
H44 H 0.1406 -0.0333 0.0431
H45 H 0.2082 -0.1347 0.0655
C40 C -0.0009(18) -0.2458(15) -0.0389(10)
H46 H 0.0561 -0.3066 -0.0416
H47 H 0.0345 -0.1917 -0.0669
C41 C 0.0151(14) -0.1731(13) 0.0435(8)
H48 H -0.0594 -0.1293 0.0493
H49 H 0.0067 -0.2295 0.0739
C42 C -0.113(3) -0.443(3) -0.0931(17)
H50 H -0.1255 -0.4816 -0.0535
H51 H -0.0356 -0.4579 -0.1174
C43 C -0.152(3) -0.314(2) -0.0826(14)
H52 H -0.2221 -0.3010 -0.0514
H53 H -0.1761 -0.2953 -0.1296
C44 C -0.264(3) -0.429(3) -0.1509(16)
H54 H -0.2834 -0.3488 -0.1342
H55 H -0.3392 -0.4861 -0.1467
H56 H -0.2503 -0.4445 -0.2022
loop_
_geom_bond_atom_site_label_1
_geom_bond_atom_site_label_2
_geom_bond_site_symmetry_1
_geom_bond_site_symmetry_2
C1 C2 1_555 1_555
C2 H1 1_555 1_555
C3 C2 1_555 1_555
C4 C3 1_555 1_555
C5 C4 1_555 1_555
H2 C5 1_555 1_555
C6 C4 1_555 1_555
C7 C6 1_555 1_555
C8 C9 1_555 1_555
C9 C12 1_555 1_555
C10 C11 1_555 1_555
C11 H3 1_555 1_555
C12 C11 1_555 1_555
C13 C12 1_555 1_555
C14 C13 1_555 1_555
H4 C14 1_555 1_555
C15 C14 1_555 1_555
C16 C13 1_555 1_555
C17 C8 1_555 1_555
C18 C7 1_555 1_555
C19 C3 1_555 1_555
C20 C1 1_555 1_555
H5 C20 1_555 1_555
H6 C20 1_555 1_555
C21 C20 1_555 1_555
H7 C21 1_555 1_555
H8 C21 1_555 1_555
C22 C21 1_555 1_555
H9 C22 1_555 1_555
H10 C22 1_555 1_555
C23 C22 1_555 1_555
H11 C23 1_555 1_555
H12 C23 1_555 1_555
C24 C23 1_555 1_555
H13 C24 1_555 1_555
H14 C24 1_555 1_555
C25 C24 1_555 1_555
H15 C25 1_555 1_555
H16 C25 1_555 1_555
H17 C25 1_555 1_555
C26 C10 1_555 1_555
H18 C26 1_555 1_555
H19 C26 1_555 1_555
C27 C26 1_555 1_555
H20 C27 1_555 1_555
H21 C27 1_555 1_555
C28 C27 1_555 1_555
H22 C28 1_555 1_555
H23 C28 1_555 1_555
C29 C28 1_555 1_555
H24 C29 1_555 1_555
H25 C29 1_555 1_555
C30 C29 1_555 1_555
H26 C30 1_555 1_555
H27 C30 1_555 1_555
C31 C30 1_555 1_555
H28 C31 1_555 1_555
H29 C31 1_555 1_555
H30 C31 1_555 1_555
C32 C15 1_555 1_555
H31 C32 1_555 1_555
H32 C32 1_555 1_555
C33 C32 1_555 1_555
H33 C33 1_555 1_555
H34 C33 1_555 1_555
C34 C33 1_555 1_555
H35 C34 1_555 1_555
H36 C34 1_555 1_555
C35 C34 1_555 1_555
H37 C35 1_555 1_555
H38 C35 1_555 1_555
C36 C35 1_555 1_555
H39 C36 1_555 1_555
H40 C36 1_555 1_555
S1 C1 1_555 1_555
S2 C6 1_555 1_555
S3 C7 1_555 1_555
S4 C9 1_555 1_555
S5 C15 1_555 1_555
C37 C5 1_555 1_555
C38 C36 1_555 1_555
H41 C38 1_555 1_555
H42 C38 1_555 1_555
H43 C38 1_555 1_555
C39 C37 1_555 1_555
H44 C39 1_555 1_555
H45 C39 1_555 1_555
C40 H46 1_555 1_555
H47 C40 1_555 1_555
C41 C39 1_555 1_555
H48 C41 1_555 1_555
H49 C41 1_555 1_555
C42 H50 1_555 1_555
H51 C42 1_555 1_555
C43 C40 1_555 1_555
H52 C43 1_555 1_555
H53 C43 1_555 1_555
C44 C42 1_555 1_555
H54 C44 1_555 1_555
H55 C44 1_555 1_555
H56 C44 1_555 1_555
C8 S3 1_555 1_555
C10 S4 1_555 1_555
C16 C17 1_555 1_555
C16 S5 1_555 1_555
C17 C18 1_555 1_555
C18 C19 1_555 1_555
C19 S1 1_555 1_555
S2 C37 1_555 1_555
C40 C41 1_555 1_555
C42 C43 1_555 1_555

#END
