
#######################################################################
#
#                 Cambridge Crystallographic Data Centre
#                                CCDC 
#
#######################################################################
#
# If this CIF has been generated from an entry in the Cambridge 
# Structural Database, then it will include bibliographic, chemical, 
# crystal, experimental, refinement or atomic coordinate data resulting 
# from the CCDC's data processing and validation procedures.
#
#######################################################################

data_NAMWOQ
_chemical_formula_moiety         'C26 H28 N4 O2'
_chemical_name_systematic        
2-amino-3',6'-bis(ethylamino)-2',7'-dimethylspiro[isoindole-1,9'-xanthen]-3(2H)-one
_symmetry_cell_setting           monoclinic
_symmetry_space_group_name_H-M   'P 21/c'
_symmetry_Int_Tables_number      14
_space_group_name_Hall           '-P 2ybc'
loop_
_symmetry_equiv_pos_site_id
_symmetry_equiv_pos_as_xyz
1 x,y,z
2 -x,1/2+y,1/2-z
3 -x,-y,-z
4 x,1/2-y,1/2+z
_cell_length_a                   17.1924(3)
_cell_length_b                   14.9073(3)
_cell_length_c                   8.83026(16)
_cell_angle_alpha                90
_cell_angle_beta                 99.2819(17)
_cell_angle_gamma                90
_cell_volume                     2233.5
_exptl_crystal_colour            'light colorless'
_exptl_crystal_description       block
_cell_formula_units_Z            4
loop_
_atom_site_label
_atom_site_type_symbol
_atom_site_fract_x
_atom_site_fract_y
_atom_site_fract_z
O1 O 0.24592(7) 0.16700(8) 0.10416(15)
N1 N 0.23308(8) -0.08876(9) 0.28693(14)
C1 C 0.31335(9) 0.11912(11) 0.15617(18)
C2 C 0.10874(9) 0.17622(11) 0.05491(18)
H1 H 0.1145 0.2258 -0.0062
N2 N 0.21686(11) -0.12511(11) 0.13857(17)
C3 C 0.02598(9) 0.07078(11) 0.16325(17)
O2 O 0.21145(9) -0.21459(8) 0.42316(16)
N3 N -0.03389(8) 0.18895(10) -0.00156(17)
H2 H -0.0786 0.1622 -0.0067
C4 C 0.17506(9) 0.13135(10) 0.12938(18)
C5 C 0.22647(9) -0.13428(11) 0.41684(19)
C6 C 0.38767(10) 0.00105(12) 0.28735(19)
H3 H 0.3902 -0.0497 0.3491
C7 C 0.16952(9) 0.05781(10) 0.22133(17)
C8 C 0.31471(9) 0.04385(11) 0.24755(17)
C9 C 0.24150(9) 0.00976(10) 0.30481(17)
C10 C 0.03411(9) 0.14684(10) 0.07199(17)
C11 C -0.05460(10) 0.03550(12) 0.1777(2)
H4 H -0.0825 0.0796 0.2271
H5 H -0.0493 -0.0185 0.2377
H6 H -0.0833 0.0229 0.0774
C12 C 0.09351(9) 0.02932(11) 0.23550(17)
H7 H 0.0883 -0.0203 0.2970
C13 C 0.24020(9) -0.06735(11) 0.54190(18)
N4 N 0.51910(9) 0.13876(13) 0.0956(2)
H8 H 0.5626 0.1103 0.1228
C14 C 0.24779(9) 0.01643(11) 0.47884(18)
C15 C 0.38073(10) 0.15162(12) 0.1064(2)
H9 H 0.3778 0.2030 0.0459
C16 C 0.45602(10) 0.03037(13) 0.2396(2)
C17 C 0.45225(10) 0.10778(13) 0.14653(19)
C18 C 0.24363(10) -0.07858(15) 0.6999(2)
H10 H 0.2389 -0.1351 0.7422
C19 C 0.25742(10) 0.09211(13) 0.5696(2)
H11 H 0.2618 0.1487 0.5273
C20 C -0.03063(11) 0.27697(12) -0.0695(2)
H12 H -0.0821 0.2912 -0.1271
H13 H 0.0066 0.2754 -0.1412
C21 C 0.25422(12) -0.00330(17) 0.7906(2)
H14 H 0.2573 -0.0090 0.8962
C22 C 0.53277(11) -0.01907(16) 0.2852(3)
H15 H 0.5251 -0.0678 0.3523
H16 H 0.5717 0.0213 0.3372
H17 H 0.5504 -0.0422 0.1951
C23 C 0.26038(12) 0.08083(16) 0.7274(2)
H18 H 0.2666 0.1308 0.7912
C24 C 0.51948(13) 0.21714(17) -0.0015(3)
H19 H 0.5038 0.2695 0.0515
H20 H 0.4818 0.2090 -0.0948
C25 C -0.00660(14) 0.35061(14) 0.0467(2)
H21 H -0.0099 0.4076 -0.0045
H22 H 0.0466 0.3406 0.0966
H23 H -0.0412 0.3504 0.1218
C26 C 0.59984(15) 0.2318(2) -0.0414(4)
H24 H 0.5984 0.2818 -0.1104
H25 H 0.6162 0.1790 -0.0897
H26 H 0.6364 0.2442 0.0504
H27 H 0.245(2) -0.168(2) 0.126(4)
H28 H 0.168(2) -0.143(3) 0.132(4)
loop_
_geom_bond_atom_site_label_1
_geom_bond_atom_site_label_2
_geom_bond_site_symmetry_1
_geom_bond_site_symmetry_2
O1 C1 1_555 1_555
N1 N2 1_555 1_555
C1 C8 1_555 1_555
C2 H1 1_555 1_555
N2 H27 1_555 1_555
C3 C10 1_555 1_555
O2 C5 1_555 1_555
N3 H2 1_555 1_555
C4 O1 1_555 1_555
C5 N1 1_555 1_555
C6 H3 1_555 1_555
C7 C4 1_555 1_555
C8 C6 1_555 1_555
C9 N1 1_555 1_555
C10 C2 1_555 1_555
C11 C3 1_555 1_555
H4 C11 1_555 1_555
H5 C11 1_555 1_555
H6 C11 1_555 1_555
C12 C3 1_555 1_555
H7 C12 1_555 1_555
C13 C5 1_555 1_555
N4 H8 1_555 1_555
C14 C9 1_555 1_555
C15 C1 1_555 1_555
H9 C15 1_555 1_555
C16 C6 1_555 1_555
C17 N4 1_555 1_555
C18 C13 1_555 1_555
H10 C18 1_555 1_555
C19 C14 1_555 1_555
H11 C19 1_555 1_555
C20 N3 1_555 1_555
H12 C20 1_555 1_555
H13 C20 1_555 1_555
C21 C18 1_555 1_555
H14 C21 1_555 1_555
C22 C16 1_555 1_555
H15 C22 1_555 1_555
H16 C22 1_555 1_555
H17 C22 1_555 1_555
C23 C19 1_555 1_555
H18 C23 1_555 1_555
C24 N4 1_555 1_555
H19 C24 1_555 1_555
H20 C24 1_555 1_555
C25 C20 1_555 1_555
H21 C25 1_555 1_555
H22 C25 1_555 1_555
H23 C25 1_555 1_555
C26 C24 1_555 1_555
H24 C26 1_555 1_555
H25 C26 1_555 1_555
H26 C26 1_555 1_555
H28 N2 1_555 1_555
C2 C4 1_555 1_555
N3 C10 1_555 1_555
C7 C9 1_555 1_555
C7 C12 1_555 1_555
C8 C9 1_555 1_555
C13 C14 1_555 1_555
C15 C17 1_555 1_555
C16 C17 1_555 1_555
C21 C23 1_555 1_555

#END
