
#######################################################################
#
#                 Cambridge Crystallographic Data Centre
#                                CCDC 
#
#######################################################################
#
# If this CIF has been generated from an entry in the Cambridge 
# Structural Database, then it will include bibliographic, chemical, 
# crystal, experimental, refinement or atomic coordinate data resulting 
# from the CCDC's data processing and validation procedures.
#
#######################################################################

data_NAMXIL
_chemical_name_common            4-dimethylamino-4'-methoxychalcone
_chemical_formula_moiety         'C18 H19 N1 O2'
_chemical_name_systematic        
3-(4-(dimethylamino)phenyl)-1-(4-methoxyphenyl)prop-2-en-1-one
_symmetry_cell_setting           monoclinic
_symmetry_space_group_name_H-M   'P 21/c'
_symmetry_Int_Tables_number      14
_space_group_name_Hall           '-P 2ybc'
loop_
_symmetry_equiv_pos_site_id
_symmetry_equiv_pos_as_xyz
1 x,y,z
2 -x,1/2+y,1/2-z
3 -x,-y,-z
4 x,1/2-y,1/2+z
_cell_length_a                   12.2241(4)
_cell_length_b                   10.7522(3)
_cell_length_c                   11.9191(4)
_cell_angle_alpha                90
_cell_angle_beta                 103.466(4)
_cell_angle_gamma                90
_cell_volume                     1523.53
_exptl_crystal_colour            yellow
_exptl_crystal_description       block
_chemical_melting_point          '399 K'
_cell_formula_units_Z            4
loop_
_atom_site_label
_atom_site_type_symbol
_atom_site_fract_x
_atom_site_fract_y
_atom_site_fract_z
O1 O -0.24780(8) 0.56268(11) 0.45758(9)
O2 O 0.19686(9) 0.75937(12) 0.79577(8)
N1 N 0.74165(10) 0.92079(14) 0.49650(11)
C1 C -0.14686(11) 0.60692(13) 0.51771(12)
C2 C -0.07020(12) 0.63925(14) 0.45376(11)
H1 H -0.0900 0.6319 0.3738
C3 C 0.03509(11) 0.68223(13) 0.50712(11)
H2 H 0.0860 0.7025 0.4629
C4 C 0.06642(11) 0.69574(13) 0.62713(11)
C5 C -0.01236(12) 0.66448(16) 0.68914(11)
H3 H 0.0063 0.6738 0.7689
C6 C -0.11765(12) 0.61989(16) 0.63629(12)
H4 H -0.1686 0.5987 0.6802
C7 C 0.17921(12) 0.74040(13) 0.69109(11)
C8 C 0.26653(12) 0.76094(13) 0.62771(12)
H5 H 0.2497 0.7479 0.5484
C9 C 0.37004(11) 0.79810(13) 0.68097(11)
H6 H 0.3830 0.8074 0.7606
C10 C 0.46413(11) 0.82556(13) 0.63119(11)
C11 C 0.46035(11) 0.81610(13) 0.51320(11)
H7 H 0.3944 0.7890 0.4633
C12 C 0.55059(12) 0.84551(13) 0.46929(11)
H8 H 0.5451 0.8367 0.3905
C13 C 0.65243(11) 0.88911(12) 0.54080(11)
C14 C 0.65639(12) 0.89944(15) 0.65890(12)
H9 H 0.7218 0.9276 0.7090
C15 C 0.56500(12) 0.86845(15) 0.70132(11)
H10 H 0.5703 0.8763 0.7801
C16 C 0.74102(15) 0.89880(17) 0.37728(15)
H11 H 0.6814 0.9458 0.3291
H12 H 0.7295 0.8118 0.3604
H13 H 0.8118 0.9241 0.3628
C17 C 0.84379(13) 0.97069(18) 0.56946(16)
H14 H 0.8802 0.9075 0.6219
H15 H 0.8256 1.0401 0.6124
H16 H 0.8933 0.9976 0.5224
C18 C -0.32621(13) 0.52153(18) 0.52064(15)
H17 H -0.3505 0.5910 0.5592
H18 H -0.2912 0.4609 0.5767
H19 H -0.3900 0.4849 0.4687
loop_
_geom_bond_atom_site_label_1
_geom_bond_atom_site_label_2
_geom_bond_site_symmetry_1
_geom_bond_site_symmetry_2
O1 C1 1_555 1_555
O2 C7 1_555 1_555
N1 C13 1_555 1_555
C1 C2 1_555 1_555
C2 H1 1_555 1_555
C3 C2 1_555 1_555
H2 C3 1_555 1_555
C4 C3 1_555 1_555
C5 C4 1_555 1_555
H3 C5 1_555 1_555
C6 C1 1_555 1_555
H4 C6 1_555 1_555
C7 C4 1_555 1_555
C8 C7 1_555 1_555
H5 C8 1_555 1_555
C9 C8 1_555 1_555
H6 C9 1_555 1_555
C10 C9 1_555 1_555
C11 C10 1_555 1_555
H7 C11 1_555 1_555
C12 C11 1_555 1_555
H8 C12 1_555 1_555
C13 C12 1_555 1_555
C14 C13 1_555 1_555
H9 C14 1_555 1_555
C15 C10 1_555 1_555
H10 C15 1_555 1_555
C16 N1 1_555 1_555
H11 C16 1_555 1_555
H12 C16 1_555 1_555
H13 C16 1_555 1_555
C17 N1 1_555 1_555
H14 C17 1_555 1_555
H15 C17 1_555 1_555
H16 C17 1_555 1_555
C18 O1 1_555 1_555
H17 C18 1_555 1_555
H18 C18 1_555 1_555
H19 C18 1_555 1_555
C5 C6 1_555 1_555
C14 C15 1_555 1_555

#END
