
#######################################################################
#
#                 Cambridge Crystallographic Data Centre
#                                CCDC 
#
#######################################################################
#
# If this CIF has been generated from an entry in the Cambridge 
# Structural Database, then it will include bibliographic, chemical, 
# crystal, experimental, refinement or atomic coordinate data resulting 
# from the CCDC's data processing and validation procedures.
#
#######################################################################

data_NAMYUV01
_chemical_formula_moiety         'C19 H12'
_chemical_name_systematic        1-(Prop-1-yn-1-yl)pyrene
_symmetry_cell_setting           monoclinic
_symmetry_space_group_name_H-M   'P 21/n'
_symmetry_Int_Tables_number      14
_space_group_name_Hall           '-P 2yn'
loop_
_symmetry_equiv_pos_site_id
_symmetry_equiv_pos_as_xyz
1 x,y,z
2 1/2-x,1/2+y,1/2-z
3 -x,-y,-z
4 1/2+x,1/2-y,1/2+z
_cell_length_a                   8.97(5)
_cell_length_b                   10.14(5)
_cell_length_c                   14.08(5)
_cell_angle_alpha                90
_cell_angle_beta                 99.8(2)
_cell_angle_gamma                90
_cell_volume                     1261.97
_exptl_crystal_colour            colorless
_exptl_crystal_description       cube
_cell_formula_units_Z            4
loop_
_atom_site_label
_atom_site_type_symbol
_atom_site_fract_x
_atom_site_fract_y
_atom_site_fract_z
C1 C 0.6065(2) 0.33403(17) 0.50258(14)
C2 C 0.7363(2) 0.39580(17) 0.55252(14)
C3 C 0.8062(2) 0.49689(17) 0.51124(14)
C4 C 0.8228(2) 0.64293(17) 0.37158(14)
C5 C 0.7650(2) 0.68534(17) 0.28229(14)
C6 C 0.5648(2) 0.67340(17) 0.13660(14)
C7 C 0.4345(2) 0.61548(17) 0.08732(14)
C8 C 0.3649(2) 0.51428(17) 0.12789(14)
C9 C 0.3527(2) 0.36283(17) 0.26515(14)
C10 C 0.4110(2) 0.31958(17) 0.35461(14)
C11 C 0.7509(2) 0.54000(17) 0.41759(14)
C12 C 0.6288(2) 0.63002(17) 0.22924(14)
C13 C 0.4227(2) 0.46772(17) 0.22042(14)
C14 C 0.5457(2) 0.37629(17) 0.40868(14)
C15 C 0.6182(2) 0.48067(17) 0.36608(14)
C16 C 0.5564(2) 0.52596(17) 0.27195(14)
C17 C 0.5373(2) 0.22961(17) 0.54813(14)
C18 C 0.4833(2) 0.14268(17) 0.58825(14)
C19 C 0.4210(2) 0.03698(17) 0.63929(14)
H1 H 0.777740 0.367790 0.616710
H2 H 0.894440 0.538060 0.547270
H3 H 0.914150 0.681400 0.405830
H4 H 0.814800 0.754350 0.253000
H5 H 0.611120 0.745070 0.107850
H6 H 0.392480 0.644970 0.023610
H7 H 0.275600 0.474220 0.092280
H8 H 0.262620 0.323690 0.229780
H9 H 0.361680 0.249080 0.382680
H10 H 0.327920 0.007530 0.601200
H11 H 0.491240 -0.035150 0.649510
H12 H 0.401810 0.068660 0.700340
loop_
_geom_bond_atom_site_label_1
_geom_bond_atom_site_label_2
_geom_bond_site_symmetry_1
_geom_bond_site_symmetry_2
C1 C2 1_555 1_555
C2 C3 1_555 1_555
C3 C11 1_555 1_555
C4 C5 1_555 1_555
C5 C12 1_555 1_555
C6 C7 1_555 1_555
C7 C8 1_555 1_555
C8 C13 1_555 1_555
C9 C10 1_555 1_555
C10 C14 1_555 1_555
C11 C4 1_555 1_555
C12 C6 1_555 1_555
C13 C9 1_555 1_555
C14 C1 1_555 1_555
C15 C11 1_555 1_555
C16 C12 1_555 1_555
C17 C1 1_555 1_555
C18 C17 1_555 1_555
C19 C18 1_555 1_555
H1 C2 1_555 1_555
H2 C3 1_555 1_555
H3 C4 1_555 1_555
H4 C5 1_555 1_555
H5 C6 1_555 1_555
H6 C7 1_555 1_555
H7 C8 1_555 1_555
H8 C9 1_555 1_555
H9 C10 1_555 1_555
H10 C19 1_555 1_555
H11 C19 1_555 1_555
H12 C19 1_555 1_555
C13 C16 1_555 1_555
C14 C15 1_555 1_555
C15 C16 1_555 1_555

#END
