
#######################################################################
#
#                 Cambridge Crystallographic Data Centre
#                                CCDC 
#
#######################################################################
#
# If this CIF has been generated from an entry in the Cambridge 
# Structural Database, then it will include bibliographic, chemical, 
# crystal, experimental, refinement or atomic coordinate data resulting 
# from the CCDC's data processing and validation procedures.
#
#######################################################################

data_NAMYEI
_chemical_formula_moiety         'C13 H19 Cl1 O5'
_chemical_name_systematic        
3-chloro-1-methoxy-1-(2,4,5-trimethoxyphenyl)propan-2-ol
_symmetry_cell_setting           triclinic
_symmetry_space_group_name_H-M   'P -1'
_symmetry_Int_Tables_number      2
_space_group_name_Hall           '-P 1'
loop_
_symmetry_equiv_pos_site_id
_symmetry_equiv_pos_as_xyz
1 x,y,z
2 -x,-y,-z
_cell_length_a                   7.7678(8)
_cell_length_b                   8.7957(10)
_cell_length_c                   11.5257(13)
_cell_angle_alpha                108.221(5)
_cell_angle_beta                 99.424(4)
_cell_angle_gamma                99.406(4)
_cell_volume                     718.275
_exptl_crystal_colour            colorless
_exptl_crystal_description       block
_cell_formula_units_Z            2
loop_
_atom_site_label
_atom_site_type_symbol
_atom_site_fract_x
_atom_site_fract_y
_atom_site_fract_z
Cl1 Cl -0.28792(7) -0.18368(7) 0.16796(6)
O1 O 0.2799(2) 0.86213(19) 0.38840(15)
O2 O 0.1975(2) 0.35902(18) 0.48572(14)
O3 O 0.2641(2) 0.69539(19) 0.15638(15)
O4 O 0.23265(18) 0.10168(17) 0.13012(13)
O5 O -0.13074(19) 0.13415(18) 0.11666(14)
H1 H -0.1339 0.0684 0.0474
C1 C -0.0606(3) -0.0921(3) 0.1783(2)
H2 H 0.0176 -0.1159 0.2418
H3 H -0.0298 -0.1401 0.0986
C2 C -0.0299(3) 0.0913(2) 0.21089(19)
H4 H -0.0712 0.1352 0.2880
C3 C 0.1702(2) 0.1691(2) 0.23892(19)
H5 H 0.2323 0.1379 0.3060
C4 C 0.2063(2) 0.3547(2) 0.28318(19)
C5 C 0.2192(2) 0.4465(3) 0.40639(19)
C6 C 0.2457(3) 0.6174(3) 0.4457(2)
H6 H 0.2546 0.6780 0.5294
C7 C 0.2586(3) 0.6959(3) 0.3600(2)
C8 C 0.2706(4) 0.9571(3) 0.5115(2)
H7 H 0.1565 0.9182 0.5265
H8 H 0.2848 1.0705 0.5190
H9 H 0.3645 0.9465 0.5719
C9 C 0.2498(4) 0.4461(3) 0.6171(2)
H10 H 0.3734 0.5033 0.6393
H11 H 0.2346 0.3700 0.6609
H12 H 0.1769 0.5238 0.6400
C10 C 0.2483(2) 0.6058(3) 0.2346(2)
C11 C 0.2628(3) 0.6090(3) 0.0302(2)
H13 H 0.3631 0.5582 0.0272
H14 H 0.2709 0.6842 -0.0148
H15 H 0.1534 0.5260 -0.0076
C12 C 0.2227(3) 0.4366(3) 0.1980(2)
H16 H 0.2164 0.3759 0.1147
C13 C 0.4214(3) 0.1166(3) 0.1560(3)
H17 H 0.4811 0.2296 0.2011
H18 H 0.4587 0.0788 0.0786
H19 H 0.4518 0.0513 0.2059
loop_
_geom_bond_atom_site_label_1
_geom_bond_atom_site_label_2
_geom_bond_site_symmetry_1
_geom_bond_site_symmetry_2
Cl1 C1 1_555 1_555
O1 C7 1_555 1_555
O2 C5 1_555 1_555
O3 C10 1_555 1_555
O4 C3 1_555 1_555
O5 H1 1_555 1_555
C1 H2 1_555 1_555
H3 C1 1_555 1_555
C2 O5 1_555 1_555
H4 C2 1_555 1_555
C3 C2 1_555 1_555
H5 C3 1_555 1_555
C4 C3 1_555 1_555
C5 C4 1_555 1_555
C6 C5 1_555 1_555
H6 C6 1_555 1_555
C7 C6 1_555 1_555
C8 O1 1_555 1_555
H7 C8 1_555 1_555
H8 C8 1_555 1_555
H9 C8 1_555 1_555
C9 O2 1_555 1_555
H10 C9 1_555 1_555
H11 C9 1_555 1_555
H12 C9 1_555 1_555
C10 C7 1_555 1_555
C11 O3 1_555 1_555
H13 C11 1_555 1_555
H14 C11 1_555 1_555
H15 C11 1_555 1_555
C12 C4 1_555 1_555
H16 C12 1_555 1_555
C13 O4 1_555 1_555
H17 C13 1_555 1_555
H18 C13 1_555 1_555
H19 C13 1_555 1_555
C1 C2 1_555 1_555
C10 C12 1_555 1_555

#END
