
#######################################################################
#
#                 Cambridge Crystallographic Data Centre
#                                CCDC 
#
#######################################################################
#
# If this CIF has been generated from an entry in the Cambridge 
# Structural Database, then it will include bibliographic, chemical, 
# crystal, experimental, refinement or atomic coordinate data resulting 
# from the CCDC's data processing and validation procedures.
#
#######################################################################

data_NANBUA
_chemical_formula_moiety         'C22 H17 N5 O2 S2'
_chemical_name_systematic        
6-Methoxycarbonyl-3-(2-methyl-5-phenylthiazol-4-yl)-7-phenyl-7H-1,2,4-triazolo(3,4-b)-1,3,4-thiadiazine
_symmetry_cell_setting           monoclinic
_symmetry_space_group_name_H-M   'P 21/n'
_symmetry_Int_Tables_number      14
_space_group_name_Hall           '-P 2yn'
loop_
_symmetry_equiv_pos_site_id
_symmetry_equiv_pos_as_xyz
1 x,y,z
2 1/2-x,1/2+y,1/2-z
3 -x,-y,-z
4 1/2+x,1/2-y,1/2+z
_cell_length_a                   12.205(5)
_cell_length_b                   13.625(3)
_cell_length_c                   13.112(7)
_cell_angle_alpha                90
_cell_angle_beta                 94.05(5)
_cell_angle_gamma                90
_cell_volume                     2174.99
_exptl_crystal_colour            colorless
_exptl_crystal_description       needle
_chemical_melting_point          '165-167 deg.C'
_cell_formula_units_Z            4
_exptl_crystal_recrystallization_method 2-propanol
loop_
_atom_site_label
_atom_site_type_symbol
_atom_site_fract_x
_atom_site_fract_y
_atom_site_fract_z
S1 S 0.2787(1) 0.2815(1) 0.8868(1)
S2 S 0.3600(2) 0.6193(1) 0.4450(1)
O1 O 0.5493(3) 0.1524(3) 0.7047(3)
O2 O 0.4484(3) 0.2012(3) 0.5662(3)
N1 N 0.1929(4) 0.4604(3) 0.8396(3)
N2 N 0.1937(4) 0.5260(3) 0.7572(3)
N3 N 0.3044(3) 0.4043(3) 0.7291(3)
N4 N 0.3662(3) 0.3412(3) 0.6747(3)
N5 N 0.1991(4) 0.5273(3) 0.5157(3)
C1 C 0.2585(4) 0.3902(4) 0.8206(4)
C2 C 0.2594(4) 0.4905(4) 0.6924(4)
C3 C 0.4093(4) 0.2692(4) 0.7243(4)
C4 C 0.4079(5) 0.2444(4) 0.8353(4)
C5 C 0.3761(5) 0.5831(4) 0.5722(4)
C6 C 0.2827(5) 0.5357(4) 0.5926(4)
C7 C 0.2328(5) 0.5702(5) 0.4334(4)
C8 C 0.5053(5) 0.2837(4) 0.8970(4)
C9 C 0.5589(5) 0.2215(5) 0.9671(5)
C10 C 0.6477(6) 0.2583(6) 1.0260(5)
C11 C 0.6837(6) 0.3511(6) 1.0200(5)
C12 C 0.6324(6) 0.4110(5) 0.9491(6)
C13 C 0.5451(6) 0.3776(5) 0.8873(5)
C14 C 0.4766(4) 0.2012(4) 0.6641(4)
C15 C 0.5073(7) 0.1352(5) 0.5022(7)
C16 C 0.4733(5) 0.6081(4) 0.6375(4)
C17 C 0.4661(5) 0.6219(4) 0.7418(4)
C18 C 0.5592(5) 0.6441(5) 0.8041(5)
C19 C 0.6580(5) 0.6570(5) 0.7623(5)
C20 C 0.6636(5) 0.6459(4) 0.6598(5)
C21 C 0.5741(5) 0.6214(4) 0.5953(4)
C22 C 0.1618(7) 0.5722(5) 0.3355(5)
H1 H 0.4193 0.1555 0.8380
H2 H 0.5302 0.1516 0.9721
H3 H 0.6812 0.2118 1.0768
H4 H 0.7635 0.3815 1.0656
H5 H 0.6584 0.4802 0.9439
H6 H 0.4952 0.4349 0.8340
H7 H 0.3926 0.6159 0.7712
H8 H 0.5368 0.6493 0.8900
H9 H 0.7235 0.6748 0.8090
H10 H 0.7344 0.6600 0.6086
H11 H 0.5568 0.6273 0.5061
H12 H 0.4816 0.1406 0.4302
H13 H 0.5852 0.1503 0.5052
H14 H 0.5003 0.0679 0.5209
H15 H 0.1954 0.6046 0.2782
H16 H 0.1437 0.5055 0.3081
H17 H 0.0914 0.6037 0.3398
loop_
_geom_bond_atom_site_label_1
_geom_bond_atom_site_label_2
_geom_bond_site_symmetry_1
_geom_bond_site_symmetry_2
S1 C1 1_555 1_555
S2 C5 1_555 1_555
O1 C14 1_555 1_555
O2 C14 1_555 1_555
N1 N2 1_555 1_555
N2 C2 1_555 1_555
N3 N4 1_555 1_555
N4 C3 1_555 1_555
N5 C6 1_555 1_555
C1 N1 1_555 1_555
C2 N3 1_555 1_555
C3 C4 1_555 1_555
C4 S1 1_555 1_555
C5 C6 1_555 1_555
C6 C2 1_555 1_555
C7 S2 1_555 1_555
C8 C4 1_555 1_555
C9 C8 1_555 1_555
C10 C9 1_555 1_555
C11 C10 1_555 1_555
C12 C11 1_555 1_555
C13 C8 1_555 1_555
C14 C3 1_555 1_555
C15 O2 1_555 1_555
C16 C5 1_555 1_555
C17 C16 1_555 1_555
C18 C17 1_555 1_555
C19 C18 1_555 1_555
C20 C19 1_555 1_555
C21 C16 1_555 1_555
C22 C7 1_555 1_555
H1 C4 1_555 1_555
H2 C9 1_555 1_555
H3 C10 1_555 1_555
H4 C11 1_555 1_555
H5 C12 1_555 1_555
H6 C13 1_555 1_555
H7 C17 1_555 1_555
H8 C18 1_555 1_555
H9 C19 1_555 1_555
H10 C20 1_555 1_555
H11 C21 1_555 1_555
H12 C15 1_555 1_555
H13 C15 1_555 1_555
H14 C15 1_555 1_555
H15 C22 1_555 1_555
H16 C22 1_555 1_555
H17 C22 1_555 1_555
N3 C1 1_555 1_555
N5 C7 1_555 1_555
C12 C13 1_555 1_555
C20 C21 1_555 1_555

#END
