
#######################################################################
#
#                 Cambridge Crystallographic Data Centre
#                                CCDC 
#
#######################################################################
#
# If this CIF has been generated from an entry in the Cambridge 
# Structural Database, then it will include bibliographic, chemical, 
# crystal, experimental, refinement or atomic coordinate data resulting 
# from the CCDC's data processing and validation procedures.
#
#######################################################################

data_NANILI31
_chemical_formula_moiety         'C6 H6 N2 O2'
_chemical_name_systematic        4-nitroaniline
_symmetry_cell_setting           monoclinic
_symmetry_space_group_name_H-M   'P 21/n'
_symmetry_Int_Tables_number      14
_space_group_name_Hall           '-P 2yn'
loop_
_symmetry_equiv_pos_site_id
_symmetry_equiv_pos_as_xyz
1 x,y,z
2 1/2-x,1/2+y,1/2-z
3 -x,-y,-z
4 1/2+x,1/2-y,1/2+z
_cell_length_a                   8.5909(4)
_cell_length_b                   6.0374(3)
_cell_length_c                   12.3344(6)
_cell_angle_alpha                90
_cell_angle_beta                 91.415(3)
_cell_angle_gamma                90
_cell_volume                     639.55
_cell_formula_units_Z            4
loop_
_atom_site_label
_atom_site_type_symbol
_atom_site_fract_x
_atom_site_fract_y
_atom_site_fract_z
C1 C 0.6791(2) 0.1152(3) 0.56052(15)
N1 N 0.7597(2) 0.2197(3) 0.47386(13)
C2 C 0.7245(2) -0.0957(3) 0.59511(16)
H1 H 0.8060 -0.1689 0.5621
C3 C 0.5577(2) 0.2250(3) 0.60881(16)
H2 H 0.5279 0.3649 0.5846
C4 C 0.4815(2) 0.1271(4) 0.69232(16)
H3 H 0.3999 0.2011 0.7247
C5 C 0.5255(2) -0.0849(4) 0.72966(16)
C6 C 0.6477(2) -0.1932(3) 0.67820(17)
H4 H 0.6770 -0.3343 0.7011
N2 N 0.4504(3) -0.1794(4) 0.81291(17)
H5 H 0.4773 -0.3090 0.8354
H6 H 0.3758 -0.1100 0.8433
O1 O 0.7206(2) 0.4080(3) 0.44595(15)
O2 O 0.8650(2) 0.1206(3) 0.42930(15)
loop_
_geom_bond_atom_site_label_1
_geom_bond_atom_site_label_2
_geom_bond_site_symmetry_1
_geom_bond_site_symmetry_2
C1 N1 1_555 1_555
N1 O1 1_555 1_555
C2 C1 1_555 1_555
H1 C2 1_555 1_555
C3 C1 1_555 1_555
H2 C3 1_555 1_555
C4 C3 1_555 1_555
H3 C4 1_555 1_555
C5 C4 1_555 1_555
C6 C2 1_555 1_555
H4 C6 1_555 1_555
N2 C5 1_555 1_555
H5 N2 1_555 1_555
H6 N2 1_555 1_555
O2 N1 1_555 1_555
C5 C6 1_555 1_555

#END
