
#######################################################################
#
#                 Cambridge Crystallographic Data Centre
#                                CCDC 
#
#######################################################################
#
# If this CIF has been generated from an entry in the Cambridge 
# Structural Database, then it will include bibliographic, chemical, 
# crystal, experimental, refinement or atomic coordinate data resulting 
# from the CCDC's data processing and validation procedures.
#
#######################################################################

data_NANJIW
_chemical_formula_moiety         'C18 H16 O4'
_chemical_name_systematic        'Dimethyl 2,3-diphenylmaleate'
_symmetry_cell_setting           monoclinic
_symmetry_space_group_name_H-M   'P 21/n'
_symmetry_Int_Tables_number      14
_space_group_name_Hall           '-P 2yn'
loop_
_symmetry_equiv_pos_site_id
_symmetry_equiv_pos_as_xyz
1 x,y,z
2 1/2-x,1/2+y,1/2-z
3 -x,-y,-z
4 1/2+x,1/2-y,1/2+z
_cell_length_a                   8.8668(12)
_cell_length_b                   8.7122(12)
_cell_length_c                   19.668(3)
_cell_angle_alpha                90
_cell_angle_beta                 94.189(3)
_cell_angle_gamma                90
_cell_volume                     1515.28
_exptl_crystal_colour            colorless
_exptl_crystal_description       prism
_cell_formula_units_Z            4
loop_
_atom_site_label
_atom_site_type_symbol
_atom_site_fract_x
_atom_site_fract_y
_atom_site_fract_z
O1 O 0.00634(9) 0.83235(10) 0.04981(5)
O2 O 0.00502(9) 1.04207(10) 0.11487(5)
O3 O 0.24915(10) 0.60006(11) 0.01518(4)
O4 O 0.15915(9) 0.56401(9) 0.11785(4)
C1 C 0.23711(12) 0.91475(12) 0.10958(5)
C2 C 0.30966(12) 0.78139(12) 0.10404(5)
C3 C 0.31617(11) 1.05850(11) 0.13392(5)
C4 C 0.29502(13) 1.12288(13) 0.19713(6)
H1 H 0.2284 1.0774 0.2255
C5 C 0.37236(14) 1.25410(13) 0.21806(6)
H2 H 0.3589 1.2951 0.2609
C6 C 0.46939(13) 1.32503(13) 0.17617(6)
H3 H 0.5199 1.4143 0.1903
C7 C 0.49096(13) 1.26305(14) 0.11350(7)
H4 H 0.5563 1.3103 0.0851
C8 C 0.41510(13) 1.12963(13) 0.09247(6)
H5 H 0.4309 1.0876 0.0501
C9 C 0.46973(12) 0.75227(11) 0.12916(5)
C10 C 0.52129(13) 0.79103(14) 0.19529(6)
H6 H 0.4569 0.8404 0.2235
C11 C 0.66778(14) 0.75668(16) 0.21946(7)
H7 H 0.7015 0.7836 0.2637
C12 C 0.76400(14) 0.68284(16) 0.17837(8)
H8 H 0.8621 0.6591 0.1950
C13 C 0.71477(14) 0.64438(15) 0.11279(7)
H9 H 0.7802 0.5961 0.0847
C14 C 0.56822(13) 0.67718(13) 0.08844(6)
H10 H 0.5350 0.6487 0.0443
C15 C 0.07149(12) 0.92270(12) 0.08754(6)
C16 C -0.15490(14) 1.06221(17) 0.09728(8)
H11 H -0.1726 1.0705 0.0487
H12 H -0.1891 1.1540 0.1183
H13 H -0.2092 0.9755 0.1131
C17 C 0.23365(12) 0.64107(12) 0.07239(6)
C18 C 0.08890(15) 0.42127(14) 0.09424(8)
H14 H 0.0116 0.4426 0.0588
H15 H 0.0448 0.3713 0.1315
H16 H 0.1639 0.3555 0.0768
loop_
_geom_bond_atom_site_label_1
_geom_bond_atom_site_label_2
_geom_bond_site_symmetry_1
_geom_bond_site_symmetry_2
O1 C15 1_555 1_555
O2 C15 1_555 1_555
O3 C17 1_555 1_555
O4 C17 1_555 1_555
C1 C2 1_555 1_555
C2 C9 1_555 1_555
C3 C1 1_555 1_555
C4 C3 1_555 1_555
H1 C4 1_555 1_555
C5 C4 1_555 1_555
H2 C5 1_555 1_555
C6 C5 1_555 1_555
H3 C6 1_555 1_555
C7 C6 1_555 1_555
H4 C7 1_555 1_555
C8 C3 1_555 1_555
H5 C8 1_555 1_555
C9 C10 1_555 1_555
C10 H6 1_555 1_555
C11 C10 1_555 1_555
H7 C11 1_555 1_555
C12 C11 1_555 1_555
H8 C12 1_555 1_555
C13 C12 1_555 1_555
H9 C13 1_555 1_555
C14 C9 1_555 1_555
H10 C14 1_555 1_555
C15 C1 1_555 1_555
C16 O2 1_555 1_555
H11 C16 1_555 1_555
H12 C16 1_555 1_555
H13 C16 1_555 1_555
C17 C2 1_555 1_555
C18 O4 1_555 1_555
H14 C18 1_555 1_555
H15 C18 1_555 1_555
H16 C18 1_555 1_555
C7 C8 1_555 1_555
C13 C14 1_555 1_555

#END
