
#######################################################################
#
#                 Cambridge Crystallographic Data Centre
#                                CCDC 
#
#######################################################################
#
# If this CIF has been generated from an entry in the Cambridge 
# Structural Database, then it will include bibliographic, chemical, 
# crystal, experimental, refinement or atomic coordinate data resulting 
# from the CCDC's data processing and validation procedures.
#
#######################################################################

data_NANKOF
_chemical_formula_moiety         'C14 H13 F3 O3'
_chemical_name_systematic        
5-(2-hydroxyphenyl)-2-propylidene-5-(trifluoromethyl)dihydrofuran-3(2H)-one
_symmetry_cell_setting           monoclinic
_symmetry_space_group_name_H-M   'P 21/c'
_symmetry_Int_Tables_number      14
_space_group_name_Hall           '-P 2ybc'
loop_
_symmetry_equiv_pos_site_id
_symmetry_equiv_pos_as_xyz
1 x,y,z
2 -x,1/2+y,1/2-z
3 -x,-y,-z
4 x,1/2-y,1/2+z
_cell_length_a                   13.743(2)
_cell_length_b                   12.8389(18)
_cell_length_c                   7.6057(10)
_cell_angle_alpha                90
_cell_angle_beta                 102.717(3)
_cell_angle_gamma                90
_cell_volume                     1309.07
_exptl_crystal_colour            colorless
_exptl_crystal_description       prismatic
_cell_formula_units_Z            4
loop_
_atom_site_label
_atom_site_type_symbol
_atom_site_fract_x
_atom_site_fract_y
_atom_site_fract_z
F1 F 0.28946(8) -0.05181(10) 0.00569(15)
F2 F 0.13436(8) -0.08472(9) -0.02711(15)
F3 F 0.18065(9) 0.05825(10) -0.12728(15)
O1 O 0.05607(10) -0.08133(13) 0.3011(2)
H1 H 0.0195 -0.1179 0.3469
O2 O 0.28318(8) 0.11850(9) 0.21240(16)
O3 O 0.08310(10) 0.28892(11) 0.08154(19)
C1 C 0.15247(15) -0.09447(16) 0.3916(3)
C2 C 0.17771(18) -0.16537(17) 0.5305(3)
H2 H 0.1279 -0.2036 0.5661
C3 C 0.2747(2) -0.18004(18) 0.6161(3)
H3 H 0.2908 -0.2280 0.7096
C4 C 0.34892(18) -0.12399(18) 0.5642(3)
H4 H 0.4153 -0.1346 0.6213
C5 C 0.32448(14) -0.05214(15) 0.4276(3)
H5 H 0.3749 -0.0142 0.3935
C6 C 0.22647(13) -0.03514(14) 0.3400(2)
C7 C 0.20233(12) 0.04357(14) 0.1892(2)
C8 C 0.10806(13) 0.10892(15) 0.1754(3)
H6 H 0.0543 0.0827 0.0811
H7 H 0.0866 0.1086 0.2887
C9 C 0.13801(13) 0.21543(15) 0.1315(2)
C10 C 0.24700(12) 0.21687(14) 0.1639(2)
C11 C 0.30400(13) 0.29906(15) 0.1571(2)
H8 H 0.2712 0.3615 0.1216
C12 C 0.41421(14) 0.30257(17) 0.1999(3)
H9 H 0.4369 0.3182 0.0907
H10 H 0.4398 0.2344 0.2416
C13 C 0.45642(17) 0.3826(2) 0.3418(3)
H11 H 0.4365 0.4510 0.2968
H12 H 0.5279 0.3781 0.3704
H13 H 0.4316 0.3697 0.4483
C14 C 0.20204(13) -0.00913(16) 0.0095(2)
loop_
_geom_bond_atom_site_label_1
_geom_bond_atom_site_label_2
_geom_bond_site_symmetry_1
_geom_bond_site_symmetry_2
F1 C14 1_555 1_555
F2 C14 1_555 1_555
F3 C14 1_555 1_555
O1 H1 1_555 1_555
O2 C7 1_555 1_555
O3 C9 1_555 1_555
C1 O1 1_555 1_555
C2 C1 1_555 1_555
H2 C2 1_555 1_555
C3 C2 1_555 1_555
H3 C3 1_555 1_555
C4 C3 1_555 1_555
H4 C4 1_555 1_555
C5 C4 1_555 1_555
H5 C5 1_555 1_555
C6 C1 1_555 1_555
C7 C6 1_555 1_555
C8 C7 1_555 1_555
H6 C8 1_555 1_555
H7 C8 1_555 1_555
C9 C8 1_555 1_555
C10 O2 1_555 1_555
C11 C10 1_555 1_555
H8 C11 1_555 1_555
C12 C11 1_555 1_555
H9 C12 1_555 1_555
H10 C12 1_555 1_555
C13 C12 1_555 1_555
H11 C13 1_555 1_555
H12 C13 1_555 1_555
H13 C13 1_555 1_555
C14 C7 1_555 1_555
C5 C6 1_555 1_555
C9 C10 1_555 1_555

#END
