
#######################################################################
#
#                 Cambridge Crystallographic Data Centre
#                                CCDC 
#
#######################################################################
#
# If this CIF has been generated from an entry in the Cambridge 
# Structural Database, then it will include bibliographic, chemical, 
# crystal, experimental, refinement or atomic coordinate data resulting 
# from the CCDC's data processing and validation procedures.
#
#######################################################################

data_NANPUO
_chemical_formula_moiety         'C8 H6 O4,C12 H8 N4 O1'
_chemical_name_systematic        
'Phthalic acid 2,5-bis(pyrid-4-yl)-1,3,4-oxadiazole'
_symmetry_cell_setting           monoclinic
_symmetry_space_group_name_H-M   'C 2/c'
_symmetry_Int_Tables_number      15
_space_group_name_Hall           '-C 2yn'
loop_
_symmetry_equiv_pos_site_id
_symmetry_equiv_pos_as_xyz
1 x,y,z
2 1/2+x,1/2+y,z
3 -x,y,1/2-z
4 1/2-x,1/2+y,1/2-z
5 -x,-y,-z
6 1/2-x,1/2-y,-z
7 x,-y,1/2+z
8 1/2+x,1/2-y,1/2+z
_cell_length_a                   17.569(6)
_cell_length_b                   10.547(4)
_cell_length_c                   20.831(7)
_cell_angle_alpha                90
_cell_angle_beta                 111.660(5)
_cell_angle_gamma                90
_cell_volume                     3587.44
_exptl_crystal_colour            colorless
_exptl_crystal_description       block
_chemical_melting_point          187deg.C
_cell_formula_units_Z            8
loop_
_atom_site_label
_atom_site_type_symbol
_atom_site_fract_x
_atom_site_fract_y
_atom_site_fract_z
O1 O 0.15096(8) 0.33829(14) 0.07156(7)
N1 N 0.45269(12) 0.3888(2) 0.12594(10)
N2 N 0.14810(12) 0.4115(2) -0.02820(9)
N3 N 0.06728(12) 0.3888(2) -0.03322(9)
N4 N -0.11991(11) 0.23356(19) 0.08936(9)
C1 C 0.41331(15) 0.4212(2) 0.06017(13)
H3 H 0.4443 0.4470 0.0347
C2 C 0.33006(14) 0.4188(2) 0.02788(12)
H4 H 0.3054 0.4418 -0.0183
C3 C 0.28300(13) 0.3814(2) 0.06548(11)
C4 C 0.32282(15) 0.3460(2) 0.13315(12)
H5 H 0.2935 0.3191 0.1598
C5 C 0.40672(16) 0.3512(3) 0.16050(13)
H6 H 0.4331 0.3269 0.2063
C6 C 0.19436(14) 0.3802(2) 0.03344(11)
C7 C 0.07235(13) 0.3460(2) 0.02606(11)
C8 C 0.00690(13) 0.3063(2) 0.04837(11)
C9 C -0.07178(15) 0.2955(3) 0.00166(12)
H7 H -0.0837 0.3125 -0.0449
C10 C -0.13245(15) 0.2596(3) 0.02398(12)
H8 H -0.1855 0.2530 -0.0084
C11 C -0.04353(15) 0.2426(2) 0.13407(12)
H9 H -0.0330 0.2234 0.1801
C12 C 0.02086(14) 0.2787(2) 0.11599(11)
H10 H 0.0734 0.2843 0.1493
O2 O 0.76817(9) 0.14992(18) 0.13868(7)
H1 H 0.8036 0.1771 0.1255
O3 O 0.86843(10) 0.16198(18) 0.24141(8)
O4 O 0.88688(10) -0.08171(19) 0.30709(8)
H2 H 0.9350 -0.0932 0.3316
O5 O 0.88459(10) 0.0173(2) 0.39977(8)
C13 C 0.79925(14) 0.1353(2) 0.20646(11)
C14 C 0.73938(13) 0.0826(2) 0.23472(10)
C15 C 0.65640(14) 0.1051(3) 0.19991(12)
H11 H 0.6388 0.1471 0.1577
C16 C 0.59970(15) 0.0659(3) 0.22708(15)
H12 H 0.5442 0.0798 0.2028
C17 C 0.62526(16) 0.0066(3) 0.28988(15)
H13 H 0.5871 -0.0185 0.3086
C18 C 0.70677(15) -0.0158(3) 0.32516(13)
H14 H 0.7235 -0.0561 0.3679
C19 C 0.76484(13) 0.0204(2) 0.29827(11)
C20 C 0.85179(14) -0.0123(2) 0.34013(12)
loop_
_geom_bond_atom_site_label_1
_geom_bond_atom_site_label_2
_geom_bond_site_symmetry_1
_geom_bond_site_symmetry_2
O1 C6 1_555 1_555
O2 H1 1_555 1_555
O3 C13 1_555 1_555
O4 H2 1_555 1_555
O5 C20 1_555 1_555
N1 C1 1_555 1_555
N2 N3 1_555 1_555
N3 C7 1_555 1_555
N4 C10 1_555 1_555
C1 H3 1_555 1_555
C2 C1 1_555 1_555
H4 C2 1_555 1_555
C3 C2 1_555 1_555
C4 C3 1_555 1_555
H5 C4 1_555 1_555
C5 N1 1_555 1_555
H6 C5 1_555 1_555
C6 N2 1_555 1_555
C7 O1 1_555 1_555
C8 C7 1_555 1_555
C9 C8 1_555 1_555
H7 C9 1_555 1_555
C10 C9 1_555 1_555
H8 C10 1_555 1_555
C11 N4 1_555 1_555
H9 C11 1_555 1_555
C12 C8 1_555 1_555
H10 C12 1_555 1_555
C13 O2 1_555 1_555
C14 C13 1_555 1_555
C15 C14 1_555 1_555
H11 C15 1_555 1_555
C16 C15 1_555 1_555
H12 C16 1_555 1_555
C17 C16 1_555 1_555
H13 C17 1_555 1_555
C18 C17 1_555 1_555
H14 C18 1_555 1_555
C19 C14 1_555 1_555
C20 O4 1_555 1_555
C3 C6 1_555 1_555
C4 C5 1_555 1_555
C11 C12 1_555 1_555
C18 C19 1_555 1_555
C19 C20 1_555 1_555

#END
