
#######################################################################
#
#                 Cambridge Crystallographic Data Centre
#                                CCDC 
#
#######################################################################
#
# If this CIF has been generated from an entry in the Cambridge 
# Structural Database, then it will include bibliographic, chemical, 
# crystal, experimental, refinement or atomic coordinate data resulting 
# from the CCDC's data processing and validation procedures.
#
#######################################################################

data_NANPEY
_chemical_formula_moiety         'C6 H6 N1 O5 P1,H2 O1'
_chemical_name_systematic        
'6-phosphonopyridine-2-carboxylic acid monohydrate'
_symmetry_cell_setting           monoclinic
_symmetry_space_group_name_H-M   'P 21/c'
_symmetry_Int_Tables_number      14
_space_group_name_Hall           '-P 2ybc'
loop_
_symmetry_equiv_pos_site_id
_symmetry_equiv_pos_as_xyz
1 x,y,z
2 -x,1/2+y,1/2-z
3 -x,-y,-z
4 x,1/2-y,1/2+z
_cell_length_a                   8.4833(14)
_cell_length_b                   12.478(2)
_cell_length_c                   8.5116(14)
_cell_angle_alpha                90.00
_cell_angle_beta                 110.844(3)
_cell_angle_gamma                90.00
_cell_volume                     842.025
_exptl_crystal_colour            colorless
_exptl_crystal_description       block
_cell_formula_units_Z            4
loop_
_atom_site_label
_atom_site_type_symbol
_atom_site_fract_x
_atom_site_fract_y
_atom_site_fract_z
P1 P 0.38448(6) 0.94360(4) 0.21322(6)
N1 N 0.2200(2) 0.91268(13) 0.4370(2)
H1 H 0.3150 0.9325 0.5099
O2 O 0.37136(18) 0.86605(12) 0.07407(17)
O3 O 0.53774(18) 0.93766(11) 0.36899(17)
O4 O 0.34439(18) 1.05860(11) 0.13884(18)
H4 H 0.3640 1.1021 0.2156
O5 O 0.01401(18) 0.88194(12) 0.73034(18)
O6 O 0.29000(18) 0.88502(13) 0.76393(18)
H5 H 0.3246 0.8847 0.8707
C1 C 0.0938(2) 0.88508(15) 0.4913(2)
C2 C -0.0613(2) 0.85691(16) 0.3768(2)
H6 H -0.1492 0.8386 0.4128
C3 C -0.0853(3) 0.85605(17) 0.2062(2)
H7 H -0.1899 0.8383 0.1271
C4 C 0.0480(3) 0.88187(15) 0.1551(2)
H8 H 0.0335 0.8801 0.0415
C5 C 0.2035(2) 0.91039(15) 0.2734(2)
C6 C 0.1287(2) 0.88462(15) 0.6772(2)
O1 O 0.40067(18) 1.20061(12) 0.36788(18)
H2 H 0.4311 1.1687 0.4622
H3 H 0.4742 1.2481 0.3732
loop_
_geom_bond_atom_site_label_1
_geom_bond_atom_site_label_2
_geom_bond_site_symmetry_1
_geom_bond_site_symmetry_2
P1 O2 1_555 1_555
N1 H1 1_555 1_555
O1 H2 1_555 1_555
H3 O1 1_555 1_555
O3 P1 1_555 1_555
O4 P1 1_555 1_555
H4 O4 1_555 1_555
O5 C6 1_555 1_555
O6 H5 1_555 1_555
C1 N1 1_555 1_555
C2 C1 1_555 1_555
H6 C2 1_555 1_555
C3 C2 1_555 1_555
H7 C3 1_555 1_555
C4 C3 1_555 1_555
H8 C4 1_555 1_555
C5 P1 1_555 1_555
C6 O6 1_555 1_555
N1 C5 1_555 1_555
C1 C6 1_555 1_555
C4 C5 1_555 1_555

#END
