
#######################################################################
#
#                 Cambridge Crystallographic Data Centre
#                                CCDC 
#
#######################################################################
#
# If this CIF has been generated from an entry in the Cambridge 
# Structural Database, then it will include bibliographic, chemical, 
# crystal, experimental, refinement or atomic coordinate data resulting 
# from the CCDC's data processing and validation procedures.
#
#######################################################################

data_NANQOJ
_chemical_formula_moiety         'C8 H6 O4,C12 H8 N4 O1'
_chemical_name_systematic        
'Terephthalic acid 2,5-bis(pyrid-4-yl)-1,3,4-oxadiazole'
_symmetry_cell_setting           orthorhombic
_symmetry_space_group_name_H-M   'C m c 21'
_symmetry_Int_Tables_number      36
_space_group_name_Hall           'C 2n -2'
loop_
_symmetry_equiv_pos_site_id
_symmetry_equiv_pos_as_xyz
1 x,y,z
2 -x,-y,1/2+z
3 x,-y,1/2+z
4 -x,y,z
5 1/2+x,1/2+y,z
6 1/2-x,1/2-y,1/2+z
7 1/2+x,1/2-y,1/2+z
8 1/2-x,1/2+y,z
_cell_length_a                   22.252(7)
_cell_length_b                   10.912(4)
_cell_length_c                   7.290(2)
_cell_angle_alpha                90
_cell_angle_beta                 90
_cell_angle_gamma                90
_cell_volume                     1770.11
_exptl_crystal_colour            colorless
_exptl_crystal_description       block
_chemical_melting_point          'above 300deg.C'
_cell_formula_units_Z            4
loop_
_atom_site_label
_atom_site_type_symbol
_atom_site_fract_x
_atom_site_fract_y
_atom_site_fract_z
O1 O 0.0000 0.15512(16) 0.9772(2)
N1 N 0.22743(8) 0.18842(17) 1.0270(3)
N2 N 0.03137(6) -0.00463(16) 0.8180(3)
C1 C 0.04770(8) 0.08900(17) 0.9131(3)
C2 C 0.10927(8) 0.12529(17) 0.9570(3)
C3 C 0.15578(8) 0.04813(19) 0.9076(3)
H2 H 0.1479 -0.0261 0.8497
C4 C 0.21367(9) 0.0823(2) 0.9451(3)
H3 H 0.2447 0.0297 0.9123
C5 C 0.18237(10) 0.26161(19) 1.0762(3)
H4 H 0.1915 0.3349 1.1350
C6 C 0.12291(9) 0.23385(17) 1.0442(3)
H5 H 0.0926 0.2872 1.0808
N1C N -0.22743(8) 0.18842(17) 1.0270(3)
N2C N -0.03137(6) -0.00463(16) 0.8180(3)
C1C C -0.04770(8) 0.08900(17) 0.9131(3)
C2C C -0.10927(8) 0.12529(17) 0.9570(3)
C3C C -0.15578(8) 0.04813(19) 0.9076(3)
H2C H -0.1479 -0.0261 0.8497
C4C C -0.21367(9) 0.0823(2) 0.9451(3)
H3C H -0.2447 0.0297 0.9123
C5C C -0.18237(10) 0.26161(19) 1.0762(3)
H4C H -0.1915 0.3349 1.1350
C6C C -0.12291(9) 0.23385(17) 1.0442(3)
H5C H -0.0926 0.2872 1.0808
O2 O 0.34272(7) 0.04353(14) 0.2069(3)
O3 O 0.34475(6) 0.22198(14) 0.0563(3)
H1 H 0.3081 0.2139 0.0587
C7 C 0.37028(9) 0.1271(2) 0.1375(3)
C8 C 0.43730(8) 0.13348(18) 0.1380(3)
C9 C 0.46906(9) 0.04235(19) 0.2280(3)
H6 H 0.4484 -0.0195 0.2891
C10 C 0.46891(8) 0.22423(16) 0.0469(3)
H7 H 0.4482 0.2857 -0.0149
O2C O 0.65728(7) 0.04353(14) 0.2069(3)
O3C O 0.65525(6) 0.22198(14) 0.0563(3)
H1C H 0.6919 0.2139 0.0587
C7C C 0.62972(9) 0.1271(2) 0.1375(3)
C8C C 0.56270(8) 0.13348(18) 0.1380(3)
C9C C 0.53094(9) 0.04235(19) 0.2280(3)
H6C H 0.5516 -0.0195 0.2891
C10C C 0.53109(8) 0.22423(16) 0.0469(3)
H7C H 0.5518 0.2857 -0.0149
loop_
_geom_bond_atom_site_label_1
_geom_bond_atom_site_label_2
_geom_bond_site_symmetry_1
_geom_bond_site_symmetry_2
O1 C1 1_555 1_555
O2 C7 1_555 1_555
O3 H1 1_555 1_555
N1 C4 1_555 1_555
N2 C1 1_555 1_555
C1 C2 1_555 1_555
C2 C3 1_555 1_555
C3 H2 1_555 1_555
C4 C3 1_555 1_555
H3 C4 1_555 1_555
C5 N1 1_555 1_555
H4 C5 1_555 1_555
C6 C2 1_555 1_555
H5 C6 1_555 1_555
C7 O3 1_555 1_555
C8 C7 1_555 1_555
C9 C8 1_555 1_555
H6 C9 1_555 1_555
C10 C8 1_555 1_555
H7 C10 1_555 1_555
O2C C7C 1_555 1_555
O3C H1C 1_555 1_555
N1C C4C 1_555 1_555
N2C N2 1_555 1_555
C1C O1 1_555 1_555
C2C C1C 1_555 1_555
C3C C2C 1_555 1_555
H2C C3C 1_555 1_555
C4C C3C 1_555 1_555
H3C C4C 1_555 1_555
C5C N1C 1_555 1_555
H4C C5C 1_555 1_555
C6C C2C 1_555 1_555
H5C C6C 1_555 1_555
C7C O3C 1_555 1_555
C8C C7C 1_555 1_555
C9C C9 1_555 1_555
H6C C9C 1_555 1_555
C10C C10 1_555 1_555
H7C C10C 1_555 1_555
C5 C6 1_555 1_555
N2C C1C 1_555 1_555
C5C C6C 1_555 1_555
C8C C9C 1_555 1_555
C8C C10C 1_555 1_555

#END
