
#######################################################################
#
#                 Cambridge Crystallographic Data Centre
#                                CCDC 
#
#######################################################################
#
# If this CIF has been generated from an entry in the Cambridge 
# Structural Database, then it will include bibliographic, chemical, 
# crystal, experimental, refinement or atomic coordinate data resulting 
# from the CCDC's data processing and validation procedures.
#
#######################################################################

data_NANQID
_chemical_formula_moiety         'C8 H6 O4,C12 H8 N4 O1'
_chemical_name_systematic        
'Terephthalic acid 2,5-bis(pyrid-3-yl)-1,3,4-oxadiazole'
_symmetry_cell_setting           triclinic
_symmetry_space_group_name_H-M   'P -1'
_symmetry_Int_Tables_number      2
_space_group_name_Hall           '-P 1'
loop_
_symmetry_equiv_pos_site_id
_symmetry_equiv_pos_as_xyz
1 x,y,z
2 -x,-y,-z
_cell_length_a                   6.969(4)
_cell_length_b                   9.947(6)
_cell_length_c                   13.530(8)
_cell_angle_alpha                97.531(11)
_cell_angle_beta                 103.608(11)
_cell_angle_gamma                100.683(9)
_cell_volume                     880.671
_exptl_crystal_colour            colorless
_exptl_crystal_description       needle
_chemical_melting_point          'above 300deg.C'
_cell_formula_units_Z            2
loop_
_atom_site_label
_atom_site_type_symbol
_atom_site_fract_x
_atom_site_fract_y
_atom_site_fract_z
O1 O 0.3276(4) 0.4933(3) 0.7554(2)
N1 N 0.2469(5) 0.9508(3) 0.8689(3)
N2 N 0.0147(5) 0.5123(3) 0.7459(3)
N3 N 0.0128(5) 0.3730(3) 0.7111(3)
N4 N 0.2240(5) 0.0066(3) 0.6234(3)
C1 C 0.4457(7) 1.0024(5) 0.8766(4)
H3 H 0.4989 1.0973 0.8995
C2 C 0.5696(7) 0.9201(4) 0.8519(4)
H4 H 0.7050 0.9587 0.8580
C3 C 0.4937(6) 0.7798(4) 0.8180(3)
H5 H 0.5775 0.7224 0.8018
C4 C 0.2908(6) 0.7243(4) 0.8081(3)
C5 C 0.1756(6) 0.8139(4) 0.8355(3)
H6 H 0.0402 0.7770 0.8306
C6 C 0.2012(6) 0.5784(4) 0.7714(3)
C7 C 0.1974(6) 0.3652(4) 0.7184(3)
C8 C 0.2827(6) 0.2491(4) 0.6887(3)
C9 C 0.4829(6) 0.2653(4) 0.6880(4)
H7 H 0.5711 0.3523 0.7106
C10 C 0.5504(6) 0.1523(4) 0.6539(4)
H8 H 0.6850 0.1613 0.6525
C11 C 0.4160(6) 0.0245(4) 0.6213(4)
H9 H 0.4620 -0.0520 0.5970
C12 C 0.1584(6) 0.1170(4) 0.6556(3)
H10 H 0.0230 0.1053 0.6560
O2 O 0.0498(4) 0.1464(3) 0.9216(3)
H1 H 0.1152 0.0864 0.9169
O3 O 0.3504(5) 0.2870(3) 0.9469(3)
C13 C 0.1732(7) 0.2698(4) 0.9477(4)
C14 C 0.0816(6) 0.3868(4) 0.9758(3)
C15 C -0.1263(6) 0.3704(4) 0.9560(3)
H11 H -0.2118 0.2837 0.9269
C16 C 0.2057(7) 0.5160(4) 1.0200(4)
H12 H 0.3455 0.5269 1.0340
O2A O -0.0498(4) 0.8536(3) 1.0784(3)
H1A H -0.1152 0.9136 1.0831
O3A O -0.3504(5) 0.7130(3) 1.0531(3)
C13A C -0.1732(7) 0.7302(4) 1.0523(4)
C14A C -0.0816(6) 0.6132(4) 1.0242(3)
C15A C 0.1263(6) 0.6296(4) 1.0440(3)
H11A H 0.2118 0.7163 1.0731
C16A C -0.2057(7) 0.4840(4) 0.9800(4)
H12A H -0.3455 0.4731 0.9660
O4 O 0.0193(4) 0.2473(3) 0.4342(3)
H2 H -0.0562 0.1699 0.4136
O5 O 0.2302(5) 0.1460(3) 0.3675(3)
C17 C 0.1966(6) 0.2450(4) 0.4144(4)
C18 C 0.3513(6) 0.3786(4) 0.4590(3)
C19 C 0.3015(6) 0.4954(4) 0.5034(4)
H13 H 0.1688 0.4934 0.5058
C20 C 0.5482(6) 0.3833(4) 0.4552(4)
H14 H 0.5814 0.3046 0.4246
O4A O 0.9807(4) 0.7527(3) 0.5658(3)
H2A H 1.0562 0.8301 0.5864
O5A O 0.7698(5) 0.8540(3) 0.6325(3)
C17A C 0.8034(6) 0.7550(4) 0.5856(4)
C18A C 0.6487(6) 0.6214(4) 0.5410(3)
C19A C 0.6985(6) 0.5046(4) 0.4966(4)
H13A H 0.8312 0.5066 0.4942
C20A C 0.4518(6) 0.6167(4) 0.5448(4)
H14A H 0.4186 0.6954 0.5754
loop_
_geom_bond_atom_site_label_1
_geom_bond_atom_site_label_2
_geom_bond_site_symmetry_1
_geom_bond_site_symmetry_2
O1 C6 1_555 1_555
O2 H1 1_555 1_555
O3 C13 1_555 1_555
O4 H2 1_555 1_555
O5 C17 1_555 1_555
N1 C1 1_555 1_555
N2 N3 1_555 1_555
N3 C7 1_555 1_555
N4 C11 1_555 1_555
C1 H3 1_555 1_555
C2 C1 1_555 1_555
H4 C2 1_555 1_555
C3 C2 1_555 1_555
H5 C3 1_555 1_555
C4 C3 1_555 1_555
C5 N1 1_555 1_555
H6 C5 1_555 1_555
C6 N2 1_555 1_555
C7 O1 1_555 1_555
C8 C7 1_555 1_555
C9 C8 1_555 1_555
H7 C9 1_555 1_555
C10 C9 1_555 1_555
H8 C10 1_555 1_555
C11 C10 1_555 1_555
H9 C11 1_555 1_555
C12 N4 1_555 1_555
H10 C12 1_555 1_555
C13 O2 1_555 1_555
C14 C13 1_555 1_555
C15 C14 1_555 1_555
H11 C15 1_555 1_555
C16 C14 1_555 1_555
H12 C16 1_555 1_555
C17 O4 1_555 1_555
C18 C17 1_555 1_555
C19 C18 1_555 1_555
H13 C19 1_555 1_555
C20 C18 1_555 1_555
H14 C20 1_555 1_555
O2A H1A 1_555 1_555
O3A C13A 1_555 1_555
O4A H2A 1_555 1_555
O5A C17A 1_555 1_555
C13A O2A 1_555 1_555
C14A C13A 1_555 1_555
C15A C16 1_555 1_555
H11A C15A 1_555 1_555
C16A C15 1_555 1_555
H12A C16A 1_555 1_555
C17A O4A 1_555 1_555
C18A C17A 1_555 1_555
C19A C20 1_555 1_555
H13A C19A 1_555 1_555
C20A C19 1_555 1_555
H14A C20A 1_555 1_555
C4 C5 1_555 1_555
C4 C6 1_555 1_555
C8 C12 1_555 1_555
C14A C15A 1_555 1_555
C14A C16A 1_555 1_555
C18A C19A 1_555 1_555
C18A C20A 1_555 1_555

#END
