
#######################################################################
#
#                 Cambridge Crystallographic Data Centre
#                                CCDC 
#
#######################################################################
#
# If this CIF has been generated from an entry in the Cambridge 
# Structural Database, then it will include bibliographic, chemical, 
# crystal, experimental, refinement or atomic coordinate data resulting 
# from the CCDC's data processing and validation procedures.
#
#######################################################################

data_NANVEE
_chemical_formula_moiety         'C21 H25 N1 O5 S1'
_chemical_name_systematic        
trans-1-(3'-N,N-Dimethylthiocarbamoyl-4'-methoxy)-2-(3'',4'',5''-trimethoxyphenyl)ethane
_symmetry_cell_setting           monoclinic
_symmetry_space_group_name_H-M   'P 21/n'
_symmetry_Int_Tables_number      14
_space_group_name_Hall           '-P 2yn'
loop_
_symmetry_equiv_pos_site_id
_symmetry_equiv_pos_as_xyz
1 x,y,z
2 1/2-x,1/2+y,1/2-z
3 -x,-y,-z
4 1/2+x,1/2-y,1/2+z
_cell_length_a                   11.7825(7)
_cell_length_b                   11.5616(13)
_cell_length_c                   14.9105(13)
_cell_angle_alpha                90
_cell_angle_beta                 93.294(6)
_cell_angle_gamma                90
_cell_volume                     2027.82
_exptl_crystal_colour            colorless
_exptl_crystal_description       block
_cell_formula_units_Z            4
_exptl_crystal_recrystallization_method methanol
loop_
_atom_site_label
_atom_site_type_symbol
_atom_site_fract_x
_atom_site_fract_y
_atom_site_fract_z
S1 S 0.95437(7) 0.03057(8) 0.70794(5)
O1 O 1.11392(18) -0.16703(19) 0.71292(14)
O2 O 0.9800(2) 0.5674(2) 1.1734(2)
O3 O 1.1252(2) 0.5282(2) 1.31932(17)
O4 O 1.23242(19) 0.3282(2) 1.34056(14)
O5 O 1.14577(18) 0.1092(2) 0.64643(15)
N1 N 0.9898(2) 0.1352(2) 0.55383(16)
C1 C 1.1358(2) 0.0355(3) 0.94515(19)
C2 C 1.0637(2) 0.0619(3) 0.87064(19)
H1 H 1.0184 0.1277 0.8723
C3 C 1.0571(2) -0.0056(3) 0.79480(19)
C4 C 1.1241(2) -0.1049(3) 0.79042(19)
C5 C 1.1957(3) -0.1341(3) 0.8638(2)
H2 H 1.2403 -0.2003 0.8624
C6 C 1.2007(3) -0.0640(3) 0.9393(2)
H3 H 1.2494 -0.0846 0.9880
C7 C 1.0920(2) 0.2803(3) 1.1168(2)
C8 C 1.0289(3) 0.3819(3) 1.1104(2)
H4 H 0.9804 0.3949 1.0600
C9 C 1.0374(3) 0.4638(3) 1.1779(2)
C10 C 1.1087(3) 0.4441(3) 1.2535(2)
C11 C 1.1694(2) 0.3408(3) 1.2618(2)
C12 C 1.1619(2) 0.2602(3) 1.19350(19)
H5 H 1.2037 0.1921 1.1988
C13 C 1.0847(3) 0.2012(3) 1.0400(2)
H6 H 1.0302 0.2199 0.9947
C14 C 1.1443(3) 0.1076(3) 1.0261(2)
H7 H 1.1966 0.0850 1.0718
C15 C 1.1678(3) -0.2776(3) 0.7118(2)
H8 H 1.1541 -0.3122 0.6536
H9 H 1.1372 -0.3264 0.7566
H10 H 1.2481 -0.2685 0.7243
C16 C 1.0444(3) 0.0980(3) 0.6302(2)
C17 C 0.8740(3) 0.5704(3) 1.1281(3)
H11 H 0.8438 0.6474 1.1302
H12 H 0.8238 0.5179 1.1561
H13 H 0.8811 0.5480 1.0667
C18 C 1.0349(4) 0.5453(4) 1.3751(3)
H14 H 1.0547 0.6049 1.4181
H15 H 1.0199 0.4747 1.4062
H16 H 0.9683 0.5681 1.3394
C19 C 1.2995(3) 0.2271(3) 1.3503(2)
H17 H 1.3399 0.2275 1.4081
H18 H 1.3529 0.2248 1.3041
H19 H 1.2513 0.1602 1.3454
C20 C 0.8686(3) 0.1251(3) 0.5335(2)
H20 H 0.8497 0.1575 0.4752
H21 H 0.8286 0.1662 0.5778
H22 H 0.8471 0.0450 0.5338
C21 C 1.0555(3) 0.1937(3) 0.4875(2)
H26 H 1.0061 0.2152 0.4368
H27 H 1.1135 0.1426 0.4682
H28 H 1.0902 0.2617 0.5138
H23? H 0.8339 0.0883 0.5827
H24? H 0.8550 0.0796 0.4801
H25? H 0.8364 0.2008 0.5241
H29? H 1.1338 0.1978 0.5091
H30? H 1.0264 0.2704 0.4777
H31? H 1.0497 0.1513 0.4321
loop_
_geom_bond_atom_site_label_1
_geom_bond_atom_site_label_2
_geom_bond_site_symmetry_1
_geom_bond_site_symmetry_2
S1 C3 1_555 1_555
O1 C4 1_555 1_555
O2 C9 1_555 1_555
O3 C10 1_555 1_555
O4 C11 1_555 1_555
O5 C16 1_555 1_555
N1 C16 1_555 1_555
C1 C2 1_555 1_555
C2 H1 1_555 1_555
C3 C2 1_555 1_555
C4 C3 1_555 1_555
C5 C4 1_555 1_555
H2 C5 1_555 1_555
C6 C1 1_555 1_555
H3 C6 1_555 1_555
C7 C8 1_555 1_555
C8 H4 1_555 1_555
C9 C8 1_555 1_555
C10 C9 1_555 1_555
C11 C10 1_555 1_555
C12 C7 1_555 1_555
H5 C12 1_555 1_555
C13 C7 1_555 1_555
H6 C13 1_555 1_555
C14 C1 1_555 1_555
H7 C14 1_555 1_555
C15 O1 1_555 1_555
H8 C15 1_555 1_555
H9 C15 1_555 1_555
H10 C15 1_555 1_555
C16 S1 1_555 1_555
C17 O2 1_555 1_555
H11 C17 1_555 1_555
H12 C17 1_555 1_555
H13 C17 1_555 1_555
C18 O3 1_555 1_555
H14 C18 1_555 1_555
H15 C18 1_555 1_555
H16 C18 1_555 1_555
C19 O4 1_555 1_555
H17 C19 1_555 1_555
H18 C19 1_555 1_555
H19 C19 1_555 1_555
C20 N1 1_555 1_555
H20 C20 1_555 1_555
H21 C20 1_555 1_555
H22 C20 1_555 1_555
C21 N1 1_555 1_555
H26 C21 1_555 1_555
H27 C21 1_555 1_555
H28 C21 1_555 1_555
C5 C6 1_555 1_555
C11 C12 1_555 1_555
C13 C14 1_555 1_555

#END
