
#######################################################################
#
#                 Cambridge Crystallographic Data Centre
#                                CCDC 
#
#######################################################################
#
# If this CIF has been generated from an entry in the Cambridge 
# Structural Database, then it will include bibliographic, chemical, 
# crystal, experimental, refinement or atomic coordinate data resulting 
# from the CCDC's data processing and validation procedures.
#
#######################################################################

data_NANYOT
_chemical_formula_moiety         'C30 H26 N5 O2 P1'
_chemical_name_systematic        
N-(2-((2-(diphenylphosphino)benzylidene)amino)phenyl)-4,6-dimethoxy-1,3,5-triazin-2-amine
_symmetry_cell_setting           monoclinic
_symmetry_space_group_name_H-M   'P 21/n'
_symmetry_Int_Tables_number      14
_space_group_name_Hall           '-P 2yn'
loop_
_symmetry_equiv_pos_site_id
_symmetry_equiv_pos_as_xyz
1 x,y,z
2 1/2-x,1/2+y,1/2-z
3 -x,-y,-z
4 1/2+x,1/2-y,1/2+z
_cell_length_a                   12.7880(5)
_cell_length_b                   10.6063(4)
_cell_length_c                   19.4511(7)
_cell_angle_alpha                90
_cell_angle_beta                 100.8650(10)
_cell_angle_gamma                90
_cell_volume                     2590.93
_exptl_crystal_colour            'light colorless'
_exptl_crystal_description       block
_cell_formula_units_Z            4
loop_
_atom_site_label
_atom_site_type_symbol
_atom_site_fract_x
_atom_site_fract_y
_atom_site_fract_z
P1 P 0.27824(2) 0.51469(3) 0.53954(2)
O1 O 0.72620(7) 0.95809(9) 0.68626(4)
O2 O 0.54804(7) 0.64990(9) 0.77101(4)
N1 N 0.63781(8) 0.80531(10) 0.73049(5)
N2 N 0.61687(7) 0.83554(9) 0.60675(5)
N3 N 0.52080(8) 0.67156(10) 0.65177(5)
N4 N 0.50091(8) 0.70115(10) 0.53395(5)
H1 H 0.4630 0.6317 0.5327
N5 N 0.35717(7) 0.61535(9) 0.42696(5)
C1 C 0.28296(10) 0.36281(12) 0.65506(6)
H2 H 0.3505 0.3392 0.6457
C2 C 0.24793(11) 0.31180(15) 0.71279(7)
H3 H 0.2914 0.2537 0.7425
C3 C 0.14952(11) 0.34613(14) 0.72670(7)
H4 H 0.1261 0.3125 0.7665
C4 C 0.08521(10) 0.42919(13) 0.68289(6)
H5 H 0.0172 0.4512 0.6921
C5 C 0.12008(10) 0.48035(12) 0.62551(6)
H6 H 0.0759 0.5378 0.5958
C6 C 0.21993(9) 0.44794(11) 0.61102(5)
C7 C 0.21148(8) 0.66884(10) 0.53006(6)
C8 C 0.24188(10) 0.75399(12) 0.58500(7)
H7 H 0.2923 0.7288 0.6250
C9 C 0.19957(10) 0.87487(13) 0.58201(8)
H8 H 0.2200 0.9311 0.6202
C10 C 0.12768(11) 0.91346(12) 0.52352(8)
H9 H 0.1002 0.9969 0.5208
C11 C 0.09601(11) 0.82949(13) 0.46882(7)
H10 H 0.0458 0.8553 0.4289
C12 C 0.13721(9) 0.70774(12) 0.47205(6)
H11 H 0.1146 0.6508 0.4345
C13 C 0.13691(9) 0.33078(11) 0.47025(6)
H12 H 0.1219 0.3135 0.5153
C14 C 0.08662(9) 0.26003(11) 0.41340(6)
H13 H 0.0379 0.1956 0.4200
C15 C 0.10727(9) 0.28309(11) 0.34707(6)
H14 H 0.0722 0.2355 0.3081
C16 C 0.17961(9) 0.37638(10) 0.33828(6)
H15 H 0.1943 0.3919 0.2930
C17 C 0.23132(8) 0.44808(10) 0.39506(5)
C18 C 0.20902(8) 0.42667(10) 0.46286(5)
C19 C 0.30772(8) 0.54197(10) 0.37983(5)
H16 H 0.3209 0.5485 0.3335
C20 C 0.42823(8) 0.70796(10) 0.41114(5)
C21 C 0.42317(9) 0.75960(11) 0.34461(6)
H17 H 0.3728 0.7279 0.3063
C22 C 0.49077(9) 0.85667(12) 0.33376(6)
H18 H 0.4867 0.8916 0.2884
C23 C 0.56441(10) 0.90242(12) 0.38985(6)
H19 H 0.6107 0.9691 0.3825
C24 C 0.57164(10) 0.85251(13) 0.45653(6)
H20 H 0.6233 0.8840 0.4942
C25 C 0.50275(9) 0.75587(11) 0.46822(5)
C26 C 0.54850(8) 0.73891(11) 0.59869(5)
C27 C 0.56876(9) 0.71030(11) 0.71449(6)
C28 C 0.65733(9) 0.86266(11) 0.67320(6)
C29 C 0.75118(10) 1.02276(12) 0.62582(7)
H21 H 0.6850 1.0482 0.5948
H22 H 0.7914 0.9662 0.6006
H23 H 0.7941 1.0977 0.6412
C30 C 0.47664(12) 0.54402(14) 0.75884(7)
H24 H 0.5035 0.4827 0.7287
H25 H 0.4059 0.5730 0.7359
H26 H 0.4719 0.5042 0.8036
loop_
_geom_bond_atom_site_label_1
_geom_bond_atom_site_label_2
_geom_bond_site_symmetry_1
_geom_bond_site_symmetry_2
P1 C6 1_555 1_555
O1 C28 1_555 1_555
O2 C27 1_555 1_555
N1 C27 1_555 1_555
N2 C26 1_555 1_555
N3 C26 1_555 1_555
N4 H1 1_555 1_555
N5 C19 1_555 1_555
C1 H2 1_555 1_555
C2 C1 1_555 1_555
H3 C2 1_555 1_555
C3 C2 1_555 1_555
H4 C3 1_555 1_555
C4 C3 1_555 1_555
H5 C4 1_555 1_555
C5 C4 1_555 1_555
H6 C5 1_555 1_555
C6 C1 1_555 1_555
C7 P1 1_555 1_555
C8 C7 1_555 1_555
H7 C8 1_555 1_555
C9 C8 1_555 1_555
H8 C9 1_555 1_555
C10 C9 1_555 1_555
H9 C10 1_555 1_555
C11 C10 1_555 1_555
H10 C11 1_555 1_555
C12 C7 1_555 1_555
H11 C12 1_555 1_555
C13 H12 1_555 1_555
C14 C13 1_555 1_555
H13 C14 1_555 1_555
C15 C14 1_555 1_555
H14 C15 1_555 1_555
C16 C15 1_555 1_555
H15 C16 1_555 1_555
C17 C16 1_555 1_555
C18 P1 1_555 1_555
C19 C17 1_555 1_555
H16 C19 1_555 1_555
C20 N5 1_555 1_555
C21 C20 1_555 1_555
H17 C21 1_555 1_555
C22 C21 1_555 1_555
H18 C22 1_555 1_555
C23 C22 1_555 1_555
H19 C23 1_555 1_555
C24 C23 1_555 1_555
H20 C24 1_555 1_555
C25 N4 1_555 1_555
C26 N4 1_555 1_555
C27 N3 1_555 1_555
C28 N1 1_555 1_555
C29 O1 1_555 1_555
H21 C29 1_555 1_555
H22 C29 1_555 1_555
H23 C29 1_555 1_555
C30 O2 1_555 1_555
H24 C30 1_555 1_555
H25 C30 1_555 1_555
H26 C30 1_555 1_555
N2 C28 1_555 1_555
C5 C6 1_555 1_555
C11 C12 1_555 1_555
C13 C18 1_555 1_555
C17 C18 1_555 1_555
C20 C25 1_555 1_555
C24 C25 1_555 1_555

#END
