
#######################################################################
#
#                 Cambridge Crystallographic Data Centre
#                                CCDC 
#
#######################################################################
#
# If this CIF has been generated from an entry in the Cambridge 
# Structural Database, then it will include bibliographic, chemical, 
# crystal, experimental, refinement or atomic coordinate data resulting 
# from the CCDC's data processing and validation procedures.
#
#######################################################################

data_NAPCEP
_chemical_formula_moiety         'C22 H20 F1 N1 O5 S2'
_chemical_name_systematic        
N-(2-(4-fluorophenyl)tetrahydrofuran-3-yl)-N-(phenylsulfonyl)benzenesulfonamide
_symmetry_cell_setting           orthorhombic
_symmetry_space_group_name_H-M   'P 21 21 21'
_symmetry_Int_Tables_number      19
_space_group_name_Hall           'P 2ac 2ab'
loop_
_symmetry_equiv_pos_site_id
_symmetry_equiv_pos_as_xyz
1 x,y,z
2 1/2-x,-y,1/2+z
3 -x,1/2+y,1/2-z
4 1/2+x,1/2-y,-z
_cell_length_a                   7.6551(16)
_cell_length_b                   11.731(3)
_cell_length_c                   23.996(6)
_cell_angle_alpha                90
_cell_angle_beta                 90
_cell_angle_gamma                90
_cell_volume                     2154.89
_exptl_crystal_colour            colorless
_exptl_crystal_description       prism
_cell_formula_units_Z            4
loop_
_atom_site_label
_atom_site_type_symbol
_atom_site_fract_x
_atom_site_fract_y
_atom_site_fract_z
C1 C 0.7246(2) 0.02453(17) 0.26083(8)
C2 C 0.7505(3) 0.14010(18) 0.26866(9)
H1 H 0.6679 0.1939 0.2552
C3 C 0.8988(3) 0.1756(2) 0.29640(10)
H2 H 0.9180 0.2546 0.3025
C4 C 1.0180(3) 0.0981(3) 0.31504(11)
H3 H 1.1192 0.1235 0.3343
C5 C 0.9927(3) -0.0167(3) 0.30610(11)
H4 H 1.0783 -0.0696 0.3184
C6 C 0.8440(3) -0.0559(2) 0.27940(9)
H5 H 0.8244 -0.1351 0.2740
C7 C 0.5515(2) -0.18227(17) 0.09497(8)
C8 C 0.5367(3) -0.28371(18) 0.12378(9)
H6 H 0.5897 -0.2928 0.1593
C9 C 0.4434(3) -0.3715(2) 0.09981(11)
H7 H 0.4329 -0.4423 0.1188
C10 C 0.3655(4) -0.3572(2) 0.04877(12)
H8 H 0.3010 -0.4182 0.0328
C11 C 0.3796(4) -0.2560(2) 0.02059(11)
H9 H 0.3241 -0.2470 -0.0145
C12 C 0.4747(3) -0.16688(19) 0.04321(9)
H10 H 0.4869 -0.0968 0.0237
C13 C 0.3922(2) 0.06112(16) 0.13260(8)
H11 H 0.4171 0.0535 0.0919
C14 C 0.2091(2) 0.00990(18) 0.14252(9)
H12 H 0.1653 -0.0288 0.1086
H13 H 0.2107 -0.0452 0.1738
C15 C 0.0990(3) 0.1124(2) 0.15649(11)
H14 H -0.0175 0.1060 0.1389
H15 H 0.0834 0.1188 0.1973
C16 C 0.3709(2) 0.19064(16) 0.14468(9)
H16 H 0.4017 0.2075 0.1843
C17 C 0.4775(3) 0.26345(16) 0.10606(8)
C18 C 0.4077(4) 0.30574(19) 0.05674(9)
H17 H 0.2881 0.2927 0.0482
C19 C 0.5110(4) 0.3667(2) 0.01988(10)
H18 H 0.4641 0.3959 -0.0139
C20 C 0.6811(5) 0.3835(2) 0.03333(10)
C21 C 0.7563(4) 0.3431(2) 0.08094(11)
H19 H 0.8765 0.3557 0.0886
C22 C 0.6514(3) 0.2833(2) 0.11764(9)
H20 H 0.6999 0.2554 0.1514
N1 N 0.54210(18) 0.00773(13) 0.16272(6)
O1 O 0.39099(17) 0.05196(13) 0.25053(5)
O2 O 0.5104(2) -0.14115(12) 0.23897(6)
O3 O 0.80657(18) -0.11542(12) 0.15919(6)
O4 O 0.72736(18) 0.00201(13) 0.07799(6)
O5 O 0.18963(19) 0.20970(13) 0.13547(7)
F1 F 0.7839(3) 0.44431(16) -0.00235(7)
S1 S 0.52665(6) -0.02128(4) 0.231402(19)
S2 S 0.67710(6) -0.07011(4) 0.122734(19)
loop_
_geom_bond_atom_site_label_1
_geom_bond_atom_site_label_2
_geom_bond_site_symmetry_1
_geom_bond_site_symmetry_2
C1 C2 1_555 1_555
C2 H1 1_555 1_555
C3 C2 1_555 1_555
H2 C3 1_555 1_555
C4 C3 1_555 1_555
H3 C4 1_555 1_555
C5 C4 1_555 1_555
H4 C5 1_555 1_555
C6 C1 1_555 1_555
H5 C6 1_555 1_555
C7 C8 1_555 1_555
C8 H6 1_555 1_555
C9 C8 1_555 1_555
H7 C9 1_555 1_555
C10 C9 1_555 1_555
H8 C10 1_555 1_555
C11 C10 1_555 1_555
H9 C11 1_555 1_555
C12 C7 1_555 1_555
H10 C12 1_555 1_555
C13 H11 1_555 1_555
C14 C13 1_555 1_555
H12 C14 1_555 1_555
H13 C14 1_555 1_555
C15 C14 1_555 1_555
H14 C15 1_555 1_555
H15 C15 1_555 1_555
C16 C13 1_555 1_555
H16 C16 1_555 1_555
C17 C16 1_555 1_555
C18 C17 1_555 1_555
H17 C18 1_555 1_555
C19 C18 1_555 1_555
H18 C19 1_555 1_555
C20 C19 1_555 1_555
C21 C20 1_555 1_555
H19 C21 1_555 1_555
C22 C17 1_555 1_555
H20 C22 1_555 1_555
N1 C13 1_555 1_555
O1 S1 1_555 1_555
O2 S1 1_555 1_555
O3 S2 1_555 1_555
O4 S2 1_555 1_555
O5 C15 1_555 1_555
F1 C20 1_555 1_555
S1 C1 1_555 1_555
S2 C7 1_555 1_555
C5 C6 1_555 1_555
C11 C12 1_555 1_555
C16 O5 1_555 1_555
C21 C22 1_555 1_555
N1 S1 1_555 1_555
N1 S2 1_555 1_555

#END
