
#######################################################################
#
#                 Cambridge Crystallographic Data Centre
#                                CCDC 
#
#######################################################################
#
# If this CIF has been generated from an entry in the Cambridge 
# Structural Database, then it will include bibliographic, chemical, 
# crystal, experimental, refinement or atomic coordinate data resulting 
# from the CCDC's data processing and validation procedures.
#
#######################################################################

data_NAPFLV02
_chemical_name_common            alpha-Naphthoflavone
_chemical_formula_moiety         'C19 H12 O2'
_chemical_name_systematic        2-Phenyl-4H-naphtho(1,2-b)pyran-4-one
_symmetry_cell_setting           orthorhombic
_symmetry_space_group_name_H-M   'P b c a'
_symmetry_Int_Tables_number      61
_space_group_name_Hall           '-P 2ac 2ab'
loop_
_symmetry_equiv_pos_site_id
_symmetry_equiv_pos_as_xyz
1 x,y,z
2 1/2-x,-y,1/2+z
3 1/2+x,1/2-y,-z
4 -x,1/2+y,1/2-z
5 -x,-y,-z
6 1/2+x,y,1/2-z
7 1/2-x,1/2+y,z
8 x,1/2-y,1/2+z
_cell_length_a                   14.788(4)
_cell_length_b                   7.470(2)
_cell_length_c                   24.188(4)
_cell_angle_alpha                90
_cell_angle_beta                 90
_cell_angle_gamma                90
_cell_volume                     2671.96
_exptl_crystal_colour            'pale yellow'
_cell_formula_units_Z            8
loop_
_atom_site_label
_atom_site_type_symbol
_atom_site_fract_x
_atom_site_fract_y
_atom_site_fract_z
C1 C -0.03036(13) 0.1485(3) 0.67626(7)
C2 C -0.0407(2) 0.0483(3) 0.72444(8)
C3 C -0.1144(2) 0.0748(4) 0.75841(10)
C4 C -0.1780(2) 0.2022(4) 0.74550(10)
C5 C -0.1689(2) 0.3031(4) 0.69802(10)
C6 C -0.09588(14) 0.2745(3) 0.66298(9)
C7 C 0.04832(13) 0.1191(3) 0.64003(7)
C8 C 0.12805(13) 0.0491(3) 0.65484(8)
C9 C 0.19999(14) 0.0180(3) 0.61580(8)
C10 C 0.17788(12) 0.0676(3) 0.55896(7)
C11 C 0.23877(14) 0.0361(3) 0.51489(8)
C12 C 0.21800(14) 0.0840(3) 0.46266(9)
C13 C 0.13430(13) 0.1676(3) 0.45022(8)
C14 C 0.1110(2) 0.2213(3) 0.39597(8)
C15 C 0.0293(2) 0.2977(3) 0.38491(9)
C16 C -0.0333(2) 0.3254(3) 0.42700(8)
C17 C -0.01359(14) 0.2764(3) 0.48018(8)
C18 C 0.07033(12) 0.1979(2) 0.49290(7)
C19 C 0.09558(12) 0.1444(2) 0.54715(7)
O1 O 0.03107(8) 0.1720(2) 0.58699(5)
O2 O 0.27408(9) -0.0452(2) 0.62897(6)
H1 H 0.0048(17) -0.0494(34) 0.7337(9)
H2 H -0.1190(17) 0.0038(37) 0.7917(11)
H3 H -0.2257(18) 0.2268(38) 0.7694(12)
H4 H -0.2125(18) 0.3964(37) 0.6866(10)
H5 H -0.0902(14) 0.3440(29) 0.6286(9)
H6 H 0.1347(13) 0.0172(28) 0.6935(9)
H7 H 0.2957(15) -0.0276(28) 0.5238(8)
H8 H 0.2621(15) 0.0595(31) 0.4313(9)
H9 H 0.1534(15) 0.1988(30) 0.3659(9)
H10 H 0.0132(16) 0.3371(31) 0.3464(10)
H11 H -0.0921(15) 0.3822(30) 0.4193(9)
H12 H -0.0561(14) 0.2957(26) 0.5086(8)
loop_
_geom_bond_atom_site_label_1
_geom_bond_atom_site_label_2
_geom_bond_site_symmetry_1
_geom_bond_site_symmetry_2
C1 C2 1_555 1_555
C2 C3 1_555 1_555
C3 C4 1_555 1_555
C4 C5 1_555 1_555
C5 C6 1_555 1_555
C6 C1 1_555 1_555
C7 C1 1_555 1_555
C8 C7 1_555 1_555
C9 C8 1_555 1_555
C10 C9 1_555 1_555
C11 C10 1_555 1_555
C12 C11 1_555 1_555
C13 C12 1_555 1_555
C14 C13 1_555 1_555
C15 C14 1_555 1_555
C16 C15 1_555 1_555
C17 C16 1_555 1_555
C18 C13 1_555 1_555
C19 C10 1_555 1_555
O1 C7 1_555 1_555
O2 C9 1_555 1_555
H1 C2 1_555 1_555
H2 C3 1_555 1_555
H3 C4 1_555 1_555
H4 C5 1_555 1_555
H5 C6 1_555 1_555
H6 C8 1_555 1_555
H7 C11 1_555 1_555
H8 C12 1_555 1_555
H9 C14 1_555 1_555
H10 C15 1_555 1_555
H11 C16 1_555 1_555
H12 C17 1_555 1_555
C17 C18 1_555 1_555
C18 C19 1_555 1_555
C19 O1 1_555 1_555

#END
