
#######################################################################
#
#                 Cambridge Crystallographic Data Centre
#                                CCDC 
#
#######################################################################
#
# If this CIF has been generated from an entry in the Cambridge 
# Structural Database, then it will include bibliographic, chemical, 
# crystal, experimental, refinement or atomic coordinate data resulting 
# from the CCDC's data processing and validation procedures.
#
#######################################################################

data_NAPFUI
_chemical_formula_moiety         'C17 H15 F1 N4 O2'
_chemical_name_systematic        
4-((1,3-benzodioxol-5-ylmethyl)(1-methylcyclopropyl)amino)-5-fluoropyrimidine-2-carbonitrile
_symmetry_cell_setting           monoclinic
_symmetry_space_group_name_H-M   'P 21/c'
_symmetry_Int_Tables_number      14
_space_group_name_Hall           '-P 2ybc'
loop_
_symmetry_equiv_pos_site_id
_symmetry_equiv_pos_as_xyz
1 x,y,z
2 -x,1/2+y,1/2-z
3 -x,-y,-z
4 x,1/2-y,1/2+z
_cell_length_a                   9.6175(7)
_cell_length_b                   10.3511(8)
_cell_length_c                   46.808(3)
_cell_angle_alpha                90
_cell_angle_beta                 100.852(3)
_cell_angle_gamma                90
_cell_volume                     4576.48
_exptl_crystal_colour            colorless
_exptl_crystal_description       block
_cell_formula_units_Z            12
loop_
_atom_site_label
_atom_site_type_symbol
_atom_site_fract_x
_atom_site_fract_y
_atom_site_fract_z
F1 F 0.20261(11) 0.62379(9) 0.65388(2)
O1 O 0.12966(14) 0.49655(12) 0.52069(2)
O2 O 0.32863(14) 0.45669(12) 0.50106(2)
N1 N 0.06731(15) 0.30540(13) 0.63403(3)
N2 N 0.29319(15) 0.37967(12) 0.63235(3)
N3 N -0.10746(17) 0.43167(14) 0.65183(3)
N4 N -0.23737(19) 0.13627(16) 0.63252(4)
C1 C 0.16359(18) 0.40195(15) 0.63875(3)
C2 C 0.32586(18) 0.31650(14) 0.58321(3)
C3 C 0.21113(19) 0.38354(15) 0.56694(3)
H1 H 0.1291 0.3990 0.5742
C4 C 0.11854(19) 0.51847(15) 0.64988(3)
C5 C -0.05812(19) 0.32690(16) 0.64087(4)
C6 C 0.31518(19) 0.27090(15) 0.61332(3)
H2 H 0.2369 0.2107 0.6120
H3 H 0.4014 0.2256 0.6218
C7 C 0.44735(19) 0.29620(15) 0.57193(4)
H4 H 0.5231 0.2528 0.5831
C8 C 0.41423(18) 0.46298(15) 0.64228(3)
C9 C 0.3450(2) 0.40273(16) 0.52847(3)
C10 C 0.22489(19) 0.42533(15) 0.53989(3)
C11 C -0.1573(2) 0.21903(17) 0.63586(4)
C12 C -0.0131(2) 0.52995(16) 0.65590(4)
H5 H -0.0396 0.6081 0.6631
C13 C 0.4594(2) 0.33941(16) 0.54396(4)
H6 H 0.5410 0.3255 0.5364
C14 C 0.45433(19) 0.48044(17) 0.67458(3)
H7 H 0.4944 0.5629 0.6818
H8 H 0.3953 0.4395 0.6866
C15 C 0.5416(2) 0.39493(17) 0.65910(4)
H9 H 0.5351 0.3024 0.6618
H10 H 0.6343 0.4258 0.6569
C16 C 0.4383(2) 0.57119(16) 0.62219(4)
H11 H 0.4523 0.5358 0.6040
H12 H 0.5206 0.6195 0.6309
H13 H 0.3572 0.6271 0.6189
C17 C 0.1828(2) 0.49435(19) 0.49413(4)
H14 H 0.1741 0.5792 0.4852
H15 H 0.1294 0.4332 0.4806
F2 F 0.42807(13) 1.02051(10) 0.65479(2)
O3 O 0.12306(14) 0.43057(11) 0.76342(3)
O4 O 0.19227(15) 0.45127(11) 0.71886(3)
N5 N 0.39251(15) 0.92330(13) 0.71215(3)
N6 N 0.58678(15) 0.79572(13) 0.71031(3)
N7 N 0.70755(16) 0.78907(14) 0.66983(3)
N8 N 0.85675(19) 0.58406(16) 0.72348(4)
C18 C 0.49279(19) 0.88500(15) 0.69749(3)
C19 C 0.68520(19) 0.75612(16) 0.69593(4)
C20 C 0.18816(19) 0.54829(16) 0.76186(4)
C21 C 0.28248(19) 0.75416(17) 0.77516(4)
H16 H 0.2999 0.8214 0.7885
C22 C 0.4048(2) 0.88813(16) 0.74304(3)
H17 H 0.3706 0.9598 0.7531
H18 H 0.5041 0.8760 0.7514
C23 C 0.32488(18) 0.76746(16) 0.74859(3)
C24 C 0.28483(19) 1.01830(16) 0.70073(4)
C25 C 0.29771(19) 0.66822(16) 0.72796(4)
H19 H 0.3255 0.6748 0.7100
C26 C 0.22865(19) 0.56129(16) 0.73528(4)
C27 C 0.2144(2) 0.64300(18) 0.78247(4)
H20 H 0.1883 0.6340 0.8005
C28 C 0.5105(2) 0.92736(16) 0.66953(4)
C29 C 0.7819(2) 0.65980(17) 0.71117(4)
C30 C 0.6147(2) 0.87866(17) 0.65700(4)
H21 H 0.6227 0.9083 0.6386
C31 C 0.1056(2) 0.37779(16) 0.73474(4)
H22 H 0.0071 0.3829 0.7252
H23 H 0.1342 0.2878 0.7356
C32 C 0.1782(2) 0.98307(19) 0.67455(4)
H24 H 0.1868 0.8991 0.6658
H25 H 0.1430 1.0513 0.6609
C33 C 0.1369(2) 0.9867(2) 0.70380(4)
H26 H 0.0769 1.0572 0.7078
H27 H 0.1206 0.9050 0.7128
C34 C 0.3345(2) 1.15631(17) 0.70515(4)
H28 H 0.3571 1.1749 0.7256
H29 H 0.2609 1.2134 0.6960
H30 H 0.4172 1.1685 0.6967
F3 F 0.29508(17) 1.02245(15) 0.49768(3)
O5 O -0.09463(13) 0.53667(11) 0.57663(3)
O6 O -0.25092(15) 0.64777(12) 0.59942(3)
N9 N 0.26907(14) 0.92852(12) 0.55592(3)
N10 N 0.08545(16) 1.07199(12) 0.55254(3)
N11 N -0.00959(17) 1.19516(14) 0.50988(3)
N12 N -0.20023(19) 1.24331(16) 0.56287(4)
C35 C -0.04550(19) 0.66058(16) 0.58302(3)
C36 C 0.10936(19) 0.84074(16) 0.58858(3)
C37 C 0.07839(19) 0.71434(16) 0.57824(3)
H31 H 0.1393 0.6692 0.5686
C38 C 0.18707(19) 1.01893(15) 0.54012(4)
C39 C -0.00413(19) 1.15355(15) 0.53692(4)
C40 C 0.2469(2) 0.90498(16) 0.58589(3)
H32 H 0.2523 0.9872 0.5960
H33 H 0.3241 0.8517 0.5958
C41 C -0.1375(2) 0.72582(17) 0.59706(4)
C42 C 0.39974(19) 0.88024(15) 0.54846(4)
C43 C -0.1138(2) 1.20358(17) 0.55162(4)
C44 C -0.2369(2) 0.53809(18) 0.58167(4)
H34 H -0.3033 0.5441 0.5633
H35 H -0.2565 0.4594 0.5914
C45 C 0.0147(2) 0.90441(17) 0.60252(4)
H36 H 0.0357 0.9883 0.6091
C46 C -0.1104(2) 0.84862(18) 0.60718(4)
H37 H -0.1725 0.8927 0.6167
C47 C 0.1933(2) 1.06238(18) 0.51175(4)
C48 C 0.0957(2) 1.14666(17) 0.49787(4)
H38 H 0.1017 1.1722 0.4791
C49 C 0.5249(3) 0.9680(2) 0.55650(7)
H39 H 0.5072 1.0474 0.5459
H40 H 0.6073 0.9270 0.5518
H41 H 0.5405 0.9857 0.5770
C50 C 0.4251(3) 0.73748(19) 0.55111(6)
H42 H 0.5214 0.7083 0.5579
H43 H 0.3528 0.6848 0.5573
C51 C 0.3910(3) 0.7971(2) 0.52177(5)
H44 H 0.2980 0.7808 0.5102
H45 H 0.4666 0.8043 0.5108
C52? C 0.5009(5) 0.9727(5) 0.54032(15)
H46? H 0.4735 1.0630 0.5388
H47? H 0.5576 0.9446 0.5264
C53? C 0.5323(4) 0.9147(6) 0.56987(13)
H48? H 0.5227 0.9691 0.5862
H49? H 0.6070 0.8505 0.5738
C54? C 0.3879(7) 0.7459(5) 0.53681(19)
H50? H 0.3709 0.6875 0.5517
H51? H 0.4744 0.7225 0.5307
H52? H 0.3108 0.7411 0.5205
loop_
_geom_bond_atom_site_label_1
_geom_bond_atom_site_label_2
_geom_bond_site_symmetry_1
_geom_bond_site_symmetry_2
F1 C4 1_555 1_555
O1 C10 1_555 1_555
O2 C9 1_555 1_555
N1 C1 1_555 1_555
N2 C1 1_555 1_555
N3 C5 1_555 1_555
N4 C11 1_555 1_555
C1 C4 1_555 1_555
C2 C3 1_555 1_555
C3 H1 1_555 1_555
C4 C12 1_555 1_555
C5 N1 1_555 1_555
C6 N2 1_555 1_555
H2 C6 1_555 1_555
H3 C6 1_555 1_555
C7 C2 1_555 1_555
H4 C7 1_555 1_555
C8 N2 1_555 1_555
C9 C10 1_555 1_555
C10 C3 1_555 1_555
C11 C5 1_555 1_555
C12 N3 1_555 1_555
H5 C12 1_555 1_555
C13 C7 1_555 1_555
H6 C13 1_555 1_555
C14 C8 1_555 1_555
H7 C14 1_555 1_555
H8 C14 1_555 1_555
C15 C8 1_555 1_555
H9 C15 1_555 1_555
H10 C15 1_555 1_555
C16 C8 1_555 1_555
H11 C16 1_555 1_555
H12 C16 1_555 1_555
H13 C16 1_555 1_555
C17 O1 1_555 1_555
H14 C17 1_555 1_555
H15 C17 1_555 1_555
F2 C28 1_555 1_555
O3 C20 1_555 1_555
O4 C26 1_555 1_555
N5 C18 1_555 1_555
N6 C18 1_555 1_555
N7 C19 1_555 1_555
N8 C29 1_555 1_555
C18 C28 1_555 1_555
C19 N6 1_555 1_555
C20 C26 1_555 1_555
C21 H16 1_555 1_555
C22 N5 1_555 1_555
H17 C22 1_555 1_555
H18 C22 1_555 1_555
C23 C21 1_555 1_555
C24 N5 1_555 1_555
C25 C23 1_555 1_555
H19 C25 1_555 1_555
C26 C25 1_555 1_555
C27 C20 1_555 1_555
H20 C27 1_555 1_555
C28 C30 1_555 1_555
C29 C19 1_555 1_555
C30 N7 1_555 1_555
H21 C30 1_555 1_555
C31 O3 1_555 1_555
H22 C31 1_555 1_555
H23 C31 1_555 1_555
C32 C24 1_555 1_555
H24 C32 1_555 1_555
H25 C32 1_555 1_555
C33 C24 1_555 1_555
H26 C33 1_555 1_555
H27 C33 1_555 1_555
C34 C24 1_555 1_555
H28 C34 1_555 1_555
H29 C34 1_555 1_555
H30 C34 1_555 1_555
F3 C47 1_555 1_555
O5 C35 1_555 1_555
O6 C41 1_555 1_555
N9 C38 1_555 1_555
N10 C38 1_555 1_555
N11 C39 1_555 1_555
N12 C43 1_555 1_555
C35 C37 1_555 1_555
C36 C37 1_555 1_555
C37 H31 1_555 1_555
C38 C47 1_555 1_555
C39 N10 1_555 1_555
C40 N9 1_555 1_555
H32 C40 1_555 1_555
H33 C40 1_555 1_555
C41 C35 1_555 1_555
C42 N9 1_555 1_555
C43 C39 1_555 1_555
C44 O5 1_555 1_555
H34 C44 1_555 1_555
H35 C44 1_555 1_555
C45 C36 1_555 1_555
H36 C45 1_555 1_555
C46 C41 1_555 1_555
H37 C46 1_555 1_555
C47 C48 1_555 1_555
C48 N11 1_555 1_555
H38 C48 1_555 1_555
C49 C42 1_555 1_555
H39 C49 1_555 1_555
H40 C49 1_555 1_555
H41 C49 1_555 1_555
C50 C42 1_555 1_555
H42 C50 1_555 1_555
H43 C50 1_555 1_555
C51 C42 1_555 1_555
H44 C51 1_555 1_555
H45 C51 1_555 1_555
O2 C17 1_555 1_555
C2 C6 1_555 1_555
C9 C13 1_555 1_555
C14 C15 1_555 1_555
O4 C31 1_555 1_555
C21 C27 1_555 1_555
C22 C23 1_555 1_555
C32 C33 1_555 1_555
O6 C44 1_555 1_555
C36 C40 1_555 1_555
C45 C46 1_555 1_555
C50 C51 1_555 1_555

#END
