
#######################################################################
#
#                 Cambridge Crystallographic Data Centre
#                                CCDC 
#
#######################################################################
#
# If this CIF has been generated from an entry in the Cambridge 
# Structural Database, then it will include bibliographic, chemical, 
# crystal, experimental, refinement or atomic coordinate data resulting 
# from the CCDC's data processing and validation procedures.
#
#######################################################################

data_NAPGAP
_chemical_formula_moiety         'C19 H12 F2 N4 O2'
_chemical_name_systematic        
4-((1,3-benzodioxol-5-ylmethyl)(4-fluorophenyl)amino)-5-fluoropyrimidine-2-carbonitrile
_symmetry_cell_setting           monoclinic
_symmetry_space_group_name_H-M   'P 21/c'
_symmetry_Int_Tables_number      14
_space_group_name_Hall           '-P 2ybc'
loop_
_symmetry_equiv_pos_site_id
_symmetry_equiv_pos_as_xyz
1 x,y,z
2 -x,1/2+y,1/2-z
3 -x,-y,-z
4 x,1/2-y,1/2+z
_cell_length_a                   10.6081(17)
_cell_length_b                   10.3514(17)
_cell_length_c                   15.974(2)
_cell_angle_alpha                90
_cell_angle_beta                 113.045(8)
_cell_angle_gamma                90
_cell_volume                     1614.1
_exptl_crystal_colour            colorless
_exptl_crystal_description       block
_cell_formula_units_Z            4
loop_
_atom_site_label
_atom_site_type_symbol
_atom_site_fract_x
_atom_site_fract_y
_atom_site_fract_z
F1 F 0.14665(8) 0.49634(9) 0.49182(6)
F2 F -0.00144(10) 0.86138(11) 0.67910(7)
O1 O 0.82649(10) 0.70468(11) 0.81432(7)
O2 O 0.89014(10) 0.70717(11) 0.97026(7)
N1 N 0.34080(11) 0.46120(12) 0.67600(8)
N2 N 0.48174(11) 0.36455(11) 0.61472(8)
N3 N 0.42539(12) 0.34613(12) 0.45403(9)
N4 N 0.74007(13) 0.22208(15) 0.57623(9)
C1 C 0.54668(14) 0.49883(14) 0.82098(10)
C2 C 0.73629(14) 0.63120(14) 0.83740(10)
C3 C 0.36356(13) 0.42575(14) 0.60146(10)
C4 C 0.24984(14) 0.56388(14) 0.67493(10)
C5 C 0.77509(14) 0.63164(15) 0.93069(10)
C6 C 0.27074(14) 0.44371(14) 0.51032(10)
C7 C 0.62219(14) 0.56701(14) 0.77987(10)
H1 H 0.5961 0.5684 0.7171
C8 C 0.50352(14) 0.32971(14) 0.54158(10)
C9 C 0.58566(14) 0.50110(15) 0.91451(10)
H2 H 0.5329 0.4568 0.9398
C10 C 0.30447(14) 0.40398(15) 0.44066(10)
H3 H 0.2419 0.4171 0.3813
C11 C 0.43041(14) 0.41042(14) 0.76571(9)
H4 H 0.4688 0.3289 0.7570
H5 H 0.3750 0.3929 0.8004
C12 C 0.15300(14) 0.54526(16) 0.71250(10)
H6 H 0.1453 0.4652 0.7366
C13 C 0.70204(14) 0.56805(15) 0.97215(10)
H7 H 0.7282 0.5692 1.0349
C14 C 0.63551(15) 0.26789(15) 0.56125(10)
C15 C 0.26268(14) 0.68348(15) 0.63965(10)
H8 H 0.3292 0.6960 0.6160
C16 C 0.06832(15) 0.64567(17) 0.71403(11)
H9 H 0.0036 0.6347 0.7393
C17 C 0.17665(15) 0.78403(16) 0.63958(11)
H10 H 0.1826 0.8639 0.6148
C18 C 0.94017(15) 0.72549(17) 0.89996(11)
H11 H 1.0132 0.6646 0.9071
H12 H 0.9758 0.8124 0.9026
C19 C 0.08201(15) 0.76238(16) 0.67728(11)
loop_
_geom_bond_atom_site_label_1
_geom_bond_atom_site_label_2
_geom_bond_site_symmetry_1
_geom_bond_site_symmetry_2
F1 C6 1_555 1_555
F2 C19 1_555 1_555
O1 C2 1_555 1_555
O2 C5 1_555 1_555
N1 C3 1_555 1_555
N2 C3 1_555 1_555
N3 C8 1_555 1_555
N4 C14 1_555 1_555
C1 C7 1_555 1_555
C2 C5 1_555 1_555
C3 C6 1_555 1_555
C4 N1 1_555 1_555
C5 C13 1_555 1_555
C6 C10 1_555 1_555
C7 C2 1_555 1_555
H1 C7 1_555 1_555
C8 N2 1_555 1_555
C9 C1 1_555 1_555
H2 C9 1_555 1_555
C10 N3 1_555 1_555
H3 C10 1_555 1_555
C11 N1 1_555 1_555
H4 C11 1_555 1_555
H5 C11 1_555 1_555
C12 C4 1_555 1_555
H6 C12 1_555 1_555
C13 C9 1_555 1_555
H7 C13 1_555 1_555
C14 C8 1_555 1_555
C15 C4 1_555 1_555
H8 C15 1_555 1_555
C16 C12 1_555 1_555
H9 C16 1_555 1_555
C17 C15 1_555 1_555
H10 C17 1_555 1_555
C18 O1 1_555 1_555
H11 C18 1_555 1_555
H12 C18 1_555 1_555
C19 C16 1_555 1_555
O2 C18 1_555 1_555
C1 C11 1_555 1_555
C17 C19 1_555 1_555

#END
