
#######################################################################
#
#                 Cambridge Crystallographic Data Centre
#                                CCDC 
#
#######################################################################
#
# If this CIF has been generated from an entry in the Cambridge 
# Structural Database, then it will include bibliographic, chemical, 
# crystal, experimental, refinement or atomic coordinate data resulting 
# from the CCDC's data processing and validation procedures.
#
#######################################################################

data_NAPGIX
_chemical_formula_moiety         'C23 H19 F1 N4 O3'
_chemical_name_systematic        
4-((1,3-benzodioxol-5-ylmethyl)(4-(cyclopropylmethoxy)phenyl)amino)-5-fluoropyrimidine-2-carbonitrile
_symmetry_cell_setting           triclinic
_symmetry_space_group_name_H-M   'P -1'
_symmetry_Int_Tables_number      2
_space_group_name_Hall           '-P 1'
loop_
_symmetry_equiv_pos_site_id
_symmetry_equiv_pos_as_xyz
1 x,y,z
2 -x,-y,-z
_cell_length_a                   9.0781(10)
_cell_length_b                   9.8810(9)
_cell_length_c                   11.3127(11)
_cell_angle_alpha                80.099(3)
_cell_angle_beta                 85.195(4)
_cell_angle_gamma                83.123(4)
_cell_volume                     990.379
_exptl_crystal_colour            colorless
_exptl_crystal_description       block
_cell_formula_units_Z            2
loop_
_atom_site_label
_atom_site_type_symbol
_atom_site_fract_x
_atom_site_fract_y
_atom_site_fract_z
F1 F 0.37272(10) 0.58530(8) 0.72171(7)
O1 O 0.23428(11) 1.10255(10) 0.79841(9)
O2 O 0.34122(12) 0.62059(10) 0.02944(9)
O3 O 0.44646(12) 0.82788(10) -0.01578(9)
N1 N 0.17927(13) 0.69190(11) 0.52625(10)
N2 N 0.23929(12) 0.48131(11) 0.46361(10)
N3 N 0.40843(13) 0.29925(11) 0.56156(10)
N4 N 0.29770(15) 0.21888(13) 0.30415(12)
C1 C 0.07267(18) 1.32592(15) 1.01775(14)
H1 H -0.0335 1.3127 1.0159
H2 H 0.0991 1.3557 1.0917
C2 C 0.18642(16) 1.23096(14) 0.95805(13)
H3 H 0.2833 1.2061 0.9967
C3 C 0.13395(16) 1.12152(14) 0.90109(13)
H4 H 0.1338 1.0341 0.9589
H5 H 0.0316 1.1501 0.8757
C4 C 0.21373(15) 0.99957(13) 0.73694(12)
C5 C 0.32443(16) 0.97398(13) 0.64760(13)
H6 H 0.4074 1.0260 0.6342
C6 C 0.31373(16) 0.87344(13) 0.57878(13)
H7 H 0.3887 0.8571 0.5175
C7 C 0.19295(15) 0.79597(13) 0.59922(12)
C8 C 0.09267(16) 0.73348(14) 0.41766(12)
H8 H 0.0245 0.8175 0.4272
H9 H 0.0312 0.6590 0.4116
C9 C 0.18901(15) 0.76231(13) 0.30197(12)
C10 C 0.21209(15) 0.66579(13) 0.22222(12)
H10 H 0.1690 0.5810 0.2394
C11 C 0.29931(15) 0.69930(13) 0.11880(12)
C12 C 0.41824(18) 0.70859(14) -0.06342(13)
H11 H 0.3569 0.7370 -0.1336
H12 H 0.5132 0.6588 -0.0898
C13 C 0.25430(16) 0.88569(13) 0.27388(13)
H13 H 0.2369 0.9503 0.3281
C14 C 0.34459(16) 0.91762(13) 0.16858(13)
H14 H 0.3903 1.0010 0.1509
C15 C 0.36363(15) 0.82222(14) 0.09234(12)
C16 C 0.25505(15) 0.56470(13) 0.54345(12)
C17 C 0.31801(15) 0.35756(13) 0.47736(12)
C18 C 0.42098(16) 0.37983(13) 0.64439(12)
H15 H 0.4814 0.3445 0.7097
C19 C 0.34985(15) 0.51006(13) 0.63740(12)
C20 C 0.30515(16) 0.27790(13) 0.38176(13)
C21 C 0.15361(17) 1.37981(14) 0.90158(14)
H16 H 0.2298 1.4429 0.9040
H17 H 0.0973 1.3999 0.8282
C22 C 0.09282(15) 0.92231(13) 0.75742(13)
H18 H 0.0174 0.9388 0.8183
C23 C 0.08334(15) 0.82062(14) 0.68787(13)
H19 H 0.0010 0.7678 0.7014
loop_
_geom_bond_atom_site_label_1
_geom_bond_atom_site_label_2
_geom_bond_site_symmetry_1
_geom_bond_site_symmetry_2
F1 C19 1_555 1_555
O1 C3 1_555 1_555
O2 C11 1_555 1_555
O3 C12 1_555 1_555
N1 C7 1_555 1_555
N2 C16 1_555 1_555
N3 C17 1_555 1_555
N4 C20 1_555 1_555
C1 H1 1_555 1_555
H2 C1 1_555 1_555
C2 C1 1_555 1_555
H3 C2 1_555 1_555
C3 C2 1_555 1_555
H4 C3 1_555 1_555
H5 C3 1_555 1_555
C4 O1 1_555 1_555
C5 C4 1_555 1_555
H6 C5 1_555 1_555
C6 C5 1_555 1_555
H7 C6 1_555 1_555
C7 C6 1_555 1_555
C8 N1 1_555 1_555
H8 C8 1_555 1_555
H9 C8 1_555 1_555
C9 C8 1_555 1_555
C10 C9 1_555 1_555
H10 C10 1_555 1_555
C11 C10 1_555 1_555
C12 O2 1_555 1_555
H11 C12 1_555 1_555
H12 C12 1_555 1_555
C13 C9 1_555 1_555
H13 C13 1_555 1_555
C14 C13 1_555 1_555
H14 C14 1_555 1_555
C15 O3 1_555 1_555
C16 N1 1_555 1_555
C17 N2 1_555 1_555
C18 N3 1_555 1_555
H15 C18 1_555 1_555
C19 C16 1_555 1_555
C20 C17 1_555 1_555
C21 C1 1_555 1_555
H16 C21 1_555 1_555
H17 C21 1_555 1_555
C22 C4 1_555 1_555
H18 C22 1_555 1_555
C23 C7 1_555 1_555
H19 C23 1_555 1_555
C2 C21 1_555 1_555
C11 C15 1_555 1_555
C14 C15 1_555 1_555
C18 C19 1_555 1_555
C22 C23 1_555 1_555

#END
