
#######################################################################
#
#                 Cambridge Crystallographic Data Centre
#                                CCDC 
#
#######################################################################
#
# If this CIF has been generated from an entry in the Cambridge 
# Structural Database, then it will include bibliographic, chemical, 
# crystal, experimental, refinement or atomic coordinate data resulting 
# from the CCDC's data processing and validation procedures.
#
#######################################################################

data_NAPGET
_chemical_formula_moiety         'C20 H18 F4 N4 O2'
_chemical_name_systematic        
4-((1,3-benzodioxol-5-ylmethyl)(4-(trifluoromethyl)cyclohexyl)amino)-5-fluoropyrimidine-2-carbonitrile
_symmetry_cell_setting           monoclinic
_symmetry_space_group_name_H-M   'P 21/c'
_symmetry_Int_Tables_number      14
_space_group_name_Hall           '-P 2ybc'
loop_
_symmetry_equiv_pos_site_id
_symmetry_equiv_pos_as_xyz
1 x,y,z
2 -x,1/2+y,1/2-z
3 -x,-y,-z
4 x,1/2-y,1/2+z
_cell_length_a                   11.1762(7)
_cell_length_b                   10.7582(8)
_cell_length_c                   17.0443(10)
_cell_angle_alpha                90
_cell_angle_beta                 115.910(4)
_cell_angle_gamma                90
_cell_volume                     1843.34
_exptl_crystal_colour            colorless
_exptl_crystal_description       block
_cell_formula_units_Z            4
loop_
_atom_site_label
_atom_site_type_symbol
_atom_site_fract_x
_atom_site_fract_y
_atom_site_fract_z
F1 F 0.85096(7) 0.49332(8) 0.52242(5)
F2 F 1.08227(8) 0.81752(8) 0.35240(6)
F3 F 0.96216(9) 0.86720(9) 0.21874(6)
F4 F 0.94256(10) 0.96753(8) 0.32103(8)
O1 O 0.19151(9) 0.70760(9) 0.19834(6)
O2 O 0.13241(9) 0.71399(10) 0.05075(6)
N1 N 0.52523(10) 0.35997(10) 0.40113(7)
N2 N 0.65435(10) 0.44975(10) 0.34124(7)
N3 N 0.58799(11) 0.34800(12) 0.55482(7)
N4 N 0.28734(13) 0.21328(13) 0.43860(8)
C1 C 0.44914(12) 0.49112(12) 0.20043(8)
C2 C 0.27424(12) 0.63083(12) 0.17944(9)
C3 C 0.63865(12) 0.41924(12) 0.41307(8)
C4 C 0.41291(13) 0.49575(13) 0.11164(9)
H1 H 0.4613 0.4495 0.0893
C5 C 0.30574(13) 0.56770(13) 0.05434(9)
H2 H 0.2819 0.5705 -0.0052
C6 C 0.55741(12) 0.40167(12) 0.25640(8)
H3 H 0.5155 0.3285 0.2667
H4 H 0.6054 0.3753 0.2236
C7 C 0.23823(12) 0.63361(13) 0.09095(9)
C8 C 0.37927(12) 0.56162(12) 0.23647(8)
H5 H 0.4032 0.5613 0.2960
C9 C 0.50921(13) 0.32853(13) 0.47112(9)
C10 C 0.72342(12) 0.67118(12) 0.36460(9)
H6 H 0.6395 0.6980 0.3181
H7 H 0.7136 0.6694 0.4184
C11 C 0.73080(12) 0.44073(13) 0.50117(9)
C12 C 0.38467(14) 0.26357(13) 0.45250(9)
C13 C 0.88443(13) 0.63321(12) 0.27016(9)
H8 H 0.8944 0.6351 0.2164
H9 H 0.9679 0.6054 0.3166
C14 C 0.77400(12) 0.54198(12) 0.26062(9)
H10 H 0.6913 0.5667 0.2120
H11 H 0.7968 0.4593 0.2489
C15 C 0.70212(13) 0.40574(14) 0.56755(9)
H12 H 0.7640 0.4223 0.6245
C16 C 0.95928(13) 0.85320(13) 0.29646(10)
C17 C 0.75662(12) 0.54087(12) 0.34445(8)
H13 H 0.8418 0.5163 0.3921
C18 C 0.08411(13) 0.73535(14) 0.11479(9)
H14 H 0.0085 0.6821 0.1039
H15 H 0.0565 0.8212 0.1129
C19 C 0.83229(13) 0.76321(13) 0.37362(9)
H16 H 0.9147 0.7402 0.4230
H17 H 0.8077 0.8458 0.3842
C20 C 0.85264(12) 0.76396(12) 0.29087(9)
H18 H 0.7690 0.7905 0.2426
loop_
_geom_bond_atom_site_label_1
_geom_bond_atom_site_label_2
_geom_bond_site_symmetry_1
_geom_bond_site_symmetry_2
F1 C11 1_555 1_555
F2 C16 1_555 1_555
F3 C16 1_555 1_555
F4 C16 1_555 1_555
O1 C2 1_555 1_555
O2 C7 1_555 1_555
N1 C3 1_555 1_555
N2 C3 1_555 1_555
N3 C9 1_555 1_555
N4 C12 1_555 1_555
C1 C4 1_555 1_555
C2 C7 1_555 1_555
C3 C11 1_555 1_555
C4 H1 1_555 1_555
C5 C4 1_555 1_555
H2 C5 1_555 1_555
C6 N2 1_555 1_555
H3 C6 1_555 1_555
H4 C6 1_555 1_555
C7 C5 1_555 1_555
C8 C1 1_555 1_555
H5 C8 1_555 1_555
C9 N1 1_555 1_555
C10 H6 1_555 1_555
H7 C10 1_555 1_555
C11 C15 1_555 1_555
C12 C9 1_555 1_555
C13 H8 1_555 1_555
H9 C13 1_555 1_555
C14 C13 1_555 1_555
H10 C14 1_555 1_555
H11 C14 1_555 1_555
C15 N3 1_555 1_555
H12 C15 1_555 1_555
C16 C20 1_555 1_555
C17 N2 1_555 1_555
H13 C17 1_555 1_555
C18 O1 1_555 1_555
H14 C18 1_555 1_555
H15 C18 1_555 1_555
C19 C10 1_555 1_555
H16 C19 1_555 1_555
H17 C19 1_555 1_555
C20 C13 1_555 1_555
H18 C20 1_555 1_555
O2 C18 1_555 1_555
C1 C6 1_555 1_555
C2 C8 1_555 1_555
C10 C17 1_555 1_555
C14 C17 1_555 1_555
C19 C20 1_555 1_555

#END
