
#######################################################################
#
#                 Cambridge Crystallographic Data Centre
#                                CCDC 
#
#######################################################################
#
# If this CIF has been generated from an entry in the Cambridge 
# Structural Database, then it will include bibliographic, chemical, 
# crystal, experimental, refinement or atomic coordinate data resulting 
# from the CCDC's data processing and validation procedures.
#
#######################################################################

data_NAPHET
_chemical_formula_moiety         'C1 H9 N6 1+,C2 H1 N8 O2 1-'
_chemical_name_systematic        
'(Dihydrazinomethylene)hydrazinium (3-azido-1H-1,2,4-triazol-5-yl)(nitro)azanide'
_symmetry_cell_setting           triclinic
_symmetry_space_group_name_H-M   'P -1'
_symmetry_Int_Tables_number      2
_space_group_name_Hall           '-P 1'
loop_
_symmetry_equiv_pos_site_id
_symmetry_equiv_pos_as_xyz
1 x,y,z
2 -x,-y,-z
_cell_length_a                   7.6232(5)
_cell_length_b                   7.7905(5)
_cell_length_c                   10.3978(7)
_cell_angle_alpha                95.687(2)
_cell_angle_beta                 90.746(2)
_cell_angle_gamma                118.149(2)
_cell_volume                     540.535
_exptl_crystal_colour            yellow
_exptl_crystal_description       plate
_cell_formula_units_Z            2
loop_
_atom_site_label
_atom_site_type_symbol
_atom_site_fract_x
_atom_site_fract_y
_atom_site_fract_z
N1 N 0.15697(16) 0.17613(16) 0.42870(10)
H1 H 0.1188 0.0519 0.4029
N2 N 0.09390(17) 0.24365(16) 0.53591(11)
C1 C 0.19125(19) 0.43483(19) 0.53060(12)
N3 N 0.31052(15) 0.49654(16) 0.43193(10)
C2 C 0.28526(18) 0.32721(18) 0.36886(12)
N4 N 0.16334(16) 0.55995(16) 0.62575(11)
N5 N 0.27502(16) 0.73823(16) 0.61628(10)
N6 N 0.36616(19) 0.90120(18) 0.61848(12)
N7 N 0.39289(16) 0.33229(15) 0.26182(10)
N8 N 0.34099(16) 0.16422(15) 0.19279(10)
O1 O 0.43814(14) 0.16359(13) 0.09541(9)
O2 O 0.19727(14) 0.00346(13) 0.21861(9)
N9 N 0.27072(16) 0.45115(16) 0.96318(11)
H2 H 0.3687 0.5724 0.9702
N10 N 0.25367(18) 0.31185(17) 0.85856(11)
H3 H 0.375(3) 0.325(3) 0.8516(18)
H4 H 0.226(3) 0.351(3) 0.7850(19)
N11 N 0.14340(16) 0.51763(16) 1.15111(11)
H5 H 0.0379 0.4922 1.1953
N12 N 0.32636(17) 0.69179(16) 1.18590(11)
H6 H 0.366(3) 0.688(3) 1.2659(19)
H7 H 0.303(3) 0.791(3) 1.1890(17)
C3 C 0.13488(19) 0.39361(18) 1.05025(12)
N13 N -0.01377(16) 0.20988(16) 1.03522(10)
H8 H -0.0262 0.1286 0.9663
N14 N -0.15127(17) 0.14857(17) 1.13289(11)
H9 H -0.272(3) 0.120(3) 1.0984(17)
H10 H -0.165(3) 0.033(3) 1.1497(18)
loop_
_geom_bond_atom_site_label_1
_geom_bond_atom_site_label_2
_geom_bond_site_symmetry_1
_geom_bond_site_symmetry_2
N1 H1 1_555 1_555
N2 N1 1_555 1_555
C1 N2 1_555 1_555
N3 C1 1_555 1_555
C2 N1 1_555 1_555
N4 C1 1_555 1_555
N5 N4 1_555 1_555
N6 N5 1_555 1_555
N7 C2 1_555 1_555
N8 N7 1_555 1_555
O1 N8 1_555 1_555
O2 N8 1_555 1_555
N9 H2 1_555 1_555
N10 N9 1_555 1_555
H3 N10 1_555 1_555
H4 N10 1_555 1_555
N11 H5 1_555 1_555
N12 N11 1_555 1_555
H6 N12 1_555 1_555
H7 N12 1_555 1_555
C3 N9 1_555 1_555
N13 C3 1_555 1_555
H8 N13 1_555 1_555
N14 N13 1_555 1_555
H9 N14 1_555 1_555
H10 N14 1_555 1_555
N3 C2 1_555 1_555
N11 C3 1_555 1_555

#END
