
#######################################################################
#
#                 Cambridge Crystallographic Data Centre
#                                CCDC 
#
#######################################################################
#
# If this CIF has been generated from an entry in the Cambridge 
# Structural Database, then it will include bibliographic, chemical, 
# crystal, experimental, refinement or atomic coordinate data resulting 
# from the CCDC's data processing and validation procedures.
#
#######################################################################

data_NAPJOE
_chemical_formula_moiety         'C44 H56 O4'
_chemical_name_systematic        25,27-Dioctyloxy-26,28-dihydroxycalix(4)arene
_symmetry_cell_setting           monoclinic
_symmetry_space_group_name_H-M   'P 21/n'
_symmetry_Int_Tables_number      14
_space_group_name_Hall           '-P 2yn'
loop_
_symmetry_equiv_pos_site_id
_symmetry_equiv_pos_as_xyz
1 x,y,z
2 1/2-x,1/2+y,1/2-z
3 -x,-y,-z
4 1/2+x,1/2-y,1/2+z
_cell_length_a                   13.995(3)
_cell_length_b                   16.625(3)
_cell_length_c                   16.493(3)
_cell_angle_alpha                90
_cell_angle_beta                 90.57(1)
_cell_angle_gamma                90
_cell_volume                     3837.18
_exptl_crystal_description       needles
_chemical_melting_point          '388-390 K'
_cell_formula_units_Z            4
_exptl_crystal_recrystallization_method n-hexane
loop_
_atom_site_label
_atom_site_type_symbol
_atom_site_fract_x
_atom_site_fract_y
_atom_site_fract_z
C1 C 0.19014(19) -0.00759(17) 0.69423(16)
C2 C 0.1627(2) 0.05680(17) 0.65085(16)
C3 C 0.1294(2) 0.04323(17) 0.57215(17)
H1 H 0.1101 0.0860 0.5396
C4 C 0.1256(2) -0.03361(18) 0.54357(17)
H2 H 0.1014 -0.0425 0.4916
C5 C 0.1559(2) -0.09761(18) 0.58802(17)
H3 H 0.1526 -0.1492 0.5664
C6 C 0.1920(2) -0.08548(17) 0.66653(16)
C7 C 0.4088(2) -0.13464(17) 0.71085(16)
C8 C 0.3280(2) -0.17898(16) 0.69052(16)
C9 C 0.3447(2) -0.24548(16) 0.64148(16)
H4 H 0.2932 -0.2756 0.6224
C10 C 0.4349(2) -0.26730(17) 0.62082(17)
H5 H 0.4441 -0.3152 0.5929
C11 C 0.5109(2) -0.22153(17) 0.63969(16)
H6 H 0.5709 -0.2359 0.6207
C12 C 0.5014(2) -0.15348(17) 0.68688(16)
C13 C 0.56831(19) 0.05022(17) 0.67499(17)
C14 C 0.5919(2) -0.02533(17) 0.65081(17)
C15 C 0.62006(19) -0.03766(18) 0.56964(17)
H7 H 0.6383 -0.0886 0.5524
C16 C 0.6203(2) 0.02561(17) 0.51654(17)
H8 H 0.6402 0.0181 0.4634
C17 C 0.59108(19) 0.10014(17) 0.54207(17)
H9 H 0.5891 0.1422 0.5049
C18 C 0.5643(2) 0.11496(16) 0.62138(17)
C19 C 0.3485(2) 0.17534(16) 0.66040(16)
C20 C 0.4248(2) 0.21220(16) 0.62302(17)
C21 C 0.4024(2) 0.26504(16) 0.56049(17)
H10 H 0.4516 0.2922 0.5347
C22 C 0.3098(2) 0.27838(17) 0.53558(17)
H11 H 0.2966 0.3135 0.4930
C23 C 0.2369(2) 0.23914(16) 0.57442(16)
H12 H 0.1743 0.2480 0.5571
C24 C 0.2534(2) 0.18675(16) 0.63847(16)
C25 C 0.1757(2) 0.14276(16) 0.67808(17)
H13 H 0.1164 0.1715 0.6683
H14 H 0.1876 0.1430 0.7361
C26 C 0.2316(2) -0.15491(16) 0.71394(17)
H15 H 0.2324 -0.1408 0.7710
H16 H 0.1891 -0.2006 0.7072
C27 C 0.5848(2) -0.09962(16) 0.70530(16)
H17 H 0.6431 -0.1307 0.7002
H18 H 0.5806 -0.0820 0.7612
C28 C 0.5253(2) 0.19600(16) 0.64712(17)
H19 H 0.5304 0.2000 0.7057
H20 H 0.5653 0.2377 0.6243
C29 C 0.6153(2) 0.08426(17) 0.80773(15)
H21 H 0.6349 0.1392 0.7973
H22 H 0.6696 0.0492 0.7987
C30 C 0.5818(2) 0.07619(17) 0.89435(16)
H23 H 0.5551 0.0229 0.9020
H24 H 0.6362 0.0817 0.9308
C31 C 0.5082(2) 0.13788(18) 0.91548(17)
H25 H 0.4506 0.1287 0.8836
H26 H 0.5321 0.1911 0.9026
C32 C 0.4850(2) 0.13335(17) 1.00508(16)
H27 H 0.4496 0.0846 1.0167
H28 H 0.5433 0.1333 1.0374
C33 C 0.4261(2) 0.20575(17) 1.02419(16)
H29 H 0.4566 0.2515 0.9987
H30 H 0.3647 0.1986 0.9973
C34 C 0.4066(2) 0.22894(18) 1.10980(17)
H31 H 0.4672 0.2386 1.1371
H32 H 0.3765 0.1837 1.1365
C35 C 0.3447(2) 0.30138(17) 1.12104(16)
H33 H 0.3651 0.3426 1.0833
H34 H 0.2796 0.2870 1.1067
C36 C 0.3450(2) 0.33641(17) 1.20386(16)
H35 H 0.3138 0.3002 1.2403
H36 H 0.3117 0.3869 1.2030
H37 H 0.4098 0.3448 1.2217
C37 C 0.1545(2) 0.00086(17) 0.83587(15)
H38 H 0.1261 -0.0524 0.8375
H39 H 0.1046 0.0399 0.8247
C38 C 0.20505(19) 0.01982(17) 0.91539(15)
H40 H 0.2344 0.0726 0.9121
H41 H 0.2553 -0.0194 0.9250
C39 C 0.1353(2) 0.01830(17) 0.98570(16)
H42 H 0.0804 0.0514 0.9718
H43 H 0.1128 -0.0364 0.9931
C40 C 0.1779(2) 0.04795(17) 1.06483(15)
H44 H 0.2029 0.1018 1.0569
H45 H 0.2309 0.0134 1.0801
C41 C 0.1063(2) 0.04966(17) 1.13384(16)
H46 H 0.0509 0.0810 1.1173
H47 H 0.0850 -0.0047 1.1450
C42 C 0.1491(2) 0.08575(17) 1.21068(16)
H48 H 0.2012 0.0520 1.2296
H49 H 0.1750 0.1384 1.1985
C43 C 0.0761(2) 0.09364(18) 1.27714(16)
H50 H 0.0495 0.0411 1.2888
H51 H 0.0244 0.1280 1.2585
C44 C 0.1190(2) 0.12858(18) 1.35437(16)
H52 H 0.1672 0.0928 1.3752
H53 H 0.0698 0.1351 1.3940
H54 H 0.1472 0.1799 1.3428
O1 O 0.53750(13) 0.06232(11) 0.75414(11)
O2 O 0.36213(13) 0.12592(11) 0.72637(11)
H55 H 0.4150 0.1344 0.7464
O3 O 0.22848(13) 0.00477(11) 0.77438(10)
O4 O 0.40312(13) -0.06796(11) 0.76082(11)
H56 H 0.3469 -0.0578 0.7697
loop_
_geom_bond_atom_site_label_1
_geom_bond_atom_site_label_2
_geom_bond_site_symmetry_1
_geom_bond_site_symmetry_2
C1 C2 1_555 1_555
C2 C3 1_555 1_555
C3 H1 1_555 1_555
C4 C3 1_555 1_555
H2 C4 1_555 1_555
C5 C4 1_555 1_555
H3 C5 1_555 1_555
C6 C1 1_555 1_555
C7 C8 1_555 1_555
C8 C9 1_555 1_555
C9 H4 1_555 1_555
C10 C9 1_555 1_555
H5 C10 1_555 1_555
C11 C10 1_555 1_555
H6 C11 1_555 1_555
C12 C7 1_555 1_555
C13 C14 1_555 1_555
C14 C15 1_555 1_555
C15 H7 1_555 1_555
C16 C15 1_555 1_555
H8 C16 1_555 1_555
C17 C16 1_555 1_555
H9 C17 1_555 1_555
C18 C13 1_555 1_555
C19 C20 1_555 1_555
C20 C21 1_555 1_555
C21 H10 1_555 1_555
C22 C21 1_555 1_555
H11 C22 1_555 1_555
C23 C22 1_555 1_555
H12 C23 1_555 1_555
C24 C19 1_555 1_555
C25 C2 1_555 1_555
H13 C25 1_555 1_555
H14 C25 1_555 1_555
C26 C6 1_555 1_555
H15 C26 1_555 1_555
H16 C26 1_555 1_555
C27 C12 1_555 1_555
H17 C27 1_555 1_555
H18 C27 1_555 1_555
C28 C18 1_555 1_555
H19 C28 1_555 1_555
H20 C28 1_555 1_555
C29 H21 1_555 1_555
H22 C29 1_555 1_555
C30 C29 1_555 1_555
H23 C30 1_555 1_555
H24 C30 1_555 1_555
C31 C30 1_555 1_555
H25 C31 1_555 1_555
H26 C31 1_555 1_555
C32 C31 1_555 1_555
H27 C32 1_555 1_555
H28 C32 1_555 1_555
C33 C32 1_555 1_555
H29 C33 1_555 1_555
H30 C33 1_555 1_555
C34 C33 1_555 1_555
H31 C34 1_555 1_555
H32 C34 1_555 1_555
C35 C34 1_555 1_555
H33 C35 1_555 1_555
H34 C35 1_555 1_555
C36 C35 1_555 1_555
H35 C36 1_555 1_555
H36 C36 1_555 1_555
H37 C36 1_555 1_555
C37 H38 1_555 1_555
H39 C37 1_555 1_555
C38 C37 1_555 1_555
H40 C38 1_555 1_555
H41 C38 1_555 1_555
C39 C38 1_555 1_555
H42 C39 1_555 1_555
H43 C39 1_555 1_555
C40 C39 1_555 1_555
H44 C40 1_555 1_555
H45 C40 1_555 1_555
C41 C40 1_555 1_555
H46 C41 1_555 1_555
H47 C41 1_555 1_555
C42 C41 1_555 1_555
H48 C42 1_555 1_555
H49 C42 1_555 1_555
C43 C42 1_555 1_555
H50 C43 1_555 1_555
H51 C43 1_555 1_555
C44 C43 1_555 1_555
H52 C44 1_555 1_555
H53 C44 1_555 1_555
H54 C44 1_555 1_555
O1 C13 1_555 1_555
O2 C19 1_555 1_555
H55 O2 1_555 1_555
O3 C1 1_555 1_555
O4 C7 1_555 1_555
H56 O4 1_555 1_555
C5 C6 1_555 1_555
C8 C26 1_555 1_555
C11 C12 1_555 1_555
C14 C27 1_555 1_555
C17 C18 1_555 1_555
C20 C28 1_555 1_555
C23 C24 1_555 1_555
C24 C25 1_555 1_555
C29 O1 1_555 1_555
C37 O3 1_555 1_555

#END
