
#######################################################################
#
#                 Cambridge Crystallographic Data Centre
#                                CCDC 
#
#######################################################################
#
# If this CIF has been generated from an entry in the Cambridge 
# Structural Database, then it will include bibliographic, chemical, 
# crystal, experimental, refinement or atomic coordinate data resulting 
# from the CCDC's data processing and validation procedures.
#
#######################################################################

data_NAPJIY
_chemical_formula_moiety         'C16 H20 O4'
_chemical_name_systematic        
Spiro(5,7-dimethoxy-1(1H)-oxo-2-benzopyran-3(4H),1'-cyclohexane)
_symmetry_cell_setting           monoclinic
_symmetry_space_group_name_H-M   'P 21/c'
_symmetry_Int_Tables_number      14
_space_group_name_Hall           '-P 2ybc'
loop_
_symmetry_equiv_pos_site_id
_symmetry_equiv_pos_as_xyz
1 x,y,z
2 -x,1/2+y,1/2-z
3 -x,-y,-z
4 x,1/2-y,1/2+z
_cell_length_a                   11.914(3)
_cell_length_b                   9.861(3)
_cell_length_c                   12.508(6)
_cell_angle_alpha                90
_cell_angle_beta                 91.34(3)
_cell_angle_gamma                90
_cell_volume                     1469.09
_exptl_crystal_colour            colorless
_exptl_crystal_description       prismatic
_chemical_melting_point          120deg.C
_cell_formula_units_Z            4
_exptl_crystal_recrystallization_method ether/hexane
loop_
_atom_site_label
_atom_site_type_symbol
_atom_site_fract_x
_atom_site_fract_y
_atom_site_fract_z
C1 C 0.78889(14) 0.20577(16) 0.00161(13)
O1 O 0.71810(9) 0.18308(11) 0.08207(9)
C2 C 0.65153(13) 0.29532(15) 0.12600(12)
C3 C 0.72821(16) 0.41643(18) 0.14504(14)
C4 C 0.79198(12) 0.45047(16) 0.04641(12)
C5 C 0.82589(14) 0.58261(16) 0.02119(13)
C6 C 0.88563(15) 0.60741(18) -0.06972(14)
C7 C 0.91459(13) 0.50139(18) -0.13742(13)
C8 C 0.88226(13) 0.37043(17) -0.11505(13)
C9 C 0.82062(12) 0.34720(15) -0.02295(13)
C10 C 0.8252(2) 0.8174(2) 0.0703(2)
C11 C 1.0092(2) 0.4330(3) -0.29446(17)
C12 C 0.60667(16) 0.2395(2) 0.22994(14)
C13 C 0.52583(19) 0.1215(2) 0.21327(18)
C14 C 0.43078(19) 0.1558(3) 0.1358(2)
C15 C 0.47618(19) 0.2056(3) 0.03031(17)
C16 C 0.55551(14) 0.32578(19) 0.04712(15)
O2 O 0.82541(13) 0.10884(13) -0.04480(13)
O3 O 0.79575(11) 0.67949(11) 0.09322(10)
O4 O 0.97694(11) 0.53838(14) -0.22346(9)
H1 H 0.7817(16) 0.3997(19) 0.2045(15)
H2 H 0.6832(15) 0.490(2) 0.1667(14)
H3 H 0.9100(15) 0.699(2) -0.0881(15)
H4 H 0.9009(14) 0.2969(19) -0.1603(14)
H5 H 0.907(2) 0.829(2) 0.0735(18)
H6 H 0.787(2) 0.846(2) -0.001(2)
H7 H 0.793(2) 0.865(3) 0.135(2)
H8 H 1.053(2) 0.479(2) -0.3506(19)
H9 H 0.939(2) 0.393(2) -0.3285(18)
H10 H 1.0585(19) 0.369(3) -0.2560(18)
H11 H 0.5687(16) 0.314(2) 0.2654(14)
H12 H 0.6680(17) 0.215(2) 0.2762(15)
H13 H 0.4988(18) 0.095(2) 0.2816(17)
H14 H 0.568(2) 0.043(3) 0.1829(18)
H15 H 0.3873(17) 0.233(2) 0.1676(16)
H16 H 0.380(2) 0.076(3) 0.1203(19)
H17 H 0.520(2) 0.134(3) -0.004(2)
H18 H 0.415(2) 0.234(2) -0.0216(18)
H19 H 0.5872(15) 0.3534(18) -0.0220(15)
H20 H 0.5132(16) 0.4037(19) 0.0791(14)
loop_
_geom_bond_atom_site_label_1
_geom_bond_atom_site_label_2
_geom_bond_site_symmetry_1
_geom_bond_site_symmetry_2
C1 O1 1_555 1_555
O1 C2 1_555 1_555
C2 C3 1_555 1_555
C3 C4 1_555 1_555
C4 C5 1_555 1_555
C5 C6 1_555 1_555
C6 C7 1_555 1_555
C7 C8 1_555 1_555
C8 C9 1_555 1_555
C9 C1 1_555 1_555
C10 O3 1_555 1_555
C11 O4 1_555 1_555
C12 C2 1_555 1_555
C13 C12 1_555 1_555
C14 C13 1_555 1_555
C15 C14 1_555 1_555
C16 C2 1_555 1_555
O2 C1 1_555 1_555
O3 C5 1_555 1_555
O4 C7 1_555 1_555
H1 C3 1_555 1_555
H2 C3 1_555 1_555
H3 C6 1_555 1_555
H4 C8 1_555 1_555
H5 C10 1_555 1_555
H6 C10 1_555 1_555
H7 C10 1_555 1_555
H8 C11 1_555 1_555
H9 C11 1_555 1_555
H10 C11 1_555 1_555
H11 C12 1_555 1_555
H12 C12 1_555 1_555
H13 C13 1_555 1_555
H14 C13 1_555 1_555
H15 C14 1_555 1_555
H16 C14 1_555 1_555
H17 C15 1_555 1_555
H18 C15 1_555 1_555
H19 C16 1_555 1_555
H20 C16 1_555 1_555
C4 C9 1_555 1_555
C15 C16 1_555 1_555

#END
