
#######################################################################
#
#                 Cambridge Crystallographic Data Centre
#                                CCDC 
#
#######################################################################
#
# If this CIF has been generated from an entry in the Cambridge 
# Structural Database, then it will include bibliographic, chemical, 
# crystal, experimental, refinement or atomic coordinate data resulting 
# from the CCDC's data processing and validation procedures.
#
#######################################################################

data_NAPLUO
_chemical_formula_moiety         'C36 H23 N1'
_chemical_name_systematic        9-(3-(triphenylen-2-yl)phenyl)-9H-carbazole
_symmetry_cell_setting           orthorhombic
_symmetry_space_group_name_H-M   'P b c a'
_symmetry_Int_Tables_number      61
_space_group_name_Hall           '-P 2ac 2ab'
loop_
_symmetry_equiv_pos_site_id
_symmetry_equiv_pos_as_xyz
1 x,y,z
2 1/2-x,-y,1/2+z
3 1/2+x,1/2-y,-z
4 -x,1/2+y,1/2-z
5 -x,-y,-z
6 1/2+x,y,1/2-z
7 1/2-x,1/2+y,z
8 x,1/2-y,1/2+z
_cell_length_a                   17.1058(11)
_cell_length_b                   7.6742(4)
_cell_length_c                   36.409(3)
_cell_angle_alpha                90
_cell_angle_beta                 90
_cell_angle_gamma                90
_cell_volume                     4779.53
_cell_formula_units_Z            8
loop_
_atom_site_label
_atom_site_type_symbol
_atom_site_fract_x
_atom_site_fract_y
_atom_site_fract_z
C1 C 0.66642(11) 0.0211(2) 0.00036(5)
C2 C 0.60443(11) 0.1569(2) 0.05297(5)
H1 H 0.5649 0.2264 0.0626
C3 C 0.66628(11) -0.0249(2) -0.03872(5)
C4 C 0.60733(11) 0.0406(2) -0.06197(5)
C5 C 0.65989(11) 0.0890(2) 0.07655(5)
C6 C 0.72399(11) -0.0416(2) 0.02450(5)
H2 H 0.7652 -0.1067 0.0151
C7 C 0.60553(11) 0.1248(2) 0.01482(5)
C8 C 0.54363(11) 0.1912(2) -0.00927(5)
C9 C 0.72105(11) -0.0096(2) 0.06148(5)
H3 H 0.7599 -0.0535 0.0767
C10 C 0.54674(11) 0.1564(2) -0.04745(5)
C11 C 0.65162(11) 0.1083(3) 0.11683(5)
C12 C 0.42309(12) 0.3517(3) -0.01837(6)
H4 H 0.3812 0.4136 -0.0086
C13 C 0.62293(11) 0.2615(3) 0.13252(5)
H5 H 0.6115 0.3565 0.1176
C14 C 0.66984(11) -0.0313(3) 0.14005(6)
H6 H 0.6899 -0.1336 0.1302
C15 C 0.72234(12) -0.1394(3) -0.05334(5)
H7 H 0.7614 -0.1828 -0.0381
C16 C 0.72093(13) -0.1888(3) -0.08961(6)
H8 H 0.7584 -0.2655 -0.0986
C17 C 0.42784(12) 0.3236(3) -0.05600(6)
H9 H 0.3900 0.3695 -0.0716
C18 C 0.61120(11) 0.2735(3) 0.17033(5)
C19 C 0.48034(11) 0.2880(2) 0.00443(6)
H10 H 0.4771 0.3095 0.0295
C20 C 0.62818(12) 0.1327(3) 0.19304(6)
H11 H 0.6195 0.1399 0.2182
C21 C 0.67842(12) 0.4916(3) 0.23560(5)
H12 H 0.7123 0.4013 0.2296
C22 C 0.60753(13) -0.0118(3) -0.09919(6)
H13 H 0.5690 0.0303 -0.1149
C23 C 0.51023(12) 0.5090(3) 0.17494(5)
N1 N 0.58038(10) 0.4299(2) 0.18548(4)
C24 C 0.45810(12) 0.4619(3) 0.14724(5)
H14 H 0.4683 0.3682 0.1318
C25 C 0.64360(13) 0.7396(3) 0.27367(6)
H15 H 0.6558 0.8126 0.2932
C26 C 0.66318(13) -0.1235(3) -0.11281(6)
H16 H 0.6623 -0.1554 -0.1374
C27 C 0.49529(12) 0.6511(3) 0.19854(5)
C28 C 0.65821(12) -0.0184(3) 0.17764(6)
H17 H 0.6707 -0.1122 0.1927
C29 C 0.48852(12) 0.2278(3) -0.07014(6)
H18 H 0.4912 0.2098 -0.0954
C30 C 0.60969(12) 0.5189(3) 0.21604(5)
C31 C 0.42684(13) 0.7475(3) 0.19394(6)
H19 H 0.4163 0.8421 0.2091
C32 C 0.39059(13) 0.5597(3) 0.14360(6)
H20 H 0.3547 0.5306 0.1254
C33 C 0.55824(12) 0.6568(3) 0.22474(5)
C34 C 0.57568(13) 0.7662(3) 0.25416(6)
H21 H 0.5419 0.8561 0.2605
C35 C 0.37505(13) 0.7010(3) 0.16664(6)
H22 H 0.3292 0.7644 0.1635
C36 C 0.69459(13) 0.6038(3) 0.26437(6)
H23 H 0.7403 0.5886 0.2778
loop_
_geom_bond_atom_site_label_1
_geom_bond_atom_site_label_2
_geom_bond_site_symmetry_1
_geom_bond_site_symmetry_2
C1 C3 1_555 1_555
C2 H1 1_555 1_555
C3 C4 1_555 1_555
C4 C10 1_555 1_555
C5 C2 1_555 1_555
C6 C1 1_555 1_555
H2 C6 1_555 1_555
C7 C1 1_555 1_555
C8 C7 1_555 1_555
C9 C5 1_555 1_555
H3 C9 1_555 1_555
C10 C8 1_555 1_555
C11 C5 1_555 1_555
C12 H4 1_555 1_555
C13 C11 1_555 1_555
H5 C13 1_555 1_555
C14 C11 1_555 1_555
H6 C14 1_555 1_555
C15 C3 1_555 1_555
H7 C15 1_555 1_555
C16 C15 1_555 1_555
H8 C16 1_555 1_555
C17 C12 1_555 1_555
H9 C17 1_555 1_555
C18 C13 1_555 1_555
C19 C8 1_555 1_555
H10 C19 1_555 1_555
C20 C18 1_555 1_555
H11 C20 1_555 1_555
C21 H12 1_555 1_555
C22 C4 1_555 1_555
H13 C22 1_555 1_555
C23 N1 1_555 1_555
N1 C18 1_555 1_555
C24 C23 1_555 1_555
H14 C24 1_555 1_555
C25 H15 1_555 1_555
C26 C16 1_555 1_555
H16 C26 1_555 1_555
C27 C23 1_555 1_555
C28 C14 1_555 1_555
H17 C28 1_555 1_555
C29 C10 1_555 1_555
H18 C29 1_555 1_555
C30 C21 1_555 1_555
C31 C27 1_555 1_555
H19 C31 1_555 1_555
C32 C24 1_555 1_555
H20 C32 1_555 1_555
C33 C27 1_555 1_555
C34 C25 1_555 1_555
H21 C34 1_555 1_555
C35 C31 1_555 1_555
H22 C35 1_555 1_555
C36 C21 1_555 1_555
H23 C36 1_555 1_555
C2 C7 1_555 1_555
C6 C9 1_555 1_555
C12 C19 1_555 1_555
C17 C29 1_555 1_555
C20 C28 1_555 1_555
C22 C26 1_555 1_555
N1 C30 1_555 1_555
C25 C36 1_555 1_555
C30 C33 1_555 1_555
C32 C35 1_555 1_555
C33 C34 1_555 1_555

#END
