
#######################################################################
#
#                 Cambridge Crystallographic Data Centre
#                                CCDC 
#
#######################################################################
#
# If this CIF has been generated from an entry in the Cambridge 
# Structural Database, then it will include bibliographic, chemical, 
# crystal, experimental, refinement or atomic coordinate data resulting 
# from the CCDC's data processing and validation procedures.
#
#######################################################################

data_NAPLEW
_chemical_formula_moiety         'C21 H39 N3 O6'
_chemical_name_systematic        
't-Butoxycarbonyl-\f-aminovaleryl-\a-isobutyryl-leucine methyl ester'
_symmetry_cell_setting           orthorhombic
_symmetry_space_group_name_H-M   'P 21 21 21'
_symmetry_Int_Tables_number      19
_space_group_name_Hall           'P 2ac 2ab'
loop_
_symmetry_equiv_pos_site_id
_symmetry_equiv_pos_as_xyz
1 x,y,z
2 -x,1/2+y,1/2-z
3 1/2+x,1/2-y,-z
4 1/2-x,-y,1/2+z
_cell_length_a                   6.100(8)
_cell_length_b                   14.325(16)
_cell_length_c                   29.942(32)
_cell_angle_alpha                90
_cell_angle_beta                 90
_cell_angle_gamma                90
_cell_volume                     2616.41
_exptl_crystal_colour            white
_exptl_crystal_description       needle
_chemical_melting_point          114-116deg.C
_cell_formula_units_Z            4
_exptl_crystal_recrystallization_method methanol/water
loop_
_atom_site_label
_atom_site_type_symbol
_atom_site_fract_x
_atom_site_fract_y
_atom_site_fract_z
C1 C -0.4363(14) 0.6772(7) 0.0869(3)
C2 C -0.6072(18) 0.6500(9) 0.0520(4)
H1 H -0.5366(24) 0.6181(46) 0.0277(12)
H2 H -0.6783(84) 0.7052(9) 0.0410(18)
H3 H -0.7142(68) 0.6095(41) 0.0653(7)
C3 C -0.2384(17) 0.7227(8) 0.0631(4)
H4 H -0.1290(48) 0.7391(41) 0.0847(4)
H5 H -0.2859(27) 0.7779(26) 0.0476(18)
H6 H -0.1774(65) 0.6794(18) 0.0420(15)
C4 C -0.5341(13) 0.7416(6) 0.1214(4)
H7 H -0.6464(58) 0.7092(12) 0.1376(12)
H8 H -0.5965(72) 0.7951(18) 0.1068(4)
H9 H -0.4217(21) 0.7616(28) 0.1417(10)
O1 O -0.3751(9) 0.5883(4) 0.1066(2)
C5 C -0.2210(12) 0.5826(7) 0.1387(3)
O2 O -0.1184(9) 0.6476(4) 0.1536(2)
N1 N -0.2000(9) 0.4947(5) 0.1534(2)
H10 H -0.2954(9) 0.4539(5) 0.1454(2)
C6 C -0.0216(12) 0.4660(6) 0.1826(3)
H11 H -0.0487(12) 0.4029(6) 0.1930(3)
H12 H -0.0181(12) 0.5066(6) 0.2086(3)
C7 C 0.1982(11) 0.4694(6) 0.1595(3)
H13 H 0.3088(11) 0.4465(6) 0.1801(3)
H14 H 0.2327(11) 0.5341(6) 0.1530(3)
C8 C 0.2143(13) 0.4136(6) 0.1163(3)
H15 H 0.0943(13) 0.4317(6) 0.0969(3)
H16 H 0.3499(13) 0.4300(6) 0.1013(3)
C9 C 0.2079(12) 0.3080(6) 0.1225(3)
H17 H 0.0712(12) 0.2907(6) 0.1368(3)
H18 H 0.2128(12) 0.2779(6) 0.0935(3)
O3 O 0.5872(8) 0.3051(4) 0.1441(2)
C10 C 0.3965(11) 0.2742(5) 0.1504(3)
N2 N 0.3565(8) 0.2117(4) 0.1827(2)
H19 H 0.2232(8) 0.1938(4) 0.1864(2)
C11 C 0.5264(11) 0.1711(6) 0.2125(3)
C12 C 0.4242(14) 0.0888(7) 0.2376(3)
H20 H 0.3033(55) 0.1105(9) 0.2553(13)
H21 H 0.5323(27) 0.0609(24) 0.2567(13)
H22 H 0.3729(75) 0.0432(17) 0.2165(3)
C13 C 0.6017(14) 0.2458(7) 0.2460(3)
H23 H 0.6559(79) 0.2992(16) 0.2300(3)
H24 H 0.7161(61) 0.2208(13) 0.2645(12)
H25 H 0.4801(25) 0.2641(28) 0.2644(12)
C14 C 0.7166(10) 0.1373(5) 0.1834(3)
O4 O 0.9082(7) 0.1486(4) 0.1951(2)
N3 N 0.6652(9) 0.0894(4) 0.1463(2)
H26 H 0.5298(9) 0.0769(4) 0.1409(2)
C15 C 0.8305(10) 0.0582(5) 0.1149(2)
H27 H 0.9146(10) 0.1129(5) 0.1052(2)
C16 C 0.7247(14) 0.0145(6) 0.0740(3)
H28 H 0.6331(14) -0.0370(6) 0.0836(3)
H29 H 0.8393(14) -0.0110(6) 0.0551(3)
C17 C 0.5816(16) 0.0829(8) 0.0453(4)
H30 H 0.4773(16) 0.1132(8) 0.0655(4)
C18 C 0.4499(20) 0.0296(10) 0.0111(4)
H31 H 0.3505(96) 0.0714(15) -0.0037(19)
H32 H 0.368(10) -0.0189(37) 0.0257(6)
H33 H 0.5472(22) 0.0024(48) -0.0105(16)
C19 C 0.7197(26) 0.1578(11) 0.0252(5)
H34 H 0.8428(90) 0.1301(11) 0.0102(28)
H35 H 0.771(13) 0.1988(40) 0.0483(6)
H36 H 0.6342(52) 0.1927(44) 0.0041(24)
C20 C 0.9846(13) -0.0089(7) 0.1358(3)
O5 O 0.8871(9) -0.0669(4) 0.1653(2)
O6 O 1.1786(10) -0.0136(5) 0.1284(2)
C21 C 1.0230(14) -0.1348(7) 0.1891(4)
H37 H 1.0649(74) -0.1839(20) 0.1691(6)
H38 H 0.9412(34) -0.1606(29) 0.2136(11)
H39 H 1.1519(46) -0.1044(10) 0.2004(16)
loop_
_geom_bond_atom_site_label_1
_geom_bond_atom_site_label_2
_geom_bond_site_symmetry_1
_geom_bond_site_symmetry_2
C1 C2 1_555 1_555
C2 H1 1_555 1_555
H2 C2 1_555 1_555
H3 C2 1_555 1_555
C3 C1 1_555 1_555
H4 C3 1_555 1_555
H5 C3 1_555 1_555
H6 C3 1_555 1_555
C4 C1 1_555 1_555
H7 C4 1_555 1_555
H8 C4 1_555 1_555
H9 C4 1_555 1_555
O1 C1 1_555 1_555
C5 O1 1_555 1_555
O2 C5 1_555 1_555
N1 C5 1_555 1_555
H10 N1 1_555 1_555
C6 N1 1_555 1_555
H11 C6 1_555 1_555
H12 C6 1_555 1_555
C7 C6 1_555 1_555
H13 C7 1_555 1_555
H14 C7 1_555 1_555
C8 C7 1_555 1_555
H15 C8 1_555 1_555
H16 C8 1_555 1_555
C9 C8 1_555 1_555
H17 C9 1_555 1_555
H18 C9 1_555 1_555
O3 C10 1_555 1_555
C10 C9 1_555 1_555
N2 C10 1_555 1_555
H19 N2 1_555 1_555
C11 N2 1_555 1_555
C12 C11 1_555 1_555
H20 C12 1_555 1_555
H21 C12 1_555 1_555
H22 C12 1_555 1_555
C13 C11 1_555 1_555
H23 C13 1_555 1_555
H24 C13 1_555 1_555
H25 C13 1_555 1_555
C14 C11 1_555 1_555
O4 C14 1_555 1_555
N3 C14 1_555 1_555
H26 N3 1_555 1_555
C15 N3 1_555 1_555
H27 C15 1_555 1_555
C16 C15 1_555 1_555
H28 C16 1_555 1_555
H29 C16 1_555 1_555
C17 C16 1_555 1_555
H30 C17 1_555 1_555
C18 C17 1_555 1_555
H31 C18 1_555 1_555
H32 C18 1_555 1_555
H33 C18 1_555 1_555
C19 C17 1_555 1_555
H34 C19 1_555 1_555
H35 C19 1_555 1_555
H36 C19 1_555 1_555
C20 C15 1_555 1_555
O5 C20 1_555 1_555
O6 C20 1_555 1_555
C21 O5 1_555 1_555
H37 C21 1_555 1_555
H38 C21 1_555 1_555
H39 C21 1_555 1_555

#END
