
#######################################################################
#
#                 Cambridge Crystallographic Data Centre
#                                CCDC 
#
#######################################################################
#
# If this CIF has been generated from an entry in the Cambridge 
# Structural Database, then it will include bibliographic, chemical, 
# crystal, experimental, refinement or atomic coordinate data resulting 
# from the CCDC's data processing and validation procedures.
#
#######################################################################

data_NAPMEZ
_chemical_formula_moiety         'C252 H356 Mg24 N4 O120'
_chemical_name_systematic        
'hexakis(\m-C-propylpyrogallol[4]arene)-tetratetracontakis(aqua)-tetrakis(dimethylformamide)-tetracosa-magnesium(ii) unknown solvate'
_symmetry_cell_setting           monoclinic
_symmetry_space_group_name_H-M   'C 2/m'
_symmetry_Int_Tables_number      12
_space_group_name_Hall           '-C 2y'
loop_
_symmetry_equiv_pos_site_id
_symmetry_equiv_pos_as_xyz
1 x,y,z
2 -x,y,-z
3 1/2+x,1/2+y,z
4 1/2-x,1/2+y,-z
5 -x,-y,-z
6 x,-y,z
7 1/2-x,1/2-y,-z
8 1/2+x,1/2-y,z
_cell_length_a                   28.2464(14)
_cell_length_b                   35.3404(15)
_cell_length_c                   21.6242(10)
_cell_angle_alpha                90
_cell_angle_beta                 118.889(2)
_cell_angle_gamma                90
_cell_volume                     18899.9
_exptl_crystal_colour            green
_exptl_crystal_description       block
_cell_formula_units_Z            2
loop_
_atom_site_label
_atom_site_type_symbol
_atom_site_fract_x
_atom_site_fract_y
_atom_site_fract_z
Mg1 Mg 0.27014(12) 0.5000 0.11522(14)
Mg2 Mg 0.58657(8) 0.70188(5) 0.50138(9)
Mg3 Mg 0.21278(9) 0.55395(5) 0.21443(10)
Mg4 Mg 0.44476(12) 0.5000 0.12916(16)
Mg5 Mg 0.57546(10) 0.55304(5) 0.23010(15)
Mg6 Mg 0.64370(12) 0.64874(9) 0.40277(12)
Mg7 Mg 0.28426(12) 0.64652(9) 0.39735(11)
O1 O 0.26244(15) 0.65755(9) 0.29413(18)
O2 O 0.42735(15) 0.72286(10) 0.42057(18)
O3 O 0.22595(16) 0.60929(9) 0.19915(19)
O4 O 0.78318(16) 0.61623(10) 0.62651(19)
O5 O 0.58842(16) 0.65809(10) 0.29876(18)
O6 O 0.24829(17) 0.54481(9) 0.1548(2)
O7 O 0.29910(17) 0.54242(9) 0.07732(19)
O8 O 0.81850(16) 0.56655(9) 0.7202(2)
O9 O 0.38913(16) 0.54259(10) 0.0849(2)
O10 O 0.51473(16) 0.72264(10) 0.42186(18)
O11 O 0.34583(16) 0.68098(11) 0.41538(18)
O12 O 0.55265(17) 0.60824(10) 0.2078(2)
O13 O 0.69031(17) 0.61617(10) 0.37809(19)
O14 O 0.59282(16) 0.68082(11) 0.41898(19)
O15 O 0.65582(18) 0.56644(10) 0.2875(2)
O16 O 0.7992(3) 0.5000 0.7620(3)
O17 O 0.62489(18) 0.75224(12) 0.4991(2)
O18 O 0.70014(19) 0.63718(13) 0.5026(2)
O19 O 0.49643(18) 0.54429(10) 0.1682(3)
O20 O 0.1962(3) 0.5000 0.0202(3)
O21 O 0.6040(2) 0.5000 0.2505(4)
O22 O 0.1348(2) 0.55658(14) 0.1256(3)
C1 C 0.2972(2) 0.61086(13) 0.0686(2)
C2 C 0.2834(2) 0.64509(12) 0.0897(2)
H1 H 0.2912 0.6683 0.0744
C3 C 0.2991(2) 0.68201(13) 0.2902(3)
C4 C 0.2481(2) 0.61195(13) 0.1555(3)
C5 C 0.8217(3) 0.5000 0.7211(4)
C6 C 0.5482(2) 0.68179(13) 0.2933(3)
C7 C 0.4671(2) 0.71818(12) 0.2314(3)
H2 H 0.4382 0.7269 0.1880
C8 C 0.4163(2) 0.64435(14) 0.0908(2)
H3 H 0.3977 0.6676 0.0729
C9 C 0.4683(2) 0.72901(12) 0.2938(3)
O23 O 0.4564(4) 0.5000 0.0396(5)
C10 C 0.3796(2) 0.72989(12) 0.2922(3)
C11 C 0.8342(2) 0.53445(13) 0.6993(3)
C12 C 0.3868(2) 0.61067(14) 0.0708(3)
C13 C 0.8262(2) 0.58445(14) 0.5660(3)
C14 C 0.3347(2) 0.71905(12) 0.2302(3)
H4 H 0.3317 0.7281 0.1870
C15 C 0.8728(3) 0.5000 0.6398(4)
H5 H 0.8898 0.5000 0.6112
C16 C 0.5504(2) 0.69234(15) 0.3576(3)
C17 C 0.2461(2) 0.68390(12) 0.1567(2)
H6 H 0.2152 0.6790 0.1659
C18 C 0.4247(2) 0.75391(13) 0.2952(3)
H7 H 0.4418 0.7668 0.3422
C19 C 0.7842(2) 0.60490(14) 0.5660(3)
C20 C 0.3251(2) 0.61035(13) 0.0239(3)
H8 H 0.3158 0.5856 -0.0015
C21 C 0.2861(2) 0.57726(12) 0.0926(3)
C22 C 0.2589(2) 0.64614(12) 0.1319(2)
C23 C 0.2939(2) 0.69591(12) 0.2265(3)
C24 C 0.4984(2) 0.61123(14) 0.1621(3)
C25 C 0.3434(2) 0.69228(14) 0.3550(3)
C26 C 0.2612(2) 0.57763(13) 0.1349(3)
C27 C 0.3845(2) 0.71548(13) 0.3556(3)
C28 C 0.7394(2) 0.61654(15) 0.5016(3)
C29 C 0.8214(2) 0.57498(15) 0.5010(3)
H9 H 0.8498 0.5608 0.5007
C30 C 0.7690(4) 0.5000 0.3616(4)
H10 H 0.8074 0.5000 0.3877
C31 C 0.4718(2) 0.64522(14) 0.1358(3)
C32 C 0.4137(2) 0.57664(14) 0.0979(3)
C33 C 0.8607(2) 0.53471(14) 0.6602(3)
C34 C 0.5066(2) 0.69496(13) 0.2295(3)
C35 C 0.5101(2) 0.71511(14) 0.3576(3)
C36 C 0.7418(2) 0.53477(15) 0.3430(3)
C37 C 0.7777(2) 0.58474(14) 0.4361(3)
C38 C 0.5038(2) 0.68245(13) 0.1602(3)
H11 H 0.5417 0.6765 0.1712
C39 C 0.7365(2) 0.60604(14) 0.4380(3)
C40 C 0.2279(2) 0.71502(14) 0.1004(3)
H12 H 0.2234 0.7389 0.1211
H13 H 0.2568 0.7191 0.0877
C41 C 0.6863(3) 0.53441(15) 0.3070(3)
C42 C 0.4700(2) 0.57716(14) 0.1428(3)
C43 C 0.8735(2) 0.57232(14) 0.6356(3)
H14 H 0.8773 0.5919 0.6712
C44 C 0.4054(2) 0.78559(13) 0.2390(3)
H15 H 0.3900 0.7738 0.1917
H16 H 0.3760 0.7999 0.2410
C45 C 0.6581(4) 0.5000 0.2864(5)
O24 O 0.5494(3) 0.64698(15) 0.5011(4)
O25 O 0.3438(4) 0.5000 0.2175(4)
O26 O 0.2946(3) 0.5492(2) 0.3046(3)
C46 C 0.7722(3) 0.57252(16) 0.3658(3)
H17 H 0.7481 0.5917 0.3305
C47 C 0.3049(3) 0.64139(16) -0.0336(3)
H18 H 0.3112 0.6665 -0.0107
H19 H 0.3262 0.6401 -0.0588
C48 C 0.4837(3) 0.71399(15) 0.1041(3)
H20 H 0.4820 0.7037 0.0605
H21 H 0.4464 0.7208 0.0928
C49 C 0.1755(3) 0.70656(16) 0.0335(3)
H22 H 0.1458 0.7043 0.0452
H23 H 0.1789 0.6820 0.0140
C50 C 0.9275(3) 0.57149(17) 0.6344(3)
H24 H 0.9256 0.5517 0.6008
H25 H 0.9327 0.5961 0.6167
O27 O 0.3333(3) 0.5993(2) 0.4052(4)
C51 C 0.5169(3) 0.74937(18) 0.1239(4)
H26 H 0.5196 0.7596 0.1682
H27 H 0.5540 0.7431 0.1332
C52 C 0.8254(3) 0.5733(2) 0.3629(4)
H28 H 0.8516 0.5563 0.4000
H29 H 0.8186 0.5632 0.3167
O28 O 0.6902(3) 0.70041(17) 0.3976(4)
O29 O 0.4410(4) 0.5000 0.2256(5)
C53 C 0.4477(3) 0.81243(17) 0.2468(4)
H30 H 0.4767 0.7983 0.2434
H31 H 0.4638 0.8238 0.2945
N1 N 0.6244(3) 0.8033(2) 0.4349(4)
C54 C 0.9760(3) 0.5638(2) 0.7055(4)
H32 H 0.9792 0.5841 0.7388
H33 H 0.9706 0.5395 0.7242
C55 C 0.2451(3) 0.6375(2) -0.0869(4)
H34 H 0.2383 0.6123 -0.1095
H35 H 0.2234 0.6397 -0.0623
O30 O 0.5837(4) 0.5514(2) 0.1334(4)
O31 O 0.5616(5) 0.5509(2) 0.3197(5)
O32 O 0.5992(5) 0.6002(2) 0.4127(6)
C56 C 0.1614(4) 0.7372(2) -0.0222(4)
H36 H 0.1274 0.7307 -0.0644
H37 H 0.1572 0.7615 -0.0034
H38 H 0.1903 0.7392 -0.0347
O33 O 0.2341(4) 0.6984(2) 0.3906(5)
C57 C 0.6155(4) 0.7687(2) 0.4427(5)
C58 C 0.4281(4) 0.8438(2) 0.1927(5)
H39 H 0.4584 0.8605 0.2013
H40 H 0.4130 0.8329 0.1452
H41 H 0.4001 0.8585 0.1964
C59 C 1.0278(4) 0.5618(3) 0.7014(6)
H42 H 1.0582 0.5568 0.7486
H43 H 1.0252 0.5414 0.6692
H44 H 1.0337 0.5859 0.6839
C60 C 0.6129(5) 0.8190(3) 0.3651(7)
H45 H 0.6224 0.8459 0.3703
H46 H 0.6342 0.8054 0.3476
H47 H 0.5743 0.8161 0.3315
C61 C 0.2287(5) 0.6667(4) -0.1408(7)
H48 H 0.1902 0.6639 -0.1746
H49 H 0.2350 0.6917 -0.1185
H50 H 0.2499 0.6643 -0.1655
C62 C 0.8493(11) 0.6101(7) 0.3724(13)
H51 H 0.8834 0.6130 0.4174
H52 H 0.8241 0.6311 0.3660
C63 C 0.6411(10) 0.8277(7) 0.4942(13)
H53 H 0.6465 0.8533 0.4814
H54 H 0.6132 0.8282 0.5087
H55 H 0.6750 0.8183 0.5333
C64 C 0.4944(7) 0.7788(4) 0.0689(7)
H56 H 0.5178 0.8012 0.0848
H57 H 0.4924 0.7692 0.0253
H58 H 0.4581 0.7857 0.0602
C65 C 0.8583(10) 0.6036(7) 0.3055(13)
H59 H 0.8755 0.6260 0.2983
H60 H 0.8816 0.5815 0.3138
H61 H 0.8233 0.5993 0.2633
O4E O 0.78318(16) 0.38377(10) 0.62651(19)
O8E O 0.81850(16) 0.43345(9) 0.7202(2)
O13E O 0.69031(17) 0.38383(10) 0.37809(19)
O15E O 0.65582(18) 0.43356(10) 0.2875(2)
O18E O 0.70014(19) 0.36282(13) 0.5026(2)
C11E C 0.8342(2) 0.46555(13) 0.6993(3)
C13E C 0.8262(2) 0.41555(14) 0.5660(3)
C19E C 0.7842(2) 0.39510(14) 0.5660(3)
C28E C 0.7394(2) 0.38346(15) 0.5016(3)
C29E C 0.8214(2) 0.42502(15) 0.5010(3)
H9E H 0.8498 0.4392 0.5007
C33E C 0.8607(2) 0.46529(14) 0.6602(3)
C36E C 0.7418(2) 0.46523(15) 0.3430(3)
C37E C 0.7777(2) 0.41526(14) 0.4361(3)
C39E C 0.7365(2) 0.39396(14) 0.4380(3)
C41E C 0.6863(3) 0.46559(15) 0.3070(3)
C43E C 0.8735(2) 0.42768(14) 0.6356(3)
H14E H 0.8773 0.4081 0.6712
C46E C 0.7722(3) 0.42748(16) 0.3658(3)
H17E H 0.7481 0.4083 0.3305
C50E C 0.9275(3) 0.42851(17) 0.6344(3)
H24E H 0.9256 0.4483 0.6008
H25E H 0.9327 0.4039 0.6167
C52E C 0.8254(3) 0.4267(2) 0.3629(4)
H28E H 0.8516 0.4437 0.4000
H29E H 0.8186 0.4368 0.3167
C54E C 0.9760(3) 0.4362(2) 0.7055(4)
H32E H 0.9792 0.4159 0.7388
H33E H 0.9706 0.4605 0.7242
C59E C 1.0278(4) 0.4382(3) 0.7014(6)
H42E H 1.0582 0.4432 0.7486
H43E H 1.0252 0.4586 0.6692
H44E H 1.0337 0.4141 0.6839
C62E C 0.8493(11) 0.3899(7) 0.3724(13)
H51E H 0.8834 0.3870 0.4174
H52E H 0.8241 0.3689 0.3660
C65E C 0.8583(10) 0.3964(7) 0.3055(13)
H59E H 0.8755 0.3740 0.2983
H60E H 0.8816 0.4185 0.3138
H61E H 0.8233 0.4007 0.2633
Mg1A Mg 0.72986(12) 0.5000 0.88478(14)
Mg2A Mg 0.41343(8) 0.70188(5) 0.49862(9)
Mg3A Mg 0.78722(9) 0.55395(5) 0.78557(10)
Mg4A Mg 0.55524(12) 0.5000 0.87084(16)
Mg5A Mg 0.42454(10) 0.55304(5) 0.76990(15)
Mg6A Mg 0.35630(12) 0.64874(9) 0.59723(12)
Mg7A Mg 0.71574(12) 0.64652(9) 0.60265(11)
O1A O 0.73756(15) 0.65755(9) 0.70587(18)
O2A O 0.57265(15) 0.72286(10) 0.57943(18)
O3A O 0.77405(16) 0.60929(9) 0.80085(19)
O4A O 0.21682(16) 0.61623(10) 0.37349(19)
O5A O 0.41158(16) 0.65809(10) 0.70124(18)
O6A O 0.75171(17) 0.54481(9) 0.8452(2)
O7A O 0.70090(17) 0.54242(9) 0.92268(19)
O8A O 0.18150(16) 0.56655(9) 0.2798(2)
O9A O 0.61087(16) 0.54259(10) 0.9151(2)
O10A O 0.48527(16) 0.72264(10) 0.57814(18)
O11A O 0.65417(16) 0.68098(11) 0.58462(18)
O12A O 0.44735(17) 0.60824(10) 0.7922(2)
O13A O 0.30969(17) 0.61617(10) 0.62191(19)
O14A O 0.40718(16) 0.68082(11) 0.58102(19)
O15A O 0.34418(18) 0.56644(10) 0.7125(2)
O16A O 0.2008(3) 0.5000 0.2380(3)
O17A O 0.37511(18) 0.75224(12) 0.5009(2)
O18A O 0.29986(19) 0.63718(13) 0.4974(2)
O19A O 0.50357(18) 0.54429(10) 0.8318(3)
O20A O 0.8038(3) 0.5000 0.9798(3)
O21A O 0.3960(2) 0.5000 0.7495(4)
O22A O 0.8652(2) 0.55658(14) 0.8744(3)
C1A C 0.7028(2) 0.61086(13) 0.9314(2)
C2A C 0.7166(2) 0.64509(12) 0.9103(2)
H1A H 0.7088 0.6683 0.9256
C3A C 0.7009(2) 0.68201(13) 0.7098(3)
C4A C 0.7519(2) 0.61195(13) 0.8445(3)
C5A C 0.1783(3) 0.5000 0.2789(4)
C6A C 0.4518(2) 0.68179(13) 0.7067(3)
C7A C 0.5329(2) 0.71818(12) 0.7686(3)
H2A H 0.5618 0.7269 0.8120
C8A C 0.5837(2) 0.64435(14) 0.9092(2)
H3A H 0.6023 0.6676 0.9271
C9A C 0.5317(2) 0.72901(12) 0.7062(3)
O23A O 0.5436(4) 0.5000 0.9604(5)
C10A C 0.6204(2) 0.72989(12) 0.7078(3)
C11A C 0.1658(2) 0.53445(13) 0.3007(3)
C12A C 0.6132(2) 0.61067(14) 0.9292(3)
C13A C 0.1738(2) 0.58445(14) 0.4340(3)
C14A C 0.6653(2) 0.71905(12) 0.7698(3)
H4A H 0.6683 0.7281 0.8130
C15A C 0.1272(3) 0.5000 0.3602(4)
H5A H 0.1102 0.5000 0.3888
C16A C 0.4496(2) 0.69234(15) 0.6424(3)
C17A C 0.7539(2) 0.68390(12) 0.8433(2)
H6A H 0.7848 0.6790 0.8341
C18A C 0.5753(2) 0.75391(13) 0.7048(3)
H7A H 0.5582 0.7668 0.6578
C19A C 0.2158(2) 0.60490(14) 0.4340(3)
C20A C 0.6749(2) 0.61035(13) 0.9761(3)
H8A H 0.6842 0.5856 1.0015
C21A C 0.7139(2) 0.57726(12) 0.9074(3)
C22A C 0.7411(2) 0.64614(12) 0.8681(2)
C23A C 0.7061(2) 0.69591(12) 0.7735(3)
C24A C 0.5016(2) 0.61123(14) 0.8379(3)
C25A C 0.6566(2) 0.69228(14) 0.6450(3)
C26A C 0.7388(2) 0.57763(13) 0.8651(3)
C27A C 0.6155(2) 0.71548(13) 0.6444(3)
C28A C 0.2606(2) 0.61654(15) 0.4984(3)
C29A C 0.1786(2) 0.57498(15) 0.4990(3)
H9A H 0.1502 0.5608 0.4993
C30A C 0.2310(4) 0.5000 0.6384(4)
H10A H 0.1926 0.5000 0.6123
C31A C 0.5282(2) 0.64522(14) 0.8642(3)
C32A C 0.5863(2) 0.57664(14) 0.9021(3)
C33A C 0.1393(2) 0.53471(14) 0.3398(3)
C34A C 0.4934(2) 0.69496(13) 0.7705(3)
C35A C 0.4899(2) 0.71511(14) 0.6424(3)
C36A C 0.2582(2) 0.53477(15) 0.6570(3)
C37A C 0.2223(2) 0.58474(14) 0.5639(3)
C38A C 0.4962(2) 0.68245(13) 0.8398(3)
H11A H 0.4583 0.6765 0.8288
C39A C 0.2635(2) 0.60604(14) 0.5620(3)
C40A C 0.7721(2) 0.71502(14) 0.8996(3)
H12A H 0.7766 0.7389 0.8789
H13A H 0.7432 0.7191 0.9123
C41A C 0.3137(3) 0.53441(15) 0.6930(3)
C42A C 0.5300(2) 0.57716(14) 0.8572(3)
C43A C 0.1265(2) 0.57232(14) 0.3644(3)
H14A H 0.1227 0.5919 0.3288
C44A C 0.5946(2) 0.78559(13) 0.7610(3)
H15A H 0.6100 0.7738 0.8083
H16A H 0.6240 0.7999 0.7590
C45A C 0.3419(4) 0.5000 0.7136(5)
O24A O 0.4506(3) 0.64698(15) 0.4989(4)
O25A O 0.6562(4) 0.5000 0.7825(4)
O26A O 0.7054(3) 0.5492(2) 0.6954(3)
C46A C 0.2278(3) 0.57252(16) 0.6342(3)
H17A H 0.2519 0.5917 0.6695
C47A C 0.6951(3) 0.64139(16) 1.0336(3)
H18A H 0.6888 0.6665 1.0107
H19A H 0.6738 0.6401 1.0588
C48A C 0.5163(3) 0.71399(15) 0.8959(3)
H20A H 0.5180 0.7037 0.9395
H21A H 0.5536 0.7208 0.9072
C49A C 0.8245(3) 0.70656(16) 0.9665(3)
H22A H 0.8542 0.7043 0.9548
H23A H 0.8211 0.6820 0.9860
C50A C 0.0725(3) 0.57149(17) 0.3656(3)
H24A H 0.0744 0.5517 0.3992
H25A H 0.0673 0.5961 0.3833
O27A O 0.6667(3) 0.5993(2) 0.5948(4)
C51A C 0.4831(3) 0.74937(18) 0.8761(4)
H26A H 0.4804 0.7596 0.8318
H27A H 0.4460 0.7431 0.8668
C52A C 0.1746(3) 0.5733(2) 0.6371(4)
H28A H 0.1484 0.5563 0.6000
H29A H 0.1814 0.5632 0.6833
O28A O 0.3098(3) 0.70041(17) 0.6024(4)
O29A O 0.5590(4) 0.5000 0.7744(5)
C53A C 0.5523(3) 0.81243(17) 0.7532(4)
H30A H 0.5233 0.7983 0.7566
H31A H 0.5362 0.8238 0.7055
N1A N 0.3756(3) 0.8033(2) 0.5651(4)
C54A C 0.0240(3) 0.5638(2) 0.2945(4)
H32A H 0.0208 0.5841 0.2612
H33A H 0.0294 0.5395 0.2758
C55A C 0.7549(3) 0.6375(2) 1.0869(4)
H34A H 0.7617 0.6123 1.1095
H35A H 0.7766 0.6397 1.0623
O30A O 0.4163(4) 0.5514(2) 0.8666(4)
O31A O 0.4384(5) 0.5509(2) 0.6803(5)
O32A O 0.4008(5) 0.6002(2) 0.5873(6)
C56A C 0.8386(4) 0.7372(2) 1.0222(4)
H36A H 0.8726 0.7307 1.0644
H37A H 0.8428 0.7615 1.0034
H38A H 0.8097 0.7392 1.0347
O33A O 0.7659(4) 0.6984(2) 0.6094(5)
C57A C 0.3845(4) 0.7687(2) 0.5573(5)
C58A C 0.5719(4) 0.8438(2) 0.8073(5)
H39A H 0.5416 0.8605 0.7987
H40A H 0.5870 0.8329 0.8548
H41A H 0.5999 0.8585 0.8036
C59A C -0.0278(4) 0.5618(3) 0.2986(6)
H42A H -0.0582 0.5568 0.2514
H43A H -0.0252 0.5414 0.3308
H44A H -0.0337 0.5859 0.3161
C60A C 0.3871(5) 0.8190(3) 0.6349(7)
H45A H 0.3776 0.8459 0.6297
H46A H 0.3658 0.8054 0.6524
H47A H 0.4257 0.8161 0.6685
C61A C 0.7713(5) 0.6667(4) 1.1408(7)
H48A H 0.8098 0.6639 1.1746
H49A H 0.7650 0.6917 1.1185
H50A H 0.7501 0.6643 1.1655
C62A C 0.1507(11) 0.6101(7) 0.6276(13)
H51A H 0.1166 0.6130 0.5826
H52A H 0.1759 0.6311 0.6340
C63A C 0.3589(10) 0.8277(7) 0.5058(13)
H53A H 0.3535 0.8533 0.5186
H54A H 0.3868 0.8282 0.4913
H55A H 0.3250 0.8183 0.4667
C64A C 0.5056(7) 0.7788(4) 0.9311(7)
H56A H 0.4822 0.8012 0.9152
H57A H 0.5076 0.7692 0.9747
H58A H 0.5419 0.7857 0.9398
C65A C 0.1417(10) 0.6036(7) 0.6945(13)
H59A H 0.1245 0.6260 0.7017
H60A H 0.1184 0.5815 0.6862
H61A H 0.1767 0.5993 0.7367
O4D O 0.21682(16) 0.38377(10) 0.37349(19)
O8D O 0.18150(16) 0.43345(9) 0.2798(2)
O13D O 0.30969(17) 0.38383(10) 0.62191(19)
O15D O 0.34418(18) 0.43356(10) 0.7125(2)
O18D O 0.29986(19) 0.36282(13) 0.4974(2)
C11D C 0.1658(2) 0.46555(13) 0.3007(3)
C13D C 0.1738(2) 0.41555(14) 0.4340(3)
C19D C 0.2158(2) 0.39510(14) 0.4340(3)
C28D C 0.2606(2) 0.38346(15) 0.4984(3)
C29D C 0.1786(2) 0.42502(15) 0.4990(3)
H9D H 0.1502 0.4392 0.4993
C33D C 0.1393(2) 0.46529(14) 0.3398(3)
C36D C 0.2582(2) 0.46523(15) 0.6570(3)
C37D C 0.2223(2) 0.41526(14) 0.5639(3)
C39D C 0.2635(2) 0.39396(14) 0.5620(3)
C41D C 0.3137(3) 0.46559(15) 0.6930(3)
C43D C 0.1265(2) 0.42768(14) 0.3644(3)
H14D H 0.1227 0.4081 0.3288
C46D C 0.2278(3) 0.42748(16) 0.6342(3)
H17D H 0.2519 0.4083 0.6695
C50D C 0.0725(3) 0.42851(17) 0.3656(3)
H24D H 0.0744 0.4483 0.3992
H25D H 0.0673 0.4039 0.3833
C52D C 0.1746(3) 0.4267(2) 0.6371(4)
H28D H 0.1484 0.4437 0.6000
H29D H 0.1814 0.4368 0.6833
C54D C 0.0240(3) 0.4362(2) 0.2945(4)
H32D H 0.0208 0.4159 0.2612
H33D H 0.0294 0.4605 0.2758
C59D C -0.0278(4) 0.4382(3) 0.2986(6)
H42D H -0.0582 0.4432 0.2514
H43D H -0.0252 0.4586 0.3308
H44D H -0.0337 0.4141 0.3161
C62D C 0.1507(11) 0.3899(7) 0.6276(13)
H51D H 0.1166 0.3870 0.5826
H52D H 0.1759 0.3689 0.6340
C65D C 0.1417(10) 0.3964(7) 0.6945(13)
H59D H 0.1245 0.3740 0.7017
H60D H 0.1184 0.4185 0.6862
H61D H 0.1767 0.4007 0.7367
Mg2D Mg 0.41343(8) 0.29812(5) 0.49862(9)
Mg3D Mg 0.78722(9) 0.44605(5) 0.78557(10)
Mg5D Mg 0.42454(10) 0.44696(5) 0.76990(15)
Mg6D Mg 0.35630(12) 0.35126(9) 0.59723(12)
Mg7D Mg 0.71574(12) 0.35348(9) 0.60265(11)
O1D O 0.73756(15) 0.34245(9) 0.70587(18)
O2D O 0.57265(15) 0.27714(10) 0.57943(18)
O3D O 0.77405(16) 0.39071(9) 0.80085(19)
O5D O 0.41158(16) 0.34191(10) 0.70124(18)
O6D O 0.75171(17) 0.45519(9) 0.8452(2)
O7D O 0.70090(17) 0.45758(9) 0.92268(19)
O9D O 0.61087(16) 0.45741(10) 0.9151(2)
O10D O 0.48527(16) 0.27736(10) 0.57814(18)
O11D O 0.65417(16) 0.31902(11) 0.58462(18)
O12D O 0.44735(17) 0.39176(10) 0.7922(2)
O14D O 0.40718(16) 0.31918(11) 0.58102(19)
O17D O 0.37511(18) 0.24776(12) 0.5009(2)
O19D O 0.50357(18) 0.45571(10) 0.8318(3)
O22D O 0.8652(2) 0.44342(14) 0.8744(3)
C1D C 0.7028(2) 0.38914(13) 0.9314(2)
C2D C 0.7166(2) 0.35491(12) 0.9103(2)
H1D H 0.7088 0.3317 0.9256
C3D C 0.7009(2) 0.31799(13) 0.7098(3)
C4D C 0.7519(2) 0.38805(13) 0.8445(3)
C6D C 0.4518(2) 0.31821(13) 0.7067(3)
C7D C 0.5329(2) 0.28182(12) 0.7686(3)
H2D H 0.5618 0.2731 0.8120
C8D C 0.5837(2) 0.35565(14) 0.9092(2)
H3D H 0.6023 0.3324 0.9271
C9D C 0.5317(2) 0.27099(12) 0.7062(3)
C10D C 0.6204(2) 0.27011(12) 0.7078(3)
C12D C 0.6132(2) 0.38933(14) 0.9292(3)
C14D C 0.6653(2) 0.28095(12) 0.7698(3)
H4D H 0.6683 0.2719 0.8130
C16D C 0.4496(2) 0.30766(15) 0.6424(3)
C17D C 0.7539(2) 0.31610(12) 0.8433(2)
H6D H 0.7848 0.3210 0.8341
C18D C 0.5753(2) 0.24609(13) 0.7048(3)
H7D H 0.5582 0.2332 0.6578
C20D C 0.6749(2) 0.38965(13) 0.9761(3)
H8D H 0.6842 0.4144 1.0015
C21D C 0.7139(2) 0.42274(12) 0.9074(3)
C22D C 0.7411(2) 0.35386(12) 0.8681(2)
C23D C 0.7061(2) 0.30409(12) 0.7735(3)
C24D C 0.5016(2) 0.38877(14) 0.8379(3)
C25D C 0.6566(2) 0.30772(14) 0.6450(3)
C26D C 0.7388(2) 0.42237(13) 0.8651(3)
C27D C 0.6155(2) 0.28452(13) 0.6444(3)
C31D C 0.5282(2) 0.35478(14) 0.8642(3)
C32D C 0.5863(2) 0.42336(14) 0.9021(3)
C34D C 0.4934(2) 0.30504(13) 0.7705(3)
C35D C 0.4899(2) 0.28489(14) 0.6424(3)
C38D C 0.4962(2) 0.31755(13) 0.8398(3)
H11D H 0.4583 0.3235 0.8288
C40D C 0.7721(2) 0.28498(14) 0.8996(3)
H12D H 0.7766 0.2611 0.8789
H13D H 0.7432 0.2809 0.9123
C42D C 0.5300(2) 0.42284(14) 0.8572(3)
C44D C 0.5946(2) 0.21441(13) 0.7610(3)
H15D H 0.6100 0.2262 0.8083
H16D H 0.6240 0.2001 0.7590
O24D O 0.4506(3) 0.35302(15) 0.4989(4)
O26D O 0.7054(3) 0.4508(2) 0.6954(3)
C47D C 0.6951(3) 0.35861(16) 1.0336(3)
H18D H 0.6888 0.3335 1.0107
H19D H 0.6738 0.3599 1.0588
C48D C 0.5163(3) 0.28601(15) 0.8959(3)
H20D H 0.5180 0.2963 0.9395
H21D H 0.5536 0.2792 0.9072
C49D C 0.8245(3) 0.29344(16) 0.9665(3)
H22D H 0.8542 0.2957 0.9548
H23D H 0.8211 0.3180 0.9860
O27D O 0.6667(3) 0.4007(2) 0.5948(4)
C51D C 0.4831(3) 0.25063(18) 0.8761(4)
H26D H 0.4804 0.2404 0.8318
H27D H 0.4460 0.2569 0.8668
O28D O 0.3098(3) 0.29959(17) 0.6024(4)
C53D C 0.5523(3) 0.18757(17) 0.7532(4)
H30D H 0.5233 0.2017 0.7566
H31D H 0.5362 0.1762 0.7055
N1D N 0.3756(3) 0.1967(2) 0.5651(4)
C55D C 0.7549(3) 0.3625(2) 1.0869(4)
H34D H 0.7617 0.3877 1.1095
H35D H 0.7766 0.3603 1.0623
O30D O 0.4163(4) 0.4486(2) 0.8666(4)
O31D O 0.4384(5) 0.4491(2) 0.6803(5)
O32D O 0.4008(5) 0.3998(2) 0.5873(6)
C56D C 0.8386(4) 0.2628(2) 1.0222(4)
H36D H 0.8726 0.2693 1.0644
H37D H 0.8428 0.2385 1.0034
H38D H 0.8097 0.2608 1.0347
O33D O 0.7659(4) 0.3016(2) 0.6094(5)
C57D C 0.3845(4) 0.2313(2) 0.5573(5)
C58D C 0.5719(4) 0.1562(2) 0.8073(5)
H39D H 0.5416 0.1395 0.7987
H40D H 0.5870 0.1671 0.8548
H41D H 0.5999 0.1415 0.8036
C60D C 0.3871(5) 0.1810(3) 0.6349(7)
H45D H 0.3776 0.1541 0.6297
H46D H 0.3658 0.1946 0.6524
H47D H 0.4257 0.1839 0.6685
C61D C 0.7713(5) 0.3333(4) 1.1408(7)
H48D H 0.8098 0.3361 1.1746
H49D H 0.7650 0.3083 1.1185
H50D H 0.7501 0.3357 1.1655
C63D C 0.3589(10) 0.1723(7) 0.5058(13)
H53D H 0.3535 0.1467 0.5186
H54D H 0.3868 0.1718 0.4913
H55D H 0.3250 0.1817 0.4667
C64D C 0.5056(7) 0.2212(4) 0.9311(7)
H56D H 0.4822 0.1988 0.9152
H57D H 0.5076 0.2308 0.9747
H58D H 0.5419 0.2143 0.9398
Mg2E Mg 0.58657(8) 0.29812(5) 0.50138(9)
Mg3E Mg 0.21278(9) 0.44605(5) 0.21443(10)
Mg5E Mg 0.57546(10) 0.44696(5) 0.23010(15)
Mg6E Mg 0.64370(12) 0.35126(9) 0.40277(12)
Mg7E Mg 0.28426(12) 0.35348(9) 0.39735(11)
O1E O 0.26244(15) 0.34245(9) 0.29413(18)
O2E O 0.42735(15) 0.27714(10) 0.42057(18)
O3E O 0.22595(16) 0.39071(9) 0.19915(19)
O5E O 0.58842(16) 0.34191(10) 0.29876(18)
O6E O 0.24829(17) 0.45519(9) 0.1548(2)
O7E O 0.29910(17) 0.45758(9) 0.07732(19)
O9E O 0.38913(16) 0.45741(10) 0.0849(2)
O10E O 0.51473(16) 0.27736(10) 0.42186(18)
O11E O 0.34583(16) 0.31902(11) 0.41538(18)
O12E O 0.55265(17) 0.39176(10) 0.2078(2)
O14E O 0.59282(16) 0.31918(11) 0.41898(19)
O17E O 0.62489(18) 0.24776(12) 0.4991(2)
O19E O 0.49643(18) 0.45571(10) 0.1682(3)
O22E O 0.1348(2) 0.44342(14) 0.1256(3)
C1E C 0.2972(2) 0.38914(13) 0.0686(2)
C2E C 0.2834(2) 0.35491(12) 0.0897(2)
H1E H 0.2912 0.3317 0.0744
C3E C 0.2991(2) 0.31799(13) 0.2902(3)
C4E C 0.2481(2) 0.38805(13) 0.1555(3)
C6E C 0.5482(2) 0.31821(13) 0.2933(3)
C7E C 0.4671(2) 0.28182(12) 0.2314(3)
H2E H 0.4382 0.2731 0.1880
C8E C 0.4163(2) 0.35565(14) 0.0908(2)
H3E H 0.3977 0.3324 0.0729
C9E C 0.4683(2) 0.27099(12) 0.2938(3)
C10E C 0.3796(2) 0.27011(12) 0.2922(3)
C12E C 0.3868(2) 0.38933(14) 0.0708(3)
C14E C 0.3347(2) 0.28095(12) 0.2302(3)
H4E H 0.3317 0.2719 0.1870
C16E C 0.5504(2) 0.30766(15) 0.3576(3)
C17E C 0.2461(2) 0.31610(12) 0.1567(2)
H6E H 0.2152 0.3210 0.1659
C18E C 0.4247(2) 0.24609(13) 0.2952(3)
H7E H 0.4418 0.2332 0.3422
C20E C 0.3251(2) 0.38965(13) 0.0239(3)
H8E H 0.3158 0.4144 -0.0015
C21E C 0.2861(2) 0.42274(12) 0.0926(3)
C22E C 0.2589(2) 0.35386(12) 0.1319(2)
C23E C 0.2939(2) 0.30409(12) 0.2265(3)
C24E C 0.4984(2) 0.38877(14) 0.1621(3)
C25E C 0.3434(2) 0.30772(14) 0.3550(3)
C26E C 0.2612(2) 0.42237(13) 0.1349(3)
C27E C 0.3845(2) 0.28452(13) 0.3556(3)
C31E C 0.4718(2) 0.35478(14) 0.1358(3)
C32E C 0.4137(2) 0.42336(14) 0.0979(3)
C34E C 0.5066(2) 0.30504(13) 0.2295(3)
C35E C 0.5101(2) 0.28489(14) 0.3576(3)
C38E C 0.5038(2) 0.31755(13) 0.1602(3)
H11E H 0.5417 0.3235 0.1712
C40E C 0.2279(2) 0.28498(14) 0.1004(3)
H12E H 0.2234 0.2611 0.1211
H13E H 0.2568 0.2809 0.0877
C42E C 0.4700(2) 0.42284(14) 0.1428(3)
C44E C 0.4054(2) 0.21441(13) 0.2390(3)
H15E H 0.3900 0.2262 0.1917
H16E H 0.3760 0.2001 0.2410
O24E O 0.5494(3) 0.35302(15) 0.5011(4)
O26E O 0.2946(3) 0.4508(2) 0.3046(3)
C47E C 0.3049(3) 0.35861(16) -0.0336(3)
H18E H 0.3112 0.3335 -0.0107
H19E H 0.3262 0.3599 -0.0588
C48E C 0.4837(3) 0.28601(15) 0.1041(3)
H20E H 0.4820 0.2963 0.0605
H21E H 0.4464 0.2792 0.0928
C49E C 0.1755(3) 0.29344(16) 0.0335(3)
H22E H 0.1458 0.2957 0.0452
H23E H 0.1789 0.3180 0.0140
O27E O 0.3333(3) 0.4007(2) 0.4052(4)
C51E C 0.5169(3) 0.25063(18) 0.1239(4)
H26E H 0.5196 0.2404 0.1682
H27E H 0.5540 0.2569 0.1332
O28E O 0.6902(3) 0.29959(17) 0.3976(4)
C53E C 0.4477(3) 0.18757(17) 0.2468(4)
H30E H 0.4767 0.2017 0.2434
H31E H 0.4638 0.1762 0.2945
N1E N 0.6244(3) 0.1967(2) 0.4349(4)
C55E C 0.2451(3) 0.3625(2) -0.0869(4)
H34E H 0.2383 0.3877 -0.1095
H35E H 0.2234 0.3603 -0.0623
O30E O 0.5837(4) 0.4486(2) 0.1334(4)
O31E O 0.5616(5) 0.4491(2) 0.3197(5)
O32E O 0.5992(5) 0.3998(2) 0.4127(6)
C56E C 0.1614(4) 0.2628(2) -0.0222(4)
H36E H 0.1274 0.2693 -0.0644
H37E H 0.1572 0.2385 -0.0034
H38E H 0.1903 0.2608 -0.0347
O33E O 0.2341(4) 0.3016(2) 0.3906(5)
C57E C 0.6155(4) 0.2313(2) 0.4427(5)
C58E C 0.4281(4) 0.1562(2) 0.1927(5)
H39E H 0.4584 0.1395 0.2013
H40E H 0.4130 0.1671 0.1452
H41E H 0.4001 0.1415 0.1964
C60E C 0.6129(5) 0.1810(3) 0.3651(7)
H45E H 0.6224 0.1541 0.3703
H46E H 0.6342 0.1946 0.3476
H47E H 0.5743 0.1839 0.3315
C61E C 0.2287(5) 0.3333(4) -0.1408(7)
H48E H 0.1902 0.3361 -0.1746
H49E H 0.2350 0.3083 -0.1185
H50E H 0.2499 0.3357 -0.1655
C63E C 0.6411(10) 0.1723(7) 0.4942(13)
H53E H 0.6465 0.1467 0.4814
H54E H 0.6132 0.1718 0.5087
H55E H 0.6750 0.1817 0.5333
C64E C 0.4944(7) 0.2212(4) 0.0689(7)
H56E H 0.5178 0.1988 0.0848
H57E H 0.4924 0.2308 0.0253
H58E H 0.4581 0.2143 0.0602
loop_
_geom_bond_atom_site_label_1
_geom_bond_atom_site_label_2
_geom_bond_site_symmetry_1
_geom_bond_site_symmetry_2
Mg1 O6 1_555 1_555
Mg2 O10 1_555 1_555
Mg3 O3 1_555 1_555
Mg4 O9 1_555 1_555
Mg5 O12 1_555 1_555
Mg6 O5 1_555 1_555
Mg7 O1 1_555 1_555
O1 C3 1_555 1_555
O2 C27 1_555 1_555
O3 C4 1_555 1_555
O4 C19 1_555 1_555
O5 C6 1_555 1_555
O6 Mg3 1_555 1_555
O7 Mg1 1_555 1_555
O8 C11 1_555 1_555
O9 C32 1_555 1_555
O10 C35 1_555 1_555
O11 Mg7 1_555 1_555
O12 C24 1_555 1_555
O13 Mg6 1_555 1_555
O14 Mg2 1_555 1_555
O15 Mg5 1_555 1_555
O16 C5 1_555 1_555
O17 Mg2 1_555 1_555
O18 Mg6 1_555 1_555
O19 Mg4 1_555 1_555
O20 Mg1 1_555 1_555
O21 Mg5 1_555 1_555
O22 Mg3 1_555 1_555
C1 C2 1_555 1_555
C2 H1 1_555 1_555
C3 C23 1_555 1_555
C4 C22 1_555 1_555
C5 C11 1_555 1_555
C6 C16 1_555 1_555
C7 H2 1_555 1_555
C8 H3 1_555 1_555
C9 C7 1_555 1_555
O23 Mg4 1_555 1_555
C10 C14 1_555 1_555
C11 C33 1_555 1_555
C12 C8 1_555 1_555
C13 C19 1_555 1_555
C14 H4 1_555 1_555
C15 H5 1_555 1_555
C16 O14 1_555 1_555
C17 H6 1_555 1_555
C18 C9 1_555 1_555
H7 C18 1_555 1_555
C19 C28 1_555 1_555
C20 C1 1_555 1_555
H8 C20 1_555 1_555
C21 O7 1_555 1_555
C22 C2 1_555 1_555
C23 C14 1_555 1_555
C24 C31 1_555 1_555
C25 O11 1_555 1_555
C26 O6 1_555 1_555
C27 C10 1_555 1_555
C28 O18 1_555 1_555
C29 C13 1_555 1_555
H9 C29 1_555 1_555
C30 H10 1_555 1_555
C31 C8 1_555 1_555
C32 C12 1_555 1_555
C33 C15 1_555 1_555
C34 C6 1_555 1_555
C35 C9 1_555 1_555
C36 C30 1_555 1_555
C37 C29 1_555 1_555
C38 C31 1_555 1_555
H11 C38 1_555 1_555
C39 O13 1_555 1_555
C40 C17 1_555 1_555
H12 C40 1_555 1_555
H13 C40 1_555 1_555
C41 O15 1_555 1_555
C42 O19 1_555 1_555
C43 C13 1_555 1_555
H14 C43 1_555 1_555
C44 C18 1_555 1_555
H15 C44 1_555 1_555
H16 C44 1_555 1_555
C45 O21 1_555 1_555
O24 Mg2 1_555 1_555
O25 Mg1 1_555 1_555
O26 Mg3 1_555 1_555
C46 C36 1_555 1_555
H17 C46 1_555 1_555
C47 C20 1_555 1_555
H18 C47 1_555 1_555
H19 C47 1_555 1_555
C48 C38 1_555 1_555
H20 C48 1_555 1_555
H21 C48 1_555 1_555
C49 C40 1_555 1_555
H22 C49 1_555 1_555
H23 C49 1_555 1_555
C50 C43 1_555 1_555
H24 C50 1_555 1_555
H25 C50 1_555 1_555
O27 Mg7 1_555 1_555
C51 C48 1_555 1_555
H26 C51 1_555 1_555
H27 C51 1_555 1_555
C52 C46 1_555 1_555
H28 C52 1_555 1_555
H29 C52 1_555 1_555
O28 Mg6 1_555 1_555
O29 Mg4 1_555 1_555
C53 C44 1_555 1_555
H30 C53 1_555 1_555
H31 C53 1_555 1_555
N1 C57 1_555 1_555
C54 C50 1_555 1_555
H32 C54 1_555 1_555
H33 C54 1_555 1_555
C55 C47 1_555 1_555
H34 C55 1_555 1_555
H35 C55 1_555 1_555
O30 Mg5 1_555 1_555
O31 Mg5 1_555 1_555
O32 Mg6 1_555 1_555
C56 C49 1_555 1_555
H36 C56 1_555 1_555
H37 C56 1_555 1_555
H38 C56 1_555 1_555
O33 Mg7 1_555 1_555
C57 O17 1_555 1_555
C58 C53 1_555 1_555
H39 C58 1_555 1_555
H40 C58 1_555 1_555
H41 C58 1_555 1_555
C59 C54 1_555 1_555
H42 C59 1_555 1_555
H43 C59 1_555 1_555
H44 C59 1_555 1_555
C60 N1 1_555 1_555
H45 C60 1_555 1_555
H46 C60 1_555 1_555
H47 C60 1_555 1_555
C61 C55 1_555 1_555
H48 C61 1_555 1_555
H49 C61 1_555 1_555
H50 C61 1_555 1_555
C62 C52 1_555 1_555
H51 C62 1_555 1_555
H52 C62 1_555 1_555
C63 N1 1_555 1_555
H53 C63 1_555 1_555
H54 C63 1_555 1_555
H55 C63 1_555 1_555
C64 C51 1_555 1_555
H56 C64 1_555 1_555
H57 C64 1_555 1_555
H58 C64 1_555 1_555
C65 C62 1_555 1_555
H59 C65 1_555 1_555
H60 C65 1_555 1_555
H61 C65 1_555 1_555
O4E C19E 1_555 1_555
O8E C11E 1_555 1_555
O13E C39E 1_555 1_555
O15E C41E 1_555 1_555
O18E C28E 1_555 1_555
C11E C5 1_555 1_555
C13E C19E 1_555 1_555
C19E C28E 1_555 1_555
C28E C39E 1_555 1_555
C29E C13E 1_555 1_555
H9E C29E 1_555 1_555
C33E C15 1_555 1_555
C36E C30 1_555 1_555
C37E C29E 1_555 1_555
C39E C37E 1_555 1_555
C41E C45 1_555 1_555
C43E C13E 1_555 1_555
H14E C43E 1_555 1_555
C46E C36E 1_555 1_555
H17E C46E 1_555 1_555
C50E C43E 1_555 1_555
H24E C50E 1_555 1_555
H25E C50E 1_555 1_555
C52E C46E 1_555 1_555
H28E C52E 1_555 1_555
H29E C52E 1_555 1_555
C54E C50E 1_555 1_555
H32E C54E 1_555 1_555
H33E C54E 1_555 1_555
C59E C54E 1_555 1_555
H42E C59E 1_555 1_555
H43E C59E 1_555 1_555
H44E C59E 1_555 1_555
C62E C52E 1_555 1_555
H51E C62E 1_555 1_555
H52E C62E 1_555 1_555
C65E C62E 1_555 1_555
H59E C65E 1_555 1_555
H60E C65E 1_555 1_555
H61E C65E 1_555 1_555
Mg1A O6A 1_555 1_555
Mg2A O2 1_555 1_555
Mg3A O8 1_555 1_555
Mg4A O9A 1_555 1_555
Mg5A O12A 1_555 1_555
Mg6A O5A 1_555 1_555
Mg7A O4 1_555 1_555
O1A Mg7A 1_555 1_555
O2A Mg2 1_555 1_555
O3A Mg3A 1_555 1_555
O4A Mg7 1_555 1_555
O5A C6A 1_555 1_555
O6A Mg3A 1_555 1_555
O7A Mg1A 1_555 1_555
O8A Mg3 1_555 1_555
O9A C32A 1_555 1_555
O10A Mg2A 1_555 1_555
O11A Mg2 1_555 1_555
O12A C24A 1_555 1_555
O13A Mg6A 1_555 1_555
O14A Mg2A 1_555 1_555
O15A Mg5A 1_555 1_555
O16A Mg3 1_555 1_555
O17A Mg2A 1_555 1_555
O18A Mg7 1_555 1_555
O19A Mg4A 1_555 1_555
O20A Mg1A 1_555 1_555
O21A Mg5A 1_555 1_555
O22A Mg3A 1_555 1_555
C1A C2A 1_555 1_555
C2A H1A 1_555 1_555
C3A O1A 1_555 1_555
C4A O3A 1_555 1_555
C5A O16A 1_555 1_555
C6A C16A 1_555 1_555
C7A H2A 1_555 1_555
C8A H3A 1_555 1_555
C9A C7A 1_555 1_555
O23A Mg4A 1_555 1_555
C10A C14A 1_555 1_555
C11A O8A 1_555 1_555
C12A C8A 1_555 1_555
C13A C19A 1_555 1_555
C14A H4A 1_555 1_555
C15A H5A 1_555 1_555
C16A O14A 1_555 1_555
C17A H6A 1_555 1_555
C18A C9A 1_555 1_555
H7A C18A 1_555 1_555
C19A O4A 1_555 1_555
C20A C1A 1_555 1_555
H8A C20A 1_555 1_555
C21A O7A 1_555 1_555
C22A C2A 1_555 1_555
C23A C3A 1_555 1_555
C24A C31A 1_555 1_555
C25A O11A 1_555 1_555
C26A O6A 1_555 1_555
C27A O2A 1_555 1_555
C28A O18A 1_555 1_555
C29A C13A 1_555 1_555
H9A C29A 1_555 1_555
C30A H10A 1_555 1_555
C31A C8A 1_555 1_555
C32A C12A 1_555 1_555
C33A C11A 1_555 1_555
C34A C6A 1_555 1_555
C35A O10A 1_555 1_555
C36A C30A 1_555 1_555
C37A C29A 1_555 1_555
C38A C31A 1_555 1_555
H11A C38A 1_555 1_555
C39A O13A 1_555 1_555
C40A C17A 1_555 1_555
H12A C40A 1_555 1_555
H13A C40A 1_555 1_555
C41A O15A 1_555 1_555
C42A O19A 1_555 1_555
C43A C13A 1_555 1_555
H14A C43A 1_555 1_555
C44A C18A 1_555 1_555
H15A C44A 1_555 1_555
H16A C44A 1_555 1_555
C45A O21A 1_555 1_555
O24A Mg2A 1_555 1_555
O25A Mg1A 1_555 1_555
O26A Mg3A 1_555 1_555
C46A C36A 1_555 1_555
H17A C46A 1_555 1_555
C47A C20A 1_555 1_555
H18A C47A 1_555 1_555
H19A C47A 1_555 1_555
C48A C38A 1_555 1_555
H20A C48A 1_555 1_555
H21A C48A 1_555 1_555
C49A C40A 1_555 1_555
H22A C49A 1_555 1_555
H23A C49A 1_555 1_555
C50A C43A 1_555 1_555
H24A C50A 1_555 1_555
H25A C50A 1_555 1_555
O27A Mg7A 1_555 1_555
C51A C48A 1_555 1_555
H26A C51A 1_555 1_555
H27A C51A 1_555 1_555
C52A C46A 1_555 1_555
H28A C52A 1_555 1_555
H29A C52A 1_555 1_555
O28A Mg6A 1_555 1_555
O29A Mg4A 1_555 1_555
C53A C44A 1_555 1_555
H30A C53A 1_555 1_555
H31A C53A 1_555 1_555
N1A C57A 1_555 1_555
C54A C50A 1_555 1_555
H32A C54A 1_555 1_555
H33A C54A 1_555 1_555
C55A C47A 1_555 1_555
H34A C55A 1_555 1_555
H35A C55A 1_555 1_555
O30A Mg5A 1_555 1_555
O31A Mg5A 1_555 1_555
O32A Mg6A 1_555 1_555
C56A C49A 1_555 1_555
H36A C56A 1_555 1_555
H37A C56A 1_555 1_555
H38A C56A 1_555 1_555
O33A Mg7A 1_555 1_555
C57A O17A 1_555 1_555
C58A C53A 1_555 1_555
H39A C58A 1_555 1_555
H40A C58A 1_555 1_555
H41A C58A 1_555 1_555
C59A C54A 1_555 1_555
H42A C59A 1_555 1_555
H43A C59A 1_555 1_555
H44A C59A 1_555 1_555
C60A N1A 1_555 1_555
H45A C60A 1_555 1_555
H46A C60A 1_555 1_555
H47A C60A 1_555 1_555
C61A C55A 1_555 1_555
H48A C61A 1_555 1_555
H49A C61A 1_555 1_555
H50A C61A 1_555 1_555
C62A C52A 1_555 1_555
H51A C62A 1_555 1_555
H52A C62A 1_555 1_555
C63A N1A 1_555 1_555
H53A C63A 1_555 1_555
H54A C63A 1_555 1_555
H55A C63A 1_555 1_555
C64A C51A 1_555 1_555
H56A C64A 1_555 1_555
H57A C64A 1_555 1_555
H58A C64A 1_555 1_555
C65A C62A 1_555 1_555
H59A C65A 1_555 1_555
H60A C65A 1_555 1_555
H61A C65A 1_555 1_555
O4D C19D 1_555 1_555
O8D C11D 1_555 1_555
O13D C39D 1_555 1_555
O15D C41D 1_555 1_555
O18D C28D 1_555 1_555
C11D C5A 1_555 1_555
C13D C19D 1_555 1_555
C19D C28D 1_555 1_555
C28D C39D 1_555 1_555
C29D C13D 1_555 1_555
H9D C29D 1_555 1_555
C33D C15A 1_555 1_555
C36D C30A 1_555 1_555
C37D C29D 1_555 1_555
C39D C37D 1_555 1_555
C41D C45A 1_555 1_555
C43D C13D 1_555 1_555
H14D C43D 1_555 1_555
C46D C36D 1_555 1_555
H17D C46D 1_555 1_555
C50D C43D 1_555 1_555
H24D C50D 1_555 1_555
H25D C50D 1_555 1_555
C52D C46D 1_555 1_555
H28D C52D 1_555 1_555
H29D C52D 1_555 1_555
C54D C50D 1_555 1_555
H32D C54D 1_555 1_555
H33D C54D 1_555 1_555
C59D C54D 1_555 1_555
H42D C59D 1_555 1_555
H43D C59D 1_555 1_555
H44D C59D 1_555 1_555
C62D C52D 1_555 1_555
H51D C62D 1_555 1_555
H52D C62D 1_555 1_555
C65D C62D 1_555 1_555
H59D C65D 1_555 1_555
H60D C65D 1_555 1_555
H61D C65D 1_555 1_555
Mg2D O10D 1_555 1_555
Mg3D O16 1_555 1_555
Mg5D O21A 1_555 1_555
Mg6D O13D 1_555 1_555
Mg7D O4E 1_555 1_555
O1D Mg7D 1_555 1_555
O2D C27D 1_555 1_555
O3D Mg3D 1_555 1_555
O5D Mg6D 1_555 1_555
O6D Mg1A 1_555 1_555
O7D Mg1A 1_555 1_555
O9D Mg4A 1_555 1_555
O10D C35D 1_555 1_555
O11D Mg7D 1_555 1_555
O12D Mg5D 1_555 1_555
O14D Mg2D 1_555 1_555
O17D Mg2D 1_555 1_555
O19D Mg4A 1_555 1_555
O22D Mg3D 1_555 1_555
C1D C2D 1_555 1_555
C2D H1D 1_555 1_555
C3D O1D 1_555 1_555
C4D O3D 1_555 1_555
C6D O5D 1_555 1_555
C7D H2D 1_555 1_555
C8D H3D 1_555 1_555
C9D C7D 1_555 1_555
C10D C14D 1_555 1_555
C12D C8D 1_555 1_555
C14D H4D 1_555 1_555
C16D O14D 1_555 1_555
C17D H6D 1_555 1_555
C18D C9D 1_555 1_555
H7D C18D 1_555 1_555
C20D C1D 1_555 1_555
H8D C20D 1_555 1_555
C21D O7D 1_555 1_555
C22D C2D 1_555 1_555
C23D C3D 1_555 1_555
C24D O12D 1_555 1_555
C25D O11D 1_555 1_555
C26D O6D 1_555 1_555
C27D C10D 1_555 1_555
C31D C8D 1_555 1_555
C32D O9D 1_555 1_555
C34D C6D 1_555 1_555
C35D C9D 1_555 1_555
C38D C31D 1_555 1_555
H11D C38D 1_555 1_555
C40D C17D 1_555 1_555
H12D C40D 1_555 1_555
H13D C40D 1_555 1_555
C42D O19D 1_555 1_555
C44D C18D 1_555 1_555
H15D C44D 1_555 1_555
H16D C44D 1_555 1_555
O24D Mg2D 1_555 1_555
O26D Mg3D 1_555 1_555
C47D C20D 1_555 1_555
H18D C47D 1_555 1_555
H19D C47D 1_555 1_555
C48D C38D 1_555 1_555
H20D C48D 1_555 1_555
H21D C48D 1_555 1_555
C49D C40D 1_555 1_555
H22D C49D 1_555 1_555
H23D C49D 1_555 1_555
O27D Mg7D 1_555 1_555
C51D C48D 1_555 1_555
H26D C51D 1_555 1_555
H27D C51D 1_555 1_555
O28D Mg6D 1_555 1_555
C53D C44D 1_555 1_555
H30D C53D 1_555 1_555
H31D C53D 1_555 1_555
N1D C57D 1_555 1_555
C55D C47D 1_555 1_555
H34D C55D 1_555 1_555
H35D C55D 1_555 1_555
O30D Mg5D 1_555 1_555
O31D Mg5D 1_555 1_555
O32D Mg6D 1_555 1_555
C56D C49D 1_555 1_555
H36D C56D 1_555 1_555
H37D C56D 1_555 1_555
H38D C56D 1_555 1_555
O33D Mg7D 1_555 1_555
C57D O17D 1_555 1_555
C58D C53D 1_555 1_555
H39D C58D 1_555 1_555
H40D C58D 1_555 1_555
H41D C58D 1_555 1_555
C60D N1D 1_555 1_555
H45D C60D 1_555 1_555
H46D C60D 1_555 1_555
H47D C60D 1_555 1_555
C61D C55D 1_555 1_555
H48D C61D 1_555 1_555
H49D C61D 1_555 1_555
H50D C61D 1_555 1_555
C63D N1D 1_555 1_555
H53D C63D 1_555 1_555
H54D C63D 1_555 1_555
H55D C63D 1_555 1_555
C64D C51D 1_555 1_555
H56D C64D 1_555 1_555
H57D C64D 1_555 1_555
H58D C64D 1_555 1_555
Mg2E O2D 1_555 1_555
Mg3E O16A 1_555 1_555
Mg5E O21 1_555 1_555
Mg6E O13E 1_555 1_555
Mg7E O4D 1_555 1_555
O1E Mg7E 1_555 1_555
O2E Mg2D 1_555 1_555
O3E Mg3E 1_555 1_555
O5E Mg6E 1_555 1_555
O6E Mg1 1_555 1_555
O7E Mg1 1_555 1_555
O9E Mg4 1_555 1_555
O10E Mg2E 1_555 1_555
O11E Mg2D 1_555 1_555
O12E Mg5E 1_555 1_555
O14E Mg2E 1_555 1_555
O17E Mg2E 1_555 1_555
O19E Mg4 1_555 1_555
O22E Mg3E 1_555 1_555
C1E C2E 1_555 1_555
C2E H1E 1_555 1_555
C3E O1E 1_555 1_555
C4E O3E 1_555 1_555
C6E O5E 1_555 1_555
C7E H2E 1_555 1_555
C8E H3E 1_555 1_555
C9E C7E 1_555 1_555
C10E C14E 1_555 1_555
C12E C8E 1_555 1_555
C14E H4E 1_555 1_555
C16E O14E 1_555 1_555
C17E H6E 1_555 1_555
C18E C9E 1_555 1_555
H7E C18E 1_555 1_555
C20E C1E 1_555 1_555
H8E C20E 1_555 1_555
C21E O7E 1_555 1_555
C22E C2E 1_555 1_555
C23E C3E 1_555 1_555
C24E O12E 1_555 1_555
C25E O11E 1_555 1_555
C26E O6E 1_555 1_555
C27E O2E 1_555 1_555
C31E C8E 1_555 1_555
C32E O9E 1_555 1_555
C34E C6E 1_555 1_555
C35E O10E 1_555 1_555
C38E C31E 1_555 1_555
H11E C38E 1_555 1_555
C40E C17E 1_555 1_555
H12E C40E 1_555 1_555
H13E C40E 1_555 1_555
C42E O19E 1_555 1_555
C44E C18E 1_555 1_555
H15E C44E 1_555 1_555
H16E C44E 1_555 1_555
O24E Mg2E 1_555 1_555
O26E Mg3E 1_555 1_555
C47E C20E 1_555 1_555
H18E C47E 1_555 1_555
H19E C47E 1_555 1_555
C48E C38E 1_555 1_555
H20E C48E 1_555 1_555
H21E C48E 1_555 1_555
C49E C40E 1_555 1_555
H22E C49E 1_555 1_555
H23E C49E 1_555 1_555
O27E Mg7E 1_555 1_555
C51E C48E 1_555 1_555
H26E C51E 1_555 1_555
H27E C51E 1_555 1_555
O28E Mg6E 1_555 1_555
C53E C44E 1_555 1_555
H30E C53E 1_555 1_555
H31E C53E 1_555 1_555
N1E C57E 1_555 1_555
C55E C47E 1_555 1_555
H34E C55E 1_555 1_555
H35E C55E 1_555 1_555
O30E Mg5E 1_555 1_555
O31E Mg5E 1_555 1_555
O32E Mg6E 1_555 1_555
C56E C49E 1_555 1_555
H36E C56E 1_555 1_555
H37E C56E 1_555 1_555
H38E C56E 1_555 1_555
O33E Mg7E 1_555 1_555
C57E O17E 1_555 1_555
C58E C53E 1_555 1_555
H39E C58E 1_555 1_555
H40E C58E 1_555 1_555
H41E C58E 1_555 1_555
C60E N1E 1_555 1_555
H45E C60E 1_555 1_555
H46E C60E 1_555 1_555
H47E C60E 1_555 1_555
C61E C55E 1_555 1_555
H48E C61E 1_555 1_555
H49E C61E 1_555 1_555
H50E C61E 1_555 1_555
C63E N1E 1_555 1_555
H53E C63E 1_555 1_555
H54E C63E 1_555 1_555
H55E C63E 1_555 1_555
C64E C51E 1_555 1_555
H56E C64E 1_555 1_555
H57E C64E 1_555 1_555
H58E C64E 1_555 1_555
Mg5 O19 1_555 1_555
Mg6 O14 1_555 1_555
O11 Mg2A 1_555 1_555
O16 Mg3A 1_555 1_555
O18 Mg7A 1_555 1_555
C1 C21 1_555 1_555
C3 C25 1_555 1_555
C4 C26 1_555 1_555
C7 C34 1_555 1_555
C10 C18 1_555 1_555
C12 C20 1_555 1_555
C16 C35 1_555 1_555
C17 C22 1_555 1_555
C17 C23 1_555 1_555
C21 C26 1_555 1_555
C24 C42 1_555 1_555
C25 C27 1_555 1_555
C28 C39 1_555 1_555
C32 C42 1_555 1_555
C33 C43 1_555 1_555
C34 C38 1_555 1_555
C36 C41 1_555 1_555
C37 C39 1_555 1_555
C37 C46 1_555 1_555
C41 C45 1_555 1_555
O8E Mg3D 1_555 1_555
O15E Mg5E 1_555 1_555
O18E Mg7D 1_555 1_555
O18E Mg6E 1_555 1_555
C11E C33E 1_555 1_555
C33E C43E 1_555 1_555
C36E C41E 1_555 1_555
C37E C46E 1_555 1_555
Mg5A O19A 1_555 1_555
Mg6A O14A 1_555 1_555
Mg6A O18A 1_555 1_555
Mg7A O11A 1_555 1_555
C1A C21A 1_555 1_555
C3A C25A 1_555 1_555
C4A C22A 1_555 1_555
C4A C26A 1_555 1_555
C5A C11A 1_555 1_555
C7A C34A 1_555 1_555
C9A C35A 1_555 1_555
C10A C18A 1_555 1_555
C10A C27A 1_555 1_555
C12A C20A 1_555 1_555
C14A C23A 1_555 1_555
C15A C33A 1_555 1_555
C16A C35A 1_555 1_555
C17A C22A 1_555 1_555
C17A C23A 1_555 1_555
C19A C28A 1_555 1_555
C21A C26A 1_555 1_555
C24A C42A 1_555 1_555
C25A C27A 1_555 1_555
C28A C39A 1_555 1_555
C32A C42A 1_555 1_555
C33A C43A 1_555 1_555
C34A C38A 1_555 1_555
C36A C41A 1_555 1_555
C37A C39A 1_555 1_555
C37A C46A 1_555 1_555
C41A C45A 1_555 1_555
O8D Mg3E 1_555 1_555
O15D Mg5D 1_555 1_555
O18D Mg6D 1_555 1_555
O18D Mg7E 1_555 1_555
C11D C33D 1_555 1_555
C33D C43D 1_555 1_555
C36D C41D 1_555 1_555
C37D C46D 1_555 1_555
Mg3D O6D 1_555 1_555
Mg5D O19D 1_555 1_555
Mg6D O14D 1_555 1_555
O11D Mg2E 1_555 1_555
C1D C21D 1_555 1_555
C3D C25D 1_555 1_555
C4D C22D 1_555 1_555
C4D C26D 1_555 1_555
C6D C16D 1_555 1_555
C7D C34D 1_555 1_555
C10D C18D 1_555 1_555
C12D C20D 1_555 1_555
C12D C32D 1_555 1_555
C14D C23D 1_555 1_555
C16D C35D 1_555 1_555
C17D C22D 1_555 1_555
C17D C23D 1_555 1_555
C21D C26D 1_555 1_555
C24D C31D 1_555 1_555
C24D C42D 1_555 1_555
C25D C27D 1_555 1_555
C32D C42D 1_555 1_555
C34D C38D 1_555 1_555
Mg3E O6E 1_555 1_555
Mg5E O19E 1_555 1_555
Mg6E O14E 1_555 1_555
Mg7E O11E 1_555 1_555
C1E C21E 1_555 1_555
C3E C25E 1_555 1_555
C4E C22E 1_555 1_555
C4E C26E 1_555 1_555
C6E C16E 1_555 1_555
C7E C34E 1_555 1_555
C9E C35E 1_555 1_555
C10E C18E 1_555 1_555
C10E C27E 1_555 1_555
C12E C20E 1_555 1_555
C12E C32E 1_555 1_555
C14E C23E 1_555 1_555
C16E C35E 1_555 1_555
C17E C22E 1_555 1_555
C17E C23E 1_555 1_555
C21E C26E 1_555 1_555
C24E C31E 1_555 1_555
C24E C42E 1_555 1_555
C25E C27E 1_555 1_555
C32E C42E 1_555 1_555
C34E C38E 1_555 1_555

#END
