
#######################################################################
#
#                 Cambridge Crystallographic Data Centre
#                                CCDC 
#
#######################################################################
#
# If this CIF has been generated from an entry in the Cambridge 
# Structural Database, then it will include bibliographic, chemical, 
# crystal, experimental, refinement or atomic coordinate data resulting 
# from the CCDC's data processing and validation procedures.
#
#######################################################################

data_NAPTUW
_chemical_formula_moiety         'C41 H28 O1'
_chemical_name_systematic        
'13f-methyl-1,14-diphenyl-13b,13f-dihydro-9,8-(prop[1]en[1]yl[3]ylidene)dibenzo[cd,f]benzo[4,5]pentaleno[2,1,6-ija]azulen-13e(9aH)-ol unknown solvate'
_symmetry_cell_setting           monoclinic
_symmetry_space_group_name_H-M   'C 2/c'
_symmetry_Int_Tables_number      15
_space_group_name_Hall           '-C 2yn'
loop_
_symmetry_equiv_pos_site_id
_symmetry_equiv_pos_as_xyz
1 x,y,z
2 -x,y,1/2-z
3 1/2+x,1/2+y,z
4 1/2-x,1/2+y,1/2-z
5 -x,-y,-z
6 x,-y,1/2+z
7 1/2-x,1/2-y,-z
8 1/2+x,1/2-y,1/2+z
_cell_length_a                   23.6823(14)
_cell_length_b                   14.1831(8)
_cell_length_c                   19.4393(10)
_cell_angle_alpha                90
_cell_angle_beta                 101.9212(17)
_cell_angle_gamma                90
_cell_volume                     6388.61
_exptl_crystal_colour            colorless
_exptl_crystal_description       block
_cell_formula_units_Z            8
loop_
_atom_site_label
_atom_site_type_symbol
_atom_site_fract_x
_atom_site_fract_y
_atom_site_fract_z
O1 O 0.46740(6) 0.49657(10) 0.43148(8)
C1 C 0.51045(10) 0.31378(18) 0.44999(13)
H1 H 0.5240 0.3442 0.4944
H2 H 0.5275 0.3433 0.4148
H3 H 0.5211 0.2484 0.4537
C2 C 0.31633(10) 0.51204(16) 0.52792(11)
H4 H 0.2939 0.5639 0.5343
C3 C 0.35166(9) 0.51696(15) 0.47887(10)
C4 C 0.41571(9) 0.27545(15) 0.48597(10)
H5 H 0.4450 0.2528 0.5257
C5 C 0.44552(9) 0.32228(15) 0.42969(10)
C6 C 0.38255(9) 0.19295(14) 0.44802(11)
C7 C 0.35539(11) 0.12053(16) 0.47593(12)
H6 H 0.3537 0.1212 0.5233
C8 C 0.33073(11) 0.04721(16) 0.43345(13)
H7 H 0.3124 -0.0015 0.4522
C9 C 0.38544(9) 0.19114(14) 0.37706(10)
C10 C 0.33325(11) 0.04613(17) 0.36340(13)
H8 H 0.3162 -0.0032 0.3350
C11 C 0.36072(11) 0.11738(16) 0.33475(12)
H9 H 0.3626 0.1158 0.2875
C12 C 0.35371(10) 0.34317(16) 0.24288(10)
C13 C 0.38594(9) 0.34895(15) 0.31216(10)
C14 C 0.42018(9) 0.27312(15) 0.35781(10)
H10 H 0.4515 0.2500 0.3362
C15 C 0.35307(9) 0.60253(14) 0.43605(11)
C16 C 0.32062(12) 0.42124(18) 0.21712(12)
H11 H 0.2979 0.4184 0.1720
C17 C 0.32002(12) 0.50265(17) 0.25541(11)
H12 H 0.2967 0.5527 0.2361
C18 C 0.35139(10) 0.69012(16) 0.46788(12)
H13 H 0.3492 0.6924 0.5151
C19 C 0.35280(12) 0.77313(17) 0.43205(14)
H14 H 0.3519 0.8306 0.4548
C20 C 0.35558(14) 0.77055(19) 0.36186(15)
H15 H 0.3573 0.8263 0.3372
C21 C 0.35574(13) 0.68513(18) 0.32876(13)
H16 H 0.3566 0.6842 0.2812
C22 C 0.35464(10) 0.60019(15) 0.36370(11)
C23 C 0.35402(10) 0.51110(15) 0.32311(11)
C24 C 0.40898(13) 0.22563(19) 0.18845(13)
H17 H 0.4428 0.2554 0.2108
C25 C 0.38646(9) 0.43227(15) 0.34920(10)
C26 C 0.38425(9) 0.43645(14) 0.47302(10)
C27 C 0.42305(9) 0.42567(14) 0.42180(10)
C28 C 0.34511(10) 0.35121(16) 0.55959(10)
C29 C 0.41214(16) 0.1475(2) 0.14705(15)
H18 H 0.4479 0.1249 0.1420
C30 C 0.35619(11) 0.26037(16) 0.19717(10)
C31 C 0.38019(9) 0.35348(14) 0.51002(10)
C32 C 0.3628(2) 0.1035(2) 0.11358(15)
H19 H 0.3649 0.0502 0.0864
C33 C 0.30720(13) 0.2158(2) 0.16145(13)
H20 H 0.2711 0.2386 0.1653
C34 C 0.31079(18) 0.1378(2) 0.12004(16)
H21 H 0.2772 0.1086 0.0964
C35 C 0.31398(11) 0.43189(16) 0.56705(11)
H22 H 0.2905 0.4319 0.5999
C36 C 0.38558(15) 0.2232(2) 0.64407(12)
H23 H 0.4226 0.2455 0.6446
C37 C 0.3222(2) 0.1114(2) 0.68300(18)
H24 H 0.3167 0.0583 0.7089
C38 C 0.28350(15) 0.2338(2) 0.60521(15)
H25 H 0.2513 0.2645 0.5794
C39 C 0.33834(12) 0.26719(17) 0.60369(11)
C40 C 0.3773(2) 0.1440(2) 0.68461(15)
H26 H 0.4088 0.1138 0.7123
C41 C 0.2763(2) 0.1557(2) 0.64452(19)
H27 H 0.2393 0.1334 0.6444
loop_
_geom_bond_atom_site_label_1
_geom_bond_atom_site_label_2
_geom_bond_site_symmetry_1
_geom_bond_site_symmetry_2
O1 C27 1_555 1_555
C1 H1 1_555 1_555
H2 C1 1_555 1_555
H3 C1 1_555 1_555
C2 H4 1_555 1_555
C3 C2 1_555 1_555
C4 H5 1_555 1_555
C5 C1 1_555 1_555
C6 C4 1_555 1_555
C7 C6 1_555 1_555
H6 C7 1_555 1_555
C8 C7 1_555 1_555
H7 C8 1_555 1_555
C9 C6 1_555 1_555
C10 C8 1_555 1_555
H8 C10 1_555 1_555
C11 C9 1_555 1_555
H9 C11 1_555 1_555
C12 C13 1_555 1_555
C13 C14 1_555 1_555
C14 C5 1_555 1_555
H10 C14 1_555 1_555
C15 C3 1_555 1_555
C16 C12 1_555 1_555
H11 C16 1_555 1_555
C17 C16 1_555 1_555
H12 C17 1_555 1_555
C18 C15 1_555 1_555
H13 C18 1_555 1_555
C19 C18 1_555 1_555
H14 C19 1_555 1_555
C20 C19 1_555 1_555
H15 C20 1_555 1_555
C21 C20 1_555 1_555
H16 C21 1_555 1_555
C22 C15 1_555 1_555
C23 C17 1_555 1_555
C24 H17 1_555 1_555
C25 C13 1_555 1_555
C26 C3 1_555 1_555
C27 C5 1_555 1_555
C28 C31 1_555 1_555
C29 C24 1_555 1_555
H18 C29 1_555 1_555
C30 C12 1_555 1_555
C31 C4 1_555 1_555
C32 C29 1_555 1_555
H19 C32 1_555 1_555
C33 C30 1_555 1_555
H20 C33 1_555 1_555
C34 C32 1_555 1_555
H21 C34 1_555 1_555
C35 C2 1_555 1_555
H22 C35 1_555 1_555
C36 H23 1_555 1_555
C37 H24 1_555 1_555
C38 H25 1_555 1_555
C39 C28 1_555 1_555
C40 C36 1_555 1_555
H26 C40 1_555 1_555
C41 C37 1_555 1_555
H27 C41 1_555 1_555
C4 C5 1_555 1_555
C9 C14 1_555 1_555
C10 C11 1_555 1_555
C21 C22 1_555 1_555
C22 C23 1_555 1_555
C23 C25 1_555 1_555
C24 C30 1_555 1_555
C25 C27 1_555 1_555
C26 C27 1_555 1_555
C26 C31 1_555 1_555
C28 C35 1_555 1_555
C33 C34 1_555 1_555
C36 C39 1_555 1_555
C37 C40 1_555 1_555
C38 C39 1_555 1_555
C38 C41 1_555 1_555

#END
