
#######################################################################
#
#                 Cambridge Crystallographic Data Centre
#                                CCDC 
#
#######################################################################
#
# If this CIF has been generated from an entry in the Cambridge 
# Structural Database, then it will include bibliographic, chemical, 
# crystal, experimental, refinement or atomic coordinate data resulting 
# from the CCDC's data processing and validation procedures.
#
#######################################################################

data_NAPYUA
_chemical_formula_moiety         'C44 H52 Si2'
_chemical_name_systematic        
(Naphtho[7,8,1,2,3-nopqr]tetraphene-6,12-diyldiethyne-2,1-diyl)bis(triisopropylsilane)
_symmetry_cell_setting           triclinic
_symmetry_space_group_name_H-M   'P -1'
_symmetry_Int_Tables_number      2
_space_group_name_Hall           '-P 1'
loop_
_symmetry_equiv_pos_site_id
_symmetry_equiv_pos_as_xyz
1 x,y,z
2 -x,-y,-z
_cell_length_a                   13.8921(10)
_cell_length_b                   15.1742(12)
_cell_length_c                   35.456(3)
_cell_angle_alpha                88.906(6)
_cell_angle_beta                 79.711(5)
_cell_angle_gamma                84.143(5)
_cell_volume                     7315.6
_exptl_crystal_colour            red
_exptl_crystal_description       flake
_cell_formula_units_Z            8
loop_
_atom_site_label
_atom_site_type_symbol
_atom_site_fract_x
_atom_site_fract_y
_atom_site_fract_z
Si1 Si 0.79642(14) 0.38298(13) -0.10892(5)
Si2 Si 0.70662(14) -0.39199(13) 0.10368(5)
C1 C 0.7709(4) 0.1546(4) -0.02804(18)
C2 C 0.7707(4) 0.0712(4) -0.04433(18)
C3 C 0.7819(5) 0.0603(4) -0.08487(19)
H1 H 0.7896 0.1105 -0.1012
C4 C 0.7816(5) -0.0204(5) -0.10033(19)
H2 H 0.7908 -0.0258 -0.1274
C5 C 0.7681(5) -0.0977(5) -0.07734(19)
C6 C 0.7657(5) -0.1811(5) -0.0924(2)
H3 H 0.7741 -0.1882 -0.1194
C7 C 0.7512(5) -0.2543(5) -0.0687(2)
H4 H 0.7493 -0.3107 -0.0796
C8 C 0.7396(5) -0.2460(4) -0.02989(18)
H5 H 0.7304 -0.2969 -0.0142
C9 C 0.7409(4) -0.1631(4) -0.01252(18)
C10 C 0.7312(4) -0.1538(4) 0.02797(19)
C11 C 0.7311(5) -0.0710(4) 0.04431(18)
C12 C 0.7197(5) -0.0595(5) 0.08507(19)
H6 H 0.7116 -0.1094 0.1015
C13 C 0.7203(5) 0.0215(4) 0.10044(19)
H7 H 0.7116 0.0273 0.1275
C14 C 0.7338(5) 0.0991(4) 0.07676(19)
C15 C 0.7356(5) 0.1820(5) 0.0923(2)
H8 H 0.7257 0.1891 0.1194
C16 C 0.7516(5) 0.2544(5) 0.06861(19)
H9 H 0.7559 0.3103 0.0795
C17 C 0.7616(5) 0.2469(4) 0.02966(19)
H10 H 0.7695 0.2982 0.0140
C18 C 0.7602(5) 0.1647(4) 0.01246(18)
C19 C 0.7451(4) 0.0895(4) 0.03644(18)
C20 C 0.7448(4) 0.0049(4) 0.02021(18)
C21 C 0.7560(4) -0.0040(4) -0.01998(18)
C22 C 0.7560(4) -0.0876(4) -0.03647(18)
C23 C 0.7806(5) 0.2308(5) -0.05219(18)
C24 C 0.7879(5) 0.2943(5) -0.0738(2)
C25 C 0.7725(5) 0.4912(5) -0.0830(2)
H11 H 0.7773 0.5394 -0.1027
C26 C 0.6685(5) 0.5030(5) -0.0590(2)
H12 H 0.6576 0.5610 -0.0464
H13 H 0.6615 0.4562 -0.0396
H14 H 0.6200 0.4993 -0.0758
C27 C 0.8516(6) 0.5013(5) -0.0577(2)
H15 H 0.8373 0.5584 -0.0444
H16 H 0.9167 0.4985 -0.0740
H17 H 0.8505 0.4532 -0.0388
C28 C 0.9264(5) 0.3698(5) -0.1365(2)
H18 H 0.9695 0.3752 -0.1171
C29 C 0.9491(6) 0.4450(5) -0.1656(2)
H19 H 1.0204 0.4428 -0.1743
H20 H 0.9247 0.5022 -0.1533
H21 H 0.9168 0.4377 -0.1876
C30 C 0.9573(6) 0.2793(5) -0.1542(2)
H22 H 1.0285 0.2729 -0.1635
H23 H 0.9230 0.2726 -0.1757
H24 H 0.9404 0.2336 -0.1349
C31 C 0.6963(5) 0.3698(5) -0.1381(2)
H25 H 0.6329 0.3765 -0.1194
C32 C 0.6871(6) 0.4414(6) -0.1677(2)
H26 H 0.6275 0.4367 -0.1783
H27 H 0.7447 0.4344 -0.1882
H28 H 0.6832 0.4996 -0.1556
C33 C 0.7027(6) 0.2776(5) -0.1553(2)
H29 H 0.6456 0.2730 -0.1676
H30 H 0.7037 0.2330 -0.1350
H31 H 0.7630 0.2677 -0.1744
C34 C 0.7222(5) -0.2301(4) 0.05211(18)
C35 C 0.7159(5) -0.2945(5) 0.07215(19)
C36 C 0.6018(5) -0.4492(5) 0.0926(2)
H32 H 0.5432 -0.4042 0.0970
C37 C 0.5749(6) -0.5265(5) 0.1193(2)
H33 H 0.5176 -0.5510 0.1126
H34 H 0.5592 -0.5055 0.1458
H35 H 0.6305 -0.5725 0.1165
C38 C 0.6149(5) -0.4775(5) 0.0502(2)
H36 H 0.5515 -0.4912 0.0445
H37 H 0.6624 -0.5302 0.0456
H38 H 0.6389 -0.4292 0.0336
C39 C 0.8308(5) -0.4566(5) 0.0940(2)
H39 H 0.8786 -0.4139 0.0976
C40 C 0.8451(6) -0.5326(5) 0.1225(2)
H40 H 0.9128 -0.5605 0.1166
H41 H 0.7994 -0.5766 0.1204
H42 H 0.8322 -0.5089 0.1487
C41 C 0.8618(5) -0.4894(5) 0.0524(2)
H43 H 0.9332 -0.5042 0.0468
H44 H 0.8428 -0.4427 0.0349
H45 H 0.8290 -0.5422 0.0490
C42 C 0.6768(6) -0.3484(5) 0.1542(2)
H46 H 0.6720 -0.4006 0.1719
C43 C 0.7605(6) -0.2975(6) 0.1631(2)
H47 H 0.7444 -0.2762 0.1896
H48 H 0.7687 -0.2470 0.1456
H49 H 0.8218 -0.3370 0.1597
C44 C 0.5786(6) -0.2917(6) 0.1622(2)
H50 H 0.5684 -0.2671 0.1881
H51 H 0.5255 -0.3283 0.1601
H52 H 0.5785 -0.2433 0.1435
Si3 Si 0.18927(14) 0.89275(12) 0.60331(5)
Si4 Si 0.30786(13) 0.11861(12) 0.39051(5)
C45 C 0.2425(4) 0.6549(4) 0.52780(18)
C46 C 0.2279(4) 0.5724(4) 0.54376(18)
C47 C 0.2031(5) 0.5597(5) 0.58450(19)
H53 H 0.1965 0.6094 0.6010
C48 C 0.1889(5) 0.4788(4) 0.59994(19)
H54 H 0.1722 0.4729 0.6270
C49 C 0.1983(5) 0.4020(4) 0.57643(18)
C50 C 0.1816(5) 0.3184(4) 0.59208(19)
H55 H 0.1641 0.3116 0.6191
C51 C 0.1906(5) 0.2447(5) 0.5680(2)
H56 H 0.1802 0.1881 0.5789
C52 C 0.2139(5) 0.2526(4) 0.52933(19)
H57 H 0.2173 0.2018 0.5137
C53 C 0.2332(4) 0.3352(4) 0.51195(18)
C54 C 0.2594(4) 0.3456(4) 0.47191(18)
C55 C 0.2734(4) 0.4292(4) 0.45515(17)
C56 C 0.2980(4) 0.4403(4) 0.41461(18)
H58 H 0.3044 0.3904 0.3982
C57 C 0.3124(5) 0.5218(4) 0.39925(19)
H59 H 0.3294 0.5277 0.3722
C58 C 0.3024(5) 0.5983(4) 0.42270(18)
C59 C 0.3200(5) 0.6815(4) 0.4072(2)
H60 H 0.3383 0.6881 0.3802
C60 C 0.3107(5) 0.7557(4) 0.43107(19)
H61 H 0.3218 0.8121 0.4200
C61 C 0.2863(5) 0.7482(4) 0.46970(19)
H62 H 0.2810 0.7993 0.4853
C62 C 0.2688(5) 0.6659(4) 0.48708(19)
C63 C 0.2788(4) 0.5893(4) 0.46306(18)
C64 C 0.2628(4) 0.5049(4) 0.47982(18)
C65 C 0.2386(4) 0.4952(4) 0.51957(17)
C66 C 0.2225(4) 0.4113(4) 0.53627(18)
C67 C 0.2297(4) 0.7310(4) 0.55194(18)
C68 C 0.2166(5) 0.7964(4) 0.57214(19)
C69 C 0.3039(5) 0.9523(5) 0.5958(2)
H63 H 0.3577 0.9080 0.6015
C70 C 0.3358(5) 0.9811(5) 0.5540(2)
H64 H 0.4021 1.0001 0.5506
H65 H 0.2899 1.0304 0.5478
H66 H 0.3358 0.9312 0.5369
C71 C 0.2991(6) 1.0294(5) 0.6235(2)
H67 H 0.3631 1.0533 0.6198
H68 H 0.2827 1.0083 0.6499
H69 H 0.2487 1.0760 0.6186
C72 C 0.0762(5) 0.9548(4) 0.58937(19)
H70 H 0.0256 0.9115 0.5923
C73 C 0.0907(5) 0.9835(5) 0.5473(2)
H71 H 0.0264 0.9996 0.5399
H72 H 0.1259 0.9345 0.5311
H73 H 0.1290 1.0347 0.5438
C74 C 0.0309(6) 1.0327(5) 0.6160(2)
H74 H -0.0291 1.0598 0.6078
H75 H 0.0782 1.0769 0.6148
H76 H 0.0149 1.0111 0.6424
C75 C 0.1628(6) 0.8512(5) 0.6540(2)
H77 H 0.1450 0.9042 0.6711
C76 C 0.0733(6) 0.7961(5) 0.6601(2)
H78 H 0.0570 0.7800 0.6872
H79 H 0.0895 0.7422 0.6445
H80 H 0.0168 0.8313 0.6524
C77 C 0.2529(6) 0.7996(5) 0.6654(2)
H81 H 0.2351 0.7751 0.6912
H82 H 0.3044 0.8393 0.6653
H83 H 0.2771 0.7513 0.6472
C78 C 0.2725(4) 0.2706(4) 0.44736(18)
C79 C 0.2863(5) 0.2064(4) 0.42646(19)
C80 C 0.2997(5) 0.0103(4) 0.4167(2)
H84 H 0.3114 -0.0380 0.3972
C81 C 0.1962(6) 0.0053(5) 0.4407(2)
H85 H 0.1942 -0.0511 0.4547
H86 H 0.1475 0.0094 0.4237
H87 H 0.1810 0.0545 0.4591
C82 C 0.3792(6) -0.0054(5) 0.4416(2)
H88 H 0.3712 -0.0609 0.4559
H89 H 0.3730 0.0438 0.4596
H90 H 0.4442 -0.0093 0.4252
C83 C 0.2066(5) 0.1393(5) 0.3613(2)
H91 H 0.1435 0.1372 0.3799
C84 C 0.2012(5) 0.2310(5) 0.3432(2)
H92 H 0.1421 0.2405 0.3316
H93 H 0.2596 0.2355 0.3234
H94 H 0.1985 0.2760 0.3629
C85 C 0.2079(6) 0.0667(5) 0.3318(2)
H95 H 0.1489 0.0767 0.3202
H96 H 0.2093 0.0087 0.3445
H97 H 0.2665 0.0681 0.3119
C86 C 0.4383(5) 0.1241(5) 0.3632(2)
H98 H 0.4819 0.1145 0.3828
C87 C 0.4727(6) 0.0506(5) 0.3340(2)
H99 H 0.5421 0.0540 0.3230
H100 H 0.4333 0.0572 0.3136
H101 H 0.4648 -0.0069 0.3466
C88 C 0.4555(5) 0.2153(5) 0.3462(2)
H102 H 0.5254 0.2169 0.3356
H103 H 0.4350 0.2603 0.3662
H104 H 0.4169 0.2274 0.3257
Si5 Si 0.10444(14) 0.64255(13) 0.31047(5)
C89 C 0.0443(4) 0.5697(4) 0.43436(18)
C90 C 0.0320(4) 0.4859(4) 0.44646(18)
C91 C 0.0450(4) 0.4124(4) 0.41982(19)
H105 H 0.0623 0.4236 0.3931
C92 C 0.0333(5) 0.3286(5) 0.43177(19)
H106 H 0.0420 0.2827 0.4133
C93 C 0.0082(4) 0.3071(4) 0.47149(18)
C94 C -0.0065(5) 0.2216(5) 0.4842(2)
H107 H 0.0022 0.1749 0.4661
C95 C -0.0332(5) 0.2032(5) 0.5223(2)
H108 H -0.0427 0.1441 0.5302
C96 C -0.0467(5) 0.2700(4) 0.5498(2)
H109 H -0.0659 0.2564 0.5762
C97 C -0.0316(4) 0.3581(4) 0.53825(18)
C98 C -0.0073(4) 0.3787(4) 0.49882(18)
C99 C 0.0065(5) 0.4662(4) 0.48651(18)
C100 C 0.0664(5) 0.5919(4) 0.39460(19)
C101 C 0.0839(5) 0.6109(4) 0.3610(2)
C102 C -0.0148(5) 0.7020(5) 0.30065(19)
H110 H -0.0669 0.6626 0.3110
C103 C -0.0445(6) 0.7892(5) 0.3218(2)
H111 H -0.1120 0.8107 0.3192
H112 H 0.0000 0.8328 0.3108
H113 H -0.0408 0.7804 0.3489
C104 C -0.0181(6) 0.7127(6) 0.2579(2)
H114 H -0.0840 0.7377 0.2546
H115 H -0.0029 0.6546 0.2453
H116 H 0.0304 0.7524 0.2463
C105 C 0.2132(6) 0.7102(5) 0.3029(2)
H117 H 0.2684 0.6703 0.3105
C106 C 0.2029(6) 0.7914(5) 0.3281(2)
H118 H 0.2668 0.8150 0.3258
H119 H 0.1802 0.7751 0.3549
H120 H 0.1552 0.8365 0.3200
C107 C 0.2481(7) 0.7328(6) 0.2610(2)
H121 H 0.3118 0.7568 0.2582
H122 H 0.2000 0.7770 0.2524
H123 H 0.2547 0.6791 0.2454
C108 C 0.1337(5) 0.5379(5) 0.2820(2)
H124 H 0.1443 0.5546 0.2542
C109 C 0.2302(6) 0.4834(6) 0.2899(3)
H125 H 0.2412 0.4281 0.2752
H126 H 0.2236 0.4697 0.3173
H127 H 0.2860 0.5182 0.2821
C110 C 0.0488(6) 0.4784(5) 0.2892(2)
H128 H 0.0667 0.4251 0.2733
H129 H -0.0106 0.5108 0.2827
H130 H 0.0364 0.4613 0.3163
Si5A Si -0.10444(14) 0.35745(13) 0.68953(5)
C89A C -0.0443(4) 0.4303(4) 0.56564(18)
C90A C -0.0320(4) 0.5141(4) 0.55354(18)
C91A C -0.0450(4) 0.5876(4) 0.58018(19)
H105A H -0.0623 0.5764 0.6069
C92A C -0.0333(5) 0.6714(5) 0.56823(19)
H106A H -0.0420 0.7173 0.5867
C93A C -0.0082(4) 0.6929(4) 0.52851(18)
C94A C 0.0065(5) 0.7784(5) 0.5158(2)
H107A H -0.0022 0.8251 0.5339
C95A C 0.0332(5) 0.7968(5) 0.4777(2)
H108A H 0.0427 0.8559 0.4698
C96A C 0.0467(5) 0.7300(4) 0.4502(2)
H109A H 0.0659 0.7436 0.4238
C97A C 0.0316(4) 0.6419(4) 0.46175(18)
C98A C 0.0073(4) 0.6213(4) 0.50118(18)
C99A C -0.0065(5) 0.5338(4) 0.51349(18)
C100A C -0.0664(5) 0.4081(4) 0.60540(19)
C101A C -0.0839(5) 0.3891(4) 0.6390(2)
C102A C 0.0148(5) 0.2980(5) 0.69935(19)
H110A H 0.0669 0.3374 0.6890
C103A C 0.0445(6) 0.2108(5) 0.6782(2)
H111A H 0.1120 0.1893 0.6808
H112A H 0.0000 0.1672 0.6892
H113A H 0.0408 0.2196 0.6511
C104A C 0.0181(6) 0.2873(6) 0.7421(2)
H114A H 0.0840 0.2623 0.7454
H115A H 0.0029 0.3454 0.7547
H116A H -0.0304 0.2476 0.7537
C105A C -0.2132(6) 0.2898(5) 0.6971(2)
H117A H -0.2684 0.3297 0.6895
C106A C -0.2029(6) 0.2086(5) 0.6719(2)
H118A H -0.2668 0.1850 0.6742
H119A H -0.1802 0.2249 0.6451
H120A H -0.1552 0.1635 0.6800
C107A C -0.2481(7) 0.2672(6) 0.7390(2)
H121A H -0.3118 0.2432 0.7418
H122A H -0.2000 0.2230 0.7476
H123A H -0.2547 0.3209 0.7546
C108A C -0.1337(5) 0.4621(5) 0.7180(2)
H124A H -0.1443 0.4454 0.7458
C109A C -0.2302(6) 0.5166(6) 0.7101(3)
H125A H -0.2412 0.5719 0.7248
H126A H -0.2236 0.5303 0.6827
H127A H -0.2860 0.4818 0.7179
C110A C -0.0488(6) 0.5216(5) 0.7108(2)
H128A H -0.0667 0.5749 0.7267
H129A H 0.0106 0.4892 0.7173
H130A H -0.0364 0.5387 0.6837
Si6 Si 0.61358(14) 0.58210(13) 0.30424(5)
C111 C 0.5459(4) 0.5560(4) 0.43164(17)
C112 C 0.5304(4) 0.4732(4) 0.44730(18)
C113 C 0.5418(5) 0.3956(4) 0.42352(19)
H131 H 0.5601 0.4010 0.3965
C114 C 0.5267(5) 0.3147(5) 0.43927(19)
H132 H 0.5336 0.2648 0.4228
C115 C 0.5010(5) 0.3022(5) 0.47927(19)
C116 C 0.4831(5) 0.2209(5) 0.4957(2)
H133 H 0.4892 0.1704 0.4796
C117 C 0.4564(5) 0.2112(5) 0.5350(2)
H134 H 0.4444 0.1545 0.5455
C118 C 0.4473(5) 0.2827(5) 0.5589(2)
H135 H 0.4293 0.2748 0.5858
C119 C 0.4641(4) 0.3680(4) 0.54412(19)
C120 C 0.4897(5) 0.3779(4) 0.50387(18)
C121 C 0.5062(4) 0.4631(4) 0.48781(18)
C122 C 0.5688(4) 0.5672(4) 0.39136(19)
C123 C 0.5875(5) 0.5767(5) 0.3567(2)
C124 C 0.6073(6) 0.7020(5) 0.2897(2)
H136 H 0.6207 0.7047 0.2610
C125 C 0.5057(6) 0.7508(6) 0.3037(3)
H137 H 0.5039 0.8116 0.2939
H138 H 0.4925 0.7521 0.3318
H139 H 0.4556 0.7201 0.2946
C126 C 0.6849(6) 0.7505(6) 0.3044(3)
H140 H 0.6782 0.8130 0.2969
H141 H 0.7507 0.7234 0.2934
H142 H 0.6754 0.7460 0.3324
C127 C 0.7430(5) 0.5270(5) 0.28814(19)
H143 H 0.7858 0.5607 0.3012
C128 C 0.7818(6) 0.5366(7) 0.2453(2)
H144 H 0.8522 0.5166 0.2399
H145 H 0.7714 0.5989 0.2378
H146 H 0.7466 0.5005 0.2308
C129 C 0.7584(6) 0.4317(5) 0.3020(2)
H147 H 0.8287 0.4109 0.2965
H148 H 0.7220 0.3938 0.2889
H149 H 0.7347 0.4291 0.3297
C130 C 0.5123(6) 0.5268(5) 0.2873(2)
H150 H 0.4497 0.5639 0.2976
C131 C 0.5201(7) 0.5268(7) 0.2439(2)
H151 H 0.4611 0.5051 0.2373
H152 H 0.5783 0.4882 0.2324
H153 H 0.5258 0.5873 0.2341
C132 C 0.5000(6) 0.4349(5) 0.3039(2)
H154 H 0.4442 0.4117 0.2953
H155 H 0.4879 0.4379 0.3319
H156 H 0.5600 0.3956 0.2950
Si6A Si 0.38642(14) 0.41790(13) 0.69576(5)
C111A C 0.4541(4) 0.4440(4) 0.56836(17)
C112A C 0.4696(4) 0.5268(4) 0.55270(18)
C113A C 0.4582(5) 0.6044(4) 0.57648(19)
H131A H 0.4399 0.5990 0.6035
C114A C 0.4733(5) 0.6853(5) 0.56073(19)
H132A H 0.4664 0.7352 0.5772
C115A C 0.4990(5) 0.6978(5) 0.52073(19)
C116A C 0.5169(5) 0.7791(5) 0.5043(2)
H133A H 0.5108 0.8296 0.5204
C117A C 0.5436(5) 0.7888(5) 0.4650(2)
H134A H 0.5556 0.8455 0.4545
C118A C 0.5527(5) 0.7173(5) 0.4411(2)
H135A H 0.5707 0.7252 0.4142
C119A C 0.5359(4) 0.6320(4) 0.45588(19)
C120A C 0.5103(5) 0.6221(4) 0.49613(18)
C121A C 0.4938(4) 0.5369(4) 0.51219(18)
C122A C 0.4312(4) 0.4328(4) 0.60864(19)
C123A C 0.4125(5) 0.4233(5) 0.6433(2)
C124A C 0.3927(6) 0.2980(5) 0.7103(2)
H136A H 0.3793 0.2953 0.7390
C125A C 0.4943(6) 0.2492(6) 0.6963(3)
H137A H 0.4961 0.1884 0.7061
H138A H 0.5075 0.2479 0.6682
H139A H 0.5444 0.2799 0.7054
C126A C 0.3151(6) 0.2495(6) 0.6956(3)
H140A H 0.3218 0.1870 0.7031
H141A H 0.2493 0.2766 0.7066
H142A H 0.3246 0.2540 0.6676
C127A C 0.2570(5) 0.4730(5) 0.71186(19)
H143A H 0.2142 0.4393 0.6988
C128A C 0.2182(6) 0.4634(7) 0.7547(2)
H144A H 0.1478 0.4834 0.7601
H145A H 0.2286 0.4011 0.7622
H146A H 0.2534 0.4995 0.7692
C129A C 0.2416(6) 0.5683(5) 0.6980(2)
H147A H 0.1713 0.5891 0.7035
H148A H 0.2780 0.6062 0.7111
H149A H 0.2653 0.5709 0.6703
C130A C 0.4877(6) 0.4732(5) 0.7127(2)
H150A H 0.5503 0.4361 0.7024
C131A C 0.4799(7) 0.4732(7) 0.7561(2)
H151A H 0.5389 0.4949 0.7627
H152A H 0.4217 0.5118 0.7676
H153A H 0.4742 0.4127 0.7659
C132A C 0.5000(6) 0.5651(5) 0.6961(2)
H154A H 0.5558 0.5883 0.7047
H155A H 0.5121 0.5621 0.6681
H156A H 0.4400 0.6044 0.7050
Si7 Si 0.43285(15) 0.14253(13) 0.18922(5)
C133 C 0.4861(4) 0.0721(5) 0.06512(18)
C134 C 0.5002(4) 0.1428(4) 0.03767(18)
C135 C 0.5047(5) 0.2309(5) 0.0482(2)
H157 H 0.4982 0.2456 0.0746
C136 C 0.5185(5) 0.2957(5) 0.0211(2)
H158 H 0.5231 0.3545 0.0288
C137 C 0.5257(5) 0.2769(5) -0.0173(2)
H159 H 0.5332 0.3235 -0.0356
C138 C 0.5224(5) 0.1916(4) -0.02973(19)
C139 C 0.5295(5) 0.1692(5) -0.0694(2)
H160 H 0.5359 0.2148 -0.0882
C140 C 0.5275(5) 0.0862(4) -0.08057(19)
H161 H 0.5342 0.0740 -0.1071
C141 C 0.5154(4) 0.0142(4) -0.05349(18)
C142 C 0.5056(5) 0.0341(4) -0.01381(18)
C143 C 0.5090(5) 0.1227(4) -0.00198(18)
C144 C 0.4729(5) 0.0939(5) 0.10510(19)
C145 C 0.4586(5) 0.1124(5) 0.1382(2)
C146 C 0.4249(6) 0.0363(5) 0.2169(2)
H162 H 0.4101 0.0518 0.2448
C147 C 0.5226(6) -0.0235(6) 0.2097(3)
H163 H 0.5155 -0.0780 0.2248
H164 H 0.5744 0.0078 0.2173
H165 H 0.5402 -0.0383 0.1824
C148 C 0.3416(6) -0.0151(6) 0.2086(3)
H166 H 0.3361 -0.0669 0.2255
H167 H 0.3560 -0.0346 0.1818
H168 H 0.2796 0.0233 0.2132
C149 C 0.3091(6) 0.2100(5) 0.1972(2)
H169 H 0.2628 0.1725 0.1880
C150 C 0.2673(7) 0.2288(6) 0.2397(2)
H170 H 0.2014 0.2606 0.2421
H171 H 0.3104 0.2651 0.2503
H172 H 0.2633 0.1727 0.2538
C151 C 0.3043(7) 0.2962(6) 0.1744(2)
H173 H 0.2356 0.3215 0.1768
H174 H 0.3316 0.2841 0.1473
H175 H 0.3425 0.3384 0.1843
C152 C 0.5407(6) 0.1992(5) 0.1992(2)
H176 H 0.6008 0.1578 0.1902
C153 C 0.5380(7) 0.2143(6) 0.2421(2)
H177 H 0.6000 0.2354 0.2457
H178 H 0.5289 0.1585 0.2560
H179 H 0.4833 0.2587 0.2518
C154 C 0.5544(6) 0.2855(5) 0.1765(2)
H180 H 0.6193 0.3041 0.1778
H181 H 0.5033 0.3317 0.1876
H182 H 0.5495 0.2757 0.1497
Si7A Si 0.56715(15) -0.14253(13) -0.18922(5)
C133A C 0.5139(4) -0.0721(5) -0.06512(18)
C134A C 0.4998(4) -0.1428(4) -0.03767(18)
C135A C 0.4953(5) -0.2309(5) -0.0482(2)
H157A H 0.5018 -0.2456 -0.0746
C136A C 0.4815(5) -0.2957(5) -0.0211(2)
H158A H 0.4769 -0.3545 -0.0288
C137A C 0.4743(5) -0.2769(5) 0.0173(2)
H159A H 0.4668 -0.3235 0.0356
C138A C 0.4776(5) -0.1916(4) 0.02973(19)
C139A C 0.4705(5) -0.1692(5) 0.0694(2)
H160A H 0.4641 -0.2148 0.0882
C140A C 0.4725(5) -0.0862(4) 0.08057(19)
H161A H 0.4658 -0.0740 0.1071
C141A C 0.4846(4) -0.0142(4) 0.05349(18)
C142A C 0.4944(5) -0.0341(4) 0.01381(18)
C143A C 0.4910(5) -0.1227(4) 0.00198(18)
C144A C 0.5271(5) -0.0939(5) -0.10510(19)
C145A C 0.5414(5) -0.1124(5) -0.1382(2)
C146A C 0.5751(6) -0.0363(5) -0.2169(2)
H162A H 0.5899 -0.0518 -0.2448
C147A C 0.4774(6) 0.0235(6) -0.2097(3)
H163A H 0.4845 0.0780 -0.2248
H164A H 0.4256 -0.0078 -0.2173
H165A H 0.4598 0.0383 -0.1824
C148A C 0.6584(6) 0.0151(6) -0.2086(3)
H166A H 0.6639 0.0669 -0.2255
H167A H 0.6440 0.0346 -0.1818
H168A H 0.7204 -0.0233 -0.2132
C149A C 0.6909(6) -0.2100(5) -0.1972(2)
H169A H 0.7372 -0.1725 -0.1880
C150A C 0.7327(7) -0.2288(6) -0.2397(2)
H170A H 0.7986 -0.2606 -0.2421
H171A H 0.6896 -0.2651 -0.2503
H172A H 0.7367 -0.1727 -0.2538
C151A C 0.6957(7) -0.2962(6) -0.1744(2)
H173A H 0.7644 -0.3215 -0.1768
H174A H 0.6684 -0.2841 -0.1473
H175A H 0.6575 -0.3384 -0.1843
C152A C 0.4593(6) -0.1992(5) -0.1992(2)
H176A H 0.3992 -0.1578 -0.1902
C153A C 0.4620(7) -0.2143(6) -0.2421(2)
H177A H 0.4000 -0.2354 -0.2457
H178A H 0.4711 -0.1585 -0.2560
H179A H 0.5167 -0.2587 -0.2518
C154A C 0.4456(6) -0.2855(5) -0.1765(2)
H180A H 0.3807 -0.3041 -0.1778
H181A H 0.4967 -0.3317 -0.1876
H182A H 0.4505 -0.2757 -0.1497
Si8 Si 0.93135(15) 0.07971(13) 0.19600(5)
C155 C 0.9826(5) 0.0563(5) 0.06828(19)
C156 C 0.9964(4) 0.1323(4) 0.04443(18)
C157 C 0.9991(5) 0.2167(5) 0.0592(2)
H183 H 0.9912 0.2247 0.0861
C158 C 1.0132(5) 0.2887(5) 0.0349(2)
H184 H 1.0177 0.3451 0.0453
C159 C 1.0209(5) 0.2792(5) -0.0044(2)
H185 H 1.0265 0.3299 -0.0204
C160 C 1.0207(5) 0.1965(4) -0.02049(19)
C161 C 1.0321(5) 0.1846(4) -0.0612(2)
H186 H 1.0407 0.2343 -0.0777
C162 C 1.0309(5) 0.1041(4) -0.07643(19)
H187 H 1.0389 0.0981 -0.1035
C163 C 1.0177(5) 0.0269(5) -0.05250(19)
C164 C 1.0069(4) 0.0368(4) -0.01224(18)
C165 C 1.0073(4) 0.1223(4) 0.00396(18)
C166 C 0.9678(5) 0.0676(5) 0.1090(2)
C167 C 0.9536(5) 0.0755(5) 0.1433(2)
C168 C 0.8143(6) 0.0240(5) 0.2124(2)
H188 H 0.7621 0.0598 0.2010
C169 C 0.8184(6) -0.0689(5) 0.1971(2)
H189 H 0.7522 -0.0884 0.2018
H190 H 0.8618 -0.1091 0.2100
H191 H 0.8438 -0.0694 0.1694
C170 C 0.7785(7) 0.0268(7) 0.2554(2)
H192 H 0.7143 0.0035 0.2614
H193 H 0.7724 0.0882 0.2644
H194 H 0.8257 -0.0093 0.2682
C171 C 1.0464(5) 0.0241(5) 0.2116(2)
H195 H 1.1009 0.0603 0.2005
C172 C 1.0757(6) -0.0683(5) 0.1953(2)
H196 H 1.1431 -0.0878 0.1987
H197 H 1.0721 -0.0677 0.1680
H198 H 1.0309 -0.1091 0.2088
C173 C 1.0415(7) 0.0243(7) 0.2550(2)
H199 H 1.1049 -0.0007 0.2610
H200 H 0.9897 -0.0115 0.2672
H201 H 1.0269 0.0853 0.2646
C174 C 0.9151(6) 0.1979(5) 0.2113(2)
H202 H 0.9009 0.1994 0.2400
C175 C 1.0051(7) 0.2463(6) 0.1979(3)
H203 H 0.9940 0.3063 0.2086
H204 H 1.0176 0.2496 0.1698
H205 H 1.0621 0.2143 0.2066
C176 C 0.8249(6) 0.2488(6) 0.1964(3)
H206 H 0.8151 0.3098 0.2059
H207 H 0.7658 0.2191 0.2057
H208 H 0.8377 0.2491 0.1683
Si8A Si 1.06865(15) -0.07971(13) -0.19600(5)
C155A C 1.0174(5) -0.0563(5) -0.06828(19)
C156A C 1.0036(4) -0.1323(4) -0.04443(18)
C157A C 1.0009(5) -0.2167(5) -0.0592(2)
H183A H 1.0088 -0.2247 -0.0861
C158A C 0.9868(5) -0.2887(5) -0.0349(2)
H184A H 0.9823 -0.3451 -0.0453
C159A C 0.9791(5) -0.2792(5) 0.0044(2)
H185A H 0.9735 -0.3299 0.0204
C160A C 0.9793(5) -0.1965(4) 0.02049(19)
C161A C 0.9679(5) -0.1846(4) 0.0612(2)
H186A H 0.9593 -0.2343 0.0777
C162A C 0.9691(5) -0.1041(4) 0.07643(19)
H187A H 0.9611 -0.0981 0.1035
C163A C 0.9823(5) -0.0269(5) 0.05250(19)
C164A C 0.9931(4) -0.0368(4) 0.01224(18)
C165A C 0.9927(4) -0.1223(4) -0.00396(18)
C166A C 1.0322(5) -0.0676(5) -0.1090(2)
C167A C 1.0464(5) -0.0755(5) -0.1433(2)
C168A C 1.1857(6) -0.0240(5) -0.2124(2)
H188A H 1.2379 -0.0598 -0.2010
C169A C 1.1816(6) 0.0689(5) -0.1971(2)
H189A H 1.2478 0.0884 -0.2018
H190A H 1.1382 0.1091 -0.2100
H191A H 1.1562 0.0694 -0.1694
C170A C 1.2215(7) -0.0268(7) -0.2554(2)
H192A H 1.2857 -0.0035 -0.2614
H193A H 1.2276 -0.0882 -0.2644
H194A H 1.1743 0.0093 -0.2682
C171A C 0.9536(5) -0.0241(5) -0.2116(2)
H195A H 0.8991 -0.0603 -0.2005
C172A C 0.9243(6) 0.0683(5) -0.1953(2)
H196A H 0.8569 0.0878 -0.1987
H197A H 0.9279 0.0677 -0.1680
H198A H 0.9691 0.1091 -0.2088
C173A C 0.9585(7) -0.0243(7) -0.2550(2)
H199A H 0.8951 0.0007 -0.2610
H200A H 1.0103 0.0115 -0.2672
H201A H 0.9731 -0.0853 -0.2646
C174A C 1.0849(6) -0.1979(5) -0.2113(2)
H202A H 1.0991 -0.1994 -0.2400
C175A C 0.9949(7) -0.2463(6) -0.1979(3)
H203A H 1.0060 -0.3063 -0.2086
H204A H 0.9824 -0.2496 -0.1698
H205A H 0.9379 -0.2143 -0.2066
C176A C 1.1751(6) -0.2488(6) -0.1964(3)
H206A H 1.1849 -0.3098 -0.2059
H207A H 1.2342 -0.2191 -0.2057
H208A H 1.1623 -0.2491 -0.1683
loop_
_geom_bond_atom_site_label_1
_geom_bond_atom_site_label_2
_geom_bond_site_symmetry_1
_geom_bond_site_symmetry_2
Si1 C24 1_555 1_555
Si2 C35 1_555 1_555
C1 C2 1_555 1_555
C2 C3 1_555 1_555
C3 H1 1_555 1_555
C4 C3 1_555 1_555
H2 C4 1_555 1_555
C5 C4 1_555 1_555
C6 C5 1_555 1_555
H3 C6 1_555 1_555
C7 C6 1_555 1_555
H4 C7 1_555 1_555
C8 C7 1_555 1_555
H5 C8 1_555 1_555
C9 C8 1_555 1_555
C10 C9 1_555 1_555
C11 C10 1_555 1_555
C12 C11 1_555 1_555
H6 C12 1_555 1_555
C13 C12 1_555 1_555
H7 C13 1_555 1_555
C14 C13 1_555 1_555
C15 C14 1_555 1_555
H8 C15 1_555 1_555
C16 C15 1_555 1_555
H9 C16 1_555 1_555
C17 C16 1_555 1_555
H10 C17 1_555 1_555
C18 C1 1_555 1_555
C19 C14 1_555 1_555
C20 C11 1_555 1_555
C21 C2 1_555 1_555
C22 C5 1_555 1_555
C23 C1 1_555 1_555
C24 C23 1_555 1_555
C25 Si1 1_555 1_555
H11 C25 1_555 1_555
C26 C25 1_555 1_555
H12 C26 1_555 1_555
H13 C26 1_555 1_555
H14 C26 1_555 1_555
C27 C25 1_555 1_555
H15 C27 1_555 1_555
H16 C27 1_555 1_555
H17 C27 1_555 1_555
C28 Si1 1_555 1_555
H18 C28 1_555 1_555
C29 C28 1_555 1_555
H19 C29 1_555 1_555
H20 C29 1_555 1_555
H21 C29 1_555 1_555
C30 C28 1_555 1_555
H22 C30 1_555 1_555
H23 C30 1_555 1_555
H24 C30 1_555 1_555
C31 Si1 1_555 1_555
H25 C31 1_555 1_555
C32 C31 1_555 1_555
H26 C32 1_555 1_555
H27 C32 1_555 1_555
H28 C32 1_555 1_555
C33 C31 1_555 1_555
H29 C33 1_555 1_555
H30 C33 1_555 1_555
H31 C33 1_555 1_555
C34 C10 1_555 1_555
C35 C34 1_555 1_555
C36 Si2 1_555 1_555
H32 C36 1_555 1_555
C37 C36 1_555 1_555
H33 C37 1_555 1_555
H34 C37 1_555 1_555
H35 C37 1_555 1_555
C38 C36 1_555 1_555
H36 C38 1_555 1_555
H37 C38 1_555 1_555
H38 C38 1_555 1_555
C39 Si2 1_555 1_555
H39 C39 1_555 1_555
C40 C39 1_555 1_555
H40 C40 1_555 1_555
H41 C40 1_555 1_555
H42 C40 1_555 1_555
C41 C39 1_555 1_555
H43 C41 1_555 1_555
H44 C41 1_555 1_555
H45 C41 1_555 1_555
C42 Si2 1_555 1_555
H46 C42 1_555 1_555
C43 C42 1_555 1_555
H47 C43 1_555 1_555
H48 C43 1_555 1_555
H49 C43 1_555 1_555
C44 C42 1_555 1_555
H50 C44 1_555 1_555
H51 C44 1_555 1_555
H52 C44 1_555 1_555
Si3 C68 1_555 1_555
Si4 C79 1_555 1_555
C45 C46 1_555 1_555
C46 C47 1_555 1_555
C47 H53 1_555 1_555
C48 C47 1_555 1_555
H54 C48 1_555 1_555
C49 C48 1_555 1_555
C50 C49 1_555 1_555
H55 C50 1_555 1_555
C51 C50 1_555 1_555
H56 C51 1_555 1_555
C52 C51 1_555 1_555
H57 C52 1_555 1_555
C53 C52 1_555 1_555
C54 C53 1_555 1_555
C55 C54 1_555 1_555
C56 C55 1_555 1_555
H58 C56 1_555 1_555
C57 C56 1_555 1_555
H59 C57 1_555 1_555
C58 C57 1_555 1_555
C59 C58 1_555 1_555
H60 C59 1_555 1_555
C60 C59 1_555 1_555
H61 C60 1_555 1_555
C61 C60 1_555 1_555
H62 C61 1_555 1_555
C62 C45 1_555 1_555
C63 C58 1_555 1_555
C64 C55 1_555 1_555
C65 C46 1_555 1_555
C66 C49 1_555 1_555
C67 C45 1_555 1_555
C68 C67 1_555 1_555
C69 Si3 1_555 1_555
H63 C69 1_555 1_555
C70 C69 1_555 1_555
H64 C70 1_555 1_555
H65 C70 1_555 1_555
H66 C70 1_555 1_555
C71 C69 1_555 1_555
H67 C71 1_555 1_555
H68 C71 1_555 1_555
H69 C71 1_555 1_555
C72 Si3 1_555 1_555
H70 C72 1_555 1_555
C73 C72 1_555 1_555
H71 C73 1_555 1_555
H72 C73 1_555 1_555
H73 C73 1_555 1_555
C74 C72 1_555 1_555
H74 C74 1_555 1_555
H75 C74 1_555 1_555
H76 C74 1_555 1_555
C75 Si3 1_555 1_555
H77 C75 1_555 1_555
C76 C75 1_555 1_555
H78 C76 1_555 1_555
H79 C76 1_555 1_555
H80 C76 1_555 1_555
C77 C75 1_555 1_555
H81 C77 1_555 1_555
H82 C77 1_555 1_555
H83 C77 1_555 1_555
C78 C54 1_555 1_555
C79 C78 1_555 1_555
C80 Si4 1_555 1_555
H84 C80 1_555 1_555
C81 C80 1_555 1_555
H85 C81 1_555 1_555
H86 C81 1_555 1_555
H87 C81 1_555 1_555
C82 C80 1_555 1_555
H88 C82 1_555 1_555
H89 C82 1_555 1_555
H90 C82 1_555 1_555
C83 Si4 1_555 1_555
H91 C83 1_555 1_555
C84 C83 1_555 1_555
H92 C84 1_555 1_555
H93 C84 1_555 1_555
H94 C84 1_555 1_555
C85 C83 1_555 1_555
H95 C85 1_555 1_555
H96 C85 1_555 1_555
H97 C85 1_555 1_555
C86 Si4 1_555 1_555
H98 C86 1_555 1_555
C87 C86 1_555 1_555
H99 C87 1_555 1_555
H100 C87 1_555 1_555
H101 C87 1_555 1_555
C88 C86 1_555 1_555
H102 C88 1_555 1_555
H103 C88 1_555 1_555
H104 C88 1_555 1_555
Si5 C101 1_555 1_555
C89 C90 1_555 1_555
C90 C91 1_555 1_555
C91 H105 1_555 1_555
C92 C91 1_555 1_555
H106 C92 1_555 1_555
C93 C92 1_555 1_555
C94 C93 1_555 1_555
H107 C94 1_555 1_555
C95 C94 1_555 1_555
H108 C95 1_555 1_555
C96 C95 1_555 1_555
H109 C96 1_555 1_555
C97 C96 1_555 1_555
C98 C93 1_555 1_555
C99 C90 1_555 1_555
C100 C89 1_555 1_555
C101 C100 1_555 1_555
C102 Si5 1_555 1_555
H110 C102 1_555 1_555
C103 C102 1_555 1_555
H111 C103 1_555 1_555
H112 C103 1_555 1_555
H113 C103 1_555 1_555
C104 C102 1_555 1_555
H114 C104 1_555 1_555
H115 C104 1_555 1_555
H116 C104 1_555 1_555
C105 Si5 1_555 1_555
H117 C105 1_555 1_555
C106 C105 1_555 1_555
H118 C106 1_555 1_555
H119 C106 1_555 1_555
H120 C106 1_555 1_555
C107 C105 1_555 1_555
H121 C107 1_555 1_555
H122 C107 1_555 1_555
H123 C107 1_555 1_555
C108 Si5 1_555 1_555
H124 C108 1_555 1_555
C109 C108 1_555 1_555
H125 C109 1_555 1_555
H126 C109 1_555 1_555
H127 C109 1_555 1_555
C110 C108 1_555 1_555
H128 C110 1_555 1_555
H129 C110 1_555 1_555
H130 C110 1_555 1_555
Si6 C123 1_555 1_555
C111 C112 1_555 1_555
C112 C113 1_555 1_555
C113 H131 1_555 1_555
C114 C113 1_555 1_555
H132 C114 1_555 1_555
C115 C114 1_555 1_555
C116 C115 1_555 1_555
H133 C116 1_555 1_555
C117 C116 1_555 1_555
H134 C117 1_555 1_555
C118 C117 1_555 1_555
H135 C118 1_555 1_555
C119 C118 1_555 1_555
C120 C115 1_555 1_555
C121 C112 1_555 1_555
C122 C111 1_555 1_555
C123 C122 1_555 1_555
C124 Si6 1_555 1_555
H136 C124 1_555 1_555
C125 C124 1_555 1_555
H137 C125 1_555 1_555
H138 C125 1_555 1_555
H139 C125 1_555 1_555
C126 C124 1_555 1_555
H140 C126 1_555 1_555
H141 C126 1_555 1_555
H142 C126 1_555 1_555
C127 Si6 1_555 1_555
H143 C127 1_555 1_555
C128 C127 1_555 1_555
H144 C128 1_555 1_555
H145 C128 1_555 1_555
H146 C128 1_555 1_555
C129 C127 1_555 1_555
H147 C129 1_555 1_555
H148 C129 1_555 1_555
H149 C129 1_555 1_555
C130 Si6 1_555 1_555
H150 C130 1_555 1_555
C131 C130 1_555 1_555
H151 C131 1_555 1_555
H152 C131 1_555 1_555
H153 C131 1_555 1_555
C132 C130 1_555 1_555
H154 C132 1_555 1_555
H155 C132 1_555 1_555
H156 C132 1_555 1_555
Si7 C145 1_555 1_555
C133 C134 1_555 1_555
C134 C135 1_555 1_555
C135 H157 1_555 1_555
C136 C135 1_555 1_555
H158 C136 1_555 1_555
C137 C136 1_555 1_555
H159 C137 1_555 1_555
C138 C137 1_555 1_555
C139 C138 1_555 1_555
H160 C139 1_555 1_555
C140 C139 1_555 1_555
H161 C140 1_555 1_555
C141 C140 1_555 1_555
C142 C141 1_555 1_555
C143 C134 1_555 1_555
C144 C133 1_555 1_555
C145 C144 1_555 1_555
C146 Si7 1_555 1_555
H162 C146 1_555 1_555
C147 C146 1_555 1_555
H163 C147 1_555 1_555
H164 C147 1_555 1_555
H165 C147 1_555 1_555
C148 C146 1_555 1_555
H166 C148 1_555 1_555
H167 C148 1_555 1_555
H168 C148 1_555 1_555
C149 Si7 1_555 1_555
H169 C149 1_555 1_555
C150 C149 1_555 1_555
H170 C150 1_555 1_555
H171 C150 1_555 1_555
H172 C150 1_555 1_555
C151 C149 1_555 1_555
H173 C151 1_555 1_555
H174 C151 1_555 1_555
H175 C151 1_555 1_555
C152 Si7 1_555 1_555
H176 C152 1_555 1_555
C153 C152 1_555 1_555
H177 C153 1_555 1_555
H178 C153 1_555 1_555
H179 C153 1_555 1_555
C154 C152 1_555 1_555
H180 C154 1_555 1_555
H181 C154 1_555 1_555
H182 C154 1_555 1_555
Si8 C167 1_555 1_555
C155 C156 1_555 1_555
C156 C157 1_555 1_555
C157 H183 1_555 1_555
C158 C157 1_555 1_555
H184 C158 1_555 1_555
C159 C158 1_555 1_555
H185 C159 1_555 1_555
C160 C159 1_555 1_555
C161 C160 1_555 1_555
H186 C161 1_555 1_555
C162 C161 1_555 1_555
H187 C162 1_555 1_555
C163 C162 1_555 1_555
C164 C163 1_555 1_555
C165 C156 1_555 1_555
C166 C155 1_555 1_555
C167 C166 1_555 1_555
C168 Si8 1_555 1_555
H188 C168 1_555 1_555
C169 C168 1_555 1_555
H189 C169 1_555 1_555
H190 C169 1_555 1_555
H191 C169 1_555 1_555
C170 C168 1_555 1_555
H192 C170 1_555 1_555
H193 C170 1_555 1_555
H194 C170 1_555 1_555
C171 Si8 1_555 1_555
H195 C171 1_555 1_555
C172 C171 1_555 1_555
H196 C172 1_555 1_555
H197 C172 1_555 1_555
H198 C172 1_555 1_555
C173 C171 1_555 1_555
H199 C173 1_555 1_555
H200 C173 1_555 1_555
H201 C173 1_555 1_555
C174 Si8 1_555 1_555
H202 C174 1_555 1_555
C175 C174 1_555 1_555
H203 C175 1_555 1_555
H204 C175 1_555 1_555
H205 C175 1_555 1_555
C176 C174 1_555 1_555
H206 C176 1_555 1_555
H207 C176 1_555 1_555
H208 C176 1_555 1_555
Si5A C101A 1_555 1_555
C89A C97 1_555 1_555
C90A C89A 1_555 1_555
C91A C90A 1_555 1_555
H105A C91A 1_555 1_555
C92A C91A 1_555 1_555
H106A C92A 1_555 1_555
C93A C92A 1_555 1_555
C94A C93A 1_555 1_555
H107A C94A 1_555 1_555
C95A C94A 1_555 1_555
H108A C95A 1_555 1_555
C96A C95A 1_555 1_555
H109A C96A 1_555 1_555
C97A C89 1_555 1_555
C98A C93A 1_555 1_555
C99A C99 1_555 1_555
C100A C89A 1_555 1_555
C101A C100A 1_555 1_555
C102A Si5A 1_555 1_555
H110A C102A 1_555 1_555
C103A C102A 1_555 1_555
H111A C103A 1_555 1_555
H112A C103A 1_555 1_555
H113A C103A 1_555 1_555
C104A C102A 1_555 1_555
H114A C104A 1_555 1_555
H115A C104A 1_555 1_555
H116A C104A 1_555 1_555
C105A Si5A 1_555 1_555
H117A C105A 1_555 1_555
C106A C105A 1_555 1_555
H118A C106A 1_555 1_555
H119A C106A 1_555 1_555
H120A C106A 1_555 1_555
C107A C105A 1_555 1_555
H121A C107A 1_555 1_555
H122A C107A 1_555 1_555
H123A C107A 1_555 1_555
C108A Si5A 1_555 1_555
H124A C108A 1_555 1_555
C109A C108A 1_555 1_555
H125A C109A 1_555 1_555
H126A C109A 1_555 1_555
H127A C109A 1_555 1_555
C110A C108A 1_555 1_555
H128A C110A 1_555 1_555
H129A C110A 1_555 1_555
H130A C110A 1_555 1_555
Si6A C123A 1_555 1_555
C111A C119 1_555 1_555
C112A C111A 1_555 1_555
C113A C112A 1_555 1_555
H131A C113A 1_555 1_555
C114A C113A 1_555 1_555
H132A C114A 1_555 1_555
C115A C114A 1_555 1_555
C116A C115A 1_555 1_555
H133A C116A 1_555 1_555
C117A C116A 1_555 1_555
H134A C117A 1_555 1_555
C118A C117A 1_555 1_555
H135A C118A 1_555 1_555
C119A C111 1_555 1_555
C120A C115A 1_555 1_555
C121A C121 1_555 1_555
C122A C111A 1_555 1_555
C123A C122A 1_555 1_555
C124A Si6A 1_555 1_555
H136A C124A 1_555 1_555
C125A C124A 1_555 1_555
H137A C125A 1_555 1_555
H138A C125A 1_555 1_555
H139A C125A 1_555 1_555
C126A C124A 1_555 1_555
H140A C126A 1_555 1_555
H141A C126A 1_555 1_555
H142A C126A 1_555 1_555
C127A Si6A 1_555 1_555
H143A C127A 1_555 1_555
C128A C127A 1_555 1_555
H144A C128A 1_555 1_555
H145A C128A 1_555 1_555
H146A C128A 1_555 1_555
C129A C127A 1_555 1_555
H147A C129A 1_555 1_555
H148A C129A 1_555 1_555
H149A C129A 1_555 1_555
C130A Si6A 1_555 1_555
H150A C130A 1_555 1_555
C131A C130A 1_555 1_555
H151A C131A 1_555 1_555
H152A C131A 1_555 1_555
H153A C131A 1_555 1_555
C132A C130A 1_555 1_555
H154A C132A 1_555 1_555
H155A C132A 1_555 1_555
H156A C132A 1_555 1_555
Si7A C145A 1_555 1_555
C133A C141 1_555 1_555
C134A C133A 1_555 1_555
C135A C134A 1_555 1_555
H157A C135A 1_555 1_555
C136A C135A 1_555 1_555
H158A C136A 1_555 1_555
C137A C136A 1_555 1_555
H159A C137A 1_555 1_555
C138A C137A 1_555 1_555
C139A C138A 1_555 1_555
H160A C139A 1_555 1_555
C140A C139A 1_555 1_555
H161A C140A 1_555 1_555
C141A C133 1_555 1_555
C142A C142 1_555 1_555
C143A C134A 1_555 1_555
C144A C133A 1_555 1_555
C145A C144A 1_555 1_555
C146A Si7A 1_555 1_555
H162A C146A 1_555 1_555
C147A C146A 1_555 1_555
H163A C147A 1_555 1_555
H164A C147A 1_555 1_555
H165A C147A 1_555 1_555
C148A C146A 1_555 1_555
H166A C148A 1_555 1_555
H167A C148A 1_555 1_555
H168A C148A 1_555 1_555
C149A Si7A 1_555 1_555
H169A C149A 1_555 1_555
C150A C149A 1_555 1_555
H170A C150A 1_555 1_555
H171A C150A 1_555 1_555
H172A C150A 1_555 1_555
C151A C149A 1_555 1_555
H173A C151A 1_555 1_555
H174A C151A 1_555 1_555
H175A C151A 1_555 1_555
C152A Si7A 1_555 1_555
H176A C152A 1_555 1_555
C153A C152A 1_555 1_555
H177A C153A 1_555 1_555
H178A C153A 1_555 1_555
H179A C153A 1_555 1_555
C154A C152A 1_555 1_555
H180A C154A 1_555 1_555
H181A C154A 1_555 1_555
H182A C154A 1_555 1_555
Si8A C167A 1_555 1_555
C155A C163 1_555 1_555
C156A C155A 1_555 1_555
C157A C156A 1_555 1_555
H183A C157A 1_555 1_555
C158A C157A 1_555 1_555
H184A C158A 1_555 1_555
C159A C158A 1_555 1_555
H185A C159A 1_555 1_555
C160A C159A 1_555 1_555
C161A C160A 1_555 1_555
H186A C161A 1_555 1_555
C162A C161A 1_555 1_555
H187A C162A 1_555 1_555
C163A C155 1_555 1_555
C164A C164 1_555 1_555
C165A C156A 1_555 1_555
C166A C155A 1_555 1_555
C167A C166A 1_555 1_555
C168A Si8A 1_555 1_555
H188A C168A 1_555 1_555
C169A C168A 1_555 1_555
H189A C169A 1_555 1_555
H190A C169A 1_555 1_555
H191A C169A 1_555 1_555
C170A C168A 1_555 1_555
H192A C170A 1_555 1_555
H193A C170A 1_555 1_555
H194A C170A 1_555 1_555
C171A Si8A 1_555 1_555
H195A C171A 1_555 1_555
C172A C171A 1_555 1_555
H196A C172A 1_555 1_555
H197A C172A 1_555 1_555
H198A C172A 1_555 1_555
C173A C171A 1_555 1_555
H199A C173A 1_555 1_555
H200A C173A 1_555 1_555
H201A C173A 1_555 1_555
C174A Si8A 1_555 1_555
H202A C174A 1_555 1_555
C175A C174A 1_555 1_555
H203A C175A 1_555 1_555
H204A C175A 1_555 1_555
H205A C175A 1_555 1_555
C176A C174A 1_555 1_555
H206A C176A 1_555 1_555
H207A C176A 1_555 1_555
H208A C176A 1_555 1_555
C9 C22 1_555 1_555
C17 C18 1_555 1_555
C18 C19 1_555 1_555
C19 C20 1_555 1_555
C20 C21 1_555 1_555
C21 C22 1_555 1_555
C53 C66 1_555 1_555
C61 C62 1_555 1_555
C62 C63 1_555 1_555
C63 C64 1_555 1_555
C64 C65 1_555 1_555
C65 C66 1_555 1_555
C97 C98 1_555 1_555
C98 C99 1_555 1_555
C119 C120 1_555 1_555
C120 C121 1_555 1_555
C138 C143 1_555 1_555
C142 C143 1_555 1_555
C160 C165 1_555 1_555
C164 C165 1_555 1_555
C90A C99A 1_555 1_555
C96A C97A 1_555 1_555
C97A C98A 1_555 1_555
C98A C99A 1_555 1_555
C112A C121A 1_555 1_555
C118A C119A 1_555 1_555
C119A C120A 1_555 1_555
C120A C121A 1_555 1_555
C138A C143A 1_555 1_555
C140A C141A 1_555 1_555
C141A C142A 1_555 1_555
C142A C143A 1_555 1_555
C160A C165A 1_555 1_555
C162A C163A 1_555 1_555
C163A C164A 1_555 1_555
C164A C165A 1_555 1_555

#END
