
#######################################################################
#
#                 Cambridge Crystallographic Data Centre
#                                CCDC 
#
#######################################################################
#
# If this CIF has been generated from an entry in the Cambridge 
# Structural Database, then it will include bibliographic, chemical, 
# crystal, experimental, refinement or atomic coordinate data resulting 
# from the CCDC's data processing and validation procedures.
#
#######################################################################

data_NAPZAH
_chemical_formula_moiety         'C26 H30 N4 S1'
_chemical_name_systematic        
(4-Butyl-5-(2-(1-butyl-3,3-dimethyl-1,3-dihydro-2H-indol-2-ylidene)ethylidene)-1,3-thiazol-2(5H)-ylidene)malononitrile
_symmetry_cell_setting           monoclinic
_symmetry_space_group_name_H-M   'P 21/n'
_symmetry_Int_Tables_number      14
_space_group_name_Hall           '-P 2yn'
loop_
_symmetry_equiv_pos_site_id
_symmetry_equiv_pos_as_xyz
1 x,y,z
2 1/2-x,1/2+y,1/2-z
3 -x,-y,-z
4 1/2+x,1/2-y,1/2+z
_cell_length_a                   13.0466(3)
_cell_length_b                   7.5537(2)
_cell_length_c                   23.8222(6)
_cell_angle_alpha                90
_cell_angle_beta                 91.0020(10)
_cell_angle_gamma                90
_cell_volume                     2347.32
_exptl_crystal_colour            blue
_exptl_crystal_description       block
_cell_formula_units_Z            4
loop_
_atom_site_label
_atom_site_type_symbol
_atom_site_fract_x
_atom_site_fract_y
_atom_site_fract_z
S1 S 0.27663(2) 0.17701(5) 0.224418(14)
N1 N -0.03411(8) 0.25513(15) 0.08013(5)
N2 N 0.51884(9) 0.17697(17) 0.39944(5)
N3 N 0.55481(9) 0.21642(18) 0.21549(5)
N4 N 0.26414(8) 0.13570(15) 0.33303(5)
C1 C 0.29720(12) 0.2159(2) 0.05366(7)
H1 H 0.2736 0.3110 0.0768
H2 H 0.3624 0.2466 0.0383
H3 H 0.3043 0.1104 0.0759
C2 C 0.22027(11) 0.1836(2) 0.00613(6)
H4 H 0.2454 0.0888 -0.0174
H5 H 0.2151 0.2896 -0.0167
C3 C 0.11393(10) 0.13466(19) 0.02650(6)
H6 H 0.0746 0.0822 -0.0042
H7 H 0.1202 0.0475 0.0563
C4 C 0.05768(10) 0.29680(18) 0.04824(6)
H8 H 0.1043 0.3645 0.0720
H9 H 0.0381 0.3709 0.0166
C5 C -0.03463(10) 0.21519(18) 0.13504(6)
C6 C 0.05644(11) 0.19716(18) 0.16633(6)
H10 H 0.1175 0.2107 0.1472
C7 C 0.06387(11) 0.16109(18) 0.22294(6)
H11 H 0.0032 0.1422 0.2420
C8 C 0.15554(10) 0.15079(18) 0.25393(6)
C9 C 0.33134(10) 0.16197(18) 0.29159(6)
C10 C 0.43767(10) 0.17834(18) 0.30025(6)
C11 C 0.48123(10) 0.17690(18) 0.35508(6)
C12 C 0.50307(11) 0.19938(18) 0.25385(6)
C13 C -0.13539(10) 0.26380(18) 0.05733(6)
C14 C -0.16565(11) 0.29540(18) 0.00236(6)
H12 H -0.1183 0.3159 -0.0256
C15 C -0.27075(11) 0.29498(19) -0.00892(6)
H13 H -0.2944 0.3163 -0.0453
C16 C -0.34079(11) 0.2635(2) 0.03304(6)
H14 H -0.4106 0.2646 0.0243
C17 C -0.30817(11) 0.23009(19) 0.08805(6)
H15 H -0.3552 0.2080 0.1161
C18 C -0.20381(10) 0.23071(18) 0.09990(6)
C19 C -0.14526(10) 0.20113(18) 0.15448(6)
C20 C -0.16947(11) 0.3510(2) 0.19628(6)
H16 H -0.1551 0.4634 0.1793
H17 H -0.1278 0.3370 0.2296
H18 H -0.2406 0.3458 0.2059
C21 C -0.17126(10) 0.0198(2) 0.17949(6)
H19 H -0.2434 0.0139 0.1865
H20 H -0.1336 0.0037 0.2141
H21 H -0.1530 -0.0717 0.1535
C22 C 0.16757(10) 0.12861(18) 0.31220(6)
C23 C 0.07961(10) 0.10269(19) 0.35058(6)
H22 H 0.1031 0.0382 0.3836
H23 H 0.0277 0.0314 0.3317
C24 C 0.03144(11) 0.2784(2) 0.36906(6)
H24 H 0.0811 0.3441 0.3916
H25 H 0.0147 0.3487 0.3361
C25 C -0.06528(12) 0.2509(2) 0.40296(7)
H26 H -0.0494 0.1745 0.4347
H27 H -0.0875 0.3641 0.4176
C26 C -0.15242(11) 0.1694(2) 0.36855(7)
H28 H -0.1662 0.2412 0.3360
H29 H -0.2128 0.1630 0.3910
H30 H -0.1334 0.0524 0.3569
loop_
_geom_bond_atom_site_label_1
_geom_bond_atom_site_label_2
_geom_bond_site_symmetry_1
_geom_bond_site_symmetry_2
S1 C8 1_555 1_555
N1 C4 1_555 1_555
N2 C11 1_555 1_555
N3 C12 1_555 1_555
N4 C9 1_555 1_555
C1 H1 1_555 1_555
H2 C1 1_555 1_555
H3 C1 1_555 1_555
C2 C1 1_555 1_555
H4 C2 1_555 1_555
H5 C2 1_555 1_555
C3 C2 1_555 1_555
H6 C3 1_555 1_555
H7 C3 1_555 1_555
C4 C3 1_555 1_555
H8 C4 1_555 1_555
H9 C4 1_555 1_555
C5 N1 1_555 1_555
C6 C5 1_555 1_555
H10 C6 1_555 1_555
C7 C6 1_555 1_555
H11 C7 1_555 1_555
C8 C7 1_555 1_555
C9 S1 1_555 1_555
C10 C9 1_555 1_555
C11 C10 1_555 1_555
C12 C10 1_555 1_555
C13 N1 1_555 1_555
C14 C13 1_555 1_555
H12 C14 1_555 1_555
C15 C14 1_555 1_555
H13 C15 1_555 1_555
C16 C15 1_555 1_555
H14 C16 1_555 1_555
C17 C16 1_555 1_555
H15 C17 1_555 1_555
C18 C13 1_555 1_555
C19 C5 1_555 1_555
C20 C19 1_555 1_555
H16 C20 1_555 1_555
H17 C20 1_555 1_555
H18 C20 1_555 1_555
C21 C19 1_555 1_555
H19 C21 1_555 1_555
H20 C21 1_555 1_555
H21 C21 1_555 1_555
C22 N4 1_555 1_555
C23 C22 1_555 1_555
H22 C23 1_555 1_555
H23 C23 1_555 1_555
C24 C23 1_555 1_555
H24 C24 1_555 1_555
H25 C24 1_555 1_555
C25 C24 1_555 1_555
H26 C25 1_555 1_555
H27 C25 1_555 1_555
C26 C25 1_555 1_555
H28 C26 1_555 1_555
H29 C26 1_555 1_555
H30 C26 1_555 1_555
C8 C22 1_555 1_555
C17 C18 1_555 1_555
C18 C19 1_555 1_555

#END
