
#######################################################################
#
#                 Cambridge Crystallographic Data Centre
#                                CCDC 
#
#######################################################################
#
# If this CIF has been generated from an entry in the Cambridge 
# Structural Database, then it will include bibliographic, chemical, 
# crystal, experimental, refinement or atomic coordinate data resulting 
# from the CCDC's data processing and validation procedures.
#
#######################################################################

data_NAPZEL
_chemical_formula_moiety         'C44 H31 N1,C1 H2 Cl2'
_chemical_name_systematic        
"9-(4'-(Triphenylvinyl)biphenyl-4-yl)-9H-carbazole dichloromethane solvate"
_symmetry_cell_setting           monoclinic
_symmetry_space_group_name_H-M   'P 21/c'
_symmetry_Int_Tables_number      14
_space_group_name_Hall           '-P 2ybc'
loop_
_symmetry_equiv_pos_site_id
_symmetry_equiv_pos_as_xyz
1 x,y,z
2 -x,1/2+y,1/2-z
3 -x,-y,-z
4 x,1/2-y,1/2+z
_cell_length_a                   21.295(2)
_cell_length_b                   16.3989(19)
_cell_length_c                   9.7404(11)
_cell_angle_alpha                90
_cell_angle_beta                 98.263(2)
_cell_angle_gamma                90
_cell_volume                     3366.18
_exptl_crystal_colour            colorless
_exptl_crystal_description       block
_cell_formula_units_Z            4
loop_
_atom_site_label
_atom_site_type_symbol
_atom_site_fract_x
_atom_site_fract_y
_atom_site_fract_z
N1 N 0.59122(12) 0.39485(17) 0.1440(3)
C1 C 0.62504(14) 0.46263(19) 0.2002(3)
C2 C 0.60384(16) 0.5273(2) 0.2729(3)
H1 H 0.5614 0.5293 0.2925
C3 C 0.64686(17) 0.5889(2) 0.3159(4)
H2 H 0.6338 0.6341 0.3661
C4 C 0.70940(17) 0.5853(2) 0.2862(4)
H3 H 0.7382 0.6279 0.3175
C5 C 0.73001(15) 0.5210(2) 0.2123(3)
H4 H 0.7723 0.5197 0.1920
C6 C 0.68781(14) 0.4583(2) 0.1680(3)
C7 C 0.69169(14) 0.3854(2) 0.0893(3)
C8 C 0.74020(15) 0.3483(2) 0.0253(4)
H5 H 0.7807 0.3733 0.0309
C9 C 0.72830(17) 0.2766(3) -0.0443(4)
H6 H 0.7610 0.2514 -0.0862
C10 C 0.66868(17) 0.2395(2) -0.0551(4)
H7 H 0.6615 0.1895 -0.1043
C11 C 0.61987(16) 0.2741(2) 0.0045(4)
H8 H 0.5794 0.2488 -0.0032
C12 C 0.63183(14) 0.3473(2) 0.0762(3)
C13 C 0.52661(14) 0.37816(18) 0.1583(3)
C14 C 0.51040(15) 0.36856(19) 0.2923(3)
H9 H 0.5424 0.3707 0.3710
C15 C 0.44802(15) 0.35612(18) 0.3094(3)
H10 H 0.4375 0.3497 0.4004
C16 C 0.39941(13) 0.35270(16) 0.1948(3)
C17 C 0.41714(15) 0.3641(2) 0.0636(3)
H11 H 0.3853 0.3635 -0.0155
C18 C 0.47975(16) 0.3763(2) 0.0457(3)
H12 H 0.4904 0.3834 -0.0450
C19 C 0.13638(12) 0.31211(15) 0.2773(3)
C20 C 0.20376(12) 0.32262(14) 0.2544(3)
C21 C 0.21996(13) 0.36985(15) 0.1450(3)
H13 H 0.1875 0.3959 0.0833
C22 C 0.28314(13) 0.37908(16) 0.1253(3)
H14 H 0.2930 0.4113 0.0503
C23 C 0.33206(13) 0.34177(16) 0.2139(3)
C24 C 0.31573(13) 0.29453(16) 0.3232(3)
H15 H 0.3482 0.2688 0.3854
C25 C 0.25276(13) 0.28479(15) 0.3418(3)
H16 H 0.2428 0.2516 0.4157
C26 C 0.09743(12) 0.37631(15) 0.2897(3)
C27 C 0.12142(12) 0.46230(15) 0.2984(3)
C28 C 0.17682(12) 0.48349(16) 0.3877(3)
H17 H 0.1989 0.4433 0.4461
C29 C 0.19942(13) 0.56330(17) 0.3908(3)
H18 H 0.2369 0.5774 0.4512
C30 C 0.16720(14) 0.62235(16) 0.3057(3)
H19 H 0.1830 0.6765 0.3070
C31 C 0.11227(15) 0.60227(17) 0.2196(3)
H20 H 0.0903 0.6426 0.1614
C32 C 0.08899(13) 0.52291(15) 0.2177(3)
H21 H 0.0503 0.5100 0.1604
C33 C 0.11642(12) 0.22516(15) 0.2881(3)
C34 C 0.13303(12) 0.16742(15) 0.1950(3)
H22 H 0.1560 0.1838 0.1229
C35 C 0.11624(12) 0.08560(15) 0.2067(3)
H23 H 0.1275 0.0469 0.1419
C36 C 0.08330(13) 0.06054(15) 0.3118(3)
H24 H 0.0721 0.0048 0.3195
C37 C 0.06660(12) 0.11782(16) 0.4063(3)
H25 H 0.0441 0.1011 0.4790
C38 C 0.08289(12) 0.19920(15) 0.3940(3)
H26 H 0.0711 0.2379 0.4583
C39 C 0.02838(12) 0.36542(14) 0.2964(3)
C40 C 0.00103(13) 0.40022(15) 0.4059(3)
H27 H 0.0266 0.4322 0.4735
C41 C -0.06271(13) 0.38854(16) 0.4167(3)
H28 H -0.0799 0.4099 0.4939
C42 C -0.10154(13) 0.34523(16) 0.3133(3)
H29 H -0.1454 0.3384 0.3188
C43 C -0.07555(13) 0.31250(16) 0.2033(3)
H30 H -0.1018 0.2836 0.1324
C44 C -0.01137(12) 0.32158(15) 0.1958(3)
H31 H 0.0059 0.2975 0.1207
C45 C 0.3907(3) 0.5849(3) 0.2620(5)
H32 H 0.3556 0.6224 0.2267
H33 H 0.3952 0.5447 0.1882
Cl1 Cl 0.37194(5) 0.53329(6) 0.41085(10)
Cl2 Cl 0.46248(5) 0.64133(7) 0.30138(11)
loop_
_geom_bond_atom_site_label_1
_geom_bond_atom_site_label_2
_geom_bond_site_symmetry_1
_geom_bond_site_symmetry_2
N1 C1 1_555 1_555
C1 C2 1_555 1_555
C2 H1 1_555 1_555
C3 C2 1_555 1_555
H2 C3 1_555 1_555
C4 C3 1_555 1_555
H3 C4 1_555 1_555
C5 C4 1_555 1_555
H4 C5 1_555 1_555
C6 C1 1_555 1_555
C7 C6 1_555 1_555
C8 C7 1_555 1_555
H5 C8 1_555 1_555
C9 C8 1_555 1_555
H6 C9 1_555 1_555
C10 C9 1_555 1_555
H7 C10 1_555 1_555
C11 C10 1_555 1_555
H8 C11 1_555 1_555
C12 N1 1_555 1_555
C13 N1 1_555 1_555
C14 C13 1_555 1_555
H9 C14 1_555 1_555
C15 C14 1_555 1_555
H10 C15 1_555 1_555
C16 C15 1_555 1_555
C17 C16 1_555 1_555
H11 C17 1_555 1_555
C18 C13 1_555 1_555
H12 C18 1_555 1_555
C19 C20 1_555 1_555
C20 C21 1_555 1_555
C21 H13 1_555 1_555
C22 C21 1_555 1_555
H14 C22 1_555 1_555
C23 C16 1_555 1_555
C24 C23 1_555 1_555
H15 C24 1_555 1_555
C25 C20 1_555 1_555
H16 C25 1_555 1_555
C26 C19 1_555 1_555
C27 C26 1_555 1_555
C28 C27 1_555 1_555
H17 C28 1_555 1_555
C29 C28 1_555 1_555
H18 C29 1_555 1_555
C30 C29 1_555 1_555
H19 C30 1_555 1_555
C31 C30 1_555 1_555
H20 C31 1_555 1_555
C32 C27 1_555 1_555
H21 C32 1_555 1_555
C33 C19 1_555 1_555
C34 C33 1_555 1_555
H22 C34 1_555 1_555
C35 C34 1_555 1_555
H23 C35 1_555 1_555
C36 C35 1_555 1_555
H24 C36 1_555 1_555
C37 C36 1_555 1_555
H25 C37 1_555 1_555
C38 C33 1_555 1_555
H26 C38 1_555 1_555
C39 C26 1_555 1_555
C40 C39 1_555 1_555
H27 C40 1_555 1_555
C41 C40 1_555 1_555
H28 C41 1_555 1_555
C42 C41 1_555 1_555
H29 C42 1_555 1_555
C43 C42 1_555 1_555
H30 C43 1_555 1_555
C44 C39 1_555 1_555
H31 C44 1_555 1_555
C45 H32 1_555 1_555
H33 C45 1_555 1_555
Cl1 C45 1_555 1_555
Cl2 C45 1_555 1_555
C5 C6 1_555 1_555
C7 C12 1_555 1_555
C11 C12 1_555 1_555
C17 C18 1_555 1_555
C22 C23 1_555 1_555
C24 C25 1_555 1_555
C31 C32 1_555 1_555
C37 C38 1_555 1_555
C43 C44 1_555 1_555

#END
