
#######################################################################
#
#                 Cambridge Crystallographic Data Centre
#                                CCDC 
#
#######################################################################
#
# If this CIF has been generated from an entry in the Cambridge 
# Structural Database, then it will include bibliographic, chemical, 
# crystal, experimental, refinement or atomic coordinate data resulting 
# from the CCDC's data processing and validation procedures.
#
#######################################################################

data_NAQCIU
_chemical_formula_moiety         'C15 H16 N2 O2'
_chemical_name_systematic        
3-methyl-1',2',3',3a'-tetrahydro-5H,5'H-spiro[isoxazole-4,4'-pyrrolo[1,2-a]quinolin]-5-one
_symmetry_cell_setting           monoclinic
_symmetry_space_group_name_H-M   'P 21/n'
_symmetry_Int_Tables_number      14
_space_group_name_Hall           '-P 2yn'
loop_
_symmetry_equiv_pos_site_id
_symmetry_equiv_pos_as_xyz
1 x,y,z
2 1/2-x,1/2+y,1/2-z
3 -x,-y,-z
4 1/2+x,1/2-y,1/2+z
_cell_length_a                   9.9167(5)
_cell_length_b                   12.9904(5)
_cell_length_c                   10.4039(5)
_cell_angle_alpha                90
_cell_angle_beta                 103.119(3)
_cell_angle_gamma                90
_cell_volume                     1305.27
_exptl_crystal_colour            colorless
_exptl_crystal_description       block
_cell_formula_units_Z            4
loop_
_atom_site_label
_atom_site_type_symbol
_atom_site_fract_x
_atom_site_fract_y
_atom_site_fract_z
C1 C 0.21521(14) 0.11915(10) 0.62256(13)
C2 C 0.30125(13) 0.19994(10) 0.56684(12)
H1 H 0.2863 0.1891 0.4714
C3 C 0.27301(15) 0.01196(10) 0.59774(13)
H2 H 0.2274 -0.0405 0.6389
H3 H 0.2527 -0.0015 0.5036
N1 N 0.44740(12) 0.18833(9) 0.62458(12)
C4 C 0.50878(14) 0.09484(10) 0.66247(12)
C5 C 0.42661(13) 0.00565(10) 0.65209(11)
C6 C 0.65161(16) 0.08661(13) 0.71608(15)
H4 H 0.7072 0.1450 0.7239
C7 C 0.48890(17) -0.08766(11) 0.69415(15)
H5 H 0.4347 -0.1468 0.6869
C8 C 0.52121(16) 0.28505(11) 0.63158(15)
H6 H 0.5906 0.2825 0.5793
H7 H 0.5661 0.3016 0.7221
C9 C 0.63029(19) -0.09496(14) 0.74692(16)
H8 H 0.6704 -0.1582 0.7748
C10 C 0.4097(2) 0.36322(12) 0.57579(19)
H9 H 0.4073 0.3772 0.4837
H10 H 0.4255 0.4273 0.6249
C11 C 0.71016(16) -0.00795(15) 0.75744(16)
H11 H 0.8049 -0.0125 0.7928
O1 O 0.01477(13) 0.12372(11) 0.43492(14)
O2 O -0.01189(12) 0.14540(10) 0.63906(15)
N2 N 0.07671(19) 0.14769(12) 0.77031(17)
C12 C 0.20226(17) 0.13451(11) 0.76129(15)
C13 C 0.06527(16) 0.12844(11) 0.55079(17)
C14 C 0.3164(3) 0.13317(16) 0.88170(16)
H12 H 0.2788 0.1413 0.9583
H13 H 0.3794 0.1886 0.8777
H14 H 0.3649 0.0688 0.8869
C15 C 0.27565(16) 0.31261(12) 0.59089(17)
H15 H 0.2603 0.3234 0.6787
H16 H 0.1968 0.3388 0.5262
loop_
_geom_bond_atom_site_label_1
_geom_bond_atom_site_label_2
_geom_bond_site_symmetry_1
_geom_bond_site_symmetry_2
C1 C2 1_555 1_555
C2 H1 1_555 1_555
C3 C1 1_555 1_555
H2 C3 1_555 1_555
H3 C3 1_555 1_555
N1 C2 1_555 1_555
C4 N1 1_555 1_555
C5 C3 1_555 1_555
C6 C4 1_555 1_555
H4 C6 1_555 1_555
C7 C5 1_555 1_555
H5 C7 1_555 1_555
C8 N1 1_555 1_555
H6 C8 1_555 1_555
H7 C8 1_555 1_555
C9 C7 1_555 1_555
H8 C9 1_555 1_555
C10 C8 1_555 1_555
H9 C10 1_555 1_555
H10 C10 1_555 1_555
C11 C6 1_555 1_555
H11 C11 1_555 1_555
O1 C13 1_555 1_555
O2 N2 1_555 1_555
N2 C12 1_555 1_555
C12 C1 1_555 1_555
C13 C1 1_555 1_555
C14 C12 1_555 1_555
H12 C14 1_555 1_555
H13 C14 1_555 1_555
H14 C14 1_555 1_555
C15 C2 1_555 1_555
H15 C15 1_555 1_555
H16 C15 1_555 1_555
C4 C5 1_555 1_555
C9 C11 1_555 1_555
C10 C15 1_555 1_555
O2 C13 1_555 1_555

#END
