
#######################################################################
#
#                 Cambridge Crystallographic Data Centre
#                                CCDC 
#
#######################################################################
#
# If this CIF has been generated from an entry in the Cambridge 
# Structural Database, then it will include bibliographic, chemical, 
# crystal, experimental, refinement or atomic coordinate data resulting 
# from the CCDC's data processing and validation procedures.
#
#######################################################################

data_NAQMOI
_chemical_name_common            
'Calix(4)imidazolium(2)pyridine fluoride tris(hexafluorophosphate) dihydrate'
_chemical_formula_moiety         'C28 H30 N10 4+,F1 1-,3(F6 P1 1-),2(H2 O1)'
_chemical_name_systematic        
'5,11(2,6)-Dipyridina-1,3,7,9(1,3)-tetraimidazolacyclododecaphane-1^1^,3^1^,7^1^,9^1^-tetraium fluoride tris(hexafluorophosphate) dihydrate'
_symmetry_cell_setting           monoclinic
_symmetry_space_group_name_H-M   'C m'
_symmetry_Int_Tables_number      8
_space_group_name_Hall           'C -2y'
loop_
_symmetry_equiv_pos_site_id
_symmetry_equiv_pos_as_xyz
1 x,y,z
2 x,-y,z
3 1/2+x,1/2+y,z
4 1/2+x,1/2-y,z
_cell_length_a                   13.9008(18)
_cell_length_b                   20.921(3)
_cell_length_c                   8.5040(11)
_cell_angle_alpha                90
_cell_angle_beta                 122.502(2)
_cell_angle_gamma                90
_cell_volume                     2085.76
_cell_formula_units_Z            2
loop_
_atom_site_label
_atom_site_type_symbol
_atom_site_fract_x
_atom_site_fract_y
_atom_site_fract_z
F1 F 0.0085(5) 0.5000 0.6653(8)
C1 C 0.8867(5) 0.2838(3) 0.6328(8)
C2 C 0.8865(7) 0.2184(4) 0.6276(9)
H1 H 0.8173 0.1969 0.5728
C3 C 0.9791(10) 0.1858(3) 0.6961(13)
H2 H 0.9777 0.1414 0.6990
C4 C 1.0858(7) 0.2198(3) 0.7687(12)
H3 H 1.1547 0.1987 0.8131
C5 C 1.0784(7) 0.2852(4) 0.7673(9)
C6 C 1.1894(6) 0.3220(4) 0.8445(11)
H4 H 1.2525 0.2922 0.8921
H5 H 1.1864 0.3466 0.7453
C7 C 1.1434(6) 0.4172(3) 0.9691(10)
H6 H 1.0803 0.4316 0.8577
C8 C 1.2956(8) 0.3566(5) 1.1831(10)
H7 H 1.3527 0.3258 1.2371
C9 C 1.2739(5) 0.4081(4) 1.2717(10)
H8 H 1.3126 0.4152 1.3996
C10 C 1.1436(9) 0.5000 1.1774(16)
H9 H 1.0610 0.5000 1.0982
H10 H 1.1652 0.5000 1.3064
C11 C 0.8282(9) 0.5000 0.2233(13)
H11 H 0.8112 0.5000 0.0967
H12 H 0.9105 0.5000 0.3081
C12 C 0.8169(6) 0.4167(3) 0.4233(9)
H13 H 0.8774 0.4332 0.5344
C13 C 0.6784(6) 0.4067(3) 0.1307(11)
H14 H 0.6268 0.4151 0.0049
C14 C 0.6748(6) 0.3619(3) 0.2276(9)
H15 H 0.6212 0.3291 0.1810
C15 C 0.7844(7) 0.3260(4) 0.5678(11)
H16 H 0.7182 0.2994 0.5293
H17 H 0.7969 0.3522 0.6713
N1 N 0.9834(6) 0.3173(2) 0.7033(9)
N2 N 1.2079(4) 0.3645(3) 0.9921(8)
N3 N 1.1889(5) 0.4445(3) 1.1403(8)
N4 N 0.7778(4) 0.4409(3) 0.2556(7)
N5 N 0.7603(5) 0.3686(3) 0.4094(7)
C1A C 0.8867(5) 0.7162(3) 0.6328(8)
C2A C 0.8865(7) 0.7816(4) 0.6276(9)
H1A H 0.8173 0.8031 0.5728
C3A C 0.9791(10) 0.8142(3) 0.6961(13)
H2A H 0.9777 0.8586 0.6990
C4A C 1.0858(7) 0.7802(3) 0.7687(12)
H3A H 1.1547 0.8013 0.8131
C5A C 1.0784(7) 0.7148(4) 0.7673(9)
C6A C 1.1894(6) 0.6780(4) 0.8445(11)
H4A H 1.2525 0.7078 0.8921
H5A H 1.1864 0.6534 0.7453
C7A C 1.1434(6) 0.5828(3) 0.9691(10)
H6A H 1.0803 0.5684 0.8577
C8A C 1.2956(8) 0.6434(5) 1.1831(10)
H7A H 1.3527 0.6742 1.2371
C9A C 1.2739(5) 0.5919(4) 1.2717(10)
H8A H 1.3126 0.5848 1.3996
C12A C 0.8169(6) 0.5833(3) 0.4233(9)
H13A H 0.8774 0.5668 0.5344
C13A C 0.6784(6) 0.5933(3) 0.1307(11)
H14A H 0.6268 0.5849 0.0049
C14A C 0.6748(6) 0.6381(3) 0.2276(9)
H15A H 0.6212 0.6709 0.1810
C15A C 0.7844(7) 0.6740(4) 0.5678(11)
H16A H 0.7182 0.7006 0.5293
H17A H 0.7969 0.6478 0.6713
N1A N 0.9834(6) 0.6827(2) 0.7033(9)
N2A N 1.2079(4) 0.6355(3) 0.9921(8)
N3A N 1.1889(5) 0.5555(3) 1.1403(8)
N4A N 0.7778(4) 0.5591(3) 0.2556(7)
N5A N 0.7603(5) 0.6314(3) 0.4094(7)
P1 P 0.48231(17) 0.18985(8) 0.1992(3)
F2 F 0.5007(9) 0.2574(4) 0.282(2)
F3 F 0.4760(11) 0.1229(5) 0.157(4)
F4 F 0.5733(7) 0.1974(4) 0.1477(14)
F5 F 0.5917(9) 0.1822(9) 0.3945(12)
F6 F 0.3993(12) 0.1880(8) 0.2619(18)
F7 F 0.3922(11) 0.2092(10) 0.0148(13)
P2 P 0.1181(3) 0.0000 0.6077(4)
F8 F 0.0735(17) 0.0000 0.739(2)
F9 F 0.1700(16) 0.0000 0.487(3)
F10 F 0.1669(12) 0.0605(5) 0.717(2)
F11 F 0.0418(13) 0.0478(8) 0.4741(17)
F10A F 0.1669(12) -0.0605(5) 0.717(2)
F11A F 0.0418(13) -0.0478(8) 0.4741(17)
O1 O 0.141(4) 0.5000 0.541(4)
H18 H 0.2194 0.5000 0.6592
H19 H 0.0841 0.5000 0.5773
O2 O 0.390(3) 0.5000 -0.045(9)
H20 H 0.4375 0.4652 0.0731
H20A H 0.4375 0.5348 0.0731
loop_
_geom_bond_atom_site_label_1
_geom_bond_atom_site_label_2
_geom_bond_site_symmetry_1
_geom_bond_site_symmetry_2
C1 C2 1_555 1_555
C2 H1 1_555 1_555
C3 C2 1_555 1_555
H2 C3 1_555 1_555
C4 C3 1_555 1_555
H3 C4 1_555 1_555
C5 C4 1_555 1_555
C6 C5 1_555 1_555
H4 C6 1_555 1_555
H5 C6 1_555 1_555
C7 H6 1_555 1_555
C8 H7 1_555 1_555
C9 C8 1_555 1_555
H8 C9 1_555 1_555
C10 H9 1_555 1_555
H10 C10 1_555 1_555
C11 H11 1_555 1_555
H12 C11 1_555 1_555
C12 H13 1_555 1_555
C13 H14 1_555 1_555
C14 C13 1_555 1_555
H15 C14 1_555 1_555
C15 C1 1_555 1_555
H16 C15 1_555 1_555
H17 C15 1_555 1_555
N1 C1 1_555 1_555
N2 C6 1_555 1_555
N3 C7 1_555 1_555
N4 C11 1_555 1_555
N5 C12 1_555 1_555
P1 F2 1_555 1_555
F3 P1 1_555 1_555
F4 P1 1_555 1_555
F5 P1 1_555 1_555
F6 P1 1_555 1_555
F7 P1 1_555 1_555
P2 F8 1_555 1_555
F9 P2 1_555 1_555
F10 P2 1_555 1_555
F11 P2 1_555 1_555
O1 H18 1_555 1_555
H19 O1 1_555 1_555
O2 H20 1_555 1_555
C1A C2A 1_555 1_555
C2A H1A 1_555 1_555
C3A C2A 1_555 1_555
H2A C3A 1_555 1_555
C4A C3A 1_555 1_555
H3A C4A 1_555 1_555
C5A C4A 1_555 1_555
C6A C5A 1_555 1_555
H4A C6A 1_555 1_555
H5A C6A 1_555 1_555
C7A H6A 1_555 1_555
C8A H7A 1_555 1_555
C9A C8A 1_555 1_555
H8A C9A 1_555 1_555
C12A H13A 1_555 1_555
C13A H14A 1_555 1_555
C14A C13A 1_555 1_555
H15A C14A 1_555 1_555
C15A C1A 1_555 1_555
H16A C15A 1_555 1_555
H17A C15A 1_555 1_555
N1A C1A 1_555 1_555
N2A C6A 1_555 1_555
N3A C10 1_555 1_555
N4A C11 1_555 1_555
N5A C12A 1_555 1_555
F10A P2 1_555 1_555
F11A P2 1_555 1_555
H20A O2 1_555 1_555
C5 N1 1_555 1_555
C7 N2 1_555 1_555
C8 N2 1_555 1_555
C9 N3 1_555 1_555
C10 N3 1_555 1_555
C12 N4 1_555 1_555
C13 N4 1_555 1_555
C14 N5 1_555 1_555
C15 N5 1_555 1_555
C5A N1A 1_555 1_555
C7A N2A 1_555 1_555
C7A N3A 1_555 1_555
C8A N2A 1_555 1_555
C9A N3A 1_555 1_555
C12A N4A 1_555 1_555
C13A N4A 1_555 1_555
C14A N5A 1_555 1_555
C15A N5A 1_555 1_555

#END
