
#######################################################################
#
#                 Cambridge Crystallographic Data Centre
#                                CCDC 
#
#######################################################################
#
# If this CIF has been generated from an entry in the Cambridge 
# Structural Database, then it will include bibliographic, chemical, 
# crystal, experimental, refinement or atomic coordinate data resulting 
# from the CCDC's data processing and validation procedures.
#
#######################################################################

data_NAQMAV
_chemical_formula_moiety         'C8 H12 O4'
_chemical_name_systematic        
1-Methyl-2,6,9-trioxatricyclo[3.3.2.0^3,7^]decan-4-ol
_symmetry_cell_setting           orthorhombic
_symmetry_space_group_name_H-M   'P 21 21 21'
_symmetry_Int_Tables_number      19
_space_group_name_Hall           'P 2ac 2ab'
loop_
_symmetry_equiv_pos_site_id
_symmetry_equiv_pos_as_xyz
1 x,y,z
2 1/2-x,-y,1/2+z
3 -x,1/2+y,1/2-z
4 1/2+x,1/2-y,-z
_cell_length_a                   5.7608(7)
_cell_length_b                   10.8311(14)
_cell_length_c                   12.7221(16)
_cell_angle_alpha                90
_cell_angle_beta                 90
_cell_angle_gamma                90
_cell_volume                     793.806
_exptl_crystal_colour            colorless
_exptl_crystal_description       block
_cell_formula_units_Z            4
loop_
_atom_site_label
_atom_site_type_symbol
_atom_site_fract_x
_atom_site_fract_y
_atom_site_fract_z
O1 O -0.05035(18) 0.44926(10) 0.00649(8)
O2 O 0.16661(19) 0.23254(9) 0.08932(9)
H1 H 0.2516 0.1850 0.0572
O3 O 0.28782(17) 0.52531(8) 0.21100(7)
O4 O 0.40685(18) 0.61221(10) 0.05305(8)
C1 C 0.1918(3) 0.42281(13) -0.01248(11)
H2 H 0.2048 0.3672 -0.0730
C2 C 0.2630(3) 0.35380(11) 0.08641(11)
H3 H 0.4319 0.3529 0.0958
C3 C 0.1414(2) 0.42921(12) 0.17172(10)
H4 H 0.0839 0.3763 0.2286
C4 C -0.0606(2) 0.49413(12) 0.11306(11)
H5 H -0.2111 0.4770 0.1459
C5 C 0.3296(3) 0.53969(14) -0.03457(11)
H6 H 0.4653 0.5166 -0.0752
H7 H 0.2351 0.5924 -0.0790
C6 C 0.0036(3) 0.63030(12) 0.12030(13)
H8 H -0.0295 0.6726 0.0548
H9 H -0.0807 0.6705 0.1767
C7 C 0.2628(2) 0.62903(12) 0.14261(11)
C8 C 0.3573(3) 0.74075(14) 0.19907(13)
H10 H 0.5191 0.7285 0.2140
H11 H 0.2742 0.7524 0.2637
H12 H 0.3389 0.8124 0.1555
loop_
_geom_bond_atom_site_label_1
_geom_bond_atom_site_label_2
_geom_bond_site_symmetry_1
_geom_bond_site_symmetry_2
O1 C1 1_555 1_555
O2 H1 1_555 1_555
O3 C3 1_555 1_555
O4 C5 1_555 1_555
C1 H2 1_555 1_555
C2 O2 1_555 1_555
H3 C2 1_555 1_555
C3 C2 1_555 1_555
H4 C3 1_555 1_555
C4 O1 1_555 1_555
H5 C4 1_555 1_555
C5 C1 1_555 1_555
H6 C5 1_555 1_555
H7 C5 1_555 1_555
C6 C4 1_555 1_555
H8 C6 1_555 1_555
H9 C6 1_555 1_555
C7 O3 1_555 1_555
C8 C7 1_555 1_555
H10 C8 1_555 1_555
H11 C8 1_555 1_555
H12 C8 1_555 1_555
O4 C7 1_555 1_555
C1 C2 1_555 1_555
C3 C4 1_555 1_555
C6 C7 1_555 1_555

#END
