
#######################################################################
#
#                 Cambridge Crystallographic Data Centre
#                                CCDC 
#
#######################################################################
#
# If this CIF has been generated from an entry in the Cambridge 
# Structural Database, then it will include bibliographic, chemical, 
# crystal, experimental, refinement or atomic coordinate data resulting 
# from the CCDC's data processing and validation procedures.
#
#######################################################################

data_NAQMEY
_chemical_name_common            
'Calix(4)imidazolium(2)pyridine tetrakis(hexafluorophosphate) acetonitrile solvate'
_chemical_formula_moiety         'C28 H30 N10 4+,4(F6 P1 1-),C2 H3 N1'
_chemical_name_systematic        
'5,11(2,6)-Dipyridina-1,3,7,9(1,3)-tetraimidazolacyclododecaphane-1^1^,3^1^,7^1^,9^1^-tetraium tetrakis(hexafluorophosphate) acetonitrile solvate'
_symmetry_cell_setting           triclinic
_symmetry_space_group_name_H-M   'P -1'
_symmetry_Int_Tables_number      2
_space_group_name_Hall           '-P 1'
loop_
_symmetry_equiv_pos_site_id
_symmetry_equiv_pos_as_xyz
1 x,y,z
2 -x,-y,-z
_cell_length_a                   7.9048(8)
_cell_length_b                   11.9934(12)
_cell_length_c                   12.5970(12)
_cell_angle_alpha                108.540(2)
_cell_angle_beta                 99.468(2)
_cell_angle_gamma                98.131(2)
_cell_volume                     1092.63
_exptl_crystal_colour            colorless
_exptl_crystal_description       needle
_cell_formula_units_Z            1
_exptl_crystal_recrystallization_method acetonitrile/acetone
loop_
_atom_site_label
_atom_site_type_symbol
_atom_site_fract_x
_atom_site_fract_y
_atom_site_fract_z
P2 P 0.68052(19) 0.72335(11) 0.61653(11)
F7 F 0.6578(6) 0.6717(4) 0.4825(3)
F8 F 0.8619(6) 0.6858(5) 0.6293(4)
F9 F 0.7664(8) 0.8478(4) 0.6156(5)
F10 F 0.6998(9) 0.7764(4) 0.7480(3)
F11 F 0.5932(8) 0.6031(4) 0.6251(5)
F12 F 0.4977(7) 0.7587(7) 0.5965(5)
N1 N -0.2431(5) 0.2209(3) 0.0495(3)
N2 N -0.0882(5) 0.4583(3) 0.2663(3)
N3 N 0.1747(5) 0.5501(3) 0.2819(3)
N4 N 0.3561(5) 0.7062(3) 0.2485(3)
N5 N 0.3044(5) 0.8531(3) 0.1932(3)
C1 C -0.2418(6) 0.1076(4) -0.0082(4)
C2 C -0.2517(7) 0.0184(4) 0.0400(5)
H1 H -0.2553 -0.0609 -0.0040
C3 C -0.2560(8) 0.0499(5) 0.1535(5)
H2 H -0.2565 -0.0071 0.1892
C4 C -0.2595(7) 0.1676(5) 0.2146(5)
H3 H -0.2657 0.1909 0.2915
C5 C -0.2538(6) 0.2493(4) 0.1589(4)
C6 C -0.2634(6) 0.3785(4) 0.2196(4)
H4 H -0.3321 0.4067 0.1660
H5 H -0.3228 0.3824 0.2818
C7 C 0.0419(6) 0.4622(4) 0.2139(4)
H6 H 0.0411 0.4113 0.1405
C8 C -0.0374(7) 0.5471(4) 0.3727(4)
H7 H -0.1044 0.5643 0.4278
C9 C 0.1254(7) 0.6043(4) 0.3830(4)
H8 H 0.1928 0.6684 0.4462
C10 C 0.3399(6) 0.5853(4) 0.2530(4)
H9 H 0.3447 0.5292 0.1792
H10 H 0.4366 0.5832 0.3103
C11 C 0.2714(6) 0.7346(4) 0.1637(4)
H11 H 0.2008 0.6803 0.0950
C12 C 0.4470(7) 0.8111(4) 0.3340(4)
H12 H 0.5178 0.8177 0.4034
C13 C 0.4152(7) 0.9017(4) 0.2993(4)
H13 H 0.4601 0.9831 0.3398
C14 C -0.2213(7) 0.0766(4) -0.1309(4)
H14 H -0.2713 -0.0081 -0.1721
H15 H -0.0972 0.0892 -0.1307
N1A N 0.2431(5) 0.7791(3) -0.0495(3)
N2A N 0.0882(5) 0.5417(3) -0.2663(3)
N3A N -0.1747(5) 0.4499(3) -0.2819(3)
N4A N -0.3561(5) 0.2938(3) -0.2485(3)
N5A N -0.3044(5) 0.1469(3) -0.1932(3)
C1A C 0.2418(6) 0.8924(4) 0.0082(4)
C2A C 0.2517(7) 0.9816(4) -0.0400(5)
H1A H 0.2553 1.0609 0.0040
C3A C 0.2560(8) 0.9501(5) -0.1535(5)
H2A H 0.2565 1.0071 -0.1892
C4A C 0.2595(7) 0.8324(5) -0.2146(5)
H3A H 0.2657 0.8091 -0.2915
C5A C 0.2538(6) 0.7507(4) -0.1589(4)
C6A C 0.2634(6) 0.6215(4) -0.2196(4)
H4A H 0.3321 0.5933 -0.1660
H5A H 0.3228 0.6176 -0.2818
C7A C -0.0419(6) 0.5378(4) -0.2139(4)
H6A H -0.0411 0.5887 -0.1405
C8A C 0.0374(7) 0.4529(4) -0.3727(4)
H7A H 0.1044 0.4357 -0.4278
C9A C -0.1254(7) 0.3957(4) -0.3830(4)
H8A H -0.1928 0.3316 -0.4462
C10A C -0.3399(6) 0.4147(4) -0.2530(4)
H9A H -0.3447 0.4708 -0.1792
H10A H -0.4366 0.4168 -0.3103
C11A C -0.2714(6) 0.2654(4) -0.1637(4)
H11A H -0.2008 0.3197 -0.0950
C12A C -0.4470(7) 0.1889(4) -0.3340(4)
H12A H -0.5178 0.1823 -0.4034
C13A C -0.4152(7) 0.0983(4) -0.2993(4)
H13A H -0.4601 0.0169 -0.3398
C14A C 0.2213(7) 0.9234(4) 0.1309(4)
H14A H 0.2713 1.0081 0.1721
H15A H 0.0972 0.9108 0.1307
P1 P 0.75917(17) 0.66895(11) 0.09030(11)
F1 F 0.8659(5) 0.7281(4) 0.0183(3)
F2 F 0.8293(6) 0.5493(3) 0.0387(3)
F3 F 0.9253(5) 0.7134(4) 0.1935(3)
F4 F 0.6603(4) 0.6104(3) 0.1644(3)
F5 F 0.6887(6) 0.7856(3) 0.1386(4)
F6 F 0.5994(5) 0.6206(4) -0.0141(4)
C15? C 0.1938(19) 0.9225(10) 0.5373(9)
H16? H 0.1583 0.8373 0.4976
H17? H 0.2228 0.9391 0.6186
H18? H 0.2944 0.9532 0.5136
C16? C 0.0878(18) 0.9653(16) 0.5170(13)
N6? N 0.0000 1.0000 0.5000
loop_
_geom_bond_atom_site_label_1
_geom_bond_atom_site_label_2
_geom_bond_site_symmetry_1
_geom_bond_site_symmetry_2
P1 F1 1_555 1_555
F2 P1 1_555 1_555
F3 P1 1_555 1_555
F4 P1 1_555 1_555
F5 P1 1_555 1_555
F6 P1 1_555 1_555
P2 F7 1_555 1_555
F8 P2 1_555 1_555
F9 P2 1_555 1_555
F10 P2 1_555 1_555
F11 P2 1_555 1_555
F12 P2 1_555 1_555
N1 C1 1_555 1_555
N2 C6 1_555 1_555
N3 C7 1_555 1_555
N4 C10 1_555 1_555
N5 C11 1_555 1_555
C1 C2 1_555 1_555
C2 H1 1_555 1_555
C3 C2 1_555 1_555
H2 C3 1_555 1_555
C4 C3 1_555 1_555
H3 C4 1_555 1_555
C5 N1 1_555 1_555
C6 C5 1_555 1_555
H4 C6 1_555 1_555
H5 C6 1_555 1_555
C7 N2 1_555 1_555
H6 C7 1_555 1_555
C8 N2 1_555 1_555
H7 C8 1_555 1_555
C9 N3 1_555 1_555
H8 C9 1_555 1_555
C10 N3 1_555 1_555
H9 C10 1_555 1_555
H10 C10 1_555 1_555
C11 N4 1_555 1_555
H11 C11 1_555 1_555
C12 N4 1_555 1_555
H12 C12 1_555 1_555
C13 N5 1_555 1_555
H13 C13 1_555 1_555
C14 C1 1_555 1_555
H14 C14 1_555 1_555
H15 C14 1_555 1_555
N1A C1A 1_555 1_555
N2A C6A 1_555 1_555
N3A C7A 1_555 1_555
N4A C10A 1_555 1_555
N5A C14 1_555 1_555
C1A C2A 1_555 1_555
C2A H1A 1_555 1_555
C3A C2A 1_555 1_555
H2A C3A 1_555 1_555
C4A C3A 1_555 1_555
H3A C4A 1_555 1_555
C5A N1A 1_555 1_555
C6A C5A 1_555 1_555
H4A C6A 1_555 1_555
H5A C6A 1_555 1_555
C7A N2A 1_555 1_555
H6A C7A 1_555 1_555
C8A N2A 1_555 1_555
H7A C8A 1_555 1_555
C9A N3A 1_555 1_555
H8A C9A 1_555 1_555
C10A N3A 1_555 1_555
H9A C10A 1_555 1_555
H10A C10A 1_555 1_555
C11A N4A 1_555 1_555
H11A C11A 1_555 1_555
C12A N4A 1_555 1_555
H12A C12A 1_555 1_555
C13A N5A 1_555 1_555
H13A C13A 1_555 1_555
C14A N5 1_555 1_555
H14A C14A 1_555 1_555
H15A C14A 1_555 1_555
C4 C5 1_555 1_555
C8 C9 1_555 1_555
C12 C13 1_555 1_555
N5A C11A 1_555 1_555
C1A C14A 1_555 1_555
C4A C5A 1_555 1_555
C8A C9A 1_555 1_555
C12A C13A 1_555 1_555

#END
