
#######################################################################
#
#                 Cambridge Crystallographic Data Centre
#                                CCDC 
#
#######################################################################
#
# If this CIF has been generated from an entry in the Cambridge 
# Structural Database, then it will include bibliographic, chemical, 
# crystal, experimental, refinement or atomic coordinate data resulting 
# from the CCDC's data processing and validation procedures.
#
#######################################################################

data_NAQXAE
_chemical_formula_moiety         'C9 H18 N1 O1 1+,C12 F10 O2 P1 1-'
_chemical_name_systematic        
'2,2,6,6-Tetramethyl-4-oxopiperidinium bis(pentafluorophenyl)phosphinate'
_symmetry_cell_setting           triclinic
_symmetry_space_group_name_H-M   'P -1'
_symmetry_Int_Tables_number      2
_space_group_name_Hall           '-P 1'
loop_
_symmetry_equiv_pos_site_id
_symmetry_equiv_pos_as_xyz
1 x,y,z
2 -x,-y,-z
_cell_length_a                   11.845(1)
_cell_length_b                   14.149(1)
_cell_length_c                   14.766(1)
_cell_angle_alpha                90.206(7)
_cell_angle_beta                 108.131(5)
_cell_angle_gamma                91.112(5)
_cell_volume                     2351.27
_exptl_crystal_colour            'pale brown'
_exptl_crystal_description       prism
_cell_formula_units_Z            4
_exptl_crystal_recrystallization_method acetone
loop_
_atom_site_label
_atom_site_type_symbol
_atom_site_fract_x
_atom_site_fract_y
_atom_site_fract_z
P1 P 0.04055(4) 0.15459(3) 0.36359(3)
F1 F 0.31884(9) 0.17741(8) 0.41518(8)
F2 F 0.44824(9) 0.33657(9) 0.44852(8)
F3 F 0.3435(1) 0.50618(8) 0.43946(8)
F4 F 0.1034(1) 0.51488(8) 0.39038(10)
F5 F -0.03059(9) 0.35695(7) 0.35168(8)
F6 F 0.14924(10) 0.11959(9) 0.20781(8)
F7 F 0.0502(1) 0.1141(1) 0.01863(9)
F8 F -0.1831(1) 0.1538(1) -0.06062(9)
F9 F -0.3170(1) 0.19897(10) 0.05299(9)
F10 F -0.22343(9) 0.19810(8) 0.24026(8)
O1 O 0.1140(1) 0.06900(8) 0.38377(9)
O2 O -0.0503(1) 0.16987(9) 0.41149(8)
C1 C 0.1371(1) 0.2597(1) 0.3822(1)
C2 C 0.2605(1) 0.2587(1) 0.4067(1)
C3 C 0.3295(1) 0.3407(1) 0.4250(1)
C4 C 0.2769(2) 0.4266(1) 0.4200(1)
C5 C 0.1554(2) 0.4307(1) 0.3955(1)
C6 C 0.0889(1) 0.3488(1) 0.3769(1)
C7 C -0.0320(2) 0.1576(1) 0.2333(1)
C8 C 0.0324(2) 0.1368(1) 0.1722(1)
C9 C -0.0169(2) 0.1350(2) 0.0746(1)
C10 C -0.1352(2) 0.1552(2) 0.0343(1)
C11 C -0.2015(2) 0.1774(1) 0.0918(1)
C12 C -0.1511(2) 0.1775(1) 0.1895(1)
P2 P 0.33678(4) 0.34957(3) 0.04639(3)
F11 F 0.21958(9) 0.4251(1) 0.19429(7)
F12 F -0.0080(1) 0.4512(1) 0.17231(8)
F13 F -0.17694(9) 0.40235(10) 0.00644(8)
F14 F -0.1130(1) 0.3298(1) -0.13960(9)
F15 F 0.1145(1) 0.2964(1) -0.11817(9)
F16 F 0.3773(1) 0.24725(8) 0.23467(8)
F17 F 0.4142(1) 0.06497(9) 0.27541(9)
F18 F 0.4169(1) -0.06087(9) 0.1368(1)
F19 F 0.3706(2) -0.00212(9) -0.0460(1)
F20 F 0.3327(2) 0.17790(9) -0.08883(9)
O3 O 0.4091(1) 0.40365(9) 0.13122(9)
O4 O 0.3476(1) 0.36875(9) -0.04901(9)
C13 C 0.1791(1) 0.3616(1) 0.0380(1)
C14 C 0.1422(2) 0.3988(1) 0.1105(1)
C15 C 0.0239(2) 0.4123(1) 0.1013(1)
C16 C -0.0620(2) 0.3881(1) 0.0169(1)
C17 C -0.0297(2) 0.3513(1) -0.0568(1)
C18 C 0.0890(2) 0.3370(1) -0.0446(1)
C19 C 0.3583(1) 0.2232(1) 0.0718(1)
C20 C 0.3789(1) 0.1887(1) 0.1638(1)
C21 C 0.3971(2) 0.0951(1) 0.1862(1)
C22 C 0.3963(2) 0.0309(1) 0.1161(2)
C23 C 0.3740(2) 0.0608(1) 0.0240(2)
C24 C 0.3550(2) 0.1549(1) 0.0034(1)
O5 O 0.3785(2) -0.1779(1) 0.3236(2)
N1 N 0.1504(1) -0.10630(10) 0.4581(1)
C25 C 0.1047(2) -0.1653(1) 0.3675(1)
C26 C 0.1780(3) -0.1354(2) 0.3027(2)
C27 C 0.3089(2) -0.1346(1) 0.3526(2)
C28 C 0.3477(2) -0.0743(2) 0.4407(2)
C29 C 0.2825(2) -0.0997(1) 0.5123(1)
C30 C 0.1131(3) -0.2710(1) 0.3875(2)
C31 C -0.0265(2) -0.1405(2) 0.3241(2)
C32 C 0.3269(2) -0.1924(2) 0.5631(2)
C33 C 0.2957(2) -0.0203(2) 0.5850(2)
H1 H 0.125(2) -0.045(1) 0.439(1)
H2 H 0.113(2) -0.128(1) 0.501(1)
H5 H 0.159(2) -0.073(2) 0.281(2)
H6 H 0.158(2) -0.173(2) 0.250(2)
H7 H 0.334(2) -0.006(2) 0.423(1)
H8 H 0.434(2) -0.079(2) 0.473(1)
H9 H 0.062(2) -0.302(2) 0.332(2)
H10 H 0.080(2) -0.288(2) 0.445(2)
H11 H 0.197(2) -0.290(2) 0.403(1)
H12 H -0.063(2) -0.176(2) 0.262(2)
H13 H -0.075(2) -0.164(2) 0.366(2)
H14 H -0.040(2) -0.072(2) 0.317(2)
H15 H 0.402(2) -0.180(2) 0.617(2)
H16 H 0.272(2) -0.217(2) 0.598(1)
H17 H 0.334(2) -0.237(2) 0.519(2)
H18 H 0.375(2) -0.007(2) 0.614(1)
H19 H 0.254(2) -0.035(2) 0.633(2)
H20 H 0.264(2) 0.035(2) 0.554(1)
O6 O 0.8091(1) 0.6786(1) 0.40486(10)
N2 N 0.5726(1) 0.54482(10) 0.18597(9)
C34 C 0.5287(1) 0.6277(1) 0.2301(1)
C35 C 0.6349(2) 0.6957(1) 0.2720(1)
C36 C 0.7475(2) 0.6488(2) 0.3281(1)
C37 C 0.7832(2) 0.5665(2) 0.2798(1)
C38 C 0.6830(1) 0.4926(1) 0.2425(1)
C39 C 0.4743(2) 0.5939(2) 0.3059(2)
C40 C 0.4342(2) 0.6729(2) 0.1492(2)
C41 C 0.6628(2) 0.4349(2) 0.3230(2)
C42 C 0.7095(2) 0.4259(2) 0.1708(2)
H3 H 0.514(2) 0.503(1) 0.167(1)
H4 H 0.591(1) 0.567(1) 0.136(1)
H21 H 0.646(2) 0.727(2) 0.218(2)
H22 H 0.613(2) 0.737(2) 0.306(2)
H23 H 0.811(2) 0.592(1) 0.228(1)
H24 H 0.850(2) 0.536(1) 0.324(1)
H25 H 0.432(2) 0.641(2) 0.316(1)
H26 H 0.416(2) 0.543(2) 0.277(1)
H27 H 0.533(2) 0.577(1) 0.366(1)
H28 H 0.410(2) 0.732(2) 0.171(1)
H29 H 0.361(2) 0.626(2) 0.123(1)
H30 H 0.464(2) 0.690(1) 0.098(1)
H31 H 0.731(2) 0.389(2) 0.348(2)
H32 H 0.590(2) 0.398(2) 0.302(2)
H33 H 0.655(2) 0.472(2) 0.372(2)
H34 H 0.783(2) 0.394(2) 0.203(1)
H35 H 0.647(2) 0.373(2) 0.152(1)
H36 H 0.721(2) 0.466(2) 0.116(2)
loop_
_geom_bond_atom_site_label_1
_geom_bond_atom_site_label_2
_geom_bond_site_symmetry_1
_geom_bond_site_symmetry_2
P1 O1 1_555 1_555
P2 O3 1_555 1_555
F1 C2 1_555 1_555
F2 C3 1_555 1_555
F3 C4 1_555 1_555
F4 C5 1_555 1_555
F5 C6 1_555 1_555
F6 C8 1_555 1_555
F7 C9 1_555 1_555
F8 C10 1_555 1_555
F9 C11 1_555 1_555
F10 C12 1_555 1_555
F11 C14 1_555 1_555
F12 C15 1_555 1_555
F13 C16 1_555 1_555
F14 C17 1_555 1_555
F15 C18 1_555 1_555
F16 C20 1_555 1_555
F17 C21 1_555 1_555
F18 C22 1_555 1_555
F19 C23 1_555 1_555
F20 C24 1_555 1_555
O2 P1 1_555 1_555
O4 P2 1_555 1_555
O5 C27 1_555 1_555
O6 C36 1_555 1_555
N1 C25 1_555 1_555
N2 C34 1_555 1_555
C1 P1 1_555 1_555
C2 C1 1_555 1_555
C3 C2 1_555 1_555
C4 C3 1_555 1_555
C5 C4 1_555 1_555
C6 C1 1_555 1_555
C7 P1 1_555 1_555
C8 C7 1_555 1_555
C9 C8 1_555 1_555
C10 C9 1_555 1_555
C11 C10 1_555 1_555
C12 C7 1_555 1_555
C13 P2 1_555 1_555
C14 C13 1_555 1_555
C15 C14 1_555 1_555
C16 C15 1_555 1_555
C17 C16 1_555 1_555
C18 C13 1_555 1_555
C19 P2 1_555 1_555
C20 C19 1_555 1_555
C21 C20 1_555 1_555
C22 C21 1_555 1_555
C23 C22 1_555 1_555
C24 C19 1_555 1_555
C25 C26 1_555 1_555
C26 C27 1_555 1_555
C27 C28 1_555 1_555
C28 C29 1_555 1_555
C29 N1 1_555 1_555
C30 C25 1_555 1_555
C31 C25 1_555 1_555
C32 C29 1_555 1_555
C33 C29 1_555 1_555
C34 C35 1_555 1_555
C35 C36 1_555 1_555
C36 C37 1_555 1_555
C37 C38 1_555 1_555
C38 N2 1_555 1_555
C39 C34 1_555 1_555
C40 C34 1_555 1_555
C41 C38 1_555 1_555
C42 C38 1_555 1_555
H1 N1 1_555 1_555
H2 N1 1_555 1_555
H3 N2 1_555 1_555
H4 N2 1_555 1_555
H5 C26 1_555 1_555
H6 C26 1_555 1_555
H7 C28 1_555 1_555
H8 C28 1_555 1_555
H9 C30 1_555 1_555
H10 C30 1_555 1_555
H11 C30 1_555 1_555
H12 C31 1_555 1_555
H13 C31 1_555 1_555
H14 C31 1_555 1_555
H15 C32 1_555 1_555
H16 C32 1_555 1_555
H17 C32 1_555 1_555
H18 C33 1_555 1_555
H19 C33 1_555 1_555
H20 C33 1_555 1_555
H21 C35 1_555 1_555
H22 C35 1_555 1_555
H23 C37 1_555 1_555
H24 C37 1_555 1_555
H25 C39 1_555 1_555
H26 C39 1_555 1_555
H27 C39 1_555 1_555
H28 C40 1_555 1_555
H29 C40 1_555 1_555
H30 C40 1_555 1_555
H31 C41 1_555 1_555
H32 C41 1_555 1_555
H33 C41 1_555 1_555
H34 C42 1_555 1_555
H35 C42 1_555 1_555
H36 C42 1_555 1_555
C5 C6 1_555 1_555
C11 C12 1_555 1_555
C17 C18 1_555 1_555
C23 C24 1_555 1_555

#END
