
#######################################################################
#
#                 Cambridge Crystallographic Data Centre
#                                CCDC 
#
#######################################################################
#
# If this CIF has been generated from an entry in the Cambridge 
# Structural Database, then it will include bibliographic, chemical, 
# crystal, experimental, refinement or atomic coordinate data resulting 
# from the CCDC's data processing and validation procedures.
#
#######################################################################

data_NAQXOV
_chemical_formula_moiety         'C35 H31 N3 O6'
_chemical_name_systematic        
'diethyl 3-(2-nitrophenyl)-4,4-diphenyl-2,3,4,5-tetrahydro-1H-pyrido[4,3-b]indole-1,1-dicarboxylate'
_symmetry_cell_setting           orthorhombic
_symmetry_space_group_name_H-M   'P 21 21 21'
_symmetry_Int_Tables_number      19
_space_group_name_Hall           'P 2ac 2ab'
loop_
_symmetry_equiv_pos_site_id
_symmetry_equiv_pos_as_xyz
1 x,y,z
2 1/2+x,1/2-y,-z
3 -x,1/2+y,1/2-z
4 1/2-x,-y,1/2+z
_cell_length_a                   8.3776(2)
_cell_length_b                   18.5284(4)
_cell_length_c                   19.1015(4)
_cell_angle_alpha                90
_cell_angle_beta                 90
_cell_angle_gamma                90
_cell_volume                     2965
_exptl_crystal_colour            colorless
_exptl_crystal_description       block
_cell_formula_units_Z            4
loop_
_atom_site_label
_atom_site_type_symbol
_atom_site_fract_x
_atom_site_fract_y
_atom_site_fract_z
O1 O 0.1703(2) -0.17976(11) -0.25238(10)
O2 O -0.0523(2) -0.23935(9) -0.27604(11)
O3 O 0.06745(19) -0.15762(9) -0.10812(8)
O4 O -0.0013(2) -0.04201(8) -0.12568(8)
O5 O -0.1177(2) -0.14573(11) -0.45425(10)
O6 O -0.2938(3) -0.10040(14) -0.52420(10)
N1 N -0.0837(2) -0.06536(10) -0.25879(10)
H1 H 0.007(10) -0.049(3) -0.260(3)
N2 N -0.5131(2) -0.15118(9) -0.20085(9)
H2 H -0.6106 -0.1398 -0.2140
N3 N -0.1990(3) -0.09548(13) -0.47553(10)
C1 C -0.1951(3) -0.07299(11) -0.31736(11)
H3 H -0.1738 -0.1206 -0.3402
C2 C -0.3761(3) -0.07334(11) -0.29085(10)
C3 C -0.3752(2) -0.12529(10) -0.22990(10)
C4 C -0.2460(2) -0.15321(10) -0.19587(10)
C5 C -0.3061(2) -0.20177(10) -0.14291(10)
C6 C -0.2372(2) -0.24865(11) -0.09365(10)
H4 H -0.1246 -0.2531 -0.0900
C7 C -0.3371(3) -0.28835(11) -0.05045(11)
H5 H -0.2917 -0.3203 -0.0170
C8 C -0.5033(3) -0.28235(11) -0.05502(11)
H6 H -0.5681 -0.3099 -0.0242
C9 C -0.5752(3) -0.23735(11) -0.10323(11)
H7 H -0.6880 -0.2332 -0.1062
C10 C -0.4740(2) -0.19817(10) -0.14749(10)
C11 C -0.0786(2) -0.12877(10) -0.21262(11)
C12 C 0.0280(3) -0.18622(11) -0.24814(11)
C13 C 0.0438(4) -0.29394(16) -0.3121(2)
H8 H 0.0942 -0.2728 -0.3542
H9 H 0.1293 -0.3117 -0.2807
C14 C -0.0612(5) -0.3536(2) -0.3321(3)
H10 H -0.1341 -0.3375 -0.3690
H11 H -0.1230 -0.3692 -0.2913
H12 H 0.0033 -0.3940 -0.3494
C15 C 0.0064(2) -0.11073(11) -0.14329(11)
C16 C 0.0784(3) -0.02367(14) -0.05948(14)
H13 H 0.0559 -0.0616 -0.0243
H14 H 0.0355 0.0226 -0.0415
C17 C 0.2552(4) -0.01713(17) -0.06961(18)
H15 H 0.2771 0.0167 -0.1079
H16 H 0.2998 -0.0646 -0.0812
H17 H 0.3043 0.0008 -0.0264
C18 C -0.1620(3) -0.01424(12) -0.37109(12)
C19 C -0.1245(3) 0.05537(13) -0.34902(14)
H18 H -0.1132 0.0646 -0.3003
C20 C -0.1033(3) 0.11167(15) -0.39589(16)
H19 H -0.0752 0.1582 -0.3791
C21 C -0.1225(3) 0.10051(17) -0.46654(16)
H20 H -0.1100 0.1394 -0.4985
C22 C -0.1601(3) 0.03261(17) -0.49073(14)
H21 H -0.1749 0.0244 -0.5394
C23 C -0.1763(3) -0.02369(14) -0.44350(12)
C24 C -0.4878(3) -0.10665(12) -0.34649(11)
C25 C -0.4448(3) -0.17205(14) -0.37776(13)
H22 H -0.3453 -0.1936 -0.3663
C26 C -0.5452(4) -0.20604(18) -0.42531(15)
H23 H -0.5126 -0.2499 -0.4467
C27 C -0.6915(4) -0.17670(19) -0.44180(15)
H24 H -0.7584 -0.1991 -0.4755
C28 C -0.7389(4) -0.11465(19) -0.40878(17)
H25 H -0.8414 -0.0951 -0.4184
C29 C -0.6391(3) -0.07989(14) -0.36134(16)
H26 H -0.6749 -0.0372 -0.3387
C30 C -0.4236(3) 0.00242(11) -0.26549(11)
C31 C -0.4803(3) 0.05530(12) -0.31109(12)
H27 H -0.4922 0.0443 -0.3594
C32 C -0.5198(3) 0.12386(12) -0.28722(14)
H28 H -0.5641 0.1582 -0.3186
C33 C -0.4951(4) 0.14227(12) -0.21802(15)
H29 H -0.5199 0.1895 -0.2019
C34 C -0.4340(3) 0.09141(14) -0.17247(14)
H30 H -0.4148 0.1039 -0.1250
C35 C -0.4004(3) 0.02192(12) -0.19583(12)
H31 H -0.3608 -0.0129 -0.1637
loop_
_geom_bond_atom_site_label_1
_geom_bond_atom_site_label_2
_geom_bond_site_symmetry_1
_geom_bond_site_symmetry_2
O1 C12 1_555 1_555
O2 C12 1_555 1_555
O3 C15 1_555 1_555
O4 C15 1_555 1_555
O5 N3 1_555 1_555
O6 N3 1_555 1_555
N1 H1 1_555 1_555
N2 H2 1_555 1_555
N3 C23 1_555 1_555
C1 N1 1_555 1_555
H3 C1 1_555 1_555
C2 C1 1_555 1_555
C3 N2 1_555 1_555
C4 C3 1_555 1_555
C5 C4 1_555 1_555
C6 C5 1_555 1_555
H4 C6 1_555 1_555
C7 C6 1_555 1_555
H5 C7 1_555 1_555
C8 C7 1_555 1_555
H6 C8 1_555 1_555
C9 C8 1_555 1_555
H7 C9 1_555 1_555
C10 N2 1_555 1_555
C11 N1 1_555 1_555
C12 C11 1_555 1_555
C13 O2 1_555 1_555
H8 C13 1_555 1_555
H9 C13 1_555 1_555
C14 C13 1_555 1_555
H10 C14 1_555 1_555
H11 C14 1_555 1_555
H12 C14 1_555 1_555
C15 C11 1_555 1_555
C16 O4 1_555 1_555
H13 C16 1_555 1_555
H14 C16 1_555 1_555
C17 C16 1_555 1_555
H15 C17 1_555 1_555
H16 C17 1_555 1_555
H17 C17 1_555 1_555
C18 C1 1_555 1_555
C19 C18 1_555 1_555
H18 C19 1_555 1_555
C20 C19 1_555 1_555
H19 C20 1_555 1_555
C21 C20 1_555 1_555
H20 C21 1_555 1_555
C22 C21 1_555 1_555
H21 C22 1_555 1_555
C23 C18 1_555 1_555
C24 C2 1_555 1_555
C25 C24 1_555 1_555
H22 C25 1_555 1_555
C26 C25 1_555 1_555
H23 C26 1_555 1_555
C27 C26 1_555 1_555
H24 C27 1_555 1_555
C28 C27 1_555 1_555
H25 C28 1_555 1_555
C29 C24 1_555 1_555
H26 C29 1_555 1_555
C30 C2 1_555 1_555
C31 C30 1_555 1_555
H27 C31 1_555 1_555
C32 C31 1_555 1_555
H28 C32 1_555 1_555
C33 C32 1_555 1_555
H29 C33 1_555 1_555
C34 C33 1_555 1_555
H30 C34 1_555 1_555
C35 C30 1_555 1_555
H31 C35 1_555 1_555
C2 C3 1_555 1_555
C4 C11 1_555 1_555
C5 C10 1_555 1_555
C9 C10 1_555 1_555
C22 C23 1_555 1_555
C28 C29 1_555 1_555
C34 C35 1_555 1_555

#END
