
#######################################################################
#
#                 Cambridge Crystallographic Data Centre
#                                CCDC 
#
#######################################################################
#
# If this CIF has been generated from an entry in the Cambridge 
# Structural Database, then it will include bibliographic, chemical, 
# crystal, experimental, refinement or atomic coordinate data resulting 
# from the CCDC's data processing and validation procedures.
#
#######################################################################

data_NAQZAJ
_chemical_formula_moiety         'C22 H16 Cl2 N2 O4'
_chemical_name_systematic        
4-(3-(3,3-dichloro-7-methoxy-2,2-dimethyl-4-oxo-3,4-dihydro-2H-chromen-6-yl)-1,2-oxazol-5-yl)benzonitrile
_symmetry_cell_setting           triclinic
_symmetry_space_group_name_H-M   'P -1'
_symmetry_Int_Tables_number      2
_space_group_name_Hall           '-P 1'
loop_
_symmetry_equiv_pos_site_id
_symmetry_equiv_pos_as_xyz
1 x,y,z
2 -x,-y,-z
_cell_length_a                   10.3093(9)
_cell_length_b                   10.7686(14)
_cell_length_c                   10.8764(11)
_cell_angle_alpha                63.373(12)
_cell_angle_beta                 87.545(8)
_cell_angle_gamma                75.927(9)
_cell_volume                     1043.96
_exptl_crystal_colour            white
_exptl_crystal_description       block
_cell_formula_units_Z            2
loop_
_atom_site_label
_atom_site_type_symbol
_atom_site_fract_x
_atom_site_fract_y
_atom_site_fract_z
C1 C 0.7532(4) 1.0705(3) -0.0205(3)
C2 C 0.8093(4) 1.0925(4) -0.1432(4)
H1 H 0.8754 1.0179 -0.1461
C3 C 0.7721(4) 1.2200(3) -0.2622(4)
C4 C 0.6761(3) 1.3324(3) -0.2543(4)
C5 C 0.6204(4) 1.3137(4) -0.1319(4)
H2 H 0.5568 1.3890 -0.1273
C6 C 0.6590(4) 1.1834(4) -0.0162(4)
C7 C 0.5435(5) 1.5731(4) -0.3734(4)
H3 H 0.4618 1.5439 -0.3456
H4 H 0.5282 1.6521 -0.4643
H5 H 0.5729 1.6020 -0.3099
C8 C 0.6866(15) 1.067(2) 0.2327(16)
C9 C 0.7115(18) 0.9270(16) 0.2246(19)
C10 C 0.781(3) 0.9254(19) 0.096(2)
C11 C 0.8278(13) 1.0889(14) 0.2509(12)
H6 H 0.8728 1.0139 0.3371
H7 H 0.8173 1.1802 0.2503
H8 H 0.8800 1.0859 0.1766
C12 C 0.5960(15) 1.0748(13) 0.3409(10)
H9 H 0.6374 1.0035 0.4302
H10 H 0.5124 1.0577 0.3256
H11 H 0.5800 1.1684 0.3367
O1 O 0.6154(18) 1.179(2) 0.103(2)
O2 O 0.863(2) 0.833(3) 0.094(3)
Cl1 Cl 0.7933(9) 0.7763(8) 0.3756(7)
Cl2 Cl 0.5543(10) 0.8983(13) 0.1959(10)
C13 C 0.8359(4) 1.2341(4) -0.3903(4)
C14 C 0.9429(4) 1.2965(4) -0.5785(4)
C15 C 0.8755(4) 1.3499(4) -0.4984(3)
H12 H 0.8581 1.4439 -0.5111
C16 C 1.0205(4) 1.3498(3) -0.6990(3)
C17 C 1.1005(5) 1.2550(4) -0.7423(4)
H13 H 1.1021 1.1581 -0.6966
C18 C 1.1774(4) 1.3038(4) -0.8524(4)
H14 H 1.2304 1.2404 -0.8817
C19 C 1.1749(4) 1.4490(4) -0.9192(4)
C20 C 1.0948(4) 1.5431(4) -0.8768(4)
H15 H 1.0922 1.6403 -0.9231
C21 C 1.0186(4) 1.4940(4) -0.7663(4)
H16 H 0.9659 1.5575 -0.7370
C22 C 1.2557(4) 1.4982(4) -1.0344(5)
N1 N 0.8740(4) 1.1187(3) -0.4076(4)
N2 N 1.3190(4) 1.5374(4) -1.1259(5)
O3 O 0.6442(3) 1.4557(2) -0.3738(2)
O4 O 0.9436(3) 1.1566(3) -0.5267(3)
C23? C 0.6331(18) 1.045(2) 0.2286(19)
C24? C 0.7016(17) 0.9103(15) 0.2164(18)
C25? C 0.805(3) 0.937(2) 0.106(2)
C26? C 0.749(2) 1.0908(16) 0.2743(17)
H17? H 0.7913 1.0164 0.3621
H18? H 0.7128 1.1779 0.2818
H19? H 0.8147 1.1063 0.2069
C27? C 0.5217(16) 1.0351(15) 0.3220(13)
H20? H 0.5537 0.9600 0.4129
H21? H 0.4496 1.0145 0.2875
H22? H 0.4901 1.1248 0.3258
O5? O 0.574(2) 1.162(3) 0.096(2)
O6? O 0.8977(18) 0.833(3) 0.122(2)
Cl3? Cl 0.7752(12) 0.7722(10) 0.3773(9)
Cl4? Cl 0.5759(8) 0.8469(9) 0.1724(8)
loop_
_geom_bond_atom_site_label_1
_geom_bond_atom_site_label_2
_geom_bond_site_symmetry_1
_geom_bond_site_symmetry_2
C1 C2 1_555 1_555
C2 H1 1_555 1_555
C3 C2 1_555 1_555
C4 C3 1_555 1_555
C5 C4 1_555 1_555
H2 C5 1_555 1_555
C6 C1 1_555 1_555
C7 H3 1_555 1_555
H4 C7 1_555 1_555
H5 C7 1_555 1_555
C8 C9 1_555 1_555
C9 C10 1_555 1_555
C10 C1 1_555 1_555
C11 C8 1_555 1_555
H6 C11 1_555 1_555
H7 C11 1_555 1_555
H8 C11 1_555 1_555
C12 C8 1_555 1_555
H9 C12 1_555 1_555
H10 C12 1_555 1_555
H11 C12 1_555 1_555
O1 C6 1_555 1_555
O2 C10 1_555 1_555
Cl1 C9 1_555 1_555
Cl2 C9 1_555 1_555
C13 C3 1_555 1_555
C14 C15 1_555 1_555
C15 C13 1_555 1_555
H12 C15 1_555 1_555
C16 C14 1_555 1_555
C17 C16 1_555 1_555
H13 C17 1_555 1_555
C18 C17 1_555 1_555
H14 C18 1_555 1_555
C19 C18 1_555 1_555
C20 C19 1_555 1_555
H15 C20 1_555 1_555
C21 C16 1_555 1_555
H16 C21 1_555 1_555
C22 C19 1_555 1_555
N1 C13 1_555 1_555
N2 C22 1_555 1_555
O3 C4 1_555 1_555
O4 C14 1_555 1_555
C5 C6 1_555 1_555
C7 O3 1_555 1_555
C8 O1 1_555 1_555
C20 C21 1_555 1_555
N1 O4 1_555 1_555

#END
