
#######################################################################
#
#                 Cambridge Crystallographic Data Centre
#                                CCDC 
#
#######################################################################
#
# If this CIF has been generated from an entry in the Cambridge 
# Structural Database, then it will include bibliographic, chemical, 
# crystal, experimental, refinement or atomic coordinate data resulting 
# from the CCDC's data processing and validation procedures.
#
#######################################################################

data_NAQZEK
_chemical_formula_moiety         'C16 H24 N2 O4'
_chemical_name_systematic        
'rac-N\a-(t-butoxycarbonyl)-L-phenylalanine N-methoxy-N-methylamide'
_symmetry_cell_setting           triclinic
_symmetry_space_group_name_H-M   'P -1'
_symmetry_Int_Tables_number      2
_space_group_name_Hall           '-P 1'
loop_
_symmetry_equiv_pos_site_id
_symmetry_equiv_pos_as_xyz
1 x,y,z
2 -x,-y,-z
_cell_length_a                   8.6166(6)
_cell_length_b                   10.0323(3)
_cell_length_c                   10.862(2)
_cell_angle_alpha                82.102(4)
_cell_angle_beta                 73.424(11)
_cell_angle_gamma                86.247(4)
_cell_volume                     891.06
_chemical_melting_point          '143.6-144.5 deg.C'
_cell_formula_units_Z            2
_exptl_crystal_recrystallization_method 'ethyl acetate/hexanes'
loop_
_atom_site_label
_atom_site_type_symbol
_atom_site_fract_x
_atom_site_fract_y
_atom_site_fract_z
C1 C 0.4711(2) 0.2804(1) 0.4450(1)
C2 C 0.5386(2) 0.3433(2) 0.3041(1)
C3 C 0.7038(2) 0.2881(2) 0.2382(1)
C4 C 0.8380(2) 0.3671(2) 0.1987(2)
C5 C 0.9883(3) 0.3155(3) 0.1362(2)
C6 C 1.0063(3) 0.1830(3) 0.1141(2)
C7 C 0.8751(3) 0.1033(2) 0.1521(2)
C8 C 0.7238(2) 0.1547(2) 0.2134(2)
C9 C 0.2948(2) 0.3296(1) 0.4937(1)
O1 O 0.2578(1) 0.4326(1) 0.5465(1)
N1 N 0.5664(1) 0.3167(1) 0.5244(1)
O2 O 0.4533(2) 0.1605(1) 0.6914(1)
O3 O 0.6282(1) 0.3132(1) 0.7080(1)
O4 O 0.2283(2) 0.1432(1) 0.4103(1)
N2 N 0.1811(2) 0.2593(1) 0.4718(1)
C10 C 0.5407(3) 0.2553(1) 0.6462(1)
C11 C 0.0125(2) 0.2997(2) 0.4933(2)
C12 C 0.2126(3) 0.0280(2) 0.5067(3)
C13 C 0.6248(2) 0.2644(2) 0.8428(2)
C14 C 0.7384(3) 0.3596(3) 0.8684(2)
C15 C 0.6894(4) 0.1200(2) 0.8522(2)
C16 C 0.4563(3) 0.2802(3) 0.9302(2)
loop_
_geom_bond_atom_site_label_1
_geom_bond_atom_site_label_2
_geom_bond_site_symmetry_1
_geom_bond_site_symmetry_2
C1 C2 1_555 1_555
C2 C3 1_555 1_555
C3 C4 1_555 1_555
C4 C5 1_555 1_555
C5 C6 1_555 1_555
C6 C7 1_555 1_555
C7 C8 1_555 1_555
C8 C3 1_555 1_555
C9 C1 1_555 1_555
O1 C9 1_555 1_555
N1 C1 1_555 1_555
O2 C10 1_555 1_555
O3 C10 1_555 1_555
O4 N2 1_555 1_555
N2 C9 1_555 1_555
C10 N1 1_555 1_555
C11 N2 1_555 1_555
C12 O4 1_555 1_555
C13 O3 1_555 1_555
C14 C13 1_555 1_555
C15 C13 1_555 1_555
C16 C13 1_555 1_555

#END
