
#######################################################################
#
#                 Cambridge Crystallographic Data Centre
#                                CCDC 
#
#######################################################################
#
# If this CIF has been generated from an entry in the Cambridge 
# Structural Database, then it will include bibliographic, chemical, 
# crystal, experimental, refinement or atomic coordinate data resulting 
# from the CCDC's data processing and validation procedures.
#
#######################################################################

data_NARCUE
_chemical_name_common            
"3',4'-Dimethoxy-N-methyl-4-stilbazolium tetrafluoroborate"
_chemical_formula_moiety         'C16 H18 N1 O2 1+,B1 F4 1-'
_chemical_name_systematic        
'4-(2-(3,4-Dimethoxyphenyl)ethenyl)-1-methylpyridinium tetrafluoroborate'
_symmetry_cell_setting           orthorhombic
_symmetry_space_group_name_H-M   'P b c a'
_symmetry_Int_Tables_number      61
_space_group_name_Hall           '-P 2ac 2ab'
loop_
_symmetry_equiv_pos_site_id
_symmetry_equiv_pos_as_xyz
1 x,y,z
2 1/2-x,-y,1/2+z
3 -x,1/2+y,1/2-z
4 1/2+x,1/2-y,-z
5 -x,-y,-z
6 1/2+x,y,1/2-z
7 x,1/2-y,1/2+z
8 1/2-x,1/2+y,z
_cell_length_a                   13.5174(14)
_cell_length_b                   13.9190(13)
_cell_length_c                   17.0708(15)
_cell_angle_alpha                90
_cell_angle_beta                 90
_cell_angle_gamma                90
_cell_volume                     3211.85
_exptl_crystal_colour            brown-yellow
_exptl_crystal_description       plate
_chemical_melting_point          467-468K
_cell_formula_units_Z            8
_exptl_crystal_recrystallization_method ethanol/water/N,N-dimethylformamide
loop_
_atom_site_label
_atom_site_type_symbol
_atom_site_fract_x
_atom_site_fract_y
_atom_site_fract_z
F1 F 0.19503(10) 0.07754(12) 0.75908(8)
F2 F 0.12273(11) 0.18519(10) 0.68038(8)
F3 F 0.03127(10) 0.09901(10) 0.76459(7)
F4 F 0.09881(11) 0.02890(10) 0.65907(7)
B1 B 0.1127(2) 0.0980(2) 0.71650(11)
O1 O 0.37070(10) 0.23529(9) 0.54918(8)
O2 O 0.40256(11) 0.17183(9) 0.40975(7)
N1 N 0.37381(11) -0.51036(11) 0.39984(9)
C1 C 0.3732(2) -0.6159(2) 0.3891(2)
C2 C 0.3757(2) -0.4727(2) 0.47253(12)
C3 C 0.3770(2) -0.37717(14) 0.48485(12)
C4 C 0.37605(13) -0.31286(13) 0.42186(11)
C5 C 0.3746(2) -0.3542(2) 0.34743(12)
C6 C 0.3744(2) -0.4513(2) 0.33763(12)
C7 C 0.37690(15) -0.20956(14) 0.43110(12)
C8 C 0.36492(14) -0.16323(14) 0.49861(12)
C9 C 0.36415(14) -0.06000(13) 0.51099(10)
C10 C 0.3462(2) -0.02392(15) 0.58519(12)
C11 C 0.3474(2) 0.07388(15) 0.60012(12)
C12 C 0.36704(14) 0.13779(13) 0.54105(10)
C13 C 0.38416(14) 0.10274(13) 0.46433(10)
C14 C 0.38250(15) 0.00606(13) 0.45008(11)
C15 C 0.3627(2) 0.2716(2) 0.6273(2)
C16 C 0.4204(3) 0.1407(2) 0.33127(13)
H1 H 0.3309(23) -0.6302(21) 0.3458(18)
H2 H 0.4343(23) -0.6374(21) 0.3750(18)
H3 H 0.3490(27) -0.6474(25) 0.4372(23)
H4 H 0.3755(13) -0.5201(14) 0.5126(11)
H5 H 0.3794(13) -0.3560(13) 0.5369(11)
H6 H 0.3778(13) -0.3146(14) 0.3032(11)
H7 H 0.3686(15) -0.4821(15) 0.2866(12)
H8 H 0.3819(13) -0.1731(14) 0.3839(11)
H9 H 0.3572(13) -0.1999(14) 0.5461(11)
H10 H 0.3314(13) -0.0656(13) 0.6228(11)
H11 H 0.3363(14) 0.0962(13) 0.6530(12)
H12 H 0.3976(12) -0.0141(12) 0.4024(10)
H13 H 0.3714(15) 0.3365(19) 0.6256(13)
H14 H 0.4141(17) 0.2441(16) 0.6635(14)
H15 H 0.2947(17) 0.2575(16) 0.6493(14)
H16 H 0.3604(18) 0.1138(18) 0.3064(15)
H17 H 0.4734(18) 0.0956(16) 0.3267(13)
H18 H 0.4341(15) 0.2005(17) 0.3012(12)
loop_
_geom_bond_atom_site_label_1
_geom_bond_atom_site_label_2
_geom_bond_site_symmetry_1
_geom_bond_site_symmetry_2
F1 B1 1_555 1_555
F2 B1 1_555 1_555
F3 B1 1_555 1_555
F4 B1 1_555 1_555
O1 C12 1_555 1_555
O2 C13 1_555 1_555
N1 C1 1_555 1_555
C1 H1 1_555 1_555
C2 N1 1_555 1_555
C3 C2 1_555 1_555
C4 C3 1_555 1_555
C5 C4 1_555 1_555
C6 N1 1_555 1_555
C7 C4 1_555 1_555
C8 C7 1_555 1_555
C9 C8 1_555 1_555
C10 C9 1_555 1_555
C11 C10 1_555 1_555
C12 C11 1_555 1_555
C13 C12 1_555 1_555
C14 C9 1_555 1_555
C15 O1 1_555 1_555
C16 O2 1_555 1_555
H2 C1 1_555 1_555
H3 C1 1_555 1_555
H4 C2 1_555 1_555
H5 C3 1_555 1_555
H6 C5 1_555 1_555
H7 C6 1_555 1_555
H8 C7 1_555 1_555
H9 C8 1_555 1_555
H10 C10 1_555 1_555
H11 C11 1_555 1_555
H12 C14 1_555 1_555
H13 C15 1_555 1_555
H14 C15 1_555 1_555
H15 C15 1_555 1_555
H16 C16 1_555 1_555
H17 C16 1_555 1_555
H18 C16 1_555 1_555
C5 C6 1_555 1_555
C13 C14 1_555 1_555

#END
