
#######################################################################
#
#                 Cambridge Crystallographic Data Centre
#                                CCDC 
#
#######################################################################
#
# If this CIF has been generated from an entry in the Cambridge 
# Structural Database, then it will include bibliographic, chemical, 
# crystal, experimental, refinement or atomic coordinate data resulting 
# from the CCDC's data processing and validation procedures.
#
#######################################################################

data_NARCOB
_chemical_formula_moiety         'C19 H19 I1 O1'
_chemical_name_systematic        
2,5-diethyl-4-(2-(4-iodophenyl)vinyl)benzaldehyde
_symmetry_cell_setting           monoclinic
_symmetry_space_group_name_H-M   'P 21/c'
_symmetry_Int_Tables_number      14
_space_group_name_Hall           '-P 2ybc'
loop_
_symmetry_equiv_pos_site_id
_symmetry_equiv_pos_as_xyz
1 x,y,z
2 -x,1/2+y,1/2-z
3 -x,-y,-z
4 x,1/2-y,1/2+z
_cell_length_a                   8.37671(15)
_cell_length_b                   12.6483(2)
_cell_length_c                   15.4876(3)
_cell_angle_alpha                90
_cell_angle_beta                 94.1455(17)
_cell_angle_gamma                90
_cell_volume                     1636.64
_exptl_crystal_colour            colorless
_exptl_crystal_description       needle
_cell_formula_units_Z            4
loop_
_atom_site_label
_atom_site_type_symbol
_atom_site_fract_x
_atom_site_fract_y
_atom_site_fract_z
C1 C 0.8835(4) 0.2455(2) 0.8708(2)
H1 H 0.8579 0.1739 0.8694
C2 C 0.8462(3) 0.3038(2) 0.78914(16)
C3 C 0.8883(3) 0.4101(2) 0.77445(16)
C4 C 0.8462(3) 0.4517(2) 0.69300(16)
H2 H 0.8736 0.5214 0.6821
C5 C 0.7645(3) 0.3939(2) 0.62638(16)
C6 C 0.7192(3) 0.2884(2) 0.64218(16)
C7 C 0.7634(3) 0.2460(2) 0.72331(18)
H3 H 0.7367 0.1761 0.7342
C8 C 0.9707(3) 0.4797(2) 0.84320(17)
H4 H 1.0208 0.5386 0.8156
H5 H 1.0543 0.4395 0.8749
C9 C 0.8554(4) 0.5223(3) 0.90673(19)
H6 H 0.7681 0.5579 0.8754
H7 H 0.9108 0.5711 0.9458
H8 H 0.8147 0.4647 0.9390
C10 C 0.6218(3) 0.2253(2) 0.57385(17)
H9 H 0.6797 0.2238 0.5218
H10 H 0.5219 0.2623 0.5599
C11 C 0.5834(4) 0.1124(2) 0.5979(2)
H11 H 0.5195 0.0801 0.5512
H12 H 0.5254 0.1124 0.6491
H13 H 0.6812 0.0734 0.6086
C12 C 0.7236(3) 0.4418(2) 0.54126(16)
H14 H 0.6423 0.4096 0.5066
C13 C 0.7916(3) 0.5269(2) 0.50884(16)
H15 H 0.8725 0.5593 0.5436
C14 C 0.7509(3) 0.57432(19) 0.42352(15)
C15 C 0.8312(3) 0.6655(2) 0.40020(17)
H16 H 0.9084 0.6951 0.4392
C16 C 0.7982(3) 0.7132(2) 0.31993(18)
H17 H 0.8539 0.7733 0.3050
C17 C 0.6817(3) 0.6701(2) 0.26244(15)
C18 C 0.5985(3) 0.5797(2) 0.28393(16)
H18 H 0.5199 0.5515 0.2451
C19 C 0.6338(3) 0.53226(19) 0.36351(16)
H19 H 0.5790 0.4714 0.3776
I1 I 0.63132(2) 0.74087(2) 0.14104(2)
O1 O 0.9414(3) 0.2774(2) 0.93771(15)
loop_
_geom_bond_atom_site_label_1
_geom_bond_atom_site_label_2
_geom_bond_site_symmetry_1
_geom_bond_site_symmetry_2
C1 H1 1_555 1_555
C2 C1 1_555 1_555
C3 C2 1_555 1_555
C4 C3 1_555 1_555
H2 C4 1_555 1_555
C5 C4 1_555 1_555
C6 C5 1_555 1_555
C7 C2 1_555 1_555
H3 C7 1_555 1_555
C8 C3 1_555 1_555
H4 C8 1_555 1_555
H5 C8 1_555 1_555
C9 C8 1_555 1_555
H6 C9 1_555 1_555
H7 C9 1_555 1_555
H8 C9 1_555 1_555
C10 C6 1_555 1_555
H9 C10 1_555 1_555
H10 C10 1_555 1_555
C11 C10 1_555 1_555
H11 C11 1_555 1_555
H12 C11 1_555 1_555
H13 C11 1_555 1_555
C12 C5 1_555 1_555
H14 C12 1_555 1_555
C13 C12 1_555 1_555
H15 C13 1_555 1_555
C14 C13 1_555 1_555
C15 C14 1_555 1_555
H16 C15 1_555 1_555
C16 C15 1_555 1_555
H17 C16 1_555 1_555
C17 C16 1_555 1_555
C18 C17 1_555 1_555
H18 C18 1_555 1_555
C19 C14 1_555 1_555
H19 C19 1_555 1_555
I1 C17 1_555 1_555
O1 C1 1_555 1_555
C6 C7 1_555 1_555
C18 C19 1_555 1_555

#END
