
#######################################################################
#
#                 Cambridge Crystallographic Data Centre
#                                CCDC 
#
#######################################################################
#
# If this CIF has been generated from an entry in the Cambridge 
# Structural Database, then it will include bibliographic, chemical, 
# crystal, experimental, refinement or atomic coordinate data resulting 
# from the CCDC's data processing and validation procedures.
#
#######################################################################

data_NARFET
_chemical_formula_moiety         'C24 H48 N6 Sr1'
_chemical_name_systematic        
bis(N,N-Dimethyl-N'-(4-(propan-2-ylimino)pent-2-en-2-yl)ethane-1,2-diaminato)-strontium
_symmetry_cell_setting           monoclinic
_symmetry_space_group_name_H-M   'C 2/c'
_symmetry_Int_Tables_number      15
_space_group_name_Hall           '-C 2yn'
loop_
_symmetry_equiv_pos_site_id
_symmetry_equiv_pos_as_xyz
1 x,y,z
2 -x,y,1/2-z
3 1/2+x,1/2+y,z
4 1/2-x,1/2+y,1/2-z
5 -x,-y,-z
6 x,-y,1/2+z
7 1/2-x,1/2-y,-z
8 1/2+x,1/2-y,1/2+z
_cell_length_a                   25.009(4)
_cell_length_b                   24.739(3)
_cell_length_c                   20.717(3)
_cell_angle_alpha                90
_cell_angle_beta                 118.451(8)
_cell_angle_gamma                90
_cell_volume                     11269.5
_cell_formula_units_Z            16
loop_
_atom_site_label
_atom_site_type_symbol
_atom_site_fract_x
_atom_site_fract_y
_atom_site_fract_z
Sr1 Sr 0.23896(2) 0.52202(2) 0.76521(3)
N1 N 0.1359(2) 0.4927(2) 0.6595(3)
N2 N 0.2587(2) 0.42407(19) 0.7392(3)
N3 N 0.3502(3) 0.4837(2) 0.8699(3)
N4 N 0.2231(2) 0.5503(2) 0.8750(3)
N5 N 0.2778(2) 0.62026(19) 0.7875(3)
N6 N 0.2582(3) 0.5626(2) 0.6536(3)
C1 C 0.0722(3) 0.4546(3) 0.5350(3)
H1 H 0.0365 0.4506 0.5407
H2 H 0.0746 0.4252 0.5064
H3 H 0.0701 0.4882 0.5106
C2 C 0.1283(3) 0.4546(3) 0.6102(3)
C3 C 0.1692(3) 0.4132(2) 0.6200(3)
H4 H 0.1560 0.3909 0.5791
C4 C 0.2265(3) 0.3973(2) 0.6783(4)
C5 C 0.2500(3) 0.3454(2) 0.6641(4)
H5 H 0.2891 0.3515 0.6674
H6 H 0.2223 0.3325 0.6158
H7 H 0.2536 0.3190 0.6998
C6 C 0.3157(3) 0.4000(3) 0.7928(4)
H8 H 0.3071 0.3738 0.8214
H9 H 0.3332 0.3805 0.7666
C7 C 0.3579(6) 0.4356(5) 0.8397(7)
H10 H 0.3814 0.4459 0.8156
H11 H 0.3850 0.4140 0.8817
C8 C 0.0851(3) 0.5311(2) 0.6408(3)
H12 H 0.0661 0.5391 0.5882
C9 C 0.1110(3) 0.5833(3) 0.6835(4)
H13 H 0.1264 0.5766 0.7349
H14 H 0.0795 0.6101 0.6674
H15 H 0.1433 0.5960 0.6749
C10 C 0.0375(3) 0.5090(3) 0.6582(4)
H16 H 0.0196 0.4773 0.6291
H17 H 0.0066 0.5357 0.6473
H18 H 0.0559 0.4997 0.7093
C11 C 0.3956(6) 0.5208(5) 0.8759(7)
H19 H 0.4297 0.5187 0.9243
H20 H 0.3793 0.5568 0.8671
H21 H 0.4086 0.5120 0.8403
C12 C 0.3567(6) 0.4774(5) 0.9408(8)
H22 H 0.3382 0.4440 0.9433
H23 H 0.3371 0.5069 0.9512
H24 H 0.3991 0.4769 0.9761
C13 C 0.2568(4) 0.5929(3) 0.9969(3)
H25 H 0.2173 0.5880 0.9933
H26 H 0.2730 0.6273 1.0189
H27 H 0.2835 0.5646 1.0267
C14 C 0.2512(3) 0.5907(3) 0.9202(3)
C15 C 0.2811(3) 0.6341(2) 0.9063(3)
H28 H 0.2987 0.6582 0.9454
C16 C 0.2905(3) 0.6495(2) 0.8459(3)
C17 C 0.3199(3) 0.7049(2) 0.8548(4)
H29 H 0.3588 0.7010 0.8566
H30 H 0.3252 0.7213 0.8995
H31 H 0.2942 0.7274 0.8139
C18 C 0.2905(4) 0.6438(3) 0.7314(4)
H32 H 0.2553 0.6644 0.6972
H33 H 0.3244 0.6687 0.7549
C19 C 0.3050(4) 0.6041(3) 0.6907(5)
H34 H 0.3427 0.5863 0.7243
H35 H 0.3119 0.6227 0.6542
C20 C 0.1931(3) 0.5093(3) 0.8992(4)
H36 H 0.2191 0.5024 0.9517
C21 C 0.1311(3) 0.5268(3) 0.8874(4)
H37 H 0.1353 0.5580 0.9169
H38 H 0.1129 0.4979 0.9010
H39 H 0.1058 0.5355 0.8365
C22 C 0.1856(3) 0.4566(3) 0.8571(4)
H40 H 0.1580 0.4622 0.8060
H41 H 0.1698 0.4291 0.8760
H42 H 0.2244 0.4454 0.8629
C23 C 0.2853(5) 0.5219(4) 0.6323(6)
H43 H 0.2571 0.4928 0.6103
H44 H 0.3209 0.5089 0.6746
H45 H 0.2966 0.5363 0.5974
C24 C 0.2079(5) 0.5843(5) 0.5895(6)
H46 H 0.2217 0.5972 0.5563
H47 H 0.1903 0.6137 0.6033
H48 H 0.1779 0.5566 0.5659
Sr2 Sr 0.0000 0.21533(3) 0.2500
N7 N -0.0167(2) 0.15411(19) 0.1414(3)
N8 N 0.0866(2) 0.24389(19) 0.2234(3)
N9 N 0.0838(3) 0.2809(2) 0.3588(3)
C25 C -0.0290(3) 0.1415(3) 0.0166(3)
H49 H -0.0149 0.1050 0.0193
H50 H -0.0189 0.1622 -0.0153
H51 H -0.0723 0.1414 -0.0024
C26 C 0.0011(3) 0.1662(3) 0.0922(3)
C27 C 0.0489(3) 0.2019(3) 0.1034(3)
H52 H 0.0547 0.2044 0.0625
C28 C 0.0900(3) 0.2347(2) 0.1624(4)
C29 C 0.1385(3) 0.2607(3) 0.1489(4)
H53 H 0.1339 0.2993 0.1476
H54 H 0.1344 0.2484 0.1028
H55 H 0.1779 0.2510 0.1876
C30 C 0.1336(3) 0.2781(3) 0.2787(4)
H56 H 0.1497 0.3020 0.2549
H57 H 0.1667 0.2556 0.3130
C31 C 0.1096(4) 0.3123(3) 0.3213(4)
H58 H 0.1426 0.3340 0.3572
H59 H 0.0787 0.3368 0.2873
C32 C -0.0641(3) 0.1125(3) 0.1222(4)
H60 H -0.0951 0.1176 0.0709
C33 C -0.0941(3) 0.1191(3) 0.1715(4)
H61 H -0.0638 0.1154 0.2220
H62 H -0.1246 0.0917 0.1594
H63 H -0.1125 0.1541 0.1638
C34 C -0.0383(4) 0.0552(3) 0.1313(5)
H64 H -0.0174 0.0515 0.1028
H65 H -0.0709 0.0295 0.1146
H66 H -0.0103 0.0487 0.1821
C35 C 0.0498(5) 0.3163(4) 0.3839(6)
H67 H 0.0777 0.3395 0.4224
H68 H 0.0280 0.2946 0.4020
H69 H 0.0215 0.3380 0.3436
C36 C 0.1303(5) 0.2558(4) 0.4236(5)
H70 H 0.1514 0.2295 0.4100
H71 H 0.1122 0.2384 0.4498
H72 H 0.1586 0.2828 0.4543
N7A N 0.0167(2) 0.15411(19) 0.3586(3)
N8A N -0.0866(2) 0.24389(19) 0.2766(3)
N9A N -0.0838(3) 0.2809(2) 0.1412(3)
C25A C 0.0290(3) 0.1415(3) 0.4834(3)
H49A H 0.0149 0.1050 0.4807
H50A H 0.0189 0.1622 0.5153
H51A H 0.0723 0.1414 0.5024
C26A C -0.0011(3) 0.1662(3) 0.4078(3)
C27A C -0.0489(3) 0.2019(3) 0.3966(3)
H52A H -0.0547 0.2044 0.4375
C28A C -0.0900(3) 0.2347(2) 0.3376(4)
C29A C -0.1385(3) 0.2607(3) 0.3511(4)
H53A H -0.1339 0.2993 0.3524
H54A H -0.1344 0.2484 0.3972
H55A H -0.1779 0.2510 0.3124
C30A C -0.1336(3) 0.2781(3) 0.2213(4)
H56A H -0.1497 0.3020 0.2451
H57A H -0.1667 0.2556 0.1870
C31A C -0.1096(4) 0.3123(3) 0.1787(4)
H58A H -0.1426 0.3340 0.1428
H59A H -0.0787 0.3368 0.2127
C32A C 0.0641(3) 0.1125(3) 0.3778(4)
H60A H 0.0951 0.1176 0.4291
C33A C 0.0941(3) 0.1191(3) 0.3285(4)
H61A H 0.0638 0.1154 0.2780
H62A H 0.1246 0.0917 0.3406
H63A H 0.1125 0.1541 0.3362
C34A C 0.0383(4) 0.0552(3) 0.3687(5)
H64A H 0.0174 0.0515 0.3972
H65A H 0.0709 0.0295 0.3854
H66A H 0.0103 0.0487 0.3179
C35A C -0.0498(5) 0.3163(4) 0.1161(6)
H67A H -0.0777 0.3395 0.0776
H68A H -0.0280 0.2946 0.0980
H69A H -0.0215 0.3380 0.1564
C36A C -0.1303(5) 0.2558(4) 0.0764(5)
H70A H -0.1514 0.2295 0.0900
H71A H -0.1122 0.2384 0.0502
H72A H -0.1586 0.2828 0.0457
Sr3 Sr 1.0000 0.74575(3) 0.2500
N10 N 0.9267(2) 0.8071(2) 0.1463(3)
N11 N 0.8966(3) 0.7156(2) 0.2335(4)
N12 N 1.0118(3) 0.6793(3) 0.3630(4)
C37 C 0.8334(4) 0.8220(4) 0.0265(4)
H73 H 0.8271 0.8595 0.0322
H74 H 0.7948 0.8043 -0.0004
H75 H 0.8561 0.8185 0.0002
C38 C 0.8685(3) 0.7960(3) 0.1013(4)
C39 C 0.8328(3) 0.7604(3) 0.1168(4)
H76 H 0.7927 0.7585 0.0795
C40 C 0.8445(3) 0.7261(3) 0.1778(4)
C41 C 0.7865(3) 0.6998(3) 0.1707(4)
H77 H 0.7902 0.6612 0.1703
H78 H 0.7522 0.7113 0.1258
H79 H 0.7807 0.7103 0.2116
C42 C 0.8983(4) 0.6794(4) 0.2896(5)
H80 H 0.8932 0.7005 0.3258
H81 H 0.8643 0.6545 0.2672
C43 C 0.9535(5) 0.6490(4) 0.3261(7)
H82 H 0.9555 0.6250 0.2903
H83 H 0.9507 0.6264 0.3627
C44 C 0.9560(3) 0.8491(3) 0.1220(4)
H84 H 0.9419 0.8449 0.0693
C45 C 1.0244(3) 0.8404(3) 0.1637(4)
H85 H 1.0387 0.8460 0.2152
H86 H 1.0441 0.8655 0.1465
H87 H 1.0337 0.8041 0.1558
C46 C 0.9408(4) 0.9058(3) 0.1365(4)
H88 H 0.8975 0.9106 0.1116
H89 H 0.9591 0.9318 0.1186
H90 H 0.9562 0.9107 0.1883
C47 C 1.0574(5) 0.6419(5) 0.3782(7)
H91 H 1.0963 0.6596 0.4023
H92 H 1.0519 0.6260 0.3332
H93 H 1.0557 0.6142 0.4096
C48 C 1.0216(7) 0.7021(5) 0.4274(7)
H94 H 1.0320 0.6744 0.4640
H95 H 0.9853 0.7202 0.4205
H96 H 1.0542 0.7277 0.4432
N10A N 1.0733(2) 0.8071(2) 0.3537(3)
N11A N 1.1034(3) 0.7156(2) 0.2665(4)
N12A N 0.9882(3) 0.6793(3) 0.1370(4)
C37A C 1.1666(4) 0.8220(4) 0.4735(4)
H73A H 1.1729 0.8595 0.4678
H74A H 1.2052 0.8043 0.5004
H75A H 1.1439 0.8185 0.4998
C38A C 1.1315(3) 0.7960(3) 0.3987(4)
C39A C 1.1672(3) 0.7604(3) 0.3832(4)
H76A H 1.2073 0.7585 0.4205
C40A C 1.1555(3) 0.7261(3) 0.3222(4)
C41A C 1.2135(3) 0.6998(3) 0.3293(4)
H77A H 1.2098 0.6612 0.3297
H78A H 1.2478 0.7113 0.3742
H79A H 1.2193 0.7103 0.2884
C42A C 1.1017(4) 0.6794(4) 0.2104(5)
H80A H 1.1068 0.7005 0.1742
H81A H 1.1357 0.6545 0.2328
C43A C 1.0465(5) 0.6490(4) 0.1739(7)
H82A H 1.0445 0.6250 0.2097
H83A H 1.0493 0.6264 0.1373
C44A C 1.0440(3) 0.8491(3) 0.3780(4)
H84A H 1.0581 0.8449 0.4307
C45A C 0.9756(3) 0.8404(3) 0.3363(4)
H85A H 0.9613 0.8460 0.2848
H86A H 0.9559 0.8655 0.3535
H87A H 0.9663 0.8041 0.3442
C46A C 1.0592(4) 0.9058(3) 0.3635(4)
H88A H 1.1025 0.9106 0.3884
H89A H 1.0409 0.9318 0.3814
H90A H 1.0438 0.9107 0.3117
C47A C 0.9426(5) 0.6419(5) 0.1218(7)
H91A H 0.9037 0.6596 0.0977
H92A H 0.9481 0.6260 0.1668
H93A H 0.9443 0.6142 0.0904
C48A C 0.9784(7) 0.7021(5) 0.0726(7)
H94A H 0.9680 0.6744 0.0360
H95A H 1.0147 0.7202 0.0795
H96A H 0.9458 0.7277 0.0568
loop_
_geom_bond_atom_site_label_1
_geom_bond_atom_site_label_2
_geom_bond_site_symmetry_1
_geom_bond_site_symmetry_2
Sr1 N1 1_555 1_555
N1 C2 1_555 1_555
N2 Sr1 1_555 1_555
N3 Sr1 1_555 1_555
N4 Sr1 1_555 1_555
N5 Sr1 1_555 1_555
N6 Sr1 1_555 1_555
C1 H1 1_555 1_555
H2 C1 1_555 1_555
H3 C1 1_555 1_555
C2 C1 1_555 1_555
C3 C2 1_555 1_555
H4 C3 1_555 1_555
C4 N2 1_555 1_555
C5 C4 1_555 1_555
H5 C5 1_555 1_555
H6 C5 1_555 1_555
H7 C5 1_555 1_555
C6 N2 1_555 1_555
H8 C6 1_555 1_555
H9 C6 1_555 1_555
C7 N3 1_555 1_555
H10 C7 1_555 1_555
H11 C7 1_555 1_555
C8 N1 1_555 1_555
H12 C8 1_555 1_555
C9 C8 1_555 1_555
H13 C9 1_555 1_555
H14 C9 1_555 1_555
H15 C9 1_555 1_555
C10 C8 1_555 1_555
H16 C10 1_555 1_555
H17 C10 1_555 1_555
H18 C10 1_555 1_555
C11 N3 1_555 1_555
H19 C11 1_555 1_555
H20 C11 1_555 1_555
H21 C11 1_555 1_555
C12 N3 1_555 1_555
H22 C12 1_555 1_555
H23 C12 1_555 1_555
H24 C12 1_555 1_555
C13 H25 1_555 1_555
H26 C13 1_555 1_555
H27 C13 1_555 1_555
C14 N4 1_555 1_555
C15 C14 1_555 1_555
H28 C15 1_555 1_555
C16 N5 1_555 1_555
C17 C16 1_555 1_555
H29 C17 1_555 1_555
H30 C17 1_555 1_555
H31 C17 1_555 1_555
C18 N5 1_555 1_555
H32 C18 1_555 1_555
H33 C18 1_555 1_555
C19 N6 1_555 1_555
H34 C19 1_555 1_555
H35 C19 1_555 1_555
C20 N4 1_555 1_555
H36 C20 1_555 1_555
C21 C20 1_555 1_555
H37 C21 1_555 1_555
H38 C21 1_555 1_555
H39 C21 1_555 1_555
C22 C20 1_555 1_555
H40 C22 1_555 1_555
H41 C22 1_555 1_555
H42 C22 1_555 1_555
C23 N6 1_555 1_555
H43 C23 1_555 1_555
H44 C23 1_555 1_555
H45 C23 1_555 1_555
C24 N6 1_555 1_555
H46 C24 1_555 1_555
H47 C24 1_555 1_555
H48 C24 1_555 1_555
Sr2 N7 1_555 1_555
N7 C26 1_555 1_555
N8 Sr2 1_555 1_555
N9 Sr2 1_555 1_555
C25 H49 1_555 1_555
H50 C25 1_555 1_555
H51 C25 1_555 1_555
C26 C25 1_555 1_555
C27 C26 1_555 1_555
H52 C27 1_555 1_555
C28 N8 1_555 1_555
C29 C28 1_555 1_555
H53 C29 1_555 1_555
H54 C29 1_555 1_555
H55 C29 1_555 1_555
C30 N8 1_555 1_555
H56 C30 1_555 1_555
H57 C30 1_555 1_555
C31 N9 1_555 1_555
H58 C31 1_555 1_555
H59 C31 1_555 1_555
C32 N7 1_555 1_555
H60 C32 1_555 1_555
C33 C32 1_555 1_555
H61 C33 1_555 1_555
H62 C33 1_555 1_555
H63 C33 1_555 1_555
C34 C32 1_555 1_555
H64 C34 1_555 1_555
H65 C34 1_555 1_555
H66 C34 1_555 1_555
C35 N9 1_555 1_555
H67 C35 1_555 1_555
H68 C35 1_555 1_555
H69 C35 1_555 1_555
C36 N9 1_555 1_555
H70 C36 1_555 1_555
H71 C36 1_555 1_555
H72 C36 1_555 1_555
Sr3 N10 1_555 1_555
N10 C38 1_555 1_555
N11 Sr3 1_555 1_555
N12 Sr3 1_555 1_555
C37 H73 1_555 1_555
H74 C37 1_555 1_555
H75 C37 1_555 1_555
C38 C37 1_555 1_555
C39 C38 1_555 1_555
H76 C39 1_555 1_555
C40 N11 1_555 1_555
C41 C40 1_555 1_555
H77 C41 1_555 1_555
H78 C41 1_555 1_555
H79 C41 1_555 1_555
C42 N11 1_555 1_555
H80 C42 1_555 1_555
H81 C42 1_555 1_555
C43 N12 1_555 1_555
H82 C43 1_555 1_555
H83 C43 1_555 1_555
C44 N10 1_555 1_555
H84 C44 1_555 1_555
C45 C44 1_555 1_555
H85 C45 1_555 1_555
H86 C45 1_555 1_555
H87 C45 1_555 1_555
C46 C44 1_555 1_555
H88 C46 1_555 1_555
H89 C46 1_555 1_555
H90 C46 1_555 1_555
C47 N12 1_555 1_555
H91 C47 1_555 1_555
H92 C47 1_555 1_555
H93 C47 1_555 1_555
C48 N12 1_555 1_555
H94 C48 1_555 1_555
H95 C48 1_555 1_555
H96 C48 1_555 1_555
N7A Sr2 1_555 1_555
N8A Sr2 1_555 1_555
N9A Sr2 1_555 1_555
C25A H49A 1_555 1_555
H50A C25A 1_555 1_555
H51A C25A 1_555 1_555
C26A N7A 1_555 1_555
C27A C26A 1_555 1_555
H52A C27A 1_555 1_555
C28A N8A 1_555 1_555
C29A C28A 1_555 1_555
H53A C29A 1_555 1_555
H54A C29A 1_555 1_555
H55A C29A 1_555 1_555
C30A N8A 1_555 1_555
H56A C30A 1_555 1_555
H57A C30A 1_555 1_555
C31A N9A 1_555 1_555
H58A C31A 1_555 1_555
H59A C31A 1_555 1_555
C32A N7A 1_555 1_555
H60A C32A 1_555 1_555
C33A C32A 1_555 1_555
H61A C33A 1_555 1_555
H62A C33A 1_555 1_555
H63A C33A 1_555 1_555
C34A C32A 1_555 1_555
H64A C34A 1_555 1_555
H65A C34A 1_555 1_555
H66A C34A 1_555 1_555
C35A N9A 1_555 1_555
H67A C35A 1_555 1_555
H68A C35A 1_555 1_555
H69A C35A 1_555 1_555
C36A N9A 1_555 1_555
H70A C36A 1_555 1_555
H71A C36A 1_555 1_555
H72A C36A 1_555 1_555
N10A Sr3 1_555 1_555
N11A Sr3 1_555 1_555
N12A Sr3 1_555 1_555
C37A H73A 1_555 1_555
H74A C37A 1_555 1_555
H75A C37A 1_555 1_555
C38A N10A 1_555 1_555
C39A C38A 1_555 1_555
H76A C39A 1_555 1_555
C40A N11A 1_555 1_555
C41A C40A 1_555 1_555
H77A C41A 1_555 1_555
H78A C41A 1_555 1_555
H79A C41A 1_555 1_555
C42A N11A 1_555 1_555
H80A C42A 1_555 1_555
H81A C42A 1_555 1_555
C43A N12A 1_555 1_555
H82A C43A 1_555 1_555
H83A C43A 1_555 1_555
C44A N10A 1_555 1_555
H84A C44A 1_555 1_555
C45A C44A 1_555 1_555
H85A C45A 1_555 1_555
H86A C45A 1_555 1_555
H87A C45A 1_555 1_555
C46A C44A 1_555 1_555
H88A C46A 1_555 1_555
H89A C46A 1_555 1_555
H90A C46A 1_555 1_555
C47A N12A 1_555 1_555
H91A C47A 1_555 1_555
H92A C47A 1_555 1_555
H93A C47A 1_555 1_555
C48A N12A 1_555 1_555
H94A C48A 1_555 1_555
H95A C48A 1_555 1_555
H96A C48A 1_555 1_555
C3 C4 1_555 1_555
C6 C7 1_555 1_555
C13 C14 1_555 1_555
C15 C16 1_555 1_555
C18 C19 1_555 1_555
C27 C28 1_555 1_555
C30 C31 1_555 1_555
C39 C40 1_555 1_555
C42 C43 1_555 1_555
C25A C26A 1_555 1_555
C27A C28A 1_555 1_555
C30A C31A 1_555 1_555
C37A C38A 1_555 1_555
C39A C40A 1_555 1_555
C42A C43A 1_555 1_555

#END
