
#######################################################################
#
#                 Cambridge Crystallographic Data Centre
#                                CCDC 
#
#######################################################################
#
# If this CIF has been generated from an entry in the Cambridge 
# Structural Database, then it will include bibliographic, chemical, 
# crystal, experimental, refinement or atomic coordinate data resulting 
# from the CCDC's data processing and validation procedures.
#
#######################################################################

data_NARLAT
_chemical_formula_moiety         'C20 H14 Cl1 N1 O1'
_chemical_name_systematic        3-Chloro-1-(8-methoxy-1-naphthyl)isoquinoline
_symmetry_cell_setting           triclinic
_symmetry_space_group_name_H-M   'P -1'
_symmetry_Int_Tables_number      2
_space_group_name_Hall           '-P 1'
loop_
_symmetry_equiv_pos_site_id
_symmetry_equiv_pos_as_xyz
1 x,y,z
2 -x,-y,-z
_cell_length_a                   11.814(5)
_cell_length_b                   14.227(5)
_cell_length_c                   11.704(4)
_cell_angle_alpha                90.62(3)
_cell_angle_beta                 115.91(3)
_cell_angle_gamma                112.56(3)
_cell_volume                     1595.89
_exptl_crystal_colour            colorless
_chemical_melting_point          144deg.C
_cell_formula_units_Z            4
loop_
_atom_site_label
_atom_site_type_symbol
_atom_site_fract_x
_atom_site_fract_y
_atom_site_fract_z
Cl1 Cl 0.1398(1) -0.1824(1) 0.2115(1)
O1 O 0.5657(3) 0.0877(2) 0.1917(2)
N1 N 0.2600(3) -0.0041(3) 0.1603(3)
C1 C 0.3460(4) 0.0957(3) 0.1923(4)
C2 C 0.2553(4) -0.0508(3) 0.2583(4)
C3 C 0.3298(5) -0.0034(4) 0.3862(4)
C4 C 0.4189(4) 0.1037(3) 0.4223(4)
C5 C 0.4279(4) 0.1555(3) 0.3228(4)
C6 C 0.5154(4) 0.2627(3) 0.3564(4)
C7 C 0.5920(4) 0.3164(3) 0.4824(4)
C8 C 0.5840(5) 0.2641(4) 0.5801(4)
C9 C 0.4990(5) 0.1605(4) 0.5511(4)
C10 C 0.3465(4) 0.1495(3) 0.0828(3)
C11 C 0.4465(4) 0.1679(3) 0.0387(3)
C12 C 0.4353(4) 0.2204(3) -0.0662(4)
C13 C 0.3286(5) 0.2535(3) -0.1195(4)
C14 C 0.2358(5) 0.2361(4) -0.0760(4)
C15 C 0.2444(4) 0.1832(3) 0.0249(4)
C16 C 0.5315(5) 0.2399(3) -0.1132(4)
C17 C 0.6335(5) 0.2076(4) -0.0612(5)
C18 C 0.6463(4) 0.1553(4) 0.0408(4)
C19 C 0.5574(4) 0.1367(3) 0.090(4)
C20 C 0.6677(5) 0.0486(3) 0.2415(4)
H1 H 0.3184 -0.0420 0.4499
H2 H 0.5210 0.3001 0.2917
H3 H 0.6535 0.3899 0.5017
H4 H 0.6349 0.3018 0.6687
H5 H 0.4979 0.1279 0.6192
H6 H 0.3198 0.2898 -0.1894
H7 H 0.1647 0.2609 -0.1143
H8 H 0.1768 0.1685 0.0567
H9 H 0.5252 0.2779 -0.1812
H10 H 0.6977 0.2198 -0.0964
H11 H 0.7196 0.1339 0.0767
H12 H 0.6768 0.0259 0.3199
H13 H 0.6458 -0.0097 0.1789
H14 H 0.7586 0.1018 0.2603
Cl2 Cl -0.0962(2) -0.4495(2) 0.8929(1)
O2 O 0.0005(3) -0.3452(2) 0.5289(3)
N2 N -0.1846(4) -0.4122(3) 0.6604(4)
C21 C -0.1971(4) -0.3500(4) 0.5768(4)
C22 C -0.1070(6) -0.3637(6) 0.7873(6)
C23 C -0.0427(6) -0.2603(7) 0.8354(5)
C24 C -0.0586(5) -0.1946(5) 0.7469(5)
C25 C -0.1397(4) -0.2404(4) 0.6144(4)
C26 C -0.1605(5) -0.1760(4) 0.5238(5)
C27 C -0.1029(6) -0.0708(5) 0.5653(7)
C28 C -0.0223(7) -0.0265(6) 0.697(1)
C29 C 0.0022(6) -0.0843(7) 0.7868(6)
C30 C -0.2855(4) -0.4058(3) 0.4367(4)
C31 C -0.2295(4) -0.4295(3) 0.3607(4)
C32 C -0.3238(5) -0.4881(3) 0.2315(4)
C33 C -0.4670(6) -0.5185(4) 0.1831(4)
C34 C -0.5177(5) -0.4932(4) 0.2559(6)
C35 C -0.4257(5) -0.4364(4) 0.3835(5)
C36 C -0.0852(5) -0.3996(3) 0.4055(4)
C37 C -0.0406(5) -0.4263(4) 0.3264(5)
C38 C -0.1359(8) -0.4841(5) 0.2006(6)
C39 C -0.2741(7) -0.5147(4) 0.1533(5)
C40 C 0.1438(5) -0.3207(4) 0.5832(5)
H15 H 0.0092 -0.2365 0.9262
H16 H -0.2194 -0.2079 0.4331
H17 H -0.1183 -0.0303 0.5030
H18 H 0.0215 0.0508 0.7176
H19 H 0.0528 -0.0475 0.8698
H20 H -0.5325 -0.5629 0.0971
H21 H -0.6147 -0.5136 0.2235
H22 H -0.4644 -0.4206 0.4362
H23 H 0.0580 -0.4047 0.3544
H24 H -0.1064 -0.5030 0.1426
H25 H -0.3400 -0.5595 0.0688
H26 H 0.1605 -0.3802 0.5881
H27 H 0.1800 -0.2811 0.5300
H28 H 0.1934 -0.2768 0.6688
loop_
_geom_bond_atom_site_label_1
_geom_bond_atom_site_label_2
_geom_bond_site_symmetry_1
_geom_bond_site_symmetry_2
Cl1 C2 1_555 1_555
Cl2 C22 1_555 1_555
O1 C19 1_555 1_555
O2 C36 1_555 1_555
N1 C1 1_555 1_555
N2 C21 1_555 1_555
C1 C5 1_555 1_555
C2 N1 1_555 1_555
C3 C2 1_555 1_555
C4 C3 1_555 1_555
C5 C4 1_555 1_555
C6 C5 1_555 1_555
C7 C6 1_555 1_555
C8 C7 1_555 1_555
C9 C4 1_555 1_555
C10 C1 1_555 1_555
C11 C10 1_555 1_555
C12 C11 1_555 1_555
C13 C12 1_555 1_555
C14 C13 1_555 1_555
C15 C10 1_555 1_555
C16 C12 1_555 1_555
C17 C16 1_555 1_555
C18 C17 1_555 1_555
C19 C11 1_555 1_555
C20 O1 1_555 1_555
C21 C25 1_555 1_555
C22 N2 1_555 1_555
C23 C22 1_555 1_555
C24 C23 1_555 1_555
C25 C24 1_555 1_555
C26 C25 1_555 1_555
C27 C26 1_555 1_555
C28 C27 1_555 1_555
C29 C24 1_555 1_555
C30 C21 1_555 1_555
C31 C30 1_555 1_555
C32 C31 1_555 1_555
C33 C32 1_555 1_555
C34 C33 1_555 1_555
C35 C30 1_555 1_555
C36 C31 1_555 1_555
C37 C36 1_555 1_555
C38 C37 1_555 1_555
C39 C32 1_555 1_555
C40 O2 1_555 1_555
H1 C3 1_555 1_555
H2 C6 1_555 1_555
H3 C7 1_555 1_555
H4 C8 1_555 1_555
H5 C9 1_555 1_555
H6 C13 1_555 1_555
H7 C14 1_555 1_555
H8 C15 1_555 1_555
H9 C16 1_555 1_555
H10 C17 1_555 1_555
H11 C18 1_555 1_555
H12 C20 1_555 1_555
H13 C20 1_555 1_555
H14 C20 1_555 1_555
H15 C23 1_555 1_555
H16 C26 1_555 1_555
H17 C27 1_555 1_555
H18 C28 1_555 1_555
H19 C29 1_555 1_555
H20 C33 1_555 1_555
H21 C34 1_555 1_555
H22 C35 1_555 1_555
H23 C37 1_555 1_555
H24 C38 1_555 1_555
H25 C39 1_555 1_555
H26 C40 1_555 1_555
H27 C40 1_555 1_555
H28 C40 1_555 1_555
C8 C9 1_555 1_555
C14 C15 1_555 1_555
C18 C19 1_555 1_555
C28 C29 1_555 1_555
C34 C35 1_555 1_555
C38 C39 1_555 1_555

#END
