
#######################################################################
#
#                 Cambridge Crystallographic Data Centre
#                                CCDC 
#
#######################################################################
#
# If this CIF has been generated from an entry in the Cambridge 
# Structural Database, then it will include bibliographic, chemical, 
# crystal, experimental, refinement or atomic coordinate data resulting 
# from the CCDC's data processing and validation procedures.
#
#######################################################################

data_NARPAY
_chemical_compound_source        
'parent compound obtained from marine fungus Myrothecium sp'
_chemical_formula_moiety         'C14 H12 Br1 N1 O3'
_chemical_name_systematic        'N-(p-Bromobenzoyl)myrothenone B'
_symmetry_cell_setting           monoclinic
_symmetry_space_group_name_H-M   'P 21'
_symmetry_Int_Tables_number      4
_space_group_name_Hall           'P 2yb'
loop_
_symmetry_equiv_pos_site_id
_symmetry_equiv_pos_as_xyz
1 x,y,z
2 -x,1/2+y,-z
_cell_length_a                   5.630(1)
_cell_length_b                   5.685(1)
_cell_length_c                   20.715(3)
_cell_angle_alpha                90
_cell_angle_beta                 94.85(1)
_cell_angle_gamma                90
_cell_volume                     660.642
_exptl_crystal_colour            'pale yellow'
_exptl_crystal_description       plate
_cell_formula_units_Z            2
loop_
_atom_site_label
_atom_site_type_symbol
_atom_site_fract_x
_atom_site_fract_y
_atom_site_fract_z
Br1 Br 0.88734(9) -0.17924(11) 0.95284(2)
O1 O 0.3337(4) 1.3915(5) 0.61699(14)
O2 O 0.8621(3) 1.3649(5) 0.64460(11)
H1 H 0.9999 1.3510 0.6352
O3 O 0.3309(5) 0.7446(5) 0.78877(14)
N1 N 0.6478(5) 0.7108(6) 0.72876(17)
H2 H 0.7692 0.6251 0.7222
C1 C 0.4656(6) 1.2331(7) 0.6369(2)
C2 C 0.4331(6) 1.0644(7) 0.6862(2)
H3 H 0.3083 1.0669 0.7129
C3 C 0.6065(6) 0.9005(7) 0.6892(2)
C4 C 0.7786(6) 0.9445(6) 0.63861(19)
H4 H 0.7601 0.8266 0.6047
H5 H 0.9417 0.9408 0.6578
C5 C 0.7160(6) 1.1870(6) 0.6116(2)
C6 C 0.7119(6) 1.2008(8) 0.5398(2)
H6 H 0.6384 1.0778 0.5162
C7 C 0.8023(7) 1.3699(10) 0.5068(2)
H7 H 0.8776 1.4965 0.5284
H8 H 0.7912 1.3636 0.4618
C8 C 0.5132(7) 0.6423(8) 0.7787(2)
C9 C 0.6118(7) 0.4425(7) 0.81836(19)
C10 C 0.4877(7) 0.3702(9) 0.8705(2)
H9 H 0.3479 0.4481 0.8785
C11 C 0.5667(9) 0.1854(9) 0.9109(2)
H10 H 0.4823 0.1397 0.9455
C12 C 0.7734(8) 0.0724(8) 0.8979(2)
C13 C 0.9001(7) 0.1320(8) 0.8474(2)
H11 H 1.0361 0.0488 0.8388
C14 C 0.8194(6) 0.3233(12) 0.80832(17)
H12 H 0.9084 0.3708 0.7748
loop_
_geom_bond_atom_site_label_1
_geom_bond_atom_site_label_2
_geom_bond_site_symmetry_1
_geom_bond_site_symmetry_2
Br1 C12 1_555 1_555
O1 C1 1_555 1_555
O2 H1 1_555 1_555
O3 C8 1_555 1_555
N1 H2 1_555 1_555
C1 C2 1_555 1_555
C2 H3 1_555 1_555
C3 N1 1_555 1_555
C4 C3 1_555 1_555
H4 C4 1_555 1_555
H5 C4 1_555 1_555
C5 O2 1_555 1_555
C6 C5 1_555 1_555
H6 C6 1_555 1_555
C7 C6 1_555 1_555
H7 C7 1_555 1_555
H8 C7 1_555 1_555
C8 N1 1_555 1_555
C9 C8 1_555 1_555
C10 C9 1_555 1_555
H9 C10 1_555 1_555
C11 C10 1_555 1_555
H10 C11 1_555 1_555
C12 C11 1_555 1_555
C13 C12 1_555 1_555
H11 C13 1_555 1_555
C14 C9 1_555 1_555
H12 C14 1_555 1_555
C1 C5 1_555 1_555
C2 C3 1_555 1_555
C4 C5 1_555 1_555
C13 C14 1_555 1_555

#END
