
#######################################################################
#
#                 Cambridge Crystallographic Data Centre
#                                CCDC 
#
#######################################################################
#
# If this CIF has been generated from an entry in the Cambridge 
# Structural Database, then it will include bibliographic, chemical, 
# crystal, experimental, refinement or atomic coordinate data resulting 
# from the CCDC's data processing and validation procedures.
#
#######################################################################

data_NARZIP01
_chemical_formula_moiety         'C120,4(C6 H4 Cl2)'
_chemical_name_systematic        
'Bi-(1,9-C60fullerene) 1,2-dichlorobenzene solvate'
_symmetry_cell_setting           triclinic
_symmetry_space_group_name_H-M   'P -1'
_symmetry_Int_Tables_number      2
_space_group_name_Hall           '-P 1'
loop_
_symmetry_equiv_pos_site_id
_symmetry_equiv_pos_as_xyz
1 x,y,z
2 -x,-y,-z
_cell_length_a                   10.0429(8)
_cell_length_b                   11.1463(9)
_cell_length_c                   17.9168(14)
_cell_angle_alpha                94.7549(14)
_cell_angle_beta                 96.970(2)
_cell_angle_gamma                103.2612(15)
_cell_volume                     1924.95
_exptl_crystal_colour            red
_exptl_crystal_description       block
_cell_formula_units_Z            1
loop_
_atom_site_label
_atom_site_type_symbol
_atom_site_fract_x
_atom_site_fract_y
_atom_site_fract_z
Cl1 Cl -0.26406(15) -0.58484(14) 0.74109(8)
Cl2 Cl -0.46403(7) -0.42678(6) 0.80009(4)
C1 C -0.2677(3) -0.5526(2) 0.83594(17)
C2 C -0.1792(3) -0.5951(3) 0.8884(2)
H1 H -0.1161 -0.6391 0.8712
C3 C -0.3608(3) -0.4636(2) 0.93933(16)
H2 H -0.4214 -0.4173 0.9571
C4 C -0.1830(4) -0.5739(3) 0.9640(2)
H3 H -0.1225 -0.6029 0.9992
C5 C -0.2771(6) -0.5086(6) 0.9902(4)
H4 H -0.2820 -0.4961 1.0428
C6 C -0.3586(5) -0.4842(5) 0.8644(3)
C13 C -0.12654(16) 0.08513(15) 0.82658(9)
C14 C 0.33815(15) 0.02765(14) 0.95964(8)
C15 C -0.12187(14) -0.09908(14) 0.87966(8)
C16 C 0.28348(15) -0.10524(14) 0.94929(8)
C17 C -0.03311(15) 0.11735(14) 0.89643(8)
C18 C 0.22654(15) 0.08515(13) 0.97084(8)
C19 C 0.10133(17) -0.30217(13) 0.85333(9)
C20 C -0.08381(15) -0.20933(13) 0.86816(8)
C21 C 0.32643(16) 0.24836(13) 0.89671(9)
C22 C 0.44504(15) -0.12256(15) 0.85820(9)
C23 C 0.49766(15) 0.00491(15) 0.86793(8)
C24 C 0.43738(16) 0.19542(14) 0.88800(9)
C25 C 0.11568(18) 0.27414(14) 0.83623(10)
C26 C 0.13816(15) -0.13084(13) 0.95400(8)
C27 C 0.21951(15) 0.19193(13) 0.93901(8)
C28 C 0.09938(14) -0.01261(13) 0.98110(8)
C29 C 0.33667(16) -0.17958(14) 0.89953(8)
C30 C 0.39995(17) 0.17157(16) 0.68010(9)
C31 C 0.41770(16) -0.18953(15) 0.78274(9)
C32 C -0.18046(17) -0.0459(2) 0.67888(9)
C33 C 0.48763(16) 0.18938(15) 0.81572(9)
C34 C 0.44445(15) -0.12567(15) 0.72056(9)
C35 C -0.04397(14) 0.00516(13) 0.93993(8)
C36 C -0.12044(17) -0.23634(18) 0.65973(10)
C37 C 0.24315(17) -0.28051(14) 0.85067(9)
C38 C 0.49930(15) 0.00765(15) 0.73109(9)
C39 C 0.43558(16) 0.05870(16) 0.66804(9)
C40 C 0.09697(17) -0.23445(18) 0.60909(9)
C41 C -0.12650(17) -0.1232(2) 0.62675(9)
C42 C -0.18124(15) -0.04842(15) 0.81626(8)
C43 C -0.10087(17) 0.14869(17) 0.76406(9)
C44 C 0.44331(15) 0.08210(14) 0.92027(8)
C45 C 0.04862(16) -0.22571(13) 0.90631(9)
C46 C 0.08673(16) 0.20828(13) 0.90118(9)
C47 C -0.17089(16) -0.22915(17) 0.73200(9)
C48 C -0.12856(18) 0.08134(19) 0.68867(9)
C49 C 0.02293(19) 0.24582(16) 0.76937(10)
C50 C 0.18007(19) 0.09014(19) 0.59507(9)
C51 C 0.22723(17) -0.25094(16) 0.64680(9)
C52 C 0.52521(15) 0.07177(15) 0.80337(9)
C53 C 0.34701(16) -0.15657(16) 0.65130(9)
C54 C 0.09188(17) -0.12550(19) 0.57781(9)
C55 C -0.02192(18) -0.0682(2) 0.58685(9)
C56 C 0.00486(17) -0.33295(14) 0.78419(10)
C57 C 0.26288(18) 0.29911(14) 0.83397(10)
C58 C 0.26970(19) 0.18752(18) 0.64269(10)
C59 C 0.05213(17) -0.34132(15) 0.71462(10)
C60 C -0.10873(16) -0.27569(15) 0.79316(9)
C61 C 0.31156(18) 0.29415(15) 0.76445(10)
C62 C -0.01952(19) 0.13838(19) 0.64733(10)
C63 C -0.20795(15) -0.11275(17) 0.74353(9)
C64 C 0.2152(2) 0.26412(17) 0.69506(10)
C65 C 0.0741(2) 0.23993(18) 0.69689(10)
C66 C -0.01109(17) -0.29142(17) 0.65128(10)
C67 C 0.19963(18) -0.31681(15) 0.71125(10)
C68 C 0.29287(17) -0.28723(14) 0.77798(10)
C69 C 0.34192(17) -0.04308(17) 0.61866(9)
C70 C 0.21658(18) -0.02742(18) 0.58273(9)
C71 C 0.03225(19) 0.0650(2) 0.59745(9)
C72 C 0.42620(17) 0.23750(15) 0.75543(10)
C13A C 0.12654(16) -0.08513(15) 1.17342(9)
C14A C -0.33815(15) -0.02765(14) 1.04036(8)
C15A C 0.12187(14) 0.09908(14) 1.12034(8)
C16A C -0.28348(15) 0.10524(14) 1.05071(8)
C17A C 0.03311(15) -0.11735(14) 1.10357(8)
C18A C -0.22654(15) -0.08515(13) 1.02916(8)
C19A C -0.10133(17) 0.30217(13) 1.14667(9)
C20A C 0.08381(15) 0.20933(13) 1.13184(8)
C21A C -0.32643(16) -0.24836(13) 1.10329(9)
C22A C -0.44504(15) 0.12256(15) 1.14180(9)
C23A C -0.49766(15) -0.00491(15) 1.13207(8)
C24A C -0.43738(16) -0.19542(14) 1.11200(9)
C25A C -0.11568(18) -0.27414(14) 1.16377(10)
C26A C -0.13816(15) 0.13084(13) 1.04600(8)
C27A C -0.21951(15) -0.19193(13) 1.06099(8)
C28A C -0.09938(14) 0.01261(13) 1.01890(8)
C29A C -0.33667(16) 0.17958(14) 1.10047(8)
C30A C -0.39995(17) -0.17157(16) 1.31990(9)
C31A C -0.41770(16) 0.18953(15) 1.21726(9)
C32A C 0.18046(17) 0.0459(2) 1.32112(9)
C33A C -0.48763(16) -0.18938(15) 1.18428(9)
C34A C -0.44445(15) 0.12567(15) 1.27944(9)
C35A C 0.04397(14) -0.00516(13) 1.06007(8)
C36A C 0.12044(17) 0.23634(18) 1.34027(10)
C37A C -0.24315(17) 0.28051(14) 1.14933(9)
C38A C -0.49930(15) -0.00765(15) 1.26891(9)
C39A C -0.43558(16) -0.05870(16) 1.33196(9)
C40A C -0.09697(17) 0.23445(18) 1.39091(9)
C41A C 0.12650(17) 0.1232(2) 1.37325(9)
C42A C 0.18124(15) 0.04842(15) 1.18374(8)
C43A C 0.10087(17) -0.14869(17) 1.23594(9)
C44A C -0.44331(15) -0.08210(14) 1.07973(8)
C45A C -0.04862(16) 0.22571(13) 1.09369(9)
C46A C -0.08673(16) -0.20828(13) 1.09882(9)
C47A C 0.17089(16) 0.22915(17) 1.26800(9)
C48A C 0.12856(18) -0.08134(19) 1.31133(9)
C49A C -0.02293(19) -0.24582(16) 1.23063(10)
C50A C -0.18007(19) -0.09014(19) 1.40493(9)
C51A C -0.22723(17) 0.25094(16) 1.35320(9)
C52A C -0.52521(15) -0.07177(15) 1.19663(9)
C53A C -0.34701(16) 0.15657(16) 1.34870(9)
C54A C -0.09188(17) 0.12550(19) 1.42219(9)
C55A C 0.02192(18) 0.0682(2) 1.41315(9)
C56A C -0.00486(17) 0.33295(14) 1.21581(10)
C57A C -0.26288(18) -0.29911(14) 1.16603(10)
C58A C -0.26970(19) -0.18752(18) 1.35731(10)
C59A C -0.05213(17) 0.34132(15) 1.28538(10)
C60A C 0.10873(16) 0.27569(15) 1.20684(9)
C61A C -0.31156(18) -0.29415(15) 1.23555(10)
C62A C 0.01952(19) -0.13838(19) 1.35267(10)
C63A C 0.20795(15) 0.11275(17) 1.25647(9)
C64A C -0.2152(2) -0.26412(17) 1.30494(10)
C65A C -0.0741(2) -0.23993(18) 1.30311(10)
C66A C 0.01109(17) 0.29142(17) 1.34872(10)
C67A C -0.19963(18) 0.31681(15) 1.28875(10)
C68A C -0.29287(17) 0.28723(14) 1.22202(10)
C69A C -0.34192(17) 0.04308(17) 1.38134(9)
C70A C -0.21658(18) 0.02742(18) 1.41727(9)
C71A C -0.03225(19) -0.0650(2) 1.40255(9)
C72A C -0.42620(17) -0.23750(15) 1.24457(10)
Cl5 Cl 0.86394(9) 0.57889(8) 0.45615(5)
Cl6 Cl 0.87553(10) 0.38554(8) 0.57412(4)
C73 C 0.7218(10) 0.3848(7) 0.5155(5)
C74 C 0.7186(4) 0.4670(4) 0.4653(2)
C75 C 0.4834(6) 0.2883(4) 0.4764(3)
H9 H 0.4027 0.2262 0.4800
C76 C 0.6047(6) 0.2940(4) 0.5233(2)
H10 H 0.6084 0.2375 0.5600
C77 C 0.5940(10) 0.4609(7) 0.4176(4)
H11 H 0.5897 0.5176 0.3811
C78 C 0.4787(14) 0.3706(13) 0.4254(8)
H12 H 0.3938 0.3661 0.3941
Cl3? Cl -0.2337(3) -0.5317(3) 0.98580(14)
C7? C -0.3251(5) -0.5316(4) 0.7329(3)
H5? H -0.3436 -0.5322 0.6795
C8? C -0.3975(5) -0.4755(4) 0.7803(3)
H6? H -0.4659 -0.4358 0.7603
C9? C -0.1976(6) -0.5879(5) 0.8435(4)
H7? H -0.1305 -0.6277 0.8651
C10? C -0.2248(11) -0.5870(11) 0.7649(6)
H8? H -0.1736 -0.6250 0.7329
C11? C -0.3693(9) -0.4783(7) 0.8550(5)
C12? C -0.2692(5) -0.5308(4) 0.8875(3)
Cl4? Cl -0.46426(12) -0.40463(10) 0.91562(6)
C79? C 0.6778(8) 0.3529(9) 0.5149(5)
C80? C 0.5107(10) 0.4003(12) 0.4174(7)
H13? H 0.4230 0.3773 0.3865
C81? C 0.6033(10) 0.5111(6) 0.4120(4)
H14? H 0.5785 0.5649 0.3772
Cl7? Cl 0.43274(8) 0.18370(8) 0.47637(5)
Cl8? Cl 0.72839(9) 0.25589(8) 0.57445(5)
C82? C 0.7684(4) 0.4656(5) 0.5073(3)
H15? H 0.8569 0.4887 0.5375
C83? C 0.7319(4) 0.5447(4) 0.4565(2)
H16? H 0.7946 0.6211 0.4523
C84? C 0.5486(5) 0.3223(4) 0.4697(2)
loop_
_geom_bond_atom_site_label_1
_geom_bond_atom_site_label_2
_geom_bond_site_symmetry_1
_geom_bond_site_symmetry_2
Cl1 C1 1_555 1_555
Cl2 C6 1_555 1_555
C1 C2 1_555 1_555
C2 H1 1_555 1_555
C3 H2 1_555 1_555
C4 C2 1_555 1_555
H3 C4 1_555 1_555
C5 C3 1_555 1_555
H4 C5 1_555 1_555
C6 C1 1_555 1_555
C13 C17 1_555 1_555
C14 C16 1_555 1_555
C15 C20 1_555 1_555
C16 C26 1_555 1_555
C17 C35 1_555 1_555
C18 C14 1_555 1_555
C19 C37 1_555 1_555
C20 C45 1_555 1_555
C21 C24 1_555 1_555
C22 C23 1_555 1_555
C23 C44 1_555 1_555
C24 C33 1_555 1_555
C25 C46 1_555 1_555
C26 C28 1_555 1_555
C27 C18 1_555 1_555
C28 C18 1_555 1_555
C29 C16 1_555 1_555
C30 C39 1_555 1_555
C31 C22 1_555 1_555
C32 C41 1_555 1_555
C33 C52 1_555 1_555
C34 C31 1_555 1_555
C35 C15 1_555 1_555
C36 C41 1_555 1_555
C37 C29 1_555 1_555
C38 C34 1_555 1_555
C39 C38 1_555 1_555
C40 C51 1_555 1_555
C41 C55 1_555 1_555
C42 C13 1_555 1_555
C43 C13 1_555 1_555
C44 C14 1_555 1_555
C45 C19 1_555 1_555
C46 C17 1_555 1_555
C47 C36 1_555 1_555
C48 C32 1_555 1_555
C49 C25 1_555 1_555
C50 C58 1_555 1_555
C51 C53 1_555 1_555
C52 C23 1_555 1_555
C53 C34 1_555 1_555
C54 C40 1_555 1_555
C55 C54 1_555 1_555
C56 C19 1_555 1_555
C57 C21 1_555 1_555
C58 C30 1_555 1_555
C59 C56 1_555 1_555
C60 C20 1_555 1_555
C61 C57 1_555 1_555
C62 C48 1_555 1_555
C63 C32 1_555 1_555
C64 C58 1_555 1_555
C65 C49 1_555 1_555
C66 C36 1_555 1_555
C67 C51 1_555 1_555
C68 C31 1_555 1_555
C69 C39 1_555 1_555
C70 C50 1_555 1_555
C71 C50 1_555 1_555
C72 C30 1_555 1_555
Cl5 C74 1_555 1_555
Cl6 C73 1_555 1_555
C73 C74 1_555 1_555
C74 C77 1_555 1_555
C75 H9 1_555 1_555
C76 C73 1_555 1_555
H10 C76 1_555 1_555
C77 H11 1_555 1_555
C78 C75 1_555 1_555
H12 C78 1_555 1_555
C13A C17A 1_555 1_555
C14A C16A 1_555 1_555
C15A C20A 1_555 1_555
C16A C26A 1_555 1_555
C17A C35A 1_555 1_555
C18A C14A 1_555 1_555
C19A C37A 1_555 1_555
C20A C45A 1_555 1_555
C21A C24A 1_555 1_555
C22A C23A 1_555 1_555
C23A C44A 1_555 1_555
C24A C33A 1_555 1_555
C25A C46A 1_555 1_555
C26A C28A 1_555 1_555
C27A C18A 1_555 1_555
C28A C35 1_555 1_555
C29A C16A 1_555 1_555
C30A C39A 1_555 1_555
C31A C22A 1_555 1_555
C32A C41A 1_555 1_555
C33A C52A 1_555 1_555
C34A C31A 1_555 1_555
C35A C28 1_555 1_555
C36A C41A 1_555 1_555
C37A C29A 1_555 1_555
C38A C34A 1_555 1_555
C39A C38A 1_555 1_555
C40A C51A 1_555 1_555
C41A C55A 1_555 1_555
C42A C13A 1_555 1_555
C43A C13A 1_555 1_555
C44A C14A 1_555 1_555
C45A C19A 1_555 1_555
C46A C17A 1_555 1_555
C47A C36A 1_555 1_555
C48A C32A 1_555 1_555
C49A C25A 1_555 1_555
C50A C58A 1_555 1_555
C51A C53A 1_555 1_555
C52A C23A 1_555 1_555
C53A C34A 1_555 1_555
C54A C40A 1_555 1_555
C55A C54A 1_555 1_555
C56A C19A 1_555 1_555
C57A C21A 1_555 1_555
C58A C30A 1_555 1_555
C59A C56A 1_555 1_555
C60A C20A 1_555 1_555
C61A C57A 1_555 1_555
C62A C48A 1_555 1_555
C63A C32A 1_555 1_555
C64A C58A 1_555 1_555
C65A C49A 1_555 1_555
C66A C36A 1_555 1_555
C67A C51A 1_555 1_555
C68A C31A 1_555 1_555
C69A C39A 1_555 1_555
C70A C50A 1_555 1_555
C71A C50A 1_555 1_555
C72A C30A 1_555 1_555
C3 C6 1_555 1_555
C4 C5 1_555 1_555
C15 C42 1_555 1_555
C21 C27 1_555 1_555
C22 C29 1_555 1_555
C24 C44 1_555 1_555
C25 C57 1_555 1_555
C26 C45 1_555 1_555
C27 C46 1_555 1_555
C28 C35 1_555 1_555
C33 C72 1_555 1_555
C37 C68 1_555 1_555
C38 C52 1_555 1_555
C40 C66 1_555 1_555
C42 C63 1_555 1_555
C43 C48 1_555 1_555
C43 C49 1_555 1_555
C47 C60 1_555 1_555
C47 C63 1_555 1_555
C53 C69 1_555 1_555
C54 C70 1_555 1_555
C55 C71 1_555 1_555
C56 C60 1_555 1_555
C59 C66 1_555 1_555
C59 C67 1_555 1_555
C61 C64 1_555 1_555
C61 C72 1_555 1_555
C62 C65 1_555 1_555
C62 C71 1_555 1_555
C64 C65 1_555 1_555
C67 C68 1_555 1_555
C69 C70 1_555 1_555
C75 C76 1_555 1_555
C77 C78 1_555 1_555
C15A C35A 1_555 1_555
C15A C42A 1_555 1_555
C18A C28A 1_555 1_555
C21A C27A 1_555 1_555
C22A C29A 1_555 1_555
C24A C44A 1_555 1_555
C25A C57A 1_555 1_555
C26A C45A 1_555 1_555
C27A C46A 1_555 1_555
C28A C35A 1_555 1_555
C33A C72A 1_555 1_555
C37A C68A 1_555 1_555
C38A C52A 1_555 1_555
C40A C66A 1_555 1_555
C42A C63A 1_555 1_555
C43A C48A 1_555 1_555
C43A C49A 1_555 1_555
C47A C60A 1_555 1_555
C47A C63A 1_555 1_555
C53A C69A 1_555 1_555
C54A C70A 1_555 1_555
C55A C71A 1_555 1_555
C56A C60A 1_555 1_555
C59A C66A 1_555 1_555
C59A C67A 1_555 1_555
C61A C64A 1_555 1_555
C61A C72A 1_555 1_555
C62A C65A 1_555 1_555
C62A C71A 1_555 1_555
C64A C65A 1_555 1_555
C67A C68A 1_555 1_555
C69A C70A 1_555 1_555

#END
