
#######################################################################
#
#                 Cambridge Crystallographic Data Centre
#                                CCDC 
#
#######################################################################
#
# If this CIF has been generated from an entry in the Cambridge 
# Structural Database, then it will include bibliographic, chemical, 
# crystal, experimental, refinement or atomic coordinate data resulting 
# from the CCDC's data processing and validation procedures.
#
#######################################################################

data_NARZIR
_chemical_formula_moiety         'C22 H19 N1 O4 S1'
_chemical_name_systematic        
N-(4-(3-(4-Hydroxyphenyl)acryloyl)phenyl)-4-methylbenzenesulfonamide
_symmetry_cell_setting           monoclinic
_symmetry_space_group_name_H-M   'P 21/n'
_symmetry_Int_Tables_number      14
_space_group_name_Hall           '-P 2yn'
loop_
_symmetry_equiv_pos_site_id
_symmetry_equiv_pos_as_xyz
1 x,y,z
2 1/2-x,1/2+y,1/2-z
3 -x,-y,-z
4 1/2+x,1/2-y,1/2+z
_cell_length_a                   11.0821(7)
_cell_length_b                   13.1497(8)
_cell_length_c                   13.5886(8)
_cell_angle_alpha                90
_cell_angle_beta                 102.2520(10)
_cell_angle_gamma                90
_cell_volume                     1935.11
_exptl_crystal_colour            'pale yellow'
_exptl_crystal_description       plate
_cell_formula_units_Z            4
loop_
_atom_site_label
_atom_site_type_symbol
_atom_site_fract_x
_atom_site_fract_y
_atom_site_fract_z
S1 S 0.54149(6) 0.81020(5) 0.21313(5)
O1 O -0.08402(17) 0.14461(14) -0.47078(14)
H1 H -0.0829 0.1870 -0.5148
O2 O 0.15771(17) 0.35804(14) 0.11799(14)
O3 O 0.57010(17) 0.90638(13) 0.26226(14)
O4 O 0.57849(17) 0.79252(13) 0.11981(14)
N1 N 0.39126(19) 0.80053(15) 0.19413(16)
H2 H 0.3477 0.8512 0.2064
C1 C 0.0488(2) 0.26741(19) -0.18645(19)
C2 C 0.2189(2) 0.52433(19) 0.08610(19)
C3 C 0.0244(3) 0.1634(2) -0.2017(2)
H3 H 0.0382 0.1201 -0.1463
C4 C 0.2178(2) 0.5589(2) 0.1829(2)
H4 H 0.1784 0.5205 0.2242
C5 C -0.0191(3) 0.1233(2) -0.2958(2)
H5 H -0.0348 0.0539 -0.3038
C6 C 0.2742(2) 0.64912(19) 0.2185(2)
H6 H 0.2731 0.6712 0.2833
C7 C -0.0394(2) 0.1870(2) -0.3786(2)
C8 C 0.3327(2) 0.70675(18) 0.15677(19)
C9 C 0.3317(2) 0.67489(19) 0.0593(2)
H7 H 0.3690 0.7144 0.0174
C10 C -0.0154(2) 0.29081(19) -0.3662(2)
H8 H -0.0286 0.3336 -0.4220
C11 C 0.2752(2) 0.58415(19) 0.0246(2)
H9 H 0.2749 0.5629 -0.0407
C12 C 0.0280(2) 0.33003(19) -0.2712(2)
H10 H 0.0436 0.3994 -0.2635
C13 C 0.1657(2) 0.42255(19) 0.0537(2)
C14 C 0.1221(2) 0.40044(19) -0.05393(19)
H11 H 0.1138 0.4530 -0.1007
C15 C 0.0943(2) 0.30547(19) -0.0848(2)
H12 H 0.1056 0.2566 -0.0343
C16 C 0.6031(2) 0.71196(18) 0.2971(2)
C17 C 0.6632(3) 0.6300(2) 0.2652(2)
H13 H 0.6715 0.6254 0.1986
C18 C 0.7109(3) 0.5547(2) 0.3342(2)
H14 H 0.7523 0.5000 0.3133
C19 C 0.6985(3) 0.5589(2) 0.4324(2)
C20 C 0.6359(3) 0.6416(2) 0.4624(2)
H15 H 0.6258 0.6454 0.5285
C21 C 0.5890(2) 0.7176(2) 0.3958(2)
H16 H 0.5480 0.7725 0.4169
C22 C 0.7536(3) 0.4786(2) 0.5077(3)
H17 H 0.7933 0.4277 0.4750
H18 H 0.6895 0.4477 0.5351
H19 H 0.8132 0.5093 0.5611
loop_
_geom_bond_atom_site_label_1
_geom_bond_atom_site_label_2
_geom_bond_site_symmetry_1
_geom_bond_site_symmetry_2
S1 O3 1_555 1_555
O1 H1 1_555 1_555
O2 C13 1_555 1_555
O4 S1 1_555 1_555
N1 S1 1_555 1_555
H2 N1 1_555 1_555
C1 C3 1_555 1_555
C2 C4 1_555 1_555
C3 H3 1_555 1_555
C4 H4 1_555 1_555
C5 C3 1_555 1_555
H5 C5 1_555 1_555
C6 C4 1_555 1_555
H6 C6 1_555 1_555
C7 O1 1_555 1_555
C8 N1 1_555 1_555
C9 C8 1_555 1_555
H7 C9 1_555 1_555
C10 C7 1_555 1_555
H8 C10 1_555 1_555
C11 C2 1_555 1_555
H9 C11 1_555 1_555
C12 C1 1_555 1_555
H10 C12 1_555 1_555
C13 C2 1_555 1_555
C14 C13 1_555 1_555
H11 C14 1_555 1_555
C15 C1 1_555 1_555
H12 C15 1_555 1_555
C16 S1 1_555 1_555
C17 C16 1_555 1_555
H13 C17 1_555 1_555
C18 C17 1_555 1_555
H14 C18 1_555 1_555
C19 C18 1_555 1_555
C20 C19 1_555 1_555
H15 C20 1_555 1_555
C21 C16 1_555 1_555
H16 C21 1_555 1_555
C22 C19 1_555 1_555
H17 C22 1_555 1_555
H18 C22 1_555 1_555
H19 C22 1_555 1_555
C5 C7 1_555 1_555
C6 C8 1_555 1_555
C9 C11 1_555 1_555
C10 C12 1_555 1_555
C14 C15 1_555 1_555
C20 C21 1_555 1_555

#END
