
#######################################################################
#
#                 Cambridge Crystallographic Data Centre
#                                CCDC 
#
#######################################################################
#
# If this CIF has been generated from an entry in the Cambridge 
# Structural Database, then it will include bibliographic, chemical, 
# crystal, experimental, refinement or atomic coordinate data resulting 
# from the CCDC's data processing and validation procedures.
#
#######################################################################

data_NASFET
_chemical_formula_moiety         'H3 O1 1+,C1 H1 B11 Cl11 1-,4(C6 H6)'
_chemical_name_systematic        
'Oxonium undecachloro-carba-closo-dodecaborate benzene solvate'
_symmetry_cell_setting           triclinic
_symmetry_space_group_name_H-M   'P -1'
_symmetry_Int_Tables_number      2
_space_group_name_Hall           '-P 1'
loop_
_symmetry_equiv_pos_site_id
_symmetry_equiv_pos_as_xyz
1 x,y,z
2 -x,-y,-z
_cell_length_a                   9.4895(14)
_cell_length_b                   12.4160(17)
_cell_length_c                   17.999(3)
_cell_angle_alpha                73.906(3)
_cell_angle_beta                 80.344(3)
_cell_angle_gamma                75.092(3)
_cell_volume                     1958.33
_exptl_crystal_colour            'light yellow'
_exptl_crystal_description       'Prism fragment'
_cell_formula_units_Z            2
loop_
_atom_site_label
_atom_site_type_symbol
_atom_site_fract_x
_atom_site_fract_y
_atom_site_fract_z
C1 C 0.7214(2) 0.10548(16) 0.33021(11)
H1 H 0.6518 0.0649 0.3807
B1 B 0.6566(2) 0.24632(18) 0.28450(13)
B2 B 0.8064(2) 0.20541(18) 0.34256(12)
B3 B 0.9085(2) 0.06622(19) 0.33324(12)
B4 B 0.8215(2) 0.02261(18) 0.26916(13)
B5 B 0.6658(2) 0.13344(19) 0.23865(13)
B6 B 0.8318(3) 0.11925(19) 0.17621(13)
B7 B 0.9823(2) 0.07799(19) 0.23426(13)
B8 B 0.9726(2) 0.19078(19) 0.28019(13)
B9 B 0.8163(2) 0.30260(18) 0.24983(13)
B10 B 0.7293(2) 0.25879(19) 0.18570(13)
B11 B 0.9248(2) 0.22450(19) 0.18245(13)
Cl1 Cl 0.48371(5) 0.32443(4) 0.31638(3)
Cl2 Cl 0.78390(6) 0.24335(5) 0.43228(3)
Cl3 Cl 0.98669(6) -0.03640(5) 0.41376(3)
Cl4 Cl 0.81443(6) -0.12385(4) 0.28719(3)
Cl5 Cl 0.50267(6) 0.09990(5) 0.22609(3)
Cl6 Cl 0.84734(7) 0.07013(5) 0.09029(3)
Cl7 Cl 1.15253(6) -0.00990(5) 0.20725(3)
Cl8 Cl 1.13243(6) 0.21935(5) 0.30330(3)
Cl9 Cl 0.81421(6) 0.45050(4) 0.23919(3)
Cl10 Cl 0.63205(6) 0.36177(5) 0.10993(3)
Cl11 Cl 1.03602(7) 0.29018(5) 0.10148(3)
C2 C 0.1151(3) 0.6544(3) 0.22448(17)
H2 H 0.0882 0.6863 0.2678
C3 C 0.1023(3) 0.7242(3) 0.15082(19)
H3 H 0.0664 0.8040 0.1436
C4 C 0.1419(4) 0.6771(3) 0.08793(17)
H4 H 0.1330 0.7242 0.0374
C5 C 0.1943(4) 0.5614(3) 0.09919(17)
H5 H 0.2211 0.5290 0.0560
C6 C 0.2085(3) 0.4921(2) 0.17188(17)
H6 H 0.2466 0.4126 0.1789
C7 C 0.1673(3) 0.5385(3) 0.23457(16)
H7 H 0.1747 0.4906 0.2850
C8 C 0.2952(3) 0.6491(4) 0.39817(17)
H8 H 0.1990 0.6429 0.4187
C9 C 0.4080(4) 0.5549(3) 0.41042(16)
H9 H 0.3899 0.4835 0.4396
C10 C 0.5464(3) 0.5643(2) 0.38047(16)
H10 H 0.6238 0.4990 0.3892
C11 C 0.5749(3) 0.6669(2) 0.33798(16)
H11 H 0.6714 0.6720 0.3172
C12 C 0.4643(4) 0.7619(2) 0.32549(17)
H12 H 0.4841 0.8329 0.2965
C13 C 0.3231(4) 0.7539(3) 0.35545(19)
H13 H 0.2459 0.8195 0.3469
C14 C -0.0461(3) 0.5918(3) 0.53354(19)
H14 H -0.0770 0.6546 0.5564
C15 C 0.0508(3) 0.4947(3) 0.56774(16)
H15 H 0.0856 0.4906 0.6146
C16 C -0.0968(3) 0.5958(3) 0.46604(19)
H16 H -0.1640 0.6616 0.4426
C14A C 0.0461(3) 0.4082(3) 0.46646(19)
H14A H 0.0770 0.3454 0.4436
C15A C -0.0508(3) 0.5053(3) 0.43226(16)
H15A H -0.0856 0.5094 0.3854
C16A C 0.0968(3) 0.4042(3) 0.53396(19)
H16A H 0.1640 0.3384 0.5574
C17 C 0.3818(3) 0.0860(3) 0.47587(16)
H17 H 0.3009 0.1452 0.4593
C18 C 0.4749(3) 0.1018(3) 0.52099(16)
H18 H 0.4575 0.1717 0.5355
C19 C 0.4067(3) -0.0152(3) 0.45527(16)
H19 H 0.3427 -0.0259 0.4247
C17A C 0.6182(3) -0.0860(3) 0.52413(16)
H17A H 0.6991 -0.1452 0.5407
C18A C 0.5251(3) -0.1018(3) 0.47901(16)
H18A H 0.5425 -0.1717 0.4645
C19A C 0.5933(3) 0.0152(3) 0.54473(16)
H19A H 0.6573 0.0259 0.5753
C26 C 0.7212(11) 0.7111(12) 0.0769(6)
H26 H 0.8133 0.6599 0.0817
C27 C 0.6826(14) 0.7997(15) 0.1134(5)
H27 H 0.7485 0.8094 0.1433
C28 C 0.5481(17) 0.8741(9) 0.1061(5)
H28 H 0.5231 0.9343 0.1314
C29 C 0.4493(12) 0.8627(7) 0.0629(5)
H29 H 0.3574 0.9141 0.0581
C30 C 0.4888(10) 0.7737(9) 0.0266(5)
H30 H 0.4227 0.7643 -0.0034
C31 C 0.6232(13) 0.6980(8) 0.0333(6)
H31 H 0.6482 0.6376 0.0083
O1 O 0.4624(2) 0.60919(17) 0.20146(10)
H32 H 0.482(3) 0.654(2) 0.1559(8)
H33 H 0.462(3) 0.648(2) 0.2357(12)
H34 H 0.3707(15) 0.605(3) 0.2037(14)
C20? C 0.7020(19) 0.6744(11) 0.0658(9)
H20? H 0.7703 0.6061 0.0613
C21? C 0.7199(14) 0.7400(13) 0.1119(8)
H21? H 0.8028 0.7159 0.1395
C22? C 0.621(2) 0.8397(12) 0.1192(7)
H22? H 0.6372 0.8828 0.1512
C23? C 0.4990(17) 0.8765(13) 0.0799(10)
H23? H 0.4301 0.9443 0.0849
C24? C 0.4795(19) 0.8126(18) 0.0332(11)
H24? H 0.3968 0.8371 0.0054
C25? C 0.579(2) 0.7133(18) 0.0264(10)
H25? H 0.5633 0.6706 -0.0059
loop_
_geom_bond_atom_site_label_1
_geom_bond_atom_site_label_2
_geom_bond_site_symmetry_1
_geom_bond_site_symmetry_2
C1 H1 1_555 1_555
B1 C1 1_555 1_555
B2 C1 1_555 1_555
B3 C1 1_555 1_555
B4 C1 1_555 1_555
B5 C1 1_555 1_555
B6 B4 1_555 1_555
B7 B3 1_555 1_555
B8 B2 1_555 1_555
B9 B1 1_555 1_555
B10 B1 1_555 1_555
B11 B6 1_555 1_555
Cl1 B1 1_555 1_555
Cl2 B2 1_555 1_555
Cl3 B3 1_555 1_555
Cl4 B4 1_555 1_555
Cl5 B5 1_555 1_555
Cl6 B6 1_555 1_555
Cl7 B7 1_555 1_555
Cl8 B8 1_555 1_555
Cl9 B9 1_555 1_555
Cl10 B10 1_555 1_555
Cl11 B11 1_555 1_555
C2 H2 1_555 1_555
C3 C2 1_555 1_555
H3 C3 1_555 1_555
C4 C3 1_555 1_555
H4 C4 1_555 1_555
C5 C4 1_555 1_555
H5 C5 1_555 1_555
C6 C5 1_555 1_555
H6 C6 1_555 1_555
C7 C2 1_555 1_555
H7 C7 1_555 1_555
C8 H8 1_555 1_555
C9 C8 1_555 1_555
H9 C9 1_555 1_555
C10 C9 1_555 1_555
H10 C10 1_555 1_555
C11 C10 1_555 1_555
H11 C11 1_555 1_555
C12 C11 1_555 1_555
H12 C12 1_555 1_555
C13 C8 1_555 1_555
H13 C13 1_555 1_555
C14 H14 1_555 1_555
C15 C14 1_555 1_555
H15 C15 1_555 1_555
C16 C14 1_555 1_555
H16 C16 1_555 1_555
C17 H17 1_555 1_555
C18 C17 1_555 1_555
H18 C18 1_555 1_555
C19 C17 1_555 1_555
H19 C19 1_555 1_555
C26 H26 1_555 1_555
C27 C26 1_555 1_555
H27 C27 1_555 1_555
C28 C27 1_555 1_555
H28 C28 1_555 1_555
C29 C28 1_555 1_555
H29 C29 1_555 1_555
C30 C29 1_555 1_555
H30 C30 1_555 1_555
C31 C26 1_555 1_555
H31 C31 1_555 1_555
O1 H32 1_555 1_555
H33 O1 1_555 1_555
H34 O1 1_555 1_555
C14A H14A 1_555 1_555
C15A C16 1_555 1_555
H15A C15A 1_555 1_555
C16A C15 1_555 1_555
H16A C16A 1_555 1_555
C17A H17A 1_555 1_555
C18A C19 1_555 1_555
H18A C18A 1_555 1_555
C19A C18 1_555 1_555
H19A C19A 1_555 1_555
B1 B2 1_555 1_555
B1 B5 1_555 1_555
B2 B3 1_555 1_555
B2 B9 1_555 1_555
B3 B4 1_555 1_555
B3 B8 1_555 1_555
B4 B5 1_555 1_555
B4 B7 1_555 1_555
B5 B6 1_555 1_555
B5 B10 1_555 1_555
B6 B7 1_555 1_555
B6 B10 1_555 1_555
B7 B8 1_555 1_555
B7 B11 1_555 1_555
B8 B9 1_555 1_555
B8 B11 1_555 1_555
B9 B10 1_555 1_555
B9 B11 1_555 1_555
B10 B11 1_555 1_555
C6 C7 1_555 1_555
C12 C13 1_555 1_555
C30 C31 1_555 1_555
C14A C15A 1_555 1_555
C14A C16A 1_555 1_555
C17A C18A 1_555 1_555
C17A C19A 1_555 1_555

#END
