
#######################################################################
#
#                 Cambridge Crystallographic Data Centre
#                                CCDC 
#
#######################################################################
#
# If this CIF has been generated from an entry in the Cambridge 
# Structural Database, then it will include bibliographic, chemical, 
# crystal, experimental, refinement or atomic coordinate data resulting 
# from the CCDC's data processing and validation procedures.
#
#######################################################################

data_NASGUL
_chemical_formula_moiety         'C24 H23 Cl1 N2 O1'
_chemical_name_systematic        
3-(2-Chloropyridin-4-yl)-3-(4-ethylphenyl)-N-(2-phenylethyl)acrylamide
_symmetry_cell_setting           triclinic
_symmetry_space_group_name_H-M   'P -1'
_symmetry_Int_Tables_number      2
_space_group_name_Hall           '-P 1'
loop_
_symmetry_equiv_pos_site_id
_symmetry_equiv_pos_as_xyz
1 x,y,z
2 -x,-y,-z
_cell_length_a                   8.6568(17)
_cell_length_b                   13.927(3)
_cell_length_c                   18.507(4)
_cell_angle_alpha                109.20(3)
_cell_angle_beta                 101.02(3)
_cell_angle_gamma                92.15(3)
_cell_volume                     2056.14
_exptl_crystal_colour            colorless
_exptl_crystal_description       block
_cell_formula_units_Z            4
loop_
_atom_site_label
_atom_site_type_symbol
_atom_site_fract_x
_atom_site_fract_y
_atom_site_fract_z
Cl1 Cl 0.02466(6) 0.72905(5) 0.00918(4)
O2 O 0.52440(16) 0.78777(10) 0.18542(9)
N1 N 0.02117(19) 0.63647(13) 0.11029(10)
N3 N 0.77214(18) 0.78561(11) 0.16294(9)
H1 H 0.8464 0.7477 0.1471
C1 C 0.7308(3) 0.09661(16) 0.07995(14)
H3 H 0.7280 0.0219 0.0628
H4 H 0.7513 0.1246 0.1373
H5 H 0.8152 0.1247 0.0617
C3 C 0.5737(2) 0.12527(14) 0.04621(12)
H9 H 0.4896 0.0938 0.0634
H10 H 0.5538 0.0949 -0.0116
C6 C 0.6734(2) 0.31419(14) 0.12215(11)
H13 H 0.7670 0.2949 0.1476
C8 C 0.6532(2) 0.41719(14) 0.13952(11)
H15 H 0.7325 0.4673 0.1770
C10 C 0.5176(2) 0.44817(13) 0.10249(10)
C12 C 0.4009(2) 0.37202(14) 0.04974(10)
H17 H 0.3060 0.3910 0.0253
C14 C 0.5588(2) 0.23849(14) 0.06803(11)
C15 C 0.4217(2) 0.26996(14) 0.03279(11)
H19 H 0.3412 0.2198 -0.0036
C17 C 0.4982(2) 0.55838(13) 0.11842(10)
C19 C 0.3330(2) 0.58674(13) 0.11541(10)
C21 C 0.2666(2) 0.64025(14) 0.06768(11)
H21 H 0.3254 0.6612 0.0360
C24 C 0.1124(2) 0.66171(14) 0.06802(12)
C25 C 0.0859(2) 0.58321(16) 0.15492(13)
H23 H 0.0237 0.5632 0.1857
C27 C 0.2381(2) 0.55611(15) 0.15839(11)
H25 H 0.2778 0.5169 0.1898
C29 C 0.6249(2) 0.62625(13) 0.13409(11)
H27 H 0.7215 0.5986 0.1263
C32 C 0.6317(2) 0.73979(14) 0.16224(11)
C33 C 0.8038(2) 0.89672(14) 0.18932(11)
H29 H 0.7083 0.9253 0.1696
H30 H 0.8907 0.9149 0.1667
C36 C 0.8495(3) 0.94489(15) 0.27820(12)
H35 H 0.7711 0.9176 0.3010
H36 H 0.9539 0.9247 0.2970
C38 C 0.8581(2) 1.06052(15) 0.30730(12)
C40 C 0.9447(3) 1.11876(16) 0.27741(13)
H38 H 1.0035 1.0857 0.2396
C41 C 0.9468(3) 1.22440(17) 0.30182(14)
H39 H 1.0031 1.2625 0.2791
C44 C 0.8679(3) 1.27397(17) 0.35861(14)
H42 H 0.8710 1.3464 0.3761
C45 C 0.7839(3) 1.21767(19) 0.39018(15)
H43 H 0.7302 1.2516 0.4301
C48 C 0.7775(3) 1.11137(18) 0.36389(13)
H46 H 0.7170 1.0733 0.3851
Cl2 Cl 0.73422(6) 0.52739(5) 0.48629(3)
O1 O 1.08231(16) 0.46231(10) 0.30540(9)
N2 N 0.65647(18) 0.60761(13) 0.37776(9)
N4 N 1.34933(19) 0.46699(12) 0.33883(10)
H2 H 1.4398 0.5062 0.3593
C2 C 1.4359(4) 1.1657(3) 0.4872(2)
H6 H 1.4625 1.2377 0.4942
H7 H 1.5284 1.1285 0.4788
H8 H 1.4042 1.1609 0.5341
C4 C 1.3069(4) 1.1214(2) 0.4201(2)
H11 H 1.3376 1.1281 0.3730
H12 H 1.2133 1.1589 0.4286
C5 C 1.2639(3) 1.00768(19) 0.40662(17)
C7 C 1.3109(3) 0.93052(19) 0.34880(17)
H14 H 1.3731 0.9478 0.3169
C9 C 1.2692(3) 0.82855(17) 0.33643(14)
H16 H 1.3036 0.7770 0.2965
C11 C 1.1766(2) 0.80048(15) 0.38222(12)
C13 C 1.1282(2) 0.87795(15) 0.44021(13)
H18 H 1.0633 0.8611 0.4712
C16 C 1.1743(3) 0.97987(17) 0.45308(16)
H20 H 1.1442 1.0317 0.4944
C18 C 1.1341(2) 0.69126(14) 0.37030(11)
C20 C 0.9689(2) 0.66181(13) 0.37361(11)
C22 C 0.9369(2) 0.61146(14) 0.42341(11)
H22 H 1.0200 0.5938 0.4568
C23 C 0.7804(2) 0.58783(14) 0.42287(11)
C26 C 0.6892(2) 0.65802(17) 0.33109(12)
H24 H 0.6032 0.6742 0.2983
C28 C 0.8407(2) 0.68766(15) 0.32808(11)
H26 H 0.8576 0.7253 0.2953
C30 C 1.2418(2) 0.62470(14) 0.35690(11)
H28 H 1.3475 0.6530 0.3641
C31 C 1.2141(2) 0.51135(14) 0.33196(11)
C34 C 1.3509(2) 0.35665(15) 0.31357(12)
H31 H 1.2647 0.3264 0.3303
H32 H 1.4526 0.3403 0.3393
C35 C 1.3298(3) 0.30882(15) 0.22444(12)
H33 H 1.2339 0.3315 0.1989
H34 H 1.4217 0.3343 0.2087
C37 C 1.3148(2) 0.19341(15) 0.19525(11)
C39 C 1.4310(3) 0.14021(16) 0.22391(13)
H37 H 1.5228 0.1770 0.2615
C42 C 1.4133(3) 0.03427(17) 0.19788(14)
H40 H 1.4924 -0.0008 0.2186
C43 C 1.2826(3) -0.02081(17) 0.14247(14)
H41 H 1.2712 -0.0934 0.1251
C46 C 1.1683(3) 0.03072(18) 0.11245(14)
H44 H 1.0785 -0.0065 0.0735
C47 C 1.1846(3) 0.13692(17) 0.13910(13)
H45 H 1.1047 0.1715 0.1184
loop_
_geom_bond_atom_site_label_1
_geom_bond_atom_site_label_2
_geom_bond_site_symmetry_1
_geom_bond_site_symmetry_2
Cl1 C24 1_555 1_555
Cl2 C23 1_555 1_555
O1 C31 1_555 1_555
O2 C32 1_555 1_555
N1 C24 1_555 1_555
N2 C23 1_555 1_555
N3 H1 1_555 1_555
N4 H2 1_555 1_555
C1 H3 1_555 1_555
H4 C1 1_555 1_555
H5 C1 1_555 1_555
C2 H6 1_555 1_555
H7 C2 1_555 1_555
H8 C2 1_555 1_555
C3 C1 1_555 1_555
H9 C3 1_555 1_555
H10 C3 1_555 1_555
C4 C2 1_555 1_555
H11 C4 1_555 1_555
H12 C4 1_555 1_555
C5 C4 1_555 1_555
C6 H13 1_555 1_555
C7 C5 1_555 1_555
H14 C7 1_555 1_555
C8 C6 1_555 1_555
H15 C8 1_555 1_555
C9 C7 1_555 1_555
H16 C9 1_555 1_555
C10 C8 1_555 1_555
C11 C9 1_555 1_555
C12 C10 1_555 1_555
H17 C12 1_555 1_555
C13 C11 1_555 1_555
H18 C13 1_555 1_555
C14 C3 1_555 1_555
C15 C12 1_555 1_555
H19 C15 1_555 1_555
C16 C5 1_555 1_555
H20 C16 1_555 1_555
C17 C10 1_555 1_555
C18 C11 1_555 1_555
C19 C17 1_555 1_555
C20 C18 1_555 1_555
C21 C19 1_555 1_555
H21 C21 1_555 1_555
C22 C20 1_555 1_555
H22 C22 1_555 1_555
C23 C22 1_555 1_555
C24 C21 1_555 1_555
C25 N1 1_555 1_555
H23 C25 1_555 1_555
C26 N2 1_555 1_555
H24 C26 1_555 1_555
C27 C19 1_555 1_555
H25 C27 1_555 1_555
C28 C20 1_555 1_555
H26 C28 1_555 1_555
C29 C17 1_555 1_555
H27 C29 1_555 1_555
C30 C18 1_555 1_555
H28 C30 1_555 1_555
C31 N4 1_555 1_555
C32 N3 1_555 1_555
C33 N3 1_555 1_555
H29 C33 1_555 1_555
H30 C33 1_555 1_555
C34 N4 1_555 1_555
H31 C34 1_555 1_555
H32 C34 1_555 1_555
C35 C34 1_555 1_555
H33 C35 1_555 1_555
H34 C35 1_555 1_555
C36 C33 1_555 1_555
H35 C36 1_555 1_555
H36 C36 1_555 1_555
C37 C35 1_555 1_555
C38 C36 1_555 1_555
C39 C37 1_555 1_555
H37 C39 1_555 1_555
C40 C38 1_555 1_555
H38 C40 1_555 1_555
C41 C40 1_555 1_555
H39 C41 1_555 1_555
C42 C39 1_555 1_555
H40 C42 1_555 1_555
C43 C42 1_555 1_555
H41 C43 1_555 1_555
C44 C41 1_555 1_555
H42 C44 1_555 1_555
C45 C44 1_555 1_555
H43 C45 1_555 1_555
C46 C43 1_555 1_555
H44 C46 1_555 1_555
C47 C37 1_555 1_555
H45 C47 1_555 1_555
C48 C38 1_555 1_555
H46 C48 1_555 1_555
C6 C14 1_555 1_555
C13 C16 1_555 1_555
C14 C15 1_555 1_555
C25 C27 1_555 1_555
C26 C28 1_555 1_555
C29 C32 1_555 1_555
C30 C31 1_555 1_555
C45 C48 1_555 1_555
C46 C47 1_555 1_555

#END
