
#######################################################################
#
#                 Cambridge Crystallographic Data Centre
#                                CCDC 
#
#######################################################################
#
# If this CIF has been generated from an entry in the Cambridge 
# Structural Database, then it will include bibliographic, chemical, 
# crystal, experimental, refinement or atomic coordinate data resulting 
# from the CCDC's data processing and validation procedures.
#
#######################################################################

data_NATBUF
_chemical_formula_moiety         'C16 H24 O1 P1 1+,C1 F3 O3 S1 1-'
_chemical_name_systematic        
'9-(1-Hydroxyethyl)-9-phenyl-9-phosphoniabicyclo(3.3.1)nonane trifluoromethanesulfonate'
_symmetry_cell_setting           orthorhombic
_symmetry_space_group_name_H-M   'P b c n'
_symmetry_Int_Tables_number      60
_space_group_name_Hall           '-P 2n 2ab'
loop_
_symmetry_equiv_pos_site_id
_symmetry_equiv_pos_as_xyz
1 x,y,z
2 1/2-x,1/2-y,1/2+z
3 1/2+x,1/2-y,-z
4 -x,y,1/2-z
5 -x,-y,-z
6 1/2+x,1/2+y,1/2-z
7 1/2-x,1/2+y,z
8 x,-y,1/2+z
_cell_length_a                   14.052(4)
_cell_length_b                   10.705(6)
_cell_length_c                   25.026(9)
_cell_angle_alpha                90
_cell_angle_beta                 90
_cell_angle_gamma                90
_cell_volume                     3764.58
_exptl_crystal_colour            white
_chemical_melting_point          'sublimes at 215deg.C'
_cell_formula_units_Z            8
loop_
_atom_site_label
_atom_site_type_symbol
_atom_site_fract_x
_atom_site_fract_y
_atom_site_fract_z
P1 P 0.1188(1) 0.1599(1) 0.1147(1)
O4 O 0.1673(2) -0.0576(3) 0.0708(1)
C2 C 0.1883(5) 0.1227(5) 0.1721(2)
C3 C 0.2716(4) 0.1893(5) 0.1839(2)
C4 C 0.3262(5) 0.1585(6) 0.2282(3)
C5 C 0.2968(6) 0.0601(6) 0.2616(3)
C6 C 0.2163(5) -0.0075(5) 0.2506(2)
C7 C 0.1628(4) 0.0239(5) 0.2059(2)
C8 C -0.0053(4) 0.1294(5) 0.1237(2)
C9 C -0.0555(4) 0.1627(4) 0.0709(2)
C10 C -0.0452(4) 0.2966(4) 0.0508(2)
C11 C 0.0558(4) 0.3485(4) 0.0521(2)
C12 C 0.1679(4) 0.0726(5) 0.0575(2)
C13 C 0.2701(4) 0.1094(4) 0.0457(2)
C14 C -0.0251(4) 0.3446(5) 0.1707(2)
C15 C -0.0399(4) 0.2015(5) 0.1727(2)
C16 C 0.1150(4) 0.3265(4) 0.1049(2)
C17 C 0.0742(4) 0.3866(4) 0.1546(2)
H1 H 0.1127(2) -0.0798(3) 0.0774(1)
H2 H 0.2905(4) 0.2547(5) 0.1619(2)
H3 H 0.3817(5) 0.2025(6) 0.2357(3)
H4 H 0.3326(6) 0.0405(6) 0.2918(3)
H5 H 0.1979(5) -0.0732(5) 0.2726(2)
H6 H 0.1083(4) -0.0220(5) 0.1983(2)
H7 H -0.0017(4) 0.0399(5) 0.1304(2)
H8 H -0.0316(4) 0.1071(4) 0.0434(2)
H9 H -0.1228(4) 0.1452(4) 0.0751(2)
H10 H -0.0684(4) 0.3004(4) 0.0143(2)
H11 H -0.0856(4) 0.3502(4) 0.0723(2)
H12 H 0.0524(4) 0.4378(4) 0.0457(2)
H13 H 0.0908(4) 0.3121(4) 0.0225(2)
H14 H 0.1284(4) 0.0869(5) 0.0258(2)
H15 H 0.2735(5) 0.1979(6) 0.0398(12)
H16 H 0.2917(8) 0.0662(21) 0.0144(7)
H17 H 0.3097(5) 0.0874(25) 0.0755(5)
H18 H -0.0705(4) 0.3798(5) 0.1457(2)
H19 H -0.0393(4) 0.3788(5) 0.2057(2)
H20 H -0.0072(4) 0.1692(5) 0.2039(2)
H21 H -0.1073(4) 0.1851(5) 0.1774(2)
H22 H 0.1800(4) 0.3573(4) 0.0994(2)
H23 H 0.0730(4) 0.4763(4) 0.1492(2)
H24 H 0.1171(4) 0.3701(4) 0.1841(2)
S1 S 0.4520(1) 0.2635(1) 0.3891(1)
F1 F 0.3062(3) 0.4150(4) 0.3939(2)
F2 F 0.2913(2) 0.2509(3) 0.4407(1)
F3 F 0.2757(2) 0.2434(4) 0.3560(1)
O1 O 0.4759(3) 0.3152(4) 0.3380(2)
O2 O 0.4594(3) 0.1333(3) 0.3954(2)
O3 O 0.4902(3) 0.3357(3) 0.4328(2)
C1 C 0.3254(5) 0.2908(6) 0.3947(3)
loop_
_geom_bond_atom_site_label_1
_geom_bond_atom_site_label_2
_geom_bond_site_symmetry_1
_geom_bond_site_symmetry_2
P1 C2 1_555 1_555
S1 O1 1_555 1_555
F1 C1 1_555 1_555
F2 C1 1_555 1_555
F3 C1 1_555 1_555
O2 S1 1_555 1_555
O3 S1 1_555 1_555
O4 C12 1_555 1_555
C1 S1 1_555 1_555
C2 C3 1_555 1_555
C3 C4 1_555 1_555
C4 C5 1_555 1_555
C5 C6 1_555 1_555
C6 C7 1_555 1_555
C7 C2 1_555 1_555
C8 P1 1_555 1_555
C9 C8 1_555 1_555
C10 C9 1_555 1_555
C11 C10 1_555 1_555
C12 P1 1_555 1_555
C13 C12 1_555 1_555
C14 C15 1_555 1_555
C15 C8 1_555 1_555
C16 P1 1_555 1_555
C17 C14 1_555 1_555
H1 O4 1_555 1_555
H2 C3 1_555 1_555
H3 C4 1_555 1_555
H4 C5 1_555 1_555
H5 C6 1_555 1_555
H6 C7 1_555 1_555
H7 C8 1_555 1_555
H8 C9 1_555 1_555
H9 C9 1_555 1_555
H10 C10 1_555 1_555
H11 C10 1_555 1_555
H12 C11 1_555 1_555
H13 C11 1_555 1_555
H14 C12 1_555 1_555
H15 C13 1_555 1_555
H16 C13 1_555 1_555
H17 C13 1_555 1_555
H18 C14 1_555 1_555
H19 C14 1_555 1_555
H20 C15 1_555 1_555
H21 C15 1_555 1_555
H22 C16 1_555 1_555
H23 C17 1_555 1_555
H24 C17 1_555 1_555
C11 C16 1_555 1_555
C16 C17 1_555 1_555

#END
