
#######################################################################
#
#                 Cambridge Crystallographic Data Centre
#                                CCDC 
#
#######################################################################
#
# If this CIF has been generated from an entry in the Cambridge 
# Structural Database, then it will include bibliographic, chemical, 
# crystal, experimental, refinement or atomic coordinate data resulting 
# from the CCDC's data processing and validation procedures.
#
#######################################################################

data_NATDOC
_chemical_formula_moiety         'C20 H20 N2 O4'
_chemical_name_systematic        3,6-bis(4-Methoxybenzyloxy)pyridazine
_symmetry_cell_setting           monoclinic
_symmetry_space_group_name_H-M   'C 2/c'
_symmetry_Int_Tables_number      15
_space_group_name_Hall           '-C 2yn'
loop_
_symmetry_equiv_pos_site_id
_symmetry_equiv_pos_as_xyz
1 x,y,z
2 1/2+x,1/2+y,z
3 -x,y,1/2-z
4 1/2-x,1/2+y,1/2-z
5 -x,-y,-z
6 1/2-x,1/2-y,-z
7 x,-y,1/2+z
8 1/2+x,1/2-y,1/2+z
_cell_length_a                   33.126(9)
_cell_length_b                   5.7499(15)
_cell_length_c                   9.258(3)
_cell_angle_alpha                90
_cell_angle_beta                 90.305(5)
_cell_angle_gamma                90
_cell_volume                     1763.36
_exptl_crystal_colour            colorless
_exptl_crystal_description       prism
_cell_formula_units_Z            4
loop_
_atom_site_label
_atom_site_type_symbol
_atom_site_fract_x
_atom_site_fract_y
_atom_site_fract_z
N1 N 0.01578(4) 0.3557(2) 0.29869(15)
O1 O 0.06104(4) 0.15148(18) 0.43833(13)
O2 O 0.21161(4) 0.2162(2) 0.85610(14)
C1 C 0.01515(5) -0.0621(3) 0.29854(18)
H1 H 0.0259 -0.2001 0.3343
C2 C 0.02988(5) 0.1561(3) 0.34379(18)
C3 C 0.07675(5) 0.3697(3) 0.4887(2)
H2 H 0.0561 0.4539 0.5410
H3 H 0.0852 0.4641 0.4075
C4 C 0.11205(5) 0.3210(3) 0.58619(17)
C5 C 0.11504(5) 0.1196(3) 0.6676(2)
H4 H 0.0946 0.0091 0.6607
C6 C 0.14746(5) 0.0774(3) 0.75892(18)
H5 H 0.1488 -0.0597 0.8120
C7 C 0.17786(5) 0.2410(3) 0.77051(17)
C8 C 0.17540(5) 0.4431(3) 0.69093(19)
H6 H 0.1958 0.5537 0.6983
C9 C 0.14294(5) 0.4823(3) 0.60046(18)
H7 H 0.1417 0.6200 0.5478
C10 C 0.21633(6) 0.0067(4) 0.9345(2)
H8 H 0.1928 -0.0197 0.9924
H9 H 0.2397 0.0179 0.9959
H10 H 0.2197 -0.1203 0.8683
N1B N -0.01578(4) 0.3557(2) 0.20131(15)
O1B O -0.06104(4) 0.15148(18) 0.06167(13)
O2B O -0.21161(4) 0.2162(2) -0.35610(14)
C1B C -0.01515(5) -0.0621(3) 0.20146(18)
H1B H -0.0259 -0.2001 0.1657
C2B C -0.02988(5) 0.1561(3) 0.15621(18)
C3B C -0.07675(5) 0.3697(3) 0.0113(2)
H2B H -0.0561 0.4539 -0.0410
H3B H -0.0852 0.4641 0.0925
C4B C -0.11205(5) 0.3210(3) -0.08619(17)
C5B C -0.11504(5) 0.1196(3) -0.1676(2)
H4B H -0.0946 0.0091 -0.1607
C6B C -0.14746(5) 0.0774(3) -0.25892(18)
H5B H -0.1488 -0.0597 -0.3120
C7B C -0.17786(5) 0.2410(3) -0.27051(17)
C8B C -0.17540(5) 0.4431(3) -0.19093(19)
H6B H -0.1958 0.5537 -0.1983
C9B C -0.14294(5) 0.4823(3) -0.10046(18)
H7B H -0.1417 0.6200 -0.0478
C10B C -0.21633(6) 0.0067(4) -0.4345(2)
H8B H -0.1928 -0.0197 -0.4924
H9B H -0.2397 0.0179 -0.4959
H10B H -0.2197 -0.1203 -0.3683
loop_
_geom_bond_atom_site_label_1
_geom_bond_atom_site_label_2
_geom_bond_site_symmetry_1
_geom_bond_site_symmetry_2
N1 C2 1_555 1_555
O1 C2 1_555 1_555
O2 C7 1_555 1_555
C1 H1 1_555 1_555
C2 C1 1_555 1_555
C3 O1 1_555 1_555
H2 C3 1_555 1_555
H3 C3 1_555 1_555
C4 C3 1_555 1_555
C5 C4 1_555 1_555
H4 C5 1_555 1_555
C6 C5 1_555 1_555
H5 C6 1_555 1_555
C7 C6 1_555 1_555
C8 C7 1_555 1_555
H6 C8 1_555 1_555
C9 C4 1_555 1_555
H7 C9 1_555 1_555
C10 O2 1_555 1_555
H8 C10 1_555 1_555
H9 C10 1_555 1_555
H10 C10 1_555 1_555
N1B N1 1_555 1_555
O1B C2B 1_555 1_555
O2B C7B 1_555 1_555
C1B C1 1_555 1_555
H1B C1B 1_555 1_555
C2B N1B 1_555 1_555
C3B O1B 1_555 1_555
H2B C3B 1_555 1_555
H3B C3B 1_555 1_555
C4B C3B 1_555 1_555
C5B C4B 1_555 1_555
H4B C5B 1_555 1_555
C6B C5B 1_555 1_555
H5B C6B 1_555 1_555
C7B C6B 1_555 1_555
C8B C7B 1_555 1_555
H6B C8B 1_555 1_555
C9B C4B 1_555 1_555
H7B C9B 1_555 1_555
C10B O2B 1_555 1_555
H8B C10B 1_555 1_555
H9B C10B 1_555 1_555
H10B C10B 1_555 1_555
C8 C9 1_555 1_555
C1B C2B 1_555 1_555
C8B C9B 1_555 1_555

#END
