
#######################################################################
#
#                 Cambridge Crystallographic Data Centre
#                                CCDC 
#
#######################################################################
#
# If this CIF has been generated from an entry in the Cambridge 
# Structural Database, then it will include bibliographic, chemical, 
# crystal, experimental, refinement or atomic coordinate data resulting 
# from the CCDC's data processing and validation procedures.
#
#######################################################################

data_NATHOG
_chemical_formula_moiety         'C7 H7 N5 O3 S1'
_chemical_name_systematic        
'5-Azido-3,3-dimethyl-2-oxa-1-thia-4,6-diazaindan 1,1-dioxide'
_symmetry_cell_setting           monoclinic
_symmetry_space_group_name_H-M   'C 2/c'
_symmetry_Int_Tables_number      15
_space_group_name_Hall           '-C 2yn'
loop_
_symmetry_equiv_pos_site_id
_symmetry_equiv_pos_as_xyz
1 x,y,z
2 1/2+x,1/2+y,z
3 -x,y,1/2-z
4 1/2-x,1/2+y,1/2-z
5 -x,-y,-z
6 1/2-x,1/2-y,-z
7 x,-y,1/2+z
8 1/2+x,1/2-y,1/2+z
_cell_length_a                   14.4162(16)
_cell_length_b                   8.5691(10)
_cell_length_c                   17.0016(19)
_cell_angle_alpha                90
_cell_angle_beta                 105.3650(10)
_cell_angle_gamma                90
_cell_volume                     2025.2
_exptl_crystal_colour            colorless
_exptl_crystal_description       Block
_chemical_melting_point          '161 deg.C'
_cell_formula_units_Z            8
_exptl_crystal_recrystallization_method 'ethyl acetate/cyclohexane'
loop_
_atom_site_label
_atom_site_type_symbol
_atom_site_fract_x
_atom_site_fract_y
_atom_site_fract_z
S1 S 0.17681(3) 0.18013(5) 0.19388(2)
O1 O 0.17061(10) 0.05324(17) 0.13946(8)
O2 O 0.15377(10) 0.33066(16) 0.15990(8)
O3 O 0.11307(9) 0.13929(18) 0.25320(7)
N1 N 0.44807(10) 0.19697(16) 0.33826(8)
N2 N 0.33040(10) 0.18719(16) 0.41569(8)
N3 N 0.49018(11) 0.1923(2) 0.48175(9)
N4 N 0.57431(11) 0.18141(18) 0.47431(9)
N5 N 0.65144(12) 0.1704(2) 0.47631(11)
C1 C 0.13207(14) 0.0420(2) 0.38901(13)
H1 H 0.0634 0.0326 0.3772
H2 H 0.1583 0.0611 0.4462
H3 H 0.1585 -0.0529 0.3742
C2 C 0.12069(13) 0.3315(2) 0.36141(13)
H4 H 0.1351 0.4105 0.3264
H5 H 0.1513 0.3572 0.4172
H6 H 0.0524 0.3259 0.3537
C3 C 0.15726(12) 0.1760(2) 0.34090(10)
C4 C 0.26360(11) 0.18306(18) 0.34584(10)
C5 C 0.42007(11) 0.19209(19) 0.40737(10)
C6 C 0.37854(12) 0.19444(19) 0.26910(10)
H7 H 0.3939 0.1986 0.2194
C7 C 0.28357(11) 0.18562(18) 0.27084(9)
loop_
_geom_bond_atom_site_label_1
_geom_bond_atom_site_label_2
_geom_bond_site_symmetry_1
_geom_bond_site_symmetry_2
S1 O1 1_555 1_555
O2 S1 1_555 1_555
O3 S1 1_555 1_555
N1 C5 1_555 1_555
N2 C4 1_555 1_555
N3 N4 1_555 1_555
N4 N5 1_555 1_555
C1 H1 1_555 1_555
H2 C1 1_555 1_555
H3 C1 1_555 1_555
C2 H4 1_555 1_555
H5 C2 1_555 1_555
H6 C2 1_555 1_555
C3 O3 1_555 1_555
C4 C3 1_555 1_555
C5 N2 1_555 1_555
C6 N1 1_555 1_555
H7 C6 1_555 1_555
C7 S1 1_555 1_555
N3 C5 1_555 1_555
C1 C3 1_555 1_555
C2 C3 1_555 1_555
C4 C7 1_555 1_555
C6 C7 1_555 1_555

#END
