
#######################################################################
#
#                 Cambridge Crystallographic Data Centre
#                                CCDC 
#
#######################################################################
#
# If this CIF has been generated from an entry in the Cambridge 
# Structural Database, then it will include bibliographic, chemical, 
# crystal, experimental, refinement or atomic coordinate data resulting 
# from the CCDC's data processing and validation procedures.
#
#######################################################################

data_NATJEY
_chemical_formula_moiety         'C21 H25 N1 O5 S1'
_chemical_name_systematic        
cis-1-(3'-N,N-Dimethylthiocarbamoyl-4'-methoxy)-2-(3'',4'',5''-trimethoxyphenyl)ethane
_symmetry_cell_setting           monoclinic
_symmetry_space_group_name_H-M   'C 2/c'
_symmetry_Int_Tables_number      15
_space_group_name_Hall           '-C 2yn'
loop_
_symmetry_equiv_pos_site_id
_symmetry_equiv_pos_as_xyz
1 x,y,z
2 1/2+x,1/2+y,z
3 -x,y,1/2-z
4 1/2-x,1/2+y,1/2-z
5 -x,-y,-z
6 1/2-x,1/2-y,-z
7 x,-y,1/2+z
8 1/2+x,1/2-y,1/2+z
_cell_length_a                   21.468(5)
_cell_length_b                   7.9323(13)
_cell_length_c                   23.949(3)
_cell_angle_alpha                90
_cell_angle_beta                 100.752(14)
_cell_angle_gamma                90
_cell_volume                     4006.69
_exptl_crystal_colour            colorless
_exptl_crystal_description       block
_cell_formula_units_Z            8
_exptl_crystal_recrystallization_method methanol
loop_
_atom_site_label
_atom_site_type_symbol
_atom_site_fract_x
_atom_site_fract_y
_atom_site_fract_z
S1 S 0.07132(3) 0.81577(9) 0.49058(3)
O1 O 0.09939(9) 0.5702(2) 0.42384(7)
O2 O 0.19217(8) 0.8711(2) 0.45104(8)
O3 O -0.10455(9) 0.6049(2) 0.25538(8)
O4 O -0.19237(9) 0.5613(2) 0.32240(7)
O5 O -0.22709(9) 0.8146(3) 0.38183(8)
N1 N 0.08564(10) 0.4880(3) 0.51164(9)
C1 C 0.08777(11) 0.6021(3) 0.47035(11)
C2 C 0.10205(13) 0.3128(3) 0.50201(12)
H1 H 0.1109 0.3014 0.4643
H2 H 0.0672 0.2409 0.5061
H3 H 0.1388 0.2811 0.5293
C3 C 0.07245(13) 0.5297(4) 0.56762(11)
H4 H 0.0734 0.4288 0.5899
H5 H 0.0313 0.5808 0.5635
H6 H 0.1040 0.6070 0.5863
C4 C 0.08244(12) 0.9282(3) 0.42931(10)
C5 C 0.03117(12) 1.0126(3) 0.39788(10)
H10 H -0.0091 0.9931 0.4056
C6 C 0.03823(12) 1.1262(3) 0.35498(10)
C7 C 0.09918(12) 1.1495(3) 0.34419(11)
H11 H 0.1053 1.2252 0.3160
C8 C 0.15100(12) 1.0636(3) 0.37405(11)
H12 H 0.1909 1.0794 0.3650
C9 C 0.14337(12) 0.9537(3) 0.41746(10)
C10 C 0.25486(13) 0.9061(4) 0.44159(13)
H13 H 0.2850 0.8409 0.4675
H14 H 0.2639 1.0239 0.4477
H15 H 0.2577 0.8770 0.4032
C11 C -0.01441(12) 1.2334(3) 0.32654(11)
H16 H -0.0031 1.3406 0.3163
C12 C -0.07602(12) 1.1972(3) 0.31362(10)
H17 H -0.1033 1.2861 0.3011
C13 C -0.10539(12) 1.0298(3) 0.31727(10)
C14 C -0.08870(12) 0.8971(3) 0.28547(10)
H18 H -0.0580 0.9129 0.2633
C15 C -0.11765(12) 0.7402(3) 0.28654(10)
C16 C -0.16357(11) 0.7160(3) 0.32000(10)
C17 C -0.18032(12) 0.8497(3) 0.35166(10)
C18 C -0.15161(12) 1.0061(3) 0.35041(11)
H19 H -0.1632 1.0950 0.3716
C19 C -0.08510(16) 0.6400(4) 0.20266(12)
H20 H -0.0772 0.5360 0.1847
H21 H -0.0470 0.7064 0.2096
H22 H -0.1180 0.7012 0.1783
C20 C -0.23837(15) 0.5229(4) 0.27263(12)
H26 H -0.2566 0.4142 0.2769
H27 H -0.2182 0.5218 0.2400
H28 H -0.2711 0.6069 0.2675
C21 C -0.25118(15) 0.9515(4) 0.40998(14)
H29 H -0.2834 0.9110 0.4295
H30 H -0.2690 1.0348 0.3825
H31 H -0.2174 1.0009 0.4369
H7? H 0.0657 0.6490 0.5699
H8? H 0.1078 0.4969 0.5963
H9? H 0.0351 0.4708 0.5734
H23? H -0.0843 0.7597 0.1970
H24? H -0.1144 0.5893 0.1721
H25? H -0.0435 0.5945 0.2034
loop_
_geom_bond_atom_site_label_1
_geom_bond_atom_site_label_2
_geom_bond_site_symmetry_1
_geom_bond_site_symmetry_2
S1 C1 1_555 1_555
O1 C1 1_555 1_555
O2 C9 1_555 1_555
O3 C15 1_555 1_555
O4 C16 1_555 1_555
O5 C17 1_555 1_555
N1 C1 1_555 1_555
C2 N1 1_555 1_555
H1 C2 1_555 1_555
H2 C2 1_555 1_555
H3 C2 1_555 1_555
C3 N1 1_555 1_555
H4 C3 1_555 1_555
H5 C3 1_555 1_555
H6 C3 1_555 1_555
C4 S1 1_555 1_555
C5 C4 1_555 1_555
H10 C5 1_555 1_555
C6 C5 1_555 1_555
C7 C6 1_555 1_555
H11 C7 1_555 1_555
C8 C7 1_555 1_555
H12 C8 1_555 1_555
C9 C4 1_555 1_555
C10 O2 1_555 1_555
H13 C10 1_555 1_555
H14 C10 1_555 1_555
H15 C10 1_555 1_555
C11 C6 1_555 1_555
H16 C11 1_555 1_555
C12 C11 1_555 1_555
H17 C12 1_555 1_555
C13 C12 1_555 1_555
C14 C13 1_555 1_555
H18 C14 1_555 1_555
C15 C14 1_555 1_555
C16 C15 1_555 1_555
C17 C16 1_555 1_555
C18 C13 1_555 1_555
H19 C18 1_555 1_555
C19 O3 1_555 1_555
H20 C19 1_555 1_555
H21 C19 1_555 1_555
H22 C19 1_555 1_555
C20 O4 1_555 1_555
H26 C20 1_555 1_555
H27 C20 1_555 1_555
H28 C20 1_555 1_555
C21 O5 1_555 1_555
H29 C21 1_555 1_555
H30 C21 1_555 1_555
H31 C21 1_555 1_555
C8 C9 1_555 1_555
C17 C18 1_555 1_555

#END
