
#######################################################################
#
#                 Cambridge Crystallographic Data Centre
#                                CCDC 
#
#######################################################################
#
# If this CIF has been generated from an entry in the Cambridge 
# Structural Database, then it will include bibliographic, chemical, 
# crystal, experimental, refinement or atomic coordinate data resulting 
# from the CCDC's data processing and validation procedures.
#
#######################################################################

data_NATJAW
_chemical_formula_moiety         'C24 H26 O5'
_chemical_name_systematic        
'methyl 4-[(acetyloxy)methyl]-5,5-diphenyl-2-(propan-2-yl)-4,5-dihydrofuran-3-carboxylate'
_symmetry_cell_setting           monoclinic
_symmetry_space_group_name_H-M   'P 21/c'
_symmetry_Int_Tables_number      14
_space_group_name_Hall           '-P 2ybc'
loop_
_symmetry_equiv_pos_site_id
_symmetry_equiv_pos_as_xyz
1 x,y,z
2 -x,1/2+y,1/2-z
3 -x,-y,-z
4 x,1/2-y,1/2+z
_cell_length_a                   12.4334(5)
_cell_length_b                   10.2160(4)
_cell_length_c                   16.6743(7)
_cell_angle_alpha                90
_cell_angle_beta                 99.832(4)
_cell_angle_gamma                90
_cell_volume                     2086.86
_exptl_crystal_colour            colorless
_exptl_crystal_description       block
_chemical_melting_point          '381-383 K'
_cell_formula_units_Z            4
_exptl_crystal_recrystallization_method 'petroleum ether/ethyl acetate'
loop_
_atom_site_label
_atom_site_type_symbol
_atom_site_fract_x
_atom_site_fract_y
_atom_site_fract_z
O1 O 1.07243(13) 0.31321(17) 0.12505(11)
O2 O 1.01157(12) 0.11290(15) 0.08694(9)
O3 O 0.71819(10) 0.24646(13) 0.15711(8)
O4 O 0.88592(12) 0.32599(16) 0.31002(9)
O5 O 1.05076(17) 0.2362(2) 0.34195(16)
C1 C 0.80587(16) 0.1803(2) 0.13849(11)
C2 C 0.89284(16) 0.25816(19) 0.13848(12)
C3 C 0.86705(16) 0.39236(19) 0.16765(12)
H1 H 0.8913 0.4584 0.1320
C4 C 0.74057(16) 0.38703(19) 0.15143(12)
C5 C 0.78603(17) 0.0369(2) 0.12619(14)
H2 H 0.8534 -0.0035 0.1150
C6 C 0.6958(2) 0.0110(3) 0.05350(18)
H3 H 0.6274 0.0415 0.0657
H4 H 0.6913 -0.0812 0.0425
H5 H 0.7121 0.0565 0.0067
C7 C 0.7582(2) -0.0243(2) 0.20367(17)
H6 H 0.8162 -0.0072 0.2483
H7 H 0.7494 -0.1171 0.1963
H8 H 0.6916 0.0129 0.2151
C8 C 1.00028(17) 0.2327(2) 0.11765(12)
C9 C 1.11480(19) 0.0876(3) 0.06184(16)
H9 H 1.1260 0.1496 0.0208
H10 H 1.1148 0.0005 0.0401
H11 H 1.1725 0.0957 0.1078
C10 C 0.92254(18) 0.4179(2) 0.25488(13)
H12 H 1.0010 0.4104 0.2585
H13 H 0.9063 0.5062 0.2704
C11 C 0.9575(2) 0.2421(2) 0.35060(15)
C12 C 0.9059(3) 0.1595(3) 0.40734(17)
H14 H 0.8541 0.2110 0.4303
H15 H 0.9612 0.1276 0.4502
H16 H 0.8692 0.0869 0.3781
C13 C 0.68315(16) 0.4571(2) 0.21254(12)
C14 C 0.68532(19) 0.5928(2) 0.21655(14)
H17 H 0.7229 0.6398 0.1823
C15 C 0.6322(2) 0.6589(2) 0.27093(15)
H18 H 0.6345 0.7499 0.2730
C16 C 0.5763(2) 0.5914(3) 0.32168(16)
H19 H 0.5396 0.6361 0.3575
C17 C 0.5751(2) 0.4568(3) 0.31907(15)
H20 H 0.5383 0.4102 0.3540
C18 C 0.62818(18) 0.3897(2) 0.26480(14)
H21 H 0.6267 0.2987 0.2637
C19 C 0.69479(16) 0.4287(2) 0.06356(12)
C20 C 0.60927(19) 0.3593(2) 0.01850(15)
H22 H 0.5795 0.2884 0.0420
C21 C 0.5678(2) 0.3938(3) -0.06052(16)
H23 H 0.5109 0.3456 -0.0899
C22 C 0.6096(2) 0.4986(3) -0.09639(16)
H24 H 0.5818 0.5210 -0.1500
C23 C 0.6927(2) 0.5699(3) -0.05244(16)
H25 H 0.7208 0.6420 -0.0760
C24 C 0.73528(19) 0.5352(2) 0.02706(14)
H26 H 0.7918 0.5842 0.0562
loop_
_geom_bond_atom_site_label_1
_geom_bond_atom_site_label_2
_geom_bond_site_symmetry_1
_geom_bond_site_symmetry_2
O1 C8 1_555 1_555
O2 C8 1_555 1_555
O3 C1 1_555 1_555
O4 C10 1_555 1_555
O5 C11 1_555 1_555
C1 C2 1_555 1_555
C2 C3 1_555 1_555
C3 H1 1_555 1_555
C4 O3 1_555 1_555
C5 C1 1_555 1_555
H2 C5 1_555 1_555
C6 C5 1_555 1_555
H3 C6 1_555 1_555
H4 C6 1_555 1_555
H5 C6 1_555 1_555
C7 C5 1_555 1_555
H6 C7 1_555 1_555
H7 C7 1_555 1_555
H8 C7 1_555 1_555
C8 C2 1_555 1_555
C9 O2 1_555 1_555
H9 C9 1_555 1_555
H10 C9 1_555 1_555
H11 C9 1_555 1_555
C10 C3 1_555 1_555
H12 C10 1_555 1_555
H13 C10 1_555 1_555
C11 O4 1_555 1_555
C12 C11 1_555 1_555
H14 C12 1_555 1_555
H15 C12 1_555 1_555
H16 C12 1_555 1_555
C13 C4 1_555 1_555
C14 C13 1_555 1_555
H17 C14 1_555 1_555
C15 C14 1_555 1_555
H18 C15 1_555 1_555
C16 C15 1_555 1_555
H19 C16 1_555 1_555
C17 C16 1_555 1_555
H20 C17 1_555 1_555
C18 C13 1_555 1_555
H21 C18 1_555 1_555
C19 C4 1_555 1_555
C20 C19 1_555 1_555
H22 C20 1_555 1_555
C21 C20 1_555 1_555
H23 C21 1_555 1_555
C22 C21 1_555 1_555
H24 C22 1_555 1_555
C23 C22 1_555 1_555
H25 C23 1_555 1_555
C24 C19 1_555 1_555
H26 C24 1_555 1_555
C3 C4 1_555 1_555
C17 C18 1_555 1_555
C23 C24 1_555 1_555

#END
