
#######################################################################
#
#                 Cambridge Crystallographic Data Centre
#                                CCDC 
#
#######################################################################
#
# If this CIF has been generated from an entry in the Cambridge 
# Structural Database, then it will include bibliographic, chemical, 
# crystal, experimental, refinement or atomic coordinate data resulting 
# from the CCDC's data processing and validation procedures.
#
#######################################################################

data_NATKEZ
_chemical_formula_moiety         'C33 H49 N1 O10'
_chemical_name_systematic        
2-Hydroxy-N-(2,3,4,6-tetra-O-pivaloyl-D-glucopyranosyl)benzylideneamine
_symmetry_cell_setting           orthorhombic
_symmetry_space_group_name_H-M   'P 21 21 21'
_symmetry_Int_Tables_number      19
_space_group_name_Hall           'P 2ac 2ab'
loop_
_symmetry_equiv_pos_site_id
_symmetry_equiv_pos_as_xyz
1 x,y,z
2 1/2+x,1/2-y,-z
3 -x,1/2+y,1/2-z
4 1/2-x,-y,1/2+z
_cell_length_a                   11.1929(2)
_cell_length_b                   11.2618(2)
_cell_length_c                   29.0955(6)
_cell_angle_alpha                90
_cell_angle_beta                 90
_cell_angle_gamma                90
_cell_volume                     3667.55
_exptl_crystal_colour            yellow
_exptl_crystal_description       chunk
_chemical_melting_point          195-197deg.C
_cell_formula_units_Z            4
loop_
_atom_site_label
_atom_site_type_symbol
_atom_site_fract_x
_atom_site_fract_y
_atom_site_fract_z
O1 O 0.4846(2) 0.4322(2) 0.32931(7)
O2 O 0.3418(3) 0.6298(2) 0.2070(1)
O3 O 0.7040(2) 0.4638(2) 0.23804(7)
O4 O 0.6681(4) 0.6524(3) 0.2189(1)
O5 O 0.8427(2) 0.5056(2) 0.31853(8)
O6 O 0.9585(3) 0.3452(3) 0.3137(1)
O7 O 0.7514(2) 0.3777(2) 0.39824(7)
O8 O 0.7972(3) 0.5459(2) 0.43475(9)
O9 O 0.4778(2) 0.5057(2) 0.42298(8)
O10 O 0.5279(4) 0.4570(3) 0.4936(1)
N1 N 0.4512(2) 0.4611(2) 0.25179(9)
C1 C 0.5345(3) 0.4146(3) 0.2851(1)
C2 C 0.6525(3) 0.4814(3) 0.2824(1)
C3 C 0.7380(3) 0.4335(3) 0.3181(1)
C4 C 0.6782(3) 0.4401(3) 0.3651(1)
C5 C 0.5562(3) 0.3779(3) 0.3639(1)
C6 C 0.4053(3) 0.3885(3) 0.2236(1)
C7 C 0.3256(3) 0.4235(3) 0.1870(1)
C8 C 0.2757(4) 0.3398(3) 0.1585(1)
C9 C 0.2014(4) 0.3700(4) 0.1229(2)
C10 C 0.1772(4) 0.4890(4) 0.1158(2)
C11 C 0.2228(4) 0.5729(3) 0.1440(2)
C12 C 0.2973(3) 0.5430(3) 0.1797(1)
C13 C 0.7049(3) 0.5572(3) 0.2084(1)
C14 C 0.7505(4) 0.5260(4) 0.1621(1)
C15 C 0.8665(9) 0.467(1) 0.1653(3)
C16 C 0.667(1) 0.445(1) 0.1402(3)
C17 C 0.772(1) 0.6301(7) 0.1346(3)
C18 C 0.9502(3) 0.4505(4) 0.3152(1)
C19 C 1.0532(4) 0.5376(4) 0.3135(2)
C20 C 1.0373(7) 0.6209(9) 0.2742(3)
C21 C 1.1675(5) 0.4721(8) 0.3123(4)
C22 C 1.0513(6) 0.6102(7) 0.3581(2)
C23 C 0.8039(3) 0.4403(3) 0.4316(1)
C24 C 0.8739(4) 0.3596(4) 0.4642(1)
C25 C 0.9733(5) 0.2969(5) 0.4375(2)
C26 C 0.9256(7) 0.4332(6) 0.5025(2)
C27 C 0.7896(5) 0.2637(5) 0.4829(2)
C28 C 0.4893(4) 0.3842(3) 0.4084(1)
C29 C 0.4978(4) 0.5321(4) 0.4666(1)
C30 C 0.4778(4) 0.6624(4) 0.4773(1)
C31 C 0.5370(6) 0.7386(4) 0.4408(2)
C32 C 0.5357(6) 0.6894(5) 0.5238(2)
C33 C 0.3465(5) 0.6823(7) 0.4810(3)
H1 H 0.5478 0.3307 0.2797
H2 H 0.6383 0.5653 0.2876
H3 H 0.7585 0.3517 0.3113
H4 H 0.6688 0.5224 0.3742
H5 H 0.5684 0.2953 0.3557
H6 H 0.4244 0.3049 0.2268
H7 H 0.2931 0.2565 0.1638
H8 H 0.1680 0.3095 0.1030
H9 H 0.1256 0.5124 0.0906
H10 H 0.2039 0.6558 0.1388
H11 H 0.9292 0.5268 0.1642
H12 H 0.8763 0.4123 0.1399
H13 H 0.8714 0.4243 0.1941
H14 H 0.6959 0.3670 0.1482
H15 H 0.6677 0.4546 0.1071
H16 H 0.5861 0.4552 0.1515
H17 H 0.6994 0.6484 0.1177
H18 H 0.8363 0.6149 0.1132
H19 H 0.7925 0.6968 0.1541
H20 H 1.0753 0.5878 0.2471
H21 H 1.0720 0.6979 0.2809
H22 H 0.9524 0.6299 0.2685
H23 H 1.1912 0.4616 0.3441
H24 H 1.2290 0.5158 0.2960
H25 H 1.1567 0.3950 0.2980
H26 H 1.0027 0.6802 0.3529
H27 H 1.1316 0.6341 0.3666
H28 H 1.0168 0.5635 0.3828
H29 H 0.9435 0.2222 0.4255
H30 H 1.0405 0.2817 0.4578
H31 H 0.9989 0.3470 0.4123
H32 H 1.0042 0.4618 0.4938
H33 H 0.9318 0.3861 0.5303
H34 H 0.8731 0.5003 0.5080
H35 H 0.7512 0.2921 0.5107
H36 H 0.8335 0.1915 0.4896
H37 H 0.7294 0.2474 0.4598
H38 H 0.5339 0.3408 0.4315
H39 H 0.4108 0.3490 0.4049
H40 H 0.6180 0.7558 0.4505
H41 H 0.4930 0.8124 0.4375
H42 H 0.5386 0.6972 0.4116
H43 H 0.4774 0.6761 0.5480
H44 H 0.5619 0.7715 0.5246
H45 H 0.6037 0.6375 0.5285
H46 H 0.3158 0.7035 0.4509
H47 H 0.3298 0.7459 0.5025
H48 H 0.3082 0.6099 0.4914
H49 H 0.3906 0.5903 0.2288
loop_
_geom_bond_atom_site_label_1
_geom_bond_atom_site_label_2
_geom_bond_site_symmetry_1
_geom_bond_site_symmetry_2
O1 C1 1_555 1_555
O2 C12 1_555 1_555
O3 C2 1_555 1_555
O4 C13 1_555 1_555
O5 C3 1_555 1_555
O6 C18 1_555 1_555
O7 C4 1_555 1_555
O8 C23 1_555 1_555
O9 C28 1_555 1_555
O10 C29 1_555 1_555
N1 C1 1_555 1_555
C1 C2 1_555 1_555
C2 C3 1_555 1_555
C3 C4 1_555 1_555
C4 C5 1_555 1_555
C5 O1 1_555 1_555
C6 N1 1_555 1_555
C7 C6 1_555 1_555
C8 C7 1_555 1_555
C9 C8 1_555 1_555
C10 C9 1_555 1_555
C11 C10 1_555 1_555
C12 C7 1_555 1_555
C13 O3 1_555 1_555
C14 C13 1_555 1_555
C15 C14 1_555 1_555
C16 C14 1_555 1_555
C17 C14 1_555 1_555
C18 O5 1_555 1_555
C19 C18 1_555 1_555
C20 C19 1_555 1_555
C21 C19 1_555 1_555
C22 C19 1_555 1_555
C23 O7 1_555 1_555
C24 C23 1_555 1_555
C25 C24 1_555 1_555
C26 C24 1_555 1_555
C27 C24 1_555 1_555
C28 C5 1_555 1_555
C29 O9 1_555 1_555
C30 C29 1_555 1_555
C31 C30 1_555 1_555
C32 C30 1_555 1_555
C33 C30 1_555 1_555
H1 C1 1_555 1_555
H2 C2 1_555 1_555
H3 C3 1_555 1_555
H4 C4 1_555 1_555
H5 C5 1_555 1_555
H6 C6 1_555 1_555
H7 C8 1_555 1_555
H8 C9 1_555 1_555
H9 C10 1_555 1_555
H10 C11 1_555 1_555
H11 C15 1_555 1_555
H12 C15 1_555 1_555
H13 C15 1_555 1_555
H14 C16 1_555 1_555
H15 C16 1_555 1_555
H16 C16 1_555 1_555
H17 C17 1_555 1_555
H18 C17 1_555 1_555
H19 C17 1_555 1_555
H20 C20 1_555 1_555
H21 C20 1_555 1_555
H22 C20 1_555 1_555
H23 C21 1_555 1_555
H24 C21 1_555 1_555
H25 C21 1_555 1_555
H26 C22 1_555 1_555
H27 C22 1_555 1_555
H28 C22 1_555 1_555
H29 C25 1_555 1_555
H30 C25 1_555 1_555
H31 C25 1_555 1_555
H32 C26 1_555 1_555
H33 C26 1_555 1_555
H34 C26 1_555 1_555
H35 C27 1_555 1_555
H36 C27 1_555 1_555
H37 C27 1_555 1_555
H38 C28 1_555 1_555
H39 C28 1_555 1_555
H40 C31 1_555 1_555
H41 C31 1_555 1_555
H42 C31 1_555 1_555
H43 C32 1_555 1_555
H44 C32 1_555 1_555
H45 C32 1_555 1_555
H46 C33 1_555 1_555
H47 C33 1_555 1_555
H48 C33 1_555 1_555
H49 O2 1_555 1_555
C11 C12 1_555 1_555

#END
