
#######################################################################
#
#                 Cambridge Crystallographic Data Centre
#                                CCDC 
#
#######################################################################
#
# If this CIF has been generated from an entry in the Cambridge 
# Structural Database, then it will include bibliographic, chemical, 
# crystal, experimental, refinement or atomic coordinate data resulting 
# from the CCDC's data processing and validation procedures.
#
#######################################################################

data_NATKID
_chemical_formula_moiety         'C21 H19 Cl2 N1 O3'
_chemical_name_systematic        
'(S)-\a-Cyano(6-methoxynaphthalen-2-yl)methyl (1R)-trans-3-(2,2-dichlorovinyl)-2,2-dimethylcyclopropanecarboxylate'
_symmetry_cell_setting           orthorhombic
_symmetry_space_group_name_H-M   'P 21 21 21'
_symmetry_Int_Tables_number      19
_space_group_name_Hall           'P 2ac 2ab'
loop_
_symmetry_equiv_pos_site_id
_symmetry_equiv_pos_as_xyz
1 x,y,z
2 1/2-x,-y,1/2+z
3 -x,1/2+y,1/2-z
4 1/2+x,1/2-y,-z
_cell_length_a                   6.1223(8)
_cell_length_b                   10.1589(13)
_cell_length_c                   31.893(4)
_cell_angle_alpha                90
_cell_angle_beta                 90
_cell_angle_gamma                90
_cell_volume                     1983.61
_exptl_crystal_colour            colorless
_exptl_crystal_description       plate
_chemical_melting_point          '94-95 deg.C'
_cell_formula_units_Z            4
loop_
_atom_site_label
_atom_site_type_symbol
_atom_site_fract_x
_atom_site_fract_y
_atom_site_fract_z
Cl1 Cl 0.27454(6) 0.46156(4) 0.133136(11)
Cl2 Cl 0.29810(7) 0.72114(4) 0.096081(11)
O1 O 0.48162(19) 1.13382(11) 0.53239(3)
O2 O 0.45629(18) 0.65447(10) 0.31915(3)
O3 O 0.43131(18) 0.45660(11) 0.28750(3)
N1 N -0.0498(3) 0.54418(18) 0.34329(5)
C1 C 0.6830(3) 1.12442(16) 0.55470(5)
H1 H 0.6885 1.1928 0.5764
H2 H 0.8050 1.1365 0.5352
H3 H 0.6940 1.0375 0.5679
C2 C 0.4414(3) 1.03971(15) 0.50256(4)
C3 C 0.2385(3) 1.05511(15) 0.48166(5)
H4 H 0.1433 1.1249 0.4894
C4 C 0.1791(3) 0.97017(16) 0.45047(5)
H5 H 0.0431 0.9816 0.4366
C5 C 0.3190(2) 0.86471(14) 0.43856(4)
C6 C 0.5196(2) 0.84786(14) 0.46042(4)
C7 C 0.5790(2) 0.93798(15) 0.49278(4)
H6 H 0.7129 0.9275 0.5074
C8 C 0.6575(3) 0.74161(14) 0.44922(4)
H7 H 0.7889 0.7272 0.4644
C9 C 0.6036(3) 0.65924(15) 0.41669(4)
H8 H 0.6978 0.5884 0.4096
C10 C 0.4081(2) 0.67931(15) 0.39364(4)
C11 C 0.2678(3) 0.77861(15) 0.40494(4)
H9 H 0.1347 0.7898 0.3901
C12 C 0.3665(3) 0.59129(16) 0.35627(4)
H10 H 0.4435 0.5056 0.3608
C13 C 0.1308(3) 0.56486(17) 0.34902(5)
C14 C 0.4844(2) 0.57116(14) 0.28602(4)
C15 C 0.5799(2) 0.64074(14) 0.24984(4)
H11 H 0.5767 0.7391 0.2512
C16 C 0.7680(2) 0.58000(14) 0.22448(4)
C17 C 0.5399(2) 0.57985(14) 0.20653(4)
H12 H 0.4655 0.4923 0.2071
C18 C 0.8656(3) 0.44909(16) 0.23685(5)
H13 H 0.9327 0.4078 0.2122
H14 H 0.7505 0.3916 0.2478
H15 H 0.9769 0.4629 0.2585
C19 C 0.9309(3) 0.67693(17) 0.20702(5)
H16 H 0.9783 0.6478 0.1792
H17 H 1.0576 0.6821 0.2257
H18 H 0.8626 0.7639 0.2048
C20 C 0.4806(2) 0.66356(15) 0.17072(4)
H19 H 0.5241 0.7533 0.1713
C21 C 0.3698(2) 0.62101(15) 0.13772(5)
loop_
_geom_bond_atom_site_label_1
_geom_bond_atom_site_label_2
_geom_bond_site_symmetry_1
_geom_bond_site_symmetry_2
Cl1 C21 1_555 1_555
Cl2 C21 1_555 1_555
O1 C1 1_555 1_555
O2 C12 1_555 1_555
O3 C14 1_555 1_555
N1 C13 1_555 1_555
C1 H1 1_555 1_555
H2 C1 1_555 1_555
H3 C1 1_555 1_555
C2 O1 1_555 1_555
C3 C2 1_555 1_555
H4 C3 1_555 1_555
C4 C3 1_555 1_555
H5 C4 1_555 1_555
C5 C4 1_555 1_555
C6 C5 1_555 1_555
C7 C2 1_555 1_555
H6 C7 1_555 1_555
C8 C6 1_555 1_555
H7 C8 1_555 1_555
C9 C8 1_555 1_555
H8 C9 1_555 1_555
C10 C9 1_555 1_555
C11 C5 1_555 1_555
H9 C11 1_555 1_555
C12 C10 1_555 1_555
H10 C12 1_555 1_555
C13 C12 1_555 1_555
C14 O2 1_555 1_555
C15 C14 1_555 1_555
H11 C15 1_555 1_555
C16 C15 1_555 1_555
C17 C15 1_555 1_555
H12 C17 1_555 1_555
C18 C16 1_555 1_555
H13 C18 1_555 1_555
H14 C18 1_555 1_555
H15 C18 1_555 1_555
C19 C16 1_555 1_555
H16 C19 1_555 1_555
H17 C19 1_555 1_555
H18 C19 1_555 1_555
C20 C17 1_555 1_555
H19 C20 1_555 1_555
C21 C20 1_555 1_555
C6 C7 1_555 1_555
C10 C11 1_555 1_555
C16 C17 1_555 1_555

#END
