
#######################################################################
#
#                 Cambridge Crystallographic Data Centre
#                                CCDC 
#
#######################################################################
#
# If this CIF has been generated from an entry in the Cambridge 
# Structural Database, then it will include bibliographic, chemical, 
# crystal, experimental, refinement or atomic coordinate data resulting 
# from the CCDC's data processing and validation procedures.
#
#######################################################################

data_NATLOL
_chemical_formula_moiety         'C12 H20 F4'
_chemical_name_systematic        1,1,7,7-Tetrafluorocyclododecane
_symmetry_cell_setting           monoclinic
_symmetry_space_group_name_H-M   'C 2/c'
_symmetry_Int_Tables_number      15
_space_group_name_Hall           '-C 2yn'
loop_
_symmetry_equiv_pos_site_id
_symmetry_equiv_pos_as_xyz
1 x,y,z
2 -x,y,1/2-z
3 1/2+x,1/2+y,z
4 1/2-x,1/2+y,1/2-z
5 -x,-y,-z
6 x,-y,1/2+z
7 1/2-x,1/2-y,-z
8 1/2+x,1/2-y,1/2+z
_cell_length_a                   10.323(7)
_cell_length_b                   9.429(7)
_cell_length_c                   12.485(10)
_cell_angle_alpha                90
_cell_angle_beta                 106.326(16)
_cell_angle_gamma                90
_cell_volume                     1166.23
_exptl_crystal_colour            colorless
_exptl_crystal_description       prism
_cell_formula_units_Z            4
loop_
_atom_site_label
_atom_site_type_symbol
_atom_site_fract_x
_atom_site_fract_y
_atom_site_fract_z
F1 F 0.83802(10) -0.04640(11) -0.04108(9)
F2 F 0.70340(11) 0.04129(10) 0.04989(8)
C1 C 0.70604(18) -0.00212(19) -0.05643(15)
C2 C 0.61336(18) -0.12774(18) -0.08931(15)
H1 H 0.5191 -0.0951 -0.1021
H2 H 0.6331 -0.1957 -0.0263
C3 C 0.62482(17) -0.20548(19) -0.19386(16)
H3 H 0.6395 -0.1349 -0.2480
H4 H 0.7047 -0.2685 -0.1733
C4 C 0.5000 -0.2939(3) -0.2500
H5 H 0.5213 -0.3559 -0.3068
C5 C 0.5000 0.2904(2) -0.2500
H6 H 0.5750 0.3524 -0.2560
C6 C 0.54744(17) 0.20219(18) -0.14342(15)
H7 H 0.4773 0.1310 -0.1423
H8 H 0.5578 0.2652 -0.0781
C7 C 0.68150(18) 0.12553(18) -0.13264(15)
H9 H 0.6840 0.0947 -0.2078
H10 H 0.7562 0.1938 -0.1045
F1A F 0.16198(10) -0.04640(11) -0.45892(9)
F2A F 0.29660(11) 0.04129(10) -0.54989(8)
C1A C 0.29396(18) -0.00212(19) -0.44357(15)
C2A C 0.38664(18) -0.12774(18) -0.41069(15)
H1A H 0.4809 -0.0951 -0.3979
H2A H 0.3669 -0.1957 -0.4737
C3A C 0.37518(17) -0.20548(19) -0.30614(16)
H3A H 0.3605 -0.1349 -0.2520
H4A H 0.2953 -0.2685 -0.3267
H5A H 0.4787 -0.3559 -0.1932
H6A H 0.4250 0.3524 -0.2440
C6A C 0.45256(17) 0.20219(18) -0.35658(15)
H7A H 0.5227 0.1310 -0.3577
H8A H 0.4422 0.2652 -0.4219
C7A C 0.31850(18) 0.12553(18) -0.36736(15)
H9A H 0.3160 0.0947 -0.2922
H10A H 0.2438 0.1938 -0.3955
loop_
_geom_bond_atom_site_label_1
_geom_bond_atom_site_label_2
_geom_bond_site_symmetry_1
_geom_bond_site_symmetry_2
F1 C1 1_555 1_555
F2 C1 1_555 1_555
C1 C2 1_555 1_555
C2 H1 1_555 1_555
H2 C2 1_555 1_555
C3 C2 1_555 1_555
H3 C3 1_555 1_555
H4 C3 1_555 1_555
C4 C3 1_555 1_555
H5 C4 1_555 1_555
C5 H6 1_555 1_555
C6 C5 1_555 1_555
H7 C6 1_555 1_555
H8 C6 1_555 1_555
C7 C1 1_555 1_555
H9 C7 1_555 1_555
H10 C7 1_555 1_555
F1A C1A 1_555 1_555
F2A C1A 1_555 1_555
C1A C2A 1_555 1_555
C2A H1A 1_555 1_555
H2A C2A 1_555 1_555
C3A C4 1_555 1_555
H3A C3A 1_555 1_555
H4A C3A 1_555 1_555
H5A C4 1_555 1_555
H6A C5 1_555 1_555
C6A C5 1_555 1_555
H7A C6A 1_555 1_555
H8A C6A 1_555 1_555
C7A C1A 1_555 1_555
H9A C7A 1_555 1_555
H10A C7A 1_555 1_555
C6 C7 1_555 1_555
C2A C3A 1_555 1_555
C6A C7A 1_555 1_555

#END
