
#######################################################################
#
#                 Cambridge Crystallographic Data Centre
#                                CCDC 
#
#######################################################################
#
# If this CIF has been generated from an entry in the Cambridge 
# Structural Database, then it will include bibliographic, chemical, 
# crystal, experimental, refinement or atomic coordinate data resulting 
# from the CCDC's data processing and validation procedures.
#
#######################################################################

data_NATLUR
_chemical_formula_moiety         'C12 H20 F4'
_chemical_name_systematic        1,1,6,6-Tetrafluorocyclododecane
_symmetry_cell_setting           triclinic
_symmetry_space_group_name_H-M   'P -1'
_symmetry_Int_Tables_number      2
_space_group_name_Hall           '-P 1'
loop_
_symmetry_equiv_pos_site_id
_symmetry_equiv_pos_as_xyz
1 x,y,z
2 -x,-y,-z
_cell_length_a                   9.0052(19)
_cell_length_b                   10.9901(19)
_cell_length_c                   13.738(3)
_cell_angle_alpha                70.73(3)
_cell_angle_beta                 74.59(3)
_cell_angle_gamma                70.71(3)
_cell_volume                     1192.51
_exptl_crystal_colour            colorless
_exptl_crystal_description       prism
_cell_formula_units_Z            4
loop_
_atom_site_label
_atom_site_type_symbol
_atom_site_fract_x
_atom_site_fract_y
_atom_site_fract_z
C1 C -0.1705(5) -0.1296(5) 0.3520(4)
F1 F -0.3242(3) -0.0917(3) 0.40530(19)
F2 F -0.1295(3) -0.2695(2) 0.38414(19)
C2 C -0.1752(5) -0.0893(4) 0.2359(3)
H1 H -0.2454 -0.1348 0.2251
H2 H -0.0663 -0.1233 0.1988
C3 C -0.2331(5) 0.0606(4) 0.1843(3)
H3 H -0.2684 0.0706 0.1190
H4 H -0.3286 0.0985 0.2316
C4 C -0.1170(5) 0.1463(4) 0.1567(3)
H5 H -0.0752 0.1329 0.2203
H6 H -0.1761 0.2416 0.1348
C5 C 0.0239(5) 0.1150(4) 0.0696(3)
H7 H 0.0775 0.0181 0.0893
H8 H -0.0181 0.1346 0.0048
C6 C 0.1466(5) 0.1913(4) 0.0461(3)
F3 F 0.0723(3) 0.3275(2) 0.01509(19)
F4 F 0.2548(3) 0.1649(3) -0.04302(19)
C7 C 0.2408(5) 0.1692(4) 0.1286(3)
H9 H 0.1653 0.1887 0.1921
H10 H 0.3067 0.2337 0.1030
C8 C 0.3506(6) 0.0274(5) 0.1591(4)
H11 H 0.4590 0.0264 0.1175
H12 H 0.3107 -0.0342 0.1403
C9 C 0.3628(5) -0.0254(5) 0.2764(3)
H13 H 0.4345 -0.1173 0.2888
H14 H 0.4134 0.0309 0.2931
C10 C 0.2045(5) -0.0282(4) 0.3517(3)
H15 H 0.2263 -0.0655 0.4242
H16 H 0.1372 0.0649 0.3452
C11 C 0.1103(5) -0.1095(4) 0.3340(3)
H17 H 0.1639 -0.2059 0.3582
H18 H 0.1116 -0.0883 0.2579
C12 C -0.0627(5) -0.0826(4) 0.3908(3)
H19 H -0.0645 -0.1274 0.4664
H20 H -0.1062 0.0147 0.3831
C13 C 0.3577(5) 0.6553(4) 0.0993(3)
F5 F 0.2455(3) 0.7791(2) 0.09547(19)
F6 F 0.4266(3) 0.6618(2) -0.00492(19)
C14 C 0.4841(5) 0.6476(4) 0.1570(3)
H21 H 0.4335 0.6503 0.2299
H22 H 0.5260 0.7271 0.1231
C15 C 0.6235(5) 0.5220(4) 0.1592(3)
H23 H 0.6775 0.5217 0.0864
H24 H 0.5810 0.4425 0.1897
C16 C 0.7474(5) 0.5102(5) 0.2223(3)
H25 H 0.7867 0.5913 0.1922
H26 H 0.8393 0.4330 0.2115
C17 C 0.6931(5) 0.4928(4) 0.3413(3)
H27 H 0.7655 0.5225 0.3662
H28 H 0.5847 0.5533 0.3533
C18 C 0.6891(5) 0.3531(5) 0.4074(3)
F7 F 0.6483(3) 0.3578(2) 0.51165(18)
F8 F 0.8441(3) 0.2696(2) 0.40057(19)
C19 C 0.5848(5) 0.2827(4) 0.3905(3)
H29 H 0.5893 0.1974 0.4459
H30 H 0.6286 0.2607 0.3224
C20 C 0.4091(5) 0.3638(4) 0.3913(3)
H31 H 0.3554 0.3613 0.4646
H32 H 0.4049 0.4582 0.3528
C21 C 0.3192(5) 0.3113(4) 0.3419(4)
H33 H 0.3026 0.2250 0.3894
H34 H 0.3863 0.2936 0.2756
C22 C 0.1561(5) 0.4063(4) 0.3188(4)
H35 H 0.0849 0.4161 0.3860
H36 H 0.1078 0.3652 0.2852
C23 C 0.1642(5) 0.5462(4) 0.2475(4)
H37 H 0.0544 0.6007 0.2380
H38 H 0.2055 0.5895 0.2835
C24 C 0.2685(5) 0.5479(4) 0.1395(3)
H39 H 0.3470 0.4595 0.1429
H40 H 0.2000 0.5620 0.0889
loop_
_geom_bond_atom_site_label_1
_geom_bond_atom_site_label_2
_geom_bond_site_symmetry_1
_geom_bond_site_symmetry_2
C1 F1 1_555 1_555
F2 C1 1_555 1_555
C2 C1 1_555 1_555
H1 C2 1_555 1_555
H2 C2 1_555 1_555
C3 C2 1_555 1_555
H3 C3 1_555 1_555
H4 C3 1_555 1_555
C4 C3 1_555 1_555
H5 C4 1_555 1_555
H6 C4 1_555 1_555
C5 C4 1_555 1_555
H7 C5 1_555 1_555
H8 C5 1_555 1_555
C6 C5 1_555 1_555
F3 C6 1_555 1_555
F4 C6 1_555 1_555
C7 C6 1_555 1_555
H9 C7 1_555 1_555
H10 C7 1_555 1_555
C8 C7 1_555 1_555
H11 C8 1_555 1_555
H12 C8 1_555 1_555
C9 C8 1_555 1_555
H13 C9 1_555 1_555
H14 C9 1_555 1_555
C10 C9 1_555 1_555
H15 C10 1_555 1_555
H16 C10 1_555 1_555
C11 C10 1_555 1_555
H17 C11 1_555 1_555
H18 C11 1_555 1_555
C12 C1 1_555 1_555
H19 C12 1_555 1_555
H20 C12 1_555 1_555
C13 F5 1_555 1_555
F6 C13 1_555 1_555
C14 C13 1_555 1_555
H21 C14 1_555 1_555
H22 C14 1_555 1_555
C15 C14 1_555 1_555
H23 C15 1_555 1_555
H24 C15 1_555 1_555
C16 C15 1_555 1_555
H25 C16 1_555 1_555
H26 C16 1_555 1_555
C17 C16 1_555 1_555
H27 C17 1_555 1_555
H28 C17 1_555 1_555
C18 C17 1_555 1_555
F7 C18 1_555 1_555
F8 C18 1_555 1_555
C19 C18 1_555 1_555
H29 C19 1_555 1_555
H30 C19 1_555 1_555
C20 C19 1_555 1_555
H31 C20 1_555 1_555
H32 C20 1_555 1_555
C21 C20 1_555 1_555
H33 C21 1_555 1_555
H34 C21 1_555 1_555
C22 C21 1_555 1_555
H35 C22 1_555 1_555
H36 C22 1_555 1_555
C23 C22 1_555 1_555
H37 C23 1_555 1_555
H38 C23 1_555 1_555
C24 C13 1_555 1_555
H39 C24 1_555 1_555
H40 C24 1_555 1_555
C11 C12 1_555 1_555
C23 C24 1_555 1_555

#END
