
#######################################################################
#
#                 Cambridge Crystallographic Data Centre
#                                CCDC 
#
#######################################################################
#
# If this CIF has been generated from an entry in the Cambridge 
# Structural Database, then it will include bibliographic, chemical, 
# crystal, experimental, refinement or atomic coordinate data resulting 
# from the CCDC's data processing and validation procedures.
#
#######################################################################

data_NATPIJ
_chemical_formula_moiety         'C36 H40 N4 O4'
_chemical_name_systematic        
6,12,25,31-Tetraoxa-1,17,20,36-tetraazapentacyclo[34.2.2.2^17,20^.1^7,11^.1^26,30^]tetratetraconta-7(44),8,10,26(41),27,29-hexaene-3,14,22,33-tetrayne
_symmetry_cell_setting           monoclinic
_symmetry_space_group_name_H-M   'P 21/c'
_symmetry_Int_Tables_number      14
_space_group_name_Hall           '-P 2ybc'
loop_
_symmetry_equiv_pos_site_id
_symmetry_equiv_pos_as_xyz
1 x,y,z
2 -x,1/2+y,1/2-z
3 -x,-y,-z
4 x,1/2-y,1/2+z
_cell_length_a                   10.715(3)
_cell_length_b                   5.4373(13)
_cell_length_c                   26.758(6)
_cell_angle_alpha                90
_cell_angle_beta                 92.176(4)
_cell_angle_gamma                90
_cell_volume                     1557.81
_exptl_crystal_colour            colorless
_exptl_crystal_description       block
_cell_formula_units_Z            2
loop_
_atom_site_label
_atom_site_type_symbol
_atom_site_fract_x
_atom_site_fract_y
_atom_site_fract_z
C1 C 0.3980(2) 0.1243(4) 0.18373(8)
C2 C 0.4162(2) -0.0623(4) 0.21799(9)
H1 H 0.4732 -0.1919 0.2120
C3 C 0.3495(2) -0.0568(5) 0.26139(9)
H2 H 0.3624 -0.1832 0.2855
C4 C 0.2647(2) 0.1274(4) 0.27041(8)
H3 H 0.2204 0.1285 0.3005
C5 C 0.2451(2) 0.3108(4) 0.23504(8)
C6 C 0.3116(2) 0.3113(4) 0.19160(8)
H4 H 0.2986 0.4376 0.1674
C7 C 0.1039(2) 0.6262(5) 0.20612(9)
H5 H 0.1701 0.6981 0.1858
H6 H 0.0538 0.7627 0.2194
C8 C 0.0232(2) 0.4661(5) 0.17450(9)
C9 C -0.0463(2) 0.3247(5) 0.15386(9)
C10 C -0.1389(3) 0.1495(5) 0.13150(9)
H7 H -0.0987 -0.0139 0.1294
H8 H -0.2086 0.1338 0.1545
C11 C -0.0958(2) 0.2109(6) 0.04438(10)
H9 H -0.0532 0.0493 0.0446
H10 H -0.0326 0.3393 0.0523
C12 C -0.1563(3) 0.2585(5) -0.00685(9)
H11 H -0.0917 0.2579 -0.0323
H12 H -0.2170 0.1261 -0.0153
C13 C -0.3159(2) 0.4955(5) 0.03003(9)
H13 H -0.3786 0.3664 0.0220
H14 H -0.3590 0.6566 0.0297
C14 C -0.2562(2) 0.4487(5) 0.08147(9)
H15 H -0.1964 0.5823 0.0902
H16 H -0.3214 0.4474 0.1067
C15 C -0.2716(3) 0.5541(5) -0.05723(9)
H17 H -0.2016 0.5717 -0.0801
H18 H -0.3138 0.7158 -0.0556
C16 C 0.3616(2) -0.3736(5) 0.07927(8)
C17 C 0.4337(2) -0.2304(4) 0.09792(8)
C18 C 0.5234(2) -0.0597(5) 0.12096(9)
H19 H 0.5713 -0.1451 0.1481
H20 H 0.5831 -0.0073 0.0957
N1 N -0.19107(18) 0.2131(4) 0.08197(7)
N2 N -0.21987(19) 0.4943(4) -0.00734(7)
O1 O 0.46469(15) 0.1530(3) 0.14097(6)
O2 O 0.15976(15) 0.4889(3) 0.24669(6)
C1B C -0.3980(2) -0.1243(4) -0.18373(8)
C2B C -0.4162(2) 0.0623(4) -0.21799(9)
H1B H -0.4732 0.1919 -0.2120
C3B C -0.3495(2) 0.0568(5) -0.26139(9)
H2B H -0.3624 0.1832 -0.2855
C4B C -0.2647(2) -0.1274(4) -0.27041(8)
H3B H -0.2204 -0.1285 -0.3005
C5B C -0.2451(2) -0.3108(4) -0.23504(8)
C6B C -0.3116(2) -0.3113(4) -0.19160(8)
H4B H -0.2986 -0.4376 -0.1674
C7B C -0.1039(2) -0.6262(5) -0.20612(9)
H5B H -0.1701 -0.6981 -0.1858
H6B H -0.0538 -0.7627 -0.2194
C8B C -0.0232(2) -0.4661(5) -0.17450(9)
C9B C 0.0463(2) -0.3247(5) -0.15386(9)
C10B C 0.1389(3) -0.1495(5) -0.13150(9)
H7B H 0.0987 0.0139 -0.1294
H8B H 0.2086 -0.1338 -0.1545
C11B C 0.0958(2) -0.2109(6) -0.04438(10)
H9B H 0.0532 -0.0493 -0.0446
H10B H 0.0326 -0.3393 -0.0523
C12B C 0.1563(3) -0.2585(5) 0.00685(9)
H11B H 0.0917 -0.2579 0.0323
H12B H 0.2170 -0.1261 0.0153
C13B C 0.3159(2) -0.4955(5) -0.03003(9)
H13B H 0.3786 -0.3664 -0.0220
H14B H 0.3590 -0.6566 -0.0297
C14B C 0.2562(2) -0.4487(5) -0.08147(9)
H15B H 0.1964 -0.5823 -0.0902
H16B H 0.3214 -0.4474 -0.1067
C15B C 0.2716(3) -0.5541(5) 0.05723(9)
H17B H 0.2016 -0.5717 0.0801
H18B H 0.3138 -0.7158 0.0556
C16B C -0.3616(2) 0.3736(5) -0.07927(8)
C17B C -0.4337(2) 0.2304(4) -0.09792(8)
C18B C -0.5234(2) 0.0597(5) -0.12096(9)
H19B H -0.5713 0.1451 -0.1481
H20B H -0.5831 0.0073 -0.0957
N1B N 0.19107(18) -0.2131(4) -0.08197(7)
N2B N 0.21987(19) -0.4943(4) 0.00734(7)
O1B O -0.46469(15) -0.1530(3) -0.14097(6)
O2B O -0.15976(15) -0.4889(3) -0.24669(6)
loop_
_geom_bond_atom_site_label_1
_geom_bond_atom_site_label_2
_geom_bond_site_symmetry_1
_geom_bond_site_symmetry_2
C1 C2 1_555 1_555
C2 H1 1_555 1_555
C3 C2 1_555 1_555
H2 C3 1_555 1_555
C4 C3 1_555 1_555
H3 C4 1_555 1_555
C5 C4 1_555 1_555
C6 C1 1_555 1_555
H4 C6 1_555 1_555
C7 H5 1_555 1_555
H6 C7 1_555 1_555
C8 C7 1_555 1_555
C9 C8 1_555 1_555
C10 C9 1_555 1_555
H7 C10 1_555 1_555
H8 C10 1_555 1_555
C11 H9 1_555 1_555
H10 C11 1_555 1_555
C12 C11 1_555 1_555
H11 C12 1_555 1_555
H12 C12 1_555 1_555
C13 H13 1_555 1_555
H14 C13 1_555 1_555
C14 C13 1_555 1_555
H15 C14 1_555 1_555
H16 C14 1_555 1_555
C15 H17 1_555 1_555
H18 C15 1_555 1_555
C16 C17 1_555 1_555
C17 C18 1_555 1_555
C18 H19 1_555 1_555
H20 C18 1_555 1_555
N1 C10 1_555 1_555
N2 C12 1_555 1_555
O1 C1 1_555 1_555
O2 C5 1_555 1_555
C1B C2B 1_555 1_555
C2B H1B 1_555 1_555
C3B C2B 1_555 1_555
H2B C3B 1_555 1_555
C4B C3B 1_555 1_555
H3B C4B 1_555 1_555
C5B C4B 1_555 1_555
C6B C1B 1_555 1_555
H4B C6B 1_555 1_555
C7B H5B 1_555 1_555
H6B C7B 1_555 1_555
C8B C7B 1_555 1_555
C9B C8B 1_555 1_555
C10B C9B 1_555 1_555
H7B C10B 1_555 1_555
H8B C10B 1_555 1_555
C11B H9B 1_555 1_555
H10B C11B 1_555 1_555
C12B C11B 1_555 1_555
H11B C12B 1_555 1_555
H12B C12B 1_555 1_555
C13B H13B 1_555 1_555
H14B C13B 1_555 1_555
C14B C13B 1_555 1_555
H15B C14B 1_555 1_555
H16B C14B 1_555 1_555
C15B C16 1_555 1_555
H17B C15B 1_555 1_555
H18B C15B 1_555 1_555
C16B C15 1_555 1_555
C17B C16B 1_555 1_555
C18B C17B 1_555 1_555
H19B C18B 1_555 1_555
H20B C18B 1_555 1_555
N1B C10B 1_555 1_555
N2B C12B 1_555 1_555
O1B C1B 1_555 1_555
O2B C5B 1_555 1_555
C5 C6 1_555 1_555
C7 O2 1_555 1_555
C11 N1 1_555 1_555
C13 N2 1_555 1_555
C14 N1 1_555 1_555
C15 N2 1_555 1_555
C18 O1 1_555 1_555
C5B C6B 1_555 1_555
C7B O2B 1_555 1_555
C11B N1B 1_555 1_555
C13B N2B 1_555 1_555
C14B N1B 1_555 1_555
C15B N2B 1_555 1_555
C18B O1B 1_555 1_555

#END
