
#######################################################################
#
#                 Cambridge Crystallographic Data Centre
#                                CCDC 
#
#######################################################################
#
# If this CIF has been generated from an entry in the Cambridge 
# Structural Database, then it will include bibliographic, chemical, 
# crystal, experimental, refinement or atomic coordinate data resulting 
# from the CCDC's data processing and validation procedures.
#
#######################################################################

data_NATPUW
_chemical_formula_moiety         'C24 H24 O4'
_chemical_name_systematic        
'ethyl 3-benzoyl-4-hydroxy-2-phenylcycloocta-1,3-diene-1-carboxylate'
_symmetry_cell_setting           triclinic
_symmetry_space_group_name_H-M   'P -1'
_symmetry_Int_Tables_number      2
_space_group_name_Hall           '-P 1'
loop_
_symmetry_equiv_pos_site_id
_symmetry_equiv_pos_as_xyz
1 x,y,z
2 -x,-y,-z
_cell_length_a                   9.0948(14)
_cell_length_b                   9.6068(14)
_cell_length_c                   12.0828(17)
_cell_angle_alpha                100.328(3)
_cell_angle_beta                 90.259(3)
_cell_angle_gamma                103.169(3)
_cell_volume                     1010.15
_exptl_crystal_colour            colorless
_exptl_crystal_description       prismatic
_cell_formula_units_Z            2
loop_
_atom_site_label
_atom_site_type_symbol
_atom_site_fract_x
_atom_site_fract_y
_atom_site_fract_z
O1 O 0.16046(19) 0.3503(2) 0.53972(12)
O2 O 0.3631(2) 0.5693(2) 0.55830(13)
H1 H 0.3001 0.5025 0.5764
O3 O 0.1280(2) 0.6539(2) 0.05920(17)
O4 O 0.33309(19) 0.56585(19) 0.06109(13)
C1 C -0.0083(3) 0.1014(3) 0.3877(2)
H2 H 0.0606 0.0765 0.4332
C2 C -0.1271(3) -0.0043(3) 0.3339(2)
H3 H -0.1369 -0.1007 0.3413
C3 C -0.2312(3) 0.0321(3) 0.2694(2)
H4 H -0.3123 -0.0393 0.2331
C4 C -0.2158(3) 0.1732(3) 0.2583(2)
H5 H -0.2876 0.1980 0.2153
C5 C -0.0949(2) 0.2795(3) 0.30990(19)
H6 H -0.0846 0.3752 0.3006
C6 C 0.0106(2) 0.2448(2) 0.37523(16)
C7 C 0.1383(2) 0.3565(2) 0.43664(17)
C8 C 0.2299(2) 0.4647(2) 0.38531(16)
C9 C 0.3440(3) 0.5684(3) 0.45126(19)
C10 C 0.4530(3) 0.6852(3) 0.4095(2)
H7 H 0.4684 0.6524 0.3307
H8 H 0.5494 0.7036 0.4507
C11 C 0.4001(4) 0.8268(3) 0.4223(3)
H9 H 0.3490 0.8394 0.4925
H10 H 0.4884 0.9069 0.4281
C12 C 0.2953(4) 0.8365(3) 0.3281(3)
H11 H 0.3527 0.8437 0.2610
H12 H 0.2604 0.9255 0.3484
C13 C 0.1571(3) 0.7090(3) 0.2992(2)
H13 H 0.1171 0.6810 0.3683
H14 H 0.0793 0.7399 0.2612
C14 C 0.1944(2) 0.5788(2) 0.22467(18)
C15 C 0.2175(2) 0.4623(2) 0.26225(16)
C16 C 0.2369(2) 0.32735(19) 0.18854(15)
C17 C 0.1478(2) 0.2677(2) 0.09093(17)
H15 H 0.0757 0.3138 0.0697
C18 C 0.1653(3) 0.1406(3) 0.0251(2)
H16 H 0.1054 0.1019 -0.0407
C19 C 0.2702(3) 0.0703(3) 0.0554(3)
H17 H 0.2817 -0.0155 0.0105
C20 C 0.3579(3) 0.1275(3) 0.1523(2)
H18 H 0.4289 0.0801 0.1735
C21 C 0.3416(2) 0.2547(2) 0.21860(17)
H19 H 0.4017 0.2924 0.2844
C22 C 0.2097(3) 0.5998(2) 0.1060(2)
C23 C 0.3636(4) 0.5913(4) -0.0516(2)
H20 H 0.4718 0.6107 -0.0611
H21 H 0.3288 0.6763 -0.0628
C24 C 0.2879(4) 0.4656(5) -0.1355(3)
H22 H 0.3237 0.3819 -0.1253
H23 H 0.3097 0.4852 -0.2097
H24 H 0.1808 0.4472 -0.1268
loop_
_geom_bond_atom_site_label_1
_geom_bond_atom_site_label_2
_geom_bond_site_symmetry_1
_geom_bond_site_symmetry_2
O1 C7 1_555 1_555
O2 H1 1_555 1_555
O3 C22 1_555 1_555
O4 C22 1_555 1_555
C1 H2 1_555 1_555
C2 C1 1_555 1_555
H3 C2 1_555 1_555
C3 C2 1_555 1_555
H4 C3 1_555 1_555
C4 C3 1_555 1_555
H5 C4 1_555 1_555
C5 C4 1_555 1_555
H6 C5 1_555 1_555
C6 C1 1_555 1_555
C7 C6 1_555 1_555
C8 C7 1_555 1_555
C9 O2 1_555 1_555
C10 C9 1_555 1_555
H7 C10 1_555 1_555
H8 C10 1_555 1_555
C11 C10 1_555 1_555
H9 C11 1_555 1_555
H10 C11 1_555 1_555
C12 C11 1_555 1_555
H11 C12 1_555 1_555
H12 C12 1_555 1_555
C13 C12 1_555 1_555
H13 C13 1_555 1_555
H14 C13 1_555 1_555
C14 C13 1_555 1_555
C15 C8 1_555 1_555
C16 C15 1_555 1_555
C17 C16 1_555 1_555
H15 C17 1_555 1_555
C18 C17 1_555 1_555
H16 C18 1_555 1_555
C19 C18 1_555 1_555
H17 C19 1_555 1_555
C20 C19 1_555 1_555
H18 C20 1_555 1_555
C21 C16 1_555 1_555
H19 C21 1_555 1_555
C22 C14 1_555 1_555
C23 O4 1_555 1_555
H20 C23 1_555 1_555
H21 C23 1_555 1_555
C24 C23 1_555 1_555
H22 C24 1_555 1_555
H23 C24 1_555 1_555
H24 C24 1_555 1_555
C5 C6 1_555 1_555
C8 C9 1_555 1_555
C14 C15 1_555 1_555
C20 C21 1_555 1_555

#END
