
#######################################################################
#
#                 Cambridge Crystallographic Data Centre
#                                CCDC 
#
#######################################################################
#
# If this CIF has been generated from an entry in the Cambridge 
# Structural Database, then it will include bibliographic, chemical, 
# crystal, experimental, refinement or atomic coordinate data resulting 
# from the CCDC's data processing and validation procedures.
#
#######################################################################

data_NATPEE
_chemical_formula_moiety         'C26 H18 N4,2(H2 O1)'
_chemical_name_systematic        '1,2,4,5-tetrakis(4-Pyridyl)benzene dihydrate'
_symmetry_cell_setting           monoclinic
_symmetry_space_group_name_H-M   'C 2/c'
_symmetry_Int_Tables_number      15
_space_group_name_Hall           '-C 2yn'
loop_
_symmetry_equiv_pos_site_id
_symmetry_equiv_pos_as_xyz
1 x,y,z
2 1/2+x,1/2+y,z
3 -x,y,1/2-z
4 1/2-x,1/2+y,1/2-z
5 -x,-y,-z
6 1/2-x,1/2-y,-z
7 x,-y,1/2+z
8 1/2+x,1/2-y,1/2+z
_cell_length_a                   16.344(6)
_cell_length_b                   13.697(5)
_cell_length_c                   9.748(3)
_cell_angle_alpha                90
_cell_angle_beta                 97.171(6)
_cell_angle_gamma                90
_cell_volume                     2165.15
_exptl_crystal_colour            colorless
_exptl_crystal_description       polyhedral
_cell_formula_units_Z            4
loop_
_atom_site_label
_atom_site_type_symbol
_atom_site_fract_x
_atom_site_fract_y
_atom_site_fract_z
N1 N -0.0931(2) 0.1084(2) 0.1022(3)
N2 N -0.25952(18) 0.3778(2) -0.4089(3)
C1 C -0.0175(3) 0.1318(3) 0.0773(4)
H1 H 0.0216 0.0823 0.0806
C2 C 0.0066(2) 0.2252(2) 0.0469(4)
H2 H 0.0607 0.2376 0.0316
C3 C -0.05040(18) 0.3002(2) 0.0395(3)
C4 C -0.1296(2) 0.2767(2) 0.0657(3)
H3 H -0.1702 0.3246 0.0628
C5 C -0.1472(2) 0.1814(3) 0.0962(4)
H4 H -0.2006 0.1670 0.1137
C6 C -0.02593(17) 0.4026(2) 0.0122(3)
C7 C 0.04106(17) 0.4405(2) 0.0971(3)
H5 H 0.0693 0.3997 0.1630
C8 C -0.06824(17) 0.4634(2) -0.0887(3)
C9 C -0.13634(17) 0.4304(2) -0.1945(3)
C10 C -0.13365(19) 0.3422(2) -0.2630(3)
H6 H -0.0905 0.2987 -0.2391
C11 C -0.1957(2) 0.3196(3) -0.3670(4)
H7 H -0.1931 0.2597 -0.4111
C12 C -0.2623(2) 0.4615(2) -0.3418(4)
H8 H -0.3063 0.5033 -0.3680
C13 C -0.20357(19) 0.4905(2) -0.2352(3)
H9 H -0.2090 0.5498 -0.1909
N1D N 0.0931(2) 0.8916(2) -0.1022(3)
N2D N 0.25952(18) 0.6222(2) 0.4089(3)
C1D C 0.0175(3) 0.8682(3) -0.0773(4)
H1D H -0.0216 0.9177 -0.0806
C2D C -0.0066(2) 0.7748(2) -0.0469(4)
H2D H -0.0607 0.7624 -0.0316
C3D C 0.05040(18) 0.6998(2) -0.0395(3)
C4D C 0.1296(2) 0.7233(2) -0.0657(3)
H3D H 0.1702 0.6754 -0.0628
C5D C 0.1472(2) 0.8186(3) -0.0962(4)
H4D H 0.2006 0.8330 -0.1137
C6D C 0.02593(17) 0.5974(2) -0.0122(3)
C7D C -0.04106(17) 0.5595(2) -0.0971(3)
H5D H -0.0693 0.6003 -0.1630
C8D C 0.06824(17) 0.5366(2) 0.0887(3)
C9D C 0.13634(17) 0.5696(2) 0.1945(3)
C10D C 0.13365(19) 0.6578(2) 0.2630(3)
H6D H 0.0905 0.7013 0.2391
C11D C 0.1957(2) 0.6804(3) 0.3670(4)
H7D H 0.1931 0.7403 0.4111
C12D C 0.2623(2) 0.5385(2) 0.3418(4)
H8D H 0.3063 0.4967 0.3680
C13D C 0.20357(19) 0.5095(2) 0.2352(3)
H9D H 0.2090 0.4502 0.1909
O1 O -0.0980(4) -0.0927(3) 0.1915(8)
H10 H -0.103(5) -0.035(3) 0.158(9)
H11 H -0.054(4) -0.096(6) 0.249(9)
loop_
_geom_bond_atom_site_label_1
_geom_bond_atom_site_label_2
_geom_bond_site_symmetry_1
_geom_bond_site_symmetry_2
N1 C1 1_555 1_555
N2 C11 1_555 1_555
C1 H1 1_555 1_555
C2 C1 1_555 1_555
H2 C2 1_555 1_555
C3 C2 1_555 1_555
C4 C3 1_555 1_555
H3 C4 1_555 1_555
C5 N1 1_555 1_555
H4 C5 1_555 1_555
C6 C3 1_555 1_555
C7 C6 1_555 1_555
H5 C7 1_555 1_555
C8 C6 1_555 1_555
C9 C8 1_555 1_555
C10 C9 1_555 1_555
H6 C10 1_555 1_555
C11 C10 1_555 1_555
H7 C11 1_555 1_555
C12 N2 1_555 1_555
H8 C12 1_555 1_555
C13 C9 1_555 1_555
H9 C13 1_555 1_555
O1 H10 1_555 1_555
H11 O1 1_555 1_555
N1D C1D 1_555 1_555
N2D C11D 1_555 1_555
C1D H1D 1_555 1_555
C2D C1D 1_555 1_555
H2D C2D 1_555 1_555
C3D C2D 1_555 1_555
C4D C3D 1_555 1_555
H3D C4D 1_555 1_555
C5D N1D 1_555 1_555
H4D C5D 1_555 1_555
C6D C3D 1_555 1_555
C7D C8 1_555 1_555
H5D C7D 1_555 1_555
C8D C7 1_555 1_555
C9D C8D 1_555 1_555
C10D C9D 1_555 1_555
H6D C10D 1_555 1_555
C11D C10D 1_555 1_555
H7D C11D 1_555 1_555
C12D N2D 1_555 1_555
H8D C12D 1_555 1_555
C13D C9D 1_555 1_555
H9D C13D 1_555 1_555
C4 C5 1_555 1_555
C12 C13 1_555 1_555
C4D C5D 1_555 1_555
C6D C7D 1_555 1_555
C6D C8D 1_555 1_555
C12D C13D 1_555 1_555

#END
