
#######################################################################
#
#                 Cambridge Crystallographic Data Centre
#                                CCDC 
#
#######################################################################
#
# If this CIF has been generated from an entry in the Cambridge 
# Structural Database, then it will include bibliographic, chemical, 
# crystal, experimental, refinement or atomic coordinate data resulting 
# from the CCDC's data processing and validation procedures.
#
#######################################################################

data_NATQUU
_chemical_name_common            2,3:5,6-Dipropanopyrone
_chemical_formula_moiety         'C11 H12 O2'
_chemical_name_systematic        2,3:5,6-Dipropylene-r-pyrone
_chemical_properties_biological  'potential medical activity'
_symmetry_cell_setting           orthorhombic
_symmetry_space_group_name_H-M   'P b c n'
_symmetry_Int_Tables_number      60
_space_group_name_Hall           '-P 2n 2ab'
loop_
_symmetry_equiv_pos_site_id
_symmetry_equiv_pos_as_xyz
1 x,y,z
2 1/2-x,1/2-y,1/2+z
3 1/2+x,1/2-y,-z
4 -x,y,1/2-z
5 -x,-y,-z
6 1/2+x,1/2+y,1/2-z
7 1/2-x,1/2+y,z
8 x,-y,1/2+z
_cell_length_a                   8.308(2)
_cell_length_b                   12.812(3)
_cell_length_c                   8.444(2)
_cell_angle_alpha                90
_cell_angle_beta                 90
_cell_angle_gamma                90
_cell_volume                     898.797
_exptl_crystal_colour            colorless
_cell_formula_units_Z            4
_exptl_crystal_recrystallization_method 'acetone/petroleum ether'
loop_
_atom_site_label
_atom_site_type_symbol
_atom_site_fract_x
_atom_site_fract_y
_atom_site_fract_z
O1 O 0.0000 1.1105(2) 0.2500
C1 C 0.0000 1.0137(3) 0.2500
C2 C 0.1162(3) 0.8470(2) 0.3223(4)
C3 C 0.3529(5) 0.8841(3) 0.4618(6)
O2 O 0.0000 0.7898(2) 0.2500
C4 C 0.1234(3) 0.9508(2) 0.3236(3)
C5 C 0.2477(5) 0.7938(3) 0.4108(5)
C6 C 0.2705(4) 0.9859(3) 0.4128(5)
C2C C -0.1162(3) 0.8470(2) 0.1777(4)
C4C C -0.1234(3) 0.9508(2) 0.1764(3)
C6C C -0.2705(4) 0.9859(3) 0.0872(5)
C3C C -0.3529(5) 0.8841(3) 0.0382(6)
C5C C -0.2477(5) 0.7938(3) 0.0892(5)
loop_
_geom_bond_atom_site_label_1
_geom_bond_atom_site_label_2
_geom_bond_site_symmetry_1
_geom_bond_site_symmetry_2
O1 C1 1_555 1_555
C1 C4 1_555 1_555
C2 O2 1_555 1_555
C3 C5 1_555 1_555
O2 C2C 1_555 1_555
C4 C2 1_555 1_555
C5 C2 1_555 1_555
C6 C3 1_555 1_555
C2C C4C 1_555 1_555
C4C C1 1_555 1_555
C6C C4C 1_555 1_555
C3C C6C 1_555 1_555
C5C C2C 1_555 1_555
C4 C6 1_555 1_555
C3C C5C 1_555 1_555

#END
