
#######################################################################
#
#                 Cambridge Crystallographic Data Centre
#                                CCDC 
#
#######################################################################
#
# If this CIF has been generated from an entry in the Cambridge 
# Structural Database, then it will include bibliographic, chemical, 
# crystal, experimental, refinement or atomic coordinate data resulting 
# from the CCDC's data processing and validation procedures.
#
#######################################################################

data_NATVOW
_chemical_formula_moiety         'C23 H21 N1 O1'
_chemical_name_systematic        
2-((1,3-dimethyl-1H-indol-2-yl)(phenyl)methyl)phenol
_symmetry_cell_setting           orthorhombic
_symmetry_space_group_name_H-M   'P 21 21 21'
_symmetry_Int_Tables_number      19
_space_group_name_Hall           'P 2ac 2ab'
loop_
_symmetry_equiv_pos_site_id
_symmetry_equiv_pos_as_xyz
1 x,y,z
2 1/2-x,-y,1/2+z
3 -x,1/2+y,1/2-z
4 1/2+x,1/2-y,-z
_cell_length_a                   7.5634(4)
_cell_length_b                   8.0407(4)
_cell_length_c                   28.8433(13)
_cell_angle_alpha                90
_cell_angle_beta                 90
_cell_angle_gamma                90
_cell_volume                     1754.11
_exptl_crystal_colour            'light colorless'
_cell_formula_units_Z            4
loop_
_atom_site_label
_atom_site_type_symbol
_atom_site_fract_x
_atom_site_fract_y
_atom_site_fract_z
N1 N 0.6627(3) 0.5044(3) 0.71153(8)
O1 O 0.4551(4) 0.2301(4) 0.58205(10)
C1 C 0.6385(4) 0.5973(4) 0.67147(9)
C2 C 0.7380(4) 0.6046(4) 0.74453(9)
C3 C 0.4444(4) 0.6380(4) 0.60140(10)
C4 C 0.6830(4) 0.4161(4) 0.60066(9)
C5 C 0.8368(4) 0.8893(4) 0.75240(11)
H1 H 0.8563 0.9946 0.7400
C6 C 0.7635(4) 0.7635(4) 0.72513(9)
C7 C 0.6998(4) 0.7559(4) 0.67833(10)
C8 C 0.5531(4) 0.5146(4) 0.62995(9)
H2 H 0.4687 0.4336 0.6424
C9 C 0.6252(5) 0.2748(4) 0.57703(11)
C10 C 0.8575(4) 0.4638(5) 0.59532(10)
H3 H 0.8982 0.5577 0.6109
C11 C 0.2984(5) 0.7117(5) 0.62148(14)
H4 H 0.2662 0.6836 0.6516
C12 C 0.7807(5) 0.5721(5) 0.79070(11)
H5 H 0.7619 0.4675 0.8036
C13 C 0.8515(5) 0.6992(5) 0.81664(11)
H6 H 0.8813 0.6800 0.8475
C14 C 0.8794(5) 0.8561(5) 0.79754(12)
H7 H 0.9279 0.9397 0.8158
C15 C 0.6997(5) 0.9022(4) 0.64602(12)
H8 H 0.7191 0.8645 0.6149
H9 H 0.7923 0.9777 0.6547
H10 H 0.5878 0.9581 0.6478
C16 C 0.6366(5) 0.3278(4) 0.71694(13)
H11 H 0.5347 0.2939 0.6995
H12 H 0.6190 0.3024 0.7491
H13 H 0.7390 0.2697 0.7058
C17 C 0.4856(6) 0.6790(5) 0.55631(11)
H14 H 0.5816 0.6280 0.5420
C18 C 0.7421(7) 0.1868(5) 0.54905(12)
H15 H 0.7040 0.0919 0.5336
C19 C 0.9152(6) 0.2401(6) 0.54423(12)
H16 H 0.9923 0.1825 0.5249
C20 C 0.9727(5) 0.3760(6) 0.56760(12)
H17 H 1.0898 0.4099 0.5649
C21 C 0.1998(6) 0.8273(5) 0.59707(19)
H18 H 0.1031 0.8782 0.6111
C22 C 0.2444(7) 0.8671(6) 0.55227(18)
H19 H 0.1770 0.9438 0.5358
C23 C 0.3877(8) 0.7941(6) 0.53184(15)
H20 H 0.4190 0.8218 0.5016
loop_
_geom_bond_atom_site_label_1
_geom_bond_atom_site_label_2
_geom_bond_site_symmetry_1
_geom_bond_site_symmetry_2
N1 C1 1_555 1_555
O1 C9 1_555 1_555
C1 C7 1_555 1_555
C2 N1 1_555 1_555
C3 C8 1_555 1_555
C4 C8 1_555 1_555
C5 H1 1_555 1_555
C6 C2 1_555 1_555
C7 C6 1_555 1_555
C8 C1 1_555 1_555
H2 C8 1_555 1_555
C9 C4 1_555 1_555
C10 C4 1_555 1_555
H3 C10 1_555 1_555
C11 C3 1_555 1_555
H4 C11 1_555 1_555
C12 C2 1_555 1_555
H5 C12 1_555 1_555
C13 C12 1_555 1_555
H6 C13 1_555 1_555
C14 C5 1_555 1_555
H7 C14 1_555 1_555
C15 C7 1_555 1_555
H8 C15 1_555 1_555
H9 C15 1_555 1_555
H10 C15 1_555 1_555
C16 N1 1_555 1_555
H11 C16 1_555 1_555
H12 C16 1_555 1_555
H13 C16 1_555 1_555
C17 C3 1_555 1_555
H14 C17 1_555 1_555
C18 C9 1_555 1_555
H15 C18 1_555 1_555
C19 C18 1_555 1_555
H16 C19 1_555 1_555
C20 C10 1_555 1_555
H17 C20 1_555 1_555
C21 C11 1_555 1_555
H18 C21 1_555 1_555
C22 C21 1_555 1_555
H19 C22 1_555 1_555
C23 C17 1_555 1_555
H20 C23 1_555 1_555
C5 C6 1_555 1_555
C13 C14 1_555 1_555
C19 C20 1_555 1_555
C22 C23 1_555 1_555

#END
