
#######################################################################
#
#                 Cambridge Crystallographic Data Centre
#                                CCDC 
#
#######################################################################
#
# If this CIF has been generated from an entry in the Cambridge 
# Structural Database, then it will include bibliographic, chemical, 
# crystal, experimental, refinement or atomic coordinate data resulting 
# from the CCDC's data processing and validation procedures.
#
#######################################################################

data_NATWUC
_chemical_formula_moiety         'C9 H9 N2 S1 1+,H2 O4 P1 1-'
_chemical_name_systematic        
'4-Phenyl-1,3-thiazol-2-aminium dihydrogen phosphate'
_symmetry_cell_setting           orthorhombic
_symmetry_space_group_name_H-M   'P b c a'
_symmetry_Int_Tables_number      61
_space_group_name_Hall           '-P 2ac 2ab'
loop_
_symmetry_equiv_pos_site_id
_symmetry_equiv_pos_as_xyz
1 x,y,z
2 1/2-x,-y,1/2+z
3 -x,1/2+y,1/2-z
4 1/2+x,1/2-y,-z
5 -x,-y,-z
6 1/2+x,y,1/2-z
7 x,1/2-y,1/2+z
8 1/2-x,1/2+y,z
_cell_length_a                   10.1929(10)
_cell_length_b                   8.4406(9)
_cell_length_c                   27.589(2)
_cell_angle_alpha                90
_cell_angle_beta                 90
_cell_angle_gamma                90
_cell_volume                     2373.6
_exptl_crystal_colour            colorless
_exptl_crystal_description       block
_cell_formula_units_Z            8
loop_
_atom_site_label
_atom_site_type_symbol
_atom_site_fract_x
_atom_site_fract_y
_atom_site_fract_z
N1 N 0.1145(3) 0.0878(4) 0.60622(12)
N2 N 0.0950(4) 0.1908(5) 0.52791(13)
H1 H 0.0558 0.1077 0.5144
H2 H 0.1472 0.2371 0.5063
H3 H 0.0346 0.2596 0.5379
S1 S 0.33432(11) 0.14567(19) 0.56681(5)
C1 C 0.1656(4) 0.1431(5) 0.56549(15)
C2 C 0.2074(4) 0.0480(5) 0.64128(15)
C3 C 0.3309(4) 0.0712(6) 0.62519(17)
H6 H 0.4055 0.0496 0.6434
C4 C 0.1664(4) -0.0078(5) 0.68924(15)
C5 C 0.0554(4) -0.1018(6) 0.69521(17)
H7 H 0.0046 -0.1287 0.6684
C6 C 0.0202(5) -0.1556(6) 0.74087(18)
H8 H -0.0540 -0.2186 0.7445
C7 C 0.0939(5) -0.1165(6) 0.78093(18)
H9 H 0.0706 -0.1535 0.8115
C8 C 0.2018(5) -0.0228(7) 0.77508(17)
H10 H 0.2516 0.0050 0.8020
C9 C 0.2380(5) 0.0312(6) 0.73012(15)
H11 H 0.3119 0.0951 0.7271
O1 O 0.8553(2) 0.0313(3) 0.60433(10)
O2 O 0.8138(3) 0.2503(4) 0.54420(10)
O3 O 0.6928(3) 0.2411(4) 0.62243(11)
H4 H 0.6812 0.3321 0.6129
O4 O 0.6426(3) 0.0470(4) 0.55962(14)
H5 H 0.6652 -0.0454 0.5557
P1 P 0.75834(10) 0.14283(12) 0.58193(4)
loop_
_geom_bond_atom_site_label_1
_geom_bond_atom_site_label_2
_geom_bond_site_symmetry_1
_geom_bond_site_symmetry_2
N1 C1 1_555 1_555
N2 H1 1_555 1_555
H2 N2 1_555 1_555
H3 N2 1_555 1_555
O1 P1 1_555 1_555
O2 P1 1_555 1_555
O3 H4 1_555 1_555
O4 H5 1_555 1_555
P1 O3 1_555 1_555
S1 C1 1_555 1_555
C1 N2 1_555 1_555
C2 N1 1_555 1_555
C3 S1 1_555 1_555
H6 C3 1_555 1_555
C4 C2 1_555 1_555
C5 C4 1_555 1_555
H7 C5 1_555 1_555
C6 C5 1_555 1_555
H8 C6 1_555 1_555
C7 C6 1_555 1_555
H9 C7 1_555 1_555
C8 C7 1_555 1_555
H10 C8 1_555 1_555
C9 C4 1_555 1_555
H11 C9 1_555 1_555
O4 P1 1_555 1_555
C2 C3 1_555 1_555
C8 C9 1_555 1_555

#END
