
#######################################################################
#
#                 Cambridge Crystallographic Data Centre
#                                CCDC 
#
#######################################################################
#
# If this CIF has been generated from an entry in the Cambridge 
# Structural Database, then it will include bibliographic, chemical, 
# crystal, experimental, refinement or atomic coordinate data resulting 
# from the CCDC's data processing and validation procedures.
#
#######################################################################

data_NATYIT
_chemical_name_common            HFF-3
_chemical_formula_moiety         'C126 H84 O48,6(C4 H10 O1)'
_chemical_name_systematic        
'hexakis(1,3-bis(3-carboxypropoxy)-1,3-dioxopropane-2,2-diyl)-C60-fullerene diethyl ether solvate'
_symmetry_cell_setting           rhombohedral
_symmetry_space_group_name_H-M   'R -3'
_symmetry_Int_Tables_number      148
_space_group_name_Hall           '-R 3'
loop_
_symmetry_equiv_pos_site_id
_symmetry_equiv_pos_as_xyz
1 x,y,z
2 -y,x-y,z
3 -x+y,-x,z
4 2/3+x,1/3+y,1/3+z
5 2/3-y,1/3+x-y,1/3+z
6 2/3-x+y,1/3-x,1/3+z
7 1/3+x,2/3+y,2/3+z
8 1/3-y,2/3+x-y,2/3+z
9 1/3-x+y,2/3-x,2/3+z
10 -x,-y,-z
11 y,-x+y,-z
12 x-y,x,-z
13 1/3-x,2/3-y,2/3-z
14 1/3+y,2/3-x+y,2/3-z
15 1/3+x-y,2/3+x,2/3-z
16 2/3-x,1/3-y,1/3-z
17 2/3+y,1/3-x+y,1/3-z
18 2/3+x-y,1/3+x,1/3-z
_cell_length_a                   33.8114(9)
_cell_length_b                   33.8114(9)
_cell_length_c                   9.8056(3)
_cell_angle_alpha                90
_cell_angle_beta                 90
_cell_angle_gamma                120
_cell_volume                     9708.03
_exptl_crystal_colour            yellow
_exptl_crystal_description       block
_cell_formula_units_Z            3
loop_
_atom_site_label
_atom_site_type_symbol
_atom_site_fract_x
_atom_site_fract_y
_atom_site_fract_z
C1 C 0.62997(6) 0.28791(5) 0.00174(16)
C2 C 0.62131(5) 0.32397(6) 0.00498(16)
C3 C 0.58493(5) 0.32206(6) 0.09052(17)
C4 C 0.55775(5) 0.28410(6) 0.17092(17)
C5 C 0.54767(5) 0.29047(5) 0.30770(17)
C6 C 0.56205(5) 0.33429(6) 0.35678(17)
C7 C 0.58934(5) 0.37285(6) 0.27290(17)
C8 C 0.59955(5) 0.36676(6) 0.14070(17)
C9 C 0.64304(6) 0.39935(5) 0.07276(16)
C10 C 0.57534(5) 0.34738(5) 0.50179(17)
C11 C 0.54279(6) 0.32527(6) 0.62112(17)
C12 C 0.54880(6) 0.35181(6) 0.75050(18)
C13 C 0.50915(7) 0.35915(8) 0.9390(2)
H1 H 0.5285 0.3927 0.9296
H2 H 0.5218 0.3488 1.0131
C14 C 0.46086(7) 0.34658(8) 0.9710(2)
H3 H 0.4600 0.3593 1.0612
H4 H 0.4418 0.3129 0.9765
C15 C 0.44076(7) 0.36431(8) 0.8642(2)
H5 H 0.4582 0.3981 0.8647
H6 H 0.4443 0.3539 0.7729
C16 C 0.39123(7) 0.34856(7) 0.8876(2)
C17 C 0.49333(6) 0.29437(6) 0.57893(17)
C18 C 0.43017(6) 0.29687(7) 0.4826(2)
H7 H 0.4177 0.3178 0.4880
H8 H 0.4116 0.2704 0.5425
C19 C 0.42713(7) 0.28063(7) 0.3369(2)
H9 H 0.4374 0.2579 0.3331
H10 H 0.4478 0.3068 0.2786
C20 C 0.37845(7) 0.25920(7) 0.2816(2)
H11 H 0.3768 0.2439 0.1939
H12 H 0.3574 0.2355 0.3463
C21 C 0.36276(7) 0.29305(7) 0.2597(2)
O1 O 0.58468(4) 0.38152(5) 0.79337(13)
O2 O 0.50834(4) 0.33665(5) 0.81101(13)
O3 O 0.37597(5) 0.37452(5) 0.88674(17)
O4 O 0.36599(5) 0.30457(5) 0.9074(2)
H13 H 0.3383 0.2973 0.9085
O5 O 0.47222(4) 0.25352(4) 0.58661(14)
O6 O 0.47726(4) 0.32043(4) 0.52938(13)
O7 O 0.31858(5) 0.27400(5) 0.23915(17)
H14 H 0.3115 0.2944 0.2311
O8 O 0.38864(5) 0.33431(5) 0.25900(16)
C1A C 0.71209(5) 0.34206(8) 0.00174(16)
C2A C 0.67603(6) 0.29734(8) 0.00498(16)
C3A C 0.67794(6) 0.26287(8) 0.09052(17)
C4A C 0.71590(6) 0.27365(8) 0.17092(17)
C5A C 0.70953(5) 0.25720(7) 0.30770(17)
C6A C 0.66571(6) 0.22776(8) 0.35678(17)
C7A C 0.62715(6) 0.21649(8) 0.27290(17)
C8A C 0.63324(6) 0.23279(8) 0.14070(17)
C9A C 0.60065(5) 0.24369(8) 0.07276(16)
C10A C 0.65262(5) 0.22796(7) 0.50179(17)
C11A C 0.67473(6) 0.21752(8) 0.62112(17)
C12A C 0.64819(6) 0.19699(8) 0.75050(18)
C13A C 0.64085(8) 0.15000(11) 0.9390(2)
H1A H 0.6073 0.1358 0.9296
H2A H 0.6512 0.1730 1.0131
C14A C 0.65342(8) 0.11428(11) 0.9710(2)
H3A H 0.6407 0.1007 1.0612
H4A H 0.6871 0.1289 0.9765
C15A C 0.63569(8) 0.07645(11) 0.8642(2)
H5A H 0.6019 0.0601 0.8647
H6A H 0.6461 0.0904 0.7729
C16A C 0.65144(7) 0.04267(10) 0.8876(2)
C17A C 0.70563(6) 0.19896(8) 0.57893(17)
C18A C 0.70313(7) 0.13330(9) 0.4826(2)
H7A H 0.6822 0.0999 0.4880
H8A H 0.7296 0.1412 0.5425
C19A C 0.71937(7) 0.14650(10) 0.3369(2)
H9A H 0.7421 0.1795 0.3331
H10A H 0.6932 0.1410 0.2786
C20A C 0.74080(7) 0.11925(10) 0.2816(2)
H11A H 0.7561 0.1329 0.1939
H12A H 0.7645 0.1219 0.3463
C21A C 0.70695(7) 0.06971(10) 0.2597(2)
O1A O 0.61848(5) 0.20316(6) 0.79337(13)
O2A O 0.66335(5) 0.17169(6) 0.81101(13)
O3A O 0.62548(5) 0.00145(7) 0.88674(17)
O4A O 0.69543(5) 0.06142(7) 0.9074(2)
H13A H 0.7027 0.0410 0.9085
O5A O 0.74648(4) 0.21870(6) 0.58661(14)
O6A O 0.67957(4) 0.15683(6) 0.52938(13)
O7A O 0.72600(5) 0.04458(7) 0.23915(17)
H14A H 0.7056 0.0171 0.2311
O8A O 0.66569(5) 0.05433(7) 0.25900(16)
C1B C 0.65794(8) 0.37003(6) 0.00174(16)
C2B C 0.70266(8) 0.37869(5) 0.00498(16)
C3B C 0.73713(8) 0.41507(5) 0.09052(17)
C4B C 0.72635(8) 0.44225(5) 0.17092(17)
C5B C 0.74280(7) 0.45233(5) 0.30770(17)
C6B C 0.77224(8) 0.43795(5) 0.35678(17)
C7B C 0.78351(8) 0.41066(5) 0.27290(17)
C8B C 0.76721(8) 0.40045(5) 0.14070(17)
C9B C 0.75631(8) 0.35696(6) 0.07276(16)
C10B C 0.77204(7) 0.42466(5) 0.50179(17)
C11B C 0.78248(8) 0.45721(6) 0.62112(17)
C12B C 0.80301(8) 0.45120(6) 0.75050(18)
C13B C 0.85000(11) 0.49085(7) 0.9390(2)
H1B H 0.8642 0.4715 0.9296
H2B H 0.8270 0.4782 1.0131
C14B C 0.88572(11) 0.53914(7) 0.9710(2)
H3B H 0.8993 0.5400 1.0612
H4B H 0.8711 0.5582 0.9765
C15B C 0.92355(11) 0.55924(7) 0.8642(2)
H5B H 0.9399 0.5418 0.8647
H6B H 0.9096 0.5557 0.7729
C16B C 0.95733(10) 0.60877(7) 0.8876(2)
C17B C 0.80104(8) 0.50667(6) 0.57893(17)
C18B C 0.86670(9) 0.56983(6) 0.4826(2)
H7B H 0.9001 0.5823 0.4880
H8B H 0.8588 0.5884 0.5425
C19B C 0.85350(10) 0.57287(7) 0.3369(2)
H9B H 0.8205 0.5626 0.3331
H10B H 0.8590 0.5522 0.2786
C20B C 0.88075(10) 0.62155(7) 0.2816(2)
H11B H 0.8671 0.6232 0.1939
H12B H 0.8781 0.6426 0.3463
C21B C 0.93029(10) 0.63724(7) 0.2597(2)
O1B O 0.79684(6) 0.41532(4) 0.79337(13)
O2B O 0.82831(6) 0.49166(4) 0.81101(13)
O3B O 0.99855(7) 0.62403(5) 0.88674(17)
O4B O 0.93858(7) 0.63401(5) 0.9074(2)
H13B H 0.9590 0.6617 0.9085
O5B O 0.78130(6) 0.52778(4) 0.58661(14)
O6B O 0.84317(6) 0.52274(4) 0.52938(13)
O7B O 0.95542(7) 0.68142(5) 0.23915(17)
H14B H 0.9829 0.6885 0.2311
O8B O 0.94567(7) 0.61136(5) 0.25900(16)
C1L C 0.70336(6) 0.37876(5) 0.66493(16)
C2L C 0.71202(5) 0.34270(6) 0.66169(16)
C3L C 0.74840(5) 0.34461(6) 0.57615(17)
C4L C 0.77558(5) 0.38257(6) 0.49575(17)
C5L C 0.78566(5) 0.37620(5) 0.35897(17)
C6L C 0.77128(5) 0.33238(6) 0.30989(17)
C7L C 0.74399(5) 0.29382(6) 0.39377(17)
C8L C 0.73378(5) 0.29991(6) 0.52597(17)
C9L C 0.69029(6) 0.26732(5) 0.59391(16)
C10L C 0.75799(5) 0.31929(5) 0.16488(17)
C11L C 0.79054(6) 0.34140(6) 0.04555(17)
C12L C 0.78453(6) 0.31486(6) -0.08383(18)
C13L C 0.82418(7) 0.30752(8) -0.2723(2)
H1L H 0.8048 0.2740 -0.2629
H2L H 0.8115 0.3179 -0.3464
C14L C 0.87247(7) 0.32009(8) -0.3043(2)
H3L H 0.8733 0.3074 -0.3945
H4L H 0.8915 0.3538 -0.3098
C15L C 0.89257(7) 0.30236(8) -0.1975(2)
H5L H 0.8751 0.2686 -0.1980
H6L H 0.8890 0.3128 -0.1062
C16L C 0.94210(7) 0.31811(7) -0.2209(2)
C17L C 0.84000(6) 0.37230(6) 0.08774(17)
C18L C 0.90316(6) 0.36980(7) 0.1841(2)
H7L H 0.9156 0.3489 0.1787
H8L H 0.9217 0.3963 0.1242
C19L C 0.90620(7) 0.38604(7) 0.3298(2)
H9L H 0.8959 0.4088 0.3336
H10L H 0.8855 0.3599 0.3881
C20L C 0.95488(7) 0.40747(7) 0.3851(2)
H11L H 0.9565 0.4228 0.4728
H12L H 0.9759 0.4312 0.3204
C21L C 0.97057(7) 0.37362(7) 0.4070(2)
O1L O 0.74865(4) 0.28515(5) -0.12670(13)
O2L O 0.82499(4) 0.33002(5) -0.14434(13)
O3L O 0.95736(5) 0.29215(5) -0.22007(17)
O4L O 0.96734(5) 0.36210(5) -0.2407(2)
H13L H 0.9950 0.3694 -0.2418
O5L O 0.86111(4) 0.41315(4) 0.08006(14)
O6L O 0.85607(4) 0.34624(4) 0.13729(13)
O7L O 1.01475(5) 0.39267(5) 0.42752(17)
H14L H 1.0218 0.3723 0.4356
O8L O 0.94469(5) 0.33236(5) 0.40767(16)
C1M C 0.62124(5) 0.32461(8) 0.66493(16)
C2M C 0.65730(6) 0.36933(8) 0.66169(16)
C3M C 0.65539(6) 0.40380(8) 0.57615(17)
C4M C 0.61743(6) 0.39302(8) 0.49575(17)
C5M C 0.62380(5) 0.40947(7) 0.35897(17)
C6M C 0.66762(6) 0.43891(8) 0.30989(17)
C7M C 0.70618(6) 0.45018(8) 0.39377(17)
C8M C 0.70009(6) 0.43388(8) 0.52597(17)
C9M C 0.73268(5) 0.42298(8) 0.59391(16)
C10M C 0.68071(5) 0.43871(7) 0.16488(17)
C11M C 0.65860(6) 0.44915(8) 0.04555(17)
C12M C 0.68514(6) 0.46968(8) -0.08383(18)
C13M C 0.69248(8) 0.51667(11) -0.2723(2)
H1M H 0.7260 0.5309 -0.2629
H2M H 0.6821 0.4937 -0.3464
C14M C 0.67991(8) 0.55239(11) -0.3043(2)
H3M H 0.6926 0.5660 -0.3945
H4M H 0.6462 0.5378 -0.3098
C15M C 0.69764(8) 0.59022(11) -0.1975(2)
H5M H 0.7314 0.6066 -0.1980
H6M H 0.6872 0.5763 -0.1062
C16M C 0.68189(7) 0.62400(10) -0.2209(2)
C17M C 0.62770(6) 0.46771(8) 0.08774(17)
C18M C 0.63020(7) 0.53337(9) 0.1841(2)
H7M H 0.6511 0.5668 0.1787
H8M H 0.6037 0.5255 0.1242
C19M C 0.61396(7) 0.52017(10) 0.3298(2)
H9M H 0.5912 0.4872 0.3336
H10M H 0.6401 0.5257 0.3881
C20M C 0.59253(7) 0.54742(10) 0.3851(2)
H11M H 0.5772 0.5338 0.4728
H12M H 0.5688 0.5448 0.3204
C21M C 0.62638(7) 0.59696(10) 0.4070(2)
O1M O 0.71485(5) 0.46351(6) -0.12670(13)
O2M O 0.66998(5) 0.49498(6) -0.14434(13)
O3M O 0.70785(5) 0.66522(7) -0.22007(17)
O4M O 0.63790(5) 0.60525(7) -0.2407(2)
H13M H 0.6306 0.6257 -0.2418
O5M O 0.58685(4) 0.44797(6) 0.08006(14)
O6M O 0.65376(4) 0.50984(6) 0.13729(13)
O7M O 0.60733(5) 0.62209(7) 0.42752(17)
H14M H 0.6277 0.6496 0.4356
O8M O 0.66764(5) 0.61234(7) 0.40767(16)
C1N C 0.67539(8) 0.29664(6) 0.66493(16)
C2N C 0.63067(8) 0.28798(5) 0.66169(16)
C3N C 0.59620(8) 0.25160(5) 0.57615(17)
C4N C 0.60698(8) 0.22442(5) 0.49575(17)
C5N C 0.59053(7) 0.21434(5) 0.35897(17)
C6N C 0.56109(8) 0.22872(5) 0.30989(17)
C7N C 0.54982(8) 0.25601(5) 0.39377(17)
C8N C 0.56612(8) 0.26622(5) 0.52597(17)
C9N C 0.57702(8) 0.30971(6) 0.59391(16)
C10N C 0.56129(7) 0.24201(5) 0.16488(17)
C11N C 0.55085(8) 0.20946(6) 0.04555(17)
C12N C 0.53032(8) 0.21547(6) -0.08383(18)
C13N C 0.48333(11) 0.17582(7) -0.2723(2)
H1N H 0.4691 0.1952 -0.2629
H2N H 0.5063 0.1885 -0.3464
C14N C 0.44761(11) 0.12753(7) -0.3043(2)
H3N H 0.4340 0.1267 -0.3945
H4N H 0.4622 0.1085 -0.3098
C15N C 0.40978(11) 0.10743(7) -0.1975(2)
H5N H 0.3934 0.1249 -0.1980
H6N H 0.4237 0.1110 -0.1062
C16N C 0.37600(10) 0.05790(7) -0.2209(2)
C17N C 0.53229(8) 0.16000(6) 0.08774(17)
C18N C 0.46663(9) 0.09684(6) 0.1841(2)
H7N H 0.4332 0.0844 0.1787
H8N H 0.4745 0.0783 0.1242
C19N C 0.47983(10) 0.09380(7) 0.3298(2)
H9N H 0.5128 0.1041 0.3336
H10N H 0.4743 0.1145 0.3881
C20N C 0.45258(10) 0.04512(7) 0.3851(2)
H11N H 0.4662 0.0435 0.4728
H12N H 0.4552 0.0241 0.3204
C21N C 0.40304(10) 0.02943(7) 0.4070(2)
O1N O 0.53649(6) 0.25135(4) -0.12670(13)
O2N O 0.50502(6) 0.17501(4) -0.14434(13)
O3N O 0.33478(7) 0.04264(5) -0.22007(17)
O4N O 0.39475(7) 0.03266(5) -0.2407(2)
H13N H 0.3743 0.0050 -0.2418
O5N O 0.55203(6) 0.13889(4) 0.08006(14)
O6N O 0.49016(6) 0.14393(4) 0.13729(13)
O7N O 0.37791(7) -0.01475(5) 0.42752(17)
H14N H 0.3504 -0.0218 0.4356
O8N O 0.38766(7) 0.05531(5) 0.40767(16)
C22 C 0.4708(2) 0.4683(2) 0.1407(7)
H15 H 0.4613 0.4432 0.2057
H16 H 0.5040 0.4840 0.1292
H17 H 0.4559 0.4562 0.0526
C23 C 0.45635(12) 0.50321(12) 0.1966(4)
H18 H 0.4634 0.5274 0.1282
H19 H 0.4231 0.4872 0.2155
O9 O 0.48022(12) 0.52177(12) 0.3129(4)
C24 C 0.46573(17) 0.55044(17) 0.3768(6)
H20 H 0.4326 0.5326 0.3958
H21 H 0.4714 0.5759 0.3150
C25 C 0.49069(17) 0.56858(16) 0.5038(6)
H22 H 0.4872 0.5433 0.5613
H23 H 0.4785 0.5856 0.5519
H24 H 0.5231 0.5890 0.4837
C22I C 0.5292(2) 0.5317(2) 0.8593(7)
H15I H 0.5387 0.5568 0.7943
H16I H 0.4960 0.5160 0.8708
H17I H 0.5441 0.5438 0.9474
C23I C 0.54365(12) 0.49679(12) 0.8034(4)
H18I H 0.5366 0.4726 0.8718
H19I H 0.5769 0.5128 0.7845
O9I O 0.51978(12) 0.47823(12) 0.6871(4)
C24I C 0.53427(17) 0.44956(17) 0.6232(6)
H20I H 0.5674 0.4674 0.6042
H21I H 0.5286 0.4241 0.6850
C25I C 0.50931(17) 0.43142(16) 0.4962(6)
H22I H 0.5128 0.4567 0.4387
H23I H 0.5215 0.4144 0.4481
H24I H 0.4769 0.4110 0.5163
C26? C 0.4908(3) 0.4264(3) 0.3429(9)
H25? H 0.5127 0.4479 0.4090
H26? H 0.5034 0.4090 0.3001
H27? H 0.4622 0.4054 0.3897
C27? C 0.4813(2) 0.4527(3) 0.2339(9)
H28? H 0.5087 0.4702 0.1762
H29? H 0.4558 0.4312 0.1749
O10? O 0.46958(19) 0.48333(18) 0.3016(5)
H30? H 0.4282 0.4803 0.1495
H31? H 0.4810 0.5195 0.1289
C28? C 0.4472(3) 0.5395(3) 0.2913(11)
H32? H 0.4293 0.5236 0.3723
H33? H 0.4303 0.5506 0.2371
H34? H 0.4766 0.5654 0.3194
loop_
_geom_bond_atom_site_label_1
_geom_bond_atom_site_label_2
_geom_bond_site_symmetry_1
_geom_bond_site_symmetry_2
C1 C2 1_555 1_555
C2 C3 1_555 1_555
C3 C4 1_555 1_555
C4 C5 1_555 1_555
C5 C6 1_555 1_555
C6 C7 1_555 1_555
C7 C8 1_555 1_555
C8 C3 1_555 1_555
C9 C8 1_555 1_555
C10 C6 1_555 1_555
C11 C10 1_555 1_555
C12 C11 1_555 1_555
C13 H1 1_555 1_555
H2 C13 1_555 1_555
C14 C13 1_555 1_555
H3 C14 1_555 1_555
H4 C14 1_555 1_555
C15 C14 1_555 1_555
H5 C15 1_555 1_555
H6 C15 1_555 1_555
C16 C15 1_555 1_555
C17 C11 1_555 1_555
C18 H7 1_555 1_555
H8 C18 1_555 1_555
C19 C18 1_555 1_555
H9 C19 1_555 1_555
H10 C19 1_555 1_555
C20 C19 1_555 1_555
H11 C20 1_555 1_555
H12 C20 1_555 1_555
C21 C20 1_555 1_555
O1 C12 1_555 1_555
O2 C12 1_555 1_555
O3 C16 1_555 1_555
O4 C16 1_555 1_555
H13 O4 1_555 1_555
O5 C17 1_555 1_555
O6 C17 1_555 1_555
O7 C21 1_555 1_555
H14 O7 1_555 1_555
O8 C21 1_555 1_555
C22 H15 1_555 1_555
H16 C22 1_555 1_555
H17 C22 1_555 1_555
C23 C22 1_555 1_555
H18 C23 1_555 1_555
H19 C23 1_555 1_555
O9 C23 1_555 1_555
C24 O9 1_555 1_555
H20 C24 1_555 1_555
H21 C24 1_555 1_555
C25 C24 1_555 1_555
H22 C25 1_555 1_555
H23 C25 1_555 1_555
H24 C25 1_555 1_555
C1A C2A 1_555 1_555
C2A C1 1_555 1_555
C3A C2A 1_555 1_555
C4A C3A 1_555 1_555
C5A C4A 1_555 1_555
C6A C5A 1_555 1_555
C7A C6A 1_555 1_555
C8A C3A 1_555 1_555
C9A C1 1_555 1_555
C10A C6A 1_555 1_555
C11A C10A 1_555 1_555
C12A C11A 1_555 1_555
C13A H1A 1_555 1_555
H2A C13A 1_555 1_555
C14A C13A 1_555 1_555
H3A C14A 1_555 1_555
H4A C14A 1_555 1_555
C15A C14A 1_555 1_555
H5A C15A 1_555 1_555
H6A C15A 1_555 1_555
C16A C15A 1_555 1_555
C17A C11A 1_555 1_555
C18A H7A 1_555 1_555
H8A C18A 1_555 1_555
C19A C18A 1_555 1_555
H9A C19A 1_555 1_555
H10A C19A 1_555 1_555
C20A C19A 1_555 1_555
H11A C20A 1_555 1_555
H12A C20A 1_555 1_555
C21A C20A 1_555 1_555
O1A C12A 1_555 1_555
O2A C12A 1_555 1_555
O3A C16A 1_555 1_555
O4A C16A 1_555 1_555
H13A O4A 1_555 1_555
O5A C17A 1_555 1_555
O6A C17A 1_555 1_555
O7A C21A 1_555 1_555
H14A O7A 1_555 1_555
O8A C21A 1_555 1_555
C1B C2 1_555 1_555
C2B C1A 1_555 1_555
C3B C2B 1_555 1_555
C4B C3B 1_555 1_555
C5B C4B 1_555 1_555
C6B C5B 1_555 1_555
C7B C6B 1_555 1_555
C8B C3B 1_555 1_555
C9B C1A 1_555 1_555
C10B C6B 1_555 1_555
C11B C10B 1_555 1_555
C12B C11B 1_555 1_555
C13B H1B 1_555 1_555
H2B C13B 1_555 1_555
C14B C13B 1_555 1_555
H3B C14B 1_555 1_555
H4B C14B 1_555 1_555
C15B C14B 1_555 1_555
H5B C15B 1_555 1_555
H6B C15B 1_555 1_555
C16B C15B 1_555 1_555
C17B C11B 1_555 1_555
C18B H7B 1_555 1_555
H8B C18B 1_555 1_555
C19B C18B 1_555 1_555
H9B C19B 1_555 1_555
H10B C19B 1_555 1_555
C20B C19B 1_555 1_555
H11B C20B 1_555 1_555
H12B C20B 1_555 1_555
C21B C20B 1_555 1_555
O1B C12B 1_555 1_555
O2B C12B 1_555 1_555
O3B C16B 1_555 1_555
O4B C16B 1_555 1_555
H13B O4B 1_555 1_555
O5B C17B 1_555 1_555
O6B C17B 1_555 1_555
O7B C21B 1_555 1_555
H14B O7B 1_555 1_555
O8B C21B 1_555 1_555
C1L C2L 1_555 1_555
C2L C3L 1_555 1_555
C3L C4L 1_555 1_555
C4L C10B 1_555 1_555
C5L C7B 1_555 1_555
C6L C5L 1_555 1_555
C7L C5A 1_555 1_555
C8L C3L 1_555 1_555
C9L C10A 1_555 1_555
C10L C4A 1_555 1_555
C11L C9B 1_555 1_555
C12L C11L 1_555 1_555
C13L H1L 1_555 1_555
H2L C13L 1_555 1_555
C14L C13L 1_555 1_555
H3L C14L 1_555 1_555
H4L C14L 1_555 1_555
C15L C14L 1_555 1_555
H5L C15L 1_555 1_555
H6L C15L 1_555 1_555
C16L C15L 1_555 1_555
C17L C11L 1_555 1_555
C18L H7L 1_555 1_555
H8L C18L 1_555 1_555
C19L C18L 1_555 1_555
H9L C19L 1_555 1_555
H10L C19L 1_555 1_555
C20L C19L 1_555 1_555
H11L C20L 1_555 1_555
H12L C20L 1_555 1_555
C21L C20L 1_555 1_555
O1L C12L 1_555 1_555
O2L C12L 1_555 1_555
O3L C16L 1_555 1_555
O4L C16L 1_555 1_555
H13L O4L 1_555 1_555
O5L C17L 1_555 1_555
O6L C17L 1_555 1_555
O7L C21L 1_555 1_555
H14L O7L 1_555 1_555
O8L C21L 1_555 1_555
C1M C2M 1_555 1_555
C2M C1L 1_555 1_555
C3M C2M 1_555 1_555
C4M C10 1_555 1_555
C5M C7 1_555 1_555
C6M C5M 1_555 1_555
C7M C5B 1_555 1_555
C8M C3M 1_555 1_555
C9M C10B 1_555 1_555
C10M C9 1_555 1_555
C11M C9 1_555 1_555
C12M C11M 1_555 1_555
C13M H1M 1_555 1_555
H2M C13M 1_555 1_555
C14M C13M 1_555 1_555
H3M C14M 1_555 1_555
H4M C14M 1_555 1_555
C15M C14M 1_555 1_555
H5M C15M 1_555 1_555
H6M C15M 1_555 1_555
C16M C15M 1_555 1_555
C17M C11M 1_555 1_555
C18M H7M 1_555 1_555
H8M C18M 1_555 1_555
C19M C18M 1_555 1_555
H9M C19M 1_555 1_555
H10M C19M 1_555 1_555
C20M C19M 1_555 1_555
H11M C20M 1_555 1_555
H12M C20M 1_555 1_555
C21M C20M 1_555 1_555
O1M C12M 1_555 1_555
O2M C12M 1_555 1_555
O3M C16M 1_555 1_555
O4M C16M 1_555 1_555
H13M O4M 1_555 1_555
O5M C17M 1_555 1_555
O6M C17M 1_555 1_555
O7M C21M 1_555 1_555
H14M O7M 1_555 1_555
O8M C21M 1_555 1_555
C1N C2L 1_555 1_555
C2N C1M 1_555 1_555
C3N C2N 1_555 1_555
C4N C10A 1_555 1_555
C5N C7A 1_555 1_555
C6N C5N 1_555 1_555
C7N C5 1_555 1_555
C8N C3N 1_555 1_555
C9N C10 1_555 1_555
C10N C4 1_555 1_555
C11N C9A 1_555 1_555
C12N C11N 1_555 1_555
C13N H1N 1_555 1_555
H2N C13N 1_555 1_555
C14N C13N 1_555 1_555
H3N C14N 1_555 1_555
H4N C14N 1_555 1_555
C15N C14N 1_555 1_555
H5N C15N 1_555 1_555
H6N C15N 1_555 1_555
C16N C15N 1_555 1_555
C17N C11N 1_555 1_555
C18N H7N 1_555 1_555
H8N C18N 1_555 1_555
C19N C18N 1_555 1_555
H9N C19N 1_555 1_555
H10N C19N 1_555 1_555
C20N C19N 1_555 1_555
H11N C20N 1_555 1_555
H12N C20N 1_555 1_555
C21N C20N 1_555 1_555
O1N C12N 1_555 1_555
O2N C12N 1_555 1_555
O3N C16N 1_555 1_555
O4N C16N 1_555 1_555
H13N O4N 1_555 1_555
O5N C17N 1_555 1_555
O6N C17N 1_555 1_555
O7N C21N 1_555 1_555
H14N O7N 1_555 1_555
O8N C21N 1_555 1_555
C22I H15I 1_555 1_555
H16I C22I 1_555 1_555
H17I C22I 1_555 1_555
C23I C22I 1_555 1_555
H18I C23I 1_555 1_555
H19I C23I 1_555 1_555
O9I C23I 1_555 1_555
C24I O9I 1_555 1_555
H20I C24I 1_555 1_555
H21I C24I 1_555 1_555
C25I C24I 1_555 1_555
H22I C25I 1_555 1_555
H23I C25I 1_555 1_555
H24I C25I 1_555 1_555
C9 C1B 1_555 1_555
C11 C9N 1_555 1_555
C13 O2 1_555 1_555
C18 O6 1_555 1_555
C7A C8A 1_555 1_555
C8A C9A 1_555 1_555
C9A C10N 1_555 1_555
C11A C9L 1_555 1_555
C13A O2A 1_555 1_555
C18A O6A 1_555 1_555
C1B C2B 1_555 1_555
C4B C10M 1_555 1_555
C7B C8B 1_555 1_555
C8B C9B 1_555 1_555
C9B C10L 1_555 1_555
C11B C9M 1_555 1_555
C13B O2B 1_555 1_555
C18B O6B 1_555 1_555
C1L C9M 1_555 1_555
C4L C5L 1_555 1_555
C6L C7L 1_555 1_555
C6L C10L 1_555 1_555
C7L C8L 1_555 1_555
C8L C9L 1_555 1_555
C9L C1N 1_555 1_555
C10L C11L 1_555 1_555
C13L O2L 1_555 1_555
C18L O6L 1_555 1_555
C1M C9N 1_555 1_555
C3M C4M 1_555 1_555
C4M C5M 1_555 1_555
C6M C7M 1_555 1_555
C6M C10M 1_555 1_555
C7M C8M 1_555 1_555
C8M C9M 1_555 1_555
C10M C11M 1_555 1_555
C13M O2M 1_555 1_555
C18M O6M 1_555 1_555
C1N C2N 1_555 1_555
C3N C4N 1_555 1_555
C4N C5N 1_555 1_555
C6N C7N 1_555 1_555
C6N C10N 1_555 1_555
C7N C8N 1_555 1_555
C8N C9N 1_555 1_555
C10N C11N 1_555 1_555
C13N O2N 1_555 1_555
C18N O6N 1_555 1_555

#END
