
#######################################################################
#
#                 Cambridge Crystallographic Data Centre
#                                CCDC 
#
#######################################################################
#
# If this CIF has been generated from an entry in the Cambridge 
# Structural Database, then it will include bibliographic, chemical, 
# crystal, experimental, refinement or atomic coordinate data resulting 
# from the CCDC's data processing and validation procedures.
#
#######################################################################

data_NAVGID
_chemical_formula_moiety         'C24 H24 N2 O2'
_chemical_name_systematic        
2,2'-((2,5-diethoxy-1,4-phenylene)di(ethene-2,1-diyl))dipyridine
_symmetry_cell_setting           monoclinic
_symmetry_space_group_name_H-M   'P 21/c'
_symmetry_Int_Tables_number      14
_space_group_name_Hall           '-P 2ybc'
loop_
_symmetry_equiv_pos_site_id
_symmetry_equiv_pos_as_xyz
1 x,y,z
2 -x,1/2+y,1/2-z
3 -x,-y,-z
4 x,1/2-y,1/2+z
_cell_length_a                   9.0956(18)
_cell_length_b                   7.4724(15)
_cell_length_c                   15.104(3)
_cell_angle_alpha                90
_cell_angle_beta                 93.690(2)
_cell_angle_gamma                90
_cell_volume                     1024.43
_exptl_crystal_colour            yellow
_exptl_crystal_description       bulk
_cell_formula_units_Z            2
loop_
_atom_site_label
_atom_site_type_symbol
_atom_site_fract_x
_atom_site_fract_y
_atom_site_fract_z
C1 C 0.38150(15) 0.08500(18) 0.03936(9)
O1 O 0.51705(11) 0.09143(15) 0.17732(6)
C2 C 0.51258(15) 0.0437(2) 0.08993(9)
C3 C 0.37328(15) 0.0399(2) -0.05057(9)
H1 H 0.2879 0.0673 -0.0851
C4 C 0.25983(15) 0.1712(2) 0.08124(10)
H2 H 0.2786 0.2083 0.1396
C5 C 0.00962(15) 0.2980(2) 0.08841(10)
N1 N 0.04100(14) 0.3575(2) 0.17168(9)
C6 C 0.12545(15) 0.2024(2) 0.04522(10)
H3 H 0.1032 0.1602 -0.0120
C7 C -0.12631(17) 0.3265(3) 0.04413(12)
H4 H -0.1467 0.2811 -0.0127
C8 C 0.64500(16) 0.0446(2) 0.23268(9)
H5 H 0.7324 0.0963 0.2093
H6 H 0.6567 -0.0844 0.2347
C9 C -0.23164(19) 0.4240(3) 0.08598(14)
H7 H -0.3231 0.4468 0.0571
C10 C -0.1999(2) 0.4855(3) 0.16895(16)
H8 H -0.2688 0.5517 0.1980
C11 C -0.0631(2) 0.4485(3) 0.20993(14)
H9 H -0.0427 0.4895 0.2675
C12 C 0.62470(19) 0.1162(3) 0.32404(11)
H10 H 0.6148 0.2441 0.3214
H11 H 0.7087 0.0854 0.3627
H12 H 0.5376 0.0651 0.3463
C1B C 0.61850(15) -0.08500(18) -0.03936(9)
O1B O 0.48295(11) -0.09143(15) -0.17732(6)
C2B C 0.48742(15) -0.0437(2) -0.08993(9)
C3B C 0.62672(15) -0.0399(2) 0.05057(9)
H1B H 0.7121 -0.0673 0.0851
C4B C 0.74017(15) -0.1712(2) -0.08124(10)
H2B H 0.7214 -0.2083 -0.1396
C5B C 0.99038(15) -0.2980(2) -0.08841(10)
N1B N 0.95900(14) -0.3575(2) -0.17168(9)
C6B C 0.87455(15) -0.2024(2) -0.04522(10)
H3B H 0.8968 -0.1602 0.0120
C7B C 1.12631(17) -0.3265(3) -0.04413(12)
H4B H 1.1467 -0.2811 0.0127
C8B C 0.35500(16) -0.0446(2) -0.23268(9)
H5B H 0.2676 -0.0963 -0.2093
H6B H 0.3433 0.0844 -0.2347
C9B C 1.23164(19) -0.4240(3) -0.08598(14)
H7B H 1.3231 -0.4468 -0.0571
C10B C 1.1999(2) -0.4855(3) -0.16895(16)
H8B H 1.2688 -0.5517 -0.1980
C11B C 1.0631(2) -0.4485(3) -0.20993(14)
H9B H 1.0427 -0.4895 -0.2675
C12B C 0.37530(19) -0.1162(3) -0.32404(11)
H10B H 0.3852 -0.2441 -0.3214
H11B H 0.2913 -0.0854 -0.3627
H12B H 0.4624 -0.0651 -0.3463
loop_
_geom_bond_atom_site_label_1
_geom_bond_atom_site_label_2
_geom_bond_site_symmetry_1
_geom_bond_site_symmetry_2
C1 C2 1_555 1_555
O1 C2 1_555 1_555
C2 C3B 1_555 1_555
C3 C1 1_555 1_555
H1 C3 1_555 1_555
C4 C1 1_555 1_555
H2 C4 1_555 1_555
C5 N1 1_555 1_555
N1 C11 1_555 1_555
C6 C4 1_555 1_555
H3 C6 1_555 1_555
C7 C5 1_555 1_555
H4 C7 1_555 1_555
C8 O1 1_555 1_555
H5 C8 1_555 1_555
H6 C8 1_555 1_555
C9 C7 1_555 1_555
H7 C9 1_555 1_555
C10 C9 1_555 1_555
H8 C10 1_555 1_555
C11 C10 1_555 1_555
H9 C11 1_555 1_555
C12 C8 1_555 1_555
H10 C12 1_555 1_555
H11 C12 1_555 1_555
H12 C12 1_555 1_555
C1B C2B 1_555 1_555
O1B C2B 1_555 1_555
C2B C3 1_555 1_555
C3B C1B 1_555 1_555
H1B C3B 1_555 1_555
C4B C1B 1_555 1_555
H2B C4B 1_555 1_555
C5B N1B 1_555 1_555
N1B C11B 1_555 1_555
C6B C4B 1_555 1_555
H3B C6B 1_555 1_555
C7B C5B 1_555 1_555
H4B C7B 1_555 1_555
C8B O1B 1_555 1_555
H5B C8B 1_555 1_555
H6B C8B 1_555 1_555
C9B C7B 1_555 1_555
H7B C9B 1_555 1_555
C10B C9B 1_555 1_555
H8B C10B 1_555 1_555
C11B C10B 1_555 1_555
H9B C11B 1_555 1_555
C12B C8B 1_555 1_555
H10B C12B 1_555 1_555
H11B C12B 1_555 1_555
H12B C12B 1_555 1_555
C5 C6 1_555 1_555
C5B C6B 1_555 1_555

#END
