
#######################################################################
#
#                 Cambridge Crystallographic Data Centre
#                                CCDC 
#
#######################################################################
#
# If this CIF has been generated from an entry in the Cambridge 
# Structural Database, then it will include bibliographic, chemical, 
# crystal, experimental, refinement or atomic coordinate data resulting 
# from the CCDC's data processing and validation procedures.
#
#######################################################################

data_NAVGEZ
_chemical_formula_moiety         'C24 H24 N2 O2'
_chemical_name_systematic        
4,4'-((2,5-diethoxy-1,4-phenylene)di(ethene-2,1-diyl))dipyridine
_symmetry_cell_setting           monoclinic
_symmetry_space_group_name_H-M   'P 21/c'
_symmetry_Int_Tables_number      14
_space_group_name_Hall           '-P 2ybc'
loop_
_symmetry_equiv_pos_site_id
_symmetry_equiv_pos_as_xyz
1 x,y,z
2 -x,1/2+y,1/2-z
3 -x,-y,-z
4 x,1/2-y,1/2+z
_cell_length_a                   11.1156(19)
_cell_length_b                   4.1516(7)
_cell_length_c                   22.582(4)
_cell_angle_alpha                90
_cell_angle_beta                 104.110(2)
_cell_angle_gamma                90
_cell_volume                     1010.66
_exptl_crystal_colour            yellow
_exptl_crystal_description       bulk
_cell_formula_units_Z            2
loop_
_atom_site_label
_atom_site_type_symbol
_atom_site_fract_x
_atom_site_fract_y
_atom_site_fract_z
N1 N 0.66958(13) 0.2086(4) 0.27682(6)
C1 C 0.62410(15) 0.0820(5) 0.22185(8)
H1 H 0.5449 -0.0065 0.2136
C2 C 0.68696(14) 0.0736(5) 0.17629(7)
H2 H 0.6501 -0.0204 0.1389
O1 O 0.76855(9) -0.2788(3) -0.01769(4)
C3 C 0.80428(12) 0.2038(4) 0.18588(6)
C4 C 0.87971(13) 0.2018(4) 0.14091(6)
H3 H 0.9520 0.3239 0.1499
C5 C 0.85416(13) 0.0426(4) 0.08901(6)
H4 H 0.7800 -0.0718 0.0798
C6 C 0.85129(15) 0.3358(4) 0.24304(7)
H5 H 0.9298 0.4288 0.2526
C7 C 0.71236(14) -0.4326(4) -0.07409(6)
H6 H 0.7641 -0.6083 -0.0817
H7 H 0.7019 -0.2800 -0.1075
C8 C 0.92930(12) 0.0249(4) 0.04401(6)
C9 C 1.04550(13) 0.1682(4) 0.05321(6)
H8 H 1.0767 0.2827 0.0891
C10 C 0.88367(12) -0.1454(4) -0.01046(6)
C11 C 0.78177(17) 0.3293(5) 0.28584(8)
H9 H 0.8169 0.4172 0.3240
C12 C 0.58915(16) -0.5579(5) -0.06933(9)
H10 H 0.6007 -0.7118 -0.0367
H11 H 0.5483 -0.6597 -0.1070
H12 H 0.5392 -0.3826 -0.0612
N1B N 1.33042(13) -0.2086(4) -0.27682(6)
C1B C 1.37590(15) -0.0820(5) -0.22185(8)
H1B H 1.4551 0.0065 -0.2136
C2B C 1.31304(14) -0.0736(5) -0.17629(7)
H2B H 1.3499 0.0204 -0.1389
O1B O 1.23145(9) 0.2788(3) 0.01769(4)
C3B C 1.19572(12) -0.2038(4) -0.18588(6)
C4B C 1.12029(13) -0.2018(4) -0.14091(6)
H3B H 1.0480 -0.3239 -0.1499
C5B C 1.14584(13) -0.0426(4) -0.08901(6)
H4B H 1.2200 0.0718 -0.0798
C6B C 1.14871(15) -0.3358(4) -0.24304(7)
H5B H 1.0702 -0.4288 -0.2526
C7B C 1.28764(14) 0.4326(4) 0.07409(6)
H6B H 1.2359 0.6083 0.0817
H7B H 1.2981 0.2800 0.1075
C8B C 1.07070(12) -0.0249(4) -0.04401(6)
C9B C 0.95450(13) -0.1682(4) -0.05321(6)
H8B H 0.9233 -0.2827 -0.0891
C10B C 1.11633(12) 0.1454(4) 0.01046(6)
C11B C 1.21823(17) -0.3293(5) -0.28584(8)
H9B H 1.1831 -0.4172 -0.3240
C12B C 1.41085(16) 0.5579(5) 0.06933(9)
H10B H 1.3993 0.7118 0.0367
H11B H 1.4517 0.6597 0.1070
H12B H 1.4608 0.3826 0.0612
loop_
_geom_bond_atom_site_label_1
_geom_bond_atom_site_label_2
_geom_bond_site_symmetry_1
_geom_bond_site_symmetry_2
N1 C1 1_555 1_555
C1 H1 1_555 1_555
C2 C1 1_555 1_555
H2 C2 1_555 1_555
O1 C7 1_555 1_555
C3 C2 1_555 1_555
C4 C3 1_555 1_555
H3 C4 1_555 1_555
C5 C4 1_555 1_555
H4 C5 1_555 1_555
C6 C3 1_555 1_555
H5 C6 1_555 1_555
C7 H6 1_555 1_555
H7 C7 1_555 1_555
C8 C5 1_555 1_555
C9 C8 1_555 1_555
H8 C9 1_555 1_555
C10 O1 1_555 1_555
C11 N1 1_555 1_555
H9 C11 1_555 1_555
C12 C7 1_555 1_555
H10 C12 1_555 1_555
H11 C12 1_555 1_555
H12 C12 1_555 1_555
N1B C1B 1_555 1_555
C1B H1B 1_555 1_555
C2B C1B 1_555 1_555
H2B C2B 1_555 1_555
O1B C7B 1_555 1_555
C3B C2B 1_555 1_555
C4B C3B 1_555 1_555
H3B C4B 1_555 1_555
C5B C4B 1_555 1_555
H4B C5B 1_555 1_555
C6B C3B 1_555 1_555
H5B C6B 1_555 1_555
C7B H6B 1_555 1_555
H7B C7B 1_555 1_555
C8B C5B 1_555 1_555
C9B C10 1_555 1_555
H8B C9B 1_555 1_555
C10B C9 1_555 1_555
C11B N1B 1_555 1_555
H9B C11B 1_555 1_555
C12B C7B 1_555 1_555
H10B C12B 1_555 1_555
H11B C12B 1_555 1_555
H12B C12B 1_555 1_555
C6 C11 1_555 1_555
C8 C10 1_555 1_555
O1B C10B 1_555 1_555
C6B C11B 1_555 1_555
C8B C9B 1_555 1_555
C8B C10B 1_555 1_555

#END
