
#######################################################################
#
#                 Cambridge Crystallographic Data Centre
#                                CCDC 
#
#######################################################################
#
# If this CIF has been generated from an entry in the Cambridge 
# Structural Database, then it will include bibliographic, chemical, 
# crystal, experimental, refinement or atomic coordinate data resulting 
# from the CCDC's data processing and validation procedures.
#
#######################################################################

data_NAVMED
_chemical_name_common            
'2,8,14,20-Tetramethyl-pyrogallol(4)arene methanol nitrobenzene solvate monohydrate'
_chemical_formula_moiety         
'C32 H32 O12,1.5(C6 H5 N1 O2),2(C1 H4 O1),H2 O1'
_chemical_name_systematic        
'2,8,14,20-Tetramethyl-4,5,6,10,11,12,16,17,18,22,23,24-dodecahydroxycalix(4)arene methanol nitrobenzene solvate monohydrate'
_symmetry_cell_setting           rhombohedral
_symmetry_space_group_name_H-M   'R -3'
_symmetry_Int_Tables_number      148
_space_group_name_Hall           '-R 3'
loop_
_symmetry_equiv_pos_site_id
_symmetry_equiv_pos_as_xyz
1 x,y,z
2 -y,x-y,z
3 -x+y,-x,z
4 2/3+x,1/3+y,1/3+z
5 2/3-y,1/3+x-y,1/3+z
6 2/3-x+y,1/3-x,1/3+z
7 1/3+x,2/3+y,2/3+z
8 1/3-y,2/3+x-y,2/3+z
9 1/3-x+y,2/3-x,2/3+z
10 -x,-y,-z
11 y,-x+y,-z
12 x-y,x,-z
13 1/3-x,2/3-y,2/3-z
14 1/3+y,2/3-x+y,2/3-z
15 1/3+x-y,2/3+x,2/3-z
16 2/3-x,1/3-y,1/3-z
17 2/3+y,1/3-x+y,1/3-z
18 2/3+x-y,1/3+x,1/3-z
_cell_length_a                   35.4943(14)
_cell_length_b                   35.4943(14)
_cell_length_c                   36.024(3)
_cell_angle_alpha                90
_cell_angle_beta                 90
_cell_angle_gamma                120
_cell_volume                     39304.3
_exptl_crystal_colour            colorless
_exptl_crystal_description       hexagonal
_cell_formula_units_Z            36
loop_
_atom_site_label
_atom_site_type_symbol
_atom_site_fract_x
_atom_site_fract_y
_atom_site_fract_z
O1 O 0.8791(2) 1.0591(2) 0.0859(2)
H1 H 0.8870 1.0451 0.0733
O2 O 0.8687(2) 1.0765(2) 0.1575(2)
H2 H 0.8890 1.0893 0.1429
O3 O 0.7958(2) 1.0248(2) 0.1955(2)
H3 H 0.7805 1.0031 0.2081
O4 O 0.7450(2) 0.95415(19) 0.2400(2)
H4 H 0.7602 0.9754 0.2270
O5 O 0.7527(3) 0.8924(2) 0.2771(3)
H5 H 0.7555 0.9158 0.2837
O6 O 0.7398(2) 0.8185(2) 0.2446(2)
H6 H 0.7485 0.8055 0.2315
O7 O 0.7689(2) 0.7740(2) 0.2018(2)
H7 H 0.7603 0.7879 0.2138
O8 O 0.8418(2) 0.7841(3) 0.1686(2)
H8 H 0.8645 0.7916 0.1573
O9 O 0.8636(2) 0.8148(2) 0.0981(2)
H9 H 0.8734 0.8341 0.0824
O10 O 0.8987(2) 0.8797(2) 0.0445(3)
H10 H 0.8880 0.8607 0.0604
O11 O 0.9480(2) 0.9679(2) 0.0397(3)
H11 H 0.9534 0.9613 0.0193
O12 O 0.9117(2) 1.0192(2) 0.0414(3)
H12 H 0.9025 1.0317 0.0545
C1 C 0.8355(3) 1.0391(3) 0.1404(4)
C2 C 0.8411(3) 1.0304(3) 0.1052(4)
C3 C 0.8097(3) 0.9931(3) 0.0869(3)
C4 C 0.7715(3) 0.9667(3) 0.1071(4)
H13 H 0.7494 0.9419 0.0957
C5 C 0.7653(3) 0.9760(3) 0.1432(4)
C6 C 0.7984(3) 1.0126(3) 0.1604(4)
C7 C 0.7220(3) 0.9462(3) 0.1629(3)
H14 H 0.7178 0.9641 0.1812
C8 C 0.6833(3) 0.9279(3) 0.1375(3)
H15 H 0.6573 0.9103 0.1516
H16 H 0.6864 0.9104 0.1187
H17 H 0.6815 0.9513 0.1260
C9 C 0.7261(3) 0.9112(3) 0.1845(4)
C10 C 0.7369(3) 0.9170(3) 0.2216(4)
C11 C 0.7418(3) 0.8858(3) 0.2409(4)
C12 C 0.7347(3) 0.8477(3) 0.2233(4)
C13 C 0.7224(3) 0.8408(3) 0.1872(4)
C14 C 0.7188(3) 0.8731(3) 0.1683(3)
H18 H 0.7111 0.8686 0.1434
C15 C 0.7111(3) 0.7977(3) 0.1673(3)
H19 H 0.7027 0.7753 0.1865
C16 C 0.6726(3) 0.7826(3) 0.1411(3)
H20 H 0.6664 0.7557 0.1297
H21 H 0.6795 0.8042 0.1222
H22 H 0.6476 0.7785 0.1547
C17 C 0.7515(3) 0.8021(3) 0.1477(4)
C18 C 0.7785(3) 0.7899(3) 0.1664(4)
C19 C 0.8158(3) 0.7951(3) 0.1482(4)
C20 C 0.8254(3) 0.8108(3) 0.1132(4)
C21 C 0.7979(3) 0.8212(3) 0.0933(3)
C22 C 0.7613(3) 0.8168(3) 0.1115(4)
H23 H 0.7429 0.8239 0.0989
C23 C 0.8067(3) 0.8352(3) 0.0540(3)
H24 H 0.8241 0.8232 0.0439
C24 C 0.7645(3) 0.8159(3) 0.0302(4)
H25 H 0.7719 0.8256 0.0050
H26 H 0.7456 0.8256 0.0399
H27 H 0.7500 0.7847 0.0310
C25 C 0.8335(3) 0.8836(3) 0.0495(3)
C26 C 0.8160(3) 0.9108(3) 0.0501(3)
H28 H 0.7860 0.8978 0.0526
C27 C 0.8395(3) 0.9559(3) 0.0473(4)
C28 C 0.8841(3) 0.9740(3) 0.0446(4)
C29 C 0.9040(3) 0.9498(3) 0.0435(4)
C30 C 0.8789(3) 0.9052(3) 0.0458(4)
C31 C 0.8173(3) 0.9829(3) 0.0478(3)
H29 H 0.8370 1.0106 0.0357
C32 C 0.7744(3) 0.9609(3) 0.0249(4)
H30 H 0.7803 0.9553 0.0002
H31 H 0.7624 0.9799 0.0240
H32 H 0.7539 0.9340 0.0365
O13 O 0.3384(2) 0.4502(2) -0.0287(2)
H33 H 0.3166 0.4377 -0.0417
O14 O 0.3930(2) 0.5222(2) 0.0087(2)
H34 H 0.4069 0.5428 0.0226
O15 O 0.3771(2) 0.5345(2) 0.0811(2)
H35 H 0.3643 0.5441 0.0935
O16 O 0.34276(19) 0.57232(19) 0.1236(2)
H36 H 0.3539 0.5614 0.1108
O17 O 0.29708(19) 0.61514(18) 0.1257(3)
H37 H 0.3235 0.6252 0.1244
O18 O 0.20877(19) 0.57163(19) 0.1218(2)
H38 H 0.1891 0.5619 0.1064
O19 O 0.1418(2) 0.5403(2) 0.0703(2)
H39 H 0.1618 0.5487 0.0853
O20 O 0.1097(2) 0.5211(2) -0.0006(2)
H40 H 0.1203 0.5448 0.0099
O21 O 0.0957(2) 0.4478(2) -0.0349(3)
H41 H 0.1091 0.4391 -0.0473
O22 O 0.1393(2) 0.4182(2) -0.0777(2)
H42 H 0.1265 0.4268 -0.0643
O23 O 0.2106(2) 0.4253(3) -0.1099(3)
H43 H 0.2331 0.4260 -0.1161
O24 O 0.2671(2) 0.4084(2) -0.0736(2)
H44 H 0.2885 0.4209 -0.0601
C33 C 0.3547(3) 0.4913(3) 0.0265(4)
C34 C 0.3467(3) 0.4970(3) 0.0626(4)
C35 C 0.3083(3) 0.4677(3) 0.0797(3)
C36 C 0.2804(3) 0.4303(3) 0.0597(4)
H45 H 0.2552 0.4092 0.0713
C37 C 0.2882(3) 0.4230(3) 0.0233(4)
C38 C 0.3265(3) 0.4535(3) 0.0068(4)
C39 C 0.2986(3) 0.4763(3) 0.1183(3)
H46 H 0.3267 0.4941 0.1307
C40 C 0.2738(3) 0.4337(3) 0.1408(3)
H47 H 0.2684 0.4403 0.1654
H48 H 0.2909 0.4197 0.1421
H49 H 0.2466 0.4147 0.1289
C41 C 0.2755(3) 0.5022(3) 0.1187(3)
C42 C 0.2973(3) 0.5469(3) 0.1214(4)
C43 C 0.2761(3) 0.5701(3) 0.1229(3)
C44 C 0.2308(3) 0.5485(3) 0.1201(3)
C45 C 0.2072(3) 0.5037(3) 0.1170(3)
C46 C 0.2309(3) 0.4819(3) 0.1162(3)
H50 H 0.2155 0.4517 0.1140
C47 C 0.1575(3) 0.4796(3) 0.1143(3)
H51 H 0.1478 0.4987 0.1251
C48 C 0.1372(3) 0.4381(3) 0.1375(3)
H52 H 0.1060 0.4238 0.1356
H53 H 0.1456 0.4452 0.1630
H54 H 0.1470 0.4190 0.1285
C49 C 0.1430(3) 0.4723(3) 0.0748(4)
C50 C 0.1343(3) 0.5013(3) 0.0544(4)
C51 C 0.1191(3) 0.4933(3) 0.0196(4)
C52 C 0.1110(3) 0.4552(3) 0.0008(4)
C53 C 0.1204(3) 0.4260(3) 0.0191(4)
C54 C 0.1350(3) 0.4346(3) 0.0552(4)
H55 H 0.1400 0.4144 0.0674
C55 C 0.1128(3) 0.3847(3) -0.0021(3)
H56 H 0.0916 0.3790 -0.0219
C56 C 0.0936(3) 0.3448(3) 0.0233(3)
H57 H 0.0888 0.3198 0.0093
H58 H 0.0665 0.3400 0.0333
H59 H 0.1135 0.3497 0.0432
C57 C 0.1550(3) 0.3931(3) -0.0204(4)
C58 C 0.1846(3) 0.3841(3) -0.0013(3)
H60 H 0.1787 0.3743 0.0231
C59 C 0.1649(3) 0.4079(3) -0.0564(4)
C60 C 0.2012(3) 0.4121(4) -0.0738(4)
C61 C 0.2304(3) 0.4029(3) -0.0547(4)
C62 C 0.2230(3) 0.3898(3) -0.0184(3)
C63 C 0.2557(3) 0.3814(3) 0.0026(3)
H61 H 0.2723 0.3758 -0.0162
C64 C 0.2338(3) 0.3408(3) 0.0274(3)
H62 H 0.2144 0.3160 0.0128
H63 H 0.2177 0.3452 0.0467
H64 H 0.2557 0.3359 0.0384
O25 O 1.0168(3) 0.4227(3) 0.0521(4)
O26 O 1.0382(3) 0.4372(3) 0.1088(4)
N1 N 1.0225(3) 0.4124(4) 0.0842(5)
C65 C 1.0071(3) 0.3650(4) 0.0876(5)
C66 C 1.0133(3) 0.3540(4) 0.1222(4)
H65 H 1.0265 0.3749 0.1407
C67 C 0.9991(4) 0.3104(5) 0.1291(5)
H66 H 1.0033 0.3014 0.1522
C68 C 0.9790(4) 0.2810(4) 0.1011(5)
H67 H 0.9690 0.2518 0.1062
C69 C 0.9724(4) 0.2919(4) 0.0652(5)
H68 H 0.9590 0.2707 0.0470
C70 C 0.9871(4) 0.3370(4) 0.0575(5)
H69 H 0.9836 0.3466 0.0345
O27 O 0.0246(6) 0.6488(6) 0.1134(6)
O28 O 0.0137(5) 0.6574(5) 0.0502(5)
N2 N 0.0211(3) 0.6476(4) 0.0780(4)
C71 C 0.0410(5) 0.5872(6) 0.0996(5)
H70 H 0.0472 0.5995 0.1232
C72 C 0.0453(5) 0.5507(8) 0.0910(8)
H71 H 0.0552 0.5386 0.1087
C73 C 0.0347(6) 0.5341(6) 0.0570(7)
H72 H 0.0372 0.5097 0.0516
C74 C 0.0204(6) 0.5506(6) 0.0294(5)
H73 H 0.0132 0.5382 0.0058
C75 C 0.0174(4) 0.5874(4) 0.0387(5)
H74 H 0.0082 0.6003 0.0212
C76 C 0.0275(4) 0.6036(4) 0.0724(5)
O29 O 0.1426(9) 0.2711(7) 0.9627(7)
O30 O 0.1836(6) 0.2968(7) 0.8955(8)
N3 N 0.1529(9) 0.2901(8) 0.9193(9)
C77 C 0.1247(4) 0.3002(5) 0.9073(6)
C78 C 0.0874(6) 0.2914(4) 0.9302(4)
H75 H 0.0818 0.2790 0.9537
C79 C 0.0592(4) 0.3052(5) 0.9102(8)
H76 H 0.0342 0.3017 0.9216
C80 C 0.0694(12) 0.3220(8) 0.8771(9)
H77 H 0.0523 0.3318 0.8657
C81 C 0.1015(9) 0.3253(8) 0.8605(8)
H78 H 0.1054 0.3351 0.8361
C82 C 0.1281(8) 0.3171(7) 0.8726(7)
H79 H 0.1518 0.3224 0.8578
C83 C 0.3992(9) 0.6015(9) 0.8136(7)
O31 O 0.4030(10) 0.5830(10) 0.8415(8)
C84 C 0.2213(12) 0.5261(12) -0.0345(10)
O32 O 0.2352(12) 0.5185(11) 0.0001(10)
C85 C 0.1836(10) 0.5262(11) 0.9103(9)
O33 O 0.2259(13) 0.5305(18) 0.8957(14)
C86 C 0.3521(11) 0.5389(15) 0.9274(13)
O34 O 0.3089(12) 0.5225(13) 0.9072(11)
O35 O 0.3333 0.6667 0.9171(11)
O36 O 0.0000 0.0000 0.061(7)
O37? O 0.1794(9) 0.2897(8) 0.9251(8)
N4? N 0.1508(9) 0.2806(9) 0.9431(9)
C87? C 0.4195(11) 0.6494(8) 0.8181(11)
C88? C 0.3525(9) 0.5862(15) 0.8209(13)
C89? C 0.2427(13) 0.5761(14) 0.0111(11)
C90? C 0.3098(10) 0.5631(11) 0.0148(12)
C91? C 0.2884(17) 0.5279(19) -0.0274(10)
O38? O 0.2666(9) 0.5238(9) 0.0088(8)
O39? O 0.2334(16) 0.5308(17) 0.0054(12)
O40? O 0.2523(16) 0.5498(14) 0.0253(12)
C92? C 0.1859(12) 0.5477(13) 0.9301(11)
O41? O 0.200(2) 0.561(2) 0.8683(17)
C93? C 0.333(3) 0.5698(14) 0.920(3)
loop_
_geom_bond_atom_site_label_1
_geom_bond_atom_site_label_2
_geom_bond_site_symmetry_1
_geom_bond_site_symmetry_2
O1 H1 1_555 1_555
O2 H2 1_555 1_555
O3 H3 1_555 1_555
O4 H4 1_555 1_555
O5 H5 1_555 1_555
O6 H6 1_555 1_555
O7 H7 1_555 1_555
O8 H8 1_555 1_555
O9 H9 1_555 1_555
O10 H10 1_555 1_555
O11 H11 1_555 1_555
O12 H12 1_555 1_555
C1 O2 1_555 1_555
C2 O1 1_555 1_555
C3 C2 1_555 1_555
C4 C3 1_555 1_555
H13 C4 1_555 1_555
C5 C4 1_555 1_555
C6 O3 1_555 1_555
C7 C5 1_555 1_555
H14 C7 1_555 1_555
C8 C7 1_555 1_555
H15 C8 1_555 1_555
H16 C8 1_555 1_555
H17 C8 1_555 1_555
C9 C7 1_555 1_555
C10 O4 1_555 1_555
C11 O5 1_555 1_555
C12 O6 1_555 1_555
C13 C12 1_555 1_555
C14 C9 1_555 1_555
H18 C14 1_555 1_555
C15 C13 1_555 1_555
H19 C15 1_555 1_555
C16 C15 1_555 1_555
H20 C16 1_555 1_555
H21 C16 1_555 1_555
H22 C16 1_555 1_555
C17 C15 1_555 1_555
C18 O7 1_555 1_555
C19 O8 1_555 1_555
C20 O9 1_555 1_555
C21 C20 1_555 1_555
C22 C17 1_555 1_555
H23 C22 1_555 1_555
C23 C21 1_555 1_555
H24 C23 1_555 1_555
C24 C23 1_555 1_555
H25 C24 1_555 1_555
H26 C24 1_555 1_555
H27 C24 1_555 1_555
C25 C23 1_555 1_555
C26 C25 1_555 1_555
H28 C26 1_555 1_555
C27 C26 1_555 1_555
C28 O12 1_555 1_555
C29 O11 1_555 1_555
C30 O10 1_555 1_555
C31 C3 1_555 1_555
H29 C31 1_555 1_555
C32 C31 1_555 1_555
H30 C32 1_555 1_555
H31 C32 1_555 1_555
H32 C32 1_555 1_555
O13 H33 1_555 1_555
O14 H34 1_555 1_555
O15 H35 1_555 1_555
O16 H36 1_555 1_555
O17 H37 1_555 1_555
O18 H38 1_555 1_555
O19 H39 1_555 1_555
O20 H40 1_555 1_555
O21 H41 1_555 1_555
O22 H42 1_555 1_555
O23 H43 1_555 1_555
O24 H44 1_555 1_555
C33 O14 1_555 1_555
C34 O15 1_555 1_555
C35 C34 1_555 1_555
C36 C35 1_555 1_555
H45 C36 1_555 1_555
C37 C36 1_555 1_555
C38 O13 1_555 1_555
C39 C35 1_555 1_555
H46 C39 1_555 1_555
C40 C39 1_555 1_555
H47 C40 1_555 1_555
H48 C40 1_555 1_555
H49 C40 1_555 1_555
C41 C39 1_555 1_555
C42 O16 1_555 1_555
C43 O17 1_555 1_555
C44 O18 1_555 1_555
C45 C44 1_555 1_555
C46 C41 1_555 1_555
H50 C46 1_555 1_555
C47 C45 1_555 1_555
H51 C47 1_555 1_555
C48 C47 1_555 1_555
H52 C48 1_555 1_555
H53 C48 1_555 1_555
H54 C48 1_555 1_555
C49 C47 1_555 1_555
C50 O19 1_555 1_555
C51 O20 1_555 1_555
C52 O21 1_555 1_555
C53 C52 1_555 1_555
C54 C49 1_555 1_555
H55 C54 1_555 1_555
C55 C53 1_555 1_555
H56 C55 1_555 1_555
C56 C55 1_555 1_555
H57 C56 1_555 1_555
H58 C56 1_555 1_555
H59 C56 1_555 1_555
C57 C55 1_555 1_555
C58 C57 1_555 1_555
H60 C58 1_555 1_555
C59 O22 1_555 1_555
C60 O23 1_555 1_555
C61 O24 1_555 1_555
C62 C58 1_555 1_555
C63 C37 1_555 1_555
H61 C63 1_555 1_555
C64 C63 1_555 1_555
H62 C64 1_555 1_555
H63 C64 1_555 1_555
H64 C64 1_555 1_555
O25 N1 1_555 1_555
O26 N1 1_555 1_555
N1 C65 1_555 1_555
C65 C66 1_555 1_555
C66 H65 1_555 1_555
C67 C66 1_555 1_555
H66 C67 1_555 1_555
C68 C67 1_555 1_555
H67 C68 1_555 1_555
C69 C68 1_555 1_555
H68 C69 1_555 1_555
C70 C65 1_555 1_555
H69 C70 1_555 1_555
O27 N2 1_555 1_555
O28 N2 1_555 1_555
N2 C76 1_555 1_555
C71 H70 1_555 1_555
C72 C71 1_555 1_555
H71 C72 1_555 1_555
C73 C72 1_555 1_555
H72 C73 1_555 1_555
C74 C73 1_555 1_555
H73 C74 1_555 1_555
C75 C74 1_555 1_555
H74 C75 1_555 1_555
C76 C71 1_555 1_555
O29 N3 1_555 1_555
O30 N3 1_555 1_555
N3 C77 1_555 1_555
C77 C78 1_555 1_555
C78 H75 1_555 1_555
C79 C78 1_555 1_555
H76 C79 1_555 1_555
C80 C79 1_555 1_555
H77 C80 1_555 1_555
C81 C80 1_555 1_555
H78 C81 1_555 1_555
C82 C77 1_555 1_555
H79 C82 1_555 1_555
C83 O31 1_555 1_555
C84 O32 1_555 1_555
C85 O33 1_555 1_555
C86 O34 1_555 1_555
C1 C2 1_555 1_555
C1 C6 1_555 1_555
C5 C6 1_555 1_555
C9 C10 1_555 1_555
C10 C11 1_555 1_555
C11 C12 1_555 1_555
C13 C14 1_555 1_555
C17 C18 1_555 1_555
C18 C19 1_555 1_555
C19 C20 1_555 1_555
C21 C22 1_555 1_555
C25 C30 1_555 1_555
C27 C28 1_555 1_555
C27 C31 1_555 1_555
C28 C29 1_555 1_555
C29 C30 1_555 1_555
C33 C34 1_555 1_555
C33 C38 1_555 1_555
C37 C38 1_555 1_555
C41 C42 1_555 1_555
C42 C43 1_555 1_555
C43 C44 1_555 1_555
C45 C46 1_555 1_555
C49 C50 1_555 1_555
C50 C51 1_555 1_555
C51 C52 1_555 1_555
C53 C54 1_555 1_555
C57 C59 1_555 1_555
C59 C60 1_555 1_555
C60 C61 1_555 1_555
C61 C62 1_555 1_555
C62 C63 1_555 1_555
C69 C70 1_555 1_555
C75 C76 1_555 1_555
C81 C82 1_555 1_555

#END
