
#######################################################################
#
#                 Cambridge Crystallographic Data Centre
#                                CCDC 
#
#######################################################################
#
# If this CIF has been generated from an entry in the Cambridge 
# Structural Database, then it will include bibliographic, chemical, 
# crystal, experimental, refinement or atomic coordinate data resulting 
# from the CCDC's data processing and validation procedures.
#
#######################################################################

data_NAVROU
_chemical_formula_moiety         'C17 H15 Br1 N2 O2'
_chemical_name_systematic        
3-(1-(4-bromophenyl)-2-nitroethyl)-2-methyl-1H-indole
_symmetry_cell_setting           monoclinic
_symmetry_space_group_name_H-M   'P 21/c'
_symmetry_Int_Tables_number      14
_space_group_name_Hall           '-P 2ybc'
loop_
_symmetry_equiv_pos_site_id
_symmetry_equiv_pos_as_xyz
1 x,y,z
2 -x,1/2+y,1/2-z
3 -x,-y,-z
4 x,1/2-y,1/2+z
_cell_length_a                   13.8437(7)
_cell_length_b                   12.9564(6)
_cell_length_c                   8.5035(4)
_cell_angle_alpha                90
_cell_angle_beta                 96.989(5)
_cell_angle_gamma                90
_cell_volume                     1513.89
_exptl_crystal_colour            colorless
_exptl_crystal_description       plate
_cell_formula_units_Z            4
loop_
_atom_site_label
_atom_site_type_symbol
_atom_site_fract_x
_atom_site_fract_y
_atom_site_fract_z
Br1 Br 0.99098(3) 0.58925(3) 0.25766(4)
O1 O 0.5852(2) 0.7400(2) 0.9424(4)
N1 N 0.6551(3) 0.6917(3) 0.9987(4)
N2 N 0.5661(2) 0.3796(3) 0.8730(4)
H1 H 0.5127 0.3430 0.8739
O2 O 0.6632(3) 0.6535(2) 1.1314(4)
C1 C 0.8656(3) 0.6558(3) 0.6636(5)
H2 H 0.8805 0.6991 0.7534
C2 C 0.7810(3) 0.5978(3) 0.6497(4)
C3 C 0.7220(3) 0.4293(3) 0.9127(4)
C4 C 0.5718(3) 0.4735(3) 0.7986(4)
C5 C 0.4816(3) 0.5222(4) 0.7167(5)
H3 H 0.4486 0.4734 0.6400
H4 H 0.4989 0.5846 0.6613
H5 H 0.4381 0.5405 0.7951
C6 C 0.6851(4) 0.2662(3) 1.0400(5)
H6 H 0.6396 0.2152 1.0630
C7 C 0.6563(3) 0.3518(3) 0.9455(5)
C8 C 0.7632(3) 0.5311(3) 0.5197(4)
H7 H 0.7074 0.4879 0.5107
C9 C 0.8205(3) 0.4200(3) 0.9749(5)
H8 H 0.8665 0.4711 0.9545
C10 C 0.7030(3) 0.6071(3) 0.7624(4)
H9 H 0.6459 0.6420 0.7012
C11 C 0.9294(3) 0.6522(3) 0.5495(4)
H10 H 0.9875 0.6919 0.5602
C12 C 0.8251(3) 0.5270(3) 0.4047(4)
H11 H 0.8119 0.4819 0.3166
C13 C 0.6666(3) 0.5061(3) 0.8176(4)
C14 C 0.7375(3) 0.6782(3) 0.9017(4)
H12 H 0.7943 0.6475 0.9671
H13 H 0.7572 0.7460 0.8621
C15 C 0.7820(4) 0.2590(3) 1.0982(5)
H14 H 0.8041 0.2011 1.1613
C16 C 0.9054(3) 0.5886(3) 0.4194(5)
C17 C 0.8484(3) 0.3346(3) 1.0666(5)
H15 H 0.9148 0.3273 1.1091
loop_
_geom_bond_atom_site_label_1
_geom_bond_atom_site_label_2
_geom_bond_site_symmetry_1
_geom_bond_site_symmetry_2
Br1 C16 1_555 1_555
O1 N1 1_555 1_555
N1 O2 1_555 1_555
N2 H1 1_555 1_555
C1 H2 1_555 1_555
C2 C1 1_555 1_555
C3 C7 1_555 1_555
C4 N2 1_555 1_555
C5 C4 1_555 1_555
H3 C5 1_555 1_555
H4 C5 1_555 1_555
H5 C5 1_555 1_555
C6 H6 1_555 1_555
C7 N2 1_555 1_555
C8 C2 1_555 1_555
H7 C8 1_555 1_555
C9 C3 1_555 1_555
H8 C9 1_555 1_555
C10 C2 1_555 1_555
H9 C10 1_555 1_555
C11 C1 1_555 1_555
H10 C11 1_555 1_555
C12 C8 1_555 1_555
H11 C12 1_555 1_555
C13 C3 1_555 1_555
C14 N1 1_555 1_555
H12 C14 1_555 1_555
H13 C14 1_555 1_555
C15 C6 1_555 1_555
H14 C15 1_555 1_555
C16 C11 1_555 1_555
C17 C9 1_555 1_555
H15 C17 1_555 1_555
C4 C13 1_555 1_555
C6 C7 1_555 1_555
C10 C13 1_555 1_555
C10 C14 1_555 1_555
C12 C16 1_555 1_555
C15 C17 1_555 1_555

#END
