
#######################################################################
#
#                 Cambridge Crystallographic Data Centre
#                                CCDC 
#
#######################################################################
#
# If this CIF has been generated from an entry in the Cambridge 
# Structural Database, then it will include bibliographic, chemical, 
# crystal, experimental, refinement or atomic coordinate data resulting 
# from the CCDC's data processing and validation procedures.
#
#######################################################################

data_NAVXOA
_chemical_formula_moiety         'C26 H11 N3 O6,3(C1 H1 Cl3)'
_chemical_name_systematic        
'6,16,25-triazaoctacyclo[9.9.9.0^2,10^.0^4,8^.0^12,20^.0^14,18^.0^21,29^.0^23,27^]nonacosa-2(10),3,8,12(20),13,18,21(29),22,27-nonaene-5,7,15,17,24,26-hexone chloroform solvate'
_symmetry_cell_setting           orthorhombic
_symmetry_space_group_name_H-M   'P n a 21'
_symmetry_Int_Tables_number      33
_space_group_name_Hall           'P 2c -2n'
loop_
_symmetry_equiv_pos_site_id
_symmetry_equiv_pos_as_xyz
1 x,y,z
2 -x,-y,1/2+z
3 1/2+x,1/2-y,z
4 1/2-x,1/2+y,1/2+z
_cell_length_a                   14.2257(12)
_cell_length_b                   23.1375(19)
_cell_length_c                   11.5625(10)
_cell_angle_alpha                90
_cell_angle_beta                 90
_cell_angle_gamma                90
_cell_volume                     3805.76
_exptl_crystal_colour            colorless
_exptl_crystal_description       block
_cell_formula_units_Z            4
loop_
_atom_site_label
_atom_site_type_symbol
_atom_site_fract_x
_atom_site_fract_y
_atom_site_fract_z
O1 O 0.5689(3) 0.2639(2) 0.9627(4)
O2 O 0.7934(4) 0.2301(3) 0.6897(5)
O3 O 0.4096(4) 0.6128(2) 0.6381(4)
O4 O 0.6394(5) 0.5929(2) 0.3647(5)
O5 O 0.0895(4) 0.2782(3) 0.3121(5)
O6 O 0.3205(3) 0.2810(2) 0.0374(4)
N1 N 0.6940(5) 0.2395(3) 0.8459(5)
H1 H 0.7290 0.2229 0.8980
N2 N 0.5273(5) 0.6175(2) 0.5009(6)
H2 H 0.5370 0.6546 0.5018
N3 N 0.1882(4) 0.2747(3) 0.1553(5)
H3 H 0.1474 0.2636 0.1038
C1 C 0.5308(4) 0.3578(2) 0.4220(5)
H4 H 0.5817 0.3531 0.3644
C2 C 0.3961(3) 0.3694(2) 0.5732(4)
H5 H 0.3450 0.3738 0.6308
C3 C 0.5512(3) 0.3269(2) 0.5356(4)
C4 C 0.6330(4) 0.2964(3) 0.5629(5)
H6 H 0.6803 0.2901 0.5077
C5 C 0.6411(4) 0.2762(3) 0.6738(5)
C6 C 0.5706(4) 0.2854(2) 0.7555(5)
C7 C 0.4886(4) 0.3121(2) 0.7292(5)
H7 H 0.4399 0.3157 0.7838
C8 C 0.4798(3) 0.3342(2) 0.6172(4)
C9 C 0.7203(5) 0.2464(3) 0.7304(6)
C10 C 0.6055(4) 0.2622(3) 0.8678(5)
C11 C 0.4365(4) 0.3364(2) 0.3786(4)
C12 C 0.4173(4) 0.3160(2) 0.2675(5)
H8 H 0.4651 0.3121 0.2119
C13 C 0.3262(4) 0.3018(3) 0.2426(5)
C14 C 0.2552(4) 0.3056(3) 0.3248(5)
C15 C 0.2705(4) 0.3263(3) 0.4368(5)
H9 H 0.2222 0.3292 0.4920
C16 C 0.3642(3) 0.3426(2) 0.4606(5)
C17 C 0.2827(4) 0.2842(3) 0.1313(6)
C18 C 0.1662(5) 0.2848(3) 0.2701(6)
C19 C 0.5143(4) 0.4206(2) 0.4554(5)
C20 C 0.5637(4) 0.4680(3) 0.4123(5)
H10 H 0.6110 0.4641 0.3561
C21 C 0.5387(4) 0.5210(2) 0.4575(5)
C22 C 0.4678(4) 0.5272(2) 0.5387(5)
C23 C 0.4179(5) 0.4812(2) 0.5834(5)
H11 H 0.3711 0.4859 0.6400
C24 C 0.4419(4) 0.4268(2) 0.5383(4)
C25 C 0.5773(5) 0.5795(3) 0.4306(6)
C26 C 0.4607(5) 0.5903(3) 0.5695(6)
C28 C 0.874(2) 0.515(3) 1.157(3)
H15 H 0.8539 0.4767 1.1842
Cl10 Cl 0.829(2) 0.569(3) 1.248(3)
Cl11 Cl 0.8281(15) 0.5287(13) 1.020(3)
Cl12 Cl 0.9962(15) 0.5210(13) 1.160(3)
Cl13 Cl 0.4756(7) 0.0920(4) 0.3838(12)
Cl14 Cl 0.2990(3) 0.1414(3) 0.3153(6)
Cl15 Cl 0.3972(3) 0.18887(18) 0.5108(5)
C29 C 0.4097(15) 0.1548(10) 0.385(2)
H16 H 0.4435 0.1821 0.3337
Cl16 Cl 0.4844(6) 0.1269(7) 1.0467(12)
Cl17 Cl 0.4036(6) 0.1617(5) 0.8265(7)
Cl18 Cl 0.2839(4) 0.1355(3) 1.0122(7)
C30 C 0.3939(15) 0.1566(9) 0.9727(11)
H17 H 0.3957 0.1976 0.9976
C27? C 0.7499(11) 0.4835(6) 0.7315(13)
H12? H 0.7970 0.4547 0.7057
H13? H 0.8097 0.4937 0.7703
H14? H 0.7993 0.4700 0.7856
Cl1? Cl 0.6399(12) 0.4518(10) 0.7434(18)
Cl2? Cl 0.7846(16) 0.5150(9) 0.8667(17)
Cl3? Cl 0.7498(17) 0.5456(10) 0.636(2)
Cl4? Cl 0.691(3) 0.4297(11) 0.817(3)
Cl5? Cl 0.6780(18) 0.5445(9) 0.728(2)
Cl6? Cl 0.7758(16) 0.4531(10) 0.5983(17)
Cl7? Cl 0.6573(14) 0.4315(7) 0.725(2)
Cl8? Cl 0.701(2) 0.5459(8) 0.783(3)
Cl9? Cl 0.798(3) 0.4933(13) 0.594(2)
loop_
_geom_bond_atom_site_label_1
_geom_bond_atom_site_label_2
_geom_bond_site_symmetry_1
_geom_bond_site_symmetry_2
O1 C10 1_555 1_555
O2 C9 1_555 1_555
O3 C26 1_555 1_555
O4 C25 1_555 1_555
O5 C18 1_555 1_555
O6 C17 1_555 1_555
N1 H1 1_555 1_555
N2 H2 1_555 1_555
N3 H3 1_555 1_555
C1 H4 1_555 1_555
C2 H5 1_555 1_555
C3 C1 1_555 1_555
C4 C3 1_555 1_555
H6 C4 1_555 1_555
C5 C4 1_555 1_555
C6 C5 1_555 1_555
C7 C6 1_555 1_555
H7 C7 1_555 1_555
C8 C2 1_555 1_555
C9 N1 1_555 1_555
C10 N1 1_555 1_555
C11 C1 1_555 1_555
C12 C11 1_555 1_555
H8 C12 1_555 1_555
C13 C12 1_555 1_555
C14 C13 1_555 1_555
C15 C14 1_555 1_555
H9 C15 1_555 1_555
C16 C2 1_555 1_555
C17 N3 1_555 1_555
C18 N3 1_555 1_555
C19 C1 1_555 1_555
C20 C19 1_555 1_555
H10 C20 1_555 1_555
C21 C20 1_555 1_555
C22 C21 1_555 1_555
C23 C22 1_555 1_555
H11 C23 1_555 1_555
C24 C2 1_555 1_555
C25 N2 1_555 1_555
C26 N2 1_555 1_555
C28 H15 1_555 1_555
Cl10 C28 1_555 1_555
Cl11 C28 1_555 1_555
Cl12 C28 1_555 1_555
Cl13 C29 1_555 1_555
Cl14 C29 1_555 1_555
Cl15 C29 1_555 1_555
C29 H16 1_555 1_555
Cl16 C30 1_555 1_555
Cl17 C30 1_555 1_555
Cl18 C30 1_555 1_555
C30 H17 1_555 1_555
C3 C8 1_555 1_555
C5 C9 1_555 1_555
C6 C10 1_555 1_555
C7 C8 1_555 1_555
C11 C16 1_555 1_555
C13 C17 1_555 1_555
C14 C18 1_555 1_555
C15 C16 1_555 1_555
C19 C24 1_555 1_555
C21 C25 1_555 1_555
C22 C26 1_555 1_555
C23 C24 1_555 1_555

#END
