
#######################################################################
#
#                 Cambridge Crystallographic Data Centre
#                                CCDC 
#
#######################################################################
#
# If this CIF has been generated from an entry in the Cambridge 
# Structural Database, then it will include bibliographic, chemical, 
# crystal, experimental, refinement or atomic coordinate data resulting 
# from the CCDC's data processing and validation procedures.
#
#######################################################################

data_NAVYAN
_chemical_formula_moiety         'C26 H11 N3 O6,3(C7 H8)'
_chemical_name_systematic        
'6,16,25-triazaoctacyclo[9.9.9.0^2,10^.0^4,8^.0^12,20^.0^14,18^.0^21,29^.0^23,27^]nonacosa-2(10),3,8,12(20),13,18,21(29),22,27-nonaene-5,7,15,17,24,26-hexone toluene solvate'
_symmetry_cell_setting           orthorhombic
_symmetry_space_group_name_H-M   'P n n a'
_symmetry_Int_Tables_number      52
_space_group_name_Hall           '-P 2a 2bc'
loop_
_symmetry_equiv_pos_site_id
_symmetry_equiv_pos_as_xyz
1 x,y,z
2 1/2-x,-y,z
3 1/2-x,1/2+y,1/2-z
4 x,1/2-y,1/2-z
5 -x,-y,-z
6 1/2+x,y,-z
7 1/2+x,1/2-y,1/2+z
8 -x,1/2+y,1/2+z
_cell_length_a                   14.4085(7)
_cell_length_b                   11.4943(6)
_cell_length_c                   22.9268(12)
_cell_angle_alpha                90
_cell_angle_beta                 90
_cell_angle_gamma                90
_cell_volume                     3797.04
_exptl_crystal_colour            colorless
_exptl_crystal_description       needle
_cell_formula_units_Z            4
loop_
_atom_site_label
_atom_site_type_symbol
_atom_site_fract_x
_atom_site_fract_y
_atom_site_fract_z
O1 O 0.62346(12) 0.03710(15) 0.51939(8)
O2 O 0.39295(12) 0.31148(16) 0.50919(8)
O3 O 0.63537(13) 0.63825(16) 0.85659(8)
N1 N 0.49371(15) 0.15433(19) 0.50743(10)
N2 N 0.7500 0.5000 0.87180(15)
C1 C 0.62451(17) 0.2442(2) 0.54197(11)
C2 C 0.68418(16) 0.5775(2) 0.61208(11)
C3 C 0.72704(16) 0.3807(2) 0.58293(10)
C4 C 0.55449(16) 0.3269(2) 0.54057(11)
C5 C 0.71422(16) 0.5419(2) 0.67341(11)
C6 C 0.67775(17) 0.5850(2) 0.72497(11)
C7 C 0.71293(17) 0.2684(2) 0.56186(11)
C8 C 0.65624(16) 0.4643(2) 0.58279(10)
C9 C 0.56804(17) 0.4395(2) 0.56050(11)
C10 C 0.58509(17) 0.1323(2) 0.52167(11)
C11 C 0.71468(17) 0.5413(2) 0.77635(11)
C12 C 0.46926(17) 0.2702(2) 0.51745(11)
C13 C 0.69161(18) 0.5692(2) 0.83794(11)
H1 H 0.6300(19) 0.641(2) 0.7257(11)
H2 H 0.5201(18) 0.498(2) 0.5603(11)
H3 H 0.6373(17) 0.632(2) 0.6113(10)
H4 H 0.7617(18) 0.212(2) 0.5618(11)
H5 H 0.7500 0.5000 0.9082(17)
H6 H 0.453(2) 0.104(3) 0.4948(13)
O1A O 0.87654(12) 0.96290(15) 0.51939(8)
O2A O 1.10705(12) 0.68852(16) 0.50919(8)
O3A O 0.86463(13) 0.36175(16) 0.85659(8)
N1A N 1.00629(15) 0.84567(19) 0.50743(10)
C1A C 0.87549(17) 0.7558(2) 0.54197(11)
C2A C 0.81582(16) 0.4225(2) 0.61208(11)
C3A C 0.77296(16) 0.6193(2) 0.58293(10)
C4A C 0.94551(16) 0.6731(2) 0.54057(11)
C5A C 0.78578(16) 0.4581(2) 0.67341(11)
C6A C 0.82225(17) 0.4150(2) 0.72497(11)
C7A C 0.78707(17) 0.7316(2) 0.56186(11)
C8A C 0.84376(16) 0.5357(2) 0.58279(10)
C9A C 0.93196(17) 0.5605(2) 0.56050(11)
C10A C 0.91491(17) 0.8677(2) 0.52167(11)
C11A C 0.78532(17) 0.4587(2) 0.77635(11)
C12A C 1.03074(17) 0.7298(2) 0.51745(11)
C13A C 0.80839(18) 0.4308(2) 0.83794(11)
H1A H 0.8700(19) 0.359(2) 0.7257(11)
H2A H 0.9799(18) 0.502(2) 0.5603(11)
H3A H 0.8627(17) 0.368(2) 0.6113(10)
H4A H 0.7383(18) 0.788(2) 0.5618(11)
H6A H 1.047(2) 0.896(3) 0.4948(13)
C14 C 0.5933(3) 0.2500 0.7500
H7 H 0.6592 0.2500 0.7500
C15 C 0.5459(2) 0.2674(3) 0.69935(15)
H8 H 0.5788 0.2792 0.6640
C16 C 0.4499(2) 0.2679(4) 0.69934(15)
H9 H 0.4175 0.2808 0.6638
C17 C 0.4005(3) 0.2500 0.7500
C18 C 0.2952(4) 0.2500 0.7500
C15C C 0.5459(2) 0.2326(3) 0.80065(15)
H8C H 0.5788 0.2208 0.8360
C16C C 0.4499(2) 0.2321(4) 0.80066(15)
H9C H 0.4175 0.2192 0.8362
C19 C 0.6854(2) 0.2221(3) 0.40203(15)
H10 H 0.7234 0.1718 0.4246
C20 C 0.6193(2) 0.1751(3) 0.36440(15)
C21 C 0.6961(2) 0.3418(4) 0.40689(15)
H11 H 0.7408 0.3727 0.4332
C22 C 0.5664(2) 0.2513(3) 0.33184(16)
H12 H 0.5213 0.2209 0.3058
C23 C 0.5770(2) 0.3698(4) 0.33597(17)
H13 H 0.5397 0.4202 0.3130
C24 C 0.6427(2) 0.4157(4) 0.37394(17)
H14 H 0.6505 0.4976 0.3771
C25 C 0.6066(3) 0.0453(4) 0.35903(19)
H15 H 0.6209 0.0210 0.3191
H16 H 0.5422 0.0250 0.3683
H17 H 0.6484 0.0057 0.3863
H18? H 0.2726 0.3270 0.7384
H19? H 0.2726 0.2315 0.7892
H20? H 0.2726 0.1915 0.7224
loop_
_geom_bond_atom_site_label_1
_geom_bond_atom_site_label_2
_geom_bond_site_symmetry_1
_geom_bond_site_symmetry_2
O1 C10 1_555 1_555
O2 C12 1_555 1_555
O3 C13 1_555 1_555
N1 C10 1_555 1_555
N2 C13 1_555 1_555
C1 C4 1_555 1_555
C2 C5 1_555 1_555
C3 C7 1_555 1_555
C4 C9 1_555 1_555
C5 C6 1_555 1_555
C6 C11 1_555 1_555
C7 C1 1_555 1_555
C8 C2 1_555 1_555
C9 C8 1_555 1_555
C10 C1 1_555 1_555
C11 C13 1_555 1_555
C12 N1 1_555 1_555
H1 C6 1_555 1_555
H2 C9 1_555 1_555
H3 C2 1_555 1_555
H4 C7 1_555 1_555
H5 N2 1_555 1_555
H6 N1 1_555 1_555
C14 H7 1_555 1_555
C15 C14 1_555 1_555
H8 C15 1_555 1_555
C16 C15 1_555 1_555
H9 C16 1_555 1_555
C17 C16 1_555 1_555
C18 C17 1_555 1_555
C19 H10 1_555 1_555
C20 C19 1_555 1_555
C21 C19 1_555 1_555
H11 C21 1_555 1_555
C22 C20 1_555 1_555
H12 C22 1_555 1_555
C23 C22 1_555 1_555
H13 C23 1_555 1_555
C24 C21 1_555 1_555
H14 C24 1_555 1_555
C25 C20 1_555 1_555
H15 C25 1_555 1_555
H16 C25 1_555 1_555
H17 C25 1_555 1_555
O1A C10A 1_555 1_555
O2A C12A 1_555 1_555
O3A C13A 1_555 1_555
N1A C10A 1_555 1_555
C1A C4A 1_555 1_555
C2A C3 1_555 1_555
C3A C2 1_555 1_555
C4A C9A 1_555 1_555
C5A C5 1_555 1_555
C6A C5A 1_555 1_555
C7A C1A 1_555 1_555
C8A C2A 1_555 1_555
C9A C8A 1_555 1_555
C10A C1A 1_555 1_555
C11A C11 1_555 1_555
C12A N1A 1_555 1_555
C13A N2 1_555 1_555
H1A C6A 1_555 1_555
H2A C9A 1_555 1_555
H3A C2A 1_555 1_555
H4A C7A 1_555 1_555
H6A N1A 1_555 1_555
C15C C14 1_555 1_555
H8C C15C 1_555 1_555
C16C C17 1_555 1_555
H9C C16C 1_555 1_555
C3 C8 1_555 1_555
C4 C12 1_555 1_555
C23 C24 1_555 1_555
C2A C5A 1_555 1_555
C3A C7A 1_555 1_555
C3A C8A 1_555 1_555
C4A C12A 1_555 1_555
C6A C11A 1_555 1_555
C11A C13A 1_555 1_555
C15C C16C 1_555 1_555

#END
