
#######################################################################
#
#                 Cambridge Crystallographic Data Centre
#                                CCDC 
#
#######################################################################
#
# If this CIF has been generated from an entry in the Cambridge 
# Structural Database, then it will include bibliographic, chemical, 
# crystal, experimental, refinement or atomic coordinate data resulting 
# from the CCDC's data processing and validation procedures.
#
#######################################################################

data_NAVZAO
_chemical_formula_moiety         'C26 H11 N3 O6'
_chemical_name_systematic        
6,16,25-triazaoctacyclo[9.9.9.0^2,10^.0^4,8^.0^12,20^.0^14,18^.0^21,29^.0^23,27^]nonacosa-2(10),3,8,12(20),13,18,21(29),22,27-nonaene-5,7,15,17,24,26-hexone
_symmetry_cell_setting           monoclinic
_symmetry_space_group_name_H-M   'P 21/n'
_symmetry_Int_Tables_number      14
_space_group_name_Hall           '-P 2yn'
loop_
_symmetry_equiv_pos_site_id
_symmetry_equiv_pos_as_xyz
1 x,y,z
2 1/2-x,1/2+y,1/2-z
3 -x,-y,-z
4 1/2+x,1/2-y,1/2+z
_cell_length_a                   10.6671(6)
_cell_length_b                   14.8923(10)
_cell_length_c                   12.6388(7)
_cell_angle_alpha                90
_cell_angle_beta                 92.116(2)
_cell_angle_gamma                90
_cell_volume                     2006.4
_exptl_crystal_colour            colorless
_exptl_crystal_description       prism
_cell_formula_units_Z            4
_exptl_crystal_recrystallization_method Sublimation
loop_
_atom_site_label
_atom_site_type_symbol
_atom_site_fract_x
_atom_site_fract_y
_atom_site_fract_z
O1 O 0.11383(17) 0.49972(9) 0.77395(11)
N1 N 0.12268(16) 0.59264(10) 0.62721(12)
H1 H 0.1028 0.6436 0.6576
C1 C 0.12872(18) 0.51088(12) 0.68059(14)
O2 O 0.15386(13) 0.64723(8) 0.45878(10)
N2 N -0.02907(12) -0.00599(9) 0.16696(10)
H2 H -0.0701 -0.0453 0.1269
C2 C 0.16103(14) 0.44318(11) 0.59877(12)
O3 O -0.04704(11) -0.07696(8) 0.32956(9)
N3 N 0.80913(13) 0.13640(10) 0.48846(12)
H3 H 0.8878 0.1192 0.4972
C3 C 0.17819(13) 0.48821(10) 0.50388(12)
O4 O 0.02925(12) 0.09432(8) 0.03619(9)
C4 C 0.15135(16) 0.58568(11) 0.52089(13)
O5 O 0.73058(11) 0.07447(8) 0.64070(9)
C5 C 0.17931(14) 0.35131(10) 0.60886(11)
H4 H 0.1643 0.3206 0.6731
O6 O 0.82792(11) 0.21808(8) 0.33356(10)
C6 C 0.22065(13) 0.30646(10) 0.52048(11)
C7 C 0.24607(13) 0.35298(10) 0.42667(11)
C8 C 0.22123(13) 0.44424(10) 0.41535(11)
H5 H 0.2331 0.4749 0.3505
C9 C 0.30261(13) 0.29310(9) 0.34351(11)
H6 H 0.3233 0.3263 0.2777
C10 C 0.41661(13) 0.24674(9) 0.39632(11)
C11 C 0.53751(13) 0.24730(10) 0.35911(11)
H7 H 0.5577 0.2786 0.2965
C12 C 0.62763(14) 0.19955(10) 0.41848(12)
C13 C 0.76460(15) 0.18864(10) 0.40382(13)
C14 C 0.71512(15) 0.11438(10) 0.55782(13)
C15 C 0.59797(14) 0.15357(10) 0.50972(12)
C16 C 0.47722(14) 0.15150(10) 0.54725(11)
H8 H 0.4574 0.1192 0.6093
C17 C 0.38729(13) 0.19942(9) 0.48864(11)
C18 C 0.24893(13) 0.20616(9) 0.51449(11)
H9 H 0.2282 0.1730 0.5804
C19 C 0.17956(13) 0.16993(9) 0.41570(11)
C20 C 0.10546(13) 0.09306(10) 0.41101(11)
H10 H 0.0880 0.0595 0.4727
C21 C 0.05832(13) 0.06785(10) 0.31131(11)
C22 C -0.01254(14) -0.01406(11) 0.27670(12)
C23 C 0.02682(14) 0.07137(10) 0.12794(12)
C24 C 0.08346(14) 0.11755(10) 0.22186(11)
C25 C 0.15908(14) 0.19304(10) 0.22479(11)
H11 H 0.1764 0.2259 0.1626
C26 C 0.20804(13) 0.21793(9) 0.32343(11)
loop_
_geom_bond_atom_site_label_1
_geom_bond_atom_site_label_2
_geom_bond_site_symmetry_1
_geom_bond_site_symmetry_2
O1 C1 1_555 1_555
N1 H1 1_555 1_555
C1 N1 1_555 1_555
O2 C4 1_555 1_555
N2 H2 1_555 1_555
C2 C1 1_555 1_555
O3 C22 1_555 1_555
N3 H3 1_555 1_555
C3 C2 1_555 1_555
O4 C23 1_555 1_555
C4 N1 1_555 1_555
O5 C14 1_555 1_555
C5 C2 1_555 1_555
H4 C5 1_555 1_555
O6 C13 1_555 1_555
C6 C5 1_555 1_555
C7 C6 1_555 1_555
C8 C3 1_555 1_555
H5 C8 1_555 1_555
C9 C7 1_555 1_555
H6 C9 1_555 1_555
C10 C9 1_555 1_555
C11 C10 1_555 1_555
H7 C11 1_555 1_555
C12 C11 1_555 1_555
C13 N3 1_555 1_555
C14 N3 1_555 1_555
C15 C12 1_555 1_555
C16 C15 1_555 1_555
H8 C16 1_555 1_555
C17 C10 1_555 1_555
C18 C6 1_555 1_555
H9 C18 1_555 1_555
C19 C18 1_555 1_555
C20 C19 1_555 1_555
H10 C20 1_555 1_555
C21 C20 1_555 1_555
C22 N2 1_555 1_555
C23 N2 1_555 1_555
C24 C21 1_555 1_555
C25 C24 1_555 1_555
H11 C25 1_555 1_555
C26 C9 1_555 1_555
C3 C4 1_555 1_555
C7 C8 1_555 1_555
C12 C13 1_555 1_555
C14 C15 1_555 1_555
C16 C17 1_555 1_555
C17 C18 1_555 1_555
C19 C26 1_555 1_555
C21 C22 1_555 1_555
C23 C24 1_555 1_555
C25 C26 1_555 1_555

#END
