
#######################################################################
#
#                 Cambridge Crystallographic Data Centre
#                                CCDC 
#
#######################################################################
#
# If this CIF has been generated from an entry in the Cambridge 
# Structural Database, then it will include bibliographic, chemical, 
# crystal, experimental, refinement or atomic coordinate data resulting 
# from the CCDC's data processing and validation procedures.
#
#######################################################################

data_NAVZAL
_chemical_formula_moiety         'C23 H16 F6 N2 O2'
_chemical_name_systematic        
2-Trifluoroacetyl-1-trifluoromethyl-3,5-diphenyl-4,4-dicyanocyclohexan-1-ol
_symmetry_cell_setting           monoclinic
_symmetry_space_group_name_H-M   'P 21/n'
_symmetry_Int_Tables_number      14
_space_group_name_Hall           '-P 2yn'
loop_
_symmetry_equiv_pos_site_id
_symmetry_equiv_pos_as_xyz
1 x,y,z
2 1/2-x,1/2+y,1/2-z
3 -x,-y,-z
4 1/2+x,1/2-y,1/2+z
_cell_length_a                   6.148(2)
_cell_length_b                   13.759(3)
_cell_length_c                   25.729(6)
_cell_angle_alpha                90
_cell_angle_beta                 92.76(2)
_cell_angle_gamma                90
_cell_volume                     2173.9
_exptl_crystal_colour            colorless
_chemical_melting_point          201-203deg.C(dec.)
_cell_formula_units_Z            4
loop_
_atom_site_label
_atom_site_type_symbol
_atom_site_fract_x
_atom_site_fract_y
_atom_site_fract_z
F1 F 0.3431(8) 0.7567(3) 0.0022(1)
F2 F 0.4740(7) 0.6150(3) 0.0049(1)
F3 F 0.1908(6) 0.6455(3) 0.0441(1)
F4 F 0.4623(5) 0.4707(2) 0.1845(1)
F5 F 0.1873(5) 0.5452(2) 0.1473(1)
F6 F 0.4751(5) 0.5184(2) 0.1053(1)
O1 O 0.7106(6) 0.7336(2) 0.0716(1)
O2 O 0.7292(5) 0.6332(2) 0.1710(1)
N1 N 0.5822(6) 1.0070(3) 0.2463(1)
N2 N 0.0027(6) 0.8499(3) 0.2120(1)
C1 C 0.4274(6) 0.8395(3) 0.2112(1)
C2 C 0.5008(7) 0.8231(3) 0.1550(1)
C3 C 0.4306(7) 0.7230(3) 0.1334(1)
C4 C 0.4996(7) 0.6391(3) 0.1712(2)
C5 C 0.4213(8) 0.6595(3) 0.2256(2)
C6 C 0.5105(7) 0.7548(3) 0.2482(1)
C7 C 0.5253(9) 0.7129(3) 0.0800(2)
C8 C 0.3790(12) 0.6833(4) 0.0333(2)
C9 C 0.4028(9) 0.5422(3) 0.1518(2)
C10 C 0.5147(6) 0.9345(3) 0.2309(1)
C11 C 0.1868(7) 0.8469(3) 0.2118(1)
C12 C 0.4627(7) 0.7719(3) 0.3046(1)
C13 C 0.6231(9) 0.8148(3) 0.3365(2)
C14 C 0.5836(11) 0.8344(4) 0.3881(2)
C15 C 0.3876(11) 0.8107(4) 0.4080(2)
C16 C 0.2297(10) 0.7668(4) 0.3770(2)
C17 C 0.2655(8) 0.7478(3) 0.3252(2)
C18 C 0.4379(7) 0.9055(3) 0.1185(1)
C19 C 0.5922(8) 0.9758(3) 0.1074(2)
C20 C 0.5389(12) 1.0518(4) 0.0737(2)
C21 C 0.3348(11) 1.0589(4) 0.0512(2)
C22 C 0.1807(10) 0.9904(4) 0.0615(2)
C23 C 0.2321(8) 0.9140(3) 0.0953(2)
loop_
_geom_bond_atom_site_label_1
_geom_bond_atom_site_label_2
_geom_bond_site_symmetry_1
_geom_bond_site_symmetry_2
F1 C8 1_555 1_555
F2 C8 1_555 1_555
F3 C8 1_555 1_555
F4 C9 1_555 1_555
F5 C9 1_555 1_555
F6 C9 1_555 1_555
O1 C7 1_555 1_555
O2 C4 1_555 1_555
N1 C10 1_555 1_555
N2 C11 1_555 1_555
C1 C2 1_555 1_555
C2 C3 1_555 1_555
C3 C4 1_555 1_555
C4 C5 1_555 1_555
C5 C6 1_555 1_555
C6 C1 1_555 1_555
C7 C3 1_555 1_555
C8 C7 1_555 1_555
C9 C4 1_555 1_555
C10 C1 1_555 1_555
C11 C1 1_555 1_555
C12 C6 1_555 1_555
C13 C12 1_555 1_555
C14 C13 1_555 1_555
C15 C14 1_555 1_555
C16 C15 1_555 1_555
C17 C12 1_555 1_555
C18 C2 1_555 1_555
C19 C18 1_555 1_555
C20 C19 1_555 1_555
C21 C20 1_555 1_555
C22 C21 1_555 1_555
C23 C18 1_555 1_555
C16 C17 1_555 1_555
C22 C23 1_555 1_555

#END
