
#######################################################################
#
#                 Cambridge Crystallographic Data Centre
#                                CCDC 
#
#######################################################################
#
# If this CIF has been generated from an entry in the Cambridge 
# Structural Database, then it will include bibliographic, chemical, 
# crystal, experimental, refinement or atomic coordinate data resulting 
# from the CCDC's data processing and validation procedures.
#
#######################################################################

data_NAWHAW
_chemical_formula_moiety         'C44 H48 Li2 N4 P2'
_chemical_name_systematic        
bis(\m~2~-[2-(dimethylamino)ethyl][2-(diphenylphosphanyl)phenyl]amido)-di-lithium
_symmetry_cell_setting           monoclinic
_symmetry_space_group_name_H-M   'P 21/c'
_symmetry_Int_Tables_number      14
_space_group_name_Hall           '-P 2ybc'
loop_
_symmetry_equiv_pos_site_id
_symmetry_equiv_pos_as_xyz
1 x,y,z
2 -x,1/2+y,1/2-z
3 -x,-y,-z
4 x,1/2-y,1/2+z
_cell_length_a                   16.1085(4)
_cell_length_b                   14.1250(5)
_cell_length_c                   18.6374(6)
_cell_angle_alpha                90
_cell_angle_beta                 109.3690(10)
_cell_angle_gamma                90
_cell_volume                     4000.61
_exptl_crystal_colour            yellow
_exptl_crystal_description       prism
_cell_formula_units_Z            4
loop_
_atom_site_label
_atom_site_type_symbol
_atom_site_fract_x
_atom_site_fract_y
_atom_site_fract_z
C1 C 0.02280(16) -0.04125(18) 0.16372(13)
C2 C 0.01035(17) -0.13823(19) 0.15235(14)
H1 H 0.0565 -0.1793 0.1757
C3 C -0.0696(2) -0.1747(2) 0.10679(16)
H2 H -0.0771 -0.2397 0.1001
C4 C -0.1378(2) -0.1141(3) 0.07155(17)
H3 H -0.1919 -0.1382 0.0416
C5 C -0.1260(2) -0.0181(3) 0.08065(18)
H4 H -0.1721 0.0227 0.0564
C6 C -0.04601(18) 0.0185(2) 0.12573(16)
H5 H -0.0383 0.0837 0.1306
C7 C 0.13586(16) 0.12139(17) 0.20023(14)
C8 C 0.1483(2) 0.1374(2) 0.13079(16)
H6 H 0.1519 0.0863 0.1005
C9 C 0.1553(2) 0.2288(2) 0.10650(17)
H7 H 0.1629 0.2386 0.0597
C10 C 0.1513(2) 0.3049(2) 0.15086(17)
H8 H 0.1564 0.3661 0.1345
C11 C 0.1396(2) 0.2901(2) 0.21953(17)
H9 H 0.1369 0.3415 0.2498
C12 C 0.13187(19) 0.19909(18) 0.24416(15)
H10 H 0.1239 0.1901 0.2909
C13 C 0.09999(16) 0.01829(16) 0.31794(13)
C14 C 0.01478(17) 0.01663(18) 0.32020(15)
H11 H -0.0314 0.0006 0.2765
C15 C -0.0031(2) 0.0383(2) 0.38624(17)
H12 H -0.0603 0.0363 0.3874
C16 C 0.0663(2) 0.0630(2) 0.45024(16)
H13 H 0.0549 0.0786 0.4946
C17 C 0.15131(19) 0.06518(18) 0.45019(15)
H14 H 0.1960 0.0823 0.4945
C18 C 0.17337(17) 0.04197(16) 0.38420(13)
C19 C 0.32306(19) 0.0805(2) 0.44404(16)
H15 H 0.3246 0.0444 0.4888
H16 H 0.3102 0.1459 0.4523
C20 C 0.4115(2) 0.0749(3) 0.43313(18)
H17 H 0.4525 0.1152 0.4705
H18 H 0.4330 0.0104 0.4426
C21 C 0.4992(2) 0.0954(3) 0.3549(3)
H19 H 0.5189 0.0311 0.3654
H20 H 0.5373 0.1364 0.3928
H21 H 0.5004 0.1133 0.3056
C22 C 0.3777(3) 0.1994(2) 0.3407(2)
H22 H 0.3187 0.2023 0.3419
H23 H 0.3783 0.2181 0.2914
H24 H 0.4146 0.2413 0.3785
C23 C 0.27277(16) -0.16031(17) 0.12408(13)
C24 C 0.31162(19) -0.24888(19) 0.13517(17)
H25 H 0.3700 -0.2552 0.1660
C25 C 0.2644(2) -0.3283(2) 0.10077(19)
H26 H 0.2915 -0.3873 0.1085
C26 C 0.1777(2) -0.3202(2) 0.05512(18)
H27 H 0.1465 -0.3734 0.0313
C27 C 0.13773(19) -0.2332(2) 0.04510(17)
H28 H 0.0789 -0.2276 0.0151
C28 C 0.18404(16) -0.1539(2) 0.07925(15)
H29 H 0.1559 -0.0954 0.0724
C29 C 0.35541(15) -0.00307(17) 0.08205(13)
C30 C 0.36729(17) -0.05966(18) 0.02520(15)
H30 H 0.3636 -0.1251 0.0285
C31 C 0.38441(18) -0.0201(2) -0.03602(16)
H31 H 0.3916 -0.0588 -0.0739
C32 C 0.39080(18) 0.0765(2) -0.04106(16)
H32 H 0.4019 0.1033 -0.0826
C33 C 0.38079(19) 0.1336(2) 0.01511(17)
H33 H 0.3861 0.1989 0.0120
C34 C 0.36278(17) 0.09434(18) 0.07656(15)
H34 H 0.3556 0.1334 0.1142
C35 C 0.43659(15) -0.09051(17) 0.22682(14)
C36 C 0.51575(17) -0.07353(19) 0.21471(16)
H35 H 0.5151 -0.0435 0.1701
C37 C 0.59583(18) -0.1000(2) 0.26719(17)
H36 H 0.6485 -0.0867 0.2589
C38 C 0.59510(18) -0.1464(2) 0.33193(18)
H37 H 0.6481 -0.1666 0.3668
C39 C 0.51786(18) -0.1638(2) 0.34637(16)
H38 H 0.5200 -0.1961 0.3904
C40 C 0.43518(16) -0.13359(16) 0.29562(14)
C41 C 0.36039(18) -0.19516(19) 0.37631(15)
H39 H 0.3988 -0.1626 0.4208
H40 H 0.3851 -0.2573 0.3742
C42 C 0.27031(18) -0.2061(2) 0.38357(15)
H41 H 0.2747 -0.2480 0.4259
H42 H 0.2508 -0.1448 0.3953
C43 C 0.2254(2) -0.3402(2) 0.29709(19)
H43 H 0.2801 -0.3391 0.2871
H44 H 0.1797 -0.3636 0.2531
H45 H 0.2307 -0.3809 0.3396
C44 C 0.1188(2) -0.2456(2) 0.32857(19)
H46 H 0.1043 -0.1827 0.3401
H47 H 0.1232 -0.2867 0.3707
H48 H 0.0736 -0.2684 0.2841
N1 N 0.25447(13) 0.04365(14) 0.37846(11)
N2 N 0.41052(15) 0.10342(16) 0.35651(13)
N3 N 0.35637(13) -0.14185(14) 0.30807(11)
N4 N 0.20323(15) -0.24399(15) 0.31452(13)
P1 P 0.12697(4) -0.00073(4) 0.23189(3)
P2 P 0.33073(4) -0.04987(4) 0.16437(4)
Li1 Li 0.3149(3) 0.0042(3) 0.3069(3)
Li2 Li 0.2326(3) -0.1517(3) 0.2425(2)
loop_
_geom_bond_atom_site_label_1
_geom_bond_atom_site_label_2
_geom_bond_site_symmetry_1
_geom_bond_site_symmetry_2
C1 C2 1_555 1_555
C2 H1 1_555 1_555
C3 C2 1_555 1_555
H2 C3 1_555 1_555
C4 C3 1_555 1_555
H3 C4 1_555 1_555
C5 C4 1_555 1_555
H4 C5 1_555 1_555
C6 C1 1_555 1_555
H5 C6 1_555 1_555
C7 C8 1_555 1_555
C8 H6 1_555 1_555
C9 C8 1_555 1_555
H7 C9 1_555 1_555
C10 C9 1_555 1_555
H8 C10 1_555 1_555
C11 C10 1_555 1_555
H9 C11 1_555 1_555
C12 C7 1_555 1_555
H10 C12 1_555 1_555
C13 C14 1_555 1_555
C14 H11 1_555 1_555
C15 C14 1_555 1_555
H12 C15 1_555 1_555
C16 C15 1_555 1_555
H13 C16 1_555 1_555
C17 C16 1_555 1_555
H14 C17 1_555 1_555
C18 C13 1_555 1_555
C19 H15 1_555 1_555
H16 C19 1_555 1_555
C20 C19 1_555 1_555
H17 C20 1_555 1_555
H18 C20 1_555 1_555
C21 H19 1_555 1_555
H20 C21 1_555 1_555
H21 C21 1_555 1_555
C22 H22 1_555 1_555
H23 C22 1_555 1_555
H24 C22 1_555 1_555
C23 C24 1_555 1_555
C24 H25 1_555 1_555
C25 C24 1_555 1_555
H26 C25 1_555 1_555
C26 C25 1_555 1_555
H27 C26 1_555 1_555
C27 C26 1_555 1_555
H28 C27 1_555 1_555
C28 C23 1_555 1_555
H29 C28 1_555 1_555
C29 C30 1_555 1_555
C30 H30 1_555 1_555
C31 C30 1_555 1_555
H31 C31 1_555 1_555
C32 C31 1_555 1_555
H32 C32 1_555 1_555
C33 C32 1_555 1_555
H33 C33 1_555 1_555
C34 C29 1_555 1_555
H34 C34 1_555 1_555
C35 C36 1_555 1_555
C36 H35 1_555 1_555
C37 C36 1_555 1_555
H36 C37 1_555 1_555
C38 C37 1_555 1_555
H37 C38 1_555 1_555
C39 C38 1_555 1_555
H38 C39 1_555 1_555
C40 C35 1_555 1_555
C41 H39 1_555 1_555
H40 C41 1_555 1_555
C42 C41 1_555 1_555
H41 C42 1_555 1_555
H42 C42 1_555 1_555
C43 H43 1_555 1_555
H44 C43 1_555 1_555
H45 C43 1_555 1_555
C44 H46 1_555 1_555
H47 C44 1_555 1_555
H48 C44 1_555 1_555
N1 C18 1_555 1_555
N2 C20 1_555 1_555
N3 C40 1_555 1_555
N4 C42 1_555 1_555
P1 C1 1_555 1_555
P2 C23 1_555 1_555
Li1 N1 1_555 1_555
Li2 N3 1_555 1_555
C5 C6 1_555 1_555
C7 P1 1_555 1_555
C11 C12 1_555 1_555
C13 P1 1_555 1_555
C17 C18 1_555 1_555
C19 N1 1_555 1_555
C21 N2 1_555 1_555
C22 N2 1_555 1_555
C27 C28 1_555 1_555
C29 P2 1_555 1_555
C33 C34 1_555 1_555
C35 P2 1_555 1_555
C39 C40 1_555 1_555
C41 N3 1_555 1_555
C43 N4 1_555 1_555
C44 N4 1_555 1_555
N2 Li1 1_555 1_555
N3 Li1 1_555 1_555
N4 Li2 1_555 1_555
P1 Li2 1_555 1_555
P2 Li2 1_555 1_555

#END
