
#######################################################################
#
#                 Cambridge Crystallographic Data Centre
#                                CCDC 
#
#######################################################################
#
# If this CIF has been generated from an entry in the Cambridge 
# Structural Database, then it will include bibliographic, chemical, 
# crystal, experimental, refinement or atomic coordinate data resulting 
# from the CCDC's data processing and validation procedures.
#
#######################################################################

data_NAWJOM
_chemical_formula_moiety         'C24 H27 Br1 O4'
_chemical_name_systematic        
'(1S,2R,3S)-(2-(t-Butoxycarbonyl)-1,3-dimethyl-2-phenylcyclopropyl)methyl 4-bromobenzoate'
_symmetry_cell_setting           monoclinic
_symmetry_space_group_name_H-M   'P 21'
_symmetry_Int_Tables_number      4
_space_group_name_Hall           'P 2yb'
loop_
_symmetry_equiv_pos_site_id
_symmetry_equiv_pos_as_xyz
1 x,y,z
2 -x,1/2+y,-z
_cell_length_a                   6.1744(6)
_cell_length_b                   14.0656(13)
_cell_length_c                   13.3422(13)
_cell_angle_alpha                90
_cell_angle_beta                 96.472(2)
_cell_angle_gamma                90
_cell_volume                     1151.34
_exptl_crystal_colour            colorless
_exptl_crystal_description       needle
_cell_formula_units_Z            2
loop_
_atom_site_label
_atom_site_type_symbol
_atom_site_fract_x
_atom_site_fract_y
_atom_site_fract_z
C1 C 0.2148(14) 0.4764(6) 0.8099(6)
C2 C 0.3809(16) 0.4768(7) 0.8984(7)
O1 O 0.5757(11) 0.4861(5) 0.8944(5)
O2 O 0.2956(10) 0.4601(5) 0.9826(4)
C3 C 0.4284(18) 0.4445(9) 1.0782(7)
C4 C 0.557(2) 0.5329(11) 1.1075(10)
H1 H 0.6735 0.5401 1.0639
H2 H 0.6207 0.5279 1.1779
H3 H 0.4603 0.5883 1.0997
C5 C 0.257(2) 0.4312(14) 1.1492(8)
H4 H 0.1632 0.4875 1.1468
H5 H 0.3279 0.4222 1.2180
H6 H 0.1686 0.3751 1.1287
C6 C 0.569(2) 0.3588(9) 1.0714(9)
H7 H 0.4776 0.3045 1.0476
H8 H 0.6449 0.3444 1.1381
H9 H 0.6757 0.3712 1.0240
C7 C 0.1488(14) 0.3746(6) 0.7828(7)
C8 C -0.0489(15) 0.3389(7) 0.8024(8)
H10 H -0.1495 0.3779 0.8323
C9 C -0.1001(14) 0.2445(11) 0.7777(7)
H11 H -0.2383 0.2203 0.7901
C10 C 0.0420(18) 0.1856(7) 0.7362(8)
H12 H 0.0030 0.1220 0.7186
C11 C 0.2458(17) 0.2217(7) 0.7205(8)
H13 H 0.3496 0.1815 0.6944
C12 C 0.2978(17) 0.3154(7) 0.7425(7)
H14 H 0.4360 0.3396 0.7301
C13 C 0.0472(14) 0.5551(7) 0.7949(7)
H15 H -0.0977 0.5339 0.7613
C14 C 0.0340(16) 0.6315(6) 0.8729(6)
H16 H 0.1811 0.6471 0.9040
H17 H -0.0537 0.6087 0.9248
H18 H -0.0339 0.6883 0.8406
C15 C 0.2272(14) 0.5510(6) 0.7280(7)
C16 C 0.4029(15) 0.6266(7) 0.7367(7)
H19 H 0.5370 0.6003 0.7150
H20 H 0.4308 0.6477 0.8070
H21 H 0.3546 0.6808 0.6937
C17 C 0.1629(16) 0.5204(7) 0.6225(7)
H22 H 0.0343 0.4780 0.6200
H23 H 0.1222 0.5767 0.5800
O3 O 0.3423(10) 0.4702(4) 0.5833(5)
C18 C 0.4241(15) 0.5028(8) 0.5012(8)
O4 O 0.3638(12) 0.5709(6) 0.4536(6)
C19 C 0.6113(16) 0.4401(8) 0.4772(7)
C20 C 0.6557(15) 0.3557(7) 0.5251(7)
H24 H 0.5696 0.3353 0.5757
C21 C 0.8276(16) 0.2988(7) 0.5000(7)
H25 H 0.8611 0.2404 0.5340
C22 C 0.9474(15) 0.3292(7) 0.4248(7)
Br1 Br 1.18186(15) 0.25266(8) 0.39121(7)
C23 C 0.9071(17) 0.4140(8) 0.3767(8)
H26 H 0.9937 0.4344 0.3263
C24 C 0.7357(19) 0.4705(8) 0.4032(7)
H27 H 0.7047 0.5297 0.3705
loop_
_geom_bond_atom_site_label_1
_geom_bond_atom_site_label_2
_geom_bond_site_symmetry_1
_geom_bond_site_symmetry_2
C1 C2 1_555 1_555
C2 O1 1_555 1_555
O2 C2 1_555 1_555
C3 O2 1_555 1_555
C4 C3 1_555 1_555
H1 C4 1_555 1_555
H2 C4 1_555 1_555
H3 C4 1_555 1_555
C5 C3 1_555 1_555
H4 C5 1_555 1_555
H5 C5 1_555 1_555
H6 C5 1_555 1_555
C6 C3 1_555 1_555
H7 C6 1_555 1_555
H8 C6 1_555 1_555
H9 C6 1_555 1_555
C7 C1 1_555 1_555
C8 C7 1_555 1_555
H10 C8 1_555 1_555
C9 C8 1_555 1_555
H11 C9 1_555 1_555
C10 C9 1_555 1_555
H12 C10 1_555 1_555
C11 C10 1_555 1_555
H13 C11 1_555 1_555
C12 C7 1_555 1_555
H14 C12 1_555 1_555
C13 C1 1_555 1_555
H15 C13 1_555 1_555
C14 C13 1_555 1_555
H16 C14 1_555 1_555
H17 C14 1_555 1_555
H18 C14 1_555 1_555
C15 C1 1_555 1_555
C16 C15 1_555 1_555
H19 C16 1_555 1_555
H20 C16 1_555 1_555
H21 C16 1_555 1_555
C17 C15 1_555 1_555
H22 C17 1_555 1_555
H23 C17 1_555 1_555
O3 C17 1_555 1_555
C18 O3 1_555 1_555
O4 C18 1_555 1_555
C19 C18 1_555 1_555
C20 C19 1_555 1_555
H24 C20 1_555 1_555
C21 C20 1_555 1_555
H25 C21 1_555 1_555
C22 C21 1_555 1_555
Br1 C22 1_555 1_555
C23 C22 1_555 1_555
H26 C23 1_555 1_555
C24 C19 1_555 1_555
H27 C24 1_555 1_555
C11 C12 1_555 1_555
C13 C15 1_555 1_555
C23 C24 1_555 1_555

#END
