
#######################################################################
#
#                 Cambridge Crystallographic Data Centre
#                                CCDC 
#
#######################################################################
#
# If this CIF has been generated from an entry in the Cambridge 
# Structural Database, then it will include bibliographic, chemical, 
# crystal, experimental, refinement or atomic coordinate data resulting 
# from the CCDC's data processing and validation procedures.
#
#######################################################################

data_NAWKAX
_chemical_formula_moiety         'C20 H23 N3 O4'
_chemical_name_systematic        
2-(4-(N-6-Hydroxyhexyl)-N-methylaminophenyl)-6-nitrobenzoxazole
_symmetry_cell_setting           monoclinic
_symmetry_space_group_name_H-M   'C 2/c'
_symmetry_Int_Tables_number      15
_space_group_name_Hall           '-C 2yn'
loop_
_symmetry_equiv_pos_site_id
_symmetry_equiv_pos_as_xyz
1 x,y,z
2 -x,y,1/2-z
3 1/2+x,1/2+y,z
4 1/2-x,1/2+y,1/2-z
5 -x,-y,-z
6 x,-y,1/2+z
7 1/2-x,1/2-y,-z
8 1/2+x,1/2-y,1/2+z
_cell_length_a                   33.414(7)
_cell_length_b                   7.395(2)
_cell_length_c                   22.377(6)
_cell_angle_alpha                90
_cell_angle_beta                 137.97(2)
_cell_angle_gamma                90
_cell_volume                     3701.96
_exptl_crystal_colour            'pale orange'
_exptl_crystal_description       needle
_chemical_melting_point          375K
_cell_formula_units_Z            8
_exptl_crystal_recrystallization_method ethanol
loop_
_atom_site_label
_atom_site_type_symbol
_atom_site_fract_x
_atom_site_fract_y
_atom_site_fract_z
O1 O 0.2237(1) 0.4521(6) 0.2978(2)
O2 O 0.2214(1) 0.4308(7) 0.3916(2)
O3 O 0.01944(9) 0.7206(5) 0.0250(1)
O4 O -0.4032(1) 0.3558(8) -0.5874(2)
N1 N 0.1985(1) 0.4705(6) 0.3184(2)
N2 N -0.0316(1) 0.7504(6) 0.0552(2)
N3 N -0.2197(1) 1.0651(6) -0.3475(2)
C1 C 0.1375(2) 0.5438(7) 0.2508(2)
C2 C 0.1085(2) 0.5574(8) 0.2729(2)
C3 C 0.0509(2) 0.6224(9) 0.2119(2)
C4 C 0.0239(1) 0.6745(8) 0.1280(2)
C5 C 0.0554(1) 0.6567(7) 0.1098(2)
C6 C 0.1120(1) 0.5935(7) 0.1683(2)
C7 C -0.0322(1) 0.7757(7) -0.0034(2)
C8 C -0.0790(1) 0.8506(7) -0.0912(2)
C9 C -0.1309(1) 0.9100(7) -0.1218(2)
C10 C -0.1769(2) 0.9802(7) -0.2053(2)
C11 C -0.1748(1) 0.9945(7) -0.2652(2)
C12 C -0.1208(1) 0.9320(7) -0.2325(2)
C13 C -0.0748(1) 0.8644(7) -0.1485(2)
C14 C -0.2167(2) 1.0647(9) -0.4098(2)
C15 C -0.2745(2) 1.1293(8) -0.3810(3)
C16 C -0.3204(2) 0.9852(8) -0.4174(3)
C17 C -0.3483(2) 0.8997(9) -0.5020(3)
C18 C -0.3964(3) 0.757(1) -0.5388(4)
C19 C -0.4225(4) 0.667(1) -0.6198(4)
C20 C -0.4199(3) 0.505(1) -0.6259(4)
H1 H -0.293 1.211 -0.428
H2 H -0.264 1.191 -0.334
H3 H -0.351 1.034 -0.427
H4 H -0.300 0.893 -0.373
H5 H -0.318 0.842 -0.492
H6 H -0.367 0.992 -0.546
H7 H -0.427 0.815 -0.551
H8 H -0.378 0.667 -0.494
H9 H -0.402 0.722 -0.630
H10 H -0.463 0.703 -0.665
H11 H -0.403 0.503 -0.646
H12 H -0.462 0.480 -0.674
H13 H -0.212 1.022 -0.223
H14 H -0.135 0.902 -0.084
H15 H -0.039 0.827 -0.129
H16 H -0.117 0.938 -0.270
H17 H 0.030 0.631 0.226
H18 H 0.128 0.522 0.331
H19 H 0.133 0.584 0.154
H20 H -0.252 1.119 -0.465
H21 H -0.183 1.130 -0.385
H22 H -0.214 0.943 -0.420
loop_
_geom_bond_atom_site_label_1
_geom_bond_atom_site_label_2
_geom_bond_site_symmetry_1
_geom_bond_site_symmetry_2
O1 N1 1_555 1_555
O2 N1 1_555 1_555
O3 C5 1_555 1_555
O4 C20 1_555 1_555
N1 C1 1_555 1_555
N2 C4 1_555 1_555
N3 C11 1_555 1_555
C1 C2 1_555 1_555
C2 C3 1_555 1_555
C3 C4 1_555 1_555
C4 C5 1_555 1_555
C5 C6 1_555 1_555
C6 C1 1_555 1_555
C7 O3 1_555 1_555
C8 C7 1_555 1_555
C9 C8 1_555 1_555
C10 C9 1_555 1_555
C11 C10 1_555 1_555
C12 C11 1_555 1_555
C13 C8 1_555 1_555
C14 N3 1_555 1_555
C15 N3 1_555 1_555
C16 C15 1_555 1_555
C17 C16 1_555 1_555
C18 C17 1_555 1_555
C19 C18 1_555 1_555
C20 C19 1_555 1_555
H1 C15 1_555 1_555
H2 C15 1_555 1_555
H3 C16 1_555 1_555
H4 C16 1_555 1_555
H5 C17 1_555 1_555
H6 C17 1_555 1_555
H7 C18 1_555 1_555
H8 C18 1_555 1_555
H9 C19 1_555 1_555
H10 C19 1_555 1_555
H11 C20 1_555 1_555
H12 C20 1_555 1_555
H13 C10 1_555 1_555
H14 C9 1_555 1_555
H15 C13 1_555 1_555
H16 C12 1_555 1_555
H17 C3 1_555 1_555
H18 C2 1_555 1_555
H19 C6 1_555 1_555
H20 C14 1_555 1_555
H21 C14 1_555 1_555
H22 C14 1_555 1_555
N2 C7 1_555 1_555
C12 C13 1_555 1_555

#END
