
#######################################################################
#
#                 Cambridge Crystallographic Data Centre
#                                CCDC 
#
#######################################################################
#
# If this CIF has been generated from an entry in the Cambridge 
# Structural Database, then it will include bibliographic, chemical, 
# crystal, experimental, refinement or atomic coordinate data resulting 
# from the CCDC's data processing and validation procedures.
#
#######################################################################

data_NAWTEL
_chemical_formula_moiety         'C10 H26 N2 2+,2(Cl1 1-),2(H2 O1)'
_chemical_name_systematic        
"N,N'-bis(t-Butyl)ethane-1,2-ammonium dichloride dihydrate"
_symmetry_cell_setting           monoclinic
_symmetry_space_group_name_H-M   'P 21/c'
_symmetry_Int_Tables_number      14
_space_group_name_Hall           '-P 2ybc'
loop_
_symmetry_equiv_pos_site_id
_symmetry_equiv_pos_as_xyz
1 x,y,z
2 -x,1/2+y,1/2-z
3 -x,-y,-z
4 x,1/2-y,1/2+z
_cell_length_a                   10.290(3)
_cell_length_b                   6.780(2)
_cell_length_c                   12.623(3)
_cell_angle_alpha                90
_cell_angle_beta                 107.09(1)
_cell_angle_gamma                90
_cell_volume                     841.773
_exptl_crystal_colour            colorless
_exptl_crystal_description       plate
_cell_formula_units_Z            2
loop_
_atom_site_label
_atom_site_type_symbol
_atom_site_fract_x
_atom_site_fract_y
_atom_site_fract_z
Cl1 Cl 0.28110(3) 0.26753(3) 0.65959(2)
N1 N 0.33573(10) 0.61072(16) 0.50776(8)
H1 H 0.3150(16) 0.514(3) 0.5491(13)
H2 H 0.3732(19) 0.710(3) 0.5567(15)
C1 C 0.43727(12) 0.5348(2) 0.45486(10)
H5 H 0.4628(17) 0.637(3) 0.4113(14)
H6 H 0.3958(17) 0.427(3) 0.4050(13)
C2 C 0.20140(12) 0.6884(2) 0.43192(11)
C3 C 0.12128(14) 0.7552(2) 0.50976(14)
H7 H 0.1673(19) 0.865(3) 0.5567(15)
H8 H 0.1131(18) 0.643(3) 0.5603(15)
H9 H 0.030(2) 0.799(3) 0.4649(16)
C4 C 0.12796(15) 0.5209(3) 0.35840(15)
H10 H 0.036(2) 0.568(3) 0.3187(17)
H11 H 0.122(2) 0.400(3) 0.4041(16)
H12 H 0.175(2) 0.481(3) 0.3034(15)
C5 C 0.23142(19) 0.8608(3) 0.36539(18)
H13 H 0.291(2) 0.967(4) 0.4171(19)
H14 H 0.145(2) 0.916(3) 0.3236(18)
H15 H 0.280(3) 0.811(4) 0.306(2)
N1B N 0.66427(10) 0.38928(16) 0.49224(8)
H1B H 0.6850(16) 0.486(3) 0.4509(13)
H2B H 0.6268(19) 0.290(3) 0.4433(15)
C1B C 0.56273(12) 0.4652(2) 0.54514(10)
H5B H 0.5372(17) 0.363(3) 0.5887(14)
H6B H 0.6042(17) 0.573(3) 0.5950(13)
C2B C 0.79860(12) 0.3116(2) 0.56808(11)
C3B C 0.87872(14) 0.2448(2) 0.49024(14)
H7B H 0.8327(19) 0.135(3) 0.4433(15)
H8B H 0.8869(18) 0.357(3) 0.4397(15)
H9B H 0.970(2) 0.201(3) 0.5351(16)
C4B C 0.87204(15) 0.4791(3) 0.64160(15)
H10B H 0.964(2) 0.432(3) 0.6813(17)
H11B H 0.878(2) 0.600(3) 0.5959(16)
H12B H 0.825(2) 0.519(3) 0.6966(15)
C5B C 0.76858(19) 0.1392(3) 0.63461(18)
H13B H 0.709(2) 0.033(4) 0.5829(19)
H14B H 0.855(2) 0.084(3) 0.6764(18)
H15B H 0.720(3) 0.189(4) 0.694(2)
O1 O 0.4668(3) 0.9085(4) 0.6414(3)
H3 H 0.529(2) 0.884(3) 0.6977(19)
H4 H 0.419(3) 0.999(4) 0.656(2)
Br1? Br 0.28110(3) 0.26753(3) 0.65959(2)
O2? O 0.4384(11) 0.8665(13) 0.6770(8)
loop_
_geom_bond_atom_site_label_1
_geom_bond_atom_site_label_2
_geom_bond_site_symmetry_1
_geom_bond_site_symmetry_2
N1 H1 1_555 1_555
H2 N1 1_555 1_555
O1 H3 1_555 1_555
H4 O1 1_555 1_555
C1 N1 1_555 1_555
H5 C1 1_555 1_555
H6 C1 1_555 1_555
C2 N1 1_555 1_555
C3 C2 1_555 1_555
H7 C3 1_555 1_555
H8 C3 1_555 1_555
H9 C3 1_555 1_555
C4 C2 1_555 1_555
H10 C4 1_555 1_555
H11 C4 1_555 1_555
H12 C4 1_555 1_555
C5 C2 1_555 1_555
H13 C5 1_555 1_555
H14 C5 1_555 1_555
H15 C5 1_555 1_555
N1B H1B 1_555 1_555
H2B N1B 1_555 1_555
C1B C1 1_555 1_555
H5B C1B 1_555 1_555
H6B C1B 1_555 1_555
C2B N1B 1_555 1_555
C3B C2B 1_555 1_555
H7B C3B 1_555 1_555
H8B C3B 1_555 1_555
H9B C3B 1_555 1_555
C4B C2B 1_555 1_555
H10B C4B 1_555 1_555
H11B C4B 1_555 1_555
H12B C4B 1_555 1_555
C5B C2B 1_555 1_555
H13B C5B 1_555 1_555
H14B C5B 1_555 1_555
H15B C5B 1_555 1_555
N1B C1B 1_555 1_555

#END
