
#######################################################################
#
#                 Cambridge Crystallographic Data Centre
#                                CCDC 
#
#######################################################################
#
# If this CIF has been generated from an entry in the Cambridge 
# Structural Database, then it will include bibliographic, chemical, 
# crystal, experimental, refinement or atomic coordinate data resulting 
# from the CCDC's data processing and validation procedures.
#
#######################################################################

data_NAWXUG
_chemical_formula_moiety         'C11 H13 N1 O2'
_chemical_name_systematic        
12-Oxa-8-azatricyclo[7.3.1.0^2,7^]trideca-2,4,6-trien-10-ol
_symmetry_cell_setting           trigonal
_symmetry_space_group_name_H-M   'P 31 2 1'
_symmetry_Int_Tables_number      152
_space_group_name_Hall           'P 31 2"'
loop_
_symmetry_equiv_pos_site_id
_symmetry_equiv_pos_as_xyz
1 x,y,z
2 -y,x-y,1/3+z
3 -x+y,-x,2/3+z
4 y,x,-z
5 x-y,-y,2/3-z
6 -x,-x+y,1/3-z
_cell_length_a                   5.9830(4)
_cell_length_b                   5.9830(4)
_cell_length_c                   46.449(4)
_cell_angle_alpha                90
_cell_angle_beta                 90
_cell_angle_gamma                120
_cell_volume                     1439.94
_exptl_crystal_colour            colorless
_exptl_crystal_description       prismatic
_cell_formula_units_Z            6
loop_
_atom_site_label
_atom_site_type_symbol
_atom_site_fract_x
_atom_site_fract_y
_atom_site_fract_z
N1 N 0.6944(4) 0.9661(4) 0.07700(4)
O1 O 0.3965(5) 0.8155(4) 0.00445(4)
O2 O 0.1283(3) 0.4646(3) 0.05161(4)
C1 C 0.5254(5) 0.7945(5) 0.02914(5)
H1 H 0.6985 0.8308 0.0236
C2 C 0.3708(5) 0.5191(5) 0.03972(5)
H2 H 0.3410 0.4023 0.0238
H3 H 0.4694 0.4894 0.0543
C3 C 0.1542(4) 0.6380(5) 0.07492(5)
H4 H -0.0182 0.5894 0.0821
C4 C 0.2792(5) 0.9106(5) 0.06320(6)
H5 H 0.2895 1.0290 0.0781
H6 H 0.1789 0.9195 0.0473
C5 C 0.5479(4) 0.9811(4) 0.05305(5)
H7 H 0.6352 1.1576 0.0455
C6 C 0.5823(5) 0.7880(4) 0.09866(5)
C7 C 0.3111(5) 0.6243(4) 0.09925(5)
C8 C 0.1986(6) 0.4529(5) 0.12186(6)
H8 H 0.0199 0.3499 0.1225
C9 C 0.3437(7) 0.4311(6) 0.14330(6)
H9 H 0.2649 0.3151 0.1583
C10 C 0.6119(7) 0.5861(6) 0.14219(6)
H10 H 0.7125 0.5690 0.1563
C11 C 0.7293(6) 0.7635(5) 0.12049(5)
H11 H 0.9079 0.8681 0.1203
H12 H 0.855(6) 1.052(5) 0.0759(5)
H13 H 0.514(7) 0.962(7) -0.0028(7)
loop_
_geom_bond_atom_site_label_1
_geom_bond_atom_site_label_2
_geom_bond_site_symmetry_1
_geom_bond_site_symmetry_2
N1 C5 1_555 1_555
O1 C1 1_555 1_555
O2 C2 1_555 1_555
C1 H1 1_555 1_555
C2 C1 1_555 1_555
H2 C2 1_555 1_555
H3 C2 1_555 1_555
C3 O2 1_555 1_555
H4 C3 1_555 1_555
C4 C3 1_555 1_555
H5 C4 1_555 1_555
H6 C4 1_555 1_555
C5 C1 1_555 1_555
H7 C5 1_555 1_555
C6 N1 1_555 1_555
C7 C3 1_555 1_555
C8 C7 1_555 1_555
H8 C8 1_555 1_555
C9 C8 1_555 1_555
H9 C9 1_555 1_555
C10 C9 1_555 1_555
H10 C10 1_555 1_555
C11 C6 1_555 1_555
H11 C11 1_555 1_555
H12 N1 1_555 1_555
H13 O1 1_555 1_555
C4 C5 1_555 1_555
C6 C7 1_555 1_555
C10 C11 1_555 1_555

#END
