
#######################################################################
#
#                 Cambridge Crystallographic Data Centre
#                                CCDC 
#
#######################################################################
#
# If this CIF has been generated from an entry in the Cambridge 
# Structural Database, then it will include bibliographic, chemical, 
# crystal, experimental, refinement or atomic coordinate data resulting 
# from the CCDC's data processing and validation procedures.
#
#######################################################################

data_NAWXOA
_chemical_formula_moiety         'C11 H13 N1 O2'
_chemical_name_systematic        
12-Oxa-8-azatricyclo[7.3.1.0^2,7^]trideca-2,4,6-trien-10-ol
_symmetry_cell_setting           monoclinic
_symmetry_space_group_name_H-M   'P 21'
_symmetry_Int_Tables_number      4
_space_group_name_Hall           'P 2yb'
loop_
_symmetry_equiv_pos_site_id
_symmetry_equiv_pos_as_xyz
1 x,y,z
2 -x,1/2+y,-z
_cell_length_a                   12.9125(15)
_cell_length_b                   6.3682(8)
_cell_length_c                   13.7532(17)
_cell_angle_alpha                90
_cell_angle_beta                 117.733(2)
_cell_angle_gamma                90
_cell_volume                     1001
_exptl_crystal_colour            colorless
_exptl_crystal_description       plate
_cell_formula_units_Z            4
loop_
_atom_site_label
_atom_site_type_symbol
_atom_site_fract_x
_atom_site_fract_y
_atom_site_fract_z
N1 N 0.44844(14) 0.4379(3) 0.69659(14)
H1 H 0.4530 0.5653 0.7191
O1 O 0.44173(13) -0.10377(18) 0.71101(11)
O2 O 0.40421(12) 0.3182(2) 0.87296(11)
H3 H 0.3985 0.2554 0.9223
C1 C 0.46503(16) 0.0199(3) 0.80521(15)
H5 H 0.5399 0.0897 0.8302
H6 H 0.4702 -0.0711 0.8638
C2 C 0.37089(15) 0.1828(3) 0.78106(14)
H7 H 0.2983 0.1108 0.7674
C3 C 0.34866(15) 0.3123(3) 0.67984(15)
H8 H 0.2814 0.4047 0.6615
C4 C 0.31995(17) 0.1606(4) 0.58525(16)
H9 H 0.2525 0.0757 0.5727
H10 H 0.3025 0.2373 0.5184
C5 C 0.42647(19) 0.0228(3) 0.61736(16)
H11 H 0.4118 -0.0713 0.5559
C6 C 0.53122(17) 0.1534(3) 0.64066(15)
C7 C 0.6239(2) 0.0786(5) 0.6262(2)
H12 H 0.6210 -0.0576 0.6007
C8 C 0.7202(3) 0.2019(6) 0.6488(3)
H13 H 0.7826 0.1484 0.6405
C9 C 0.7229(2) 0.4050(6) 0.6840(2)
H14 H 0.7874 0.4892 0.6989
C10 C 0.63244(19) 0.4843(4) 0.69707(16)
H15 H 0.6349 0.6230 0.7192
C11 C 0.53617(16) 0.3598(3) 0.67764(13)
N2 N 0.84577(15) 0.6935(3) 0.10037(13)
H2 H 0.8209 0.8207 0.0927
O3 O 0.82797(12) 0.1516(2) 0.09086(12)
O4 O 0.60915(11) 0.5665(2) -0.03434(11)
H4 H 0.5470 0.5036 -0.0678
C12 C 0.72759(17) 0.2736(3) 0.06801(16)
H16 H 0.7390 0.3458 0.1344
H17 H 0.6605 0.1815 0.0456
C13 C 0.70280(16) 0.4335(3) -0.02160(14)
H18 H 0.6801 0.3586 -0.0908
C14 C 0.81079(18) 0.5639(3) 0.00378(15)
H19 H 0.7948 0.6544 -0.0593
C15 C 0.9103(2) 0.4146(4) 0.02181(18)
H20 H 0.8892 0.3284 -0.0428
H21 H 0.9805 0.4929 0.0366
C16 C 0.93056(17) 0.2789(3) 0.11943(17)
H22 H 0.9968 0.1854 0.1352
C17 C 0.96055(15) 0.4134(3) 0.21873(15)
C18 C 1.02986(16) 0.3418(4) 0.32462(17)
H23 H 1.0582 0.2049 0.3352
C19 C 1.05775(18) 0.4674(5) 0.41418(18)
H24 H 1.1040 0.4163 0.4847
C20 C 1.01636(17) 0.6709(5) 0.39845(18)
H25 H 1.0357 0.7578 0.4588
C21 C 0.94695(16) 0.7461(3) 0.29461(17)
H26 H 0.9196 0.8835 0.2853
C22 C 0.91720(15) 0.6195(3) 0.20349(15)
loop_
_geom_bond_atom_site_label_1
_geom_bond_atom_site_label_2
_geom_bond_site_symmetry_1
_geom_bond_site_symmetry_2
N1 H1 1_555 1_555
N2 H2 1_555 1_555
O1 C1 1_555 1_555
O2 H3 1_555 1_555
O3 C12 1_555 1_555
O4 H4 1_555 1_555
C1 H5 1_555 1_555
H6 C1 1_555 1_555
C2 O2 1_555 1_555
H7 C2 1_555 1_555
C3 N1 1_555 1_555
H8 C3 1_555 1_555
C4 C3 1_555 1_555
H9 C4 1_555 1_555
H10 C4 1_555 1_555
C5 O1 1_555 1_555
H11 C5 1_555 1_555
C6 C5 1_555 1_555
C7 C6 1_555 1_555
H12 C7 1_555 1_555
C8 C7 1_555 1_555
H13 C8 1_555 1_555
C9 C8 1_555 1_555
H14 C9 1_555 1_555
C10 C9 1_555 1_555
H15 C10 1_555 1_555
C11 N1 1_555 1_555
C12 H16 1_555 1_555
H17 C12 1_555 1_555
C13 O4 1_555 1_555
H18 C13 1_555 1_555
C14 N2 1_555 1_555
H19 C14 1_555 1_555
C15 C14 1_555 1_555
H20 C15 1_555 1_555
H21 C15 1_555 1_555
C16 O3 1_555 1_555
H22 C16 1_555 1_555
C17 C16 1_555 1_555
C18 C17 1_555 1_555
H23 C18 1_555 1_555
C19 C18 1_555 1_555
H24 C19 1_555 1_555
C20 C19 1_555 1_555
H25 C20 1_555 1_555
C21 C20 1_555 1_555
H26 C21 1_555 1_555
C22 N2 1_555 1_555
C1 C2 1_555 1_555
C2 C3 1_555 1_555
C4 C5 1_555 1_555
C6 C11 1_555 1_555
C10 C11 1_555 1_555
C12 C13 1_555 1_555
C13 C14 1_555 1_555
C15 C16 1_555 1_555
C17 C22 1_555 1_555
C21 C22 1_555 1_555

#END
