
#######################################################################
#
#                 Cambridge Crystallographic Data Centre
#                                CCDC 
#
#######################################################################
#
# If this CIF has been generated from an entry in the Cambridge 
# Structural Database, then it will include bibliographic, chemical, 
# crystal, experimental, refinement or atomic coordinate data resulting 
# from the CCDC's data processing and validation procedures.
#
#######################################################################

data_NAXDIZ06
_chemical_formula_moiety         'C14 H10 N2 O1'
_chemical_name_systematic        2,5-diphenyl-1,3,4-oxadiazole
_symmetry_cell_setting           monoclinic
_symmetry_space_group_name_H-M   'P 21/c'
_symmetry_Int_Tables_number      14
_space_group_name_Hall           '-P 2ybc'
loop_
_symmetry_equiv_pos_site_id
_symmetry_equiv_pos_as_xyz
1 x,y,z
2 -x,1/2+y,1/2-z
3 -x,-y,-z
4 x,1/2-y,1/2+z
_cell_length_a                   5.1901(6)
_cell_length_b                   18.063(3)
_cell_length_c                   12.1410(13)
_cell_angle_alpha                90
_cell_angle_beta                 93.142(11)
_cell_angle_gamma                90
_cell_volume                     1136.49
_exptl_crystal_colour            colorless
_exptl_crystal_description       needle
_chemical_melting_point          '410 K'
_cell_formula_units_Z            4
loop_
_atom_site_label
_atom_site_type_symbol
_atom_site_fract_x
_atom_site_fract_y
_atom_site_fract_z
O1 O 0.7475(6) 0.6761(2) 0.6945(2)
C1 C 0.3901(8) 0.7598(3) 0.6476(4)
N1 N 0.8267(8) 0.6306(3) 0.5309(3)
C2 C 0.8935(9) 0.6305(3) 0.6353(4)
N2 N 0.6208(7) 0.6817(3) 0.5184(3)
C3 C 1.0974(9) 0.5880(3) 0.6912(4)
C4 C 0.5831(8) 0.7071(3) 0.6154(4)
C5 C 0.3757(9) 0.7804(3) 0.7583(4)
H1 H 0.4945 0.7617 0.8113
C6 C 1.1456(10) 0.5952(4) 0.8040(4)
H2 H 1.0430 0.6261 0.8444
C7 C 0.2125(9) 0.7880(3) 0.5697(4)
H3 H 0.2188 0.7740 0.4962
C8 C 0.0118(9) 0.8573(4) 0.7101(5)
H4 H -0.1144 0.8904 0.7304
C9 C 0.0257(9) 0.8369(4) 0.6009(5)
H5 H -0.0918 0.8564 0.5479
C10 C 1.2479(10) 0.5389(3) 0.6342(5)
H6 H 1.2137 0.5321 0.5589
C11 C 1.4430(10) 0.5010(4) 0.6864(5)
H7 H 1.5439 0.4695 0.6462
C12 C 0.1851(9) 0.8286(3) 0.7889(4)
H8 H 0.1739 0.8416 0.8626
C13 C 1.4943(10) 0.5084(4) 0.7981(6)
H9 H 1.6267 0.4813 0.8336
C14 C 1.3477(11) 0.5562(4) 0.8566(5)
H10 H 1.3840 0.5625 0.9319
loop_
_geom_bond_atom_site_label_1
_geom_bond_atom_site_label_2
_geom_bond_site_symmetry_1
_geom_bond_site_symmetry_2
O1 C2 1_555 1_555
C1 C4 1_555 1_555
N1 C2 1_555 1_555
C2 C3 1_555 1_555
N2 N1 1_555 1_555
C3 C6 1_555 1_555
C4 O1 1_555 1_555
C5 C1 1_555 1_555
H1 C5 1_555 1_555
C6 H2 1_555 1_555
C7 C1 1_555 1_555
H3 C7 1_555 1_555
C8 H4 1_555 1_555
C9 C7 1_555 1_555
H5 C9 1_555 1_555
C10 C3 1_555 1_555
H6 C10 1_555 1_555
C11 C10 1_555 1_555
H7 C11 1_555 1_555
C12 C5 1_555 1_555
H8 C12 1_555 1_555
C13 C11 1_555 1_555
H9 C13 1_555 1_555
C14 C6 1_555 1_555
H10 C14 1_555 1_555
N2 C4 1_555 1_555
C8 C9 1_555 1_555
C8 C12 1_555 1_555
C13 C14 1_555 1_555

#END
