
#######################################################################
#
#                 Cambridge Crystallographic Data Centre
#                                CCDC 
#
#######################################################################
#
# If this CIF has been generated from an entry in the Cambridge 
# Structural Database, then it will include bibliographic, chemical, 
# crystal, experimental, refinement or atomic coordinate data resulting 
# from the CCDC's data processing and validation procedures.
#
#######################################################################

data_NAXDIB
_chemical_name_common            'Ternifolide A'
_chemical_formula_moiety         'C22 H28 O7'
_chemical_name_systematic        
'9,9-Dimethyl-14-methylene-2,13,17-trioxo-3,12-dioxatetracyclo[13.3.1.0^5,10^.0^5,18^]nonadec-6-yl acetate'
_symmetry_cell_setting           hexagonal
_symmetry_space_group_name_H-M   'P 61'
_symmetry_Int_Tables_number      169
_space_group_name_Hall           'P 61'
loop_
_symmetry_equiv_pos_site_id
_symmetry_equiv_pos_as_xyz
1 x,y,z
2 x-y,x,1/6+z
3 y,-x+y,5/6+z
4 -y,x-y,1/3+z
5 -x+y,-x,2/3+z
6 -x,-y,1/2+z
_cell_length_a                   10.2790(2)
_cell_length_b                   10.2790(2)
_cell_length_c                   33.4703(5)
_cell_angle_alpha                90
_cell_angle_beta                 90
_cell_angle_gamma                120
_cell_volume                     3062.61
_exptl_crystal_colour            colorless
_exptl_crystal_description       prism
_cell_formula_units_Z            6
loop_
_atom_site_label
_atom_site_type_symbol
_atom_site_fract_x
_atom_site_fract_y
_atom_site_fract_z
O1 O 0.28628(11) 0.50691(11) 1.04484(3)
O2 O -0.04472(12) 0.27725(12) 0.91987(3)
O3 O 0.38016(12) 0.56947(11) 0.95224(3)
O4 O 0.33218(12) 0.54090(13) 1.11073(3)
O5 O -0.04612(12) 0.24415(12) 1.04140(3)
O6 O 0.09182(13) 0.19206(13) 1.08102(3)
C1 C 0.53970(19) 0.44023(19) 1.09924(5)
H1 H 0.5453 0.4923 1.1232
H2 H 0.6027 0.3980 1.0957
C2 C 0.44392(16) 0.42642(16) 1.07073(5)
C3 C 0.34973(16) 0.49666(16) 1.07914(5)
C4 C 0.18088(17) 0.56076(17) 1.04662(5)
H3 H 0.2299 0.6644 1.0573
H4 H 0.0946 0.4951 1.0640
C5 C 0.12899(16) 0.55711(16) 1.00381(5)
H5 H 0.2228 0.6271 0.9890
C6 C 0.06754(16) 0.40141(16) 0.98173(4)
C7 C 0.02928(16) 0.42495(17) 0.93863(5)
H6 H 0.1246 0.4920 0.9240
C8 C -0.05291(18) 0.2725(2) 0.87971(6)
C9 C 0.43539(16) 0.35002(16) 1.03098(5)
H7 H 0.5157 0.3223 1.0323
C10 C 0.47276(16) 0.45050(17) 0.99404(5)
H8 H 0.5536 0.5525 1.0015
H9 H 0.5145 0.4123 0.9735
C11 C 0.34744(16) 0.46542(16) 0.97490(4)
C12 C 0.18374(15) 0.34275(15) 0.97911(5)
H10 H 0.1602 0.2889 0.9529
C13 C 0.02917(17) 0.63259(17) 1.00115(5)
C14 C -0.11743(18) 0.55558(19) 1.02567(5)
H11 H -0.1559 0.6250 1.0290
H12 H -0.0973 0.5276 1.0520
H13 H -0.1922 0.4652 1.0116
C15 C -0.00541(18) 0.64149(18) 0.95717(5)
H14 H -0.0755 0.6810 0.9553
H15 H 0.0887 0.7133 0.9434
C16 C -0.07445(18) 0.49036(18) 0.93589(5)
H16 H -0.1725 0.4200 0.9482
H17 H -0.0922 0.5034 0.9075
O7 O -0.00054(15) 0.38129(19) 0.85853(4)
C17 C 0.1215(2) 0.79608(18) 1.01637(6)
H18 H 0.2224 0.8438 1.0047
H19 H 0.1291 0.7960 1.0456
H20 H 0.0716 0.8521 1.0085
C18 C -0.07354(17) 0.27156(16) 1.00060(5)
H21 H -0.1555 0.2956 1.0003
H22 H -0.1063 0.1794 0.9846
C19 C 0.06841(16) 0.21881(16) 1.04749(5)
C20 C 0.15254(16) 0.21693(16) 1.01057(4)
H23 H 0.0825 0.1205 0.9968
C21 C 0.28962(17) 0.20254(16) 1.02154(5)
H24 H 0.3100 0.1524 0.9991
H25 H 0.2634 0.1358 1.0451
C22 C -0.1373(2) 0.1125(3) 0.86597(7)
H26 H -0.1368 0.1094 0.8367
H27 H -0.2411 0.0652 0.8756
H28 H -0.0891 0.0583 0.8766
loop_
_geom_bond_atom_site_label_1
_geom_bond_atom_site_label_2
_geom_bond_site_symmetry_1
_geom_bond_site_symmetry_2
O1 C3 1_555 1_555
O2 C7 1_555 1_555
O3 C11 1_555 1_555
O4 C3 1_555 1_555
O5 C18 1_555 1_555
O6 C19 1_555 1_555
C1 H1 1_555 1_555
H2 C1 1_555 1_555
C2 C1 1_555 1_555
C3 C2 1_555 1_555
C4 O1 1_555 1_555
H3 C4 1_555 1_555
H4 C4 1_555 1_555
C5 C4 1_555 1_555
H5 C5 1_555 1_555
C6 C5 1_555 1_555
C7 C6 1_555 1_555
H6 C7 1_555 1_555
C8 O2 1_555 1_555
C9 C2 1_555 1_555
H7 C9 1_555 1_555
C10 C9 1_555 1_555
H8 C10 1_555 1_555
H9 C10 1_555 1_555
C11 C10 1_555 1_555
C12 C6 1_555 1_555
H10 C12 1_555 1_555
C13 C5 1_555 1_555
C14 C13 1_555 1_555
H11 C14 1_555 1_555
H12 C14 1_555 1_555
H13 C14 1_555 1_555
C15 C13 1_555 1_555
H14 C15 1_555 1_555
H15 C15 1_555 1_555
C16 C7 1_555 1_555
H16 C16 1_555 1_555
H17 C16 1_555 1_555
O7 C8 1_555 1_555
C17 C13 1_555 1_555
H18 C17 1_555 1_555
H19 C17 1_555 1_555
H20 C17 1_555 1_555
C18 C6 1_555 1_555
H21 C18 1_555 1_555
H22 C18 1_555 1_555
C19 O5 1_555 1_555
C20 C12 1_555 1_555
H23 C20 1_555 1_555
C21 C9 1_555 1_555
H24 C21 1_555 1_555
H25 C21 1_555 1_555
C22 C8 1_555 1_555
H26 C22 1_555 1_555
H27 C22 1_555 1_555
H28 C22 1_555 1_555
C11 C12 1_555 1_555
C15 C16 1_555 1_555
C19 C20 1_555 1_555
C20 C21 1_555 1_555

#END
