
#######################################################################
#
#                 Cambridge Crystallographic Data Centre
#                                CCDC 
#
#######################################################################
#
# If this CIF has been generated from an entry in the Cambridge 
# Structural Database, then it will include bibliographic, chemical, 
# crystal, experimental, refinement or atomic coordinate data resulting 
# from the CCDC's data processing and validation procedures.
#
#######################################################################

data_NAXFEZ
_chemical_name_common            12086a
_chemical_formula_moiety         'C28 H33 N1 O3 S1'
_chemical_name_systematic        
N-(1-Allyl-2-cyclohexyl-7-phenyl-3-oxabicyclo[3.1.1]hept-6-ylidene)-4-methylbenzenesulfonamide
_symmetry_cell_setting           triclinic
_symmetry_space_group_name_H-M   'P -1'
_symmetry_Int_Tables_number      2
_space_group_name_Hall           '-P 1'
loop_
_symmetry_equiv_pos_site_id
_symmetry_equiv_pos_as_xyz
1 x,y,z
2 -x,-y,-z
_cell_length_a                   9.3191(19)
_cell_length_b                   10.877(2)
_cell_length_c                   13.873(3)
_cell_angle_alpha                82.233(2)
_cell_angle_beta                 70.521(2)
_cell_angle_gamma                66.598(2)
_cell_volume                     1216.67
_exptl_crystal_colour            colorless
_exptl_crystal_description       block
_cell_formula_units_Z            2
loop_
_atom_site_label
_atom_site_type_symbol
_atom_site_fract_x
_atom_site_fract_y
_atom_site_fract_z
S1 S 0.05917(6) 0.24860(5) 0.36493(4)
O1 O 0.30613(15) 0.58747(12) 0.26545(10)
O2 O -0.05808(16) 0.37902(14) 0.35418(12)
O3 O 0.05452(17) 0.19889(14) 0.46658(10)
N1 N 0.24870(18) 0.24089(15) 0.29916(12)
C1 C 0.2916(2) 0.32734(18) 0.32321(14)
C2 C 0.4533(2) 0.34584(18) 0.28528(14)
C3 C 0.4266(2) 0.46969(18) 0.21048(14)
H1 H 0.3840 0.4521 0.1586
C4 C 0.1684(2) 0.56984(19) 0.34058(15)
H2 H 0.0901 0.5688 0.3071
H3 H 0.1113 0.6457 0.3891
C5 C 0.2235(2) 0.43784(18) 0.39903(14)
H4 H 0.1444 0.4282 0.4662
C6 C 0.4034(2) 0.40255(19) 0.39661(14)
H5 H 0.4282 0.4844 0.3946
C7 C 0.0452(2) 0.12993(19) 0.29771(14)
C8 C 0.0890(3) 0.1345(2) 0.19202(16)
H6 H 0.1249 0.2028 0.1553
C9 C 0.0802(3) 0.0393(2) 0.14060(17)
H7 H 0.1106 0.0422 0.0681
C10 C 0.0275(2) -0.0613(2) 0.19299(16)
C11 C -0.0209(2) -0.0609(2) 0.29849(16)
H8 H -0.0614 -0.1266 0.3355
C12 C -0.0114(2) 0.03345(19) 0.35125(15)
H9 H -0.0436 0.0317 0.4238
C13 C 0.0243(3) -0.1691(2) 0.13677(19)
H10 H -0.0768 -0.1858 0.1712
H11 H 0.1197 -0.2517 0.1363
H12 H 0.0278 -0.1400 0.0663
C14 C 0.6087(2) 0.22308(19) 0.24421(15)
H13 H 0.7055 0.2455 0.2353
H14 H 0.6107 0.1503 0.2956
C15 C 0.6236(3) 0.1727(2) 0.14421(16)
H15 H 0.6501 0.2245 0.0851
C16 C 0.6040(3) 0.0656(3) 0.13081(19)
H16 H 0.5774 0.0104 0.1876
H17 H 0.6161 0.0422 0.0642
C17 C 0.4625(2) 0.30241(19) 0.47432(14)
C18 C 0.5994(2) 0.29597(19) 0.49703(14)
H18 H 0.6542 0.3543 0.4628
C19 C 0.6574(2) 0.2060(2) 0.56873(15)
H19 H 0.7506 0.2039 0.5838
C20 C 0.5810(3) 0.1194(2) 0.61835(16)
H20 H 0.6213 0.0570 0.6671
C21 C 0.4454(3) 0.1245(2) 0.59621(18)
H21 H 0.3920 0.0652 0.6301
C22 C 0.3858(3) 0.2151(2) 0.52510(17)
H22 H 0.2917 0.2175 0.5109
C23 C 0.5792(2) 0.50185(19) 0.15323(14)
H23 H 0.6616 0.4219 0.1108
C24 C 0.5365(3) 0.6194(2) 0.07971(15)
H24 H 0.4848 0.5995 0.0351
H25 H 0.4564 0.7010 0.1194
C25 C 0.6901(3) 0.6448(2) 0.01376(16)
H26 H 0.7670 0.5657 -0.0297
H27 H 0.6592 0.7227 -0.0316
C26 C 0.7746(3) 0.6718(2) 0.08064(17)
H28 H 0.8774 0.6824 0.0368
H29 H 0.7021 0.7566 0.1184
C27 C 0.8146(3) 0.5585(2) 0.15645(17)
H30 H 0.8620 0.5822 0.2019
H31 H 0.8979 0.4763 0.1188
C28 C 0.6620(2) 0.5308(2) 0.22128(15)
H32 H 0.5834 0.6094 0.2649
H33 H 0.6937 0.4529 0.2666
loop_
_geom_bond_atom_site_label_1
_geom_bond_atom_site_label_2
_geom_bond_site_symmetry_1
_geom_bond_site_symmetry_2
S1 O2 1_555 1_555
O1 C3 1_555 1_555
O3 S1 1_555 1_555
N1 S1 1_555 1_555
C1 N1 1_555 1_555
C2 C1 1_555 1_555
C3 C2 1_555 1_555
H1 C3 1_555 1_555
C4 O1 1_555 1_555
H2 C4 1_555 1_555
H3 C4 1_555 1_555
C5 C1 1_555 1_555
H4 C5 1_555 1_555
C6 C2 1_555 1_555
H5 C6 1_555 1_555
C7 S1 1_555 1_555
C8 C7 1_555 1_555
H6 C8 1_555 1_555
C9 C8 1_555 1_555
H7 C9 1_555 1_555
C10 C9 1_555 1_555
C11 C10 1_555 1_555
H8 C11 1_555 1_555
C12 C7 1_555 1_555
H9 C12 1_555 1_555
C13 C10 1_555 1_555
H10 C13 1_555 1_555
H11 C13 1_555 1_555
H12 C13 1_555 1_555
C14 C2 1_555 1_555
H13 C14 1_555 1_555
H14 C14 1_555 1_555
C15 C14 1_555 1_555
H15 C15 1_555 1_555
C16 C15 1_555 1_555
H16 C16 1_555 1_555
H17 C16 1_555 1_555
C17 C6 1_555 1_555
C18 C17 1_555 1_555
H18 C18 1_555 1_555
C19 C18 1_555 1_555
H19 C19 1_555 1_555
C20 C19 1_555 1_555
H20 C20 1_555 1_555
C21 C20 1_555 1_555
H21 C21 1_555 1_555
C22 C17 1_555 1_555
H22 C22 1_555 1_555
C23 C3 1_555 1_555
H23 C23 1_555 1_555
C24 C23 1_555 1_555
H24 C24 1_555 1_555
H25 C24 1_555 1_555
C25 C24 1_555 1_555
H26 C25 1_555 1_555
H27 C25 1_555 1_555
C26 C25 1_555 1_555
H28 C26 1_555 1_555
H29 C26 1_555 1_555
C27 C26 1_555 1_555
H30 C27 1_555 1_555
H31 C27 1_555 1_555
C28 C23 1_555 1_555
H32 C28 1_555 1_555
H33 C28 1_555 1_555
C4 C5 1_555 1_555
C5 C6 1_555 1_555
C11 C12 1_555 1_555
C21 C22 1_555 1_555
C27 C28 1_555 1_555

#END
