
#######################################################################
#
#                 Cambridge Crystallographic Data Centre
#                                CCDC 
#
#######################################################################
#
# If this CIF has been generated from an entry in the Cambridge 
# Structural Database, then it will include bibliographic, chemical, 
# crystal, experimental, refinement or atomic coordinate data resulting 
# from the CCDC's data processing and validation procedures.
#
#######################################################################

data_NAXLUW
_chemical_formula_moiety         'C21 H15 I1,C6 H12 N2'
_chemical_name_systematic        
"1,1',1''-(1-iodoprop-1-yne-3,3,3-triyl)tribenzene 1,4-diazabicyclo[2.2.2]octane"
_symmetry_cell_setting           monoclinic
_symmetry_space_group_name_H-M   'P 21/c'
_symmetry_Int_Tables_number      14
_space_group_name_Hall           '-P 2ybc'
loop_
_symmetry_equiv_pos_site_id
_symmetry_equiv_pos_as_xyz
1 x,y,z
2 -x,1/2+y,1/2-z
3 -x,-y,-z
4 x,1/2-y,1/2+z
_cell_length_a                   13.3106(19)
_cell_length_b                   7.0791(10)
_cell_length_c                   24.375(3)
_cell_angle_alpha                90
_cell_angle_beta                 100.278(2)
_cell_angle_gamma                90
_cell_volume                     2259.93
_exptl_crystal_colour            colorless
_exptl_crystal_description       platelet
_cell_formula_units_Z            4
loop_
_atom_site_label
_atom_site_type_symbol
_atom_site_fract_x
_atom_site_fract_y
_atom_site_fract_z
I1 I 0.19507(2) 0.90316(2) 0.46121(2)
C1 C 0.22383(19) 0.7013(4) 0.40629(11)
C2 C 0.24793(18) 0.5829(4) 0.37688(11)
C3 C 0.27820(18) 0.4288(3) 0.34188(10)
C4 C 0.36516(18) 0.3173(4) 0.37811(10)
C5 C 0.37231(19) 0.1218(4) 0.37621(11)
H1 H 0.3222 0.0517 0.3519
C6 C 0.4522(2) 0.0283(4) 0.40960(11)
H2 H 0.4561 -0.1055 0.4079
C7 C 0.52558(19) 0.1261(4) 0.44503(11)
H3 H 0.5796 0.0607 0.4680
C8 C 0.5202(2) 0.3224(4) 0.44699(11)
H4 H 0.5711 0.3919 0.4710
C9 C 0.44079(19) 0.4151(4) 0.41396(11)
H5 H 0.4374 0.5490 0.4156
C10 C 0.31572(19) 0.5154(4) 0.29075(11)
C11 C 0.39743(19) 0.4394(4) 0.26982(11)
H6 H 0.4354 0.3380 0.2889
C12 C 0.4239(2) 0.5102(4) 0.22150(12)
H7 H 0.4798 0.4564 0.2077
C13 C 0.3705(2) 0.6572(4) 0.19315(12)
H8 H 0.3890 0.7047 0.1599
C14 C 0.2892(2) 0.7352(4) 0.21394(11)
H9 H 0.2518 0.8371 0.1948
C15 C 0.2623(2) 0.6651(4) 0.26236(11)
H10 H 0.2068 0.7200 0.2763
C16 C 0.18511(18) 0.3017(4) 0.32084(10)
C17 C 0.18295(18) 0.1865(4) 0.27470(11)
H11 H 0.2398 0.1857 0.2561
C18 C 0.09983(19) 0.0727(4) 0.25518(11)
H12 H 0.1000 -0.0049 0.2234
C19 C 0.0163(2) 0.0715(4) 0.28188(12)
H13 H -0.0411 -0.0059 0.2685
C20 C 0.01757(19) 0.1840(4) 0.32810(11)
H14 H -0.0392 0.1833 0.3468
C21 C 0.10091(19) 0.2983(4) 0.34757(11)
H15 H 0.1006 0.3751 0.3795
N1 N 0.17790(16) 0.1678(3) 0.53973(9)
N2 N 0.16882(18) 0.3948(3) 0.62099(10)
C22 C 0.2794(2) 0.2408(5) 0.56315(15)
H16 H 0.3103 0.2995 0.5332
H17 H 0.3240 0.1355 0.5793
C23 C 0.2716(2) 0.3887(5) 0.60880(15)
H18 H 0.3204 0.3563 0.6431
H19 H 0.2902 0.5148 0.5961
C24 C 0.1380(3) 0.2043(4) 0.63424(13)
H20 H 0.0692 0.2086 0.6443
H21 H 0.1863 0.1549 0.6667
C25 C 0.1365(3) 0.0708(4) 0.58381(12)
H22 H 0.1777 -0.0432 0.5957
H23 H 0.0655 0.0302 0.5694
C26 C 0.1109(3) 0.3271(4) 0.52057(13)
H24 H 0.0429 0.2798 0.5027
H25 H 0.1398 0.4009 0.4926
C27 C 0.0999(3) 0.4553(5) 0.57074(14)
H26 H 0.1155 0.5876 0.5621
H27 H 0.0287 0.4504 0.5772
loop_
_geom_bond_atom_site_label_1
_geom_bond_atom_site_label_2
_geom_bond_site_symmetry_1
_geom_bond_site_symmetry_2
I1 C1 1_555 1_555
C1 C2 1_555 1_555
C2 C3 1_555 1_555
C3 C4 1_555 1_555
C4 C5 1_555 1_555
C5 H1 1_555 1_555
C6 C5 1_555 1_555
H2 C6 1_555 1_555
C7 C6 1_555 1_555
H3 C7 1_555 1_555
C8 C7 1_555 1_555
H4 C8 1_555 1_555
C9 C4 1_555 1_555
H5 C9 1_555 1_555
C10 C3 1_555 1_555
C11 C10 1_555 1_555
H6 C11 1_555 1_555
C12 C11 1_555 1_555
H7 C12 1_555 1_555
C13 C12 1_555 1_555
H8 C13 1_555 1_555
C14 C13 1_555 1_555
H9 C14 1_555 1_555
C15 C10 1_555 1_555
H10 C15 1_555 1_555
C16 C3 1_555 1_555
C17 C16 1_555 1_555
H11 C17 1_555 1_555
C18 C17 1_555 1_555
H12 C18 1_555 1_555
C19 C18 1_555 1_555
H13 C19 1_555 1_555
C20 C19 1_555 1_555
H14 C20 1_555 1_555
C21 C16 1_555 1_555
H15 C21 1_555 1_555
N1 C22 1_555 1_555
N2 C23 1_555 1_555
C22 H16 1_555 1_555
H17 C22 1_555 1_555
C23 C22 1_555 1_555
H18 C23 1_555 1_555
H19 C23 1_555 1_555
C24 N2 1_555 1_555
H20 C24 1_555 1_555
H21 C24 1_555 1_555
C25 N1 1_555 1_555
H22 C25 1_555 1_555
H23 C25 1_555 1_555
C26 N1 1_555 1_555
H24 C26 1_555 1_555
H25 C26 1_555 1_555
C27 N2 1_555 1_555
H26 C27 1_555 1_555
H27 C27 1_555 1_555
C8 C9 1_555 1_555
C14 C15 1_555 1_555
C20 C21 1_555 1_555
C24 C25 1_555 1_555
C26 C27 1_555 1_555

#END
