
#######################################################################
#
#                 Cambridge Crystallographic Data Centre
#                                CCDC 
#
#######################################################################
#
# If this CIF has been generated from an entry in the Cambridge 
# Structural Database, then it will include bibliographic, chemical, 
# crystal, experimental, refinement or atomic coordinate data resulting 
# from the CCDC's data processing and validation procedures.
#
#######################################################################

data_NAXLUW01
_chemical_formula_moiety         'C21 H15 I1,C6 H12 N2'
_chemical_name_systematic        
"1,1',1''-(1-iodoprop-1-yne-3,3,3-triyl)tribenzene 1,4-diazabicyclo[2.2.2]octane"
_symmetry_cell_setting           monoclinic
_symmetry_space_group_name_H-M   'P 21/c'
_symmetry_Int_Tables_number      14
_space_group_name_Hall           '-P 2ybc'
loop_
_symmetry_equiv_pos_site_id
_symmetry_equiv_pos_as_xyz
1 x,y,z
2 -x,1/2+y,1/2-z
3 -x,-y,-z
4 x,1/2-y,1/2+z
_cell_length_a                   13.5312(6)
_cell_length_b                   7.1004(3)
_cell_length_c                   24.8852(11)
_cell_angle_alpha                90
_cell_angle_beta                 100.2619(7)
_cell_angle_gamma                90
_cell_volume                     2352.65
_exptl_crystal_colour            colorless
_exptl_crystal_description       platelet
_cell_formula_units_Z            4
loop_
_atom_site_label
_atom_site_type_symbol
_atom_site_fract_x
_atom_site_fract_y
_atom_site_fract_z
I1 I 0.20157(2) 0.09350(2) 0.46228(2)
C1 C 0.22851(16) 0.2940(3) 0.40831(8)
C2 C 0.24993(15) 0.4125(3) 0.37882(8)
C3 C 0.27741(13) 0.5655(2) 0.34361(7)
C4 C 0.31421(13) 0.4760(3) 0.29398(7)
C5 C 0.39633(17) 0.5452(3) 0.27417(9)
H1 H 0.4341 0.6424 0.2927
C6 C 0.42319(19) 0.4718(4) 0.22711(11)
H2 H 0.4781 0.5211 0.2141
C7 C 0.36915(19) 0.3272(4) 0.19978(10)
H3 H 0.3876 0.2771 0.1685
C8 C 0.28726(18) 0.2563(3) 0.21903(9)
H4 H 0.2500 0.1588 0.2005
C9 C 0.26035(16) 0.3298(3) 0.26585(9)
H5 H 0.2053 0.2803 0.2786
C10 C 0.36230(13) 0.6828(3) 0.37834(7)
C11 C 0.43571(19) 0.5919(4) 0.41506(11)
H6 H 0.4326 0.4620 0.4191
C12 C 0.5140(2) 0.6922(5) 0.44591(11)
H7 H 0.5629 0.6291 0.4704
C13 C 0.51967(18) 0.8839(4) 0.44041(10)
H8 H 0.5714 0.9515 0.4615
C14 C 0.44836(18) 0.9743(4) 0.40356(11)
H9 H 0.4527 1.1039 0.3991
C15 C 0.36962(16) 0.8753(3) 0.37270(9)
H10 H 0.3215 0.9392 0.3480
C16 C 0.18403(13) 0.6880(2) 0.32306(7)
C17 C 0.17830(15) 0.7966(3) 0.27621(8)
H11 H 0.2311 0.7938 0.2569
C18 C 0.09604(18) 0.9087(3) 0.25777(10)
H12 H 0.0940 0.9804 0.2263
C19 C 0.01705(18) 0.9148(3) 0.28569(11)
H13 H -0.0383 0.9910 0.2735
C20 C 0.02120(17) 0.8064(4) 0.33198(11)
H14 H -0.0322 0.8084 0.3509
C21 C 0.10395(15) 0.6945(3) 0.35064(8)
H15 H 0.1057 0.6229 0.3821
N1 N 0.18124(15) 0.8255(3) 0.54017(7)
C22 C 0.1120(5) 0.6727(8) 0.52087(18)
H16 H 0.1370 0.6018 0.4928
H17 H 0.0469 0.7242 0.5051
C23 C 0.1011(5) 0.5399(8) 0.5695(2)
H18 H 0.0323 0.5428 0.5756
H19 H 0.1167 0.4116 0.5605
C24 C 0.1342(6) 0.7834(7) 0.6305(2)
H20 H 0.1763 0.8317 0.6632
H21 H 0.0659 0.7758 0.6373
C25 C 0.1379(5) 0.9200(6) 0.58234(18)
H22 H 0.0706 0.9626 0.5673
H23 H 0.1781 1.0294 0.5954
C26 C 0.2769(3) 0.7507(11) 0.5637(3)
H24 H 0.3204 0.8525 0.5795
H25 H 0.3072 0.6922 0.5354
C27 C 0.2681(4) 0.6037(11) 0.6085(3)
H26 H 0.2867 0.4804 0.5968
H27 H 0.3137 0.6362 0.6418
N2 N 0.1681(2) 0.5983(3) 0.61866(10)
C28? C 0.0788(6) 0.796(2) 0.5441(5)
H28? H 0.0439 0.7394 0.5106
H29? H 0.0473 0.9160 0.5488
C29? C 0.0698(7) 0.664(2) 0.5934(5)
H30? H 0.0393 0.7328 0.6199
H31? H 0.0272 0.5577 0.5807
C30? C 0.2225(11) 0.7673(15) 0.6391(4)
H32? H 0.2904 0.7336 0.6561
H33? H 0.1901 0.8246 0.6668
C31? C 0.2266(10) 0.9123(13) 0.5926(3)
H34? H 0.1899 1.0253 0.5988
H35? H 0.2957 0.9470 0.5919
C32? C 0.2304(12) 0.6549(14) 0.5323(4)
H36? H 0.3013 0.6779 0.5333
H37? H 0.2023 0.6020 0.4969
C33? C 0.2161(13) 0.5149(16) 0.5783(5)
H38? H 0.1763 0.4087 0.5622
H39? H 0.2812 0.4673 0.5955
loop_
_geom_bond_atom_site_label_1
_geom_bond_atom_site_label_2
_geom_bond_site_symmetry_1
_geom_bond_site_symmetry_2
I1 C1 1_555 1_555
C1 C2 1_555 1_555
C2 C3 1_555 1_555
C3 C4 1_555 1_555
C4 C5 1_555 1_555
C5 H1 1_555 1_555
C6 C5 1_555 1_555
H2 C6 1_555 1_555
C7 C6 1_555 1_555
H3 C7 1_555 1_555
C8 C7 1_555 1_555
H4 C8 1_555 1_555
C9 C4 1_555 1_555
H5 C9 1_555 1_555
C10 C3 1_555 1_555
C11 C10 1_555 1_555
H6 C11 1_555 1_555
C12 C11 1_555 1_555
H7 C12 1_555 1_555
C13 C12 1_555 1_555
H8 C13 1_555 1_555
C14 C13 1_555 1_555
H9 C14 1_555 1_555
C15 C10 1_555 1_555
H10 C15 1_555 1_555
C16 C3 1_555 1_555
C17 C16 1_555 1_555
H11 C17 1_555 1_555
C18 C17 1_555 1_555
H12 C18 1_555 1_555
C19 C18 1_555 1_555
H13 C19 1_555 1_555
C20 C19 1_555 1_555
H14 C20 1_555 1_555
C21 C16 1_555 1_555
H15 C21 1_555 1_555
N1 C22 1_555 1_555
C22 H16 1_555 1_555
H17 C22 1_555 1_555
C23 C22 1_555 1_555
H18 C23 1_555 1_555
H19 C23 1_555 1_555
C24 H20 1_555 1_555
H21 C24 1_555 1_555
C25 N1 1_555 1_555
H22 C25 1_555 1_555
H23 C25 1_555 1_555
C26 N1 1_555 1_555
H24 C26 1_555 1_555
H25 C26 1_555 1_555
C27 C26 1_555 1_555
H26 C27 1_555 1_555
H27 C27 1_555 1_555
N2 C23 1_555 1_555
C8 C9 1_555 1_555
C14 C15 1_555 1_555
C20 C21 1_555 1_555
C24 C25 1_555 1_555
C24 N2 1_555 1_555
C27 N2 1_555 1_555

#END
