
#######################################################################
#
#                 Cambridge Crystallographic Data Centre
#                                CCDC 
#
#######################################################################
#
# If this CIF has been generated from an entry in the Cambridge 
# Structural Database, then it will include bibliographic, chemical, 
# crystal, experimental, refinement or atomic coordinate data resulting 
# from the CCDC's data processing and validation procedures.
#
#######################################################################

data_NAXMEH
_chemical_formula_moiety         'C21 H15 Br1,C6 H12 N2'
_chemical_name_systematic        
"1,1',1''-(1-bromoprop-1-yne-3,3,3-triyl)tribenzene 1,4-diazabicyclo[2.2.2]octane"
_symmetry_cell_setting           monoclinic
_symmetry_space_group_name_H-M   'P 21/c'
_symmetry_Int_Tables_number      14
_space_group_name_Hall           '-P 2ybc'
loop_
_symmetry_equiv_pos_site_id
_symmetry_equiv_pos_as_xyz
1 x,y,z
2 -x,1/2+y,1/2-z
3 -x,-y,-z
4 x,1/2-y,1/2+z
_cell_length_a                   13.1901(12)
_cell_length_b                   7.1685(7)
_cell_length_c                   24.018(2)
_cell_angle_alpha                90
_cell_angle_beta                 101.2023(12)
_cell_angle_gamma                90
_cell_volume                     2227.71
_exptl_crystal_colour            colorless
_exptl_crystal_description       block
_cell_formula_units_Z            4
loop_
_atom_site_label
_atom_site_type_symbol
_atom_site_fract_x
_atom_site_fract_y
_atom_site_fract_z
Br1 Br 0.19454(2) 0.89689(2) 0.45458(2)
C1 C 0.22608(13) 0.7157(2) 0.40765(7)
C2 C 0.25038(13) 0.5976(2) 0.37802(7)
C3 C 0.28072(12) 0.4459(2) 0.34268(7)
C4 C 0.36954(12) 0.3360(2) 0.38011(7)
C5 C 0.37358(13) 0.1428(2) 0.38080(7)
H1 H 0.3202 0.0729 0.3577
C6 C 0.45566(14) 0.0503(3) 0.41520(8)
H2 H 0.4580 -0.0822 0.4152
C7 C 0.53360(14) 0.1499(3) 0.44929(7)
H3 H 0.5887 0.0864 0.4731
C8 C 0.53067(14) 0.3428(3) 0.44841(7)
H4 H 0.5844 0.4121 0.4715
C9 C 0.44970(14) 0.4355(3) 0.41401(7)
H5 H 0.4487 0.5680 0.4135
C10 C 0.31683(12) 0.5325(2) 0.29089(7)
C11 C 0.39851(14) 0.4564(3) 0.26958(7)
H6 H 0.4365 0.3550 0.2887
C12 C 0.42507(14) 0.5275(3) 0.22045(8)
H7 H 0.4809 0.4741 0.2062
C13 C 0.37063(14) 0.6755(3) 0.19226(7)
H8 H 0.3886 0.7235 0.1586
C14 C 0.28931(14) 0.7538(2) 0.21347(7)
H9 H 0.2519 0.8559 0.1944
C15 C 0.26279(13) 0.6828(2) 0.26247(7)
H10 H 0.2073 0.7371 0.2768
C16 C 0.18662(12) 0.3188(2) 0.32137(7)
C17 C 0.18372(13) 0.2061(2) 0.27379(7)
H11 H 0.2399 0.2081 0.2543
C18 C 0.09952(14) 0.0908(2) 0.25456(7)
H12 H 0.0983 0.0156 0.2219
C19 C 0.01738(14) 0.0849(2) 0.28274(8)
H13 H -0.0402 0.0061 0.2695
C20 C 0.02006(13) 0.1952(3) 0.33037(8)
H14 H -0.0358 0.1914 0.3500
C21 C 0.10395(13) 0.3115(2) 0.34961(7)
H15 H 0.1049 0.3866 0.3823
N1 N 0.17375(13) 0.1662(2) 0.53436(7)
N2 N 0.17258(13) 0.3740(2) 0.62173(7)
C22 C 0.2783(2) 0.2209(5) 0.56123(15)
H16 H 0.3128 0.2811 0.5328
H17 H 0.3186 0.1086 0.5758
C23 C 0.2760(2) 0.3582(5) 0.61090(14)
H18 H 0.3230 0.3129 0.6455
H19 H 0.3005 0.4824 0.6013
C24 C 0.1355(3) 0.1844(4) 0.63125(10)
H20 H 0.0660 0.1918 0.6408
H21 H 0.1828 0.1257 0.6636
C25 C 0.1308(2) 0.0637(4) 0.57731(10)
H22 H 0.1705 -0.0527 0.5873
H23 H 0.0582 0.0295 0.5617
C26 C 0.1102(3) 0.3297(4) 0.51910(11)
H24 H 0.0398 0.2910 0.5002
H25 H 0.1399 0.4067 0.4920
C27 C 0.1039(3) 0.4466(4) 0.57265(12)
H26 H 0.1224 0.5777 0.5664
H27 H 0.0321 0.4447 0.5793
loop_
_geom_bond_atom_site_label_1
_geom_bond_atom_site_label_2
_geom_bond_site_symmetry_1
_geom_bond_site_symmetry_2
Br1 C1 1_555 1_555
C1 C2 1_555 1_555
C2 C3 1_555 1_555
C3 C4 1_555 1_555
C4 C5 1_555 1_555
C5 H1 1_555 1_555
C6 C5 1_555 1_555
H2 C6 1_555 1_555
C7 C6 1_555 1_555
H3 C7 1_555 1_555
C8 C7 1_555 1_555
H4 C8 1_555 1_555
C9 C4 1_555 1_555
H5 C9 1_555 1_555
C10 C3 1_555 1_555
C11 C10 1_555 1_555
H6 C11 1_555 1_555
C12 C11 1_555 1_555
H7 C12 1_555 1_555
C13 C12 1_555 1_555
H8 C13 1_555 1_555
C14 C13 1_555 1_555
H9 C14 1_555 1_555
C15 C10 1_555 1_555
H10 C15 1_555 1_555
C16 C3 1_555 1_555
C17 C16 1_555 1_555
H11 C17 1_555 1_555
C18 C17 1_555 1_555
H12 C18 1_555 1_555
C19 C18 1_555 1_555
H13 C19 1_555 1_555
C20 C19 1_555 1_555
H14 C20 1_555 1_555
C21 C16 1_555 1_555
H15 C21 1_555 1_555
N1 C22 1_555 1_555
N2 C23 1_555 1_555
C22 H16 1_555 1_555
H17 C22 1_555 1_555
C23 C22 1_555 1_555
H18 C23 1_555 1_555
H19 C23 1_555 1_555
C24 N2 1_555 1_555
H20 C24 1_555 1_555
H21 C24 1_555 1_555
C25 N1 1_555 1_555
H22 C25 1_555 1_555
H23 C25 1_555 1_555
C26 N1 1_555 1_555
H24 C26 1_555 1_555
H25 C26 1_555 1_555
C27 N2 1_555 1_555
H26 C27 1_555 1_555
H27 C27 1_555 1_555
C8 C9 1_555 1_555
C14 C15 1_555 1_555
C20 C21 1_555 1_555
C24 C25 1_555 1_555
C26 C27 1_555 1_555

#END
