
#######################################################################
#
#                 Cambridge Crystallographic Data Centre
#                                CCDC 
#
#######################################################################
#
# If this CIF has been generated from an entry in the Cambridge 
# Structural Database, then it will include bibliographic, chemical, 
# crystal, experimental, refinement or atomic coordinate data resulting 
# from the CCDC's data processing and validation procedures.
#
#######################################################################

data_NAXPEJ
_chemical_formula_moiety         'C17 H16 N4 O3'
_chemical_name_systematic        
2,2-Dimethyl-3-((3-nitrobenzylidene)amino)-2,3-dihydroquinazolin-4(1H)-one
_symmetry_cell_setting           monoclinic
_symmetry_space_group_name_H-M   'P 21/c'
_symmetry_Int_Tables_number      14
_space_group_name_Hall           '-P 2ybc'
loop_
_symmetry_equiv_pos_site_id
_symmetry_equiv_pos_as_xyz
1 x,y,z
2 -x,1/2+y,1/2-z
3 -x,-y,-z
4 x,1/2-y,1/2+z
_cell_length_a                   10.0006(2)
_cell_length_b                   12.2298(3)
_cell_length_c                   13.3255(3)
_cell_angle_alpha                90
_cell_angle_beta                 96.602(2)
_cell_angle_gamma                90
_cell_volume                     1618.97
_cell_formula_units_Z            4
loop_
_atom_site_label
_atom_site_type_symbol
_atom_site_fract_x
_atom_site_fract_y
_atom_site_fract_z
N1 N 0.64543(12) 0.90447(10) 0.03681(9)
N2 N 0.54302(12) 0.83120(10) 0.04818(8)
C1 C 0.36613(14) 0.70081(12) -0.00077(11)
C2 C 0.45677(14) 0.78741(12) -0.02903(10)
N3 N 0.42988(13) 0.74328(12) 0.17181(10)
O1 O 0.45280(12) 0.82106(10) -0.11633(7)
C3 C 0.35377(14) 0.68171(13) 0.10092(11)
C4 C 0.77381(15) 1.02796(12) -0.04793(11)
C5 C 0.56173(15) 0.77980(13) 0.15075(11)
C6 C 0.28652(16) 0.64294(14) -0.07519(13)
H1 H 0.2946 0.6564 -0.1429
C7 C 0.94505(16) 1.14246(13) 0.03321(15)
C8 C 0.84300(15) 1.06885(13) 0.04007(12)
H2 H 0.8206 1.0468 0.1028
C9 C 0.66238(15) 0.95056(13) -0.04583(11)
H3 H 0.6051 0.9355 -0.1042
C10 C 0.25925(17) 0.60485(15) 0.12585(14)
H4 H 0.2480 0.5923 0.1932
C11 C 0.19652(18) 0.56649(15) -0.04957(15)
H5 H 0.1446 0.5272 -0.0996
C12 C 0.81011(18) 1.06251(14) -0.14010(13)
H6 H 0.7638 1.0358 -0.1996
C13 C 0.6117(2) 0.86387(17) 0.23024(12)
H7 H 0.5477 0.9225 0.2295
H8 H 0.6969 0.8923 0.2158
H9 H 0.6219 0.8300 0.2957
O2 O 0.98825(17) 1.15110(16) 0.20761(14)
C14 C 0.18334(19) 0.54811(16) 0.05101(17)
H10 H 0.1219 0.4963 0.0683
C15 C 0.66024(18) 0.68479(16) 0.14899(15)
H11 H 0.6258 0.6330 0.0984
H12 H 0.6712 0.6498 0.2139
H13 H 0.7457 0.7118 0.1336
N4 N 1.01708(17) 1.18561(15) 0.12738(18)
C16 C 0.98127(18) 1.17726(16) -0.05801(18)
H14 H 1.0502 1.2279 -0.0606
O3 O 1.10346(18) 1.25475(15) 0.12011(17)
C17 C 0.9139(2) 1.13592(16) -0.14490(17)
H15 H 0.9381 1.1573 -0.2073
H16 H 0.4282(17) 0.7241(14) 0.2331(14)
loop_
_geom_bond_atom_site_label_1
_geom_bond_atom_site_label_2
_geom_bond_site_symmetry_1
_geom_bond_site_symmetry_2
N1 N2 1_555 1_555
N2 C2 1_555 1_555
C1 C2 1_555 1_555
C2 O1 1_555 1_555
N3 C3 1_555 1_555
C3 C1 1_555 1_555
C4 C8 1_555 1_555
C5 N2 1_555 1_555
C6 C1 1_555 1_555
H1 C6 1_555 1_555
C7 C8 1_555 1_555
C8 H2 1_555 1_555
C9 N1 1_555 1_555
H3 C9 1_555 1_555
C10 C3 1_555 1_555
H4 C10 1_555 1_555
C11 C6 1_555 1_555
H5 C11 1_555 1_555
C12 C4 1_555 1_555
H6 C12 1_555 1_555
C13 C5 1_555 1_555
H7 C13 1_555 1_555
H8 C13 1_555 1_555
H9 C13 1_555 1_555
O2 N4 1_555 1_555
C14 C10 1_555 1_555
H10 C14 1_555 1_555
C15 C5 1_555 1_555
H11 C15 1_555 1_555
H12 C15 1_555 1_555
H13 C15 1_555 1_555
N4 C7 1_555 1_555
C16 C7 1_555 1_555
H14 C16 1_555 1_555
O3 N4 1_555 1_555
C17 C12 1_555 1_555
H15 C17 1_555 1_555
H16 N3 1_555 1_555
N3 C5 1_555 1_555
C4 C9 1_555 1_555
C11 C14 1_555 1_555
C16 C17 1_555 1_555

#END
