
#######################################################################
#
#                 Cambridge Crystallographic Data Centre
#                                CCDC 
#
#######################################################################
#
# If this CIF has been generated from an entry in the Cambridge 
# Structural Database, then it will include bibliographic, chemical, 
# crystal, experimental, refinement or atomic coordinate data resulting 
# from the CCDC's data processing and validation procedures.
#
#######################################################################

data_NAXSOW
_chemical_formula_moiety         'C8 H12 O4,C4 H5 N3'
_chemical_name_systematic        
'Cyclohexane-1,4-dicarboxylic acid pyrimidin-2-amine'
_symmetry_cell_setting           monoclinic
_symmetry_space_group_name_H-M   'P 21'
_symmetry_Int_Tables_number      4
_space_group_name_Hall           'P 2yb'
loop_
_symmetry_equiv_pos_site_id
_symmetry_equiv_pos_as_xyz
1 x,y,z
2 -x,1/2+y,-z
_cell_length_a                   5.2153(5)
_cell_length_b                   18.2803(17)
_cell_length_c                   7.3409(6)
_cell_angle_alpha                90
_cell_angle_beta                 107.9960(10)
_cell_angle_gamma                90
_cell_volume                     665.623
_exptl_crystal_colour            colorless
_exptl_crystal_description       block
_cell_formula_units_Z            2
loop_
_atom_site_label
_atom_site_type_symbol
_atom_site_fract_x
_atom_site_fract_y
_atom_site_fract_z
N1 N 1.0626(7) 0.51408(15) 0.5006(4)
N2 N 0.7168(7) 0.42436(17) 0.4212(5)
N3 N 0.8465(8) 0.4798(2) 0.7123(5)
H1 H 0.9442 0.5105 0.7931
H2 H 0.7285 0.4538 0.7427
C1 C 0.8776(8) 0.47264(19) 0.5409(5)
C2 C 0.7524(10) 0.4185(2) 0.2508(6)
H5 H 0.6448 0.3858 0.1631
C3 C 0.9385(11) 0.4581(3) 0.1974(6)
H6 H 0.9608 0.4528 0.0772
C4 C 1.0896(9) 0.5058(2) 0.3286(6)
H7 H 1.2179 0.5338 0.2962
O1 O 0.4139(6) 0.60575(17) -0.2586(5)
H3 H 0.2890 0.5801 -0.3220
O2 O 0.2304(7) 0.5828(2) -0.0319(4)
O3 O 0.6381(6) 0.82943(16) 0.4986(4)
H4 H 0.5188 0.8571 0.5077
O4 O 0.5108(7) 0.87116(17) 0.2036(4)
C5 C 0.4026(9) 0.6114(2) -0.0847(6)
C6 C 0.6524(8) 0.8318(2) 0.3239(6)
C7 C 0.6243(8) 0.6574(2) 0.0422(5)
H8 H 0.7956 0.6346 0.0451
C8 C 0.6214(8) 0.7347(2) -0.0397(6)
H9 H 0.6346 0.7317 -0.1684
H10 H 0.4525 0.7586 -0.0467
C9 C 0.8534(8) 0.7793(2) 0.0845(6)
H11 H 0.8390 0.8289 0.0355
H12 H 1.0211 0.7588 0.0763
C10 C 0.8627(8) 0.7815(2) 0.2923(6)
H13 H 1.0383 0.8021 0.3641
C11 C 0.8527(8) 0.7048(2) 0.3708(6)
H14 H 1.0191 0.6794 0.3791
H15 H 0.8379 0.7082 0.4990
C12 C 0.6180(7) 0.6615(2) 0.2462(5)
H16 H 0.4508 0.6842 0.2482
H17 H 0.6232 0.6124 0.2973
loop_
_geom_bond_atom_site_label_1
_geom_bond_atom_site_label_2
_geom_bond_site_symmetry_1
_geom_bond_site_symmetry_2
N1 C1 1_555 1_555
N2 C1 1_555 1_555
N3 H1 1_555 1_555
H2 N3 1_555 1_555
O1 H3 1_555 1_555
O2 C5 1_555 1_555
O3 H4 1_555 1_555
O4 C6 1_555 1_555
C1 N3 1_555 1_555
C2 N2 1_555 1_555
H5 C2 1_555 1_555
C3 C2 1_555 1_555
H6 C3 1_555 1_555
C4 N1 1_555 1_555
H7 C4 1_555 1_555
C5 O1 1_555 1_555
C6 O3 1_555 1_555
C7 C5 1_555 1_555
H8 C7 1_555 1_555
C8 C7 1_555 1_555
H9 C8 1_555 1_555
H10 C8 1_555 1_555
C9 C8 1_555 1_555
H11 C9 1_555 1_555
H12 C9 1_555 1_555
C10 C6 1_555 1_555
H13 C10 1_555 1_555
C11 C10 1_555 1_555
H14 C11 1_555 1_555
H15 C11 1_555 1_555
C12 C7 1_555 1_555
H16 C12 1_555 1_555
H17 C12 1_555 1_555
C3 C4 1_555 1_555
C9 C10 1_555 1_555
C11 C12 1_555 1_555

#END
