
#######################################################################
#
#                 Cambridge Crystallographic Data Centre
#                                CCDC 
#
#######################################################################
#
# If this CIF has been generated from an entry in the Cambridge 
# Structural Database, then it will include bibliographic, chemical, 
# crystal, experimental, refinement or atomic coordinate data resulting 
# from the CCDC's data processing and validation procedures.
#
#######################################################################

data_NAXSIQ
_chemical_formula_moiety         'C8 H8 O8 2-,2(C4 H6 N3 1+),2(H2 O1)'
_chemical_name_systematic        
'bis(2-aminopyrimidin-1-ium) 3,4-dicarboxyhexanedioate dihydrate'
_symmetry_cell_setting           triclinic
_symmetry_space_group_name_H-M   'P -1'
_symmetry_Int_Tables_number      2
_space_group_name_Hall           '-P 1'
loop_
_symmetry_equiv_pos_site_id
_symmetry_equiv_pos_as_xyz
1 x,y,z
2 -x,-y,-z
_cell_length_a                   5.2455(7)
_cell_length_b                   8.4637(11)
_cell_length_c                   12.0299(15)
_cell_angle_alpha                97.9620(10)
_cell_angle_beta                 98.954(2)
_cell_angle_gamma                95.1990(10)
_cell_volume                     519.043
_exptl_crystal_colour            colorless
_exptl_crystal_description       block
_cell_formula_units_Z            1
loop_
_atom_site_label
_atom_site_type_symbol
_atom_site_fract_x
_atom_site_fract_y
_atom_site_fract_z
N1 N -0.0546(5) 0.2162(3) 0.99003(19)
H1 H -0.0746 0.1711 1.0484
N2 N 0.1963(5) 0.3971(3) 0.9044(2)
N3 N 0.3463(5) 0.3403(3) 1.0822(2)
H2 H 0.3290 0.2913 1.1391
H3 H 0.4844 0.4044 1.0841
C1 C 0.1601(5) 0.3171(3) 0.9915(2)
C2 C 0.0109(6) 0.3670(4) 0.8137(2)
H7 H 0.0301 0.4212 0.7528
C3 C -0.2089(7) 0.2603(4) 0.8039(3)
H8 H -0.3326 0.2387 0.7377
C4 C -0.2349(6) 0.1879(4) 0.8969(3)
H9 H -0.3825 0.1171 0.8948
O1 O -0.1948(4) 0.0845(3) 0.15781(16)
O2 O 0.1678(4) 0.1957(3) 0.27304(17)
O3 O -0.0410(4) 0.3132(3) 0.5145(2)
O4 O 0.3689(4) 0.2612(3) 0.55083(18)
H4 H 0.3935 0.3566 0.5784
C5 C -0.0407(5) 0.1131(3) 0.2548(2)
C6 C -0.1426(5) 0.0308(3) 0.3458(2)
H10 H -0.1919 -0.0822 0.3161
H11 H -0.2974 0.0767 0.3631
C7 C 0.0543(5) 0.0464(3) 0.4556(2)
H12 H 0.2128 0.0030 0.4379
C8 C 0.1206(5) 0.2213(3) 0.5084(2)
O1A O 0.1948(4) -0.0845(3) 0.84219(16)
O2A O -0.1678(4) -0.1957(3) 0.72696(17)
O3A O 0.0410(4) -0.3132(3) 0.4855(2)
O4A O -0.3689(4) -0.2612(3) 0.44917(18)
H4A H -0.3935 -0.3566 0.4216
C5A C 0.0407(5) -0.1131(3) 0.7452(2)
C6A C 0.1426(5) -0.0308(3) 0.6542(2)
H10A H 0.1919 0.0822 0.6839
H11A H 0.2974 -0.0767 0.6369
C7A C -0.0543(5) -0.0464(3) 0.5444(2)
H12A H -0.2128 -0.0030 0.5621
C8A C -0.1206(5) -0.2213(3) 0.4916(2)
O5 O 0.4106(5) 0.5607(3) 0.6387(2)
H5 H 0.5366 0.6334 0.6649
H6 H 0.3004 0.5984 0.5929
loop_
_geom_bond_atom_site_label_1
_geom_bond_atom_site_label_2
_geom_bond_site_symmetry_1
_geom_bond_site_symmetry_2
N1 H1 1_555 1_555
N2 C1 1_555 1_555
N3 H2 1_555 1_555
H3 N3 1_555 1_555
O1 C5 1_555 1_555
O2 C5 1_555 1_555
O3 C8 1_555 1_555
O4 H4 1_555 1_555
O5 H5 1_555 1_555
H6 O5 1_555 1_555
C1 N1 1_555 1_555
C2 N2 1_555 1_555
H7 C2 1_555 1_555
C3 C2 1_555 1_555
H8 C3 1_555 1_555
C4 N1 1_555 1_555
H9 C4 1_555 1_555
C5 C6 1_555 1_555
C6 H10 1_555 1_555
H11 C6 1_555 1_555
C7 C6 1_555 1_555
H12 C7 1_555 1_555
C8 O4 1_555 1_555
O1A C5A 1_555 1_555
O2A C5A 1_555 1_555
O3A C8A 1_555 1_555
O4A H4A 1_555 1_555
C5A C6A 1_555 1_555
C6A H10A 1_555 1_555
H11A C6A 1_555 1_555
C7A C7 1_555 1_555
H12A C7A 1_555 1_555
C8A O4A 1_555 1_555
N3 C1 1_555 1_555
C3 C4 1_555 1_555
C7 C8 1_555 1_555
C6A C7A 1_555 1_555
C7A C8A 1_555 1_555

#END
