
#######################################################################
#
#                 Cambridge Crystallographic Data Centre
#                                CCDC 
#
#######################################################################
#
# If this CIF has been generated from an entry in the Cambridge 
# Structural Database, then it will include bibliographic, chemical, 
# crystal, experimental, refinement or atomic coordinate data resulting 
# from the CCDC's data processing and validation procedures.
#
#######################################################################

data_NAXTAJ
_chemical_formula_moiety         'C7 H6 Br1 N2 S1 1+,C7 H4 N1 O3 S1 1-,H2 O1'
_chemical_name_systematic        
'6-Bromo-1,3-benzothiazol-2(3H)-iminium 3-oxo-3H-1,2-benzothiazol-2-ide 1,1-dioxide monohydrate'
_symmetry_cell_setting           triclinic
_symmetry_space_group_name_H-M   'P -1'
_symmetry_Int_Tables_number      2
_space_group_name_Hall           '-P 1'
loop_
_symmetry_equiv_pos_site_id
_symmetry_equiv_pos_as_xyz
1 x,y,z
2 -x,-y,-z
_cell_length_a                   7.5523(5)
_cell_length_b                   8.6498(7)
_cell_length_c                   12.7907(12)
_cell_angle_alpha                99.646(2)
_cell_angle_beta                 90.6500(10)
_cell_angle_gamma                97.165(2)
_cell_volume                     816.874
_exptl_crystal_colour            colorless
_exptl_crystal_description       block
_cell_formula_units_Z            2
loop_
_atom_site_label
_atom_site_type_symbol
_atom_site_fract_x
_atom_site_fract_y
_atom_site_fract_z
Br1 Br 0.30878(10) 0.24516(9) -0.04483(5)
S1 S 0.5466(3) -0.0215(2) 0.29656(13)
N1 N 0.6284(7) 0.2654(6) 0.3906(4)
H1 H 0.6659 0.3457 0.4383
N2 N 0.7107(8) 0.0787(7) 0.4867(4)
H2 H 0.7557 0.1517 0.5374
H3 H 0.7137 -0.0191 0.4911
C1 C 0.6376(9) 0.1165(8) 0.4026(5)
C2 C 0.5515(8) 0.2779(7) 0.2925(5)
C3 C 0.4998(8) 0.1309(7) 0.2306(5)
C4 C 0.4252(8) 0.1162(8) 0.1291(5)
H6 H 0.3897 0.0181 0.0873
C5 C 0.4069(9) 0.2556(8) 0.0941(5)
C6 C 0.4555(9) 0.4024(8) 0.1549(5)
H7 H 0.4383 0.4929 0.1277
C7 C 0.5301(9) 0.4163(8) 0.2563(5)
H8 H 0.5641 0.5147 0.2981
S2 S 0.0665(2) 0.6616(2) 0.23625(13)
N3 N 0.1641(8) 0.6626(6) 0.3500(4)
O1 O 0.2254(7) 0.4904(5) 0.4577(4)
O2 O 0.1868(7) 0.7200(6) 0.1633(4)
O3 O -0.0919(7) 0.7395(6) 0.2517(4)
C8 C 0.1591(9) 0.5181(8) 0.3723(5)
C9 C 0.0713(8) 0.3915(7) 0.2883(5)
C10 C 0.0102(8) 0.4550(8) 0.2040(5)
C11 C -0.0704(9) 0.3612(9) 0.1137(5)
H9 H -0.1094 0.4044 0.0570
C12 C -0.0898(9) 0.2016(8) 0.1122(6)
H10 H -0.1452 0.1352 0.0530
C13 C -0.0308(9) 0.1346(9) 0.1945(6)
H11 H -0.0449 0.0252 0.1894
C14 C 0.0491(9) 0.2293(8) 0.2844(6)
H12 H 0.0870 0.1853 0.3409
O4 O 0.2692(9) 0.2379(6) 0.5533(4)
H4 H 0.2544 0.3170 0.5242
H5 H 0.2152 0.2461 0.6115
loop_
_geom_bond_atom_site_label_1
_geom_bond_atom_site_label_2
_geom_bond_site_symmetry_1
_geom_bond_site_symmetry_2
Br1 C5 1_555 1_555
S1 C1 1_555 1_555
S2 N3 1_555 1_555
N1 H1 1_555 1_555
N2 H2 1_555 1_555
H3 N2 1_555 1_555
N3 C8 1_555 1_555
O1 C8 1_555 1_555
O2 S2 1_555 1_555
O3 S2 1_555 1_555
O4 H4 1_555 1_555
H5 O4 1_555 1_555
C1 N1 1_555 1_555
C2 N1 1_555 1_555
C3 S1 1_555 1_555
C4 C3 1_555 1_555
H6 C4 1_555 1_555
C5 C4 1_555 1_555
C6 C5 1_555 1_555
H7 C6 1_555 1_555
C7 C2 1_555 1_555
H8 C7 1_555 1_555
C8 C9 1_555 1_555
C9 C10 1_555 1_555
C10 S2 1_555 1_555
C11 C10 1_555 1_555
H9 C11 1_555 1_555
C12 C11 1_555 1_555
H10 C12 1_555 1_555
C13 C12 1_555 1_555
H11 C13 1_555 1_555
C14 C9 1_555 1_555
H12 C14 1_555 1_555
N2 C1 1_555 1_555
C2 C3 1_555 1_555
C6 C7 1_555 1_555
C13 C14 1_555 1_555

#END
