
#######################################################################
#
#                 Cambridge Crystallographic Data Centre
#                                CCDC 
#
#######################################################################
#
# If this CIF has been generated from an entry in the Cambridge 
# Structural Database, then it will include bibliographic, chemical, 
# crystal, experimental, refinement or atomic coordinate data resulting 
# from the CCDC's data processing and validation procedures.
#
#######################################################################

data_NAXXOA
_chemical_compound_source        'Asclepias curassavica'
_chemical_formula_moiety         'C30 H42 O11,H2 O1'
_chemical_name_systematic        
'3-((3,5-Dideoxy-2-C-(methoxycarbonyl)pentafuranosyl)oxy)-2,14,19-trihydroxy-19-oxocard-20(22)-enolide monohydrate'
_chemical_properties_biological  
'source plant used in traditional medicine for cancer treatment'
_symmetry_cell_setting           orthorhombic
_symmetry_space_group_name_H-M   'P 21 21 21'
_symmetry_Int_Tables_number      19
_space_group_name_Hall           'P 2ac 2ab'
loop_
_symmetry_equiv_pos_site_id
_symmetry_equiv_pos_as_xyz
1 x,y,z
2 1/2-x,-y,1/2+z
3 -x,1/2+y,1/2-z
4 1/2+x,1/2-y,-z
_cell_length_a                   7.9800(16)
_cell_length_b                   11.290(2)
_cell_length_c                   33.220(7)
_cell_angle_alpha                90
_cell_angle_beta                 90
_cell_angle_gamma                90
_cell_volume                     2992.93
_exptl_crystal_colour            colorless
_exptl_crystal_description       prism
_cell_formula_units_Z            4
_exptl_crystal_recrystallization_method ethanol/methanol
loop_
_atom_site_label
_atom_site_type_symbol
_atom_site_fract_x
_atom_site_fract_y
_atom_site_fract_z
O1 O -0.3270(3) 0.6748(2) 0.41168(7)
O2 O -0.4109(3) 0.4868(2) 0.41267(7)
O3 O 0.0893(2) 0.45835(15) 0.30847(5)
O4 O 0.1367(3) 0.53943(18) 0.15961(6)
O5 O 0.2147(3) 0.71400(18) 0.13613(6)
O6 O 0.7197(3) 0.80557(19) 0.13485(7)
O7 O 0.7201(2) 0.57599(16) 0.09039(5)
O8 O 0.9698(2) 0.67834(15) 0.08200(5)
O9 O 1.0835(2) 0.46696(18) 0.04117(6)
O10 O 0.6696(3) 0.44583(18) 0.00956(7)
O11 O 0.8045(3) 0.31743(16) 0.04842(6)
C1 C -0.1953(5) 0.7422(3) 0.39254(10)
H1 H -0.1235 0.7790 0.4125
H2 H -0.2420 0.8035 0.3754
C2 C -0.1004(4) 0.6546(2) 0.36835(7)
C3 C -0.1695(5) 0.5500(3) 0.37362(9)
H3 H -0.1326 0.4800 0.3619
C4 C -0.3122(4) 0.5604(3) 0.40057(9)
C5 C 0.0507(4) 0.6948(2) 0.34484(8)
H4 H 0.0583 0.7810 0.3478
C6 C 0.0530(3) 0.6670(2) 0.29824(7)
C7 C 0.1291(4) 0.7775(2) 0.27733(7)
H5 H 0.0453 0.8397 0.2768
H6 H 0.2227 0.8057 0.2933
C8 C 0.1899(4) 0.7557(2) 0.23442(7)
H7 H 0.2431 0.8270 0.2243
H8 H 0.0944 0.7385 0.2173
C9 C 0.3148(3) 0.65252(19) 0.23205(6)
H9 H 0.411 0.6743 0.2488
C10 C 0.3836(3) 0.63083(19) 0.18840(6)
C11 C 0.5025(3) 0.7317(2) 0.17627(7)
H10 H 0.4385 0.8046 0.1750
H11 H 0.5858 0.7411 0.1973
C12 C 0.5936(4) 0.7149(2) 0.13603(8)
H12 H 0.5143 0.7272 0.1139
C13 C 0.6723(3) 0.5935(2) 0.13202(7)
H13 H 0.7730 0.5901 0.1489
C14 C 0.5552(4) 0.4951(2) 0.14422(8)
H14 H 0.6141 0.4200 0.1432
H15 H 0.4621 0.4914 0.1255
C15 C 0.4883(3) 0.5154(2) 0.18685(7)
H16 H 0.5871 0.5301 0.2037
C16 C 0.4018(4) 0.4081(2) 0.20518(7)
H17 H 0.3023 0.3890 0.1897
H18 H 0.4765 0.3404 0.2043
C17 C 0.3535(4) 0.4342(2) 0.24840(7)
H19 H 0.4539 0.4496 0.2640
H20 H 0.2984 0.3655 0.2598
C18 C 0.2364(3) 0.54121(19) 0.25118(6)
H21 H 0.1363 0.5220 0.2354
C19 C 0.1776(3) 0.5628(2) 0.29489(7)
C20 C 0.3140(3) 0.5929(2) 0.32550(7)
H22 H 0.3904 0.6519 0.3149
H23 H 0.3772 0.5228 0.3329
C21 C 0.2157(4) 0.6416(3) 0.36168(8)
H24 H 0.2803 0.7022 0.3754
H25 H 0.1913 0.5786 0.3806
C22 C 0.9950(4) 0.7162(2) 0.04014(8)
H26 H 1.1148 0.7133 0.0337
C23 C 0.9033(4) 0.6243(2) 0.01524(7)
H27 H 0.9566 0.6132 -0.0107
H28 H 0.7871 0.6464 0.0112
C24 C 0.9178(3) 0.5130(2) 0.04120(7)
C25 C 0.8920(3) 0.5650(2) 0.08336(7)
H29 H 0.9446 0.5148 0.1039
C26 C -0.1182(4) 0.6389(3) 0.27995(8)
H30 H -0.1970 0.6990 0.2876
H31 H -0.1561 0.5633 0.2896
H32 H -0.1089 0.6365 0.2511
C27 C 0.2331(3) 0.6213(2) 0.15997(7)
C28 C 0.9329(6) 0.8413(3) 0.03535(10)
H33 H 0.8159 0.8447 0.0421
H34 H 0.9484 0.8663 0.0080
H35 H 0.9946 0.8926 0.0530
C29 C 0.7918(3) 0.4136(2) 0.03355(7)
C30 C 0.5412(5) 0.3583(3) 0.00214(16)
H36 H 0.5908 0.2893 -0.0098
H37 H 0.4587 0.3905 -0.0158
H38 H 0.4887 0.3370 0.0271
H39 H 0.153(5) 0.411(3) 0.3210(11)
H40 H 0.128(5) 0.697(3) 0.1196(11)
H41 H 0.781(5) 0.797(3) 0.1155(12)
H42 H 1.104(5) 0.449(3) 0.0173(12)
O12 O -0.6620(3) 0.5803(2) 0.46310(6)
H43 H -0.588(5) 0.562(3) 0.4447(11)
H44 H -0.688(5) 0.648(3) 0.4553(11)
loop_
_geom_bond_atom_site_label_1
_geom_bond_atom_site_label_2
_geom_bond_site_symmetry_1
_geom_bond_site_symmetry_2
O1 C1 1_555 1_555
O2 C4 1_555 1_555
O3 C19 1_555 1_555
O4 C27 1_555 1_555
O5 C27 1_555 1_555
O6 C12 1_555 1_555
O7 C13 1_555 1_555
O8 C22 1_555 1_555
O9 C24 1_555 1_555
O10 C29 1_555 1_555
O11 C29 1_555 1_555
O12 H43 1_555 1_555
C1 H1 1_555 1_555
H2 C1 1_555 1_555
C2 C1 1_555 1_555
C3 C2 1_555 1_555
H3 C3 1_555 1_555
C4 O1 1_555 1_555
C5 C2 1_555 1_555
H4 C5 1_555 1_555
C6 C5 1_555 1_555
C7 C6 1_555 1_555
H5 C7 1_555 1_555
H6 C7 1_555 1_555
C8 C7 1_555 1_555
H7 C8 1_555 1_555
H8 C8 1_555 1_555
C9 C8 1_555 1_555
H9 C9 1_555 1_555
C10 C9 1_555 1_555
C11 C10 1_555 1_555
H10 C11 1_555 1_555
H11 C11 1_555 1_555
C12 C11 1_555 1_555
H12 C12 1_555 1_555
C13 C12 1_555 1_555
H13 C13 1_555 1_555
C14 C13 1_555 1_555
H14 C14 1_555 1_555
H15 C14 1_555 1_555
C15 C10 1_555 1_555
H16 C15 1_555 1_555
C16 C15 1_555 1_555
H17 C16 1_555 1_555
H18 C16 1_555 1_555
C17 C16 1_555 1_555
H19 C17 1_555 1_555
H20 C17 1_555 1_555
C18 C9 1_555 1_555
H21 C18 1_555 1_555
C19 C6 1_555 1_555
C20 C19 1_555 1_555
H22 C20 1_555 1_555
H23 C20 1_555 1_555
C21 C5 1_555 1_555
H24 C21 1_555 1_555
H25 C21 1_555 1_555
C22 H26 1_555 1_555
C23 C22 1_555 1_555
H27 C23 1_555 1_555
H28 C23 1_555 1_555
C24 C23 1_555 1_555
C25 O7 1_555 1_555
H29 C25 1_555 1_555
C26 C6 1_555 1_555
H30 C26 1_555 1_555
H31 C26 1_555 1_555
H32 C26 1_555 1_555
C27 C10 1_555 1_555
C28 C22 1_555 1_555
H33 C28 1_555 1_555
H34 C28 1_555 1_555
H35 C28 1_555 1_555
C29 C24 1_555 1_555
C30 O10 1_555 1_555
H36 C30 1_555 1_555
H37 C30 1_555 1_555
H38 C30 1_555 1_555
H39 O3 1_555 1_555
H40 O5 1_555 1_555
H41 O6 1_555 1_555
H42 O9 1_555 1_555
H44 O12 1_555 1_555
O8 C25 1_555 1_555
C3 C4 1_555 1_555
C14 C15 1_555 1_555
C17 C18 1_555 1_555
C18 C19 1_555 1_555
C20 C21 1_555 1_555
C24 C25 1_555 1_555

#END
