
#######################################################################
#
#                 Cambridge Crystallographic Data Centre
#                                CCDC 
#
#######################################################################
#
# If this CIF has been generated from an entry in the Cambridge 
# Structural Database, then it will include bibliographic, chemical, 
# crystal, experimental, refinement or atomic coordinate data resulting 
# from the CCDC's data processing and validation procedures.
#
#######################################################################

data_NAXZAQ
_chemical_formula_moiety         'C59 H63 N5 O4,C58 H46 O2,4(C1 H1 Cl3)'
_chemical_name_systematic        
"5',17',23',35',38',40',43',45'-octamethyl-7',15',25',33'-tetraazadispiro[cyclohexane-1,2'-heptacyclo[32.2.2.2^3,6^.2^16,19^.2^21,24^.1^9,13^.1^27,31^]hexatetracontane-20',1''-cyclohexane]-1'(36'),3',5',9'(44'),10',12',16',18',21',23',27'(39'),28',30',34',37',40',42',45'-octadecaene-8',14',26',32'-tetrone 1,1',1'',1''',1'''',1'''''-[1,4-phenylenebis(methyleneoxy-4,1-phenylenemethanetetrayl)]hexabenzene chloroform solvate"
_symmetry_cell_setting           monoclinic
_symmetry_space_group_name_H-M   'C 2/c'
_symmetry_Int_Tables_number      15
_space_group_name_Hall           '-C 2yn'
loop_
_symmetry_equiv_pos_site_id
_symmetry_equiv_pos_as_xyz
1 x,y,z
2 -x,y,1/2-z
3 1/2+x,1/2+y,z
4 1/2-x,1/2+y,1/2-z
5 -x,-y,-z
6 x,-y,1/2+z
7 1/2-x,1/2-y,-z
8 1/2+x,1/2-y,1/2+z
_cell_length_a                   36.6933(4)
_cell_length_b                   9.1280(1)
_cell_length_c                   33.6815(4)
_cell_angle_alpha                90
_cell_angle_beta                 101.795(1)
_cell_angle_gamma                90
_cell_volume                     11043
_exptl_crystal_colour            colorless
_exptl_crystal_description       blocks
_cell_formula_units_Z            4
loop_
_atom_site_label
_atom_site_type_symbol
_atom_site_fract_x
_atom_site_fract_y
_atom_site_fract_z
C31 C 0.00525(8) 0.5006(4) 0.04188(9)
H33 H 0.0090 0.5013 0.0706
C32 C 0.03565(8) 0.4887(3) 0.02335(9)
H34 H 0.0600 0.4806 0.0395
C33 C 0.03071(8) 0.4884(3) -0.01872(9)
C34 C 0.06387(8) 0.4714(3) -0.03783(9)
H35 H 0.0869 0.4960 -0.0180
H36 H 0.0658 0.3687 -0.0466
O3 O 0.05962(6) 0.5683(3) -0.07236(6)
C35 C 0.08873(7) 0.5691(3) -0.09263(8)
C36 C 0.11955(8) 0.4778(3) -0.08330(9)
H37 H 0.1212 0.4063 -0.0625
C37 C 0.14794(8) 0.4922(3) -0.10477(9)
H38 H 0.1690 0.4296 -0.0982
C38 C 0.14666(7) 0.5951(3) -0.13553(8)
C39 C 0.11512(8) 0.6853(3) -0.14431(9)
H39 H 0.1134 0.7573 -0.1650
C40 C 0.08644(9) 0.6715(4) -0.12350(10)
H40 H 0.0651 0.7325 -0.1304
C41 C 0.18139(7) 0.6276(3) -0.15326(8)
C42 C 0.20406(8) 0.7315(4) -0.12147(8)
C43 C 0.22719(9) 0.6751(5) -0.08696(10)
H41 H 0.2307 0.5721 -0.0844
C44 C 0.24534(10) 0.7669(6) -0.05610(11)
H42 H 0.2610 0.7261 -0.0328
C45 C 0.24073(13) 0.9157(6) -0.05921(12)
H43 H 0.2534 0.9786 -0.0384
C46 C 0.21782(16) 0.9716(5) -0.09254(13)
H44 H 0.2145 1.0747 -0.0950
C47 C 0.19904(12) 0.8801(4) -0.12329(11)
H45 H 0.1825 0.9218 -0.1458
C48 C 0.20386(9) 0.4889(3) -0.15867(9)
C49 C 0.24228(10) 0.5003(5) -0.15727(11)
H46 H 0.2541 0.5924 -0.1511
C50 C 0.26339(12) 0.3825(6) -0.16459(13)
H47 H 0.2894 0.3931 -0.1630
C51 C 0.24668(14) 0.2518(6) -0.17403(13)
H48 H 0.2611 0.1701 -0.1790
C52 C 0.20894(15) 0.2350(4) -0.17650(13)
H49 H 0.1976 0.1422 -0.1832
C53 C 0.18701(11) 0.3554(4) -0.16913(11)
H50 H 0.1609 0.3444 -0.1714
C54 C 0.17214(7) 0.6929(3) -0.19645(8)
C55 C 0.19687(9) 0.7862(4) -0.21004(10)
H51 H 0.2190 0.8151 -0.1919
C56 C 0.18982(10) 0.8380(4) -0.24969(10)
H52 H 0.2071 0.9022 -0.2582
C57 C 0.15796(10) 0.7968(4) -0.27671(9)
H53 H 0.1529 0.8341 -0.3036
C58 C 0.13346(9) 0.7008(4) -0.26424(9)
H54 H 0.1116 0.6707 -0.2827
C59 C 0.14084(8) 0.6479(3) -0.22444(9)
H55 H 0.1241 0.5799 -0.2164
C31D C -0.00525(8) 0.4994(4) -0.04188(9)
H33D H -0.0090 0.4987 -0.0706
C32D C -0.03565(8) 0.5113(3) -0.02335(9)
H34D H -0.0600 0.5194 -0.0395
C33D C -0.03071(8) 0.5116(3) 0.01872(9)
C34D C -0.06387(8) 0.5286(3) 0.03783(9)
H35D H -0.0869 0.5040 0.0180
H36D H -0.0658 0.6313 0.0466
O3D O -0.05962(6) 0.4317(3) 0.07236(6)
C35D C -0.08873(7) 0.4309(3) 0.09263(8)
C36D C -0.11955(8) 0.5222(3) 0.08330(9)
H37D H -0.1212 0.5937 0.0625
C37D C -0.14794(8) 0.5078(3) 0.10477(9)
H38D H -0.1690 0.5704 0.0982
C38D C -0.14666(7) 0.4049(3) 0.13553(8)
C39D C -0.11512(8) 0.3147(3) 0.14431(9)
H39D H -0.1134 0.2427 0.1650
C40D C -0.08644(9) 0.3285(4) 0.12350(10)
H40D H -0.0651 0.2675 0.1304
C41D C -0.18139(7) 0.3724(3) 0.15326(8)
C42D C -0.20406(8) 0.2685(4) 0.12147(8)
C43D C -0.22719(9) 0.3249(5) 0.08696(10)
H41D H -0.2307 0.4279 0.0844
C44D C -0.24534(10) 0.2331(6) 0.05610(11)
H42D H -0.2610 0.2739 0.0328
C45D C -0.24073(13) 0.0843(6) 0.05921(12)
H43D H -0.2534 0.0214 0.0384
C46D C -0.21782(16) 0.0284(5) 0.09254(13)
H44D H -0.2145 -0.0747 0.0950
C47D C -0.19904(12) 0.1199(4) 0.12329(11)
H45D H -0.1825 0.0782 0.1458
C48D C -0.20386(9) 0.5111(3) 0.15867(9)
C49D C -0.24228(10) 0.4997(5) 0.15727(11)
H46D H -0.2541 0.4076 0.1511
C50D C -0.26339(12) 0.6175(6) 0.16459(13)
H47D H -0.2894 0.6069 0.1630
C51D C -0.24668(14) 0.7482(6) 0.17403(13)
H48D H -0.2611 0.8299 0.1790
C52D C -0.20894(15) 0.7650(4) 0.17650(13)
H49D H -0.1976 0.8578 0.1832
C53D C -0.18701(11) 0.6446(4) 0.16913(11)
H50D H -0.1609 0.6556 0.1714
C54D C -0.17214(7) 0.3071(3) 0.19645(8)
C55D C -0.19687(9) 0.2138(4) 0.21004(10)
H51D H -0.2190 0.1849 0.1919
C56D C -0.18982(10) 0.1620(4) 0.24969(10)
H52D H -0.2071 0.0978 0.2582
C57D C -0.15796(10) 0.2032(4) 0.27671(9)
H53D H -0.1529 0.1659 0.3036
C58D C -0.13346(9) 0.2992(4) 0.26424(9)
H54D H -0.1116 0.3293 0.2827
C59D C -0.14084(8) 0.3521(3) 0.22444(9)
H55D H -0.1241 0.4201 0.2164
C60 C 0.17569(10) 1.2256(4) 0.01897(12)
H56 H 0.1535 1.1608 0.0108
Cl1 Cl 0.16052(3) 1.39941(11) 0.03016(3)
Cl2 Cl 0.19830(6) 1.2382(3) -0.02117(5)
Cl3 Cl 0.20483(3) 1.14956(15) 0.06154(4)
C61 C 0.08095(13) -0.0418(6) 0.25916(16)
H57 H 0.0906 -0.0141 0.2345
Cl4 Cl 0.05922(5) -0.21157(17) 0.25081(4)
Cl5 Cl 0.11853(3) -0.05052(13) 0.30060(4)
Cl6 Cl 0.04938(4) 0.0952(2) 0.26825(5)
C1 C 0.08223(9) 1.0097(4) -0.04475(11)
O1 O 0.10217(10) 1.1061(3) -0.02707(12)
N1 N 0.08003(7) 0.8752(3) -0.02959(8)
H1 H 0.0676 0.8082 -0.0456
C2 C 0.09675(8) 0.8333(3) 0.01120(9)
C3 C 0.07449(8) 0.8344(3) 0.04031(10)
C4 C 0.08976(8) 0.7892(3) 0.07923(9)
H2 H 0.0747 0.7896 0.0990
C5 C 0.12689(8) 0.7425(3) 0.09048(9)
C6 C 0.14857(8) 0.7453(3) 0.06080(9)
H3 H 0.1739 0.7158 0.0679
C7 C 0.13407(8) 0.7901(3) 0.02089(10)
C8 C 0.14103(7) 0.6861(3) 0.13413(9)
C9 C 0.13917(8) 0.8127(3) 0.16438(9)
H4 H 0.1536 0.8970 0.1574
H5 H 0.1130 0.8444 0.1615
C10 C 0.15437(9) 0.7691(4) 0.20851(10)
H6 H 0.1533 0.8547 0.2263
H7 H 0.1386 0.6909 0.2164
C11 C 0.19446(9) 0.7148(4) 0.21451(11)
H8 H 0.2109 0.7966 0.2100
H9 H 0.2029 0.6796 0.2427
C12 C 0.19736(8) 0.5909(3) 0.18499(10)
H10 H 0.1831 0.5051 0.1915
H11 H 0.2237 0.5612 0.1881
C13 C 0.18230(8) 0.6374(3) 0.14123(9)
H12 H 0.1846 0.5544 0.1230
H13 H 0.1975 0.7193 0.1343
C14 C 0.11509(7) 0.5576(3) 0.13876(8)
C15 C 0.12000(8) 0.4224(3) 0.12148(9)
H14 H 0.1421 0.4061 0.1115
C16 C 0.09398(9) 0.3102(3) 0.11827(9)
C17 C 0.06192(8) 0.3344(3) 0.13328(10)
C18 C 0.05659(8) 0.4657(3) 0.15274(10)
C19 C 0.08325(8) 0.5751(3) 0.15517(9)
H15 H 0.0798 0.6645 0.1684
N2 N 0.03238(7) 0.2290(3) 0.12705(10)
H16 H 0.0118 0.2526 0.1098
C20 C 0.03315(8) 0.0974(3) 0.14513(9)
O2 O 0.06008(7) 0.0489(3) 0.16934(8)
C21 C -0.00191(8) 0.0089(3) 0.13217(9)
C22 C -0.00946(10) -0.1050(4) 0.15659(11)
H17 H 0.0076 -0.1285 0.1809
C23 C -0.04204(11) -0.1836(4) 0.14515(11)
H18 H -0.0478 -0.2605 0.1619
C24 C -0.06637(9) -0.1497(4) 0.10918(10)
H19 H -0.0889 -0.2029 0.1011
C25 C -0.05755(8) -0.0377(3) 0.08511(9)
C26 C -0.02559(7) 0.0425(3) 0.09679(8)
H20 H -0.0201 0.1207 0.0804
C27 C 0.03421(9) 0.8824(4) 0.02923(11)
H21 H 0.0228 0.8736 0.0530
H22 H 0.0208 0.8201 0.0074
H23 H 0.0330 0.9846 0.0201
C28 C 0.15804(10) 0.7892(4) -0.01057(11)
H24 H 0.1424 0.7720 -0.0374
H25 H 0.1767 0.7111 -0.0043
H26 H 0.1706 0.8839 -0.0104
C29 C 0.09962(11) 0.1696(4) 0.09691(12)
H27 H 0.1232 0.1742 0.0876
H28 H 0.0791 0.1559 0.0736
H29 H 0.1003 0.0872 0.1157
C30 C 0.02199(10) 0.4889(5) 0.16983(14)
H30 H 0.0248 0.5780 0.1864
H31 H 0.0184 0.4046 0.1866
H32 H 0.0003 0.4990 0.1475
C1D C -0.08223(9) -0.0097(4) 0.04475(11)
O1D O -0.10217(10) -0.1061(3) 0.02707(12)
N1D N -0.08003(7) 0.1248(3) 0.02959(8)
H1D H -0.0676 0.1918 0.0456
C2D C -0.09675(8) 0.1667(3) -0.01120(9)
C3D C -0.07449(8) 0.1656(3) -0.04031(10)
C4D C -0.08976(8) 0.2108(3) -0.07923(9)
H2D H -0.0747 0.2104 -0.0990
C5D C -0.12689(8) 0.2575(3) -0.09048(9)
C6D C -0.14857(8) 0.2547(3) -0.06080(9)
H3D H -0.1739 0.2842 -0.0679
C7D C -0.13407(8) 0.2099(3) -0.02089(10)
C8D C -0.14103(7) 0.3139(3) -0.13413(9)
C9D C -0.13917(8) 0.1873(3) -0.16438(9)
H4D H -0.1536 0.1030 -0.1574
H5D H -0.1130 0.1556 -0.1615
C10D C -0.15437(9) 0.2309(4) -0.20851(10)
H6D H -0.1533 0.1453 -0.2263
H7D H -0.1386 0.3091 -0.2164
C11D C -0.19446(9) 0.2852(4) -0.21451(11)
H8D H -0.2109 0.2034 -0.2100
H9D H -0.2029 0.3204 -0.2427
C12D C -0.19736(8) 0.4091(3) -0.18499(10)
H10D H -0.1831 0.4949 -0.1915
H11D H -0.2237 0.4388 -0.1881
C13D C -0.18230(8) 0.3626(3) -0.14123(9)
H12D H -0.1846 0.4456 -0.1230
H13D H -0.1975 0.2807 -0.1343
C14D C -0.11509(7) 0.4424(3) -0.13876(8)
C15D C -0.12000(8) 0.5776(3) -0.12148(9)
H14D H -0.1421 0.5939 -0.1115
C16D C -0.09398(9) 0.6898(3) -0.11827(9)
C17D C -0.06192(8) 0.6656(3) -0.13328(10)
C18D C -0.05659(8) 0.5343(3) -0.15274(10)
C19D C -0.08325(8) 0.4249(3) -0.15517(9)
H15D H -0.0798 0.3355 -0.1684
N2D N -0.03238(7) 0.7710(3) -0.12705(10)
H16D H -0.0118 0.7474 -0.1098
C20D C -0.03315(8) 0.9026(3) -0.14513(9)
O2D O -0.06008(7) 0.9511(3) -0.16934(8)
C21D C 0.00191(8) 0.9911(3) -0.13217(9)
C22D C 0.00946(10) 1.1050(4) -0.15659(11)
H17D H -0.0076 1.1285 -0.1809
C23D C 0.04204(11) 1.1836(4) -0.14515(11)
H18D H 0.0478 1.2605 -0.1619
C24D C 0.06637(9) 1.1497(4) -0.10918(10)
H19D H 0.0889 1.2029 -0.1011
C25D C 0.05755(8) 1.0377(3) -0.08511(9)
C26D C 0.02559(7) 0.9575(3) -0.09679(8)
H20D H 0.0201 0.8793 -0.0804
C27D C -0.03421(9) 0.1176(4) -0.02923(11)
H21D H -0.0228 0.1264 -0.0530
H22D H -0.0208 0.1799 -0.0074
H23D H -0.0330 0.0154 -0.0201
C28D C -0.15804(10) 0.2108(4) 0.01057(11)
H24D H -0.1424 0.2280 0.0374
H25D H -0.1767 0.2889 0.0043
H26D H -0.1706 0.1161 0.0104
C29D C -0.09962(11) 0.8304(4) -0.09691(12)
H27D H -0.1232 0.8258 -0.0876
H28D H -0.0791 0.8441 -0.0736
H29D H -0.1003 0.9128 -0.1157
C30D C -0.02199(10) 0.5111(5) -0.16983(14)
H30D H -0.0248 0.4220 -0.1864
H31D H -0.0184 0.5954 -0.1866
H32D H -0.0003 0.5010 -0.1475
N3? N -0.02559(7) 0.0425(3) 0.09679(8)
loop_
_geom_bond_atom_site_label_1
_geom_bond_atom_site_label_2
_geom_bond_site_symmetry_1
_geom_bond_site_symmetry_2
C1 O1 1_555 1_555
N1 C1 1_555 1_555
H1 N1 1_555 1_555
C2 N1 1_555 1_555
C3 C2 1_555 1_555
C4 C3 1_555 1_555
H2 C4 1_555 1_555
C5 C4 1_555 1_555
C6 C5 1_555 1_555
H3 C6 1_555 1_555
C7 C2 1_555 1_555
C8 C5 1_555 1_555
C9 C8 1_555 1_555
H4 C9 1_555 1_555
H5 C9 1_555 1_555
C10 C9 1_555 1_555
H6 C10 1_555 1_555
H7 C10 1_555 1_555
C11 C10 1_555 1_555
H8 C11 1_555 1_555
H9 C11 1_555 1_555
C12 C11 1_555 1_555
H10 C12 1_555 1_555
H11 C12 1_555 1_555
C13 C8 1_555 1_555
H12 C13 1_555 1_555
H13 C13 1_555 1_555
C14 C8 1_555 1_555
C15 C14 1_555 1_555
H14 C15 1_555 1_555
C16 C15 1_555 1_555
C17 C16 1_555 1_555
C18 C17 1_555 1_555
C19 C14 1_555 1_555
H15 C19 1_555 1_555
N2 C17 1_555 1_555
H16 N2 1_555 1_555
C20 N2 1_555 1_555
O2 C20 1_555 1_555
C21 C20 1_555 1_555
C22 C21 1_555 1_555
H17 C22 1_555 1_555
C23 C22 1_555 1_555
H18 C23 1_555 1_555
C24 C23 1_555 1_555
H19 C24 1_555 1_555
C25 C24 1_555 1_555
C26 C21 1_555 1_555
H20 C26 1_555 1_555
C27 C3 1_555 1_555
H21 C27 1_555 1_555
H22 C27 1_555 1_555
H23 C27 1_555 1_555
C28 C7 1_555 1_555
H24 C28 1_555 1_555
H25 C28 1_555 1_555
H26 C28 1_555 1_555
C29 C16 1_555 1_555
H27 C29 1_555 1_555
H28 C29 1_555 1_555
H29 C29 1_555 1_555
C30 C18 1_555 1_555
H30 C30 1_555 1_555
H31 C30 1_555 1_555
H32 C30 1_555 1_555
C31 H33 1_555 1_555
C32 C31 1_555 1_555
H34 C32 1_555 1_555
C33 C32 1_555 1_555
C34 C33 1_555 1_555
H35 C34 1_555 1_555
H36 C34 1_555 1_555
O3 C34 1_555 1_555
C35 O3 1_555 1_555
C36 C35 1_555 1_555
H37 C36 1_555 1_555
C37 C36 1_555 1_555
H38 C37 1_555 1_555
C38 C37 1_555 1_555
C39 C38 1_555 1_555
H39 C39 1_555 1_555
C40 C35 1_555 1_555
H40 C40 1_555 1_555
C41 C38 1_555 1_555
C42 C41 1_555 1_555
C43 C42 1_555 1_555
H41 C43 1_555 1_555
C44 C43 1_555 1_555
H42 C44 1_555 1_555
C45 C44 1_555 1_555
H43 C45 1_555 1_555
C46 C45 1_555 1_555
H44 C46 1_555 1_555
C47 C42 1_555 1_555
H45 C47 1_555 1_555
C48 C41 1_555 1_555
C49 C48 1_555 1_555
H46 C49 1_555 1_555
C50 C49 1_555 1_555
H47 C50 1_555 1_555
C51 C50 1_555 1_555
H48 C51 1_555 1_555
C52 C51 1_555 1_555
H49 C52 1_555 1_555
C53 C48 1_555 1_555
H50 C53 1_555 1_555
C54 C41 1_555 1_555
C55 C54 1_555 1_555
H51 C55 1_555 1_555
C56 C55 1_555 1_555
H52 C56 1_555 1_555
C57 C56 1_555 1_555
H53 C57 1_555 1_555
C58 C57 1_555 1_555
H54 C58 1_555 1_555
C59 C54 1_555 1_555
H55 C59 1_555 1_555
C60 H56 1_555 1_555
Cl1 C60 1_555 1_555
Cl2 C60 1_555 1_555
Cl3 C60 1_555 1_555
C61 H57 1_555 1_555
Cl4 C61 1_555 1_555
Cl5 C61 1_555 1_555
Cl6 C61 1_555 1_555
C1D C25 1_555 1_555
O1D C1D 1_555 1_555
N1D C1D 1_555 1_555
H1D N1D 1_555 1_555
C2D N1D 1_555 1_555
C3D C2D 1_555 1_555
C4D C3D 1_555 1_555
H2D C4D 1_555 1_555
C5D C4D 1_555 1_555
C6D C5D 1_555 1_555
H3D C6D 1_555 1_555
C7D C2D 1_555 1_555
C8D C5D 1_555 1_555
C9D C8D 1_555 1_555
H4D C9D 1_555 1_555
H5D C9D 1_555 1_555
C10D C9D 1_555 1_555
H6D C10D 1_555 1_555
H7D C10D 1_555 1_555
C11D C10D 1_555 1_555
H8D C11D 1_555 1_555
H9D C11D 1_555 1_555
C12D C11D 1_555 1_555
H10D C12D 1_555 1_555
H11D C12D 1_555 1_555
C13D C8D 1_555 1_555
H12D C13D 1_555 1_555
H13D C13D 1_555 1_555
C14D C8D 1_555 1_555
C15D C14D 1_555 1_555
H14D C15D 1_555 1_555
C16D C15D 1_555 1_555
C17D C16D 1_555 1_555
C18D C17D 1_555 1_555
C19D C14D 1_555 1_555
H15D C19D 1_555 1_555
N2D C17D 1_555 1_555
H16D N2D 1_555 1_555
C20D N2D 1_555 1_555
O2D C20D 1_555 1_555
C21D C20D 1_555 1_555
C22D C21D 1_555 1_555
H17D C22D 1_555 1_555
C23D C22D 1_555 1_555
H18D C23D 1_555 1_555
C24D C23D 1_555 1_555
H19D C24D 1_555 1_555
C25D C1 1_555 1_555
C26D C21D 1_555 1_555
H20D C26D 1_555 1_555
C27D C3D 1_555 1_555
H21D C27D 1_555 1_555
H22D C27D 1_555 1_555
H23D C27D 1_555 1_555
C28D C7D 1_555 1_555
H24D C28D 1_555 1_555
H25D C28D 1_555 1_555
H26D C28D 1_555 1_555
C29D C16D 1_555 1_555
H27D C29D 1_555 1_555
H28D C29D 1_555 1_555
H29D C29D 1_555 1_555
C30D C18D 1_555 1_555
H30D C30D 1_555 1_555
H31D C30D 1_555 1_555
H32D C30D 1_555 1_555
C31D C33 1_555 1_555
H33D C31D 1_555 1_555
C32D C31D 1_555 1_555
H34D C32D 1_555 1_555
C33D C31 1_555 1_555
C34D C33D 1_555 1_555
H35D C34D 1_555 1_555
H36D C34D 1_555 1_555
O3D C34D 1_555 1_555
C35D O3D 1_555 1_555
C36D C35D 1_555 1_555
H37D C36D 1_555 1_555
C37D C36D 1_555 1_555
H38D C37D 1_555 1_555
C38D C37D 1_555 1_555
C39D C38D 1_555 1_555
H39D C39D 1_555 1_555
C40D C35D 1_555 1_555
H40D C40D 1_555 1_555
C41D C38D 1_555 1_555
C42D C41D 1_555 1_555
C43D C42D 1_555 1_555
H41D C43D 1_555 1_555
C44D C43D 1_555 1_555
H42D C44D 1_555 1_555
C45D C44D 1_555 1_555
H43D C45D 1_555 1_555
C46D C45D 1_555 1_555
H44D C46D 1_555 1_555
C47D C42D 1_555 1_555
H45D C47D 1_555 1_555
C48D C41D 1_555 1_555
C49D C48D 1_555 1_555
H46D C49D 1_555 1_555
C50D C49D 1_555 1_555
H47D C50D 1_555 1_555
C51D C50D 1_555 1_555
H48D C51D 1_555 1_555
C52D C51D 1_555 1_555
H49D C52D 1_555 1_555
C53D C48D 1_555 1_555
H50D C53D 1_555 1_555
C54D C41D 1_555 1_555
C55D C54D 1_555 1_555
H51D C55D 1_555 1_555
C56D C55D 1_555 1_555
H52D C56D 1_555 1_555
C57D C56D 1_555 1_555
H53D C57D 1_555 1_555
C58D C57D 1_555 1_555
H54D C58D 1_555 1_555
C59D C54D 1_555 1_555
H55D C59D 1_555 1_555
C6 C7 1_555 1_555
C12 C13 1_555 1_555
C18 C19 1_555 1_555
C25 C26 1_555 1_555
C39 C40 1_555 1_555
C46 C47 1_555 1_555
C52 C53 1_555 1_555
C58 C59 1_555 1_555
C6D C7D 1_555 1_555
C12D C13D 1_555 1_555
C18D C19D 1_555 1_555
C24D C25D 1_555 1_555
C25D C26D 1_555 1_555
C32D C33D 1_555 1_555
C39D C40D 1_555 1_555
C46D C47D 1_555 1_555
C52D C53D 1_555 1_555
C58D C59D 1_555 1_555

#END
