
#######################################################################
#
#                 Cambridge Crystallographic Data Centre
#                                CCDC 
#
#######################################################################
#
# If this CIF has been generated from an entry in the Cambridge 
# Structural Database, then it will include bibliographic, chemical, 
# crystal, experimental, refinement or atomic coordinate data resulting 
# from the CCDC's data processing and validation procedures.
#
#######################################################################

data_NAYCUO
_chemical_formula_moiety         'C19 H28 O3 Si1'
_chemical_name_systematic        
6-{[t-butyl(dimethyl)silyl]oxy}-5-ethyl-1-hydroxy-1-methylnaphthalen-2(1H)-one
_symmetry_cell_setting           monoclinic
_symmetry_space_group_name_H-M   'P 21'
_symmetry_Int_Tables_number      4
_space_group_name_Hall           'P 2yb'
loop_
_symmetry_equiv_pos_site_id
_symmetry_equiv_pos_as_xyz
1 x,y,z
2 -x,1/2+y,-z
_cell_length_a                   21.9182(9)
_cell_length_b                   6.1752(3)
_cell_length_c                   14.8927(6)
_cell_angle_alpha                90
_cell_angle_beta                 100.846(4)
_cell_angle_gamma                90
_cell_volume                     1979.71
_exptl_crystal_colour            colorless
_exptl_crystal_description       plate
_cell_formula_units_Z            4
loop_
_atom_site_label
_atom_site_type_symbol
_atom_site_fract_x
_atom_site_fract_y
_atom_site_fract_z
Si1 Si -0.14021(5) -0.5270(2) -0.32446(7)
O1 O -0.20062(13) -0.6569(7) -0.38245(19)
C1 C -0.24961(17) -0.7688(8) -0.3614(3)
C2 C -0.34980(16) -1.0067(8) -0.3245(2)
C3 C -0.34625(17) -0.9542(8) -0.4156(2)
C4 C -0.30419(17) -0.9370(8) -0.2544(2)
H1 H -0.3070 -0.9712 -0.1931
C5 C -0.29508(17) -0.8367(8) -0.4341(2)
C6 C -0.45108(18) -1.0977(9) -0.4726(2)
H2 H -0.4833 -1.1317 -0.5228
C7 C -0.39781(18) -1.0143(9) -0.4885(2)
H3 H -0.3933 -0.9932 -0.5501
C8 C -0.29002(19) -0.7694(9) -0.5305(3)
H4 H -0.2456 -0.7599 -0.5351
H5 H -0.3097 -0.8813 -0.5741
C9 C -0.25407(18) -0.8178(9) -0.2713(3)
H6 H -0.2230 -0.7698 -0.2221
C10 C -0.0903(3) -0.5866(14) -0.4826(4)
H7 H -0.0631 -0.6955 -0.4477
H8 H -0.0699 -0.5246 -0.5298
H9 H -0.1295 -0.6549 -0.5115
C11 C -0.0419(3) -0.2968(13) -0.3753(5)
H10 H -0.0496 -0.1877 -0.3310
H11 H -0.0241 -0.2268 -0.4235
H12 H -0.0129 -0.4058 -0.3444
C12 C -0.46048(18) -1.1374(8) -0.3796(3)
C13 C -0.1036(2) -0.4068(11) -0.4180(3)
C14 C -0.0865(2) -0.7227(12) -0.2525(4)
H13 H -0.1090 -0.7984 -0.2108
H14 H -0.0513 -0.6437 -0.2170
H15 H -0.0713 -0.8284 -0.2922
C15 C -0.40177(17) -1.1524(8) -0.3053(2)
C16 C -0.1651(3) -0.3143(12) -0.2499(4)
H16 H -0.1951 -0.2174 -0.2870
H17 H -0.1288 -0.2307 -0.2204
H18 H -0.1844 -0.3831 -0.2029
C17 C -0.1470(3) -0.2407(14) -0.4716(4)
H19 H -0.1859 -0.3114 -0.5000
H20 H -0.1273 -0.1770 -0.5193
H21 H -0.1558 -0.1264 -0.4302
C18 C -0.3210(2) -0.5529(11) -0.5564(3)
H22 H -0.3145 -0.5110 -0.6174
H23 H -0.3028 -0.4429 -0.5119
H24 H -0.3656 -0.5649 -0.5568
O2 O -0.41541(12) -1.0945(7) -0.21946(17)
H25 H -0.4481 -1.1572 -0.2121
C19 C -0.3804(2) -1.3871(9) -0.3049(3)
H26 H -0.3723 -1.4251 -0.3655
H27 H -0.4128 -1.4820 -0.2898
H28 H -0.3422 -1.4052 -0.2593
O3 O -0.51132(13) -1.1717(7) -0.36105(19)
Si2 Si -0.14309(5) -1.5821(2) -0.83044(8)
O4 O -0.20330(14) -1.4475(8) -0.8877(2)
C20 C -0.25288(18) -1.3437(9) -0.8625(3)
C21 C -0.35415(17) -1.1288(8) -0.8167(2)
C22 C -0.35347(17) -1.1824(8) -0.9088(2)
C23 C -0.30403(18) -1.1834(9) -0.7498(2)
H29 H -0.3043 -1.1475 -0.6878
C24 C -0.40604(18) -1.1142(8) -0.9786(2)
H30 H -0.4072 -1.1596 -1.0398
C25 C -0.3023(2) -1.3645(10) -1.0292(3)
H31 H -0.2589 -1.3770 -1.0387
H32 H -0.3237 -1.2547 -1.0724
C26 C -0.30252(18) -1.2929(8) -0.9322(3)
C27 C -0.45249(18) -0.9917(9) -0.9610(3)
H33 H -0.4858 -0.9548 -1.0092
C28 C -0.25315(18) -1.2904(9) -0.7721(3)
H34 H -0.2187 -1.3268 -0.7257
C29 C -0.45286(17) -0.9138(8) -0.8691(2)
C30 C -0.1079(2) -1.7010(12) -0.9258(4)
C31 C -0.0877(2) -1.3943(13) -0.7587(4)
H35 H -0.0724 -1.2881 -0.7980
H36 H -0.0527 -1.4771 -0.7247
H37 H -0.1090 -1.3188 -0.7155
C32 C -0.41207(16) -1.0327(9) -0.7910(2)
C33 C -0.1527(3) -1.8614(16) -0.9804(5)
H38 H -0.1618 -1.9773 -0.9399
H39 H -0.1340 -1.9237 -1.0293
H40 H -0.1914 -1.7869 -1.0071
C34 C -0.1685(3) -1.7905(12) -0.7565(4)
H41 H -0.1859 -1.7201 -0.7079
H42 H -0.1328 -1.8797 -0.7291
H43 H -0.2002 -1.8824 -0.7931
C35 C -0.0938(3) -1.5183(15) -0.9879(4)
H44 H -0.1322 -1.4402 -1.0127
H45 H -0.0762 -1.5792 -1.0383
H46 H -0.0638 -1.4182 -0.9526
C36 C -0.3349(3) -1.5820(12) -1.0481(3)
H47 H -0.3320 -1.6309 -1.1097
H48 H -0.3787 -1.5665 -1.0434
H49 H -0.3150 -1.6886 -1.0032
C37 C -0.0465(3) -1.8167(15) -0.8846(5)
H50 H -0.0171 -1.7112 -0.8519
H51 H -0.0289 -1.8830 -0.9338
H52 H -0.0547 -1.9292 -0.8420
O5 O -0.39439(13) -0.8920(6) -0.71557(17)
H53 H -0.4225 -0.7999 -0.7149
C38 C -0.4522(2) -1.2210(10) -0.7650(3)
H54 H -0.4601 -1.3262 -0.8152
H55 H -0.4919 -1.1637 -0.7540
H56 H -0.4302 -1.2922 -0.7095
O6 O -0.48595(15) -0.7666(7) -0.85313(19)
loop_
_geom_bond_atom_site_label_1
_geom_bond_atom_site_label_2
_geom_bond_site_symmetry_1
_geom_bond_site_symmetry_2
Si1 O1 1_555 1_555
O1 C1 1_555 1_555
C1 C5 1_555 1_555
C2 C3 1_555 1_555
C3 C5 1_555 1_555
C4 C2 1_555 1_555
H1 C4 1_555 1_555
C5 C8 1_555 1_555
C6 H2 1_555 1_555
C7 C3 1_555 1_555
H3 C7 1_555 1_555
C8 H4 1_555 1_555
H5 C8 1_555 1_555
C9 C1 1_555 1_555
H6 C9 1_555 1_555
C10 H7 1_555 1_555
H8 C10 1_555 1_555
H9 C10 1_555 1_555
C11 H10 1_555 1_555
H11 C11 1_555 1_555
H12 C11 1_555 1_555
C12 C6 1_555 1_555
C13 Si1 1_555 1_555
C14 Si1 1_555 1_555
H13 C14 1_555 1_555
H14 C14 1_555 1_555
H15 C14 1_555 1_555
C15 C2 1_555 1_555
C16 Si1 1_555 1_555
H16 C16 1_555 1_555
H17 C16 1_555 1_555
H18 C16 1_555 1_555
C17 C13 1_555 1_555
H19 C17 1_555 1_555
H20 C17 1_555 1_555
H21 C17 1_555 1_555
C18 C8 1_555 1_555
H22 C18 1_555 1_555
H23 C18 1_555 1_555
H24 C18 1_555 1_555
O2 C15 1_555 1_555
H25 O2 1_555 1_555
C19 C15 1_555 1_555
H26 C19 1_555 1_555
H27 C19 1_555 1_555
H28 C19 1_555 1_555
O3 C12 1_555 1_555
Si2 O4 1_555 1_555
O4 C20 1_555 1_555
C20 C26 1_555 1_555
C21 C22 1_555 1_555
C22 C24 1_555 1_555
C23 C21 1_555 1_555
H29 C23 1_555 1_555
C24 H30 1_555 1_555
C25 H31 1_555 1_555
H32 C25 1_555 1_555
C26 C22 1_555 1_555
C27 C24 1_555 1_555
H33 C27 1_555 1_555
C28 C20 1_555 1_555
H34 C28 1_555 1_555
C29 C27 1_555 1_555
C30 Si2 1_555 1_555
C31 Si2 1_555 1_555
H35 C31 1_555 1_555
H36 C31 1_555 1_555
H37 C31 1_555 1_555
C32 C21 1_555 1_555
C33 C30 1_555 1_555
H38 C33 1_555 1_555
H39 C33 1_555 1_555
H40 C33 1_555 1_555
C34 Si2 1_555 1_555
H41 C34 1_555 1_555
H42 C34 1_555 1_555
H43 C34 1_555 1_555
C35 C30 1_555 1_555
H44 C35 1_555 1_555
H45 C35 1_555 1_555
H46 C35 1_555 1_555
C36 C25 1_555 1_555
H47 C36 1_555 1_555
H48 C36 1_555 1_555
H49 C36 1_555 1_555
C37 C30 1_555 1_555
H50 C37 1_555 1_555
H51 C37 1_555 1_555
H52 C37 1_555 1_555
O5 C32 1_555 1_555
H53 O5 1_555 1_555
C38 C32 1_555 1_555
H54 C38 1_555 1_555
H55 C38 1_555 1_555
H56 C38 1_555 1_555
O6 C29 1_555 1_555
C4 C9 1_555 1_555
C6 C7 1_555 1_555
C10 C13 1_555 1_555
C11 C13 1_555 1_555
C12 C15 1_555 1_555
C23 C28 1_555 1_555
C25 C26 1_555 1_555
C29 C32 1_555 1_555

#END
