
#######################################################################
#
#                 Cambridge Crystallographic Data Centre
#                                CCDC 
#
#######################################################################
#
# If this CIF has been generated from an entry in the Cambridge 
# Structural Database, then it will include bibliographic, chemical, 
# crystal, experimental, refinement or atomic coordinate data resulting 
# from the CCDC's data processing and validation procedures.
#
#######################################################################

data_NAYHUR
_chemical_formula_moiety         'C28 H26'
_chemical_name_systematic        
1-(Fluoren-9-yl)-2-(2-methyl-5,6-dihydrocyclopenta(f)-1H-inden-1-yl)ethane
_symmetry_cell_setting           monoclinic
_symmetry_space_group_name_H-M   'P 21/c'
_symmetry_Int_Tables_number      14
_space_group_name_Hall           '-P 2ybc'
loop_
_symmetry_equiv_pos_site_id
_symmetry_equiv_pos_as_xyz
1 x,y,z
2 -x,1/2+y,1/2-z
3 -x,-y,-z
4 x,1/2-y,1/2+z
_cell_length_a                   9.5443(4)
_cell_length_b                   8.2592(3)
_cell_length_c                   25.949(1)
_cell_angle_alpha                90
_cell_angle_beta                 95.694(2)
_cell_angle_gamma                90
_cell_volume                     2035.42
_exptl_crystal_colour            colorless
_exptl_crystal_description       block
_cell_formula_units_Z            4
_exptl_crystal_recrystallization_method dichloromethane
loop_
_atom_site_label
_atom_site_type_symbol
_atom_site_fract_x
_atom_site_fract_y
_atom_site_fract_z
C1 C 0.47178(16) 0.38903(18) 0.12665(5)
C2 C 0.32788(17) 0.31668(19) 0.13158(6)
C3 C 0.20063(19) 0.3511(3) 0.10312(8)
C4 C 0.0798(2) 0.2704(3) 0.11465(10)
C5 C 0.0861(2) 0.1543(3) 0.15352(10)
C6 C 0.2128(2) 0.1184(3) 0.18261(8)
C7 C 0.3346(2) 0.2018(2) 0.17160(6)
C8 C 0.48016(19) 0.19211(18) 0.19498(6)
C9 C 0.5419(2) 0.1009(2) 0.23654(6)
C10 C 0.6842(3) 0.1168(2) 0.25098(6)
C11 C 0.7665(2) 0.2216(2) 0.22432(6)
C12 C 0.70622(19) 0.3139(2) 0.18278(6)
C13 C 0.56302(17) 0.29889(17) 0.16848(5)
C14 C 0.52066(17) 0.37794(18) 0.07198(5)
C15 C 0.53348(17) 0.20231(17) 0.05310(5)
C16 C 0.55766(16) 0.19393(17) -0.00316(5)
C17 C 0.68105(17) 0.17323(18) -0.02411(6)
C18 C 0.65679(17) 0.17311(19) -0.08268(6)
C19 C 0.49982(16) 0.19449(17) -0.09315(5)
C20 C 0.41400(17) 0.20085(18) -0.13935(6)
C21 C 0.26974(17) 0.22339(18) -0.13715(5)
C22 C 0.15357(19) 0.2311(2) -0.18132(6)
C23 C 0.0264(2) 0.3002(2) -0.15558(7)
C24 C 0.05476(18) 0.2578(2) -0.09783(6)
C25 C 0.21293(17) 0.23826(18) -0.08948(5)
C26 C 0.29900(16) 0.23066(17) -0.04281(5)
C27 C 0.44286(16) 0.20887(16) -0.04498(5)
C28 C 0.82420(18) 0.1484(2) 0.00388(7)
H1 H 0.4717(16) 0.509(2) 0.1365(6)
H2 H 0.200(2) 0.435(3) 0.0746(9)
H3 H -0.010(3) 0.291(3) 0.0957(9)
H4 H -0.002(3) 0.099(3) 0.1627(9)
H5 H 0.225(2) 0.036(3) 0.2116(9)
H6 H 0.4819(18) 0.028(2) 0.2558(7)
H7 H 0.733(2) 0.057(3) 0.2806(8)
H8 H 0.868(2) 0.227(2) 0.2359(8)
H9 H 0.7624(18) 0.394(2) 0.1633(7)
H10 H 0.6167(19) 0.433(2) 0.0714(7)
H11 H 0.4514(17) 0.441(2) 0.0463(6)
H12 H 0.6113(16) 0.1479(19) 0.0735(6)
H13 H 0.4457(18) 0.145(2) 0.0577(6)
H14 H 0.715(2) 0.267(2) -0.1003(7)
H15 H 0.6898(18) 0.067(2) -0.0980(7)
H16 H 0.4558(17) 0.190(2) -0.1730(7)
H17 H 0.133(2) 0.121(3) -0.1969(7)
H18 H 0.179(2) 0.301(3) -0.2112(8)
H19 H 0.0235(19) 0.423(2) -0.1594(7)
H20 H -0.068(2) 0.259(2) -0.1717(7)
H21 H 0.009(2) 0.151(3) -0.0901(8)
H22 H 0.019(2) 0.342(3) -0.0753(8)
H23 H 0.2580(16) 0.2430(18) -0.0100(6)
H24 H 0.873(2) 0.050(3) -0.0132(8)
H25 H 0.887(2) 0.247(2) 0.0021(7)
H26 H 0.819(2) 0.125(2) 0.0416(8)
loop_
_geom_bond_atom_site_label_1
_geom_bond_atom_site_label_2
_geom_bond_site_symmetry_1
_geom_bond_site_symmetry_2
C1 C2 1_555 1_555
C2 C3 1_555 1_555
C3 C4 1_555 1_555
C4 C5 1_555 1_555
C5 C6 1_555 1_555
C6 C7 1_555 1_555
C7 C2 1_555 1_555
C8 C7 1_555 1_555
C9 C8 1_555 1_555
C10 C9 1_555 1_555
C11 C10 1_555 1_555
C12 C11 1_555 1_555
C13 C1 1_555 1_555
C14 C1 1_555 1_555
C15 C14 1_555 1_555
C16 C15 1_555 1_555
C17 C16 1_555 1_555
C18 C17 1_555 1_555
C19 C18 1_555 1_555
C20 C19 1_555 1_555
C21 C20 1_555 1_555
C22 C21 1_555 1_555
C23 C22 1_555 1_555
C24 C23 1_555 1_555
C25 C21 1_555 1_555
C26 C25 1_555 1_555
C27 C16 1_555 1_555
C28 C17 1_555 1_555
H1 C1 1_555 1_555
H2 C3 1_555 1_555
H3 C4 1_555 1_555
H4 C5 1_555 1_555
H5 C6 1_555 1_555
H6 C9 1_555 1_555
H7 C10 1_555 1_555
H8 C11 1_555 1_555
H9 C12 1_555 1_555
H10 C14 1_555 1_555
H11 C14 1_555 1_555
H12 C15 1_555 1_555
H13 C15 1_555 1_555
H14 C18 1_555 1_555
H15 C18 1_555 1_555
H16 C20 1_555 1_555
H17 C22 1_555 1_555
H18 C22 1_555 1_555
H19 C23 1_555 1_555
H20 C23 1_555 1_555
H21 C24 1_555 1_555
H22 C24 1_555 1_555
H23 C26 1_555 1_555
H24 C28 1_555 1_555
H25 C28 1_555 1_555
H26 C28 1_555 1_555
C8 C13 1_555 1_555
C12 C13 1_555 1_555
C19 C27 1_555 1_555
C24 C25 1_555 1_555
C26 C27 1_555 1_555

#END
