
#######################################################################
#
#                 Cambridge Crystallographic Data Centre
#                                CCDC 
#
#######################################################################
#
# If this CIF has been generated from an entry in the Cambridge 
# Structural Database, then it will include bibliographic, chemical, 
# crystal, experimental, refinement or atomic coordinate data resulting 
# from the CCDC's data processing and validation procedures.
#
#######################################################################

data_NAYHAW
_chemical_formula_moiety         'C36 H50 Li2 N2 P2 Si4'
_chemical_name_systematic        
'bis(\m~2~-(3,3-Dimethylbenzo(d)-1,2,3-phosphazasilol-1,2-diyl) phenylphosphoranyl(trimethylsilyl)methyl)-di-lithium'
_symmetry_cell_setting           triclinic
_symmetry_space_group_name_H-M   'P -1'
_symmetry_Int_Tables_number      2
_space_group_name_Hall           '-P 1'
loop_
_symmetry_equiv_pos_site_id
_symmetry_equiv_pos_as_xyz
1 x,y,z
2 -x,-y,-z
_cell_length_a                   9.9040(10)
_cell_length_b                   10.259(3)
_cell_length_c                   11.1750(10)
_cell_angle_alpha                109.10(2)
_cell_angle_beta                 95.790(10)
_cell_angle_gamma                104.44(2)
_cell_volume                     1018.17
_exptl_crystal_colour            colorless
_cell_formula_units_Z            1
loop_
_atom_site_label
_atom_site_type_symbol
_atom_site_fract_x
_atom_site_fract_y
_atom_site_fract_z
Li1 Li 0.0744(6) -0.0822(5) -0.0370(5)
P1 P -0.14538(8) -0.20422(8) -0.21925(7)
Si1 Si 0.10579(9) -0.34602(11) -0.23038(8)
Si2 Si -0.26723(9) -0.22751(9) -0.00681(8)
N1 N -0.1457(3) -0.1274(2) -0.0667(2)
C1 C 0.0174(3) -0.2157(3) -0.2478(3)
C2 C -0.2868(3) -0.3737(3) -0.2627(3)
C3 C -0.3461(3) -0.3922(3) -0.1581(3)
C4 C -0.4521(4) -0.5212(4) -0.1825(4)
C5 C -0.4977(4) -0.6256(4) -0.3056(4)
C6 C -0.4398(4) -0.6047(4) -0.4061(3)
C7 C -0.3338(4) -0.4797(3) -0.3856(3)
C8 C -0.2068(3) -0.1056(3) -0.3112(3)
C9 C -0.1645(4) -0.1034(4) -0.4247(3)
C10 C -0.2086(5) -0.0216(5) -0.4886(4)
C11 C -0.2984(5) 0.0559(5) -0.4404(5)
C12 C -0.3429(6) 0.0529(6) -0.3298(5)
C13 C -0.2987(4) -0.0282(4) -0.2664(4)
C14 C 0.2778(5) -0.3046(6) -0.2866(5)
C15 C 0.0056(6) -0.5404(4) -0.3229(5)
C16 C 0.1513(6) -0.3250(5) -0.0560(4)
C17 C -0.1799(4) -0.2642(4) 0.1283(4)
C18 C -0.4049(4) -0.1421(4) 0.0519(4)
H1 H 0.0681(3) -0.1461(3) -0.2762(3)
H2 H -0.4927(4) -0.5373(4) -0.1151(4)
H3 H -0.5686(4) -0.7110(4) -0.3201(4)
H4 H -0.4721(4) -0.6752(4) -0.4886(3)
H5 H -0.2936(4) -0.4660(3) -0.4540(3)
H6 H -0.1055(4) -0.1577(4) -0.4587(3)
H7 H -0.1775(5) -0.0193(5) -0.5639(4)
H8 H -0.3288(5) 0.1105(5) -0.4833(5)
H9 H -0.4035(6) 0.1058(6) -0.2970(5)
H10 H -0.3315(4) -0.0308(4) -0.1918(4)
H11 H 0.3277(5) -0.3714(6) -0.2787(5)
H12 H 0.3350(5) -0.2078(6) -0.2345(5)
H13 H 0.2588(5) -0.3135(6) -0.3753(5)
H14 H 0.0610(6) -0.6000(4) -0.3073(5)
H15 H -0.0125(6) -0.5572(4) -0.4136(5)
H16 H -0.0831(6) -0.5641(4) -0.2954(5)
H17 H 0.1977(6) -0.3949(5) -0.0498(4)
H18 H 0.0657(6) -0.3400(5) -0.0223(4)
H19 H 0.2137(6) -0.2294(5) -0.0071(4)
H20 H -0.1078(4) -0.3083(4) 0.1009(4)
H21 H -0.2495(4) -0.3283(4) 0.1535(4)
H22 H -0.1370(4) -0.1750(4) 0.2004(4)
H23 H -0.4522(4) -0.1218(4) -0.0162(4)
H24 H -0.3605(4) -0.0536(4) 0.1244(4)
H25 H -0.4731(4) -0.2068(4) 0.0778(4)
Li1A Li -0.0744(6) 0.0822(5) 0.0370(5)
N1A N 0.1457(3) 0.1274(2) 0.0667(2)
P1A P 0.14538(8) 0.20422(8) 0.21925(7)
C1A C -0.0174(3) 0.2157(3) 0.2478(3)
Si1A Si -0.10579(9) 0.34602(11) 0.23038(8)
C14A C -0.2778(5) 0.3046(6) 0.2866(5)
H11A H -0.3277(5) 0.3714(6) 0.2787(5)
H12A H -0.3350(5) 0.2078(6) 0.2345(5)
H13A H -0.2588(5) 0.3135(6) 0.3753(5)
C15A C -0.0056(6) 0.5404(4) 0.3229(5)
H14A H -0.0610(6) 0.6000(4) 0.3073(5)
H15A H 0.0125(6) 0.5572(4) 0.4136(5)
H16A H 0.0831(6) 0.5641(4) 0.2954(5)
C16A C -0.1513(6) 0.3250(5) 0.0560(4)
H17A H -0.1977(6) 0.3949(5) 0.0498(4)
H18A H -0.0657(6) 0.3400(5) 0.0223(4)
H19A H -0.2137(6) 0.2294(5) 0.0071(4)
H1A H -0.0681(3) 0.1461(3) 0.2762(3)
C2A C 0.2868(3) 0.3737(3) 0.2627(3)
C3A C 0.3461(3) 0.3922(3) 0.1581(3)
Si2A Si 0.26723(9) 0.22751(9) 0.00681(8)
C17A C 0.1799(4) 0.2642(4) -0.1283(4)
H20A H 0.1078(4) 0.3083(4) -0.1009(4)
H21A H 0.2495(4) 0.3283(4) -0.1535(4)
H22A H 0.1370(4) 0.1750(4) -0.2004(4)
C18A C 0.4049(4) 0.1421(4) -0.0519(4)
H23A H 0.4522(4) 0.1218(4) 0.0162(4)
H24A H 0.3605(4) 0.0536(4) -0.1244(4)
H25A H 0.4731(4) 0.2068(4) -0.0778(4)
C4A C 0.4521(4) 0.5212(4) 0.1825(4)
C5A C 0.4977(4) 0.6256(4) 0.3056(4)
C6A C 0.4398(4) 0.6047(4) 0.4061(3)
C7A C 0.3338(4) 0.4797(3) 0.3856(3)
H5A H 0.2936(4) 0.4660(3) 0.4540(3)
H4A H 0.4721(4) 0.6752(4) 0.4886(3)
H3A H 0.5686(4) 0.7110(4) 0.3201(4)
H2A H 0.4927(4) 0.5373(4) 0.1151(4)
C8A C 0.2068(3) 0.1056(3) 0.3112(3)
C9A C 0.1645(4) 0.1034(4) 0.4247(3)
C10A C 0.2086(5) 0.0216(5) 0.4886(4)
C11A C 0.2984(5) -0.0559(5) 0.4404(5)
C12A C 0.3429(6) -0.0529(6) 0.3298(5)
C13A C 0.2987(4) 0.0282(4) 0.2664(4)
H10A H 0.3315(4) 0.0308(4) 0.1918(4)
H9A H 0.4035(6) -0.1058(6) 0.2970(5)
H8A H 0.3288(5) -0.1105(5) 0.4833(5)
H7A H 0.1775(5) 0.0193(5) 0.5639(4)
H6A H 0.1055(4) 0.1577(4) 0.4587(3)
loop_
_geom_bond_atom_site_label_1
_geom_bond_atom_site_label_2
_geom_bond_site_symmetry_1
_geom_bond_site_symmetry_2
Li1 N1 1_555 1_555
P1 N1 1_555 1_555
Si1 C1 1_555 1_555
Si2 N1 1_555 1_555
N1 Li1A 1_555 1_555
C1 Li1 1_555 1_555
C2 P1 1_555 1_555
C3 Si2 1_555 1_555
C4 C3 1_555 1_555
C5 C4 1_555 1_555
C6 C5 1_555 1_555
C7 C2 1_555 1_555
C8 P1 1_555 1_555
C9 C8 1_555 1_555
C10 C9 1_555 1_555
C11 C10 1_555 1_555
C12 C11 1_555 1_555
C13 C8 1_555 1_555
C14 Si1 1_555 1_555
C15 Si1 1_555 1_555
C16 Si1 1_555 1_555
C17 Si2 1_555 1_555
C18 Si2 1_555 1_555
H1 C1 1_555 1_555
H2 C4 1_555 1_555
H3 C5 1_555 1_555
H4 C6 1_555 1_555
H5 C7 1_555 1_555
H6 C9 1_555 1_555
H7 C10 1_555 1_555
H8 C11 1_555 1_555
H9 C12 1_555 1_555
H10 C13 1_555 1_555
H11 C14 1_555 1_555
H12 C14 1_555 1_555
H13 C14 1_555 1_555
H14 C15 1_555 1_555
H15 C15 1_555 1_555
H16 C15 1_555 1_555
H17 C16 1_555 1_555
H18 C16 1_555 1_555
H19 C16 1_555 1_555
H20 C17 1_555 1_555
H21 C17 1_555 1_555
H22 C17 1_555 1_555
H23 C18 1_555 1_555
H24 C18 1_555 1_555
H25 C18 1_555 1_555
Li1A N1A 1_555 1_555
N1A Li1 1_555 1_555
P1A N1A 1_555 1_555
C1A Li1A 1_555 1_555
Si1A C1A 1_555 1_555
C14A Si1A 1_555 1_555
H11A C14A 1_555 1_555
H12A C14A 1_555 1_555
H13A C14A 1_555 1_555
C15A Si1A 1_555 1_555
H14A C15A 1_555 1_555
H15A C15A 1_555 1_555
H16A C15A 1_555 1_555
C16A Si1A 1_555 1_555
H17A C16A 1_555 1_555
H18A C16A 1_555 1_555
H19A C16A 1_555 1_555
H1A C1A 1_555 1_555
C2A P1A 1_555 1_555
C3A C2A 1_555 1_555
Si2A N1A 1_555 1_555
C17A Si2A 1_555 1_555
H20A C17A 1_555 1_555
H21A C17A 1_555 1_555
H22A C17A 1_555 1_555
C18A Si2A 1_555 1_555
H23A C18A 1_555 1_555
H24A C18A 1_555 1_555
H25A C18A 1_555 1_555
C4A C3A 1_555 1_555
C5A C4A 1_555 1_555
C6A C5A 1_555 1_555
C7A C2A 1_555 1_555
H5A C7A 1_555 1_555
H4A C6A 1_555 1_555
H3A C5A 1_555 1_555
H2A C4A 1_555 1_555
C8A P1A 1_555 1_555
C9A C8A 1_555 1_555
C10A C9A 1_555 1_555
C11A C10A 1_555 1_555
C12A C11A 1_555 1_555
C13A C8A 1_555 1_555
H10A C13A 1_555 1_555
H9A C12A 1_555 1_555
H8A C11A 1_555 1_555
H7A C10A 1_555 1_555
H6A C9A 1_555 1_555
P1 C1 1_555 1_555
C2 C3 1_555 1_555
C6 C7 1_555 1_555
C12 C13 1_555 1_555
P1A C1A 1_555 1_555
C3A Si2A 1_555 1_555
C6A C7A 1_555 1_555
C12A C13A 1_555 1_555

#END
