
#######################################################################
#
#                 Cambridge Crystallographic Data Centre
#                                CCDC 
#
#######################################################################
#
# If this CIF has been generated from an entry in the Cambridge 
# Structural Database, then it will include bibliographic, chemical, 
# crystal, experimental, refinement or atomic coordinate data resulting 
# from the CCDC's data processing and validation procedures.
#
#######################################################################

data_NAYKOO
_chemical_formula_moiety         'C1 H6 N1 1+,C1 H1 N6 O2 1-'
_chemical_name_systematic        'Methylammonium 5-nitraminotetrazole'
_symmetry_cell_setting           monoclinic
_symmetry_space_group_name_H-M   'P 21/n'
_symmetry_Int_Tables_number      14
_space_group_name_Hall           '-P 2yn'
loop_
_symmetry_equiv_pos_site_id
_symmetry_equiv_pos_as_xyz
1 x,y,z
2 1/2-x,1/2+y,1/2-z
3 -x,-y,-z
4 1/2+x,1/2-y,1/2+z
_cell_length_a                   6.541(2)
_cell_length_b                   19.157(4)
_cell_length_c                   10.726(2)
_cell_angle_alpha                90
_cell_angle_beta                 96.24(2)
_cell_angle_gamma                90
_cell_volume                     1336.07
_cell_formula_units_Z            8
loop_
_atom_site_label
_atom_site_type_symbol
_atom_site_fract_x
_atom_site_fract_y
_atom_site_fract_z
N1 N 0.2027(2) 0.90183(8) 0.7823(1)
N3 N 0.1965(3) 0.88920(8) 0.9052(2)
N5 N 0.2218(3) 0.94878(8) 0.9607(2)
N7 N 0.2441(3) 1.00047(8) 0.8771(1)
N9 N 0.2534(3) 1.00990(8) 0.6608(1)
N11 N 0.2392(3) 0.97637(8) 0.5532(1)
O1 O 0.2079(3) 0.91222(7) 0.5420(1)
O3 O 0.2579(3) 1.01310(8) 0.4576(1)
C1 C 0.2322(3) 0.97036(9) 0.7653(2)
H1 H 0.188(3) 0.869(1) 0.730(2)
N2 N 0.1993(2) 0.61215(8) 0.4496(2)
N4 N 0.2219(2) 0.58200(8) 0.3388(1)
N6 N 0.1928(3) 0.63040(9) 0.2548(2)
N8 N 0.1492(3) 0.69211(8) 0.3074(2)
N10 N 0.1149(2) 0.73331(8) 0.5091(2)
N12 N 0.1235(2) 0.71879(8) 0.6284(2)
O2 O 0.1642(2) 0.65844(7) 0.6733(1)
O4 O 0.0868(3) 0.76779(7) 0.6998(2)
C2 C 0.1543(3) 0.67972(9) 0.4293(2)
H2 H 0.211(3) 0.590(1) 0.520(2)
N13 N 0.1949(3) 0.42968(9) 0.2592(2)
C3 C 0.3335(4) 0.3692(1) 0.2686(2)
H3 H 0.207(4) 0.454(1) 0.183(3)
H5 H 0.057(7) 0.419(2) 0.266(4)
H7 H 0.219(4) 0.458(1) 0.324(3)
H9 H 0.472 0.385 0.266
H11 H 0.296 0.338 0.200
H13 H 0.323 0.345 0.346
N14 N 0.2226(3) 0.1609(1) 0.5265(2)
C4 C 0.3970(4) 0.2066(1) 0.5117(2)
H4 H 0.210(6) 0.126(2) 0.480(4)
H6 H 0.225(7) 0.153(2) 0.621(4)
H8 H 0.101(6) 0.184(2) 0.514(3)
H10 H 0.521 0.179 0.518
H12 H 0.377 0.229 0.431
H14 H 0.407 0.241 0.576
loop_
_geom_bond_atom_site_label_1
_geom_bond_atom_site_label_2
_geom_bond_site_symmetry_1
_geom_bond_site_symmetry_2
N1 N3 1_555 1_555
N2 N4 1_555 1_555
N3 N5 1_555 1_555
N4 N6 1_555 1_555
N5 N7 1_555 1_555
N6 N8 1_555 1_555
N7 C1 1_555 1_555
N8 C2 1_555 1_555
N9 N11 1_555 1_555
N10 N12 1_555 1_555
N11 O1 1_555 1_555
N12 O2 1_555 1_555
N13 C3 1_555 1_555
N14 C4 1_555 1_555
O3 N11 1_555 1_555
O4 N12 1_555 1_555
C1 N1 1_555 1_555
C2 N2 1_555 1_555
C3 H9 1_555 1_555
C4 H10 1_555 1_555
H1 N1 1_555 1_555
H2 N2 1_555 1_555
H3 N13 1_555 1_555
H4 N14 1_555 1_555
H5 N13 1_555 1_555
H6 N14 1_555 1_555
H7 N13 1_555 1_555
H8 N14 1_555 1_555
H11 C3 1_555 1_555
H12 C4 1_555 1_555
H13 C3 1_555 1_555
H14 C4 1_555 1_555
N9 C1 1_555 1_555
N10 C2 1_555 1_555

#END
