
#######################################################################
#
#                 Cambridge Crystallographic Data Centre
#                                CCDC 
#
#######################################################################
#
# If this CIF has been generated from an entry in the Cambridge 
# Structural Database, then it will include bibliographic, chemical, 
# crystal, experimental, refinement or atomic coordinate data resulting 
# from the CCDC's data processing and validation procedures.
#
#######################################################################

data_NAYKEF
_chemical_formula_moiety         'C39 H30 N4'
_chemical_name_systematic        Triphenylamine-2,2',2''-tris(phenylketimine)
_symmetry_cell_setting           monoclinic
_symmetry_space_group_name_H-M   'C 2/c'
_symmetry_Int_Tables_number      15
_space_group_name_Hall           '-C 2yn'
loop_
_symmetry_equiv_pos_site_id
_symmetry_equiv_pos_as_xyz
1 x,y,z
2 -x,y,1/2-z
3 1/2+x,1/2+y,z
4 1/2-x,1/2+y,1/2-z
5 -x,-y,-z
6 x,-y,1/2+z
7 1/2-x,1/2-y,-z
8 1/2+x,1/2-y,1/2+z
_cell_length_a                   14.0041(7)
_cell_length_b                   11.7778(6)
_cell_length_c                   34.9240(18)
_cell_angle_alpha                90
_cell_angle_beta                 91.959(3)
_cell_angle_gamma                90
_cell_volume                     5756.91
_cell_formula_units_Z            8
loop_
_atom_site_label
_atom_site_type_symbol
_atom_site_fract_x
_atom_site_fract_y
_atom_site_fract_z
C1 C 0.13124(9) 0.83849(11) 0.14909(4)
C2 C 0.06286(10) 0.92238(12) 0.14186(4)
H1 H 0.0735 0.9778 0.1227
C3 C -0.02008(10) 0.92626(13) 0.16207(4)
H2 H -0.0666 0.9832 0.1565
C4 C -0.03521(10) 0.84692(13) 0.19039(4)
H3 H -0.0924 0.8486 0.2042
C5 C 0.03358(10) 0.76497(12) 0.19843(4)
H4 H 0.0233 0.7117 0.2183
C6 C 0.11701(10) 0.75875(12) 0.17822(4)
C7 C 0.18491(10) 0.66242(12) 0.18732(4)
C8 C 0.24923(9) 0.67011(12) 0.22225(4)
C9 C 0.31297(10) 0.58172(13) 0.23009(4)
H5 H 0.3159 0.5191 0.2130
C10 C 0.37200(11) 0.58451(14) 0.26257(5)
H6 H 0.4155 0.5240 0.2677
C11 C 0.36805(12) 0.67478(14) 0.28763(5)
H7 H 0.4085 0.6760 0.3100
C12 C 0.30565(11) 0.76326(13) 0.28030(4)
H8 H 0.3030 0.8254 0.2976
C13 C 0.24668(10) 0.76102(12) 0.24750(4)
H9 H 0.2041 0.8224 0.2423
C14 C 0.30325(10) 0.86458(11) 0.14674(4)
C15 C 0.30143(10) 0.94031(12) 0.17727(4)
H10 H 0.2422 0.9721 0.1843
C16 C 0.38449(10) 0.97030(13) 0.19761(4)
H11 H 0.3816 1.0201 0.2190
C17 C 0.47107(11) 0.92788(13) 0.18683(4)
H12 H 0.5282 0.9482 0.2006
C18 C 0.47415(10) 0.85526(12) 0.15571(4)
H13 H 0.5344 0.8288 0.1477
C19 C 0.39118(10) 0.81982(12) 0.13572(4)
C20 C 0.39978(10) 0.73166(12) 0.10498(4)
C21 C 0.47485(10) 0.74767(13) 0.07632(4)
C22 C 0.50521(10) 0.85513(13) 0.06543(4)
H14 H 0.4797 0.9206 0.0773
C23 C 0.57251(11) 0.86752(15) 0.03743(5)
H15 H 0.5915 0.9413 0.0298
C24 C 0.61188(11) 0.77346(17) 0.02075(5)
H16 H 0.6580 0.7822 0.0017
C25 C 0.58408(12) 0.66641(16) 0.03183(5)
H17 H 0.6122 0.6015 0.0207
C26 C 0.51541(11) 0.65287(14) 0.05916(4)
H18 H 0.4958 0.5788 0.0662
C27 C 0.20579(9) 0.85371(11) 0.08652(4)
C28 C 0.26477(10) 0.93073(12) 0.06871(4)
H19 H 0.3088 0.9746 0.0838
C29 C 0.26058(10) 0.94483(12) 0.02923(4)
H20 H 0.3027 0.9967 0.0176
C30 C 0.19543(10) 0.88384(13) 0.00670(4)
H21 H 0.1928 0.8929 -0.0203
C31 C 0.13438(10) 0.80955(12) 0.02430(4)
H22 H 0.0886 0.7688 0.0090
C32 C 0.13803(10) 0.79262(12) 0.06384(4)
C33 C 0.07387(10) 0.70448(12) 0.08024(4)
C34 C -0.02785(10) 0.73314(12) 0.08669(4)
C35 C -0.08190(11) 0.66733(12) 0.11114(4)
H23 H -0.0542 0.6020 0.1230
C36 C -0.17527(12) 0.69604(13) 0.11829(4)
H24 H -0.2109 0.6510 0.1353
C37 C -0.21717(11) 0.79006(13) 0.10086(4)
H25 H -0.2815 0.8093 0.1057
C38 C -0.16481(11) 0.85579(13) 0.07642(4)
H26 H -0.1934 0.9200 0.0642
C39 C -0.07070(10) 0.82826(12) 0.06965(4)
H27 H -0.0349 0.8748 0.0532
N1 N 0.21547(8) 0.83400(9) 0.12701(3)
N2 N 0.34875(10) 0.64170(11) 0.10318(4)
N3 N 0.10472(10) 0.60487(11) 0.08839(3)
N4 N 0.18586(11) 0.57107(11) 0.16776(4)
H28 H 0.1423(13) 0.5742(15) 0.1475(6)
H29 H 0.1679(11) 0.5989(13) 0.0817(4)
H30 H 0.3082(12) 0.6379(14) 0.1229(5)
loop_
_geom_bond_atom_site_label_1
_geom_bond_atom_site_label_2
_geom_bond_site_symmetry_1
_geom_bond_site_symmetry_2
C1 C2 1_555 1_555
C2 H1 1_555 1_555
C3 C2 1_555 1_555
H2 C3 1_555 1_555
C4 C3 1_555 1_555
H3 C4 1_555 1_555
C5 C4 1_555 1_555
H4 C5 1_555 1_555
C6 C1 1_555 1_555
C7 C6 1_555 1_555
C8 C7 1_555 1_555
C9 C8 1_555 1_555
H5 C9 1_555 1_555
C10 C9 1_555 1_555
H6 C10 1_555 1_555
C11 C10 1_555 1_555
H7 C11 1_555 1_555
C12 C11 1_555 1_555
H8 C12 1_555 1_555
C13 C8 1_555 1_555
H9 C13 1_555 1_555
C14 C15 1_555 1_555
C15 H10 1_555 1_555
C16 C15 1_555 1_555
H11 C16 1_555 1_555
C17 C16 1_555 1_555
H12 C17 1_555 1_555
C18 C17 1_555 1_555
H13 C18 1_555 1_555
C19 C14 1_555 1_555
C20 C19 1_555 1_555
C21 C20 1_555 1_555
C22 C21 1_555 1_555
H14 C22 1_555 1_555
C23 C22 1_555 1_555
H15 C23 1_555 1_555
C24 C23 1_555 1_555
H16 C24 1_555 1_555
C25 C24 1_555 1_555
H17 C25 1_555 1_555
C26 C21 1_555 1_555
H18 C26 1_555 1_555
C27 C28 1_555 1_555
C28 H19 1_555 1_555
C29 C28 1_555 1_555
H20 C29 1_555 1_555
C30 C29 1_555 1_555
H21 C30 1_555 1_555
C31 C30 1_555 1_555
H22 C31 1_555 1_555
C32 C27 1_555 1_555
C33 C32 1_555 1_555
C34 C33 1_555 1_555
C35 C34 1_555 1_555
H23 C35 1_555 1_555
C36 C35 1_555 1_555
H24 C36 1_555 1_555
C37 C36 1_555 1_555
H25 C37 1_555 1_555
C38 C37 1_555 1_555
H26 C38 1_555 1_555
C39 C34 1_555 1_555
H27 C39 1_555 1_555
N1 C1 1_555 1_555
N2 C20 1_555 1_555
N3 C33 1_555 1_555
N4 C7 1_555 1_555
H28 N4 1_555 1_555
H29 N3 1_555 1_555
H30 N2 1_555 1_555
C5 C6 1_555 1_555
C12 C13 1_555 1_555
C14 N1 1_555 1_555
C18 C19 1_555 1_555
C25 C26 1_555 1_555
C27 N1 1_555 1_555
C31 C32 1_555 1_555
C38 C39 1_555 1_555

#END
