
#######################################################################
#
#                 Cambridge Crystallographic Data Centre
#                                CCDC 
#
#######################################################################
#
# If this CIF has been generated from an entry in the Cambridge 
# Structural Database, then it will include bibliographic, chemical, 
# crystal, experimental, refinement or atomic coordinate data resulting 
# from the CCDC's data processing and validation procedures.
#
#######################################################################

data_NAYLIJ
_chemical_formula_moiety         'C36 H27 N1 O2 P1 1+,Cl1 O4 1-'
_chemical_name_systematic        
'(2-(p-Tolyl)-5-hydroxynaphtho(2,1-d)(1,3)oxazol-4-yl)triphenylphosphonium perchlorate'
_symmetry_cell_setting           monoclinic
_symmetry_space_group_name_H-M   'P 21/c'
_symmetry_Int_Tables_number      14
_space_group_name_Hall           '-P 2ybc'
loop_
_symmetry_equiv_pos_site_id
_symmetry_equiv_pos_as_xyz
1 x,y,z
2 -x,1/2+y,1/2-z
3 -x,-y,-z
4 x,1/2-y,1/2+z
_cell_length_a                   9.835(2)
_cell_length_b                   31.048(6)
_cell_length_c                   10.138(2)
_cell_angle_alpha                90
_cell_angle_beta                 93.54(3)
_cell_angle_gamma                90
_cell_volume                     3089.8
_exptl_crystal_colour            colorless
_exptl_crystal_description       block
_chemical_melting_point          '274-275deg. C(dec.)'
_cell_formula_units_Z            4
loop_
_atom_site_label
_atom_site_type_symbol
_atom_site_fract_x
_atom_site_fract_y
_atom_site_fract_z
P1 P 0.46139(15) 0.59101(5) 0.6774(2)
O1 O 0.5317(4) 0.75131(13) 0.6512(4)
O2 O 0.3244(5) 0.61539(14) 0.9100(5)
N1 N 0.5934(5) 0.6854(2) 0.5843(5)
C1 C 0.6085(6) 0.7267(2) 0.5709(6)
C2 C 0.5010(5) 0.6814(2) 0.6821(5)
C3 C 0.4646(6) 0.7213(2) 0.7230(6)
C4 C 0.3739(6) 0.7301(2) 0.8205(6)
C5 C 0.3288(7) 0.7714(2) 0.8539(7)
H1 H 0.3636(7) 0.7963(2) 0.8111(7)
C6 C 0.2370(8) 0.7761(2) 0.9476(7)
H2 H 0.2027(8) 0.8042(2) 0.9674(7)
C7 C 0.1903(7) 0.7402(2) 1.0147(7)
H3 H 0.1268(7) 0.7442(2) 1.0818(7)
C8 C 0.2342(7) 0.7000(2) 0.9865(7)
H4 H 0.2035(7) 0.6757(2) 1.0355(7)
C9 C 0.3247(6) 0.6935(2) 0.8861(6)
C10 C 0.3652(6) 0.6511(2) 0.8461(6)
C11 C 0.4466(6) 0.6441(2) 0.7413(6)
C12 C 0.6973(6) 0.7494(2) 0.4859(6)
C13 C 0.7709(6) 0.7263(2) 0.3964(6)
H5 H 0.7611(6) 0.6956(2) 0.3913(6)
C14 C 0.8563(7) 0.7474(2) 0.3151(7)
H6 H 0.9067(7) 0.7312(2) 0.2539(7)
C15 C 0.8705(6) 0.7915(2) 0.3200(7)
C16 C 0.7984(7) 0.8142(2) 0.4096(7)
H7 H 0.8090(7) 0.8449(2) 0.4156(7)
C17 C 0.7123(7) 0.7935(2) 0.4920(7)
H8 H 0.6625(7) 0.8097(2) 0.5537(7)
C18 C 0.9606(8) 0.8150(3) 0.2286(8)
H9 H 1.0522(8) 0.8049(3) 0.2467(8)
H10 H 0.9598(8) 0.8455(3) 0.2434(8)
H11 H 0.9352(8) 0.8091(3) 0.1374(8)
C19 C 0.2950(6) 0.5676(2) 0.6638(6)
C20 C 0.1854(7) 0.5920(3) 0.6157(8)
H12 H 0.1998(7) 0.6212(3) 0.5888(8)
C21 C 0.0575(8) 0.5749(3) 0.6069(10)
H13 H -0.0183(8) 0.5922(3) 0.5751(10)
C22 C 0.0361(9) 0.5328(4) 0.6432(11)
H14 H -0.0537(9) 0.5207(4) 0.6331(11)
C23 C 0.1424(10) 0.5090(3) 0.6890(11)
H15 H 0.1267(10) 0.4801(3) 0.7175(11)
C24 C 0.2729(8) 0.5255(3) 0.6998(9)
H16 H 0.3486(8) 0.5079(3) 0.7311(9)
C25 C 0.5757(6) 0.5577(2) 0.7762(7)
C26 C 0.6274(9) 0.5707(3) 0.8977(8)
H17 H 0.5980(9) 0.5975(3) 0.9337(8)
C27 C 0.7188(12) 0.5446(3) 0.9687(10)
H18 H 0.7599(12) 0.5546(3) 1.0515(10)
C28 C 0.7563(11) 0.5061(3) 0.9214(10)
H19 H 0.8180(11) 0.4879(3) 0.9730(10)
C29 C 0.7047(9) 0.4924(3) 0.8002(10)
H20 H 0.7289(9) 0.4647(3) 0.7672(10)
C30 C 0.6158(8) 0.5181(2) 0.7265(8)
H21 H 0.5822(8) 0.5094(2) 0.6397(8)
C31 C 0.5269(6) 0.5941(2) 0.5166(6)
C32 C 0.4423(7) 0.6014(2) 0.4057(7)
H22 H 0.3453(7) 0.6012(2) 0.4123(7)
C33 C 0.4973(10) 0.6085(3) 0.2850(8)
H23 H 0.4381(10) 0.6139(3) 0.2079(8)
C34 C 0.6351(10) 0.6078(3) 0.2757(8)
H24 H 0.6730(10) 0.6131(3) 0.1923(8)
C35 C 0.7196(9) 0.6000(3) 0.3845(9)
H25 H 0.8164(9) 0.5994(3) 0.3771(9)
C36 C 0.6665(7) 0.5933(3) 0.5042(7)
H26 H 0.7263(7) 0.5875(3) 0.5806(7)
H27 H 0.258(8) 0.618(3) 0.954(8)
Cl1 Cl 0.0577(2) 0.61196(6) 1.1836(2)
O3 O -0.0510(15) 0.6400(6) 1.1629(15)
O4 O 0.1673(18) 0.6317(7) 1.2475(18)
O5 O 0.0968(19) 0.6037(4) 1.0527(12)
O6 O 0.0183(17) 0.5734(3) 1.235(2)
O7? O -0.0664(19) 0.5976(12) 1.133(3)
O8? O 0.043(4) 0.6544(4) 1.221(3)
O9? O 0.1822(15) 0.6072(7) 1.129(2)
O10? O 0.080(2) 0.5918(12) 1.307(2)
loop_
_geom_bond_atom_site_label_1
_geom_bond_atom_site_label_2
_geom_bond_site_symmetry_1
_geom_bond_site_symmetry_2
P1 C11 1_555 1_555
Cl1 O3 1_555 1_555
O1 C1 1_555 1_555
O2 C10 1_555 1_555
O4 Cl1 1_555 1_555
O5 Cl1 1_555 1_555
O6 Cl1 1_555 1_555
N1 C1 1_555 1_555
C1 C12 1_555 1_555
C2 N1 1_555 1_555
C3 O1 1_555 1_555
C4 C3 1_555 1_555
C5 C4 1_555 1_555
H1 C5 1_555 1_555
C6 C5 1_555 1_555
H2 C6 1_555 1_555
C7 C6 1_555 1_555
H3 C7 1_555 1_555
C8 C7 1_555 1_555
H4 C8 1_555 1_555
C9 C4 1_555 1_555
C10 C9 1_555 1_555
C11 C2 1_555 1_555
C12 C13 1_555 1_555
C13 H5 1_555 1_555
C14 C13 1_555 1_555
H6 C14 1_555 1_555
C15 C14 1_555 1_555
C16 C15 1_555 1_555
H7 C16 1_555 1_555
C17 C12 1_555 1_555
H8 C17 1_555 1_555
C18 C15 1_555 1_555
H9 C18 1_555 1_555
H10 C18 1_555 1_555
H11 C18 1_555 1_555
C19 P1 1_555 1_555
C20 C19 1_555 1_555
H12 C20 1_555 1_555
C21 C20 1_555 1_555
H13 C21 1_555 1_555
C22 C21 1_555 1_555
H14 C22 1_555 1_555
C23 C22 1_555 1_555
H15 C23 1_555 1_555
C24 C19 1_555 1_555
H16 C24 1_555 1_555
C25 P1 1_555 1_555
C26 C25 1_555 1_555
H17 C26 1_555 1_555
C27 C26 1_555 1_555
H18 C27 1_555 1_555
C28 C27 1_555 1_555
H19 C28 1_555 1_555
C29 C28 1_555 1_555
H20 C29 1_555 1_555
C30 C25 1_555 1_555
H21 C30 1_555 1_555
C31 P1 1_555 1_555
C32 C31 1_555 1_555
H22 C32 1_555 1_555
C33 C32 1_555 1_555
H23 C33 1_555 1_555
C34 C33 1_555 1_555
H24 C34 1_555 1_555
C35 C34 1_555 1_555
H25 C35 1_555 1_555
C36 C31 1_555 1_555
H26 C36 1_555 1_555
H27 O2 1_555 1_555
C2 C3 1_555 1_555
C8 C9 1_555 1_555
C10 C11 1_555 1_555
C16 C17 1_555 1_555
C23 C24 1_555 1_555
C29 C30 1_555 1_555
C35 C36 1_555 1_555

#END
