
#######################################################################
#
#                 Cambridge Crystallographic Data Centre
#                                CCDC 
#
#######################################################################
#
# If this CIF has been generated from an entry in the Cambridge 
# Structural Database, then it will include bibliographic, chemical, 
# crystal, experimental, refinement or atomic coordinate data resulting 
# from the CCDC's data processing and validation procedures.
#
#######################################################################

data_NAYWUI
_chemical_formula_moiety         'C36 H46 S2 Si2 Te2,C1 H2 Cl2'
_chemical_name_systematic        
"[bistelluropheno[2,3-d:2,3-d']benzo[1,2-b:4,5-b']bisthiene-5,10-diylbis(ethyne-2,1-diyl)]bis[tris(propan-2-yl)silane] dichloromethane solvate"
_symmetry_cell_setting           monoclinic
_symmetry_space_group_name_H-M   'P 21/c'
_symmetry_Int_Tables_number      14
_space_group_name_Hall           '-P 2ybc'
loop_
_symmetry_equiv_pos_site_id
_symmetry_equiv_pos_as_xyz
1 x,y,z
2 -x,1/2+y,1/2-z
3 -x,-y,-z
4 x,1/2-y,1/2+z
_cell_length_a                   19.489(4)
_cell_length_b                   14.741(3)
_cell_length_c                   15.428(3)
_cell_angle_alpha                90
_cell_angle_beta                 111.60(3)
_cell_angle_gamma                90
_cell_volume                     4121.02
_exptl_crystal_colour            brown
_exptl_crystal_description       block
_cell_formula_units_Z            4
loop_
_atom_site_label
_atom_site_type_symbol
_atom_site_fract_x
_atom_site_fract_y
_atom_site_fract_z
Te1 Te 0.85852(3) 0.31155(4) 0.26319(4)
S1 S 0.83171(10) 0.54346(13) 0.43818(14)
Si1 Si 0.92218(13) 0.82503(15) 0.66625(17)
C1 C 0.7517(4) 0.3533(6) 0.2372(6)
H1 H 0.7107 0.3268 0.1922
C2 C 0.7472(4) 0.4232(5) 0.2922(5)
H2 H 0.7023 0.4486 0.2876
C3 C 0.8156(4) 0.4547(5) 0.3572(5)
C4 C 0.8798(4) 0.4140(5) 0.3606(5)
C5 C 0.9448(4) 0.4519(4) 0.4290(5)
C6 C 0.9268(4) 0.5242(5) 0.4771(5)
C7 C 0.9798(4) 0.5728(4) 0.5476(4)
C8 C 0.9614(4) 0.6481(5) 0.5942(5)
C9 C 0.9452(4) 0.7137(5) 0.6283(5)
C10 C 0.9982(5) 0.9018(5) 0.6647(6)
H3 H 1.0435 0.8793 0.7129
C11 C 0.9887(6) 1.0004(6) 0.6909(8)
H4 H 0.9457 1.0262 0.6441
H5 H 1.0314 1.0350 0.6948
H6 H 0.9829 1.0015 0.7501
C12 C 1.0111(6) 0.8983(7) 0.5730(7)
H7 H 1.0206 0.8369 0.5602
H8 H 1.0527 0.9356 0.5777
H9 H 0.9680 0.9203 0.5235
C13 C 0.8335(7) 0.8681(9) 0.5738(12)
H10 H 0.8492 0.9057 0.5320
C14 C 0.7923(5) 0.9331(6) 0.6160(8)
H11 H 0.7802 0.9018 0.6631
H12 H 0.7477 0.9537 0.5679
H13 H 0.8232 0.9842 0.6433
C15 C 0.7843(8) 0.7943(11) 0.5117(12)
H14 H 0.8106 0.7637 0.4785
H15 H 0.7405 0.8215 0.4679
H16 H 0.7710 0.7514 0.5496
C16 C 0.9230(6) 0.8125(6) 0.7881(7)
H17 H 0.9069 0.8705 0.8051
C17 C 1.0001(7) 0.7934(7) 0.8593(7)
H18 H 1.0178 0.7369 0.8446
H19 H 0.9982 0.7899 0.9205
H20 H 1.0329 0.8414 0.8577
C18 C 0.8693(7) 0.7401(7) 0.7950(10)
H21 H 0.8207 0.7534 0.7511
H22 H 0.8688 0.7396 0.8569
H23 H 0.8847 0.6818 0.7811
Te1B Te 1.14148(3) 0.68845(4) 0.73681(4)
S1B S 1.16829(10) 0.45654(13) 0.56182(14)
Si1B Si 1.07782(13) 0.17497(15) 0.33375(17)
C1B C 1.2483(4) 0.6467(6) 0.7628(6)
H1B H 1.2893 0.6732 0.8078
C2B C 1.2528(4) 0.5768(5) 0.7078(5)
H2B H 1.2977 0.5514 0.7124
C3B C 1.1844(4) 0.5453(5) 0.6428(5)
C4B C 1.1202(4) 0.5860(5) 0.6394(5)
C5B C 1.0552(4) 0.5481(4) 0.5710(5)
C6B C 1.0732(4) 0.4758(5) 0.5229(5)
C7B C 1.0202(4) 0.4272(4) 0.4524(4)
C8B C 1.0386(4) 0.3519(5) 0.4058(5)
C9B C 1.0548(4) 0.2863(5) 0.3717(5)
C10B C 1.0018(5) 0.0982(5) 0.3353(6)
H3B H 0.9565 0.1207 0.2871
C11B C 1.0113(6) -0.0004(6) 0.3091(8)
H4B H 1.0543 -0.0262 0.3559
H5B H 0.9686 -0.0350 0.3052
H6B H 1.0171 -0.0015 0.2499
C12B C 0.9889(6) 0.1017(7) 0.4270(7)
H7B H 0.9794 0.1631 0.4398
H8B H 0.9473 0.0644 0.4223
H9B H 1.0320 0.0797 0.4765
C13B C 1.1665(7) 0.1319(9) 0.4262(12)
H10B H 1.1508 0.0943 0.4680
C14B C 1.2077(5) 0.0669(6) 0.3840(8)
H11B H 1.2198 0.0982 0.3369
H12B H 1.2523 0.0463 0.4321
H13B H 1.1768 0.0158 0.3567
C15B C 1.2157(8) 0.2057(11) 0.4883(12)
H14B H 1.1894 0.2363 0.5215
H15B H 1.2595 0.1785 0.5321
H16B H 1.2290 0.2486 0.4504
C16B C 1.0770(6) 0.1875(6) 0.2119(7)
H17B H 1.0931 0.1295 0.1949
C17B C 0.9999(7) 0.2066(7) 0.1407(7)
H18B H 0.9822 0.2631 0.1554
H19B H 1.0018 0.2101 0.0795
H20B H 0.9671 0.1586 0.1423
C18B C 1.1307(7) 0.2599(7) 0.2050(10)
H21B H 1.1793 0.2466 0.2489
H22B H 1.1312 0.2604 0.1431
H23B H 1.1153 0.3182 0.2189
Te2 Te 0.69164(3) 0.42780(4) 0.77237(4)
S2 S 0.65263(11) 0.55484(14) 0.49267(14)
Si2 Si 0.49217(13) 0.29333(15) 0.82384(16)
C21 C 0.7853(5) 0.4737(7) 0.7502(6)
H31 H 0.8329 0.4697 0.7948
C22 C 0.7699(5) 0.5096(6) 0.6650(6)
H32 H 0.8066 0.5316 0.6456
C23 C 0.6932(4) 0.5118(5) 0.6057(6)
C24 C 0.5645(4) 0.5277(5) 0.4905(5)
C25 C 0.5675(4) 0.4843(5) 0.5737(5)
C26 C 0.6417(4) 0.4774(5) 0.6384(5)
C27 C 0.5017(4) 0.4565(5) 0.5840(5)
C28 C 0.5028(4) 0.4098(5) 0.6657(5)
C29 C 0.5021(4) 0.3677(5) 0.7327(5)
C30 C 0.5739(6) 0.3124(6) 0.9335(6)
H33 H 0.6176 0.3024 0.9177
C31 C 0.5800(8) 0.4097(7) 0.9712(8)
H34 H 0.5745 0.4519 0.9217
H35 H 0.6274 0.4180 1.0199
H36 H 0.5419 0.4201 0.9956
C32 C 0.5789(7) 0.2432(7) 1.0111(7)
H37 H 0.5388 0.2530 1.0321
H38 H 0.6249 0.2510 1.0625
H39 H 0.5762 0.1827 0.9870
C33 C 0.4022(5) 0.3263(7) 0.8358(7)
H40 H 0.4118 0.3814 0.8740
C34 C 0.3398(6) 0.3483(8) 0.7434(8)
H41 H 0.3560 0.3940 0.7109
H42 H 0.2978 0.3703 0.7555
H43 H 0.3263 0.2945 0.7058
C35 C 0.3767(7) 0.2529(9) 0.8881(10)
H44 H 0.3693 0.1968 0.8543
H45 H 0.3312 0.2714 0.8935
H46 H 0.4137 0.2447 0.9492
C36 C 0.4925(5) 0.1733(6) 0.7811(7)
H47 H 0.4828 0.1335 0.8262
C37 C 0.4306(6) 0.1569(7) 0.6874(8)
H48 H 0.3838 0.1631 0.6942
H49 H 0.4350 0.0968 0.6661
H50 H 0.4341 0.2004 0.6429
C38 C 0.5676(6) 0.1470(7) 0.7808(8)
H51 H 0.5803 0.1862 0.7394
H52 H 0.5662 0.0853 0.7603
H53 H 0.6039 0.1527 0.8427
Te2B Te 0.30836(3) 0.57220(4) 0.22763(4)
S2B S 0.34737(11) 0.44516(14) 0.50733(14)
Si2B Si 0.50783(13) 0.70667(15) 0.17616(16)
C21B C 0.2147(5) 0.5263(7) 0.2498(6)
H31B H 0.1671 0.5303 0.2052
C22B C 0.2301(5) 0.4904(6) 0.3350(6)
H32B H 0.1934 0.4684 0.3544
C23B C 0.3068(4) 0.4882(5) 0.3943(6)
C24B C 0.4355(4) 0.4723(5) 0.5095(5)
C25B C 0.4325(4) 0.5157(5) 0.4263(5)
C26B C 0.3583(4) 0.5226(5) 0.3616(5)
C27B C 0.4983(4) 0.5435(5) 0.4160(5)
C28B C 0.4972(4) 0.5902(5) 0.3343(5)
C29B C 0.4979(4) 0.6323(5) 0.2673(5)
C30B C 0.4261(6) 0.6876(6) 0.0665(6)
H33B H 0.3824 0.6976 0.0823
C31B C 0.4200(8) 0.5903(7) 0.0288(8)
H34B H 0.4255 0.5481 0.0783
H35B H 0.3726 0.5820 -0.0199
H36B H 0.4581 0.5799 0.0044
C32B C 0.4211(7) 0.7568(7) -0.0111(7)
H37B H 0.4612 0.7470 -0.0321
H38B H 0.3751 0.7490 -0.0625
H39B H 0.4238 0.8173 0.0130
C33B C 0.5978(5) 0.6737(7) 0.1642(7)
H40B H 0.5882 0.6186 0.1260
C34B C 0.6602(6) 0.6517(8) 0.2566(8)
H41B H 0.6440 0.6060 0.2891
H42B H 0.7022 0.6297 0.2445
H43B H 0.6737 0.7055 0.2942
C35B C 0.6233(7) 0.7471(9) 0.1119(10)
H44B H 0.6307 0.8032 0.1457
H45B H 0.6688 0.7286 0.1065
H46B H 0.5863 0.7553 0.0508
C36B C 0.5075(5) 0.8267(6) 0.2189(7)
H47B H 0.5172 0.8665 0.1738
C37B C 0.5694(6) 0.8431(7) 0.3126(8)
H48B H 0.6162 0.8369 0.3058
H49B H 0.5650 0.9032 0.3339
H50B H 0.5659 0.7996 0.3571
C38B C 0.4324(6) 0.8530(7) 0.2192(8)
H51B H 0.4197 0.8138 0.2606
H52B H 0.4338 0.9147 0.2397
H53B H 0.3961 0.8473 0.1573
Cl1 Cl 0.7769(2) 0.3200(2) 0.5494(2)
Cl2 Cl 0.80846(18) 0.14107(18) 0.49612(17)
C39 C 0.8054(7) 0.2566(7) 0.4741(7)
H54 H 0.7720 0.2676 0.4106
H55 H 0.8541 0.2768 0.4793
H24? H 0.8000 0.9375 0.6810
H25? H 0.7405 0.9385 0.5795
H26? H 0.8186 0.9809 0.5996
C19? C 0.8204(15) 0.8413(11) 0.5967(15)
H27? H 0.7908 0.7908 0.6054
C20? C 0.8097(15) 0.854(2) 0.4937(14)
H28? H 0.8312 0.9108 0.4862
H29? H 0.7579 0.8544 0.4564
H30? H 0.8332 0.8053 0.4742
loop_
_geom_bond_atom_site_label_1
_geom_bond_atom_site_label_2
_geom_bond_site_symmetry_1
_geom_bond_site_symmetry_2
Te1 C1 1_555 1_555
S1 C3 1_555 1_555
Si1 C9 1_555 1_555
C1 H1 1_555 1_555
C2 C1 1_555 1_555
H2 C2 1_555 1_555
C3 C2 1_555 1_555
C4 Te1 1_555 1_555
C5 C4 1_555 1_555
C6 S1 1_555 1_555
C7 C6 1_555 1_555
C8 C7 1_555 1_555
C9 C8 1_555 1_555
C10 Si1 1_555 1_555
H3 C10 1_555 1_555
C11 C10 1_555 1_555
H4 C11 1_555 1_555
H5 C11 1_555 1_555
H6 C11 1_555 1_555
C12 C10 1_555 1_555
H7 C12 1_555 1_555
H8 C12 1_555 1_555
H9 C12 1_555 1_555
C13 Si1 1_555 1_555
H10 C13 1_555 1_555
C14 C13 1_555 1_555
H11 C14 1_555 1_555
H12 C14 1_555 1_555
H13 C14 1_555 1_555
C15 C13 1_555 1_555
H14 C15 1_555 1_555
H15 C15 1_555 1_555
H16 C15 1_555 1_555
C16 Si1 1_555 1_555
H17 C16 1_555 1_555
C17 C16 1_555 1_555
H18 C17 1_555 1_555
H19 C17 1_555 1_555
H20 C17 1_555 1_555
C18 C16 1_555 1_555
H21 C18 1_555 1_555
H22 C18 1_555 1_555
H23 C18 1_555 1_555
Te2 C21 1_555 1_555
S2 C23 1_555 1_555
Si2 C29 1_555 1_555
C21 H31 1_555 1_555
C22 C21 1_555 1_555
H32 C22 1_555 1_555
C23 C22 1_555 1_555
C24 S2 1_555 1_555
C25 C24 1_555 1_555
C26 Te2 1_555 1_555
C27 C25 1_555 1_555
C28 C27 1_555 1_555
C29 C28 1_555 1_555
C30 Si2 1_555 1_555
H33 C30 1_555 1_555
C31 C30 1_555 1_555
H34 C31 1_555 1_555
H35 C31 1_555 1_555
H36 C31 1_555 1_555
C32 C30 1_555 1_555
H37 C32 1_555 1_555
H38 C32 1_555 1_555
H39 C32 1_555 1_555
C33 Si2 1_555 1_555
H40 C33 1_555 1_555
C34 C33 1_555 1_555
H41 C34 1_555 1_555
H42 C34 1_555 1_555
H43 C34 1_555 1_555
C35 C33 1_555 1_555
H44 C35 1_555 1_555
H45 C35 1_555 1_555
H46 C35 1_555 1_555
C36 Si2 1_555 1_555
H47 C36 1_555 1_555
C37 C36 1_555 1_555
H48 C37 1_555 1_555
H49 C37 1_555 1_555
H50 C37 1_555 1_555
C38 C36 1_555 1_555
H51 C38 1_555 1_555
H52 C38 1_555 1_555
H53 C38 1_555 1_555
Cl1 C39 1_555 1_555
Cl2 C39 1_555 1_555
C39 H54 1_555 1_555
H55 C39 1_555 1_555
Te1B C1B 1_555 1_555
S1B C3B 1_555 1_555
Si1B C9B 1_555 1_555
C1B H1B 1_555 1_555
C2B C1B 1_555 1_555
H2B C2B 1_555 1_555
C3B C2B 1_555 1_555
C4B Te1B 1_555 1_555
C5B C7 1_555 1_555
C6B S1B 1_555 1_555
C7B C5 1_555 1_555
C8B C7B 1_555 1_555
C9B C8B 1_555 1_555
C10B Si1B 1_555 1_555
H3B C10B 1_555 1_555
C11B C10B 1_555 1_555
H4B C11B 1_555 1_555
H5B C11B 1_555 1_555
H6B C11B 1_555 1_555
C12B C10B 1_555 1_555
H7B C12B 1_555 1_555
H8B C12B 1_555 1_555
H9B C12B 1_555 1_555
C13B Si1B 1_555 1_555
H10B C13B 1_555 1_555
C14B C13B 1_555 1_555
H11B C14B 1_555 1_555
H12B C14B 1_555 1_555
H13B C14B 1_555 1_555
C15B C13B 1_555 1_555
H14B C15B 1_555 1_555
H15B C15B 1_555 1_555
H16B C15B 1_555 1_555
C16B Si1B 1_555 1_555
H17B C16B 1_555 1_555
C17B C16B 1_555 1_555
H18B C17B 1_555 1_555
H19B C17B 1_555 1_555
H20B C17B 1_555 1_555
C18B C16B 1_555 1_555
H21B C18B 1_555 1_555
H22B C18B 1_555 1_555
H23B C18B 1_555 1_555
Te2B C21B 1_555 1_555
S2B C23B 1_555 1_555
Si2B C29B 1_555 1_555
C21B H31B 1_555 1_555
C22B C21B 1_555 1_555
H32B C22B 1_555 1_555
C23B C22B 1_555 1_555
C24B C27 1_555 1_555
C25B C24B 1_555 1_555
C26B Te2B 1_555 1_555
C27B C24 1_555 1_555
C28B C27B 1_555 1_555
C29B C28B 1_555 1_555
C30B Si2B 1_555 1_555
H33B C30B 1_555 1_555
C31B C30B 1_555 1_555
H34B C31B 1_555 1_555
H35B C31B 1_555 1_555
H36B C31B 1_555 1_555
C32B C30B 1_555 1_555
H37B C32B 1_555 1_555
H38B C32B 1_555 1_555
H39B C32B 1_555 1_555
C33B Si2B 1_555 1_555
H40B C33B 1_555 1_555
C34B C33B 1_555 1_555
H41B C34B 1_555 1_555
H42B C34B 1_555 1_555
H43B C34B 1_555 1_555
C35B C33B 1_555 1_555
H44B C35B 1_555 1_555
H45B C35B 1_555 1_555
H46B C35B 1_555 1_555
C36B Si2B 1_555 1_555
H47B C36B 1_555 1_555
C37B C36B 1_555 1_555
H48B C37B 1_555 1_555
H49B C37B 1_555 1_555
H50B C37B 1_555 1_555
C38B C36B 1_555 1_555
H51B C38B 1_555 1_555
H52B C38B 1_555 1_555
H53B C38B 1_555 1_555
C3 C4 1_555 1_555
C5 C6 1_555 1_555
C23 C26 1_555 1_555
C25 C26 1_555 1_555
C3B C4B 1_555 1_555
C4B C5B 1_555 1_555
C5B C6B 1_555 1_555
C6B C7B 1_555 1_555
S2B C24B 1_555 1_555
C23B C26B 1_555 1_555
C25B C26B 1_555 1_555
C25B C27B 1_555 1_555

#END
