
#######################################################################
#
#                 Cambridge Crystallographic Data Centre
#                                CCDC 
#
#######################################################################
#
# If this CIF has been generated from an entry in the Cambridge 
# Structural Database, then it will include bibliographic, chemical, 
# crystal, experimental, refinement or atomic coordinate data resulting 
# from the CCDC's data processing and validation procedures.
#
#######################################################################

data_NAYWOC
_chemical_formula_moiety         'C36 H46 S2 Se2 Si2'
_chemical_name_systematic        
"[bis-selenopheno[2,3-d:2,3-d']benzo[1,2-b:4,5-b']bisthiene-5,10-diylbis(ethyne-2,1-diyl)]bis[tris(propan-2-yl)silane] unknown solvate"
_symmetry_cell_setting           monoclinic
_symmetry_space_group_name_H-M   'C 2/c'
_symmetry_Int_Tables_number      15
_space_group_name_Hall           '-C 2yn'
loop_
_symmetry_equiv_pos_site_id
_symmetry_equiv_pos_as_xyz
1 x,y,z
2 -x,y,1/2-z
3 1/2+x,1/2+y,z
4 1/2-x,1/2+y,1/2-z
5 -x,-y,-z
6 x,-y,1/2+z
7 1/2-x,1/2-y,-z
8 1/2+x,1/2-y,1/2+z
_cell_length_a                   20.330(5)
_cell_length_b                   14.591(3)
_cell_length_c                   15.128(3)
_cell_angle_alpha                90
_cell_angle_beta                 106.512(3)
_cell_angle_gamma                90
_cell_volume                     4302.43
_exptl_crystal_colour            yellow
_exptl_crystal_description       block
_cell_formula_units_Z            4
loop_
_atom_site_label
_atom_site_type_symbol
_atom_site_fract_x
_atom_site_fract_y
_atom_site_fract_z
Se1 Se 0.55927(2) 0.16024(3) 1.05912(3)
S1 S 0.61833(4) 0.31156(7) 0.84943(6)
Si1 Si 0.79224(5) 0.45056(6) 0.68044(6)
C1 C 0.4828(2) 0.1961(4) 0.9646(3)
H1 H 0.4380 0.1821 0.9637
C2 C 0.4990(2) 0.2446(4) 0.8977(3)
H2 H 0.4665 0.2673 0.8460
C3 C 0.57091(18) 0.2574(3) 0.9144(2)
C4 C 0.61194(16) 0.2197(2) 0.9938(2)
C5 C 0.68383(15) 0.23067(19) 1.00564(18)
C6 C 0.69493(15) 0.2805(2) 0.93036(19)
C7 C 0.76007(15) 0.30014(19) 0.92307(18)
C8 C 0.77033(15) 0.34924(19) 0.84595(19)
C9 C 0.77858(16) 0.3882(2) 0.7802(2)
C10 C 0.7797(2) 0.5749(2) 0.7001(3)
H3 H 0.7870 0.6089 0.6478
C11 C 0.7082(3) 0.5970(3) 0.7056(4)
H4 H 0.6755 0.5844 0.6472
H5 H 0.7058 0.6606 0.7205
H6 H 0.6980 0.5600 0.7525
C12 C 0.8331(3) 0.6078(3) 0.7871(4)
H7 H 0.8289 0.5730 0.8390
H8 H 0.8257 0.6715 0.7968
H9 H 0.8782 0.5995 0.7801
C13 C 0.8833(2) 0.4265(3) 0.6823(3)
H10 H 0.9114 0.4416 0.7448
C14 C 0.8974(3) 0.3253(4) 0.6678(4)
H11 H 0.8838 0.2887 0.7123
H12 H 0.9454 0.3168 0.6751
H13 H 0.8716 0.3071 0.6068
C15 C 0.9093(3) 0.4884(4) 0.6172(4)
H14 H 0.8857 0.4734 0.5545
H15 H 0.9577 0.4791 0.6277
H16 H 0.9009 0.5514 0.6288
C16 C 0.7365(8) 0.3981(9) 0.5760(7)
H17 H 0.7612 0.3461 0.5596
C17 C 0.7183(10) 0.4690(13) 0.4899(13)
H18 H 0.7005 0.5248 0.5078
H19 H 0.6846 0.4421 0.4388
H20 H 0.7591 0.4822 0.4722
C18 C 0.6685(8) 0.3643(15) 0.5813(8)
H21 H 0.6752 0.3195 0.6295
H22 H 0.6442 0.3370 0.5235
H23 H 0.6424 0.4148 0.5943
Se1F Se 0.94073(2) 0.33976(3) 0.94088(3)
S1F S 0.88167(4) 0.18844(7) 1.15057(6)
Si1F Si 0.70776(5) 0.04944(6) 1.31956(6)
C1F C 1.0172(2) 0.3039(4) 1.0354(3)
H1F H 1.0620 0.3179 1.0363
C2F C 1.0010(2) 0.2554(4) 1.1023(3)
H2F H 1.0335 0.2327 1.1540
C3F C 0.92909(18) 0.2426(3) 1.0856(2)
C4F C 0.88806(16) 0.2803(2) 1.0062(2)
C5F C 0.81617(15) 0.26933(19) 0.99436(18)
C6F C 0.80507(15) 0.2195(2) 1.06964(19)
C7F C 0.73993(15) 0.19986(19) 1.07693(18)
C8F C 0.72967(15) 0.15076(19) 1.15405(19)
C9F C 0.72142(16) 0.1118(2) 1.2198(2)
C10F C 0.7203(2) -0.0749(2) 1.2999(3)
H3F H 0.7130 -0.1089 1.3522
C11F C 0.7918(3) -0.0970(3) 1.2944(4)
H4F H 0.8245 -0.0844 1.3528
H5F H 0.7942 -0.1606 1.2795
H6F H 0.8020 -0.0600 1.2475
C12F C 0.6669(3) -0.1078(3) 1.2129(4)
H7F H 0.6711 -0.0730 1.1610
H8F H 0.6743 -0.1715 1.2032
H9F H 0.6218 -0.0995 1.2199
C13F C 0.6167(2) 0.0735(3) 1.3177(3)
H10F H 0.5886 0.0584 1.2552
C14F C 0.6026(3) 0.1747(4) 1.3322(4)
H11F H 0.6162 0.2113 1.2877
H12F H 0.5546 0.1832 1.3249
H13F H 0.6284 0.1929 1.3932
C15F C 0.5907(3) 0.0116(4) 1.3828(4)
H14F H 0.6143 0.0266 1.4455
H15F H 0.5423 0.0209 1.3723
H16F H 0.5991 -0.0514 1.3712
C16F C 0.7635(8) 0.1019(9) 1.4240(7)
H17F H 0.7388 0.1539 1.4404
C17F C 0.7817(10) 0.0310(13) 1.5101(13)
H18F H 0.7995 -0.0248 1.4922
H19F H 0.8154 0.0579 1.5612
H20F H 0.7409 0.0178 1.5278
C18F C 0.8315(8) 0.1357(15) 1.4187(8)
H21F H 0.8248 0.1805 1.3705
H22F H 0.8558 0.1630 1.4765
H23F H 0.8576 0.0852 1.4057
C19? C 0.7132(10) 0.4235(14) 0.5738(11)
H24? H 0.6711 0.4564 0.5734
C20? C 0.705(2) 0.3190(14) 0.5627(14)
H25? H 0.7416 0.2945 0.5418
H26? H 0.6618 0.3052 0.5185
H27? H 0.7060 0.2920 0.6210
C21? C 0.7394(17) 0.442(2) 0.488(2)
H28? H 0.7598 0.5014 0.4928
H29? H 0.7015 0.4385 0.4330
H30? H 0.7729 0.3962 0.4852
loop_
_geom_bond_atom_site_label_1
_geom_bond_atom_site_label_2
_geom_bond_site_symmetry_1
_geom_bond_site_symmetry_2
Se1 C1 1_555 1_555
S1 C3 1_555 1_555
Si1 C9 1_555 1_555
C1 H1 1_555 1_555
C2 C1 1_555 1_555
H2 C2 1_555 1_555
C3 C2 1_555 1_555
C4 Se1 1_555 1_555
C5 C4 1_555 1_555
C6 S1 1_555 1_555
C7 C6 1_555 1_555
C8 C7 1_555 1_555
C9 C8 1_555 1_555
C10 Si1 1_555 1_555
H3 C10 1_555 1_555
C11 C10 1_555 1_555
H4 C11 1_555 1_555
H5 C11 1_555 1_555
H6 C11 1_555 1_555
C12 C10 1_555 1_555
H7 C12 1_555 1_555
H8 C12 1_555 1_555
H9 C12 1_555 1_555
C13 Si1 1_555 1_555
H10 C13 1_555 1_555
C14 C13 1_555 1_555
H11 C14 1_555 1_555
H12 C14 1_555 1_555
H13 C14 1_555 1_555
C15 C13 1_555 1_555
H14 C15 1_555 1_555
H15 C15 1_555 1_555
H16 C15 1_555 1_555
C16 Si1 1_555 1_555
H17 C16 1_555 1_555
C17 C16 1_555 1_555
H18 C17 1_555 1_555
H19 C17 1_555 1_555
H20 C17 1_555 1_555
C18 C16 1_555 1_555
H21 C18 1_555 1_555
H22 C18 1_555 1_555
H23 C18 1_555 1_555
Se1F C1F 1_555 1_555
S1F C3F 1_555 1_555
Si1F C9F 1_555 1_555
C1F H1F 1_555 1_555
C2F C1F 1_555 1_555
H2F C2F 1_555 1_555
C3F C2F 1_555 1_555
C4F Se1F 1_555 1_555
C5F C7 1_555 1_555
C6F S1F 1_555 1_555
C7F C5 1_555 1_555
C8F C7F 1_555 1_555
C9F C8F 1_555 1_555
C10F Si1F 1_555 1_555
H3F C10F 1_555 1_555
C11F C10F 1_555 1_555
H4F C11F 1_555 1_555
H5F C11F 1_555 1_555
H6F C11F 1_555 1_555
C12F C10F 1_555 1_555
H7F C12F 1_555 1_555
H8F C12F 1_555 1_555
H9F C12F 1_555 1_555
C13F Si1F 1_555 1_555
H10F C13F 1_555 1_555
C14F C13F 1_555 1_555
H11F C14F 1_555 1_555
H12F C14F 1_555 1_555
H13F C14F 1_555 1_555
C15F C13F 1_555 1_555
H14F C15F 1_555 1_555
H15F C15F 1_555 1_555
H16F C15F 1_555 1_555
C16F Si1F 1_555 1_555
H17F C16F 1_555 1_555
C17F C16F 1_555 1_555
H18F C17F 1_555 1_555
H19F C17F 1_555 1_555
H20F C17F 1_555 1_555
C18F C16F 1_555 1_555
H21F C18F 1_555 1_555
H22F C18F 1_555 1_555
H23F C18F 1_555 1_555
C3 C4 1_555 1_555
C5 C6 1_555 1_555
C3F C4F 1_555 1_555
C4F C5F 1_555 1_555
C5F C6F 1_555 1_555
C6F C7F 1_555 1_555

#END
