
#######################################################################
#
#                 Cambridge Crystallographic Data Centre
#                                CCDC 
#
#######################################################################
#
# If this CIF has been generated from an entry in the Cambridge 
# Structural Database, then it will include bibliographic, chemical, 
# crystal, experimental, refinement or atomic coordinate data resulting 
# from the CCDC's data processing and validation procedures.
#
#######################################################################

data_NAYWOA
_chemical_formula_moiety         'C18 H10 F3 N5 O1 S1'
_chemical_name_systematic        
N-(4-(2,4-Difluorophenyl)-5-(1H-1,2,4-triazol-1-yl)-1,3-thiazol-2-yl)-2-fluorobenzamide
_symmetry_cell_setting           monoclinic
_symmetry_space_group_name_H-M   'C c'
_symmetry_Int_Tables_number      9
_space_group_name_Hall           'C -2yc'
loop_
_symmetry_equiv_pos_site_id
_symmetry_equiv_pos_as_xyz
1 x,y,z
2 x,-y,1/2+z
3 1/2+x,1/2+y,z
4 1/2+x,1/2-y,1/2+z
_cell_length_a                   6.986(2)
_cell_length_b                   24.629(7)
_cell_length_c                   10.333(3)
_cell_angle_alpha                90
_cell_angle_beta                 92.399(5)
_cell_angle_gamma                90
_cell_volume                     1776.32
_exptl_crystal_colour            colorless
_exptl_crystal_description       plate
_cell_formula_units_Z            4
_exptl_crystal_recrystallization_method 'ethyl acetate'
loop_
_atom_site_label
_atom_site_type_symbol
_atom_site_fract_x
_atom_site_fract_y
_atom_site_fract_z
S1 S 0.67979(11) 0.91503(3) 0.02177(9)
F1 F 0.8945(3) 1.22209(8) 0.2711(3)
F2 F 0.4278(3) 1.09395(8) 0.1507(3)
O1 O 0.4150(4) 0.83399(10) 0.0388(3)
N1 N 0.3856(4) 0.90125(11) 0.1855(3)
H1 H 0.312(4) 0.9208(12) 0.243(3)
N2 N 0.5473(4) 0.98416(10) 0.1853(3)
N3 N 0.9416(3) 0.99340(10) -0.0357(3)
N4 N 1.1112(4) 0.96503(12) -0.0230(3)
N5 N 1.1382(4) 1.03805(11) -0.1540(3)
C1 C 0.9405(5) 1.08122(13) 0.1868(4)
H2 H 1.0367 1.0555 0.1785
C2 C 0.9891(5) 1.13361(15) 0.2230(4)
H3 H 1.1166 1.1432 0.2395
C3 C 0.8470(6) 1.17090(13) 0.2341(4)
C4 C 0.6583(6) 1.15855(14) 0.2122(4)
H4 H 0.5632 1.1845 0.2216
C5 C 0.6140(5) 1.10656(14) 0.1759(4)
C6 C 0.7495(4) 1.06606(12) 0.1622(3)
C7 C 0.6964(4) 1.01004(12) 0.1257(3)
C8 C 0.5251(4) 0.93498(12) 0.1399(3)
C9 C 0.7837(4) 0.97867(12) 0.0383(3)
C10 C 0.9626(5) 1.03592(13) -0.1127(4)
H5 H 0.8665 1.0608 -0.1345
C11 C 1.2198(5) 0.99421(16) -0.0967(4)
H6 H 1.3470 0.9851 -0.1088
C12 C 0.3331(5) 0.85369(12) 0.1299(4)
F3 F 0.2740(5) 0.83953(12) 0.4006(3)
C13 C 0.1614(5) 0.82774(13) 0.1862(4)
C14 C 0.1359(6) 0.82332(15) 0.3166(4)
C15 C -0.0241(8) 0.80027(18) 0.3661(6)
H8 H -0.0363 0.7971 0.4551
C16 C -0.1653(8) 0.7820(2) 0.2811(9)
H9 H -0.2766 0.7675 0.3133
C17 C -0.1467(6) 0.78448(17) 0.1505(8)
H10 H -0.2434 0.7713 0.0945
C18 C 0.0187(6) 0.80700(15) 0.1013(6)
H11 H 0.0337 0.8082 0.0124
F4? F 0.055(4) 0.8032(12) -0.0252(13)
H7? H 0.2342 0.8373 0.3751
loop_
_geom_bond_atom_site_label_1
_geom_bond_atom_site_label_2
_geom_bond_site_symmetry_1
_geom_bond_site_symmetry_2
S1 C8 1_555 1_555
F1 C3 1_555 1_555
F2 C5 1_555 1_555
O1 C12 1_555 1_555
N1 H1 1_555 1_555
N2 C7 1_555 1_555
N3 N4 1_555 1_555
N4 C11 1_555 1_555
N5 C10 1_555 1_555
C1 H2 1_555 1_555
C2 C1 1_555 1_555
H3 C2 1_555 1_555
C3 C2 1_555 1_555
C4 C3 1_555 1_555
H4 C4 1_555 1_555
C5 C4 1_555 1_555
C6 C1 1_555 1_555
C7 C6 1_555 1_555
C8 N1 1_555 1_555
C9 S1 1_555 1_555
C10 N3 1_555 1_555
H5 C10 1_555 1_555
C11 N5 1_555 1_555
H6 C11 1_555 1_555
C12 N1 1_555 1_555
F3 C14 1_555 1_555
C13 C12 1_555 1_555
C14 C13 1_555 1_555
C15 C14 1_555 1_555
H8 C15 1_555 1_555
C16 C15 1_555 1_555
H9 C16 1_555 1_555
C17 C16 1_555 1_555
H10 C17 1_555 1_555
C18 C13 1_555 1_555
H11 C18 1_555 1_555
N2 C8 1_555 1_555
N3 C9 1_555 1_555
C5 C6 1_555 1_555
C7 C9 1_555 1_555
C17 C18 1_555 1_555

#END
