
#######################################################################
#
#                 Cambridge Crystallographic Data Centre
#                                CCDC 
#
#######################################################################
#
# If this CIF has been generated from an entry in the Cambridge 
# Structural Database, then it will include bibliographic, chemical, 
# crystal, experimental, refinement or atomic coordinate data resulting 
# from the CCDC's data processing and validation procedures.
#
#######################################################################

data_NAZCAU
_chemical_formula_moiety         'C16 H10 Cl1 N3 O2 S1'
_chemical_name_systematic        
3-((5-(3-Chlorophenyl)-1,3,4-oxadiazol-2-yl)methyl)-1,3-benzothiazol-2(3H)-one
_chemical_properties_biological  'antifungal activity'
_symmetry_cell_setting           monoclinic
_symmetry_space_group_name_H-M   'C 2/c'
_symmetry_Int_Tables_number      15
_space_group_name_Hall           '-C 2yn'
loop_
_symmetry_equiv_pos_site_id
_symmetry_equiv_pos_as_xyz
1 x,y,z
2 -x,y,1/2-z
3 1/2+x,1/2+y,z
4 1/2-x,1/2+y,1/2-z
5 -x,-y,-z
6 x,-y,1/2+z
7 1/2-x,1/2-y,-z
8 1/2+x,1/2-y,1/2+z
_cell_length_a                   27.18(2)
_cell_length_b                   12.432(10)
_cell_length_c                   9.425(8)
_cell_angle_alpha                90
_cell_angle_beta                 108.666(14)
_cell_angle_gamma                90
_cell_volume                     3017.21
_cell_formula_units_Z            8
loop_
_atom_site_label
_atom_site_type_symbol
_atom_site_fract_x
_atom_site_fract_y
_atom_site_fract_z
Cl1 Cl 0.30269(5) 0.25360(15) 0.19508(14)
S1 S 0.09139(4) 0.14242(10) 0.92932(10)
O1 O 0.06115(14) -0.0038(3) 0.7109(3)
O2 O 0.12005(11) 0.1364(3) 0.4578(3)
N1 N 0.05083(13) 0.1745(3) 0.6444(3)
N2 N 0.06836(14) 0.2573(3) 0.3102(4)
N3 N 0.11595(14) 0.2542(3) 0.2782(4)
C1 C 0.06527(17) 0.0894(5) 0.7421(4)
C2 C 0.08236(15) 0.2737(4) 0.8632(4)
C3 C 0.09549(16) 0.3700(4) 0.9436(4)
H1 H 0.1115 0.3690 1.0491
C4 C 0.08483(18) 0.4665(4) 0.8672(5)
H2 H 0.0943 0.5322 0.9204
C5 C 0.06018(16) 0.4682(4) 0.7121(4)
H3 H 0.0519 0.5353 0.6618
C6 C 0.04766(16) 0.3741(4) 0.6309(4)
H4 H 0.0316 0.3758 0.5253
C7 C 0.05903(14) 0.2769(4) 0.7063(4)
C8 C 0.03213(16) 0.1554(4) 0.4826(4)
H5 H 0.0002 0.1977 0.4364
H6 H 0.0235 0.0783 0.4629
C9 C 0.07287(16) 0.1869(4) 0.4135(4)
C10 C 0.14408(16) 0.1833(4) 0.3666(4)
C11 C 0.19659(17) 0.1483(4) 0.3754(4)
C12 C 0.2201(2) 0.0609(5) 0.4566(6)
H7 H 0.2032 0.0211 0.5137
C13 C 0.2696(2) 0.0306(6) 0.4545(7)
H8 H 0.2859 -0.0314 0.5082
C14 C 0.2949(2) 0.0904(6) 0.3745(6)
H9 H 0.3289 0.0708 0.3762
C15 C 0.27112(18) 0.1767(5) 0.2944(5)
C16 C 0.22183(17) 0.2099(5) 0.2922(4)
H10 H 0.2057 0.2715 0.2370
loop_
_geom_bond_atom_site_label_1
_geom_bond_atom_site_label_2
_geom_bond_site_symmetry_1
_geom_bond_site_symmetry_2
Cl1 C15 1_555 1_555
S1 C1 1_555 1_555
O1 C1 1_555 1_555
O2 C9 1_555 1_555
N1 C1 1_555 1_555
N2 N3 1_555 1_555
N3 C10 1_555 1_555
C2 S1 1_555 1_555
C3 C2 1_555 1_555
H1 C3 1_555 1_555
C4 C3 1_555 1_555
H2 C4 1_555 1_555
C5 C4 1_555 1_555
H3 C5 1_555 1_555
C6 C5 1_555 1_555
H4 C6 1_555 1_555
C7 N1 1_555 1_555
C8 N1 1_555 1_555
H5 C8 1_555 1_555
H6 C8 1_555 1_555
C9 N2 1_555 1_555
C10 O2 1_555 1_555
C11 C10 1_555 1_555
C12 C11 1_555 1_555
H7 C12 1_555 1_555
C13 C12 1_555 1_555
H8 C13 1_555 1_555
C14 C13 1_555 1_555
H9 C14 1_555 1_555
C15 C14 1_555 1_555
C16 C11 1_555 1_555
H10 C16 1_555 1_555
C2 C7 1_555 1_555
C6 C7 1_555 1_555
C8 C9 1_555 1_555
C15 C16 1_555 1_555

#END
