
#######################################################################
#
#                 Cambridge Crystallographic Data Centre
#                                CCDC 
#
#######################################################################
#
# If this CIF has been generated from an entry in the Cambridge 
# Structural Database, then it will include bibliographic, chemical, 
# crystal, experimental, refinement or atomic coordinate data resulting 
# from the CCDC's data processing and validation procedures.
#
#######################################################################

data_NAZFOL
_chemical_formula_moiety         'C49 H50 O5'
_chemical_name_systematic        
2,3,4,6-Tetra-O-(phenylmethyl)-1,5-anhydro-1-C-(3-((4-ethylphenyl)methyl)phenyl)glucopyranose
_symmetry_cell_setting           monoclinic
_symmetry_space_group_name_H-M   'P 21'
_symmetry_Int_Tables_number      4
_space_group_name_Hall           'P 2yb'
loop_
_symmetry_equiv_pos_site_id
_symmetry_equiv_pos_as_xyz
1 x,y,z
2 -x,1/2+y,-z
_cell_length_a                   18.9590
_cell_length_b                   42.9270
_cell_length_c                   4.9680
_cell_angle_alpha                90
_cell_angle_beta                 90.630
_cell_angle_gamma                90
_cell_volume                     4042.98
_cell_formula_units_Z            4
loop_
_atom_site_label
_atom_site_type_symbol
_atom_site_fract_x
_atom_site_fract_y
_atom_site_fract_z
O1 O 0.080500 0.020200 0.322290
O2 O -0.055604 -0.038113 0.209890
O3 O 0.069726 -0.074421 0.204972
O4 O 0.180092 -0.047256 0.544927
C1 C -0.034130 0.029398 0.139876
O5 O 0.230465 0.019784 0.247592
C2 C 0.012101 -0.025056 0.176536
C3 C 0.010944 0.008229 0.314405
C4 C 0.128270 0.003485 0.487932
C5 C 0.135333 -0.030510 0.363388
C6 C -0.106619 0.031867 0.187128
C7 C -0.150037 0.050796 0.027250
C8 C -0.003419 0.048777 -0.042994
C9 C -0.227338 0.052933 0.085601
C10 C 0.065697 -0.045443 0.344420
C11 C -0.272287 0.035929 -0.126766
C12 C -0.047745 0.068431 -0.208146
C13 C -0.083680 -0.051005 -0.032244
C14 C -0.331546 0.050478 -0.236879
C15 C -0.120367 0.069538 -0.166096
C16 C 0.196210 0.020523 0.497694
C17 C 0.328114 0.049486 0.399739
C18 C -0.141373 -0.071703 0.021087
C19 C 0.057942 -0.128686 0.187363
C20 C -0.374582 0.034588 -0.415295
C21 C 0.286583 -0.074312 0.627199
C22 C -0.255338 0.007197 -0.226803
C23 C -0.357475 0.004816 -0.521844
C24 C 0.048553 -0.101557 0.363989
C25 C -0.295253 -0.009771 -0.404344
C26 C 0.342573 0.077362 0.534179
C27 C 0.277838 0.046306 0.205029
C28 C 0.441288 0.058415 0.811157
C29 C 0.377898 0.026651 0.487505
C30 C 0.396292 0.082218 0.726630
C31 C 0.123064 -0.131840 0.020137
C32 C 0.238502 -0.062328 0.403201
C33 C 0.428030 0.030319 0.684325
C34 C -0.402889 -0.010372 -0.757296
C35 C 0.121817 -0.159613 -0.136603
C36 C 0.078210 -0.183193 -0.111282
C37 C 0.023179 -0.181449 0.043636
C38 C 0.013306 -0.153647 0.211964
C39 C -0.434051 -0.041042 -0.617468
C40 C 0.327643 -0.055697 0.752338
C41 C 0.291244 -0.106936 0.693401
C42 C 0.343165 -0.113771 0.903825
C43 C 0.387736 -0.093186 0.990822
C44 C 0.386308 -0.064178 0.943405
C45 C -0.256222 -0.108175 0.127670
C46 C -0.226827 -0.095383 0.321448
C47 C -0.171268 -0.082432 -0.191844
C48 C -0.194595 -0.066628 0.188376
C49 C -0.231278 -0.098422 -0.165690
H1 H 0.482414 0.061590 0.960790
H2 H 0.458872 0.010271 0.743925
H3 H 0.375739 0.004261 0.388609
H4 H 0.309323 0.097050 0.485645
H5 H 0.402928 0.105186 0.811945
H6 H 0.246578 0.067333 0.199227
H7 H 0.303693 0.043219 0.014244
H8 H 0.186274 0.044480 0.551785
H9 H 0.230058 0.009916 0.648028
H10 H 0.108370 0.002079 0.690430
H11 H 0.158646 -0.029400 0.166242
H12 H 0.265894 -0.045747 0.278627
H13 H 0.219383 -0.081326 0.279971
H14 H 0.319316 -0.031139 0.717049
H15 H 0.422888 -0.047597 1.030068
H16 H 0.430504 -0.101569 1.116624
H17 H 0.344468 -0.136854 0.990209
H18 H 0.259360 -0.124611 0.596511
H19 H -0.005938 -0.099491 0.422546
H20 H 0.081515 -0.103682 0.541725
H21 H 0.046711 -0.048946 0.546340
H22 H 0.023654 -0.022811 -0.034967
H23 H -0.009998 0.007471 0.515591
H24 H 0.053221 0.049350 -0.063398
H25 H -0.129459 0.018865 0.350612
H26 H -0.153157 0.085016 -0.284584
H27 H -0.024660 0.082374 -0.365239
H28 H -0.242513 0.077178 0.088851
H29 H -0.236954 0.042638 0.280133
H30 H -0.206089 -0.002943 -0.159433
H31 H -0.280939 -0.033364 -0.455862
H32 H -0.343808 0.074213 -0.182535
H33 H -0.423711 0.045278 -0.477201
H34 H 0.165598 -0.115107 0.018902
H35 H 0.160803 -0.161490 -0.292648
H36 H 0.088094 -0.204450 -0.220858
H37 H -0.014698 -0.200228 0.048119
H38 H -0.029126 -0.152879 0.355087
H39 H -0.148566 -0.078656 -0.387590
H40 H -0.297216 -0.125294 0.156071
H41 H -0.213984 -0.043440 0.228029
H42 H -0.370295 -0.016288 -0.926739
H43 H -0.444681 0.005050 -0.822830
H44 H -0.466523 -0.053579 -0.760846
H45 H -0.465497 -0.034427 -0.446762
H46 H -0.391110 -0.055765 -0.550671
H47 H -0.042640 -0.063777 -0.133258
H48 H -0.102137 -0.032323 -0.160451
O6 O 0.427876 0.166127 0.850619
O7 O 0.555770 0.227312 0.727276
O8 O 0.272969 0.159312 0.864420
O9 O 0.321075 0.232852 1.047204
O10 O 0.426085 0.260246 0.698252
C50 C 0.497002 0.180091 0.840626
C51 C 0.540434 0.157331 0.641235
C52 C 0.383243 0.183227 1.033464
C53 C 0.613010 0.156784 0.699878
C54 C 0.319695 0.164356 1.092018
C55 C 0.490681 0.211685 0.687721
C56 C 0.508854 0.139685 0.464115
C57 C 0.367076 0.215287 0.879489
C58 C 0.436692 0.232513 0.862276
C59 C 0.732593 0.134561 0.585268
C60 C 0.162370 0.139548 0.727463
C61 C 0.654356 0.137370 0.530204
C62 C 0.622048 0.119197 0.347156
C63 C 0.549883 0.120241 0.286337
C64 C 0.214484 0.142673 0.951717
C65 C 0.834405 0.139293 0.250560
C66 C 0.582106 0.238789 0.465960
C67 C 0.124531 0.161607 0.620030
C68 C 0.151945 0.109157 0.620875
C69 C 0.642859 0.259208 0.527430
C70 C 0.776724 0.152586 0.367997
C71 C 0.877569 0.156974 0.074456
C72 C 0.062292 0.127083 0.325698
C73 C 0.100771 0.104113 0.425323
C74 C 0.434335 0.316413 0.680944
C75 C 0.854778 0.184510 -0.020764
C76 C 0.211888 0.259433 1.097637
C77 C 0.754199 0.182192 0.272988
C78 C 0.067746 0.156054 0.421761
C79 C 0.796828 0.198381 0.086082
C80 C 0.453337 0.286779 0.872344
C81 C 0.379920 0.318410 0.521159
C82 C 0.258499 0.243093 0.889451
C83 C 0.901691 0.202569 -0.226422
C84 C 0.374236 0.345563 0.350515
C85 C 0.417282 0.367699 0.390163
C86 C 0.948871 0.226638 -0.067356
C87 C 0.472422 0.366301 0.528829
C88 C 0.479115 0.340580 0.733533
C89 C 0.162873 0.240232 1.222914
C90 C 0.220099 0.289718 1.155906
C91 C 0.168022 0.302746 1.337211
C92 C 0.110554 0.253926 1.403924
C93 C 0.123836 0.284192 1.473921
C94 C 0.754742 0.302769 0.635082
C95 C 0.688964 0.276845 0.299134
C96 C 0.728383 0.280491 0.847629
C97 C 0.739974 0.291722 0.370870
C98 C 0.667570 0.262231 0.778920
H49 H 0.640319 0.250306 0.938486
H50 H 0.754185 0.278460 1.041732
H51 H 0.781509 0.324421 0.678932
H52 H 0.778229 0.297169 0.218415
H53 H 0.674392 0.275310 0.088783
H54 H 0.541343 0.251778 0.361938
H55 H 0.598497 0.219461 0.342330
H56 H 0.509418 0.284899 0.909306
H57 H 0.426161 0.287941 1.062001
H58 H 0.515289 0.341196 0.902905
H59 H 0.340207 0.300376 0.515920
H60 H 0.334447 0.346948 0.193725
H61 H 0.405161 0.389735 0.295502
H62 H 0.514233 0.383084 0.502780
H63 H 0.163360 0.215418 1.187085
H64 H 0.065405 0.241169 1.475684
H65 H 0.097561 0.293664 1.647482
H66 H 0.164801 0.327693 1.362384
H67 H 0.262422 0.303495 1.073992
H68 H 0.231416 0.223361 0.801659
H69 H 0.273507 0.259059 0.732134
H70 H 0.341823 0.210668 0.687695
H71 H 0.459562 0.238444 1.055631
H72 H 0.481276 0.207629 0.475801
H73 H 0.521230 0.180705 1.038324
H74 H 0.411863 0.187832 1.218370
H75 H 0.336905 0.141895 1.165406
H76 H 0.290311 0.176120 1.246838
H77 H 0.190473 0.154875 1.117285
H78 H 0.230951 0.119797 1.017516
H79 H 0.183978 0.090012 0.692580
H80 H 0.092043 0.080726 0.352063
H81 H 0.025597 0.122353 0.162971
H82 H 0.032400 0.174393 0.357373
H83 H 0.135377 0.185338 0.679628
H84 H 0.451972 0.139549 0.449753
H85 H 0.526605 0.107553 0.119986
H86 H 0.653944 0.102617 0.239310
H87 H 0.744337 0.144167 0.781622
H88 H 0.747182 0.110245 0.581748
H89 H 0.636011 0.170171 0.862630
H90 H 0.705389 0.192239 0.341859
H91 H 0.847230 0.115238 0.291825
H92 H 0.928686 0.148233 0.017401
H93 H 0.783213 0.221890 0.028089
H94 H 0.868397 0.214770 -0.369252
H95 H 0.934939 0.186334 -0.332182
H96 H 0.981504 0.239256 -0.206929
H97 H 0.982015 0.214370 0.075549
H98 H 0.915473 0.242806 0.038478
loop_
_geom_bond_atom_site_label_1
_geom_bond_atom_site_label_2
_geom_bond_site_symmetry_1
_geom_bond_site_symmetry_2
O1 C3 1_555 1_555
O2 C2 1_555 1_555
O3 C10 1_555 1_555
O4 C5 1_555 1_555
C1 C3 1_555 1_555
O5 C16 1_555 1_555
C2 C3 1_555 1_555
C3 H23 1_555 1_555
C4 O1 1_555 1_555
C5 C4 1_555 1_555
C6 C1 1_555 1_555
C7 C6 1_555 1_555
C8 C1 1_555 1_555
C9 C7 1_555 1_555
C10 C2 1_555 1_555
C11 C9 1_555 1_555
C12 C8 1_555 1_555
C13 O2 1_555 1_555
C14 C11 1_555 1_555
C15 C7 1_555 1_555
C16 C4 1_555 1_555
C17 C26 1_555 1_555
C18 C13 1_555 1_555
C19 C24 1_555 1_555
C20 C14 1_555 1_555
C21 C32 1_555 1_555
C22 C11 1_555 1_555
C23 C20 1_555 1_555
C24 O3 1_555 1_555
C25 C22 1_555 1_555
C26 C30 1_555 1_555
C27 O5 1_555 1_555
C28 C30 1_555 1_555
C29 C17 1_555 1_555
C30 H5 1_555 1_555
C31 C19 1_555 1_555
C32 O4 1_555 1_555
C33 C28 1_555 1_555
C34 C23 1_555 1_555
C35 C31 1_555 1_555
C36 C35 1_555 1_555
C37 C36 1_555 1_555
C38 C19 1_555 1_555
C39 C34 1_555 1_555
C40 C21 1_555 1_555
C41 C21 1_555 1_555
C42 C41 1_555 1_555
C43 C42 1_555 1_555
C44 C40 1_555 1_555
C45 C46 1_555 1_555
C46 C48 1_555 1_555
C47 C18 1_555 1_555
C48 C18 1_555 1_555
C49 C45 1_555 1_555
H1 C28 1_555 1_555
H2 C33 1_555 1_555
H3 C29 1_555 1_555
H4 C26 1_555 1_555
H6 C27 1_555 1_555
H7 C27 1_555 1_555
H8 C16 1_555 1_555
H9 C16 1_555 1_555
H10 C4 1_555 1_555
H11 C5 1_555 1_555
H12 C32 1_555 1_555
H13 C32 1_555 1_555
H14 C40 1_555 1_555
H15 C44 1_555 1_555
H16 C43 1_555 1_555
H17 C42 1_555 1_555
H18 C41 1_555 1_555
H19 C24 1_555 1_555
H20 C24 1_555 1_555
H21 C10 1_555 1_555
H22 C2 1_555 1_555
H24 C8 1_555 1_555
H25 C6 1_555 1_555
H26 C15 1_555 1_555
H27 C12 1_555 1_555
H28 C9 1_555 1_555
H29 C9 1_555 1_555
H30 C22 1_555 1_555
H31 C25 1_555 1_555
H32 C14 1_555 1_555
H33 C20 1_555 1_555
H34 C31 1_555 1_555
H35 C35 1_555 1_555
H36 C36 1_555 1_555
H37 C37 1_555 1_555
H38 C38 1_555 1_555
H39 C47 1_555 1_555
H40 C45 1_555 1_555
H41 C48 1_555 1_555
H42 C34 1_555 1_555
H43 C34 1_555 1_555
H44 C39 1_555 1_555
H45 C39 1_555 1_555
H46 C39 1_555 1_555
H47 C13 1_555 1_555
H48 C13 1_555 1_555
O6 C50 1_555 1_555
O7 C55 1_555 1_555
O8 C54 1_555 1_555
O9 C57 1_555 1_555
O10 C58 1_555 1_555
C50 C51 1_555 1_555
C51 C53 1_555 1_555
C52 O6 1_555 1_555
C53 C61 1_555 1_555
C54 C52 1_555 1_555
C55 C50 1_555 1_555
C56 C51 1_555 1_555
C57 C52 1_555 1_555
C58 C55 1_555 1_555
C59 C61 1_555 1_555
C60 C64 1_555 1_555
C61 C62 1_555 1_555
C62 C63 1_555 1_555
C63 C56 1_555 1_555
C64 O8 1_555 1_555
C65 C70 1_555 1_555
C66 O7 1_555 1_555
C67 C60 1_555 1_555
C68 C60 1_555 1_555
C69 C66 1_555 1_555
C70 C59 1_555 1_555
C71 C65 1_555 1_555
C72 C73 1_555 1_555
C73 C68 1_555 1_555
C74 C80 1_555 1_555
C75 C71 1_555 1_555
C76 C82 1_555 1_555
C77 C70 1_555 1_555
C78 C67 1_555 1_555
C79 C75 1_555 1_555
C80 O10 1_555 1_555
C81 C74 1_555 1_555
C82 O9 1_555 1_555
C83 C75 1_555 1_555
C84 C81 1_555 1_555
C85 C84 1_555 1_555
C86 C83 1_555 1_555
C87 C85 1_555 1_555
C88 C74 1_555 1_555
C89 C76 1_555 1_555
C90 C76 1_555 1_555
C91 C90 1_555 1_555
C92 C89 1_555 1_555
C93 C91 1_555 1_555
C94 C96 1_555 1_555
C95 C69 1_555 1_555
C96 C98 1_555 1_555
C97 C94 1_555 1_555
C98 C69 1_555 1_555
H49 C98 1_555 1_555
H50 C96 1_555 1_555
H51 C94 1_555 1_555
H52 C97 1_555 1_555
H53 C95 1_555 1_555
H54 C66 1_555 1_555
H55 C66 1_555 1_555
H56 C80 1_555 1_555
H57 C80 1_555 1_555
H58 C88 1_555 1_555
H59 C81 1_555 1_555
H60 C84 1_555 1_555
H61 C85 1_555 1_555
H62 C87 1_555 1_555
H63 C89 1_555 1_555
H64 C92 1_555 1_555
H65 C93 1_555 1_555
H66 C91 1_555 1_555
H67 C90 1_555 1_555
H68 C82 1_555 1_555
H69 C82 1_555 1_555
H70 C57 1_555 1_555
H71 C58 1_555 1_555
H72 C55 1_555 1_555
H73 C50 1_555 1_555
H74 C52 1_555 1_555
H75 C54 1_555 1_555
H76 C54 1_555 1_555
H77 C64 1_555 1_555
H78 C64 1_555 1_555
H79 C68 1_555 1_555
H80 C73 1_555 1_555
H81 C72 1_555 1_555
H82 C78 1_555 1_555
H83 C67 1_555 1_555
H84 C56 1_555 1_555
H85 C63 1_555 1_555
H86 C62 1_555 1_555
H87 C59 1_555 1_555
H88 C59 1_555 1_555
H89 C53 1_555 1_555
H90 C77 1_555 1_555
H91 C65 1_555 1_555
H92 C71 1_555 1_555
H93 C79 1_555 1_555
H94 C83 1_555 1_555
H95 C83 1_555 1_555
H96 C86 1_555 1_555
H97 C86 1_555 1_555
H98 C86 1_555 1_555
C5 C10 1_555 1_555
C12 C15 1_555 1_555
C17 C27 1_555 1_555
C23 C25 1_555 1_555
C29 C33 1_555 1_555
C37 C38 1_555 1_555
C43 C44 1_555 1_555
C47 C49 1_555 1_555
C57 C58 1_555 1_555
C72 C78 1_555 1_555
C77 C79 1_555 1_555
C87 C88 1_555 1_555
C92 C93 1_555 1_555
C95 C97 1_555 1_555

#END
