
#######################################################################
#
#                 Cambridge Crystallographic Data Centre
#                                CCDC 
#
#######################################################################
#
# If this CIF has been generated from an entry in the Cambridge 
# Structural Database, then it will include bibliographic, chemical, 
# crystal, experimental, refinement or atomic coordinate data resulting 
# from the CCDC's data processing and validation procedures.
#
#######################################################################

data_NAZGUR
_chemical_name_common            
Cyclo(N$alpha!-2,2,2-Trifluoroethyl-L-tyrosyl-glycine)
_chemical_formula_moiety         'C13 H13 F3 N2 O3'
_chemical_name_systematic        
3-(S)-((4-Hydroxyphenyl)methyl)-4-(2,2,2-trifluoroethyl)-2,5-piperazinedione
_symmetry_cell_setting           monoclinic
_symmetry_space_group_name_H-M   'P 21'
_symmetry_Int_Tables_number      4
_space_group_name_Hall           'P 2yb'
loop_
_symmetry_equiv_pos_site_id
_symmetry_equiv_pos_as_xyz
1 x,y,z
2 -x,1/2+y,-z
_cell_length_a                   7.6822(15)
_cell_length_b                   10.906(2)
_cell_length_c                   8.7170(17)
_cell_angle_alpha                90
_cell_angle_beta                 106.16(3)
_cell_angle_gamma                90
_cell_volume                     701.472
_cell_formula_units_Z            2
loop_
_atom_site_label
_atom_site_type_symbol
_atom_site_fract_x
_atom_site_fract_y
_atom_site_fract_z
C1 C 0.1633(2) 0.67601(15) 0.13414(17)
H1 H 0.1717 0.6859 0.0270
N1 N 0.28379(19) 0.57377(12) 0.20519(17)
C2 C 0.3713(2) 0.56729(15) 0.3624(2)
C3 C 0.3712(2) 0.68024(16) 0.46018(19)
H2 H 0.2830 0.6705 0.5185
H3 H 0.4879 0.6884 0.5365
N2 N 0.33129(18) 0.79204(12) 0.36619(16)
H4 H 0.3800 0.8649 0.4173
C4 C 0.2203(2) 0.79607(14) 0.21875(18)
C5 C -0.0379(2) 0.64734(15) 0.12152(18)
H5 H -0.1127 0.7100 0.0588
H6 H -0.0701 0.5708 0.0665
C6 C -0.07667(19) 0.63972(14) 0.28069(18)
C7 C -0.0522(2) 0.53149(15) 0.3676(2)
H7 H -0.0137 0.4592 0.3233
C8 C -0.0822(2) 0.52540(16) 0.5165(2)
H8 H -0.0626 0.4497 0.5750
C9 C -0.1403(2) 0.62818(17) 0.5819(2)
C10 C -0.1686(3) 0.73641(16) 0.4960(2)
H9 H -0.2102 0.8080 0.5393
C11 C -0.1370(2) 0.74145(15) 0.3473(2)
H10 H -0.1572 0.8171 0.2887
C12 C 0.2830(3) 0.46603(19) 0.1067(3)
H11 H 0.1656 0.4578 0.0316
H12 H 0.3043 0.3945 0.1734
O1 O 0.4482(2) 0.47383(13) 0.42576(19)
O2 O 0.16307(19) 0.89282(11) 0.14931(15)
O3 O -0.1778(3) 0.62715(14) 0.72616(17)
H13 H -0.1684 0.5561 0.7618
C13 C 0.4220(4) 0.4724(4) 0.0186(5)
F1 F 0.431(2) 0.3684(16) -0.066(2)
F2 F 0.5621(10) 0.5278(12) 0.0782(13)
F3 F 0.3397(14) 0.5628(12) -0.1212(10)
F4? F 0.5964(11) 0.4629(11) 0.1364(14)
F5? F 0.4246(17) 0.5512(11) -0.0640(16)
F6? F 0.430(3) 0.411(3) -0.074(5)
F7? F 0.441(5) 0.351(3) -0.034(4)
loop_
_geom_bond_atom_site_label_1
_geom_bond_atom_site_label_2
_geom_bond_site_symmetry_1
_geom_bond_site_symmetry_2
C1 H1 1_555 1_555
N1 C1 1_555 1_555
C2 N1 1_555 1_555
C3 C2 1_555 1_555
H2 C3 1_555 1_555
H3 C3 1_555 1_555
N2 C3 1_555 1_555
H4 N2 1_555 1_555
C4 C1 1_555 1_555
C5 C1 1_555 1_555
H5 C5 1_555 1_555
H6 C5 1_555 1_555
C6 C5 1_555 1_555
C7 C6 1_555 1_555
H7 C7 1_555 1_555
C8 C7 1_555 1_555
H8 C8 1_555 1_555
C9 C8 1_555 1_555
C10 C9 1_555 1_555
H9 C10 1_555 1_555
C11 C6 1_555 1_555
H10 C11 1_555 1_555
C12 N1 1_555 1_555
H11 C12 1_555 1_555
H12 C12 1_555 1_555
O1 C2 1_555 1_555
O2 C4 1_555 1_555
O3 C9 1_555 1_555
H13 O3 1_555 1_555
C13 C12 1_555 1_555
F1 C13 1_555 1_555
F2 C13 1_555 1_555
F3 C13 1_555 1_555
N2 C4 1_555 1_555
C10 C11 1_555 1_555

#END
