
#######################################################################
#
#                 Cambridge Crystallographic Data Centre
#                                CCDC 
#
#######################################################################
#
# If this CIF has been generated from an entry in the Cambridge 
# Structural Database, then it will include bibliographic, chemical, 
# crystal, experimental, refinement or atomic coordinate data resulting 
# from the CCDC's data processing and validation procedures.
#
#######################################################################

data_NAZGOM
_chemical_formula_moiety         'C21 H26 O5,H2 O1,2(C5 H9 N1 O2),C2 H6 O1'
_chemical_name_systematic        
'(2S,3R,4R,5S,6R)-2-(3-(4-Ethylbenzyl)-phenyl)-6-hydroxymethyl-tetrahydro-2H-pyran-3,4,5-triol bis(L-proline) ethanol solvate monohydrate'
_symmetry_cell_setting           triclinic
_symmetry_space_group_name_H-M   'P 1'
_symmetry_Int_Tables_number      1
_space_group_name_Hall           'P 1'
loop_
_symmetry_equiv_pos_site_id
_symmetry_equiv_pos_as_xyz
1 x,y,z
_cell_length_a                   10.2120
_cell_length_b                   5.7299
_cell_length_c                   14.9901
_cell_angle_alpha                94.175
_cell_angle_beta                 86.074
_cell_angle_gamma                89.281
_cell_volume                     872.611
_cell_formula_units_Z            1
loop_
_atom_site_label
_atom_site_type_symbol
_atom_site_fract_x
_atom_site_fract_y
_atom_site_fract_z
O1 O -0.169900 0.715400 0.566200
O2 O -0.302261 0.508489 0.717901
O3 O -0.434958 0.186137 0.524128
O4 O -0.143238 0.420114 0.407643
C1 C -0.319766 0.175945 0.462873
C2 C -0.223473 0.482365 0.563726
C3 C -0.343566 0.473515 0.628774
O5 O -0.629468 0.384178 0.654908
C4 C -0.405971 0.235237 0.615869
C5 C -0.255912 0.418332 0.468514
C6 C -0.083551 -0.180424 0.115917
C7 C -0.362861 0.104728 0.372114
C8 C -0.465432 0.221171 0.338385
C9 C -0.134696 -0.363059 0.163051
C10 C -0.046695 -0.533061 0.186166
C11 C -0.533360 0.212793 0.672338
C12 C -0.301152 -0.087959 0.322547
C13 C 0.084634 -0.521449 0.162809
C14 C 0.048623 -0.171185 0.094152
C15 C -0.505930 0.154213 0.254756
C16 C -0.342813 -0.161167 0.238956
C17 C -0.281411 -0.376485 0.185752
C18 C 0.133563 -0.338147 0.116571
C19 C 0.349283 -0.516693 0.041253
C20 C -0.445514 -0.038518 0.206013
C21 C 0.281811 -0.324089 0.094296
H1 H -0.220200 -0.186000 0.349400
H2 H -0.514800 0.364700 0.380100
H3 H -0.582500 0.266800 0.226000
H4 H -0.487800 -0.094300 0.143000
H5 H -0.332100 -0.425100 0.128300
H6 H -0.295000 -0.528100 0.231900
H7 H -0.149900 -0.045400 0.097800
H8 H -0.084500 -0.687100 0.223200
H9 H 0.159700 -0.641900 0.181300
H10 H 0.085100 -0.023800 0.056700
H11 H -0.250800 0.051000 0.482600
H12 H -0.325900 0.548400 0.450900
H13 H -0.415700 0.607400 0.616500
H14 H -0.149700 0.362400 0.580300
H15 H -0.340000 0.107500 0.635200
H16 H -0.511900 0.232200 0.742300
H17 H -0.569700 0.039100 0.657300
H18 H -0.071600 0.324700 0.430400
H19 H -0.683700 0.318700 0.606400
H20 H 0.303000 -0.169900 0.060300
H21 H 0.328300 -0.311200 0.158500
H22 H 0.454400 -0.491300 0.036100
H23 H 0.330400 -0.681200 0.072400
H24 H 0.313900 -0.532000 -0.025100
H25 H -0.162100 0.774200 0.630100
H26 H -0.380100 0.552300 0.760100
O6 O 0.172506 1.262302 0.553278
O7 O 0.030409 1.100598 0.461660
N1 N 0.098643 0.664058 0.481509
C22 C 0.121573 1.090298 0.510260
C23 C 0.183204 0.849002 0.523619
C24 C 0.271087 0.760859 0.373290
C25 C 0.313884 0.813644 0.468701
C26 C 0.145238 0.626871 0.384654
H27 H 0.185400 0.825100 0.594200
H28 H 0.373000 0.968500 0.474200
H29 H 0.370500 0.666700 0.490400
H30 H 0.164100 0.443900 0.362800
H31 H 0.073300 0.694600 0.340700
H32 H 0.252300 0.921400 0.340600
H33 H 0.343400 0.656100 0.330400
H34 H 0.003700 0.714700 0.486700
H35 H 0.107600 0.514900 0.511600
O8 O 0.067980 0.831518 0.741514
O9 O -0.118677 1.011363 0.716015
C27 C 0.051876 1.238917 0.776265
N2 N -0.050328 1.428270 0.780365
C28 C -0.095994 1.487250 0.876766
C29 C 0.094655 1.236329 0.871218
C30 C -0.033600 1.298747 0.926379
C31 C -0.006561 1.005031 0.741301
H36 H 0.128900 1.060000 0.884500
H37 H 0.169300 1.358400 0.885500
H38 H -0.014700 1.365000 0.994500
H39 H -0.096800 1.147500 0.931600
H40 H -0.066300 1.657200 0.901100
H41 H -0.203100 1.477500 0.885500
H42 H 0.137200 1.277600 0.730100
H43 H -0.124400 1.380400 0.743500
H44 H -0.011500 1.572100 0.754200
O10 O -0.695101 0.697843 0.796095
H45 H -0.776000 0.768900 0.774700
H46 H -0.639900 0.627400 0.743300
O11 O -0.453996 0.779855 0.838592
C32 C -0.428529 1.008821 0.884880
C33 C -0.381260 1.009242 0.933784
H47 H -0.376483 1.112109 0.836954
H48 H -0.522467 1.091174 0.905683
H49 H -0.370090 1.187202 0.960845
H50 H -0.431625 0.910047 0.983804
H51 H -0.285642 0.930982 0.915075
H52 H -0.556495 0.770354 0.825338
loop_
_geom_bond_atom_site_label_1
_geom_bond_atom_site_label_2
_geom_bond_site_symmetry_1
_geom_bond_site_symmetry_2
O1 C2 1_555 1_555
O2 C3 1_555 1_555
O3 C1 1_555 1_555
O4 C5 1_555 1_555
C1 C5 1_555 1_555
C2 C3 1_555 1_555
C3 C4 1_555 1_555
O5 C11 1_555 1_555
C4 O3 1_555 1_555
C5 C2 1_555 1_555
C6 C9 1_555 1_555
C7 C1 1_555 1_555
C8 C7 1_555 1_555
C9 C10 1_555 1_555
C10 C13 1_555 1_555
C11 C4 1_555 1_555
C12 C7 1_555 1_555
C13 C18 1_555 1_555
C14 C6 1_555 1_555
C15 C8 1_555 1_555
C16 C12 1_555 1_555
C17 C9 1_555 1_555
C18 C14 1_555 1_555
C19 C21 1_555 1_555
C20 C15 1_555 1_555
C21 C18 1_555 1_555
H1 C12 1_555 1_555
H2 C8 1_555 1_555
H3 C15 1_555 1_555
H4 C20 1_555 1_555
H5 C17 1_555 1_555
H6 C17 1_555 1_555
H7 C6 1_555 1_555
H8 C10 1_555 1_555
H9 C13 1_555 1_555
H10 C14 1_555 1_555
H11 C1 1_555 1_555
H12 C5 1_555 1_555
H13 C3 1_555 1_555
H14 C2 1_555 1_555
H15 C4 1_555 1_555
H16 C11 1_555 1_555
H17 C11 1_555 1_555
H18 O4 1_555 1_555
H19 O5 1_555 1_555
H20 C21 1_555 1_555
H21 C21 1_555 1_555
H22 C19 1_555 1_555
H23 C19 1_555 1_555
H24 C19 1_555 1_555
H25 O1 1_555 1_555
H26 O2 1_555 1_555
O6 C22 1_555 1_555
O7 C22 1_555 1_555
N1 C23 1_555 1_555
C22 C23 1_555 1_555
C23 C25 1_555 1_555
C24 C25 1_555 1_555
C25 H28 1_555 1_555
C26 N1 1_555 1_555
H27 C23 1_555 1_555
H29 C25 1_555 1_555
H30 C26 1_555 1_555
H31 C26 1_555 1_555
H32 C24 1_555 1_555
H33 C24 1_555 1_555
H34 N1 1_555 1_555
H35 N1 1_555 1_555
O8 C31 1_555 1_555
O9 C31 1_555 1_555
C27 N2 1_555 1_555
N2 C28 1_555 1_555
C28 C30 1_555 1_555
C29 C27 1_555 1_555
C30 C29 1_555 1_555
C31 C27 1_555 1_555
H36 C29 1_555 1_555
H37 C29 1_555 1_555
H38 C30 1_555 1_555
H39 C30 1_555 1_555
H40 C28 1_555 1_555
H41 C28 1_555 1_555
H42 C27 1_555 1_555
H43 N2 1_555 1_555
H44 N2 1_555 1_555
O10 H45 1_555 1_555
H46 O10 1_555 1_555
O11 C32 1_555 1_555
C32 C33 1_555 1_555
C33 H49 1_555 1_555
H47 C32 1_555 1_555
H48 C32 1_555 1_555
H50 C33 1_555 1_555
H51 C33 1_555 1_555
H52 O11 1_555 1_555
C16 C17 1_555 1_555
C16 C20 1_555 1_555
C24 C26 1_555 1_555

#END
