
#######################################################################
#
#                 Cambridge Crystallographic Data Centre
#                                CCDC 
#
#######################################################################
#
# If this CIF has been generated from an entry in the Cambridge 
# Structural Database, then it will include bibliographic, chemical, 
# crystal, experimental, refinement or atomic coordinate data resulting 
# from the CCDC's data processing and validation procedures.
#
#######################################################################

data_NAZGIG
_chemical_formula_moiety         'C21 H26 O5,4(H2 O1),2(C5 H9 N1 O2)'
_chemical_name_systematic        
'(2S,3R,4R,5S,6R)-2-(3-(4-Ethylbenzyl)-phenyl)-6-hydroxymethyl-tetrahydro-2H-pyran-3,4,5-triol bis(L-proline) tetrahydrate'
_symmetry_cell_setting           monoclinic
_symmetry_space_group_name_H-M   'P 21'
_symmetry_Int_Tables_number      4
_space_group_name_Hall           'P 2yb'
loop_
_symmetry_equiv_pos_site_id
_symmetry_equiv_pos_as_xyz
1 x,y,z
2 -x,1/2+y,-z
_cell_length_a                   10.1513
_cell_length_b                   5.7569
_cell_length_c                   29.4922
_cell_angle_alpha                90
_cell_angle_beta                 98.637
_cell_angle_gamma                90
_cell_volume                     1703.98
_cell_formula_units_Z            2
loop_
_atom_site_label
_atom_site_type_symbol
_atom_site_fract_x
_atom_site_fract_y
_atom_site_fract_z
O1 O -0.26630 0.08480 0.26812
O2 O -0.00930 0.34756 0.20962
O3 O -0.07276 0.37488 0.36743
O4 O 0.01352 0.60926 0.29103
O5 O -0.42374 0.24743 0.33293
C1 C -0.23711 0.02752 0.19063
C2 C -0.14380 0.35339 0.32171
C3 C -0.16713 0.08750 0.23778
C4 C -0.04036 0.38040 0.28964
C5 C -0.10408 0.33066 0.24021
C6 C -0.19027 -0.15088 0.16667
C7 C -0.20779 0.11761 0.31543
C8 C -0.20561 -0.42494 0.09949
C9 C -0.32070 0.07661 0.34326
C10 C -0.07241 -0.38928 0.08295
C11 C -0.25464 -0.21774 0.12344
C12 C -0.35104 0.15082 0.17164
C13 C -0.36761 -0.09578 0.10488
C14 C -0.04648 -0.19153 0.05919
C15 C 0.16874 -0.32974 0.04861
C16 C 0.07249 -0.16900 0.04250
C17 C 0.02405 -0.55826 0.08938
C18 C -0.41602 0.08807 0.12842
C19 C 0.14578 -0.52519 0.07284
C20 C 0.29743 -0.29158 0.02654
C21 C 0.38471 -0.49239 0.02597
H1 H -0.09090 -0.03740 0.24880
H2 H -0.28300 0.08170 0.37940
H3 H -0.36390 -0.09390 0.33470
H4 H -0.13240 -0.01190 0.32520
H5 H -0.21780 0.49220 0.31510
H6 H 0.03990 0.25970 0.30000
H7 H -0.18190 0.46110 0.23030
H8 H -0.10290 -0.24660 0.18250
H9 H -0.38880 0.29430 0.19070
H10 H -0.50240 0.18550 0.11230
H11 H -0.41920 -0.14920 0.07140
H12 H -0.27970 -0.46080 0.06910
H13 H -0.19920 -0.56930 0.12200
H14 H -0.12020 -0.05150 0.05330
H15 H 0.08870 -0.01450 0.02290
H16 H 0.22350 -0.65500 0.07860
H17 H 0.01020 -0.71910 0.10720
H18 H -0.50000 0.17840 0.31150
H19 H 0.27130 -0.23750 -0.00960
H20 H 0.35760 -0.15390 0.04440
H21 H 0.02110 0.67420 0.32270
H22 H 0.06010 0.22420 0.21750
H23 H -0.13060 0.45540 0.38740
H24 H 0.47660 -0.44990 0.01260
H25 H 0.41170 -0.55880 0.06060
H26 H 0.33500 -0.63120 0.00470
O6 O 0.17311 1.00722 0.23317
O7 O 0.34963 1.15576 0.27726
N1 N 0.25285 0.57220 0.24199
C22 C 0.28516 0.99355 0.25710
C23 C 0.46368 0.72646 0.23493
C24 C 0.34941 0.75188 0.26268
C25 C 0.39008 0.68950 0.18599
C26 C 0.26531 0.55177 0.19154
H27 H 0.27750 0.37520 0.18240
H28 H 0.17860 0.62610 0.17070
H29 H 0.52540 0.87980 0.23720
H30 H 0.52430 0.57660 0.24580
H31 H 0.36100 0.85900 0.16950
H32 H 0.44910 0.59850 0.16450
H33 H 0.15980 0.62340 0.24560
H34 H 0.27260 0.42190 0.25820
H35 H 0.37860 0.71610 0.29890
N2 N 0.20495 1.29753 0.39902
O8 O 0.10020 0.88738 0.37163
O9 O 0.29428 0.71211 0.37274
C27 C 0.22329 0.88817 0.37822
C28 C 0.29868 1.10404 0.39306
C29 C 0.35589 1.29254 0.46752
C30 C 0.21239 1.34261 0.45007
C31 C 0.38817 1.08014 0.43973
H36 H 0.18400 1.51640 0.45750
H37 H 0.14710 1.22110 0.46540
H38 H 0.23100 1.44200 0.38350
H39 H 0.11190 1.25280 0.38500
H40 H 0.41740 1.43830 0.46040
H41 H 0.37230 1.25790 0.50390
H42 H 0.36300 0.92150 0.45740
H43 H 0.49230 1.07480 0.43690
H44 H 0.35870 1.15530 0.36670
O10 O -0.05227 0.93976 0.44530
H45 H -0.06338 1.07490 0.44979
H46 H 0.00518 0.92002 0.41754
O11 O -0.13242 1.24111 0.48218
H47 H -0.06273 1.31606 0.50955
H48 H -0.16861 1.37467 0.45774
O12 O -0.44972 0.58129 0.39411
H49 H -0.44090 0.45750 0.37060
H50 H -0.54510 0.63920 0.38870
O13 O -0.20291 0.58139 0.42982
H51 H -0.14440 0.72200 0.43670
H52 H -0.29420 0.63380 0.41590
loop_
_geom_bond_atom_site_label_1
_geom_bond_atom_site_label_2
_geom_bond_site_symmetry_1
_geom_bond_site_symmetry_2
O1 C3 1_555 1_555
O2 C5 1_555 1_555
O3 C2 1_555 1_555
O4 C4 1_555 1_555
O5 C9 1_555 1_555
C1 C3 1_555 1_555
C2 C4 1_555 1_555
C3 C5 1_555 1_555
C4 C5 1_555 1_555
C5 H7 1_555 1_555
C6 C1 1_555 1_555
C7 O1 1_555 1_555
C8 C10 1_555 1_555
C9 C7 1_555 1_555
C10 C14 1_555 1_555
C11 C6 1_555 1_555
C12 C1 1_555 1_555
C13 C11 1_555 1_555
C14 C16 1_555 1_555
C15 C16 1_555 1_555
C16 H15 1_555 1_555
C17 C10 1_555 1_555
C18 C12 1_555 1_555
C19 C15 1_555 1_555
C20 C15 1_555 1_555
C21 C20 1_555 1_555
H1 C3 1_555 1_555
H2 C9 1_555 1_555
H3 C9 1_555 1_555
H4 C7 1_555 1_555
H5 C2 1_555 1_555
H6 C4 1_555 1_555
H8 C6 1_555 1_555
H9 C12 1_555 1_555
H10 C18 1_555 1_555
H11 C13 1_555 1_555
H12 C8 1_555 1_555
H13 C8 1_555 1_555
H14 C14 1_555 1_555
H16 C19 1_555 1_555
H17 C17 1_555 1_555
H18 O5 1_555 1_555
H19 C20 1_555 1_555
H20 C20 1_555 1_555
H21 O4 1_555 1_555
H22 O2 1_555 1_555
H23 O3 1_555 1_555
H24 C21 1_555 1_555
H25 C21 1_555 1_555
H26 C21 1_555 1_555
O6 C22 1_555 1_555
O7 C22 1_555 1_555
N1 C24 1_555 1_555
C22 C24 1_555 1_555
C23 C24 1_555 1_555
C24 H35 1_555 1_555
C25 C23 1_555 1_555
C26 N1 1_555 1_555
H27 C26 1_555 1_555
H28 C26 1_555 1_555
H29 C23 1_555 1_555
H30 C23 1_555 1_555
H31 C25 1_555 1_555
H32 C25 1_555 1_555
H33 N1 1_555 1_555
H34 N1 1_555 1_555
N2 C28 1_555 1_555
O8 C27 1_555 1_555
O9 C27 1_555 1_555
C27 C28 1_555 1_555
C28 C31 1_555 1_555
C29 C30 1_555 1_555
C30 N2 1_555 1_555
C31 C29 1_555 1_555
H36 C30 1_555 1_555
H37 C30 1_555 1_555
H38 N2 1_555 1_555
H39 N2 1_555 1_555
H40 C29 1_555 1_555
H41 C29 1_555 1_555
H42 C31 1_555 1_555
H43 C31 1_555 1_555
H44 C28 1_555 1_555
O10 H45 1_555 1_555
H46 O10 1_555 1_555
O11 H47 1_555 1_555
H48 O11 1_555 1_555
O12 H49 1_555 1_555
H50 O12 1_555 1_555
O13 H51 1_555 1_555
H52 O13 1_555 1_555
C2 C7 1_555 1_555
C8 C11 1_555 1_555
C13 C18 1_555 1_555
C17 C19 1_555 1_555
C25 C26 1_555 1_555

#END
