
#######################################################################
#
#                 Cambridge Crystallographic Data Centre
#                                CCDC 
#
#######################################################################
#
# If this CIF has been generated from an entry in the Cambridge 
# Structural Database, then it will include bibliographic, chemical, 
# crystal, experimental, refinement or atomic coordinate data resulting 
# from the CCDC's data processing and validation procedures.
#
#######################################################################

data_NAZKAB
_chemical_formula_moiety         'C16 H24 O9 S2'
_chemical_name_systematic        
'Ethyl 2,3,4,6-tetra-O-acetyl-\b-D-galactopyranosyl disulfide'
_symmetry_cell_setting           monoclinic
_symmetry_space_group_name_H-M   'P 21'
_symmetry_Int_Tables_number      4
_space_group_name_Hall           'P 2yb'
loop_
_symmetry_equiv_pos_site_id
_symmetry_equiv_pos_as_xyz
1 x,y,z
2 -x,1/2+y,-z
_cell_length_a                   10.3524(2)
_cell_length_b                   9.7016(2)
_cell_length_c                   31.2564(5)
_cell_angle_alpha                90
_cell_angle_beta                 94.7012(5)
_cell_angle_gamma                90
_cell_volume                     3128.67
_exptl_crystal_colour            colorless
_chemical_melting_point          65-67deg.C
_cell_formula_units_Z            6
loop_
_atom_site_label
_atom_site_type_symbol
_atom_site_fract_x
_atom_site_fract_y
_atom_site_fract_z
C1 C 0.1423(3) 0.5978(4) 0.26877(11)
C2 C 0.0599(3) 0.5437(4) 0.30347(11)
C3 C 0.1356(3) 0.4398(4) 0.33260(11)
C4 C 0.2025(3) 0.3320(3) 0.30700(11)
C5 C 0.2837(3) 0.4046(4) 0.27572(11)
O1 O 0.2024(2) 0.4893(2) 0.24737(8)
S1 S 0.04743(11) 0.6969(1) 0.22829(3)
S2 S -0.0879(1) 0.55963(11) 0.20397(3)
C6 C -0.0066(4) 0.4725(5) 0.16226(14)
C7 C -0.1044(5) 0.3744(6) 0.13922(18)
O2 O 0.0341(2) 0.6591(2) 0.33055(8)
C8 C -0.0908(4) 0.6947(4) 0.33532(14)
O3 O -0.1816(3) 0.6360(4) 0.31650(13)
C9 C -0.0966(5) 0.8117(4) 0.36603(16)
O4 O 0.0425(2) 0.3769(3) 0.35833(7)
C10 C 0.0934(4) 0.3134(4) 0.39472(11)
O5 O 0.2072(3) 0.3186(3) 0.40665(8)
C11 C -0.0078(4) 0.2367(4) 0.41591(12)
O6 O 0.1083(2) 0.2474(2) 0.28278(7)
C12 C 0.0760(3) 0.1263(4) 0.30055(11)
O7 O 0.1187(2) 0.0875(3) 0.33525(8)
C13 C -0.0205(4) 0.0492(4) 0.27112(13)
C14 C 0.3530(3) 0.3060(4) 0.24790(12)
O8 O 0.4472(2) 0.3836(3) 0.22626(8)
C15 C 0.4304(4) 0.3908(5) 0.18324(12)
O9 O 0.3449(3) 0.3346(4) 0.1621(1)
C16 C 0.5334(5) 0.4791(6) 0.16618(15)
H1 H 0.2093 0.6579 0.2842
H2 H -0.0198 0.4994 0.2894
H3 H 0.2062 0.4870 0.3508
H4 H 0.2575 0.2727 0.3273
H5 H 0.3497 0.4595 0.2936
H6 H 0.0235 0.5416 0.1415
H7 H 0.0695 0.4195 0.1753
H8 H -0.0625 0.3247 0.1160
H9 H -0.1804 0.4282 0.1264
H10 H -0.1344 0.3061 0.1602
H11 H -0.0066 0.8395 0.3766
H12 H -0.1452 0.7824 0.3909
H13 H -0.1419 0.8915 0.3512
H14 H -0.0936 0.2501 0.3993
H15 H -0.0123 0.2722 0.4458
H16 H 0.0143 0.1364 0.4169
H17 H -0.0403 0.1036 0.2442
H18 H -0.1020 0.0351 0.2857
H19 H 0.0164 -0.0423 0.2639
H20 H 0.3977 0.2329 0.2662
H21 H 0.2893 0.2621 0.2263
H22 H 0.5930 0.5137 0.1906
H23 H 0.4920 0.5590 0.1502
H24 H 0.5837 0.4233 0.1464
C17 C 0.3707(4) -0.1684(4) 0.06784(15)
C18 C 0.2856(4) -0.1111(4) 0.02994(13)
C19 C 0.3533(4) -0.0034(4) 0.00477(13)
C20 C 0.4235(4) 0.1015(4) 0.03398(12)
C21 C 0.5082(4) 0.0266(4) 0.06841(14)
O10 O 0.4314(3) -0.0602(3) 0.09296(9)
S3 S 0.28057(16) -0.27047(13) 0.10397(5)
S4 S 0.13452(13) -0.14245(15) 0.11767(4)
C22 C 0.2018(6) -0.0315(7) 0.16113(15)
C23 C 0.1066(6) 0.0902(7) 0.1638(2)
O11 O 0.2551(3) -0.2266(3) 0.0011(1)
C24 C 0.1296(4) -0.2655(4) -0.00553(12)
O12 O 0.0422(3) -0.2073(3) 0.0097(1)
C25 C 0.1147(4) -0.3889(5) -0.03405(14)
O13 O 0.2532(2) 0.0634(3) -0.02242(8)
C26 C 0.2890(4) 0.1220(5) -0.05882(12)
O14 O 0.3949(3) 0.1077(4) -0.0711(1)
C27 C 0.1827(5) 0.2053(5) -0.08027(14)
O15 O 0.3312(2) 0.1812(3) 0.05542(8)
C28 C 0.3001(4) 0.3074(4) 0.03965(12)
O16 O 0.3489(3) 0.3574(3) 0.0095(1)
C29 C 0.1983(4) 0.3727(4) 0.06422(13)
C30 C 0.5796(4) 0.1238(5) 0.10028(14)
O17 O 0.6741(3) 0.0431(4) 0.1260(1)
C31 C 0.6639(5) 0.0288(5) 0.16754(16)
O18 O 0.5891(5) 0.0951(5) 0.18649(12)
C32 C 0.7487(5) -0.0828(6) 0.18684(17)
H25 H 0.4360 -0.2278 0.0548
H26 H 0.2080 -0.0666 0.0412
H27 H 0.4203 -0.0474 -0.0121
H28 H 0.4762 0.1624 0.0164
H29 H 0.5720 -0.0267 0.0526
H30 H 0.2095 -0.0836 0.1888
H31 H 0.2892 0.0031 0.1547
H32 H 0.1395 0.1542 0.1873
H33 H 0.0195 0.0543 0.1699
H34 H 0.0991 0.1409 0.1358
H35 H 0.2017 -0.4181 -0.0425
H36 H 0.0750 -0.4659 -0.0184
H37 H 0.0574 -0.3654 -0.0604
H38 H 0.1049 0.1998 -0.0634
H39 H 0.2112 0.3035 -0.0820
H40 H 0.1603 0.1688 -0.1099
H41 H 0.1753 0.3090 0.0876
H42 H 0.2321 0.4613 0.0771
H43 H 0.1195 0.3916 0.0444
H44 H 0.6241 0.1975 0.0846
H45 H 0.5172 0.1670 0.1191
H46 H 0.8018 -0.1220 0.1645
H47 H 0.8074 -0.0441 0.2109
H48 H 0.6938 -0.1571 0.1981
C33 C 0.4906(3) 0.1457(4) 0.41132(11)
C34 C 0.5343(3) 0.0798(4) 0.3707(1)
C35 C 0.4271(3) -0.0057(4) 0.34757(11)
C36 C 0.3661(3) -0.1034(3) 0.37817(11)
C37 C 0.3230(3) -0.0214(4) 0.41588(12)
O19 O 0.4331(2) 0.0467(3) 0.43729(7)
S5 S 0.6218(1) 0.22458(12) 0.44449(3)
S6 S 0.74795(9) 0.06614(14) 0.45718(3)
C38 C 0.6807(7) -0.0591(7) 0.4952(2)
C39 C 0.6336(7) 0.0214(7) 0.5329(2)
O20 O 0.5632(2) 0.1907(3) 0.34201(8)
C42 C 0.6858(4) 0.1954(4) 0.32876(12)
O21 O 0.7689(3) 0.1151(3) 0.3405(1)
C43 C 0.7001(4) 0.3140(5) 0.29927(15)
O22 O 0.4872(2) -0.0826(3) 0.31486(8)
C44 C 0.4086(4) -0.1187(4) 0.27980(12)
O23 O 0.2977(3) -0.0816(4) 0.27385(9)
C45 C 0.4784(5) -0.2093(5) 0.25069(15)
O24 O 0.4635(2) -0.2017(2) 0.39483(8)
C46 C 0.4681(4) -0.3251(4) 0.37488(13)
O25 O 0.3904(3) -0.3594(3) 0.3461(1)
C47 C 0.5823(5) -0.4058(5) 0.39216(16)
C48 C 0.2659(4) -0.1108(4) 0.44871(12)
O26 O 0.2229(3) -0.0233(3) 0.48220(8)
C49 C 0.1024(4) -0.0439(4) 0.49394(11)
O27 O 0.0279(3) -0.1252(3) 0.47721(11)
C50 C 0.0759(4) 0.0501(5) 0.53020(13)
H49 H 0.4270 0.2183 0.4009
H50 H 0.6103 0.0188 0.3788
H51 H 0.3558 0.0551 0.3349
H52 H 0.2908 -0.1519 0.3627
H53 H 0.2557 0.0450 0.4038
H54 H 0.7498 -0.1255 0.5059
H55 H 0.6067 -0.1107 0.4802
H61 H 0.5973 -0.0441 0.5535
H62 H 0.7078 0.0731 0.5478
H63 H 0.5647 0.0879 0.5221
H64 H 0.6158 0.3643 0.2948
H65 H 0.7683 0.3780 0.3122
H66 H 0.7259 0.2794 0.2711
H67 H 0.5694 -0.2241 0.2632
H68 H 0.4329 -0.3001 0.2475
H69 H 0.4796 -0.1644 0.2219
H70 H 0.6303 -0.3530 0.4159
H71 H 0.5528 -0.4959 0.4034
H72 H 0.6407 -0.4228 0.3688
H73 H 0.3330 -0.1767 0.4612
H74 H 0.1906 -0.1635 0.4349
H75 H 0.1543 0.1077 0.5382
H76 H 0.0546 -0.0060 0.5555
H77 H 0.0010 0.1115 0.5211
C40? C 0.674(1) -0.0084(9) 0.5038(3)
C41? C 0.6697(9) -0.1611(9) 0.4934(3)
H56? H 0.6307 -0.2123 0.5169
H57? H 0.7598 -0.1954 0.4907
H58? H 0.6161 -0.1763 0.4657
H59? H 0.7284 0.0100 0.5311
H60? H 0.5847 0.0291 0.5062
loop_
_geom_bond_atom_site_label_1
_geom_bond_atom_site_label_2
_geom_bond_site_symmetry_1
_geom_bond_site_symmetry_2
C1 C2 1_555 1_555
C2 C3 1_555 1_555
C3 C4 1_555 1_555
C4 C5 1_555 1_555
C5 O1 1_555 1_555
O1 C1 1_555 1_555
S1 C1 1_555 1_555
S2 S1 1_555 1_555
C6 S2 1_555 1_555
C7 C6 1_555 1_555
O2 C2 1_555 1_555
C8 O2 1_555 1_555
O3 C8 1_555 1_555
C9 C8 1_555 1_555
O4 C3 1_555 1_555
C10 O4 1_555 1_555
O5 C10 1_555 1_555
C11 C10 1_555 1_555
O6 C4 1_555 1_555
C12 O6 1_555 1_555
O7 C12 1_555 1_555
C13 C12 1_555 1_555
C14 C5 1_555 1_555
O8 C14 1_555 1_555
C15 O8 1_555 1_555
O9 C15 1_555 1_555
C16 C15 1_555 1_555
C17 C18 1_555 1_555
C18 C19 1_555 1_555
C19 C20 1_555 1_555
C20 C21 1_555 1_555
C21 O10 1_555 1_555
O10 C17 1_555 1_555
S3 C17 1_555 1_555
S4 S3 1_555 1_555
C22 S4 1_555 1_555
C23 C22 1_555 1_555
O11 C18 1_555 1_555
C24 O11 1_555 1_555
O12 C24 1_555 1_555
C25 C24 1_555 1_555
O13 C19 1_555 1_555
C26 O13 1_555 1_555
O14 C26 1_555 1_555
C27 C26 1_555 1_555
O15 C20 1_555 1_555
C28 O15 1_555 1_555
O16 C28 1_555 1_555
C29 C28 1_555 1_555
C30 C21 1_555 1_555
O17 C30 1_555 1_555
C31 O17 1_555 1_555
O18 C31 1_555 1_555
C32 C31 1_555 1_555
C33 C34 1_555 1_555
C34 C35 1_555 1_555
C35 C36 1_555 1_555
C36 C37 1_555 1_555
C37 O19 1_555 1_555
O19 C33 1_555 1_555
S5 C33 1_555 1_555
S6 S5 1_555 1_555
C38 S6 1_555 1_555
C39 C38 1_555 1_555
O20 C34 1_555 1_555
C42 O20 1_555 1_555
O21 C42 1_555 1_555
C43 C42 1_555 1_555
O22 C35 1_555 1_555
C44 O22 1_555 1_555
O23 C44 1_555 1_555
C45 C44 1_555 1_555
O24 C36 1_555 1_555
C46 O24 1_555 1_555
O25 C46 1_555 1_555
C47 C46 1_555 1_555
C48 C37 1_555 1_555
O26 C48 1_555 1_555
C49 O26 1_555 1_555
O27 C49 1_555 1_555
C50 C49 1_555 1_555
H1 C1 1_555 1_555
H2 C2 1_555 1_555
H3 C3 1_555 1_555
H4 C4 1_555 1_555
H5 C5 1_555 1_555
H6 C6 1_555 1_555
H7 C6 1_555 1_555
H8 C7 1_555 1_555
H9 C7 1_555 1_555
H10 C7 1_555 1_555
H11 C9 1_555 1_555
H12 C9 1_555 1_555
H13 C9 1_555 1_555
H14 C11 1_555 1_555
H15 C11 1_555 1_555
H16 C11 1_555 1_555
H17 C13 1_555 1_555
H18 C13 1_555 1_555
H19 C13 1_555 1_555
H20 C14 1_555 1_555
H21 C14 1_555 1_555
H22 C16 1_555 1_555
H23 C16 1_555 1_555
H24 C16 1_555 1_555
H25 C17 1_555 1_555
H26 C18 1_555 1_555
H27 C19 1_555 1_555
H28 C20 1_555 1_555
H29 C21 1_555 1_555
H30 C22 1_555 1_555
H31 C22 1_555 1_555
H32 C23 1_555 1_555
H33 C23 1_555 1_555
H34 C23 1_555 1_555
H35 C25 1_555 1_555
H36 C25 1_555 1_555
H37 C25 1_555 1_555
H38 C27 1_555 1_555
H39 C27 1_555 1_555
H40 C27 1_555 1_555
H41 C29 1_555 1_555
H42 C29 1_555 1_555
H43 C29 1_555 1_555
H44 C30 1_555 1_555
H45 C30 1_555 1_555
H46 C32 1_555 1_555
H47 C32 1_555 1_555
H48 C32 1_555 1_555
H49 C33 1_555 1_555
H50 C34 1_555 1_555
H51 C35 1_555 1_555
H52 C36 1_555 1_555
H53 C37 1_555 1_555
H54 C38 1_555 1_555
H55 C38 1_555 1_555
H61 C39 1_555 1_555
H62 C39 1_555 1_555
H63 C39 1_555 1_555
H64 C43 1_555 1_555
H65 C43 1_555 1_555
H66 C43 1_555 1_555
H67 C45 1_555 1_555
H68 C45 1_555 1_555
H69 C45 1_555 1_555
H70 C47 1_555 1_555
H71 C47 1_555 1_555
H72 C47 1_555 1_555
H73 C48 1_555 1_555
H74 C48 1_555 1_555
H75 C50 1_555 1_555
H76 C50 1_555 1_555
H77 C50 1_555 1_555

#END
