
#######################################################################
#
#                 Cambridge Crystallographic Data Centre
#                                CCDC 
#
#######################################################################
#
# If this CIF has been generated from an entry in the Cambridge 
# Structural Database, then it will include bibliographic, chemical, 
# crystal, experimental, refinement or atomic coordinate data resulting 
# from the CCDC's data processing and validation procedures.
#
#######################################################################

data_NAZRIS
_chemical_formula_moiety         'C36 H22 O2,C4 H8 O2'
_chemical_name_systematic        
"1,1'-bibenzo[c]phenanthrene-2,2'-diol ethyl acetate solvate"
_symmetry_cell_setting           monoclinic
_symmetry_space_group_name_H-M   'P 21/c'
_symmetry_Int_Tables_number      14
_space_group_name_Hall           '-P 2ybc'
loop_
_symmetry_equiv_pos_site_id
_symmetry_equiv_pos_as_xyz
1 x,y,z
2 -x,1/2+y,1/2-z
3 -x,-y,-z
4 x,1/2-y,1/2+z
_cell_length_a                   10.188(3)
_cell_length_b                   22.163(6)
_cell_length_c                   13.398(3)
_cell_angle_alpha                90
_cell_angle_beta                 107.990(4)
_cell_angle_gamma                90
_cell_volume                     2877.32
_exptl_crystal_colour            colorless
_exptl_crystal_description       Prism
_chemical_melting_point          '543-548 K'
_cell_formula_units_Z            4
loop_
_atom_site_label
_atom_site_type_symbol
_atom_site_fract_x
_atom_site_fract_y
_atom_site_fract_z
C1 C 0.61989(17) 0.40091(7) 0.50151(13)
C2 C 0.52249(19) 0.42255(7) 0.41171(13)
C3 C 0.39122(19) 0.44229(7) 0.40917(15)
H1 H 0.331556 0.46089 0.348053
C4 C 0.35066(19) 0.43438(7) 0.49558(14)
H2 H 0.259005 0.44446 0.492939
C5 C 0.44259(19) 0.41142(8) 0.58927(14)
C6 C 0.3914(2) 0.39483(8) 0.67274(15)
H3 H 0.298152 0.403237 0.667704
C7 C 0.4740(2) 0.36728(8) 0.75901(15)
H4 H 0.435566 0.350602 0.809099
C8 C 0.61821(19) 0.36306(7) 0.77535(13)
C9 C 0.7061(2) 0.33704(8) 0.86946(14)
H5 H 0.666132 0.318865 0.917392
C10 C 0.8440(2) 0.33749(8) 0.89228(14)
H6 H 0.899452 0.316105 0.951863
C11 C 0.9079(2) 0.36992(8) 0.82760(14)
C12 C 1.0514(2) 0.37844(8) 0.85770(15)
H7 H 1.108145 0.358748 0.918799
C13 C 1.1111(2) 0.41436(8) 0.80118(14)
H8 H 1.208696 0.418292 0.821175
C14 C 1.02728(19) 0.44547(8) 0.71323(14)
H9 H 1.067885 0.472355 0.676
C15 C 0.88740(19) 0.43724(7) 0.68094(13)
H10 H 0.831955 0.459099 0.621953
C16 C 0.82350(18) 0.39696(7) 0.73334(13)
C17 C 0.67611(19) 0.38654(7) 0.70008(13)
C18 C 0.58328(18) 0.40084(7) 0.59714(13)
C19 C 0.74951(17) 0.37224(7) 0.49385(13)
C20 C 0.83837(19) 0.40307(8) 0.45173(14)
C21 C 0.97190(19) 0.38293(8) 0.46180(14)
H11 H 1.02652 0.402951 0.425937
C22 C 1.02268(19) 0.33424(8) 0.52371(14)
H12 H 1.116193 0.322654 0.536379
C23 C 0.93828(19) 0.30090(8) 0.56910(14)
C24 C 0.9969(2) 0.25532(8) 0.64581(15)
H13 H 1.091684 0.24511 0.66171
C25 C 0.9179(2) 0.22687(8) 0.69550(15)
H14 H 0.960276 0.201426 0.7536
C26 C 0.7728(2) 0.23437(8) 0.66230(14)
C27 C 0.6887(2) 0.20065(8) 0.70974(15)
H15 H 0.731574 0.17687 0.770012
C28 C 0.5499(2) 0.20170(8) 0.67111(14)
H16 H 0.496558 0.18147 0.707763
C29 C 0.48252(19) 0.23257(7) 0.57657(14)
C30 C 0.3399(2) 0.22662(8) 0.52700(15)
H17 H 0.285588 0.205723 0.562096
C31 C 0.2775(2) 0.25005(8) 0.42988(15)
H18 H 0.180481 0.246589 0.398455
C32 C 0.35865(19) 0.27943(7) 0.37684(14)
H19 H 0.317136 0.293957 0.307513
C33 C 0.49702(19) 0.28720(7) 0.42449(14)
H20 H 0.550178 0.306841 0.387039
C34 C 0.56324(18) 0.26693(7) 0.52758(13)
C35 C 0.70966(18) 0.27336(7) 0.57831(13)
C36 C 0.79657(18) 0.31510(8) 0.54365(13)
O1 O 0.55574(12) 0.42157(5) 0.31977(9)
H21 H 0.485239 0.42956 0.269201
O2 O 0.80783(13) 0.45906(5) 0.40607(10)
H22 H 0.724487 0.460063 0.369314
C37 C 0.0988(2) 0.44520(10) 0.12177(16)
H23 H 0.115324 0.412232 0.172908
H24 H 0.030559 0.432407 0.056067
H25 H 0.063934 0.48052 0.149642
C38 C 0.2289(2) 0.46088(10) 0.10175(15)
C39 C 0.3330(2) 0.51979(10) 0.00015(18)
H26 H 0.377971 0.483695 -0.01823
H27 H 0.399909 0.540204 0.060342
C40 C 0.2881(3) 0.56166(10) -0.09158(19)
H28 H 0.222645 0.540867 -0.150858
H29 H 0.368671 0.574461 -0.111422
H30 H 0.243409 0.597111 -0.072595
O3 O 0.21121(14) 0.50235(6) 0.02730(10)
O4 O 0.34043(16) 0.43912(8) 0.14585(11)
loop_
_geom_bond_atom_site_label_1
_geom_bond_atom_site_label_2
_geom_bond_site_symmetry_1
_geom_bond_site_symmetry_2
C1 C2 1_555 1_555
C2 C3 1_555 1_555
C3 H1 1_555 1_555
C4 C3 1_555 1_555
H2 C4 1_555 1_555
C5 C4 1_555 1_555
C6 C5 1_555 1_555
H3 C6 1_555 1_555
C7 C6 1_555 1_555
H4 C7 1_555 1_555
C8 C7 1_555 1_555
C9 C8 1_555 1_555
H5 C9 1_555 1_555
C10 C9 1_555 1_555
H6 C10 1_555 1_555
C11 C10 1_555 1_555
C12 C11 1_555 1_555
H7 C12 1_555 1_555
C13 C12 1_555 1_555
H8 C13 1_555 1_555
C14 C13 1_555 1_555
H9 C14 1_555 1_555
C15 C14 1_555 1_555
H10 C15 1_555 1_555
C16 C11 1_555 1_555
C17 C8 1_555 1_555
C18 C1 1_555 1_555
C19 C1 1_555 1_555
C20 C19 1_555 1_555
C21 C20 1_555 1_555
H11 C21 1_555 1_555
C22 C21 1_555 1_555
H12 C22 1_555 1_555
C23 C22 1_555 1_555
C24 C23 1_555 1_555
H13 C24 1_555 1_555
C25 C24 1_555 1_555
H14 C25 1_555 1_555
C26 C25 1_555 1_555
C27 C26 1_555 1_555
H15 C27 1_555 1_555
C28 C27 1_555 1_555
H16 C28 1_555 1_555
C29 C28 1_555 1_555
C30 C29 1_555 1_555
H17 C30 1_555 1_555
C31 C30 1_555 1_555
H18 C31 1_555 1_555
C32 C31 1_555 1_555
H19 C32 1_555 1_555
C33 C32 1_555 1_555
H20 C33 1_555 1_555
C34 C29 1_555 1_555
C35 C26 1_555 1_555
C36 C19 1_555 1_555
O1 C2 1_555 1_555
H21 O1 1_555 1_555
O2 C20 1_555 1_555
H22 O2 1_555 1_555
C37 H23 1_555 1_555
H24 C37 1_555 1_555
H25 C37 1_555 1_555
C38 C37 1_555 1_555
C39 H26 1_555 1_555
H27 C39 1_555 1_555
C40 C39 1_555 1_555
H28 C40 1_555 1_555
H29 C40 1_555 1_555
H30 C40 1_555 1_555
O3 C38 1_555 1_555
O4 C38 1_555 1_555
C5 C18 1_555 1_555
C15 C16 1_555 1_555
C16 C17 1_555 1_555
C17 C18 1_555 1_555
C23 C36 1_555 1_555
C33 C34 1_555 1_555
C34 C35 1_555 1_555
C35 C36 1_555 1_555
C39 O3 1_555 1_555

#END
