
#######################################################################
#
#                 Cambridge Crystallographic Data Centre
#                                CCDC 
#
#######################################################################
#
# If this CIF has been generated from an entry in the Cambridge 
# Structural Database, then it will include bibliographic, chemical, 
# crystal, experimental, refinement or atomic coordinate data resulting 
# from the CCDC's data processing and validation procedures.
#
#######################################################################

data_NAZZIY
_chemical_formula_moiety         'C57 H62 N4 O2 S2'
_chemical_name_systematic        
2,7-bis(5-(5-(4-t-Butylphenyl)-1,3,4-oxadiazol-2-yl)thien-2-yl)-9,9-di-n-hexylfluorene
_symmetry_cell_setting           triclinic
_symmetry_space_group_name_H-M   'P -1'
_symmetry_Int_Tables_number      2
_space_group_name_Hall           '-P 1'
loop_
_symmetry_equiv_pos_site_id
_symmetry_equiv_pos_as_xyz
1 x,y,z
2 -x,-y,-z
_cell_length_a                   16.095(2)
_cell_length_b                   16.647(2)
_cell_length_c                   19.390(2)
_cell_angle_alpha                82.61(1)
_cell_angle_beta                 87.70(1)
_cell_angle_gamma                72.94(1)
_cell_volume                     4925.36
_exptl_crystal_colour            yellow
_exptl_crystal_description       needle
_chemical_melting_point          '526.0 K'
_cell_formula_units_Z            4
_exptl_crystal_recrystallization_method toluene/ethanol
loop_
_atom_site_label
_atom_site_type_symbol
_atom_site_fract_x
_atom_site_fract_y
_atom_site_fract_z
S1 S 0.54469(6) 0.83101(5) 0.18247(5)
S2 S -0.03389(6) 1.11149(5) -0.23718(4)
O1 O 0.60979(14) 0.74225(13) 0.37942(11)
O2 O -0.17254(14) 1.27060(12) -0.39232(10)
N1 N 0.68900(19) 0.78138(18) 0.29384(14)
N2 N 0.74345(18) 0.74318(18) 0.35144(15)
N3 N -0.20571(19) 1.16338(17) -0.32932(14)
N4 N -0.26954(18) 1.19954(18) -0.38143(15)
C1 C 0.3062(2) 0.90270(18) 0.09190(17)
H1 H 0.2705 0.8884 0.1295
C2 C 0.3953(2) 0.88798(19) 0.10139(17)
C3 C 0.4461(2) 0.9061(2) 0.04534(17)
H2 H 0.5077 0.8930 0.0515
C4 C 0.4094(2) 0.94368(19) -0.01888(17)
H3 H 0.4449 0.9562 -0.0573
C5 C 0.2797(2) 1.0474(2) -0.14884(17)
H4 H 0.3382 1.0456 -0.1620
C6 C 0.2117(2) 1.0909(2) -0.19242(17)
H5 H 0.2226 1.1209 -0.2358
C7 C 0.1258(2) 1.09281(19) -0.17510(16)
C8 C 0.1097(2) 1.04871(18) -0.11161(16)
H6 H 0.0516 1.0481 -0.0992
C9 C 0.1754(2) 0.95893(19) 0.00543(16)
C10 C 0.2694(2) 0.93837(19) 0.02769(17)
C11 C 0.3202(2) 0.96172(19) -0.02699(17)
C12 C 0.2629(2) 1.00569(19) -0.08509(16)
C13 C 0.1774(2) 1.00643(19) -0.06683(16)
C14 C 0.4339(2) 0.85470(19) 0.17107(18)
C15 C 0.3938(2) 0.8414(2) 0.23265(18)
H7 H 0.3323 0.8504 0.2365
C16 C 0.4514(2) 0.8124(2) 0.28912(18)
H8 H 0.4331 0.8000 0.3360
C17 C 0.5359(2) 0.80470(19) 0.27073(16)
C18 C 0.6122(2) 0.7786(2) 0.31233(18)
C19 C 0.6949(2) 0.7211(2) 0.39937(18)
C20 C 0.7196(2) 0.6764(2) 0.46868(18)
C21 C 0.8058(2) 0.6288(2) 0.48026(18)
H9 H 0.8472 0.6256 0.4430
C22 C 0.8316(2) 0.5868(2) 0.54585(19)
H10 H 0.8904 0.5521 0.5534
C23 C 0.7739(2) 0.5919(2) 0.60108(18)
C24 C 0.6881(2) 0.6407(2) 0.58849(18)
H11 H 0.6471 0.6445 0.6261
C25 C 0.6610(2) 0.6818(2) 0.52271(18)
H12 H 0.6015 0.7144 0.5148
C26 C 0.8033(2) 0.5422(2) 0.67244(18)
C27 C 0.8976(2) 0.5373(3) 0.68672(19)
H13 H 0.9353 0.5126 0.6493
H14 H 0.9157 0.5017 0.7309
H15 H 0.9019 0.5942 0.6897
C28 C 0.7467(3) 0.5800(2) 0.73072(17)
H16 H 0.7680 0.5463 0.7751
H17 H 0.6870 0.5800 0.7233
H18 H 0.7483 0.6382 0.7317
C29 C 0.7984(3) 0.4524(2) 0.67146(19)
H19 H 0.8352 0.4259 0.6343
H20 H 0.7379 0.4550 0.6633
H21 H 0.8176 0.4188 0.7163
C30 C 0.0558(2) 1.1432(2) -0.22271(15)
C31 C 0.0532(2) 1.2171(2) -0.26300(16)
H22 H 0.0971 1.2454 -0.2620
C32 C -0.0198(2) 1.2477(2) -0.30623(16)
H23 H -0.0317 1.2991 -0.3377
C33 C -0.0733(2) 1.1978(2) -0.29914(15)
C34 C -0.1506(2) 1.2072(2) -0.33767(16)
C35 C -0.2482(2) 1.2616(2) -0.41625(17)
C36 C -0.2932(2) 1.3199(2) -0.47512(17)
C37 C -0.2760(2) 1.3953(2) -0.49684(16)
H24 H -0.2304 1.4092 -0.4750
C38 C -0.3241(2) 1.4519(2) -0.54945(17)
H25 H -0.3113 1.5042 -0.5643
C39 C -0.3910(2) 1.4340(2) -0.58184(18)
C40 C -0.4055(2) 1.3566(2) -0.5609(2)
H26 H -0.4490 1.3418 -0.5847
C41 C -0.3580(2) 1.3006(2) -0.50858(19)
H27 H -0.3698 1.2477 -0.4946
C42 C -0.4498(5) 1.5093(5) -0.6286(4)
C43 C -0.4956(4) 1.5839(4) -0.5919(3)
H28 H -0.5315 1.6281 -0.6256
H29 H -0.4527 1.6056 -0.5719
H30 H -0.5325 1.5674 -0.5547
C44 C -0.5202(5) 1.4786(4) -0.6612(4)
H31 H -0.4928 1.4294 -0.6855
H32 H -0.5545 1.5248 -0.6942
H33 H -0.5584 1.4633 -0.6244
C45 C -0.3956(4) 1.5366(5) -0.6902(3)
H34 H -0.3654 1.4880 -0.7144
H35 H -0.3529 1.5602 -0.6723
H36 H -0.4346 1.5799 -0.7227
C50 C 0.1130(2) 1.0149(2) 0.05409(16)
H46 H 0.0532 1.0277 0.0362
H47 H 0.1152 0.9817 0.1005
C51 C 0.1293(2) 1.0981(2) 0.06328(16)
H48 H 0.1291 1.1311 0.0170
H49 H 0.1877 1.0860 0.0836
C52 C 0.0634(2) 1.1506(2) 0.10936(17)
H50 H 0.0049 1.1605 0.0900
H51 H 0.0652 1.1182 0.1561
C53 C 0.0767(2) 1.2352(2) 0.11682(17)
H52 H 0.0739 1.2681 0.0703
H53 H 0.1355 1.2254 0.1357
C54 C 0.0105(3) 1.2872(3) 0.1638(2)
H54 H -0.0485 1.2958 0.1458
H55 H 0.0144 1.2553 0.2109
C55 C 0.0233(3) 1.3718(3) 0.1689(2)
H56 H -0.0209 1.4028 0.1997
H57 H 0.0183 1.4042 0.1226
H58 H 0.0811 1.3637 0.1878
C56 C 0.1475(2) 0.87771(19) 0.00394(17)
H59 H 0.0797 0.8983 -0.0029
H60 H 0.1562 0.8348 0.0520
C57 C 0.1859(4) 0.8220(5) -0.0584(4)
H61 H 0.1521 0.7818 -0.0621
H62 H 0.1771 0.8616 -0.1020
C58 C 0.2791(5) 0.7740(5) -0.0569(4)
H63 H 0.2897 0.7424 -0.0097
H64 H 0.3123 0.8158 -0.0607
C59 C 0.3093(6) 0.7232(6) -0.1215(5)
H65 H 0.3087 0.6653 -0.1024
H66 H 0.2775 0.7393 -0.1661
C60 C 0.4084(5) 0.6816(6) -0.1258(5)
H67 H 0.4383 0.7261 -0.1276
H68 H 0.4278 0.6418 -0.0831
C61 C 0.4329(5) 0.6382(5) -0.1833(4)
H69 H 0.4962 0.6141 -0.1839
H70 H 0.4142 0.6772 -0.2258
H71 H 0.4055 0.5925 -0.1808
S3 S 0.42322(7) 0.20998(6) 0.22655(5)
S4 S 0.13484(6) 0.51618(6) -0.33525(5)
O3 O 0.53719(15) 0.05260(14) 0.39144(12)
O4 O 0.04383(15) 0.73799(15) -0.45261(12)
N5 N 0.4880(2) 0.19286(19) 0.37802(17)
N6 N 0.5285(2) 0.1656(2) 0.44368(16)
N7 N 0.0407(2) 0.61093(19) -0.47468(16)
N8 N -0.00576(19) 0.6727(2) -0.52747(15)
C67 C 0.3603(2) 0.2828(2) 0.07466(18)
H83 H 0.3787 0.3148 0.1049
C68 C 0.3704(2) 0.1966(2) 0.09471(18)
C69 C 0.3424(2) 0.1514(2) 0.04923(19)
H84 H 0.3465 0.0935 0.0629
C70 C 0.3078(2) 0.1901(2) -0.01549(19)
H85 H 0.2903 0.1580 -0.0461
C71 C 0.2371(2) 0.3144(2) -0.1589(2)
H86 H 0.2347 0.2592 -0.1643
C72 C 0.2093(2) 0.3811(2) -0.2124(2)
H87 H 0.1875 0.3712 -0.2542
C73 C 0.2138(2) 0.4619(2) -0.2057(2)
C74 C 0.2470(2) 0.4766(2) -0.14464(19)
H88 H 0.2511 0.5313 -0.1397
C75 C 0.3141(2) 0.4124(2) -0.02213(18)
C76 C 0.3263(2) 0.3214(2) 0.01046(19)
C77 C 0.3004(2) 0.2747(2) -0.03507(19)
C78 C 0.2680(2) 0.3306(2) -0.0986(2)
C79 C 0.2747(2) 0.4108(2) -0.09123(18)
C80 C 0.4084(2) 0.1533(2) 0.16139(18)
C81 C 0.4360(2) 0.0690(2) 0.18398(19)
H89 H 0.4332 0.0267 0.1564
C82 C 0.4689(2) 0.0493(2) 0.25195(19)
H90 H 0.4904 -0.0068 0.2745
C83 C 0.4670(2) 0.1185(2) 0.28192(19)
C84 C 0.4948(2) 0.1251(2) 0.3494(2)
C85 C 0.5565(2) 0.0841(2) 0.44913(19)
C86 C 0.6101(2) 0.0276(2) 0.50343(19)
C87 C 0.6351(3) 0.0619(2) 0.55700(19)
H91 H 0.6102 0.1203 0.5610
C88 C 0.6950(3) 0.0123(3) 0.60567(19)
H92 H 0.7119 0.0381 0.6415
C89 C 0.7315(3) -0.0746(2) 0.60338(18)
C90 C 0.7014(2) -0.1082(2) 0.55062(19)
H93 H 0.7218 -0.1675 0.5487
C91 C 0.6421(2) -0.0588(2) 0.50122(19)
H94 H 0.6240 -0.0842 0.4657
C92 C 0.8038(3) -0.1259(3) 0.6544(2)
C93 C 0.7732(3) -0.1127(3) 0.7277(2)
H95 H 0.8198 -0.1457 0.7597
H96 H 0.7214 -0.1317 0.7379
H97 H 0.7595 -0.0526 0.7335
C94 C 0.8325(3) -0.2193(3) 0.6434(3)
H98 H 0.8788 -0.2494 0.6767
H99 H 0.8544 -0.2256 0.5960
H100 H 0.7835 -0.2430 0.6514
C95 C 0.8816(3) -0.0909(3) 0.6379(2)
H101 H 0.9290 -0.1229 0.6696
H102 H 0.8652 -0.0309 0.6448
H103 H 0.9007 -0.0971 0.5898
C99 C 0.1816(2) 0.5318(2) -0.26178(19)
C100 C 0.1811(2) 0.6143(2) -0.2644(2)
H113 H 0.2042 0.6354 -0.2287
C101 C 0.1415(2) 0.6647(2) -0.32519(19)
H114 H 0.1358 0.7234 -0.3350
C102 C 0.1128(2) 0.6207(2) -0.36841(19)
C103 C 0.0674(2) 0.6519(2) -0.4326(2)
C104 C -0.0033(2) 0.7448(3) -0.51146(19)
C105 C -0.0460(2) 0.8297(2) -0.54711(18)
C106 C -0.0128(2) 0.8968(2) -0.54734(17)
H115 H 0.0408 0.8890 -0.5249
C107 C -0.0564(2) 0.9757(2) -0.58126(16)
H116 H -0.0323 1.0213 -0.5810
C108 C -0.1350(2) 0.9901(2) -0.61516(17)
C109 C -0.1676(2) 0.9212(2) -0.61488(18)
H117 H -0.2211 0.9285 -0.6373
C110 C -0.1234(2) 0.8416(2) -0.58116(18)
H118 H -0.1462 0.7952 -0.5821
C111 C -0.1827(2) 1.0779(2) -0.65085(18)
C112 C -0.1241(2) 1.1047(2) -0.70788(18)
H119 H -0.1547 1.1610 -0.7308
H120 H -0.1102 1.0643 -0.7422
H121 H -0.0703 1.1065 -0.6871
C113 C -0.2039(3) 1.1394(2) -0.59578(18)
H122 H -0.2345 1.1959 -0.6183
H123 H -0.1501 1.1410 -0.5748
H124 H -0.2409 1.1212 -0.5596
C114 C -0.2681(2) 1.0818(2) -0.6845(2)
H125 H -0.2954 1.1396 -0.7063
H126 H -0.3073 1.0654 -0.6492
H127 H -0.2562 1.0429 -0.7199
C115 C 0.4014(2) 0.4324(2) -0.03256(17)
H128 H 0.3905 0.4912 -0.0553
H129 H 0.4261 0.4296 0.0139
C116 C 0.4681(2) 0.3741(2) -0.07522(17)
H130 H 0.4415 0.3723 -0.1199
H131 H 0.4838 0.3162 -0.0500
C117 C 0.5503(2) 0.4008(2) -0.09010(17)
H132 H 0.5349 0.4586 -0.1155
H133 H 0.5773 0.4025 -0.0456
C118 C 0.6158(2) 0.3419(2) -0.13223(18)
H134 H 0.5898 0.3437 -0.1780
H135 H 0.6271 0.2835 -0.1085
C119 C 0.7013(2) 0.3619(2) -0.14430(19)
H136 H 0.6909 0.4191 -0.1702
H137 H 0.7268 0.3622 -0.0988
C120 C 0.7659(2) 0.2981(2) -0.1849(2)
H138 H 0.8201 0.3137 -0.1915
H139 H 0.7414 0.2982 -0.2303
H140 H 0.7778 0.2415 -0.1589
C121 C 0.2534(2) 0.4775(2) 0.0207(2)
H141 H 0.2875 0.4809 0.0610
H142 H 0.2413 0.5331 -0.0083
C122 C 0.1718(4) 0.4720(4) 0.0446(3)
H143 H 0.1805 0.4208 0.0788
H144 H 0.1394 0.4642 0.0049
C123 C 0.1141(4) 0.5491(4) 0.0799(3)
H145 H 0.0617 0.5352 0.0997
H146 H 0.1466 0.5589 0.1187
C124 C 0.0866(4) 0.6286(4) 0.0301(3)
H147 H 0.0510 0.6193 -0.0069
H148 H 0.1393 0.6393 0.0077
C125 C 0.0342(4) 0.7101(5) 0.0629(4)
H149 H 0.0674 0.7193 0.1015
H150 H 0.0238 0.7603 0.0273
C126 C -0.0514(4) 0.6975(4) 0.0892(3)
H151 H -0.0847 0.7475 0.1105
H152 H -0.0406 0.6474 0.1240
H153 H -0.0845 0.6899 0.0505
C46? C -0.4456(6) 1.4875(5) -0.6487(4)
C47? C -0.4375(5) 1.4433(5) -0.7118(4)
H37? H -0.4555 1.3918 -0.7010
H38? H -0.3770 1.4285 -0.7276
H39? H -0.4747 1.4811 -0.7486
C48? C -0.4197(5) 1.5677(5) -0.6639(4)
H40? H -0.4253 1.5949 -0.6214
H41? H -0.4578 1.6061 -0.6999
H42? H -0.3594 1.5547 -0.6801
C49? C -0.5402(5) 1.5105(5) -0.6225(4)
H43? H -0.5448 1.5395 -0.5810
H44? H -0.5577 1.4588 -0.6109
H45? H -0.5783 1.5479 -0.6589
C62? C 0.2050(5) 0.8063(4) -0.0218(3)
H72? H 0.1850 0.7561 -0.0064
H73? H 0.2637 0.7956 -0.0023
C63? C 0.2089(5) 0.8164(4) -0.1016(3)
H74? H 0.2344 0.8629 -0.1174
H75? H 0.1499 0.8317 -0.1216
C64? C 0.2548(5) 0.7337(5) -0.1306(4)
H76? H 0.2415 0.7362 -0.1803
H77? H 0.2377 0.6855 -0.1052
C65? C 0.3404(6) 0.6878(7) -0.1045(6)
H78? H 0.3385 0.6738 -0.0534
H79? H 0.3625 0.6344 -0.1255
C66? C 0.3947(7) 0.7390(7) -0.1220(6)
H80? H 0.4538 0.7086 -0.1060
H81? H 0.3733 0.7909 -0.0997
H82? H 0.3949 0.7537 -0.1725
C96? C 0.882(2) -0.177(2) 0.6273(16)
H104? H 0.9216 -0.2051 0.6660
H105? H 0.9101 -0.1421 0.5952
H106? H 0.8690 -0.2193 0.6027
C97? C 0.829(2) -0.0725(18) 0.7117(15)
H107? H 0.7760 -0.0354 0.7306
H108? H 0.8644 -0.0381 0.6889
H109? H 0.8617 -0.1122 0.7495
C98? C 0.7688(17) -0.1934(17) 0.7064(14)
H110? H 0.7137 -0.1652 0.7280
H111? H 0.8121 -0.2210 0.7426
H112? H 0.7602 -0.2359 0.6791
C127? C 0.1504(6) 0.4617(6) 0.0176(5)
H154? H 0.1393 0.4529 -0.0303
H155? H 0.1500 0.4097 0.0487
C128? C 0.0766(5) 0.5377(5) 0.0401(4)
H156? H 0.0698 0.5867 0.0039
H157? H 0.0216 0.5222 0.0423
C129? C 0.0912(6) 0.5648(6) 0.1101(5)
H158? H 0.1425 0.5864 0.1065
H159? H 0.1040 0.5145 0.1456
C130? C 0.0153(5) 0.6304(5) 0.1344(4)
H160? H -0.0369 0.6107 0.1337
H161? H 0.0248 0.6372 0.1832
C131? C -0.0025(8) 0.7129(7) 0.0922(6)
H162? H -0.0549 0.7520 0.1094
H163? H -0.0109 0.7068 0.0436
H164? H 0.0470 0.7351 0.0955
loop_
_geom_bond_atom_site_label_1
_geom_bond_atom_site_label_2
_geom_bond_site_symmetry_1
_geom_bond_site_symmetry_2
S1 C14 1_555 1_555
S2 C30 1_555 1_555
O1 C18 1_555 1_555
O2 C34 1_555 1_555
N1 N2 1_555 1_555
N2 C19 1_555 1_555
N3 N4 1_555 1_555
N4 C35 1_555 1_555
C1 H1 1_555 1_555
C2 C1 1_555 1_555
C3 C2 1_555 1_555
H2 C3 1_555 1_555
C4 C3 1_555 1_555
H3 C4 1_555 1_555
C5 H4 1_555 1_555
C6 C5 1_555 1_555
H5 C6 1_555 1_555
C7 C6 1_555 1_555
C8 C7 1_555 1_555
H6 C8 1_555 1_555
C9 C10 1_555 1_555
C10 C1 1_555 1_555
C11 C4 1_555 1_555
C12 C5 1_555 1_555
C13 C8 1_555 1_555
C14 C2 1_555 1_555
C15 C14 1_555 1_555
H7 C15 1_555 1_555
C16 C15 1_555 1_555
H8 C16 1_555 1_555
C17 S1 1_555 1_555
C18 N1 1_555 1_555
C19 O1 1_555 1_555
C20 C19 1_555 1_555
C21 C20 1_555 1_555
H9 C21 1_555 1_555
C22 C21 1_555 1_555
H10 C22 1_555 1_555
C23 C22 1_555 1_555
C24 C23 1_555 1_555
H11 C24 1_555 1_555
C25 C20 1_555 1_555
H12 C25 1_555 1_555
C26 C23 1_555 1_555
C27 C26 1_555 1_555
H13 C27 1_555 1_555
H14 C27 1_555 1_555
H15 C27 1_555 1_555
C28 C26 1_555 1_555
H16 C28 1_555 1_555
H17 C28 1_555 1_555
H18 C28 1_555 1_555
C29 C26 1_555 1_555
H19 C29 1_555 1_555
H20 C29 1_555 1_555
H21 C29 1_555 1_555
C30 C7 1_555 1_555
C31 C30 1_555 1_555
H22 C31 1_555 1_555
C32 C31 1_555 1_555
H23 C32 1_555 1_555
C33 S2 1_555 1_555
C34 N3 1_555 1_555
C35 O2 1_555 1_555
C36 C35 1_555 1_555
C37 C36 1_555 1_555
H24 C37 1_555 1_555
C38 C37 1_555 1_555
H25 C38 1_555 1_555
C39 C38 1_555 1_555
C40 C39 1_555 1_555
H26 C40 1_555 1_555
C41 C36 1_555 1_555
H27 C41 1_555 1_555
C42 C39 1_555 1_555
C43 C42 1_555 1_555
H28 C43 1_555 1_555
H29 C43 1_555 1_555
H30 C43 1_555 1_555
C44 C42 1_555 1_555
H31 C44 1_555 1_555
H32 C44 1_555 1_555
H33 C44 1_555 1_555
C45 C42 1_555 1_555
H34 C45 1_555 1_555
H35 C45 1_555 1_555
H36 C45 1_555 1_555
C50 C9 1_555 1_555
H46 C50 1_555 1_555
H47 C50 1_555 1_555
C51 C50 1_555 1_555
H48 C51 1_555 1_555
H49 C51 1_555 1_555
C52 C51 1_555 1_555
H50 C52 1_555 1_555
H51 C52 1_555 1_555
C53 C52 1_555 1_555
H52 C53 1_555 1_555
H53 C53 1_555 1_555
C54 C53 1_555 1_555
H54 C54 1_555 1_555
H55 C54 1_555 1_555
C55 C54 1_555 1_555
H56 C55 1_555 1_555
H57 C55 1_555 1_555
H58 C55 1_555 1_555
C56 C9 1_555 1_555
H59 C56 1_555 1_555
H60 C56 1_555 1_555
C57 C56 1_555 1_555
H61 C57 1_555 1_555
H62 C57 1_555 1_555
C58 C57 1_555 1_555
H63 C58 1_555 1_555
H64 C58 1_555 1_555
C59 C58 1_555 1_555
H65 C59 1_555 1_555
H66 C59 1_555 1_555
C60 C59 1_555 1_555
H67 C60 1_555 1_555
H68 C60 1_555 1_555
C61 C60 1_555 1_555
H69 C61 1_555 1_555
H70 C61 1_555 1_555
H71 C61 1_555 1_555
S3 C80 1_555 1_555
S4 C99 1_555 1_555
O3 C84 1_555 1_555
O4 C103 1_555 1_555
N5 N6 1_555 1_555
N6 C85 1_555 1_555
N7 N8 1_555 1_555
N8 C104 1_555 1_555
C67 H83 1_555 1_555
C68 C67 1_555 1_555
C69 C68 1_555 1_555
H84 C69 1_555 1_555
C70 C69 1_555 1_555
H85 C70 1_555 1_555
C71 H86 1_555 1_555
C72 C71 1_555 1_555
H87 C72 1_555 1_555
C73 C72 1_555 1_555
C74 C73 1_555 1_555
H88 C74 1_555 1_555
C75 C76 1_555 1_555
C76 C67 1_555 1_555
C77 C70 1_555 1_555
C78 C71 1_555 1_555
C79 C74 1_555 1_555
C80 C68 1_555 1_555
C81 C80 1_555 1_555
H89 C81 1_555 1_555
C82 C81 1_555 1_555
H90 C82 1_555 1_555
C83 S3 1_555 1_555
C84 N5 1_555 1_555
C85 O3 1_555 1_555
C86 C85 1_555 1_555
C87 C86 1_555 1_555
H91 C87 1_555 1_555
C88 C87 1_555 1_555
H92 C88 1_555 1_555
C89 C88 1_555 1_555
C90 C89 1_555 1_555
H93 C90 1_555 1_555
C91 C86 1_555 1_555
H94 C91 1_555 1_555
C92 C89 1_555 1_555
C93 C92 1_555 1_555
H95 C93 1_555 1_555
H96 C93 1_555 1_555
H97 C93 1_555 1_555
C94 C92 1_555 1_555
H98 C94 1_555 1_555
H99 C94 1_555 1_555
H100 C94 1_555 1_555
C95 C92 1_555 1_555
H101 C95 1_555 1_555
H102 C95 1_555 1_555
H103 C95 1_555 1_555
C99 C73 1_555 1_555
C100 C99 1_555 1_555
H113 C100 1_555 1_555
C101 C100 1_555 1_555
H114 C101 1_555 1_555
C102 S4 1_555 1_555
C103 N7 1_555 1_555
C104 O4 1_555 1_555
C105 C104 1_555 1_555
C106 C105 1_555 1_555
H115 C106 1_555 1_555
C107 C106 1_555 1_555
H116 C107 1_555 1_555
C108 C107 1_555 1_555
C109 C108 1_555 1_555
H117 C109 1_555 1_555
C110 C105 1_555 1_555
H118 C110 1_555 1_555
C111 C108 1_555 1_555
C112 C111 1_555 1_555
H119 C112 1_555 1_555
H120 C112 1_555 1_555
H121 C112 1_555 1_555
C113 C111 1_555 1_555
H122 C113 1_555 1_555
H123 C113 1_555 1_555
H124 C113 1_555 1_555
C114 C111 1_555 1_555
H125 C114 1_555 1_555
H126 C114 1_555 1_555
H127 C114 1_555 1_555
C115 C75 1_555 1_555
H128 C115 1_555 1_555
H129 C115 1_555 1_555
C116 C115 1_555 1_555
H130 C116 1_555 1_555
H131 C116 1_555 1_555
C117 C116 1_555 1_555
H132 C117 1_555 1_555
H133 C117 1_555 1_555
C118 C117 1_555 1_555
H134 C118 1_555 1_555
H135 C118 1_555 1_555
C119 C118 1_555 1_555
H136 C119 1_555 1_555
H137 C119 1_555 1_555
C120 C119 1_555 1_555
H138 C120 1_555 1_555
H139 C120 1_555 1_555
H140 C120 1_555 1_555
C121 C75 1_555 1_555
H141 C121 1_555 1_555
H142 C121 1_555 1_555
C122 C121 1_555 1_555
H143 C122 1_555 1_555
H144 C122 1_555 1_555
C123 C122 1_555 1_555
H145 C123 1_555 1_555
H146 C123 1_555 1_555
C124 C123 1_555 1_555
H147 C124 1_555 1_555
H148 C124 1_555 1_555
C125 C124 1_555 1_555
H149 C125 1_555 1_555
H150 C125 1_555 1_555
C126 C125 1_555 1_555
H151 C126 1_555 1_555
H152 C126 1_555 1_555
H153 C126 1_555 1_555
C9 C13 1_555 1_555
C10 C11 1_555 1_555
C11 C12 1_555 1_555
C12 C13 1_555 1_555
C16 C17 1_555 1_555
C17 C18 1_555 1_555
C24 C25 1_555 1_555
C32 C33 1_555 1_555
C33 C34 1_555 1_555
C40 C41 1_555 1_555
C75 C79 1_555 1_555
C76 C77 1_555 1_555
C77 C78 1_555 1_555
C78 C79 1_555 1_555
C82 C83 1_555 1_555
C83 C84 1_555 1_555
C90 C91 1_555 1_555
C101 C102 1_555 1_555
C102 C103 1_555 1_555
C109 C110 1_555 1_555

#END
