
#######################################################################
#
#                 Cambridge Crystallographic Data Centre
#                                CCDC 
#
#######################################################################
#
# If this CIF has been generated from an entry in the Cambridge 
# Structural Database, then it will include bibliographic, chemical, 
# crystal, experimental, refinement or atomic coordinate data resulting 
# from the CCDC's data processing and validation procedures.
#
#######################################################################

data_NBZOAO06
_chemical_formula_moiety         'C7 H5 N1 O4'
_chemical_name_systematic        '2-nitrobenzoic acid'
_symmetry_cell_setting           monoclinic
_symmetry_space_group_name_H-M   'P 21/c'
_symmetry_Int_Tables_number      14
_space_group_name_Hall           '-P 2ybc'
loop_
_symmetry_equiv_pos_site_id
_symmetry_equiv_pos_as_xyz
1 x,y,z
2 -x,1/2+y,1/2-z
3 -x,-y,-z
4 x,1/2-y,1/2+z
_cell_length_a                   3.9356(4)
_cell_length_b                   7.2005(6)
_cell_length_c                   25.410(2)
_cell_angle_alpha                90
_cell_angle_beta                 90.578(9)
_cell_angle_gamma                90
_cell_volume                     720.039
_exptl_crystal_colour            colorless
_exptl_crystal_description       plate
_cell_formula_units_Z            4
loop_
_atom_site_label
_atom_site_type_symbol
_atom_site_fract_x
_atom_site_fract_y
_atom_site_fract_z
O1 O 0.4327(6) 0.7758(3) 0.48230(7)
H1 H 0.700(14) 1.063(6) 0.4701(14)
O2 O 0.7458(6) 0.9879(3) 0.44391(8)
O3 O 0.3444(6) 0.9865(3) 0.35515(10)
O4 O 0.6779(8) 0.9726(4) 0.28929(9)
N1 N 0.5646(5) 0.9107(3) 0.33003(8)
C1 C 0.7008(5) 0.6939(3) 0.40331(9)
C2 C 0.7000(6) 0.7330(3) 0.34994(9)
C3 C 0.8066(7) 0.6064(4) 0.31303(10)
H2 H 0.8027 0.6363 0.2774
C4 C 0.9192(8) 0.4346(4) 0.32961(12)
H3 H 0.9948 0.3481 0.3052
C5 C 0.9197(7) 0.3913(3) 0.38217(12)
H4 H 0.9951 0.2752 0.3932
C6 C 0.8094(7) 0.5184(3) 0.41869(10)
H5 H 0.8076 0.4864 0.4541
C7 C 0.6140(6) 0.8287(3) 0.44571(8)
loop_
_geom_bond_atom_site_label_1
_geom_bond_atom_site_label_2
_geom_bond_site_symmetry_1
_geom_bond_site_symmetry_2
O1 C7 1_555 1_555
H1 O2 1_555 1_555
O2 C7 1_555 1_555
O3 N1 1_555 1_555
O4 N1 1_555 1_555
N1 C2 1_555 1_555
C1 C2 1_555 1_555
C2 C3 1_555 1_555
C3 H2 1_555 1_555
C4 C3 1_555 1_555
H3 C4 1_555 1_555
C5 C4 1_555 1_555
H4 C5 1_555 1_555
C6 C1 1_555 1_555
H5 C6 1_555 1_555
C7 C1 1_555 1_555
C5 C6 1_555 1_555

#END
