
#######################################################################
#
#                 Cambridge Crystallographic Data Centre
#                                CCDC 
#
#######################################################################
#
# If this CIF has been generated from an entry in the Cambridge 
# Structural Database, then it will include bibliographic, chemical, 
# crystal, experimental, refinement or atomic coordinate data resulting 
# from the CCDC's data processing and validation procedures.
#
#######################################################################

data_NBZOAC01
_chemical_formula_moiety         'C7 H5 N1 O4'
_chemical_name_systematic        'p-Nitrobenzoic acid'
_symmetry_cell_setting           monoclinic
_symmetry_space_group_name_H-M   'A 2/a'
_symmetry_Int_Tables_number      15
_space_group_name_Hall           '-A 2yn'
loop_
_symmetry_equiv_pos_site_id
_symmetry_equiv_pos_as_xyz
1 x,y,z
2 x,1/2+y,1/2+z
3 1/2-x,y,-z
4 1/2-x,1/2+y,1/2-z
5 -x,-y,-z
6 -x,1/2-y,1/2-z
7 1/2+x,-y,z
8 1/2+x,1/2-y,1/2+z
_cell_length_a                   12.97
_cell_length_b                   5.07
_cell_length_c                   21.43
_cell_angle_alpha                90
_cell_angle_beta                 96.4
_cell_angle_gamma                90
_cell_volume                     1400.41
_cell_formula_units_Z            8
loop_
_atom_site_label
_atom_site_type_symbol
_atom_site_fract_x
_atom_site_fract_y
_atom_site_fract_z
C1 C 0.41630 -0.50130 0.08960
C2 C 0.48980 -0.35790 0.12930
C3 C 0.45900 -0.16550 0.16890
C4 C 0.35360 -0.11190 0.16660
C5 C 0.27900 -0.25080 0.12810
C6 C 0.31050 -0.44750 0.08960
C7 C 0.45250 -0.71220 0.04900
H1 H 0.40800 -0.96600 -0.00700
H2 H 0.56000 -0.39800 0.13100
H3 H 0.51200 -0.06900 0.20000
H4 H 0.21000 -0.18700 0.13000
H5 H 0.26100 -0.53000 0.06400
N1 N 0.31840 0.09330 0.20850
O1 O 0.54640 -0.75930 0.04870
O2 O 0.37980 -0.84150 0.01470
O3 O 0.38210 0.17830 0.25040
O4 O 0.22950 0.17220 0.19830
loop_
_geom_bond_atom_site_label_1
_geom_bond_atom_site_label_2
_geom_bond_site_symmetry_1
_geom_bond_site_symmetry_2
C1 C2 1_555 1_555
C2 C3 1_555 1_555
C3 C4 1_555 1_555
C4 C5 1_555 1_555
C5 C6 1_555 1_555
C6 C1 1_555 1_555
C7 C1 1_555 1_555
H1 O2 1_555 1_555
H2 C2 1_555 1_555
H3 C3 1_555 1_555
H4 C5 1_555 1_555
H5 C6 1_555 1_555
N1 C4 1_555 1_555
O1 C7 1_555 1_555
O2 C7 1_555 1_555
O3 N1 1_555 1_555
O4 N1 1_555 1_555

#END
