
#######################################################################
#
#                 Cambridge Crystallographic Data Centre
#                                CCDC 
#
#######################################################################
#
# If this CIF has been generated from an entry in the Cambridge 
# Structural Database, then it will include bibliographic, chemical, 
# crystal, experimental, refinement or atomic coordinate data resulting 
# from the CCDC's data processing and validation procedures.
#
#######################################################################

data_NBZOAO
_chemical_name_common            'o-Nitrobenzoic acid'
_chemical_formula_moiety         'C7 H5 N1 O4'
_chemical_name_systematic        '2-Nitrobenzoic acid'
_symmetry_cell_setting           triclinic
_symmetry_space_group_name_H-M   'P -1'
_symmetry_Int_Tables_number      2
_space_group_name_Hall           '-P 1'
loop_
_symmetry_equiv_pos_site_id
_symmetry_equiv_pos_as_xyz
1 x,y,z
2 -x,-y,-z
_cell_length_a                   7.550
_cell_length_b                   4.990
_cell_length_c                   12.500
_cell_angle_alpha                122.50
_cell_angle_beta                 95.30
_cell_angle_gamma                108.90
_cell_volume                     354.202
_cell_formula_units_Z            2
loop_
_atom_site_label
_atom_site_type_symbol
_atom_site_fract_x
_atom_site_fract_y
_atom_site_fract_z
C1 C -0.28120 -0.06280 0.19280
C2 C -0.23080 -0.09720 0.29310
C3 C -0.36390 -0.19130 0.35210
C4 C -0.55330 -0.23270 0.31300
C5 C -0.61180 -0.19280 0.21810
C6 C -0.47580 -0.10730 0.15680
C7 C -0.15530 -0.02340 0.11250
N1 N -0.02430 -0.01580 0.34700
O1 O -0.01870 -0.10660 0.10470
O2 O -0.19840 0.09520 0.04860
O3 O 0.10890 0.27590 0.39090
O4 O 0.00450 -0.23550 0.35020
loop_
_geom_bond_atom_site_label_1
_geom_bond_atom_site_label_2
_geom_bond_site_symmetry_1
_geom_bond_site_symmetry_2
C1 C2 1_555 1_555
C2 C3 1_555 1_555
C3 C4 1_555 1_555
C4 C5 1_555 1_555
C5 C6 1_555 1_555
C6 C1 1_555 1_555
C7 C1 1_555 1_555
N1 C2 1_555 1_555
O1 C7 1_555 1_555
O2 C7 1_555 1_555
O3 N1 1_555 1_555
O4 N1 1_555 1_555

#END
