
#######################################################################
#
#                 Cambridge Crystallographic Data Centre
#                                CCDC 
#
#######################################################################
#
# If this CIF has been generated from an entry in the Cambridge 
# Structural Database, then it will include bibliographic, chemical, 
# crystal, experimental, refinement or atomic coordinate data resulting 
# from the CCDC's data processing and validation procedures.
#
#######################################################################

data_NCRKTC10
_chemical_formula_moiety         'C22 H30 K1 O6 1+,C1 N1 S1 1-'
_chemical_name_systematic        '2,3-Naphtho-20-crown-6-potassium thiocyanate'
_symmetry_cell_setting           monoclinic
_symmetry_space_group_name_H-M   'C 2/c'
_symmetry_Int_Tables_number      15
_space_group_name_Hall           '-C 2yn'
loop_
_symmetry_equiv_pos_site_id
_symmetry_equiv_pos_as_xyz
1 x,y,z
2 1/2+x,1/2+y,z
3 -x,y,1/2-z
4 1/2-x,1/2+y,1/2-z
5 -x,-y,-z
6 1/2-x,1/2-y,-z
7 x,-y,1/2+z
8 1/2+x,1/2-y,1/2+z
_cell_length_a                   15.698(6)
_cell_length_b                   20.543(6)
_cell_length_c                   8.274(2)
_cell_angle_alpha                90
_cell_angle_beta                 109.98(2)
_cell_angle_gamma                90
_cell_volume                     2507.64
_cell_formula_units_Z            4
loop_
_atom_site_label
_atom_site_type_symbol
_atom_site_fract_x
_atom_site_fract_y
_atom_site_fract_z
K1 K 0.50000 -0.32700 -0.25000
C1 C 0.54010 0.12940 -0.17980
C2 C 0.57840 0.07200 -0.11140
C3 C 0.54090 0.01210 -0.17840
C4 C 0.57800 -0.04900 -0.11220
C5 C 0.54140 -0.10690 -0.17740
C6 C 0.58410 -0.16910 -0.09160
O1 O 0.60070 -0.21560 -0.20500
C7 C 0.68630 -0.21120 -0.22460
C8 C 0.69660 -0.26790 -0.32640
O2 O 0.68450 -0.32610 -0.24570
C9 C 0.69960 -0.38300 -0.32860
C10 C 0.67510 -0.44160 -0.24670
O3 O 0.57980 -0.44430 -0.29310
C11 C 0.54970 -0.49880 -0.22180
H1 H 0.56500 0.17100 -0.14600
H2 H 0.63100 0.06900 -0.02100
H3 H 0.62900 -0.04900 -0.01500
H4 H 0.64300 -0.15700 0.00600
H5 H 0.54500 -0.19100 -0.04300
H6 H 0.73400 -0.21200 -0.11400
H7 H 0.68900 -0.16700 -0.27900
H8 H 0.65000 -0.26800 -0.43900
H9 H 0.75600 -0.26900 -0.33500
H10 H 0.76600 -0.38200 -0.32700
H11 H 0.66600 -0.38000 -0.44500
H12 H 0.69100 -0.48500 -0.28400
H13 H 0.70800 -0.43800 -0.10900
H14 H 0.57400 -0.49800 -0.10600
H15 H 0.57200 -0.53500 -0.23100
O1B O 0.39930 -0.21560 -0.29500
O2B O 0.31550 -0.32610 -0.25430
O3B O 0.42020 -0.44430 -0.20690
C5B C 0.45860 -0.10690 -0.32260
C3B C 0.45910 0.01210 -0.32160
C1B C 0.45990 0.12940 -0.32020
C11B C 0.45030 -0.49880 -0.27820
C6B C 0.41590 -0.16910 -0.40840
C7B C 0.31370 -0.21120 -0.27540
C8B C 0.30340 -0.26790 -0.17360
C9B C 0.30040 -0.38300 -0.17140
C10B C 0.32490 -0.44160 -0.25330
C4B C 0.42200 -0.04900 -0.38780
C2B C 0.42160 0.07200 -0.38860
H1B H 0.43500 0.17100 -0.35400
H14B H 0.42600 -0.49800 -0.39400
H15B H 0.42800 -0.53500 -0.26900
H4B H 0.35700 -0.15700 -0.50600
H5B H 0.45500 -0.19100 -0.45700
H6B H 0.26600 -0.21200 -0.38600
H7B H 0.31100 -0.16700 -0.22100
H8B H 0.35000 -0.26800 -0.06100
H9B H 0.24400 -0.26900 -0.16500
H10B H 0.23400 -0.38200 -0.17300
H11B H 0.33400 -0.38000 -0.05500
H12B H 0.30900 -0.48500 -0.21600
H13B H 0.29200 -0.43800 -0.39100
H3B H 0.37100 -0.04900 -0.48500
H2B H 0.36900 0.06900 -0.47900
loop_
_geom_bond_atom_site_label_1
_geom_bond_atom_site_label_2
_geom_bond_site_symmetry_1
_geom_bond_site_symmetry_2
K1 O1 1_555 1_555
C1 C2 1_555 1_555
C2 C3 1_555 1_555
C3 C4 1_555 1_555
C4 C5 1_555 1_555
C5 C6 1_555 1_555
C6 O1 1_555 1_555
O1 C7 1_555 1_555
C7 C8 1_555 1_555
C8 O2 1_555 1_555
O2 K1 1_555 1_555
C9 O2 1_555 1_555
C10 C9 1_555 1_555
O3 K1 1_555 1_555
C11 O3 1_555 1_555
H1 C1 1_555 1_555
H2 C2 1_555 1_555
H3 C4 1_555 1_555
H4 C6 1_555 1_555
H5 C6 1_555 1_555
H6 C7 1_555 1_555
H7 C7 1_555 1_555
H8 C8 1_555 1_555
H9 C8 1_555 1_555
H10 C9 1_555 1_555
H11 C9 1_555 1_555
H12 C10 1_555 1_555
H13 C10 1_555 1_555
H14 C11 1_555 1_555
H15 C11 1_555 1_555
O1B K1 1_555 1_555
O2B K1 1_555 1_555
O3B K1 1_555 1_555
C5B C5 1_555 1_555
C3B C3 1_555 1_555
C1B C1 1_555 1_555
C11B C11 1_555 1_555
C6B O1B 1_555 1_555
C7B O1B 1_555 1_555
C8B O2B 1_555 1_555
C9B O2B 1_555 1_555
C10B O3B 1_555 1_555
C4B C5B 1_555 1_555
C2B C3B 1_555 1_555
H1B C1B 1_555 1_555
H14B C11B 1_555 1_555
H15B C11B 1_555 1_555
H4B C6B 1_555 1_555
H5B C6B 1_555 1_555
H6B C7B 1_555 1_555
H7B C7B 1_555 1_555
H8B C8B 1_555 1_555
H9B C8B 1_555 1_555
H10B C9B 1_555 1_555
H11B C9B 1_555 1_555
H12B C10B 1_555 1_555
H13B C10B 1_555 1_555
H3B C4B 1_555 1_555
H2B C2B 1_555 1_555
C10 O3 1_555 1_555
O3B C11B 1_555 1_555
C5B C6B 1_555 1_555
C3B C4B 1_555 1_555
C1B C2B 1_555 1_555
C7B C8B 1_555 1_555
C9B C10B 1_555 1_555

#END
