
#######################################################################
#
#                 Cambridge Crystallographic Data Centre
#                                CCDC 
#
#######################################################################
#
# If this CIF has been generated from an entry in the Cambridge 
# Structural Database, then it will include bibliographic, chemical, 
# crystal, experimental, refinement or atomic coordinate data resulting 
# from the CCDC's data processing and validation procedures.
#
#######################################################################

data_NDAZCH10
_chemical_formula_moiety         'C16 H18 N2 O1'
_chemical_name_systematic        \b-Naphthyl-diazo-2-hydroxycyclohexane
_chemical_properties_biological  'carcinogenic activity'
_symmetry_cell_setting           monoclinic
_symmetry_space_group_name_H-M   'P 21/c'
_symmetry_Int_Tables_number      14
_space_group_name_Hall           '-P 2ybc'
loop_
_symmetry_equiv_pos_site_id
_symmetry_equiv_pos_as_xyz
1 x,y,z
2 -x,1/2+y,1/2-z
3 -x,-y,-z
4 x,1/2-y,1/2+z
_cell_length_a                   14.61(3)
_cell_length_b                   7.15(5)
_cell_length_c                   13.19(3)
_cell_angle_alpha                90
_cell_angle_beta                 110.8(5)
_cell_angle_gamma                90
_cell_volume                     1288.05
_cell_formula_units_Z            4
loop_
_atom_site_label
_atom_site_type_symbol
_atom_site_fract_x
_atom_site_fract_y
_atom_site_fract_z
C1 C 0.274(1) 0.172(2) 0.503(1)
C2 C 0.370(1) 0.162(2) 0.516(1)
C3 C 0.436(1) 0.160(2) 0.618(1)
C4 C 0.535(1) 0.124(2) 0.628(1)
C5 C 0.606(1) 0.137(2) 0.731(1)
C6 C 0.574(1) 0.122(2) 0.821(1)
C7 C 0.483(1) 0.163(2) 0.815(1)
C8 C 0.408(1) 0.159(2) 0.714(1)
C9 C 0.312(1) 0.174(2) 0.697(1)
C10 C 0.244(1) 0.206(2) 0.595(1)
C11 C 0.016(1) 0.255(2) 0.655(1)
C12 C -0.022(1) 0.243(2) 0.736(1)
C13 C -0.134(1) 0.230(2) 0.708(1)
C14 C -0.185(1) 0.167(2) 0.593(1)
C15 C -0.156(1) 0.292(2) 0.513(1)
C16 C -0.050(1) 0.256(2) 0.532(1)
N1 N 0.142(1) 0.229(1) 0.587(1)
N2 N 0.117(1) 0.241(1) 0.670(1)
O1 O 0.050(1) 0.241(1) 0.840(1)
loop_
_geom_bond_atom_site_label_1
_geom_bond_atom_site_label_2
_geom_bond_site_symmetry_1
_geom_bond_site_symmetry_2
C1 C2 1_555 1_555
C2 C3 1_555 1_555
C3 C4 1_555 1_555
C4 C5 1_555 1_555
C5 C6 1_555 1_555
C6 C7 1_555 1_555
C7 C8 1_555 1_555
C8 C3 1_555 1_555
C9 C8 1_555 1_555
C10 C1 1_555 1_555
C11 C12 1_555 1_555
C12 C13 1_555 1_555
C13 C14 1_555 1_555
C14 C15 1_555 1_555
C15 C16 1_555 1_555
C16 C11 1_555 1_555
N1 C10 1_555 1_555
N2 C11 1_555 1_555
O1 C12 1_555 1_555
C9 C10 1_555 1_555
N1 N2 1_555 1_555

#END
