
#######################################################################
#
#                 Cambridge Crystallographic Data Centre
#                                CCDC 
#
#######################################################################
#
# If this CIF has been generated from an entry in the Cambridge 
# Structural Database, then it will include bibliographic, chemical, 
# crystal, experimental, refinement or atomic coordinate data resulting 
# from the CCDC's data processing and validation procedures.
#
#######################################################################

data_NEBCUU
_chemical_formula_moiety         'C17 H17 F2 N1 O2 S1'
_chemical_name_systematic        
5-(((2,6-Difluorobenzyl)oxy)methyl)-5-methyl-3-(3-methyl-2-thienyl)-4,5-dihydro-1,2-oxazole
_symmetry_cell_setting           monoclinic
_symmetry_space_group_name_H-M   'P 21'
_symmetry_Int_Tables_number      4
_space_group_name_Hall           'P 2yb'
loop_
_symmetry_equiv_pos_site_id
_symmetry_equiv_pos_as_xyz
1 x,y,z
2 -x,1/2+y,-z
_cell_length_a                   10.449(1)
_cell_length_b                   5.1485(7)
_cell_length_c                   30.622(5)
_cell_angle_alpha                90
_cell_angle_beta                 96.936(9)
_cell_angle_gamma                90
_cell_volume                     1635.31
_exptl_crystal_colour            silver
_exptl_crystal_description       block
_cell_formula_units_Z            4
loop_
_atom_site_label
_atom_site_type_symbol
_atom_site_fract_x
_atom_site_fract_y
_atom_site_fract_z
S1 S 0.57869(9) 0.4607(2) 0.97189(3)
C1 C 0.6634(3) 0.7020(7) 0.94853(12)
C2 C 0.7656(4) 0.7900(8) 0.97696(12)
C3 C 0.7741(4) 0.6561(9) 1.01745(13)
H1 H 0.8382 0.6884 1.0406
C4 C 0.6811(4) 0.4776(10) 1.01947(12)
H2 H 0.6736 0.3751 1.0440
C5 C 0.8598(3) 0.9907(9) 0.96656(12)
H3 H 0.8362 1.0539 0.9372
H4 H 0.9445 0.9156 0.9688
H5 H 0.8597 1.1320 0.9870
C6 C 0.6178(3) 0.7833(7) 0.90385(12)
N1 N 0.6618(3) 0.9846(7) 0.88552(10)
O1 O 0.5974(2) 1.0086(5) 0.84219(8)
C7 C 0.4843(3) 0.8365(7) 0.83728(11)
C8 C 0.5141(3) 0.6447(7) 0.87435(11)
H6 H 0.4390 0.6118 0.8893
H7 H 0.5453 0.4816 0.8638
C9 C 0.4718(4) 0.7249(9) 0.79145(12)
H8 H 0.5453 0.6176 0.7883
H9 H 0.4675 0.8637 0.7704
H10 H 0.3947 0.6223 0.7865
C10 C 0.3716(3) 1.0082(7) 0.84464(12)
H11 H 0.3850 1.0842 0.8738
H12 H 0.3626 1.1477 0.8232
O2 O 0.2586(2) 0.8498(5) 0.84009(8)
C11 C 0.1471(3) 0.9937(8) 0.84721(13)
H13 H 0.1349 1.1375 0.8267
H14 H 0.1564 1.0632 0.8769
C12 C 0.0335(3) 0.8126(7) 0.84052(13)
C13 C -0.0483(4) 0.8056(8) 0.80168(14)
C14 C -0.1492(4) 0.6361(10) 0.79368(17)
H15 H -0.2016 0.6376 0.7669
C15 C -0.1708(4) 0.4670(10) 0.8256(2)
H16 H -0.2388 0.3501 0.8204
C16 C -0.0957(5) 0.4628(10) 0.86527(17)
H17 H -0.1128 0.3492 0.8875
C17 C 0.0078(4) 0.6363(10) 0.87120(14)
F1 F -0.0285(2) 0.9741(6) 0.76976(7)
F2 F 0.0848(3) 0.6357(7) 0.90994(8)
S2 S 0.60578(9) 0.3925(2) 0.52118(3)
C18 C 0.7084(3) 0.1514(7) 0.54374(12)
C19 C 0.7829(3) 0.0515(8) 0.51364(13)
C20 C 0.7526(4) 0.1747(9) 0.47224(13)
H18 H 0.7922 0.1314 0.4476
C21 C 0.6597(4) 0.3631(10) 0.47175(13)
H19 H 0.6302 0.4623 0.4472
C22 C 0.8836(4) -0.1514(9) 0.52281(13)
H20 H 0.8877 -0.2055 0.5529
H21 H 0.9657 -0.0821 0.5175
H22 H 0.8627 -0.2978 0.5039
C23 C 0.7047(3) 0.0886(7) 0.58980(12)
N2 N 0.7630(3) -0.1114(7) 0.60842(10)
O3 O 0.7400(2) -0.1161(5) 0.65325(8)
C24 C 0.6381(3) 0.0693(8) 0.65969(11)
C25 C 0.6357(4) 0.2474(7) 0.62025(11)
H23 H 0.5481 0.2854 0.6076
H24 H 0.6806 0.4089 0.6279
C26 C 0.6745(4) 0.1975(9) 0.70354(13)
H25 H 0.7527 0.2944 0.7029
H26 H 0.6873 0.0671 0.7261
H27 H 0.6067 0.3127 0.7097
C27 C 0.5154(3) -0.0900(8) 0.65823(12)
H28 H 0.5013 -0.1878 0.6310
H29 H 0.5218 -0.2112 0.6826
O4 O 0.4126(2) 0.0855(5) 0.66104(9)
C28 C 0.2924(3) -0.0430(9) 0.66286(13)
H30 H 0.2986 -0.1614 0.6877
H31 H 0.2687 -0.1418 0.6361
C29 C 0.1936(3) 0.1613(8) 0.66777(13)
C30 C 0.1113(4) 0.2578(10) 0.63332(14)
C31 C 0.0210(4) 0.4517(12) 0.63782(18)
H32 H -0.0336 0.5113 0.6137
C32 C 0.0153(4) 0.5496(11) 0.6780(2)
H33 H -0.0445 0.6787 0.6819
C33 C 0.0966(4) 0.4621(10) 0.71358(16)
H34 H 0.0935 0.5330 0.7414
C34 C 0.1801(4) 0.2733(9) 0.70746(14)
F3 F 0.1197(3) 0.1585(8) 0.59327(9)
F4 F 0.2593(3) 0.1862(7) 0.74291(8)
loop_
_geom_bond_atom_site_label_1
_geom_bond_atom_site_label_2
_geom_bond_site_symmetry_1
_geom_bond_site_symmetry_2
S1 C1 1_555 1_555
C1 C2 1_555 1_555
C2 C3 1_555 1_555
C3 H1 1_555 1_555
C4 S1 1_555 1_555
H2 C4 1_555 1_555
C5 C2 1_555 1_555
H3 C5 1_555 1_555
H4 C5 1_555 1_555
H5 C5 1_555 1_555
C6 C1 1_555 1_555
N1 C6 1_555 1_555
O1 N1 1_555 1_555
C7 O1 1_555 1_555
C8 C6 1_555 1_555
H6 C8 1_555 1_555
H7 C8 1_555 1_555
C9 C7 1_555 1_555
H8 C9 1_555 1_555
H9 C9 1_555 1_555
H10 C9 1_555 1_555
C10 C7 1_555 1_555
H11 C10 1_555 1_555
H12 C10 1_555 1_555
O2 C10 1_555 1_555
C11 O2 1_555 1_555
H13 C11 1_555 1_555
H14 C11 1_555 1_555
C12 C11 1_555 1_555
C13 C12 1_555 1_555
C14 C13 1_555 1_555
H15 C14 1_555 1_555
C15 C14 1_555 1_555
H16 C15 1_555 1_555
C16 C15 1_555 1_555
H17 C16 1_555 1_555
C17 C12 1_555 1_555
F1 C13 1_555 1_555
F2 C17 1_555 1_555
S2 C18 1_555 1_555
C18 C19 1_555 1_555
C19 C20 1_555 1_555
C20 H18 1_555 1_555
C21 S2 1_555 1_555
H19 C21 1_555 1_555
C22 C19 1_555 1_555
H20 C22 1_555 1_555
H21 C22 1_555 1_555
H22 C22 1_555 1_555
C23 C18 1_555 1_555
N2 C23 1_555 1_555
O3 N2 1_555 1_555
C24 O3 1_555 1_555
C25 C23 1_555 1_555
H23 C25 1_555 1_555
H24 C25 1_555 1_555
C26 C24 1_555 1_555
H25 C26 1_555 1_555
H26 C26 1_555 1_555
H27 C26 1_555 1_555
C27 C24 1_555 1_555
H28 C27 1_555 1_555
H29 C27 1_555 1_555
O4 C27 1_555 1_555
C28 O4 1_555 1_555
H30 C28 1_555 1_555
H31 C28 1_555 1_555
C29 C28 1_555 1_555
C30 C29 1_555 1_555
C31 C30 1_555 1_555
H32 C31 1_555 1_555
C32 C31 1_555 1_555
H33 C32 1_555 1_555
C33 C32 1_555 1_555
H34 C33 1_555 1_555
C34 C29 1_555 1_555
F3 C30 1_555 1_555
F4 C34 1_555 1_555
C3 C4 1_555 1_555
C7 C8 1_555 1_555
C16 C17 1_555 1_555
C20 C21 1_555 1_555
C24 C25 1_555 1_555
C33 C34 1_555 1_555

#END
