
#######################################################################
#
#                 Cambridge Crystallographic Data Centre
#                                CCDC 
#
#######################################################################
#
# If this CIF has been generated from an entry in the Cambridge 
# Structural Database, then it will include bibliographic, chemical, 
# crystal, experimental, refinement or atomic coordinate data resulting 
# from the CCDC's data processing and validation procedures.
#
#######################################################################

data_NEBDII
_chemical_formula_moiety         'C36 H36 N24 O12,8.7(H2 O1),H3 O1 1+,Cl1 1-'
_chemical_name_systematic        
'Inverted cucurbit(6)uril oxonium chloride hydrate'
_symmetry_cell_setting           monoclinic
_symmetry_space_group_name_H-M   'P 21'
_symmetry_Int_Tables_number      4
_space_group_name_Hall           'P 2yb'
loop_
_symmetry_equiv_pos_site_id
_symmetry_equiv_pos_as_xyz
1 x,y,z
2 -x,1/2+y,-z
_cell_length_a                   12.434(2)
_cell_length_b                   16.122(3)
_cell_length_c                   12.667(2)
_cell_angle_alpha                90
_cell_angle_beta                 104.923(4)
_cell_angle_gamma                90
_cell_volume                     2453.6
_exptl_crystal_colour            colorless
_exptl_crystal_description       plate
_cell_formula_units_Z            2
loop_
_atom_site_label
_atom_site_type_symbol
_atom_site_fract_x
_atom_site_fract_y
_atom_site_fract_z
O1 O 0.5637(2) 0.6625(2) 0.2179(2)
O2 O 0.2502(3) 0.90717(18) 0.3463(2)
N1 N 0.3757(3) 0.6874(2) 0.1937(3)
N2 N 0.2523(3) 0.7894(2) 0.2444(3)
N3 N 0.4894(3) 0.6996(2) 0.3596(3)
N4 N 0.3556(3) 0.7928(2) 0.4147(3)
C1 C 0.3006(3) 0.7064(3) 0.2611(3)
H1 H 0.2427 0.6632 0.2550
C2 C 0.4830(3) 0.6819(3) 0.2523(3)
C3 C 0.2839(3) 0.8367(3) 0.3355(3)
C4 C 0.3788(3) 0.7106(3) 0.3781(3)
H2 H 0.3616 0.6665 0.4255
C5 C 0.5907(3) 0.6911(3) 0.4463(3)
H3 H 0.6394 0.6503 0.4246
H4 H 0.6300 0.7443 0.4576
C6 C 0.4199(3) 0.8290(2) 0.5159(3)
H5 H 0.3769 0.8735 0.5383
H6 H 0.4884 0.8532 0.5046
O3 O 0.5555(3) 0.52444(18) 0.5133(2)
O4 O 0.2965(2) 0.78776(19) 0.6703(2)
N5 N 0.5679(3) 0.6651(2) 0.5469(3)
N6 N 0.4478(3) 0.7669(2) 0.6011(3)
N7 N 0.5348(3) 0.5820(2) 0.6745(3)
N8 N 0.4317(3) 0.6906(2) 0.7407(3)
C7 C 0.5522(3) 0.7222(2) 0.6299(3)
H7 H 0.6166 0.7599 0.6549
C8 C 0.5524(3) 0.5843(3) 0.5726(3)
C9 C 0.3814(3) 0.7521(2) 0.6706(3)
C10 C 0.5373(3) 0.6636(2) 0.7230(3)
H8 H 0.5991 0.6693 0.7898
C11 C 0.5274(3) 0.5065(2) 0.7333(3)
H9 H 0.5597 0.4611 0.7002
H10 H 0.5721 0.5128 0.8088
C12 C 0.3892(3) 0.6650(3) 0.8315(3)
H11 H 0.3453 0.7107 0.8501
H12 H 0.4523 0.6554 0.8948
O5 O 0.3940(3) 0.3818(2) 0.6030(3)
O6 O 0.1480(2) 0.65479(18) 0.7712(2)
N9 N 0.4155(3) 0.4843(2) 0.7345(3)
N10 N 0.3205(3) 0.5910(2) 0.8126(3)
N11 N 0.2687(3) 0.4004(2) 0.7067(3)
N12 N 0.1675(3) 0.5134(2) 0.7654(3)
C13 C 0.3631(3) 0.5072(2) 0.8210(3)
H13 H 0.4125 0.4959 0.8944
C14 C 0.3632(4) 0.4181(3) 0.6745(4)
C15 C 0.2059(3) 0.5932(3) 0.7806(3)
C16 C 0.2568(3) 0.4525(3) 0.7971(3)
H14 H 0.2515 0.4195 0.8614
C17 C 0.2004(3) 0.3290(2) 0.6687(3)
H15 H 0.2455 0.2870 0.6441
H16 H 0.1758 0.3054 0.7298
C18 C 0.0507(3) 0.4929(3) 0.7393(3)
H17 H 0.0093 0.5419 0.7523
H18 H 0.0394 0.4493 0.7892
O7 O 0.1735(2) 0.3015(2) 0.4378(2)
O8 O -0.0935(3) 0.58516(19) 0.5647(2)
N13 N 0.1042(3) 0.3469(2) 0.5808(3)
N14 N 0.0048(3) 0.4653(2) 0.6286(3)
N15 N -0.0051(3) 0.3529(2) 0.4122(3)
N16 N -0.1150(3) 0.4633(2) 0.4651(3)
C19 C 0.0010(3) 0.3778(3) 0.5968(3)
H19 H -0.0277 0.3422 0.6472
C20 C 0.0986(3) 0.3311(2) 0.4734(3)
C21 C -0.0706(3) 0.5120(3) 0.5534(3)
C22 C -0.0778(3) 0.3785(3) 0.4807(3)
H20 H -0.1409 0.3396 0.4742
C23 C -0.0491(3) 0.3221(2) 0.3011(3)
H21 H 0.0019 0.2800 0.2859
H22 H -0.1209 0.2952 0.2959
C24 C -0.1993(4) 0.4923(3) 0.3711(3)
H23 H -0.2298 0.5447 0.3900
H24 H -0.2602 0.4518 0.3541
O9 O 0.0895(3) 0.3566(2) 0.1549(3)
O10 O -0.1508(3) 0.64844(18) 0.2837(3)
N17 N -0.0639(3) 0.3864(2) 0.2191(3)
N18 N -0.1594(3) 0.5052(2) 0.2742(3)
N19 N -0.0386(3) 0.4578(2) 0.0792(3)
N20 N -0.1339(3) 0.5763(2) 0.1318(3)
C25 C -0.1592(3) 0.4417(2) 0.1940(3)
H25 H -0.2301 0.4105 0.1752
C26 C 0.0055(3) 0.3972(3) 0.1527(3)
C27 C -0.1478(3) 0.5834(3) 0.2352(3)
C28 C -0.1420(3) 0.4912(2) 0.0943(3)
H26 H -0.2046 0.4832 0.0287
C29 C 0.0110(4) 0.4843(3) -0.0067(3)
H27 H -0.0482 0.4912 -0.0741
H28 H 0.0606 0.4404 -0.0194
C30 C -0.1443(3) 0.6471(3) 0.0593(4)
H29 H -0.1893 0.6310 -0.0133
H30 H -0.1841 0.6914 0.0864
O11 O 0.2488(3) 0.50149(19) 0.0703(3)
O12 O -0.0305(3) 0.79277(19) 0.1631(3)
N21 N 0.0740(3) 0.5613(2) 0.0155(3)
N22 N -0.0393(3) 0.6788(2) 0.0493(3)
N23 N 0.2235(3) 0.6428(2) 0.0483(3)
N24 N 0.1105(3) 0.7603(2) 0.0820(3)
C31 C 0.0280(3) 0.6434(2) -0.0175(3)
H31 H -0.0122 0.6444 -0.0958
C32 C 0.1878(3) 0.5615(3) 0.0483(3)
C33 C 0.0099(4) 0.7472(3) 0.1054(3)
C34 C 0.1328(3) 0.6997(3) 0.0054(3)
H32 H 0.1408 0.7268 -0.0624
C35 C 0.3383(3) 0.6653(3) 0.0779(3)
H33 H 0.3498 0.7126 0.0334
H34 H 0.3829 0.6188 0.0628
C36 C 0.1887(4) 0.8203(3) 0.1391(3)
H35 H 0.1489 0.8707 0.1500
H36 H 0.2398 0.8349 0.0947
Cl1 Cl 0.40956(10) 0.87919(8) 0.99120(11)
O13 O 0.2091(3) 0.0350(2) 0.1919(3)
H37 H 0.206(4) -0.005(2) 0.247(3)
H38 H 0.193(4) 0.0892(15) 0.215(4)
O14 O 0.2911(3) 0.3073(2) 0.1071(3)
H39 H 0.302(4) 0.294(3) 0.037(2)
H40 H 0.359(2) 0.333(3) 0.148(3)
H41 H 0.230(3) 0.346(2) 0.093(4)
O15 O 0.4726(3) 0.3893(2) 0.1989(3)
H42 H 0.442(4) 0.417(3) 0.253(4)
H43 H 0.517(4) 0.432(3) 0.177(4)
O16 O 0.4284(3) 0.5014(2) 0.3135(3)
H44 H 0.466(4) 0.499(3) 0.3908(17)
H45 H 0.473(4) 0.541(3) 0.286(4)
O17 O 0.5962(3) 0.5759(2) 0.0303(3)
H46 H 0.570(4) 0.592(3) 0.093(3)
H47 H 0.598(5) 0.5162(11) 0.035(4)
O18 O 0.3651(3) 0.2840(2) 0.9216(3)
H48 H 0.441(2) 0.302(3) 0.954(4)
H49 H 0.376(4) 0.250(3) 0.862(3)
O19 O 0.1813(4) 0.1922(3) 0.2614(3)
H50 H 0.154(5) 0.172(3) 0.322(4)
H51 H 0.165(5) 0.2506(13) 0.258(5)
O20 O 0.0466(4) 0.6804(3) 0.4684(4)
H52 H -0.013(4) 0.657(4) 0.495(5)
H53 H 0.045(5) 0.658(4) 0.397(3)
O21 O 0.2411(5) 0.4681(6) 0.3505(6)
H54 H 0.252(8) 0.413(3) 0.326(9)
H55 H 0.316(3) 0.490(5) 0.365(8)
O22 O 0.2389(6) 0.5836(4) 0.5088(5)
H56 H 0.200(6) 0.573(6) 0.433(3)
H57 H 0.182(5) 0.613(5) 0.535(6)
loop_
_geom_bond_atom_site_label_1
_geom_bond_atom_site_label_2
_geom_bond_site_symmetry_1
_geom_bond_site_symmetry_2
O1 C2 1_555 1_555
O2 C3 1_555 1_555
N1 C1 1_555 1_555
N2 C1 1_555 1_555
N3 C2 1_555 1_555
N4 C3 1_555 1_555
C1 H1 1_555 1_555
C2 N1 1_555 1_555
C3 N2 1_555 1_555
C4 N3 1_555 1_555
H2 C4 1_555 1_555
C5 N3 1_555 1_555
H3 C5 1_555 1_555
H4 C5 1_555 1_555
C6 N4 1_555 1_555
H5 C6 1_555 1_555
H6 C6 1_555 1_555
O3 C8 1_555 1_555
O4 C9 1_555 1_555
N5 C5 1_555 1_555
N6 C6 1_555 1_555
N7 C8 1_555 1_555
N8 C9 1_555 1_555
C7 N5 1_555 1_555
H7 C7 1_555 1_555
C8 N5 1_555 1_555
C9 N6 1_555 1_555
C10 N7 1_555 1_555
H8 C10 1_555 1_555
C11 N7 1_555 1_555
H9 C11 1_555 1_555
H10 C11 1_555 1_555
C12 N8 1_555 1_555
H11 C12 1_555 1_555
H12 C12 1_555 1_555
O5 C14 1_555 1_555
O6 C15 1_555 1_555
N9 C11 1_555 1_555
N10 C12 1_555 1_555
N11 C14 1_555 1_555
N12 C15 1_555 1_555
C13 N9 1_555 1_555
H13 C13 1_555 1_555
C14 N9 1_555 1_555
C15 N10 1_555 1_555
C16 N11 1_555 1_555
H14 C16 1_555 1_555
C17 N11 1_555 1_555
H15 C17 1_555 1_555
H16 C17 1_555 1_555
C18 N12 1_555 1_555
H17 C18 1_555 1_555
H18 C18 1_555 1_555
O7 C20 1_555 1_555
O8 C21 1_555 1_555
N13 C17 1_555 1_555
N14 C18 1_555 1_555
N15 C20 1_555 1_555
N16 C21 1_555 1_555
C19 N13 1_555 1_555
H19 C19 1_555 1_555
C20 N13 1_555 1_555
C21 N14 1_555 1_555
C22 N15 1_555 1_555
H20 C22 1_555 1_555
C23 N15 1_555 1_555
H21 C23 1_555 1_555
H22 C23 1_555 1_555
C24 N16 1_555 1_555
H23 C24 1_555 1_555
H24 C24 1_555 1_555
O9 C26 1_555 1_555
O10 C27 1_555 1_555
N17 C23 1_555 1_555
N18 C24 1_555 1_555
N19 C26 1_555 1_555
N20 C27 1_555 1_555
C25 N17 1_555 1_555
H25 C25 1_555 1_555
C26 N17 1_555 1_555
C27 N18 1_555 1_555
C28 N19 1_555 1_555
H26 C28 1_555 1_555
C29 N19 1_555 1_555
H27 C29 1_555 1_555
H28 C29 1_555 1_555
C30 N20 1_555 1_555
H29 C30 1_555 1_555
H30 C30 1_555 1_555
O11 C32 1_555 1_555
O12 C33 1_555 1_555
N21 C29 1_555 1_555
N22 C30 1_555 1_555
N23 C32 1_555 1_555
N24 C33 1_555 1_555
C31 N21 1_555 1_555
H31 C31 1_555 1_555
C32 N21 1_555 1_555
C33 N22 1_555 1_555
C34 N23 1_555 1_555
H32 C34 1_555 1_555
C35 N1 1_555 1_555
H33 C35 1_555 1_555
H34 C35 1_555 1_555
C36 N2 1_555 1_555
H35 C36 1_555 1_555
H36 C36 1_555 1_555
O13 H37 1_555 1_555
H38 O13 1_555 1_555
O14 H39 1_555 1_555
H40 O14 1_555 1_555
H41 O14 1_555 1_555
O15 H42 1_555 1_555
H43 O15 1_555 1_555
O16 H44 1_555 1_555
H45 O16 1_555 1_555
O17 H46 1_555 1_555
H47 O17 1_555 1_555
O18 H48 1_555 1_555
H49 O18 1_555 1_555
O19 H50 1_555 1_555
H51 O19 1_555 1_555
O20 H52 1_555 1_555
H53 O20 1_555 1_555
O21 H54 1_555 1_555
H55 O21 1_555 1_555
O22 H56 1_555 1_555
H57 O22 1_555 1_555
N4 C4 1_555 1_555
C1 C4 1_555 1_555
N6 C7 1_555 1_555
N8 C10 1_555 1_555
C7 C10 1_555 1_555
N10 C13 1_555 1_555
N12 C16 1_555 1_555
C13 C16 1_555 1_555
N14 C19 1_555 1_555
N16 C22 1_555 1_555
C19 C22 1_555 1_555
N18 C25 1_555 1_555
N20 C28 1_555 1_555
C25 C28 1_555 1_555
N22 C31 1_555 1_555
N23 C35 1_555 1_555
N24 C34 1_555 1_555
N24 C36 1_555 1_555
C31 C34 1_555 1_555

#END
