
#######################################################################
#
#                 Cambridge Crystallographic Data Centre
#                                CCDC 
#
#######################################################################
#
# If this CIF has been generated from an entry in the Cambridge 
# Structural Database, then it will include bibliographic, chemical, 
# crystal, experimental, refinement or atomic coordinate data resulting 
# from the CCDC's data processing and validation procedures.
#
#######################################################################

data_NEBFAD
_chemical_formula_moiety         'C33 H33 Cl2 N3 O2'
_chemical_name_systematic        
2,2'-(4-(4-Nitrophenyl)pent-2-ene-1,5-diylidene)bis(5-chloro-1,3,3-trimethylindoline)
_symmetry_cell_setting           triclinic
_symmetry_space_group_name_H-M   'P -1'
_symmetry_Int_Tables_number      2
_space_group_name_Hall           '-P 1'
loop_
_symmetry_equiv_pos_site_id
_symmetry_equiv_pos_as_xyz
1 x,y,z
2 -x,-y,-z
_cell_length_a                   11.1280(17)
_cell_length_b                   11.7321(18)
_cell_length_c                   13.808(2)
_cell_angle_alpha                114.033(3)
_cell_angle_beta                 93.314(3)
_cell_angle_gamma                109.293(3)
_cell_volume                     1514.78
_cell_formula_units_Z            2
loop_
_atom_site_label
_atom_site_type_symbol
_atom_site_fract_x
_atom_site_fract_y
_atom_site_fract_z
Cl1 Cl 0.20419(10) 1.71783(10) 1.52789(6)
Cl2 Cl 0.39564(9) 0.87924(7) 0.06258(6)
O1 O 0.1079(3) 1.8529(2) 0.8508(2)
O2 O 0.2840(3) 1.9355(2) 0.8040(2)
N1 N 0.2361(2) 1.30195(18) 1.12409(15)
N2 N 0.11326(16) 1.07831(17) 0.39417(14)
N3 N 0.2052(3) 1.8452(2) 0.81654(18)
C1 C 0.26467(19) 1.4807(2) 0.72659(15)
C2 C 0.1439(2) 1.4872(2) 0.74088(19)
H1 H 0.0745 1.4088 0.7294
C3 C 0.1236(2) 1.6049(2) 0.77131(19)
H2 H 0.0422 1.6071 0.7806
C4 C 0.2274(2) 1.7199(2) 0.78768(16)
C5 C 0.3489(2) 1.7192(2) 0.77697(19)
H3 H 0.4182 1.7982 0.7896
C6 C 0.3668(2) 1.5996(2) 0.74721(18)
H4 H 0.4494 1.5989 0.7409
C7 C 0.28263(19) 1.3478(2) 0.68792(16)
H5 H 0.3711 1.3642 0.6750
C8 C 0.27068(19) 1.2930(2) 0.77075(17)
H6 H 0.2659 1.2047 0.7464
C9 C 0.26632(19) 1.3568(2) 0.87414(17)
H7 H 0.2703 1.4448 0.8997
C10 C 0.2559(2) 1.2999(2) 0.94990(17)
H8 H 0.2533 1.2123 0.9241
C11 C 0.24972(19) 1.3624(2) 1.05447(17)
C12 C 0.2249(2) 1.3862(2) 1.22510(17)
C13 C 0.23858(18) 1.5107(2) 1.22856(16)
C14 C 0.25711(17) 1.50682(19) 1.11969(16)
C15 C 0.2244(4) 1.1649(3) 1.0916(2)
H9 H 0.2280 1.1490 1.1545
H10 H 0.2947 1.1509 1.0579
H11 H 0.1425 1.1032 1.0409
C16 C 0.3914(2) 1.6122(2) 1.1339(2)
H12 H 0.3970 1.7008 1.1827
H13 H 0.4031 1.6088 1.0646
H14 H 0.4583 1.5928 1.1632
C17 C 0.1462(2) 1.5322(2) 1.07154(19)
H15 H 0.0644 1.4598 1.0571
H16 H 0.1610 1.5364 1.0050
H17 H 0.1441 1.6164 1.1225
C18 C 0.2027(2) 1.3628(3) 1.3142(2)
H18 H 0.1931 1.2799 1.3119
C19 C 0.1949(2) 1.4656(3) 1.4070(2)
H19 H 0.1794 1.4517 1.4676
C20 C 0.2099(2) 1.5876(3) 1.40957(19)
C21 C 0.2316(2) 1.6117(2) 1.32035(18)
H20 H 0.2412 1.6948 1.3230
C22 C 0.18805(19) 1.2449(2) 0.58092(17)
H21 H 0.1006 1.2307 0.5801
C23 C 0.21265(18) 1.17196(18) 0.48808(15)
C24 C 0.1641(2) 1.01635(19) 0.30771(16)
C25 C 0.2990(2) 1.06374(19) 0.34058(15)
C26 C 0.34339(18) 1.16622(19) 0.46007(15)
C27 C -0.0198(2) 1.0699(3) 0.3847(2)
H22 H -0.0660 1.0155 0.3100
H23 H -0.0197 1.1592 0.4097
H24 H -0.0619 1.0295 0.4282
C28 C 0.4046(2) 1.1142(3) 0.52675(18)
H25 H 0.3423 1.0293 0.5178
H26 H 0.4296 1.1788 0.6022
H27 H 0.4804 1.1018 0.5021
C29 C 0.4415(2) 1.3030(2) 0.47421(19)
H28 H 0.5126 1.2898 0.4413
H29 H 0.4744 1.3644 0.5503
H30 H 0.3986 1.3401 0.4399
C30 C 0.3714(2) 1.0194(2) 0.26664(17)
H31 H 0.4616 1.0499 0.2878
C31 C 0.3061(3) 0.9280(2) 0.15961(18)
C32 C 0.1726(3) 0.8791(2) 0.12788(19)
H32 H 0.1314 0.8168 0.0560
C33 C 0.0984(2) 0.9212(2) 0.20148(18)
H33 H 0.0079 0.8871 0.1806
loop_
_geom_bond_atom_site_label_1
_geom_bond_atom_site_label_2
_geom_bond_site_symmetry_1
_geom_bond_site_symmetry_2
Cl1 C20 1_555 1_555
Cl2 C31 1_555 1_555
O1 N3 1_555 1_555
O2 N3 1_555 1_555
N1 C11 1_555 1_555
N2 C23 1_555 1_555
N3 C4 1_555 1_555
C1 C2 1_555 1_555
C2 H1 1_555 1_555
C3 C2 1_555 1_555
H2 C3 1_555 1_555
C4 C3 1_555 1_555
C5 C4 1_555 1_555
H3 C5 1_555 1_555
C6 C1 1_555 1_555
H4 C6 1_555 1_555
C7 C1 1_555 1_555
H5 C7 1_555 1_555
C8 C7 1_555 1_555
H6 C8 1_555 1_555
C9 C8 1_555 1_555
H7 C9 1_555 1_555
C10 C9 1_555 1_555
H8 C10 1_555 1_555
C11 C10 1_555 1_555
C12 N1 1_555 1_555
C13 C12 1_555 1_555
C14 C11 1_555 1_555
C15 N1 1_555 1_555
H9 C15 1_555 1_555
H10 C15 1_555 1_555
H11 C15 1_555 1_555
C16 C14 1_555 1_555
H12 C16 1_555 1_555
H13 C16 1_555 1_555
H14 C16 1_555 1_555
C17 C14 1_555 1_555
H15 C17 1_555 1_555
H16 C17 1_555 1_555
H17 C17 1_555 1_555
C18 C12 1_555 1_555
H18 C18 1_555 1_555
C19 C18 1_555 1_555
H19 C19 1_555 1_555
C20 C19 1_555 1_555
C21 C13 1_555 1_555
H20 C21 1_555 1_555
C22 C7 1_555 1_555
H21 C22 1_555 1_555
C23 C22 1_555 1_555
C24 N2 1_555 1_555
C25 C24 1_555 1_555
C26 C23 1_555 1_555
C27 N2 1_555 1_555
H22 C27 1_555 1_555
H23 C27 1_555 1_555
H24 C27 1_555 1_555
C28 C26 1_555 1_555
H25 C28 1_555 1_555
H26 C28 1_555 1_555
H27 C28 1_555 1_555
C29 C26 1_555 1_555
H28 C29 1_555 1_555
H29 C29 1_555 1_555
H30 C29 1_555 1_555
C30 C25 1_555 1_555
H31 C30 1_555 1_555
C31 C30 1_555 1_555
C32 C31 1_555 1_555
H32 C32 1_555 1_555
C33 C24 1_555 1_555
H33 C33 1_555 1_555
C5 C6 1_555 1_555
C13 C14 1_555 1_555
C20 C21 1_555 1_555
C25 C26 1_555 1_555
C32 C33 1_555 1_555

#END
