
#######################################################################
#
#                 Cambridge Crystallographic Data Centre
#                                CCDC 
#
#######################################################################
#
# If this CIF has been generated from an entry in the Cambridge 
# Structural Database, then it will include bibliographic, chemical, 
# crystal, experimental, refinement or atomic coordinate data resulting 
# from the CCDC's data processing and validation procedures.
#
#######################################################################

data_NEBFEI
_chemical_formula_moiety         'C12 H12 N2 O1 S1'
_chemical_name_systematic        3-phenyl-N-(thiazol-2-yl)propanamide
_symmetry_cell_setting           monoclinic
_symmetry_space_group_name_H-M   'P 21/n'
_symmetry_Int_Tables_number      14
_space_group_name_Hall           '-P 2yn'
loop_
_symmetry_equiv_pos_site_id
_symmetry_equiv_pos_as_xyz
1 x,y,z
2 1/2-x,1/2+y,1/2-z
3 -x,-y,-z
4 1/2+x,1/2-y,1/2+z
_cell_length_a                   11.8745(10)
_cell_length_b                   5.2143(4)
_cell_length_c                   18.1399(15)
_cell_angle_alpha                90
_cell_angle_beta                 92.641(6)
_cell_angle_gamma                90
_cell_volume                     1121.98
_exptl_crystal_colour            colorless
_exptl_crystal_description       block
_cell_formula_units_Z            4
_exptl_crystal_recrystallization_method 'dimethyl sulfoxide'
loop_
_atom_site_label
_atom_site_type_symbol
_atom_site_fract_x
_atom_site_fract_y
_atom_site_fract_z
S1 S 0.16687(6) 0.05257(16) 1.18698(4)
O1 O 0.27118(17) 0.4025(4) 1.10385(11)
N1 N 0.01960(18) -0.1283(4) 1.09252(12)
N2 N 0.12361(18) 0.2067(4) 1.04309(12)
C1 C 0.0985(2) 0.0445(5) 1.10120(14)
C2 C 0.2223(2) 0.5435(5) 0.98006(15)
H1 H 0.2040 0.4400 0.9367
H2 H 0.1685 0.6833 0.9807
C3 C 0.4638(2) 0.9303(6) 0.90431(16)
H3 H 0.5231 0.8645 0.9338
C4 C 0.3552(2) 0.8429(5) 0.91390(15)
C5 C 0.2700(2) 0.9424(6) 0.86822(16)
H4 H 0.1963 0.8868 0.8734
C6 C 0.2103(2) 0.3809(5) 1.04812(16)
C7 C 0.0113(2) -0.2622(6) 1.15796(16)
H5 H -0.0406 -0.3939 1.1629
C8 C 0.3991(3) 1.2108(6) 0.80734(17)
H6 H 0.4135 1.3355 0.7723
C9 C 0.0818(2) -0.1919(6) 1.21341(17)
H7 H 0.0844 -0.2656 1.2601
C10 C 0.2918(3) 1.1230(6) 0.81494(17)
H8 H 0.2332 1.1851 0.7841
C11 C 0.3361(3) 0.6504(7) 0.9742(2)
H9 H 0.3875 0.5083 0.9678
H10 H 0.3575 0.7308 1.0210
C12 C 0.4856(3) 1.1131(6) 0.85195(17)
H11 H 0.5589 1.1704 0.8468
loop_
_geom_bond_atom_site_label_1
_geom_bond_atom_site_label_2
_geom_bond_site_symmetry_1
_geom_bond_site_symmetry_2
S1 C1 1_555 1_555
O1 C6 1_555 1_555
N1 C1 1_555 1_555
N2 C1 1_555 1_555
C2 H1 1_555 1_555
H2 C2 1_555 1_555
C3 H3 1_555 1_555
C4 C3 1_555 1_555
C5 C4 1_555 1_555
H4 C5 1_555 1_555
C6 N2 1_555 1_555
C7 N1 1_555 1_555
H5 C7 1_555 1_555
C8 H6 1_555 1_555
C9 S1 1_555 1_555
H7 C9 1_555 1_555
C10 C5 1_555 1_555
H8 C10 1_555 1_555
C11 C2 1_555 1_555
H9 C11 1_555 1_555
H10 C11 1_555 1_555
C12 C3 1_555 1_555
H11 C12 1_555 1_555
C2 C6 1_555 1_555
C4 C11 1_555 1_555
C7 C9 1_555 1_555
C8 C10 1_555 1_555
C8 C12 1_555 1_555

#END
