
#######################################################################
#
#                 Cambridge Crystallographic Data Centre
#                                CCDC 
#
#######################################################################
#
# If this CIF has been generated from an entry in the Cambridge 
# Structural Database, then it will include bibliographic, chemical, 
# crystal, experimental, refinement or atomic coordinate data resulting 
# from the CCDC's data processing and validation procedures.
#
#######################################################################

data_NEBHIL01
_chemical_name_common            
'(R)-(+)-1-Phenylethylammonium (R)-(+)-flobufen'
_chemical_formula_moiety         'C8 H12 N1 1+,C17 H13 F2 O3 1-'
_chemical_name_systematic        
"(R)-(+)-1-Phenylethylammonium (+)-4-(2',4'-difluorobiphenyl-4-yl)-2-methyl-4-oxobutanoate"
_chemical_properties_biological  'free acid exhibits antiinflammatory activity'
_symmetry_cell_setting           orthorhombic
_symmetry_space_group_name_H-M   'P 21 21 21'
_symmetry_Int_Tables_number      19
_space_group_name_Hall           'P 2ac 2ab'
loop_
_symmetry_equiv_pos_site_id
_symmetry_equiv_pos_as_xyz
1 x,y,z
2 1/2-x,-y,1/2+z
3 1/2+x,1/2-y,-z
4 -x,1/2+y,1/2-z
_cell_length_a                   5.959(2)
_cell_length_b                   11.179(3)
_cell_length_c                   32.992(3)
_cell_angle_alpha                90
_cell_angle_beta                 90
_cell_angle_gamma                90
_cell_volume                     2197.78
_chemical_melting_point          138-142deg.C
_cell_formula_units_Z            4
loop_
_atom_site_label
_atom_site_type_symbol
_atom_site_fract_x
_atom_site_fract_y
_atom_site_fract_z
F1 F 0.550(1) 0.9868(5) 0.7330(2)
F2 F 0.9193(9) 0.7609(6) 0.6363(2)
O1 O -0.2294(9) 0.7327(5) 0.9169(2)
O2 O -0.5199(9) 0.7844(5) 0.9552(1)
O3 O -0.375(1) 0.9200(5) 0.8511(2)
C1 C -0.435(2) 0.7504(7) 0.9223(2)
C2 C -0.592(1) 0.7250(7) 0.8867(2)
C3 C -0.729(1) 0.6103(7) 0.8955(2)
C4 C -0.462(1) 0.7116(7) 0.8474(2)
C5 C -0.335(1) 0.8220(8) 0.8375(2)
C6 C -0.139(2) 0.8090(8) 0.8075(2)
C7 C -0.106(2) 0.7106(8) 0.7828(2)
C8 C 0.066(2) 0.7063(8) 0.7546(2)
C9 C 0.216(1) 0.8023(8) 0.7503(2)
C10 C 0.184(2) 0.8997(8) 0.7759(2)
C11 C 0.013(2) 0.9038(8) 0.8037(2)
C12 C 0.402(1) 0.7927(8) 0.7194(2)
C13 C 0.430(2) 0.6912(8) 0.6954(2)
C14 C 0.597(2) 0.6771(9) 0.6673(3)
C15 C 0.746(2) 0.771(1) 0.6633(3)
C16 C 0.730(2) 0.8740(9) 0.6843(3)
C17 C 0.560(2) 0.8814(8) 0.7123(3)
H4 H -0.695(1) 0.7947(7) 0.8824(2)
H5 H -0.830(1) 0.5924(7) 0.8721(2)
H6 H -0.821(1) 0.6228(7) 0.9205(2)
H7 H -0.624(1) 0.5416(7) 0.8998(2)
H8 H -0.354(1) 0.6439(7) 0.8503(2)
H9 H -0.569(1) 0.6939(7) 0.8248(2)
H10 H -0.211(2) 0.6411(8) 0.7852(2)
H11 H 0.085(2) 0.6339(8) 0.7371(2)
H12 H 0.289(2) 0.9693(8) 0.7740(2)
H13 H -0.003(2) 0.9755(8) 0.8216(2)
H14 H 0.323(2) 0.6235(8) 0.6992(2)
H15 H 0.609(2) 0.6033(9) 0.6503(3)
H16 H 0.838(2) 0.9414(9) 0.6798(3)
N1 N -0.968(1) 0.8398(6) 0.9721(2)
C18 C -0.965(1) 1.0392(8) 1.0047(2)
C19 C -1.097(2) 1.1303(9) 1.0192(3)
C20 C -1.040(2) 1.1978(9) 1.0521(3)
C21 C -0.840(2) 1.1789(9) 1.0720(3)
C22 C -0.705(2) 1.0893(9) 1.0579(3)
C23 C -0.760(2) 1.0204(8) 1.0247(3)
C24 C -1.035(1) 0.9689(7) 0.9685(2)
C25 C -0.956(2) 1.0187(8) 0.9285(2)
H1 H -0.8680 0.8278 0.9658
H2 H -1.0340 0.8081 0.9559
H3 H -0.9855 0.8069 1.0009
H17 H -1.242(2) 1.1471(9) 1.0050(3)
H18 H -1.144(2) 1.2624(9) 1.0616(3)
H19 H -0.795(2) 1.2279(9) 1.0961(3)
H20 H -0.559(2) 1.0738(9) 1.0717(3)
H21 H -0.655(2) 0.9563(8) 1.0151(3)
H22 H -1.203(1) 0.9697(7) 0.9692(2)
H23 H -1.003(2) 1.1045(8) 0.9271(2)
H24 H -0.789(2) 1.0132(8) 0.9266(2)
H25 H -1.026(2) 0.9736(8) 0.9055(2)
loop_
_geom_bond_atom_site_label_1
_geom_bond_atom_site_label_2
_geom_bond_site_symmetry_1
_geom_bond_site_symmetry_2
F1 C17 1_555 1_555
F2 C15 1_555 1_555
O1 C1 1_555 1_555
O2 C1 1_555 1_555
O3 C5 1_555 1_555
N1 C24 1_555 1_555
C1 C2 1_555 1_555
C2 C3 1_555 1_555
C3 H5 1_555 1_555
C4 C2 1_555 1_555
C5 C4 1_555 1_555
C6 C5 1_555 1_555
C7 C6 1_555 1_555
C8 C7 1_555 1_555
C9 C8 1_555 1_555
C10 C9 1_555 1_555
C11 C6 1_555 1_555
C12 C9 1_555 1_555
C13 C12 1_555 1_555
C14 C13 1_555 1_555
C15 C14 1_555 1_555
C16 C15 1_555 1_555
C17 C12 1_555 1_555
C18 C19 1_555 1_555
C19 C20 1_555 1_555
C20 C21 1_555 1_555
C21 C22 1_555 1_555
C22 C23 1_555 1_555
C23 C18 1_555 1_555
C24 C18 1_555 1_555
C25 C24 1_555 1_555
H1 N1 1_555 1_555
H2 N1 1_555 1_555
H3 N1 1_555 1_555
H4 C2 1_555 1_555
H6 C3 1_555 1_555
H7 C3 1_555 1_555
H8 C4 1_555 1_555
H9 C4 1_555 1_555
H10 C7 1_555 1_555
H11 C8 1_555 1_555
H12 C10 1_555 1_555
H13 C11 1_555 1_555
H14 C13 1_555 1_555
H15 C14 1_555 1_555
H16 C16 1_555 1_555
H17 C19 1_555 1_555
H18 C20 1_555 1_555
H19 C21 1_555 1_555
H20 C22 1_555 1_555
H21 C23 1_555 1_555
H22 C24 1_555 1_555
H23 C25 1_555 1_555
H24 C25 1_555 1_555
H25 C25 1_555 1_555
C10 C11 1_555 1_555
C16 C17 1_555 1_555

#END
