
#######################################################################
#
#                 Cambridge Crystallographic Data Centre
#                                CCDC 
#
#######################################################################
#
# If this CIF has been generated from an entry in the Cambridge 
# Structural Database, then it will include bibliographic, chemical, 
# crystal, experimental, refinement or atomic coordinate data resulting 
# from the CCDC's data processing and validation procedures.
#
#######################################################################

data_NEBLOX
_chemical_formula_moiety         'C21 H15 N1 O2'
_chemical_name_systematic        
4-Phenyl-4,11-dihydropyrano[2,3-a]carbazol-2(3H)-one
_symmetry_cell_setting           monoclinic
_symmetry_space_group_name_H-M   'P 21/c'
_symmetry_Int_Tables_number      14
_space_group_name_Hall           '-P 2ybc'
loop_
_symmetry_equiv_pos_site_id
_symmetry_equiv_pos_as_xyz
1 x,y,z
2 -x,1/2+y,1/2-z
3 -x,-y,-z
4 x,1/2-y,1/2+z
_cell_length_a                   11.717(6)
_cell_length_b                   5.172(3)
_cell_length_c                   25.180(12)
_cell_angle_alpha                90
_cell_angle_beta                 99.200(7)
_cell_angle_gamma                90
_cell_volume                     1506.29
_exptl_crystal_colour            colorless
_exptl_crystal_description       block
_cell_formula_units_Z            4
loop_
_atom_site_label
_atom_site_type_symbol
_atom_site_fract_x
_atom_site_fract_y
_atom_site_fract_z
C1 C 0.36569(9) 0.4141(2) 0.18535(4)
C2 C 0.45185(10) 0.2363(2) 0.20487(5)
H1 H 0.4381 0.1016 0.2287
C3 C 0.55873(10) 0.2641(2) 0.18800(5)
H2 H 0.6190 0.1457 0.2006
C4 C 0.57951(10) 0.4634(3) 0.15277(5)
H3 H 0.6535 0.4784 0.1422
C5 C 0.49300(10) 0.6385(2) 0.13332(5)
H4 H 0.5073 0.7732 0.1096
C6 C 0.38409(10) 0.6134(2) 0.14927(4)
C7 C 0.27541(9) 0.7514(2) 0.13596(4)
C8 C 0.23728(10) 0.9586(2) 0.10179(5)
H5 H 0.2891 1.0441 0.0822
C9 C 0.12262(10) 1.0370(2) 0.09695(5)
H6 H 0.0961 1.1755 0.0734
C10 C 0.04478(10) 0.9155(2) 0.12627(4)
C11 C 0.08394(9) 0.7136(2) 0.16070(4)
C12 C 0.19791(9) 0.6289(2) 0.16573(4)
C13 C -0.08756(9) 0.6918(2) 0.20127(4)
C14 C -0.11948(10) 0.9517(2) 0.17640(5)
H7 H -0.0830 1.0883 0.2010
H8 H -0.2043 0.9740 0.1725
C15 C -0.08177(10) 0.9872(2) 0.12068(4)
H9 H -0.0894 1.1747 0.1110
C16 C -0.15882(10) 0.8334(2) 0.07676(4)
C17 C -0.27599(10) 0.8988(3) 0.06320(5)
H10 H -0.3065 1.0384 0.0811
C18 C -0.34820(11) 0.7608(3) 0.02376(5)
H11 H -0.4274 0.8075 0.0148
C19 C -0.30516(12) 0.5555(3) -0.00260(5)
H12 H -0.3548 0.4604 -0.0291
C20 C -0.18907(12) 0.4902(3) 0.01008(5)
H13 H -0.1590 0.3507 -0.0080
C21 C -0.11625(11) 0.6292(2) 0.04937(5)
H14 H -0.0368 0.5843 0.0575
N1 N 0.25326(8) 0.43004(18) 0.19622(4)
H15 H 0.2227 0.3308 0.2186
O1 O 0.01143(7) 0.57803(15) 0.19048(3)
O2 O -0.14152(7) 0.57603(16) 0.23076(3)
loop_
_geom_bond_atom_site_label_1
_geom_bond_atom_site_label_2
_geom_bond_site_symmetry_1
_geom_bond_site_symmetry_2
C1 C2 1_555 1_555
C2 H1 1_555 1_555
C3 C2 1_555 1_555
H2 C3 1_555 1_555
C4 C3 1_555 1_555
H3 C4 1_555 1_555
C5 C4 1_555 1_555
H4 C5 1_555 1_555
C6 C1 1_555 1_555
C7 C6 1_555 1_555
C8 C7 1_555 1_555
H5 C8 1_555 1_555
C9 C8 1_555 1_555
H6 C9 1_555 1_555
C10 C9 1_555 1_555
C11 C10 1_555 1_555
C12 C7 1_555 1_555
C13 C14 1_555 1_555
C14 H7 1_555 1_555
H8 C14 1_555 1_555
C15 C10 1_555 1_555
H9 C15 1_555 1_555
C16 C15 1_555 1_555
C17 C16 1_555 1_555
H10 C17 1_555 1_555
C18 C17 1_555 1_555
H11 C18 1_555 1_555
C19 C18 1_555 1_555
H12 C19 1_555 1_555
C20 C19 1_555 1_555
H13 C20 1_555 1_555
C21 C16 1_555 1_555
H14 C21 1_555 1_555
N1 C1 1_555 1_555
H15 N1 1_555 1_555
O1 C11 1_555 1_555
O2 C13 1_555 1_555
C5 C6 1_555 1_555
C11 C12 1_555 1_555
C12 N1 1_555 1_555
C13 O1 1_555 1_555
C14 C15 1_555 1_555
C20 C21 1_555 1_555

#END
