
#######################################################################
#
#                 Cambridge Crystallographic Data Centre
#                                CCDC 
#
#######################################################################
#
# If this CIF has been generated from an entry in the Cambridge 
# Structural Database, then it will include bibliographic, chemical, 
# crystal, experimental, refinement or atomic coordinate data resulting 
# from the CCDC's data processing and validation procedures.
#
#######################################################################

data_NEBMIQ
_chemical_formula_moiety         'C11 H24 N1 1+,C3 F7 O1 1-'
_chemical_name_systematic        
'1,1,3,3,5,5-Hexamethylpiperidinium heptafluoroisopropoxide'
_symmetry_cell_setting           monoclinic
_symmetry_space_group_name_H-M   'P 21/c'
_symmetry_Int_Tables_number      14
_space_group_name_Hall           '-P 2ybc'
loop_
_symmetry_equiv_pos_site_id
_symmetry_equiv_pos_as_xyz
1 x,y,z
2 x,1/2-y,1/2+z
3 -x,-y,-z
4 -x,1/2+y,1/2-z
_cell_length_a                   11.8220(10)
_cell_length_b                   10.329(2)
_cell_length_c                   14.5910(10)
_cell_angle_alpha                90
_cell_angle_beta                 107.450(10)
_cell_angle_gamma                90
_cell_volume                     1699.7
_exptl_crystal_colour            colorless
_cell_formula_units_Z            4
loop_
_atom_site_label
_atom_site_type_symbol
_atom_site_fract_x
_atom_site_fract_y
_atom_site_fract_z
C1 C 0.27584(13) 0.1952(2) 0.05425(11)
C2 C 0.16106(14) 0.1436(2) 0.06999(11)
C3 C 0.25659(13) 0.31271(14) -0.01340(11)
O1 O 0.32746(9) 0.10010(10) 0.01834(7)
F1 F 0.19570(10) 0.28276(10) -0.10376(6)
F2 F 0.19771(11) 0.40981(10) 0.01241(8)
F3 F 0.36105(10) 0.35992(12) -0.01539(10)
F4 F 0.08269(9) 0.10721(11) -0.01258(8)
F5 F 0.10636(10) 0.22944(12) 0.11020(10)
F6 F 0.18357(12) 0.04004(13) 0.12660(9)
F7 F 0.34437(9) 0.24383(11) 0.14453(7)
N1 N 0.62959(9) 0.03285(10) 0.19895(7)
C4 C 0.75592(11) -0.01781(13) 0.23299(9)
C5 C 0.85528(11) 0.08336(13) 0.25262(9)
C6 C 0.83222(12) 0.17411(14) 0.16538(10)
C7 C 0.70720(12) 0.23208(12) 0.12666(9)
C8 C 0.61446(12) 0.12465(13) 0.11493(9)
C9 C 0.54924(13) -0.08112(14) 0.16176(10)
C10 C 0.59014(13) 0.0903(2) 0.27870(10)
C11 C 0.87830(13) 0.1551(2) 0.34858(10)
C12 C 0.96806(13) 0.0045(2) 0.25982(12)
C13 C 0.6853(2) 0.34987(15) 0.18340(12)
C14 C 0.6909(2) 0.2797(2) 0.02356(11)
H1 H 0.7605(16) -0.0705(19) 0.2880(13)
H2 H 0.7595(17) -0.0730(19) 0.1811(14)
H3 H 0.8925(17) 0.2440(19) 0.1819(13)
H4 H 0.8484(16) 0.1230(19) 0.1116(13)
H5 H 0.5373(17) 0.1581(19) 0.1018(13)
H6 H 0.6211(17) 0.0703(19) 0.0635(13)
H7 H 0.4703(17) -0.0518(19) 0.1383(13)
H8 H 0.5723(17) -0.1190(19) 0.1073(14)
H9 H 0.5570(16) -0.1394(19) 0.2125(14)
H10 H 0.5101(18) 0.1164(18) 0.2527(14)
H11 H 0.6021(16) 0.0237(19) 0.3279(14)
H12 H 0.6377(17) 0.1663(19) 0.3056(14)
H13 H 0.9482(17) 0.2069(19) 0.3598(13)
H14 H 0.8885(17) 0.0958(19) 0.4031(14)
H15 H 0.8153(17) 0.2148(19) 0.3508(13)
H16 H 1.0356(17) 0.0633(19) 0.2681(13)
H17 H 0.9581(16) -0.0439(19) 0.2016(14)
H18 H 0.9845(17) -0.0544(19) 0.3143(14)
H19 H 0.6039(17) 0.3788(19) 0.1546(14)
H20 H 0.6980(16) 0.3308(19) 0.2517(14)
H21 H 0.7400(17) 0.4147(19) 0.1808(14)
H22 H 0.6133(17) 0.3180(19) -0.0042(13)
H23 H 0.7002(17) 0.2103(20) -0.0175(13)
H24 H 0.7478(17) 0.3473(20) 0.0238(13)
loop_
_geom_bond_atom_site_label_1
_geom_bond_atom_site_label_2
_geom_bond_site_symmetry_1
_geom_bond_site_symmetry_2
C1 C2 1_555 1_555
C2 F4 1_555 1_555
C3 C1 1_555 1_555
O1 C1 1_555 1_555
F1 C3 1_555 1_555
F2 C3 1_555 1_555
F3 C3 1_555 1_555
F5 C2 1_555 1_555
F6 C2 1_555 1_555
F7 C1 1_555 1_555
N1 C4 1_555 1_555
C4 C5 1_555 1_555
C5 C6 1_555 1_555
C6 C7 1_555 1_555
C7 C8 1_555 1_555
C8 N1 1_555 1_555
C9 N1 1_555 1_555
C10 N1 1_555 1_555
C11 C5 1_555 1_555
C12 C5 1_555 1_555
C13 C7 1_555 1_555
C14 C7 1_555 1_555
H1 C4 1_555 1_555
H2 C4 1_555 1_555
H3 C6 1_555 1_555
H4 C6 1_555 1_555
H5 C8 1_555 1_555
H6 C8 1_555 1_555
H7 C9 1_555 1_555
H8 C9 1_555 1_555
H9 C9 1_555 1_555
H10 C10 1_555 1_555
H11 C10 1_555 1_555
H12 C10 1_555 1_555
H13 C11 1_555 1_555
H14 C11 1_555 1_555
H15 C11 1_555 1_555
H16 C12 1_555 1_555
H17 C12 1_555 1_555
H18 C12 1_555 1_555
H19 C13 1_555 1_555
H20 C13 1_555 1_555
H21 C13 1_555 1_555
H22 C14 1_555 1_555
H23 C14 1_555 1_555
H24 C14 1_555 1_555

#END
