
#######################################################################
#
#                 Cambridge Crystallographic Data Centre
#                                CCDC 
#
#######################################################################
#
# If this CIF has been generated from an entry in the Cambridge 
# Structural Database, then it will include bibliographic, chemical, 
# crystal, experimental, refinement or atomic coordinate data resulting 
# from the CCDC's data processing and validation procedures.
#
#######################################################################

data_NEBMOW
_chemical_formula_moiety         'C4 H12 N1 1+,C2 F3 O2 1-'
_chemical_name_systematic        
'Tetramethylammonium 1,2,2-trifluoro-1-oxo-ethoxide'
_symmetry_cell_setting           tetragonal
_symmetry_space_group_name_H-M   'P -4 21 c'
_symmetry_Int_Tables_number      114
_space_group_name_Hall           'P -4 2n'
loop_
_symmetry_equiv_pos_site_id
_symmetry_equiv_pos_as_xyz
1 x,y,z
2 -x,-y,z
3 -y,x,-z
4 y,-x,-z
5 1/2-x,1/2+y,1/2-z
6 1/2+x,1/2-y,1/2-z
7 1/2+y,1/2+x,1/2+z
8 1/2-y,1/2-x,1/2+z
_cell_length_a                   11.1590(10)
_cell_length_b                   11.1590(10)
_cell_length_c                   13.7710(10)
_cell_angle_alpha                90
_cell_angle_beta                 90
_cell_angle_gamma                90
_cell_volume                     1714.81
_exptl_crystal_colour            colorless
_chemical_melting_point          138-141deg.C(dec.)
_cell_formula_units_Z            8
_chemical_properties_physical    Water-sensitive
loop_
_atom_site_label
_atom_site_type_symbol
_atom_site_fract_x
_atom_site_fract_y
_atom_site_fract_z
N1 N 0.5000 0.5000 0.20570(13)
C1 C 0.5822(2) 0.5705(2) 0.26967(13)
H1 H 0.5358(20) 0.6183(22) 0.3114(16)
H2 H 0.6342(21) 0.6148(21) 0.2293(19)
H3 H 0.6257(22) 0.5152(22) 0.3076(15)
C2 C 0.5705(2) 0.4161(2) 0.14324(13)
H4 H 0.5132(22) 0.3670(22) 0.1053(15)
H5 H 0.6150(20) 0.3654(21) 0.1830(18)
H6 H 0.6219(22) 0.4622(21) 0.1000(16)
C1A C 0.4178(2) 0.4295(2) 0.26967(13)
H1A H 0.4642(20) 0.3817(22) 0.3114(16)
H2A H 0.3658(21) 0.3852(21) 0.2293(19)
H3A H 0.3743(22) 0.4848(22) 0.3076(15)
C2A C 0.4295(2) 0.5839(2) 0.14324(13)
H4A H 0.4868(22) 0.6330(22) 0.1053(15)
H5A H 0.3850(20) 0.6346(21) 0.1830(18)
H6A H 0.3781(22) 0.5378(21) 0.1000(16)
N2 N 0.0000 0.5000 0.2385(2)
C3 C -0.0795(2) 0.5749(2) 0.30108(14)
H7 H -0.0299(22) 0.6224(21) 0.3418(16)
H8 H -0.1258(21) 0.5234(22) 0.3389(16)
H9 H -0.1289(22) 0.6241(22) 0.2595(17)
C4 C -0.0758(2) 0.4206(2) 0.1759(2)
H10 H -0.0222(22) 0.3669(21) 0.1381(15)
H11 H -0.1236(21) 0.4697(21) 0.1341(16)
H12 H -0.1229(22) 0.3736(21) 0.2175(17)
C3A C 0.0795(2) 0.4251(2) 0.30108(14)
H7A H 0.0299(22) 0.3776(21) 0.3418(16)
H8A H 0.1258(21) 0.4766(22) 0.3389(16)
H9A H 0.1289(22) 0.3759(22) 0.2595(17)
C4A C 0.0758(2) 0.5794(2) 0.1759(2)
H10A H 0.0222(22) 0.6331(21) 0.1381(15)
H11A H 0.1236(21) 0.5303(21) 0.1341(16)
H12A H 0.1229(22) 0.6264(21) 0.2175(17)
F1 F 0.78044(10) 0.20587(10) 0.08748(7)
F2 F 0.63796(10) 0.26595(13) -0.06814(9)
F3 F 0.81298(13) 0.35574(10) -0.05142(9)
O1 O 0.79388(14) 0.21627(15) -0.16678(8)
O2 O 0.80300(15) 0.05136(11) -0.00871(11)
C5 C 0.7674(2) 0.2446(2) -0.08394(13)
C6 C 0.78820(15) 0.1549(2) -0.00139(13)
loop_
_geom_bond_atom_site_label_1
_geom_bond_atom_site_label_2
_geom_bond_site_symmetry_1
_geom_bond_site_symmetry_2
N1 C1 1_555 1_555
C1 H1 1_555 1_555
H2 C1 1_555 1_555
H3 C1 1_555 1_555
C2 N1 1_555 1_555
H4 C2 1_555 1_555
H5 C2 1_555 1_555
H6 C2 1_555 1_555
N2 C3 1_555 1_555
C3 H7 1_555 1_555
H8 C3 1_555 1_555
H9 C3 1_555 1_555
C4 N2 1_555 1_555
H10 C4 1_555 1_555
H11 C4 1_555 1_555
H12 C4 1_555 1_555
F1 C6 1_555 1_555
F2 C5 1_555 1_555
F3 C5 1_555 1_555
O1 C5 1_555 1_555
O2 C6 1_555 1_555
C5 C6 1_555 1_555
C1A N1 1_555 1_555
H1A C1A 1_555 1_555
H2A C1A 1_555 1_555
H3A C1A 1_555 1_555
C2A N1 1_555 1_555
H4A C2A 1_555 1_555
H5A C2A 1_555 1_555
H6A C2A 1_555 1_555
C3A N2 1_555 1_555
H7A C3A 1_555 1_555
H8A C3A 1_555 1_555
H9A C3A 1_555 1_555
C4A N2 1_555 1_555
H10A C4A 1_555 1_555
H11A C4A 1_555 1_555
H12A C4A 1_555 1_555

#END
