
#######################################################################
#
#                 Cambridge Crystallographic Data Centre
#                                CCDC 
#
#######################################################################
#
# If this CIF has been generated from an entry in the Cambridge 
# Structural Database, then it will include bibliographic, chemical, 
# crystal, experimental, refinement or atomic coordinate data resulting 
# from the CCDC's data processing and validation procedures.
#
#######################################################################

data_NEBMEM
_chemical_formula_moiety         'C11 H24 N1 1+,C2 F5 O1 1-'
_chemical_name_systematic        
'1,1,3,3,5,5-Hexamethylpiperidinium pentafluoroethanolate'
_symmetry_cell_setting           monoclinic
_symmetry_space_group_name_H-M   'P 21/c'
_symmetry_Int_Tables_number      14
_space_group_name_Hall           '-P 2ybc'
loop_
_symmetry_equiv_pos_site_id
_symmetry_equiv_pos_as_xyz
1 x,y,z
2 x,1/2-y,1/2+z
3 -x,-y,-z
4 -x,1/2+y,1/2-z
_cell_length_a                   13.0070(10)
_cell_length_b                   8.2800(10)
_cell_length_c                   15.133(2)
_cell_angle_alpha                90
_cell_angle_beta                 110.130(10)
_cell_angle_gamma                90
_cell_volume                     1530.24
_exptl_crystal_colour            colorless
_cell_formula_units_Z            4
loop_
_atom_site_label
_atom_site_type_symbol
_atom_site_fract_x
_atom_site_fract_y
_atom_site_fract_z
C1 C 0.6640(3) 0.1837(5) 0.5490(3)
C2 C 0.7868(3) 0.1700(4) 0.5702(2)
F1 F 0.6038(2) 0.0791(4) 0.4884(2)
F2 F 0.6269(2) 0.3318(3) 0.5281(2)
F3 F 0.6416(2) 0.1542(4) 0.6301(2)
F4 F 0.8092(2) 0.0041(3) 0.5780(2)
F5 F 0.7897(3) 0.1966(4) 0.4766(2)
O1 O 0.8470(2) 0.2600(3) 0.6307(2)
N1 N 0.1363(2) 0.0514(3) 0.6903(2)
C3 C 0.2557(3) 0.0072(4) 0.7284(2)
H1 H 0.2578(35) -0.0528(53) 0.6801(31)
H2 H 0.2659(34) -0.0528(53) 0.7870(31)
C4 C 0.3378(3) 0.1478(4) 0.7489(2)
C5 C 0.3067(3) 0.2610(4) 0.6633(3)
H3 H 0.3457(36) 0.3555(58) 0.6766(30)
H4 H 0.3123(34) 0.2071(54) 0.6107(31)
C6 C 0.1874(3) 0.3133(4) 0.6203(2)
C7 C 0.1127(3) 0.1653(4) 0.6077(2)
H5 H 0.0384(38) 0.1852(53) 0.5899(30)
H6 H 0.1179(35) 0.1061(55) 0.5673(32)
C8 C 0.0954(3) 0.1160(5) 0.7651(2)
H7 H 0.0213(38) 0.1337(54) 0.7367(30)
H8 H 0.1329(36) 0.2085(59) 0.7926(30)
H9 H 0.1093(36) 0.0459(58) 0.8063(33)
C9 C 0.0731(3) -0.1017(4) 0.6550(3)
H10 H -0.0006(38) -0.0721(54) 0.6330(30)
H11 H 0.0875(36) -0.1721(56) 0.7003(32)
H12 H 0.0948(37) -0.1363(55) 0.6144(32)
C10 C 0.4483(3) 0.0679(6) 0.7600(3)
H13 H 0.4991(38) 0.1434(58) 0.7760(30)
H14 H 0.4465(36) 0.0190(55) 0.7074(33)
H15 H 0.4700(34) -0.0128(54) 0.8117(31)
C11 C 0.3528(3) 0.2347(5) 0.8425(3)
H16 H 0.3758(34) 0.1493(55) 0.8910(30)
H17 H 0.2860(37) 0.2939(53) 0.8434(28)
H18 H 0.4157(38) 0.2945(54) 0.8581(29)
C12 C 0.1561(3) 0.4534(4) 0.6736(3)
H19 H 0.0814(39) 0.4731(53) 0.6448(30)
H20 H 0.1918(35) 0.5488(57) 0.6657(30)
H21 H 0.1748(35) 0.4365(53) 0.7376(33)
C13 C 0.1660(4) 0.3745(5) 0.5195(3)
H22 H 0.1980(34) 0.2834(55) 0.4850(29)
H23 H 0.2102(37) 0.4546(58) 0.5281(31)
H24 H 0.0907(37) 0.4010(54) 0.4867(30)
loop_
_geom_bond_atom_site_label_1
_geom_bond_atom_site_label_2
_geom_bond_site_symmetry_1
_geom_bond_site_symmetry_2
C1 C2 1_555 1_555
C2 F4 1_555 1_555
F1 C1 1_555 1_555
F2 C1 1_555 1_555
F3 C1 1_555 1_555
F5 C2 1_555 1_555
O1 C2 1_555 1_555
N1 C3 1_555 1_555
C3 H1 1_555 1_555
H2 C3 1_555 1_555
C4 C3 1_555 1_555
C5 C4 1_555 1_555
H3 C5 1_555 1_555
H4 C5 1_555 1_555
C6 C5 1_555 1_555
C7 N1 1_555 1_555
H5 C7 1_555 1_555
H6 C7 1_555 1_555
C8 N1 1_555 1_555
H7 C8 1_555 1_555
H8 C8 1_555 1_555
H9 C8 1_555 1_555
C9 N1 1_555 1_555
H10 C9 1_555 1_555
H11 C9 1_555 1_555
H12 C9 1_555 1_555
C10 C4 1_555 1_555
H13 C10 1_555 1_555
H14 C10 1_555 1_555
H15 C10 1_555 1_555
C11 C4 1_555 1_555
H16 C11 1_555 1_555
H17 C11 1_555 1_555
H18 C11 1_555 1_555
C12 C6 1_555 1_555
H19 C12 1_555 1_555
H20 C12 1_555 1_555
H21 C12 1_555 1_555
C13 C6 1_555 1_555
H22 C13 1_555 1_555
H23 C13 1_555 1_555
H24 C13 1_555 1_555
C6 C7 1_555 1_555

#END
