
#######################################################################
#
#                 Cambridge Crystallographic Data Centre
#                                CCDC 
#
#######################################################################
#
# If this CIF has been generated from an entry in the Cambridge 
# Structural Database, then it will include bibliographic, chemical, 
# crystal, experimental, refinement or atomic coordinate data resulting 
# from the CCDC's data processing and validation procedures.
#
#######################################################################

data_NEBMAK
_chemical_formula_moiety         'C20 H18 Cl1 N1 O2'
_chemical_name_systematic        
6-Benzylidene-5-(2-chlorophenyl)-7-hydroxy-7-methyl-5-azaspiro[2.4]heptan-4-one
_symmetry_cell_setting           monoclinic
_symmetry_space_group_name_H-M   'P 21'
_symmetry_Int_Tables_number      4
_space_group_name_Hall           'P 2yb'
loop_
_symmetry_equiv_pos_site_id
_symmetry_equiv_pos_as_xyz
1 x,y,z
2 -x,1/2+y,-z
_cell_length_a                   7.3140(6)
_cell_length_b                   12.3613(11)
_cell_length_c                   10.2123(10)
_cell_angle_alpha                90
_cell_angle_beta                 110.020(4)
_cell_angle_gamma                90
_cell_volume                     867.508
_exptl_crystal_colour            colorless
_exptl_crystal_description       block
_cell_formula_units_Z            2
loop_
_atom_site_label
_atom_site_type_symbol
_atom_site_fract_x
_atom_site_fract_y
_atom_site_fract_z
C1 C 0.1951(4) 0.2591(3) 0.2063(3)
C2 C 0.0606(5) 0.2100(3) 0.0920(3)
H1 H 0.0845 0.2036 0.0086
C3 C -0.1084(6) 0.1707(3) 0.1035(4)
H2 H -0.1981 0.1364 0.0275
C4 C -0.1476(5) 0.1810(3) 0.2236(4)
H3 H -0.2641 0.1547 0.2288
C5 C -0.0137(4) 0.2308(3) 0.3388(3)
H4 H -0.0407 0.2385 0.4209
C6 C 0.1603(4) 0.2688(2) 0.3305(3)
C7 C 0.4769(4) 0.2716(3) 0.5181(3)
C8 C 0.5791(4) 0.3408(2) 0.6401(3)
C9 C 0.4239(4) 0.4125(2) 0.6633(3)
C10 C 0.2667(4) 0.4123(2) 0.5192(3)
C11 C 0.1286(4) 0.4869(2) 0.4765(3)
H5 H 0.1329 0.5380 0.5442
C12 C -0.0302(4) 0.5048(2) 0.3432(3)
C13 C -0.2085(5) 0.5400(3) 0.3443(4)
H6 H -0.2252 0.5535 0.4291
C14 C -0.3632(6) 0.5558(3) 0.2215(5)
H7 H -0.4825 0.5792 0.2246
C15 C -0.3410(7) 0.5371(3) 0.0962(5)
H8 H -0.4456 0.5462 0.0139
C16 C -0.1644(8) 0.5050(3) 0.0922(4)
H9 H -0.1492 0.4927 0.0066
C17 C -0.0066(6) 0.4903(3) 0.2149(3)
H10 H 0.1142 0.4709 0.2109
C18 C 0.7799(5) 0.3813(4) 0.6536(4)
H11 H 0.8343 0.3584 0.5837
H12 H 0.8152 0.4540 0.6892
C19 C 0.7557(4) 0.2985(4) 0.7510(3)
H13 H 0.7772 0.3206 0.8463
H14 H 0.7962 0.2252 0.7409
C20 C 0.3444(5) 0.3628(3) 0.7696(3)
H15 H 0.4455 0.3606 0.8592
H16 H 0.2996 0.2906 0.7412
H17 H 0.2382 0.4058 0.7753
Cl1 Cl 0.40103(12) 0.31357(10) 0.18782(9)
N1 N 0.2993(3) 0.3194(2) 0.4488(2)
O1 O 0.4894(3) 0.51720(16) 0.71319(19)
H18 H 0.5018 0.5536 0.6496
O2 O 0.5337(4) 0.1873(2) 0.4837(2)
loop_
_geom_bond_atom_site_label_1
_geom_bond_atom_site_label_2
_geom_bond_site_symmetry_1
_geom_bond_site_symmetry_2
C1 C2 1_555 1_555
C2 H1 1_555 1_555
C3 C2 1_555 1_555
H2 C3 1_555 1_555
C4 C3 1_555 1_555
H3 C4 1_555 1_555
C5 C4 1_555 1_555
H4 C5 1_555 1_555
C6 C1 1_555 1_555
C7 C8 1_555 1_555
C8 C9 1_555 1_555
C9 C10 1_555 1_555
C10 C11 1_555 1_555
C11 H5 1_555 1_555
C12 C11 1_555 1_555
C13 C12 1_555 1_555
H6 C13 1_555 1_555
C14 C13 1_555 1_555
H7 C14 1_555 1_555
C15 C14 1_555 1_555
H8 C15 1_555 1_555
C16 C15 1_555 1_555
H9 C16 1_555 1_555
C17 C12 1_555 1_555
H10 C17 1_555 1_555
C18 C8 1_555 1_555
H11 C18 1_555 1_555
H12 C18 1_555 1_555
C19 C8 1_555 1_555
H13 C19 1_555 1_555
H14 C19 1_555 1_555
C20 C9 1_555 1_555
H15 C20 1_555 1_555
H16 C20 1_555 1_555
H17 C20 1_555 1_555
Cl1 C1 1_555 1_555
N1 C6 1_555 1_555
O1 C9 1_555 1_555
H18 O1 1_555 1_555
O2 C7 1_555 1_555
C5 C6 1_555 1_555
C7 N1 1_555 1_555
C10 N1 1_555 1_555
C16 C17 1_555 1_555
C18 C19 1_555 1_555

#END
