
#######################################################################
#
#                 Cambridge Crystallographic Data Centre
#                                CCDC 
#
#######################################################################
#
# If this CIF has been generated from an entry in the Cambridge 
# Structural Database, then it will include bibliographic, chemical, 
# crystal, experimental, refinement or atomic coordinate data resulting 
# from the CCDC's data processing and validation procedures.
#
#######################################################################

data_NEBSUL
_chemical_formula_moiety         'C17 H16 O4'
_chemical_name_systematic        
1-(8-hydroxy-2-(2-hydroxypropyl)benzo[de]chromen-7-yl)ethanone
_symmetry_cell_setting           orthorhombic
_symmetry_space_group_name_H-M   'P 21 21 2'
_symmetry_Int_Tables_number      18
_space_group_name_Hall           'P 2 2ab'
loop_
_symmetry_equiv_pos_site_id
_symmetry_equiv_pos_as_xyz
1 x,y,z
2 -x,-y,z
3 1/2-x,1/2+y,-z
4 1/2+x,1/2-y,-z
_cell_length_a                   15.0623(14)
_cell_length_b                   18.6529(18)
_cell_length_c                   4.9226(4)
_cell_angle_alpha                90
_cell_angle_beta                 90
_cell_angle_gamma                90
_cell_volume                     1383.03
_cell_formula_units_Z            4
loop_
_atom_site_label
_atom_site_type_symbol
_atom_site_fract_x
_atom_site_fract_y
_atom_site_fract_z
O1 O 0.7628(2) 0.5637(2) 0.6977(9)
H1 H 0.7624 0.5946 0.5791
O2 O 0.9861(2) 0.66105(16) 0.5903(6)
O3 O 1.1872(2) 0.71257(16) -0.0916(7)
H2 H 1.1997 0.7410 -0.2128
O4 O 1.1887(2) 0.82929(17) -0.3287(7)
C1 C 0.8488(3) 0.4842(3) 0.9564(13)
H3 H 0.8247 0.4446 0.8562
H4 H 0.8122 0.4936 1.1120
H5 H 0.9079 0.4728 1.0150
C2 C 0.8513(3) 0.5497(3) 0.7775(11)
H6 H 0.8872 0.5394 0.6160
C3 C 0.8913(3) 0.6143(2) 0.9285(9)
H7 H 0.8499 0.6299 1.0675
H8 H 0.9455 0.5994 1.0184
C4 C 0.9114(3) 0.6757(3) 0.7474(10)
C5 C 0.8686(3) 0.7367(3) 0.7186(10)
H9 H 0.8192 0.7452 0.8271
C6 C 0.8948(3) 0.7909(2) 0.5276(9)
C7 C 0.8503(3) 0.8549(3) 0.4953(11)
H10 H 0.8018 0.8660 0.6041
C8 C 0.8791(3) 0.9023(3) 0.2988(10)
H11 H 0.8472 0.9444 0.2712
C9 C 0.9534(3) 0.8896(2) 0.1416(10)
H12 H 0.9708 0.9236 0.0144
C10 C 1.0034(3) 0.8259(2) 0.1702(9)
C11 C 0.9718(3) 0.7774(2) 0.3669(9)
C12 C 1.0145(3) 0.7098(2) 0.4051(9)
C13 C 1.0870(3) 0.6914(2) 0.2511(8)
H13 H 1.1155 0.6478 0.2796
C14 C 1.1174(3) 0.7380(3) 0.0529(9)
C15 C 1.0814(3) 0.8068(2) 0.0097(9)
C16 C 1.1259(3) 0.8535(3) -0.1852(10)
C17 C 1.1039(4) 0.9304(3) -0.2252(13)
H14 H 1.0502 0.9344 -0.3292
H15 H 1.1515 0.9537 -0.3205
H16 H 1.0957 0.9530 -0.0516
loop_
_geom_bond_atom_site_label_1
_geom_bond_atom_site_label_2
_geom_bond_site_symmetry_1
_geom_bond_site_symmetry_2
O1 H1 1_555 1_555
O2 C4 1_555 1_555
O3 H2 1_555 1_555
O4 C16 1_555 1_555
C1 H3 1_555 1_555
H4 C1 1_555 1_555
H5 C1 1_555 1_555
C2 O1 1_555 1_555
H6 C2 1_555 1_555
C3 C2 1_555 1_555
H7 C3 1_555 1_555
H8 C3 1_555 1_555
C4 C3 1_555 1_555
C5 C4 1_555 1_555
H9 C5 1_555 1_555
C6 C5 1_555 1_555
C7 C6 1_555 1_555
H10 C7 1_555 1_555
C8 C7 1_555 1_555
H11 C8 1_555 1_555
C9 C8 1_555 1_555
H12 C9 1_555 1_555
C10 C9 1_555 1_555
C11 C6 1_555 1_555
C12 O2 1_555 1_555
C13 C12 1_555 1_555
H13 C13 1_555 1_555
C14 O3 1_555 1_555
C15 C10 1_555 1_555
C16 C15 1_555 1_555
C17 C16 1_555 1_555
H14 C17 1_555 1_555
H15 C17 1_555 1_555
H16 C17 1_555 1_555
C1 C2 1_555 1_555
C10 C11 1_555 1_555
C11 C12 1_555 1_555
C13 C14 1_555 1_555
C14 C15 1_555 1_555

#END
