
#######################################################################
#
#                 Cambridge Crystallographic Data Centre
#                                CCDC 
#
#######################################################################
#
# If this CIF has been generated from an entry in the Cambridge 
# Structural Database, then it will include bibliographic, chemical, 
# crystal, experimental, refinement or atomic coordinate data resulting 
# from the CCDC's data processing and validation procedures.
#
#######################################################################

data_NECCOP
_chemical_formula_moiety         'C9 H13 N1 O3'
_chemical_name_systematic        
'Ethyl 5-hydroxy-7-azabicyclo[4.1.0]hept-2-ene-3-carboxylate'
_symmetry_cell_setting           monoclinic
_symmetry_space_group_name_H-M   'P 21'
_symmetry_Int_Tables_number      4
_space_group_name_Hall           'P 2yb'
loop_
_symmetry_equiv_pos_site_id
_symmetry_equiv_pos_as_xyz
1 x,y,z
2 -x,1/2+y,-z
_cell_length_a                   5.5993(2)
_cell_length_b                   10.1717(4)
_cell_length_c                   8.2421(3)
_cell_angle_alpha                90
_cell_angle_beta                 100.925(2)
_cell_angle_gamma                90
_cell_volume                     460.916
_exptl_crystal_colour            colorless
_exptl_crystal_description       block
_cell_formula_units_Z            2
loop_
_atom_site_label
_atom_site_type_symbol
_atom_site_fract_x
_atom_site_fract_y
_atom_site_fract_z
O1 O 0.6992(2) 0.04244(11) 0.05031(14)
H1 H 0.6337 -0.0071 0.1107
O2 O 0.6884(2) 0.34475(14) 0.44864(13)
O3 O 0.9544(2) 0.47941(11) 0.36017(13)
N1 N 0.5542(2) 0.34062(15) -0.20390(16)
H2 H 0.560(4) 0.344(3) -0.310(3)
C1 C 0.5113(3) 0.24504(14) 0.12373(18)
H3 H 0.3638 0.2990 0.0871
H4 H 0.4898 0.1965 0.2241
C2 C 0.5350(3) 0.14598(16) -0.01234(19)
H5 H 0.3714 0.1075 -0.0572
C3 C 0.6360(3) 0.20637(16) -0.15213(19)
H6 H 0.6628 0.1452 -0.2420
C4 C 0.8109(3) 0.31705(16) -0.11390(18)
H7 H 0.9429 0.3231 -0.1800
C5 C 0.8655(3) 0.36783(14) 0.05669(18)
H8 H 1.0004 0.4250 0.0889
C6 C 0.7287(3) 0.33486(15) 0.16686(17)
C7 C 0.7844(3) 0.38550(15) 0.33848(18)
C8 C 1.0222(3) 0.5340(2) 0.52505(19)
H9 H 1.1826 0.5776 0.5363
H10 H 1.0372 0.4621 0.6072
C9 C 0.8390(4) 0.6311(3) 0.5599(3)
H11 H 0.8290 0.7044 0.4817
H12 H 0.8879 0.6644 0.6729
H13 H 0.6798 0.5884 0.5479
loop_
_geom_bond_atom_site_label_1
_geom_bond_atom_site_label_2
_geom_bond_site_symmetry_1
_geom_bond_site_symmetry_2
O1 H1 1_555 1_555
O2 C7 1_555 1_555
O3 C7 1_555 1_555
N1 H2 1_555 1_555
C1 H3 1_555 1_555
H4 C1 1_555 1_555
C2 O1 1_555 1_555
H5 C2 1_555 1_555
C3 N1 1_555 1_555
H6 C3 1_555 1_555
C4 N1 1_555 1_555
H7 C4 1_555 1_555
C5 C4 1_555 1_555
H8 C5 1_555 1_555
C6 C1 1_555 1_555
C7 C6 1_555 1_555
C8 O3 1_555 1_555
H9 C8 1_555 1_555
H10 C8 1_555 1_555
C9 C8 1_555 1_555
H11 C9 1_555 1_555
H12 C9 1_555 1_555
H13 C9 1_555 1_555
C1 C2 1_555 1_555
C2 C3 1_555 1_555
C3 C4 1_555 1_555
C5 C6 1_555 1_555

#END
