
#######################################################################
#
#                 Cambridge Crystallographic Data Centre
#                                CCDC 
#
#######################################################################
#
# If this CIF has been generated from an entry in the Cambridge 
# Structural Database, then it will include bibliographic, chemical, 
# crystal, experimental, refinement or atomic coordinate data resulting 
# from the CCDC's data processing and validation procedures.
#
#######################################################################

data_NECDUX
_chemical_formula_moiety         'C31 H23 F6 N1 O3 S1'
_chemical_name_systematic        
7-[(4-methylphenyl)sulfonyl]-3-[4-(trifluoromethyl)phenyl]-4-{[4-(trifluoromethyl)phenyl]ethynyl}-3,5,6,7-tetrahydro-1H-pyrano[3,4-c]pyridine
_symmetry_cell_setting           triclinic
_symmetry_space_group_name_H-M   'P -1'
_symmetry_Int_Tables_number      2
_space_group_name_Hall           '-P 1'
loop_
_symmetry_equiv_pos_site_id
_symmetry_equiv_pos_as_xyz
1 x,y,z
2 -x,-y,-z
_cell_length_a                   5.4786(13)
_cell_length_b                   20.571(6)
_cell_length_c                   25.994(8)
_cell_angle_alpha                67.809(8)
_cell_angle_beta                 90
_cell_angle_gamma                90
_cell_volume                     2712.54
_exptl_crystal_colour            colorless
_exptl_crystal_description       needle
_cell_formula_units_Z            4
loop_
_atom_site_label
_atom_site_type_symbol
_atom_site_fract_x
_atom_site_fract_y
_atom_site_fract_z
S1 S 1.5229(4) -0.04110(17) 0.65812(12)
F1 F 0.1511(16) 0.4983(5) 0.6376(4)
F2 F 0.4590(16) 0.5604(6) 0.5987(5)
F3 F 0.1493(18) 0.5590(5) 0.5526(4)
F4 F 0.877(4) 0.4580(8) 0.2687(6)
F5 F 0.696(2) 0.3967(9) 0.2347(5)
F6 F 1.055(2) 0.3872(7) 0.2463(5)
O1 O 1.6648(13) -0.0207(5) 0.6965(4)
O2 O 1.6381(12) -0.0665(5) 0.6201(3)
O3 O 0.7853(12) 0.1063(4) 0.4759(3)
N1 N 1.3673(12) 0.0278(5) 0.6210(3)
C1 C 1.2858(18) 0.0364(6) 0.5667(4)
H1 H 1.3542 0.0073 0.5495
C2 C 1.1210(16) 0.0827(6) 0.5395(4)
C3 C 1.0237(18) 0.1337(6) 0.5595(4)
C4 C 0.8405(18) 0.1773(6) 0.5333(5)
C5 C 0.7460(17) 0.2334(7) 0.5484(4)
C6 C 0.6637(19) 0.2812(7) 0.5578(5)
C7 C 0.573(2) 0.3397(6) 0.5665(5)
C8 C 0.697(2) 0.3671(7) 0.6019(5)
H2 H 0.842 0.3455 0.6204
C9 C 0.604(2) 0.4254(6) 0.6091(5)
H3 H 0.6879 0.444 0.6326
C10 C 0.391(2) 0.4574(7) 0.5830(5)
C11 C 0.272(2) 0.4312(7) 0.5475(6)
H4 H 0.13 0.4541 0.528
C12 C 0.361(2) 0.3714(7) 0.5408(5)
H5 H 0.2739 0.3523 0.5182
C13 C 0.296(3) 0.5187(8) 0.5930(6)
C14 C 1.2187(18) 0.0622(6) 0.6498(5)
H6 H 1.0706 0.0338 0.6648
H7 H 1.3123 0.0648 0.6816
C15 C 1.1466(19) 0.1326(6) 0.6136(5)
H8 H 1.2925 0.1632 0.6038
H9 H 1.0315 0.1517 0.6337
C16 C 1.0443(18) 0.0944(6) 0.4809(4)
H10 H 1.1311 0.1356 0.4543
H11 H 1.0863 0.0528 0.4723
C17 C 0.7176(17) 0.1707(6) 0.4827(4)
H12 H 0.5382 0.1674 0.4904
C18 C 0.7534(17) 0.2333(6) 0.4293(4)
C19 C 0.9530(19) 0.2774(6) 0.4202(5)
H13 H 1.0645 0.2717 0.4496
C20 C 0.990(2) 0.3280(7) 0.3703(6)
H14 H 1.1346 0.3554 0.3639
C21 C 0.814(2) 0.3420(7) 0.3258(5)
C22 C 0.614(2) 0.2976(8) 0.3361(6)
H15 H 0.4947 0.3047 0.308
C23 C 0.588(2) 0.2441(8) 0.3861(5)
H16 H 0.4537 0.2131 0.3917
C24 C 0.861(4) 0.3986(9) 0.2696(7)
C25 C 1.3097(18) -0.1022(6) 0.6981(5)
C26 C 1.2686(18) -0.1145(6) 0.7533(5)
H17 H 1.3623 -0.0902 0.7711
C27 C 1.0960(19) -0.1610(7) 0.7826(5)
H18 H 1.071 -0.168 0.8205
C28 C 0.9528(19) -0.1992(7) 0.7590(5)
C29 C 0.9931(19) -0.1850(6) 0.7031(5)
H19 H 0.8942 -0.2079 0.685
C30 C 1.167(2) -0.1401(6) 0.6734(5)
H20 H 1.1941 -0.1338 0.6357
C31 C 0.760(2) -0.2517(7) 0.7922(6)
H21 H 0.5969 -0.2317 0.7808
H22 H 0.7824 -0.2621 0.8319
H23 H 0.7756 -0.2951 0.7851
S2 S 1.0239(5) 1.04104(17) 0.84154(12)
F7 F -0.3520(18) 0.4411(5) 0.9476(4)
F8 F -0.3474(17) 0.5014(5) 0.8617(4)
F9 F -0.0391(17) 0.4401(5) 0.9007(5)
F10 F 0.554(2) 0.6129(6) 1.2545(4)
F11 F 0.197(2) 0.5996(9) 1.2650(5)
F12 F 0.379(4) 0.5433(7) 1.2302(5)
O4 O 1.1657(12) 1.0210(5) 0.8036(3)
O5 O 1.1364(13) 1.0667(5) 0.8804(3)
O6 O 0.2881(12) 0.8937(4) 1.0238(3)
N2 N 0.8693(13) 0.9716(5) 0.8791(4)
C32 C 0.7856(16) 0.9633(6) 0.9325(4)
H24 H 0.8543 0.9932 0.9491
C33 C 0.6222(17) 0.9181(5) 0.9612(4)
C34 C 0.5244(18) 0.8661(6) 0.9397(4)
C35 C 0.3424(17) 0.8230(6) 0.9670(4)
C36 C 0.2506(17) 0.7658(6) 0.9521(4)
C37 C 0.1639(18) 0.7197(6) 0.9429(4)
C38 C 0.071(2) 0.6594(6) 0.9335(4)
C39 C -0.137(2) 0.6281(7) 0.9587(5)
H25 H -0.223 0.6468 0.9817
C40 C -0.228(2) 0.5687(7) 0.9516(6)
H26 H -0.3727 0.5465 0.9703
C41 C -0.108(2) 0.5432(6) 0.9178(5)
C42 C 0.099(2) 0.5737(7) 0.8918(5)
H27 H 0.1825 0.5544 0.8689
C43 C 0.192(2) 0.6336(6) 0.8982(5)
H28 H 0.3346 0.6561 0.8788
C44 C -0.209(3) 0.4785(7) 0.9087(7)
C45 C 0.7194(19) 0.9363(6) 0.8495(5)
H29 H 0.5709 0.9644 0.8342
H30 H 0.8141 0.9331 0.8181
C46 C 0.6479(18) 0.8645(6) 0.8880(4)
H31 H 0.795 0.8344 0.8988
H32 H 0.5351 0.8437 0.8686
C47 C 0.5455(17) 0.9060(6) 1.0189(4)
H33 H 0.633 0.8648 1.0455
H34 H 0.5861 0.9475 1.0278
C48 C 0.2185(19) 0.8283(6) 1.0176(5)
H35 H 0.0392 0.8316 1.0098
C49 C 0.253(2) 0.7685(6) 1.0701(5)
C50 C 0.081(2) 0.7555(7) 1.1127(5)
H36 H -0.0599 0.7844 1.1061
C51 C 0.110(2) 0.7027(8) 1.1632(6)
H37 H -0.0103 0.6952 1.1913
C52 C 0.311(3) 0.6606(7) 1.1735(5)
C53 C 0.486(2) 0.6689(7) 1.1311(6)
H38 H 0.6221 0.638 1.1379
C54 C 0.456(2) 0.7217(7) 1.0804(6)
H39 H 0.5712 0.7275 1.0517
C55 C 0.361(4) 0.6037(10) 1.2284(7)
C56 C 0.8058(17) 1.1031(6) 0.8019(4)
C57 C 0.664(2) 1.1398(7) 0.8265(5)
H40 H 0.6914 1.1331 0.8642
C58 C 0.489(2) 1.1848(6) 0.7974(5)
H41 H 0.3883 1.2072 0.8154
C59 C 0.455(2) 1.1989(6) 0.7406(5)
C60 C 0.591(2) 1.1629(7) 0.7168(5)
H42 H 0.5633 1.1705 0.6789
C61 C 0.766(2) 1.1160(7) 0.7455(5)
H43 H 0.8606 1.0923 0.7273
C62 C 0.262(2) 1.2504(6) 0.7083(6)
H44 H 0.3117 1.298 0.7036
H45 H 0.1068 1.239 0.7285
H46 H 0.2417 1.2475 0.6717
loop_
_geom_bond_atom_site_label_1
_geom_bond_atom_site_label_2
_geom_bond_site_symmetry_1
_geom_bond_site_symmetry_2
S1 O1 1_555 1_555
F1 C13 1_555 1_555
F2 C13 1_555 1_555
F3 C13 1_555 1_555
F4 C24 1_555 1_555
F5 C24 1_555 1_555
F6 C24 1_555 1_555
O2 S1 1_555 1_555
O3 C16 1_555 1_555
N1 S1 1_555 1_555
C1 N1 1_555 1_555
H1 C1 1_555 1_555
C2 C1 1_555 1_555
C3 C2 1_555 1_555
C4 C3 1_555 1_555
C5 C4 1_555 1_555
C6 C5 1_555 1_555
C7 C6 1_555 1_555
C8 C7 1_555 1_555
H2 C8 1_555 1_555
C9 C8 1_555 1_555
H3 C9 1_555 1_555
C10 C9 1_555 1_555
C11 C10 1_555 1_555
H4 C11 1_555 1_555
C12 C7 1_555 1_555
H5 C12 1_555 1_555
C13 C10 1_555 1_555
C14 N1 1_555 1_555
H6 C14 1_555 1_555
H7 C14 1_555 1_555
C15 C3 1_555 1_555
H8 C15 1_555 1_555
H9 C15 1_555 1_555
C16 C2 1_555 1_555
H10 C16 1_555 1_555
H11 C16 1_555 1_555
C17 O3 1_555 1_555
H12 C17 1_555 1_555
C18 C17 1_555 1_555
C19 C18 1_555 1_555
H13 C19 1_555 1_555
C20 C19 1_555 1_555
H14 C20 1_555 1_555
C21 C20 1_555 1_555
C22 C21 1_555 1_555
H15 C22 1_555 1_555
C23 C18 1_555 1_555
H16 C23 1_555 1_555
C24 C21 1_555 1_555
C25 S1 1_555 1_555
C26 C25 1_555 1_555
H17 C26 1_555 1_555
C27 C26 1_555 1_555
H18 C27 1_555 1_555
C28 C27 1_555 1_555
C29 C28 1_555 1_555
H19 C29 1_555 1_555
C30 C25 1_555 1_555
H20 C30 1_555 1_555
C31 C28 1_555 1_555
H21 C31 1_555 1_555
H22 C31 1_555 1_555
H23 C31 1_555 1_555
S2 O4 1_555 1_555
F7 C44 1_555 1_555
F8 C44 1_555 1_555
F9 C44 1_555 1_555
F10 C55 1_555 1_555
F11 C55 1_555 1_555
F12 C55 1_555 1_555
O5 S2 1_555 1_555
O6 C47 1_555 1_555
N2 S2 1_555 1_555
C32 N2 1_555 1_555
H24 C32 1_555 1_555
C33 C32 1_555 1_555
C34 C33 1_555 1_555
C35 C34 1_555 1_555
C36 C35 1_555 1_555
C37 C36 1_555 1_555
C38 C37 1_555 1_555
C39 C38 1_555 1_555
H25 C39 1_555 1_555
C40 C39 1_555 1_555
H26 C40 1_555 1_555
C41 C40 1_555 1_555
C42 C41 1_555 1_555
H27 C42 1_555 1_555
C43 C38 1_555 1_555
H28 C43 1_555 1_555
C44 C41 1_555 1_555
C45 N2 1_555 1_555
H29 C45 1_555 1_555
H30 C45 1_555 1_555
C46 C34 1_555 1_555
H31 C46 1_555 1_555
H32 C46 1_555 1_555
C47 C33 1_555 1_555
H33 C47 1_555 1_555
H34 C47 1_555 1_555
C48 O6 1_555 1_555
H35 C48 1_555 1_555
C49 C48 1_555 1_555
C50 C49 1_555 1_555
H36 C50 1_555 1_555
C51 C50 1_555 1_555
H37 C51 1_555 1_555
C52 C51 1_555 1_555
C53 C52 1_555 1_555
H38 C53 1_555 1_555
C54 C49 1_555 1_555
H39 C54 1_555 1_555
C55 C52 1_555 1_555
C56 S2 1_555 1_555
C57 C56 1_555 1_555
H40 C57 1_555 1_555
C58 C57 1_555 1_555
H41 C58 1_555 1_555
C59 C58 1_555 1_555
C60 C59 1_555 1_555
H42 C60 1_555 1_555
C61 C56 1_555 1_555
H43 C61 1_555 1_555
C62 C59 1_555 1_555
H44 C62 1_555 1_555
H45 C62 1_555 1_555
H46 C62 1_555 1_555
C4 C17 1_555 1_555
C11 C12 1_555 1_555
C14 C15 1_555 1_555
C22 C23 1_555 1_555
C29 C30 1_555 1_555
C35 C48 1_555 1_555
C42 C43 1_555 1_555
C45 C46 1_555 1_555
C53 C54 1_555 1_555
C60 C61 1_555 1_555

#END
