
#######################################################################
#
#                 Cambridge Crystallographic Data Centre
#                                CCDC 
#
#######################################################################
#
# If this CIF has been generated from an entry in the Cambridge 
# Structural Database, then it will include bibliographic, chemical, 
# crystal, experimental, refinement or atomic coordinate data resulting 
# from the CCDC's data processing and validation procedures.
#
#######################################################################

data_NECFEI
_chemical_formula_moiety         'C25 H32 N4 O4 S1'
_chemical_name_systematic        
3-(Cyclohexylmethoxy)-6-(cyclohexylsulfamoyl)-9H-\b-carboline-1-carboxamide
_symmetry_cell_setting           monoclinic
_symmetry_space_group_name_H-M   'P 21/n'
_symmetry_Int_Tables_number      14
_space_group_name_Hall           '-P 2yn'
loop_
_symmetry_equiv_pos_site_id
_symmetry_equiv_pos_as_xyz
1 x,y,z
2 1/2-x,1/2+y,1/2-z
3 -x,-y,-z
4 1/2+x,1/2-y,1/2+z
_cell_length_a                   6.7260(13)
_cell_length_b                   24.565(5)
_cell_length_c                   15.285(3)
_cell_angle_alpha                90
_cell_angle_beta                 99.74(3)
_cell_angle_gamma                90
_cell_volume                     2489.05
_cell_formula_units_Z            4
loop_
_atom_site_label
_atom_site_type_symbol
_atom_site_fract_x
_atom_site_fract_y
_atom_site_fract_z
S1 S 0.32408(17) 0.16210(5) 0.61728(7)
N1 N 1.3206(5) 0.34359(13) 0.7603(2)
O1 O 1.3485(5) 0.33519(14) 0.61146(19)
C1 C 1.7115(11) 0.4294(3) 0.3861(5)
H1 H 1.7724 0.4274 0.3330
H2 H 1.6637 0.4663 0.3914
O2 O 1.2094(5) 0.34506(14) 0.97857(19)
N2 N 0.9171(5) 0.28349(14) 0.8679(2)
H3 H 0.9291 0.2912 0.9234
C2 C 1.5335(9) 0.3904(3) 0.3769(4)
H4 H 1.4304 0.4019 0.3282
H5 H 1.5770 0.3541 0.3641
O3 O 0.2837(4) 0.19607(12) 0.53986(18)
N3 N 1.4699(6) 0.38185(17) 0.9234(3)
H6 H 1.5232 0.3956 0.9737
H7 H 1.5267 0.3864 0.8776
C3 C 1.4476(8) 0.3899(3) 0.4626(4)
H8 H 1.3914 0.4255 0.4713
H9 H 1.3385 0.3636 0.4572
O4 O 0.1603(4) 0.14401(13) 0.65859(19)
N4 N 0.4370(5) 0.10903(13) 0.5864(2)
H10 H 0.4559 0.1060 0.5323
C4 C 1.5964(7) 0.3764(2) 0.5404(3)
H11 H 1.6490 0.3402 0.5298
C5 C 1.7750(8) 0.4157(2) 0.5504(4)
H12 H 1.8775 0.4042 0.5994
H13 H 1.7307 0.4520 0.5633
C6 C 1.8644(10) 0.4167(3) 0.4637(5)
H14 H 1.9709 0.4437 0.4690
H15 H 1.9236 0.3815 0.4552
C7 C 1.5142(7) 0.3730(2) 0.6263(3)
H16 H 1.6177 0.3603 0.6739
H17 H 1.4682 0.4085 0.6423
C8 C 1.2517(7) 0.32381(18) 0.6807(3)
C9 C 1.0822(6) 0.29105(17) 0.6593(3)
H18 H 1.0410 0.2780 0.6020
C10 C 0.9778(6) 0.27874(16) 0.7269(2)
C11 C 0.7975(6) 0.24835(17) 0.7322(2)
C12 C 0.6650(6) 0.21963(16) 0.6700(3)
H19 H 0.6878 0.2159 0.6120
C13 C 0.4959(6) 0.19638(16) 0.6970(2)
C14 C 0.4662(6) 0.20078(17) 0.7852(3)
H20 H 0.3536 0.1845 0.8019
C15 C 0.5998(6) 0.22863(18) 0.8478(3)
H21 H 0.5798 0.2312 0.9064
C16 C 0.7647(6) 0.25256(17) 0.8202(2)
C17 C 1.0469(6) 0.29998(16) 0.8124(3)
C18 C 1.2199(6) 0.33169(16) 0.8268(3)
C19 C 1.2989(7) 0.35334(18) 0.9166(3)
C20 C 0.5073(6) 0.06591(17) 0.6512(3)
H22 H 0.5336 0.0822 0.7106
C21 C 0.3500(7) 0.02173(18) 0.6502(3)
H23 H 0.3127 0.0077 0.5903
H24 H 0.2301 0.0370 0.6681
C22 C 0.4294(8) -0.0250(2) 0.7129(4)
H25 H 0.4583 -0.0116 0.7735
H26 H 0.3274 -0.0531 0.7100
C23 C 0.6190(8) -0.0486(2) 0.6873(4)
H27 H 0.6695 -0.0776 0.7280
H28 H 0.5884 -0.0638 0.6280
C24 C 0.7767(8) -0.0053(2) 0.6899(4)
H29 H 0.8955 -0.0209 0.6713
H30 H 0.8152 0.0074 0.7504
C25 C 0.7043(7) 0.0424(2) 0.6306(3)
H31 H 0.6845 0.0308 0.5691
H32 H 0.8069 0.0706 0.6384
loop_
_geom_bond_atom_site_label_1
_geom_bond_atom_site_label_2
_geom_bond_site_symmetry_1
_geom_bond_site_symmetry_2
S1 O3 1_555 1_555
N1 C8 1_555 1_555
O1 C7 1_555 1_555
C1 H1 1_555 1_555
H2 C1 1_555 1_555
O2 C19 1_555 1_555
N2 H3 1_555 1_555
C2 C1 1_555 1_555
H4 C2 1_555 1_555
H5 C2 1_555 1_555
N3 H6 1_555 1_555
H7 N3 1_555 1_555
C3 C2 1_555 1_555
H8 C3 1_555 1_555
H9 C3 1_555 1_555
O4 S1 1_555 1_555
N4 S1 1_555 1_555
H10 N4 1_555 1_555
C4 C3 1_555 1_555
H11 C4 1_555 1_555
C5 C4 1_555 1_555
H12 C5 1_555 1_555
H13 C5 1_555 1_555
C6 C1 1_555 1_555
H14 C6 1_555 1_555
H15 C6 1_555 1_555
C7 C4 1_555 1_555
H16 C7 1_555 1_555
H17 C7 1_555 1_555
C8 O1 1_555 1_555
C9 C8 1_555 1_555
H18 C9 1_555 1_555
C10 C9 1_555 1_555
C11 C10 1_555 1_555
C12 C11 1_555 1_555
H19 C12 1_555 1_555
C13 S1 1_555 1_555
C14 C13 1_555 1_555
H20 C14 1_555 1_555
C15 C14 1_555 1_555
H21 C15 1_555 1_555
C16 N2 1_555 1_555
C17 N2 1_555 1_555
C18 N1 1_555 1_555
C19 N3 1_555 1_555
C20 N4 1_555 1_555
H22 C20 1_555 1_555
C21 C20 1_555 1_555
H23 C21 1_555 1_555
H24 C21 1_555 1_555
C22 C21 1_555 1_555
H25 C22 1_555 1_555
H26 C22 1_555 1_555
C23 C22 1_555 1_555
H27 C23 1_555 1_555
H28 C23 1_555 1_555
C24 C23 1_555 1_555
H29 C24 1_555 1_555
H30 C24 1_555 1_555
C25 C20 1_555 1_555
H31 C25 1_555 1_555
H32 C25 1_555 1_555
C5 C6 1_555 1_555
C10 C17 1_555 1_555
C11 C16 1_555 1_555
C12 C13 1_555 1_555
C15 C16 1_555 1_555
C17 C18 1_555 1_555
C18 C19 1_555 1_555
C24 C25 1_555 1_555

#END
