
#######################################################################
#
#                 Cambridge Crystallographic Data Centre
#                                CCDC 
#
#######################################################################
#
# If this CIF has been generated from an entry in the Cambridge 
# Structural Database, then it will include bibliographic, chemical, 
# crystal, experimental, refinement or atomic coordinate data resulting 
# from the CCDC's data processing and validation procedures.
#
#######################################################################

data_NECPOA
_chemical_formula_moiety         'C54 H78 Cl1 Li4 N9'
_chemical_name_systematic        
(\m~3~-Chloro)-tris(N,N,N',N'-tetramethylethylenediamine)-tris(diphenylamido)-tetra-lithium
_symmetry_cell_setting           monoclinic
_symmetry_space_group_name_H-M   'P 21/c'
_symmetry_Int_Tables_number      14
_space_group_name_Hall           '-P 2ybc'
loop_
_symmetry_equiv_pos_site_id
_symmetry_equiv_pos_as_xyz
1 x,y,z
2 x,1/2-y,1/2+z
3 -x,-y,-z
4 -x,1/2+y,1/2-z
_cell_length_a                   23.067(3)
_cell_length_b                   14.8786(18)
_cell_length_c                   17.124(2)
_cell_angle_alpha                90
_cell_angle_beta                 104.770(19)
_cell_angle_gamma                90
_cell_volume                     5682.84
_exptl_crystal_colour            colorless
_exptl_crystal_description       needles
_chemical_melting_point          151deg.C
_cell_formula_units_Z            4
_exptl_crystal_recrystallization_method toluene
loop_
_atom_site_label
_atom_site_type_symbol
_atom_site_fract_x
_atom_site_fract_y
_atom_site_fract_z
Cl1 Cl 0.29986(5) 0.02605(8) 0.28817(8)
Li1 Li 0.1018(3) 0.0459(5) 0.3327(4)
Li2 Li 0.2060(3) 0.0318(5) 0.3026(4)
Li3 Li 0.3598(3) -0.0828(5) 0.2437(4)
Li4 Li 0.3769(3) 0.1118(5) 0.2542(4)
N1 N 0.17303(14) -0.0493(2) 0.3752(2)
N2 N 0.01395(15) -0.0243(2) 0.3017(2)
N3 N 0.06397(14) 0.1308(2) 0.41016(18)
N4 N 0.14216(15) 0.1216(2) 0.25425(19)
N5 N 0.30858(19) -0.1789(4) 0.1624(3)
N6 N 0.3748(2) -0.1890(3) 0.3333(3)
N7 N 0.41403(19) 0.2077(3) 0.3488(3)
N8 N 0.33774(19) 0.2258(3) 0.1847(2)
N9 N 0.42027(13) 0.0050(2) 0.21376(19)
C1 C 0.19193(19) -0.0446(3) 0.4599(3)
C2 C 0.1624(2) -0.0899(4) 0.5109(4)
H1 H 0.1299 -0.1291 0.4885
C3 C 0.1806(4) -0.0775(7) 0.5932(6)
H2 H 0.1597 -0.1078 0.6266
C4 C 0.2266(5) -0.0241(8) 0.6279(5)
H3 H 0.2390 -0.0181 0.6850
C5 C 0.2559(3) 0.0221(4) 0.5794(4)
H4 H 0.2877 0.0620 0.6031
C6 C 0.2393(2) 0.0105(3) 0.4965(3)
H5 H 0.2609 0.0411 0.4641
C7 C 0.1649(2) -0.1336(4) 0.3423(4)
C8 C 0.1856(3) -0.2160(4) 0.3865(5)
H6 H 0.2060 -0.2124 0.4421
C9 C 0.1763(3) -0.2987(5) 0.3503(6)
H7 H 0.1885 -0.3529 0.3791
C10 C 0.1481(3) -0.2973(8) 0.2696(6)
H8 H 0.1428 -0.3555 0.2459
C11 C 0.1264(4) -0.2308(9) 0.2164(8)
H9 H 0.1070 -0.2384 0.1607
C12 C 0.1383(2) -0.1407(5) 0.2614(4)
H10 H 0.1266 -0.0870 0.2315
C13 C 0.0166(2) -0.1101(3) 0.3446(3)
H11 H 0.0329 -0.1002 0.4026
H12 H 0.0425 -0.1520 0.3250
H13 H -0.0238 -0.1354 0.3348
C14 C -0.0141(2) -0.0399(4) 0.2151(3)
H14 H -0.0552 -0.0619 0.2084
H15 H 0.0091 -0.0848 0.1942
H16 H -0.0150 0.0165 0.1852
C15 C -0.02229(18) 0.0401(3) 0.3343(3)
H17 H -0.0591 0.0097 0.3404
H18 H -0.0346 0.0901 0.2955
C16 C 0.01128(19) 0.0775(3) 0.4146(3)
H19 H -0.0162 0.1158 0.4362
H20 H 0.0244 0.0272 0.4529
C17 C 0.0448(2) 0.2180(3) 0.3719(3)
H21 H 0.0206 0.2082 0.3166
H22 H 0.0802 0.2539 0.3706
H23 H 0.0209 0.2499 0.4028
C18 C 0.1010(2) 0.1486(3) 0.4928(2)
H24 H 0.0774 0.1825 0.5230
H25 H 0.1364 0.1838 0.4900
H26 H 0.1138 0.0915 0.5203
C19 C 0.16153(16) 0.2073(3) 0.2805(2)
C20 C 0.19479(19) 0.2185(3) 0.3611(3)
H27 H 0.2027 0.1677 0.3957
C21 C 0.2160(2) 0.3008(4) 0.3908(3)
H28 H 0.2383 0.3057 0.4456
C22 C 0.2058(2) 0.3769(4) 0.3432(4)
H29 H 0.2200 0.4340 0.3647
C23 C 0.17435(19) 0.3676(3) 0.2631(3)
H30 H 0.1673 0.4189 0.2290
C24 C 0.15329(17) 0.2854(3) 0.2324(3)
H31 H 0.1325 0.2810 0.1770
C25 C 0.1077(2) 0.1160(4) 0.1727(3)
C26 C 0.1295(4) 0.0664(5) 0.1183(3)
H32 H 0.1681 0.0396 0.1349
C27 C 0.0947(6) 0.0550(8) 0.0381(6)
H33 H 0.1097 0.0206 0.0007
C28 C 0.0392(7) 0.0942(8) 0.0148(6)
H34 H 0.0162 0.0871 -0.0394
C29 C 0.0160(4) 0.1430(6) 0.0668(4)
H35 H -0.0226 0.1694 0.0495
C30 C 0.0505(2) 0.1535(4) 0.1465(3)
H36 H 0.0346 0.1870 0.1835
C31 C 0.2494(2) -0.1438(6) 0.1231(4)
H37 H 0.2534 -0.0932 0.0882
H38 H 0.2296 -0.1233 0.1642
H39 H 0.2253 -0.1912 0.0905
C32 C 0.3351(3) -0.2159(5) 0.1011(4)
H40 H 0.3761 -0.2357 0.1263
H41 H 0.3358 -0.1697 0.0606
H42 H 0.3112 -0.2672 0.0751
C33 C 0.3029(4) -0.2503(7) 0.2211(6)
H43 H 0.2606 -0.2493 0.2241
H44 H 0.3087 -0.3083 0.1957
C34 C 0.3326(7) -0.2541(8) 0.2890(7)
H45 H 0.3556 -0.3107 0.2922
H46 H 0.3036 -0.2639 0.3220
C35 C 0.4338(4) -0.2319(5) 0.3526(5)
H47 H 0.4635 -0.1911 0.3856
H48 H 0.4451 -0.2458 0.3025
H49 H 0.4323 -0.2876 0.3826
C36 C 0.3606(4) -0.1636(5) 0.4077(4)
H50 H 0.3604 -0.2173 0.4408
H51 H 0.3209 -0.1352 0.3955
H52 H 0.3908 -0.1212 0.4373
C37 C 0.4804(3) 0.2168(5) 0.3738(5)
H53 H 0.4913 0.2672 0.4116
H54 H 0.4955 0.2280 0.3262
H55 H 0.4981 0.1613 0.4003
C38 C 0.3913(4) 0.1890(5) 0.4177(4)
H56 H 0.4042 0.2364 0.4581
H57 H 0.4068 0.1309 0.4409
H58 H 0.3474 0.1869 0.4010
C39 C 0.3918(4) 0.2935(5) 0.3108(5)
H59 H 0.3840 0.3332 0.3534
H60 H 0.4246 0.3213 0.2915
C40 C 0.3412(4) 0.2941(4) 0.2474(4)
H61 H 0.3380 0.3540 0.2215
H62 H 0.3059 0.2868 0.2698
C41 C 0.3700(3) 0.2522(5) 0.1252(4)
H63 H 0.3547 0.3102 0.1015
H64 H 0.3640 0.2066 0.0825
H65 H 0.4129 0.2575 0.1515
C42 C 0.2737(2) 0.2150(4) 0.1424(3)
H66 H 0.2515 0.1937 0.1807
H67 H 0.2697 0.1712 0.0987
H68 H 0.2573 0.2730 0.1199
C43 C 0.47774(17) 0.0073(3) 0.2655(3)
C44 C 0.4832(2) -0.0128(3) 0.3468(3)
H69 H 0.4482 -0.0306 0.3624
C45 C 0.5365(3) -0.0082(4) 0.4055(4)
H70 H 0.5368 -0.0223 0.4598
C46 C 0.5870(3) 0.0153(5) 0.3885(5)
H71 H 0.6235 0.0181 0.4296
C47 C 0.5857(2) 0.0357(3) 0.3102(5)
H72 H 0.6220 0.0516 0.2970
C48 C 0.53086(19) 0.0336(3) 0.2472(3)
H73 H 0.5308 0.0500 0.1935
C49 C 0.4118(2) -0.0034(3) 0.1310(2)
C50 C 0.3573(3) 0.0233(4) 0.0817(4)
H74 H 0.3281 0.0489 0.1055
C51 C 0.3439(5) 0.0137(5) -0.0030(4)
H75 H 0.3065 0.0335 -0.0360
C52 C 0.3859(5) -0.0250(4) -0.0371(4)
H76 H 0.3778 -0.0307 -0.0941
C53 C 0.4375(4) -0.0543(5) 0.0094(4)
H77 H 0.4654 -0.0831 -0.0147
C54 C 0.4513(2) -0.0439(3) 0.0914(3)
H78 H 0.4891 -0.0647 0.1227
loop_
_geom_bond_atom_site_label_1
_geom_bond_atom_site_label_2
_geom_bond_site_symmetry_1
_geom_bond_site_symmetry_2
Cl1 Li2 1_555 1_555
Li1 N1 1_555 1_555
Li2 N1 1_555 1_555
Li3 Cl1 1_555 1_555
Li4 Cl1 1_555 1_555
N1 C1 1_555 1_555
N2 Li1 1_555 1_555
N3 Li1 1_555 1_555
N4 Li1 1_555 1_555
N5 Li3 1_555 1_555
N6 Li3 1_555 1_555
N7 Li4 1_555 1_555
N8 Li4 1_555 1_555
N9 Li3 1_555 1_555
C1 C2 1_555 1_555
C2 H1 1_555 1_555
C3 C2 1_555 1_555
H2 C3 1_555 1_555
C4 C3 1_555 1_555
H3 C4 1_555 1_555
C5 C4 1_555 1_555
H4 C5 1_555 1_555
C6 C1 1_555 1_555
H5 C6 1_555 1_555
C7 N1 1_555 1_555
C8 C7 1_555 1_555
H6 C8 1_555 1_555
C9 C8 1_555 1_555
H7 C9 1_555 1_555
C10 C9 1_555 1_555
H8 C10 1_555 1_555
C11 C10 1_555 1_555
H9 C11 1_555 1_555
C12 C7 1_555 1_555
H10 C12 1_555 1_555
C13 N2 1_555 1_555
H11 C13 1_555 1_555
H12 C13 1_555 1_555
H13 C13 1_555 1_555
C14 N2 1_555 1_555
H14 C14 1_555 1_555
H15 C14 1_555 1_555
H16 C14 1_555 1_555
C15 N2 1_555 1_555
H17 C15 1_555 1_555
H18 C15 1_555 1_555
C16 N3 1_555 1_555
H19 C16 1_555 1_555
H20 C16 1_555 1_555
C17 N3 1_555 1_555
H21 C17 1_555 1_555
H22 C17 1_555 1_555
H23 C17 1_555 1_555
C18 N3 1_555 1_555
H24 C18 1_555 1_555
H25 C18 1_555 1_555
H26 C18 1_555 1_555
C19 N4 1_555 1_555
C20 C19 1_555 1_555
H27 C20 1_555 1_555
C21 C20 1_555 1_555
H28 C21 1_555 1_555
C22 C21 1_555 1_555
H29 C22 1_555 1_555
C23 C22 1_555 1_555
H30 C23 1_555 1_555
C24 C19 1_555 1_555
H31 C24 1_555 1_555
C25 N4 1_555 1_555
C26 C25 1_555 1_555
H32 C26 1_555 1_555
C27 C26 1_555 1_555
H33 C27 1_555 1_555
C28 C27 1_555 1_555
H34 C28 1_555 1_555
C29 C28 1_555 1_555
H35 C29 1_555 1_555
C30 C25 1_555 1_555
H36 C30 1_555 1_555
C31 N5 1_555 1_555
H37 C31 1_555 1_555
H38 C31 1_555 1_555
H39 C31 1_555 1_555
C32 N5 1_555 1_555
H40 C32 1_555 1_555
H41 C32 1_555 1_555
H42 C32 1_555 1_555
C33 N5 1_555 1_555
H43 C33 1_555 1_555
H44 C33 1_555 1_555
C34 N6 1_555 1_555
H45 C34 1_555 1_555
H46 C34 1_555 1_555
C35 N6 1_555 1_555
H47 C35 1_555 1_555
H48 C35 1_555 1_555
H49 C35 1_555 1_555
C36 N6 1_555 1_555
H50 C36 1_555 1_555
H51 C36 1_555 1_555
H52 C36 1_555 1_555
C37 N7 1_555 1_555
H53 C37 1_555 1_555
H54 C37 1_555 1_555
H55 C37 1_555 1_555
C38 N7 1_555 1_555
H56 C38 1_555 1_555
H57 C38 1_555 1_555
H58 C38 1_555 1_555
C39 N7 1_555 1_555
H59 C39 1_555 1_555
H60 C39 1_555 1_555
C40 N8 1_555 1_555
H61 C40 1_555 1_555
H62 C40 1_555 1_555
C41 N8 1_555 1_555
H63 C41 1_555 1_555
H64 C41 1_555 1_555
H65 C41 1_555 1_555
C42 N8 1_555 1_555
H66 C42 1_555 1_555
H67 C42 1_555 1_555
H68 C42 1_555 1_555
C43 N9 1_555 1_555
C44 C43 1_555 1_555
H69 C44 1_555 1_555
C45 C44 1_555 1_555
H70 C45 1_555 1_555
C46 C45 1_555 1_555
H71 C46 1_555 1_555
C47 C46 1_555 1_555
H72 C47 1_555 1_555
C48 C43 1_555 1_555
H73 C48 1_555 1_555
C49 N9 1_555 1_555
C50 C49 1_555 1_555
H74 C50 1_555 1_555
C51 C50 1_555 1_555
H75 C51 1_555 1_555
C52 C51 1_555 1_555
H76 C52 1_555 1_555
C53 C52 1_555 1_555
H77 C53 1_555 1_555
C54 C49 1_555 1_555
H78 C54 1_555 1_555
Li2 N4 1_555 1_555
Li4 N9 1_555 1_555
C5 C6 1_555 1_555
C11 C12 1_555 1_555
C15 C16 1_555 1_555
C23 C24 1_555 1_555
C29 C30 1_555 1_555
C33 C34 1_555 1_555
C39 C40 1_555 1_555
C47 C48 1_555 1_555
C53 C54 1_555 1_555

#END
