
#######################################################################
#
#                 Cambridge Crystallographic Data Centre
#                                CCDC 
#
#######################################################################
#
# If this CIF has been generated from an entry in the Cambridge 
# Structural Database, then it will include bibliographic, chemical, 
# crystal, experimental, refinement or atomic coordinate data resulting 
# from the CCDC's data processing and validation procedures.
#
#######################################################################

data_NECVOG
_chemical_formula_moiety         'C37 H34 N2 O3'
_chemical_name_systematic        
'(4-Benzyloxycarboxamide)butyric acid 4-(triphenyl)methylbenzamide'
_symmetry_cell_setting           monoclinic
_symmetry_space_group_name_H-M   'C 2/c'
_symmetry_Int_Tables_number      15
_space_group_name_Hall           '-C 2yn'
loop_
_symmetry_equiv_pos_site_id
_symmetry_equiv_pos_as_xyz
1 x,y,z
2 1/2+x,1/2+y,z
3 -x,y,1/2-z
4 1/2-x,1/2+y,1/2-z
5 -x,-y,-z
6 1/2-x,1/2-y,-z
7 x,-y,1/2+z
8 1/2+x,1/2-y,1/2+z
_cell_length_a                   37.265(3)
_cell_length_b                   9.823(1)
_cell_length_c                   16.337(1)
_cell_angle_alpha                90
_cell_angle_beta                 97.67(1)
_cell_angle_gamma                90
_cell_volume                     5926.72
_exptl_crystal_colour            colorless
_exptl_crystal_description       plate
_chemical_melting_point          180deg.C
_cell_formula_units_Z            8
_exptl_crystal_recrystallization_method chloroform
loop_
_atom_site_label
_atom_site_type_symbol
_atom_site_fract_x
_atom_site_fract_y
_atom_site_fract_z
C1 C 0.43430(6) 0.2115(3) 0.77997(14)
H1 H 0.44498(6) 0.3008(3) 0.79102(14)
H2 H 0.43948(6) 0.1578(3) 0.82999(14)
O1 O 0.45103(4) 0.1477(2) 0.71550(10)
C2 C 0.46564(6) 0.2305(2) 0.66243(14)
O2 O 0.46457(5) 0.3530(2) 0.66423(11)
N1 N 0.48123(5) 0.1553(2) 0.60879(11)
H3 H 0.48065(5) 0.0680(2) 0.61202(11)
C3 C 0.49919(6) 0.2197(2) 0.54493(14)
H4 H 0.51759(6) 0.1584(2) 0.52959(14)
H5 H 0.51127(6) 0.3017(2) 0.56737(14)
C4 C 0.47367(5) 0.2564(2) 0.46858(14)
H6 H 0.45331(5) 0.3066(2) 0.48464(14)
H7 H 0.46436(5) 0.1735(2) 0.44127(14)
C5 C 0.49189(6) 0.3419(2) 0.40812(14)
H8 H 0.47363(6) 0.3739(2) 0.36448(14)
H9 H 0.50292(6) 0.4210(2) 0.43678(14)
C6 C 0.52061(5) 0.2641(2) 0.36993(13)
O3 O 0.52316(5) 0.1405(2) 0.37243(11)
N2 N 0.54279(5) 0.3459(2) 0.33238(11)
H10 H 0.53924(5) 0.4319(2) 0.33681(11)
C7 C 0.39422(6) 0.2268(2) 0.75950(13)
C8 C 0.37674(7) 0.2220(3) 0.67970(15)
H11 H 0.38993(7) 0.2054(3) 0.63626(15)
C9 C 0.33976(8) 0.2418(3) 0.6638(2)
H12 H 0.32816(8) 0.2372(3) 0.6098(2)
C10 C 0.32002(7) 0.2681(3) 0.7274(2)
H13 H 0.29522(7) 0.2835(3) 0.7164(2)
C11 C 0.33694(7) 0.2717(2) 0.8067(2)
H14 H 0.32362(7) 0.2880(2) 0.8499(2)
C12 C 0.37368(6) 0.2510(2) 0.82272(15)
H15 H 0.38497(6) 0.2534(2) 0.87702(15)
C13 C 0.57101(5) 0.3083(2) 0.28687(12)
C14 C 0.57715(5) 0.1777(2) 0.26014(13)
H16 H 0.56294(5) 0.1057(2) 0.27414(13)
C15 C 0.60469(5) 0.1550(2) 0.21224(13)
H17 H 0.60905(5) 0.0666(2) 0.19585(13)
C16 C 0.62586(5) 0.2595(2) 0.18808(12)
C17 C 0.62004(5) 0.3887(2) 0.21795(13)
H18 H 0.63467(5) 0.4602(2) 0.20521(13)
C18 C 0.59304(5) 0.4135(2) 0.26611(13)
H19 H 0.58956(5) 0.5013(2) 0.28485(13)
C19 C 0.65850(5) 0.2337(2) 0.14051(12)
C20 C 0.66418(5) 0.3498(2) 0.07981(12)
C21 C 0.63550(6) 0.4238(2) 0.03985(14)
H20 H 0.61237(6) 0.4094(2) 0.05362(14)
C22 C 0.64043(8) 0.5193(3) -0.0205(2)
H21 H 0.62074(8) 0.5685(3) -0.0460(2)
C23 C 0.67410(8) 0.5411(3) -0.0425(2)
H22 H 0.67740(8) 0.6053(3) -0.0826(2)
C24 C 0.70292(7) 0.4676(3) -0.00489(15)
H23 H 0.72584(7) 0.4817(3) -0.01992(15)
C25 C 0.69824(6) 0.3721(2) 0.05547(14)
H24 H 0.71804(6) 0.3224(2) 0.08002(14)
C26 C 0.65345(5) 0.1082(2) 0.08304(11)
C27 C 0.68293(6) 0.0318(2) 0.06508(13)
H25 H 0.70579(6) 0.0493(2) 0.09348(13)
C28 C 0.67884(7) -0.0690(2) 0.00607(14)
H26 H 0.69897(7) -0.1185(2) -0.00461(14)
C29 C 0.64553(8) -0.0979(2) -0.03733(15)
H27 H 0.64290(8) -0.1660(2) -0.07721(15)
C30 C 0.61621(7) -0.0234(2) -0.02027(14)
H28 H 0.59341(7) -0.0417(2) -0.04870(14)
C31 C 0.62015(6) 0.0783(2) 0.03845(13)
H29 H 0.59992(6) 0.1280(2) 0.04834(13)
C32 C 0.69023(5) 0.2190(2) 0.21137(12)
C33 C 0.69636(6) 0.0965(2) 0.25239(13)
H30 H 0.68299(6) 0.0203(2) 0.23314(13)
C34 C 0.72209(6) 0.0849(3) 0.32180(14)
H31 H 0.72589(6) 0.0014(3) 0.34838(14)
C35 C 0.74188(6) 0.1961(3) 0.35120(15)
H32 H 0.75937(6) 0.1881(3) 0.39719(15)
C36 C 0.73576(6) 0.3198(3) 0.31237(15)
H33 H 0.74892(6) 0.3959(3) 0.33266(15)
C37 C 0.70993(6) 0.3316(2) 0.24279(13)
H34 H 0.70585(6) 0.4158(2) 0.21715(13)
loop_
_geom_bond_atom_site_label_1
_geom_bond_atom_site_label_2
_geom_bond_site_symmetry_1
_geom_bond_site_symmetry_2
C1 H1 1_555 1_555
H2 C1 1_555 1_555
O1 C1 1_555 1_555
C2 O1 1_555 1_555
O2 C2 1_555 1_555
N1 C2 1_555 1_555
H3 N1 1_555 1_555
C3 N1 1_555 1_555
H4 C3 1_555 1_555
H5 C3 1_555 1_555
C4 C3 1_555 1_555
H6 C4 1_555 1_555
H7 C4 1_555 1_555
C5 C4 1_555 1_555
H8 C5 1_555 1_555
H9 C5 1_555 1_555
C6 C5 1_555 1_555
O3 C6 1_555 1_555
N2 C6 1_555 1_555
H10 N2 1_555 1_555
C7 C1 1_555 1_555
C8 C7 1_555 1_555
H11 C8 1_555 1_555
C9 C8 1_555 1_555
H12 C9 1_555 1_555
C10 C9 1_555 1_555
H13 C10 1_555 1_555
C11 C10 1_555 1_555
H14 C11 1_555 1_555
C12 C7 1_555 1_555
H15 C12 1_555 1_555
C13 N2 1_555 1_555
C14 C13 1_555 1_555
H16 C14 1_555 1_555
C15 C14 1_555 1_555
H17 C15 1_555 1_555
C16 C15 1_555 1_555
C17 C16 1_555 1_555
H18 C17 1_555 1_555
C18 C13 1_555 1_555
H19 C18 1_555 1_555
C19 C16 1_555 1_555
C20 C19 1_555 1_555
C21 C20 1_555 1_555
H20 C21 1_555 1_555
C22 C21 1_555 1_555
H21 C22 1_555 1_555
C23 C22 1_555 1_555
H22 C23 1_555 1_555
C24 C23 1_555 1_555
H23 C24 1_555 1_555
C25 C20 1_555 1_555
H24 C25 1_555 1_555
C26 C19 1_555 1_555
C27 C26 1_555 1_555
H25 C27 1_555 1_555
C28 C27 1_555 1_555
H26 C28 1_555 1_555
C29 C28 1_555 1_555
H27 C29 1_555 1_555
C30 C29 1_555 1_555
H28 C30 1_555 1_555
C31 C26 1_555 1_555
H29 C31 1_555 1_555
C32 C19 1_555 1_555
C33 C32 1_555 1_555
H30 C33 1_555 1_555
C34 C33 1_555 1_555
H31 C34 1_555 1_555
C35 C34 1_555 1_555
H32 C35 1_555 1_555
C36 C35 1_555 1_555
H33 C36 1_555 1_555
C37 C32 1_555 1_555
H34 C37 1_555 1_555
C11 C12 1_555 1_555
C17 C18 1_555 1_555
C24 C25 1_555 1_555
C30 C31 1_555 1_555
C36 C37 1_555 1_555

#END
