
#######################################################################
#
#                 Cambridge Crystallographic Data Centre
#                                CCDC 
#
#######################################################################
#
# If this CIF has been generated from an entry in the Cambridge 
# Structural Database, then it will include bibliographic, chemical, 
# crystal, experimental, refinement or atomic coordinate data resulting 
# from the CCDC's data processing and validation procedures.
#
#######################################################################

data_NECZUT
_chemical_formula_moiety         'C240 H328 Mg24 N8 O120'
_chemical_name_systematic        
'hexakis(\m-C-ethylpyrogallol[4]arene)-octakis(N,N-dimethylformamide)-tetracontakis(aqua)-tetracosa-magnesium(ii) unknown solvate'
_symmetry_cell_setting           tetragonal
_symmetry_space_group_name_H-M   'P 42/n c m'
_symmetry_Int_Tables_number      138
_space_group_name_Hall           '-P 4ac 2ac'
loop_
_symmetry_equiv_pos_site_id
_symmetry_equiv_pos_as_xyz
1 x,y,z
2 1/2-y,x,1/2+z
3 1/2-x,1/2-y,z
4 y,1/2-x,1/2+z
5 1/2+x,-y,1/2-z
6 -x,1/2+y,1/2-z
7 1/2+y,1/2+x,-z
8 -y,-x,-z
9 -x,-y,-z
10 1/2+y,-x,1/2-z
11 1/2+x,1/2+y,-z
12 -y,1/2+x,1/2-z
13 1/2-x,y,1/2+z
14 x,1/2-y,1/2+z
15 1/2-y,1/2-x,z
16 y,x,z
_cell_length_a                   37.655(8)
_cell_length_b                   37.655(8)
_cell_length_c                   24.947(5)
_cell_angle_alpha                90
_cell_angle_beta                 90
_cell_angle_gamma                90
_cell_volume                     35372.3
_exptl_crystal_colour            green
_exptl_crystal_description       block
_cell_formula_units_Z            4
loop_
_atom_site_label
_atom_site_type_symbol
_atom_site_fract_x
_atom_site_fract_y
_atom_site_fract_z
Mg1 Mg 0.55400(7) 0.64479(7) 0.69282(10)
Mg2 Mg 0.36385(7) 0.55430(7) 0.71083(12)
Mg3 Mg 0.36425(7) 0.45443(7) 0.71705(11)
Mg4 Mg 0.45406(8) 0.64451(9) 0.69802(13)
Mg5 Mg 0.50181(7) 0.68353(18) 0.57954(18)
O1 O 0.53704(12) 0.70599(12) 0.43686(19)
O2 O 0.53967(13) 0.71006(13) 0.5355(2)
O3 O 0.60565(14) 0.65131(15) 0.66741(19)
O4 O 0.59639(13) 0.64252(13) 0.30291(18)
O5 O 0.29426(12) 0.53932(13) 0.5587(2)
O6 O 0.56855(14) 0.61409(14) 0.75716(18)
O7 O 0.46259(13) 0.70952(13) 0.5404(3)
O8 O 0.39766(14) 0.44379(15) 0.78096(19)
O9 O 0.54326(13) 0.67268(16) 0.6249(2)
O10 O 0.50468(12) 0.63400(16) 0.7192(2)
O11 O 0.53753(13) 0.66417(15) 0.3503(2)
O12 O 0.37423(16) 0.50548(13) 0.7388(3)
O13 O 0.33629(15) 0.54380(13) 0.6449(2)
O14 O 0.40308(15) 0.65219(16) 0.6798(3)
O15 O 0.46312(14) 0.67227(17) 0.6309(2)
O16 O 0.35816(15) 0.60564(15) 0.6848(3)
O17 O 0.44374(18) 0.61441(15) 0.7648(2)
O18 O 0.39639(15) 0.56927(15) 0.7733(3)
O19 O 0.55981(18) 0.68977(16) 0.7412(2)
O20 O 0.31943(16) 0.56124(19) 0.7601(3)
C1 C 0.56989(17) 0.69907(18) 0.4135(3)
C2 C 0.57249(17) 0.70361(16) 0.5554(3)
C3 C 0.6321(2) 0.70302(18) 0.4059(3)
H1 H 0.6539 0.7130 0.4176
C4 C 0.60449(18) 0.71580(16) 0.5314(3)
C5 C 0.57371(19) 0.68396(18) 0.6021(3)
C6 C 0.59986(18) 0.66619(17) 0.3458(2)
C7 C 0.30132(17) 0.57297(18) 0.5786(4)
C8 C 0.60177(18) 0.71264(16) 0.4317(3)
C9 C 0.56861(17) 0.67682(18) 0.3682(2)
C10 C 0.63584(17) 0.70626(15) 0.5551(2)
H2 H 0.6572 0.7144 0.5391
C11 C 0.60663(18) 0.67297(17) 0.6250(2)
C12 C 0.63872(19) 0.68501(17) 0.6022(3)
O21 O 0.32055(18) 0.4507(2) 0.7689(3)
C13 C 0.43041(19) 0.70398(18) 0.5634(4)
C14 C 0.4318(2) 0.68376(19) 0.6111(4)
C15 C 0.3342(2) 0.6067(2) 0.6423(4)
C16 C 0.63268(17) 0.67919(16) 0.3632(3)
O22 O 0.4997(2) 0.6307(3) 0.4481(4)
C17 C 0.3236(2) 0.5737(2) 0.6223(3)
C18 C 0.5068(2) 0.6145(3) 0.7655(3)
C19 C 0.39841(19) 0.71570(18) 0.5437(5)
C20 C 0.6018(2) 0.73806(18) 0.4790(3)
H3 H 0.5783 0.7504 0.4794
C21 C 0.28745(19) 0.6039(2) 0.5560(5)
C22 C 0.3963(2) 0.5071(2) 0.7797(3)
C23 C 0.2964(2) 0.6355(2) 0.5758(5)
H4 H 0.2871 0.6565 0.5601
C24 C 0.39968(19) 0.67342(18) 0.6364(4)
C25 C 0.3673(2) 0.70704(18) 0.5688(4)
H5 H 0.3453 0.7151 0.5545
C26 C 0.4300(2) 0.4756(3) 0.8513(3)
O23 O 0.4521(2) 0.6892(2) 0.7516(3)
O24 O 0.4129(2) 0.4627(2) 0.6657(4)
C27 C 0.5079(3) 0.5794(3) 0.8603(3)
H6 H 0.5084 0.5672 0.8937
C28 C 0.67397(16) 0.67397(16) 0.6235(4)
H7 H 0.6703 0.6703 0.6628
C29 C 0.5387(2) 0.6053(2) 0.7863(3)
C30 C 0.4073(2) 0.4761(3) 0.8040(3)
C31 C 0.4757(2) 0.6049(2) 0.7916(3)
C32 C 0.66728(17) 0.66728(17) 0.3351(4)
H8 H 0.6611 0.6611 0.2972
C33 C 0.7027(2) 0.7027(2) 0.6191(6)
H9 H 0.7261 0.6913 0.6250
H10 H 0.7025 0.7119 0.5819
C34 C 0.3674(2) 0.6855(2) 0.6175(4)
C35 C 0.4768(3) 0.5873(3) 0.8401(3)
C36 C 0.4388(3) 0.5096(3) 0.8692(3)
H11 H 0.4530 0.5111 0.9006
C37 C 0.4284(3) 0.5421(3) 0.8448(3)
C38 C 0.32116(18) 0.63809(19) 0.6229(4)
C39 C 0.5409(3) 0.5876(3) 0.8359(2)
C40 C 0.4066(2) 0.5410(3) 0.7998(3)
O25 O 0.4120(2) 0.5432(3) 0.6609(4)
O26 O 0.5465(3) 0.5961(3) 0.6446(3)
O27 O 0.5022(3) 0.6324(4) 0.5427(6)
O28 O 0.4595(3) 0.5944(3) 0.6494(4)
C41 C 0.5765(2) 0.5765(2) 0.8580(4)
H12 H 0.5939 0.5939 0.8431
C42 C 0.6306(3) 0.7668(2) 0.4765(4)
H13 H 0.6280 0.7807 0.4431
H14 H 0.6544 0.7557 0.4767
C43 C 0.4411(3) 0.5780(3) 0.8666(3)
H15 H 0.4234 0.5962 0.8548
C44 C 0.3983(2) 0.7381(2) 0.4922(6)
H16 H 0.4219 0.7503 0.4901
C45 C 0.6958(2) 0.6958(2) 0.3334(6)
H17 H 0.6993 0.7054 0.3699
H18 H 0.7185 0.6850 0.3215
C46 C 0.3326(2) 0.67411(19) 0.6442(5)
H19 H 0.3383 0.6704 0.6829
C47 C 0.4418(2) 0.4418(2) 0.8764(4)
H20 H 0.4238 0.4238 0.8646
C48 C 0.3696(3) 0.7675(2) 0.4927(6)
H21 H 0.3460 0.7564 0.4877
H22 H 0.3697 0.7794 0.5281
C49 C 0.3047(2) 0.7032(3) 0.6425(6)
H23 H 0.2970 0.7066 0.6049
H24 H 0.3155 0.7257 0.6548
C50 C 0.5796(3) 0.5796(3) 0.9170(4)
H25 H 0.6041 0.5739 0.9286
H26 H 0.5630 0.5631 0.9350
O29 O 0.5024(3) 0.7354(7) 0.6294(10)
C51 C 0.4419(4) 0.5788(3) 0.9280(4)
H27 H 0.4186 0.5711 0.9421
H28 H 0.4601 0.5619 0.9411
C52 C 0.4405(3) 0.4405(3) 0.9386(5)
H29 H 0.4163 0.4458 0.9515
H30 H 0.4570 0.4583 0.9539
C53 C 0.4503(6) 0.6152(4) 0.9485(9)
H31 H 0.4506 0.6149 0.9877
H32 H 0.4736 0.6226 0.9350
H33 H 0.4321 0.6319 0.9360
C54 C 0.2710(5) 0.6952(6) 0.6780(8)
H34 H 0.2542 0.7149 0.6750
H35 H 0.2597 0.6732 0.6655
H36 H 0.2783 0.6924 0.7155
O30 O 0.4974(3) 0.7297(7) 0.3549(10)
C55 C 0.6861(10) 0.7258(8) 0.2959(13)
H37 H 0.7051 0.7436 0.2959
H38 H 0.6830 0.7164 0.2595
H39 H 0.6639 0.7368 0.3078
Mg6 Mg 0.49842(6) 0.67576(12) 0.40292(16)
C56 C 0.6263(6) 0.7920(6) 0.5270(8)
H40 H 0.6446 0.8105 0.5259
H41 H 0.6028 0.8030 0.5264
H42 H 0.6290 0.7780 0.5599
C57 C 0.6996(10) 0.7342(8) 0.6573(14)
H43 H 0.7193 0.7507 0.6508
H44 H 0.6770 0.7464 0.6512
H45 H 0.7006 0.7256 0.6944
C58 C 0.4521(12) 0.4015(6) 0.9557(17)
H46 H 0.4517 0.3995 0.9949
H47 H 0.4355 0.3842 0.9402
H48 H 0.4761 0.3967 0.9426
C59 C 0.3754(6) 0.7939(6) 0.4508(8)
H49 H 0.3566 0.8119 0.4526
H50 H 0.3985 0.8052 0.4560
H51 H 0.3748 0.7823 0.4157
C60 C 0.5702(10) 0.6192(6) 0.9316(16)
H52 H 0.5720 0.6224 0.9705
H53 H 0.5868 0.6352 0.9136
H54 H 0.5459 0.6244 0.9199
C61 C 0.5649(5) 0.7039(5) 0.7850(7)
N1 N 0.5923(5) 0.7313(5) 0.7824(8)
C62 C 0.6137(7) 0.7468(5) 0.7422(10)
H55 H 0.6096 0.7345 0.7081
H56 H 0.6076 0.7719 0.7384
H57 H 0.6388 0.7445 0.7523
C63 C 0.5958(5) 0.7470(5) 0.8352(8)
H58 H 0.5800 0.7346 0.8603
H59 H 0.6204 0.7447 0.8475
H60 H 0.5892 0.7721 0.8336
N2 N 0.2677(5) 0.5963(5) 0.7806(7)
C64 C 0.2638(5) 0.5927(6) 0.8377(8)
H61 H 0.2429 0.6060 0.8497
H62 H 0.2609 0.5675 0.8469
H63 H 0.2850 0.6021 0.8556
C65 C 0.2950(4) 0.5801(4) 0.7547(9)
C66 C 0.2436(6) 0.6156(7) 0.7442(9)
H64 H 0.2246 0.6267 0.7650
H65 H 0.2570 0.6340 0.7251
H66 H 0.2334 0.5989 0.7183
O1O O 0.70599(12) 0.53704(12) 0.43686(19)
O2O O 0.71006(13) 0.53967(13) 0.5355(2)
O3O O 0.65131(15) 0.60565(14) 0.66741(19)
O4O O 0.64252(13) 0.59639(13) 0.30291(18)
O9O O 0.67268(16) 0.54326(13) 0.6249(2)
O11O O 0.66417(15) 0.53753(13) 0.3503(2)
C1O C 0.69907(18) 0.56989(17) 0.4135(3)
C2O C 0.70361(16) 0.57249(17) 0.5554(3)
C3O C 0.70302(18) 0.6321(2) 0.4059(3)
H1O H 0.7130 0.6539 0.4176
C4O C 0.71580(16) 0.60449(18) 0.5314(3)
C5O C 0.68396(18) 0.57371(19) 0.6021(3)
C6O C 0.66619(17) 0.59986(18) 0.3458(2)
C8O C 0.71264(16) 0.60177(18) 0.4317(3)
C9O C 0.67682(18) 0.56861(17) 0.3682(2)
C10O C 0.70626(15) 0.63584(17) 0.5551(2)
H2O H 0.7144 0.6572 0.5391
C11O C 0.67297(17) 0.60663(18) 0.6250(2)
C12O C 0.68501(17) 0.63872(19) 0.6022(3)
C16O C 0.67919(16) 0.63268(17) 0.3632(3)
C20O C 0.73806(18) 0.6018(2) 0.4790(3)
H3O H 0.7504 0.5783 0.4794
H9O H 0.6913 0.7261 0.6250
H10O H 0.7119 0.7025 0.5819
C42O C 0.7668(2) 0.6306(3) 0.4765(4)
H13O H 0.7807 0.6280 0.4431
H14O H 0.7557 0.6544 0.4767
H17O H 0.7054 0.6993 0.3699
H18O H 0.6850 0.7185 0.3215
C55O C 0.7258(8) 0.6861(10) 0.2959(13)
H37O H 0.7436 0.7051 0.2959
H38O H 0.7164 0.6830 0.2595
H39O H 0.7368 0.6639 0.3078
C56O C 0.7920(6) 0.6263(6) 0.5270(8)
H40O H 0.8105 0.6446 0.5259
H41O H 0.8030 0.6028 0.5264
H42O H 0.7780 0.6290 0.5599
C57O C 0.7342(8) 0.6996(10) 0.6573(14)
H43O H 0.7507 0.7193 0.6508
H44O H 0.7464 0.6770 0.6512
H45O H 0.7256 0.7006 0.6944
O5G O 0.46068(13) 0.70574(12) 0.4413(2)
O7G O 0.29048(13) 0.53741(13) 0.4596(3)
O13G O 0.45620(13) 0.66371(15) 0.3551(2)
O14G O 0.34781(16) 0.59692(15) 0.3202(3)
O15G O 0.32773(17) 0.53688(14) 0.3691(2)
O16G O 0.39436(15) 0.64184(15) 0.3152(3)
C7G C 0.42703(18) 0.69868(17) 0.4214(4)
C13G C 0.29602(18) 0.56959(19) 0.4366(4)
C14G C 0.31624(19) 0.5682(2) 0.3889(4)
C15G C 0.3933(2) 0.6658(2) 0.3577(4)
C17G C 0.4263(2) 0.6764(2) 0.3777(3)
C19G C 0.28430(18) 0.60159(19) 0.4563(5)
C21G C 0.3961(2) 0.71255(19) 0.4440(5)
C23G C 0.3645(2) 0.7036(2) 0.4242(5)
H4G H 0.3435 0.7129 0.4399
C24G C 0.32658(18) 0.60032(19) 0.3636(4)
C25G C 0.29296(18) 0.6327(2) 0.4312(4)
H5G H 0.2849 0.6547 0.4455
C34G C 0.3145(2) 0.6326(2) 0.3825(4)
C38G C 0.36191(19) 0.67884(18) 0.3771(4)
C44G C 0.2619(2) 0.6017(2) 0.5078(6)
H16G H 0.2497 0.5781 0.5099
C46G C 0.32589(19) 0.6674(2) 0.3558(5)
H19G H 0.3296 0.6617 0.3171
C48G C 0.2325(2) 0.6304(3) 0.5073(6)
H21G H 0.2436 0.6540 0.5123
H22G H 0.2206 0.6303 0.4719
C49G C 0.2968(3) 0.6953(2) 0.3575(6)
H23G H 0.2934 0.7030 0.3951
H24G H 0.2743 0.6845 0.3452
C54G C 0.3048(6) 0.7290(5) 0.3220(8)
H34G H 0.2851 0.7458 0.3250
H35G H 0.3268 0.7403 0.3345
H36G H 0.3076 0.7217 0.2845
C59G C 0.2061(6) 0.6246(6) 0.5492(8)
H49G H 0.1881 0.6434 0.5474
H50G H 0.1948 0.6015 0.5440
H51G H 0.2177 0.6252 0.5843
O6O O 0.61409(14) 0.56855(14) 0.75716(18)
O8O O 0.44379(15) 0.39766(14) 0.78096(19)
O10O O 0.63400(16) 0.50468(12) 0.7192(2)
O12O O 0.50548(13) 0.37423(16) 0.7388(3)
O17O O 0.61441(15) 0.44374(18) 0.7648(2)
O18O O 0.56927(15) 0.39639(15) 0.7733(3)
C18O C 0.6145(3) 0.5068(2) 0.7655(3)
C22O C 0.5071(2) 0.3963(2) 0.7797(3)
C26O C 0.4756(3) 0.4300(2) 0.8513(3)
C27O C 0.5794(3) 0.5079(3) 0.8603(3)
H6O H 0.5672 0.5084 0.8937
C29O C 0.6053(2) 0.5387(2) 0.7863(3)
C30O C 0.4761(3) 0.4073(2) 0.8040(3)
C31O C 0.6049(2) 0.4757(2) 0.7916(3)
C35O C 0.5873(3) 0.4768(3) 0.8401(3)
C36O C 0.5096(3) 0.4388(3) 0.8692(3)
H11O H 0.5111 0.4530 0.9006
C37O C 0.5421(3) 0.4284(3) 0.8448(3)
C39O C 0.5876(3) 0.5409(3) 0.8359(2)
C40O C 0.5410(3) 0.4066(2) 0.7998(3)
C43O C 0.5780(3) 0.4411(3) 0.8666(3)
H15O H 0.5962 0.4234 0.8548
H25O H 0.5739 0.6041 0.9286
C51O C 0.5788(3) 0.4419(4) 0.9280(4)
H27O H 0.5711 0.4186 0.9421
H28O H 0.5619 0.4601 0.9411
H29O H 0.4458 0.4163 0.9515
C53O C 0.6152(4) 0.4503(6) 0.9485(9)
H31O H 0.6149 0.4506 0.9877
H32O H 0.6226 0.4736 0.9350
H33O H 0.6319 0.4321 0.9360
C58O C 0.4015(6) 0.4521(12) 0.9557(17)
H46O H 0.3995 0.4517 0.9949
H47O H 0.3842 0.4355 0.9402
H48O H 0.3967 0.4761 0.9426
C60O C 0.6192(6) 0.5702(10) 0.9316(16)
H52O H 0.6224 0.5720 0.9705
H53O H 0.6352 0.5868 0.9136
H54O H 0.6244 0.5459 0.9199
Mg1G Mg 0.35521(7) 0.44600(7) 0.30718(10)
Mg2G Mg 0.44570(7) 0.63615(7) 0.28917(12)
Mg3G Mg 0.54557(7) 0.63575(7) 0.28295(11)
Mg4G Mg 0.35549(9) 0.54594(8) 0.30198(13)
Mg5G Mg 0.31647(18) 0.49819(7) 0.42046(18)
O1G O 0.29401(12) 0.46296(12) 0.56314(19)
O2G O 0.28994(13) 0.46033(13) 0.4645(2)
O3G O 0.34869(15) 0.39435(14) 0.33259(19)
O4G O 0.35748(13) 0.40361(13) 0.69709(18)
O6G O 0.38591(14) 0.43145(14) 0.24284(18)
O8G O 0.55621(15) 0.60234(14) 0.21904(19)
O9G O 0.32732(16) 0.45674(13) 0.3751(2)
O10G O 0.36600(16) 0.49532(12) 0.2808(2)
O11G O 0.33583(15) 0.46247(13) 0.6497(2)
O12G O 0.49452(13) 0.62577(16) 0.2612(3)
O17G O 0.38559(15) 0.55626(18) 0.2352(2)
O18G O 0.43073(15) 0.60361(15) 0.2267(3)
O19G O 0.31023(16) 0.44019(18) 0.2588(2)
O20G O 0.43876(19) 0.68057(16) 0.2399(3)
C1G C 0.30093(18) 0.43011(17) 0.5865(3)
C2G C 0.29639(16) 0.42751(17) 0.4446(3)
C3G C 0.29698(18) 0.3679(2) 0.5941(3)
H1G H 0.2870 0.3461 0.5824
C4G C 0.28420(16) 0.39551(18) 0.4686(3)
C5G C 0.31604(18) 0.42629(19) 0.3979(3)
C6G C 0.33381(17) 0.40014(18) 0.6542(2)
C8G C 0.28736(16) 0.39823(18) 0.5683(3)
C9G C 0.32318(18) 0.43139(17) 0.6318(2)
C10G C 0.29374(15) 0.36416(17) 0.4449(2)
H2G H 0.2856 0.3428 0.4609
C11G C 0.32703(17) 0.39337(18) 0.3750(2)
C12G C 0.31499(17) 0.36128(19) 0.3978(3)
O21G O 0.5493(2) 0.67945(18) 0.2311(3)
C16G C 0.32081(16) 0.36732(17) 0.6368(3)
O22G O 0.3693(3) 0.5003(2) 0.5519(4)
C18G C 0.3855(3) 0.4932(2) 0.2345(3)
C20G C 0.26194(18) 0.3982(2) 0.5210(3)
H3G H 0.2496 0.4217 0.5206
C22G C 0.4929(2) 0.6037(2) 0.2203(3)
C26G C 0.5244(3) 0.5700(2) 0.1487(3)
O23G O 0.3108(2) 0.5479(2) 0.2484(3)
O24G O 0.5373(2) 0.5871(2) 0.3343(4)
C27G C 0.4206(3) 0.4921(3) 0.1397(3)
H6G H 0.4328 0.4916 0.1063
C28G C 0.32603(16) 0.32603(16) 0.3765(4)
H7G H 0.3297 0.3297 0.3372
C29G C 0.3947(2) 0.4613(2) 0.2137(3)
C30G C 0.5239(3) 0.5927(2) 0.1960(3)
C31G C 0.3951(2) 0.5243(2) 0.2084(3)
C32G C 0.33272(17) 0.33272(17) 0.6649(4)
H8G H 0.3389 0.3389 0.7028
C33G C 0.2973(2) 0.2973(2) 0.3809(6)
H9G H 0.3087 0.2739 0.3750
H10G H 0.2881 0.2975 0.4181
C35G C 0.4127(3) 0.5232(3) 0.1599(3)
C36G C 0.4904(3) 0.5612(3) 0.1308(3)
H11G H 0.4889 0.5470 0.0994
C37G C 0.4579(3) 0.5716(3) 0.1552(3)
C39G C 0.4124(3) 0.4591(3) 0.1641(2)
C40G C 0.4590(3) 0.5934(2) 0.2002(3)
O25G O 0.4568(3) 0.5880(2) 0.3391(4)
O26G O 0.4039(3) 0.4535(3) 0.3554(3)
O27G O 0.3676(4) 0.4978(3) 0.4573(6)
O28G O 0.4056(3) 0.5405(3) 0.3506(4)
C41G C 0.4235(2) 0.4235(2) 0.1420(4)
H12G H 0.4061 0.4061 0.1569
C42G C 0.2332(2) 0.3694(3) 0.5235(4)
H13G H 0.2193 0.3720 0.5569
H14G H 0.2443 0.3456 0.5233
C43G C 0.4220(3) 0.5589(3) 0.1334(3)
H15G H 0.4038 0.5766 0.1452
C45G C 0.3042(2) 0.3042(2) 0.6666(6)
H17G H 0.2946 0.3007 0.6301
H18G H 0.3150 0.2815 0.6785
C47G C 0.5582(2) 0.5582(2) 0.1236(4)
H20G H 0.5762 0.5762 0.1354
C50G C 0.4204(3) 0.4204(3) 0.0830(4)
H25G H 0.4261 0.3959 0.0714
H26G H 0.4369 0.4370 0.0650
O29G O 0.2646(7) 0.4976(3) 0.3706(10)
C51G C 0.4212(3) 0.5581(4) 0.0720(4)
H27G H 0.4289 0.5814 0.0579
H28G H 0.4381 0.5399 0.0589
C52G C 0.5595(3) 0.5595(3) 0.0614(5)
H29G H 0.5542 0.5837 0.0485
H30G H 0.5417 0.5430 0.0461
C53G C 0.3848(4) 0.5497(6) 0.0515(9)
H31G H 0.3851 0.5494 0.0123
H32G H 0.3774 0.5264 0.0650
H33G H 0.3681 0.5679 0.0640
O30G O 0.2703(7) 0.5026(3) 0.6451(10)
C55G C 0.2742(8) 0.3139(10) 0.7041(13)
H37G H 0.2564 0.2949 0.7041
H38G H 0.2836 0.3170 0.7405
H39G H 0.2632 0.3361 0.6922
Mg6G Mg 0.32424(12) 0.50158(6) 0.59708(16)
C56G C 0.2080(6) 0.3737(6) 0.4730(8)
H40G H 0.1895 0.3554 0.4741
H41G H 0.1970 0.3972 0.4736
H42G H 0.2220 0.3710 0.4401
C57G C 0.2658(8) 0.3004(10) 0.3427(14)
H43G H 0.2493 0.2807 0.3492
H44G H 0.2536 0.3230 0.3488
H45G H 0.2744 0.2994 0.3056
C58G C 0.5985(6) 0.5479(12) 0.0443(17)
H46G H 0.6005 0.5483 0.0051
H47G H 0.6158 0.5645 0.0598
H48G H 0.6033 0.5239 0.0574
C60G C 0.3808(6) 0.4298(10) 0.0684(16)
H52G H 0.3776 0.4280 0.0295
H53G H 0.3648 0.4132 0.0864
H54G H 0.3756 0.4541 0.0801
C61G C 0.2961(5) 0.4351(5) 0.2150(7)
N1G N 0.2687(5) 0.4077(5) 0.2176(8)
C62G C 0.2532(5) 0.3863(7) 0.2578(10)
H55G H 0.2655 0.3904 0.2919
H56G H 0.2281 0.3924 0.2616
H57G H 0.2555 0.3612 0.2477
C63G C 0.2530(5) 0.4042(5) 0.1648(8)
H58G H 0.2654 0.4200 0.1397
H59G H 0.2553 0.3796 0.1525
H60G H 0.2279 0.4108 0.1664
N2G N 0.4037(5) 0.7323(5) 0.2194(7)
C64G C 0.4073(6) 0.7362(5) 0.1623(8)
H61G H 0.3940 0.7571 0.1503
H62G H 0.4325 0.7391 0.1531
H63G H 0.3979 0.7150 0.1444
C65G C 0.4199(4) 0.7050(4) 0.2453(9)
C66G C 0.3844(7) 0.7564(6) 0.2558(9)
H64G H 0.3733 0.7754 0.2350
H65G H 0.3660 0.7430 0.2749
H66G H 0.4011 0.7666 0.2817
O1H O 0.46296(12) 0.29401(12) 0.56314(19)
O2H O 0.46033(13) 0.28994(13) 0.4645(2)
O3H O 0.39435(14) 0.34869(15) 0.33259(19)
O4H O 0.40361(13) 0.35748(13) 0.69709(18)
O9H O 0.45674(13) 0.32732(16) 0.3751(2)
O11H O 0.46247(13) 0.33583(15) 0.6497(2)
C1H C 0.43011(17) 0.30093(18) 0.5865(3)
C2H C 0.42751(17) 0.29639(16) 0.4446(3)
C3H C 0.3679(2) 0.29698(18) 0.5941(3)
H1H H 0.3461 0.2870 0.5824
C4H C 0.39551(18) 0.28420(16) 0.4686(3)
C5H C 0.42629(19) 0.31604(18) 0.3979(3)
C6H C 0.40014(18) 0.33381(17) 0.6542(2)
C8H C 0.39823(18) 0.28736(16) 0.5683(3)
C9H C 0.43139(17) 0.32318(18) 0.6318(2)
C10H C 0.36416(17) 0.29374(15) 0.4449(2)
H2H H 0.3428 0.2856 0.4609
C11H C 0.39337(18) 0.32703(17) 0.3750(2)
C12H C 0.36128(19) 0.31499(17) 0.3978(3)
C16H C 0.36732(17) 0.32081(16) 0.6368(3)
C20H C 0.3982(2) 0.26194(18) 0.5210(3)
H3H H 0.4217 0.2496 0.5206
H9H H 0.2739 0.3087 0.3750
H10H H 0.2975 0.2881 0.4181
C42H C 0.3694(3) 0.2332(2) 0.5235(4)
H13H H 0.3720 0.2193 0.5569
H14H H 0.3456 0.2443 0.5233
H17H H 0.3007 0.2946 0.6301
H18H H 0.2815 0.3150 0.6785
C55H C 0.3139(10) 0.2742(8) 0.7041(13)
H37H H 0.2949 0.2564 0.7041
H38H H 0.3170 0.2836 0.7405
H39H H 0.3361 0.2632 0.6922
C56H C 0.3737(6) 0.2080(6) 0.4730(8)
H40H H 0.3554 0.1895 0.4741
H41H H 0.3972 0.1970 0.4736
H42H H 0.3710 0.2220 0.4401
C57H C 0.3004(10) 0.2658(8) 0.3427(14)
H43H H 0.2807 0.2493 0.3492
H44H H 0.3230 0.2536 0.3488
H45H H 0.2994 0.2744 0.3056
O6H O 0.43145(14) 0.38591(14) 0.24284(18)
O8H O 0.60234(14) 0.55621(15) 0.21904(19)
O10H O 0.49532(12) 0.36600(16) 0.2808(2)
O12H O 0.62577(16) 0.49452(13) 0.2612(3)
O17H O 0.55626(18) 0.38559(15) 0.2352(2)
O18H O 0.60361(15) 0.43073(15) 0.2267(3)
C18H C 0.4932(2) 0.3855(3) 0.2345(3)
C22H C 0.6037(2) 0.4929(2) 0.2203(3)
C26H C 0.5700(2) 0.5244(3) 0.1487(3)
C27H C 0.4921(3) 0.4206(3) 0.1397(3)
H6H H 0.4916 0.4328 0.1063
C29H C 0.4613(2) 0.3947(2) 0.2137(3)
C30H C 0.5927(2) 0.5239(3) 0.1960(3)
C31H C 0.5243(2) 0.3951(2) 0.2084(3)
C35H C 0.5232(3) 0.4127(3) 0.1599(3)
C36H C 0.5612(3) 0.4904(3) 0.1308(3)
H11H H 0.5470 0.4889 0.0994
C37H C 0.5716(3) 0.4579(3) 0.1552(3)
C39H C 0.4591(3) 0.4124(3) 0.1641(2)
C40H C 0.5934(2) 0.4590(3) 0.2002(3)
C43H C 0.5589(3) 0.4220(3) 0.1334(3)
H15H H 0.5766 0.4038 0.1452
H25H H 0.3959 0.4261 0.0714
C51H C 0.5581(4) 0.4212(3) 0.0720(4)
H27H H 0.5814 0.4289 0.0579
H28H H 0.5399 0.4381 0.0589
H29H H 0.5837 0.5542 0.0485
C53H C 0.5497(6) 0.3848(4) 0.0515(9)
H31H H 0.5494 0.3851 0.0123
H32H H 0.5264 0.3774 0.0650
H33H H 0.5679 0.3681 0.0640
C58H C 0.5479(12) 0.5985(6) 0.0443(17)
H46H H 0.5483 0.6005 0.0051
H47H H 0.5645 0.6158 0.0598
H48H H 0.5239 0.6033 0.0574
C60H C 0.4298(10) 0.3808(6) 0.0684(16)
H52H H 0.4280 0.3776 0.0295
H53H H 0.4132 0.3648 0.0864
H54H H 0.4541 0.3756 0.0801
Mg1H Mg 0.44600(7) 0.35521(7) 0.30718(10)
Mg2H Mg 0.63615(7) 0.44570(7) 0.28917(12)
Mg3H Mg 0.63575(7) 0.54557(7) 0.28295(11)
Mg4H Mg 0.54594(8) 0.35549(9) 0.30198(13)
Mg5H Mg 0.49819(7) 0.31647(18) 0.42046(18)
O5H O 0.70574(12) 0.46068(13) 0.4413(2)
O7H O 0.53741(13) 0.29048(13) 0.4596(3)
O13H O 0.66371(15) 0.45620(13) 0.3551(2)
O14H O 0.59692(15) 0.34781(16) 0.3202(3)
O15H O 0.53688(14) 0.32773(17) 0.3691(2)
O16H O 0.64184(15) 0.39436(15) 0.3152(3)
O19H O 0.44019(18) 0.31023(16) 0.2588(2)
O20H O 0.68057(16) 0.43876(19) 0.2399(3)
C7H C 0.69868(17) 0.42703(18) 0.4214(4)
O21H O 0.67945(18) 0.5493(2) 0.2311(3)
C13H C 0.56959(19) 0.29602(18) 0.4366(4)
C14H C 0.5682(2) 0.31624(19) 0.3889(4)
C15H C 0.6658(2) 0.3933(2) 0.3577(4)
O22H O 0.5003(2) 0.3693(3) 0.5519(4)
C17H C 0.6764(2) 0.4263(2) 0.3777(3)
C19H C 0.60159(19) 0.28430(18) 0.4563(5)
C21H C 0.71255(19) 0.3961(2) 0.4440(5)
C23H C 0.7036(2) 0.3645(2) 0.4242(5)
H4H H 0.7129 0.3435 0.4399
C24H C 0.60032(19) 0.32658(18) 0.3636(4)
C25H C 0.6327(2) 0.29296(18) 0.4312(4)
H5H H 0.6547 0.2849 0.4455
O23H O 0.5479(2) 0.3108(2) 0.2484(3)
O24H O 0.5871(2) 0.5373(2) 0.3343(4)
C34H C 0.6326(2) 0.3145(2) 0.3825(4)
C38H C 0.67884(18) 0.36191(19) 0.3771(4)
O25H O 0.5880(2) 0.4568(3) 0.3391(4)
O26H O 0.4535(3) 0.4039(3) 0.3554(3)
O27H O 0.4978(3) 0.3676(4) 0.4573(6)
O28H O 0.5405(3) 0.4056(3) 0.3506(4)
C44H C 0.6017(2) 0.2619(2) 0.5078(6)
H16H H 0.5781 0.2497 0.5099
C46H C 0.6674(2) 0.32589(19) 0.3558(5)
H19H H 0.6617 0.3296 0.3171
C48H C 0.6304(3) 0.2325(2) 0.5073(6)
H21H H 0.6540 0.2436 0.5123
H22H H 0.6303 0.2206 0.4719
C49H C 0.6953(2) 0.2968(3) 0.3575(6)
H23H H 0.7030 0.2934 0.3951
H24H H 0.6845 0.2743 0.3452
O29H O 0.4976(3) 0.2646(7) 0.3706(10)
C54H C 0.7290(5) 0.3048(6) 0.3220(8)
H34H H 0.7458 0.2851 0.3250
H35H H 0.7403 0.3268 0.3345
H36H H 0.7217 0.3076 0.2845
O30H O 0.5026(3) 0.2703(7) 0.6451(10)
Mg6H Mg 0.50158(6) 0.32424(12) 0.59708(16)
C59H C 0.6246(6) 0.2061(6) 0.5492(8)
H49H H 0.6434 0.1881 0.5474
H50H H 0.6015 0.1948 0.5440
H51H H 0.6252 0.2177 0.5843
C61H C 0.4351(5) 0.2961(5) 0.2150(7)
N1H N 0.4077(5) 0.2687(5) 0.2176(8)
C62H C 0.3863(7) 0.2532(5) 0.2578(10)
H55H H 0.3904 0.2655 0.2919
H56H H 0.3924 0.2281 0.2616
H57H H 0.3612 0.2555 0.2477
C63H C 0.4042(5) 0.2530(5) 0.1648(8)
H58H H 0.4200 0.2654 0.1397
H59H H 0.3796 0.2553 0.1525
H60H H 0.4108 0.2279 0.1664
N2H N 0.7323(5) 0.4037(5) 0.2194(7)
C64H C 0.7362(5) 0.4073(6) 0.1623(8)
H61H H 0.7571 0.3940 0.1503
H62H H 0.7391 0.4325 0.1531
H63H H 0.7150 0.3979 0.1444
C65H C 0.7050(4) 0.4199(4) 0.2453(9)
C66H C 0.7564(6) 0.3844(7) 0.2558(9)
H64H H 0.7754 0.3733 0.2350
H65H H 0.7430 0.3660 0.2749
H66H H 0.7666 0.4011 0.2817
O5O O 0.53932(13) 0.29426(12) 0.5587(2)
O7O O 0.70952(13) 0.46259(13) 0.5404(3)
O13O O 0.54380(13) 0.33629(15) 0.6449(2)
O14O O 0.65219(16) 0.40308(15) 0.6798(3)
O15O O 0.67227(17) 0.46312(14) 0.6309(2)
O16O O 0.60564(15) 0.35816(15) 0.6848(3)
C7O C 0.57297(18) 0.30132(17) 0.5786(4)
C13O C 0.70398(18) 0.43041(19) 0.5634(4)
C14O C 0.68376(19) 0.4318(2) 0.6111(4)
C15O C 0.6067(2) 0.3342(2) 0.6423(4)
C17O C 0.5737(2) 0.3236(2) 0.6223(3)
C19O C 0.71570(18) 0.39841(19) 0.5437(5)
C21O C 0.6039(2) 0.28745(19) 0.5560(5)
C23O C 0.6355(2) 0.2964(2) 0.5758(5)
H4O H 0.6565 0.2871 0.5601
C24O C 0.67342(18) 0.39968(19) 0.6364(4)
C25O C 0.70704(18) 0.3673(2) 0.5688(4)
H5O H 0.7151 0.3453 0.5545
C34O C 0.6855(2) 0.3674(2) 0.6175(4)
C38O C 0.63809(19) 0.32116(18) 0.6229(4)
C44O C 0.7381(2) 0.3983(2) 0.4922(6)
H16O H 0.7503 0.4219 0.4901
C46O C 0.67411(19) 0.3326(2) 0.6442(5)
H19O H 0.6704 0.3383 0.6829
C48O C 0.7675(2) 0.3696(3) 0.4927(6)
H21O H 0.7564 0.3460 0.4877
H22O H 0.7794 0.3697 0.5281
C49O C 0.7032(3) 0.3047(2) 0.6425(6)
H23O H 0.7066 0.2970 0.6049
H24O H 0.7257 0.3155 0.6548
C54O C 0.6952(6) 0.2710(5) 0.6780(8)
H34O H 0.7149 0.2542 0.6750
H35O H 0.6732 0.2597 0.6655
H36O H 0.6924 0.2783 0.7155
C59O C 0.7939(6) 0.3754(6) 0.4508(8)
H49O H 0.8119 0.3566 0.4526
H50O H 0.8052 0.3985 0.4560
H51O H 0.7823 0.3748 0.4157
Mg1O Mg 0.64479(7) 0.55400(7) 0.69282(10)
Mg2O Mg 0.55430(7) 0.36385(7) 0.71083(12)
Mg3O Mg 0.45443(7) 0.36425(7) 0.71705(11)
Mg4O Mg 0.64451(9) 0.45406(8) 0.69802(13)
Mg5O Mg 0.68353(18) 0.50181(7) 0.57954(18)
O19O O 0.68977(16) 0.55981(18) 0.7412(2)
O20O O 0.56124(19) 0.31943(16) 0.7601(3)
O21O O 0.4507(2) 0.32055(18) 0.7689(3)
O22O O 0.6307(3) 0.4997(2) 0.4481(4)
O23O O 0.6892(2) 0.4521(2) 0.7516(3)
O24O O 0.4627(2) 0.4129(2) 0.6657(4)
O25O O 0.5432(3) 0.4120(2) 0.6609(4)
O26O O 0.5961(3) 0.5465(3) 0.6446(3)
O27O O 0.6324(4) 0.5022(3) 0.5427(6)
O28O O 0.5944(3) 0.4595(3) 0.6494(4)
O29O O 0.7354(7) 0.5024(3) 0.6294(10)
O30O O 0.7297(7) 0.4974(3) 0.3549(10)
Mg6O Mg 0.67576(12) 0.49842(6) 0.40292(16)
C61O C 0.7039(5) 0.5649(5) 0.7850(7)
N1O N 0.7313(5) 0.5923(5) 0.7824(8)
C62O C 0.7468(5) 0.6137(7) 0.7422(10)
H55O H 0.7345 0.6096 0.7081
H56O H 0.7719 0.6076 0.7384
H57O H 0.7445 0.6388 0.7523
C63O C 0.7470(5) 0.5958(5) 0.8352(8)
H58O H 0.7346 0.5800 0.8603
H59O H 0.7447 0.6204 0.8475
H60O H 0.7721 0.5892 0.8336
N2O N 0.5963(5) 0.2677(5) 0.7806(7)
C64O C 0.5927(6) 0.2638(5) 0.8377(8)
H61O H 0.6060 0.2429 0.8497
H62O H 0.5675 0.2609 0.8469
H63O H 0.6021 0.2850 0.8556
C65O C 0.5801(4) 0.2950(4) 0.7547(9)
C66O C 0.6156(7) 0.2436(6) 0.7442(9)
H64O H 0.6267 0.2246 0.7650
H65O H 0.6340 0.2570 0.7251
H66O H 0.5989 0.2334 0.7183
loop_
_geom_bond_atom_site_label_1
_geom_bond_atom_site_label_2
_geom_bond_site_symmetry_1
_geom_bond_site_symmetry_2
Mg1 O3 1_555 1_555
Mg2 O12 1_555 1_555
Mg3 O8 1_555 1_555
Mg4 O10 1_555 1_555
Mg5 O2 1_555 1_555
O1 C1 1_555 1_555
O2 C2 1_555 1_555
O3 C11 1_555 1_555
O4 C6 1_555 1_555
O5 C7 1_555 1_555
O6 Mg1 1_555 1_555
O7 Mg5 1_555 1_555
O8 C30 1_555 1_555
O9 Mg1 1_555 1_555
O10 Mg1 1_555 1_555
O11 C9 1_555 1_555
O12 Mg3 1_555 1_555
O13 Mg2 1_555 1_555
O14 Mg4 1_555 1_555
O15 Mg4 1_555 1_555
O16 Mg2 1_555 1_555
O17 Mg4 1_555 1_555
O18 Mg2 1_555 1_555
O19 Mg1 1_555 1_555
O20 Mg2 1_555 1_555
C1 C8 1_555 1_555
C2 C4 1_555 1_555
C3 H1 1_555 1_555
C4 C10 1_555 1_555
C5 O9 1_555 1_555
C6 C9 1_555 1_555
C7 C17 1_555 1_555
C8 C3 1_555 1_555
C9 C1 1_555 1_555
C10 H2 1_555 1_555
C11 C5 1_555 1_555
C12 C10 1_555 1_555
O21 Mg3 1_555 1_555
C13 O7 1_555 1_555
C14 O15 1_555 1_555
C15 O16 1_555 1_555
C16 C3 1_555 1_555
O22 Mg6 1_555 1_555
C17 O13 1_555 1_555
C18 O10 1_555 1_555
C19 C13 1_555 1_555
C20 C4 1_555 1_555
H3 C20 1_555 1_555
C21 C7 1_555 1_555
C22 O12 1_555 1_555
C23 C21 1_555 1_555
H4 C23 1_555 1_555
C24 O14 1_555 1_555
C25 C19 1_555 1_555
H5 C25 1_555 1_555
C26 C30 1_555 1_555
O23 Mg4 1_555 1_555
O24 Mg3 1_555 1_555
C27 H6 1_555 1_555
C28 C12 1_555 1_555
H7 C28 1_555 1_555
C29 O6 1_555 1_555
C30 C22 1_555 1_555
C31 O17 1_555 1_555
C32 C16 1_555 1_555
H8 C32 1_555 1_555
C33 C28 1_555 1_555
H9 C33 1_555 1_555
H10 C33 1_555 1_555
C34 C24 1_555 1_555
C35 C27 1_555 1_555
C36 C26 1_555 1_555
H11 C36 1_555 1_555
C37 C36 1_555 1_555
C38 C15 1_555 1_555
C39 C27 1_555 1_555
C40 O18 1_555 1_555
O25 Mg2 1_555 1_555
O26 Mg1 1_555 1_555
O27 Mg5 1_555 1_555
O28 Mg4 1_555 1_555
C41 C39 1_555 1_555
H12 C41 1_555 1_555
C42 C20 1_555 1_555
H13 C42 1_555 1_555
H14 C42 1_555 1_555
C43 C35 1_555 1_555
H15 C43 1_555 1_555
C44 C19 1_555 1_555
H16 C44 1_555 1_555
C45 C32 1_555 1_555
H17 C45 1_555 1_555
H18 C45 1_555 1_555
C46 C34 1_555 1_555
H19 C46 1_555 1_555
C47 C26 1_555 1_555
H20 C47 1_555 1_555
C48 C44 1_555 1_555
H21 C48 1_555 1_555
H22 C48 1_555 1_555
C49 C46 1_555 1_555
H23 C49 1_555 1_555
H24 C49 1_555 1_555
C50 C41 1_555 1_555
H25 C50 1_555 1_555
H26 C50 1_555 1_555
O29 Mg5 1_555 1_555
C51 C43 1_555 1_555
H27 C51 1_555 1_555
H28 C51 1_555 1_555
C52 C47 1_555 1_555
H29 C52 1_555 1_555
H30 C52 1_555 1_555
C53 C51 1_555 1_555
H31 C53 1_555 1_555
H32 C53 1_555 1_555
H33 C53 1_555 1_555
C54 C49 1_555 1_555
H34 C54 1_555 1_555
H35 C54 1_555 1_555
H36 C54 1_555 1_555
O30 Mg6 1_555 1_555
C55 C45 1_555 1_555
H37 C55 1_555 1_555
H38 C55 1_555 1_555
H39 C55 1_555 1_555
Mg6 O1 1_555 1_555
C56 C42 1_555 1_555
H40 C56 1_555 1_555
H41 C56 1_555 1_555
H42 C56 1_555 1_555
C57 C33 1_555 1_555
H43 C57 1_555 1_555
H44 C57 1_555 1_555
H45 C57 1_555 1_555
C58 C52 1_555 1_555
H46 C58 1_555 1_555
H47 C58 1_555 1_555
H48 C58 1_555 1_555
C59 C48 1_555 1_555
H49 C59 1_555 1_555
H50 C59 1_555 1_555
H51 C59 1_555 1_555
C60 C50 1_555 1_555
H52 C60 1_555 1_555
H53 C60 1_555 1_555
H54 C60 1_555 1_555
C61 O19 1_555 1_555
N1 C61 1_555 1_555
C62 N1 1_555 1_555
H55 C62 1_555 1_555
H56 C62 1_555 1_555
H57 C62 1_555 1_555
C63 N1 1_555 1_555
H58 C63 1_555 1_555
H59 C63 1_555 1_555
H60 C63 1_555 1_555
N2 C64 1_555 1_555
C64 H61 1_555 1_555
H62 C64 1_555 1_555
H63 C64 1_555 1_555
C65 O20 1_555 1_555
C66 N2 1_555 1_555
H64 C66 1_555 1_555
H65 C66 1_555 1_555
H66 C66 1_555 1_555
O1O C1O 1_555 1_555
O2O C2O 1_555 1_555
O3O C11O 1_555 1_555
O4O C6O 1_555 1_555
O9O C5O 1_555 1_555
O11O C9O 1_555 1_555
C1O C8O 1_555 1_555
C2O C4O 1_555 1_555
C3O H1O 1_555 1_555
C4O C10O 1_555 1_555
C5O C2O 1_555 1_555
C6O C9O 1_555 1_555
C8O C3O 1_555 1_555
C9O C1O 1_555 1_555
C10O H2O 1_555 1_555
C11O C5O 1_555 1_555
C12O C28 1_555 1_555
C16O C32 1_555 1_555
C20O C4O 1_555 1_555
H3O C20O 1_555 1_555
H9O C33 1_555 1_555
H10O C33 1_555 1_555
C42O C20O 1_555 1_555
H13O C42O 1_555 1_555
H14O C42O 1_555 1_555
H17O C45 1_555 1_555
H18O C45 1_555 1_555
C55O C45 1_555 1_555
H37O C55O 1_555 1_555
H38O C55O 1_555 1_555
H39O C55O 1_555 1_555
C56O C42O 1_555 1_555
H40O C56O 1_555 1_555
H41O C56O 1_555 1_555
H42O C56O 1_555 1_555
C57O C33 1_555 1_555
H43O C57O 1_555 1_555
H44O C57O 1_555 1_555
H45O C57O 1_555 1_555
O5G Mg6 1_555 1_555
O7G C13G 1_555 1_555
O13G Mg6 1_555 1_555
O14G C24G 1_555 1_555
O15G C14G 1_555 1_555
O16G C15G 1_555 1_555
C7G O5G 1_555 1_555
C13G C14G 1_555 1_555
C14G C24G 1_555 1_555
C15G C17G 1_555 1_555
C17G O13G 1_555 1_555
C19G C13G 1_555 1_555
C21G C44 1_555 1_555
C23G C21G 1_555 1_555
H4G C23G 1_555 1_555
C24G C34G 1_555 1_555
C25G C19G 1_555 1_555
H5G C25G 1_555 1_555
C34G C25G 1_555 1_555
C38G C15G 1_555 1_555
C44G C21 1_555 1_555
H16G C44G 1_555 1_555
C46G C34G 1_555 1_555
H19G C46G 1_555 1_555
C48G C44G 1_555 1_555
H21G C48G 1_555 1_555
H22G C48G 1_555 1_555
C49G C46G 1_555 1_555
H23G C49G 1_555 1_555
H24G C49G 1_555 1_555
C54G C49G 1_555 1_555
H34G C54G 1_555 1_555
H35G C54G 1_555 1_555
H36G C54G 1_555 1_555
C59G C48G 1_555 1_555
H49G C59G 1_555 1_555
H50G C59G 1_555 1_555
H51G C59G 1_555 1_555
O6O C29O 1_555 1_555
O8O C30O 1_555 1_555
O10O C18O 1_555 1_555
O12O C22O 1_555 1_555
O17O C31O 1_555 1_555
O18O C40O 1_555 1_555
C18O C29O 1_555 1_555
C22O C30O 1_555 1_555
C26O C47 1_555 1_555
C27O H6O 1_555 1_555
C29O C39O 1_555 1_555
C30O C26O 1_555 1_555
C31O C18O 1_555 1_555
C35O C27O 1_555 1_555
C36O C26O 1_555 1_555
H11O C36O 1_555 1_555
C37O C36O 1_555 1_555
C39O C41 1_555 1_555
C40O C22O 1_555 1_555
C43O C35O 1_555 1_555
H15O C43O 1_555 1_555
H25O C50 1_555 1_555
C51O C43O 1_555 1_555
H27O C51O 1_555 1_555
H28O C51O 1_555 1_555
H29O C52 1_555 1_555
C53O C51O 1_555 1_555
H31O C53O 1_555 1_555
H32O C53O 1_555 1_555
H33O C53O 1_555 1_555
C58O C52 1_555 1_555
H46O C58O 1_555 1_555
H47O C58O 1_555 1_555
H48O C58O 1_555 1_555
C60O C50 1_555 1_555
H52O C60O 1_555 1_555
H53O C60O 1_555 1_555
H54O C60O 1_555 1_555
Mg1G O3G 1_555 1_555
Mg2G O13G 1_555 1_555
Mg3G O4 1_555 1_555
Mg4G O14G 1_555 1_555
Mg5G O7G 1_555 1_555
O1G C1G 1_555 1_555
O2G Mg5G 1_555 1_555
O3G C11G 1_555 1_555
O4G Mg3 1_555 1_555
O6G Mg1G 1_555 1_555
O8G Mg3G 1_555 1_555
O9G Mg1G 1_555 1_555
O10G Mg1G 1_555 1_555
O11G Mg3 1_555 1_555
O12G Mg2G 1_555 1_555
O17G Mg4G 1_555 1_555
O18G Mg2G 1_555 1_555
O19G Mg1G 1_555 1_555
O20G Mg2G 1_555 1_555
C1G C8G 1_555 1_555
C2G O2G 1_555 1_555
C3G H1G 1_555 1_555
C4G C2G 1_555 1_555
C5G O9G 1_555 1_555
C6G O4G 1_555 1_555
C8G C3G 1_555 1_555
C9G O11G 1_555 1_555
C10G C4G 1_555 1_555
H2G C10G 1_555 1_555
C11G C5G 1_555 1_555
C12G C10G 1_555 1_555
O21G Mg3G 1_555 1_555
C16G C3G 1_555 1_555
O22G Mg6G 1_555 1_555
C18G O10G 1_555 1_555
C20G C4G 1_555 1_555
H3G C20G 1_555 1_555
C22G O12G 1_555 1_555
C26G C30G 1_555 1_555
O23G Mg4G 1_555 1_555
O24G Mg3G 1_555 1_555
C27G H6G 1_555 1_555
C28G C12G 1_555 1_555
H7G C28G 1_555 1_555
C29G O6G 1_555 1_555
C30G O8G 1_555 1_555
C31G O17G 1_555 1_555
C32G C16G 1_555 1_555
H8G C32G 1_555 1_555
C33G C28G 1_555 1_555
H9G C33G 1_555 1_555
H10G C33G 1_555 1_555
C35G C27G 1_555 1_555
C36G C26G 1_555 1_555
H11G C36G 1_555 1_555
C37G C36G 1_555 1_555
C39G C27G 1_555 1_555
C40G O18G 1_555 1_555
O25G Mg2G 1_555 1_555
O26G Mg1G 1_555 1_555
O27G Mg5G 1_555 1_555
O28G Mg4G 1_555 1_555
C41G C39G 1_555 1_555
H12G C41G 1_555 1_555
C42G C20G 1_555 1_555
H13G C42G 1_555 1_555
H14G C42G 1_555 1_555
C43G C35G 1_555 1_555
H15G C43G 1_555 1_555
C45G C32G 1_555 1_555
H17G C45G 1_555 1_555
H18G C45G 1_555 1_555
C47G C26G 1_555 1_555
H20G C47G 1_555 1_555
C50G C41G 1_555 1_555
H25G C50G 1_555 1_555
H26G C50G 1_555 1_555
O29G Mg5G 1_555 1_555
C51G C43G 1_555 1_555
H27G C51G 1_555 1_555
H28G C51G 1_555 1_555
C52G C47G 1_555 1_555
H29G C52G 1_555 1_555
H30G C52G 1_555 1_555
C53G C51G 1_555 1_555
H31G C53G 1_555 1_555
H32G C53G 1_555 1_555
H33G C53G 1_555 1_555
O30G Mg6G 1_555 1_555
C55G C45G 1_555 1_555
H37G C55G 1_555 1_555
H38G C55G 1_555 1_555
H39G C55G 1_555 1_555
Mg6G O5 1_555 1_555
C56G C42G 1_555 1_555
H40G C56G 1_555 1_555
H41G C56G 1_555 1_555
H42G C56G 1_555 1_555
C57G C33G 1_555 1_555
H43G C57G 1_555 1_555
H44G C57G 1_555 1_555
H45G C57G 1_555 1_555
C58G C52G 1_555 1_555
H46G C58G 1_555 1_555
H47G C58G 1_555 1_555
H48G C58G 1_555 1_555
C60G C50G 1_555 1_555
H52G C60G 1_555 1_555
H53G C60G 1_555 1_555
H54G C60G 1_555 1_555
C61G O19G 1_555 1_555
N1G C61G 1_555 1_555
C62G N1G 1_555 1_555
H55G C62G 1_555 1_555
H56G C62G 1_555 1_555
H57G C62G 1_555 1_555
C63G N1G 1_555 1_555
H58G C63G 1_555 1_555
H59G C63G 1_555 1_555
H60G C63G 1_555 1_555
N2G C64G 1_555 1_555
C64G H61G 1_555 1_555
H62G C64G 1_555 1_555
H63G C64G 1_555 1_555
C65G O20G 1_555 1_555
C66G N2G 1_555 1_555
H64G C66G 1_555 1_555
H65G C66G 1_555 1_555
H66G C66G 1_555 1_555
O1H C1H 1_555 1_555
O2H C2H 1_555 1_555
O3H C11H 1_555 1_555
O4H C6H 1_555 1_555
O9H C5H 1_555 1_555
O11H C9H 1_555 1_555
C1H C8H 1_555 1_555
C2H C4H 1_555 1_555
C3H H1H 1_555 1_555
C4H C10H 1_555 1_555
C5H C2H 1_555 1_555
C6H C9H 1_555 1_555
C8H C3H 1_555 1_555
C9H C1H 1_555 1_555
C10H H2H 1_555 1_555
C11H C5H 1_555 1_555
C12H C28G 1_555 1_555
C16H C32G 1_555 1_555
C20H C4H 1_555 1_555
H3H C20H 1_555 1_555
H9H C33G 1_555 1_555
H10H C33G 1_555 1_555
C42H C20H 1_555 1_555
H13H C42H 1_555 1_555
H14H C42H 1_555 1_555
H17H C45G 1_555 1_555
H18H C45G 1_555 1_555
C55H C45G 1_555 1_555
H37H C55H 1_555 1_555
H38H C55H 1_555 1_555
H39H C55H 1_555 1_555
C56H C42H 1_555 1_555
H40H C56H 1_555 1_555
H41H C56H 1_555 1_555
H42H C56H 1_555 1_555
C57H C33G 1_555 1_555
H43H C57H 1_555 1_555
H44H C57H 1_555 1_555
H45H C57H 1_555 1_555
O6H C29H 1_555 1_555
O8H C30H 1_555 1_555
O10H C18H 1_555 1_555
O12H C22H 1_555 1_555
O17H C31H 1_555 1_555
O18H C40H 1_555 1_555
C18H C29H 1_555 1_555
C22H C30H 1_555 1_555
C26H C47G 1_555 1_555
C27H H6H 1_555 1_555
C29H C39H 1_555 1_555
C30H C26H 1_555 1_555
C31H C18H 1_555 1_555
C35H C27H 1_555 1_555
C36H C26H 1_555 1_555
H11H C36H 1_555 1_555
C37H C36H 1_555 1_555
C39H C41G 1_555 1_555
C40H C22H 1_555 1_555
C43H C35H 1_555 1_555
H15H C43H 1_555 1_555
H25H C50G 1_555 1_555
C51H C43H 1_555 1_555
H27H C51H 1_555 1_555
H28H C51H 1_555 1_555
H29H C52G 1_555 1_555
C53H C51H 1_555 1_555
H31H C53H 1_555 1_555
H32H C53H 1_555 1_555
H33H C53H 1_555 1_555
C58H C52G 1_555 1_555
H46H C58H 1_555 1_555
H47H C58H 1_555 1_555
H48H C58H 1_555 1_555
C60H C50G 1_555 1_555
H52H C60H 1_555 1_555
H53H C60H 1_555 1_555
H54H C60H 1_555 1_555
Mg1H O3H 1_555 1_555
Mg2H O12H 1_555 1_555
Mg3H O4O 1_555 1_555
Mg4H O10H 1_555 1_555
Mg5H O2H 1_555 1_555
O5H C7H 1_555 1_555
O7H Mg5H 1_555 1_555
O13H Mg2H 1_555 1_555
O14H Mg4H 1_555 1_555
O15H Mg4H 1_555 1_555
O16H Mg2H 1_555 1_555
O19H Mg1H 1_555 1_555
O20H Mg2H 1_555 1_555
C7H C17H 1_555 1_555
O21H Mg3H 1_555 1_555
C13H O7H 1_555 1_555
C14H O15H 1_555 1_555
C15H O16H 1_555 1_555
O22H Mg6H 1_555 1_555
C17H O13H 1_555 1_555
C19H C13H 1_555 1_555
C21H C7H 1_555 1_555
C23H C21H 1_555 1_555
H4H C23H 1_555 1_555
C24H O14H 1_555 1_555
C25H C19H 1_555 1_555
H5H C25H 1_555 1_555
O23H Mg4H 1_555 1_555
O24H Mg3H 1_555 1_555
C34H C24H 1_555 1_555
C38H C15H 1_555 1_555
O25H Mg2H 1_555 1_555
O26H Mg1H 1_555 1_555
O27H Mg5H 1_555 1_555
O28H Mg4H 1_555 1_555
C44H C19H 1_555 1_555
H16H C44H 1_555 1_555
C46H C34H 1_555 1_555
H19H C46H 1_555 1_555
C48H C44H 1_555 1_555
H21H C48H 1_555 1_555
H22H C48H 1_555 1_555
C49H C46H 1_555 1_555
H23H C49H 1_555 1_555
H24H C49H 1_555 1_555
O29H Mg5H 1_555 1_555
C54H C49H 1_555 1_555
H34H C54H 1_555 1_555
H35H C54H 1_555 1_555
H36H C54H 1_555 1_555
O30H Mg6H 1_555 1_555
Mg6H O1H 1_555 1_555
C59H C48H 1_555 1_555
H49H C59H 1_555 1_555
H50H C59H 1_555 1_555
H51H C59H 1_555 1_555
C61H O19H 1_555 1_555
N1H C61H 1_555 1_555
C62H N1H 1_555 1_555
H55H C62H 1_555 1_555
H56H C62H 1_555 1_555
H57H C62H 1_555 1_555
C63H N1H 1_555 1_555
H58H C63H 1_555 1_555
H59H C63H 1_555 1_555
H60H C63H 1_555 1_555
N2H C64H 1_555 1_555
C64H H61H 1_555 1_555
H62H C64H 1_555 1_555
H63H C64H 1_555 1_555
C65H O20H 1_555 1_555
C66H N2H 1_555 1_555
H64H C66H 1_555 1_555
H65H C66H 1_555 1_555
H66H C66H 1_555 1_555
O5O Mg6H 1_555 1_555
O7O C13O 1_555 1_555
O13O Mg6H 1_555 1_555
O14O C24O 1_555 1_555
O15O C14O 1_555 1_555
O16O C15O 1_555 1_555
C7O O5O 1_555 1_555
C13O C14O 1_555 1_555
C14O C24O 1_555 1_555
C15O C17O 1_555 1_555
C17O O13O 1_555 1_555
C19O C13O 1_555 1_555
C21O C44H 1_555 1_555
C23O C21O 1_555 1_555
H4O C23O 1_555 1_555
C24O C34O 1_555 1_555
C25O C19O 1_555 1_555
H5O C25O 1_555 1_555
C34O C25O 1_555 1_555
C38O C15O 1_555 1_555
C44O C21H 1_555 1_555
H16O C44O 1_555 1_555
C46O C34O 1_555 1_555
H19O C46O 1_555 1_555
C48O C44O 1_555 1_555
H21O C48O 1_555 1_555
H22O C48O 1_555 1_555
C49O C46O 1_555 1_555
H23O C49O 1_555 1_555
H24O C49O 1_555 1_555
C54O C49O 1_555 1_555
H34O C54O 1_555 1_555
H35O C54O 1_555 1_555
H36O C54O 1_555 1_555
C59O C48O 1_555 1_555
H49O C59O 1_555 1_555
H50O C59O 1_555 1_555
H51O C59O 1_555 1_555
Mg1O O3O 1_555 1_555
Mg2O O12O 1_555 1_555
Mg3O O8O 1_555 1_555
Mg4O O10O 1_555 1_555
Mg5O O2O 1_555 1_555
O19O Mg1O 1_555 1_555
O20O Mg2O 1_555 1_555
O21O Mg3O 1_555 1_555
O22O Mg6O 1_555 1_555
O23O Mg4O 1_555 1_555
O24O Mg3O 1_555 1_555
O25O Mg2O 1_555 1_555
O26O Mg1O 1_555 1_555
O27O Mg5O 1_555 1_555
O28O Mg4O 1_555 1_555
O29O Mg5O 1_555 1_555
O30O Mg6O 1_555 1_555
Mg6O O1O 1_555 1_555
C61O O19O 1_555 1_555
N1O C61O 1_555 1_555
C62O N1O 1_555 1_555
H55O C62O 1_555 1_555
H56O C62O 1_555 1_555
H57O C62O 1_555 1_555
C63O N1O 1_555 1_555
H58O C63O 1_555 1_555
H59O C63O 1_555 1_555
H60O C63O 1_555 1_555
N2O C64O 1_555 1_555
C64O H61O 1_555 1_555
H62O C64O 1_555 1_555
H63O C64O 1_555 1_555
C65O O20O 1_555 1_555
C66O N2O 1_555 1_555
H64O C66O 1_555 1_555
H65O C66O 1_555 1_555
H66O C66O 1_555 1_555
Mg5 O9 1_555 1_555
Mg5 O15 1_555 1_555
O11 Mg6 1_555 1_555
O11 Mg3G 1_555 1_555
O13 Mg6G 1_555 1_555
C2 C5 1_555 1_555
C6 C16 1_555 1_555
C8 C20 1_555 1_555
C11 C12 1_555 1_555
C13 C14 1_555 1_555
C14 C24 1_555 1_555
C15 C17 1_555 1_555
C18 C29 1_555 1_555
C18 C31 1_555 1_555
C22 C40 1_555 1_555
C23 C38 1_555 1_555
C25 C34 1_555 1_555
C29 C39 1_555 1_555
C31 C35 1_555 1_555
H9 C57O 1_555 1_555
C37 C40 1_555 1_555
C37 C43 1_555 1_555
C38 C46 1_555 1_555
H18 C55O 1_555 1_555
H25 C60O 1_555 1_555
H29 C58O 1_555 1_555
C55 H18O 1_555 1_555
C57 H9O 1_555 1_555
C58 H29O 1_555 1_555
C60 H25O 1_555 1_555
N2 C65 1_555 1_555
O9O Mg1O 1_555 1_555
O9O Mg5O 1_555 1_555
O11O Mg3H 1_555 1_555
O11O Mg6O 1_555 1_555
C3O C16O 1_555 1_555
C6O C16O 1_555 1_555
C8O C20O 1_555 1_555
C10O C12O 1_555 1_555
C11O C12O 1_555 1_555
O15G Mg4G 1_555 1_555
O15G Mg5G 1_555 1_555
O16G Mg2G 1_555 1_555
C7G C17G 1_555 1_555
C7G C21G 1_555 1_555
C19G C44G 1_555 1_555
C23G C38G 1_555 1_555
C38G C46G 1_555 1_555
O6O Mg1O 1_555 1_555
O10O Mg1O 1_555 1_555
O12O Mg3O 1_555 1_555
O17O Mg4O 1_555 1_555
O18O Mg2O 1_555 1_555
C27O C39O 1_555 1_555
C31O C35O 1_555 1_555
C37O C40O 1_555 1_555
C37O C43O 1_555 1_555
Mg3G O12G 1_555 1_555
Mg4G O10G 1_555 1_555
Mg5G O9G 1_555 1_555
O1G Mg6G 1_555 1_555
O11G Mg6G 1_555 1_555
C1G C9G 1_555 1_555
C2G C5G 1_555 1_555
C6G C9G 1_555 1_555
C6G C16G 1_555 1_555
C8G C20G 1_555 1_555
C11G C12G 1_555 1_555
C18G C29G 1_555 1_555
C18G C31G 1_555 1_555
C22G C30G 1_555 1_555
C22G C40G 1_555 1_555
C29G C39G 1_555 1_555
C31G C35G 1_555 1_555
H9G C57H 1_555 1_555
C37G C40G 1_555 1_555
C37G C43G 1_555 1_555
H18G C55H 1_555 1_555
H25G C60H 1_555 1_555
H29G C58H 1_555 1_555
C55G H18H 1_555 1_555
C57G H9H 1_555 1_555
C58G H29H 1_555 1_555
C60G H25H 1_555 1_555
N2G C65G 1_555 1_555
O4H Mg3O 1_555 1_555
O9H Mg1H 1_555 1_555
O9H Mg5H 1_555 1_555
O11H Mg6H 1_555 1_555
O11H Mg3O 1_555 1_555
C3H C16H 1_555 1_555
C6H C16H 1_555 1_555
C8H C20H 1_555 1_555
C10H C12H 1_555 1_555
C11H C12H 1_555 1_555
O6H Mg1H 1_555 1_555
O8H Mg3H 1_555 1_555
O10H Mg1H 1_555 1_555
O12H Mg3H 1_555 1_555
O17H Mg4H 1_555 1_555
O18H Mg2H 1_555 1_555
C27H C39H 1_555 1_555
C31H C35H 1_555 1_555
C37H C40H 1_555 1_555
C37H C43H 1_555 1_555
Mg5H O15H 1_555 1_555
O5H Mg6O 1_555 1_555
O13H Mg6O 1_555 1_555
C13H C14H 1_555 1_555
C14H C24H 1_555 1_555
C15H C17H 1_555 1_555
C23H C38H 1_555 1_555
C25H C34H 1_555 1_555
C38H C46H 1_555 1_555
N2H C65H 1_555 1_555
O7O Mg5O 1_555 1_555
O13O Mg2O 1_555 1_555
O14O Mg4O 1_555 1_555
O15O Mg4O 1_555 1_555
O15O Mg5O 1_555 1_555
O16O Mg2O 1_555 1_555
C7O C17O 1_555 1_555
C7O C21O 1_555 1_555
C19O C44O 1_555 1_555
C23O C38O 1_555 1_555
C38O C46O 1_555 1_555
N2O C65O 1_555 1_555

#END
