
#######################################################################
#
#                 Cambridge Crystallographic Data Centre
#                                CCDC 
#
#######################################################################
#
# If this CIF has been generated from an entry in the Cambridge 
# Structural Database, then it will include bibliographic, chemical, 
# crystal, experimental, refinement or atomic coordinate data resulting 
# from the CCDC's data processing and validation procedures.
#
#######################################################################

data_NEDBUW
_chemical_formula_moiety         'C240 H336 Mg24 O120'
_chemical_name_systematic        
'hexakis(\m-C-propylpyrogallol[4]arene)-octatetracontakis(aqua)-tetracosa-magnesium(ii) unknown solvate'
_symmetry_cell_setting           cubic
_symmetry_space_group_name_H-M   'I a -3'
_symmetry_Int_Tables_number      206
_space_group_name_Hall           '-I 2b 2c 3'
loop_
_symmetry_equiv_pos_site_id
_symmetry_equiv_pos_as_xyz
1 x,y,z
2 z,x,y
3 y,z,x
4 -y,1/2-z,x
5 z,-x,1/2-y
6 1/2-y,z,-x
7 -z,1/2-x,y
8 1/2-z,x,-y
9 y,-z,1/2-x
10 -x,1/2-y,z
11 x,-y,1/2-z
12 1/2-x,y,-z
13 1/2+x,1/2+y,1/2+z
14 1/2+z,1/2+x,1/2+y
15 1/2+y,1/2+z,1/2+x
16 1/2-y,-z,1/2+x
17 1/2+z,1/2-x,-y
18 -y,1/2+z,1/2-x
19 1/2-z,-x,1/2+y
20 -z,1/2+x,1/2-y
21 1/2+y,1/2-z,-x
22 1/2-x,-y,1/2+z
23 1/2+x,1/2-y,-z
24 -x,1/2+y,1/2-z
25 -x,-y,-z
26 -z,-x,-y
27 -y,-z,-x
28 y,1/2+z,-x
29 -z,x,1/2+y
30 1/2+y,-z,x
31 z,1/2+x,-y
32 1/2+z,-x,y
33 -y,z,1/2+x
34 x,1/2+y,-z
35 -x,y,1/2+z
36 1/2+x,-y,z
37 1/2-x,1/2-y,1/2-z
38 1/2-z,1/2-x,1/2-y
39 1/2-y,1/2-z,1/2-x
40 1/2+y,z,1/2-x
41 1/2-z,1/2+x,y
42 y,1/2-z,1/2+x
43 1/2+z,x,1/2-y
44 z,1/2-x,1/2+y
45 1/2-y,1/2+z,x
46 1/2+x,y,1/2-z
47 1/2-x,1/2+y,z
48 x,1/2-y,1/2+z
_cell_length_a                   48.4249(12)
_cell_length_b                   48.4249(12)
_cell_length_c                   48.4249(12)
_cell_angle_alpha                90
_cell_angle_beta                 90
_cell_angle_gamma                90
_cell_volume                     113555
_exptl_crystal_colour            black
_exptl_crystal_description       Block
_cell_formula_units_Z            12
loop_
_atom_site_label
_atom_site_type_symbol
_atom_site_fract_x
_atom_site_fract_y
_atom_site_fract_z
Mg1 Mg 0.81948(3) 0.29494(3) 0.61193(3)
Mg2 Mg 0.63971(3) 0.15498(3) 0.68349(3)
Mg3 Mg 0.61505(3) 0.25238(3) 0.66343(3)
Mg4 Mg 0.80215(4) 0.13432(4) 0.65824(4)
O1 O 0.80746(6) 0.26038(6) 0.59000(5)
O2 O 0.62761(6) 0.22316(7) 0.63607(6)
O3 O 0.72153(6) 0.12192(6) 0.64288(6)
O4 O 0.81907(6) 0.21151(7) 0.60141(6)
O5 O 0.63918(6) 0.17374(7) 0.64542(6)
O6 O 0.72530(7) 0.31255(6) 0.59280(6)
O7 O 0.76963(7) 0.13269(6) 0.63106(6)
O8 O 0.67662(7) 0.30157(7) 0.60605(6)
O9 O 0.77877(7) 0.30536(7) 0.60514(7)
O10 O 0.64220(7) 0.27629(7) 0.64131(7)
O11 O 0.67550(7) 0.13967(7) 0.66935(6)
O12 O 0.81183(8) 0.16829(8) 0.63584(8)
O13 O 0.83469(12) 0.31525(10) 0.57903(10)
C1 C 0.79796(9) 0.19342(8) 0.59605(8)
C2 C 0.76904(8) 0.24494(9) 0.56229(6)
C3 C 0.68657(9) 0.16128(9) 0.58780(8)
H1 H 0.6891 0.1662 0.5690
C4 C 0.75548(8) 0.15455(8) 0.58846(7)
C5 C 0.70608(8) 0.14396(8) 0.60031(7)
C6 C 0.70269(8) 0.13761(8) 0.62773(8)
O14 O 0.58161(10) 0.26226(11) 0.64013(10)
C7 C 0.76658(10) 0.28724(10) 0.58933(7)
C8 C 0.66887(9) 0.27559(8) 0.59997(7)
C9 C 0.78071(9) 0.19543(9) 0.57329(6)
C10 C 0.76007(8) 0.17599(8) 0.57006(7)
H2 H 0.7484 0.1774 0.5544
C11 C 0.67693(9) 0.26133(10) 0.57620(7)
O15 O 0.61689(10) 0.12279(11) 0.67041(12)
C12 C 0.65163(8) 0.22024(9) 0.59226(7)
C13 C 0.74161(9) 0.24936(9) 0.55453(6)
H3 H 0.7334 0.2366 0.5421
C14 C 0.66041(8) 0.16448(9) 0.62955(8)
C15 C 0.66385(9) 0.17144(9) 0.60161(8)
C16 C 0.73925(9) 0.29046(9) 0.58190(7)
C17 C 0.77294(9) 0.15222(8) 0.61108(8)
C18 C 0.73174(9) 0.13362(9) 0.58510(9)
H4 H 0.7377 0.1161 0.5943
C19 C 0.72568(9) 0.27132(9) 0.56394(6)
C20 C 0.64328(8) 0.23464(10) 0.61536(8)
O16 O 0.82565(10) 0.10871(13) 0.63372(11)
C21 C 0.66826(9) 0.23421(10) 0.57287(7)
H5 H 0.6738 0.2246 0.5567
C22 C 0.78556(9) 0.21957(10) 0.55281(6)
H6 H 0.8056 0.2245 0.5536
C23 C 0.78112(8) 0.26329(9) 0.58017(7)
C24 C 0.65108(8) 0.26210(10) 0.61964(8)
C25 C 0.79427(10) 0.17123(10) 0.61475(8)
C26 C 0.64294(9) 0.19018(10) 0.58769(8)
H7 H 0.6251 0.1876 0.5978
C27 C 0.67946(9) 0.14732(9) 0.64241(9)
C28 C 0.69596(10) 0.27645(10) 0.55602(7)
H8 H 0.6924 0.2967 0.5580
C29 C 0.77881(12) 0.21123(12) 0.52279(7)
H9 H 0.7810 0.2276 0.5107
H10 H 0.7593 0.2053 0.5218
C30 C 0.63709(11) 0.18336(13) 0.55738(10)
O17 O 0.65197(11) 0.24270(14) 0.69007(13)
C31 C 0.69027(14) 0.26870(15) 0.52581(9)
H11 H 0.6926 0.2485 0.5235
H12 H 0.7039 0.2780 0.5138
O18 O 0.66636(10) 0.19011(14) 0.69864(13)
O19 O 0.77729(19) 0.16249(13) 0.68543(15)
O20 O 0.80124(14) 0.27464(16) 0.64990(11)
C32 C 0.79778(19) 0.18720(19) 0.51181(12)
H13 H 0.7929 0.1701 0.5218
H14 H 0.7935 0.1842 0.4920
C33 C 0.6606(2) 0.2771(2) 0.51673(14)
H15 H 0.6467 0.2678 0.5285
H16 H 0.6581 0.2973 0.5184
C34 C 0.8259(3) 0.1914(3) 0.51444(17)
H17 H 0.8358 0.1754 0.5071
H18 H 0.8312 0.2080 0.5041
H19 H 0.8305 0.1939 0.5340
C35 C 0.6139(2) 0.1995(3) 0.5458(2)
H20 H 0.6193 0.2192 0.5447
H21 H 0.5978 0.1980 0.5583
C36 C 0.6572(3) 0.2680(3) 0.48657(19)
H22 H 0.6387 0.2730 0.4801
H23 H 0.6710 0.2773 0.4751
H24 H 0.6597 0.2480 0.4852
C37 C 0.6057(5) 0.1895(4) 0.5173(3)
H25 H 0.5903 0.2007 0.5103
H26 H 0.6215 0.1912 0.5047
H27 H 0.6000 0.1701 0.5183
H28 H 0.6539 0.1871 0.5464
H29 H 0.6328 0.1634 0.5558
C38 C 0.7059(4) 0.1023(4) 0.5519(4)
H30 H 0.6913 0.1041 0.5661
H31 H 0.7160 0.0850 0.5555
C39 C 0.6914(6) 0.1007(8) 0.5210(5)
H32 H 0.6788 0.0848 0.5203
H33 H 0.6810 0.1177 0.5175
H34 H 0.7058 0.0985 0.5069
C40 C 0.72573(13) 0.12663(14) 0.55434(11)
H35 H 0.7176 0.1430 0.5451
H36 H 0.7433 0.1221 0.5449
Mg1Q Mg 0.70506(3) 0.11193(3) 0.68052(3)
Mg2Q Mg 0.84502(3) 0.18349(3) 0.86029(3)
Mg3Q Mg 0.74762(3) 0.16343(3) 0.88495(3)
Mg4Q Mg 0.86568(4) 0.15824(4) 0.69785(4)
O1Q O 0.73962(6) 0.09000(5) 0.69254(6)
O2Q O 0.77684(7) 0.13607(6) 0.87239(6)
O3Q O 0.87808(6) 0.14288(6) 0.77847(6)
O4Q O 0.78849(7) 0.10141(6) 0.68093(6)
O5Q O 0.82626(7) 0.14542(6) 0.86082(6)
O6Q O 0.68745(6) 0.09280(6) 0.77470(7)
O7Q O 0.86731(6) 0.13106(6) 0.73037(7)
O8Q O 0.69843(7) 0.10605(6) 0.82338(7)
O9Q O 0.69464(7) 0.10514(7) 0.72123(7)
O10Q O 0.72371(7) 0.14131(7) 0.85780(7)
O11Q O 0.86033(7) 0.16935(6) 0.82450(7)
O12Q O 0.83171(8) 0.13584(8) 0.68817(8)
O13Q O 0.68475(10) 0.07903(10) 0.66531(12)
C1Q C 0.80658(8) 0.09605(8) 0.70204(9)
C2Q C 0.75506(9) 0.06229(6) 0.73096(8)
C3Q C 0.83872(9) 0.08780(8) 0.81343(9)
H1Q H 0.8338 0.0690 0.8109
C4Q C 0.84545(8) 0.08846(7) 0.74452(8)
C5Q C 0.85604(8) 0.10031(7) 0.79392(8)
C6Q C 0.86239(8) 0.12773(8) 0.79731(8)
O14Q O 0.73774(11) 0.14013(10) 0.91839(10)
C7Q C 0.71276(10) 0.08933(7) 0.73342(10)
C8Q C 0.72441(8) 0.09997(7) 0.83113(9)
C9Q C 0.80457(9) 0.07329(6) 0.71929(9)
C10Q C 0.82401(8) 0.07006(7) 0.73993(8)
H2Q H 0.8226 0.0544 0.7516
C11Q C 0.73867(10) 0.07620(7) 0.82307(9)
O15Q O 0.87721(11) 0.17041(12) 0.88311(10)
C12Q C 0.77976(9) 0.09226(7) 0.84837(8)
C13Q C 0.75064(9) 0.05453(6) 0.75839(9)
H3Q H 0.7634 0.0421 0.7666
C14Q C 0.83552(9) 0.12955(8) 0.83959(8)
C15Q C 0.82856(9) 0.10161(8) 0.83615(9)
C16Q C 0.70954(9) 0.08190(7) 0.76075(9)
C17Q C 0.84778(8) 0.11108(8) 0.72706(9)
C18Q C 0.86638(9) 0.08510(9) 0.76826(9)
H4Q H 0.8839 0.0943 0.7623
C19Q C 0.72868(9) 0.06394(6) 0.77432(9)
C20Q C 0.76536(10) 0.11536(8) 0.85672(8)
O16Q O 0.89129(13) 0.13372(11) 0.67435(10)
C21Q C 0.76579(10) 0.07287(7) 0.83174(9)
H5Q H 0.7754 0.0567 0.8262
C22Q C 0.78043(10) 0.05281(6) 0.71444(9)
H6Q H 0.7755 0.0536 0.6944
C23Q C 0.73671(9) 0.08017(7) 0.71888(8)
C24Q C 0.73790(10) 0.11964(8) 0.84892(8)
C25Q C 0.82877(10) 0.11475(8) 0.70573(10)
C26Q C 0.80982(10) 0.08769(8) 0.85706(9)
H7Q H 0.8124 0.0978 0.8749
C27Q C 0.85268(9) 0.14241(9) 0.82054(9)
C28Q C 0.72355(10) 0.05602(7) 0.80404(10)
H8Q H 0.7033 0.0580 0.8076
C29Q C 0.78877(12) 0.02279(7) 0.72119(12)
H9Q H 0.7724 0.0107 0.7190
H10Q H 0.7947 0.0218 0.7407
C30Q C 0.81664(13) 0.05738(10) 0.86291(11)
O17Q O 0.75730(14) 0.19007(13) 0.84803(11)
C31Q C 0.73130(15) 0.02581(9) 0.80973(14)
H11Q H 0.7515 0.0235 0.8074
H12Q H 0.7220 0.0138 0.7961
O18Q O 0.80989(14) 0.19864(13) 0.83364(10)
O19Q O 0.83751(13) 0.18543(15) 0.72271(19)
O20Q O 0.72536(16) 0.14990(11) 0.69876(14)
C32Q C 0.81280(19) 0.01181(12) 0.70222(19)
H13Q H 0.8299 0.0218 0.7071
H14Q H 0.8158 -0.0080 0.7065
C33Q C 0.7229(2) 0.01673(14) 0.8394(2)
H15Q H 0.7322 0.0285 0.8533
H16Q H 0.7027 0.0184 0.8419
C34Q C 0.8086(3) 0.01444(17) 0.6741(3)
H17Q H 0.8246 0.0071 0.6642
H18Q H 0.7920 0.0041 0.6688
H19Q H 0.8061 0.0340 0.6695
C35Q C 0.8005(3) 0.0458(2) 0.8861(2)
H20Q H 0.7808 0.0447 0.8807
H21Q H 0.8020 0.0583 0.9022
C36Q C 0.7320(3) -0.01343(19) 0.8428(3)
H22Q H 0.7270 -0.0199 0.8613
H23Q H 0.7227 -0.0249 0.8290
H24Q H 0.7520 -0.0148 0.8403
C37Q C 0.8105(4) 0.0173(3) 0.8943(5)
H25Q H 0.7993 0.0103 0.9097
H26Q H 0.8088 0.0047 0.8785
H27Q H 0.8299 0.0183 0.9000
H28Q H 0.8129 0.0464 0.8461
H29Q H 0.8366 0.0558 0.8672
C38Q C 0.8977(4) 0.0519(4) 0.7941(4)
H30Q H 0.8959 0.0661 0.8087
H31Q H 0.9150 0.0555 0.7840
C39Q C 0.8993(8) 0.0210(5) 0.8086(6)
H32Q H 0.9152 0.0203 0.8212
H33Q H 0.8823 0.0175 0.8190
H34Q H 0.9015 0.0069 0.7942
C40Q C 0.87337(14) 0.05434(11) 0.77427(13)
H35Q H 0.8570 0.0451 0.7824
H36Q H 0.8779 0.0449 0.7567
Mg1R Mg 0.88807(3) 0.18052(3) 0.79494(3)
Mg2R Mg 0.81651(3) 0.36029(3) 0.65498(3)
Mg3R Mg 0.83657(3) 0.38495(3) 0.75238(3)
Mg4R Mg 0.84176(4) 0.19785(4) 0.63432(4)
O1R O 0.91000(5) 0.19254(6) 0.76038(6)
O2R O 0.86393(6) 0.37239(6) 0.72316(7)
O3R O 0.85712(6) 0.27847(6) 0.62192(6)
O4R O 0.89859(6) 0.18093(6) 0.71151(7)
O5R O 0.85458(6) 0.36082(6) 0.67374(7)
O6R O 0.90720(6) 0.27470(7) 0.81255(6)
O7R O 0.86894(6) 0.23037(7) 0.63269(6)
O8R O 0.89395(6) 0.32338(7) 0.80157(7)
O9R O 0.89486(7) 0.22123(7) 0.80536(7)
O10R O 0.85869(7) 0.35780(7) 0.77629(7)
O11R O 0.83065(6) 0.32450(7) 0.63967(7)
O12R O 0.86416(8) 0.18817(8) 0.66829(8)
O13R O 0.92097(10) 0.16531(12) 0.81525(10)
C1R C 0.90395(8) 0.20204(9) 0.69342(8)
C2R C 0.93771(6) 0.23096(8) 0.74494(9)
C3R C 0.91220(8) 0.31343(9) 0.66128(9)
H1R H 0.9310 0.3109 0.6662
C4R C 0.91154(7) 0.24452(8) 0.65455(8)
C5R C 0.89969(7) 0.29392(8) 0.64396(8)
C6R C 0.87227(8) 0.29731(8) 0.63761(8)
O14R O 0.85987(10) 0.41839(10) 0.76226(11)
C7R C 0.91067(7) 0.23342(10) 0.78724(10)
C8R C 0.90003(7) 0.33113(9) 0.77559(8)
C9R C 0.92671(6) 0.21929(9) 0.69543(9)
C10R C 0.92994(7) 0.23993(8) 0.67599(8)
H2R H 0.9456 0.2516 0.6774
C11R C 0.92380(7) 0.32307(9) 0.76133(10)
O15R O 0.82959(12) 0.38311(10) 0.62279(11)
C12R C 0.90774(7) 0.34837(8) 0.72024(9)
C13R C 0.94547(6) 0.25839(9) 0.74936(9)
H3R H 0.9579 0.2666 0.7366
C14R C 0.87045(8) 0.33959(8) 0.66448(9)
C15R C 0.89839(8) 0.33615(9) 0.67144(9)
C16R C 0.91810(7) 0.26075(9) 0.79046(9)
C17R C 0.88892(8) 0.22706(9) 0.65222(8)
C18R C 0.91490(9) 0.26826(9) 0.63362(9)
H4R H 0.9057 0.2623 0.6161
C19R C 0.93606(6) 0.27432(9) 0.77132(9)
C20R C 0.88464(8) 0.35672(8) 0.73464(10)
O16R O 0.86628(11) 0.17435(10) 0.60871(13)
C21R C 0.92713(7) 0.33174(9) 0.73421(10)
H5R H 0.9433 0.3262 0.7246
C22R C 0.94719(6) 0.21444(9) 0.71957(10)
H6R H 0.9464 0.1944 0.7245
C23R C 0.91983(7) 0.21888(8) 0.76329(9)
C24R C 0.88036(8) 0.34892(8) 0.76210(10)
C25R C 0.88525(8) 0.20573(10) 0.67123(10)
C26R C 0.91231(8) 0.35706(9) 0.69018(10)
H7R H 0.9022 0.3749 0.6876
C27R C 0.85759(9) 0.32054(9) 0.64732(9)
C28R C 0.94398(7) 0.30404(10) 0.77645(10)
H8R H 0.9420 0.3076 0.7967
C29R C 0.97721(7) 0.22119(12) 0.71123(12)
H9R H 0.9893 0.2190 0.7276
H10R H 0.9782 0.2407 0.7053
C30R C 0.94262(10) 0.36291(11) 0.68336(13)
O17R O 0.80993(13) 0.34803(11) 0.74270(14)
C31R C 0.97419(9) 0.30973(14) 0.76870(15)
H11R H 0.9765 0.3074 0.7485
H12R H 0.9862 0.2961 0.7780
O18R O 0.80136(13) 0.33364(10) 0.69011(14)
O19R O 0.81457(15) 0.22271(19) 0.66249(13)
O20R O 0.85010(11) 0.19876(14) 0.77464(16)
C32R C 0.98819(12) 0.20222(19) 0.68720(19)
H13R H 0.9782 0.2071 0.6701
H14R H 1.0080 0.2065 0.6842
C33R C 0.98327(14) 0.3394(2) 0.7771(2)
H15R H 0.9715 0.3533 0.7678
H16R H 0.9816 0.3419 0.7973
C34R C 0.98556(17) 0.1741(3) 0.6914(3)
H17R H 0.9929 0.1642 0.6754
H18R H 0.9959 0.1688 0.7080
H19R H 0.9660 0.1695 0.6939
C35R C 0.9542(2) 0.3861(2) 0.6995(3)
H20R H 0.9553 0.3807 0.7192
H21R H 0.9417 0.4022 0.6980
C36R C 1.01343(19) 0.3428(3) 0.7680(3)
H22R H 1.0199 0.3613 0.7730
H23R H 1.0249 0.3290 0.7773
H24R H 1.0148 0.3403 0.7480
C37R C 0.9827(3) 0.3943(5) 0.6895(4)
H25R H 0.9897 0.4097 0.7007
H26R H 0.9953 0.3785 0.6912
H27R H 0.9817 0.4000 0.6701
H28R H 0.9536 0.3461 0.6871
H29R H 0.9442 0.3672 0.6634
C38R C 0.9481(4) 0.2941(4) 0.6023(4)
H30R H 0.9339 0.3087 0.6041
H31R H 0.9445 0.2840 0.5850
C39R C 0.9790(5) 0.3086(6) 0.6007(8)
H32R H 0.9797 0.3212 0.5848
H33R H 0.9825 0.3190 0.6177
H34R H 0.9931 0.2942 0.5985
C40R C 0.94566(11) 0.27427(13) 0.62663(14)
H35R H 0.9549 0.2824 0.6430
H36R H 0.9551 0.2567 0.6221
Mg1CA Mg 0.79494(3) 0.38807(3) 0.81948(3)
Mg2CA Mg 0.65498(3) 0.31651(3) 0.63971(3)
Mg3CA Mg 0.75238(3) 0.33657(3) 0.61505(3)
Mg4CA Mg 0.63432(4) 0.34176(4) 0.80215(4)
O1CA O 0.76038(6) 0.41000(5) 0.80746(6)
O2CA O 0.72316(7) 0.36393(6) 0.62761(6)
O3CA O 0.62192(6) 0.35712(6) 0.72153(6)
O4CA O 0.71151(7) 0.39859(6) 0.81907(6)
O5CA O 0.67374(7) 0.35458(6) 0.63918(6)
O6CA O 0.81255(6) 0.40720(6) 0.72530(7)
O7CA O 0.63269(6) 0.36894(6) 0.76963(7)
O8CA O 0.80157(7) 0.39395(6) 0.67662(7)
O9CA O 0.80536(7) 0.39486(7) 0.77877(7)
O10CA O 0.77629(7) 0.35869(7) 0.64220(7)
O11CA O 0.63967(7) 0.33065(6) 0.67550(7)
O12CA O 0.66829(8) 0.36416(8) 0.81183(8)
O13CA O 0.81525(10) 0.42097(10) 0.83469(12)
C1CA C 0.69342(8) 0.40395(8) 0.79796(9)
C2CA C 0.74494(9) 0.43771(6) 0.76904(8)
C3CA C 0.66128(9) 0.41220(8) 0.68657(9)
H1CA H 0.6662 0.4310 0.6891
C4CA C 0.65455(8) 0.41154(7) 0.75548(8)
C5CA C 0.64396(8) 0.39969(7) 0.70608(8)
C6CA C 0.63761(8) 0.37227(8) 0.70269(8)
O14CA O 0.76226(11) 0.35987(10) 0.58161(10)
C7CA C 0.78724(10) 0.41067(7) 0.76658(10)
C8CA C 0.77559(8) 0.40003(7) 0.66887(9)
C9CA C 0.69543(9) 0.42671(6) 0.78071(9)
C10CA C 0.67599(8) 0.42994(7) 0.76007(8)
H2CA H 0.6774 0.4456 0.7484
C11CA C 0.76133(10) 0.42380(7) 0.67693(9)
O15CA O 0.62279(11) 0.32959(12) 0.61689(10)
C12CA C 0.72024(9) 0.40774(7) 0.65163(8)
C13CA C 0.74936(9) 0.44547(6) 0.74161(9)
H3CA H 0.7366 0.4579 0.7334
C14CA C 0.66448(9) 0.37045(8) 0.66041(8)
C15CA C 0.67144(9) 0.39839(8) 0.66385(9)
C16CA C 0.79046(9) 0.41810(7) 0.73925(9)
C17CA C 0.65222(8) 0.38892(8) 0.77294(9)
C18CA C 0.63362(9) 0.41490(9) 0.73174(9)
H4CA H 0.6161 0.4057 0.7377
C19CA C 0.77132(9) 0.43606(6) 0.72568(9)
C20CA C 0.73464(10) 0.38464(8) 0.64328(8)
O16CA O 0.60871(13) 0.36628(11) 0.82565(10)
C21CA C 0.73421(10) 0.42713(7) 0.66826(9)
H5CA H 0.7246 0.4433 0.6738
C22CA C 0.71957(10) 0.44719(6) 0.78556(9)
H6CA H 0.7245 0.4464 0.8056
C23CA C 0.76329(9) 0.41983(7) 0.78112(8)
C24CA C 0.76210(10) 0.38036(8) 0.65108(8)
C25CA C 0.67123(10) 0.38525(8) 0.79427(10)
C26CA C 0.69018(10) 0.41231(8) 0.64294(9)
H7CA H 0.6876 0.4022 0.6251
C27CA C 0.64732(9) 0.35759(9) 0.67946(9)
C28CA C 0.77645(10) 0.44398(7) 0.69596(10)
H8CA H 0.7967 0.4420 0.6924
C29CA C 0.71123(12) 0.47721(7) 0.77881(12)
H9CA H 0.7276 0.4893 0.7810
H10CA H 0.7053 0.4782 0.7593
C30CA C 0.68336(13) 0.44262(10) 0.63709(11)
O17CA O 0.74270(14) 0.30993(13) 0.65197(11)
C31CA C 0.76870(15) 0.47419(9) 0.69027(14)
H11CA H 0.7485 0.4765 0.6926
H12CA H 0.7780 0.4862 0.7039
O18CA O 0.69011(14) 0.30136(13) 0.66636(10)
O19CA O 0.66249(13) 0.31457(15) 0.77729(19)
O20CA O 0.77464(16) 0.35010(11) 0.80124(14)
C32CA C 0.68720(19) 0.48819(12) 0.79778(19)
H13CA H 0.6701 0.4782 0.7929
H14CA H 0.6842 0.5080 0.7935
C33CA C 0.7771(2) 0.48327(14) 0.6606(2)
H15CA H 0.7678 0.4715 0.6467
H16CA H 0.7973 0.4816 0.6581
C34CA C 0.6914(3) 0.48556(17) 0.8259(3)
H17CA H 0.6754 0.4929 0.8358
H18CA H 0.7080 0.4959 0.8312
H19CA H 0.6939 0.4660 0.8305
C35CA C 0.6995(3) 0.4542(2) 0.6139(2)
H20CA H 0.7192 0.4553 0.6193
H21CA H 0.6980 0.4417 0.5978
C36CA C 0.7680(3) 0.51343(19) 0.6572(3)
H22CA H 0.7730 0.5199 0.6387
H23CA H 0.7773 0.5249 0.6710
H24CA H 0.7480 0.5148 0.6597
C37CA C 0.6895(4) 0.4827(3) 0.6057(5)
H25CA H 0.7007 0.4897 0.5903
H26CA H 0.6912 0.4953 0.6215
H27CA H 0.6701 0.4817 0.6000
H28CA H 0.6871 0.4536 0.6539
H29CA H 0.6634 0.4442 0.6328
C38CA C 0.6023(4) 0.4481(4) 0.7059(4)
H30CA H 0.6041 0.4339 0.6913
H31CA H 0.5850 0.4445 0.7160
C39CA C 0.6007(8) 0.4790(5) 0.6914(6)
H32CA H 0.5848 0.4797 0.6788
H33CA H 0.6177 0.4825 0.6810
H34CA H 0.5985 0.4931 0.7058
C40CA C 0.62663(14) 0.44566(11) 0.72573(13)
H35CA H 0.6430 0.4549 0.7176
H36CA H 0.6221 0.4551 0.7433
Mg1DA Mg 0.61193(3) 0.31948(3) 0.70506(3)
Mg2DA Mg 0.68349(3) 0.13971(3) 0.84502(3)
Mg3DA Mg 0.66343(3) 0.11505(3) 0.74762(3)
Mg4DA Mg 0.65824(4) 0.30215(4) 0.86568(4)
O1DA O 0.59000(5) 0.30746(6) 0.73962(6)
O2DA O 0.63607(6) 0.12761(6) 0.77684(7)
O3DA O 0.64288(6) 0.22153(6) 0.87808(6)
O4DA O 0.60141(6) 0.31907(6) 0.78849(7)
O5DA O 0.64542(6) 0.13918(6) 0.82626(7)
O6DA O 0.59280(6) 0.22530(7) 0.68745(6)
O7DA O 0.63106(6) 0.26963(7) 0.86731(6)
O8DA O 0.60605(6) 0.17662(7) 0.69843(7)
O9DA O 0.60514(7) 0.27877(7) 0.69464(7)
O10DA O 0.64131(7) 0.14220(7) 0.72371(7)
O11DA O 0.66935(6) 0.17550(7) 0.86033(7)
O12DA O 0.63584(8) 0.31183(8) 0.83171(8)
O13DA O 0.57903(10) 0.33469(12) 0.68475(10)
C1DA C 0.59605(8) 0.29796(9) 0.80658(8)
C2DA C 0.56229(6) 0.26904(8) 0.75506(9)
C3DA C 0.58780(8) 0.18657(9) 0.83872(9)
H1DA H 0.5690 0.1891 0.8338
C4DA C 0.58846(7) 0.25548(8) 0.84545(8)
C5DA C 0.60031(7) 0.20608(8) 0.85604(8)
C6DA C 0.62773(8) 0.20269(8) 0.86239(8)
O14DA O 0.64013(10) 0.08161(10) 0.73774(11)
C7DA C 0.58933(7) 0.26658(10) 0.71276(10)
C8DA C 0.59997(7) 0.16887(9) 0.72441(8)
C9DA C 0.57329(6) 0.28071(9) 0.80457(9)
C10DA C 0.57006(7) 0.26007(8) 0.82401(8)
H2DA H 0.5544 0.2484 0.8226
C11DA C 0.57620(7) 0.17693(9) 0.73867(10)
O15DA O 0.67041(12) 0.11689(10) 0.87721(11)
C12DA C 0.59226(7) 0.15163(8) 0.77976(9)
C13DA C 0.55453(6) 0.24161(9) 0.75064(9)
H3DA H 0.5421 0.2334 0.7634
C14DA C 0.62955(8) 0.16041(8) 0.83552(9)
C15DA C 0.60161(8) 0.16385(9) 0.82856(9)
C16DA C 0.58190(7) 0.23925(9) 0.70954(9)
C17DA C 0.61108(8) 0.27294(9) 0.84778(8)
C18DA C 0.58510(9) 0.23174(9) 0.86638(9)
H4DA H 0.5943 0.2377 0.8839
C19DA C 0.56394(6) 0.22568(9) 0.72868(9)
C20DA C 0.61536(8) 0.14328(8) 0.76536(10)
O16DA O 0.63372(11) 0.32565(10) 0.89129(13)
C21DA C 0.57287(7) 0.16826(9) 0.76579(10)
H5DA H 0.5567 0.1738 0.7754
C22DA C 0.55281(6) 0.28556(9) 0.78043(10)
H6DA H 0.5536 0.3056 0.7755
C23DA C 0.58017(7) 0.28112(8) 0.73671(9)
C24DA C 0.61964(8) 0.15108(8) 0.73790(10)
C25DA C 0.61475(8) 0.29427(10) 0.82877(10)
C26DA C 0.58769(8) 0.14294(9) 0.80982(10)
H7DA H 0.5978 0.1251 0.8124
C27DA C 0.64241(9) 0.17946(9) 0.85268(9)
C28DA C 0.55602(7) 0.19596(10) 0.72355(10)
H8DA H 0.5580 0.1924 0.7033
C29DA C 0.52279(7) 0.27881(12) 0.78877(12)
H9DA H 0.5107 0.2810 0.7724
H10DA H 0.5218 0.2593 0.7947
C30DA C 0.55738(10) 0.13709(11) 0.81664(13)
O17DA O 0.69007(13) 0.15197(11) 0.75730(14)
C31DA C 0.52581(9) 0.19027(14) 0.73130(15)
H11DA H 0.5235 0.1926 0.7515
H12DA H 0.5138 0.2039 0.7220
O18DA O 0.69864(13) 0.16636(10) 0.80989(14)
O19DA O 0.68543(15) 0.27729(19) 0.83751(13)
O20DA O 0.64990(11) 0.30124(14) 0.72536(16)
C32DA C 0.51181(12) 0.29778(19) 0.81280(19)
H13DA H 0.5218 0.2929 0.8299
H14DA H 0.4920 0.2935 0.8158
C33DA C 0.51673(14) 0.1606(2) 0.7229(2)
H15DA H 0.5285 0.1467 0.7322
H16DA H 0.5184 0.1581 0.7027
C34DA C 0.51444(17) 0.3259(3) 0.8086(3)
H17DA H 0.5071 0.3358 0.8246
H18DA H 0.5041 0.3312 0.7920
H19DA H 0.5340 0.3305 0.8061
C35DA C 0.5458(2) 0.1139(2) 0.8005(3)
H20DA H 0.5447 0.1193 0.7808
H21DA H 0.5583 0.0978 0.8020
C36DA C 0.48657(19) 0.1572(3) 0.7320(3)
H22DA H 0.4801 0.1387 0.7270
H23DA H 0.4751 0.1710 0.7227
H24DA H 0.4852 0.1597 0.7520
C37DA C 0.5173(3) 0.1057(5) 0.8105(4)
H25DA H 0.5103 0.0903 0.7993
H26DA H 0.5047 0.1215 0.8088
H27DA H 0.5183 0.1000 0.8299
H28DA H 0.5464 0.1539 0.8129
H29DA H 0.5558 0.1328 0.8366
C38DA C 0.5519(4) 0.2059(4) 0.8977(4)
H30DA H 0.5661 0.1913 0.8959
H31DA H 0.5555 0.2160 0.9150
C39DA C 0.5210(5) 0.1914(6) 0.8993(8)
H32DA H 0.5203 0.1788 0.9152
H33DA H 0.5175 0.1810 0.8823
H34DA H 0.5069 0.2058 0.9015
C40DA C 0.55434(11) 0.22573(13) 0.87337(14)
H35DA H 0.5451 0.2176 0.8570
H36DA H 0.5449 0.2433 0.8779
Mg1JA Mg 0.68052(3) 0.20506(3) 0.88807(3)
Mg2JA Mg 0.86029(3) 0.34502(3) 0.81651(3)
Mg3JA Mg 0.88495(3) 0.24762(3) 0.83657(3)
Mg4JA Mg 0.69785(4) 0.36568(4) 0.84176(4)
O1JA O 0.69254(6) 0.23962(6) 0.91000(5)
O2JA O 0.87239(6) 0.27684(7) 0.86393(6)
O3JA O 0.77847(6) 0.37808(6) 0.85712(6)
O4JA O 0.68093(6) 0.28849(7) 0.89859(6)
O5JA O 0.86082(6) 0.32626(7) 0.85458(6)
O6JA O 0.77470(7) 0.18745(6) 0.90720(6)
O7JA O 0.73037(7) 0.36731(6) 0.86894(6)
O8JA O 0.82338(7) 0.19843(7) 0.89395(6)
O9JA O 0.72123(7) 0.19464(7) 0.89486(7)
O10JA O 0.85780(7) 0.22371(7) 0.85869(7)
O11JA O 0.82450(7) 0.36033(7) 0.83065(6)
O12JA O 0.68817(8) 0.33171(8) 0.86416(8)
O13JA O 0.66531(12) 0.18475(10) 0.92097(10)
C1JA C 0.70204(9) 0.30658(8) 0.90395(8)
C2JA C 0.73096(8) 0.25506(9) 0.93771(6)
C3JA C 0.81343(9) 0.33872(9) 0.91220(8)
H1JA H 0.8109 0.3338 0.9310
C4JA C 0.74452(8) 0.34545(8) 0.91154(7)
C5JA C 0.79392(8) 0.35604(8) 0.89969(7)
C6JA C 0.79731(8) 0.36239(8) 0.87227(8)
O14JA O 0.91839(10) 0.23774(11) 0.85987(10)
C7JA C 0.73342(10) 0.21276(10) 0.91067(7)
C8JA C 0.83113(9) 0.22441(8) 0.90003(7)
C9JA C 0.71929(9) 0.30457(9) 0.92671(6)
C10JA C 0.73993(8) 0.32401(8) 0.92994(7)
H2JA H 0.7516 0.3226 0.9456
C11JA C 0.82307(9) 0.23867(10) 0.92380(7)
O15JA O 0.88311(10) 0.37721(11) 0.82959(12)
C12JA C 0.84837(8) 0.27976(9) 0.90774(7)
C13JA C 0.75839(9) 0.25064(9) 0.94547(6)
H3JA H 0.7666 0.2634 0.9579
C14JA C 0.83959(8) 0.33552(9) 0.87045(8)
C15JA C 0.83615(9) 0.32856(9) 0.89839(8)
C16JA C 0.76075(9) 0.20954(9) 0.91810(7)
C17JA C 0.72706(9) 0.34778(8) 0.88892(8)
C18JA C 0.76826(9) 0.36638(9) 0.91490(9)
H4JA H 0.7623 0.3839 0.9057
C19JA C 0.77432(9) 0.22868(9) 0.93606(6)
C20JA C 0.85672(8) 0.26536(10) 0.88464(8)
O16JA O 0.67435(10) 0.39129(13) 0.86628(11)
C21JA C 0.83174(9) 0.26579(10) 0.92713(7)
H5JA H 0.8262 0.2754 0.9433
C22JA C 0.71444(9) 0.28043(10) 0.94719(6)
H6JA H 0.6944 0.2755 0.9464
C23JA C 0.71888(8) 0.23671(9) 0.91983(7)
C24JA C 0.84892(8) 0.23790(10) 0.88036(8)
C25JA C 0.70573(10) 0.32877(10) 0.88525(8)
C26JA C 0.85706(9) 0.30982(10) 0.91231(8)
H7JA H 0.8749 0.3124 0.9022
C27JA C 0.82054(9) 0.35268(9) 0.85759(9)
C28JA C 0.80404(10) 0.22355(10) 0.94398(7)
H8JA H 0.8076 0.2033 0.9420
C29JA C 0.72119(12) 0.28877(12) 0.97721(7)
H9JA H 0.7190 0.2724 0.9893
H10JA H 0.7407 0.2947 0.9782
C30JA C 0.86291(11) 0.31664(13) 0.94262(10)
O17JA O 0.84803(11) 0.25730(14) 0.80993(13)
C31JA C 0.80973(14) 0.23130(15) 0.97419(9)
H11JA H 0.8074 0.2515 0.9765
H12JA H 0.7961 0.2220 0.9862
O18JA O 0.83364(10) 0.30989(14) 0.80136(13)
O19JA O 0.72271(19) 0.33751(13) 0.81457(15)
O20JA O 0.69876(14) 0.22536(16) 0.85010(11)
C32JA C 0.70222(19) 0.31280(19) 0.98819(12)
H13JA H 0.7071 0.3299 0.9782
H14JA H 0.7065 0.3158 1.0080
C33JA C 0.8394(2) 0.2229(2) 0.98327(14)
H15JA H 0.8533 0.2322 0.9715
H16JA H 0.8419 0.2027 0.9816
C34JA C 0.6741(3) 0.3086(3) 0.98556(17)
H17JA H 0.6642 0.3246 0.9929
H18JA H 0.6688 0.2920 0.9959
H19JA H 0.6695 0.3061 0.9660
C35JA C 0.8861(2) 0.3005(3) 0.9542(2)
H20JA H 0.8807 0.2808 0.9553
H21JA H 0.9022 0.3020 0.9417
C36JA C 0.8428(3) 0.2320(3) 1.01343(19)
H22JA H 0.8613 0.2270 1.0199
H23JA H 0.8290 0.2227 1.0249
H24JA H 0.8403 0.2520 1.0148
C37JA C 0.8943(5) 0.3105(4) 0.9827(3)
H25JA H 0.9097 0.2993 0.9897
H26JA H 0.8785 0.3088 0.9953
H27JA H 0.9000 0.3299 0.9817
H28JA H 0.8461 0.3129 0.9536
H29JA H 0.8672 0.3366 0.9442
C38JA C 0.7941(4) 0.3977(4) 0.9481(4)
H30JA H 0.8087 0.3959 0.9339
H31JA H 0.7840 0.4150 0.9445
C39JA C 0.8086(6) 0.3993(8) 0.9790(5)
H32JA H 0.8212 0.4152 0.9797
H33JA H 0.8190 0.3823 0.9825
H34JA H 0.7942 0.4015 0.9931
C40JA C 0.77427(13) 0.37337(14) 0.94566(11)
H35JA H 0.7824 0.3570 0.9549
H36JA H 0.7567 0.3779 0.9551
H37? H 0.6259 0.1984 0.5492
H38? H 0.6548 0.1825 0.5472
C41? C 0.6218(4) 0.1562(3) 0.5535(4)
H39? H 0.6159 0.1553 0.5340
H40? H 0.6355 0.1412 0.5562
C42? C 0.5982(6) 0.1497(8) 0.5702(7)
H41? H 0.5910 0.1315 0.5649
H42? H 0.6036 0.1494 0.5897
H43? H 0.5839 0.1637 0.5673
C43? C 0.7507(3) 0.1132(3) 0.5410(2)
H44? H 0.7658 0.1269 0.5403
H45? H 0.7570 0.0979 0.5531
C44? C 0.7464(7) 0.1019(4) 0.5126(3)
H46? H 0.7636 0.0937 0.5059
H47? H 0.7319 0.0878 0.5131
H48? H 0.7408 0.1169 0.5002
H49? H 0.7097 0.1140 0.5532
H50? H 0.7210 0.1438 0.5442
loop_
_geom_bond_atom_site_label_1
_geom_bond_atom_site_label_2
_geom_bond_site_symmetry_1
_geom_bond_site_symmetry_2
Mg1 O1 1_555 1_555
Mg2 O5 1_555 1_555
Mg3 O2 1_555 1_555
Mg4 O7 1_555 1_555
O1 C23 1_555 1_555
O2 C20 1_555 1_555
O3 C6 1_555 1_555
O4 C1 1_555 1_555
O5 C14 1_555 1_555
O6 C16 1_555 1_555
O7 C17 1_555 1_555
O8 C8 1_555 1_555
O9 Mg1 1_555 1_555
O10 Mg3 1_555 1_555
O11 Mg2 1_555 1_555
O12 Mg4 1_555 1_555
O13 Mg1 1_555 1_555
C1 C9 1_555 1_555
C2 C13 1_555 1_555
C3 H1 1_555 1_555
C4 C10 1_555 1_555
C5 C3 1_555 1_555
C6 C5 1_555 1_555
O14 Mg3 1_555 1_555
C7 O9 1_555 1_555
C8 C11 1_555 1_555
C9 C10 1_555 1_555
C10 H2 1_555 1_555
C11 C21 1_555 1_555
O15 Mg2 1_555 1_555
C12 C20 1_555 1_555
C13 H3 1_555 1_555
C14 C15 1_555 1_555
C15 C3 1_555 1_555
C16 C7 1_555 1_555
C17 C4 1_555 1_555
C18 C4 1_555 1_555
H4 C18 1_555 1_555
C19 C13 1_555 1_555
C20 C24 1_555 1_555
O16 Mg4 1_555 1_555
C21 C12 1_555 1_555
H5 C21 1_555 1_555
C22 C2 1_555 1_555
H6 C22 1_555 1_555
C23 C2 1_555 1_555
C24 O10 1_555 1_555
C25 O12 1_555 1_555
C26 C12 1_555 1_555
H7 C26 1_555 1_555
C27 O11 1_555 1_555
C28 C11 1_555 1_555
H8 C28 1_555 1_555
C29 C22 1_555 1_555
H9 C29 1_555 1_555
H10 C29 1_555 1_555
C30 C26 1_555 1_555
O17 Mg3 1_555 1_555
C31 C28 1_555 1_555
H11 C31 1_555 1_555
H12 C31 1_555 1_555
O18 Mg2 1_555 1_555
O19 Mg4 1_555 1_555
O20 Mg1 1_555 1_555
C32 C29 1_555 1_555
H13 C32 1_555 1_555
H14 C32 1_555 1_555
C33 C31 1_555 1_555
H15 C33 1_555 1_555
H16 C33 1_555 1_555
C34 C32 1_555 1_555
H17 C34 1_555 1_555
H18 C34 1_555 1_555
H19 C34 1_555 1_555
C35 C30 1_555 1_555
H20 C35 1_555 1_555
H21 C35 1_555 1_555
C36 C33 1_555 1_555
H22 C36 1_555 1_555
H23 C36 1_555 1_555
H24 C36 1_555 1_555
C37 C35 1_555 1_555
H25 C37 1_555 1_555
H26 C37 1_555 1_555
H27 C37 1_555 1_555
H28 C30 1_555 1_555
H29 C30 1_555 1_555
C38 H30 1_555 1_555
H31 C38 1_555 1_555
C39 C38 1_555 1_555
H32 C39 1_555 1_555
H33 C39 1_555 1_555
H34 C39 1_555 1_555
C40 C18 1_555 1_555
H35 C40 1_555 1_555
H36 C40 1_555 1_555
Mg1Q O3 1_555 1_555
Mg2Q O5Q 1_555 1_555
Mg3Q O2Q 1_555 1_555
Mg4Q O7Q 1_555 1_555
O1Q Mg1Q 1_555 1_555
O2Q C20Q 1_555 1_555
O3Q C6Q 1_555 1_555
O4Q Mg4 1_555 1_555
O5Q C14Q 1_555 1_555
O6Q C16Q 1_555 1_555
O7Q C17Q 1_555 1_555
O8Q C8Q 1_555 1_555
O9Q Mg1Q 1_555 1_555
O10Q Mg3Q 1_555 1_555
O11Q Mg2Q 1_555 1_555
O12Q Mg4 1_555 1_555
O13Q Mg1Q 1_555 1_555
C1Q O4Q 1_555 1_555
C2Q C13Q 1_555 1_555
C3Q H1Q 1_555 1_555
C4Q C10Q 1_555 1_555
C5Q C3Q 1_555 1_555
C6Q C5Q 1_555 1_555
O14Q Mg3Q 1_555 1_555
C7Q O9Q 1_555 1_555
C8Q C11Q 1_555 1_555
C9Q C1Q 1_555 1_555
C10Q C9Q 1_555 1_555
H2Q C10Q 1_555 1_555
C11Q C21Q 1_555 1_555
O15Q Mg2Q 1_555 1_555
C12Q C20Q 1_555 1_555
C13Q H3Q 1_555 1_555
C14Q C15Q 1_555 1_555
C15Q C3Q 1_555 1_555
C16Q C7Q 1_555 1_555
C17Q C4Q 1_555 1_555
C18Q C4Q 1_555 1_555
H4Q C18Q 1_555 1_555
C19Q C13Q 1_555 1_555
C20Q C24Q 1_555 1_555
O16Q Mg4Q 1_555 1_555
C21Q C12Q 1_555 1_555
H5Q C21Q 1_555 1_555
C22Q C2Q 1_555 1_555
H6Q C22Q 1_555 1_555
C23Q O1Q 1_555 1_555
C24Q O10Q 1_555 1_555
C25Q O12Q 1_555 1_555
C26Q C12Q 1_555 1_555
H7Q C26Q 1_555 1_555
C27Q O11Q 1_555 1_555
C28Q C11Q 1_555 1_555
H8Q C28Q 1_555 1_555
C29Q C22Q 1_555 1_555
H9Q C29Q 1_555 1_555
H10Q C29Q 1_555 1_555
C30Q C26Q 1_555 1_555
O17Q Mg3Q 1_555 1_555
C31Q C28Q 1_555 1_555
H11Q C31Q 1_555 1_555
H12Q C31Q 1_555 1_555
O18Q Mg2Q 1_555 1_555
O19Q Mg4Q 1_555 1_555
O20Q Mg1Q 1_555 1_555
C32Q C29Q 1_555 1_555
H13Q C32Q 1_555 1_555
H14Q C32Q 1_555 1_555
C33Q C31Q 1_555 1_555
H15Q C33Q 1_555 1_555
H16Q C33Q 1_555 1_555
C34Q C32Q 1_555 1_555
H17Q C34Q 1_555 1_555
H18Q C34Q 1_555 1_555
H19Q C34Q 1_555 1_555
C35Q C30Q 1_555 1_555
H20Q C35Q 1_555 1_555
H21Q C35Q 1_555 1_555
C36Q C33Q 1_555 1_555
H22Q C36Q 1_555 1_555
H23Q C36Q 1_555 1_555
H24Q C36Q 1_555 1_555
C37Q C35Q 1_555 1_555
H25Q C37Q 1_555 1_555
H26Q C37Q 1_555 1_555
H27Q C37Q 1_555 1_555
H28Q C30Q 1_555 1_555
H29Q C30Q 1_555 1_555
C38Q H30Q 1_555 1_555
H31Q C38Q 1_555 1_555
C39Q C38Q 1_555 1_555
H32Q C39Q 1_555 1_555
H33Q C39Q 1_555 1_555
H34Q C39Q 1_555 1_555
C40Q C18Q 1_555 1_555
H35Q C40Q 1_555 1_555
H36Q C40Q 1_555 1_555
Mg1R O3Q 1_555 1_555
Mg2R O5R 1_555 1_555
Mg3R O2R 1_555 1_555
Mg4R O4 1_555 1_555
O1R Mg1R 1_555 1_555
O2R C20R 1_555 1_555
O3R Mg1 1_555 1_555
O4R Mg4Q 1_555 1_555
O5R C14R 1_555 1_555
O6R C16R 1_555 1_555
O7R Mg4R 1_555 1_555
O8R C8R 1_555 1_555
O9R Mg1R 1_555 1_555
O10R Mg3R 1_555 1_555
O11R Mg1 1_555 1_555
O12R Mg4Q 1_555 1_555
O13R Mg1R 1_555 1_555
C1R O4R 1_555 1_555
C2R C13R 1_555 1_555
C3R H1R 1_555 1_555
C4R C10R 1_555 1_555
C5R C3R 1_555 1_555
C6R O3R 1_555 1_555
O14R Mg3R 1_555 1_555
C7R O9R 1_555 1_555
C8R C11R 1_555 1_555
C9R C1R 1_555 1_555
C10R C9R 1_555 1_555
H2R C10R 1_555 1_555
C11R C21R 1_555 1_555
O15R Mg2R 1_555 1_555
C12R C20R 1_555 1_555
C13R H3R 1_555 1_555
C14R C15R 1_555 1_555
C15R C3R 1_555 1_555
C16R C7R 1_555 1_555
C17R O7R 1_555 1_555
C18R C4R 1_555 1_555
H4R C18R 1_555 1_555
C19R C13R 1_555 1_555
C20R C24R 1_555 1_555
O16R Mg4R 1_555 1_555
C21R C12R 1_555 1_555
H5R C21R 1_555 1_555
C22R C2R 1_555 1_555
H6R C22R 1_555 1_555
C23R O1R 1_555 1_555
C24R O10R 1_555 1_555
C25R O12R 1_555 1_555
C26R C12R 1_555 1_555
H7R C26R 1_555 1_555
C27R O11R 1_555 1_555
C28R C11R 1_555 1_555
H8R C28R 1_555 1_555
C29R C22R 1_555 1_555
H9R C29R 1_555 1_555
H10R C29R 1_555 1_555
C30R C26R 1_555 1_555
O17R Mg3R 1_555 1_555
C31R C28R 1_555 1_555
H11R C31R 1_555 1_555
H12R C31R 1_555 1_555
O18R Mg2R 1_555 1_555
O19R Mg4R 1_555 1_555
O20R Mg1R 1_555 1_555
C32R C29R 1_555 1_555
H13R C32R 1_555 1_555
H14R C32R 1_555 1_555
C33R C31R 1_555 1_555
H15R C33R 1_555 1_555
H16R C33R 1_555 1_555
C34R C32R 1_555 1_555
H17R C34R 1_555 1_555
H18R C34R 1_555 1_555
H19R C34R 1_555 1_555
C35R C30R 1_555 1_555
H20R C35R 1_555 1_555
H21R C35R 1_555 1_555
C36R C33R 1_555 1_555
H22R C36R 1_555 1_555
H23R C36R 1_555 1_555
H24R C36R 1_555 1_555
C37R C35R 1_555 1_555
H25R C37R 1_555 1_555
H26R C37R 1_555 1_555
H27R C37R 1_555 1_555
H28R C30R 1_555 1_555
H29R C30R 1_555 1_555
C38R H30R 1_555 1_555
H31R C38R 1_555 1_555
C39R C38R 1_555 1_555
H32R C39R 1_555 1_555
H33R C39R 1_555 1_555
H34R C39R 1_555 1_555
C40R C18R 1_555 1_555
H35R C40R 1_555 1_555
H36R C40R 1_555 1_555
Mg1CA O1CA 1_555 1_555
Mg2CA O8 1_555 1_555
Mg3CA O6 1_555 1_555
Mg4CA O7CA 1_555 1_555
O1CA C23CA 1_555 1_555
O2CA Mg3CA 1_555 1_555
O3CA C6CA 1_555 1_555
O4CA C1CA 1_555 1_555
O5CA Mg2CA 1_555 1_555
O6CA Mg3R 1_555 1_555
O7CA C17CA 1_555 1_555
O8CA Mg2R 1_555 1_555
O9CA Mg3R 1_555 1_555
O10CA Mg2R 1_555 1_555
O11CA Mg2CA 1_555 1_555
O12CA Mg4CA 1_555 1_555
O13CA Mg1CA 1_555 1_555
C1CA C9CA 1_555 1_555
C2CA C13CA 1_555 1_555
C3CA H1CA 1_555 1_555
C4CA C10CA 1_555 1_555
C5CA C3CA 1_555 1_555
C6CA C5CA 1_555 1_555
O14CA Mg3CA 1_555 1_555
C7CA O9CA 1_555 1_555
C8CA O8CA 1_555 1_555
C9CA C10CA 1_555 1_555
C10CA H2CA 1_555 1_555
C11CA C8CA 1_555 1_555
O15CA Mg2CA 1_555 1_555
C12CA C20CA 1_555 1_555
C13CA H3CA 1_555 1_555
C14CA O5CA 1_555 1_555
C15CA C3CA 1_555 1_555
C16CA O6CA 1_555 1_555
C17CA C4CA 1_555 1_555
C18CA C4CA 1_555 1_555
H4CA C18CA 1_555 1_555
C19CA C13CA 1_555 1_555
C20CA O2CA 1_555 1_555
O16CA Mg4CA 1_555 1_555
C21CA C11CA 1_555 1_555
H5CA C21CA 1_555 1_555
C22CA C2CA 1_555 1_555
H6CA C22CA 1_555 1_555
C23CA C2CA 1_555 1_555
C24CA O10CA 1_555 1_555
C25CA O12CA 1_555 1_555
C26CA C12CA 1_555 1_555
H7CA C26CA 1_555 1_555
C27CA O11CA 1_555 1_555
C28CA C11CA 1_555 1_555
H8CA C28CA 1_555 1_555
C29CA C22CA 1_555 1_555
H9CA C29CA 1_555 1_555
H10CA C29CA 1_555 1_555
C30CA C26CA 1_555 1_555
O17CA Mg3CA 1_555 1_555
C31CA C28CA 1_555 1_555
H11CA C31CA 1_555 1_555
H12CA C31CA 1_555 1_555
O18CA Mg2CA 1_555 1_555
O19CA Mg4CA 1_555 1_555
O20CA Mg1CA 1_555 1_555
C32CA C29CA 1_555 1_555
H13CA C32CA 1_555 1_555
H14CA C32CA 1_555 1_555
C33CA C31CA 1_555 1_555
H15CA C33CA 1_555 1_555
H16CA C33CA 1_555 1_555
C34CA C32CA 1_555 1_555
H17CA C34CA 1_555 1_555
H18CA C34CA 1_555 1_555
H19CA C34CA 1_555 1_555
C35CA C30CA 1_555 1_555
H20CA C35CA 1_555 1_555
H21CA C35CA 1_555 1_555
C36CA C33CA 1_555 1_555
H22CA C36CA 1_555 1_555
H23CA C36CA 1_555 1_555
H24CA C36CA 1_555 1_555
C37CA C35CA 1_555 1_555
H25CA C37CA 1_555 1_555
H26CA C37CA 1_555 1_555
H27CA C37CA 1_555 1_555
H28CA C30CA 1_555 1_555
H29CA C30CA 1_555 1_555
C38CA H30CA 1_555 1_555
H31CA C38CA 1_555 1_555
C39CA C38CA 1_555 1_555
H32CA C39CA 1_555 1_555
H33CA C39CA 1_555 1_555
H34CA C39CA 1_555 1_555
C40CA C18CA 1_555 1_555
H35CA C40CA 1_555 1_555
H36CA C40CA 1_555 1_555
Mg1DA O3CA 1_555 1_555
Mg2DA O8Q 1_555 1_555
Mg3DA O6Q 1_555 1_555
Mg4DA O7DA 1_555 1_555
O1DA Mg1DA 1_555 1_555
O2DA Mg3DA 1_555 1_555
O3DA C6DA 1_555 1_555
O4DA Mg4CA 1_555 1_555
O5DA Mg2DA 1_555 1_555
O6DA Mg3 1_555 1_555
O7DA C17DA 1_555 1_555
O8DA Mg2 1_555 1_555
O9DA Mg3 1_555 1_555
O10DA Mg2 1_555 1_555
O11DA Mg2DA 1_555 1_555
O12DA Mg4CA 1_555 1_555
O13DA Mg1DA 1_555 1_555
C1DA O4DA 1_555 1_555
C2DA C13DA 1_555 1_555
C3DA H1DA 1_555 1_555
C4DA C10DA 1_555 1_555
C5DA C3DA 1_555 1_555
C6DA C5DA 1_555 1_555
O14DA Mg3DA 1_555 1_555
C7DA O9DA 1_555 1_555
C8DA O8DA 1_555 1_555
C9DA C1DA 1_555 1_555
C10DA C9DA 1_555 1_555
H2DA C10DA 1_555 1_555
C11DA C8DA 1_555 1_555
O15DA Mg2DA 1_555 1_555
C12DA C20DA 1_555 1_555
C13DA H3DA 1_555 1_555
C14DA O5DA 1_555 1_555
C15DA C3DA 1_555 1_555
C16DA O6DA 1_555 1_555
C17DA C4DA 1_555 1_555
C18DA C4DA 1_555 1_555
H4DA C18DA 1_555 1_555
C19DA C13DA 1_555 1_555
C20DA O2DA 1_555 1_555
O16DA Mg4DA 1_555 1_555
C21DA C11DA 1_555 1_555
H5DA C21DA 1_555 1_555
C22DA C2DA 1_555 1_555
H6DA C22DA 1_555 1_555
C23DA O1DA 1_555 1_555
C24DA O10DA 1_555 1_555
C25DA O12DA 1_555 1_555
C26DA C12DA 1_555 1_555
H7DA C26DA 1_555 1_555
C27DA O11DA 1_555 1_555
C28DA C11DA 1_555 1_555
H8DA C28DA 1_555 1_555
C29DA C22DA 1_555 1_555
H9DA C29DA 1_555 1_555
H10DA C29DA 1_555 1_555
C30DA C26DA 1_555 1_555
O17DA Mg3DA 1_555 1_555
C31DA C28DA 1_555 1_555
H11DA C31DA 1_555 1_555
H12DA C31DA 1_555 1_555
O18DA Mg2DA 1_555 1_555
O19DA Mg4DA 1_555 1_555
O20DA Mg1DA 1_555 1_555
C32DA C29DA 1_555 1_555
H13DA C32DA 1_555 1_555
H14DA C32DA 1_555 1_555
C33DA C31DA 1_555 1_555
H15DA C33DA 1_555 1_555
H16DA C33DA 1_555 1_555
C34DA C32DA 1_555 1_555
H17DA C34DA 1_555 1_555
H18DA C34DA 1_555 1_555
H19DA C34DA 1_555 1_555
C35DA C30DA 1_555 1_555
H20DA C35DA 1_555 1_555
H21DA C35DA 1_555 1_555
C36DA C33DA 1_555 1_555
H22DA C36DA 1_555 1_555
H23DA C36DA 1_555 1_555
H24DA C36DA 1_555 1_555
C37DA C35DA 1_555 1_555
H25DA C37DA 1_555 1_555
H26DA C37DA 1_555 1_555
H27DA C37DA 1_555 1_555
H28DA C30DA 1_555 1_555
H29DA C30DA 1_555 1_555
C38DA H30DA 1_555 1_555
H31DA C38DA 1_555 1_555
C39DA C38DA 1_555 1_555
H32DA C39DA 1_555 1_555
H33DA C39DA 1_555 1_555
H34DA C39DA 1_555 1_555
C40DA C18DA 1_555 1_555
H35DA C40DA 1_555 1_555
H36DA C40DA 1_555 1_555
Mg1JA O3DA 1_555 1_555
Mg2JA O8R 1_555 1_555
Mg3JA O6R 1_555 1_555
Mg4JA O4CA 1_555 1_555
O1JA Mg1JA 1_555 1_555
O2JA Mg3JA 1_555 1_555
O3JA Mg1CA 1_555 1_555
O4JA Mg4DA 1_555 1_555
O5JA Mg2JA 1_555 1_555
O6JA Mg3Q 1_555 1_555
O7JA Mg4JA 1_555 1_555
O8JA Mg2Q 1_555 1_555
O9JA Mg3Q 1_555 1_555
O10JA Mg2Q 1_555 1_555
O11JA Mg1CA 1_555 1_555
O12JA Mg4DA 1_555 1_555
O13JA Mg1JA 1_555 1_555
C1JA O4JA 1_555 1_555
C2JA C13JA 1_555 1_555
C3JA H1JA 1_555 1_555
C4JA C10JA 1_555 1_555
C5JA C3JA 1_555 1_555
C6JA O3JA 1_555 1_555
O14JA Mg3JA 1_555 1_555
C7JA O9JA 1_555 1_555
C8JA O8JA 1_555 1_555
C9JA C1JA 1_555 1_555
C10JA C9JA 1_555 1_555
H2JA C10JA 1_555 1_555
C11JA C8JA 1_555 1_555
O15JA Mg2JA 1_555 1_555
C12JA C20JA 1_555 1_555
C13JA H3JA 1_555 1_555
C14JA O5JA 1_555 1_555
C15JA C3JA 1_555 1_555
C16JA O6JA 1_555 1_555
C17JA O7JA 1_555 1_555
C18JA C4JA 1_555 1_555
H4JA C18JA 1_555 1_555
C19JA C13JA 1_555 1_555
C20JA O2JA 1_555 1_555
O16JA Mg4JA 1_555 1_555
C21JA C11JA 1_555 1_555
H5JA C21JA 1_555 1_555
C22JA C2JA 1_555 1_555
H6JA C22JA 1_555 1_555
C23JA O1JA 1_555 1_555
C24JA O10JA 1_555 1_555
C25JA O12JA 1_555 1_555
C26JA C12JA 1_555 1_555
H7JA C26JA 1_555 1_555
C27JA O11JA 1_555 1_555
C28JA C11JA 1_555 1_555
H8JA C28JA 1_555 1_555
C29JA C22JA 1_555 1_555
H9JA C29JA 1_555 1_555
H10JA C29JA 1_555 1_555
C30JA C26JA 1_555 1_555
O17JA Mg3JA 1_555 1_555
C31JA C28JA 1_555 1_555
H11JA C31JA 1_555 1_555
H12JA C31JA 1_555 1_555
O18JA Mg2JA 1_555 1_555
O19JA Mg4JA 1_555 1_555
O20JA Mg1JA 1_555 1_555
C32JA C29JA 1_555 1_555
H13JA C32JA 1_555 1_555
H14JA C32JA 1_555 1_555
C33JA C31JA 1_555 1_555
H15JA C33JA 1_555 1_555
H16JA C33JA 1_555 1_555
C34JA C32JA 1_555 1_555
H17JA C34JA 1_555 1_555
H18JA C34JA 1_555 1_555
H19JA C34JA 1_555 1_555
C35JA C30JA 1_555 1_555
H20JA C35JA 1_555 1_555
H21JA C35JA 1_555 1_555
C36JA C33JA 1_555 1_555
H22JA C36JA 1_555 1_555
H23JA C36JA 1_555 1_555
H24JA C36JA 1_555 1_555
C37JA C35JA 1_555 1_555
H25JA C37JA 1_555 1_555
H26JA C37JA 1_555 1_555
H27JA C37JA 1_555 1_555
H28JA C30JA 1_555 1_555
H29JA C30JA 1_555 1_555
C38JA H30JA 1_555 1_555
H31JA C38JA 1_555 1_555
C39JA C38JA 1_555 1_555
H32JA C39JA 1_555 1_555
H33JA C39JA 1_555 1_555
H34JA C39JA 1_555 1_555
C40JA C18JA 1_555 1_555
H35JA C40JA 1_555 1_555
H36JA C40JA 1_555 1_555
O9 Mg3CA 1_555 1_555
O10 Mg2CA 1_555 1_555
O11 Mg1Q 1_555 1_555
O12 Mg4R 1_555 1_555
C1 C25 1_555 1_555
C5 C18 1_555 1_555
C6 C27 1_555 1_555
C7 C23 1_555 1_555
C8 C24 1_555 1_555
C9 C22 1_555 1_555
C14 C27 1_555 1_555
C15 C26 1_555 1_555
C16 C19 1_555 1_555
C17 C25 1_555 1_555
C19 C28 1_555 1_555
C38 C40 1_555 1_555
Mg4Q O12Q 1_555 1_555
O9Q Mg3DA 1_555 1_555
O10Q Mg2DA 1_555 1_555
O11Q Mg1R 1_555 1_555
C1Q C25Q 1_555 1_555
C2Q C23Q 1_555 1_555
C5Q C18Q 1_555 1_555
C6Q C27Q 1_555 1_555
C7Q C23Q 1_555 1_555
C8Q C24Q 1_555 1_555
C9Q C22Q 1_555 1_555
C14Q C27Q 1_555 1_555
C15Q C26Q 1_555 1_555
C16Q C19Q 1_555 1_555
C17Q C25Q 1_555 1_555
C19Q C28Q 1_555 1_555
C38Q C40Q 1_555 1_555
Mg2R O11R 1_555 1_555
Mg4R O12R 1_555 1_555
O9R Mg3JA 1_555 1_555
O10R Mg2JA 1_555 1_555
C1R C25R 1_555 1_555
C2R C23R 1_555 1_555
C4R C17R 1_555 1_555
C5R C6R 1_555 1_555
C5R C18R 1_555 1_555
C6R C27R 1_555 1_555
C7R C23R 1_555 1_555
C8R C24R 1_555 1_555
C9R C22R 1_555 1_555
C14R C27R 1_555 1_555
C15R C26R 1_555 1_555
C16R C19R 1_555 1_555
C17R C25R 1_555 1_555
C19R C28R 1_555 1_555
C38R C40R 1_555 1_555
Mg1CA O9CA 1_555 1_555
Mg3CA O10CA 1_555 1_555
O11CA Mg1DA 1_555 1_555
O12CA Mg4JA 1_555 1_555
C1CA C25CA 1_555 1_555
C5CA C18CA 1_555 1_555
C6CA C27CA 1_555 1_555
C7CA C16CA 1_555 1_555
C7CA C23CA 1_555 1_555
C8CA C24CA 1_555 1_555
C9CA C22CA 1_555 1_555
C12CA C21CA 1_555 1_555
C14CA C15CA 1_555 1_555
C14CA C27CA 1_555 1_555
C15CA C26CA 1_555 1_555
C16CA C19CA 1_555 1_555
C17CA C25CA 1_555 1_555
C19CA C28CA 1_555 1_555
C20CA C24CA 1_555 1_555
C38CA C40CA 1_555 1_555
Mg1DA O9DA 1_555 1_555
Mg3DA O10DA 1_555 1_555
Mg4DA O12DA 1_555 1_555
O11DA Mg1JA 1_555 1_555
C1DA C25DA 1_555 1_555
C2DA C23DA 1_555 1_555
C5DA C18DA 1_555 1_555
C6DA C27DA 1_555 1_555
C7DA C16DA 1_555 1_555
C7DA C23DA 1_555 1_555
C8DA C24DA 1_555 1_555
C9DA C22DA 1_555 1_555
C12DA C21DA 1_555 1_555
C14DA C15DA 1_555 1_555
C14DA C27DA 1_555 1_555
C15DA C26DA 1_555 1_555
C16DA C19DA 1_555 1_555
C17DA C25DA 1_555 1_555
C19DA C28DA 1_555 1_555
C20DA C24DA 1_555 1_555
C38DA C40DA 1_555 1_555
Mg1JA O9JA 1_555 1_555
Mg2JA O11JA 1_555 1_555
Mg3JA O10JA 1_555 1_555
Mg4JA O12JA 1_555 1_555
C1JA C25JA 1_555 1_555
C2JA C23JA 1_555 1_555
C4JA C17JA 1_555 1_555
C5JA C6JA 1_555 1_555
C5JA C18JA 1_555 1_555
C6JA C27JA 1_555 1_555
C7JA C16JA 1_555 1_555
C7JA C23JA 1_555 1_555
C8JA C24JA 1_555 1_555
C9JA C22JA 1_555 1_555
C12JA C21JA 1_555 1_555
C14JA C15JA 1_555 1_555
C14JA C27JA 1_555 1_555
C15JA C26JA 1_555 1_555
C16JA C19JA 1_555 1_555
C17JA C25JA 1_555 1_555
C19JA C28JA 1_555 1_555
C20JA C24JA 1_555 1_555
C38JA C40JA 1_555 1_555

#END
