
#######################################################################
#
#                 Cambridge Crystallographic Data Centre
#                                CCDC 
#
#######################################################################
#
# If this CIF has been generated from an entry in the Cambridge 
# Structural Database, then it will include bibliographic, chemical, 
# crystal, experimental, refinement or atomic coordinate data resulting 
# from the CCDC's data processing and validation procedures.
#
#######################################################################

data_NEDGUA
_chemical_formula_moiety         'C7 H10 N4 2+,2(C7 H3 N2 O7 1-)'
_chemical_name_systematic        
"1,1'-Methylenebis-1H-imidazol-3-ium bis(2-carboxy-4,6-dinitrophenolate)"
_symmetry_cell_setting           triclinic
_symmetry_space_group_name_H-M   'P -1'
_symmetry_Int_Tables_number      2
_space_group_name_Hall           '-P 1'
loop_
_symmetry_equiv_pos_site_id
_symmetry_equiv_pos_as_xyz
1 x,y,z
2 -x,-y,-z
_cell_length_a                   9.554(3)
_cell_length_b                   11.113(3)
_cell_length_c                   12.707(4)
_cell_angle_alpha                81.436(4)
_cell_angle_beta                 74.756(4)
_cell_angle_gamma                67.871(4)
_cell_volume                     1203.92
_exptl_crystal_colour            colorless
_exptl_crystal_description       block
_cell_formula_units_Z            2
loop_
_atom_site_label
_atom_site_type_symbol
_atom_site_fract_x
_atom_site_fract_y
_atom_site_fract_z
N1 N 0.4095(2) 0.42001(17) 0.27570(15)
N2 N 0.1933(2) 0.55868(19) 0.24695(18)
H1 H 0.1260 0.6168 0.2152
N3 N 0.6679(2) 0.42025(16) 0.22727(15)
N4 N 0.7684(2) 0.55884(19) 0.23949(18)
H2 H 0.7848 0.6198 0.2631
C1 C 0.3408(3) 0.5035(2) 0.2026(2)
H5 H 0.3896 0.5202 0.1313
C2 C 0.1643(3) 0.5092(3) 0.3508(2)
H6 H 0.0685 0.5315 0.4001
C3 C 0.2989(3) 0.4218(3) 0.3702(2)
H7 H 0.3139 0.3723 0.4348
C4 C 0.6601(3) 0.5112(2) 0.2876(2)
H8 H 0.5893 0.5368 0.3534
C5 C 0.8512(3) 0.4965(3) 0.1459(2)
H9 H 0.9352 0.5115 0.0970
C6 C 0.7888(3) 0.4092(2) 0.1374(2)
H10 H 0.8211 0.3525 0.0817
C7 C 0.5740(2) 0.3385(2) 0.2570(2)
H11 H 0.5955 0.2853 0.3227
H12 H 0.5997 0.2811 0.1988
N5 N 0.6863(2) 0.8148(2) 0.83210(17)
N6 N 0.5806(2) 1.23882(19) 0.95532(17)
O1 O 1.00435(19) 0.71471(16) 1.11621(15)
O2 O 0.97111(19) 0.90508(17) 1.17082(14)
H3 H 0.9224 0.9821 1.1584
O3 O 0.7969(2) 1.10782(16) 1.09685(14)
O4 O 0.6098(3) 1.31154(17) 1.00234(17)
O5 O 0.4809(3) 1.2807(2) 0.9027(2)
O6 O 0.5846(2) 0.8650(2) 0.78130(18)
O7 O 0.7691(3) 0.6996(2) 0.8273(2)
C8 C 0.9448(3) 0.8347(2) 1.11154(19)
C9 C 0.8384(2) 0.9035(2) 1.03698(17)
C10 C 0.7669(2) 1.0434(2) 1.03561(18)
C11 C 0.6639(2) 1.0995(2) 0.96267(18)
C12 C 0.6375(2) 1.0264(2) 0.89695(18)
H13 H 0.5698 1.0662 0.8508
C13 C 0.7126(3) 0.8931(2) 0.90030(18)
C14 C 0.8121(2) 0.8319(2) 0.97012(18)
H14 H 0.8611 0.7420 0.9715
N7 N 0.6482(2) 1.22485(19) 0.57940(18)
N8 N 1.0348(2) 0.8077(2) 0.64800(17)
O8 O 0.8056(2) 0.71562(16) 0.36738(15)
O9 O 0.6344(2) 0.90364(17) 0.32527(14)
H4 H 0.6001 0.9791 0.3432
O10 O 0.58037(19) 1.09966(15) 0.42190(14)
O11 O 0.5627(2) 1.30030(17) 0.52305(16)
O12 O 0.6720(3) 1.2615(2) 0.6565(2)
O13 O 1.0627(3) 0.8567(2) 0.71574(18)
O14 O 1.1071(2) 0.69468(19) 0.62265(19)
C15 C 0.7373(3) 0.8330(2) 0.38019(19)
C16 C 0.7701(2) 0.8989(2) 0.45941(18)
C17 C 0.6842(2) 1.0353(2) 0.47527(17)
C18 C 0.7243(2) 1.0883(2) 0.55506(18)
C19 C 0.8363(2) 1.0148(2) 0.61192(18)
H15 H 0.8587 1.0521 0.6633
C20 C 0.9142(2) 0.8854(2) 0.59117(18)
C21 C 0.8811(2) 0.8280(2) 0.51590(18)
H16 H 0.9349 0.7403 0.5037
loop_
_geom_bond_atom_site_label_1
_geom_bond_atom_site_label_2
_geom_bond_site_symmetry_1
_geom_bond_site_symmetry_2
N1 C1 1_555 1_555
N2 H1 1_555 1_555
N3 C4 1_555 1_555
N4 H2 1_555 1_555
N5 O6 1_555 1_555
N6 O4 1_555 1_555
N7 O11 1_555 1_555
N8 O13 1_555 1_555
O1 C8 1_555 1_555
O2 H3 1_555 1_555
O3 C10 1_555 1_555
O5 N6 1_555 1_555
O7 N5 1_555 1_555
O8 C15 1_555 1_555
O9 H4 1_555 1_555
O10 C17 1_555 1_555
O12 N7 1_555 1_555
O14 N8 1_555 1_555
C1 N2 1_555 1_555
H5 C1 1_555 1_555
C2 N2 1_555 1_555
H6 C2 1_555 1_555
C3 N1 1_555 1_555
H7 C3 1_555 1_555
C4 N4 1_555 1_555
H8 C4 1_555 1_555
C5 N4 1_555 1_555
H9 C5 1_555 1_555
C6 N3 1_555 1_555
H10 C6 1_555 1_555
C7 N1 1_555 1_555
H11 C7 1_555 1_555
H12 C7 1_555 1_555
C8 O2 1_555 1_555
C9 C8 1_555 1_555
C10 C9 1_555 1_555
C11 N6 1_555 1_555
C12 C11 1_555 1_555
H13 C12 1_555 1_555
C13 N5 1_555 1_555
C14 C9 1_555 1_555
H14 C14 1_555 1_555
C15 O9 1_555 1_555
C16 C15 1_555 1_555
C17 C16 1_555 1_555
C18 N7 1_555 1_555
C19 C18 1_555 1_555
H15 C19 1_555 1_555
C20 N8 1_555 1_555
C21 C16 1_555 1_555
H16 C21 1_555 1_555
N3 C7 1_555 1_555
C2 C3 1_555 1_555
C5 C6 1_555 1_555
C10 C11 1_555 1_555
C12 C13 1_555 1_555
C13 C14 1_555 1_555
C17 C18 1_555 1_555
C19 C20 1_555 1_555
C20 C21 1_555 1_555

#END
