
#######################################################################
#
#                 Cambridge Crystallographic Data Centre
#                                CCDC 
#
#######################################################################
#
# If this CIF has been generated from an entry in the Cambridge 
# Structural Database, then it will include bibliographic, chemical, 
# crystal, experimental, refinement or atomic coordinate data resulting 
# from the CCDC's data processing and validation procedures.
#
#######################################################################

data_NEDHEL
_chemical_formula_moiety         'C7 H10 N4 2+,2(C7 H4 N1 O5 1-)'
_chemical_name_systematic        
"1,1'-Methylenebis-1H-imidazol-3-ium bis(2-hydroxy-5-nitrobenzoate)"
_symmetry_cell_setting           monoclinic
_symmetry_space_group_name_H-M   'P 2/c'
_symmetry_Int_Tables_number      13
_space_group_name_Hall           '-P 2yc'
loop_
_symmetry_equiv_pos_site_id
_symmetry_equiv_pos_as_xyz
1 x,y,z
2 -x,y,1/2-z
3 -x,-y,-z
4 x,-y,1/2+z
_cell_length_a                   8.6670(8)
_cell_length_b                   11.0959(12)
_cell_length_c                   23.328(2)
_cell_angle_alpha                90
_cell_angle_beta                 98.4150(10)
_cell_angle_gamma                90
_cell_volume                     2219.26
_exptl_crystal_colour            colorless
_exptl_crystal_description       block
_cell_formula_units_Z            4
loop_
_atom_site_label
_atom_site_type_symbol
_atom_site_fract_x
_atom_site_fract_y
_atom_site_fract_z
N1 N 0.3859(7) 0.8356(6) 0.2133(3)
N2 N 0.1770(7) 0.9328(5) 0.1827(3)
H1 H 0.0904 0.9710 0.1820
C1 C 0.2570(9) 0.8859(7) 0.2288(4)
H2 H 0.2300 0.8869 0.2659
C2 C 0.3811(9) 0.8533(8) 0.1551(4)
H3 H 0.4560 0.8284 0.1329
C3 C 0.2501(10) 0.9125(7) 0.1359(4)
H4 H 0.2154 0.9354 0.0979
C4 C 0.5000 0.7625(9) 0.2500
H5 H 0.4462 0.7110 0.2743
N1A N 0.6141(7) 0.8356(6) 0.2867(3)
N2A N 0.8230(7) 0.9328(5) 0.3173(3)
H1A H 0.9096 0.9710 0.3180
C1A C 0.7430(9) 0.8859(7) 0.2712(4)
H2A H 0.7700 0.8869 0.2341
C2A C 0.6189(9) 0.8533(8) 0.3449(4)
H3A H 0.5440 0.8284 0.3671
C3A C 0.7499(10) 0.9125(7) 0.3641(4)
H4A H 0.7846 0.9354 0.4021
H5A H 0.5538 0.7110 0.2257
N3 N 0.1138(7) 0.3350(6) 0.2869(3)
N4 N 0.3238(7) 0.4322(5) 0.3178(3)
H6 H 0.4114 0.4690 0.3188
C5 C 0.2418(8) 0.3854(7) 0.2718(4)
H7 H 0.2682 0.3869 0.2346
C6 C 0.2483(9) 0.4133(7) 0.3635(4)
H8 H 0.2817 0.4382 0.4013
C7 C 0.1172(8) 0.3525(8) 0.3452(4)
H9 H 0.0429 0.3271 0.3676
C8 C 0.0000 0.2626(10) 0.2500
H10 H -0.0541 0.2111 0.2742
N3A N -0.1138(7) 0.3350(6) 0.2131(3)
N4A N -0.3238(7) 0.4322(5) 0.1822(3)
H6A H -0.4114 0.4690 0.1812
C5A C -0.2418(8) 0.3854(7) 0.2282(4)
H7A H -0.2682 0.3869 0.2654
C6A C -0.2483(9) 0.4133(7) 0.1365(4)
H8A H -0.2817 0.4382 0.0987
C7A C -0.1172(8) 0.3525(8) 0.1548(4)
H9A H -0.0429 0.3271 0.1324
H10A H 0.0541 0.2111 0.2258
N5 N -0.1586(9) 0.7057(8) 0.1509(4)
O1 O 0.3902(5) 0.5291(5) 0.1728(2)
O2 O 0.4430(6) 0.5241(6) 0.0825(3)
O3 O 0.2789(17) 0.6236(13) 0.0026(7)
H11 H 0.3511 0.5820 0.0184
O4 O -0.2796(7) 0.7569(6) 0.1306(4)
O5 O -0.1298(8) 0.6783(7) 0.2017(3)
C9 C 0.3546(10) 0.5452(7) 0.1190(4)
C10 C 0.1977(9) 0.5942(7) 0.0972(4)
C11 C 0.173(10) 0.640(6) 0.039(3)
C12 C 0.038(2) 0.708(2) 0.0197(7)
H12 H 0.0217 0.7378 -0.0179
C13 C -0.067(2) 0.730(2) 0.0562(9)
H13 H -0.1561 0.7739 0.0431
C14 C -0.04(2) 0.686(12) 0.113(10)
C15 C 0.0913(8) 0.6241(7) 0.1337(4)
H14 H 0.1109 0.6019 0.1725
N6 N 0.3406(9) 0.2054(8) 0.1511(4)
O6 O 0.8902(5) 0.0291(5) 0.1726(3)
O7 O 0.9413(6) 0.0259(6) 0.0824(3)
O8 O 0.7290(15) 0.0480(10) 0.0003(5)
H15 H 0.8163 0.0349 0.0180
O9 O 0.2193(7) 0.2566(6) 0.1307(4)
O10 O 0.3707(8) 0.1785(7) 0.2019(3)
C16 C 0.8525(9) 0.0455(7) 0.1193(4)
C17 C 0.6983(9) 0.0959(7) 0.0972(4)
C18 C 0.6339(19) 0.0868(17) 0.0380(8)
C19 C 0.481(2) 0.115(2) 0.0164(8)
H16 H 0.4426 0.1066 -0.0228
C20 C 0.388(2) 0.156(2) 0.0553(10)
H17 H 0.2858 0.1792 0.0417
C21 C 0.44(3) 0.16(3) 0.115(16)
C22 C 0.5922(8) 0.1259(6) 0.1333(4)
H18 H 0.6240 0.1197 0.1730
C23? C 0.139(12) 0.586(8) 0.037(4)
C24? C -0.015(3) 0.615(2) 0.0157(10)
C25? C -0.115(3) 0.652(2) 0.0517(10)
C26? C -0.06(3) 0.659(16) 0.110(13)
C27? C 0.679(2) 0.1455(17) 0.0398(8)
C28? C 0.546(2) 0.215(2) 0.0205(9)
C29? C 0.433(2) 0.2360(17) 0.0543(9)
C30? C 0.46(3) 0.19(3) 0.109(16)
H19? H -0.0492 0.6084 -0.0238
H20? H -0.2178 0.6727 0.0376
H21? H 0.5347 0.2470 -0.0167
H22? H 0.3436 0.2807 0.0411
H23? H 0.3141 0.5320 0.0150
H24? H 0.8530 0.0910 0.0183
O11? O 0.2260(17) 0.5471(10) -0.0014(6)
O12? O 0.7794(17) 0.1322(10) 0.0034(6)
loop_
_geom_bond_atom_site_label_1
_geom_bond_atom_site_label_2
_geom_bond_site_symmetry_1
_geom_bond_site_symmetry_2
N1 C1 1_555 1_555
N2 H1 1_555 1_555
C1 N2 1_555 1_555
H2 C1 1_555 1_555
C2 N1 1_555 1_555
H3 C2 1_555 1_555
C3 N2 1_555 1_555
H4 C3 1_555 1_555
C4 N1 1_555 1_555
H5 C4 1_555 1_555
N3 C5 1_555 1_555
N4 H6 1_555 1_555
C5 N4 1_555 1_555
H7 C5 1_555 1_555
C6 N4 1_555 1_555
H8 C6 1_555 1_555
C7 N3 1_555 1_555
H9 C7 1_555 1_555
C8 N3 1_555 1_555
H10 C8 1_555 1_555
N5 O4 1_555 1_555
O1 C9 1_555 1_555
O2 C9 1_555 1_555
O3 H11 1_555 1_555
O5 N5 1_555 1_555
C9 C10 1_555 1_555
C10 C11 1_555 1_555
C11 O3 1_555 1_555
C12 C11 1_555 1_555
H12 C12 1_555 1_555
C13 C12 1_555 1_555
H13 C13 1_555 1_555
C14 N5 1_555 1_555
C15 C10 1_555 1_555
H14 C15 1_555 1_555
N6 O9 1_555 1_555
O6 C16 1_555 1_555
O7 C16 1_555 1_555
O8 H15 1_555 1_555
O10 N6 1_555 1_555
C16 C17 1_555 1_555
C17 C18 1_555 1_555
C18 O8 1_555 1_555
C19 C18 1_555 1_555
H16 C19 1_555 1_555
C20 C19 1_555 1_555
H17 C20 1_555 1_555
C21 N6 1_555 1_555
C22 C17 1_555 1_555
H18 C22 1_555 1_555
N1A C4 1_555 1_555
N2A H1A 1_555 1_555
C1A N1A 1_555 1_555
H2A C1A 1_555 1_555
C2A N1A 1_555 1_555
H3A C2A 1_555 1_555
C3A N2A 1_555 1_555
H4A C3A 1_555 1_555
H5A C4 1_555 1_555
N3A C8 1_555 1_555
N4A H6A 1_555 1_555
C5A N3A 1_555 1_555
H7A C5A 1_555 1_555
C6A N4A 1_555 1_555
H8A C6A 1_555 1_555
C7A N3A 1_555 1_555
H9A C7A 1_555 1_555
H10A C8 1_555 1_555
C2 C3 1_555 1_555
C6 C7 1_555 1_555
C13 C14 1_555 1_555
C14 C15 1_555 1_555
C20 C21 1_555 1_555
C21 C22 1_555 1_555
N2A C1A 1_555 1_555
C2A C3A 1_555 1_555
N4A C5A 1_555 1_555
C6A C7A 1_555 1_555

#END
