
#######################################################################
#
#                 Cambridge Crystallographic Data Centre
#                                CCDC 
#
#######################################################################
#
# If this CIF has been generated from an entry in the Cambridge 
# Structural Database, then it will include bibliographic, chemical, 
# crystal, experimental, refinement or atomic coordinate data resulting 
# from the CCDC's data processing and validation procedures.
#
#######################################################################

data_NEDMUH
_chemical_formula_moiety         'C37 H50 O6'
_chemical_name_systematic        
'17-hydroxy-12,18-dioxo-18,20-epoxylanost-9(11)-en-3-yl benzoate'
_symmetry_cell_setting           monoclinic
_symmetry_space_group_name_H-M   'P 21'
_symmetry_Int_Tables_number      4
_space_group_name_Hall           'P 2yb'
loop_
_symmetry_equiv_pos_site_id
_symmetry_equiv_pos_as_xyz
1 x,y,z
2 -x,1/2+y,-z
_cell_length_a                   15.584(2)
_cell_length_b                   11.6674(17)
_cell_length_c                   18.936(3)
_cell_angle_alpha                90
_cell_angle_beta                 109.818(3)
_cell_angle_gamma                90
_cell_volume                     3239.12
_exptl_crystal_colour            colorless
_exptl_crystal_description       prismatic
_cell_formula_units_Z            4
loop_
_atom_site_label
_atom_site_type_symbol
_atom_site_fract_x
_atom_site_fract_y
_atom_site_fract_z
O1 O 0.3647(3) -0.1540(3) 0.0571(2)
O2 O 0.4892(3) -0.0666(3) -0.0045(2)
H1 H 0.4609 -0.1184 0.0070
O3 O 0.2834(2) 0.1776(4) 0.06097(18)
O4 O 0.3226(2) 0.1537(4) -0.03949(16)
O5 O 0.3119(2) -0.0177(3) 0.48428(17)
O6 O 0.3352(3) -0.2056(4) 0.5021(2)
C1 C 0.2804(3) -0.0436(5) 0.2797(2)
H2 H 0.2253 -0.0500 0.2362
H3 H 0.3157 -0.1130 0.2826
C2 C 0.2541(3) -0.0344(5) 0.3497(3)
H4 H 0.2146 0.0313 0.3456
H5 H 0.2211 -0.1026 0.3548
C3 C 0.3390(3) -0.0215(4) 0.4177(2)
H6 H 0.3778 -0.0888 0.4211
C4 C 0.3933(4) 0.0842(5) 0.4160(3)
C5 C 0.4162(3) 0.0806(4) 0.3417(2)
H7 H 0.4558 0.0135 0.3472
C6 C 0.4733(4) 0.1801(6) 0.3327(3)
H8 H 0.5224 0.1940 0.3797
H9 H 0.4360 0.2487 0.3198
C7 C 0.5128(4) 0.1539(6) 0.2715(2)
H10 H 0.5547 0.0899 0.2873
H11 H 0.5473 0.2198 0.2649
C8 C 0.4399(3) 0.1246(4) 0.1961(2)
H12 H 0.4052 0.1950 0.1774
C9 C 0.3733(2) 0.0370(4) 0.2048(2)
C10 C 0.3356(2) 0.0581(4) 0.2689(2)
C11 C 0.3461(3) -0.0489(4) 0.1571(2)
H13 H 0.3088 -0.1044 0.1670
C12 C 0.3708(3) -0.0621(4) 0.0904(3)
C13 C 0.4072(2) 0.0440(4) 0.0657(2)
C14 C 0.4819(3) 0.0878(4) 0.1374(2)
C15 C 0.5249(3) 0.1805(5) 0.1031(2)
H14 H 0.4875 0.2491 0.0921
H15 H 0.5853 0.2003 0.1368
C16 C 0.5294(3) 0.1266(5) 0.0317(2)
H16 H 0.5877 0.0888 0.0414
H17 H 0.5229 0.1850 -0.0062
C17 C 0.4516(3) 0.0389(4) 0.0040(2)
C18 C 0.3314(3) 0.1317(5) 0.0324(2)
C19 C 0.2706(4) 0.1607(5) 0.2416(3)
H18 H 0.2380 0.1532 0.1888
H19 H 0.3052 0.2306 0.2508
H20 H 0.2280 0.1624 0.2682
C20 C 0.3748(3) 0.0747(5) -0.0684(2)
C21 C 0.3111(4) -0.0235(8) -0.1036(3)
H21 H 0.2874 -0.0556 -0.0673
H22 H 0.3440 -0.0814 -0.1200
H23 H 0.2617 0.0042 -0.1459
C22 C 0.4035(4) 0.1366(6) -0.1260(3)
H24 H 0.4324 0.2080 -0.1043
H25 H 0.3493 0.1556 -0.1681
C23 C 0.4682(4) 0.0710(6) -0.1552(3)
H26 H 0.5228 0.0530 -0.1132
H27 H 0.4397 -0.0009 -0.1763
C24 C 0.4955(4) 0.1325(6) -0.2132(3)
H28 H 0.4400 0.1523 -0.2538
H29 H 0.5239 0.2040 -0.1912
C25 C 0.5563(6) 0.0770(9) -0.2465(5)
H30 H 0.5094 0.0311 -0.2833
C26 C 0.5794(5) 0.1519(9) -0.3030(4)
H31 H 0.5819 0.2306 -0.2877
H32 H 0.5334 0.1429 -0.3515
H33 H 0.6376 0.1295 -0.3055
C27 C 0.6130(7) -0.0139(10) -0.2130(6)
H34 H 0.6548 0.0100 -0.1652
H35 H 0.6465 -0.0378 -0.2446
H36 H 0.5768 -0.0766 -0.2060
C28 C 0.4835(5) 0.0749(10) 0.4831(3)
H37 H 0.5221 0.1386 0.4824
H38 H 0.5138 0.0046 0.4795
H39 H 0.4704 0.0756 0.5292
C29 C 0.3446(6) 0.1929(6) 0.4245(4)
H40 H 0.2879 0.1990 0.3836
H41 H 0.3822 0.2580 0.4242
H42 H 0.3329 0.1906 0.4711
C30 C 0.5530(3) -0.0073(5) 0.1682(3)
H43 H 0.5655 -0.0440 0.1274
H44 H 0.5298 -0.0627 0.1946
H45 H 0.6083 0.0255 0.2019
C31 C 0.3126(3) -0.1152(5) 0.5207(2)
C32 C 0.2799(3) -0.1003(4) 0.5847(2)
C33 C 0.2504(4) 0.0012(5) 0.6035(3)
H46 H 0.2536 0.0672 0.5770
C34 C 0.2158(4) 0.0072(6) 0.6614(3)
H47 H 0.1968 0.0773 0.6742
C35 C 0.2095(4) -0.0891(6) 0.6999(3)
H48 H 0.1817 -0.0863 0.7362
C36 C 0.2439(4) -0.1891(6) 0.6848(3)
H49 H 0.2434 -0.2538 0.7134
C37 C 0.2795(4) -0.1960(5) 0.6277(3)
H50 H 0.3034 -0.2649 0.6180
O7 O 0.1433(2) 0.3784(3) 0.20287(17)
O8 O 0.0128(2) 0.4631(3) 0.26172(19)
H51 H 0.0524 0.4154 0.2644
O9 O 0.1837(2) 0.7120(3) 0.15866(16)
O10 O 0.1589(2) 0.7013(3) 0.26607(15)
O11 O 0.18002(18) 0.4722(2) -0.24007(14)
O12 O 0.2094(2) 0.2850(3) -0.23610(19)
C38 C 0.2074(2) 0.4600(4) -0.0349(2)
H52 H 0.2620 0.4642 0.0092
H53 H 0.1789 0.3863 -0.0344
C39 C 0.2342(3) 0.4682(4) -0.1047(2)
H54 H 0.2664 0.5396 -0.1039
H55 H 0.2750 0.4056 -0.1051
C40 C 0.1515(2) 0.4631(4) -0.1742(2)
H56 H 0.1218 0.3887 -0.1757
C41 C 0.0813(2) 0.5575(4) -0.1802(2)
C42 C 0.0593(2) 0.5556(3) -0.10564(19)
H57 H 0.0288 0.4819 -0.1062
C43 C -0.0105(3) 0.6455(4) -0.1034(2)
H58 H 0.0175 0.7208 -0.0964
H59 H -0.0607 0.6455 -0.1508
C44 C -0.0464(3) 0.6206(4) -0.0400(2)
H60 H -0.0776 0.5474 -0.0489
H61 H -0.0903 0.6791 -0.0392
C45 C 0.0301(2) 0.6177(3) 0.0363(2)
H62 H 0.0559 0.6950 0.0458
C46 C 0.1064(2) 0.5379(3) 0.03441(19)
C47 C 0.1418(2) 0.5552(3) -0.0310(2)
C48 C 0.1441(3) 0.4626(4) 0.0896(2)
H63 H 0.1852 0.4095 0.0830
C49 C 0.1241(3) 0.4595(4) 0.1597(2)
C50 C 0.0778(2) 0.5657(3) 0.1747(2)
C51 C -0.0036(2) 0.5876(3) 0.1015(2)
C52 C -0.0530(3) 0.6821(4) 0.1281(2)
H64 H -0.1159 0.6888 0.0951
H65 H -0.0229 0.7554 0.1302
C53 C -0.0476(3) 0.6424(4) 0.2070(2)
H66 H -0.0457 0.7084 0.2387
H67 H -0.1010 0.5972 0.2039
C54 C 0.0390(3) 0.5699(3) 0.2408(2)
C55 C 0.1455(3) 0.6661(4) 0.1963(2)
C56 C 0.1950(3) 0.6694(4) -0.0134(2)
H68 H 0.1527 0.7321 -0.0227
H69 H 0.2316 0.6769 -0.0450
H70 H 0.2337 0.6702 0.0382
C57 C 0.1149(3) 0.6262(4) 0.3058(2)
C58 C 0.1866(3) 0.5430(5) 0.3511(3)
H71 H 0.2059 0.4957 0.3178
H72 H 0.1615 0.4956 0.3807
H73 H 0.2379 0.5847 0.3836
C59 C 0.0864(4) 0.7063(4) 0.3576(3)
H74 H 0.1413 0.7379 0.3939
H75 H 0.0527 0.7697 0.3277
C60 C 0.0294(4) 0.6554(5) 0.4000(3)
H76 H 0.0594 0.5876 0.4268
H77 H -0.0294 0.6323 0.3647
C61 C 0.0150(4) 0.7417(5) 0.4557(3)
H78 H 0.0736 0.7569 0.4940
H79 H -0.0065 0.8130 0.4293
C62 C -0.0510(4) 0.7059(6) 0.4941(3)
H80 H -0.1104 0.6973 0.4544
C63 C -0.0625(6) 0.7981(8) 0.5451(4)
H81 H -0.1149 0.7816 0.5591
H82 H -0.0708 0.8705 0.5195
H83 H -0.0092 0.8014 0.5893
C64 C -0.0313(6) 0.5947(8) 0.5335(4)
H84 H 0.0264 0.5988 0.5735
H85 H -0.0290 0.5358 0.4988
H86 H -0.0784 0.5772 0.5538
C65 C -0.0050(3) 0.5260(5) -0.2445(2)
H87 H 0.0105 0.5055 -0.2878
H88 H -0.0458 0.5904 -0.2564
H89 H -0.0342 0.4622 -0.2300
C66 C 0.1144(4) 0.6732(4) -0.1980(3)
H90 H 0.1764 0.6851 -0.1661
H91 H 0.0766 0.7329 -0.1897
H92 H 0.1112 0.6743 -0.2496
C67 C -0.0647(3) 0.4811(4) 0.0829(3)
H93 H -0.0729 0.4528 0.1278
H94 H -0.0366 0.4230 0.0622
H95 H -0.1230 0.5009 0.0469
C68 C 0.2088(3) 0.3773(4) -0.2635(2)
C69 C 0.2432(3) 0.3982(4) -0.3263(2)
C70 C 0.2235(4) 0.4947(5) -0.3696(3)
H96 H 0.1883 0.5522 -0.3591
C71 C 0.2551(5) 0.5081(6) -0.4286(3)
H97 H 0.2404 0.5735 -0.4583
C72 C 0.3079(5) 0.4254(7) -0.4433(3)
H98 H 0.3272 0.4329 -0.4844
C73 C 0.3322(4) 0.3336(7) -0.3992(3)
H99 H 0.3721 0.2800 -0.4072
C74 C 0.2978(3) 0.3186(5) -0.3416(3)
H100 H 0.3124 0.2524 -0.3127
loop_
_geom_bond_atom_site_label_1
_geom_bond_atom_site_label_2
_geom_bond_site_symmetry_1
_geom_bond_site_symmetry_2
O1 C12 1_555 1_555
O2 H1 1_555 1_555
O3 C18 1_555 1_555
O4 C18 1_555 1_555
O5 C3 1_555 1_555
O6 C31 1_555 1_555
C1 H2 1_555 1_555
H3 C1 1_555 1_555
C2 C1 1_555 1_555
H4 C2 1_555 1_555
H5 C2 1_555 1_555
C3 C2 1_555 1_555
H6 C3 1_555 1_555
C4 C3 1_555 1_555
C5 C4 1_555 1_555
H7 C5 1_555 1_555
C6 C5 1_555 1_555
H8 C6 1_555 1_555
H9 C6 1_555 1_555
C7 C6 1_555 1_555
H10 C7 1_555 1_555
H11 C7 1_555 1_555
C8 C7 1_555 1_555
H12 C8 1_555 1_555
C9 C8 1_555 1_555
C10 C1 1_555 1_555
C11 C9 1_555 1_555
H13 C11 1_555 1_555
C12 C11 1_555 1_555
C13 C12 1_555 1_555
C14 C8 1_555 1_555
C15 C14 1_555 1_555
H14 C15 1_555 1_555
H15 C15 1_555 1_555
C16 C15 1_555 1_555
H16 C16 1_555 1_555
H17 C16 1_555 1_555
C17 O2 1_555 1_555
C18 C13 1_555 1_555
C19 C10 1_555 1_555
H18 C19 1_555 1_555
H19 C19 1_555 1_555
H20 C19 1_555 1_555
C20 O4 1_555 1_555
C21 C20 1_555 1_555
H21 C21 1_555 1_555
H22 C21 1_555 1_555
H23 C21 1_555 1_555
C22 C20 1_555 1_555
H24 C22 1_555 1_555
H25 C22 1_555 1_555
C23 C22 1_555 1_555
H26 C23 1_555 1_555
H27 C23 1_555 1_555
C24 C23 1_555 1_555
H28 C24 1_555 1_555
H29 C24 1_555 1_555
C25 C24 1_555 1_555
H30 C25 1_555 1_555
C26 C25 1_555 1_555
H31 C26 1_555 1_555
H32 C26 1_555 1_555
H33 C26 1_555 1_555
C27 C25 1_555 1_555
H34 C27 1_555 1_555
H35 C27 1_555 1_555
H36 C27 1_555 1_555
C28 C4 1_555 1_555
H37 C28 1_555 1_555
H38 C28 1_555 1_555
H39 C28 1_555 1_555
C29 C4 1_555 1_555
H40 C29 1_555 1_555
H41 C29 1_555 1_555
H42 C29 1_555 1_555
C30 C14 1_555 1_555
H43 C30 1_555 1_555
H44 C30 1_555 1_555
H45 C30 1_555 1_555
C31 O5 1_555 1_555
C32 C31 1_555 1_555
C33 C32 1_555 1_555
H46 C33 1_555 1_555
C34 C33 1_555 1_555
H47 C34 1_555 1_555
C35 C34 1_555 1_555
H48 C35 1_555 1_555
C36 C35 1_555 1_555
H49 C36 1_555 1_555
C37 C32 1_555 1_555
H50 C37 1_555 1_555
O7 C49 1_555 1_555
O8 H51 1_555 1_555
O9 C55 1_555 1_555
O10 C55 1_555 1_555
O11 C40 1_555 1_555
O12 C68 1_555 1_555
C38 H52 1_555 1_555
H53 C38 1_555 1_555
C39 C38 1_555 1_555
H54 C39 1_555 1_555
H55 C39 1_555 1_555
C40 C39 1_555 1_555
H56 C40 1_555 1_555
C41 C40 1_555 1_555
C42 C41 1_555 1_555
H57 C42 1_555 1_555
C43 C42 1_555 1_555
H58 C43 1_555 1_555
H59 C43 1_555 1_555
C44 C43 1_555 1_555
H60 C44 1_555 1_555
H61 C44 1_555 1_555
C45 C44 1_555 1_555
H62 C45 1_555 1_555
C46 C45 1_555 1_555
C47 C38 1_555 1_555
C48 C46 1_555 1_555
H63 C48 1_555 1_555
C49 C48 1_555 1_555
C50 C49 1_555 1_555
C51 C45 1_555 1_555
C52 C51 1_555 1_555
H64 C52 1_555 1_555
H65 C52 1_555 1_555
C53 C52 1_555 1_555
H66 C53 1_555 1_555
H67 C53 1_555 1_555
C54 O8 1_555 1_555
C55 C50 1_555 1_555
C56 C47 1_555 1_555
H68 C56 1_555 1_555
H69 C56 1_555 1_555
H70 C56 1_555 1_555
C57 O10 1_555 1_555
C58 C57 1_555 1_555
H71 C58 1_555 1_555
H72 C58 1_555 1_555
H73 C58 1_555 1_555
C59 C57 1_555 1_555
H74 C59 1_555 1_555
H75 C59 1_555 1_555
C60 C59 1_555 1_555
H76 C60 1_555 1_555
H77 C60 1_555 1_555
C61 C60 1_555 1_555
H78 C61 1_555 1_555
H79 C61 1_555 1_555
C62 C61 1_555 1_555
H80 C62 1_555 1_555
C63 C62 1_555 1_555
H81 C63 1_555 1_555
H82 C63 1_555 1_555
H83 C63 1_555 1_555
C64 C62 1_555 1_555
H84 C64 1_555 1_555
H85 C64 1_555 1_555
H86 C64 1_555 1_555
C65 C41 1_555 1_555
H87 C65 1_555 1_555
H88 C65 1_555 1_555
H89 C65 1_555 1_555
C66 C41 1_555 1_555
H90 C66 1_555 1_555
H91 C66 1_555 1_555
H92 C66 1_555 1_555
C67 C51 1_555 1_555
H93 C67 1_555 1_555
H94 C67 1_555 1_555
H95 C67 1_555 1_555
C68 O11 1_555 1_555
C69 C68 1_555 1_555
C70 C69 1_555 1_555
H96 C70 1_555 1_555
C71 C70 1_555 1_555
H97 C71 1_555 1_555
C72 C71 1_555 1_555
H98 C72 1_555 1_555
C73 C72 1_555 1_555
H99 C73 1_555 1_555
C74 C69 1_555 1_555
H100 C74 1_555 1_555
C5 C10 1_555 1_555
C9 C10 1_555 1_555
C13 C14 1_555 1_555
C13 C17 1_555 1_555
C16 C17 1_555 1_555
C17 C20 1_555 1_555
C36 C37 1_555 1_555
C42 C47 1_555 1_555
C46 C47 1_555 1_555
C50 C51 1_555 1_555
C50 C54 1_555 1_555
C53 C54 1_555 1_555
C54 C57 1_555 1_555
C73 C74 1_555 1_555

#END
