
#######################################################################
#
#                 Cambridge Crystallographic Data Centre
#                                CCDC 
#
#######################################################################
#
# If this CIF has been generated from an entry in the Cambridge 
# Structural Database, then it will include bibliographic, chemical, 
# crystal, experimental, refinement or atomic coordinate data resulting 
# from the CCDC's data processing and validation procedures.
#
#######################################################################

data_NEDNES
_chemical_formula_moiety         'C22 H26 N2 O4,H2 O1'
_chemical_name_systematic        
"methyl 4-ethylidene-15-hydroxy-13-methyl-2,3,4,5,7,8-hexahydro-1H,13H-1,3,8a-(epoxyethane[1,2,2]triyl)azepino[1',2':1,2]pyrrolo[2,3-b]indole-14-carboxylate monohydrate unknown solvate"
_symmetry_cell_setting           orthorhombic
_symmetry_space_group_name_H-M   'P b c a'
_symmetry_Int_Tables_number      61
_space_group_name_Hall           '-P 2ac 2ab'
loop_
_symmetry_equiv_pos_site_id
_symmetry_equiv_pos_as_xyz
1 x,y,z
2 1/2-x,-y,1/2+z
3 -x,1/2+y,1/2-z
4 1/2+x,1/2-y,-z
5 -x,-y,-z
6 1/2+x,y,1/2-z
7 x,1/2-y,1/2+z
8 1/2-x,1/2+y,z
_cell_length_a                   14.9726(19)
_cell_length_b                   15.250(2)
_cell_length_c                   17.892(2)
_cell_angle_alpha                90
_cell_angle_beta                 90
_cell_angle_gamma                90
_cell_volume                     4085.32
_exptl_crystal_colour            colorless
_exptl_crystal_description       block
_cell_formula_units_Z            8
loop_
_atom_site_label
_atom_site_type_symbol
_atom_site_fract_x
_atom_site_fract_y
_atom_site_fract_z
O1 O 0.32605(15) 0.70042(12) 0.51889(12)
O2 O 0.40293(16) 0.66168(14) 0.40940(13)
H1 H 0.444587 0.627668 0.416109
O3 O 0.54375(16) 0.82276(19) 0.42431(14)
O4 O 0.45846(15) 0.89200(17) 0.34255(13)
N1 N 0.27122(17) 0.83971(16) 0.61585(15)
N2 N 0.20874(17) 0.91881(16) 0.51345(16)
C1 C 0.3583(2) 0.84082(18) 0.64090(17)
C2 C 0.3889(3) 0.8336(2) 0.71391(18)
H2 H 0.348858 0.826560 0.753179
C3 C 0.4796(3) 0.8371(2) 0.7274(2)
H3 H 0.500768 0.830828 0.775932
C4 C 0.5388(2) 0.8498(2) 0.66973(19)
H4 H 0.599725 0.852614 0.679638
C5 C 0.5082(2) 0.85851(19) 0.59645(17)
H5 H 0.548614 0.867412 0.557703
C6 C 0.41833(19) 0.85390(17) 0.58163(15)
C7 C 0.36430(18) 0.87082(17) 0.51044(16)
C8 C 0.26714(19) 0.84351(18) 0.53477(17)
C9 C 0.2466(2) 0.75067(19) 0.50215(18)
H6 H 0.194660 0.725034 0.527300
C10 C 0.2345(2) 0.7472(2) 0.41847(19)
H7 H 0.173706 0.762627 0.405074
H8 H 0.247092 0.688803 0.399832
C11 C 0.3009(2) 0.81406(19) 0.38532(18)
H9 H 0.320258 0.792833 0.336241
C12 C 0.2491(2) 0.8989(2) 0.37444(19)
C13 C 0.1804(2) 0.9199(2) 0.4343(2)
H10 H 0.156524 0.977756 0.423726
H11 H 0.131519 0.878627 0.428978
C14 C 0.2494(3) 0.9466(3) 0.3120(2)
H12 H 0.212607 0.995719 0.312290
C15 C 0.3007(3) 0.9319(3) 0.2418(2)
H13 H 0.260170 0.928808 0.200280
H14 H 0.333364 0.877904 0.245476
H15 H 0.341676 0.979529 0.234274
C16 C 0.38432(19) 0.81485(18) 0.43948(15)
C17 C 0.3985(2) 0.72108(18) 0.46912(18)
H16 H 0.454732 0.718893 0.497027
C18 C 0.3584(2) 0.97077(18) 0.49675(17)
H17 H 0.405696 1.001615 0.522814
H18 H 0.361913 0.984227 0.443850
C19 C 0.2668(2) 0.99497(19) 0.5284(2)
H19 H 0.270747 1.006053 0.581717
H20 H 0.243609 1.047024 0.504059
C20 C 0.1965(2) 0.8143(3) 0.6619(2)
H21 H 0.203829 0.754475 0.677544
H22 H 0.142208 0.819766 0.633717
H23 H 0.193695 0.851573 0.705029
C21 C 0.4707(2) 0.8424(2) 0.40241(18)
C22 C 0.5383(3) 0.9198(3) 0.3028(2)
H24 H 0.521417 0.951853 0.258843
H25 H 0.572507 0.869242 0.288694
H26 H 0.573581 0.956721 0.334699
O5 O 0.03449(16) 0.95790(18) 0.56806(18)
H27 H 0.087797 0.943573 0.557249
H28 H 0.034922 1.004031 0.594706
loop_
_geom_bond_atom_site_label_1
_geom_bond_atom_site_label_2
_geom_bond_site_symmetry_1
_geom_bond_site_symmetry_2
O1 C9 1_555 1_555
O2 H1 1_555 1_555
O3 C21 1_555 1_555
O4 C21 1_555 1_555
N1 C1 1_555 1_555
N2 C8 1_555 1_555
C1 C2 1_555 1_555
C2 H2 1_555 1_555
C3 C2 1_555 1_555
H3 C3 1_555 1_555
C4 C3 1_555 1_555
H4 C4 1_555 1_555
C5 C4 1_555 1_555
H5 C5 1_555 1_555
C6 C1 1_555 1_555
C7 C6 1_555 1_555
C8 N1 1_555 1_555
C9 C8 1_555 1_555
H6 C9 1_555 1_555
C10 C9 1_555 1_555
H7 C10 1_555 1_555
H8 C10 1_555 1_555
C11 C10 1_555 1_555
H9 C11 1_555 1_555
C12 C11 1_555 1_555
C13 N2 1_555 1_555
H10 C13 1_555 1_555
H11 C13 1_555 1_555
C14 C12 1_555 1_555
H12 C14 1_555 1_555
C15 C14 1_555 1_555
H13 C15 1_555 1_555
H14 C15 1_555 1_555
H15 C15 1_555 1_555
C16 C7 1_555 1_555
C17 O1 1_555 1_555
H16 C17 1_555 1_555
C18 C7 1_555 1_555
H17 C18 1_555 1_555
H18 C18 1_555 1_555
C19 N2 1_555 1_555
H19 C19 1_555 1_555
H20 C19 1_555 1_555
C20 N1 1_555 1_555
H21 C20 1_555 1_555
H22 C20 1_555 1_555
H23 C20 1_555 1_555
C21 C16 1_555 1_555
C22 O4 1_555 1_555
H24 C22 1_555 1_555
H25 C22 1_555 1_555
H26 C22 1_555 1_555
O5 H27 1_555 1_555
H28 O5 1_555 1_555
O2 C17 1_555 1_555
C5 C6 1_555 1_555
C7 C8 1_555 1_555
C11 C16 1_555 1_555
C12 C13 1_555 1_555
C16 C17 1_555 1_555
C18 C19 1_555 1_555

#END
