
#######################################################################
#
#                 Cambridge Crystallographic Data Centre
#                                CCDC 
#
#######################################################################
#
# If this CIF has been generated from an entry in the Cambridge 
# Structural Database, then it will include bibliographic, chemical, 
# crystal, experimental, refinement or atomic coordinate data resulting 
# from the CCDC's data processing and validation procedures.
#
#######################################################################

data_NEDNAO
_chemical_formula_moiety         'C27 H32 N2 O7'
_chemical_name_systematic        
"13-t-butyl 14,14-dimethyl 4-ethylidene-2-oxo-2,3,4,5,7,8-hexahydro-1H,13H-3,8a-methanoazepino[1',2':1,2]pyrrolo[2,3-b]indole-13,14,14-tricarboxylate"
_symmetry_cell_setting           triclinic
_symmetry_space_group_name_H-M   'P -1'
_symmetry_Int_Tables_number      2
_space_group_name_Hall           '-P 1'
loop_
_symmetry_equiv_pos_site_id
_symmetry_equiv_pos_as_xyz
1 x,y,z
2 -x,-y,-z
_cell_length_a                   8.535(4)
_cell_length_b                   12.155(5)
_cell_length_c                   13.640(6)
_cell_angle_alpha                101.124(9)
_cell_angle_beta                 107.607(8)
_cell_angle_gamma                103.076(9)
_cell_volume                     1260.66
_exptl_crystal_colour            colorless
_exptl_crystal_description       needle
_cell_formula_units_Z            2
loop_
_atom_site_label
_atom_site_type_symbol
_atom_site_fract_x
_atom_site_fract_y
_atom_site_fract_z
O1 O 0.6157(3) 0.14702(16) 0.47153(15)
O2 O 1.2997(3) 0.53771(18) 0.85912(18)
O3 O 1.0734(3) 0.51994(15) 0.71170(15)
O4 O 0.8078(3) 0.04259(16) 0.64738(19)
O5 O 0.6859(3) -0.04920(17) 0.74345(15)
O6 O 0.5925(3) 0.0991(2) 0.88939(17)
O7 O 0.3705(3) 0.0442(2) 0.73359(18)
N1 N 1.0453(3) 0.39360(18) 0.80957(16)
N2 N 0.7669(3) 0.42870(19) 0.74935(18)
C1 C 0.8561(3) 0.3397(2) 0.7446(2)
C2 C 0.8342(3) 0.2795(2) 0.63080(19)
H1 H 0.851139 0.339054 0.593579
H2 H 0.923575 0.241830 0.633491
C3 C 0.6628(3) 0.1896(2) 0.5675(2)
C4 C 0.5459(3) 0.1611(2) 0.6290(2)
H3 H 0.450873 0.089397 0.585383
C5 C 0.6491(3) 0.1394(2) 0.7355(2)
C6 C 0.7958(3) 0.2555(2) 0.81145(19)
C7 C 0.9634(3) 0.2420(2) 0.8786(2)
C8 C 0.9920(4) 0.1662(3) 0.9409(2)
H4 H 0.899422 0.110555 0.943332
C9 C 1.1611(4) 0.1739(3) 1.0003(3)
H5 H 1.181497 0.122886 1.042183
C10 C 1.2976(4) 0.2568(3) 0.9970(2)
H6 H 1.409653 0.260607 1.036474
C11 C 1.2720(3) 0.3346(2) 0.9361(2)
H7 H 1.364703 0.390947 0.934702
C12 C 1.1030(3) 0.3257(2) 0.8773(2)
C13 C 1.1530(4) 0.4893(2) 0.7987(2)
C14 C 1.1325(5) 0.6421(3) 0.7066(3)
C15 C 1.1377(6) 0.7237(3) 0.8085(3)
H8 H 1.032389 0.695585 0.820428
H9 H 1.150349 0.801750 0.800863
H10 H 1.233630 0.725070 0.868402
C16 C 0.9870(5) 0.6443(3) 0.6105(3)
H11 H 0.976369 0.586534 0.547981
H12 H 1.011805 0.720944 0.599279
H13 H 0.880817 0.626785 0.623431
C17 C 1.3010(5) 0.6653(4) 0.6894(4)
H14 H 1.389997 0.664366 0.752022
H15 H 1.329414 0.740859 0.676511
H16 H 1.291316 0.605391 0.628690
C18 C 0.7235(4) 0.3337(3) 0.8809(2)
H17 H 0.600189 0.298851 0.860954
H18 H 0.779818 0.342109 0.956453
C19 C 0.7620(4) 0.4524(3) 0.8579(2)
H19 H 0.672656 0.488392 0.861586
H20 H 0.872027 0.504924 0.909580
C20 C 0.5940(4) 0.3885(2) 0.6642(3)
H21 H 0.610332 0.393639 0.597687
H22 H 0.534342 0.444638 0.680298
C21 C 0.4724(4) 0.2654(2) 0.6428(2)
C22 C 0.3049(4) 0.2500(3) 0.6181(3)
H23 H 0.274654 0.318911 0.629385
C23 C 0.1572(4) 0.1390(3) 0.5747(3)
H24 H 0.066146 0.146526 0.517043
H25 H 0.115697 0.124844 0.630559
H26 H 0.194937 0.074440 0.548769
C24 C 0.5276(4) 0.0913(3) 0.7913(2)
C25 C 0.2366(8) 0.0208(6) 0.7692(5)
H27 H 0.131268 -0.020684 0.709298
H28 H 0.227133 0.093375 0.805909
H29 H 0.257208 -0.026764 0.817506
C26 C 0.7250(3) 0.0407(2) 0.7037(2)
C27 C 0.7461(5) -0.1475(3) 0.7104(3)
H30 H 0.697434 -0.177988 0.633711
H31 H 0.710886 -0.208199 0.742048
H32 H 0.869655 -0.121452 0.733523
O1A O 0.3843(3) -0.14702(16) 1.52847(15)
O2A O -0.2997(3) -0.53771(18) 1.14088(18)
O3A O -0.0734(3) -0.51994(15) 1.28830(15)
O4A O 0.1922(3) -0.04259(16) 1.35262(19)
O5A O 0.3141(3) 0.04920(17) 1.25655(15)
O6A O 0.4075(3) -0.0991(2) 1.11061(17)
O7A O 0.6295(3) -0.0442(2) 1.26641(18)
N1A N -0.0453(3) -0.39360(18) 1.19043(16)
N2A N 0.2331(3) -0.42870(19) 1.25065(18)
C1A C 0.1439(3) -0.3397(2) 1.2554(2)
C2A C 0.1658(3) -0.2795(2) 1.36920(19)
H1A H 0.148861 -0.339054 1.406421
H2A H 0.076425 -0.241830 1.366509
C3A C 0.3372(3) -0.1896(2) 1.4325(2)
C4A C 0.4541(3) -0.1611(2) 1.3710(2)
H3A H 0.549127 -0.089397 1.414617
C5A C 0.3509(3) -0.1394(2) 1.2645(2)
C6A C 0.2042(3) -0.2555(2) 1.18855(19)
C7A C 0.0366(3) -0.2420(2) 1.1214(2)
C8A C 0.0080(4) -0.1662(3) 1.0591(2)
H4A H 0.100578 -0.110555 1.056668
C9A C -0.1611(4) -0.1739(3) 0.9997(3)
H5A H -0.181497 -0.122886 0.957817
C10A C -0.2976(4) -0.2568(3) 1.0030(2)
H6A H -0.409653 -0.260607 0.963526
C11A C -0.2720(3) -0.3346(2) 1.0639(2)
H7A H -0.364703 -0.390947 1.065298
C12A C -0.1030(3) -0.3257(2) 1.1227(2)
C13A C -0.1530(4) -0.4893(2) 1.2013(2)
C14A C -0.1325(5) -0.6421(3) 1.2934(3)
C15A C -0.1377(6) -0.7237(3) 1.1915(3)
H8A H -0.032389 -0.695585 1.179572
H9A H -0.150349 -0.801750 1.199137
H10A H -0.233630 -0.725070 1.131598
C16A C 0.0130(5) -0.6443(3) 1.3895(3)
H11A H 0.023631 -0.586534 1.452019
H12A H -0.011805 -0.720944 1.400721
H13A H 0.119183 -0.626785 1.376569
C17A C -0.3010(5) -0.6653(4) 1.3106(4)
H14A H -0.389997 -0.664366 1.247978
H15A H -0.329414 -0.740859 1.323489
H16A H -0.291316 -0.605391 1.371310
C18A C 0.2765(4) -0.3337(3) 1.1191(2)
H17A H 0.399811 -0.298851 1.139046
H18A H 0.220182 -0.342109 1.043547
C19A C 0.2380(4) -0.4524(3) 1.1421(2)
H19A H 0.327344 -0.488392 1.138414
H20A H 0.127973 -0.504924 1.090420
C20A C 0.4060(4) -0.3885(2) 1.3358(3)
H21A H 0.389668 -0.393639 1.402313
H22A H 0.465658 -0.444638 1.319702
C21A C 0.5276(4) -0.2654(2) 1.3572(2)
C22A C 0.6951(4) -0.2500(3) 1.3819(3)
H23A H 0.725346 -0.318911 1.370615
C23A C 0.8428(4) -0.1390(3) 1.4253(3)
H24A H 0.933854 -0.146526 1.482957
H25A H 0.884303 -0.124844 1.369441
H26A H 0.805063 -0.074440 1.451231
C24A C 0.4724(4) -0.0913(3) 1.2087(2)
C25A C 0.7634(8) -0.0208(6) 1.2308(5)
H27A H 0.868732 0.020684 1.290702
H28A H 0.772867 -0.093375 1.194091
H29A H 0.742792 0.026764 1.182494
C26A C 0.2750(3) -0.0407(2) 1.2963(2)
C27A C 0.2539(5) 0.1475(3) 1.2896(3)
H30A H 0.302566 0.177988 1.366289
H31A H 0.289114 0.208199 1.257952
H32A H 0.130345 0.121452 1.266477
C28? C 0.5133(9) 0.0199(5) 0.9449(5)
H33? H 0.584822 0.041999 1.019314
H34? H 0.400812 0.026509 0.938404
H35? H 0.503172 -0.059951 0.911944
loop_
_geom_bond_atom_site_label_1
_geom_bond_atom_site_label_2
_geom_bond_site_symmetry_1
_geom_bond_site_symmetry_2
O1 C3 1_555 1_555
O2 C13 1_555 1_555
O3 C13 1_555 1_555
O4 C26 1_555 1_555
O5 C26 1_555 1_555
O6 C24 1_555 1_555
O7 C24 1_555 1_555
N1 C1 1_555 1_555
N2 C1 1_555 1_555
C1 C2 1_555 1_555
C2 H1 1_555 1_555
H2 C2 1_555 1_555
C3 C2 1_555 1_555
C4 C3 1_555 1_555
H3 C4 1_555 1_555
C5 C4 1_555 1_555
C6 C1 1_555 1_555
C7 C6 1_555 1_555
C8 C7 1_555 1_555
H4 C8 1_555 1_555
C9 C8 1_555 1_555
H5 C9 1_555 1_555
C10 C9 1_555 1_555
H6 C10 1_555 1_555
C11 C10 1_555 1_555
H7 C11 1_555 1_555
C12 N1 1_555 1_555
C13 N1 1_555 1_555
C14 O3 1_555 1_555
C15 C14 1_555 1_555
H8 C15 1_555 1_555
H9 C15 1_555 1_555
H10 C15 1_555 1_555
C16 C14 1_555 1_555
H11 C16 1_555 1_555
H12 C16 1_555 1_555
H13 C16 1_555 1_555
C17 C14 1_555 1_555
H14 C17 1_555 1_555
H15 C17 1_555 1_555
H16 C17 1_555 1_555
C18 C6 1_555 1_555
H17 C18 1_555 1_555
H18 C18 1_555 1_555
C19 N2 1_555 1_555
H19 C19 1_555 1_555
H20 C19 1_555 1_555
C20 N2 1_555 1_555
H21 C20 1_555 1_555
H22 C20 1_555 1_555
C21 C4 1_555 1_555
C22 C21 1_555 1_555
H23 C22 1_555 1_555
C23 C22 1_555 1_555
H24 C23 1_555 1_555
H25 C23 1_555 1_555
H26 C23 1_555 1_555
C24 C5 1_555 1_555
C25 O7 1_555 1_555
H27 C25 1_555 1_555
H28 C25 1_555 1_555
H29 C25 1_555 1_555
C26 C5 1_555 1_555
C27 O5 1_555 1_555
H30 C27 1_555 1_555
H31 C27 1_555 1_555
H32 C27 1_555 1_555
O1A C3A 1_555 1_555
O2A C13A 1_555 1_555
O3A C13A 1_555 1_555
O4A C26A 1_555 1_555
O5A C26A 1_555 1_555
O6A C24A 1_555 1_555
O7A C24A 1_555 1_555
N1A C1A 1_555 1_555
N2A C1A 1_555 1_555
C1A C2A 1_555 1_555
C2A H1A 1_555 1_555
H2A C2A 1_555 1_555
C3A C2A 1_555 1_555
C4A C3A 1_555 1_555
H3A C4A 1_555 1_555
C5A C4A 1_555 1_555
C6A C1A 1_555 1_555
C7A C6A 1_555 1_555
C8A C7A 1_555 1_555
H4A C8A 1_555 1_555
C9A C8A 1_555 1_555
H5A C9A 1_555 1_555
C10A C9A 1_555 1_555
H6A C10A 1_555 1_555
C11A C10A 1_555 1_555
H7A C11A 1_555 1_555
C12A N1A 1_555 1_555
C13A N1A 1_555 1_555
C14A O3A 1_555 1_555
C15A C14A 1_555 1_555
H8A C15A 1_555 1_555
H9A C15A 1_555 1_555
H10A C15A 1_555 1_555
C16A C14A 1_555 1_555
H11A C16A 1_555 1_555
H12A C16A 1_555 1_555
H13A C16A 1_555 1_555
C17A C14A 1_555 1_555
H14A C17A 1_555 1_555
H15A C17A 1_555 1_555
H16A C17A 1_555 1_555
C18A C6A 1_555 1_555
H17A C18A 1_555 1_555
H18A C18A 1_555 1_555
C19A N2A 1_555 1_555
H19A C19A 1_555 1_555
H20A C19A 1_555 1_555
C20A N2A 1_555 1_555
H21A C20A 1_555 1_555
H22A C20A 1_555 1_555
C21A C4A 1_555 1_555
C22A C21A 1_555 1_555
H23A C22A 1_555 1_555
C23A C22A 1_555 1_555
H24A C23A 1_555 1_555
H25A C23A 1_555 1_555
H26A C23A 1_555 1_555
C24A C5A 1_555 1_555
C25A O7A 1_555 1_555
H27A C25A 1_555 1_555
H28A C25A 1_555 1_555
H29A C25A 1_555 1_555
C26A C5A 1_555 1_555
C27A O5A 1_555 1_555
H30A C27A 1_555 1_555
H31A C27A 1_555 1_555
H32A C27A 1_555 1_555
C5 C6 1_555 1_555
C7 C12 1_555 1_555
C11 C12 1_555 1_555
C18 C19 1_555 1_555
C20 C21 1_555 1_555
C5A C6A 1_555 1_555
C7A C12A 1_555 1_555
C11A C12A 1_555 1_555
C18A C19A 1_555 1_555
C20A C21A 1_555 1_555

#END
