
#######################################################################
#
#                 Cambridge Crystallographic Data Centre
#                                CCDC 
#
#######################################################################
#
# If this CIF has been generated from an entry in the Cambridge 
# Structural Database, then it will include bibliographic, chemical, 
# crystal, experimental, refinement or atomic coordinate data resulting 
# from the CCDC's data processing and validation procedures.
#
#######################################################################

data_NEDNOB
_chemical_formula_moiety         'C14 H22 N2 O4'
_chemical_name_systematic        
6-((3-Methoxypropyl)amino)-4-((3-methoxypropyl)iminio)-3-oxocyclohexa-1,5-dien-1-olate
_symmetry_cell_setting           triclinic
_symmetry_space_group_name_H-M   'P -1'
_symmetry_Int_Tables_number      2
_space_group_name_Hall           '-P 1'
loop_
_symmetry_equiv_pos_site_id
_symmetry_equiv_pos_as_xyz
1 x,y,z
2 -x,-y,-z
_cell_length_a                   5.4005(3)
_cell_length_b                   9.7681(6)
_cell_length_c                   14.5879(10)
_cell_angle_alpha                108.010(3)
_cell_angle_beta                 96.889(4)
_cell_angle_gamma                90.574(4)
_cell_volume                     725.656
_exptl_crystal_colour            red
_exptl_crystal_description       block
_cell_formula_units_Z            2
loop_
_atom_site_label
_atom_site_type_symbol
_atom_site_fract_x
_atom_site_fract_y
_atom_site_fract_z
C1 C 0.8323(3) 0.16967(18) 0.79368(12)
H1 H 0.9790 0.1289 0.8146
C2 C 0.7248(3) 0.12106(17) 0.69725(12)
C3 C 0.4999(3) 0.19071(18) 0.66016(12)
C4 C 0.3951(3) 0.30057(18) 0.72799(12)
H2 H 0.2524 0.3439 0.7064
C5 C 0.4909(3) 0.34947(17) 0.82609(12)
C6 C 0.7212(3) 0.27899(17) 0.85901(12)
C7 C 1.0182(3) -0.07039(18) 0.65005(13)
H3 H 0.9996 -0.1005 0.7078
H4 H 1.1721 -0.0074 0.6649
C8 C 1.0442(3) -0.20267(18) 0.56444(13)
H5 H 1.0290 -0.1749 0.5043
H6 H 1.2126 -0.2395 0.5733
C9 C 0.8507(3) -0.32132(18) 0.55259(13)
H7 H 0.6816 -0.2832 0.5525
H8 H 0.8563 -0.3988 0.4904
C10 C 0.7179(4) -0.4752(2) 0.63550(16)
H9 H 0.5609 -0.4265 0.6450
H10 H 0.7672 -0.5129 0.6896
H11 H 0.6952 -0.5549 0.5743
C11 C 1.0052(3) 0.27350(19) 1.00302(12)
H12 H 1.1644 0.3114 0.9908
H13 H 1.0006 0.1670 0.9767
C12 C 0.9936(3) 0.31842(18) 1.11186(12)
H14 H 1.1451 0.2873 1.1438
H15 H 0.9949 0.4249 1.1372
C13 C 0.7674(3) 0.25692(19) 1.13889(13)
H16 H 0.7601 0.2990 1.2095
H17 H 0.6141 0.2807 1.1036
C14 C 0.5631(4) 0.0392(2) 1.13052(17)
H18 H 0.5354 0.0816 1.1985
H19 H 0.5829 -0.0646 1.1165
H20 H 0.4196 0.0554 1.0879
N1 N 0.8030(3) 0.01107(15) 0.63059(11)
N2 N 0.7960(3) 0.32789(16) 0.95321(10)
O1 O 0.4244(3) 0.14209(13) 0.57132(9)
O2 O 0.4034(3) 0.44491(14) 0.89077(9)
O3 O 0.9063(3) -0.37599(14) 0.63206(10)
O4 O 0.7820(2) 0.10452(13) 1.11413(10)
H21 H 0.712(4) -0.012(2) 0.5712(18)
H22 H 0.709(3) 0.394(2) 0.9837(15)
loop_
_geom_bond_atom_site_label_1
_geom_bond_atom_site_label_2
_geom_bond_site_symmetry_1
_geom_bond_site_symmetry_2
C1 H1 1_555 1_555
C2 C1 1_555 1_555
C3 C2 1_555 1_555
C4 C3 1_555 1_555
H2 C4 1_555 1_555
C5 C4 1_555 1_555
C6 C1 1_555 1_555
C7 H3 1_555 1_555
H4 C7 1_555 1_555
C8 C7 1_555 1_555
H5 C8 1_555 1_555
H6 C8 1_555 1_555
C9 C8 1_555 1_555
H7 C9 1_555 1_555
H8 C9 1_555 1_555
C10 H9 1_555 1_555
H10 C10 1_555 1_555
H11 C10 1_555 1_555
C11 H12 1_555 1_555
H13 C11 1_555 1_555
C12 C11 1_555 1_555
H14 C12 1_555 1_555
H15 C12 1_555 1_555
C13 C12 1_555 1_555
H16 C13 1_555 1_555
H17 C13 1_555 1_555
C14 H18 1_555 1_555
H19 C14 1_555 1_555
H20 C14 1_555 1_555
N1 C2 1_555 1_555
N2 C6 1_555 1_555
O1 C3 1_555 1_555
O2 C5 1_555 1_555
O3 C9 1_555 1_555
O4 C13 1_555 1_555
H21 N1 1_555 1_555
H22 N2 1_555 1_555
C5 C6 1_555 1_555
C7 N1 1_555 1_555
C10 O3 1_555 1_555
C11 N2 1_555 1_555
C14 O4 1_555 1_555

#END
