
#######################################################################
#
#                 Cambridge Crystallographic Data Centre
#                                CCDC 
#
#######################################################################
#
# If this CIF has been generated from an entry in the Cambridge 
# Structural Database, then it will include bibliographic, chemical, 
# crystal, experimental, refinement or atomic coordinate data resulting 
# from the CCDC's data processing and validation procedures.
#
#######################################################################

data_NEDPET
_chemical_formula_moiety         'C65 H90 O10'
_chemical_name_systematic        
'4,9,14,19,24,26,28,30,32,34-Decapropoxyhexacyclo[21.2.2.2^3,6^.2^8,11^.2^13,16^.2^18,21^]pentatriaconta-1(25),3,5,8,10,13,15,18,20,23,26,28,30,32,34-pentadecaene unknown solvate'
_symmetry_cell_setting           triclinic
_symmetry_space_group_name_H-M   'P -1'
_symmetry_Int_Tables_number      2
_space_group_name_Hall           '-P 1'
loop_
_symmetry_equiv_pos_site_id
_symmetry_equiv_pos_as_xyz
1 x,y,z
2 -x,-y,-z
_cell_length_a                   12.1787(4)
_cell_length_b                   13.9544(5)
_cell_length_c                   20.7259(7)
_cell_angle_alpha                80.666(3)
_cell_angle_beta                 83.051(3)
_cell_angle_gamma                81.950(3)
_cell_volume                     3423.96
_exptl_crystal_colour            colorless
_exptl_crystal_description       block
_cell_formula_units_Z            2
loop_
_atom_site_label
_atom_site_type_symbol
_atom_site_fract_x
_atom_site_fract_y
_atom_site_fract_z
O1 O -0.00624(18) 0.16361(14) 0.21593(10)
O2 O -0.18849(16) 0.46572(14) 0.35360(9)
O3 O 0.27897(18) 0.27570(16) 0.03651(11)
O4 O -0.08898(16) 0.53121(14) 0.10944(10)
O5 O 0.56952(17) 0.37237(15) 0.16013(10)
O6 O 0.28410(17) 0.66513(15) 0.03092(10)
O7 O 0.49601(16) 0.34249(14) 0.40391(10)
O8 O 0.13286(17) 0.18810(14) 0.44888(12)
O9 O 0.12675(16) 0.58959(13) 0.42438(10)
O10 O 0.41312(17) 0.69883(14) 0.24547(10)
C1 C -0.0289(4) -0.0112(3) 0.1654(2)
H1 H -0.0050 -0.0586 0.1362
H2 H -0.0552 0.0502 0.1406
H3 H -0.0881 -0.0335 0.1968
C2 C -0.0492(2) 0.2371(2) 0.25167(13)
C3 C -0.0428(2) 0.2321(2) 0.31871(14)
H4 H -0.0076 0.1755 0.3416
C4 C -0.0871(2) 0.30879(19) 0.35245(13)
C5 C -0.1404(2) 0.39232(19) 0.31741(13)
C6 C -0.1472(2) 0.3987(2) 0.25063(13)
H5 H -0.1831 0.4552 0.2281
C7 C -0.1015(2) 0.32225(19) 0.21682(13)
C8 C 0.0345(3) 0.0711(2) 0.25072(17)
H6 H -0.0229 0.0469 0.2834
H7 H 0.0984 0.0774 0.2729
C9 C 0.0676(3) 0.0018(2) 0.20109(19)
H8 H 0.0974 -0.0614 0.2233
H9 H 0.1260 0.0265 0.1693
C10 C -0.2253(2) 0.55878(19) 0.31893(14)
H10 H -0.2747 0.5515 0.2871
H11 H -0.1619 0.5888 0.2955
C11 C -0.2859(3) 0.6223(2) 0.36754(16)
H12 H -0.2369 0.6271 0.4001
H13 H -0.3500 0.5924 0.3901
C12 C -0.3247(3) 0.7250(2) 0.33290(19)
H14 H -0.3699 0.7199 0.2990
H15 H -0.2609 0.7567 0.3137
H16 H -0.3675 0.7626 0.3642
C13 C -0.1070(2) 0.3316(2) 0.14310(13)
H17 H -0.1141 0.2681 0.1317
H18 H -0.1722 0.3760 0.1308
C14 C -0.0038(2) 0.3692(2) 0.10546(13)
C15 C 0.0886(3) 0.3040(2) 0.08773(14)
H19 H 0.0854 0.2370 0.0984
C16 C 0.1847(2) 0.3372(2) 0.05465(14)
C17 C 0.1900(2) 0.4372(2) 0.03556(13)
C18 C 0.0980(2) 0.5025(2) 0.05413(13)
H20 H 0.1006 0.5695 0.0425
C19 C 0.0039(2) 0.4695(2) 0.08931(13)
C20 C 0.2812(3) 0.1745(3) 0.06226(19)
H21 H 0.2274 0.1457 0.0429
H22 H 0.2626 0.1663 0.1095
C21 C 0.3979(3) 0.1257(3) 0.0455(2)
H23 H 0.4507 0.1567 0.0641
H24 H 0.4034 0.0575 0.0653
C22 C 0.4286(3) 0.1315(3) -0.0274(2)
H25 H 0.4289 0.1988 -0.0468
H26 H 0.3751 0.1030 -0.0463
H27 H 0.5014 0.0966 -0.0356
C23 C -0.0788(2) 0.6332(2) 0.09939(15)
H28 H -0.0652 0.6567 0.0528
H29 H -0.0168 0.6451 0.1211
C24 C -0.1858(3) 0.6854(2) 0.12758(16)
H30 H -0.2038 0.6555 0.1726
H31 H -0.2459 0.6793 0.1024
C25 C -0.1755(3) 0.7927(3) 0.1261(2)
H32 H -0.1508 0.8208 0.0822
H33 H -0.1226 0.7991 0.1554
H34 H -0.2468 0.8264 0.1397
C26 C 0.2934(2) 0.4762(2) -0.00115(14)
H35 H 0.3351 0.4274 -0.0260
H36 H 0.2722 0.5343 -0.0318
C27 C 0.3651(2) 0.5008(2) 0.04693(13)
C28 C 0.4366(2) 0.4266(2) 0.07872(14)
H37 H 0.4423 0.3637 0.0681
C29 C 0.4997(2) 0.4442(2) 0.12606(14)
C30 C 0.4958(2) 0.5387(2) 0.14058(13)
C31 C 0.4249(2) 0.6138(2) 0.10799(13)
H38 H 0.4217 0.6773 0.1170
C32 C 0.3592(2) 0.5949(2) 0.06238(13)
C33 C 0.5749(3) 0.2755(2) 0.14513(16)
H39 H 0.6079 0.2731 0.1004
H40 H 0.5002 0.2570 0.1488
C34 C 0.6432(3) 0.2058(2) 0.19160(19)
H41 H 0.6092 0.2076 0.2363
H42 H 0.7172 0.2255 0.1886
C35 C 0.6523(4) 0.1032(3) 0.1758(2)
H43 H 0.6936 0.0998 0.1336
H44 H 0.5790 0.0857 0.1751
H45 H 0.6900 0.0586 0.2088
C36 C 0.2798(3) 0.7631(2) 0.04207(15)
H46 H 0.3498 0.7880 0.0253
H47 H 0.2669 0.7665 0.0888
C37 C 0.1857(3) 0.8231(3) 0.00703(18)
H48 H 0.1154 0.8013 0.0268
H49 H 0.1951 0.8132 -0.0387
C38 C 0.1831(4) 0.9304(3) 0.0109(2)
H50 H 0.2495 0.9535 -0.0126
H51 H 0.1792 0.9396 0.0560
H52 H 0.1190 0.9664 -0.0084
C39 C 0.5651(2) 0.5581(2) 0.19193(14)
H53 H 0.6360 0.5166 0.1893
H54 H 0.5802 0.6256 0.1826
C40 C 0.5075(2) 0.5388(2) 0.26086(13)
C41 C 0.5305(2) 0.4498(2) 0.30061(14)
H55 H 0.5839 0.4023 0.2851
C42 C 0.4753(2) 0.4302(2) 0.36323(14)
C43 C 0.3943(2) 0.5004(2) 0.38720(13)
C44 C 0.3738(2) 0.5908(2) 0.34846(14)
H56 H 0.3220 0.6390 0.3644
C45 C 0.4300(2) 0.6101(2) 0.28598(14)
C46 C 0.6022(3) 0.2897(2) 0.39546(17)
H57 H 0.6589 0.3334 0.3907
H58 H 0.6094 0.2591 0.3561
C47 C 0.6172(3) 0.2130(2) 0.45444(18)
H59 H 0.6867 0.1713 0.4466
H60 H 0.5571 0.1725 0.4601
C48 C 0.6185(3) 0.2546(3) 0.51662(19)
H61 H 0.6796 0.2926 0.5121
H62 H 0.6271 0.2022 0.5526
H63 H 0.5498 0.2956 0.5250
C49 C 0.3580(3) 0.7811(2) 0.27340(17)
H64 H 0.3919 0.7878 0.3122
H65 H 0.2800 0.7734 0.2861
C50 C 0.3685(3) 0.8704(2) 0.22201(18)
H66 H 0.3334 0.8625 0.1839
H67 H 0.3287 0.9273 0.2395
C51 C 0.4829(5) 0.8875(3) 0.2014(3)
H68 H 0.4841 0.9474 0.1712
H69 H 0.5211 0.8342 0.1803
H70 H 0.5193 0.8924 0.2391
C52 C 0.3278(2) 0.4770(2) 0.45257(14)
H71 H 0.3057 0.5366 0.4717
H72 H 0.3741 0.4323 0.4820
C53 C 0.2244(2) 0.43116(19) 0.44607(12)
C54 C 0.2274(2) 0.33007(19) 0.45238(13)
H73 H 0.2930 0.2903 0.4621
C55 C 0.1341(2) 0.28727(19) 0.44445(13)
C56 C 0.0338(2) 0.34637(19) 0.43189(12)
C57 C 0.0317(2) 0.44769(19) 0.42568(12)
H74 H -0.0344 0.4876 0.4175
C58 C 0.1250(2) 0.49016(19) 0.43134(13)
C59 C 0.2329(3) 0.1255(2) 0.4636(2)
H75 H 0.2556 0.1370 0.5047
H76 H 0.2923 0.1392 0.4291
C60 C 0.2121(4) 0.0233(3) 0.4689(3)
H77 H 0.2798 -0.0183 0.4801
H78 H 0.1554 0.0108 0.5053
C61 C 0.1803(7) -0.0042(5) 0.4172(4)
H79 H 0.1402 0.0508 0.3923
H80 H 0.1329 -0.0547 0.4312
H81 H 0.2446 -0.0288 0.3904
C62 C 0.0300(2) 0.65064(19) 0.40206(14)
H82 H -0.0343 0.6399 0.4336
H83 H 0.0150 0.6352 0.3603
C63 C 0.0522(3) 0.7561(2) 0.39457(15)
H84 H 0.1180 0.7655 0.3640
H85 H 0.0665 0.7709 0.4367
C64 C -0.0465(3) 0.8253(2) 0.36964(19)
H86 H -0.0565 0.8147 0.3262
H87 H -0.0329 0.8917 0.3685
H88 H -0.1126 0.8133 0.3985
C65 C -0.0710(2) 0.30356(19) 0.42415(13)
H89 H -0.0657 0.2359 0.4450
H90 H -0.1351 0.3394 0.4459
C66? C 0.1159(9) -0.0137(7) 0.4923(5)
H91? H 0.2299 0.0064 0.4249
H92? H 0.2684 -0.0149 0.4949
H93? H 0.0637 0.0038 0.4599
H94? H 0.1302 -0.0836 0.5020
H95? H 0.0854 0.0126 0.5316
loop_
_geom_bond_atom_site_label_1
_geom_bond_atom_site_label_2
_geom_bond_site_symmetry_1
_geom_bond_site_symmetry_2
O1 C2 1_555 1_555
O2 C5 1_555 1_555
O3 C16 1_555 1_555
O4 C19 1_555 1_555
O5 C29 1_555 1_555
O6 C32 1_555 1_555
O7 C42 1_555 1_555
O8 C55 1_555 1_555
O9 C58 1_555 1_555
O10 C45 1_555 1_555
C1 H1 1_555 1_555
H2 C1 1_555 1_555
H3 C1 1_555 1_555
C2 C3 1_555 1_555
C3 H4 1_555 1_555
C4 C3 1_555 1_555
C5 C4 1_555 1_555
C6 C5 1_555 1_555
H5 C6 1_555 1_555
C7 C2 1_555 1_555
C8 O1 1_555 1_555
H6 C8 1_555 1_555
H7 C8 1_555 1_555
C9 C1 1_555 1_555
H8 C9 1_555 1_555
H9 C9 1_555 1_555
C10 O2 1_555 1_555
H10 C10 1_555 1_555
H11 C10 1_555 1_555
C11 C10 1_555 1_555
H12 C11 1_555 1_555
H13 C11 1_555 1_555
C12 C11 1_555 1_555
H14 C12 1_555 1_555
H15 C12 1_555 1_555
H16 C12 1_555 1_555
C13 C7 1_555 1_555
H17 C13 1_555 1_555
H18 C13 1_555 1_555
C14 C13 1_555 1_555
C15 C14 1_555 1_555
H19 C15 1_555 1_555
C16 C15 1_555 1_555
C17 C16 1_555 1_555
C18 C17 1_555 1_555
H20 C18 1_555 1_555
C19 C14 1_555 1_555
C20 O3 1_555 1_555
H21 C20 1_555 1_555
H22 C20 1_555 1_555
C21 C20 1_555 1_555
H23 C21 1_555 1_555
H24 C21 1_555 1_555
C22 C21 1_555 1_555
H25 C22 1_555 1_555
H26 C22 1_555 1_555
H27 C22 1_555 1_555
C23 O4 1_555 1_555
H28 C23 1_555 1_555
H29 C23 1_555 1_555
C24 C23 1_555 1_555
H30 C24 1_555 1_555
H31 C24 1_555 1_555
C25 C24 1_555 1_555
H32 C25 1_555 1_555
H33 C25 1_555 1_555
H34 C25 1_555 1_555
C26 C17 1_555 1_555
H35 C26 1_555 1_555
H36 C26 1_555 1_555
C27 C26 1_555 1_555
C28 C27 1_555 1_555
H37 C28 1_555 1_555
C29 C28 1_555 1_555
C30 C29 1_555 1_555
C31 C30 1_555 1_555
H38 C31 1_555 1_555
C32 C27 1_555 1_555
C33 O5 1_555 1_555
H39 C33 1_555 1_555
H40 C33 1_555 1_555
C34 C33 1_555 1_555
H41 C34 1_555 1_555
H42 C34 1_555 1_555
C35 C34 1_555 1_555
H43 C35 1_555 1_555
H44 C35 1_555 1_555
H45 C35 1_555 1_555
C36 O6 1_555 1_555
H46 C36 1_555 1_555
H47 C36 1_555 1_555
C37 C36 1_555 1_555
H48 C37 1_555 1_555
H49 C37 1_555 1_555
C38 C37 1_555 1_555
H50 C38 1_555 1_555
H51 C38 1_555 1_555
H52 C38 1_555 1_555
C39 C30 1_555 1_555
H53 C39 1_555 1_555
H54 C39 1_555 1_555
C40 C39 1_555 1_555
C41 C40 1_555 1_555
H55 C41 1_555 1_555
C42 C41 1_555 1_555
C43 C42 1_555 1_555
C44 C43 1_555 1_555
H56 C44 1_555 1_555
C45 C40 1_555 1_555
C46 O7 1_555 1_555
H57 C46 1_555 1_555
H58 C46 1_555 1_555
C47 C46 1_555 1_555
H59 C47 1_555 1_555
H60 C47 1_555 1_555
C48 C47 1_555 1_555
H61 C48 1_555 1_555
H62 C48 1_555 1_555
H63 C48 1_555 1_555
C49 O10 1_555 1_555
H64 C49 1_555 1_555
H65 C49 1_555 1_555
C50 C49 1_555 1_555
H66 C50 1_555 1_555
H67 C50 1_555 1_555
C51 C50 1_555 1_555
H68 C51 1_555 1_555
H69 C51 1_555 1_555
H70 C51 1_555 1_555
C52 C43 1_555 1_555
H71 C52 1_555 1_555
H72 C52 1_555 1_555
C53 C52 1_555 1_555
C54 C53 1_555 1_555
H73 C54 1_555 1_555
C55 C54 1_555 1_555
C56 C55 1_555 1_555
C57 C56 1_555 1_555
H74 C57 1_555 1_555
C58 C53 1_555 1_555
C59 O8 1_555 1_555
H75 C59 1_555 1_555
H76 C59 1_555 1_555
C60 C59 1_555 1_555
H77 C60 1_555 1_555
H78 C60 1_555 1_555
C61 C60 1_555 1_555
H79 C61 1_555 1_555
H80 C61 1_555 1_555
H81 C61 1_555 1_555
C62 O9 1_555 1_555
H82 C62 1_555 1_555
H83 C62 1_555 1_555
C63 C62 1_555 1_555
H84 C63 1_555 1_555
H85 C63 1_555 1_555
C64 C63 1_555 1_555
H86 C64 1_555 1_555
H87 C64 1_555 1_555
H88 C64 1_555 1_555
C65 C4 1_555 1_555
H89 C65 1_555 1_555
H90 C65 1_555 1_555
C6 C7 1_555 1_555
C8 C9 1_555 1_555
C18 C19 1_555 1_555
C31 C32 1_555 1_555
C44 C45 1_555 1_555
C56 C65 1_555 1_555
C57 C58 1_555 1_555

#END
