
#######################################################################
#
#                 Cambridge Crystallographic Data Centre
#                                CCDC 
#
#######################################################################
#
# If this CIF has been generated from an entry in the Cambridge 
# Structural Database, then it will include bibliographic, chemical, 
# crystal, experimental, refinement or atomic coordinate data resulting 
# from the CCDC's data processing and validation procedures.
#
#######################################################################

data_NEDSUN
_chemical_formula_moiety         'C13 H16 Br1 N2 O2'
_chemical_name_systematic        
'2-(4-bromophenyl)-4,4,5,5-tetramethyl-1-oxoimidazolin-3-oxide-1-oxyl radical'
_symmetry_cell_setting           monoclinic
_symmetry_space_group_name_H-M   'P 21/n'
_symmetry_Int_Tables_number      14
_space_group_name_Hall           '-P 2yn'
loop_
_symmetry_equiv_pos_site_id
_symmetry_equiv_pos_as_xyz
1 x,y,z
2 1/2-x,1/2+y,1/2-z
3 -x,-y,-z
4 1/2+x,1/2-y,1/2+z
_cell_length_a                   15.423(4)
_cell_length_b                   10.866(3)
_cell_length_c                   16.096(4)
_cell_angle_alpha                90
_cell_angle_beta                 97.741(3)
_cell_angle_gamma                90
_cell_volume                     2672.89
_exptl_crystal_colour            blue
_exptl_crystal_description       block
_cell_formula_units_Z            8
_chemical_properties_physical    'Heat-sensitive, Oxygen-sensitive'
_exptl_crystal_recrystallization_method dichloromethane
_exptl_crystal_preparation       Conductivity
loop_
_atom_site_label
_atom_site_type_symbol
_atom_site_fract_x
_atom_site_fract_y
_atom_site_fract_z
Br1 Br 0.15684(2) 0.32092(2) 1.01857(2)
C1 C 0.26384(10) 0.31175(15) 0.97235(10)
C2 C 0.28915(11) 0.41091(16) 0.92713(10)
H1 H 0.2534(14) 0.4784(19) 0.9164(13)
C3 C 0.36819(11) 0.40614(15) 0.89554(10)
H2 H 0.3866(14) 0.476(2) 0.8657(14)
C4 C 0.42230(10) 0.30180(14) 0.90862(9)
C5 C 0.39357(10) 0.20148(15) 0.95232(10)
H3 H 0.4276(13) 0.1342(18) 0.9608(12)
C6 C 0.31465(11) 0.20701(15) 0.98452(10)
H4 H 0.2975(13) 0.1422(18) 1.0142(12)
C7 C 0.50744(10) 0.29940(14) 0.87849(9)
N1 N 0.56052(9) 0.19979(12) 0.87675(9)
N2 N 0.54932(8) 0.39743(12) 0.85026(8)
O1 O 0.54276(9) 0.08839(11) 0.89453(9)
O2 O 0.52290(8) 0.50931(10) 0.84567(9)
C8 C 0.65131(10) 0.23628(15) 0.86248(10)
C9 C 0.63216(10) 0.36092(15) 0.81666(9)
C10 C 0.69119(13) 0.13813(17) 0.81227(13)
H5 H 0.7051(15) 0.065(2) 0.8441(14)
H6 H 0.7423(17) 0.166(2) 0.7963(14)
H7 H 0.6506(15) 0.119(2) 0.7599(14)
C11 C 0.70382(12) 0.25035(19) 0.94958(11)
H8 H 0.6796(15) 0.314(2) 0.9832(14)
H9 H 0.7620(15) 0.271(2) 0.9436(13)
H10 H 0.7018(14) 0.173(2) 0.9786(13)
C12 C 0.70115(11) 0.45962(16) 0.83827(12)
H11 H 0.6817(14) 0.534(2) 0.8079(13)
H12 H 0.7553(14) 0.4331(19) 0.8261(12)
H13 H 0.7063(14) 0.480(2) 0.8960(15)
C13 C 0.60939(12) 0.34766(18) 0.72143(10)
H14 H 0.5656(13) 0.2827(18) 0.7060(12)
H15 H 0.6613(14) 0.3245(18) 0.6976(13)
H16 H 0.5867(14) 0.427(2) 0.6990(13)
Br2 Br 0.62612(2) -0.49404(2) 0.46986(2)
C14 C 0.60812(10) -0.33780(14) 0.41713(10)
C15 C 0.56545(10) -0.24767(15) 0.45703(10)
H17 H 0.5465(12) -0.2617(18) 0.5103(12)
C16 C 0.55119(10) -0.13343(15) 0.41959(10)
H18 H 0.5213(12) -0.0730(18) 0.4470(11)
C17 C 0.57956(9) -0.10927(14) 0.34212(9)
C18 C 0.62400(10) -0.20124(15) 0.30364(10)
H19 H 0.6439(12) -0.1843(16) 0.2526(12)
C19 C 0.63861(10) -0.31611(15) 0.34111(11)
H20 H 0.6697(13) -0.3764(19) 0.3164(12)
C20 C 0.56232(10) 0.01084(14) 0.30216(10)
N3 N 0.61339(8) 0.06749(12) 0.25208(8)
N4 N 0.49265(9) 0.08201(12) 0.31012(8)
O3 O 0.68589(8) 0.02672(11) 0.23226(8)
O4 O 0.42998(8) 0.05676(12) 0.35256(8)
C21 C 0.58046(11) 0.19364(14) 0.22472(10)
C22 C 0.48961(10) 0.19735(14) 0.25823(10)
C23 C 0.57647(13) 0.20053(19) 0.12950(11)
H21 H 0.6360(16) 0.189(2) 0.1172(14)
H22 H 0.5540(14) 0.279(2) 0.1113(13)
H23 H 0.5404(15) 0.134(2) 0.1016(14)
C24 C 0.64694(12) 0.28651(17) 0.26634(13)
H24 H 0.6547(13) 0.2786(19) 0.3296(13)
H25 H 0.6279(14) 0.368(2) 0.2501(13)
H26 H 0.6981(15) 0.272(2) 0.2477(13)
C25 C 0.47695(12) 0.30589(16) 0.31541(11)
H27 H 0.4189(14) 0.2993(18) 0.3337(12)
H28 H 0.4787(13) 0.379(2) 0.2836(13)
H29 H 0.5218(14) 0.3110(19) 0.3639(13)
C26 C 0.41060(11) 0.18677(16) 0.19028(11)
H30 H 0.4136(12) 0.1168(19) 0.1547(12)
H31 H 0.4059(13) 0.261(2) 0.1558(12)
H32 H 0.3579(13) 0.1833(17) 0.2184(12)
loop_
_geom_bond_atom_site_label_1
_geom_bond_atom_site_label_2
_geom_bond_site_symmetry_1
_geom_bond_site_symmetry_2
Br1 C1 1_555 1_555
C1 C2 1_555 1_555
C2 H1 1_555 1_555
C3 C2 1_555 1_555
H2 C3 1_555 1_555
C4 C3 1_555 1_555
C5 C4 1_555 1_555
H3 C5 1_555 1_555
C6 C1 1_555 1_555
H4 C6 1_555 1_555
C7 C4 1_555 1_555
N1 C7 1_555 1_555
N2 C7 1_555 1_555
O1 N1 1_555 1_555
O2 N2 1_555 1_555
C8 N1 1_555 1_555
C9 N2 1_555 1_555
C10 C8 1_555 1_555
H5 C10 1_555 1_555
H6 C10 1_555 1_555
H7 C10 1_555 1_555
C11 C8 1_555 1_555
H8 C11 1_555 1_555
H9 C11 1_555 1_555
H10 C11 1_555 1_555
C12 C9 1_555 1_555
H11 C12 1_555 1_555
H12 C12 1_555 1_555
H13 C12 1_555 1_555
C13 C9 1_555 1_555
H14 C13 1_555 1_555
H15 C13 1_555 1_555
H16 C13 1_555 1_555
Br2 C14 1_555 1_555
C14 C15 1_555 1_555
C15 H17 1_555 1_555
C16 C15 1_555 1_555
H18 C16 1_555 1_555
C17 C16 1_555 1_555
C18 C17 1_555 1_555
H19 C18 1_555 1_555
C19 C14 1_555 1_555
H20 C19 1_555 1_555
C20 C17 1_555 1_555
N3 C20 1_555 1_555
N4 C20 1_555 1_555
O3 N3 1_555 1_555
O4 N4 1_555 1_555
C21 N3 1_555 1_555
C22 N4 1_555 1_555
C23 C21 1_555 1_555
H21 C23 1_555 1_555
H22 C23 1_555 1_555
H23 C23 1_555 1_555
C24 C21 1_555 1_555
H24 C24 1_555 1_555
H25 C24 1_555 1_555
H26 C24 1_555 1_555
C25 C22 1_555 1_555
H27 C25 1_555 1_555
H28 C25 1_555 1_555
H29 C25 1_555 1_555
C26 C22 1_555 1_555
H30 C26 1_555 1_555
H31 C26 1_555 1_555
H32 C26 1_555 1_555
C5 C6 1_555 1_555
C8 C9 1_555 1_555
C18 C19 1_555 1_555
C21 C22 1_555 1_555

#END
