
#######################################################################
#
#                 Cambridge Crystallographic Data Centre
#                                CCDC 
#
#######################################################################
#
# If this CIF has been generated from an entry in the Cambridge 
# Structural Database, then it will include bibliographic, chemical, 
# crystal, experimental, refinement or atomic coordinate data resulting 
# from the CCDC's data processing and validation procedures.
#
#######################################################################

data_NEDSAR01
_chemical_formula_moiety         'C19 H13 N5 O6,C2 H6 O1 S1'
_chemical_name_systematic        
"N,N'-bis(4-nitrophenyl)pyridine-2,6-dicarboxamide dimethyl sulfoxide solvate"
_symmetry_cell_setting           triclinic
_symmetry_space_group_name_H-M   'P -1'
_symmetry_Int_Tables_number      2
_space_group_name_Hall           '-P 1'
loop_
_symmetry_equiv_pos_site_id
_symmetry_equiv_pos_as_xyz
1 x,y,z
2 -x,-y,-z
_cell_length_a                   10.0218(3)
_cell_length_b                   11.1125(3)
_cell_length_c                   21.8751(6)
_cell_angle_alpha                99.149(2)
_cell_angle_beta                 94.159(2)
_cell_angle_gamma                112.463(2)
_cell_volume                     2198.85
_exptl_crystal_colour            colorless
_cell_formula_units_Z            4
loop_
_atom_site_label
_atom_site_type_symbol
_atom_site_fract_x
_atom_site_fract_y
_atom_site_fract_z
O1 O 0.0226(3) 0.0303(3) -0.21431(11)
O2 O -0.0194(4) -0.0920(3) -0.14495(14)
O3 O 0.4015(3) 0.6366(2) -0.02377(11)
O4 O 0.5734(3) 0.7610(3) 0.30209(11)
O5 O 0.2128(3) 0.1223(3) 0.41343(13)
O6 O 0.3685(3) 0.2857(3) 0.48338(12)
N1 N 0.0314(3) 0.0164(3) -0.15992(14)
N2 N 0.3120(3) 0.4705(3) 0.03110(12)
H1 H 0.3045 0.4558 0.0693
N3 N 0.4461(3) 0.6487(3) 0.13936(13)
N4 N 0.4137(3) 0.5558(3) 0.24768(12)
H2 H 0.3653 0.5135 0.2102
N5 N 0.3038(3) 0.2376(3) 0.42958(14)
C1 C 0.1070(4) 0.1340(3) -0.11029(15)
C2 C 0.1703(4) 0.2553(3) -0.12687(15)
H3 H 0.1660 0.2614 -0.1697
C3 C 0.2406(4) 0.3691(3) -0.08055(15)
H4 H 0.2852 0.4533 -0.0916
C4 C 0.2454(3) 0.3591(3) -0.01794(14)
C5 C 0.1830(4) 0.2347(3) -0.00172(15)
H5 H 0.1881 0.2279 0.0410
C6 C 0.1132(4) 0.1209(3) -0.04834(16)
H6 H 0.0707 0.0359 -0.0379
C7 C 0.3867(4) 0.5985(3) 0.02595(15)
C8 C 0.4556(4) 0.6953(3) 0.08624(15)
C9 C 0.5285(4) 0.8293(3) 0.08491(16)
H7 H 0.5327 0.8589 0.0464
C10 C 0.5947(4) 0.9184(4) 0.14086(17)
H8 H 0.6451 1.0106 0.1416
C11 C 0.5859(4) 0.8706(4) 0.19563(16)
H9 H 0.6312 0.9296 0.2347
C12 C 0.5103(4) 0.7356(4) 0.19307(15)
C13 C 0.5032(4) 0.6858(4) 0.25330(16)
C14 C 0.3899(4) 0.4811(3) 0.29523(15)
C15 C 0.2893(4) 0.3486(3) 0.27854(16)
H10 H 0.2396 0.3137 0.2369
C16 C 0.2618(4) 0.2686(3) 0.32203(16)
H11 H 0.1941 0.1785 0.3106
C17 C 0.3344(4) 0.3212(3) 0.38273(16)
C18 C 0.4346(4) 0.4517(4) 0.40047(16)
H12 H 0.4841 0.4853 0.4422
C19 C 0.4622(4) 0.5333(3) 0.35698(15)
H13 H 0.5294 0.6236 0.3688
O7 O 0.2540(3) -0.0431(3) 0.02973(12)
O8 O 0.1919(3) -0.1587(3) 0.10148(12)
O9 O 0.7485(3) 0.5396(3) 0.21253(12)
O10 O 0.9255(3) 0.6678(2) 0.53875(11)
O11 O 0.6006(3) 0.0287(3) 0.65037(13)
O12 O 0.7457(3) 0.1965(3) 0.72090(12)
N6 N 0.2616(3) -0.0542(3) 0.08487(14)
N7 N 0.6523(3) 0.3769(3) 0.26790(12)
H14 H 0.6593 0.3590 0.3055
N8 N 0.8062(3) 0.5521(3) 0.37561(12)
N9 N 0.7977(3) 0.4561(3) 0.48245(12)
H15 H 0.7632 0.4099 0.4440
N10 N 0.6845(4) 0.1460(3) 0.66683(14)
C20 C 0.3600(4) 0.0603(3) 0.13238(15)
C21 C 0.4434(4) 0.1741(4) 0.11325(16)
H16 H 0.4339 0.1794 0.0703
C22 C 0.5420(4) 0.2815(4) 0.15751(15)
H17 H 0.6004 0.3610 0.1450
C23 C 0.5551(4) 0.2724(3) 0.22058(15)
C24 C 0.4661(4) 0.1559(3) 0.23820(15)
H18 H 0.4734 0.1504 0.2811
C25 C 0.3677(4) 0.0484(3) 0.19473(15)
H19 H 0.3075 -0.0308 0.2070
C26 C 0.7365(4) 0.5022(3) 0.26228(15)
C27 C 0.8160(4) 0.5980(3) 0.32241(15)
C28 C 0.8941(4) 0.7301(3) 0.32024(16)
H20 H 0.9008 0.7581 0.2813
C29 C 0.9623(4) 0.8203(3) 0.37564(17)
H21 H 1.0159 0.9116 0.3756
C30 C 0.9509(4) 0.7750(3) 0.43127(16)
H22 H 0.9942 0.8347 0.4703
C31 C 0.8745(4) 0.6402(3) 0.42853(15)
C32 C 0.8687(4) 0.5899(3) 0.48891(15)
C33 C 0.7734(4) 0.3836(3) 0.53065(15)
C34 C 0.6715(4) 0.2527(4) 0.51494(16)
H23 H 0.6215 0.2168 0.4734
C35 C 0.6427(4) 0.1745(4) 0.55953(17)
H24 H 0.5748 0.0843 0.5487
C36 C 0.7140(4) 0.2290(4) 0.61987(15)
C37 C 0.8134(4) 0.3590(4) 0.63670(15)
H25 H 0.8599 0.3951 0.6788
C38 C 0.8450(4) 0.4366(3) 0.59184(15)
H26 H 0.9153 0.5258 0.6027
S1 S 0.04011(10) 0.39753(9) 0.15320(4)
O13 O 0.1818(3) 0.3886(2) 0.14068(10)
C39 C -0.0858(5) 0.3160(5) 0.0829(2)
H27 H -0.0444 0.3553 0.0480
H28 H -0.1774 0.3266 0.0876
H29 H -0.1048 0.2212 0.0745
C40 C 0.0623(5) 0.5627(4) 0.1507(2)
H30 H 0.1409 0.6249 0.1837
H31 H -0.0289 0.5728 0.1573
H32 H 0.0870 0.5818 0.1098
S2 S 0.72333(11) 0.12905(9) 0.33757(4)
O14 O 0.6957(3) 0.2444(2) 0.37024(11)
C41 C 0.7687(5) 0.0513(4) 0.3967(2)
H33 H 0.8464 0.1185 0.4285
H34 H 0.8023 -0.0160 0.3777
H35 H 0.6823 0.0090 0.4162
C42 C 0.8994(5) 0.1987(5) 0.3144(2)
H36 H 0.8984 0.2572 0.2854
H37 H 0.9248 0.1271 0.2936
H38 H 0.9719 0.2501 0.3514
loop_
_geom_bond_atom_site_label_1
_geom_bond_atom_site_label_2
_geom_bond_site_symmetry_1
_geom_bond_site_symmetry_2
O1 N1 1_555 1_555
O2 N1 1_555 1_555
O3 C7 1_555 1_555
O4 C13 1_555 1_555
O5 N5 1_555 1_555
O6 N5 1_555 1_555
N1 C1 1_555 1_555
N2 H1 1_555 1_555
N3 C8 1_555 1_555
N4 H2 1_555 1_555
N5 C17 1_555 1_555
C1 C2 1_555 1_555
C2 H3 1_555 1_555
C3 C2 1_555 1_555
H4 C3 1_555 1_555
C4 N2 1_555 1_555
C5 C4 1_555 1_555
H5 C5 1_555 1_555
C6 C1 1_555 1_555
H6 C6 1_555 1_555
C7 N2 1_555 1_555
C8 C7 1_555 1_555
C9 C8 1_555 1_555
H7 C9 1_555 1_555
C10 C9 1_555 1_555
H8 C10 1_555 1_555
C11 C10 1_555 1_555
H9 C11 1_555 1_555
C12 N3 1_555 1_555
C13 N4 1_555 1_555
C14 N4 1_555 1_555
C15 C14 1_555 1_555
H10 C15 1_555 1_555
C16 C15 1_555 1_555
H11 C16 1_555 1_555
C17 C16 1_555 1_555
C18 C17 1_555 1_555
H12 C18 1_555 1_555
C19 C14 1_555 1_555
H13 C19 1_555 1_555
O7 N6 1_555 1_555
O8 N6 1_555 1_555
O9 C26 1_555 1_555
O10 C32 1_555 1_555
O11 N10 1_555 1_555
O12 N10 1_555 1_555
N6 C20 1_555 1_555
N7 H14 1_555 1_555
N8 C27 1_555 1_555
N9 H15 1_555 1_555
N10 C36 1_555 1_555
C20 C21 1_555 1_555
C21 H16 1_555 1_555
C22 C21 1_555 1_555
H17 C22 1_555 1_555
C23 N7 1_555 1_555
C24 C23 1_555 1_555
H18 C24 1_555 1_555
C25 C20 1_555 1_555
H19 C25 1_555 1_555
C26 N7 1_555 1_555
C27 C26 1_555 1_555
C28 C27 1_555 1_555
H20 C28 1_555 1_555
C29 C28 1_555 1_555
H21 C29 1_555 1_555
C30 C29 1_555 1_555
H22 C30 1_555 1_555
C31 N8 1_555 1_555
C32 N9 1_555 1_555
C33 N9 1_555 1_555
C34 C33 1_555 1_555
H23 C34 1_555 1_555
C35 C34 1_555 1_555
H24 C35 1_555 1_555
C36 C35 1_555 1_555
C37 C36 1_555 1_555
H25 C37 1_555 1_555
C38 C33 1_555 1_555
H26 C38 1_555 1_555
S1 O13 1_555 1_555
C39 S1 1_555 1_555
H27 C39 1_555 1_555
H28 C39 1_555 1_555
H29 C39 1_555 1_555
C40 S1 1_555 1_555
H30 C40 1_555 1_555
H31 C40 1_555 1_555
H32 C40 1_555 1_555
S2 O14 1_555 1_555
C41 S2 1_555 1_555
H33 C41 1_555 1_555
H34 C41 1_555 1_555
H35 C41 1_555 1_555
C42 S2 1_555 1_555
H36 C42 1_555 1_555
H37 C42 1_555 1_555
H38 C42 1_555 1_555
C3 C4 1_555 1_555
C5 C6 1_555 1_555
C11 C12 1_555 1_555
C12 C13 1_555 1_555
C18 C19 1_555 1_555
C22 C23 1_555 1_555
C24 C25 1_555 1_555
C30 C31 1_555 1_555
C31 C32 1_555 1_555
C37 C38 1_555 1_555

#END
