
#######################################################################
#
#                 Cambridge Crystallographic Data Centre
#                                CCDC 
#
#######################################################################
#
# If this CIF has been generated from an entry in the Cambridge 
# Structural Database, then it will include bibliographic, chemical, 
# crystal, experimental, refinement or atomic coordinate data resulting 
# from the CCDC's data processing and validation procedures.
#
#######################################################################

data_NEDSOH
_chemical_formula_moiety         'C17 H25 N2 O3'
_chemical_name_systematic        
'2-(4-(t-butoxy)phenyl)-4,4,5,5-tetramethyl-imidazolin-3-oxide-1-oxyl radical'
_symmetry_cell_setting           monoclinic
_symmetry_space_group_name_H-M   'P 21/n'
_symmetry_Int_Tables_number      14
_space_group_name_Hall           '-P 2yn'
loop_
_symmetry_equiv_pos_site_id
_symmetry_equiv_pos_as_xyz
1 x,y,z
2 1/2-x,1/2+y,1/2-z
3 -x,-y,-z
4 1/2+x,1/2-y,1/2+z
_cell_length_a                   13.256(2)
_cell_length_b                   9.9945(15)
_cell_length_c                   13.918(2)
_cell_angle_alpha                90
_cell_angle_beta                 114.513(2)
_cell_angle_gamma                90
_cell_volume                     1677.75
_exptl_crystal_colour            blue
_exptl_crystal_description       block
_cell_formula_units_Z            4
_chemical_properties_physical    'Heat-sensitive, Oxygen-sensitive'
_exptl_crystal_recrystallization_method dichloromethane
_exptl_crystal_preparation       Conductivity
loop_
_atom_site_label
_atom_site_type_symbol
_atom_site_fract_x
_atom_site_fract_y
_atom_site_fract_z
C1 C 0.24654(8) 0.48191(9) 0.97988(8)
C2 C 0.15610(8) 0.55437(10) 0.98047(8)
H1 H 0.0822(12) 0.5151(14) 0.9489(11)
C3 C 0.17119(8) 0.68223(10) 1.02398(8)
H2 H 0.1071(11) 0.7337(14) 1.0221(11)
C4 C 0.27736(8) 0.73783(10) 1.06905(8)
C5 C 0.36781(8) 0.66480(10) 1.07112(8)
H3 H 0.4436(12) 0.7026(15) 1.1027(12)
C6 C 0.35289(8) 0.53867(10) 1.02679(8)
H4 H 0.4141(12) 0.4896(15) 1.0252(12)
C7 C 0.23204(8) 0.35315(9) 0.92666(8)
N1 N 0.29854(7) 0.30503(8) 0.88253(7)
N2 N 0.15016(7) 0.26245(8) 0.91010(7)
O1 O 0.37966(6) 0.36620(8) 0.87397(7)
O2 O 0.07280(6) 0.27189(8) 0.94216(6)
C8 C 0.27357(8) 0.16176(10) 0.84965(8)
C9 C 0.15118(8) 0.15304(10) 0.83574(8)
C10 C 0.35428(10) 0.07821(12) 0.94186(10)
H5 H 0.4320(13) 0.1053(15) 0.9558(13)
H6 H 0.3446(14) -0.0174(17) 0.9217(13)
H7 H 0.3403(13) 0.0913(15) 1.0050(13)
C11 C 0.29187(11) 0.13523(12) 0.75077(10)
H8 H 0.2551(14) 0.2024(17) 0.6959(14)
H9 H 0.2658(14) 0.0435(17) 0.7260(13)
H10 H 0.3713(14) 0.1394(15) 0.7671(13)
C12 C 0.06828(9) 0.19562(12) 0.72546(9)
H11 H -0.0069(13) 0.2014(15) 0.7256(12)
H12 H 0.0661(13) 0.1262(15) 0.6736(13)
H13 H 0.0904(12) 0.2831(14) 0.6999(11)
C13 C 0.11799(10) 0.02012(11) 0.86664(11)
H14 H 0.1672(12) -0.0043(15) 0.9400(12)
H15 H 0.1239(13) -0.0508(16) 0.8183(13)
H16 H 0.0383(13) 0.0249(16) 0.8563(12)
O3 O 0.29508(6) 0.86801(7) 1.10460(6)
C14 C 0.31034(9) 0.89760(10) 1.21331(8)
C15 C 0.36666(10) 1.03365(11) 1.23398(10)
H17 H 0.4368(13) 1.0267(15) 1.2298(12)
H18 H 0.3784(13) 1.0679(16) 1.3046(13)
H19 H 0.3200(13) 1.1020(16) 1.1825(13)
C16 C 0.38358(10) 0.79353(12) 1.29060(9)
H20 H 0.3491(12) 0.7022(16) 1.2738(12)
H21 H 0.3931(13) 0.8184(16) 1.3618(14)
H22 H 0.4573(13) 0.7880(15) 1.2880(12)
C17 C 0.19699(10) 0.90604(12) 1.21592(10)
H23 H 0.1494(13) 0.9720(16) 1.1621(13)
H24 H 0.2045(14) 0.9346(17) 1.2869(14)
H25 H 0.1614(14) 0.8171(17) 1.2003(13)
loop_
_geom_bond_atom_site_label_1
_geom_bond_atom_site_label_2
_geom_bond_site_symmetry_1
_geom_bond_site_symmetry_2
C1 C2 1_555 1_555
C2 H1 1_555 1_555
C3 C2 1_555 1_555
H2 C3 1_555 1_555
C4 C3 1_555 1_555
C5 C4 1_555 1_555
H3 C5 1_555 1_555
C6 C1 1_555 1_555
H4 C6 1_555 1_555
C7 C1 1_555 1_555
N1 C7 1_555 1_555
N2 C7 1_555 1_555
O1 N1 1_555 1_555
O2 N2 1_555 1_555
C8 N1 1_555 1_555
C9 N2 1_555 1_555
C10 C8 1_555 1_555
H5 C10 1_555 1_555
H6 C10 1_555 1_555
H7 C10 1_555 1_555
C11 C8 1_555 1_555
H8 C11 1_555 1_555
H9 C11 1_555 1_555
H10 C11 1_555 1_555
C12 C9 1_555 1_555
H11 C12 1_555 1_555
H12 C12 1_555 1_555
H13 C12 1_555 1_555
C13 C9 1_555 1_555
H14 C13 1_555 1_555
H15 C13 1_555 1_555
H16 C13 1_555 1_555
O3 C4 1_555 1_555
C14 O3 1_555 1_555
C15 C14 1_555 1_555
H17 C15 1_555 1_555
H18 C15 1_555 1_555
H19 C15 1_555 1_555
C16 C14 1_555 1_555
H20 C16 1_555 1_555
H21 C16 1_555 1_555
H22 C16 1_555 1_555
C17 C14 1_555 1_555
H23 C17 1_555 1_555
H24 C17 1_555 1_555
H25 C17 1_555 1_555
C5 C6 1_555 1_555
C8 C9 1_555 1_555

#END
