
#######################################################################
#
#                 Cambridge Crystallographic Data Centre
#                                CCDC 
#
#######################################################################
#
# If this CIF has been generated from an entry in the Cambridge 
# Structural Database, then it will include bibliographic, chemical, 
# crystal, experimental, refinement or atomic coordinate data resulting 
# from the CCDC's data processing and validation procedures.
#
#######################################################################

data_NEDTAR
_chemical_formula_moiety         'C27 H24 N2 O1'
_chemical_name_systematic        
1,3,3,2'-Tetramethylspiro(indoline-2,3'-(3H)phenanthro(9,10-b)(1,4)oxazine)
_symmetry_cell_setting           monoclinic
_symmetry_space_group_name_H-M   'P 21/n'
_symmetry_Int_Tables_number      14
_space_group_name_Hall           '-P 2yn'
loop_
_symmetry_equiv_pos_site_id
_symmetry_equiv_pos_as_xyz
1 x,y,z
2 1/2-x,1/2+y,1/2-z
3 -x,-y,-z
4 1/2+x,1/2-y,1/2+z
_cell_length_a                   9.766(2)
_cell_length_b                   16.184(3)
_cell_length_c                   13.456(2)
_cell_angle_alpha                90
_cell_angle_beta                 100.82(2)
_cell_angle_gamma                90
_cell_volume                     2088.95
_exptl_crystal_colour            colorless
_exptl_crystal_description       prism
_chemical_melting_point          470-473K
_cell_formula_units_Z            4
_exptl_crystal_recrystallization_method 'ethanol petroleum ether'
loop_
_atom_site_label
_atom_site_type_symbol
_atom_site_fract_x
_atom_site_fract_y
_atom_site_fract_z
O1 O 0.09750(10) 0.05585(7) 0.78537(8)
N1 N 0.05330(13) 0.12477(8) 0.96501(9)
N2 N 0.27903(13) -0.02270(8) 0.87203(10)
C1 C 0.37149(15) -0.02173(10) 0.80343(12)
C2 C 0.4289(2) -0.08785(11) 0.76103(13)
H1 H 0.4074(2) -0.14197(11) 0.77560(13)
C3 C 0.5198(2) -0.07068(12) 0.69581(14)
H2 H 0.5601(2) -0.11413(12) 0.66631(14)
C4 C 0.5516(2) 0.00914(13) 0.6740(2)
H3 H 0.6120(2) 0.01916(13) 0.6296(2)
C5 C 0.4943(2) 0.07449(12) 0.71764(14)
H4 H 0.5165(2) 0.12852(12) 0.70328(14)
C6 C 0.4039(2) 0.05919(10) 0.78262(12)
C7 C 0.3319(2) 0.11701(10) 0.84429(12)
C8 C 0.4367(2) 0.14149(11) 0.94041(14)
H5 H 0.3925(2) 0.17834(11) 0.98055(14)
H6 H 0.5155(2) 0.16855(11) 0.92150(14)
H7 H 0.4674(2) 0.09281(11) 0.97900(14)
C9 C 0.2765(2) 0.19519(10) 0.78694(14)
H8 H 0.2320(2) 0.22948(10) 0.82971(14)
H9 H 0.2101(2) 0.18036(10) 0.72753(14)
H10 H 0.3524(2) 0.22489(10) 0.76752(14)
C10 C 0.21592(15) 0.05777(9) 0.87036(11)
C11 C 0.1599(2) 0.07817(10) 0.96619(12)
C12 C 0.2303(2) 0.04240(13) 1.06557(13)
H11 H 0.1832(2) 0.06082(13) 1.11809(13)
H12 H 0.3257(2) 0.06030(13) 1.08038(13)
H13 H 0.2271(2) -0.01683(13) 1.06181(13)
C13 C -0.02316(15) 0.15098(9) 0.87068(11)
C14 C -0.13107(15) 0.21260(10) 0.86777(12)
C15 C -0.1513(2) 0.25424(10) 0.95586(13)
H14 H -0.0947(2) 0.24154(10) 1.01758(13)
C16 C -0.2531(2) 0.31320(11) 0.9521(2)
H15 H -0.2650(2) 0.34033(11) 1.0108(2)
C17 C -0.3382(2) 0.33217(12) 0.8605(2)
H16 H -0.4071(2) 0.37218(12) 0.8580(2)
C18 C -0.3216(2) 0.29269(11) 0.7742(2)
H17 H -0.3802(2) 0.30610(11) 0.7135(2)
C19 C -0.2179(2) 0.23203(10) 0.77425(13)
C20 C -0.1985(2) 0.18868(10) 0.68303(12)
C21 C -0.2832(2) 0.20258(12) 0.58840(14)
H18 H -0.3518(2) 0.24309(12) 0.58218(14)
C22 C -0.2677(2) 0.15845(14) 0.50569(14)
H19 H -0.3272(2) 0.16821(14) 0.44429(14)
C23 C -0.1641(2) 0.09884(13) 0.51122(14)
H20 H -0.1545(2) 0.06881(13) 0.45402(14)
C24 C -0.0768(2) 0.08473(12) 0.60130(13)
H21 H -0.0057(2) 0.04594(12) 0.60491(13)
C25 C -0.0931(2) 0.12828(10) 0.68871(12)
C26 C -0.00492(15) 0.11337(10) 0.78424(12)
C27 C 0.1933(2) -0.09541(10) 0.87608(15)
H22 H 0.1358(2) -0.08737(10) 0.92586(15)
H23 H 0.2521(2) -0.14269(10) 0.89398(15)
H24 H 0.1352(2) -0.10426(10) 0.81106(15)
loop_
_geom_bond_atom_site_label_1
_geom_bond_atom_site_label_2
_geom_bond_site_symmetry_1
_geom_bond_site_symmetry_2
O1 C10 1_555 1_555
N1 C11 1_555 1_555
N2 C1 1_555 1_555
C1 C2 1_555 1_555
C2 H1 1_555 1_555
C3 C2 1_555 1_555
H2 C3 1_555 1_555
C4 C3 1_555 1_555
H3 C4 1_555 1_555
C5 C4 1_555 1_555
H4 C5 1_555 1_555
C6 C1 1_555 1_555
C7 C6 1_555 1_555
C8 C7 1_555 1_555
H5 C8 1_555 1_555
H6 C8 1_555 1_555
H7 C8 1_555 1_555
C9 C7 1_555 1_555
H8 C9 1_555 1_555
H9 C9 1_555 1_555
H10 C9 1_555 1_555
C10 N2 1_555 1_555
C11 C10 1_555 1_555
C12 C11 1_555 1_555
H11 C12 1_555 1_555
H12 C12 1_555 1_555
H13 C12 1_555 1_555
C13 N1 1_555 1_555
C14 C13 1_555 1_555
C15 C14 1_555 1_555
H14 C15 1_555 1_555
C16 C15 1_555 1_555
H15 C16 1_555 1_555
C17 C16 1_555 1_555
H16 C17 1_555 1_555
C18 C17 1_555 1_555
H17 C18 1_555 1_555
C19 C14 1_555 1_555
C20 C19 1_555 1_555
C21 C20 1_555 1_555
H18 C21 1_555 1_555
C22 C21 1_555 1_555
H19 C22 1_555 1_555
C23 C22 1_555 1_555
H20 C23 1_555 1_555
C24 C23 1_555 1_555
H21 C24 1_555 1_555
C25 C20 1_555 1_555
C26 O1 1_555 1_555
C27 N2 1_555 1_555
H22 C27 1_555 1_555
H23 C27 1_555 1_555
H24 C27 1_555 1_555
C5 C6 1_555 1_555
C7 C10 1_555 1_555
C13 C26 1_555 1_555
C18 C19 1_555 1_555
C24 C25 1_555 1_555
C25 C26 1_555 1_555

#END
