
#######################################################################
#
#                 Cambridge Crystallographic Data Centre
#                                CCDC 
#
#######################################################################
#
# If this CIF has been generated from an entry in the Cambridge 
# Structural Database, then it will include bibliographic, chemical, 
# crystal, experimental, refinement or atomic coordinate data resulting 
# from the CCDC's data processing and validation procedures.
#
#######################################################################

data_NEDXAX
_chemical_formula_moiety         'C26 H18 N4'
_chemical_name_systematic        
4,4',4'',4'''-Benzene-1,2,4,5-tetrayltetrapyridine
_symmetry_cell_setting           monoclinic
_symmetry_space_group_name_H-M   'P 21/c'
_symmetry_Int_Tables_number      14
_space_group_name_Hall           '-P 2ybc'
loop_
_symmetry_equiv_pos_site_id
_symmetry_equiv_pos_as_xyz
1 x,y,z
2 -x,1/2+y,1/2-z
3 -x,-y,-z
4 x,1/2-y,1/2+z
_cell_length_a                   5.9714(4)
_cell_length_b                   11.4212(8)
_cell_length_c                   13.9961(10)
_cell_angle_alpha                90
_cell_angle_beta                 90.3120(10)
_cell_angle_gamma                90
_cell_volume                     954.528
_exptl_crystal_colour            brown
_exptl_crystal_description       column
_cell_formula_units_Z            2
loop_
_atom_site_label
_atom_site_type_symbol
_atom_site_fract_x
_atom_site_fract_y
_atom_site_fract_z
N1 N 1.0903(3) 0.71480(15) 0.72457(12)
N2 N 0.4748(3) 0.52553(13) 0.37632(12)
C1 C 1.1478(3) 0.82077(19) 0.69228(15)
C2 C 1.0123(3) 0.89005(16) 0.63501(13)
C3 C 0.8003(3) 0.84905(14) 0.60835(12)
C4 C 0.7402(3) 0.73887(14) 0.64139(13)
C5 C 0.8875(4) 0.67656(15) 0.69835(14)
C6 C 0.6459(3) 0.92381(14) 0.55042(11)
C7 C 0.5079(3) 0.88033(13) 0.47692(12)
C8 C 0.3656(3) 0.95688(14) 0.42806(12)
C9 C 0.6613(3) 0.58849(17) 0.36742(14)
C10 C 0.6836(3) 0.70194(15) 0.40130(13)
C11 C 0.5040(3) 0.75527(13) 0.44589(11)
C12 C 0.3104(3) 0.68928(15) 0.45579(13)
C13 C 0.3051(3) 0.57628(15) 0.42135(14)
H1 H 0.2678 0.9184 0.3751
H2 H 0.1919 0.7226 0.4837
H3 H 0.8347 0.7408 0.3959
H4 H 0.1665 0.5260 0.4332
H5 H 0.8025 0.5504 0.3289
H6 H 1.3061 0.8520 0.7122
H7 H 0.5896 0.7089 0.6236
H8 H 1.0541 0.9765 0.6133
H9 H 0.8394 0.5944 0.7187
N1B N -0.0903(3) 1.28520(15) 0.27543(12)
N2B N 0.5252(3) 1.47447(13) 0.62368(12)
C1B C -0.1478(3) 1.17923(19) 0.30772(15)
C2B C -0.0123(3) 1.10995(16) 0.36499(13)
C3B C 0.1997(3) 1.15095(14) 0.39165(12)
C4B C 0.2598(3) 1.26113(14) 0.35861(13)
C5B C 0.1125(4) 1.32344(15) 0.30165(14)
C6B C 0.3541(3) 1.07619(14) 0.44958(11)
C7B C 0.4921(3) 1.11967(13) 0.52308(12)
C8B C 0.6344(3) 1.04312(14) 0.57194(12)
C9B C 0.3387(3) 1.41151(17) 0.63258(14)
C10B C 0.3164(3) 1.29806(15) 0.59870(13)
C11B C 0.4960(3) 1.24473(13) 0.55411(11)
C12B C 0.6896(3) 1.31072(15) 0.54421(13)
C13B C 0.6949(3) 1.42372(15) 0.57865(14)
H1B H 0.7322 1.0816 0.6249
H2B H 0.8081 1.2774 0.5163
H3B H 0.1653 1.2592 0.6041
H4B H 0.8335 1.4740 0.5668
H5B H 0.1975 1.4496 0.6711
H6B H -0.3061 1.1480 0.2878
H7B H 0.4104 1.2911 0.3764
H8B H -0.0541 1.0235 0.3867
H9B H 0.1606 1.4056 0.2813
loop_
_geom_bond_atom_site_label_1
_geom_bond_atom_site_label_2
_geom_bond_site_symmetry_1
_geom_bond_site_symmetry_2
N1 C1 1_555 1_555
N2 C9 1_555 1_555
C1 C2 1_555 1_555
C2 C3 1_555 1_555
C3 C4 1_555 1_555
C4 C5 1_555 1_555
C5 N1 1_555 1_555
C6 C3 1_555 1_555
C7 C6 1_555 1_555
C8 C7 1_555 1_555
C9 C10 1_555 1_555
C10 C11 1_555 1_555
C11 C7 1_555 1_555
C12 C11 1_555 1_555
C13 N2 1_555 1_555
H1 C8 1_555 1_555
H2 C12 1_555 1_555
H3 C10 1_555 1_555
H4 C13 1_555 1_555
H5 C9 1_555 1_555
H6 C1 1_555 1_555
H7 C4 1_555 1_555
H8 C2 1_555 1_555
H9 C5 1_555 1_555
N1B C1B 1_555 1_555
N2B C9B 1_555 1_555
C1B C2B 1_555 1_555
C2B C3B 1_555 1_555
C3B C4B 1_555 1_555
C4B C5B 1_555 1_555
C5B N1B 1_555 1_555
C6B C8 1_555 1_555
C7B C6B 1_555 1_555
C8B C6 1_555 1_555
C9B C10B 1_555 1_555
C10B C11B 1_555 1_555
C11B C7B 1_555 1_555
C12B C11B 1_555 1_555
C13B N2B 1_555 1_555
H1B C8B 1_555 1_555
H2B C12B 1_555 1_555
H3B C10B 1_555 1_555
H4B C13B 1_555 1_555
H5B C9B 1_555 1_555
H6B C1B 1_555 1_555
H7B C4B 1_555 1_555
H8B C2B 1_555 1_555
H9B C5B 1_555 1_555
C12 C13 1_555 1_555
C3B C6B 1_555 1_555
C7B C8B 1_555 1_555
C12B C13B 1_555 1_555

#END
