
#######################################################################
#
#                 Cambridge Crystallographic Data Centre
#                                CCDC 
#
#######################################################################
#
# If this CIF has been generated from an entry in the Cambridge 
# Structural Database, then it will include bibliographic, chemical, 
# crystal, experimental, refinement or atomic coordinate data resulting 
# from the CCDC's data processing and validation procedures.
#
#######################################################################

data_NEFGEM
_chemical_formula_moiety         'C27 H29 B1 N2'
_chemical_name_systematic        
9,9-bis(2,4,6-trimethylphenyl)limidazo(1,2-a)(1,3)benzazaborate-4-ium
_symmetry_cell_setting           monoclinic
_symmetry_space_group_name_H-M   'C 2/c'
_symmetry_Int_Tables_number      15
_space_group_name_Hall           '-C 2yn'
loop_
_symmetry_equiv_pos_site_id
_symmetry_equiv_pos_as_xyz
1 x,y,z
2 -x,y,1/2-z
3 1/2+x,1/2+y,z
4 1/2-x,1/2+y,1/2-z
5 -x,-y,-z
6 x,-y,1/2+z
7 1/2-x,1/2-y,-z
8 1/2+x,1/2-y,1/2+z
_cell_length_a                   12.909(4)
_cell_length_b                   11.611(4)
_cell_length_c                   30.691(9)
_cell_angle_alpha                90
_cell_angle_beta                 100.955(6)
_cell_angle_gamma                90
_cell_volume                     4516.33
_cell_formula_units_Z            8
loop_
_atom_site_label
_atom_site_type_symbol
_atom_site_fract_x
_atom_site_fract_y
_atom_site_fract_z
B1 B 0.3649(4) 0.3227(5) 0.13336(15)
C1 C 0.3384(3) 0.2100(4) 0.10034(13)
C2 C 0.2704(4) 0.1984(5) 0.05963(15)
H1 H 0.2269 0.2593 0.0481
C3 C 0.2676(4) 0.0970(5) 0.03662(17)
H2 H 0.2212 0.0900 0.0096
C4 C 0.3308(5) 0.0059(6) 0.05211(19)
H3 H 0.3259 -0.0621 0.0359
C5 C 0.4040(4) 0.0142(5) 0.09283(18)
H4 H 0.4487 -0.0462 0.1039
C6 C 0.4046(3) 0.1171(4) 0.11484(14)
C7 C 0.5565(3) 0.0900(5) 0.18326(15)
H5 H 0.5776 0.0137 0.1820
C8 C 0.5958(4) 0.1701(5) 0.21315(16)
H6 H 0.6507 0.1593 0.2372
C9 C 0.4680(3) 0.2578(4) 0.16510(14)
C10 C 0.2939(3) 0.3507(4) 0.17177(12)
C11 C 0.2090(3) 0.2810(4) 0.18069(13)
C12 C 0.1667(3) 0.2997(4) 0.21897(14)
H7 H 0.1109 0.2537 0.2236
C13 C 0.2039(4) 0.3831(4) 0.25004(14)
C14 C 0.2829(3) 0.4545(4) 0.24057(13)
H8 H 0.3074 0.5139 0.2602
C15 C 0.3273(3) 0.4409(4) 0.20260(13)
C16 C 0.4072(4) 0.5304(4) 0.19472(15)
H9 H 0.4285 0.5755 0.2211
H10 H 0.3761 0.5798 0.1707
H11 H 0.4678 0.4926 0.1873
C17 C 0.1595(4) 0.3993(6) 0.29176(16)
H12 H 0.1524 0.3256 0.3051
H13 H 0.0916 0.4356 0.2845
H14 H 0.2064 0.4469 0.3122
C18 C 0.1572(4) 0.1877(5) 0.15028(16)
H15 H 0.0998 0.1553 0.1620
H16 H 0.2078 0.1286 0.1479
H17 H 0.1308 0.2196 0.1214
C19 C 0.3889(3) 0.4300(4) 0.10184(13)
C20 C 0.4862(3) 0.4467(4) 0.08846(14)
C21 C 0.5035(4) 0.5364(4) 0.06106(15)
H18 H 0.5686 0.5420 0.0525
C22 C 0.4269(4) 0.6184(4) 0.04588(14)
C23 C 0.3302(4) 0.6012(4) 0.05769(14)
H19 H 0.2765 0.6535 0.0475
C24 C 0.3086(3) 0.5096(4) 0.08401(13)
C25 C 0.1959(4) 0.4991(5) 0.09214(17)
H20 H 0.1485 0.5381 0.0689
H21 H 0.1915 0.5334 0.1202
H22 H 0.1767 0.4193 0.0924
C26 C 0.4490(5) 0.7167(5) 0.01733(18)
H23 H 0.3849 0.7392 -0.0021
H24 H 0.4999 0.6932 0.0000
H25 H 0.4764 0.7807 0.0358
C27 C 0.5790(4) 0.3646(5) 0.10199(17)
H26 H 0.6321 0.3808 0.0848
H27 H 0.5551 0.2866 0.0968
H28 H 0.6082 0.3747 0.1329
N1 N 0.4765(3) 0.1474(4) 0.15434(12)
N2 N 0.5413(3) 0.2715(4) 0.20222(11)
H29 H 0.5527 0.3345 0.2170
loop_
_geom_bond_atom_site_label_1
_geom_bond_atom_site_label_2
_geom_bond_site_symmetry_1
_geom_bond_site_symmetry_2
B1 C1 1_555 1_555
C1 C2 1_555 1_555
C2 H1 1_555 1_555
C3 C2 1_555 1_555
H2 C3 1_555 1_555
C4 C3 1_555 1_555
H3 C4 1_555 1_555
C5 C4 1_555 1_555
H4 C5 1_555 1_555
C6 C1 1_555 1_555
C7 H5 1_555 1_555
C8 C7 1_555 1_555
H6 C8 1_555 1_555
C9 B1 1_555 1_555
C10 B1 1_555 1_555
C11 C10 1_555 1_555
C12 C11 1_555 1_555
H7 C12 1_555 1_555
C13 C12 1_555 1_555
C14 C13 1_555 1_555
H8 C14 1_555 1_555
C15 C10 1_555 1_555
C16 C15 1_555 1_555
H9 C16 1_555 1_555
H10 C16 1_555 1_555
H11 C16 1_555 1_555
C17 C13 1_555 1_555
H12 C17 1_555 1_555
H13 C17 1_555 1_555
H14 C17 1_555 1_555
C18 C11 1_555 1_555
H15 C18 1_555 1_555
H16 C18 1_555 1_555
H17 C18 1_555 1_555
C19 B1 1_555 1_555
C20 C19 1_555 1_555
C21 C20 1_555 1_555
H18 C21 1_555 1_555
C22 C21 1_555 1_555
C23 C22 1_555 1_555
H19 C23 1_555 1_555
C24 C19 1_555 1_555
C25 C24 1_555 1_555
H20 C25 1_555 1_555
H21 C25 1_555 1_555
H22 C25 1_555 1_555
C26 C22 1_555 1_555
H23 C26 1_555 1_555
H24 C26 1_555 1_555
H25 C26 1_555 1_555
C27 C20 1_555 1_555
H26 C27 1_555 1_555
H27 C27 1_555 1_555
H28 C27 1_555 1_555
N1 C6 1_555 1_555
N2 C8 1_555 1_555
H29 N2 1_555 1_555
C5 C6 1_555 1_555
C7 N1 1_555 1_555
C9 N1 1_555 1_555
C9 N2 1_555 1_555
C14 C15 1_555 1_555
C23 C24 1_555 1_555

#END
