
#######################################################################
#
#                 Cambridge Crystallographic Data Centre
#                                CCDC 
#
#######################################################################
#
# If this CIF has been generated from an entry in the Cambridge 
# Structural Database, then it will include bibliographic, chemical, 
# crystal, experimental, refinement or atomic coordinate data resulting 
# from the CCDC's data processing and validation procedures.
#
#######################################################################

data_NEFGIQ
_chemical_formula_moiety         'C31 H31 B1 N2'
_chemical_name_systematic        
6,6-bis(2,4,6-trimethylphenyl)benzimidazo(1,2-a)(1,3)benzazaborate-5-ium
_symmetry_cell_setting           monoclinic
_symmetry_space_group_name_H-M   'P 21/c'
_symmetry_Int_Tables_number      14
_space_group_name_Hall           '-P 2ybc'
loop_
_symmetry_equiv_pos_site_id
_symmetry_equiv_pos_as_xyz
1 x,y,z
2 -x,1/2+y,1/2-z
3 -x,-y,-z
4 x,1/2-y,1/2+z
_cell_length_a                   11.2716(2)
_cell_length_b                   11.5021(2)
_cell_length_c                   19.3305(4)
_cell_angle_alpha                90
_cell_angle_beta                 100.0930(10)
_cell_angle_gamma                90
_cell_volume                     2467.36
_exptl_crystal_colour            colorless
_exptl_crystal_description       block
_cell_formula_units_Z            4
loop_
_atom_site_label
_atom_site_type_symbol
_atom_site_fract_x
_atom_site_fract_y
_atom_site_fract_z
N1 N 0.19680(10) 0.85768(10) 0.07370(6)
C1 C 0.25717(12) 0.67362(12) 0.11222(7)
B1 B 0.20146(14) 0.72933(13) 0.17768(8)
N2 N 0.13437(10) 0.96513(10) 0.15158(6)
H1 H 0.1127 0.9880 0.1910
C2 C 0.31684(14) 0.56985(13) 0.10518(8)
H2 H 0.3306 0.5168 0.1434
C3 C 0.35692(14) 0.54220(14) 0.04289(8)
H3 H 0.3962 0.4701 0.0389
C4 C 0.33989(14) 0.61886(14) -0.01300(8)
H4 H 0.3653 0.5981 -0.0557
C5 C 0.28563(13) 0.72633(13) -0.00714(7)
H5 H 0.2753 0.7809 -0.0446
C6 C 0.24763(12) 0.75018(12) 0.05526(7)
C7 C 0.17791(12) 0.85900(12) 0.14093(7)
C8 C 0.16777(12) 0.96463(12) 0.04112(7)
C9 C 0.17056(12) 1.00696(13) -0.02620(7)
H6 H 0.1958 0.9595 -0.0612
C10 C 0.13498(13) 1.12090(13) -0.03982(8)
H7 H 0.1364 1.1526 -0.0851
C11 C 0.09711(13) 1.19041(13) 0.01123(8)
H8 H 0.0744 1.2687 0.0001
C12 C 0.09181(13) 1.14827(13) 0.07776(8)
H9 H 0.0645 1.1952 0.1122
C13 C 0.12836(12) 1.03392(12) 0.09162(7)
C14 C 0.06055(12) 0.69498(11) 0.18483(6)
C15 C -0.01635(13) 0.61881(12) 0.13992(7)
C16 C -0.13791(13) 0.60896(13) 0.14437(8)
H10 H -0.1869 0.5583 0.1127
C17 C -0.19069(13) 0.66974(13) 0.19296(8)
C18 C -0.11468(13) 0.73961(13) 0.23953(8)
H11 H -0.1467 0.7797 0.2751
C19 C 0.00723(12) 0.75321(12) 0.23616(7)
C20 C 0.07818(14) 0.83149(14) 0.29137(8)
H12 H 0.0275 0.8968 0.3008
H13 H 0.1493 0.8612 0.2744
H14 H 0.1037 0.7872 0.3347
C21 C 0.02639(15) 0.54060(14) 0.08666(7)
H15 H -0.0415 0.4947 0.0623
H16 H 0.0890 0.4882 0.1106
H17 H 0.0595 0.5880 0.0525
C22 C -0.32436(16) 0.66302(18) 0.19328(12)
H18 H -0.3393 0.6755 0.2412
H19 H -0.3544 0.5862 0.1767
H20 H -0.3661 0.7230 0.1621
C23 C 0.30324(12) 0.71670(12) 0.24907(7)
C24 C 0.30126(12) 0.62118(12) 0.29506(7)
C25 C 0.38904(13) 0.60878(13) 0.35492(7)
H21 H 0.3854 0.5434 0.3845
C26 C 0.48149(13) 0.68839(14) 0.37281(8)
C27 C 0.48735(13) 0.77836(14) 0.32648(8)
H22 H 0.5514 0.8328 0.3367
C28 C 0.40295(12) 0.79259(13) 0.26513(8)
C29 C 0.42674(15) 0.88853(15) 0.21565(9)
H23 H 0.5078 0.9200 0.2313
H24 H 0.3671 0.9505 0.2156
H25 H 0.4207 0.8571 0.1680
C30 C 0.20746(15) 0.52596(13) 0.28172(8)
H26 H 0.2372 0.4568 0.3090
H27 H 0.1916 0.5066 0.2316
H28 H 0.1328 0.5527 0.2960
C31 C 0.57296(15) 0.67463(18) 0.43959(9)
H29 H 0.6488 0.7119 0.4337
H30 H 0.5871 0.5918 0.4496
H31 H 0.5423 0.7113 0.4787
loop_
_geom_bond_atom_site_label_1
_geom_bond_atom_site_label_2
_geom_bond_site_symmetry_1
_geom_bond_site_symmetry_2
N1 C6 1_555 1_555
C1 B1 1_555 1_555
B1 C7 1_555 1_555
N2 H1 1_555 1_555
C2 C1 1_555 1_555
H2 C2 1_555 1_555
C3 C2 1_555 1_555
H3 C3 1_555 1_555
C4 C3 1_555 1_555
H4 C4 1_555 1_555
C5 C4 1_555 1_555
H5 C5 1_555 1_555
C6 C1 1_555 1_555
C7 N1 1_555 1_555
C8 N1 1_555 1_555
C9 C8 1_555 1_555
H6 C9 1_555 1_555
C10 C9 1_555 1_555
H7 C10 1_555 1_555
C11 C10 1_555 1_555
H8 C11 1_555 1_555
C12 C11 1_555 1_555
H9 C12 1_555 1_555
C13 N2 1_555 1_555
C14 B1 1_555 1_555
C15 C14 1_555 1_555
C16 C15 1_555 1_555
H10 C16 1_555 1_555
C17 C16 1_555 1_555
C18 C17 1_555 1_555
H11 C18 1_555 1_555
C19 C14 1_555 1_555
C20 C19 1_555 1_555
H12 C20 1_555 1_555
H13 C20 1_555 1_555
H14 C20 1_555 1_555
C21 C15 1_555 1_555
H15 C21 1_555 1_555
H16 C21 1_555 1_555
H17 C21 1_555 1_555
C22 C17 1_555 1_555
H18 C22 1_555 1_555
H19 C22 1_555 1_555
H20 C22 1_555 1_555
C23 B1 1_555 1_555
C24 C23 1_555 1_555
C25 C24 1_555 1_555
H21 C25 1_555 1_555
C26 C25 1_555 1_555
C27 C26 1_555 1_555
H22 C27 1_555 1_555
C28 C23 1_555 1_555
C29 C28 1_555 1_555
H23 C29 1_555 1_555
H24 C29 1_555 1_555
H25 C29 1_555 1_555
C30 C24 1_555 1_555
H26 C30 1_555 1_555
H27 C30 1_555 1_555
H28 C30 1_555 1_555
C31 C26 1_555 1_555
H29 C31 1_555 1_555
H30 C31 1_555 1_555
H31 C31 1_555 1_555
N2 C7 1_555 1_555
C5 C6 1_555 1_555
C8 C13 1_555 1_555
C12 C13 1_555 1_555
C18 C19 1_555 1_555
C27 C28 1_555 1_555

#END
