
#######################################################################
#
#                 Cambridge Crystallographic Data Centre
#                                CCDC 
#
#######################################################################
#
# If this CIF has been generated from an entry in the Cambridge 
# Structural Database, then it will include bibliographic, chemical, 
# crystal, experimental, refinement or atomic coordinate data resulting 
# from the CCDC's data processing and validation procedures.
#
#######################################################################

data_NEFGAI
_chemical_formula_moiety         'C28 H31 B1 N2'
_chemical_name_systematic        
'1-methyl-9,9-bis(2,4,6-trimethylphenyl)limidazo(1,2-a)(1,3)benzazaborate-4-ium unknown solvate'
_symmetry_cell_setting           orthorhombic
_symmetry_space_group_name_H-M   'P b c n'
_symmetry_Int_Tables_number      60
_space_group_name_Hall           '-P 2n 2ab'
loop_
_symmetry_equiv_pos_site_id
_symmetry_equiv_pos_as_xyz
1 x,y,z
2 1/2-x,1/2-y,1/2+z
3 1/2+x,1/2-y,-z
4 -x,y,1/2-z
5 -x,-y,-z
6 1/2+x,1/2+y,1/2-z
7 1/2-x,1/2+y,z
8 x,-y,1/2+z
_cell_length_a                   25.600(3)
_cell_length_b                   14.6115(13)
_cell_length_c                   13.2509(11)
_cell_angle_alpha                90
_cell_angle_beta                 90
_cell_angle_gamma                90
_cell_volume                     4956.56
_cell_formula_units_Z            8
loop_
_atom_site_label
_atom_site_type_symbol
_atom_site_fract_x
_atom_site_fract_y
_atom_site_fract_z
B1 B 0.1685(2) 0.1246(4) 0.3781(4)
N1 N 0.23683(15) 0.1499(3) 0.2470(3)
N2 N 0.16475(15) 0.1524(3) 0.1659(3)
C1 C 0.22953(17) 0.1154(3) 0.4175(3)
C2 C 0.25310(18) 0.1014(3) 0.5103(3)
H1 H 0.2322 0.0910 0.5666
C3 C 0.30617(19) 0.1026(3) 0.5214(4)
H2 H 0.3205 0.0928 0.5850
C4 C 0.33870(19) 0.1179(3) 0.4412(5)
H3 H 0.3747 0.1160 0.4498
C5 C 0.31763(18) 0.1361(3) 0.3477(4)
H4 H 0.3387 0.1493 0.2924
C6 C 0.26472(17) 0.1339(3) 0.3397(4)
C7 C 0.2502(2) 0.1617(3) 0.1468(3)
H5 H 0.2835 0.1676 0.1198
C8 C 0.2048(2) 0.1629(3) 0.0970(4)
H6 H 0.2009 0.1697 0.0276
C9 C 0.10862(18) 0.1496(3) 0.1408(4)
H7 H 0.0904 0.1144 0.1908
H8 H 0.1041 0.1218 0.0757
H9 H 0.0949 0.2108 0.1395
C10 C 0.18482(18) 0.1461(3) 0.2605(3)
C11 C 0.14463(16) 0.2089(3) 0.4455(3)
C12 C 0.14269(16) 0.3019(3) 0.4170(3)
C13 C 0.12268(18) 0.3682(3) 0.4816(4)
H10 H 0.1212 0.4285 0.4595
C14 C 0.10499(18) 0.3475(4) 0.5771(4)
C15 C 0.10819(16) 0.2583(4) 0.6084(3)
H11 H 0.0968 0.2429 0.6729
C16 C 0.12832(16) 0.1895(3) 0.5455(3)
C17 C 0.16032(19) 0.3358(3) 0.3139(4)
H12 H 0.1602 0.4015 0.3132
H13 H 0.1369 0.3134 0.2631
H14 H 0.1950 0.3140 0.3004
C18 C 0.0803(2) 0.4213(4) 0.6451(4)
H15 H 0.0582 0.3925 0.6943
H16 H 0.0599 0.4624 0.6046
H17 H 0.1074 0.4548 0.6788
C19 C 0.12612(18) 0.0939(3) 0.5888(3)
H18 H 0.1348 0.0959 0.6593
H19 H 0.1507 0.0555 0.5540
H20 H 0.0915 0.0696 0.5806
C20 C 0.13130(16) 0.0330(3) 0.3718(3)
C21 C 0.15200(16) -0.0565(3) 0.3609(3)
C22 C 0.12049(18) -0.1338(3) 0.3640(3)
H21 H 0.1363 -0.1909 0.3589
C23 C 0.06623(18) -0.1301(4) 0.3743(3)
C24 C 0.04512(18) -0.0420(4) 0.3760(3)
H22 H 0.0090 -0.0357 0.3786
C25 C 0.07559(18) 0.0364(3) 0.3742(3)
C26 C 0.04495(17) 0.1265(3) 0.3767(3)
H23 H 0.0122 0.1187 0.3426
H24 H 0.0648 0.1735 0.3436
H25 H 0.0387 0.1439 0.4455
C27 C 0.20898(17) -0.0742(3) 0.3408(4)
H26 H 0.2140 -0.1377 0.3251
H27 H 0.2290 -0.0587 0.3996
H28 H 0.2203 -0.0374 0.2848
C28 C 0.0332(2) -0.2145(3) 0.3802(4)
H29 H -0.0012 -0.2012 0.3557
H30 H 0.0312 -0.2347 0.4490
H31 H 0.0486 -0.2619 0.3396
loop_
_geom_bond_atom_site_label_1
_geom_bond_atom_site_label_2
_geom_bond_site_symmetry_1
_geom_bond_site_symmetry_2
B1 C1 1_555 1_555
N1 C6 1_555 1_555
N2 C8 1_555 1_555
C1 C2 1_555 1_555
C2 H1 1_555 1_555
C3 C2 1_555 1_555
H2 C3 1_555 1_555
C4 C3 1_555 1_555
H3 C4 1_555 1_555
C5 C4 1_555 1_555
H4 C5 1_555 1_555
C6 C1 1_555 1_555
C7 N1 1_555 1_555
H5 C7 1_555 1_555
C8 C7 1_555 1_555
H6 C8 1_555 1_555
C9 N2 1_555 1_555
H7 C9 1_555 1_555
H8 C9 1_555 1_555
H9 C9 1_555 1_555
C10 B1 1_555 1_555
C11 B1 1_555 1_555
C12 C11 1_555 1_555
C13 C12 1_555 1_555
H10 C13 1_555 1_555
C14 C13 1_555 1_555
C15 C14 1_555 1_555
H11 C15 1_555 1_555
C16 C11 1_555 1_555
C17 C12 1_555 1_555
H12 C17 1_555 1_555
H13 C17 1_555 1_555
H14 C17 1_555 1_555
C18 C14 1_555 1_555
H15 C18 1_555 1_555
H16 C18 1_555 1_555
H17 C18 1_555 1_555
C19 C16 1_555 1_555
H18 C19 1_555 1_555
H19 C19 1_555 1_555
H20 C19 1_555 1_555
C20 B1 1_555 1_555
C21 C20 1_555 1_555
C22 C21 1_555 1_555
H21 C22 1_555 1_555
C23 C22 1_555 1_555
C24 C23 1_555 1_555
H22 C24 1_555 1_555
C25 C20 1_555 1_555
C26 C25 1_555 1_555
H23 C26 1_555 1_555
H24 C26 1_555 1_555
H25 C26 1_555 1_555
C27 C21 1_555 1_555
H26 C27 1_555 1_555
H27 C27 1_555 1_555
H28 C27 1_555 1_555
C28 C23 1_555 1_555
H29 C28 1_555 1_555
H30 C28 1_555 1_555
H31 C28 1_555 1_555
N1 C10 1_555 1_555
N2 C10 1_555 1_555
C5 C6 1_555 1_555
C15 C16 1_555 1_555
C24 C25 1_555 1_555

#END
