
#######################################################################
#
#                 Cambridge Crystallographic Data Centre
#                                CCDC 
#
#######################################################################
#
# If this CIF has been generated from an entry in the Cambridge 
# Structural Database, then it will include bibliographic, chemical, 
# crystal, experimental, refinement or atomic coordinate data resulting 
# from the CCDC's data processing and validation procedures.
#
#######################################################################

data_NEFLIU
_chemical_formula_moiety         'C21 H15 N5 O3'
_chemical_name_systematic        
4-Phenyhydrazono-3-oxo-2-phenyl-5-(3-nitrophenyl)pyrazoline
_symmetry_cell_setting           orthorhombic
_symmetry_space_group_name_H-M   'P n a 21'
_symmetry_Int_Tables_number      33
_space_group_name_Hall           'P 2c -2n'
loop_
_symmetry_equiv_pos_site_id
_symmetry_equiv_pos_as_xyz
1 x,y,z
2 -x,-y,1/2+z
3 1/2-x,1/2+y,1/2+z
4 1/2+x,1/2-y,z
_cell_length_a                   8.889(5)
_cell_length_b                   37.751(9)
_cell_length_c                   5.352(1)
_cell_angle_alpha                90
_cell_angle_beta                 90
_cell_angle_gamma                90
_cell_volume                     1795.96
_exptl_crystal_colour            'bright red'
_exptl_crystal_description       prism
_chemical_melting_point          '211-212deg. C'
_cell_formula_units_Z            4
loop_
_atom_site_label
_atom_site_type_symbol
_atom_site_fract_x
_atom_site_fract_y
_atom_site_fract_z
O1 O 0.5577(2) 0.43055(4) 0.8189
O2 O 0.0264(2) 0.33093(5) 0.0271(5)
O3 O -0.0788(2) 0.27988(5) 0.0883(6)
N1 N 0.4827(2) 0.34092(4) 0.9255(5)
N2 N 0.5575(2) 0.37284(4) 0.9766(5)
N3 N 0.3299(2) 0.39824(5) 0.4713(5)
N4 N 0.3602(2) 0.43185(5) 0.4295(5)
N5 N 0.0151(2) 0.30236(5) 0.1399(5)
C1 C 0.5140(3) 0.39926(6) 0.8204(6)
C2 C 0.4038(2) 0.38303(6) 0.6560(6)
C3 C 0.3929(2) 0.34664(6) 0.7374(6)
C4 C 0.6661(3) 0.37344(6) 1.1717(5)
C5 C 0.6802(3) 0.34470(6) 1.3313(6)
C6 C 0.7848(3) 0.34551(7) 1.5201(7)
C7 C 0.8762(3) 0.37438(7) 1.5536(6)
C8 C 0.8634(3) 0.40248(7) 1.3929(7)
C9 C 0.7605(3) 0.40236(6) 1.2034(6)
C10 C 0.2876(3) 0.45048(5) 0.2381(6)
C11 C 0.3206(3) 0.48628(6) 0.2135(7)
C12 C 0.2547(3) 0.50578(6) 0.0300(7)
C13 C 0.1543(3) 0.49070(7) -0.1305(7)
C14 C 0.1218(3) 0.45511(7) -0.1057(7)
C15 C 0.1871(3) 0.43493(6) 0.0773(6)
C16 C 0.2977(2) 0.31758(6) 0.6383(5)
C17 C 0.2070(3) 0.32336(6) 0.4304(6)
C18 C 0.1154(3) 0.29591(6) 0.3507(6)
C19 C 0.1134(3) 0.26317(6) 0.4643(7)
C20 C 0.2062(3) 0.25810(6) 0.6644(8)
C21 C 0.2988(3) 0.28469(6) 0.7516(7)
H1 H 0.620(2) 0.3251(5) 1.288(5)
H2 H 0.798(2) 0.3261(5) 1.640(6)
H3 H 0.955(2) 0.3751(5) 1.693(6)
H4 H 0.927(2) 0.4226(5) 1.415(6)
H5 H 0.754(2) 0.4215(5) 1.117(5)
H6 H 0.440(2) 0.4419(5) 0.523(6)
H7 H 0.392(2) 0.4951(5) 0.307(6)
H8 H 0.268(3) 0.5312(6) 0.035(7)
H9 H 0.117(3) 0.5038(6) -0.262(9)
H10 H 0.057(2) 0.4456(6) -0.211(6)
H11 H 0.167(2) 0.4104(5) 0.093(6)
H12 H 0.196(3) 0.3450(5) 0.346(6)
H13 H 0.043(2) 0.2435(4) 0.408(5)
H14 H 0.206(2) 0.2354(5) 0.751(7)
H15 H 0.368(3) 0.2777(6) 0.924(8)
loop_
_geom_bond_atom_site_label_1
_geom_bond_atom_site_label_2
_geom_bond_site_symmetry_1
_geom_bond_site_symmetry_2
O1 C1 1_555 1_555
O2 N5 1_555 1_555
O3 N5 1_555 1_555
N1 N2 1_555 1_555
N2 C1 1_555 1_555
N3 N4 1_555 1_555
N4 C10 1_555 1_555
N5 C18 1_555 1_555
C1 C2 1_555 1_555
C2 N3 1_555 1_555
C3 N1 1_555 1_555
C4 N2 1_555 1_555
C5 C4 1_555 1_555
C6 C5 1_555 1_555
C7 C6 1_555 1_555
C8 C7 1_555 1_555
C9 C4 1_555 1_555
C10 C11 1_555 1_555
C11 C12 1_555 1_555
C12 C13 1_555 1_555
C13 C14 1_555 1_555
C14 C15 1_555 1_555
C15 C10 1_555 1_555
C16 C3 1_555 1_555
C17 C16 1_555 1_555
C18 C17 1_555 1_555
C19 C18 1_555 1_555
C20 C19 1_555 1_555
C21 C16 1_555 1_555
H1 C5 1_555 1_555
H2 C6 1_555 1_555
H3 C7 1_555 1_555
H4 C8 1_555 1_555
H5 C9 1_555 1_555
H6 N4 1_555 1_555
H7 C11 1_555 1_555
H8 C12 1_555 1_555
H9 C13 1_555 1_555
H10 C14 1_555 1_555
H11 C15 1_555 1_555
H12 C17 1_555 1_555
H13 C19 1_555 1_555
H14 C20 1_555 1_555
H15 C21 1_555 1_555
C2 C3 1_555 1_555
C8 C9 1_555 1_555
C20 C21 1_555 1_555

#END
