
#######################################################################
#
#                 Cambridge Crystallographic Data Centre
#                                CCDC 
#
#######################################################################
#
# If this CIF has been generated from an entry in the Cambridge 
# Structural Database, then it will include bibliographic, chemical, 
# crystal, experimental, refinement or atomic coordinate data resulting 
# from the CCDC's data processing and validation procedures.
#
#######################################################################

data_NEFLEQ
_chemical_formula_moiety         'C31 H22 N6 O5 S2'
_chemical_name_systematic        
2-(4'-Methoxycarbonyl-5'-phenyl)thiazolyl-3-oxo-4-(4'-methoxycarbonyl)thiazolylhydrazono-5-phenylpyrazoline
_symmetry_cell_setting           monoclinic
_symmetry_space_group_name_H-M   'C 2/c'
_symmetry_Int_Tables_number      15
_space_group_name_Hall           '-C 2yn'
loop_
_symmetry_equiv_pos_site_id
_symmetry_equiv_pos_as_xyz
1 x,y,z
2 -x,y,1/2-z
3 1/2+x,1/2+y,z
4 1/2-x,1/2+y,1/2-z
5 -x,-y,-z
6 x,-y,1/2+z
7 1/2-x,1/2-y,-z
8 1/2+x,1/2-y,1/2+z
_cell_length_a                   22.416(2)
_cell_length_b                   6.463(2)
_cell_length_c                   39.548(4)
_cell_angle_alpha                90
_cell_angle_beta                 91.93(2)
_cell_angle_gamma                90
_cell_volume                     5726.25
_exptl_crystal_colour            colorless
_exptl_crystal_description       prism
_chemical_melting_point          '263-265deg. C'
_cell_formula_units_Z            8
loop_
_atom_site_label
_atom_site_type_symbol
_atom_site_fract_x
_atom_site_fract_y
_atom_site_fract_z
S1 S 0.4875(1) -0.5852(4) 0.17837(7)
S2 S 0.6775(1) -1.4669(5) 0.08052(8)
O1 O 0.5524(3) -0.918(1) 0.1550(2)
O2 O 0.4151(3) 0.028(1) 0.1201(2)
O3 O 0.3567(3) -0.056(1) 0.1628(2)
O4 O 0.7237(4) -2.005(1) 0.1565(2)
O5 O 0.7192(4) -1.733(1) 0.1921(2)
N1 N 0.5214(4) -0.646(1) 0.0806(2)
N2 N 0.5187(4) -0.675(1) 0.1143(2)
N3 N 0.4627(4) -0.374(1) 0.1234(2)
N4 N 0.5995(4) -1.115(1) 0.0919(2)
N5 N 0.6119(4) -1.220(1) 0.1198(2)
N6 N 0.6606(3) -1.507(1) 0.1451(2)
C1 C 0.5478(5) -0.856(2) 0.1266(3)
C2 C 0.5673(4) -0.946(2) 0.0948(2)
C3 C 0.5508(4) -0.805(2) 0.0686(3)
C4 C 0.4915(4) -0.538(2) 0.1363(2)
C5 C 0.4366(4) -0.279(2) 0.1507(3)
C6 C 0.4440(4) -0.361(2) 0.1825(2)
C7 C 0.6487(4) -1.398(2) 0.1179(3)
C8 C 0.6947(4) -1.668(2) 0.1352(3)
C9 C 0.7092(5) -1.680(2) 0.1028(3)
C10 C 0.5615(4) -0.820(2) 0.0328(2)
C11 C 0.5610(5) -0.655(2) 0.0111(3)
C12 C 0.5659(5) -0.660(2) -0.0229(3)
C13 C 0.5787(5) -0.856(2) -0.0378(3)
C14 C 0.5801(5) -1.022(2) -0.0167(3)
C15 C 0.5709(5) -1.015(2) 0.0176(3)
C16 C 0.4225(5) -0.315(2) 0.2153(3)
C17 C 0.4308(5) -0.109(2) 0.2271(3)
C18 C 0.4139(6) -0.064(2) 0.2603(3)
C19 C 0.3871(5) -0.220(2) 0.2811(3)
C20 C 0.3833(5) -0.414(2) 0.2683(2)
C21 C 0.4017(5) -0.456(2) 0.2382(2)
C22 C 0.7422(5) -1.826(2) 0.0809(3)
C23 C 0.7931(5) -1.924(2) 0.0950(3)
C24 C 0.8214(5) -2.073(2) 0.0731(3)
C25 C 0.8005(6) -2.104(2) 0.0417(4)
C26 C 0.7506(6) -2.008(2) 0.0278(3)
C27 C 0.7223(5) -1.871(2) 0.0485(3)
C28 C 0.4026(5) -0.079(2) 0.1416(2)
C29 C 0.3240(5) 0.137(2) 0.1580(3)
C30 C 0.7142(4) -1.822(2) 0.1621(3)
C31 C 0.7460(6) -1.847(2) 0.2191(3)
H1 H 0.5981 -1.1707 0.1420
H2 H 0.5474 -0.5194 0.0195
H3 H 0.5682 -0.5284 -0.0357
H4 H 0.5814 -0.8589 -0.0638
H5 H 0.5868 -1.1604 -0.0280
H6 H 0.5756 -1.1477 0.0315
H7 H 0.4442 -0.0012 0.2113
H8 H 0.4208 0.0775 0.2700
H9 H 0.3707 -0.1747 0.3033
H10 H 0.3657 -0.5193 0.2827
H11 H 0.4019 -0.6050 0.2316
H12 H 0.8032 -1.9020 0.1184
H13 H 0.8616 -2.1437 0.0832
H14 H 0.8226 -2.2074 0.0315
H15 H 0.7411 -2.0398 0.0037
H16 H 0.6850 -1.8034 0.0402
H17 H 0.2937 0.1581 0.1729
H18 H 0.3534 0.2561 0.1621
H19 H 0.3104 0.1574 0.1351
H20 H 0.7473 -1.7747 0.2404
H21 H 0.7252 -1.9785 0.2235
H22 H 0.7868 -1.8872 0.2147
loop_
_geom_bond_atom_site_label_1
_geom_bond_atom_site_label_2
_geom_bond_site_symmetry_1
_geom_bond_site_symmetry_2
S1 C4 1_555 1_555
S2 C7 1_555 1_555
O1 C1 1_555 1_555
O2 C28 1_555 1_555
O3 C28 1_555 1_555
O4 C30 1_555 1_555
O5 C30 1_555 1_555
N1 N2 1_555 1_555
N2 C1 1_555 1_555
N3 C4 1_555 1_555
N4 N5 1_555 1_555
N5 C7 1_555 1_555
N6 C7 1_555 1_555
C1 C2 1_555 1_555
C2 N4 1_555 1_555
C3 N1 1_555 1_555
C4 N2 1_555 1_555
C5 N3 1_555 1_555
C6 S1 1_555 1_555
C8 N6 1_555 1_555
C9 S2 1_555 1_555
C10 C3 1_555 1_555
C11 C10 1_555 1_555
C12 C11 1_555 1_555
C13 C12 1_555 1_555
C14 C13 1_555 1_555
C15 C10 1_555 1_555
C16 C6 1_555 1_555
C17 C16 1_555 1_555
C18 C17 1_555 1_555
C19 C18 1_555 1_555
C20 C19 1_555 1_555
C21 C16 1_555 1_555
C22 C9 1_555 1_555
C23 C22 1_555 1_555
C24 C23 1_555 1_555
C25 C24 1_555 1_555
C26 C25 1_555 1_555
C27 C22 1_555 1_555
C28 C5 1_555 1_555
C29 O3 1_555 1_555
C30 C8 1_555 1_555
C31 O5 1_555 1_555
H1 N5 1_555 1_555
H2 C11 1_555 1_555
H3 C12 1_555 1_555
H4 C13 1_555 1_555
H5 C14 1_555 1_555
H6 C15 1_555 1_555
H7 C17 1_555 1_555
H8 C18 1_555 1_555
H9 C19 1_555 1_555
H10 C20 1_555 1_555
H11 C21 1_555 1_555
H12 C23 1_555 1_555
H13 C24 1_555 1_555
H14 C25 1_555 1_555
H15 C26 1_555 1_555
H16 C27 1_555 1_555
H17 C29 1_555 1_555
H18 C29 1_555 1_555
H19 C29 1_555 1_555
H20 C31 1_555 1_555
H21 C31 1_555 1_555
H22 C31 1_555 1_555
C2 C3 1_555 1_555
C5 C6 1_555 1_555
C8 C9 1_555 1_555
C14 C15 1_555 1_555
C20 C21 1_555 1_555
C26 C27 1_555 1_555

#END
