
#######################################################################
#
#                 Cambridge Crystallographic Data Centre
#                                CCDC 
#
#######################################################################
#
# If this CIF has been generated from an entry in the Cambridge 
# Structural Database, then it will include bibliographic, chemical, 
# crystal, experimental, refinement or atomic coordinate data resulting 
# from the CCDC's data processing and validation procedures.
#
#######################################################################

data_NEFRIC
_chemical_formula_moiety         'C16 H36 N1 1+,C22 H22 N4 O2,Cl1 1-'
_chemical_name_systematic        
"tetrabutylammonium N,N'-1,2-phenylenebis(N'-(3-methylphenyl)urea) chloride"
_symmetry_cell_setting           monoclinic
_symmetry_space_group_name_H-M   'P 21/n'
_symmetry_Int_Tables_number      14
_space_group_name_Hall           '-P 2yn'
loop_
_symmetry_equiv_pos_site_id
_symmetry_equiv_pos_as_xyz
1 x,y,z
2 1/2-x,1/2+y,1/2-z
3 -x,-y,-z
4 1/2+x,1/2-y,1/2+z
_cell_length_a                   13.5654(4)
_cell_length_b                   20.0993(6)
_cell_length_c                   14.3329(4)
_cell_angle_alpha                90
_cell_angle_beta                 99.658(3)
_cell_angle_gamma                90
_cell_volume                     3852.55
_exptl_crystal_colour            colorless
_exptl_crystal_description       plate
_cell_formula_units_Z            4
loop_
_atom_site_label
_atom_site_type_symbol
_atom_site_fract_x
_atom_site_fract_y
_atom_site_fract_z
Cl1 Cl 0.81049(4) 0.43130(4) 0.44871(4)
O1 O 0.85939(14) 0.63139(10) 0.37919(12)
O2 O 0.71378(15) 0.53977(10) 0.12842(14)
N1 N 0.83702(15) 0.51475(11) 0.25232(13)
H1 H 0.8480 0.4949 0.3063
N2 N 0.99507(14) 0.56294(10) 0.38682(13)
H2 H 1.0351 0.5371 0.4231
N3 N 0.94862(14) 0.60016(10) 0.52228(13)
H3 H 1.0012 0.5785 0.5470
N4 N 0.67823(15) 0.48560(12) 0.25881(16)
H4 H 0.7065 0.4678 0.3111
C1 C 0.91978(18) 0.54235(12) 0.22119(16)
C2 C 0.92845(16) 0.60123(11) 0.42576(15)
C3 C 0.74036(18) 0.51570(11) 0.20661(16)
C4 C 0.89442(16) 0.62999(11) 0.58629(16)
C5 C 0.99990(18) 0.56460(11) 0.28853(16)
C6 C 0.91973(19) 0.61169(12) 0.68051(16)
H5 H 0.9698 0.5803 0.6976
C7 C 0.57262(19) 0.47988(13) 0.2378(2)
C8 C 0.9300(2) 0.54391(15) 0.12580(18)
H6 H 0.8769 0.5311 0.0796
C9 C 0.82082(19) 0.67721(14) 0.5609(2)
H7 H 0.8031 0.6904 0.4982
C10 C 0.8723(2) 0.63902(15) 0.74986(19)
C11 C 1.0887(2) 0.58347(15) 0.2611(2)
H8 H 1.1424 0.5966 0.3066
C12 C 0.5249(2) 0.46665(15) 0.3142(3)
H9 H 0.5632 0.4607 0.3738
C13 C 0.7982(2) 0.68588(17) 0.7230(2)
H10 H 0.7649 0.7047 0.7682
C14 C 0.7738(2) 0.70462(17) 0.6306(3)
H11 H 0.7245 0.7366 0.6139
C15 C 1.0185(3) 0.56430(18) 0.1000(2)
H12 H 1.0241 0.5654 0.0363
C16 C 1.0983(2) 0.58304(19) 0.1665(2)
H13 H 1.1584 0.5953 0.1482
C17 C 0.4218(2) 0.46211(17) 0.3040(3)
C18 C 0.5179(2) 0.48578(18) 0.1479(3)
H14 H 0.5490 0.4941 0.0959
C19 C 0.9012(3) 0.6187(2) 0.8510(2)
H15 H 0.9195 0.5725 0.8541
H16 H 0.8457 0.6256 0.8836
H17 H 0.9570 0.6450 0.8803
C20 C 0.3671(3) 0.4680(2) 0.2134(4)
H18 H 0.2978 0.4645 0.2044
C21 C 0.4133(3) 0.4788(2) 0.1375(4)
H19 H 0.3750 0.4817 0.0775
C22 C 0.3717(3) 0.4521(3) 0.3896(4)
H20 H 0.4107 0.4218 0.4328
H21 H 0.3060 0.4340 0.3700
H22 H 0.3667 0.4940 0.4205
N5 N 0.65968(16) 0.73315(11) 0.19191(16)
C23 C 0.5976(2) 0.74753(15) 0.0958(2)
H23 H 0.6305 0.7824 0.0658
H24 H 0.5332 0.7646 0.1054
C24 C 0.6638(2) 0.79805(13) 0.2472(2)
H25 H 0.6944 0.8317 0.2128
H26 H 0.5958 0.8122 0.2491
C25 C 0.6128(2) 0.67820(14) 0.2424(2)
H27 H 0.6556 0.6696 0.3024
H28 H 0.6110 0.6380 0.2048
C26 C 0.7635(2) 0.70980(14) 0.1819(2)
H29 H 0.7990 0.6979 0.2442
H30 H 0.7571 0.6698 0.1436
C27 C 0.7197(3) 0.79566(16) 0.3467(2)
H31 H 0.6880 0.7636 0.3827
H32 H 0.7876 0.7807 0.3459
C28 C 0.8258(3) 0.7589(2) 0.1388(3)
H33 H 0.7871 0.7763 0.0809
H34 H 0.8426 0.7958 0.1821
C29 C 0.5078(3) 0.69209(18) 0.2612(3)
H35 H 0.5068 0.7350 0.2920
H36 H 0.4622 0.6942 0.2014
C30 C 0.5798(3) 0.6888(2) 0.0282(3)
H37 H 0.6428 0.6669 0.0248
H38 H 0.5360 0.6568 0.0514
C31 C 0.4732(4) 0.6402(2) 0.3216(4)
H39 H 0.5155 0.6411 0.3833
H40 H 0.4810 0.5969 0.2937
C32 C 0.5325(3) 0.7128(3) -0.0692(3)
H41 H 0.5065 0.6747 -0.1069
H42 H 0.4764 0.7414 -0.0628
C33 C 0.7226(4) 0.86171(18) 0.3941(3)
H43 H 0.7505 0.8934 0.3546
H44 H 0.6540 0.8752 0.3948
C34 C 0.9182(3) 0.7290(3) 0.1176(4)
H45 H 0.9528 0.7077 0.1745
H46 H 0.9003 0.6944 0.0705
C35 C 0.7765(4) 0.8684(3) 0.4886(3)
H47 H 0.8434 0.8521 0.4912
H48 H 0.7435 0.8432 0.5312
H49 H 0.7786 0.9145 0.5067
C36 C 0.3654(4) 0.6483(3) 0.3346(5)
H50 H 0.3229 0.6480 0.2738
H51 H 0.3577 0.6898 0.3658
H52 H 0.3472 0.6124 0.3723
C37 C 0.5996(6) 0.7489(4) -0.1192(4)
H53 H 0.5681 0.7556 -0.1837
H54 H 0.6600 0.7238 -0.1179
H55 H 0.6152 0.7912 -0.0893
C38 C 0.9877(4) 0.7750(4) 0.0829(5)
H56 H 0.9520 0.8015 0.0326
H57 H 1.0389 0.7501 0.0597
H58 H 1.0176 0.8034 0.1336
loop_
_geom_bond_atom_site_label_1
_geom_bond_atom_site_label_2
_geom_bond_site_symmetry_1
_geom_bond_site_symmetry_2
O1 C2 1_555 1_555
O2 C3 1_555 1_555
N1 H1 1_555 1_555
N2 H2 1_555 1_555
N3 H3 1_555 1_555
N4 H4 1_555 1_555
C1 N1 1_555 1_555
C2 N2 1_555 1_555
C3 N1 1_555 1_555
C4 N3 1_555 1_555
C5 N2 1_555 1_555
C6 C4 1_555 1_555
H5 C6 1_555 1_555
C7 N4 1_555 1_555
C8 C1 1_555 1_555
H6 C8 1_555 1_555
C9 C4 1_555 1_555
H7 C9 1_555 1_555
C10 C6 1_555 1_555
C11 C5 1_555 1_555
H8 C11 1_555 1_555
C12 C7 1_555 1_555
H9 C12 1_555 1_555
C13 C10 1_555 1_555
H10 C13 1_555 1_555
C14 C9 1_555 1_555
H11 C14 1_555 1_555
C15 C8 1_555 1_555
H12 C15 1_555 1_555
C16 C11 1_555 1_555
H13 C16 1_555 1_555
C17 C12 1_555 1_555
C18 C7 1_555 1_555
H14 C18 1_555 1_555
C19 C10 1_555 1_555
H15 C19 1_555 1_555
H16 C19 1_555 1_555
H17 C19 1_555 1_555
C20 C17 1_555 1_555
H18 C20 1_555 1_555
C21 C18 1_555 1_555
H19 C21 1_555 1_555
C22 C17 1_555 1_555
H20 C22 1_555 1_555
H21 C22 1_555 1_555
H22 C22 1_555 1_555
N5 C23 1_555 1_555
C23 H23 1_555 1_555
H24 C23 1_555 1_555
C24 N5 1_555 1_555
H25 C24 1_555 1_555
H26 C24 1_555 1_555
C25 N5 1_555 1_555
H27 C25 1_555 1_555
H28 C25 1_555 1_555
C26 N5 1_555 1_555
H29 C26 1_555 1_555
H30 C26 1_555 1_555
C27 C24 1_555 1_555
H31 C27 1_555 1_555
H32 C27 1_555 1_555
C28 C26 1_555 1_555
H33 C28 1_555 1_555
H34 C28 1_555 1_555
C29 C25 1_555 1_555
H35 C29 1_555 1_555
H36 C29 1_555 1_555
C30 C23 1_555 1_555
H37 C30 1_555 1_555
H38 C30 1_555 1_555
C31 C29 1_555 1_555
H39 C31 1_555 1_555
H40 C31 1_555 1_555
C32 C30 1_555 1_555
H41 C32 1_555 1_555
H42 C32 1_555 1_555
C33 C27 1_555 1_555
H43 C33 1_555 1_555
H44 C33 1_555 1_555
C34 C28 1_555 1_555
H45 C34 1_555 1_555
H46 C34 1_555 1_555
C35 C33 1_555 1_555
H47 C35 1_555 1_555
H48 C35 1_555 1_555
H49 C35 1_555 1_555
C36 C31 1_555 1_555
H50 C36 1_555 1_555
H51 C36 1_555 1_555
H52 C36 1_555 1_555
C37 C32 1_555 1_555
H53 C37 1_555 1_555
H54 C37 1_555 1_555
H55 C37 1_555 1_555
C38 C34 1_555 1_555
H56 C38 1_555 1_555
H57 C38 1_555 1_555
H58 C38 1_555 1_555
N3 C2 1_555 1_555
N4 C3 1_555 1_555
C1 C5 1_555 1_555
C13 C14 1_555 1_555
C15 C16 1_555 1_555
C20 C21 1_555 1_555

#END
