
#######################################################################
#
#                 Cambridge Crystallographic Data Centre
#                                CCDC 
#
#######################################################################
#
# If this CIF has been generated from an entry in the Cambridge 
# Structural Database, then it will include bibliographic, chemical, 
# crystal, experimental, refinement or atomic coordinate data resulting 
# from the CCDC's data processing and validation procedures.
#
#######################################################################

data_NEFREW
_chemical_formula_moiety         'C13 H12 F2 N4 O1 S1'
_chemical_name_systematic        
6-(2,4-Difluorophenyl)-3-(3-hydroxypropyl)-7H-1,2,4-triazolo(3,4-b)(1,3,4)thiadiazine
_symmetry_cell_setting           monoclinic
_symmetry_space_group_name_H-M   'P 21/c'
_symmetry_Int_Tables_number      14
_space_group_name_Hall           '-P 2ybc'
loop_
_symmetry_equiv_pos_site_id
_symmetry_equiv_pos_as_xyz
1 x,y,z
2 -x,1/2+y,1/2-z
3 -x,-y,-z
4 x,1/2-y,1/2+z
_cell_length_a                   16.0230(14)
_cell_length_b                   11.0368(10)
_cell_length_c                   7.8738(7)
_cell_angle_alpha                90
_cell_angle_beta                 101.174(2)
_cell_angle_gamma                90
_cell_volume                     1366.03
_exptl_crystal_colour            colorless
_exptl_crystal_description       Block
_cell_formula_units_Z            4
_exptl_crystal_recrystallization_method ethanol
loop_
_atom_site_label
_atom_site_type_symbol
_atom_site_fract_x
_atom_site_fract_y
_atom_site_fract_z
S1 S 0.86205(5) 0.30131(7) 0.02864(11)
F1 F 0.97050(12) 0.61200(18) 0.1265(4)
F2 F 0.89332(16) 1.01841(17) 0.0490(3)
O1 O 0.4116(2) 0.5129(3) 0.1878(4)
H1 H 0.4020 0.5692 0.2493
N1 N 0.74191(14) 0.4995(2) 0.1420(3)
N2 N 0.71763(14) 0.3783(2) 0.1226(3)
N3 N 0.72191(16) 0.1807(2) 0.0935(4)
N4 N 0.64671(16) 0.2141(2) 0.1479(4)
C1 C 0.90852(19) 0.6980(3) 0.0939(5)
C2 C 0.9337(2) 0.8161(3) 0.0898(5)
H2 H 0.9909 0.8376 0.1072
C3 C 0.8705(2) 0.9011(3) 0.0586(4)
C4 C 0.7862(2) 0.8729(3) 0.0379(4)
H3 H 0.7449 0.9332 0.0201
C5 C 0.76378(19) 0.7525(3) 0.0438(4)
H4 H 0.7066 0.7319 0.0300
C6 C 0.82504(17) 0.6609(2) 0.0703(4)
C7 C 0.79985(17) 0.5318(2) 0.0607(4)
C8 C 0.8364(2) 0.4511(3) -0.0607(4)
H5 H 0.8875 0.4882 -0.0859
H6 H 0.7957 0.4438 -0.1688
C9 C 0.76282(18) 0.2808(2) 0.0809(4)
C10 C 0.64569(18) 0.3315(2) 0.1651(4)
C11 C 0.57841(18) 0.4055(3) 0.2206(4)
H7 H 0.5661 0.4749 0.1442
H8 H 0.5996 0.4357 0.3366
C12 C 0.4967(2) 0.3360(3) 0.2195(5)
H9 H 0.4728 0.3112 0.1019
H10 H 0.5094 0.2634 0.2891
C13 C 0.4322(2) 0.4100(3) 0.2887(5)
H11 H 0.3815 0.3620 0.2880
H12 H 0.4551 0.4334 0.4073
loop_
_geom_bond_atom_site_label_1
_geom_bond_atom_site_label_2
_geom_bond_site_symmetry_1
_geom_bond_site_symmetry_2
S1 C8 1_555 1_555
F1 C1 1_555 1_555
F2 C3 1_555 1_555
O1 H1 1_555 1_555
N1 N2 1_555 1_555
N2 C9 1_555 1_555
N3 N4 1_555 1_555
N4 C10 1_555 1_555
C1 C2 1_555 1_555
C2 H2 1_555 1_555
C3 C2 1_555 1_555
C4 C3 1_555 1_555
H3 C4 1_555 1_555
C5 C4 1_555 1_555
H4 C5 1_555 1_555
C6 C1 1_555 1_555
C7 N1 1_555 1_555
C8 C7 1_555 1_555
H5 C8 1_555 1_555
H6 C8 1_555 1_555
C9 S1 1_555 1_555
C10 N2 1_555 1_555
C11 C10 1_555 1_555
H7 C11 1_555 1_555
H8 C11 1_555 1_555
C12 C11 1_555 1_555
H9 C12 1_555 1_555
H10 C12 1_555 1_555
C13 O1 1_555 1_555
H11 C13 1_555 1_555
H12 C13 1_555 1_555
N3 C9 1_555 1_555
C5 C6 1_555 1_555
C6 C7 1_555 1_555
C12 C13 1_555 1_555

#END
