
#######################################################################
#
#                 Cambridge Crystallographic Data Centre
#                                CCDC 
#
#######################################################################
#
# If this CIF has been generated from an entry in the Cambridge 
# Structural Database, then it will include bibliographic, chemical, 
# crystal, experimental, refinement or atomic coordinate data resulting 
# from the CCDC's data processing and validation procedures.
#
#######################################################################

data_NEFRIZ01
_chemical_formula_moiety         'C9 H4 Cl1 F6 I1 O1'
_chemical_name_systematic        
1-Chloro-3,3-bis(trifluoromethyl)-1,3-dihydro-1,2-benziodoxole
_symmetry_cell_setting           orthorhombic
_symmetry_space_group_name_H-M   'P b c a'
_symmetry_Int_Tables_number      61
_space_group_name_Hall           '-P 2ac 2ab'
loop_
_symmetry_equiv_pos_site_id
_symmetry_equiv_pos_as_xyz
1 x,y,z
2 1/2-x,-y,1/2+z
3 -x,1/2+y,1/2-z
4 1/2+x,1/2-y,-z
5 -x,-y,-z
6 1/2+x,y,1/2-z
7 x,1/2-y,1/2+z
8 1/2-x,1/2+y,z
_cell_length_a                   9.6335(9)
_cell_length_b                   14.3032(13)
_cell_length_c                   16.4709(15)
_cell_angle_alpha                90
_cell_angle_beta                 90
_cell_angle_gamma                90
_cell_volume                     2269.52
_exptl_crystal_colour            colorless
_exptl_crystal_description       tablet
_chemical_melting_point          '170-173 deg.C'
_cell_formula_units_Z            8
_exptl_crystal_recrystallization_method dichloromethane
loop_
_atom_site_label
_atom_site_type_symbol
_atom_site_fract_x
_atom_site_fract_y
_atom_site_fract_z
I1 I 0.015478(15) -0.033238(9) 0.129595(8)
Cl1 Cl -0.06348(7) -0.12527(4) 0.24609(3)
F1 F 0.35389(16) -0.01031(10) 0.05417(9)
F2 F 0.45025(14) 0.12495(11) 0.05309(8)
F3 F 0.33412(14) 0.07870(11) -0.05096(8)
F4 F 0.13507(15) 0.21235(9) -0.04551(7)
F5 F 0.27510(17) 0.27541(9) 0.03960(9)
F6 F 0.06149(16) 0.25236(11) 0.07251(8)
O1 O 0.09347(15) 0.06044(11) 0.04185(8)
C1 C 0.1340(2) 0.05689(14) 0.20336(12)
C2 C 0.1332(2) 0.05309(15) 0.28766(12)
H1 H 0.0778 0.0088 0.3159
C3 C 0.2164(2) 0.11632(16) 0.32899(12)
H2 H 0.2173 0.1159 0.3867
C4 C 0.2981(2) 0.18004(15) 0.28757(13)
H3 H 0.3548 0.2226 0.3170
C5 C 0.2976(2) 0.18213(15) 0.20299(13)
H4 H 0.3545 0.2255 0.1747
C6 C 0.2131(2) 0.12006(14) 0.15984(12)
C7 C 0.2019(2) 0.11747(14) 0.06728(11)
C8 C 0.3374(2) 0.07814(15) 0.03042(12)
C9 C 0.1690(2) 0.21581(15) 0.03315(13)
loop_
_geom_bond_atom_site_label_1
_geom_bond_atom_site_label_2
_geom_bond_site_symmetry_1
_geom_bond_site_symmetry_2
I1 Cl1 1_555 1_555
F1 C8 1_555 1_555
F2 C8 1_555 1_555
F3 C8 1_555 1_555
F4 C9 1_555 1_555
F5 C9 1_555 1_555
F6 C9 1_555 1_555
O1 I1 1_555 1_555
C1 I1 1_555 1_555
C2 C1 1_555 1_555
H1 C2 1_555 1_555
C3 C2 1_555 1_555
H2 C3 1_555 1_555
C4 C3 1_555 1_555
H3 C4 1_555 1_555
C5 C4 1_555 1_555
H4 C5 1_555 1_555
C6 C1 1_555 1_555
C7 O1 1_555 1_555
C8 C7 1_555 1_555
C9 C7 1_555 1_555
C5 C6 1_555 1_555
C6 C7 1_555 1_555

#END
