
#######################################################################
#
#                 Cambridge Crystallographic Data Centre
#                                CCDC 
#
#######################################################################
#
# If this CIF has been generated from an entry in the Cambridge 
# Structural Database, then it will include bibliographic, chemical, 
# crystal, experimental, refinement or atomic coordinate data resulting 
# from the CCDC's data processing and validation procedures.
#
#######################################################################

data_NEFRUM
_chemical_formula_moiety         'C15 H20 Cl1 N3 O1'
_chemical_name_systematic        
2-t-butylamino-1-(4-chlorophenyl)-4,4-dimethyl-1H-imidazolin-5(4H)-one
_symmetry_cell_setting           monoclinic
_symmetry_space_group_name_H-M   'P 21/n'
_symmetry_Int_Tables_number      14
_space_group_name_Hall           '-P 2yn'
loop_
_symmetry_equiv_pos_site_id
_symmetry_equiv_pos_as_xyz
1 x,y,z
2 1/2-x,1/2+y,1/2-z
3 -x,-y,-z
4 1/2+x,1/2-y,1/2+z
_cell_length_a                   6.0758(8)
_cell_length_b                   18.8340(2)
_cell_length_c                   13.8603(18)
_cell_angle_alpha                90
_cell_angle_beta                 98.530(2)
_cell_angle_gamma                90
_cell_volume                     1568.51
_exptl_crystal_colour            colorless
_exptl_crystal_description       block
_chemical_melting_point          '413.0 K'
_cell_formula_units_Z            4
_exptl_crystal_recrystallization_method 'dichloromethane/petroleum ether'
loop_
_atom_site_label
_atom_site_type_symbol
_atom_site_fract_x
_atom_site_fract_y
_atom_site_fract_z
C1 C 0.7501(3) 0.11757(10) 0.29357(14)
C2 C 0.5388(3) 0.09967(10) 0.25278(14)
H1 H 0.4984 0.0522 0.2443
C3 C 0.8125(3) 0.18740(11) 0.30729(14)
H2 H 0.9556 0.1991 0.3367
C4 C 0.6596(3) 0.23977(10) 0.27681(14)
H3 H 0.7012 0.2872 0.2841
C5 C 0.3861(3) 0.15243(9) 0.22425(14)
H4 H 0.2417 0.1405 0.1971
C6 C 0.4458(3) 0.22259(9) 0.23566(12)
C7 C 0.2025(3) 0.33011(9) 0.25919(13)
C8 C 0.0658(3) 0.35675(10) 0.10641(13)
C9 C 0.2037(3) 0.28981(10) 0.10616(13)
C10 C -0.1722(4) 0.34472(14) 0.05744(18)
H5 H -0.2386 0.3076 0.0908
H6 H -0.1722 0.3313 -0.0094
H7 H -0.2562 0.3877 0.0600
C11 C 0.1777(4) 0.41557(11) 0.05637(16)
H8 H 0.1003 0.4595 0.0620
H9 H 0.1739 0.4040 -0.0113
H10 H 0.3295 0.4204 0.0868
C12 C 0.2179(3) 0.38781(9) 0.42191(12)
C13 C 0.3295(3) 0.45432(10) 0.39077(14)
H11 H 0.4873 0.4468 0.3975
H12 H 0.2989 0.4934 0.4312
H13 H 0.2729 0.4648 0.3239
C14 C -0.0318(3) 0.39899(12) 0.41833(15)
H14 H -0.0968 0.4117 0.3532
H15 H -0.0571 0.4364 0.4624
H16 H -0.0986 0.3559 0.4371
C15 C 0.3227(4) 0.36672(12) 0.52446(14)
H17 H 0.2492 0.3253 0.5444
H18 H 0.3072 0.4050 0.5687
H19 H 0.4777 0.3566 0.5250
Cl1 Cl 0.94285(10) 0.05085(3) 0.32940(5)
N1 N 0.2894(2) 0.27698(7) 0.20263(10)
N2 N 0.0730(3) 0.37446(8) 0.21027(11)
N3 N 0.2601(3) 0.32786(8) 0.35733(10)
H20 H 0.3237 0.2903 0.3833
O1 O 0.2406(3) 0.25433(7) 0.03744(10)
loop_
_geom_bond_atom_site_label_1
_geom_bond_atom_site_label_2
_geom_bond_site_symmetry_1
_geom_bond_site_symmetry_2
C1 C2 1_555 1_555
C2 H1 1_555 1_555
C3 C1 1_555 1_555
H2 C3 1_555 1_555
C4 C3 1_555 1_555
H3 C4 1_555 1_555
C5 C2 1_555 1_555
H4 C5 1_555 1_555
C6 C4 1_555 1_555
C7 N1 1_555 1_555
C8 C9 1_555 1_555
C9 N1 1_555 1_555
C10 C8 1_555 1_555
H5 C10 1_555 1_555
H6 C10 1_555 1_555
H7 C10 1_555 1_555
C11 C8 1_555 1_555
H8 C11 1_555 1_555
H9 C11 1_555 1_555
H10 C11 1_555 1_555
C12 C13 1_555 1_555
C13 H11 1_555 1_555
H12 C13 1_555 1_555
H13 C13 1_555 1_555
C14 C12 1_555 1_555
H14 C14 1_555 1_555
H15 C14 1_555 1_555
H16 C14 1_555 1_555
C15 C12 1_555 1_555
H17 C15 1_555 1_555
H18 C15 1_555 1_555
H19 C15 1_555 1_555
Cl1 C1 1_555 1_555
N1 C6 1_555 1_555
N2 C7 1_555 1_555
N3 C7 1_555 1_555
H20 N3 1_555 1_555
O1 C9 1_555 1_555
C5 C6 1_555 1_555
C8 N2 1_555 1_555
C12 N3 1_555 1_555

#END
