
#######################################################################
#
#                 Cambridge Crystallographic Data Centre
#                                CCDC 
#
#######################################################################
#
# If this CIF has been generated from an entry in the Cambridge 
# Structural Database, then it will include bibliographic, chemical, 
# crystal, experimental, refinement or atomic coordinate data resulting 
# from the CCDC's data processing and validation procedures.
#
#######################################################################

data_NEFSUN
_chemical_formula_moiety         'C15 H14 O3'
_chemical_name_systematic        2-(benzyloxy)-2-hydroxy-1-phenylethanone
_symmetry_cell_setting           monoclinic
_symmetry_space_group_name_H-M   'P 21/c'
_symmetry_Int_Tables_number      14
_space_group_name_Hall           '-P 2ybc'
loop_
_symmetry_equiv_pos_site_id
_symmetry_equiv_pos_as_xyz
1 x,y,z
2 -x,1/2+y,1/2-z
3 -x,-y,-z
4 x,1/2-y,1/2+z
_cell_length_a                   12.019(3)
_cell_length_b                   5.6824(13)
_cell_length_c                   19.049(4)
_cell_angle_alpha                90
_cell_angle_beta                 99.439(4)
_cell_angle_gamma                90
_cell_volume                     1283.37
_exptl_crystal_colour            white
_exptl_crystal_description       block
_cell_formula_units_Z            4
_exptl_crystal_recrystallization_method toluene
loop_
_atom_site_label
_atom_site_type_symbol
_atom_site_fract_x
_atom_site_fract_y
_atom_site_fract_z
O1 O 0.54684(12) -0.3476(2) 0.63951(7)
O2 O 0.53160(12) -0.0465(2) 0.73940(7)
H1 H 0.5121 0.0680 0.7606
O3 O 0.71108(9) 0.0378(2) 0.71723(6)
C1 C 0.61786(15) -0.2672(3) 0.51023(10)
H2 H 0.5804 -0.4071 0.5163
C2 C 0.65741(18) -0.2272(4) 0.44735(11)
H3 H 0.6451 -0.3375 0.4108
C3 C 0.71496(19) -0.0241(4) 0.43897(11)
H4 H 0.7433 0.0017 0.3970
C4 C 0.73104(19) 0.1412(4) 0.49185(11)
H5 H 0.7700 0.2790 0.4856
C5 C 0.68957(15) 0.1041(3) 0.55451(10)
H6 H 0.6997 0.2181 0.5900
C6 C 0.63301(13) -0.1025(3) 0.56457(8)
C7 C 0.58837(14) -0.1570(3) 0.63097(9)
C8 C 0.59593(13) 0.0281(3) 0.68918(9)
H7 H 0.5693 0.1808 0.6692
C9 C 0.74335(18) 0.2435(4) 0.75800(12)
H8 H 0.6872 0.2790 0.7877
H9 H 0.7475 0.3759 0.7264
C10 C 0.85583(15) 0.2070(3) 0.80388(9)
C11 C 0.87571(18) 0.0169(4) 0.84761(12)
H10 H 0.8199 -0.0967 0.8473
C12 C 0.9777(2) -0.0096(5) 0.89241(13)
H11 H 0.9904 -0.1398 0.9223
C13 C 1.0596(2) 0.1564(5) 0.89250(14)
H12 H 1.1278 0.1410 0.9232
C14 C 1.04214(19) 0.3426(5) 0.84840(14)
H13 H 1.0989 0.4534 0.8477
C15 C 0.94016(18) 0.3684(4) 0.80432(11)
H14 H 0.9284 0.4982 0.7743
loop_
_geom_bond_atom_site_label_1
_geom_bond_atom_site_label_2
_geom_bond_site_symmetry_1
_geom_bond_site_symmetry_2
O1 C7 1_555 1_555
O2 H1 1_555 1_555
O3 C8 1_555 1_555
C1 H2 1_555 1_555
C2 C1 1_555 1_555
H3 C2 1_555 1_555
C3 C2 1_555 1_555
H4 C3 1_555 1_555
C4 C3 1_555 1_555
H5 C4 1_555 1_555
C5 C4 1_555 1_555
H6 C5 1_555 1_555
C6 C1 1_555 1_555
C7 C6 1_555 1_555
C8 O2 1_555 1_555
H7 C8 1_555 1_555
C9 O3 1_555 1_555
H8 C9 1_555 1_555
H9 C9 1_555 1_555
C10 C9 1_555 1_555
C11 C10 1_555 1_555
H10 C11 1_555 1_555
C12 C11 1_555 1_555
H11 C12 1_555 1_555
C13 C12 1_555 1_555
H12 C13 1_555 1_555
C14 C13 1_555 1_555
H13 C14 1_555 1_555
C15 C10 1_555 1_555
H14 C15 1_555 1_555
C5 C6 1_555 1_555
C7 C8 1_555 1_555
C14 C15 1_555 1_555

#END
