
#######################################################################
#
#                 Cambridge Crystallographic Data Centre
#                                CCDC 
#
#######################################################################
#
# If this CIF has been generated from an entry in the Cambridge 
# Structural Database, then it will include bibliographic, chemical, 
# crystal, experimental, refinement or atomic coordinate data resulting 
# from the CCDC's data processing and validation procedures.
#
#######################################################################

data_NEFTEY01
_chemical_name_common            
'N-((3-Nitrophenyl)methylene)isonicotinohydrazide monohydrate'
_chemical_formula_moiety         'C13 H10 N4 O3,H2 O1'
_chemical_name_systematic        
'3-Nitrobenzaldehyde isonicotinoylhydrazone monohydrate'
_symmetry_cell_setting           orthorhombic
_symmetry_space_group_name_H-M   'P b c a'
_symmetry_Int_Tables_number      61
_space_group_name_Hall           '-P 2ac 2ab'
loop_
_symmetry_equiv_pos_site_id
_symmetry_equiv_pos_as_xyz
1 x,y,z
2 1/2-x,-y,1/2+z
3 -x,1/2+y,1/2-z
4 1/2+x,1/2-y,-z
5 -x,-y,-z
6 1/2+x,y,1/2-z
7 x,1/2-y,1/2+z
8 1/2-x,1/2+y,z
_cell_length_a                   13.3271(5)
_cell_length_b                   12.7054(5)
_cell_length_c                   15.7748(6)
_cell_angle_alpha                90
_cell_angle_beta                 90
_cell_angle_gamma                90
_cell_volume                     2671.09
_exptl_crystal_colour            colorless
_exptl_crystal_description       plate
_cell_formula_units_Z            8
_exptl_crystal_recrystallization_method ethanol/water
loop_
_atom_site_label
_atom_site_type_symbol
_atom_site_fract_x
_atom_site_fract_y
_atom_site_fract_z
O1 O 0.59192(11) 0.46569(13) 0.25135(11)
O3 O 0.81277(12) 0.30884(14) 0.55770(14)
O4 O 0.80418(13) 0.28086(16) 0.69298(14)
N1 N 0.31790(15) 0.55232(17) 0.04499(14)
N2 N 0.45206(13) 0.43701(15) 0.33013(13)
N3 N 0.76519(15) 0.29666(16) 0.62361(16)
N4 N 0.50754(13) 0.40251(15) 0.39867(13)
C1 C 0.27977(17) 0.4947(2) 0.10811(16)
C2 C 0.33378(16) 0.46409(19) 0.17870(16)
C3 C 0.43307(16) 0.49597(17) 0.18589(17)
C4 C 0.47309(17) 0.55755(19) 0.12166(17)
C5 C 0.41381(18) 0.5825(2) 0.05293(18)
C6 C 0.50010(16) 0.46530(16) 0.25819(16)
C7 C 0.50702(15) 0.34108(18) 0.54147(16)
C8 C 0.61178(16) 0.33407(17) 0.54532(16)
C9 C 0.65486(16) 0.30217(17) 0.62007(17)
C10 C 0.60063(18) 0.27562(18) 0.69141(17)
C11 C 0.49693(18) 0.28148(18) 0.68657(18)
C12 C 0.45101(16) 0.31444(18) 0.61238(17)
C13 C 0.45683(16) 0.37857(17) 0.46439(16)
H1 H 0.2116 0.4735 0.1042
H2 H 0.3036 0.4221 0.2215
H3 H 0.5403 0.5821 0.1250
H4 H 0.4425 0.6234 0.0087
H5 H 0.3862 0.4405 0.3333
H6 H 0.3858 0.3851 0.4635
H7 H 0.6520 0.3509 0.4975
H8 H 0.6332 0.2541 0.7421
H9 H 0.4572 0.2628 0.7343
H10 H 0.3799 0.3189 0.6101
O2 O 0.24327(11) 0.45409(14) 0.37125(11)
H11 H 0.1906 0.4567 0.3432
H12 H 0.2217 0.4503 0.4275
loop_
_geom_bond_atom_site_label_1
_geom_bond_atom_site_label_2
_geom_bond_site_symmetry_1
_geom_bond_site_symmetry_2
O1 C6 1_555 1_555
O2 H11 1_555 1_555
O3 N3 1_555 1_555
O4 N3 1_555 1_555
N1 C1 1_555 1_555
N2 N4 1_555 1_555
N3 C9 1_555 1_555
N4 C13 1_555 1_555
C1 C2 1_555 1_555
C2 C3 1_555 1_555
C3 C4 1_555 1_555
C4 C5 1_555 1_555
C5 N1 1_555 1_555
C6 N2 1_555 1_555
C7 C8 1_555 1_555
C8 C9 1_555 1_555
C9 C10 1_555 1_555
C10 C11 1_555 1_555
C11 C12 1_555 1_555
C12 C7 1_555 1_555
C13 C7 1_555 1_555
H1 C1 1_555 1_555
H2 C2 1_555 1_555
H3 C4 1_555 1_555
H4 C5 1_555 1_555
H5 N2 1_555 1_555
H6 C13 1_555 1_555
H7 C8 1_555 1_555
H8 C10 1_555 1_555
H9 C11 1_555 1_555
H10 C12 1_555 1_555
H12 O2 1_555 1_555
C3 C6 1_555 1_555

#END
