
#######################################################################
#
#                 Cambridge Crystallographic Data Centre
#                                CCDC 
#
#######################################################################
#
# If this CIF has been generated from an entry in the Cambridge 
# Structural Database, then it will include bibliographic, chemical, 
# crystal, experimental, refinement or atomic coordinate data resulting 
# from the CCDC's data processing and validation procedures.
#
#######################################################################

data_NEFVUQ
_chemical_formula_moiety         'C30 H26 N1 O4 P1'
_chemical_name_systematic        
'(Z)-Ethyl 3-(1,3-benzodioxol-5-yl)-2-((triphenylphosphoranylidene)amino)prop-2-enoate'
_symmetry_cell_setting           triclinic
_symmetry_space_group_name_H-M   'P -1'
_symmetry_Int_Tables_number      2
_space_group_name_Hall           '-P 1'
loop_
_symmetry_equiv_pos_site_id
_symmetry_equiv_pos_as_xyz
1 x,y,z
2 -x,-y,-z
_cell_length_a                   8.9346(10)
_cell_length_b                   10.1613(12)
_cell_length_c                   14.8002(16)
_cell_angle_alpha                71.628(2)
_cell_angle_beta                 89.328(2)
_cell_angle_gamma                79.940(2)
_cell_volume                     1254.23
_exptl_crystal_colour            colorless
_exptl_crystal_description       Block
_chemical_melting_point          '434-435 K'
_cell_formula_units_Z            2
_exptl_crystal_recrystallization_method ethanol
loop_
_atom_site_label
_atom_site_type_symbol
_atom_site_fract_x
_atom_site_fract_y
_atom_site_fract_z
P1 P 0.10334(9) 0.41810(9) 0.79589(6)
O1 O 0.7209(3) -0.0431(3) 0.5758(2)
O2 O 0.5795(3) -0.0525(3) 0.70809(17)
O3 O 0.0793(3) 0.6766(2) 0.49580(15)
O4 O -0.0170(3) 0.6317(2) 0.63975(16)
N1 N 0.1862(3) 0.3779(3) 0.71138(18)
C1 C 0.7018(5) -0.1257(4) 0.6699(3)
H1 H 0.7947 -0.1427 0.7083
H2 H 0.6794 -0.2159 0.6704
C2 C 0.5321(4) 0.0746(4) 0.6382(2)
C3 C 0.6171(4) 0.0797(4) 0.5598(3)
C4 C 0.5949(4) 0.1939(4) 0.4802(3)
H3 H 0.6530 0.1972 0.4272
C5 C 0.4812(4) 0.3056(4) 0.4814(2)
H4 H 0.4631 0.3851 0.4275
C6 C 0.3931(3) 0.3032(3) 0.5602(2)
C7 C 0.4202(3) 0.1834(3) 0.6419(2)
H5 H 0.3647 0.1784 0.6961
C8 C 0.2770(3) 0.4268(3) 0.5516(2)
H6 H 0.2646 0.4935 0.4912
C9 C 0.1844(3) 0.4611(3) 0.6166(2)
C10 C 0.0725(3) 0.5965(3) 0.5861(2)
C11 C -0.0211(4) 0.8127(4) 0.4690(3)
H7 H 0.0073 0.8689 0.5060
H8 H -0.1252 0.8000 0.4820
C12 C -0.0091(5) 0.8860(4) 0.3659(3)
H9 H 0.0955 0.8916 0.3526
H10 H -0.0684 0.9794 0.3489
H11 H -0.0466 0.8345 0.3294
C13 C 0.1884(3) 0.2804(4) 0.9032(2)
C14 C 0.1697(5) 0.1429(4) 0.9172(3)
H12 H 0.1129 0.1233 0.8723
C15 C 0.2338(6) 0.0350(5) 0.9964(3)
H13 H 0.2199 -0.0566 1.0049
C16 C 0.3183(5) 0.0627(5) 1.0629(3)
H14 H 0.3629 -0.0104 1.1160
C17 C 0.3366(5) 0.1971(5) 1.0512(3)
H15 H 0.3929 0.2157 1.0968
C18 C 0.2718(4) 0.3070(4) 0.9714(2)
H16 H 0.2847 0.3986 0.9640
C19 C 0.1382(4) 0.5797(3) 0.8121(2)
C20 C 0.2768(4) 0.6186(4) 0.7826(3)
H17 H 0.3452 0.5620 0.7565
C21 C 0.3140(5) 0.7395(5) 0.7916(3)
H18 H 0.4070 0.7644 0.7712
C22 C 0.2154(6) 0.8232(4) 0.8303(3)
H19 H 0.2417 0.9042 0.8372
C23 C 0.0775(6) 0.7873(4) 0.8588(3)
H20 H 0.0098 0.8450 0.8845
C24 C 0.0380(4) 0.6666(4) 0.8499(2)
H21 H -0.0560 0.6435 0.8693
C25 C -0.0964(3) 0.4039(3) 0.8060(2)
C26 C -0.1716(4) 0.3835(4) 0.7314(3)
H22 H -0.1238 0.3899 0.6744
C27 C -0.3162(4) 0.3540(4) 0.7411(3)
H23 H -0.3652 0.3392 0.6909
C28 C -0.3884(5) 0.3461(5) 0.8239(4)
H24 H -0.4863 0.3258 0.8301
C29 C -0.3168(5) 0.3680(5) 0.8980(3)
H25 H -0.3670 0.3645 0.9539
C30 C -0.1712(4) 0.3951(4) 0.8897(3)
H26 H -0.1222 0.4077 0.9406
loop_
_geom_bond_atom_site_label_1
_geom_bond_atom_site_label_2
_geom_bond_site_symmetry_1
_geom_bond_site_symmetry_2
P1 N1 1_555 1_555
O1 C1 1_555 1_555
O2 C1 1_555 1_555
O3 C10 1_555 1_555
O4 C10 1_555 1_555
N1 C9 1_555 1_555
C1 H1 1_555 1_555
H2 C1 1_555 1_555
C2 O2 1_555 1_555
C3 O1 1_555 1_555
C4 C3 1_555 1_555
H3 C4 1_555 1_555
C5 C4 1_555 1_555
H4 C5 1_555 1_555
C6 C5 1_555 1_555
C7 C2 1_555 1_555
H5 C7 1_555 1_555
C8 C6 1_555 1_555
H6 C8 1_555 1_555
C9 C8 1_555 1_555
C10 C9 1_555 1_555
C11 O3 1_555 1_555
H7 C11 1_555 1_555
H8 C11 1_555 1_555
C12 C11 1_555 1_555
H9 C12 1_555 1_555
H10 C12 1_555 1_555
H11 C12 1_555 1_555
C13 P1 1_555 1_555
C14 C13 1_555 1_555
H12 C14 1_555 1_555
C15 C14 1_555 1_555
H13 C15 1_555 1_555
C16 C15 1_555 1_555
H14 C16 1_555 1_555
C17 C16 1_555 1_555
H15 C17 1_555 1_555
C18 C13 1_555 1_555
H16 C18 1_555 1_555
C19 P1 1_555 1_555
C20 C19 1_555 1_555
H17 C20 1_555 1_555
C21 C20 1_555 1_555
H18 C21 1_555 1_555
C22 C21 1_555 1_555
H19 C22 1_555 1_555
C23 C22 1_555 1_555
H20 C23 1_555 1_555
C24 C19 1_555 1_555
H21 C24 1_555 1_555
C25 P1 1_555 1_555
C26 C25 1_555 1_555
H22 C26 1_555 1_555
C27 C26 1_555 1_555
H23 C27 1_555 1_555
C28 C27 1_555 1_555
H24 C28 1_555 1_555
C29 C28 1_555 1_555
H25 C29 1_555 1_555
C30 C25 1_555 1_555
H26 C30 1_555 1_555
C2 C3 1_555 1_555
C6 C7 1_555 1_555
C17 C18 1_555 1_555
C23 C24 1_555 1_555
C29 C30 1_555 1_555

#END
