
#######################################################################
#
#                 Cambridge Crystallographic Data Centre
#                                CCDC 
#
#######################################################################
#
# If this CIF has been generated from an entry in the Cambridge 
# Structural Database, then it will include bibliographic, chemical, 
# crystal, experimental, refinement or atomic coordinate data resulting 
# from the CCDC's data processing and validation procedures.
#
#######################################################################

data_NEGCUY01
_chemical_formula_moiety         'C48 H68 Li4 N8 Si2'
_chemical_name_systematic        
bis(\m~4~-N,N'-(Dimethylsilanediyl)bis(N'-tert-butylbenzenecarboximidamide))-tetra-lithium
_symmetry_cell_setting           monoclinic
_symmetry_space_group_name_H-M   'P 21/n'
_symmetry_Int_Tables_number      14
_space_group_name_Hall           '-P 2yn'
loop_
_symmetry_equiv_pos_site_id
_symmetry_equiv_pos_as_xyz
1 x,y,z
2 1/2-x,1/2+y,1/2-z
3 -x,-y,-z
4 1/2+x,1/2-y,1/2+z
_cell_length_a                   11.7377(11)
_cell_length_b                   21.728(2)
_cell_length_c                   21.2696(19)
_cell_angle_alpha                90
_cell_angle_beta                 99.599(2)
_cell_angle_gamma                90
_cell_volume                     5348.58
_exptl_crystal_colour            colorless
_exptl_crystal_description       block
_cell_formula_units_Z            4
loop_
_atom_site_label
_atom_site_type_symbol
_atom_site_fract_x
_atom_site_fract_y
_atom_site_fract_z
Li1 Li 1.1382(7) 0.5500(3) 0.1886(4)
Li2 Li 0.9800(6) 0.4816(3) 0.2455(3)
Li3 Li 0.9824(6) 0.5958(4) 0.2425(3)
Li4 Li 0.8255(7) 0.5576(4) 0.2951(4)
N1 N 1.1777(3) 0.62700(16) 0.14425(17)
N2 N 0.9942(3) 0.60074(16) 0.15138(16)
N3 N 0.8450(3) 0.53627(15) 0.19681(14)
N4 N 0.8146(3) 0.46581(15) 0.26877(14)
N5 N 1.1466(3) 0.46094(15) 0.22342(15)
N6 N 1.1166(3) 0.53578(15) 0.29153(14)
N7 N 0.9720(3) 0.60579(16) 0.33487(15)
N8 N 0.7869(3) 0.63433(16) 0.33845(16)
Si1 Si 0.85779(11) 0.57403(6) 0.12626(5)
Si2 Si 1.10845(11) 0.57835(7) 0.35960(6)
C1 C 1.2738(5) 0.6641(3) 0.1285(3)
C2 C 1.2799(6) 0.7252(3) 0.1579(4)
H1 H 1.2205 0.7514 0.1345
H2 H 1.3553 0.7431 0.1568
H3 H 1.2679 0.7216 0.2018
C3 C 1.2769(7) 0.6684(5) 0.0598(4)
H4 H 1.2448 0.6311 0.0388
H5 H 1.3563 0.6732 0.0533
H6 H 1.2318 0.7036 0.0421
C4 C 1.3806(6) 0.6315(4) 0.1595(5)
H7 H 1.3889 0.6359 0.2054
H8 H 1.4474 0.6493 0.1448
H9 H 1.3750 0.5882 0.1483
C5 C 1.0685(4) 0.63705(18) 0.12577(17)
C6 C 1.0143(4) 0.6865(2) 0.0818(2)
C7 C 0.9771(5) 0.7398(2) 0.1083(3)
H10 H 0.9917 0.7451 0.1528
C8 C 0.9181(6) 0.7858(3) 0.0696(4)
H11 H 0.8927 0.8221 0.0871
C9 C 0.8996(7) 0.7759(4) 0.0072(5)
H12 H 0.8596 0.8068 -0.0186
C10 C 0.9322(8) 0.7266(4) -0.0227(3)
H13 H 0.9173 0.7229 -0.0673
C11 C 0.9917(6) 0.6790(3) 0.0176(2)
H14 H 1.0148 0.6428 -0.0008
C12 C 0.7451(4) 0.6346(3) 0.1075(3)
H15 H 0.7403 0.6582 0.1456
H16 H 0.6710 0.6154 0.0922
H17 H 0.7653 0.6617 0.0748
C13 C 0.8485(6) 0.5228(3) 0.0553(2)
H18 H 0.8735 0.5452 0.0205
H19 H 0.7693 0.5093 0.0424
H20 H 0.8980 0.4872 0.0660
C14 C 0.7835(3) 0.48798(17) 0.21057(17)
C15 C 0.6909(4) 0.46278(18) 0.15970(17)
C16 C 0.7054(4) 0.40775(19) 0.1294(2)
H21 H 0.7725 0.3842 0.1422
C17 C 0.6218(5) 0.3873(2) 0.0806(2)
H22 H 0.6320 0.3498 0.0601
C18 C 0.5237(6) 0.4215(3) 0.0617(2)
H23 H 0.4668 0.4072 0.0285
C19 C 0.5084(5) 0.4755(3) 0.0906(2)
H24 H 0.4411 0.4987 0.0772
C20 C 0.5915(4) 0.4970(2) 0.1399(2)
H25 H 0.5805 0.5347 0.1598
C21 C 0.7583(4) 0.4168(2) 0.3008(2)
C22 C 0.7866(5) 0.4323(3) 0.3715(2)
H26 H 0.8696 0.4364 0.3839
H27 H 0.7587 0.3996 0.3961
H28 H 0.7494 0.4707 0.3795
C23 C 0.8124(6) 0.3557(2) 0.2907(3)
H29 H 0.7870 0.3422 0.2471
H30 H 0.7892 0.3256 0.3198
H31 H 0.8958 0.3598 0.2986
C24 C 0.6264(5) 0.4137(3) 0.2819(3)
H32 H 0.5943 0.4548 0.2817
H33 H 0.5946 0.3883 0.3123
H34 H 0.6068 0.3958 0.2396
C25 C 1.2006(4) 0.4085(2) 0.19557(19)
C26 C 1.1767(5) 0.4204(3) 0.1238(2)
H35 H 1.0940 0.4225 0.1093
H36 H 1.2091 0.3872 0.1019
H37 H 1.2120 0.4590 0.1146
C27 C 1.1406(6) 0.3492(2) 0.2088(3)
H38 H 1.1558 0.3406 0.2542
H39 H 1.1697 0.3156 0.1860
H40 H 1.0580 0.3534 0.1948
C28 C 1.3302(5) 0.4027(3) 0.2156(3)
H41 H 1.3654 0.4431 0.2160
H42 H 1.3612 0.3764 0.1857
H43 H 1.3470 0.3849 0.2580
C29 C 1.1773(3) 0.48617(18) 0.28074(17)
C30 C 1.2685(4) 0.46284(19) 0.33291(18)
C31 C 1.2508(5) 0.4106(2) 0.3670(2)
H44 H 1.1833 0.3872 0.3549
C32 C 1.3309(6) 0.3922(3) 0.4184(2)
H45 H 1.3180 0.3564 0.4411
C33 C 1.4290(6) 0.4260(3) 0.4363(2)
H46 H 1.4832 0.4137 0.4717
C34 C 1.4489(4) 0.4775(3) 0.4030(2)
H47 H 1.5174 0.5000 0.4152
C35 C 1.3687(4) 0.4968(2) 0.3512(2)
H48 H 1.3821 0.5327 0.3288
C36 C 1.1236(6) 0.5326(4) 0.4345(2)
H49 H 1.1231 0.5601 0.4704
H50 H 1.1959 0.5101 0.4402
H51 H 1.0597 0.5039 0.4320
C37 C 1.2213(5) 0.6399(3) 0.3672(4)
H52 H 1.2124 0.6637 0.3281
H53 H 1.2974 0.6212 0.3750
H54 H 1.2126 0.6668 0.4026
C38 C 0.8965(4) 0.63824(18) 0.36361(18)
C39 C 0.9455(4) 0.67249(19) 0.4234(2)
C40 C 0.9372(5) 0.6487(2) 0.4823(2)
H55 H 0.8951 0.6122 0.4846
C41 C 0.9886(6) 0.6766(3) 0.5381(3)
H56 H 0.9803 0.6597 0.5778
C42 C 1.0510(6) 0.7284(4) 0.5351(3)
H57 H 1.0870 0.7471 0.5731
C43 C 1.0628(5) 0.7540(3) 0.4784(4)
H58 H 1.1065 0.7901 0.4772
C44 C 1.0085(4) 0.7260(2) 0.4207(3)
H59 H 1.0154 0.7435 0.3811
C45 C 0.6900(4) 0.6685(3) 0.3551(3)
C46 C 0.6440(7) 0.6397(4) 0.4068(4)
H60 H 0.6207 0.5979 0.3950
H61 H 0.5776 0.6628 0.4155
H62 H 0.7028 0.6391 0.4447
C47 C 0.7131(6) 0.7340(3) 0.3732(4)
H63 H 0.7243 0.7379 0.4193
H64 H 0.6478 0.7591 0.3544
H65 H 0.7820 0.7478 0.3578
C48 C 0.5972(6) 0.6676(5) 0.2986(4)
H66 H 0.6161 0.6961 0.2668
H67 H 0.5247 0.6797 0.3112
H68 H 0.5899 0.6264 0.2809
loop_
_geom_bond_atom_site_label_1
_geom_bond_atom_site_label_2
_geom_bond_site_symmetry_1
_geom_bond_site_symmetry_2
Li1 N1 1_555 1_555
Li2 N3 1_555 1_555
Li3 N2 1_555 1_555
Li4 N3 1_555 1_555
N1 C1 1_555 1_555
N2 Li1 1_555 1_555
N3 Li3 1_555 1_555
N4 Li2 1_555 1_555
N5 Li1 1_555 1_555
N6 Li1 1_555 1_555
N7 Li3 1_555 1_555
N8 Li4 1_555 1_555
Si1 N2 1_555 1_555
Si2 N6 1_555 1_555
C1 C2 1_555 1_555
C2 H1 1_555 1_555
H2 C2 1_555 1_555
H3 C2 1_555 1_555
C3 C1 1_555 1_555
H4 C3 1_555 1_555
H5 C3 1_555 1_555
H6 C3 1_555 1_555
C4 C1 1_555 1_555
H7 C4 1_555 1_555
H8 C4 1_555 1_555
H9 C4 1_555 1_555
C5 N1 1_555 1_555
C6 C5 1_555 1_555
C7 C6 1_555 1_555
H10 C7 1_555 1_555
C8 C7 1_555 1_555
H11 C8 1_555 1_555
C9 C8 1_555 1_555
H12 C9 1_555 1_555
C10 C9 1_555 1_555
H13 C10 1_555 1_555
C11 C6 1_555 1_555
H14 C11 1_555 1_555
C12 Si1 1_555 1_555
H15 C12 1_555 1_555
H16 C12 1_555 1_555
H17 C12 1_555 1_555
C13 Si1 1_555 1_555
H18 C13 1_555 1_555
H19 C13 1_555 1_555
H20 C13 1_555 1_555
C14 N3 1_555 1_555
C15 C14 1_555 1_555
C16 C15 1_555 1_555
H21 C16 1_555 1_555
C17 C16 1_555 1_555
H22 C17 1_555 1_555
C18 C17 1_555 1_555
H23 C18 1_555 1_555
C19 C18 1_555 1_555
H24 C19 1_555 1_555
C20 C15 1_555 1_555
H25 C20 1_555 1_555
C21 N4 1_555 1_555
C22 C21 1_555 1_555
H26 C22 1_555 1_555
H27 C22 1_555 1_555
H28 C22 1_555 1_555
C23 C21 1_555 1_555
H29 C23 1_555 1_555
H30 C23 1_555 1_555
H31 C23 1_555 1_555
C24 C21 1_555 1_555
H32 C24 1_555 1_555
H33 C24 1_555 1_555
H34 C24 1_555 1_555
C25 N5 1_555 1_555
C26 C25 1_555 1_555
H35 C26 1_555 1_555
H36 C26 1_555 1_555
H37 C26 1_555 1_555
C27 C25 1_555 1_555
H38 C27 1_555 1_555
H39 C27 1_555 1_555
H40 C27 1_555 1_555
C28 C25 1_555 1_555
H41 C28 1_555 1_555
H42 C28 1_555 1_555
H43 C28 1_555 1_555
C29 N5 1_555 1_555
C30 C29 1_555 1_555
C31 C30 1_555 1_555
H44 C31 1_555 1_555
C32 C31 1_555 1_555
H45 C32 1_555 1_555
C33 C32 1_555 1_555
H46 C33 1_555 1_555
C34 C33 1_555 1_555
H47 C34 1_555 1_555
C35 C30 1_555 1_555
H48 C35 1_555 1_555
C36 Si2 1_555 1_555
H49 C36 1_555 1_555
H50 C36 1_555 1_555
H51 C36 1_555 1_555
C37 Si2 1_555 1_555
H52 C37 1_555 1_555
H53 C37 1_555 1_555
H54 C37 1_555 1_555
C38 N7 1_555 1_555
C39 C38 1_555 1_555
C40 C39 1_555 1_555
H55 C40 1_555 1_555
C41 C40 1_555 1_555
H56 C41 1_555 1_555
C42 C41 1_555 1_555
H57 C42 1_555 1_555
C43 C42 1_555 1_555
H58 C43 1_555 1_555
C44 C39 1_555 1_555
H59 C44 1_555 1_555
C45 N8 1_555 1_555
C46 C45 1_555 1_555
H60 C46 1_555 1_555
H61 C46 1_555 1_555
H62 C46 1_555 1_555
C47 C45 1_555 1_555
H63 C47 1_555 1_555
H64 C47 1_555 1_555
H65 C47 1_555 1_555
C48 C45 1_555 1_555
H66 C48 1_555 1_555
H67 C48 1_555 1_555
H68 C48 1_555 1_555
Li2 N5 1_555 1_555
Li2 N6 1_555 1_555
Li3 N6 1_555 1_555
Li4 N4 1_555 1_555
Li4 N7 1_555 1_555
N2 C5 1_555 1_555
N3 Si1 1_555 1_555
N4 C14 1_555 1_555
N6 C29 1_555 1_555
N7 Si2 1_555 1_555
N8 C38 1_555 1_555
C10 C11 1_555 1_555
C19 C20 1_555 1_555
C34 C35 1_555 1_555
C43 C44 1_555 1_555

#END
