
#######################################################################
#
#                 Cambridge Crystallographic Data Centre
#                                CCDC 
#
#######################################################################
#
# If this CIF has been generated from an entry in the Cambridge 
# Structural Database, then it will include bibliographic, chemical, 
# crystal, experimental, refinement or atomic coordinate data resulting 
# from the CCDC's data processing and validation procedures.
#
#######################################################################

data_NEGDEK
_chemical_formula_moiety         'C11 H23 N2 P1 2+,2(Br1 1-)'
_chemical_name_systematic        
'2-((Di-isopropylphosphonio)methyl)-1-methyl-1H-imidazol-3-ium dibromide'
_symmetry_cell_setting           triclinic
_symmetry_space_group_name_H-M   'P -1'
_symmetry_Int_Tables_number      2
_space_group_name_Hall           '-P 1'
loop_
_symmetry_equiv_pos_site_id
_symmetry_equiv_pos_as_xyz
1 x,y,z
2 -x,-y,-z
_cell_length_a                   6.7170(4)
_cell_length_b                   10.9331(6)
_cell_length_c                   11.1218(6)
_cell_angle_alpha                83.368(4)
_cell_angle_beta                 75.753(4)
_cell_angle_gamma                79.694(4)
_cell_volume                     776.676
_exptl_crystal_colour            colorless
_exptl_crystal_description       prism
_cell_formula_units_Z            2
loop_
_atom_site_label
_atom_site_type_symbol
_atom_site_fract_x
_atom_site_fract_y
_atom_site_fract_z
C1 C 1.0337(3) 0.3306(2) 0.5485(2)
C2 C 1.0049(3) 0.3564(2) 0.68008(19)
H1 H 0.8856 0.4241 0.7010
H2 H 1.1303 0.3867 0.6894
C3 C 0.9716(3) 0.3173(2) 0.3645(2)
H3 H 0.9018 0.3254 0.2987
C4 C 1.1684(3) 0.2596(2) 0.3630(2)
H4 H 1.2638 0.2206 0.2950
C5 C 1.3952(3) 0.2140(2) 0.5181(2)
H5 H 1.4258 0.2708 0.5709
H6 H 1.5106 0.2014 0.4449
H7 H 1.3771 0.1338 0.5652
C6 C 0.7511(3) 0.1484(2) 0.7684(2)
H8 H 0.6282 0.2137 0.7625
C7 C 0.8188(4) 0.0791(2) 0.6494(2)
H9 H 0.9467 0.0203 0.6512
H10 H 0.8439 0.1392 0.5769
H11 H 0.7089 0.0334 0.6438
C8 C 0.6908(4) 0.0571(3) 0.8818(2)
H12 H 0.5815 0.0141 0.8702
H13 H 0.6394 0.1031 0.9568
H14 H 0.8129 -0.0042 0.8908
C9 C 0.9146(4) 0.2715(2) 0.9459(2)
H15 H 0.8817 0.1978 1.0049
C10 C 0.7267(5) 0.3737(3) 0.9743(3)
H16 H 0.6946 0.3888 1.0627
H17 H 0.6069 0.3475 0.9547
H18 H 0.7578 0.4505 0.9237
C11 C 1.1121(4) 0.3064(3) 0.9673(2)
H19 H 1.1501 0.3785 0.9108
H20 H 1.2252 0.2358 0.9514
H21 H 1.0880 0.3274 1.0536
N1 N 0.8930(3) 0.36202(18) 0.48047(17)
N2 N 1.2044(3) 0.26797(17) 0.47830(16)
P1 P 0.95932(8) 0.22215(5) 0.79063(5)
H22 H 0.774(5) 0.397(3) 0.504(3)
H23 H 1.126(4) 0.141(3) 0.774(2)
Br1 Br 0.47825(3) 0.48351(2) 0.68453(2)
Br2 Br 0.70297(3) 0.08986(2) 0.22968(2)
loop_
_geom_bond_atom_site_label_1
_geom_bond_atom_site_label_2
_geom_bond_site_symmetry_1
_geom_bond_site_symmetry_2
C1 C2 1_555 1_555
C2 H1 1_555 1_555
H2 C2 1_555 1_555
C3 H3 1_555 1_555
C4 C3 1_555 1_555
H4 C4 1_555 1_555
C5 H5 1_555 1_555
H6 C5 1_555 1_555
H7 C5 1_555 1_555
C6 H8 1_555 1_555
C7 C6 1_555 1_555
H9 C7 1_555 1_555
H10 C7 1_555 1_555
H11 C7 1_555 1_555
C8 C6 1_555 1_555
H12 C8 1_555 1_555
H13 C8 1_555 1_555
H14 C8 1_555 1_555
C9 H15 1_555 1_555
C10 C9 1_555 1_555
H16 C10 1_555 1_555
H17 C10 1_555 1_555
H18 C10 1_555 1_555
C11 C9 1_555 1_555
H19 C11 1_555 1_555
H20 C11 1_555 1_555
H21 C11 1_555 1_555
N1 C1 1_555 1_555
N2 C1 1_555 1_555
P1 C2 1_555 1_555
H22 N1 1_555 1_555
H23 P1 1_555 1_555
C3 N1 1_555 1_555
C4 N2 1_555 1_555
C5 N2 1_555 1_555
C6 P1 1_555 1_555
C9 P1 1_555 1_555

#END
