
#######################################################################
#
#                 Cambridge Crystallographic Data Centre
#                                CCDC 
#
#######################################################################
#
# If this CIF has been generated from an entry in the Cambridge 
# Structural Database, then it will include bibliographic, chemical, 
# crystal, experimental, refinement or atomic coordinate data resulting 
# from the CCDC's data processing and validation procedures.
#
#######################################################################

data_NEGHAL
_chemical_formula_moiety         'C30 H23 N5'
_chemical_name_systematic        
2^4^-(3,5-diphenyl-4,5-dihydro-1H-pyrazol-1-yl)-1^2^,2^2^:2^6^,3^2^-terpyridine
_symmetry_cell_setting           monoclinic
_symmetry_space_group_name_H-M   'P 21/n'
_symmetry_Int_Tables_number      14
_space_group_name_Hall           '-P 2yn'
loop_
_symmetry_equiv_pos_site_id
_symmetry_equiv_pos_as_xyz
1 x,y,z
2 1/2-x,1/2+y,1/2-z
3 -x,-y,-z
4 1/2+x,1/2-y,1/2+z
_cell_length_a                   18.2004(8)
_cell_length_b                   5.5954(3)
_cell_length_c                   22.8030(9)
_cell_angle_alpha                90
_cell_angle_beta                 100.818(2)
_cell_angle_gamma                90
_cell_volume                     2280.95
_exptl_crystal_colour            colorless
_exptl_crystal_description       needle
_cell_formula_units_Z            4
loop_
_atom_site_label
_atom_site_type_symbol
_atom_site_fract_x
_atom_site_fract_y
_atom_site_fract_z
C1 C 0.36309(7) 0.7582(3) 0.44823(6)
C2 C 0.36082(7) 0.5842(3) 0.49089(6)
C3 C 0.40093(7) 0.3761(3) 0.48799(6)
C4 C 0.44214(7) 0.3503(2) 0.44312(5)
C5 C 0.44260(6) 0.5381(2) 0.40294(5)
C6 C 0.48924(6) 0.5214(2) 0.35596(5)
C7 C 0.47980(6) 0.6844(2) 0.30899(5)
C8 C 0.52519(6) 0.6604(2) 0.26598(5)
C9 C 0.57843(6) 0.4771(2) 0.27298(5)
C10 C 0.58313(6) 0.3246(2) 0.32153(5)
C11 C 0.63885(6) 0.1280(2) 0.33028(5)
C12 C 0.65087(8) -0.0099(3) 0.38218(5)
C13 C 0.70427(8) -0.1893(3) 0.38834(6)
C14 C 0.74339(7) -0.2273(3) 0.34296(7)
C15 C 0.72753(8) -0.0837(3) 0.29290(7)
C16 C 0.63151(7) 0.7867(2) 0.07343(6)
C17 C 0.66754(8) 0.8044(3) 0.02513(6)
C18 C 0.65484(7) 1.0010(3) -0.01308(6)
C19 C 0.60590(8) 1.1774(3) -0.00259(6)
C20 C 0.56942(7) 1.1609(2) 0.04585(5)
C21 C 0.58209(7) 0.9649(2) 0.08440(5)
C22 C 0.54484(6) 0.9505(2) 0.13588(5)
C23 C 0.48961(7) 1.1296(2) 0.15121(5)
C24 C 0.46251(6) 1.0071(2) 0.20438(5)
C25 C 0.38334(6) 0.9111(2) 0.18863(5)
C26 C 0.36825(7) 0.6963(2) 0.15809(6)
C27 C 0.29524(8) 0.6130(3) 0.14258(6)
C28 C 0.23673(8) 0.7441(3) 0.15769(7)
C29 C 0.25130(8) 0.9570(3) 0.18819(7)
C30 C 0.32457(7) 1.0406(3) 0.20402(6)
N1 N 0.53933(5) 0.34263(19) 0.36273(4)
N2 N 0.40335(6) 0.7400(2) 0.40480(5)
N3 N 0.51791(6) 0.8141(2) 0.21827(4)
N4 N 0.55981(6) 0.7801(2) 0.17451(4)
N5 N 0.67681(6) 0.0925(2) 0.28606(5)
H1 H 0.3353 0.9085 0.4492
H2 H 0.3314 0.6054 0.5216
H3 H 0.4000 0.2496 0.5165
H4 H 0.4695 0.2043 0.4393
H5 H 0.4435 0.8129 0.3069
H6 H 0.6112 0.4603 0.2451
H7 H 0.6214 0.0209 0.4127
H8 H 0.7140 -0.2910 0.4234
H9 H 0.7802 -0.3535 0.3456
H10 H 0.7551 -0.1081 0.2603
H11 H 0.6399 0.6523 0.0994
H12 H 0.7011 0.6831 0.0180
H13 H 0.6816 1.0137 -0.0462
H14 H 0.5970 1.3141 -0.0289
H15 H 0.5354 1.2871 0.0534
H16 H 0.5151 1.2849 0.1622
H17 H 0.4466 1.1557 0.1170
H18 H 0.4653 1.1220 0.2387
H19 H 0.4092 0.6001 0.1473
H20 H 0.2864 0.4603 0.1219
H21 H 0.1858 0.6825 0.1471
H22 H 0.2114 1.0498 0.1998
H23 H 0.3338 1.1891 0.2255
loop_
_geom_bond_atom_site_label_1
_geom_bond_atom_site_label_2
_geom_bond_site_symmetry_1
_geom_bond_site_symmetry_2
C1 C2 1_555 1_555
C2 C3 1_555 1_555
C3 C4 1_555 1_555
C4 C5 1_555 1_555
C5 C6 1_555 1_555
C6 C7 1_555 1_555
C7 C8 1_555 1_555
C8 C9 1_555 1_555
C9 C10 1_555 1_555
C10 C11 1_555 1_555
C11 C12 1_555 1_555
C12 C13 1_555 1_555
C13 C14 1_555 1_555
C14 C15 1_555 1_555
C15 N5 1_555 1_555
C16 C17 1_555 1_555
C17 C18 1_555 1_555
C18 C19 1_555 1_555
C19 C20 1_555 1_555
C20 C21 1_555 1_555
C21 C16 1_555 1_555
C22 C21 1_555 1_555
C23 C22 1_555 1_555
C24 C23 1_555 1_555
C25 C24 1_555 1_555
C26 C25 1_555 1_555
C27 C26 1_555 1_555
C28 C27 1_555 1_555
C29 C28 1_555 1_555
C30 C25 1_555 1_555
N1 C6 1_555 1_555
N2 C1 1_555 1_555
N3 C8 1_555 1_555
N4 C22 1_555 1_555
N5 C11 1_555 1_555
H1 C1 1_555 1_555
H2 C2 1_555 1_555
H3 C3 1_555 1_555
H4 C4 1_555 1_555
H5 C7 1_555 1_555
H6 C9 1_555 1_555
H7 C12 1_555 1_555
H8 C13 1_555 1_555
H9 C14 1_555 1_555
H10 C15 1_555 1_555
H11 C16 1_555 1_555
H12 C17 1_555 1_555
H13 C18 1_555 1_555
H14 C19 1_555 1_555
H15 C20 1_555 1_555
H16 C23 1_555 1_555
H17 C23 1_555 1_555
H18 C24 1_555 1_555
H19 C26 1_555 1_555
H20 C27 1_555 1_555
H21 C28 1_555 1_555
H22 C29 1_555 1_555
H23 C30 1_555 1_555
C5 N2 1_555 1_555
C10 N1 1_555 1_555
C24 N3 1_555 1_555
C29 C30 1_555 1_555
N3 N4 1_555 1_555

#END
