
#######################################################################
#
#                 Cambridge Crystallographic Data Centre
#                                CCDC 
#
#######################################################################
#
# If this CIF has been generated from an entry in the Cambridge 
# Structural Database, then it will include bibliographic, chemical, 
# crystal, experimental, refinement or atomic coordinate data resulting 
# from the CCDC's data processing and validation procedures.
#
#######################################################################

data_NEGJIV
_chemical_formula_moiety         'C62 H56'
_chemical_name_systematic        
6,12-bis(4-t-butylphenyl)-4,10-bis(2,4,6-trimethylphenyl)cyclopenta[pqr]indeno[2,1,7-ijk]tetraphene
_symmetry_cell_setting           monoclinic
_symmetry_space_group_name_H-M   'P 21/c'
_symmetry_Int_Tables_number      14
_space_group_name_Hall           '-P 2ybc'
loop_
_symmetry_equiv_pos_site_id
_symmetry_equiv_pos_as_xyz
1 x,y,z
2 -x,1/2+y,1/2-z
3 -x,-y,-z
4 x,1/2-y,1/2+z
_cell_length_a                   15.4981(17)
_cell_length_b                   9.1422(7)
_cell_length_c                   15.9220(12)
_cell_angle_alpha                90
_cell_angle_beta                 98.939(10)
_cell_angle_gamma                90
_cell_volume                     2228.54
_exptl_crystal_colour            red
_exptl_crystal_description       plate
_cell_formula_units_Z            2
loop_
_atom_site_label
_atom_site_type_symbol
_atom_site_fract_x
_atom_site_fract_y
_atom_site_fract_z
C1 C 0.7985(2) 0.3096(3) 0.66000(18)
C2 C 0.5780(2) 0.2201(3) 0.39704(17)
C3 C 0.5819(2) 0.4866(3) 0.56399(17)
C4 C 0.7180(2) 0.3412(3) 0.59922(18)
C5 C 0.6165(2) 0.2908(3) 0.47281(18)
C6 C 0.6948(2) 0.2556(3) 0.52272(18)
C7 C 0.6622(2) 0.4529(3) 0.61724(18)
H1 H 0.6781 0.5079 0.6663
C8 C 0.4303(2) 0.2436(3) 0.29351(17)
C9 C 0.4500(2) 0.2599(3) 0.21094(17)
C10 C 0.4834(2) 0.4028(3) 0.42543(17)
C11 C 0.5606(2) 0.4023(3) 0.49174(18)
C12 C 0.3532(2) 0.1725(3) 0.30691(18)
C13 C 0.4937(2) 0.2925(3) 0.36845(17)
C14 C 0.3898(2) 0.2088(3) 0.14232(18)
H2 H 0.4021 0.2199 0.0874
C15 C 0.2958(2) 0.1235(3) 0.23673(19)
H3 H 0.2445 0.0768 0.2453
C16 C 0.9501(2) 0.2567(3) 0.7810(2)
C17 C 0.8794(2) 0.2908(3) 0.63513(19)
H4 H 0.8842 0.2957 0.5777
C18 C 0.6230(2) 0.1033(3) 0.36996(18)
H5 H 0.6009 0.0522 0.3208
C19 C 0.5330(2) 0.3337(4) 0.19527(19)
H6 H 0.5428 0.4196 0.2301
H7 H 0.5278 0.3609 0.1365
H8 H 0.5812 0.2676 0.2093
C20 C 0.3126(2) 0.1423(3) 0.15424(19)
C21 C 0.7397(2) 0.1349(3) 0.49255(19)
H9 H 0.7931 0.1046 0.5224
C22 C 0.7039(2) 0.0634(3) 0.41913(19)
H10 H 0.7343 -0.0151 0.4009
C23 C 0.7943(2) 0.2993(4) 0.74663(19)
H11 H 0.7407 0.3087 0.7655
C24 C 0.9541(2) 0.2648(3) 0.6944(2)
H12 H 1.0076 0.2526 0.6757
C25 C 0.8691(2) 0.2753(4) 0.8050(2)
H13 H 0.8644 0.2716 0.8625
C26 C 0.3322(2) 0.1460(4) 0.39490(19)
H14 H 0.3805 0.0975 0.4287
H15 H 0.2811 0.0857 0.3913
H16 H 0.3217 0.2378 0.4207
C27 C 1.0319(2) 0.2324(4) 0.8477(2)
C28 C 0.2458(2) 0.0931(4) 0.0795(2)
H17 H 0.2062 0.1720 0.0618
H18 H 0.2137 0.0110 0.0962
H19 H 0.2752 0.0652 0.0332
C29 C 1.0110(3) 0.1251(4) 0.9156(2)
H20 H 0.9683 0.1676 0.9459
H21 H 1.0633 0.1043 0.9546
H22 H 0.9884 0.0360 0.8888
C30 C 1.1080(2) 0.1717(4) 0.8083(2)
H23 H 1.0914 0.0799 0.7812
H24 H 1.1574 0.1574 0.8519
H25 H 1.1230 0.2395 0.7669
C31 C 1.0586(3) 0.3806(5) 0.8902(3)
H26 H 1.0748 0.4469 0.8486
H27 H 1.1073 0.3666 0.9347
H28 H 1.0103 0.4205 0.9137
C1B C 0.2015(2) 0.6904(3) 0.34000(18)
C2B C 0.4220(2) 0.7799(3) 0.60296(17)
C3B C 0.4181(2) 0.5134(3) 0.43601(17)
C4B C 0.2820(2) 0.6588(3) 0.40078(18)
C5B C 0.3835(2) 0.7092(3) 0.52719(18)
C6B C 0.3052(2) 0.7444(3) 0.47728(18)
C7B C 0.3378(2) 0.5471(3) 0.38276(18)
H1B H 0.3219 0.4921 0.3337
C8B C 0.5697(2) 0.7564(3) 0.70649(17)
C9B C 0.5500(2) 0.7401(3) 0.78906(17)
C10B C 0.5166(2) 0.5972(3) 0.57457(17)
C11B C 0.4394(2) 0.5977(3) 0.50826(18)
C12B C 0.6468(2) 0.8275(3) 0.69309(18)
C13B C 0.5063(2) 0.7075(3) 0.63155(17)
C14B C 0.6102(2) 0.7912(3) 0.85768(18)
H2B H 0.5979 0.7801 0.9126
C15B C 0.7042(2) 0.8765(3) 0.76327(19)
H3B H 0.7555 0.9232 0.7547
C16B C 0.0499(2) 0.7433(3) 0.2190(2)
C17B C 0.1206(2) 0.7092(3) 0.36487(19)
H4B H 0.1158 0.7043 0.4223
C18B C 0.3770(2) 0.8967(3) 0.63004(18)
H5B H 0.3991 0.9478 0.6792
C19B C 0.4670(2) 0.6663(4) 0.80473(19)
H6B H 0.4572 0.5804 0.7699
H7B H 0.4722 0.6391 0.8635
H8B H 0.4188 0.7324 0.7907
C20B C 0.6874(2) 0.8577(3) 0.84576(19)
C21B C 0.2603(2) 0.8651(3) 0.50745(19)
H9B H 0.2069 0.8954 0.4776
C22B C 0.2961(2) 0.9366(3) 0.58087(19)
H10B H 0.2657 1.0151 0.5991
C23B C 0.2057(2) 0.7007(4) 0.25337(19)
H11B H 0.2593 0.6913 0.2345
C24B C 0.0459(2) 0.7352(3) 0.3056(2)
H12B H -0.0076 0.7474 0.3243
C25B C 0.1309(2) 0.7247(4) 0.1950(2)
H13B H 0.1356 0.7284 0.1375
C26B C 0.6678(2) 0.8540(4) 0.60510(19)
H14B H 0.6195 0.9025 0.5713
H15B H 0.7189 0.9143 0.6087
H16B H 0.6783 0.7622 0.5793
C27B C -0.0319(2) 0.7676(4) 0.1523(2)
C28B C 0.7542(2) 0.9069(4) 0.9205(2)
H17B H 0.7938 0.8280 0.9382
H18B H 0.7863 0.9890 0.9038
H19B H 0.7248 0.9348 0.9668
C29B C -0.0110(3) 0.8749(4) 0.0844(2)
H20B H 0.0317 0.8324 0.0541
H21B H -0.0633 0.8957 0.0454
H22B H 0.0116 0.9640 0.1112
C30B C -0.1080(2) 0.8283(4) 0.1917(2)
H23B H -0.0914 0.9201 0.2188
H24B H -0.1574 0.8426 0.1481
H25B H -0.1230 0.7605 0.2331
C31B C -0.0586(3) 0.6194(5) 0.1098(3)
H26B H -0.0748 0.5531 0.1514
H27B H -0.1073 0.6334 0.0653
H28B H -0.0103 0.5795 0.0863
loop_
_geom_bond_atom_site_label_1
_geom_bond_atom_site_label_2
_geom_bond_site_symmetry_1
_geom_bond_site_symmetry_2
C1 C4 1_555 1_555
C2 C5 1_555 1_555
C3 C7 1_555 1_555
C4 C6 1_555 1_555
C5 C6 1_555 1_555
C6 C21 1_555 1_555
C7 C4 1_555 1_555
H1 C7 1_555 1_555
C8 C9 1_555 1_555
C9 C14 1_555 1_555
C10 C11 1_555 1_555
C11 C3 1_555 1_555
C12 C8 1_555 1_555
C13 C2 1_555 1_555
C14 H2 1_555 1_555
C15 C12 1_555 1_555
H3 C15 1_555 1_555
C16 C24 1_555 1_555
C17 C1 1_555 1_555
H4 C17 1_555 1_555
C18 C2 1_555 1_555
H5 C18 1_555 1_555
C19 C9 1_555 1_555
H6 C19 1_555 1_555
H7 C19 1_555 1_555
H8 C19 1_555 1_555
C20 C14 1_555 1_555
C21 H9 1_555 1_555
C22 C18 1_555 1_555
H10 C22 1_555 1_555
C23 C1 1_555 1_555
H11 C23 1_555 1_555
C24 C17 1_555 1_555
H12 C24 1_555 1_555
C25 C16 1_555 1_555
H13 C25 1_555 1_555
C26 C12 1_555 1_555
H14 C26 1_555 1_555
H15 C26 1_555 1_555
H16 C26 1_555 1_555
C27 C16 1_555 1_555
C28 C20 1_555 1_555
H17 C28 1_555 1_555
H18 C28 1_555 1_555
H19 C28 1_555 1_555
C29 C27 1_555 1_555
H20 C29 1_555 1_555
H21 C29 1_555 1_555
H22 C29 1_555 1_555
C30 C27 1_555 1_555
H23 C30 1_555 1_555
H24 C30 1_555 1_555
H25 C30 1_555 1_555
C31 C27 1_555 1_555
H26 C31 1_555 1_555
H27 C31 1_555 1_555
H28 C31 1_555 1_555
C1B C4B 1_555 1_555
C2B C5B 1_555 1_555
C3B C10 1_555 1_555
C4B C6B 1_555 1_555
C5B C6B 1_555 1_555
C6B C21B 1_555 1_555
C7B C3B 1_555 1_555
H1B C7B 1_555 1_555
C8B C9B 1_555 1_555
C9B C14B 1_555 1_555
C10B C3 1_555 1_555
C11B C3B 1_555 1_555
C12B C8B 1_555 1_555
C13B C2B 1_555 1_555
C14B H2B 1_555 1_555
C15B C12B 1_555 1_555
H3B C15B 1_555 1_555
C16B C24B 1_555 1_555
C17B C1B 1_555 1_555
H4B C17B 1_555 1_555
C18B C2B 1_555 1_555
H5B C18B 1_555 1_555
C19B C9B 1_555 1_555
H6B C19B 1_555 1_555
H7B C19B 1_555 1_555
H8B C19B 1_555 1_555
C20B C14B 1_555 1_555
C21B H9B 1_555 1_555
C22B C18B 1_555 1_555
H10B C22B 1_555 1_555
C23B C1B 1_555 1_555
H11B C23B 1_555 1_555
C24B C17B 1_555 1_555
H12B C24B 1_555 1_555
C25B C16B 1_555 1_555
H13B C25B 1_555 1_555
C26B C12B 1_555 1_555
H14B C26B 1_555 1_555
H15B C26B 1_555 1_555
H16B C26B 1_555 1_555
C27B C16B 1_555 1_555
C28B C20B 1_555 1_555
H17B C28B 1_555 1_555
H18B C28B 1_555 1_555
H19B C28B 1_555 1_555
C29B C27B 1_555 1_555
H20B C29B 1_555 1_555
H21B C29B 1_555 1_555
H22B C29B 1_555 1_555
C30B C27B 1_555 1_555
H23B C30B 1_555 1_555
H24B C30B 1_555 1_555
H25B C30B 1_555 1_555
C31B C27B 1_555 1_555
H26B C31B 1_555 1_555
H27B C31B 1_555 1_555
H28B C31B 1_555 1_555
C5 C11 1_555 1_555
C8 C13 1_555 1_555
C10 C13 1_555 1_555
C15 C20 1_555 1_555
C21 C22 1_555 1_555
C23 C25 1_555 1_555
C4B C7B 1_555 1_555
C5B C11B 1_555 1_555
C8B C13B 1_555 1_555
C10B C11B 1_555 1_555
C10B C13B 1_555 1_555
C15B C20B 1_555 1_555
C21B C22B 1_555 1_555
C23B C25B 1_555 1_555

#END
