
#######################################################################
#
#                 Cambridge Crystallographic Data Centre
#                                CCDC 
#
#######################################################################
#
# If this CIF has been generated from an entry in the Cambridge 
# Structural Database, then it will include bibliographic, chemical, 
# crystal, experimental, refinement or atomic coordinate data resulting 
# from the CCDC's data processing and validation procedures.
#
#######################################################################

data_NEGJOB
_chemical_formula_moiety         'C66 H58'
_chemical_name_systematic        
7,14-bis(4-t-butylphenyl)-4,11-bis(2,4,6-trimethylphenyl)cyclopenta[pqr]indeno[7,1,2-cde]picene
_symmetry_cell_setting           monoclinic
_symmetry_space_group_name_H-M   'P 21/c'
_symmetry_Int_Tables_number      14
_space_group_name_Hall           '-P 2ybc'
loop_
_symmetry_equiv_pos_site_id
_symmetry_equiv_pos_as_xyz
1 x,y,z
2 -x,1/2+y,1/2-z
3 -x,-y,-z
4 x,1/2-y,1/2+z
_cell_length_a                   14.09189(18)
_cell_length_b                   10.65303(11)
_cell_length_c                   15.58105(14)
_cell_angle_alpha                90
_cell_angle_beta                 95.1384(10)
_cell_angle_gamma                90
_cell_volume                     2329.65
_exptl_crystal_colour            orange
_exptl_crystal_description       plate
_cell_formula_units_Z            2
loop_
_atom_site_label
_atom_site_type_symbol
_atom_site_fract_x
_atom_site_fract_y
_atom_site_fract_z
C1 C 0.60206(9) 0.67111(12) 0.45202(8)
C2 C 0.51790(9) 0.67956(12) 0.39268(8)
C3 C 0.61759(9) 0.59079(12) 0.52019(8)
C4 C 0.44568(9) 0.58990(12) 0.40307(8)
C5 C 0.45676(8) 0.50228(12) 0.46873(8)
C6 C 0.66212(9) 0.77090(12) 0.43717(8)
C7 C 0.74448(9) 0.79853(12) 0.48991(8)
C8 C 0.61826(9) 0.84568(12) 0.36938(8)
C9 C 0.44771(9) 0.83619(12) 0.28127(8)
C10 C 0.76433(9) 0.71415(12) 0.56252(8)
C11 C 0.70306(9) 0.61504(12) 0.57512(8)
C12 C 0.84604(9) 0.73651(12) 0.62829(8)
C13 C 0.52580(9) 0.78586(12) 0.34172(8)
C14 C 0.83139(10) 0.72668(13) 0.71611(8)
C15 C 0.66462(10) 0.95572(13) 0.35092(8)
C16 C 0.78992(10) 0.91254(13) 0.46890(8)
C17 C 0.99741(10) 0.77537(13) 0.75872(9)
C18 C 0.75053(10) 0.98574(13) 0.40130(9)
C19 C 0.43864(10) 0.80039(13) 0.19434(8)
C20 C 0.90568(10) 0.74506(14) 0.77918(9)
C21 C 0.93697(10) 0.76520(13) 0.60737(8)
C22 C 1.01139(10) 0.78478(13) 0.67132(9)
C23 C 1.07648(10) 0.79730(14) 0.83140(9)
C24 C 1.17114(10) 0.83387(15) 0.79721(10)
C25 C 0.37964(10) 0.91442(13) 0.31359(9)
C26 C 0.36062(11) 0.84457(15) 0.14128(9)
C27 C 0.29327(10) 0.92378(15) 0.17196(10)
C28 C 0.30406(10) 0.95954(14) 0.25770(10)
C29 C 0.51043(12) 0.71450(16) 0.16004(10)
C30 C 1.04618(12) 0.90385(17) 0.88981(10)
C31 C 1.09157(12) 0.67565(17) 0.88446(11)
C32 C 0.38523(13) 0.94689(17) 0.40850(10)
C33 C 0.20825(12) 0.9688(2) 0.11463(13)
H1 H 0.2114 1.0602 0.1084
H2 H 0.1496 0.9461 0.1403
H3 H 0.2084 0.9293 0.0578
H4 H 0.7820(12) 1.0631(18) 0.3904(11)
H5 H 0.3862(11) 0.5911(15) 0.3649(10)
H6 H 0.5781(15) 0.753(2) 0.1689(13)
H7 H 1.1943(12) 0.7735(18) 0.7608(12)
H8 H 0.8464(12) 0.9416(17) 0.5004(11)
H9 H 0.7195(12) 0.5607(17) 0.6272(11)
H10 H 1.0761(13) 0.8045(17) 0.6532(11)
H11 H 0.9513(13) 0.7726(18) 0.5459(12)
H12 H 1.0307(15) 0.646(2) 0.9085(13)
H13 H 1.1653(13) 0.9142(19) 0.7686(12)
H14 H 0.9855(14) 0.8797(19) 0.9180(12)
H15 H 0.6383(13) 1.0157(18) 0.3038(11)
H16 H 0.2596(13) 1.0104(19) 0.2793(11)
H17 H 0.7669(13) 0.7089(17) 0.7332(12)
H18 H 1.2187(14) 0.838(2) 0.8452(13)
H19 H 1.1130(13) 0.6035(19) 0.8451(12)
H20 H 1.0365(15) 0.983(2) 0.8554(14)
H21 H 0.8919(12) 0.7370(17) 0.8424(12)
H22 H 0.3483(15) 1.025(2) 0.4163(13)
H23 H 0.5130(14) 0.631(2) 0.1920(13)
H24 H 1.0943(14) 0.924(2) 0.9351(13)
H25 H 1.1432(15) 0.692(2) 0.9355(14)
H26 H 0.3517(14) 0.815(2) 0.0779(13)
H27 H 0.3604(16) 0.878(2) 0.4403(14)
H28 H 0.4944(16) 0.697(2) 0.0961(15)
H29 H 0.4556(17) 0.965(2) 0.4321(14)
C1B C 0.39794(9) 0.32889(12) 0.54798(8)
C2B C 0.48210(9) 0.32044(12) 0.60732(8)
C3B C 0.38241(9) 0.40921(12) 0.47981(8)
C4B C 0.55432(9) 0.41010(12) 0.59693(8)
C5B C 0.54324(8) 0.49772(12) 0.53127(8)
C6B C 0.33788(9) 0.22910(12) 0.56283(8)
C7B C 0.25552(9) 0.20147(12) 0.51009(8)
C8B C 0.38174(9) 0.15432(12) 0.63062(8)
C9B C 0.55229(9) 0.16381(12) 0.71873(8)
C10B C 0.23567(9) 0.28585(12) 0.43748(8)
C11B C 0.29694(9) 0.38496(12) 0.42488(8)
C12B C 0.15396(9) 0.26349(12) 0.37171(8)
C13B C 0.47420(9) 0.21414(12) 0.65828(8)
C14B C 0.16861(10) 0.27332(13) 0.28389(8)
C15B C 0.33538(10) 0.04428(13) 0.64908(8)
C16B C 0.21008(10) 0.08746(13) 0.53110(8)
C17B C 0.00259(10) 0.22463(13) 0.24128(9)
C18B C 0.24947(10) 0.01426(13) 0.59870(9)
C19B C 0.56136(10) 0.19961(13) 0.80566(8)
C20B C 0.09432(10) 0.25494(14) 0.22082(9)
C21B C 0.06303(10) 0.23480(13) 0.39263(8)
C22B C -0.01139(10) 0.21522(13) 0.32868(9)
C23B C -0.07648(10) 0.20270(14) 0.16860(9)
C24B C -0.17114(10) 0.16613(15) 0.20279(10)
C25B C 0.62036(10) 0.08558(13) 0.68641(9)
C26B C 0.63938(11) 0.15543(15) 0.85872(9)
C27B C 0.70673(10) 0.07622(15) 0.82804(10)
C28B C 0.69594(10) 0.04046(14) 0.74230(10)
C29B C 0.48957(12) 0.28550(16) 0.83996(10)
C30B C -0.04618(12) 0.09615(17) 0.11019(10)
C31B C -0.09157(12) 0.32435(17) 0.11554(11)
C32B C 0.61477(13) 0.05311(17) 0.59150(10)
C33B C 0.79175(12) 0.0312(2) 0.88537(13)
H1B H 0.7886 -0.0602 0.8916
H2B H 0.8504 0.0539 0.8597
H3B H 0.7916 0.0707 0.9422
H4B H 0.2180(12) -0.0631(18) 0.6096(11)
H5B H 0.6138(11) 0.4089(15) 0.6351(10)
H6B H 0.4219(15) 0.247(2) 0.8311(13)
H7B H -0.1943(12) 0.2265(18) 0.2392(12)
H8B H 0.1536(12) 0.0584(17) 0.4996(11)
H9B H 0.2805(12) 0.4393(17) 0.3728(11)
H10B H -0.0761(13) 0.1955(17) 0.3468(11)
H11B H 0.0487(13) 0.2274(18) 0.4541(12)
H12B H -0.0307(15) 0.354(2) 0.0915(13)
H13B H -0.1653(13) 0.0858(19) 0.2314(12)
H14B H 0.0145(14) 0.1203(19) 0.0820(12)
H15B H 0.3617(13) -0.0157(18) 0.6962(11)
H16B H 0.7404(13) -0.0104(19) 0.7207(11)
H17B H 0.2331(13) 0.2911(17) 0.2668(12)
H18B H -0.2187(14) 0.162(2) 0.1548(13)
H19B H -0.1130(13) 0.3965(19) 0.1549(12)
H20B H -0.0365(15) 0.017(2) 0.1446(14)
H21B H 0.1081(12) 0.2630(17) 0.1576(12)
H22B H 0.6517(15) -0.025(2) 0.5837(13)
H23B H 0.4870(14) 0.369(2) 0.8080(13)
H24B H -0.0943(14) 0.076(2) 0.0649(13)
H25B H -0.1432(15) 0.308(2) 0.0645(14)
H26B H 0.6483(14) 0.185(2) 0.9221(13)
H27B H 0.6396(16) 0.122(2) 0.5597(14)
H28B H 0.5056(16) 0.303(2) 0.9039(15)
H29B H 0.5444(17) 0.035(2) 0.5679(14)
loop_
_geom_bond_atom_site_label_1
_geom_bond_atom_site_label_2
_geom_bond_site_symmetry_1
_geom_bond_site_symmetry_2
C1 C2 1_555 1_555
C2 C4 1_555 1_555
C3 C1 1_555 1_555
C4 C5 1_555 1_555
C5 C3B 1_555 1_555
C6 C1 1_555 1_555
C7 C6 1_555 1_555
C8 C6 1_555 1_555
C9 C13 1_555 1_555
C10 C7 1_555 1_555
C11 C3 1_555 1_555
C12 C10 1_555 1_555
C13 C2 1_555 1_555
C14 C12 1_555 1_555
C15 C8 1_555 1_555
C16 C7 1_555 1_555
C17 C20 1_555 1_555
C18 C15 1_555 1_555
C19 C9 1_555 1_555
C20 C14 1_555 1_555
C21 C12 1_555 1_555
C22 C17 1_555 1_555
C23 C17 1_555 1_555
C24 C23 1_555 1_555
C25 C9 1_555 1_555
C26 C19 1_555 1_555
C27 C26 1_555 1_555
C28 C25 1_555 1_555
C29 C19 1_555 1_555
C30 C23 1_555 1_555
C31 C23 1_555 1_555
C32 C25 1_555 1_555
C33 C27 1_555 1_555
H1 C33 1_555 1_555
H2 C33 1_555 1_555
H3 C33 1_555 1_555
H4 C18 1_555 1_555
H5 C4 1_555 1_555
H6 C29 1_555 1_555
H7 C24 1_555 1_555
H8 C16 1_555 1_555
H9 C11 1_555 1_555
H10 C22 1_555 1_555
H11 C21 1_555 1_555
H12 C31 1_555 1_555
H13 C24 1_555 1_555
H14 C30 1_555 1_555
H15 C15 1_555 1_555
H16 C28 1_555 1_555
H17 C14 1_555 1_555
H18 C24 1_555 1_555
H19 C31 1_555 1_555
H20 C30 1_555 1_555
H21 C20 1_555 1_555
H22 C32 1_555 1_555
H23 C29 1_555 1_555
H24 C30 1_555 1_555
H25 C31 1_555 1_555
H26 C26 1_555 1_555
H27 C32 1_555 1_555
H28 C29 1_555 1_555
H29 C32 1_555 1_555
C1B C2B 1_555 1_555
C2B C4B 1_555 1_555
C3B C1B 1_555 1_555
C4B C5B 1_555 1_555
C5B C3 1_555 1_555
C6B C1B 1_555 1_555
C7B C6B 1_555 1_555
C8B C6B 1_555 1_555
C9B C13B 1_555 1_555
C10B C7B 1_555 1_555
C11B C3B 1_555 1_555
C12B C10B 1_555 1_555
C13B C2B 1_555 1_555
C14B C12B 1_555 1_555
C15B C8B 1_555 1_555
C16B C7B 1_555 1_555
C17B C20B 1_555 1_555
C18B C15B 1_555 1_555
C19B C9B 1_555 1_555
C20B C14B 1_555 1_555
C21B C12B 1_555 1_555
C22B C17B 1_555 1_555
C23B C17B 1_555 1_555
C24B C23B 1_555 1_555
C25B C9B 1_555 1_555
C26B C19B 1_555 1_555
C27B C26B 1_555 1_555
C28B C25B 1_555 1_555
C29B C19B 1_555 1_555
C30B C23B 1_555 1_555
C31B C23B 1_555 1_555
C32B C25B 1_555 1_555
C33B C27B 1_555 1_555
H1B C33B 1_555 1_555
H2B C33B 1_555 1_555
H3B C33B 1_555 1_555
H4B C18B 1_555 1_555
H5B C4B 1_555 1_555
H6B C29B 1_555 1_555
H7B C24B 1_555 1_555
H8B C16B 1_555 1_555
H9B C11B 1_555 1_555
H10B C22B 1_555 1_555
H11B C21B 1_555 1_555
H12B C31B 1_555 1_555
H13B C24B 1_555 1_555
H14B C30B 1_555 1_555
H15B C15B 1_555 1_555
H16B C28B 1_555 1_555
H17B C14B 1_555 1_555
H18B C24B 1_555 1_555
H19B C31B 1_555 1_555
H20B C30B 1_555 1_555
H21B C20B 1_555 1_555
H22B C32B 1_555 1_555
H23B C29B 1_555 1_555
H24B C30B 1_555 1_555
H25B C31B 1_555 1_555
H26B C26B 1_555 1_555
H27B C32B 1_555 1_555
H28B C29B 1_555 1_555
H29B C32B 1_555 1_555
C5 C5B 1_555 1_555
C8 C13 1_555 1_555
C10 C11 1_555 1_555
C16 C18 1_555 1_555
C21 C22 1_555 1_555
C27 C28 1_555 1_555
C8B C13B 1_555 1_555
C10B C11B 1_555 1_555
C16B C18B 1_555 1_555
C21B C22B 1_555 1_555
C27B C28B 1_555 1_555

#END
