
#######################################################################
#
#                 Cambridge Crystallographic Data Centre
#                                CCDC 
#
#######################################################################
#
# If this CIF has been generated from an entry in the Cambridge 
# Structural Database, then it will include bibliographic, chemical, 
# crystal, experimental, refinement or atomic coordinate data resulting 
# from the CCDC's data processing and validation procedures.
#
#######################################################################

data_NEGKOA
_chemical_formula_moiety         'C18 H22 Cl1 N1 O6'
_chemical_name_systematic        
'10-Chloro-4a-hydroxy-5,8-dimethyl-7,9-dioxo-3,4,4a,5,7,8,9,10b-octahydro-2H-pyrano(3,2-c)isoquinolin-8-yl propanoate'
_symmetry_cell_setting           monoclinic
_symmetry_space_group_name_H-M   'P 21/c'
_symmetry_Int_Tables_number      14
_space_group_name_Hall           '-P 2ybc'
loop_
_symmetry_equiv_pos_site_id
_symmetry_equiv_pos_as_xyz
1 x,y,z
2 -x,1/2+y,1/2-z
3 -x,-y,-z
4 x,1/2-y,1/2+z
_cell_length_a                   14.179(3)
_cell_length_b                   15.693(3)
_cell_length_c                   17.333(3)
_cell_angle_alpha                90
_cell_angle_beta                 95.604(4)
_cell_angle_gamma                90
_cell_volume                     3838.35
_exptl_crystal_colour            colorless
_cell_formula_units_Z            8
loop_
_atom_site_label
_atom_site_type_symbol
_atom_site_fract_x
_atom_site_fract_y
_atom_site_fract_z
Cl1 Cl 0.51625(8) 0.16015(6) 0.09678(6)
N1 N 0.5798(2) 0.40284(19) -0.10911(17)
O1 O 0.74814(19) 0.46830(17) 0.09271(14)
O2 O 0.65549(19) 0.22387(16) 0.21883(15)
O3 O 0.43012(19) 0.33798(16) -0.01880(14)
O4 O 0.6138(2) 0.25956(16) -0.13069(17)
O5 O 0.76060(19) 0.37074(16) 0.22320(14)
O6 O 0.6126(2) 0.42177(18) 0.22069(17)
C1 C 0.6304(3) 0.4240(3) -0.0434(2)
C2 C 0.6402(3) 0.3734(2) 0.0233(2)
C3 C 0.7059(3) 0.4001(2) 0.0871(2)
C4 C 0.7319(3) 0.3314(2) 0.1496(2)
C5 C 0.6559(3) 0.2651(2) 0.1581(2)
C6 C 0.5911(3) 0.2476(2) 0.0904(2)
C7 C 0.5838(2) 0.2995(2) 0.0275(2)
C8 C 0.5081(3) 0.2883(3) -0.0390(2)
C9 C 0.5400(3) 0.3163(2) -0.1170(2)
C10 C 0.4573(3) 0.3106(3) -0.1784(2)
C11 C 0.3709(3) 0.3579(3) -0.1542(3)
C12 C 0.3484(4) 0.3288(4) -0.0751(3)
C13 C 0.8194(3) 0.2846(2) 0.1271(2)
H1 H 0.8697 0.3247 0.1229
H2 H 0.8046 0.2566 0.0781
H3 H 0.8390 0.2430 0.1660
C14 C 0.6912(4) 0.4184(3) 0.2521(3)
C15 C 0.7319(4) 0.4647(3) 0.3226(3)
H4 H 0.7784 0.5054 0.3079
H5 H 0.7645 0.4242 0.3581
C16 C 0.6586(4) 0.5113(3) 0.3640(3)
H6 H 0.6906 0.5500 0.4016
H7 H 0.6195 0.5453 0.3266
C17 C 0.5969(6) 0.4536(4) 0.4042(4)
H8 H 0.5698 0.4117 0.3684
H9 H 0.5472 0.4860 0.4241
H10 H 0.6338 0.4258 0.4463
C18 C 0.5855(3) 0.4567(2) -0.1781(2)
H11 H 0.5241 0.4798 -0.1943
H12 H 0.6069 0.4230 -0.2192
H13 H 0.6294 0.5024 -0.1657
H27 H 0.670(2) 0.4726(15) -0.0435(18)
H28 H 0.485(2) 0.2313(16) -0.0455(16)
H29 H 0.445(2) 0.2485(19) -0.1778(19)
H30 H 0.474(2) 0.3308(17) -0.2295(12)
H31 H 0.391(3) 0.4168(13) -0.147(2)
H32 H 0.3174(17) 0.3452(18) -0.1919(15)
H33 H 0.300(3) 0.358(2) -0.051(2)
H34 H 0.330(3) 0.271(2) -0.074(2)
H35 H 0.636(3) 0.263(2) -0.180(2)
Cl2 Cl 0.03574(9) 0.11690(7) 0.06728(7)
N2 N 0.0520(2) 0.4083(2) -0.09185(18)
O7 O 0.20354(19) 0.45591(17) 0.12043(14)
O8 O 0.1473(2) 0.18077(16) 0.20727(15)
O9 O -0.07800(19) 0.28815(17) -0.02737(14)
O10 O 0.1259(2) 0.28699(18) -0.13731(17)
O11 O 0.2288(2) 0.33722(18) 0.23481(16)
O12 O 0.0744(3) 0.3708(2) 0.2332(2)
C19 C 0.0968(3) 0.4215(3) -0.0236(3)
C20 C 0.1181(3) 0.3610(2) 0.0335(2)
C21 C 0.1754(3) 0.3838(3) 0.1033(2)
C22 C 0.2102(3) 0.3086(3) 0.1566(2)
C23 C 0.1466(3) 0.2297(2) 0.1523(2)
C24 C 0.0921(3) 0.2153(2) 0.0786(2)
C25 C 0.0792(3) 0.2773(2) 0.0227(2)
C26 C 0.0121(3) 0.2651(3) -0.0495(2)
C27 C 0.0383(3) 0.3187(3) -0.1183(2)
C28 C -0.0401(3) 0.3105(3) -0.1844(3)
C29 C -0.1372(4) 0.3287(4) -0.1579(3)
C30 C -0.1539(4) 0.2738(4) -0.0886(3)
C31 C 0.3055(3) 0.2805(2) 0.1322(2)
H14 H 0.3479 0.3283 0.1341
H15 H 0.2971 0.2585 0.0803
H16 H 0.3317 0.2368 0.1667
C32 C 0.1520(5) 0.3719(3) 0.2660(3)
C33 C 0.1817(5) 0.4119(3) 0.3439(3)
H17 H 0.1301 0.4039 0.3760
H18 H 0.2352 0.3796 0.3676
C34 C 0.2035(10) 0.4865(6) 0.3474(5)
H19 H 0.1532 0.5164 0.3165
H20 H 0.2594 0.4915 0.3195
C35 C 0.2212(7) 0.5312(5) 0.4091(7)
H21 H 0.1743 0.5197 0.4441
H22 H 0.2196 0.5906 0.3958
H23 H 0.2828 0.5167 0.4335
C36 C 0.0403(3) 0.4779(2) -0.1494(2)
H24 H 0.0606 0.5307 -0.1252
H25 H -0.0251 0.4822 -0.1692
H26 H 0.0780 0.4661 -0.1913
H36 H 0.119(2) 0.4779(12) -0.0104(19)
H37 H 0.0045(19) 0.2066(16) -0.0691(15)
H38 H -0.030(2) 0.2519(13) -0.2015(19)
H39 H -0.027(2) 0.3453(18) -0.2297(15)
H40 H -0.149(3) 0.386(3) -0.139(3)
H41 H -0.186(3) 0.318(2) -0.201(2)
H42 H -0.211(2) 0.292(3) -0.064(3)
H43 H -0.150(3) 0.2140(13) -0.104(2)
H44 H 0.139(3) 0.295(2) -0.187(2)
loop_
_geom_bond_atom_site_label_1
_geom_bond_atom_site_label_2
_geom_bond_site_symmetry_1
_geom_bond_site_symmetry_2
Cl1 C6 1_555 1_555
Cl2 C24 1_555 1_555
N1 C1 1_555 1_555
N2 C19 1_555 1_555
O1 C3 1_555 1_555
O2 C5 1_555 1_555
O3 C8 1_555 1_555
O4 C9 1_555 1_555
O5 C4 1_555 1_555
O6 C14 1_555 1_555
O7 C21 1_555 1_555
O8 C23 1_555 1_555
O9 C26 1_555 1_555
O10 C27 1_555 1_555
O11 C22 1_555 1_555
O12 C32 1_555 1_555
C1 C2 1_555 1_555
C2 C3 1_555 1_555
C3 C4 1_555 1_555
C4 C5 1_555 1_555
C5 C6 1_555 1_555
C6 C7 1_555 1_555
C7 C2 1_555 1_555
C8 C7 1_555 1_555
C9 N1 1_555 1_555
C10 C9 1_555 1_555
C11 C10 1_555 1_555
C12 O3 1_555 1_555
C13 C4 1_555 1_555
H1 C13 1_555 1_555
H2 C13 1_555 1_555
H3 C13 1_555 1_555
C14 O5 1_555 1_555
C15 C14 1_555 1_555
H4 C15 1_555 1_555
H5 C15 1_555 1_555
C16 C15 1_555 1_555
H6 C16 1_555 1_555
H7 C16 1_555 1_555
C17 C16 1_555 1_555
H8 C17 1_555 1_555
H9 C17 1_555 1_555
H10 C17 1_555 1_555
C18 N1 1_555 1_555
H11 C18 1_555 1_555
H12 C18 1_555 1_555
H13 C18 1_555 1_555
C19 C20 1_555 1_555
C20 C21 1_555 1_555
C21 C22 1_555 1_555
C22 C23 1_555 1_555
C23 C24 1_555 1_555
C24 C25 1_555 1_555
C25 C20 1_555 1_555
C26 C25 1_555 1_555
C27 N2 1_555 1_555
C28 C27 1_555 1_555
C29 C28 1_555 1_555
C30 O9 1_555 1_555
C31 C22 1_555 1_555
H14 C31 1_555 1_555
H15 C31 1_555 1_555
H16 C31 1_555 1_555
C32 O11 1_555 1_555
C33 C32 1_555 1_555
H17 C33 1_555 1_555
H18 C33 1_555 1_555
C34 C33 1_555 1_555
H19 C34 1_555 1_555
H20 C34 1_555 1_555
C35 C34 1_555 1_555
H21 C35 1_555 1_555
H22 C35 1_555 1_555
H23 C35 1_555 1_555
C36 N2 1_555 1_555
H24 C36 1_555 1_555
H25 C36 1_555 1_555
H26 C36 1_555 1_555
H27 C1 1_555 1_555
H28 C8 1_555 1_555
H29 C10 1_555 1_555
H30 C10 1_555 1_555
H31 C11 1_555 1_555
H32 C11 1_555 1_555
H33 C12 1_555 1_555
H34 C12 1_555 1_555
H35 O4 1_555 1_555
H36 C19 1_555 1_555
H37 C26 1_555 1_555
H38 C28 1_555 1_555
H39 C28 1_555 1_555
H40 C29 1_555 1_555
H41 C29 1_555 1_555
H42 C30 1_555 1_555
H43 C30 1_555 1_555
H44 O10 1_555 1_555
C8 C9 1_555 1_555
C11 C12 1_555 1_555
C26 C27 1_555 1_555
C29 C30 1_555 1_555

#END
