
#######################################################################
#
#                 Cambridge Crystallographic Data Centre
#                                CCDC 
#
#######################################################################
#
# If this CIF has been generated from an entry in the Cambridge 
# Structural Database, then it will include bibliographic, chemical, 
# crystal, experimental, refinement or atomic coordinate data resulting 
# from the CCDC's data processing and validation procedures.
#
#######################################################################

data_NEGMAN
_chemical_formula_moiety         'C10 H22 N1 O2 1+,Cl1 1-'
_chemical_name_systematic        
'cis-3-(N-Isopropyl)ammonio-2-methoxy-2,3-dimethyloxolane chloride'
_symmetry_cell_setting           monoclinic
_symmetry_space_group_name_H-M   'P 21/c'
_symmetry_Int_Tables_number      14
_space_group_name_Hall           '-P 2ybc'
loop_
_symmetry_equiv_pos_site_id
_symmetry_equiv_pos_as_xyz
1 x,y,z
2 -x,1/2+y,1/2-z
3 -x,-y,-z
4 x,1/2-y,1/2+z
_cell_length_a                   6.462(2)
_cell_length_b                   11.041(4)
_cell_length_c                   17.627(4)
_cell_angle_alpha                90
_cell_angle_beta                 98.82(3)
_cell_angle_gamma                90
_cell_volume                     1242.76
_chemical_melting_point          106-107deg.C
_cell_formula_units_Z            4
_exptl_crystal_recrystallization_method 'methanol/diethyl ether'
loop_
_atom_site_label
_atom_site_type_symbol
_atom_site_fract_x
_atom_site_fract_y
_atom_site_fract_z
O1 O -0.3195(3) 0.2026(2) 0.4450(1)
C1 C -0.2240(5) 0.2881(3) 0.4022(2)
C2 C -0.3460(4) 0.2738(2) 0.3201(2)
C3 C -0.3875(5) 0.1361(3) 0.3159(2)
C4 C -0.3614(6) 0.0963(3) 0.3990(2)
N1 N -0.2086(4) 0.3111(2) 0.2617(1)
C5 C -0.3074(5) 0.3335(3) 0.1794(2)
C6 C -0.1327(6) 0.3740(3) 0.1362(2)
C7 C -0.4205(5) 0.2236(3) 0.1422(2)
C8 C -0.5459(5) 0.3477(3) 0.3087(2)
O2 O -0.0178(3) 0.2535(2) 0.3956(1)
C9 C 0.1221(6) 0.2360(5) 0.4654(2)
C10 C -0.2349(7) 0.4087(3) 0.4420(2)
H1 H -0.5279(5) 0.1191(3) 0.2900(2)
H2 H -0.2875(5) 0.0954(3) 0.2889(2)
H3 H -0.4881(6) 0.0571(3) 0.4098(2)
H4 H -0.2462(6) 0.0394(3) 0.4099(2)
H5 H -0.1410(4) 0.3793(2) 0.2790(1)
H6 H -0.1106(4) 0.2533(2) 0.2612(1)
H7 H -0.4084(5) 0.3998(3) 0.1787(2)
H8 H -0.0640(6) 0.4437(3) 0.1611(2)
H9 H -0.1908(6) 0.3944(3) 0.0843(2)
H10 H -0.0331(6) 0.3096(3) 0.1359(2)
H11 H -0.5294(5) 0.2002(3) 0.1707(2)
H12 H -0.3231(5) 0.1580(3) 0.1419(2)
H13 H -0.4808(5) 0.2429(3) 0.0904(2)
H14 H -0.5118(5) 0.4324(3) 0.3118(2)
H15 H -0.6280(5) 0.3274(3) 0.3479(2)
H16 H -0.6245(5) 0.3301(3) 0.2592(2)
H17 H 0.2572(6) 0.2128(5) 0.4540(2)
H18 H 0.0689(6) 0.1733(5) 0.4949(2)
H19 H 0.1344(6) 0.3099(5) 0.4943(2)
H20 H -0.3783(7) 0.4279(3) 0.4450(2)
H21 H -0.1764(7) 0.4706(3) 0.4134(2)
H22 H -0.1568(7) 0.4043(3) 0.4928(2)
Cl1 Cl 0.0750(1) 0.0860(1) 0.2124(1)
loop_
_geom_bond_atom_site_label_1
_geom_bond_atom_site_label_2
_geom_bond_site_symmetry_1
_geom_bond_site_symmetry_2
O1 C1 1_555 1_555
C1 C2 1_555 1_555
C2 C3 1_555 1_555
C3 C4 1_555 1_555
C4 O1 1_555 1_555
N1 C2 1_555 1_555
C5 N1 1_555 1_555
C6 C5 1_555 1_555
C7 C5 1_555 1_555
C8 C2 1_555 1_555
O2 C1 1_555 1_555
C9 O2 1_555 1_555
C10 C1 1_555 1_555
H1 C3 1_555 1_555
H2 C3 1_555 1_555
H3 C4 1_555 1_555
H4 C4 1_555 1_555
H5 N1 1_555 1_555
H6 N1 1_555 1_555
H7 C5 1_555 1_555
H8 C6 1_555 1_555
H9 C6 1_555 1_555
H10 C6 1_555 1_555
H11 C7 1_555 1_555
H12 C7 1_555 1_555
H13 C7 1_555 1_555
H14 C8 1_555 1_555
H15 C8 1_555 1_555
H16 C8 1_555 1_555
H17 C9 1_555 1_555
H18 C9 1_555 1_555
H19 C9 1_555 1_555
H20 C10 1_555 1_555
H21 C10 1_555 1_555
H22 C10 1_555 1_555

#END
