
#######################################################################
#
#                 Cambridge Crystallographic Data Centre
#                                CCDC 
#
#######################################################################
#
# If this CIF has been generated from an entry in the Cambridge 
# Structural Database, then it will include bibliographic, chemical, 
# crystal, experimental, refinement or atomic coordinate data resulting 
# from the CCDC's data processing and validation procedures.
#
#######################################################################

data_NEGQIB
_chemical_formula_moiety         'C40 H32 Br1 Cl1 N4 O3'
_chemical_name_systematic        
"Ethyl 2-(1'-benzyl-5'-chloro-5,5-dicyano-2-((2,6-dimethylphenyl)imino)-2'-oxo-1',2'-dihydro-3H-spiro[cyclopentane-1,3'-indol]-3-ylidene)-3-(4-bromophenyl)propanoate"
_symmetry_cell_setting           monoclinic
_symmetry_space_group_name_H-M   'P 21/c'
_symmetry_Int_Tables_number      14
_space_group_name_Hall           '-P 2ybc'
loop_
_symmetry_equiv_pos_site_id
_symmetry_equiv_pos_as_xyz
1 x,y,z
2 -x,1/2+y,1/2-z
3 -x,-y,-z
4 x,1/2-y,1/2+z
_cell_length_a                   14.19(10)
_cell_length_b                   25.87(18)
_cell_length_c                   12.56(9)
_cell_angle_alpha                90
_cell_angle_beta                 113.40(7)
_cell_angle_gamma                90
_cell_volume                     4231.51
_cell_formula_units_Z            4
loop_
_atom_site_label
_atom_site_type_symbol
_atom_site_fract_x
_atom_site_fract_y
_atom_site_fract_z
Br1 Br -0.28664(12) 0.74819(7) 0.40999(16)
Cl1 Cl 0.4148(3) 1.08007(12) 0.9048(3)
O1 O 0.1914(6) 0.7925(3) 0.7557(6)
O2 O 0.4012(6) 0.8575(3) 0.4311(6)
O3 O 0.2735(7) 0.8441(5) 0.2452(7)
N1 N 0.2212(6) 0.8640(3) 0.8907(6)
N2 N 0.1575(7) 0.9247(3) 0.5703(6)
H1 H 0.1443 0.9397 0.6234
N3 N 0.4815(8) 0.7847(5) 0.9514(9)
N4 N 0.5436(7) 0.9126(4) 0.7434(9)
C1 C 0.3638(8) 1.0152(4) 0.9075(10)
C2 C 0.3578(8) 0.9762(4) 0.8232(9)
H2 H 0.3838 0.9830 0.7674
C3 C 0.3110(7) 0.9260(4) 0.8247(7)
C4 C 0.2940(7) 0.8757(4) 0.7465(8)
C5 C 0.2254(7) 0.8381(4) 0.7929(8)
C6 C 0.2685(7) 0.9148(4) 0.9121(7)
C7 C 0.2741(8) 0.9540(5) 0.9976(9)
H3 H 0.2458 0.9475 1.0515
C8 C 0.3241(9) 1.0035(5) 0.9988(10)
H4 H 0.3313 1.0277 1.0563
C9 C 0.1609(9) 0.8390(5) 0.9582(9)
H5 H 0.1952 0.8478 1.0397
H6 H 0.1633 0.8017 0.9516
C10 C 0.0439(9) 0.8567(4) 0.9131(9)
C11 C -0.0275(9) 0.8464(5) 0.7926(10)
H7 H -0.0031 0.8307 0.7419
C12 C -0.1356(10) 0.8602(5) 0.7514(11)
H8 H -0.1794 0.8547 0.6744
C13 C -0.1736(11) 0.8823(6) 0.8301(14)
H9 H -0.2432 0.8897 0.8051
C14 C -0.1056(14) 0.8934(6) 0.9486(15)
H10 H -0.1307 0.9086 0.9992
C15 C 0.0035(11) 0.8805(5) 0.9879(11)
H11 H 0.0475 0.8880 1.0639
C16 C 0.3957(9) 0.8432(4) 0.7514(8)
C17 C 0.3530(7) 0.8080(4) 0.6312(8)
H12 H 0.4063 0.8020 0.6026
H13 H 0.3256 0.7751 0.6427
C18 C 0.2642(7) 0.8451(4) 0.5458(8)
C19 C 0.2343(7) 0.8825(4) 0.6080(7)
C20 C 0.4459(8) 0.8103(5) 0.8657(10)
C21 C 0.4782(8) 0.8826(5) 0.7481(8)
C22 C 0.0976(10) 0.9439(4) 0.4504(9)
C23 C 0.1589(11) 0.9682(5) 0.3909(11)
C24 C 0.0969(19) 0.9877(6) 0.2690(15)
H14 H 0.1305 1.0015 0.2251
C25 C -0.010(2) 0.9852(8) 0.2224(17)
H15 H -0.0441 0.9981 0.1477
C26 C -0.0738(11) 0.9644(5) 0.2786(12)
H16 H -0.1452 0.9638 0.2434
C27 C -0.0139(12) 0.9439(5) 0.3990(11)
C28 C -0.0777(9) 0.9186(5) 0.4637(12)
H17 H -0.0547 0.8838 0.4853
H18 H -0.1492 0.9184 0.4132
H19 H -0.0679 0.9383 0.5321
C29 C 0.2807(12) 0.9770(5) 0.4531(12)
H20 H 0.2962 0.9975 0.5217
H21 H 0.3042 0.9945 0.4009
H22 H 0.3145 0.9441 0.4740
C30 C 0.2201(9) 0.8374(4) 0.4099(9)
C31 C 0.1208(9) 0.8225(4) 0.3386(8)
H23 H 0.1083 0.8229 0.2601
C32 C 0.0283(8) 0.8057(4) 0.3627(9)
C33 C -0.0784(8) 0.8079(5) 0.2659(10)
H24 H -0.0847 0.8203 0.1938
C34 C -0.1733(9) 0.7914(5) 0.2801(11)
H25 H -0.2379 0.7947 0.2203
C35 C -0.1599(11) 0.7705(5) 0.3891(13)
C36 C -0.0600(10) 0.7690(4) 0.4820(10)
H26 H -0.0543 0.7563 0.5536
C37 C 0.0344(8) 0.7865(4) 0.4696(9)
H27 H 0.0974 0.7848 0.5325
C38 C 0.2989(9) 0.8468(5) 0.3506(11)
C39 C 0.4792(12) 0.8675(8) 0.3796(15)
H28 H 0.4930 0.8352 0.3492
H29 H 0.4494 0.8911 0.3149
C40 C 0.5675(19) 0.8870(11) 0.452(2)
H30 H 0.5606 0.9237 0.4584
H31 H 0.6200 0.8800 0.4244
H32 H 0.5859 0.8715 0.5275
loop_
_geom_bond_atom_site_label_1
_geom_bond_atom_site_label_2
_geom_bond_site_symmetry_1
_geom_bond_site_symmetry_2
Br1 C35 1_555 1_555
Cl1 C1 1_555 1_555
O1 C5 1_555 1_555
O2 C38 1_555 1_555
O3 C38 1_555 1_555
N1 C5 1_555 1_555
N2 H1 1_555 1_555
N3 C20 1_555 1_555
N4 C21 1_555 1_555
C1 C2 1_555 1_555
C2 H2 1_555 1_555
C3 C2 1_555 1_555
C4 C3 1_555 1_555
C5 C4 1_555 1_555
C6 N1 1_555 1_555
C7 C6 1_555 1_555
H3 C7 1_555 1_555
C8 C1 1_555 1_555
H4 C8 1_555 1_555
C9 N1 1_555 1_555
H5 C9 1_555 1_555
H6 C9 1_555 1_555
C10 C9 1_555 1_555
C11 C10 1_555 1_555
H7 C11 1_555 1_555
C12 C11 1_555 1_555
H8 C12 1_555 1_555
C13 C12 1_555 1_555
H9 C13 1_555 1_555
C14 C13 1_555 1_555
H10 C14 1_555 1_555
C15 C10 1_555 1_555
H11 C15 1_555 1_555
C16 C4 1_555 1_555
C17 C16 1_555 1_555
H12 C17 1_555 1_555
H13 C17 1_555 1_555
C18 C17 1_555 1_555
C19 N2 1_555 1_555
C20 C16 1_555 1_555
C21 C16 1_555 1_555
C22 N2 1_555 1_555
C23 C22 1_555 1_555
C24 C23 1_555 1_555
H14 C24 1_555 1_555
C25 C24 1_555 1_555
H15 C25 1_555 1_555
C26 C25 1_555 1_555
H16 C26 1_555 1_555
C27 C22 1_555 1_555
C28 C27 1_555 1_555
H17 C28 1_555 1_555
H18 C28 1_555 1_555
H19 C28 1_555 1_555
C29 C23 1_555 1_555
H20 C29 1_555 1_555
H21 C29 1_555 1_555
H22 C29 1_555 1_555
C30 C18 1_555 1_555
C31 C30 1_555 1_555
H23 C31 1_555 1_555
C32 C31 1_555 1_555
C33 C32 1_555 1_555
H24 C33 1_555 1_555
C34 C33 1_555 1_555
H25 C34 1_555 1_555
C35 C34 1_555 1_555
C36 C35 1_555 1_555
H26 C36 1_555 1_555
C37 C32 1_555 1_555
H27 C37 1_555 1_555
C38 C30 1_555 1_555
C39 O2 1_555 1_555
H28 C39 1_555 1_555
H29 C39 1_555 1_555
C40 C39 1_555 1_555
H30 C40 1_555 1_555
H31 C40 1_555 1_555
H32 C40 1_555 1_555
C3 C6 1_555 1_555
C4 C19 1_555 1_555
C7 C8 1_555 1_555
C14 C15 1_555 1_555
C18 C19 1_555 1_555
C26 C27 1_555 1_555
C36 C37 1_555 1_555

#END
