
#######################################################################
#
#                 Cambridge Crystallographic Data Centre
#                                CCDC 
#
#######################################################################
#
# If this CIF has been generated from an entry in the Cambridge 
# Structural Database, then it will include bibliographic, chemical, 
# crystal, experimental, refinement or atomic coordinate data resulting 
# from the CCDC's data processing and validation procedures.
#
#######################################################################

data_NEGVAZ01
_chemical_formula_moiety         'C12 H24 O6,C6 H7 N2 O2 1+,I1 O4 1-'
_chemical_name_systematic        '2-nitroanilinium periodate 18-crown-6'
_symmetry_cell_setting           triclinic
_symmetry_space_group_name_H-M   'P -1'
_symmetry_Int_Tables_number      2
_space_group_name_Hall           '-P 1'
loop_
_symmetry_equiv_pos_site_id
_symmetry_equiv_pos_as_xyz
1 x,y,z
2 -x,-y,-z
_cell_length_a                   9.3880(8)
_cell_length_b                   10.7788(9)
_cell_length_c                   13.0208(11)
_cell_angle_alpha                108.3970(10)
_cell_angle_beta                 104.9820(10)
_cell_angle_gamma                92.7890(10)
_cell_volume                     1195.5
_exptl_crystal_colour            yellow
_exptl_crystal_description       block
_cell_formula_units_Z            2
loop_
_atom_site_label
_atom_site_type_symbol
_atom_site_fract_x
_atom_site_fract_y
_atom_site_fract_z
N1 N 0.11360(18) 0.41921(17) 0.76128(14)
H1 H 0.1978 0.4127 0.7387
H2 H 0.1167 0.5032 0.8075
H3 H 0.0326 0.3987 0.6996
N2 N -0.1255(2) 0.40484(19) 0.86765(15)
O1 O -0.08654(19) 0.51761(15) 0.87226(13)
O2 O -0.25060(19) 0.3642(2) 0.86607(17)
C1 C 0.1037(2) 0.32769(19) 0.82224(16)
C2 C 0.2117(2) 0.2455(2) 0.83179(18)
H4 H 0.2922 0.2515 0.8011
C3 C 0.2029(2) 0.1546(2) 0.88597(18)
H5 H 0.2790 0.1004 0.8939
C4 C 0.0841(2) 0.1419(2) 0.92869(18)
H6 H 0.0785 0.0789 0.9651
C5 C -0.0261(2) 0.2216(2) 0.91794(18)
H7 H -0.1093 0.2123 0.9451
C6 C -0.0136(2) 0.3151(2) 0.86722(16)
O3 O -0.03832(18) 0.18780(16) 0.57068(14)
O4 O 0.26259(17) 0.29416(14) 0.59658(13)
O5 O 0.43770(16) 0.48458(15) 0.79644(13)
O6 O 0.27017(17) 0.67157(14) 0.89898(13)
O7 O 0.02415(17) 0.66709(15) 0.71756(13)
O8 O -0.17261(17) 0.42818(16) 0.61180(13)
C7 C 0.0306(3) 0.1567(2) 0.4830(2)
H8 H 0.0143 0.2216 0.4431
H9 H -0.0137 0.0679 0.4277
C8 C 0.1947(3) 0.1596(2) 0.5323(2)
H10 H 0.2109 0.1053 0.5819
H11 H 0.2407 0.1224 0.4709
C9 C 0.4221(3) 0.3059(2) 0.6297(2)
H12 H 0.4575 0.2763 0.5617
H13 H 0.4552 0.2492 0.6756
C10 C 0.4860(2) 0.4467(2) 0.69713(19)
H14 H 0.5961 0.4567 0.7181
H15 H 0.4518 0.5038 0.6518
C11 C 0.5117(3) 0.6109(2) 0.8741(2)
H16 H 0.5202 0.6728 0.8330
H17 H 0.6131 0.6033 0.9161
C12 C 0.4205(2) 0.6611(2) 0.9550(2)
H18 H 0.4178 0.6007 0.9983
H19 H 0.4698 0.7491 1.0096
C13 C 0.2612(3) 0.7704(2) 0.8462(2)
H20 H 0.3031 0.7433 0.7813
H21 H 0.3189 0.8554 0.9009
C14 C 0.1018(3) 0.7855(2) 0.8067(2)
H22 H 0.0574 0.8028 0.8702
H23 H 0.0933 0.8613 0.7792
C15 C -0.1328(3) 0.6649(2) 0.6919(2)
H24 H -0.1602 0.7469 0.6780
H25 H -0.1671 0.6589 0.7562
C16 C -0.2040(3) 0.5482(3) 0.5894(2)
H26 H -0.3131 0.5484 0.5666
H27 H -0.1658 0.5527 0.5264
C17 C -0.2294(3) 0.3177(3) 0.5096(2)
H28 H -0.1820 0.3265 0.4521
H29 H -0.3383 0.3142 0.4795
C18 C -0.1963(3) 0.1946(2) 0.5345(2)
H30 H -0.2407 0.1891 0.5944
H31 H -0.2439 0.1174 0.4657
O9 O 0.5688(2) -0.0352(2) 0.2465(2)
O10 O 0.3070(2) 0.0055(2) 0.09514(15)
O11 O 0.4503(2) 0.20910(17) 0.31000(17)
O12 O 0.2915(3) -0.0281(2) 0.30304(18)
I1 I 0.404092(15) 0.036935(13) 0.238222(11)
loop_
_geom_bond_atom_site_label_1
_geom_bond_atom_site_label_2
_geom_bond_site_symmetry_1
_geom_bond_site_symmetry_2
N1 H1 1_555 1_555
H2 N1 1_555 1_555
H3 N1 1_555 1_555
N2 O1 1_555 1_555
O2 N2 1_555 1_555
C1 N1 1_555 1_555
C2 C1 1_555 1_555
H4 C2 1_555 1_555
C3 C2 1_555 1_555
H5 C3 1_555 1_555
C4 C3 1_555 1_555
H6 C4 1_555 1_555
C5 C4 1_555 1_555
H7 C5 1_555 1_555
C6 N2 1_555 1_555
O3 C7 1_555 1_555
O4 C8 1_555 1_555
O5 C10 1_555 1_555
O6 C12 1_555 1_555
O7 C14 1_555 1_555
O8 C16 1_555 1_555
C7 H8 1_555 1_555
H9 C7 1_555 1_555
C8 C7 1_555 1_555
H10 C8 1_555 1_555
H11 C8 1_555 1_555
C9 O4 1_555 1_555
H12 C9 1_555 1_555
H13 C9 1_555 1_555
C10 C9 1_555 1_555
H14 C10 1_555 1_555
H15 C10 1_555 1_555
C11 O5 1_555 1_555
H16 C11 1_555 1_555
H17 C11 1_555 1_555
C12 C11 1_555 1_555
H18 C12 1_555 1_555
H19 C12 1_555 1_555
C13 O6 1_555 1_555
H20 C13 1_555 1_555
H21 C13 1_555 1_555
C14 C13 1_555 1_555
H22 C14 1_555 1_555
H23 C14 1_555 1_555
C15 O7 1_555 1_555
H24 C15 1_555 1_555
H25 C15 1_555 1_555
C16 C15 1_555 1_555
H26 C16 1_555 1_555
H27 C16 1_555 1_555
C17 O8 1_555 1_555
H28 C17 1_555 1_555
H29 C17 1_555 1_555
C18 O3 1_555 1_555
H30 C18 1_555 1_555
H31 C18 1_555 1_555
O9 I1 1_555 1_555
O10 I1 1_555 1_555
O11 I1 1_555 1_555
O12 I1 1_555 1_555
C1 C6 1_555 1_555
C5 C6 1_555 1_555
C17 C18 1_555 1_555

#END
