
#######################################################################
#
#                 Cambridge Crystallographic Data Centre
#                                CCDC 
#
#######################################################################
#
# If this CIF has been generated from an entry in the Cambridge 
# Structural Database, then it will include bibliographic, chemical, 
# crystal, experimental, refinement or atomic coordinate data resulting 
# from the CCDC's data processing and validation procedures.
#
#######################################################################

data_NEHBOU
_chemical_formula_moiety         'C25 H29 N1 O5 S1'
_chemical_name_systematic        
"methyl 4,4-dimethyl-7-[(4-methylphenyl)sulfonyl]-3,3a,4,5,6,7-hexahydrofuro[2',3':2,3]cyclopenta[1,2-c]quinoline-5a(2H)-carboxylate"
_symmetry_cell_setting           monoclinic
_symmetry_space_group_name_H-M   'P 21/c'
_symmetry_Int_Tables_number      14
_space_group_name_Hall           '-P 2ybc'
loop_
_symmetry_equiv_pos_site_id
_symmetry_equiv_pos_as_xyz
1 x,y,z
2 -x,1/2+y,1/2-z
3 -x,-y,-z
4 x,1/2-y,1/2+z
_cell_length_a                   11.7381(4)
_cell_length_b                   13.2058(5)
_cell_length_c                   14.4879(6)
_cell_angle_alpha                90
_cell_angle_beta                 98.487(2)
_cell_angle_gamma                90
_cell_volume                     2221.19
_exptl_crystal_colour            colorless
_exptl_crystal_description       Block
_cell_formula_units_Z            4
loop_
_atom_site_label
_atom_site_type_symbol
_atom_site_fract_x
_atom_site_fract_y
_atom_site_fract_z
C1 C 0.74830(11) 0.45857(10) 0.65797(9)
C2 C 0.79905(11) 0.42957(10) 0.75601(9)
C3 C 0.84918(11) 0.32414(10) 0.78096(9)
H1 H 0.8905 0.2974 0.7304
C4 C 0.55750(11) 0.65399(10) 0.79154(9)
C5 C 0.73219(11) 0.56238(10) 0.63992(9)
C6 C 0.83300(12) 0.60929(10) 0.80281(10)
H2 H 0.7871 0.6072 0.8549
H3 H 0.8927 0.6622 0.8170
C7 C 0.93982(12) 0.45931(10) 0.88883(9)
H4 H 0.8929 0.4790 0.9374
H5 H 1.0200 0.4821 0.9086
C8 C 0.98979(11) 0.52012(10) 0.73748(10)
C9 C 0.49141(12) 0.57569(11) 0.74672(10)
H6 H 0.5001 0.5566 0.6849
C10 C 0.89063(11) 0.50694(10) 0.79445(9)
C11 C 0.72018(12) 0.38963(11) 0.58557(10)
H7 H 0.7315 0.3193 0.5972
C12 C 0.54559(13) 0.68158(12) 0.88192(10)
H8 H 0.5914 0.7344 0.9125
C13 C 0.41298(12) 0.52612(11) 0.79342(10)
H9 H 0.3683 0.4723 0.7633
C14 C 0.93588(12) 0.34241(10) 0.87419(10)
C15 C 0.74089(12) 0.26125(11) 0.78869(11)
H10 H 0.7554 0.2122 0.8408
H11 H 0.7150 0.2240 0.7300
C16 C 0.69701(12) 0.59537(12) 0.54866(10)
H12 H 0.6940 0.6657 0.5349
C17 C 0.39827(12) 0.55368(11) 0.88401(10)
C18 C 0.66647(13) 0.52528(13) 0.47819(10)
H13 H 0.6389 0.5480 0.4167
C19 C 0.65127(13) 0.34058(11) 0.80727(11)
H14 H 0.5864 0.3421 0.7551
H15 H 0.6205 0.3245 0.8656
C20 C 0.89903(15) 0.29301(12) 0.96099(11)
H16 H 0.8998 0.2192 0.9542
H17 H 0.8211 0.3155 0.9677
H18 H 0.9526 0.3129 1.0164
C21 C 0.67579(14) 0.42261(13) 0.49647(10)
H19 H 0.6520 0.3749 0.4484
C22 C 0.46606(14) 0.63120(13) 0.92726(11)
H20 H 0.4578 0.6502 0.9892
C23 C 0.30858(14) 0.50152(14) 0.93151(12)
H21 H 0.3224 0.5168 0.9984
H22 H 0.3132 0.4282 0.9223
H23 H 0.2319 0.5257 0.9047
C24 C 1.05532(13) 0.30175(12) 0.86290(12)
H24 H 1.1093 0.3155 0.9198
H25 H 1.0824 0.3352 0.8098
H26 H 1.0507 0.2285 0.8519
C25 C 1.08729(14) 0.45868(15) 0.61776(12)
H27 H 1.0876 0.5252 0.5878
H28 H 1.0803 0.4056 0.5700
H29 H 1.1593 0.4494 0.6607
N1 N 0.75619(9) 0.63544(8) 0.71411(8)
O1 O 0.70994(8) 0.43658(7) 0.81538(6)
O2 O 0.59616(9) 0.74899(8) 0.64256(7)
O3 O 0.71315(9) 0.79315(7) 0.79348(8)
O4 O 0.99063(9) 0.45251(9) 0.66932(7)
O5 O 1.06220(10) 0.58430(9) 0.75535(9)
S1 S 0.65570(3) 0.71841(2) 0.73147(2)
loop_
_geom_bond_atom_site_label_1
_geom_bond_atom_site_label_2
_geom_bond_site_symmetry_1
_geom_bond_site_symmetry_2
C1 C2 1_555 1_555
C2 C3 1_555 1_555
C3 H1 1_555 1_555
C4 C9 1_555 1_555
C5 C1 1_555 1_555
C6 H2 1_555 1_555
H3 C6 1_555 1_555
C7 H4 1_555 1_555
H5 C7 1_555 1_555
C8 C10 1_555 1_555
C9 H6 1_555 1_555
C10 C2 1_555 1_555
C11 C1 1_555 1_555
H7 C11 1_555 1_555
C12 C4 1_555 1_555
H8 C12 1_555 1_555
C13 C9 1_555 1_555
H9 C13 1_555 1_555
C14 C3 1_555 1_555
C15 C3 1_555 1_555
H10 C15 1_555 1_555
H11 C15 1_555 1_555
C16 C5 1_555 1_555
H12 C16 1_555 1_555
C17 C13 1_555 1_555
C18 C16 1_555 1_555
H13 C18 1_555 1_555
C19 C15 1_555 1_555
H14 C19 1_555 1_555
H15 C19 1_555 1_555
C20 C14 1_555 1_555
H16 C20 1_555 1_555
H17 C20 1_555 1_555
H18 C20 1_555 1_555
C21 C11 1_555 1_555
H19 C21 1_555 1_555
C22 C12 1_555 1_555
H20 C22 1_555 1_555
C23 C17 1_555 1_555
H21 C23 1_555 1_555
H22 C23 1_555 1_555
H23 C23 1_555 1_555
C24 C14 1_555 1_555
H24 C24 1_555 1_555
H25 C24 1_555 1_555
H26 C24 1_555 1_555
C25 H27 1_555 1_555
H28 C25 1_555 1_555
H29 C25 1_555 1_555
N1 C5 1_555 1_555
O1 C2 1_555 1_555
O2 S1 1_555 1_555
O3 S1 1_555 1_555
O4 C8 1_555 1_555
O5 C8 1_555 1_555
S1 C4 1_555 1_555
C6 C10 1_555 1_555
C6 N1 1_555 1_555
C7 C10 1_555 1_555
C7 C14 1_555 1_555
C17 C22 1_555 1_555
C18 C21 1_555 1_555
C19 O1 1_555 1_555
C25 O4 1_555 1_555
N1 S1 1_555 1_555

#END
