
#######################################################################
#
#                 Cambridge Crystallographic Data Centre
#                                CCDC 
#
#######################################################################
#
# If this CIF has been generated from an entry in the Cambridge 
# Structural Database, then it will include bibliographic, chemical, 
# crystal, experimental, refinement or atomic coordinate data resulting 
# from the CCDC's data processing and validation procedures.
#
#######################################################################

data_NEHBUA
_chemical_formula_moiety         'C23 H22 Br1 N1 O4 S1'
_chemical_name_systematic        
N-{4-[3-(4-bromophenyl)-1,4-dioxan-2-yl]phenyl}-4-methylbenzene-1-sulfonamide
_symmetry_cell_setting           monoclinic
_symmetry_space_group_name_H-M   'P 21/n'
_symmetry_Int_Tables_number      14
_space_group_name_Hall           '-P 2yn'
loop_
_symmetry_equiv_pos_site_id
_symmetry_equiv_pos_as_xyz
1 x,y,z
2 1/2-x,1/2+y,1/2-z
3 -x,-y,-z
4 1/2+x,1/2-y,1/2+z
_cell_length_a                   10.723(16)
_cell_length_b                   9.856(15)
_cell_length_c                   20.94(3)
_cell_angle_alpha                90
_cell_angle_beta                 100.205(17)
_cell_angle_gamma                90
_cell_volume                     2178.05
_exptl_crystal_colour            colorless
_exptl_crystal_description       block
_cell_formula_units_Z            4
loop_
_atom_site_label
_atom_site_type_symbol
_atom_site_fract_x
_atom_site_fract_y
_atom_site_fract_z
Br1 Br 0.35253(12) 0.23372(11) 1.11333(5)
S1 S 0.2828(2) 0.80015(19) 0.85051(11)
N1 N 0.1302(8) 0.7826(5) 0.8306(4)
H1 H 0.0830 0.8524 0.8198
O1 O 0.3060(7) 0.9407(5) 0.8425(3)
O2 O 0.3405(7) 0.7007(5) 0.8165(3)
O3 O -0.1664(6) 0.2308(5) 0.7756(3)
O4 O -0.0321(5) 0.0167(5) 0.8445(3)
C1 C 0.0740(8) 0.6496(6) 0.8311(4)
C2 C 0.0810(7) 0.5609(7) 0.7823(4)
H2 H 0.1208 0.5864 0.7481
C3 C 0.0298(8) 0.4347(7) 0.7832(4)
H3 H 0.0367 0.3740 0.7500
C4 C -0.0325(8) 0.3954(7) 0.8329(4)
C5 C -0.0382(8) 0.4868(7) 0.8820(4)
H4 H -0.0791 0.4623 0.9160
C6 C 0.0154(9) 0.6139(7) 0.8818(4)
H5 H 0.0119 0.6744 0.9155
C7 C -0.0820(8) 0.2552(6) 0.8351(4)
H6 H -0.1299 0.2492 0.8707
C8 C 0.0210(7) 0.1504(6) 0.8455(4)
H7 H 0.0713 0.1579 0.8109
C9 C -0.1138(9) -0.0043(8) 0.7835(4)
H8 H -0.1498 -0.0948 0.7822
H9 H -0.0653 0.0030 0.7487
C10 C -0.2167(9) 0.0973(8) 0.7740(5)
H10 H -0.2714 0.0818 0.7325
H11 H -0.2671 0.0875 0.8078
C11 C 0.1080(7) 0.1682(6) 0.9111(3)
C12 C 0.2270(8) 0.2216(7) 0.9162(4)
H12 H 0.2586 0.2446 0.8790
C13 C 0.2995(10) 0.2411(7) 0.9760(5)
H13 H 0.3805 0.2771 0.9791
C14 C 0.2548(8) 0.2083(7) 1.0320(4)
C15 C 0.1362(9) 0.1547(7) 1.0267(4)
H14 H 0.1057 0.1303 1.0640
C16 C 0.0601(8) 0.1361(7) 0.9663(4)
H15 H -0.0218 0.1025 0.9630
C17 C 0.3213(9) 0.7624(7) 0.9325(4)
C18 C 0.3387(10) 0.8655(8) 0.9784(4)
H16 H 0.3268 0.9552 0.9649
C19 C 0.3731(10) 0.8370(9) 1.0431(4)
H17 H 0.3897 0.9072 1.0731
C20 C 0.3830(10) 0.7042(9) 1.0637(5)
C21 C 0.3646(10) 0.6033(9) 1.0193(5)
H18 H 0.3722 0.5135 1.0332
C22 C 0.3354(9) 0.6304(8) 0.9551(5)
H19 H 0.3246 0.5591 0.9256
C23 C 0.4232(12) 0.6739(13) 1.1350(5)
H20 H 0.3508 0.6462 1.1529
H21 H 0.4596 0.7538 1.1570
H22 H 0.4850 0.6023 1.1404
loop_
_geom_bond_atom_site_label_1
_geom_bond_atom_site_label_2
_geom_bond_site_symmetry_1
_geom_bond_site_symmetry_2
Br1 C14 1_555 1_555
S1 N1 1_555 1_555
N1 H1 1_555 1_555
O1 S1 1_555 1_555
O2 S1 1_555 1_555
O3 C7 1_555 1_555
O4 C8 1_555 1_555
C1 N1 1_555 1_555
C2 C1 1_555 1_555
H2 C2 1_555 1_555
C3 C2 1_555 1_555
H3 C3 1_555 1_555
C4 C3 1_555 1_555
C5 C4 1_555 1_555
H4 C5 1_555 1_555
C6 C1 1_555 1_555
H5 C6 1_555 1_555
C7 C4 1_555 1_555
H6 C7 1_555 1_555
C8 C7 1_555 1_555
H7 C8 1_555 1_555
C9 O4 1_555 1_555
H8 C9 1_555 1_555
H9 C9 1_555 1_555
C10 O3 1_555 1_555
H10 C10 1_555 1_555
H11 C10 1_555 1_555
C11 C8 1_555 1_555
C12 C11 1_555 1_555
H12 C12 1_555 1_555
C13 C12 1_555 1_555
H13 C13 1_555 1_555
C14 C13 1_555 1_555
C15 C14 1_555 1_555
H14 C15 1_555 1_555
C16 C11 1_555 1_555
H15 C16 1_555 1_555
C17 S1 1_555 1_555
C18 C17 1_555 1_555
H16 C18 1_555 1_555
C19 C18 1_555 1_555
H17 C19 1_555 1_555
C20 C19 1_555 1_555
C21 C20 1_555 1_555
H18 C21 1_555 1_555
C22 C17 1_555 1_555
H19 C22 1_555 1_555
C23 C20 1_555 1_555
H20 C23 1_555 1_555
H21 C23 1_555 1_555
H22 C23 1_555 1_555
C5 C6 1_555 1_555
C9 C10 1_555 1_555
C15 C16 1_555 1_555
C21 C22 1_555 1_555

#END
