
#######################################################################
#
#                 Cambridge Crystallographic Data Centre
#                                CCDC 
#
#######################################################################
#
# If this CIF has been generated from an entry in the Cambridge 
# Structural Database, then it will include bibliographic, chemical, 
# crystal, experimental, refinement or atomic coordinate data resulting 
# from the CCDC's data processing and validation procedures.
#
#######################################################################

data_NEHBUX
_chemical_formula_moiety         'C23 H24 O8'
_chemical_name_systematic        
rac-1,4-O-Dibenzoyl-5,6-O-isopropylidene-myo-inositol
_symmetry_cell_setting           monoclinic
_symmetry_space_group_name_H-M   'P 21/n'
_symmetry_Int_Tables_number      14
_space_group_name_Hall           '-P 2yn'
loop_
_symmetry_equiv_pos_site_id
_symmetry_equiv_pos_as_xyz
1 x,y,z
2 1/2-x,1/2+y,1/2-z
3 -x,-y,-z
4 1/2+x,1/2-y,1/2+z
_cell_length_a                   9.101(2)
_cell_length_b                   10.4900(9)
_cell_length_c                   22.806(4)
_cell_angle_alpha                90
_cell_angle_beta                 95.452(10)
_cell_angle_gamma                90
_cell_volume                     2167.43
_cell_formula_units_Z            4
loop_
_atom_site_label
_atom_site_type_symbol
_atom_site_fract_x
_atom_site_fract_y
_atom_site_fract_z
O1 O 0.1753(3) 0.8314(3) 0.5971(1)
O2 O 0.0371(4) 0.6203(3) 0.5413(2)
O3 O -0.0974(4) 0.6352(4) 0.4262(2)
O4 O 0.1636(4) 0.6456(3) 0.3649(1)
O5 O 0.4376(3) 0.7020(3) 0.4429(1)
O6 O 0.4351(3) 0.8160(3) 0.5293(1)
O7 O -0.0014(5) 0.9799(4) 0.5908(2)
O8 O 0.1174(4) 0.4347(3) 0.3648(1)
C1 C 0.1627(5) 0.8215(4) 0.5338(2)
C2 C 0.0307(5) 0.7396(4) 0.5114(2)
C3 C 0.0260(5) 0.7115(5) 0.4454(2)
C4 C 0.1697(5) 0.6522(5) 0.4283(2)
C5 C 0.2918(5) 0.7408(4) 0.4507(2)
C6 C 0.2967(5) 0.7545(4) 0.5164(2)
C7 C 0.5328(5) 0.7566(5) 0.4910(2)
C8 C 0.6180(6) 0.6498(5) 0.5230(3)
C9 C 0.6304(6) 0.8578(5) 0.4689(2)
C10 C 0.0876(6) 0.9171(5) 0.6206(2)
C11 C 0.1096(6) 0.9194(5) 0.6856(2)
C12 C 0.2110(7) 0.8414(7) 0.7175(3)
C13 C 0.2296(9) 0.8478(8) 0.7783(3)
C14 C 0.1464(10) 0.9301(10) 0.8073(3)
C15 C 0.0451(9) 1.0087(10) 0.7765(3)
C16 C 0.0271(8) 1.0022(7) 0.7156(3)
C17 C 0.1347(5) 0.5329(5) 0.3384(2)
C18 C 0.1269(5) 0.5415(5) 0.2736(2)
C19 C 0.0826(7) 0.4366(5) 0.2412(2)
C20 C 0.0752(9) 0.4412(7) 0.1802(3)
C21 C 0.1142(9) 0.5500(7) 0.1524(3)
C22 C 0.1616(9) 0.6544(7) 0.1853(3)
C23 C 0.1674(8) 0.6506(6) 0.2454(2)
H1 H -0.0143(64) 0.6213(57) 0.5667(26)
H2 H -0.0875(65) 0.5718(58) 0.4471(25)
H3 H 0.1549(5) 0.9038(4) 0.5165(2)
H4 H -0.0575(5) 0.7823(4) 0.5190(2)
H5 H 0.0139(5) 0.7907(5) 0.4253(2)
H6 H 0.1842(5) 0.5699(5) 0.4453(2)
H7 H 0.2745(5) 0.8222(4) 0.4331(2)
H8 H 0.3014(5) 0.6720(4) 0.5337(2)
H9 H 0.6818(6) 0.6114(5) 0.4975(3)
H10 H 0.5510(6) 0.5878(5) 0.5351(3)
H11 H 0.6748(6) 0.6830(5) 0.5567(3)
H12 H 0.6954(6) 0.8204(5) 0.4436(2)
H13 H 0.6863(6) 0.8968(5) 0.5014(2)
H14 H 0.5713(6) 0.9204(5) 0.4478(2)
H15 H 0.2682(7) 0.7830(7) 0.6973(3)
H16 H 0.3003(9) 0.7949(8) 0.7998(3)
H17 H 0.1581(10) 0.9334(10) 0.8491(3)
H18 H -0.0119(9) 1.0668(10) 0.7969(3)
H19 H -0.0433(8) 1.0557(7) 0.6943(3)
H20 H 0.0568(7) 0.3606(5) 0.2604(2)
H21 H 0.0429(9) 0.3686(7) 0.1577(3)
H22 H 0.1085(9) 0.5533(7) 0.1107(3)
H23 H 0.1906(9) 0.7296(7) 0.1663(3)
H24 H 0.1995(8) 0.7234(6) 0.2679(2)
loop_
_geom_bond_atom_site_label_1
_geom_bond_atom_site_label_2
_geom_bond_site_symmetry_1
_geom_bond_site_symmetry_2
O1 C1 1_555 1_555
O2 C2 1_555 1_555
O3 C3 1_555 1_555
O4 C4 1_555 1_555
O5 C5 1_555 1_555
O6 C6 1_555 1_555
O7 C10 1_555 1_555
O8 C17 1_555 1_555
C1 C2 1_555 1_555
C2 C3 1_555 1_555
C3 C4 1_555 1_555
C4 C5 1_555 1_555
C5 C6 1_555 1_555
C6 C1 1_555 1_555
C7 O5 1_555 1_555
C8 C7 1_555 1_555
C9 C7 1_555 1_555
C10 O1 1_555 1_555
C11 C10 1_555 1_555
C12 C11 1_555 1_555
C13 C12 1_555 1_555
C14 C13 1_555 1_555
C15 C14 1_555 1_555
C16 C11 1_555 1_555
C17 O4 1_555 1_555
C18 C17 1_555 1_555
C19 C18 1_555 1_555
C20 C19 1_555 1_555
C21 C20 1_555 1_555
C22 C21 1_555 1_555
C23 C18 1_555 1_555
H1 O2 1_555 1_555
H2 O3 1_555 1_555
H3 C1 1_555 1_555
H4 C2 1_555 1_555
H5 C3 1_555 1_555
H6 C4 1_555 1_555
H7 C5 1_555 1_555
H8 C6 1_555 1_555
H9 C8 1_555 1_555
H10 C8 1_555 1_555
H11 C8 1_555 1_555
H12 C9 1_555 1_555
H13 C9 1_555 1_555
H14 C9 1_555 1_555
H15 C12 1_555 1_555
H16 C13 1_555 1_555
H17 C14 1_555 1_555
H18 C15 1_555 1_555
H19 C16 1_555 1_555
H20 C19 1_555 1_555
H21 C20 1_555 1_555
H22 C21 1_555 1_555
H23 C22 1_555 1_555
H24 C23 1_555 1_555
O6 C7 1_555 1_555
C15 C16 1_555 1_555
C22 C23 1_555 1_555

#END
