
#######################################################################
#
#                 Cambridge Crystallographic Data Centre
#                                CCDC 
#
#######################################################################
#
# If this CIF has been generated from an entry in the Cambridge 
# Structural Database, then it will include bibliographic, chemical, 
# crystal, experimental, refinement or atomic coordinate data resulting 
# from the CCDC's data processing and validation procedures.
#
#######################################################################

data_NEHCAH
_chemical_formula_moiety         'C17 H21 N1 O4 S1'
_chemical_name_systematic        
N-[4-(1,2-dimethoxy-2-phenylethyl)phenyl]methanesulfonamide
_symmetry_cell_setting           monoclinic
_symmetry_space_group_name_H-M   'P 21/n'
_symmetry_Int_Tables_number      14
_space_group_name_Hall           '-P 2yn'
loop_
_symmetry_equiv_pos_site_id
_symmetry_equiv_pos_as_xyz
1 x,y,z
2 1/2-x,1/2+y,1/2-z
3 -x,-y,-z
4 1/2+x,1/2-y,1/2+z
_cell_length_a                   13.746(2)
_cell_length_b                   8.2548(13)
_cell_length_c                   15.646(3)
_cell_angle_alpha                90
_cell_angle_beta                 104.468(2)
_cell_angle_gamma                90
_cell_volume                     1719.06
_exptl_crystal_colour            colorless
_exptl_crystal_description       block
_cell_formula_units_Z            4
loop_
_atom_site_label
_atom_site_type_symbol
_atom_site_fract_x
_atom_site_fract_y
_atom_site_fract_z
S1 S 0.44040(3) 1.27994(5) 1.07005(3)
O1 O 0.44698(11) 1.45211(17) 1.08023(11)
O2 O 0.52317(11) 1.1823(2) 1.11473(12)
O3 O 0.19899(10) 0.48467(14) 1.10842(8)
O4 O 0.09287(11) 0.40938(17) 0.93627(10)
N1 N 0.34112(12) 1.22989(18) 1.10317(11)
H1 H 0.3027(14) 1.309(2) 1.1017(14)
C1 C 0.41479(17) 1.2325(3) 0.95721(14)
H2 H 0.3554 1.2907 0.9256
H3 H 0.4033 1.1169 0.9493
H4 H 0.4715 1.2636 0.9344
C2 C 0.29678(13) 1.07283(19) 1.09073(11)
C3 C 0.19250(13) 1.0617(2) 1.06724(12)
H5 H 0.1529 1.1560 1.0585
C4 C 0.14743(13) 0.9101(2) 1.05677(12)
H6 H 0.0770 0.9026 1.0427
C5 C 0.20445(13) 0.76954(19) 1.06665(11)
C6 C 0.30816(13) 0.7826(2) 1.09133(12)
H7 H 0.3476 0.6882 1.0993
C7 C 0.35476(13) 0.9332(2) 1.10452(12)
H8 H 0.4252 0.9404 1.1227
C8 C 0.15402(13) 0.60613(19) 1.04586(12)
H9 H 0.0822 0.6167 1.0456
C9 C 0.16192(13) 0.5409(2) 0.95600(12)
H10 H 0.2306 0.4981 0.9623
C10 C 0.14227(14) 0.6706(2) 0.88556(12)
C11 C 0.04617(17) 0.7302(3) 0.85028(16)
H11 H -0.0089 0.6851 0.8674
C12 C 0.0314(2) 0.8561(3) 0.78980(17)
H12 H -0.0338 0.8964 0.7663
C13 C 0.1118(3) 0.9233(3) 0.76356(16)
H13 H 0.1012 1.0078 0.7220
C14 C 0.2072(2) 0.8652(3) 0.79886(16)
H14 H 0.2624 0.9121 0.7828
C15 C 0.22183(17) 0.7385(3) 0.85771(14)
H15 H 0.2869 0.6967 0.8796
C16 C 0.19258(17) 0.5182(2) 1.19651(13)
H16 H 0.2311 0.6148 1.2180
H17 H 0.2194 0.4273 1.2344
H18 H 0.1229 0.5352 1.1969
C17 C 0.10159(19) 0.3146(3) 0.86269(17)
H19 H 0.0882 0.3820 0.8102
H20 H 0.0534 0.2265 0.8540
H21 H 0.1690 0.2708 0.8736
loop_
_geom_bond_atom_site_label_1
_geom_bond_atom_site_label_2
_geom_bond_site_symmetry_1
_geom_bond_site_symmetry_2
S1 O1 1_555 1_555
O2 S1 1_555 1_555
O3 C8 1_555 1_555
O4 C9 1_555 1_555
N1 S1 1_555 1_555
H1 N1 1_555 1_555
C1 S1 1_555 1_555
H2 C1 1_555 1_555
H3 C1 1_555 1_555
H4 C1 1_555 1_555
C2 N1 1_555 1_555
C3 C2 1_555 1_555
H5 C3 1_555 1_555
C4 C3 1_555 1_555
H6 C4 1_555 1_555
C5 C4 1_555 1_555
C6 C5 1_555 1_555
H7 C6 1_555 1_555
C7 C2 1_555 1_555
H8 C7 1_555 1_555
C8 C5 1_555 1_555
H9 C8 1_555 1_555
C9 C8 1_555 1_555
H10 C9 1_555 1_555
C10 C9 1_555 1_555
C11 C10 1_555 1_555
H11 C11 1_555 1_555
C12 C11 1_555 1_555
H12 C12 1_555 1_555
C13 C12 1_555 1_555
H13 C13 1_555 1_555
C14 C13 1_555 1_555
H14 C14 1_555 1_555
C15 C10 1_555 1_555
H15 C15 1_555 1_555
C16 O3 1_555 1_555
H16 C16 1_555 1_555
H17 C16 1_555 1_555
H18 C16 1_555 1_555
C17 O4 1_555 1_555
H19 C17 1_555 1_555
H20 C17 1_555 1_555
H21 C17 1_555 1_555
C6 C7 1_555 1_555
C14 C15 1_555 1_555

#END
