
#######################################################################
#
#                 Cambridge Crystallographic Data Centre
#                                CCDC 
#
#######################################################################
#
# If this CIF has been generated from an entry in the Cambridge 
# Structural Database, then it will include bibliographic, chemical, 
# crystal, experimental, refinement or atomic coordinate data resulting 
# from the CCDC's data processing and validation procedures.
#
#######################################################################

data_NEHDOW
_chemical_formula_moiety         'C16 H10,C6 Br2 F4'
_chemical_name_systematic        
'1,4-dibromo-2,3,5,6-tetrafluorobenzene fluoranthene'
_symmetry_cell_setting           triclinic
_symmetry_space_group_name_H-M   'P -1'
_symmetry_Int_Tables_number      2
_space_group_name_Hall           '-P 1'
loop_
_symmetry_equiv_pos_site_id
_symmetry_equiv_pos_as_xyz
1 x,y,z
2 -x,-y,-z
_cell_length_a                   7.2059(5)
_cell_length_b                   8.3166(5)
_cell_length_c                   14.8296(12)
_cell_angle_alpha                90.772(6)
_cell_angle_beta                 92.296(6)
_cell_angle_gamma                91.587(5)
_cell_volume                     887.568
_exptl_crystal_colour            colorless
_exptl_crystal_description       block
_cell_formula_units_Z            2
loop_
_atom_site_label
_atom_site_type_symbol
_atom_site_fract_x
_atom_site_fract_y
_atom_site_fract_z
Br1 Br 0.98650(6) 1.03117(5) 0.13282(3)
Br2 Br 0.97255(6) 0.36886(5) 0.36304(3)
F1 F 1.1264(3) 0.7009(3) 0.41930(15)
F2 F 0.8572(3) 0.4203(3) 0.16531(17)
F3 F 0.8645(3) 0.6914(3) 0.07110(16)
F4 F 1.1313(3) 0.9734(3) 0.32501(17)
C1 C 0.9952(5) 0.8389(4) 0.1965(3)
C2 C 1.0609(5) 0.6973(5) 0.3335(3)
C3 C 0.9253(5) 0.5557(4) 0.2063(3)
C4 C 0.9883(5) 0.5554(4) 0.2953(3)
C5 C 0.9290(5) 0.6953(5) 0.1571(3)
C6 C 1.0628(5) 0.8360(4) 0.2847(3)
C7 C 0.4963(5) 0.5672(4) 0.2926(3)
C8 C 0.5728(5) 0.6992(4) 0.3520(3)
C9 C 0.3814(5) 0.3180(5) 0.2275(3)
H1 H 0.3560 0.2086 0.2341
C10 C 0.6379(5) 0.7008(5) 0.4417(3)
H2 H 0.6374 0.6072 0.4753
C11 C 0.5770(5) 0.8424(4) 0.3011(3)
C12 C 0.5022(5) 0.8044(4) 0.2095(3)
C13 C 0.4582(5) 0.4068(4) 0.3026(3)
H3 H 0.4823 0.3572 0.3575
C14 C 0.3429(5) 0.3853(5) 0.1454(3)
H4 H 0.2915 0.3222 0.0980
C15 C 0.4696(5) 0.8883(5) 0.1320(3)
H5 H 0.4971 0.9981 0.1301
C16 C 0.4564(5) 0.6361(4) 0.2080(3)
C17 C 0.6464(5) 0.9856(4) 0.3403(3)
H6 H 0.6514 1.0794 0.3070
C18 C 0.3815(5) 0.5526(5) 0.1324(3)
C19 C 0.3508(5) 0.6435(5) 0.0532(3)
H7 H 0.3021 0.5935 0.0006
C20 C 0.7040(6) 0.8467(5) 0.4798(3)
H8 H 0.7461 0.8500 0.5399
C21 C 0.3930(6) 0.8047(5) 0.0545(3)
H9 H 0.3704 0.8625 0.0021
C22 C 0.7083(6) 0.9861(5) 0.4305(3)
H10 H 0.7530 1.0816 0.4578
loop_
_geom_bond_atom_site_label_1
_geom_bond_atom_site_label_2
_geom_bond_site_symmetry_1
_geom_bond_site_symmetry_2
Br1 C1 1_555 1_555
Br2 C4 1_555 1_555
F1 C2 1_555 1_555
F2 C3 1_555 1_555
F3 C5 1_555 1_555
F4 C6 1_555 1_555
C1 C5 1_555 1_555
C2 C4 1_555 1_555
C3 C4 1_555 1_555
C5 C3 1_555 1_555
C6 C1 1_555 1_555
C7 C8 1_555 1_555
C8 C10 1_555 1_555
C9 H1 1_555 1_555
C10 H2 1_555 1_555
C11 C8 1_555 1_555
C12 C11 1_555 1_555
C13 C7 1_555 1_555
H3 C13 1_555 1_555
C14 C9 1_555 1_555
H4 C14 1_555 1_555
C15 C12 1_555 1_555
H5 C15 1_555 1_555
C16 C7 1_555 1_555
C17 C11 1_555 1_555
H6 C17 1_555 1_555
C18 C14 1_555 1_555
C19 C18 1_555 1_555
H7 C19 1_555 1_555
C20 C10 1_555 1_555
H8 C20 1_555 1_555
C21 C15 1_555 1_555
H9 C21 1_555 1_555
C22 C17 1_555 1_555
H10 C22 1_555 1_555
C2 C6 1_555 1_555
C9 C13 1_555 1_555
C12 C16 1_555 1_555
C16 C18 1_555 1_555
C19 C21 1_555 1_555
C20 C22 1_555 1_555

#END
