
#######################################################################
#
#                 Cambridge Crystallographic Data Centre
#                                CCDC 
#
#######################################################################
#
# If this CIF has been generated from an entry in the Cambridge 
# Structural Database, then it will include bibliographic, chemical, 
# crystal, experimental, refinement or atomic coordinate data resulting 
# from the CCDC's data processing and validation procedures.
#
#######################################################################

data_NEHGOY
_chemical_formula_moiety         'C60 H51 N7 O9,0.5(H2 O1)'
_chemical_name_systematic        
"1,1',1''-(Nitrilotris(methylene-3,1-phenylene))tris(3-(3,5-bis(prop-2-yn-1-yloxy)phenyl)urea) hemihydrate"
_symmetry_cell_setting           rhombohedral
_symmetry_space_group_name_H-M   'R -3'
_symmetry_Int_Tables_number      148
_space_group_name_Hall           '-R 3'
loop_
_symmetry_equiv_pos_site_id
_symmetry_equiv_pos_as_xyz
1 x,y,z
2 -y,x-y,z
3 -x+y,-x,z
4 2/3+x,1/3+y,1/3+z
5 2/3-y,1/3+x-y,1/3+z
6 2/3-x+y,1/3-x,1/3+z
7 1/3+x,2/3+y,2/3+z
8 1/3-y,2/3+x-y,2/3+z
9 1/3-x+y,2/3-x,2/3+z
10 -x,-y,-z
11 y,-x+y,-z
12 x-y,x,-z
13 1/3-x,2/3-y,2/3-z
14 1/3+y,2/3-x+y,2/3-z
15 1/3+x-y,2/3+x,2/3-z
16 2/3-x,1/3-y,1/3-z
17 2/3+y,1/3-x+y,1/3-z
18 2/3+x-y,1/3+x,1/3-z
_cell_length_a                   20.2892(9)
_cell_length_b                   20.2892(9)
_cell_length_c                   23.219(2)
_cell_angle_alpha                90
_cell_angle_beta                 90
_cell_angle_gamma                120
_cell_volume                     8277.59
_cell_formula_units_Z            6
loop_
_atom_site_label
_atom_site_type_symbol
_atom_site_fract_x
_atom_site_fract_y
_atom_site_fract_z
C1 C 0.58827(14) 1.19085(13) 0.41216(11)
H1 H 0.5761 1.2242 0.4304
C2 C 0.60370(13) 1.14876(13) 0.38911(10)
C3 C 0.62118(12) 1.09557(12) 0.35943(9)
H2 H 0.6751 1.1211 0.3505
H3 H 0.6098 1.0532 0.3848
C4 C 0.50368(10) 1.01061(11) 0.31168(8)
C5 C 0.46514(11) 0.98246(11) 0.36279(9)
H4 H 0.4888 1.0010 0.3981
C6 C 0.38968(10) 0.92536(10) 0.35939(8)
C7 C 0.35377(11) 0.89613(11) 0.30791(8)
H5 H 0.3031 0.8575 0.3069
C8 C 0.39482(10) 0.92557(10) 0.25696(8)
C9 C 0.46961(11) 0.98395(11) 0.25855(8)
H6 H 0.4965 1.0049 0.2247
C10 C 0.37651(10) 0.91104(11) 0.46267(8)
H7 H 0.4251 0.9127 0.4625
H8 H 0.3435 0.8720 0.4898
C11 C 0.38756(13) 0.98279(13) 0.48135(10)
C12 C 0.39483(13) 1.04134(13) 0.49502(11)
H9 H 0.4006 1.0881 0.5059
C13 C 0.38653(10) 0.89772(10) 0.15229(8)
C14 C 0.35220(10) 0.86147(11) 0.05094(8)
C15 C 0.32460(10) 0.79259(10) 0.02295(8)
H10 H 0.2978 0.7475 0.0436
C16 C 0.33631(10) 0.78983(10) -0.03552(8)
C17 C 0.37937(10) 0.85680(10) -0.06483(8)
H11 H 0.3892 0.8557 -0.1038
C18 C 0.40823(10) 0.92611(11) -0.03667(9)
H12 H 0.4373 0.9711 -0.0569
C19 C 0.39426(11) 0.92880(11) 0.02070(9)
H13 H 0.4128 0.9754 0.0392
C20 C 0.30166(11) 0.71348(11) -0.06563(9)
H14 H 0.2471 0.6862 -0.0593
H15 H 0.3104 0.7217 -0.1067
N1 N 0.3333 0.6667 -0.04522(11)
N2 N 0.33429(9) 0.86188(9) 0.11039(7)
H16 H 0.2869(3) 0.8381(11) 0.1181(9)
N3 N 0.35557(9) 0.89328(9) 0.20502(7)
H17 H 0.3072(2) 0.8682(10) 0.2066(9)
O1 O 0.45569(7) 0.93053(7) 0.14289(6)
O2 O 0.34402(7) 0.89140(7) 0.40706(5)
O3 O 0.57875(8) 1.06764(8) 0.30785(6)
C1B C 0.60258(19) 0.41173(14) 0.41216(11)
C1A C -0.19085(13) 0.39742(19) 0.41216(11)
H1B H 0.6481 0.4239 0.4304
H1A H -0.2242 0.3519 0.4304
C2B C 0.54506(18) 0.39630(13) 0.38911(10)
C2A C -0.14876(13) 0.45494(18) 0.38911(10)
C3B C 0.47439(17) 0.37882(12) 0.35943(9)
C3A C -0.09557(12) 0.52561(17) 0.35943(9)
H2B H 0.4460 0.3249 0.3505
H2A H -0.1211 0.5540 0.3505
H3B H 0.4434 0.3902 0.3848
H3A H -0.0532 0.5566 0.3848
C4B C 0.50693(15) 0.49632(10) 0.31168(8)
C4A C -0.01061(11) 0.49307(15) 0.31168(8)
C5B C 0.51732(16) 0.53486(11) 0.36279(9)
C5A C 0.01754(11) 0.48268(16) 0.36279(9)
H4B H 0.5122 0.5112 0.3981
H4A H -0.0010 0.4878 0.3981
C6B C 0.53568(14) 0.61032(10) 0.35939(8)
C6A C 0.07464(10) 0.46432(14) 0.35939(8)
C7B C 0.54236(16) 0.64623(11) 0.30791(8)
C7A C 0.10387(11) 0.45764(16) 0.30791(8)
H5B H 0.5544 0.6969 0.3069
H5A H 0.1425 0.4456 0.3069
C8B C 0.53075(14) 0.60518(10) 0.25696(8)
C8A C 0.07443(10) 0.46925(14) 0.25696(8)
C9B C 0.51434(16) 0.53039(11) 0.25855(8)
C9A C 0.01605(11) 0.48566(16) 0.25855(8)
H6B H 0.5084 0.5035 0.2247
H6A H -0.0049 0.4916 0.2247
C10B C 0.53453(15) 0.62349(10) 0.46267(8)
C10A C 0.08896(11) 0.46547(15) 0.46267(8)
H7B H 0.4876 0.5749 0.4625
H7A H 0.0873 0.5124 0.4625
H8B H 0.5285 0.6565 0.4898
H8A H 0.1280 0.4715 0.4898
C11B C 0.59523(18) 0.61244(13) 0.48135(10)
C11A C 0.01721(13) 0.40477(18) 0.48135(10)
C12B C 0.64651(18) 0.60517(13) 0.49502(11)
C12A C -0.04134(13) 0.35349(18) 0.49502(11)
H9B H 0.6875 0.5994 0.5059
H9A H -0.0881 0.3125 0.5059
C13B C 0.51119(14) 0.61347(10) 0.15229(8)
C13A C 0.10228(10) 0.48881(14) 0.15229(8)
C14B C 0.50927(15) 0.64780(10) 0.05094(8)
C14A C 0.13853(11) 0.49073(15) 0.05094(8)
C15B C 0.46799(14) 0.67540(10) 0.02295(8)
C15A C 0.20741(10) 0.53201(14) 0.02295(8)
H10B H 0.4497 0.7022 0.0436
H10A H 0.2525 0.5503 0.0436
C16B C 0.45352(14) 0.66369(10) -0.03552(8)
C16A C 0.21017(10) 0.54648(14) -0.03552(8)
C17B C 0.47743(14) 0.62063(10) -0.06483(8)
C17A C 0.14320(10) 0.52257(14) -0.06483(8)
H11B H 0.4665 0.6108 -0.1038
H11A H 0.1443 0.5335 -0.1038
C18B C 0.51788(15) 0.59177(10) -0.03667(9)
C18A C 0.07389(11) 0.48212(15) -0.03667(9)
H12B H 0.5338 0.5627 -0.0569
H12A H 0.0289 0.4662 -0.0569
C19B C 0.53454(16) 0.60574(11) 0.02070(9)
C19A C 0.07120(11) 0.46546(16) 0.02070(9)
H13B H 0.5626 0.5872 0.0392
H13A H 0.0246 0.4374 0.0392
C20B C 0.41182(16) 0.69834(11) -0.06563(9)
C20A C 0.28652(11) 0.58818(16) -0.06563(9)
H14B H 0.4391 0.7529 -0.0593
H14A H 0.3138 0.5609 -0.0593
H15B H 0.4113 0.6896 -0.1067
H15A H 0.2783 0.5887 -0.1067
N2B N 0.52759(13) 0.66571(9) 0.11039(7)
N2A N 0.13812(9) 0.47241(13) 0.11039(7)
H16B H 0.5512(11) 0.7131(3) 0.1181(9)
H16A H 0.1619(11) 0.4488(11) 0.1181(9)
N3B N 0.53771(13) 0.64443(9) 0.20502(7)
N3A N 0.10672(9) 0.46229(13) 0.20502(7)
H17B H 0.5610(10) 0.6928(2) 0.2066(9)
H17A H 0.1318(10) 0.4390(10) 0.2066(9)
O1B O 0.47484(10) 0.54431(7) 0.14289(6)
O1A O 0.06947(7) 0.52516(10) 0.14289(6)
O2B O 0.54738(10) 0.65598(7) 0.40706(5)
O2A O 0.10860(7) 0.45262(10) 0.40706(5)
O3B O 0.48889(11) 0.42125(8) 0.30785(6)
O3A O -0.06764(8) 0.51111(11) 0.30785(6)
O4 O 0.3333 0.6667 0.1667
H18? H 0.2881 0.6488 0.1790
H19? H 0.3517 0.6397 0.1789
loop_
_geom_bond_atom_site_label_1
_geom_bond_atom_site_label_2
_geom_bond_site_symmetry_1
_geom_bond_site_symmetry_2
C1 H1 1_555 1_555
C2 C1 1_555 1_555
C3 C2 1_555 1_555
H2 C3 1_555 1_555
H3 C3 1_555 1_555
C4 C5 1_555 1_555
C5 H4 1_555 1_555
C6 C5 1_555 1_555
C7 C6 1_555 1_555
H5 C7 1_555 1_555
C8 C7 1_555 1_555
C9 C4 1_555 1_555
H6 C9 1_555 1_555
C10 H7 1_555 1_555
H8 C10 1_555 1_555
C11 C10 1_555 1_555
C12 C11 1_555 1_555
H9 C12 1_555 1_555
C13 N2 1_555 1_555
C14 C15 1_555 1_555
C15 H10 1_555 1_555
C16 C15 1_555 1_555
C17 C16 1_555 1_555
H11 C17 1_555 1_555
C18 C17 1_555 1_555
H12 C18 1_555 1_555
C19 C14 1_555 1_555
H13 C19 1_555 1_555
C20 C16 1_555 1_555
H14 C20 1_555 1_555
H15 C20 1_555 1_555
N1 C20 1_555 1_555
N2 C14 1_555 1_555
H16 N2 1_555 1_555
N3 C8 1_555 1_555
H17 N3 1_555 1_555
O1 C13 1_555 1_555
O2 C6 1_555 1_555
O3 C3 1_555 1_555
C1B H1B 1_555 1_555
C1A H1A 1_555 1_555
C2B C1B 1_555 1_555
C2A C1A 1_555 1_555
C3B C2B 1_555 1_555
C3A C2A 1_555 1_555
H2B C3B 1_555 1_555
H2A C3A 1_555 1_555
H3B C3B 1_555 1_555
H3A C3A 1_555 1_555
C4B C5B 1_555 1_555
C4A C5A 1_555 1_555
C5B H4B 1_555 1_555
C5A H4A 1_555 1_555
C6B C5B 1_555 1_555
C6A C5A 1_555 1_555
C7B C6B 1_555 1_555
C7A C6A 1_555 1_555
H5B C7B 1_555 1_555
H5A C7A 1_555 1_555
C8B C7B 1_555 1_555
C8A C7A 1_555 1_555
C9B C4B 1_555 1_555
C9A C4A 1_555 1_555
H6B C9B 1_555 1_555
H6A C9A 1_555 1_555
C10B H7B 1_555 1_555
C10A H7A 1_555 1_555
H8B C10B 1_555 1_555
H8A C10A 1_555 1_555
C11B C10B 1_555 1_555
C11A C10A 1_555 1_555
C12B C11B 1_555 1_555
C12A C11A 1_555 1_555
H9B C12B 1_555 1_555
H9A C12A 1_555 1_555
C13B N2B 1_555 1_555
C13A N2A 1_555 1_555
C14B C15B 1_555 1_555
C14A C15A 1_555 1_555
C15B H10B 1_555 1_555
C15A H10A 1_555 1_555
C16B C15B 1_555 1_555
C16A C15A 1_555 1_555
C17B C16B 1_555 1_555
C17A C16A 1_555 1_555
H11B C17B 1_555 1_555
H11A C17A 1_555 1_555
C18B C17B 1_555 1_555
C18A C17A 1_555 1_555
H12B C18B 1_555 1_555
H12A C18A 1_555 1_555
C19B C14B 1_555 1_555
C19A C14A 1_555 1_555
H13B C19B 1_555 1_555
H13A C19A 1_555 1_555
C20B N1 1_555 1_555
C20A N1 1_555 1_555
H14B C20B 1_555 1_555
H14A C20A 1_555 1_555
H15B C20B 1_555 1_555
H15A C20A 1_555 1_555
N2B C14B 1_555 1_555
N2A C14A 1_555 1_555
H16B N2B 1_555 1_555
H16A N2A 1_555 1_555
N3B C8B 1_555 1_555
N3A C8A 1_555 1_555
H17B N3B 1_555 1_555
H17A N3A 1_555 1_555
O1B C13B 1_555 1_555
O1A C13A 1_555 1_555
O2B C6B 1_555 1_555
O2A C6A 1_555 1_555
O3B C3B 1_555 1_555
O3A C3A 1_555 1_555
C4 O3 1_555 1_555
C8 C9 1_555 1_555
C10 O2 1_555 1_555
C13 N3 1_555 1_555
C18 C19 1_555 1_555
C4B O3B 1_555 1_555
C4A O3A 1_555 1_555
C8B C9B 1_555 1_555
C8A C9A 1_555 1_555
C10B O2B 1_555 1_555
C10A O2A 1_555 1_555
C13B N3B 1_555 1_555
C13A N3A 1_555 1_555
C16B C20B 1_555 1_555
C16A C20A 1_555 1_555
C18B C19B 1_555 1_555
C18A C19A 1_555 1_555

#END
