
#######################################################################
#
#                 Cambridge Crystallographic Data Centre
#                                CCDC 
#
#######################################################################
#
# If this CIF has been generated from an entry in the Cambridge 
# Structural Database, then it will include bibliographic, chemical, 
# crystal, experimental, refinement or atomic coordinate data resulting 
# from the CCDC's data processing and validation procedures.
#
#######################################################################

data_NEHHEP
_chemical_formula_moiety         'C23 H23 Br2 N3 O3'
_chemical_name_systematic        
"t-butyl (5,5'-dibromo-1,1'-dimethyl-2'-oxo-1',2'-dihydro-1H,3'H-3,3'-biindol-3'-yl)carbamate"
_symmetry_cell_setting           orthorhombic
_symmetry_space_group_name_H-M   'P 21 21 2'
_symmetry_Int_Tables_number      18
_space_group_name_Hall           'P 2 2ab'
loop_
_symmetry_equiv_pos_site_id
_symmetry_equiv_pos_as_xyz
1 x,y,z
2 -x,-y,z
3 1/2-x,1/2+y,-z
4 1/2+x,1/2-y,-z
_cell_length_a                   40.74(3)
_cell_length_b                   9.259(6)
_cell_length_c                   12.727(9)
_cell_angle_alpha                90
_cell_angle_beta                 90
_cell_angle_gamma                90
_cell_volume                     4800.77
_exptl_crystal_colour            colorless
_exptl_crystal_description       block
_cell_formula_units_Z            8
loop_
_atom_site_label
_atom_site_type_symbol
_atom_site_fract_x
_atom_site_fract_y
_atom_site_fract_z
Br1 Br 0.26936(2) 0.36413(10) 0.78421(7)
Br2 Br 0.30737(3) -0.13414(13) -0.00431(8)
C1 C 0.3510(2) 0.1671(8) 0.5775(6)
C2 C 0.3596(2) 0.2186(9) 0.6741(8)
H1 H 0.3812 0.2157 0.6969
C3 C 0.3349(2) 0.2754(9) 0.7374(7)
H2 H 0.3401 0.3121 0.8033
C4 C 0.3026(2) 0.2777(8) 0.7026(6)
C5 C 0.2943(2) 0.2179(9) 0.6046(6)
H3 H 0.2726 0.2150 0.5820
C6 C 0.3187(2) 0.1646(8) 0.5438(6)
C7 C 0.31714(19) 0.0909(8) 0.4372(6)
C8 C 0.3539(2) 0.0479(9) 0.4205(8)
C9 C 0.40726(17) 0.0812(10) 0.5104(8)
H4 H 0.4160 0.0533 0.4435
H5 H 0.4117 0.0068 0.5611
H6 H 0.4174 0.1697 0.5328
C10 C 0.30607(18) 0.1921(9) 0.3520(6)
C11 C 0.29532(19) 0.3309(9) 0.3626(6)
H7 H 0.2951 0.3828 0.4252
C12 C 0.28819(18) 0.2769(10) 0.1931(7)
C13 C 0.2811(2) 0.2756(11) 0.0883(7)
H8 H 0.2725 0.3577 0.0565
C14 C 0.2865(2) 0.1543(12) 0.0300(7)
H9 H 0.2813 0.1530 -0.0411
C15 C 0.3000(2) 0.0317(10) 0.0779(7)
C16 C 0.30788(18) 0.0310(9) 0.1845(6)
H10 H 0.3165 -0.0510 0.2162
C17 C 0.30248(17) 0.1545(8) 0.2414(6)
C18 C 0.2717(2) 0.5263(9) 0.2490(7)
H11 H 0.2730 0.5825 0.3122
H12 H 0.2493 0.5183 0.2272
H13 H 0.2843 0.5726 0.1947
C19 C 0.2987(2) -0.1563(11) 0.4927(7)
C20 C 0.3316(3) -0.2612(10) 0.6348(8)
C21 C 0.3619(3) -0.2050(12) 0.6870(9)
H14 H 0.3799 -0.2096 0.6387
H15 H 0.3667 -0.2628 0.7477
H16 H 0.3584 -0.1067 0.7081
C22 C 0.3377(3) -0.4004(10) 0.5760(10)
H17 H 0.3502 -0.3806 0.5138
H18 H 0.3171 -0.4431 0.5568
H19 H 0.3497 -0.4660 0.6202
C23 C 0.3036(3) -0.2702(13) 0.7108(9)
H20 H 0.3095 -0.3328 0.7679
H21 H 0.2846 -0.3078 0.6756
H22 H 0.2988 -0.1755 0.7376
N1 N 0.37176(15) 0.1022(7) 0.5013(6)
N2 N 0.28511(16) 0.3817(8) 0.2687(5)
N3 N 0.29562(16) -0.0340(7) 0.4332(5)
H45 H 0.2795 -0.0308 0.3896
O1 O 0.36482(14) -0.0200(7) 0.3480(5)
O2 O 0.28052(15) -0.2588(7) 0.4844(5)
O3 O 0.32434(13) -0.1436(6) 0.5564(4)
Br3 Br 1.02998(3) 0.22396(18) -0.33293(9)
Br4 Br 0.92574(3) 0.00426(16) 0.46324(10)
C24 C 0.9422(2) 0.3369(10) -0.1181(8)
C25 C 0.9450(2) 0.4080(11) -0.2138(9)
H23 H 0.9300 0.4783 -0.2342
C26 C 0.9711(3) 0.3696(13) -0.2775(8)
H24 H 0.9734 0.4140 -0.3427
C27 C 0.9938(2) 0.2672(13) -0.2469(9)
C28 C 0.9910(2) 0.1992(10) -0.1486(7)
H25 H 1.0066 0.1331 -0.1257
C29 C 0.9644(2) 0.2339(9) -0.0874(6)
C30 C 0.95475(19) 0.1773(9) 0.0187(7)
C31 C 0.9212(2) 0.2535(10) 0.0360(8)
C32 C 0.8900(2) 0.4515(9) -0.0509(8)
H26 H 0.8975 0.5486 -0.0397
H27 H 0.8740 0.4271 0.0014
H28 H 0.8803 0.4441 -0.1195
C33 C 0.9782(2) 0.2218(10) 0.1025(7)
C34 C 1.0052(2) 0.3023(10) 0.0932(7)
H29 H 1.0130 0.3390 0.0300
C35 C 1.0007(3) 0.2568(10) 0.2611(8)
C36 C 1.0051(3) 0.2502(12) 0.3725(8)
H30 H 1.0229 0.2953 0.4045
C37 C 0.9822(3) 0.1749(14) 0.4316(9)
H31 H 0.9840 0.1695 0.5043
C38 C 0.9562(2) 0.1069(12) 0.3784(9)
C39 C 0.9515(2) 0.1154(11) 0.2733(8)
H32 H 0.9334 0.0714 0.2421
C40 C 0.9743(2) 0.1916(10) 0.2124(8)
C41 C 1.0504(2) 0.4047(11) 0.2050(9)
H33 H 1.0460 0.4899 0.2456
H34 H 1.0593 0.4320 0.1380
H35 H 1.0660 0.3453 0.2417
C42 C 0.9271(2) -0.0609(13) -0.0243(9)
C43 C 0.8813(3) -0.0231(12) -0.1480(9)
C44 C 0.8755(3) 0.0978(13) -0.2245(10)
H36 H 0.8728 0.1868 -0.1867
H37 H 0.8560 0.0783 -0.2644
H38 H 0.8939 0.1055 -0.2711
C45 C 0.8839(3) -0.1624(12) -0.2030(10)
H39 H 0.8636 -0.1828 -0.2384
H40 H 0.8884 -0.2374 -0.1531
H41 H 0.9014 -0.1577 -0.2535
C46 C 0.8558(3) -0.0224(14) -0.0603(11)
H42 H 0.8543 0.0728 -0.0308
H43 H 0.8622 -0.0895 -0.0065
H44 H 0.8348 -0.0501 -0.0882
N4 N 0.91788(16) 0.3521(8) -0.0435(6)
N5 N 1.01985(18) 0.3239(8) 0.1892(7)
N6 N 0.95150(16) 0.0199(8) 0.0225(5)
H46 H 0.9662 -0.0266 0.0573
O4 O 0.90191(14) 0.2308(7) 0.1058(5)
O5 O 0.92216(18) -0.1842(8) -0.0063(7)
O6 O 0.91259(14) 0.0201(6) -0.0975(5)
loop_
_geom_bond_atom_site_label_1
_geom_bond_atom_site_label_2
_geom_bond_site_symmetry_1
_geom_bond_site_symmetry_2
Br1 C4 1_555 1_555
Br2 C15 1_555 1_555
Br3 C27 1_555 1_555
Br4 C38 1_555 1_555
C1 C2 1_555 1_555
C2 H1 1_555 1_555
C3 C2 1_555 1_555
H2 C3 1_555 1_555
C4 C3 1_555 1_555
C5 C4 1_555 1_555
H3 C5 1_555 1_555
C6 C1 1_555 1_555
C7 C6 1_555 1_555
C8 C7 1_555 1_555
C9 H4 1_555 1_555
H5 C9 1_555 1_555
H6 C9 1_555 1_555
C10 C7 1_555 1_555
C11 C10 1_555 1_555
H7 C11 1_555 1_555
C12 C13 1_555 1_555
C13 H8 1_555 1_555
C14 C13 1_555 1_555
H9 C14 1_555 1_555
C15 C14 1_555 1_555
C16 C15 1_555 1_555
H10 C16 1_555 1_555
C17 C10 1_555 1_555
C18 H11 1_555 1_555
H12 C18 1_555 1_555
H13 C18 1_555 1_555
C19 N3 1_555 1_555
C20 C21 1_555 1_555
C21 H14 1_555 1_555
H15 C21 1_555 1_555
H16 C21 1_555 1_555
C22 C20 1_555 1_555
H17 C22 1_555 1_555
H18 C22 1_555 1_555
H19 C22 1_555 1_555
C23 C20 1_555 1_555
H20 C23 1_555 1_555
H21 C23 1_555 1_555
H22 C23 1_555 1_555
C24 C25 1_555 1_555
C25 H23 1_555 1_555
C26 C25 1_555 1_555
H24 C26 1_555 1_555
C27 C26 1_555 1_555
C28 C27 1_555 1_555
H25 C28 1_555 1_555
C29 C24 1_555 1_555
C30 C29 1_555 1_555
C31 C30 1_555 1_555
C32 H26 1_555 1_555
H27 C32 1_555 1_555
H28 C32 1_555 1_555
C33 C30 1_555 1_555
C34 C33 1_555 1_555
H29 C34 1_555 1_555
C35 C36 1_555 1_555
C36 H30 1_555 1_555
C37 C36 1_555 1_555
H31 C37 1_555 1_555
C38 C37 1_555 1_555
C39 C38 1_555 1_555
H32 C39 1_555 1_555
C40 C33 1_555 1_555
C41 H33 1_555 1_555
H34 C41 1_555 1_555
H35 C41 1_555 1_555
C42 N6 1_555 1_555
C43 C44 1_555 1_555
C44 H36 1_555 1_555
H37 C44 1_555 1_555
H38 C44 1_555 1_555
C45 C43 1_555 1_555
H39 C45 1_555 1_555
H40 C45 1_555 1_555
H41 C45 1_555 1_555
C46 C43 1_555 1_555
H42 C46 1_555 1_555
H43 C46 1_555 1_555
H44 C46 1_555 1_555
N1 C1 1_555 1_555
N2 C11 1_555 1_555
N3 C7 1_555 1_555
H45 N3 1_555 1_555
N4 C24 1_555 1_555
N5 C34 1_555 1_555
N6 C30 1_555 1_555
H46 N6 1_555 1_555
O1 C8 1_555 1_555
O2 C19 1_555 1_555
O3 C19 1_555 1_555
O4 C31 1_555 1_555
O5 C42 1_555 1_555
O6 C42 1_555 1_555
C5 C6 1_555 1_555
C8 N1 1_555 1_555
C9 N1 1_555 1_555
C12 C17 1_555 1_555
C12 N2 1_555 1_555
C16 C17 1_555 1_555
C18 N2 1_555 1_555
C20 O3 1_555 1_555
C28 C29 1_555 1_555
C31 N4 1_555 1_555
C32 N4 1_555 1_555
C35 C40 1_555 1_555
C35 N5 1_555 1_555
C39 C40 1_555 1_555
C41 N5 1_555 1_555
C43 O6 1_555 1_555

#END
