
#######################################################################
#
#                 Cambridge Crystallographic Data Centre
#                                CCDC 
#
#######################################################################
#
# If this CIF has been generated from an entry in the Cambridge 
# Structural Database, then it will include bibliographic, chemical, 
# crystal, experimental, refinement or atomic coordinate data resulting 
# from the CCDC's data processing and validation procedures.
#
#######################################################################

data_NEHKOC
_chemical_formula_moiety         'C17 H17 N1 O5'
_chemical_name_systematic        
'Dimethyl 6-(3-methoxyphenyl)-2-methylpyridine-3,4-dicarboxylate'
_symmetry_cell_setting           triclinic
_symmetry_space_group_name_H-M   'P -1'
_symmetry_Int_Tables_number      2
_space_group_name_Hall           '-P 1'
loop_
_symmetry_equiv_pos_site_id
_symmetry_equiv_pos_as_xyz
1 x,y,z
2 -x,-y,-z
_cell_length_a                   8.158(2)
_cell_length_b                   8.3923(18)
_cell_length_c                   11.774(2)
_cell_angle_alpha                73.710(3)
_cell_angle_beta                 86.066(3)
_cell_angle_gamma                86.367(3)
_cell_volume                     771.095
_cell_formula_units_Z            2
loop_
_atom_site_label
_atom_site_type_symbol
_atom_site_fract_x
_atom_site_fract_y
_atom_site_fract_z
N1 N 0.1760(2) 0.2094(2) 0.04980(16)
O1 O 0.4471(3) 0.7160(2) -0.19828(17)
O2 O 0.4998(2) 0.5337(2) -0.30174(14)
O3 O 0.5756(2) 0.1693(2) -0.20811(14)
O4 O 0.3542(2) 0.2214(2) -0.31665(14)
O5 O -0.1610(2) 0.1854(2) 0.42751(15)
C1 C 0.5825(4) 0.6568(4) -0.3939(2)
H1 H 0.5080 0.7504 -0.4231
H2 H 0.6196 0.6101 -0.4574
H3 H 0.6753 0.6922 -0.3629
C2 C 0.4374(3) 0.5806(3) -0.2091(2)
C3 C 0.3497(3) 0.4441(3) -0.12043(19)
C4 C 0.2700(3) 0.4830(3) -0.02405(19)
H4 H 0.2737 0.5897 -0.0157
C5 C 0.1842(3) 0.3631(3) 0.06068(18)
C6 C 0.0971(3) 0.3974(3) 0.16718(19)
C7 C 0.1010(3) 0.5490(3) 0.1903(2)
H5 H 0.1599 0.6336 0.1388
C8 C 0.0178(3) 0.5754(3) 0.2898(2)
H6 H 0.0206 0.6785 0.3044
C9 C -0.0684(3) 0.4533(3) 0.3674(2)
H7 H -0.1241 0.4726 0.4342
C10 C -0.0721(3) 0.3005(3) 0.34539(19)
C11 C 0.0095(3) 0.2725(3) 0.24544(19)
H8 H 0.0055 0.1696 0.2306
C12 C 0.2528(3) 0.1704(3) -0.04313(19)
C13 C 0.3425(3) 0.2840(3) -0.13078(18)
C14 C 0.4220(3) 0.2255(3) -0.2312(2)
C15 C 0.6611(4) 0.0988(4) -0.2950(3)
H9 H 0.5934 0.0202 -0.3126
H10 H 0.7621 0.0437 -0.2644
H11 H 0.6848 0.1857 -0.3660
C16 C 0.2355(4) -0.0044(3) -0.0489(2)
H12 H 0.2137 -0.0753 0.0296
H13 H 0.3355 -0.0428 -0.0825
H14 H 0.1462 -0.0066 -0.0973
C17 C -0.1803(4) 0.0312(4) 0.4050(3)
H15 H -0.2311 0.0494 0.3310
H16 H -0.2483 -0.0362 0.4677
H17 H -0.0744 -0.0246 0.4012
loop_
_geom_bond_atom_site_label_1
_geom_bond_atom_site_label_2
_geom_bond_site_symmetry_1
_geom_bond_site_symmetry_2
N1 C5 1_555 1_555
O1 C2 1_555 1_555
O2 C1 1_555 1_555
O3 C14 1_555 1_555
O4 C14 1_555 1_555
O5 C10 1_555 1_555
C1 H1 1_555 1_555
H2 C1 1_555 1_555
H3 C1 1_555 1_555
C2 O2 1_555 1_555
C3 C2 1_555 1_555
C4 C3 1_555 1_555
H4 C4 1_555 1_555
C5 C4 1_555 1_555
C6 C5 1_555 1_555
C7 C6 1_555 1_555
H5 C7 1_555 1_555
C8 C7 1_555 1_555
H6 C8 1_555 1_555
C9 C8 1_555 1_555
H7 C9 1_555 1_555
C10 C9 1_555 1_555
C11 C6 1_555 1_555
H8 C11 1_555 1_555
C12 N1 1_555 1_555
C13 C3 1_555 1_555
C14 C13 1_555 1_555
C15 O3 1_555 1_555
H9 C15 1_555 1_555
H10 C15 1_555 1_555
H11 C15 1_555 1_555
C16 C12 1_555 1_555
H12 C16 1_555 1_555
H13 C16 1_555 1_555
H14 C16 1_555 1_555
C17 O5 1_555 1_555
H15 C17 1_555 1_555
H16 C17 1_555 1_555
H17 C17 1_555 1_555
C10 C11 1_555 1_555
C12 C13 1_555 1_555

#END
