
#######################################################################
#
#                 Cambridge Crystallographic Data Centre
#                                CCDC 
#
#######################################################################
#
# If this CIF has been generated from an entry in the Cambridge 
# Structural Database, then it will include bibliographic, chemical, 
# crystal, experimental, refinement or atomic coordinate data resulting 
# from the CCDC's data processing and validation procedures.
#
#######################################################################

data_NEHSEA
_chemical_formula_moiety         'C16 H11 F3 N4 O5'
_chemical_name_systematic        
'Dimethyl 7-oxo-6-phenyl-4-(trifluoromethyl)-6,7-dihydropyrazolo[1,5-d][1,2,4]triazine-2,3-dicarboxylate'
_symmetry_cell_setting           triclinic
_symmetry_space_group_name_H-M   'P -1'
_symmetry_Int_Tables_number      2
_space_group_name_Hall           '-P 1'
loop_
_symmetry_equiv_pos_site_id
_symmetry_equiv_pos_as_xyz
1 x,y,z
2 -x,-y,-z
_cell_length_a                   8.0015(15)
_cell_length_b                   10.451(2)
_cell_length_c                   11.031(2)
_cell_angle_alpha                102.843(2)
_cell_angle_beta                 102.981(2)
_cell_angle_gamma                101.811(2)
_cell_volume                     844.333
_exptl_crystal_colour            yellow
_exptl_crystal_description       block
_cell_formula_units_Z            2
loop_
_atom_site_label
_atom_site_type_symbol
_atom_site_fract_x
_atom_site_fract_y
_atom_site_fract_z
F1 F 0.27429(15) 0.78897(11) 0.63079(10)
F2 F -0.00190(16) 0.73025(15) 0.53374(13)
F3 F 0.1678(2) 0.61535(11) 0.46610(12)
O1 O 0.29186(18) 1.05046(12) 0.18803(11)
O2 O 0.3303(2) 1.35437(14) 0.75094(14)
O3 O 0.4813(2) 1.42973(13) 0.62265(13)
O4 O 0.10463(16) 1.02343(15) 0.73344(12)
O5 O 0.39956(16) 1.10713(14) 0.81475(11)
N1 N 0.19577(18) 0.84454(13) 0.22647(12)
N2 N 0.16731(18) 0.76919(13) 0.30919(13)
N3 N 0.29102(17) 1.04401(13) 0.39348(12)
N4 N 0.34841(18) 1.18012(13) 0.44497(13)
C1 C 0.2617(2) 0.98488(17) 0.25998(15)
C2 C 0.1574(2) 0.76552(17) 0.09296(15)
C3 C 0.0591(3) 0.8047(2) -0.00492(18)
H1 H 0.0160 0.8807 0.0138
C4 C 0.0257(3) 0.7281(3) -0.1319(2)
H2 H -0.0385 0.7539 -0.1994
C5 C 0.0868(4) 0.6148(3) -0.1588(2)
H3 H 0.0639 0.5642 -0.2443
C6 C 0.1813(3) 0.5758(2) -0.0601(2)
H4 H 0.2205 0.4978 -0.0789
C7 C 0.2187(3) 0.6519(2) 0.06714(19)
H5 H 0.2844 0.6265 0.1342
C8 C 0.1921(2) 0.83055(16) 0.42970(15)
C9 C 0.1573(2) 0.73957(17) 0.51421(16)
C10 C 0.2493(2) 0.97538(16) 0.48044(14)
C11 C 0.2814(2) 1.07472(16) 0.59544(14)
C12 C 0.2490(2) 1.06382(16) 0.72084(15)
C13 C 0.3823(3) 1.1213(3) 0.94454(18)
H6 H 0.3212 1.1896 0.9651
H7 H 0.4984 1.1477 1.0053
H8 H 0.3157 1.0359 0.9493
C14 C 0.3431(2) 1.19773(16) 0.56697(15)
C15 C 0.3840(2) 1.33608(17) 0.65735(16)
C16 C 0.5265(4) 1.5679(2) 0.7054(2)
H9 H 0.4199 1.5906 0.7176
H10 H 0.5845 1.6296 0.6654
H11 H 0.6049 1.5750 0.7878
loop_
_geom_bond_atom_site_label_1
_geom_bond_atom_site_label_2
_geom_bond_site_symmetry_1
_geom_bond_site_symmetry_2
F1 C9 1_555 1_555
F2 C9 1_555 1_555
F3 C9 1_555 1_555
O1 C1 1_555 1_555
O2 C15 1_555 1_555
O3 C15 1_555 1_555
O4 C12 1_555 1_555
O5 C12 1_555 1_555
N1 N2 1_555 1_555
N2 C8 1_555 1_555
N3 N4 1_555 1_555
N4 C14 1_555 1_555
C1 N1 1_555 1_555
C2 N1 1_555 1_555
C3 C2 1_555 1_555
H1 C3 1_555 1_555
C4 C3 1_555 1_555
H2 C4 1_555 1_555
C5 C4 1_555 1_555
H3 C5 1_555 1_555
C6 C5 1_555 1_555
H4 C6 1_555 1_555
C7 C2 1_555 1_555
H5 C7 1_555 1_555
C8 C9 1_555 1_555
C10 N3 1_555 1_555
C11 C10 1_555 1_555
C12 C11 1_555 1_555
C13 O5 1_555 1_555
H6 C13 1_555 1_555
H7 C13 1_555 1_555
H8 C13 1_555 1_555
C14 C11 1_555 1_555
C15 C14 1_555 1_555
C16 O3 1_555 1_555
H9 C16 1_555 1_555
H10 C16 1_555 1_555
H11 C16 1_555 1_555
N3 C1 1_555 1_555
C6 C7 1_555 1_555
C8 C10 1_555 1_555

#END
