
#######################################################################
#
#                 Cambridge Crystallographic Data Centre
#                                CCDC 
#
#######################################################################
#
# If this CIF has been generated from an entry in the Cambridge 
# Structural Database, then it will include bibliographic, chemical, 
# crystal, experimental, refinement or atomic coordinate data resulting 
# from the CCDC's data processing and validation procedures.
#
#######################################################################

data_NEHTOL
_chemical_formula_moiety         'C14 H14 Cl1 N1 O5'
_chemical_name_systematic        
4-(1-(3-Chlorophenyl)-2-nitroethyl)-5-ethoxyfuran-3(2H)-one
_symmetry_cell_setting           monoclinic
_symmetry_space_group_name_H-M   'P 21'
_symmetry_Int_Tables_number      4
_space_group_name_Hall           'P 2yb'
loop_
_symmetry_equiv_pos_site_id
_symmetry_equiv_pos_as_xyz
1 x,y,z
2 -x,1/2+y,-z
_cell_length_a                   8.1565(2)
_cell_length_b                   8.2355(2)
_cell_length_c                   11.2969(4)
_cell_angle_alpha                90
_cell_angle_beta                 104.473(3)
_cell_angle_gamma                90
_cell_volume                     734.763
_exptl_crystal_colour            colorless
_exptl_crystal_description       needle
_cell_formula_units_Z            2
loop_
_atom_site_label
_atom_site_type_symbol
_atom_site_fract_x
_atom_site_fract_y
_atom_site_fract_z
Cl1 Cl -0.25459(11) -0.72649(14) -0.37519(10)
O1 O 0.3578(4) -0.7150(5) -0.0423(3)
O2 O 0.3003(4) -0.0127(3) -0.2713(3)
C1 C 0.0061(5) -0.7358(6) -0.4820(3)
H1 H -0.0641 -0.7982 -0.5426
O3 O 0.1385(4) -0.1560(4) -0.1714(3)
N1 N 0.4788(4) -0.6970(4) -0.0861(3)
C2 C 0.0530(5) -0.5899(5) -0.2914(4)
H2 H 0.0125 -0.5546 -0.2258
O4 O 0.5924(5) -0.3013(5) -0.3317(4)
C3 C -0.0492(5) -0.6793(5) -0.3842(4)
C4 C 0.3586(5) -0.2837(5) -0.2370(3)
C5 C 0.2193(4) -0.5525(4) -0.2970(3)
C6 C 0.4793(5) -0.2264(6) -0.2997(4)
C7 C 0.2627(5) -0.1546(5) -0.2246(4)
C8 C 0.5015(5) -0.5336(5) -0.1406(4)
H3 H 0.5625 -0.5472 -0.2035
H4 H 0.5684 -0.4638 -0.0775
O5 O 0.5862(5) -0.7998(5) -0.0860(3)
C9 C 0.2750(5) -0.6067(5) -0.3959(4)
H5 H 0.3844 -0.5823 -0.4010
C10 C 0.0375(6) -0.0093(6) -0.1713(5)
H6 H -0.0347 0.0109 -0.2522
H7 H 0.1105 0.0841 -0.1466
C11 C 0.4423(6) -0.0448(6) -0.3221(5)
H8 H 0.5394 0.0200 -0.2816
H9 H 0.4141 -0.0206 -0.4089
C12 C 0.1694(5) -0.6973(5) -0.4879(3)
H10 H 0.2087 -0.7325 -0.5541
C13 C 0.3314(5) -0.4537(5) -0.1957(3)
H11 H 0.2724 -0.4441 -0.1303
C14 C -0.0647(10) -0.0389(11) -0.0838(8)
H12 H -0.1353 -0.1322 -0.1090
H13 H -0.1345 0.0542 -0.0808
H14 H 0.0085 -0.0580 -0.0042
loop_
_geom_bond_atom_site_label_1
_geom_bond_atom_site_label_2
_geom_bond_site_symmetry_1
_geom_bond_site_symmetry_2
Cl1 C3 1_555 1_555
O1 N1 1_555 1_555
O2 C7 1_555 1_555
C1 H1 1_555 1_555
O3 C7 1_555 1_555
N1 C8 1_555 1_555
C2 H2 1_555 1_555
O4 C6 1_555 1_555
C3 C1 1_555 1_555
C4 C6 1_555 1_555
C5 C2 1_555 1_555
C6 C11 1_555 1_555
C7 C4 1_555 1_555
C8 H3 1_555 1_555
H4 C8 1_555 1_555
O5 N1 1_555 1_555
C9 C5 1_555 1_555
H5 C9 1_555 1_555
C10 O3 1_555 1_555
H6 C10 1_555 1_555
H7 C10 1_555 1_555
C11 O2 1_555 1_555
H8 C11 1_555 1_555
H9 C11 1_555 1_555
C12 C1 1_555 1_555
H10 C12 1_555 1_555
C13 C4 1_555 1_555
H11 C13 1_555 1_555
C14 C10 1_555 1_555
H12 C14 1_555 1_555
H13 C14 1_555 1_555
H14 C14 1_555 1_555
C2 C3 1_555 1_555
C5 C13 1_555 1_555
C8 C13 1_555 1_555
C9 C12 1_555 1_555

#END
