
#######################################################################
#
#                 Cambridge Crystallographic Data Centre
#                                CCDC 
#
#######################################################################
#
# If this CIF has been generated from an entry in the Cambridge 
# Structural Database, then it will include bibliographic, chemical, 
# crystal, experimental, refinement or atomic coordinate data resulting 
# from the CCDC's data processing and validation procedures.
#
#######################################################################

data_NEHYAC
_chemical_formula_moiety         'C29 H42 O10'
_chemical_name_systematic        
'2-((t-Butoxycarbonyl)oxy)-3a-(2,8-dimethoxy-4-oxobicyclo[3.2.1]oct-6-yl)-7-formyl-4-methoxy-7-methyl-3a,4,5,6,7,7a-hexahydro-1H-inden-1-yl acetate'
_symmetry_cell_setting           orthorhombic
_symmetry_space_group_name_H-M   'P 21 21 21'
_symmetry_Int_Tables_number      19
_space_group_name_Hall           'P 2ac 2ab'
loop_
_symmetry_equiv_pos_site_id
_symmetry_equiv_pos_as_xyz
1 x,y,z
2 1/2-x,-y,1/2+z
3 1/2+x,1/2-y,-z
4 -x,1/2+y,1/2-z
_cell_length_a                   7.7425(3)
_cell_length_b                   15.0302(6)
_cell_length_c                   25.5040(18)
_cell_angle_alpha                90
_cell_angle_beta                 90
_cell_angle_gamma                90
_cell_volume                     2967.93
_exptl_crystal_colour            colorless
_exptl_crystal_description       block
_cell_formula_units_Z            4
loop_
_atom_site_label
_atom_site_type_symbol
_atom_site_fract_x
_atom_site_fract_y
_atom_site_fract_z
O1 O 0.7702(3) 0.10185(14) 0.20153(9)
O2 O 1.3174(2) 0.09959(14) 0.25348(8)
O3 O 1.2238(3) 0.21803(15) 0.29975(9)
O4 O 1.2300(3) -0.28011(13) 0.08440(8)
O5 O 1.2312(3) 0.19766(13) 0.16458(8)
O6 O 1.4344(3) -0.09533(17) 0.14089(10)
O7 O 1.3367(3) 0.30316(14) 0.11850(9)
O8 O 1.2361(3) -0.17215(14) -0.01105(8)
C1 C 0.9020(3) -0.1011(2) 0.09021(12)
H1 H 0.7795 -0.1198 0.0910
H2 H 0.9087 -0.0404 0.0753
C2 C 1.1474(4) 0.11759(19) 0.17396(12)
C3 C 1.3030(4) -0.1071(2) 0.11599(13)
C4 C 0.9805(3) -0.1029(2) 0.14656(12)
H3 H 0.9025 -0.1419 0.1677
C5 C 1.1472(3) 0.0894(2) 0.22997(12)
H4 H 1.0573 0.1221 0.2505
C6 C 1.0904(4) -0.2253(2) 0.09951(13)
H5 H 0.9982 -0.2630 0.1156
C7 C 1.0598(4) 0.0631(2) 0.14360(13)
H6 H 1.0457 0.0704 0.1068
O9 O 1.1033(4) 0.0143(2) 0.35994(10)
C8 C 1.3375(4) 0.1682(2) 0.28736(12)
C9 C 1.1484(4) -0.1163(2) 0.02590(12)
H7 H 1.0898 -0.0677 0.0059
C10 C 1.1028(4) -0.0100(2) 0.22522(12)
H8 H 1.2121 -0.0420 0.2163
C11 C 1.2480(5) 0.2287(2) 0.11555(13)
C12 C 0.7298(4) -0.0416(2) 0.23780(13)
H9 H 0.7294 -0.1061 0.2299
H10 H 0.6098 -0.0236 0.2459
C13 C 1.2872(4) -0.0736(2) 0.06081(13)
H11 H 1.4004 -0.0817 0.0434
H12 H 1.2644 -0.0089 0.0623
C14 C 1.1512(4) -0.15602(19) 0.13992(12)
H13 H 1.1850 -0.1854 0.1736
C15 C 0.9843(4) -0.0129(2) 0.17517(12)
C16 C 1.0314(4) -0.0522(2) 0.27647(13)
O10 O 1.1877(5) 0.1944(2) 0.07786(11)
C17 C 1.0101(4) -0.1666(2) 0.05708(13)
H14 H 0.9346 -0.2024 0.0333
C18 C 1.0515(4) -0.1544(2) 0.27583(14)
H15 H 0.9772 -0.1796 0.2485
H16 H 1.0179 -0.1786 0.3100
H17 H 1.1721 -0.1698 0.2686
C19 C 1.1455(5) -0.0236(2) 0.32069(13)
H18 H 1.2648 -0.0371 0.3173
C20 C 0.6806(5) 0.1488(2) 0.16195(16)
H19 H 0.7495 0.1491 0.1297
H20 H 0.6607 0.2102 0.1735
H21 H 0.5694 0.1198 0.1552
C21 C 0.7910(4) 0.0086(2) 0.19011(13)
H22 H 0.7152 -0.0072 0.1598
C22 C 1.1743(4) -0.3547(2) 0.05403(14)
H23 H 1.1275 -0.3339 0.0205
H24 H 1.0846 -0.3872 0.0732
H25 H 1.2727 -0.3943 0.0475
C23 C 1.5198(4) 0.1722(3) 0.30731(14)
H26 H 1.5387 0.1240 0.3325
H27 H 1.5394 0.2296 0.3245
H28 H 1.6002 0.1657 0.2779
C24 C 0.8429(4) -0.0249(2) 0.28574(13)
H29 H 0.7963 -0.0588 0.3159
H30 H 0.8385 0.0391 0.2948
C25 C 1.3793(6) 0.3529(3) 0.07029(14)
C26 C 1.1425(4) -0.1848(3) -0.05818(14)
H31 H 1.2104 -0.2216 -0.0823
H32 H 1.1193 -0.1270 -0.0745
H33 H 1.0329 -0.2147 -0.0504
C27 C 1.4851(7) 0.4290(3) 0.09098(17)
H34 H 1.4259 0.4559 0.1210
H35 H 1.4999 0.4737 0.0634
H36 H 1.5986 0.4070 0.1020
C28 C 1.2100(7) 0.3902(3) 0.0478(2)
H37 H 1.1399 0.3412 0.0340
H38 H 1.2361 0.4322 0.0195
H39 H 1.1459 0.4208 0.0756
C29 C 1.4722(8) 0.2958(4) 0.0324(2)
H40 H 1.5804 0.2749 0.0481
H41 H 1.4979 0.3301 0.0006
H42 H 1.4000 0.2446 0.0232
loop_
_geom_bond_atom_site_label_1
_geom_bond_atom_site_label_2
_geom_bond_site_symmetry_1
_geom_bond_site_symmetry_2
O1 C20 1_555 1_555
O2 C5 1_555 1_555
O3 C8 1_555 1_555
O4 C6 1_555 1_555
O5 C2 1_555 1_555
O6 C3 1_555 1_555
O7 C11 1_555 1_555
O8 C9 1_555 1_555
C1 H1 1_555 1_555
H2 C1 1_555 1_555
C2 C5 1_555 1_555
C3 C13 1_555 1_555
C4 C1 1_555 1_555
H3 C4 1_555 1_555
C5 H4 1_555 1_555
C6 H5 1_555 1_555
C7 C2 1_555 1_555
H6 C7 1_555 1_555
O9 C19 1_555 1_555
C8 O2 1_555 1_555
C9 H7 1_555 1_555
C10 C5 1_555 1_555
H8 C10 1_555 1_555
C11 O5 1_555 1_555
C12 H9 1_555 1_555
H10 C12 1_555 1_555
C13 C9 1_555 1_555
H11 C13 1_555 1_555
H12 C13 1_555 1_555
C14 C3 1_555 1_555
H13 C14 1_555 1_555
C15 C4 1_555 1_555
C16 C10 1_555 1_555
O10 C11 1_555 1_555
C17 C1 1_555 1_555
H14 C17 1_555 1_555
C18 C16 1_555 1_555
H15 C18 1_555 1_555
H16 C18 1_555 1_555
H17 C18 1_555 1_555
C19 C16 1_555 1_555
H18 C19 1_555 1_555
C20 H19 1_555 1_555
H20 C20 1_555 1_555
H21 C20 1_555 1_555
C21 O1 1_555 1_555
H22 C21 1_555 1_555
C22 O4 1_555 1_555
H23 C22 1_555 1_555
H24 C22 1_555 1_555
H25 C22 1_555 1_555
C23 C8 1_555 1_555
H26 C23 1_555 1_555
H27 C23 1_555 1_555
H28 C23 1_555 1_555
C24 C12 1_555 1_555
H29 C24 1_555 1_555
H30 C24 1_555 1_555
C25 O7 1_555 1_555
C26 O8 1_555 1_555
H31 C26 1_555 1_555
H32 C26 1_555 1_555
H33 C26 1_555 1_555
C27 C25 1_555 1_555
H34 C27 1_555 1_555
H35 C27 1_555 1_555
H36 C27 1_555 1_555
C28 C25 1_555 1_555
H37 C28 1_555 1_555
H38 C28 1_555 1_555
H39 C28 1_555 1_555
C29 C25 1_555 1_555
H40 C29 1_555 1_555
H41 C29 1_555 1_555
H42 C29 1_555 1_555
C4 C14 1_555 1_555
C6 C14 1_555 1_555
C6 C17 1_555 1_555
C7 C15 1_555 1_555
C9 C17 1_555 1_555
C10 C15 1_555 1_555
C12 C21 1_555 1_555
C15 C21 1_555 1_555
C16 C24 1_555 1_555

#END
