
#######################################################################
#
#                 Cambridge Crystallographic Data Centre
#                                CCDC 
#
#######################################################################
#
# If this CIF has been generated from an entry in the Cambridge 
# Structural Database, then it will include bibliographic, chemical, 
# crystal, experimental, refinement or atomic coordinate data resulting 
# from the CCDC's data processing and validation procedures.
#
#######################################################################

data_NEHYIK
_chemical_formula_moiety         'C18 H19 N1 O4'
_chemical_name_systematic        
1,1'-(4-Benzoyl-1,2-oxazole-3,5-diyl)bis(2-methylpropan-1-one)
_symmetry_cell_setting           monoclinic
_symmetry_space_group_name_H-M   'P 21/n'
_symmetry_Int_Tables_number      14
_space_group_name_Hall           '-P 2yn'
loop_
_symmetry_equiv_pos_site_id
_symmetry_equiv_pos_as_xyz
1 x,y,z
2 1/2-x,1/2+y,1/2-z
3 -x,-y,-z
4 1/2+x,1/2-y,1/2+z
_cell_length_a                   10.0102(8)
_cell_length_b                   9.6628(8)
_cell_length_c                   17.9008(15)
_cell_angle_alpha                90
_cell_angle_beta                 91.677(2)
_cell_angle_gamma                90
_cell_volume                     1730.74
_exptl_crystal_colour            colorless
_exptl_crystal_description       block
_cell_formula_units_Z            4
loop_
_atom_site_label
_atom_site_type_symbol
_atom_site_fract_x
_atom_site_fract_y
_atom_site_fract_z
C1 C 0.1005(3) 0.6689(3) 0.33373(14)
C2 C 0.1537(3) 0.7973(3) 0.35102(16)
H1 H 0.2118 0.8396 0.3185
C3 C 0.1209(4) 0.8629(4) 0.41638(17)
H2 H 0.1582 0.9485 0.4285
C4 C 0.0327(4) 0.8010(4) 0.46367(18)
H3 H 0.0084 0.8465 0.5070
C5 C -0.0196(4) 0.6733(4) 0.44763(19)
H4 H -0.0780 0.6319 0.4803
C6 C 0.0143(3) 0.6059(4) 0.38305(16)
H5 H -0.0203 0.5185 0.3724
C7 C 0.1322(3) 0.5950(3) 0.26434(15)
C8 C 0.2118(3) 0.6703(3) 0.20605(14)
C9 C 0.1603(3) 0.7371(3) 0.14221(15)
C10 C 0.3469(3) 0.6791(3) 0.19921(14)
C11 C 0.0166(3) 0.7642(3) 0.12209(18)
C12 C -0.0214(4) 0.8193(5) 0.0467(2)
H6 H 0.0393 0.8960 0.0361
C13 C -0.1606(5) 0.8746(5) 0.0419(3)
H7 H -0.2215 0.8053 0.0588
H8 H -0.1831 0.8985 -0.0090
H9 H -0.1667 0.9554 0.0728
C14 C 0.0008(7) 0.7082(8) -0.0110(3)
H10 H 0.0916 0.6765 -0.0069
H11 H -0.0164 0.7454 -0.0600
H12 H -0.0586 0.6322 -0.0026
C15 C 0.4554(3) 0.6310(4) 0.25042(18)
C16 C 0.5983(3) 0.6598(5) 0.2316(2)
H13 H 0.5980 0.7388 0.1972
C17 C 0.6512(6) 0.5417(7) 0.1919(5)
H14 H 0.7292 0.5694 0.1657
H15 H 0.5847 0.5078 0.1567
H16 H 0.6746 0.4699 0.2269
C18 C 0.6755(7) 0.7004(9) 0.2989(4)
H17 H 0.7236 0.6218 0.3184
H18 H 0.6159 0.7341 0.3358
H19 H 0.7376 0.7721 0.2866
N1 N 0.2568(2) 0.7821(3) 0.09968(12)
O1 O 0.0961(3) 0.4786(2) 0.25049(13)
O2 O -0.0632(3) 0.7369(4) 0.16810(16)
O3 O 0.3762(2) 0.7442(2) 0.13550(11)
O4 O 0.4229(2) 0.5695(3) 0.30616(14)
loop_
_geom_bond_atom_site_label_1
_geom_bond_atom_site_label_2
_geom_bond_site_symmetry_1
_geom_bond_site_symmetry_2
C1 C2 1_555 1_555
C2 H1 1_555 1_555
C3 C2 1_555 1_555
H2 C3 1_555 1_555
C4 C3 1_555 1_555
H3 C4 1_555 1_555
C5 C4 1_555 1_555
H4 C5 1_555 1_555
C6 C1 1_555 1_555
H5 C6 1_555 1_555
C7 C1 1_555 1_555
C8 C7 1_555 1_555
C9 C8 1_555 1_555
C10 C8 1_555 1_555
C11 C9 1_555 1_555
C12 C11 1_555 1_555
H6 C12 1_555 1_555
C13 C12 1_555 1_555
H7 C13 1_555 1_555
H8 C13 1_555 1_555
H9 C13 1_555 1_555
C14 C12 1_555 1_555
H10 C14 1_555 1_555
H11 C14 1_555 1_555
H12 C14 1_555 1_555
C15 C10 1_555 1_555
C16 C15 1_555 1_555
H13 C16 1_555 1_555
C17 C16 1_555 1_555
H14 C17 1_555 1_555
H15 C17 1_555 1_555
H16 C17 1_555 1_555
C18 C16 1_555 1_555
H17 C18 1_555 1_555
H18 C18 1_555 1_555
H19 C18 1_555 1_555
N1 C9 1_555 1_555
O1 C7 1_555 1_555
O2 C11 1_555 1_555
O3 C10 1_555 1_555
O4 C15 1_555 1_555
C5 C6 1_555 1_555
N1 O3 1_555 1_555

#END
