
#######################################################################
#
#                 Cambridge Crystallographic Data Centre
#                                CCDC 
#
#######################################################################
#
# If this CIF has been generated from an entry in the Cambridge 
# Structural Database, then it will include bibliographic, chemical, 
# crystal, experimental, refinement or atomic coordinate data resulting 
# from the CCDC's data processing and validation procedures.
#
#######################################################################

data_NEJCIR
_chemical_formula_moiety         'C26 H25 O3 P1'
_chemical_name_systematic        
6-(anthracen-9-yl)-3-t-butyl-4-methoxy-2,3-dihydro-1,3-benzoxaphosphol-3-one
_symmetry_cell_setting           orthorhombic
_symmetry_space_group_name_H-M   'P 21 21 21'
_symmetry_Int_Tables_number      19
_space_group_name_Hall           'P 2ac 2ab'
loop_
_symmetry_equiv_pos_site_id
_symmetry_equiv_pos_as_xyz
1 x,y,z
2 1/2-x,-y,1/2+z
3 -x,1/2+y,1/2-z
4 1/2+x,1/2-y,-z
_cell_length_a                   8.1168(7)
_cell_length_b                   9.4474(9)
_cell_length_c                   29.166(3)
_cell_angle_alpha                90
_cell_angle_beta                 90
_cell_angle_gamma                90
_cell_volume                     2236.53
_exptl_crystal_colour            colorless
_exptl_crystal_description       prismatic
_chemical_melting_point          'decomp. 330 deg.C'
_cell_formula_units_Z            4
loop_
_atom_site_label
_atom_site_type_symbol
_atom_site_fract_x
_atom_site_fract_y
_atom_site_fract_z
P1 P -0.12207(10) 0.75744(8) 0.77391(2)
O1 O 0.1787(3) 0.7097(3) 0.80740(8)
O2 O -0.1682(4) 0.8424(3) 0.73365(8)
O3 O -0.2812(3) 0.9953(3) 0.83794(10)
C1 C 0.0783(4) 0.6725(4) 0.76885(13)
H1 H 0.0645 0.5705 0.7677
H2 H 0.1316 0.7026 0.7407
C2 C 0.1083(4) 0.8115(3) 0.83389(10)
C3 C -0.0532(4) 0.8507(3) 0.82396(10)
C4 C -0.1231(4) 0.9591(3) 0.85000(10)
C5 C -0.0359(4) 1.0226(4) 0.88480(11)
H3 H -0.0853 1.0925 0.9025
C6 C 0.1273(4) 0.9823(3) 0.89368(10)
C7 C 0.1981(4) 0.8753(3) 0.86841(11)
H4 H 0.3054 0.8463 0.8745
C8 C 0.2243(4) 1.0573(4) 0.92992(11)
C9 C 0.2721(4) 1.1995(4) 0.92263(11)
C10 C 0.2367(4) 1.2751(4) 0.88147(11)
H5 H 0.1790 1.2299 0.8581
C11 C 0.2852(5) 1.4120(4) 0.87548(15)
H6 H 0.2608 1.4591 0.8483
C12 C 0.3727(6) 1.4821(5) 0.91067(16)
H7 H 0.4034 1.5762 0.9068
C13 C 0.4121(5) 1.4141(5) 0.94962(15)
H8 H 0.4709 1.4620 0.9722
C14 C 0.3660(4) 1.2704(4) 0.95728(11)
C15 C 0.4088(5) 1.1972(5) 0.99706(12)
H9 H 0.4698 1.2438 1.0195
C16 C 0.3642(5) 1.0589(5) 1.00436(11)
C17 C 0.4080(7) 0.9842(6) 1.04528(13)
H10 H 0.4718 1.0292 1.0674
C18 C 0.3584(7) 0.8503(6) 1.05229(15)
H11 H 0.3876 0.8042 1.0793
C19 C 0.2625(6) 0.7787(6) 1.01921(14)
H12 H 0.2276 0.6866 1.0248
C20 C 0.2211(5) 0.8434(5) 0.97943(13)
H13 H 0.1602 0.7942 0.9576
C21 C 0.2694(4) 0.9860(4) 0.97043(10)
C22 C -0.3601(5) 1.1020(5) 0.86401(17)
H14 H -0.3640 1.0738 0.8956
H15 H -0.4701 1.1157 0.8528
H16 H -0.2995 1.1889 0.8613
C23 C -0.2756(4) 0.6238(4) 0.78828(13)
C24 C -0.3046(7) 0.5357(5) 0.74534(18)
H17 H -0.3926 0.4699 0.7508
H18 H -0.2059 0.4847 0.7378
H19 H -0.3335 0.5969 0.7203
C25 C -0.4306(6) 0.6970(6) 0.8036(3)
H20 H -0.5125 0.6275 0.8112
H21 H -0.4708 0.7562 0.7793
H22 H -0.4075 0.7540 0.8301
C26 C -0.2105(8) 0.5242(5) 0.82580(17)
H23 H -0.1826 0.5784 0.8525
H24 H -0.1143 0.4758 0.8148
H25 H -0.2939 0.4562 0.8335
loop_
_geom_bond_atom_site_label_1
_geom_bond_atom_site_label_2
_geom_bond_site_symmetry_1
_geom_bond_site_symmetry_2
P1 O2 1_555 1_555
O1 C1 1_555 1_555
O3 C4 1_555 1_555
C1 P1 1_555 1_555
H1 C1 1_555 1_555
H2 C1 1_555 1_555
C2 O1 1_555 1_555
C3 P1 1_555 1_555
C4 C3 1_555 1_555
C5 C4 1_555 1_555
H3 C5 1_555 1_555
C6 C5 1_555 1_555
C7 C2 1_555 1_555
H4 C7 1_555 1_555
C8 C6 1_555 1_555
C9 C8 1_555 1_555
C10 C9 1_555 1_555
H5 C10 1_555 1_555
C11 C10 1_555 1_555
H6 C11 1_555 1_555
C12 C11 1_555 1_555
H7 C12 1_555 1_555
C13 C12 1_555 1_555
H8 C13 1_555 1_555
C14 C9 1_555 1_555
C15 C14 1_555 1_555
H9 C15 1_555 1_555
C16 C15 1_555 1_555
C17 C16 1_555 1_555
H10 C17 1_555 1_555
C18 C17 1_555 1_555
H11 C18 1_555 1_555
C19 C18 1_555 1_555
H12 C19 1_555 1_555
C20 C19 1_555 1_555
H13 C20 1_555 1_555
C21 C8 1_555 1_555
C22 O3 1_555 1_555
H14 C22 1_555 1_555
H15 C22 1_555 1_555
H16 C22 1_555 1_555
C23 P1 1_555 1_555
C24 C23 1_555 1_555
H17 C24 1_555 1_555
H18 C24 1_555 1_555
H19 C24 1_555 1_555
C25 C23 1_555 1_555
H20 C25 1_555 1_555
H21 C25 1_555 1_555
H22 C25 1_555 1_555
C26 C23 1_555 1_555
H23 C26 1_555 1_555
H24 C26 1_555 1_555
H25 C26 1_555 1_555
C2 C3 1_555 1_555
C6 C7 1_555 1_555
C13 C14 1_555 1_555
C16 C21 1_555 1_555
C20 C21 1_555 1_555

#END
