
#######################################################################
#
#                 Cambridge Crystallographic Data Centre
#                                CCDC 
#
#######################################################################
#
# If this CIF has been generated from an entry in the Cambridge 
# Structural Database, then it will include bibliographic, chemical, 
# crystal, experimental, refinement or atomic coordinate data resulting 
# from the CCDC's data processing and validation procedures.
#
#######################################################################

data_NEJCOX
_chemical_formula_moiety         'C23 H35 O6 P1'
_chemical_name_systematic        
'3-t-butyl-4-methoxy-3-oxo-2,3-dihydro-1,3-benzoxaphosphol-6-yl 5-methyl-2-isopropylcyclohexyl carbonate'
_symmetry_cell_setting           monoclinic
_symmetry_space_group_name_H-M   'P 21'
_symmetry_Int_Tables_number      4
_space_group_name_Hall           'P 2yb'
loop_
_symmetry_equiv_pos_site_id
_symmetry_equiv_pos_as_xyz
1 x,y,z
2 -x,1/2+y,-z
_cell_length_a                   5.8162(8)
_cell_length_b                   14.731(2)
_cell_length_c                   14.1976(19)
_cell_angle_alpha                90
_cell_angle_beta                 95.494(3)
_cell_angle_gamma                90
_cell_volume                     1210.84
_exptl_crystal_colour            colorless
_exptl_crystal_description       prismatic
_chemical_melting_point          '185-187 deg.C'
_cell_formula_units_Z            2
loop_
_atom_site_label
_atom_site_type_symbol
_atom_site_fract_x
_atom_site_fract_y
_atom_site_fract_z
P1 P 1.1551(2) -0.04656(9) 0.53464(9)
O1 O 0.8928(8) -0.0679(3) 0.6771(3)
O2 O 1.3711(7) -0.0958(3) 0.5246(3)
O3 O 1.4222(8) 0.1381(3) 0.5735(3)
O4 O 0.702(3) 0.1780(11) 0.8657(12)
O5 O 1.0934(7) 0.1968(3) 0.8612(3)
O6 O 0.9215(6) 0.2677(3) 0.9651(3)
C1 C 0.9343(10) -0.1105(4) 0.5907(4)
H1 H 0.7926 -0.1125 0.5488
H2 H 0.9865 -0.1723 0.6028
C2 C 1.0092(10) 0.0119(4) 0.6907(4)
C3 C 1.1548(9) 0.0385(3) 0.6249(4)
C4 C 1.2816(9) 0.1180(4) 0.6408(4)
C5 C 1.2535(10) 0.1699(4) 0.7188(4)
H3 H 1.3368 0.2234 0.7294
C6 C 1.1008(10) 0.1423(4) 0.7814(4)
C7 C 0.9777(11) 0.0635(4) 0.7701(4)
H4 H 0.8773 0.0452 0.8137
C8 C 0.8884(12) 0.2212(5) 0.8875(5)
C9 C 0.7158(10) 0.2990(4) 1.0083(4)
H5 H 0.5762 0.2833 0.9673
C10 C 0.7327(11) 0.4013(4) 1.0194(4)
H6 H 0.8764 0.4142 1.0590
C11 C 0.5338(13) 0.4326(4) 1.0743(5)
H7 H 0.5468 0.4974 1.0855
H8 H 0.3885 0.4214 1.0366
C12 C 0.5339(13) 0.3837(4) 1.1681(5)
H9 H 0.6749 0.3982 1.2073
H10 H 0.4046 0.4049 1.2005
C13 C 0.5168(12) 0.2831(4) 1.1553(4)
H11 H 0.3714 0.2695 1.1172
C14 C 0.7147(11) 0.2512(4) 1.1013(5)
H12 H 0.8599 0.2623 1.1391
H13 H 0.7009 0.1863 1.0905
C15 C 0.5160(17) 0.2338(6) 1.2501(6)
H14 H 0.6587 0.2453 1.2879
H15 H 0.4994 0.1697 1.2391
H16 H 0.3894 0.2553 1.2826
C16 C 0.7457(12) 0.4519(5) 0.9245(4)
H17 H 0.8622 0.4206 0.8910
C17 C 0.5211(14) 0.4493(7) 0.8600(5)
H18 H 0.4695 0.3876 0.8522
H19 H 0.5463 0.4743 0.7994
H20 H 0.4057 0.4844 0.8877
C18 C 0.8306(18) 0.5486(6) 0.9414(6)
H21 H 0.8484 0.5772 0.8818
H22 H 0.9766 0.5478 0.9792
H23 H 0.7203 0.5819 0.9739
C19 C 1.5605(13) 0.2181(4) 0.5864(5)
H24 H 1.4628 0.2695 0.5948
H25 H 1.6427 0.2275 0.5317
H26 H 1.6687 0.2112 0.6413
C20 C 1.0214(9) -0.0040(4) 0.4222(4)
C21 C 0.9395(17) -0.0857(6) 0.3623(6)
H27 H 0.8664 -0.0652 0.3026
H28 H 0.8312 -0.1201 0.3948
H29 H 1.0696 -0.1233 0.3519
C22 C 1.1946(13) 0.0493(7) 0.3725(5)
H30 H 1.3200 0.0103 0.3595
H31 H 1.2528 0.0986 0.4121
H32 H 1.1215 0.0730 0.3141
C23 C 0.8195(13) 0.0569(6) 0.4369(5)
H33 H 0.7598 0.0826 0.3774
H34 H 0.8695 0.1048 0.4800
H35 H 0.7009 0.0222 0.4628
O7? O 0.730(3) 0.2301(10) 0.8305(10)
loop_
_geom_bond_atom_site_label_1
_geom_bond_atom_site_label_2
_geom_bond_site_symmetry_1
_geom_bond_site_symmetry_2
P1 O2 1_555 1_555
O1 C1 1_555 1_555
O3 C4 1_555 1_555
O4 C8 1_555 1_555
O5 C6 1_555 1_555
O6 C8 1_555 1_555
C1 P1 1_555 1_555
H1 C1 1_555 1_555
H2 C1 1_555 1_555
C2 O1 1_555 1_555
C3 P1 1_555 1_555
C4 C3 1_555 1_555
C5 C4 1_555 1_555
H3 C5 1_555 1_555
C6 C5 1_555 1_555
C7 C2 1_555 1_555
H4 C7 1_555 1_555
C8 O5 1_555 1_555
C9 O6 1_555 1_555
H5 C9 1_555 1_555
C10 C9 1_555 1_555
H6 C10 1_555 1_555
C11 C10 1_555 1_555
H7 C11 1_555 1_555
H8 C11 1_555 1_555
C12 C11 1_555 1_555
H9 C12 1_555 1_555
H10 C12 1_555 1_555
C13 C12 1_555 1_555
H11 C13 1_555 1_555
C14 C9 1_555 1_555
H12 C14 1_555 1_555
H13 C14 1_555 1_555
C15 C13 1_555 1_555
H14 C15 1_555 1_555
H15 C15 1_555 1_555
H16 C15 1_555 1_555
C16 C10 1_555 1_555
H17 C16 1_555 1_555
C17 C16 1_555 1_555
H18 C17 1_555 1_555
H19 C17 1_555 1_555
H20 C17 1_555 1_555
C18 C16 1_555 1_555
H21 C18 1_555 1_555
H22 C18 1_555 1_555
H23 C18 1_555 1_555
C19 O3 1_555 1_555
H24 C19 1_555 1_555
H25 C19 1_555 1_555
H26 C19 1_555 1_555
C20 P1 1_555 1_555
C21 C20 1_555 1_555
H27 C21 1_555 1_555
H28 C21 1_555 1_555
H29 C21 1_555 1_555
C22 C20 1_555 1_555
H30 C22 1_555 1_555
H31 C22 1_555 1_555
H32 C22 1_555 1_555
C23 C20 1_555 1_555
H33 C23 1_555 1_555
H34 C23 1_555 1_555
H35 C23 1_555 1_555
C2 C3 1_555 1_555
C6 C7 1_555 1_555
C13 C14 1_555 1_555

#END
