
#######################################################################
#
#                 Cambridge Crystallographic Data Centre
#                                CCDC 
#
#######################################################################
#
# If this CIF has been generated from an entry in the Cambridge 
# Structural Database, then it will include bibliographic, chemical, 
# crystal, experimental, refinement or atomic coordinate data resulting 
# from the CCDC's data processing and validation procedures.
#
#######################################################################

data_NEJDEO
_chemical_formula_moiety         'C16 H14 N2 O3'
_chemical_name_systematic        
4-[4-(4-methoxyphenyl)-1H-pyrazol-5-yl]benzene-1,3-diol
_symmetry_cell_setting           monoclinic
_symmetry_space_group_name_H-M   'P 21/c'
_symmetry_Int_Tables_number      14
_space_group_name_Hall           '-P 2ybc'
loop_
_symmetry_equiv_pos_site_id
_symmetry_equiv_pos_as_xyz
1 x,y,z
2 -x,1/2+y,1/2-z
3 -x,-y,-z
4 x,1/2-y,1/2+z
_cell_length_a                   14.6062(16)
_cell_length_b                   7.0612(8)
_cell_length_c                   13.7484(15)
_cell_angle_alpha                90
_cell_angle_beta                 110.890(2)
_cell_angle_gamma                90
_cell_volume                     1324.76
_exptl_crystal_colour            colorless
_exptl_crystal_description       block
_chemical_melting_point          '484 K'
_cell_formula_units_Z            4
loop_
_atom_site_label
_atom_site_type_symbol
_atom_site_fract_x
_atom_site_fract_y
_atom_site_fract_z
N1 N 0.14908(8) 0.34961(16) 0.96662(8)
H1 H 0.0929 0.3978 0.9593
N2 N 0.19056(8) 0.20831(17) 1.03363(9)
O1 O 0.05164(7) 1.00366(14) 0.62660(7)
O2 O 0.13492(7) 0.35239(12) 0.69473(7)
O3 O 0.64258(7) 0.31160(17) 0.86467(8)
C1 C 0.16193(9) 0.74824(19) 0.87230(10)
H2 H 0.1844 0.7711 0.9436
C2 C 0.12377(10) 0.89616(19) 0.80481(10)
H3 H 0.1203 1.0171 0.8301
C3 C 0.09062(9) 0.86194(18) 0.69844(10)
C4 C 0.09480(9) 0.68191(18) 0.66043(10)
H4 H 0.0724 0.6606 0.5890
C5 C 0.13257(9) 0.53314(17) 0.72921(9)
C6 C 0.16790(9) 0.56499(18) 0.83702(9)
C7 C 0.20471(9) 0.40803(18) 0.91196(9)
C8 C 0.28920(9) 0.29820(18) 0.94613(9)
C9 C 0.27549(10) 0.17774(19) 1.02108(10)
H5 H 0.3207 0.0869 1.0578
C10 C 0.37866(9) 0.30821(18) 0.91938(10)
C11 C 0.46665(10) 0.2398(2) 0.99022(11)
H6 H 0.4673 0.1896 1.0530
C12 C 0.55237(10) 0.2440(2) 0.97058(12)
H7 H 0.6097 0.1966 1.0196
C13 C 0.55371(10) 0.3186(2) 0.87801(12)
C14 C 0.46847(10) 0.3923(2) 0.80741(11)
H8 H 0.4687 0.4464 0.7458
C15 C 0.38225(10) 0.3857(2) 0.82822(11)
H9 H 0.3252 0.4347 0.7795
C16 C 0.65186(12) 0.4053(3) 0.77865(15)
H10 H 0.6082 0.3490 0.7156
H11 H 0.7181 0.3944 0.7810
H12 H 0.6356 0.5367 0.7806
H13 H 0.0639(13) 1.120(3) 0.6586(13)
H14 H 0.1466(14) 0.355(2) 0.6356(12)
loop_
_geom_bond_atom_site_label_1
_geom_bond_atom_site_label_2
_geom_bond_site_symmetry_1
_geom_bond_site_symmetry_2
N1 H1 1_555 1_555
N2 N1 1_555 1_555
O1 C3 1_555 1_555
O2 C5 1_555 1_555
O3 C13 1_555 1_555
C1 H2 1_555 1_555
C2 C1 1_555 1_555
H3 C2 1_555 1_555
C3 C2 1_555 1_555
C4 C3 1_555 1_555
H4 C4 1_555 1_555
C5 C4 1_555 1_555
C6 C1 1_555 1_555
C7 N1 1_555 1_555
C8 C7 1_555 1_555
C9 N2 1_555 1_555
H5 C9 1_555 1_555
C10 C8 1_555 1_555
C11 C10 1_555 1_555
H6 C11 1_555 1_555
C12 C11 1_555 1_555
H7 C12 1_555 1_555
C13 C12 1_555 1_555
C14 C13 1_555 1_555
H8 C14 1_555 1_555
C15 C10 1_555 1_555
H9 C15 1_555 1_555
C16 O3 1_555 1_555
H10 C16 1_555 1_555
H11 C16 1_555 1_555
H12 C16 1_555 1_555
H13 O1 1_555 1_555
H14 O2 1_555 1_555
C5 C6 1_555 1_555
C6 C7 1_555 1_555
C8 C9 1_555 1_555
C14 C15 1_555 1_555

#END
