
#######################################################################
#
#                 Cambridge Crystallographic Data Centre
#                                CCDC 
#
#######################################################################
#
# If this CIF has been generated from an entry in the Cambridge 
# Structural Database, then it will include bibliographic, chemical, 
# crystal, experimental, refinement or atomic coordinate data resulting 
# from the CCDC's data processing and validation procedures.
#
#######################################################################

data_NEJGUH
_chemical_formula_moiety         'C27 H23 N1 Si1'
_chemical_name_systematic        1-methyl-3-(triphenylsilyl)-1H-indole
_symmetry_cell_setting           monoclinic
_symmetry_space_group_name_H-M   'P 21/n'
_symmetry_Int_Tables_number      14
_space_group_name_Hall           '-P 2yn'
loop_
_symmetry_equiv_pos_site_id
_symmetry_equiv_pos_as_xyz
1 x,y,z
2 1/2-x,1/2+y,1/2-z
3 -x,-y,-z
4 1/2+x,1/2-y,1/2+z
_cell_length_a                   9.845(2)
_cell_length_b                   17.109(4)
_cell_length_c                   12.769(3)
_cell_angle_alpha                90
_cell_angle_beta                 98.083(5)
_cell_angle_gamma                90
_cell_volume                     2129.42
_exptl_crystal_colour            colorless
_exptl_crystal_description       block
_cell_formula_units_Z            4
loop_
_atom_site_label
_atom_site_type_symbol
_atom_site_fract_x
_atom_site_fract_y
_atom_site_fract_z
C1 C 0.6031(2) 0.35775(14) 0.16547(19)
H1 H 0.6301 0.3402 0.2368
H2 H 0.6100 0.4137 0.1628
H3 H 0.6622 0.3349 0.1202
C2 C 0.38256(19) 0.28829(11) 0.18512(16)
H4 H 0.4122 0.2673 0.2516
C3 C 0.25360(19) 0.27710(10) 0.12982(15)
C4 C 0.1595(2) 0.32852(11) -0.05995(16)
H5 H 0.0729 0.3059 -0.0648
C5 C 0.1963(2) 0.37192(11) -0.14289(16)
H6 H 0.1340 0.3775 -0.2043
C6 C 0.3254(2) 0.40773(11) -0.13646(17)
H7 H 0.3462 0.4374 -0.1931
C7 C 0.4222(2) 0.39976(11) -0.04774(16)
H8 H 0.5078 0.4235 -0.0432
C8 C 0.25513(19) 0.31909(10) 0.03182(15)
C9 C 0.38582(19) 0.35444(10) 0.03488(15)
C10 C -0.01598(19) 0.18144(11) 0.08694(15)
C11 C 0.0241(2) 0.14314(12) -0.00008(17)
H9 H 0.1146 0.1470 -0.0128
C12 C -0.0693(3) 0.09915(13) -0.06856(18)
H10 H -0.0409 0.0744 -0.1266
C13 C -0.2035(2) 0.09230(13) -0.05017(19)
H11 H -0.2653 0.0624 -0.0952
C14 C -0.2460(2) 0.13004(13) 0.03535(19)
H12 H -0.3366 0.1259 0.0476
C15 C -0.1529(2) 0.17433(12) 0.10313(16)
H13 H -0.1825 0.1997 0.1603
C16 C 0.18328(18) 0.15488(10) 0.28594(15)
C17 C 0.16774(19) 0.07506(11) 0.26180(16)
H14 H 0.1196 0.0601 0.1970
C18 C 0.2228(2) 0.01786(11) 0.33284(17)
H15 H 0.2104 -0.0347 0.3157
C19 C 0.2960(2) 0.03929(12) 0.42901(17)
H16 H 0.3337 0.0012 0.4764
C20 C 0.31286(19) 0.11751(12) 0.45447(16)
H17 H 0.3620 0.1319 0.5192
C21 C 0.25691(19) 0.17506(11) 0.38397(15)
H18 H 0.2687 0.2275 0.4023
C22 C 0.02222(18) 0.30856(11) 0.25867(15)
C23 C 0.0148(2) 0.38577(11) 0.22161(17)
H19 H 0.0533 0.3984 0.1613
C24 C -0.0490(2) 0.44373(13) 0.2731(2)
H20 H -0.0531 0.4945 0.2469
C25 C -0.1062(2) 0.42631(13) 0.3629(2)
H21 H -0.1484 0.4654 0.3974
C26 C -0.1007(2) 0.35035(13) 0.40167(19)
H22 H -0.1389 0.3383 0.4623
C27 C -0.03760(19) 0.29239(11) 0.34930(16)
H23 H -0.0351 0.2415 0.3752
N1 N 0.46188(16) 0.33426(10) 0.13007(13)
Si1 Si 0.11115(5) 0.23120(3) 0.18843(4)
loop_
_geom_bond_atom_site_label_1
_geom_bond_atom_site_label_2
_geom_bond_site_symmetry_1
_geom_bond_site_symmetry_2
C1 H1 1_555 1_555
H2 C1 1_555 1_555
H3 C1 1_555 1_555
C2 H4 1_555 1_555
C3 C2 1_555 1_555
C4 H5 1_555 1_555
C5 C4 1_555 1_555
H6 C5 1_555 1_555
C6 C5 1_555 1_555
H7 C6 1_555 1_555
C7 C6 1_555 1_555
H8 C7 1_555 1_555
C8 C3 1_555 1_555
C9 C7 1_555 1_555
C10 C11 1_555 1_555
C11 H9 1_555 1_555
C12 C11 1_555 1_555
H10 C12 1_555 1_555
C13 C12 1_555 1_555
H11 C13 1_555 1_555
C14 C13 1_555 1_555
H12 C14 1_555 1_555
C15 C10 1_555 1_555
H13 C15 1_555 1_555
C16 C17 1_555 1_555
C17 H14 1_555 1_555
C18 C17 1_555 1_555
H15 C18 1_555 1_555
C19 C18 1_555 1_555
H16 C19 1_555 1_555
C20 C19 1_555 1_555
H17 C20 1_555 1_555
C21 C16 1_555 1_555
H18 C21 1_555 1_555
C22 C23 1_555 1_555
C23 H19 1_555 1_555
C24 C23 1_555 1_555
H20 C24 1_555 1_555
C25 C24 1_555 1_555
H21 C25 1_555 1_555
C26 C25 1_555 1_555
H22 C26 1_555 1_555
C27 C22 1_555 1_555
H23 C27 1_555 1_555
N1 C1 1_555 1_555
Si1 C3 1_555 1_555
C2 N1 1_555 1_555
C4 C8 1_555 1_555
C8 C9 1_555 1_555
C9 N1 1_555 1_555
C10 Si1 1_555 1_555
C14 C15 1_555 1_555
C16 Si1 1_555 1_555
C20 C21 1_555 1_555
C22 Si1 1_555 1_555
C26 C27 1_555 1_555

#END
