
#######################################################################
#
#                 Cambridge Crystallographic Data Centre
#                                CCDC 
#
#######################################################################
#
# If this CIF has been generated from an entry in the Cambridge 
# Structural Database, then it will include bibliographic, chemical, 
# crystal, experimental, refinement or atomic coordinate data resulting 
# from the CCDC's data processing and validation procedures.
#
#######################################################################

data_NEJJIX
_chemical_formula_moiety         'C19 H16 N2 O5'
_chemical_name_systematic        
2-(4-(4-Methoxyphenyl)-7-methyl-5-oxo-3,4-dihydro-2H,5H-pyrano[3,4-e][1,3]oxazin-2-ylidene)-3-oxobutanenitrile
_symmetry_cell_setting           triclinic
_symmetry_space_group_name_H-M   'P -1'
_symmetry_Int_Tables_number      2
_space_group_name_Hall           '-P 1'
loop_
_symmetry_equiv_pos_site_id
_symmetry_equiv_pos_as_xyz
1 x,y,z
2 -x,-y,-z
_cell_length_a                   7.1256(9)
_cell_length_b                   10.1071(13)
_cell_length_c                   23.529(3)
_cell_angle_alpha                97.463(9)
_cell_angle_beta                 96.981(9)
_cell_angle_gamma                94.345(9)
_cell_volume                     1660.5
_exptl_crystal_colour            yellow
_exptl_crystal_description       block
_cell_formula_units_Z            4
loop_
_atom_site_label
_atom_site_type_symbol
_atom_site_fract_x
_atom_site_fract_y
_atom_site_fract_z
O1 O 0.2771(2) 0.37577(14) 0.08779(6)
O2 O 0.0000(2) 0.01092(14) 0.09634(6)
O3 O 0.2292(2) -0.03749(16) 0.16081(8)
O4 O 0.5186(3) 0.38816(16) 0.40215(7)
O5 O 0.8615(2) 0.47481(17) 0.12603(7)
N1 N 0.5583(2) 0.31371(18) 0.13323(8)
H1 H 0.6802 0.3202 0.1359
N2 N 0.3457(3) 0.6663(2) 0.03369(10)
C1 C 0.4661(3) 0.2087(2) 0.16117(9)
H3 H 0.5388 0.1302 0.1576
C2 C 0.4678(3) 0.3983(2) 0.10455(9)
C3 C 0.1873(3) 0.2529(2) 0.09356(9)
C4 C 0.2718(3) 0.1711(2) 0.12733(9)
C5 C 0.1735(3) 0.0436(2) 0.13110(10)
C6 C -0.0826(3) 0.0997(2) 0.06389(9)
C7 C 0.0053(3) 0.2193(2) 0.06131(9)
H4 H -0.0511 0.2789 0.0390
C8 C -0.2730(3) 0.0428(2) 0.03350(11)
H5 H -0.3271 0.1069 0.0112
H6 H -0.3544 0.0225 0.0615
H7 H -0.2599 -0.0377 0.0083
C9 C 0.4640(3) 0.2566(2) 0.22528(9)
C10 C 0.5064(3) 0.1713(2) 0.26616(9)
H8 H 0.5255 0.0826 0.2540
C11 C 0.5202(3) 0.2175(2) 0.32468(9)
H9 H 0.5468 0.1593 0.3515
C12 C 0.4946(3) 0.3500(2) 0.34372(9)
C13 C 0.4448(3) 0.4350(2) 0.30336(10)
H10 H 0.4210 0.5227 0.3155
C14 C 0.4313(3) 0.3871(2) 0.24486(10)
H11 H 0.3993 0.4442 0.2180
C15 C 0.5343(5) 0.5284(3) 0.42175(12)
H12 H 0.5723 0.5442 0.4628
H13 H 0.4138 0.5627 0.4129
H14 H 0.6276 0.5729 0.4028
C16 C 0.5541(3) 0.5136(2) 0.08798(9)
C17 C 0.4368(3) 0.5961(2) 0.05742(10)
C18 C 0.7584(3) 0.5440(2) 0.09863(10)
C19 C 0.8420(4) 0.6613(3) 0.07396(11)
H15 H 0.9775 0.6605 0.0774
H16 H 0.8106 0.7430 0.0948
H17 H 0.7912 0.6555 0.0339
O6 O 1.1076(2) 0.18241(15) 0.40026(7)
O7 O 0.9295(2) 0.36555(15) 0.26141(7)
O8 O 0.9110(2) 0.17815(16) 0.19988(7)
O9 O 0.3149(2) -0.28103(16) 0.25165(7)
O10 O 1.2433(2) -0.21104(17) 0.40278(7)
N3 N 1.1494(2) -0.01450(18) 0.34261(8)
H2 H 1.2134 -0.0833 0.3395
N4 N 1.2364(4) 0.1704(2) 0.54114(10)
C20 C 1.0389(3) 0.0158(2) 0.28959(9)
H18 H 1.1102 -0.0043 0.2569
C21 C 1.1584(3) 0.0551(2) 0.39431(10)
C22 C 1.0462(3) 0.2372(2) 0.35117(9)
C23 C 1.0145(3) 0.1635(2) 0.29845(9)
C24 C 0.9504(3) 0.2295(2) 0.24977(10)
C25 C 0.9616(3) 0.4357(2) 0.31587(10)
C26 C 1.0186(3) 0.3754(2) 0.36147(11)
H19 H 1.0393 0.4225 0.3987
C27 C 0.9307(4) 0.5791(2) 0.31583(12)
H20 H 0.9228 0.6198 0.3546
H21 H 0.8145 0.5864 0.2916
H22 H 1.0347 0.6239 0.3013
C28 C 0.8496(3) -0.0699(2) 0.27803(9)
C29 C 0.7668(3) -0.1190(2) 0.22162(9)
H23 H 0.8320 -0.1040 0.1908
C30 C 0.5887(3) -0.1898(2) 0.21086(10)
H24 H 0.5349 -0.2212 0.1730
C31 C 0.4906(3) -0.2139(2) 0.25666(10)
C32 C 0.5750(3) -0.1692(2) 0.31310(9)
H25 H 0.5123 -0.1876 0.3440
C33 C 0.7508(3) -0.0978(2) 0.32329(9)
H26 H 0.8049 -0.0676 0.3612
C34 C 0.2179(4) -0.3283(2) 0.19477(11)
H27 H 0.1032 -0.3818 0.1976
H28 H 0.2984 -0.3815 0.1732
H29 H 0.1874 -0.2532 0.1754
C35 C 1.2170(3) 0.0082(2) 0.44635(10)
C36 C 1.2262(3) 0.0988(3) 0.49878(11)
C37 C 1.2475(3) -0.1314(3) 0.44803(11)
C38 C 1.2799(4) -0.1793(3) 0.50601(11)
H30 H 1.3419 -0.2605 0.5024
H31 H 1.1601 -0.1961 0.5198
H32 H 1.3583 -0.1119 0.5329
loop_
_geom_bond_atom_site_label_1
_geom_bond_atom_site_label_2
_geom_bond_site_symmetry_1
_geom_bond_site_symmetry_2
O1 C2 1_555 1_555
O2 C5 1_555 1_555
O3 C5 1_555 1_555
O4 C12 1_555 1_555
O5 C18 1_555 1_555
O6 C21 1_555 1_555
O7 C24 1_555 1_555
O8 C24 1_555 1_555
O9 C31 1_555 1_555
O10 C37 1_555 1_555
N1 H1 1_555 1_555
N2 C17 1_555 1_555
N3 H2 1_555 1_555
N4 C36 1_555 1_555
C1 N1 1_555 1_555
H3 C1 1_555 1_555
C2 N1 1_555 1_555
C3 O1 1_555 1_555
C4 C1 1_555 1_555
C5 C4 1_555 1_555
C6 O2 1_555 1_555
C7 C3 1_555 1_555
H4 C7 1_555 1_555
C8 C6 1_555 1_555
H5 C8 1_555 1_555
H6 C8 1_555 1_555
H7 C8 1_555 1_555
C9 C1 1_555 1_555
C10 C9 1_555 1_555
H8 C10 1_555 1_555
C11 C10 1_555 1_555
H9 C11 1_555 1_555
C12 C11 1_555 1_555
C13 C12 1_555 1_555
H10 C13 1_555 1_555
C14 C9 1_555 1_555
H11 C14 1_555 1_555
C15 O4 1_555 1_555
H12 C15 1_555 1_555
H13 C15 1_555 1_555
H14 C15 1_555 1_555
C16 C2 1_555 1_555
C17 C16 1_555 1_555
C18 C16 1_555 1_555
C19 C18 1_555 1_555
H15 C19 1_555 1_555
H16 C19 1_555 1_555
H17 C19 1_555 1_555
C20 N3 1_555 1_555
H18 C20 1_555 1_555
C21 N3 1_555 1_555
C22 O6 1_555 1_555
C23 C20 1_555 1_555
C24 C23 1_555 1_555
C25 O7 1_555 1_555
C26 C22 1_555 1_555
H19 C26 1_555 1_555
C27 C25 1_555 1_555
H20 C27 1_555 1_555
H21 C27 1_555 1_555
H22 C27 1_555 1_555
C28 C20 1_555 1_555
C29 C28 1_555 1_555
H23 C29 1_555 1_555
C30 C29 1_555 1_555
H24 C30 1_555 1_555
C31 C30 1_555 1_555
C32 C31 1_555 1_555
H25 C32 1_555 1_555
C33 C28 1_555 1_555
H26 C33 1_555 1_555
C34 O9 1_555 1_555
H27 C34 1_555 1_555
H28 C34 1_555 1_555
H29 C34 1_555 1_555
C35 C21 1_555 1_555
C36 C35 1_555 1_555
C37 C35 1_555 1_555
C38 C37 1_555 1_555
H30 C38 1_555 1_555
H31 C38 1_555 1_555
H32 C38 1_555 1_555
C3 C4 1_555 1_555
C6 C7 1_555 1_555
C13 C14 1_555 1_555
C22 C23 1_555 1_555
C25 C26 1_555 1_555
C32 C33 1_555 1_555

#END
