
#######################################################################
#
#                 Cambridge Crystallographic Data Centre
#                                CCDC 
#
#######################################################################
#
# If this CIF has been generated from an entry in the Cambridge 
# Structural Database, then it will include bibliographic, chemical, 
# crystal, experimental, refinement or atomic coordinate data resulting 
# from the CCDC's data processing and validation procedures.
#
#######################################################################

data_NEJPEZ
_chemical_formula_moiety         'C30 H45 O4 P1'
_chemical_name_systematic        
'3,5-Di-t-butyl-4-hydroxyphenyl 2-isopropyl-5-methylcyclohexyl phenylphosphonate'
_symmetry_cell_setting           monoclinic
_symmetry_space_group_name_H-M   'P 21'
_symmetry_Int_Tables_number      4
_space_group_name_Hall           'P 2yb'
loop_
_symmetry_equiv_pos_site_id
_symmetry_equiv_pos_as_xyz
1 x,y,z
2 -x,1/2+y,-z
_cell_length_a                   11.4217(12)
_cell_length_b                   18.0756(19)
_cell_length_c                   14.3924(15)
_cell_angle_alpha                90
_cell_angle_beta                 92.3060(10)
_cell_angle_gamma                90
_cell_volume                     2968.96
_exptl_crystal_colour            colorless
_exptl_crystal_description       rectangular
_cell_formula_units_Z            4
loop_
_atom_site_label
_atom_site_type_symbol
_atom_site_fract_x
_atom_site_fract_y
_atom_site_fract_z
C1 C 1.03882(14) 1.03106(8) -0.03668(11)
H1 H 0.9716 1.0542 -0.0726
C2 C 1.04964(15) 1.06600(8) 0.05955(11)
H2 H 1.1177 1.0420 0.0934
C3 C 1.08152(17) 1.14811(9) 0.04625(13)
H3 H 1.0168 1.1733 0.0111
H4 H 1.0912 1.1723 0.1078
C4 C 1.19364(17) 1.15631(10) -0.00554(14)
H5 H 1.2590 1.1334 0.0314
H6 H 1.2116 1.2095 -0.0126
C5 C 1.18469(15) 1.12025(9) -0.10140(13)
H7 H 1.1219 1.1462 -0.1392
C6 C 1.14869(15) 1.03888(9) -0.09122(12)
H8 H 1.1350 1.0169 -0.1537
H9 H 1.2134 1.0112 -0.0592
C7 C 0.94139(17) 1.05373(10) 0.11827(12)
H10 H 0.9319 0.9990 0.1253
C8 C 0.82769(18) 1.08277(14) 0.07419(16)
H11 H 0.7624 1.0689 0.1127
H12 H 0.8156 1.0614 0.0119
H13 H 0.8316 1.1368 0.0694
C9 C 0.9605(2) 1.08564(13) 0.21634(13)
H14 H 0.9631 1.1398 0.2129
H15 H 1.0348 1.0671 0.2439
H16 H 0.8960 1.0704 0.2549
C10 C 1.29934(19) 1.12781(13) -0.15124(16)
H17 H 1.3176 1.1803 -0.1593
H18 H 1.2915 1.1039 -0.2123
H19 H 1.3626 1.1041 -0.1142
C11 C 1.05847(14) 0.85022(8) -0.16008(11)
C12 C 1.03571(19) 0.82933(10) -0.25165(13)
H20 H 0.9637 0.8425 -0.2826
C13 C 1.1195(3) 0.78881(12) -0.29796(16)
H21 H 1.1043 0.7741 -0.3606
C14 C 1.2231(2) 0.77028(13) -0.2537(2)
H22 H 1.2801 0.7434 -0.2861
C15 C 1.2454(2) 0.79010(15) -0.1631(2)
H23 H 1.3175 0.7763 -0.1326
C16 C 1.16356(17) 0.83022(13) -0.11542(17)
H24 H 1.1794 0.8439 -0.0524
C17 C 0.81229(13) 0.86046(8) 0.02693(11)
C18 C 0.84626(13) 0.84472(8) 0.11710(11)
H25 H 0.9201 0.8221 0.1305
C19 C 0.77296(13) 0.86176(8) 0.18943(11)
C20 C 0.66616(13) 0.89718(9) 0.16498(10)
C21 C 0.62691(13) 0.90745(9) 0.07214(10)
C22 C 0.70373(13) 0.88930(8) 0.00273(10)
H26 H 0.6813 0.8968 -0.0608
C23 C 0.81008(14) 0.84251(9) 0.29079(11)
C24 C 0.92219(17) 0.79557(11) 0.29527(14)
H27 H 0.9436 0.7840 0.3603
H28 H 0.9860 0.8232 0.2678
H29 H 0.9086 0.7495 0.2606
C25 C 0.71459(17) 0.79790(11) 0.33763(13)
H30 H 0.6991 0.7522 0.3026
H31 H 0.6426 0.8274 0.3388
H32 H 0.7410 0.7856 0.4014
C26 C 0.83785(18) 0.91396(11) 0.34559(13)
H33 H 0.7674 0.9448 0.3466
H34 H 0.9002 0.9411 0.3156
H35 H 0.8636 0.9014 0.4094
C27 C 0.50246(14) 0.93583(10) 0.04559(11)
C28 C 0.41152(16) 0.88369(13) 0.08620(14)
H36 H 0.4228 0.8821 0.1540
H37 H 0.4212 0.8339 0.0607
H38 H 0.3325 0.9018 0.0698
C29 C 0.48566(17) 1.01522(11) 0.08010(13)
H39 H 0.4070 1.0325 0.0611
H40 H 0.5443 1.0475 0.0532
H41 H 0.4950 1.0164 0.1481
C30 C 0.47941(16) 0.93575(11) -0.06043(12)
H42 H 0.3988 0.9519 -0.0750
H43 H 0.4905 0.8857 -0.0846
H44 H 0.5342 0.9697 -0.0893
O1 O 1.01516(10) 0.95158(6) -0.02464(7)
O2 O 0.87375(10) 0.94533(6) -0.16742(8)
O3 O 0.89013(10) 0.84139(6) -0.04368(8)
O4 O 0.59383(10) 0.91951(7) 0.23522(8)
H89 H 0.6110(18) 0.9604(14) 0.2540(15)
P1 P 0.95150(3) 0.903701(19) -0.10247(2)
C31 C 0.46354(17) -0.01626(9) 0.43467(13)
H45 H 0.5291 -0.0449 0.4079
C32 C 0.4343(3) -0.05050(11) 0.52724(17)
H46 H 0.3668 -0.0219 0.5511
C33 C 0.3890(3) -0.12936(13) 0.5053(2)
H47 H 0.4532 -0.1590 0.4799
H48 H 0.3657 -0.1532 0.5637
C34 C 0.2842(3) -0.12961(14) 0.4355(3)
H49 H 0.2605 -0.1814 0.4224
H50 H 0.2174 -0.1041 0.4633
C35 C 0.31181(19) -0.09170(14) 0.3447(2)
H51 H 0.3738 -0.1213 0.3146
C36 C 0.36132(17) -0.01453(12) 0.36414(17)
H52 H 0.3875 0.0073 0.3054
H53 H 0.2987 0.0175 0.3877
C37 C 0.5346(3) -0.04509(13) 0.60169(16)
H54 H 0.5482 0.0088 0.6133
C38 C 0.6512(3) -0.07716(18) 0.5728(2)
H55 H 0.6410 -0.1296 0.5571
H56 H 0.7095 -0.0722 0.6242
H57 H 0.6780 -0.0503 0.5184
C39 C 0.4986(5) -0.07868(18) 0.6949(2)
H58 H 0.4896 -0.1324 0.6881
H59 H 0.4241 -0.0570 0.7126
H60 H 0.5593 -0.0680 0.7431
C40 C 0.2063(2) -0.0871(2) 0.2766(3)
H61 H 0.1733 -0.1367 0.2668
H62 H 0.2310 -0.0671 0.2172
H63 H 0.1469 -0.0546 0.3021
C41 C 0.46296(15) 0.16272(9) 0.31691(13)
C42 C 0.36613(19) 0.18917(13) 0.36179(18)
H64 H 0.3551 0.1772 0.4251
C43 C 0.2851(2) 0.23364(17) 0.3127(3)
H65 H 0.2182 0.2518 0.3425
C44 C 0.3020(3) 0.25119(16) 0.2210(3)
H66 H 0.2464 0.2815 0.1881
C45 C 0.3965(3) 0.22582(14) 0.17711(19)
H67 H 0.4073 0.2388 0.1141
C46 C 0.4778(2) 0.18074(10) 0.22417(14)
H68 H 0.5434 0.1622 0.1930
C47 C 0.71246(14) 0.14297(9) 0.51428(11)
C48 C 0.82077(14) 0.11222(9) 0.50165(11)
H69 H 0.8475 0.1049 0.4407
C49 C 0.89119(13) 0.09187(9) 0.57893(11)
C50 C 0.84643(13) 0.10284(9) 0.66772(10)
C51 C 0.73881(14) 0.13958(9) 0.68013(11)
C52 C 0.67242(14) 0.15836(9) 0.60057(11)
H70 H 0.5988 0.1820 0.6061
C53 C 1.01356(14) 0.05825(10) 0.56559(11)
C54 C 1.04470(16) 0.05832(12) 0.46301(13)
H71 H 1.1240 0.0386 0.4572
H72 H 1.0413 0.1090 0.4390
H73 H 0.9887 0.0274 0.4273
C55 C 1.10896(16) 0.10399(14) 0.61833(14)
H74 H 1.1858 0.0816 0.6095
H75 H 1.0932 0.1047 0.6848
H76 H 1.1084 0.1547 0.5943
C56 C 1.01690(19) -0.02223(11) 0.60004(14)
H77 H 0.9540 -0.0504 0.5682
H78 H 1.0061 -0.0232 0.6672
H79 H 1.0927 -0.0443 0.5867
C57 C 0.69451(15) 0.15836(9) 0.77723(11)
C58 C 0.78692(19) 0.20223(12) 0.83495(14)
H80 H 0.8063 0.2477 0.8018
H81 H 0.8577 0.1721 0.8445
H82 H 0.7557 0.2149 0.8954
C59 C 0.66199(17) 0.08690(11) 0.82824(12)
H83 H 0.6315 0.0994 0.8890
H84 H 0.7318 0.0557 0.8370
H85 H 0.6020 0.0600 0.7912
C60 C 0.58290(18) 0.20563(12) 0.77032(15)
H86 H 0.5590 0.2185 0.8329
H87 H 0.5201 0.1776 0.7380
H88 H 0.5983 0.2510 0.7356
O5 O 0.50345(10) 0.05987(6) 0.45270(8)
O6 O 0.63585(11) 0.05914(7) 0.31331(8)
O7 O 0.64029(10) 0.16399(6) 0.43605(8)
O8 O 0.91375(11) 0.08059(7) 0.74517(8)
H90 H 0.8892(19) 0.0395(14) 0.7639(15)
P2 P 0.56771(3) 0.10464(2) 0.37625(3)
loop_
_geom_bond_atom_site_label_1
_geom_bond_atom_site_label_2
_geom_bond_site_symmetry_1
_geom_bond_site_symmetry_2
C1 H1 1_555 1_555
C2 C1 1_555 1_555
H2 C2 1_555 1_555
C3 C2 1_555 1_555
H3 C3 1_555 1_555
H4 C3 1_555 1_555
C4 C3 1_555 1_555
H5 C4 1_555 1_555
H6 C4 1_555 1_555
C5 C4 1_555 1_555
H7 C5 1_555 1_555
C6 C1 1_555 1_555
H8 C6 1_555 1_555
H9 C6 1_555 1_555
C7 C2 1_555 1_555
H10 C7 1_555 1_555
C8 C7 1_555 1_555
H11 C8 1_555 1_555
H12 C8 1_555 1_555
H13 C8 1_555 1_555
C9 C7 1_555 1_555
H14 C9 1_555 1_555
H15 C9 1_555 1_555
H16 C9 1_555 1_555
C10 C5 1_555 1_555
H17 C10 1_555 1_555
H18 C10 1_555 1_555
H19 C10 1_555 1_555
C11 C12 1_555 1_555
C12 H20 1_555 1_555
C13 C12 1_555 1_555
H21 C13 1_555 1_555
C14 C13 1_555 1_555
H22 C14 1_555 1_555
C15 C14 1_555 1_555
H23 C15 1_555 1_555
C16 C11 1_555 1_555
H24 C16 1_555 1_555
C17 C18 1_555 1_555
C18 H25 1_555 1_555
C19 C18 1_555 1_555
C20 C19 1_555 1_555
C21 C20 1_555 1_555
C22 C17 1_555 1_555
H26 C22 1_555 1_555
C23 C19 1_555 1_555
C24 C23 1_555 1_555
H27 C24 1_555 1_555
H28 C24 1_555 1_555
H29 C24 1_555 1_555
C25 C23 1_555 1_555
H30 C25 1_555 1_555
H31 C25 1_555 1_555
H32 C25 1_555 1_555
C26 C23 1_555 1_555
H33 C26 1_555 1_555
H34 C26 1_555 1_555
H35 C26 1_555 1_555
C27 C21 1_555 1_555
C28 C27 1_555 1_555
H36 C28 1_555 1_555
H37 C28 1_555 1_555
H38 C28 1_555 1_555
C29 C27 1_555 1_555
H39 C29 1_555 1_555
H40 C29 1_555 1_555
H41 C29 1_555 1_555
C30 C27 1_555 1_555
H42 C30 1_555 1_555
H43 C30 1_555 1_555
H44 C30 1_555 1_555
C31 H45 1_555 1_555
C32 C31 1_555 1_555
H46 C32 1_555 1_555
C33 C32 1_555 1_555
H47 C33 1_555 1_555
H48 C33 1_555 1_555
C34 C33 1_555 1_555
H49 C34 1_555 1_555
H50 C34 1_555 1_555
C35 C34 1_555 1_555
H51 C35 1_555 1_555
C36 C31 1_555 1_555
H52 C36 1_555 1_555
H53 C36 1_555 1_555
C37 C32 1_555 1_555
H54 C37 1_555 1_555
C38 C37 1_555 1_555
H55 C38 1_555 1_555
H56 C38 1_555 1_555
H57 C38 1_555 1_555
C39 C37 1_555 1_555
H58 C39 1_555 1_555
H59 C39 1_555 1_555
H60 C39 1_555 1_555
C40 C35 1_555 1_555
H61 C40 1_555 1_555
H62 C40 1_555 1_555
H63 C40 1_555 1_555
C41 C42 1_555 1_555
C42 H64 1_555 1_555
C43 C42 1_555 1_555
H65 C43 1_555 1_555
C44 C43 1_555 1_555
H66 C44 1_555 1_555
C45 C44 1_555 1_555
H67 C45 1_555 1_555
C46 C41 1_555 1_555
H68 C46 1_555 1_555
C47 C48 1_555 1_555
C48 H69 1_555 1_555
C49 C48 1_555 1_555
C50 C49 1_555 1_555
C51 C50 1_555 1_555
C52 C47 1_555 1_555
H70 C52 1_555 1_555
C53 C49 1_555 1_555
C54 C53 1_555 1_555
H71 C54 1_555 1_555
H72 C54 1_555 1_555
H73 C54 1_555 1_555
C55 C53 1_555 1_555
H74 C55 1_555 1_555
H75 C55 1_555 1_555
H76 C55 1_555 1_555
C56 C53 1_555 1_555
H77 C56 1_555 1_555
H78 C56 1_555 1_555
H79 C56 1_555 1_555
C57 C51 1_555 1_555
C58 C57 1_555 1_555
H80 C58 1_555 1_555
H81 C58 1_555 1_555
H82 C58 1_555 1_555
C59 C57 1_555 1_555
H83 C59 1_555 1_555
H84 C59 1_555 1_555
H85 C59 1_555 1_555
C60 C57 1_555 1_555
H86 C60 1_555 1_555
H87 C60 1_555 1_555
H88 C60 1_555 1_555
O1 C1 1_555 1_555
O2 P1 1_555 1_555
O3 C17 1_555 1_555
O4 C20 1_555 1_555
H89 O4 1_555 1_555
O5 C31 1_555 1_555
O6 P2 1_555 1_555
O7 C47 1_555 1_555
O8 C50 1_555 1_555
H90 O8 1_555 1_555
P1 C11 1_555 1_555
P2 C41 1_555 1_555
C5 C6 1_555 1_555
C15 C16 1_555 1_555
C21 C22 1_555 1_555
C35 C36 1_555 1_555
C45 C46 1_555 1_555
C51 C52 1_555 1_555
O1 P1 1_555 1_555
O3 P1 1_555 1_555
O5 P2 1_555 1_555
O7 P2 1_555 1_555

#END
