
#######################################################################
#
#                 Cambridge Crystallographic Data Centre
#                                CCDC 
#
#######################################################################
#
# If this CIF has been generated from an entry in the Cambridge 
# Structural Database, then it will include bibliographic, chemical, 
# crystal, experimental, refinement or atomic coordinate data resulting 
# from the CCDC's data processing and validation procedures.
#
#######################################################################

data_NEJRIG
_chemical_formula_moiety         'C9 H12 O8'
_chemical_name_systematic        
'2,4,8,10-tetraoxaspiro[5.5]undecane-3,9-dicarboxylic acid'
_symmetry_cell_setting           orthorhombic
_symmetry_space_group_name_H-M   'F d d 2'
_symmetry_Int_Tables_number      43
_space_group_name_Hall           'F 2 -2d'
loop_
_symmetry_equiv_pos_site_id
_symmetry_equiv_pos_as_xyz
1 x,y,z
2 -x,-y,z
3 1/4+x,1/4-y,1/4+z
4 1/4-x,1/4+y,1/4+z
5 x,1/2+y,1/2+z
6 -x,1/2-y,1/2+z
7 1/4+x,3/4-y,3/4+z
8 1/4-x,3/4+y,3/4+z
9 1/2+x,y,1/2+z
10 1/2-x,-y,1/2+z
11 3/4+x,1/4-y,3/4+z
12 3/4-x,1/4+y,3/4+z
13 1/2+x,1/2+y,z
14 1/2-x,1/2-y,z
15 3/4+x,3/4-y,1/4+z
16 3/4-x,3/4+y,1/4+z
_cell_length_a                   11.393(2)
_cell_length_b                   31.256(6)
_cell_length_c                   5.4579(10)
_cell_angle_alpha                90
_cell_angle_beta                 90
_cell_angle_gamma                90
_cell_volume                     1943.56
_exptl_crystal_colour            colorless
_exptl_crystal_description       block
_cell_formula_units_Z            8
loop_
_atom_site_label
_atom_site_type_symbol
_atom_site_fract_x
_atom_site_fract_y
_atom_site_fract_z
C1 C 0.18067(13) 0.10689(5) -0.0453(3)
C2 C 0.15300(13) 0.06685(5) 0.1049(3)
H1 H 0.2192 0.0605 0.2135
C3 C 0.10914(13) -0.00620(5) 0.0756(3)
H2 H 0.1751 -0.0139 0.1790
H3 H 0.0961 -0.0293 -0.0399
C4 C 0.0000 0.0000 0.2328(4)
C5 C 0.02083(17) 0.03898(5) 0.3938(3)
H4 H -0.0498 0.0452 0.4864
H5 H 0.0834 0.0329 0.5092
O1 O 0.24466(12) 0.09788(3) -0.2406(2)
H6 H 0.2580 0.1199 -0.3170
O2 O 0.15016(11) 0.14204(3) 0.0173(2)
O3 O 0.13547(9) 0.03254(3) -0.0552(2)
O4 O 0.05220(9) 0.07573(3) 0.2473(2)
C1A C -0.18067(13) -0.10689(5) -0.0453(3)
C2A C -0.15300(13) -0.06685(5) 0.1049(3)
H1A H -0.2192 -0.0605 0.2135
C3A C -0.10914(13) 0.00620(5) 0.0756(3)
H2A H -0.1751 0.0139 0.1790
H3A H -0.0961 0.0293 -0.0399
C5A C -0.02083(17) -0.03898(5) 0.3938(3)
H4A H 0.0498 -0.0452 0.4864
H5A H -0.0834 -0.0329 0.5092
O1A O -0.24466(12) -0.09788(3) -0.2406(2)
H6A H -0.2580 -0.1199 -0.3170
O2A O -0.15016(11) -0.14204(3) 0.0173(2)
O3A O -0.13547(9) -0.03254(3) -0.0552(2)
O4A O -0.05220(9) -0.07573(3) 0.2473(2)
loop_
_geom_bond_atom_site_label_1
_geom_bond_atom_site_label_2
_geom_bond_site_symmetry_1
_geom_bond_site_symmetry_2
C1 C2 1_555 1_555
C2 H1 1_555 1_555
C3 H2 1_555 1_555
H3 C3 1_555 1_555
C4 C3 1_555 1_555
C5 C4 1_555 1_555
H4 C5 1_555 1_555
H5 C5 1_555 1_555
O1 C1 1_555 1_555
H6 O1 1_555 1_555
O2 C1 1_555 1_555
O3 C2 1_555 1_555
O4 C2 1_555 1_555
C1A C2A 1_555 1_555
C2A H1A 1_555 1_555
C3A C4 1_555 1_555
H2A C3A 1_555 1_555
H3A C3A 1_555 1_555
C5A C4 1_555 1_555
H4A C5A 1_555 1_555
H5A C5A 1_555 1_555
O1A C1A 1_555 1_555
H6A O1A 1_555 1_555
O2A C1A 1_555 1_555
O3A C2A 1_555 1_555
O4A C2A 1_555 1_555
C3 O3 1_555 1_555
C5 O4 1_555 1_555
C3A O3A 1_555 1_555
C5A O4A 1_555 1_555

#END
