
#######################################################################
#
#                 Cambridge Crystallographic Data Centre
#                                CCDC 
#
#######################################################################
#
# If this CIF has been generated from an entry in the Cambridge 
# Structural Database, then it will include bibliographic, chemical, 
# crystal, experimental, refinement or atomic coordinate data resulting 
# from the CCDC's data processing and validation procedures.
#
#######################################################################

data_NEJSIH
_chemical_formula_moiety         'C33 H33 Br1 N2 O5'
_chemical_name_systematic        
"t-butyl (2-(1-benzyl-5-bromo-4'-ethyl-3'-methyl-2,6'-dioxo-1,2,3',6'-tetrahydrospiro[indole-3,2'-pyran]-5'-yl)phenyl)carbamate"
_symmetry_cell_setting           orthorhombic
_symmetry_space_group_name_H-M   'P 21 21 21'
_symmetry_Int_Tables_number      19
_space_group_name_Hall           'P 2ac 2ab'
loop_
_symmetry_equiv_pos_site_id
_symmetry_equiv_pos_as_xyz
1 x,y,z
2 1/2-x,-y,1/2+z
3 -x,1/2+y,1/2-z
4 1/2+x,1/2-y,-z
_cell_length_a                   10.9860(5)
_cell_length_b                   14.3042(5)
_cell_length_c                   19.4264(9)
_cell_angle_alpha                90
_cell_angle_beta                 90
_cell_angle_gamma                90
_cell_volume                     3052.78
_exptl_crystal_colour            colorless
_exptl_crystal_description       prism
_chemical_melting_point          '452.75 K'
_cell_formula_units_Z            4
_exptl_crystal_recrystallization_method 'dichloromethane / hexane'
loop_
_atom_site_label
_atom_site_type_symbol
_atom_site_fract_x
_atom_site_fract_y
_atom_site_fract_z
C1 C 1.0367(2) 0.49028(17) -0.03218(12)
C2 C 0.9251(3) 0.46510(16) -0.05946(13)
H1 H 0.9188 0.4500 -0.1069
C3 C 0.8225(3) 0.46177(16) -0.01805(12)
H2 H 0.7454 0.4450 -0.0364
C4 C 0.8360(2) 0.48372(14) 0.05128(11)
C5 C 0.9494(2) 0.50678(15) 0.07930(11)
C6 C 1.0503(2) 0.51109(16) 0.03752(12)
H3 H 1.1275 0.5278 0.0557
C7 C 0.6152(2) 0.48632(16) 0.08798(13)
H4 H 0.5719 0.4747 0.1318
H5 H 0.5981 0.4330 0.0570
C8 C 0.5653(2) 0.57456(16) 0.05574(12)
C9 C 0.4521(3) 0.57244(19) 0.02536(15)
H6 H 0.4083 0.5153 0.0229
C10 C 0.4019(3) 0.6531(2) -0.00153(17)
H7 H 0.3237 0.6508 -0.0223
C11 C 0.4625(3) 0.7358(2) 0.00134(16)
H8 H 0.4269 0.7907 -0.0173
C12 C 0.5742(3) 0.7393(2) 0.03101(17)
H9 H 0.6165 0.7972 0.0337
C13 C 0.6271(3) 0.65883(18) 0.05739(15)
H10 H 0.7064 0.6616 0.0768
C14 C 0.7910(2) 0.52268(15) 0.16224(12)
C15 C 0.9316(2) 0.53182(15) 0.15435(12)
C16 C 0.9981(2) 0.47404(15) 0.20825(12)
H11 H 0.9607 0.4103 0.2088
C17 C 1.1350(2) 0.46238(19) 0.19525(14)
H12 H 1.1478 0.4347 0.1497
H13 H 1.1699 0.4214 0.2305
H14 H 1.1748 0.5237 0.1972
C18 C 0.9787(2) 0.51722(15) 0.27858(12)
C19 C 0.9780(3) 0.45295(16) 0.33933(12)
H15 H 0.9951 0.4891 0.3817
H16 H 1.0430 0.4056 0.3339
C20 C 0.8550(3) 0.40397(19) 0.34632(14)
H17 H 0.8567 0.3622 0.3863
H18 H 0.8386 0.3675 0.3047
H19 H 0.7908 0.4508 0.3525
C21 C 0.9635(2) 0.61061(15) 0.28414(12)
C22 C 0.9651(2) 0.67072(16) 0.22336(13)
C23 C 0.9481(2) 0.66162(15) 0.35041(12)
C24 C 1.0465(3) 0.67268(18) 0.39442(16)
H20 H 1.1232 0.6469 0.3821
C25 C 1.0352(4) 0.7207(2) 0.45604(18)
H21 H 1.1031 0.7266 0.4860
C26 C 0.9269(4) 0.75905(19) 0.47342(14)
H22 H 0.9191 0.7915 0.5158
C27 C 0.8281(3) 0.75165(17) 0.43057(12)
H23 H 0.7532 0.7802 0.4429
C28 C 0.8378(3) 0.70182(15) 0.36847(11)
C29 C 0.6334(3) 0.7409(2) 0.32313(14)
C30 C 0.4444(3) 0.7501(2) 0.25659(14)
C31 C 0.3903(3) 0.6823(2) 0.20500(17)
H24 H 0.4460 0.6753 0.1659
H25 H 0.3119 0.7064 0.1887
H26 H 0.3781 0.6214 0.2271
C32 C 0.4771(3) 0.8426(2) 0.22374(19)
H27 H 0.5121 0.8842 0.2586
H28 H 0.4037 0.8714 0.2044
H29 H 0.5366 0.8322 0.1870
C33 C 0.3606(3) 0.7614(2) 0.31736(14)
H30 H 0.3977 0.8039 0.3509
H31 H 0.3468 0.7003 0.3389
H32 H 0.2827 0.7873 0.3019
N1 N 0.74480(17) 0.48975(14) 0.10150(10)
N2 N 0.73675(19) 0.68826(16) 0.32483(11)
O1 O 0.73061(15) 0.54228(12) 0.21235(9)
O2 O 0.96263(15) 0.63027(9) 0.15944(8)
O3 O 0.9715(2) 0.75431(11) 0.22535(9)
O4 O 0.61416(18) 0.81046(13) 0.35675(10)
O5 O 0.55707(17) 0.70157(12) 0.27724(10)
Br1 Br 1.17410(3) 0.495909(19) -0.091056(13)
H33 H 0.7399 0.6410 0.2962
loop_
_geom_bond_atom_site_label_1
_geom_bond_atom_site_label_2
_geom_bond_site_symmetry_1
_geom_bond_site_symmetry_2
C1 C2 1_555 1_555
C2 H1 1_555 1_555
C3 C2 1_555 1_555
H2 C3 1_555 1_555
C4 C3 1_555 1_555
C5 C4 1_555 1_555
C6 C1 1_555 1_555
H3 C6 1_555 1_555
C7 H4 1_555 1_555
H5 C7 1_555 1_555
C8 C7 1_555 1_555
C9 C8 1_555 1_555
H6 C9 1_555 1_555
C10 C9 1_555 1_555
H7 C10 1_555 1_555
C11 C10 1_555 1_555
H8 C11 1_555 1_555
C12 C11 1_555 1_555
H9 C12 1_555 1_555
C13 C8 1_555 1_555
H10 C13 1_555 1_555
C14 C15 1_555 1_555
C15 C5 1_555 1_555
C16 C15 1_555 1_555
H11 C16 1_555 1_555
C17 C16 1_555 1_555
H12 C17 1_555 1_555
H13 C17 1_555 1_555
H14 C17 1_555 1_555
C18 C16 1_555 1_555
C19 C18 1_555 1_555
H15 C19 1_555 1_555
H16 C19 1_555 1_555
C20 C19 1_555 1_555
H17 C20 1_555 1_555
H18 C20 1_555 1_555
H19 C20 1_555 1_555
C21 C18 1_555 1_555
C22 C21 1_555 1_555
C23 C21 1_555 1_555
C24 C23 1_555 1_555
H20 C24 1_555 1_555
C25 C24 1_555 1_555
H21 C25 1_555 1_555
C26 C25 1_555 1_555
H22 C26 1_555 1_555
C27 C26 1_555 1_555
H23 C27 1_555 1_555
C28 C23 1_555 1_555
C29 N2 1_555 1_555
C30 C31 1_555 1_555
C31 H24 1_555 1_555
H25 C31 1_555 1_555
H26 C31 1_555 1_555
C32 C30 1_555 1_555
H27 C32 1_555 1_555
H28 C32 1_555 1_555
H29 C32 1_555 1_555
C33 C30 1_555 1_555
H30 C33 1_555 1_555
H31 C33 1_555 1_555
H32 C33 1_555 1_555
N1 C4 1_555 1_555
N2 C28 1_555 1_555
O1 C14 1_555 1_555
O2 C15 1_555 1_555
O3 C22 1_555 1_555
O4 C29 1_555 1_555
O5 C29 1_555 1_555
Br1 C1 1_555 1_555
H33 N2 1_555 1_555
C5 C6 1_555 1_555
C7 N1 1_555 1_555
C12 C13 1_555 1_555
C14 N1 1_555 1_555
C22 O2 1_555 1_555
C27 C28 1_555 1_555
C30 O5 1_555 1_555

#END
