
#######################################################################
#
#                 Cambridge Crystallographic Data Centre
#                                CCDC 
#
#######################################################################
#
# If this CIF has been generated from an entry in the Cambridge 
# Structural Database, then it will include bibliographic, chemical, 
# crystal, experimental, refinement or atomic coordinate data resulting 
# from the CCDC's data processing and validation procedures.
#
#######################################################################

data_NEJTAZ
_chemical_formula_moiety         'C63 H21 F15 N6,H2 O1,C1 H1 Cl3'
_chemical_name_systematic        
'12,27,42-tris(Pentafluorophenyl)-10,14,25,29,40,44-hexa-azatridecacyclo[41.2.1.1^8,11^.1^13,16^.1^23,26^.1^28,31^.1^38,41^.0^2,7^.0^9,45^.0^15,24^.0^17,22^.0^30,39^.0^32,37^]henpentaconta-1(46),2,4,6,8,11(51),12,14,16(50),17,19,21,23,26(49),27,29,31(48),32,34,36,38,41(47),42,44-tetracosaene chloroform solvate monohydrate'
_symmetry_cell_setting           monoclinic
_symmetry_space_group_name_H-M   'P 21/c'
_symmetry_Int_Tables_number      14
_space_group_name_Hall           '-P 2ybc'
loop_
_symmetry_equiv_pos_site_id
_symmetry_equiv_pos_as_xyz
1 x,y,z
2 -x,1/2+y,1/2-z
3 -x,-y,-z
4 x,1/2-y,1/2+z
_cell_length_a                   14.6663(16)
_cell_length_b                   23.546(3)
_cell_length_c                   15.1610(16)
_cell_angle_alpha                90
_cell_angle_beta                 97.348(2)
_cell_angle_gamma                90
_cell_volume                     5192.59
_exptl_crystal_colour            'dark blue'
_exptl_crystal_description       block
_cell_formula_units_Z            4
loop_
_atom_site_label
_atom_site_type_symbol
_atom_site_fract_x
_atom_site_fract_y
_atom_site_fract_z
O1 O 0.37335(18) 0.51958(10) 0.50778(17)
C1 C 0.5948(2) 0.57300(14) 0.6995(2)
C2 C 0.6365(2) 0.62568(14) 0.7120(2)
H1 H 0.6927 0.6331 0.7473
C3 C 0.5810(2) 0.66599(13) 0.6632(2)
C4 C 0.5044(2) 0.63595(13) 0.6210(2)
C5 C 0.4307(2) 0.66593(13) 0.5706(2)
C6 C 0.4394(2) 0.72642(13) 0.5611(2)
C7 C 0.3582(2) 0.74399(14) 0.5137(2)
H2 H 0.3432 0.7814 0.4957
C8 C 0.3011(2) 0.69575(14) 0.4968(2)
C9 C 0.5196(2) 0.75754(13) 0.6027(2)
C10 C 0.5902(2) 0.72688(13) 0.6552(2)
C11 C 0.6649(2) 0.75676(14) 0.7000(2)
H3 H 0.7110 0.7371 0.7366
C12 C 0.6712(3) 0.81529(16) 0.6905(3)
H4 H 0.7218 0.8349 0.7203
C13 C 0.6033(3) 0.84491(16) 0.6372(3)
H5 H 0.6082 0.8844 0.6304
C14 C 0.5280(3) 0.81589(15) 0.5940(3)
H6 H 0.4819 0.8362 0.5583
C15 C 0.2094(2) 0.69398(14) 0.4556(2)
C16 C 0.1666(2) 0.74945(14) 0.4256(2)
C17 C 0.1390(2) 0.76109(15) 0.3361(2)
C18 C 0.1039(3) 0.81325(17) 0.3080(3)
C19 C 0.0957(3) 0.85501(17) 0.3687(3)
C20 C 0.1217(3) 0.84560(16) 0.4572(3)
C21 C 0.1550(2) 0.79274(15) 0.4844(2)
C22 C 0.1560(2) 0.64481(13) 0.4393(2)
C23 C 0.0620(2) 0.64049(14) 0.4025(2)
H7 H 0.0222 0.6708 0.3846
C24 C 0.0402(2) 0.58339(13) 0.3979(2)
C25 C 0.1228(2) 0.55424(14) 0.4330(2)
C26 C 0.1232(2) 0.49391(14) 0.4346(2)
C27 C 0.0410(2) 0.46341(13) 0.4029(2)
C28 C 0.0630(2) 0.40678(14) 0.4111(2)
H8 H 0.0230 0.3762 0.3955
C29 C 0.1573(2) 0.40278(13) 0.4474(2)
C30 C -0.0447(2) 0.49247(14) 0.3708(2)
C31 C -0.0446(2) 0.55253(14) 0.3664(2)
C32 C -0.1268(2) 0.58106(15) 0.3351(2)
H9 H -0.1272 0.6209 0.3308
C33 C -0.2063(3) 0.55110(16) 0.3108(3)
H10 H -0.2607 0.5704 0.2889
C34 C -0.2065(3) 0.49185(17) 0.3185(3)
H11 H -0.2616 0.4715 0.3043
C35 C -0.1261(2) 0.46328(15) 0.3468(2)
H12 H -0.1265 0.4234 0.3498
C36 C 0.2076(2) 0.35348(14) 0.4707(2)
C37 C 0.1588(2) 0.29815(13) 0.4458(2)
C38 C 0.1315(2) 0.28341(14) 0.3581(2)
C39 C 0.0897(3) 0.23313(15) 0.3341(2)
C40 C 0.0743(3) 0.19393(15) 0.3981(3)
C41 C 0.0991(3) 0.20723(15) 0.4862(3)
C42 C 0.1400(2) 0.25889(15) 0.5082(2)
C43 C 0.2968(2) 0.34887(14) 0.5161(2)
C44 C 0.3455(2) 0.29819(14) 0.5441(2)
H13 H 0.3263 0.2608 0.5302
C45 C 0.4253(2) 0.31425(14) 0.5950(2)
C46 C 0.4250(2) 0.37479(13) 0.5949(2)
C47 C 0.4990(2) 0.40526(14) 0.6453(2)
C48 C 0.5692(2) 0.37215(14) 0.7005(2)
C49 C 0.6251(2) 0.41167(14) 0.7457(2)
H14 H 0.6758 0.4044 0.7887
C50 C 0.5913(2) 0.46679(15) 0.7146(2)
C51 C 0.5705(2) 0.31020(13) 0.6985(2)
C52 C 0.4987(2) 0.28115(13) 0.6459(2)
C53 C 0.4999(2) 0.22199(14) 0.6436(2)
H15 H 0.4520 0.2024 0.6093
C54 C 0.5710(3) 0.19181(15) 0.6912(2)
H16 H 0.5712 0.1519 0.6888
C55 C 0.6418(3) 0.22030(16) 0.7424(2)
H17 H 0.6902 0.1998 0.7743
C56 C 0.6410(2) 0.27874(14) 0.7465(2)
H18 H 0.6886 0.2978 0.7822
C57 C 0.6279(2) 0.51994(14) 0.7374(2)
C58 C 0.7093(2) 0.52479(14) 0.8068(2)
C59 C 0.7931(2) 0.50053(15) 0.7977(2)
C60 C 0.8690(3) 0.50666(15) 0.8594(3)
C61 C 0.8628(3) 0.53818(16) 0.9351(3)
C62 C 0.7808(3) 0.56278(16) 0.9463(2)
C63 C 0.7059(2) 0.55593(14) 0.8840(2)
F1 F 0.17619(16) 0.78435(9) 0.57298(14)
F2 F 0.1128(2) 0.88662(10) 0.51692(19)
F3 F 0.0596(2) 0.90569(11) 0.3412(2)
F4 F 0.07990(18) 0.82208(11) 0.22048(17)
F5 F 0.14811(14) 0.72149(9) 0.27456(13)
F6 F 0.14617(14) 0.31944(8) 0.29188(12)
F7 F 0.06532(16) 0.22051(9) 0.24789(14)
F8 F 0.03486(18) 0.14404(9) 0.37474(17)
F9 F 0.08479(16) 0.17041(9) 0.55034(15)
F10 F 0.16027(15) 0.27048(9) 0.59601(13)
F11 F 0.80331(14) 0.46946(9) 0.72488(13)
F12 F 0.94964(15) 0.48276(10) 0.84623(16)
F13 F 0.93641(17) 0.54514(11) 0.99623(17)
F14 F 0.77443(17) 0.59292(11) 1.02066(16)
F15 F 0.62683(14) 0.58040(9) 0.89965(14)
N1 N 0.51310(18) 0.57990(11) 0.64277(17)
H19 H 0.4744 0.5531 0.6244
N2 N 0.34843(18) 0.64722(11) 0.53155(17)
N3 N 0.19076(19) 0.59071(11) 0.45797(17)
H20 H 0.2463 0.5822 0.4815
N4 N 0.19322(19) 0.45780(11) 0.46111(18)
N5 N 0.34973(19) 0.39559(11) 0.54753(18)
H21 H 0.3362 0.4312 0.5380
N6 N 0.51189(19) 0.46106(11) 0.65176(18)
loop_
_geom_bond_atom_site_label_1
_geom_bond_atom_site_label_2
_geom_bond_site_symmetry_1
_geom_bond_site_symmetry_2
C1 C2 1_555 1_555
C2 H1 1_555 1_555
C3 C2 1_555 1_555
C4 C3 1_555 1_555
C5 C4 1_555 1_555
C6 C5 1_555 1_555
C7 C6 1_555 1_555
H2 C7 1_555 1_555
C8 C7 1_555 1_555
C9 C6 1_555 1_555
C10 C3 1_555 1_555
C11 C10 1_555 1_555
H3 C11 1_555 1_555
C12 C11 1_555 1_555
H4 C12 1_555 1_555
C13 C12 1_555 1_555
H5 C13 1_555 1_555
C14 C9 1_555 1_555
H6 C14 1_555 1_555
C15 C8 1_555 1_555
C16 C15 1_555 1_555
C17 C16 1_555 1_555
C18 C17 1_555 1_555
C19 C18 1_555 1_555
C20 C19 1_555 1_555
C21 C16 1_555 1_555
C22 C15 1_555 1_555
C23 C22 1_555 1_555
H7 C23 1_555 1_555
C24 C23 1_555 1_555
C25 C24 1_555 1_555
C26 C25 1_555 1_555
C27 C26 1_555 1_555
C28 C27 1_555 1_555
H8 C28 1_555 1_555
C29 C28 1_555 1_555
C30 C27 1_555 1_555
C31 C24 1_555 1_555
C32 C31 1_555 1_555
H9 C32 1_555 1_555
C33 C32 1_555 1_555
H10 C33 1_555 1_555
C34 C33 1_555 1_555
H11 C34 1_555 1_555
C35 C30 1_555 1_555
H12 C35 1_555 1_555
C36 C29 1_555 1_555
C37 C36 1_555 1_555
C38 C37 1_555 1_555
C39 C38 1_555 1_555
C40 C39 1_555 1_555
C41 C40 1_555 1_555
C42 C37 1_555 1_555
C43 C36 1_555 1_555
C44 C43 1_555 1_555
H13 C44 1_555 1_555
C45 C44 1_555 1_555
C46 C45 1_555 1_555
C47 C46 1_555 1_555
C48 C47 1_555 1_555
C49 C48 1_555 1_555
H14 C49 1_555 1_555
C50 C49 1_555 1_555
C51 C48 1_555 1_555
C52 C45 1_555 1_555
C53 C52 1_555 1_555
H15 C53 1_555 1_555
C54 C53 1_555 1_555
H16 C54 1_555 1_555
C55 C54 1_555 1_555
H17 C55 1_555 1_555
C56 C51 1_555 1_555
H18 C56 1_555 1_555
C57 C1 1_555 1_555
C58 C57 1_555 1_555
C59 C58 1_555 1_555
C60 C59 1_555 1_555
C61 C60 1_555 1_555
C62 C61 1_555 1_555
C63 C58 1_555 1_555
F1 C21 1_555 1_555
F2 C20 1_555 1_555
F3 C19 1_555 1_555
F4 C18 1_555 1_555
F5 C17 1_555 1_555
F6 C38 1_555 1_555
F7 C39 1_555 1_555
F8 C40 1_555 1_555
F9 C41 1_555 1_555
F10 C42 1_555 1_555
F11 C59 1_555 1_555
F12 C60 1_555 1_555
F13 C61 1_555 1_555
F14 C62 1_555 1_555
F15 C63 1_555 1_555
N1 C1 1_555 1_555
H19 N1 1_555 1_555
N2 C5 1_555 1_555
N3 C22 1_555 1_555
H20 N3 1_555 1_555
N4 C26 1_555 1_555
N5 C43 1_555 1_555
H21 N5 1_555 1_555
N6 C47 1_555 1_555
C4 N1 1_555 1_555
C8 N2 1_555 1_555
C9 C10 1_555 1_555
C13 C14 1_555 1_555
C20 C21 1_555 1_555
C25 N3 1_555 1_555
C29 N4 1_555 1_555
C30 C31 1_555 1_555
C34 C35 1_555 1_555
C41 C42 1_555 1_555
C46 N5 1_555 1_555
C50 C57 1_555 1_555
C50 N6 1_555 1_555
C51 C52 1_555 1_555
C55 C56 1_555 1_555
C62 C63 1_555 1_555

#END
