
#######################################################################
#
#                 Cambridge Crystallographic Data Centre
#                                CCDC 
#
#######################################################################
#
# If this CIF has been generated from an entry in the Cambridge 
# Structural Database, then it will include bibliographic, chemical, 
# crystal, experimental, refinement or atomic coordinate data resulting 
# from the CCDC's data processing and validation procedures.
#
#######################################################################

data_NEJTII
_chemical_formula_moiety         'C24 H28 Cl1 N1 O6 S1'
_chemical_name_systematic        
'Diisopropyl (1R,2R,3S)-4-chloro-3-((4-methylphenyl)sulfonamido)-2,3-dihydro-1H-indene-1,2-dicarboxylate'
_symmetry_cell_setting           orthorhombic
_symmetry_space_group_name_H-M   'P n a 21'
_symmetry_Int_Tables_number      33
_space_group_name_Hall           'P 2c -2n'
loop_
_symmetry_equiv_pos_site_id
_symmetry_equiv_pos_as_xyz
1 x,y,z
2 -x,-y,1/2+z
3 1/2+x,1/2-y,z
4 1/2-x,1/2+y,1/2+z
_cell_length_a                   11.3721(6)
_cell_length_b                   18.5396(11)
_cell_length_c                   12.4305(8)
_cell_angle_alpha                90
_cell_angle_beta                 90
_cell_angle_gamma                90
_cell_volume                     2620.77
_exptl_crystal_colour            colorless
_exptl_crystal_description       block
_chemical_melting_point          '95.2-97.0 deg.C'
_cell_formula_units_Z            4
loop_
_atom_site_label
_atom_site_type_symbol
_atom_site_fract_x
_atom_site_fract_y
_atom_site_fract_z
C1 C 0.1136(6) 0.5508(3) 0.7064(7)
C2 C 0.1021(11) 0.5061(3) 0.6173(8)
C3 C 0.0801(7) 0.6103(4) 0.5034(7)
C4 C 0.0915(5) 0.6550(3) 0.5926(7)
C5 C 0.1083(5) 0.6252(3) 0.6941(7)
C6 C 0.085(3) 0.5372(6) 0.529(3)
C7 C 0.1169(6) 0.6819(4) 0.7801(8)
H1 H 0.195 0.6802 0.8133
C8 C 0.1017(6) 0.7539(4) 0.7180(8)
H2 H 0.0276 0.7759 0.7412
C9 C 0.0912(6) 0.7366(5) 0.5982(8)
H3 H 0.1598 0.7556 0.56
C10 C 0.1998(7) 0.8076(4) 0.7399(9)
C11 C 0.2878(12) 0.9152(9) 0.6816(9)
C12 C 0.2725(12) 0.9580(8) 0.5821(8)
C13 C 0.269(3) 0.9585(13) 0.7803(16)
C14 C -0.0208(8) 0.7654(5) 0.5464(8)
C15 C -0.1172(14) 0.7849(10) 0.3736(12)
H4 H -0.1709 0.8144 0.4168
C16 C -0.070(2) 0.8324(15) 0.2796(17)
H5 H -0.0323 0.8746 0.3085
H6 H -0.1337 0.8466 0.234
H7 H -0.0136 0.8052 0.2385
C17 C -0.1775(15) 0.7200(11) 0.3442(16)
H8 H -0.1369 0.6972 0.2856
H9 H -0.2564 0.7314 0.3225
H10 H -0.1796 0.6878 0.4047
C18 C 0.145(2) 0.8865(4) 1.035(3)
C19 C 0.0527(4) 0.7798(2) 1.0016(7)
C20 C -0.0444(4) 0.8217(3) 0.9750(8)
H11 H -0.1108 0.8002 0.9454
C21 C -0.0422(5) 0.8957(2) 0.9926(10)
C22 C 0.0571(6) 0.9278(2) 1.0368(12)
C23 C 0.1520(4) 0.8119(3) 1.0459(8)
C24 C 0.0699(18) 1.0039(5) 1.071(2)
Cl1 Cl 0.1488(3) 0.51206(13) 0.8282(6)
N1 N 0.0251(5) 0.6685(3) 0.8636(7)
H12 H -0.0414 0.6506 0.8443
O1 O 0.2804(5) 0.7969(3) 0.8001(7)
O2 O 0.1855(5) 0.8659(3) 0.6833(8)
O3 O -0.1085(6) 0.7804(5) 0.5926(7)
O4 O -0.0092(7) 0.7690(4) 0.4409(7)
O5 O -0.0568(5) 0.6613(4) 1.0432(7)
O6 O 0.1599(5) 0.6580(3) 1.0173(7)
S1 S 0.04684(15) 0.68656(10) 0.9884(5)
C25? C 0.0854(11) 0.5358(4) 0.5158(7)
C26? C 0.096(4) 0.5000(12) 0.6258(15)
C27? C 0.2641(18) 0.9293(8) 0.6931(8)
C28? C 0.206(4) 0.9810(17) 0.767(3)
C29? C 0.0599(9) 0.9363(7) 1.004(3)
C30? C 0.1542(6) 0.8859(3) 1.0634(11)
C31? C 0.056(2) 1.0160(8) 1.010(2)
loop_
_geom_bond_atom_site_label_1
_geom_bond_atom_site_label_2
_geom_bond_site_symmetry_1
_geom_bond_site_symmetry_2
C1 C2 1_555 1_555
C2 C6 1_555 1_555
C3 C4 1_555 1_555
C4 C5 1_555 1_555
C5 C1 1_555 1_555
C6 C3 1_555 1_555
C7 C5 1_555 1_555
H1 C7 1_555 1_555
C8 C7 1_555 1_555
H2 C8 1_555 1_555
C9 C4 1_555 1_555
H3 C9 1_555 1_555
C10 C8 1_555 1_555
C11 C12 1_555 1_555
C13 C11 1_555 1_555
C14 C9 1_555 1_555
C15 H4 1_555 1_555
C16 C15 1_555 1_555
H5 C16 1_555 1_555
H6 C16 1_555 1_555
H7 C16 1_555 1_555
C17 C15 1_555 1_555
H8 C17 1_555 1_555
H9 C17 1_555 1_555
H10 C17 1_555 1_555
C18 C22 1_555 1_555
C19 C20 1_555 1_555
C20 H11 1_555 1_555
C21 C20 1_555 1_555
C22 C21 1_555 1_555
C23 C18 1_555 1_555
C24 C22 1_555 1_555
Cl1 C1 1_555 1_555
N1 C7 1_555 1_555
H12 N1 1_555 1_555
O1 C10 1_555 1_555
O2 C10 1_555 1_555
O3 C14 1_555 1_555
O4 C14 1_555 1_555
O5 S1 1_555 1_555
O6 S1 1_555 1_555
S1 C19 1_555 1_555
C8 C9 1_555 1_555
C11 O2 1_555 1_555
C15 O4 1_555 1_555
C19 C23 1_555 1_555
N1 S1 1_555 1_555

#END
