
#######################################################################
#
#                 Cambridge Crystallographic Data Centre
#                                CCDC 
#
#######################################################################
#
# If this CIF has been generated from an entry in the Cambridge 
# Structural Database, then it will include bibliographic, chemical, 
# crystal, experimental, refinement or atomic coordinate data resulting 
# from the CCDC's data processing and validation procedures.
#
#######################################################################

data_NEJTED
_chemical_formula_moiety         'C63 H24 F15 N6 1+,Cl1 1-,3(C1 H1 Cl3)'
_chemical_name_systematic        
'12,27,42-tris(Pentafluorophenyl)-14,25,29,40,44-penta-aza-10-azoniatridecacyclo[41.2.1.1^8,11^.1^13,16^.1^23,26^.1^28,31^.1^38,41^.0^2,7^.0^9,45^.0^15,24^.0^17,22^.0^30,39^.0^32,37^]henpentaconta-1(46),2,4,6,8(51),9(45),10,12,15(24),16(50),17,19,21,23(49),26,28(48),30,32(37),33,35,38,41(47),42-tricosaene chloride chloroform solvate'
_symmetry_cell_setting           triclinic
_symmetry_space_group_name_H-M   'P -1'
_symmetry_Int_Tables_number      2
_space_group_name_Hall           '-P 1'
loop_
_symmetry_equiv_pos_site_id
_symmetry_equiv_pos_as_xyz
1 x,y,z
2 -x,-y,-z
_cell_length_a                   7.3095(9)
_cell_length_b                   19.203(2)
_cell_length_c                   21.986(2)
_cell_angle_alpha                88.785(3)
_cell_angle_beta                 82.718(2)
_cell_angle_gamma                89.498(2)
_cell_volume                     3060.41
_exptl_crystal_colour            black
_exptl_crystal_description       plates
_cell_formula_units_Z            2
loop_
_atom_site_label
_atom_site_type_symbol
_atom_site_fract_x
_atom_site_fract_y
_atom_site_fract_z
Cl1 Cl 0.96590(16) 0.25933(6) 0.12992(5)
C1 C 0.8236(6) 0.0457(2) 0.1967(2)
C2 C 0.7961(6) -0.0165(2) 0.1653(2)
H1 H 0.7876 -0.0618 0.1835
C3 C 0.7838(6) -0.0009(2) 0.1047(2)
C4 C 0.8070(6) 0.0719(2) 0.09784(19)
C5 C 0.7998(6) 0.1046(2) 0.0406(2)
C6 C 0.7716(6) 0.0653(2) -0.0113(2)
C7 C 0.7712(6) 0.1128(2) -0.05974(19)
H2 H 0.7527 0.1016 -0.1004
C8 C 0.8029(6) 0.1808(2) -0.03909(19)
C9 C 0.8061(6) 0.2440(2) -0.07092(19)
C10 C 0.8077(6) 0.3126(2) -0.04990(18)
C11 C 0.7776(6) 0.3746(2) -0.08170(19)
H3 H 0.7623 0.3781 -0.1239
C12 C 0.7733(6) 0.4321(2) -0.04100(19)
C13 C 0.8073(6) 0.4005(2) 0.01638(18)
C14 C 0.8048(6) 0.4397(2) 0.06825(19)
C15 C 0.7632(6) 0.5134(2) 0.06422(19)
C16 C 0.7603(6) 0.5368(2) 0.12398(18)
H4 H 0.7365 0.5834 0.1365
C17 C 0.7984(6) 0.4801(2) 0.1632(2)
C18 C 0.7976(6) 0.4780(2) 0.22717(19)
C19 C 0.8120(6) 0.4184(2) 0.2663(2)
C20 C 0.8059(6) 0.4181(2) 0.33051(19)
H5 H 0.7970 0.4584 0.3551
C21 C 0.8151(6) 0.3488(2) 0.35267(18)
C22 C 0.8243(7) 0.3076(2) 0.29894(19)
C23 C 0.8245(6) 0.2356(2) 0.3044(2)
C24 C 0.8245(6) 0.2018(2) 0.36287(19)
C25 C 0.8258(7) 0.1322(2) 0.35390(19)
H6 H 0.8251 0.0971 0.3850
C26 C 0.8282(7) 0.1202(2) 0.2884(2)
C27 C 0.8268(6) 0.0567(2) 0.2603(2)
C28 C 0.7496(6) -0.0428(2) 0.0515(2)
C29 C 0.7274(7) -0.1139(3) 0.0571(2)
H7 H 0.7281 -0.1360 0.0961
C30 C 0.7037(8) -0.1542(3) 0.0065(2)
H8 H 0.6926 -0.2034 0.0101
C31 C 0.6970(8) -0.1196(3) -0.0495(3)
H9 H 0.6773 -0.1459 -0.0841
C32 C 0.7174(6) -0.0502(3) -0.0562(2)
H10 H 0.7114 -0.0279 -0.0949
C33 C 0.7481(6) -0.0104(2) -0.0044(2)
C34 C 0.7890(6) 0.2379(2) -0.13848(19)
C35 C 0.6264(6) 0.2387(2) -0.1634(2)
C36 C 0.6146(7) 0.2243(3) -0.2233(2)
C37 C 0.7838(7) 0.2135(2) -0.26240(18)
C38 C 0.9433(7) 0.2153(2) -0.23983(19)
C39 C 0.9527(6) 0.2264(2) -0.17912(19)
C40 C 0.7360(6) 0.5051(2) -0.04687(19)
C41 C 0.7054(7) 0.5363(2) -0.1010(2)
H11 H 0.7139 0.5092 -0.1369
C42 C 0.6616(7) 0.6073(3) -0.1049(2)
H12 H 0.6359 0.6279 -0.1426
C43 C 0.6568(6) 0.6464(2) -0.0531(2)
H13 H 0.6295 0.6947 -0.0558
C44 C 0.6901(6) 0.6181(2) 0.0026(2)
H14 H 0.6850 0.6468 0.0375
C45 C 0.7317(6) 0.5469(2) 0.00766(19)
C46 C 0.7576(6) 0.5450(2) 0.26036(18)
C47 C 0.8969(7) 0.5803(2) 0.2862(2)
C48 C 0.8527(7) 0.6382(2) 0.3232(2)
C49 C 0.6750(7) 0.6614(2) 0.3344(2)
C50 C 0.5404(7) 0.6282(2) 0.3080(2)
C51 C 0.5824(6) 0.5714(2) 0.2721(2)
C52 C 0.8099(6) 0.3168(3) 0.4143(2)
C53 C 0.7906(8) 0.3576(3) 0.4649(2)
H15 H 0.7811 0.4068 0.4607
C54 C 0.7849(9) 0.3256(3) 0.5236(2)
H16 H 0.7730 0.3528 0.5595
C55 C 0.7967(9) 0.2556(3) 0.5275(2)
H17 H 0.7983 0.2342 0.5667
C56 C 0.8064(9) 0.2139(3) 0.4772(2)
H18 H 0.8107 0.1647 0.4821
C57 C 0.8099(7) 0.2444(2) 0.41829(19)
C58 C 0.8223(6) -0.0075(2) 0.3026(2)
C59 C 0.9766(7) -0.0278(2) 0.3311(2)
C60 C 0.9701(7) -0.0807(3) 0.3749(2)
C61 C 0.8087(7) -0.1169(2) 0.3891(2)
C62 C 0.6528(6) -0.0989(2) 0.3611(2)
C63 C 0.6660(6) -0.0450(2) 0.3188(2)
N1 N 0.8327(5) 0.0979(2) 0.15346(18)
H19 H 0.8523 0.1420 0.1604
N2 N 0.8150(5) 0.17284(19) 0.02424(15)
H20 H 0.8301 0.2070 0.0492
N3 N 0.8234(5) 0.33084(19) 0.01023(15)
H21 H 0.8413 0.3012 0.0400
N4 N 0.8249(5) 0.42143(18) 0.12677(15)
H22 H 0.8505 0.3792 0.1398
N5 N 0.8253(5) 0.3501(2) 0.24813(17)
H23 H 0.8332 0.3361 0.2100
N6 N 0.8352(5) 0.18388(19) 0.26181(16)
H24 H 0.8453 0.1915 0.2219
F1 F 0.4677(4) 0.25042(15) -0.12799(12)
F2 F 0.4585(4) 0.22321(17) -0.24653(12)
F3 F 0.7768(4) 0.20089(18) -0.32203(12)
F4 F 1.1052(4) 0.20366(16) -0.27696(11)
F5 F 1.1166(4) 0.22838(16) -0.15835(12)
F6 F 1.0696(4) 0.55982(15) 0.27537(15)
F7 F 0.9878(4) 0.66939(15) 0.34740(14)
F8 F 0.6339(4) 0.71589(14) 0.36923(12)
F9 F 0.3638(4) 0.65176(16) 0.31931(15)
F10 F 0.4427(4) 0.53845(15) 0.25049(14)
F11 F 1.1324(4) 0.00854(15) 0.31879(14)
F12 F 1.1152(4) -0.09580(15) 0.40251(15)
F13 F 0.8007(5) -0.16891(15) 0.43162(14)
F14 F 0.4983(4) -0.13572(15) 0.37606(15)
F15 F 0.5108(4) -0.03087(15) 0.29170(13)
loop_
_geom_bond_atom_site_label_1
_geom_bond_atom_site_label_2
_geom_bond_site_symmetry_1
_geom_bond_site_symmetry_2
C1 C2 1_555 1_555
C2 H1 1_555 1_555
C3 C2 1_555 1_555
C4 C3 1_555 1_555
C5 C4 1_555 1_555
C6 C5 1_555 1_555
C7 C6 1_555 1_555
H2 C7 1_555 1_555
C8 C7 1_555 1_555
C9 C8 1_555 1_555
C10 C9 1_555 1_555
C11 C10 1_555 1_555
H3 C11 1_555 1_555
C12 C11 1_555 1_555
C13 C12 1_555 1_555
C14 C13 1_555 1_555
C15 C14 1_555 1_555
C16 C15 1_555 1_555
H4 C16 1_555 1_555
C17 C16 1_555 1_555
C18 C17 1_555 1_555
C19 C18 1_555 1_555
C20 C19 1_555 1_555
H5 C20 1_555 1_555
C21 C20 1_555 1_555
C22 C21 1_555 1_555
C23 C22 1_555 1_555
C24 C23 1_555 1_555
C25 C24 1_555 1_555
H6 C25 1_555 1_555
C26 C25 1_555 1_555
C27 C1 1_555 1_555
C28 C3 1_555 1_555
C29 C28 1_555 1_555
H7 C29 1_555 1_555
C30 C29 1_555 1_555
H8 C30 1_555 1_555
C31 C30 1_555 1_555
H9 C31 1_555 1_555
C32 C31 1_555 1_555
H10 C32 1_555 1_555
C33 C6 1_555 1_555
C34 C9 1_555 1_555
C35 C34 1_555 1_555
C36 C35 1_555 1_555
C37 C36 1_555 1_555
C38 C37 1_555 1_555
C39 C34 1_555 1_555
C40 C12 1_555 1_555
C41 C40 1_555 1_555
H11 C41 1_555 1_555
C42 C41 1_555 1_555
H12 C42 1_555 1_555
C43 C42 1_555 1_555
H13 C43 1_555 1_555
C44 C43 1_555 1_555
H14 C44 1_555 1_555
C45 C15 1_555 1_555
C46 C18 1_555 1_555
C47 C46 1_555 1_555
C48 C47 1_555 1_555
C49 C48 1_555 1_555
C50 C49 1_555 1_555
C51 C46 1_555 1_555
C52 C21 1_555 1_555
C53 C52 1_555 1_555
H15 C53 1_555 1_555
C54 C53 1_555 1_555
H16 C54 1_555 1_555
C55 C54 1_555 1_555
H17 C55 1_555 1_555
C56 C55 1_555 1_555
H18 C56 1_555 1_555
C57 C24 1_555 1_555
C58 C27 1_555 1_555
C59 C58 1_555 1_555
C60 C59 1_555 1_555
C61 C60 1_555 1_555
C62 C61 1_555 1_555
C63 C58 1_555 1_555
N1 C1 1_555 1_555
H19 N1 1_555 1_555
N2 C5 1_555 1_555
H20 N2 1_555 1_555
N3 C10 1_555 1_555
H21 N3 1_555 1_555
N4 C14 1_555 1_555
H22 N4 1_555 1_555
N5 C19 1_555 1_555
H23 N5 1_555 1_555
N6 C23 1_555 1_555
H24 N6 1_555 1_555
F1 C35 1_555 1_555
F2 C36 1_555 1_555
F3 C37 1_555 1_555
F4 C38 1_555 1_555
F5 C39 1_555 1_555
F6 C47 1_555 1_555
F7 C48 1_555 1_555
F8 C49 1_555 1_555
F9 C50 1_555 1_555
F10 C51 1_555 1_555
F11 C59 1_555 1_555
F12 C60 1_555 1_555
F13 C61 1_555 1_555
F14 C62 1_555 1_555
F15 C63 1_555 1_555
C4 N1 1_555 1_555
C8 N2 1_555 1_555
C13 N3 1_555 1_555
C17 N4 1_555 1_555
C22 N5 1_555 1_555
C26 C27 1_555 1_555
C26 N6 1_555 1_555
C28 C33 1_555 1_555
C32 C33 1_555 1_555
C38 C39 1_555 1_555
C40 C45 1_555 1_555
C44 C45 1_555 1_555
C50 C51 1_555 1_555
C52 C57 1_555 1_555
C56 C57 1_555 1_555
C62 C63 1_555 1_555

#END
