
#######################################################################
#
#                 Cambridge Crystallographic Data Centre
#                                CCDC 
#
#######################################################################
#
# If this CIF has been generated from an entry in the Cambridge 
# Structural Database, then it will include bibliographic, chemical, 
# crystal, experimental, refinement or atomic coordinate data resulting 
# from the CCDC's data processing and validation procedures.
#
#######################################################################

data_NEJVIK
_chemical_formula_moiety         'C34 H33 Br1 N2 O5,0.5(C1 H2 Cl2)'
_chemical_name_systematic        
"t-butyl (2-((1'R,8a'S)-1-benzyl-5-bromo-2,3'-dioxo-3',5',6',7',8',8a'-hexahydrospiro[indoline-3,1'-isochromen]-4'-yl)phenyl)carbamate dichloromethane unknown solvate"
_symmetry_cell_setting           tetragonal
_symmetry_space_group_name_H-M   'P 41 21 2'
_symmetry_Int_Tables_number      92
_space_group_name_Hall           'P 4abw 2nw'
loop_
_symmetry_equiv_pos_site_id
_symmetry_equiv_pos_as_xyz
1 x,y,z
2 -x,-y,1/2+z
3 1/2-y,1/2+x,1/4+z
4 1/2+y,1/2-x,3/4+z
5 1/2-x,1/2+y,1/4-z
6 1/2+x,1/2-y,3/4-z
7 y,x,-z
8 -y,-x,1/2-z
_cell_length_a                   18.4615(17)
_cell_length_b                   18.4615(17)
_cell_length_c                   20.695(2)
_cell_angle_alpha                90
_cell_angle_beta                 90
_cell_angle_gamma                90
_cell_volume                     7053.41
_exptl_crystal_colour            colorless
_exptl_crystal_description       prism
_chemical_melting_point          '470 K'
_cell_formula_units_Z            8
loop_
_atom_site_label
_atom_site_type_symbol
_atom_site_fract_x
_atom_site_fract_y
_atom_site_fract_z
C1 C 0.8084(4) 0.8449(4) 0.4129(3)
C2 C 0.7666(4) 0.7818(3) 0.4177(3)
H1 H 0.7192 0.7830 0.4355
C3 C 0.7964(3) 0.7182(3) 0.3956(3)
C4 C 0.8663(3) 0.7169(4) 0.3717(3)
C5 C 0.9078(4) 0.7791(4) 0.3661(3)
H2 H 0.9555 0.7779 0.3488
C6 C 0.8764(5) 0.8426(4) 0.3869(4)
H3 H 0.9030 0.8865 0.3830
C7 C 0.9587(4) 0.6198(4) 0.3403(3)
H4 H 0.9776 0.6518 0.3058
H5 H 0.9554 0.5702 0.3224
C8 C 1.0125(3) 0.6198(3) 0.3974(3)
C9 C 0.9891(4) 0.6170(5) 0.4604(3)
H6 H 0.9386 0.6166 0.4692
C10 C 1.0375(4) 0.6146(5) 0.5112(3)
H7 H 1.0205 0.6145 0.5545
C11 C 1.1111(3) 0.6124(4) 0.4986(3)
H8 H 1.1450 0.6078 0.5329
C12 C 1.1349(3) 0.6170(4) 0.4348(3)
H9 H 1.1853 0.6166 0.4255
C13 C 1.0849(3) 0.6221(3) 0.3848(3)
H10 H 1.1014 0.6273 0.3416
C14 C 0.8345(3) 0.5972(4) 0.3770(3)
C15 C 0.7672(3) 0.6421(3) 0.3952(3)
C16 C 0.7051(3) 0.6277(3) 0.3468(2)
H11 H 0.7284 0.6221 0.3034
C17 C 0.6478(3) 0.6851(3) 0.3393(3)
H12 H 0.6708 0.7315 0.3267
H13 H 0.6228 0.6925 0.3811
C18 C 0.5935(4) 0.6630(4) 0.2884(4)
H14 H 0.6177 0.6618 0.2457
H15 H 0.5545 0.6998 0.2863
C19 C 0.5600(4) 0.5894(4) 0.3017(4)
H16 H 0.5273 0.5760 0.2657
H17 H 0.5308 0.5917 0.3418
C20 C 0.6194(3) 0.5319(4) 0.3089(3)
H18 H 0.5977 0.4845 0.3202
H19 H 0.6464 0.5265 0.2679
C21 C 0.6689(3) 0.5564(3) 0.3613(3)
C22 C 0.6752(3) 0.5255(3) 0.4198(2)
C23 C 0.7099(4) 0.5645(3) 0.4728(3)
C24 C 0.6420(3) 0.4536(3) 0.4382(3)
C25 C 0.5674(4) 0.4466(4) 0.4489(3)
H20 H 0.5375 0.4881 0.4435
C26 C 0.5358(4) 0.3836(4) 0.4666(4)
H21 H 0.4847 0.3800 0.4709
C27 C 0.5811(4) 0.3227(4) 0.4786(4)
H22 H 0.5603 0.2787 0.4937
C28 C 0.6546(3) 0.3269(3) 0.4687(3)
H23 H 0.6844 0.2857 0.4761
C29 C 0.6857(3) 0.3925(3) 0.4475(3)
C30 C 0.8134(3) 0.3501(3) 0.4433(3)
C31 C 0.9418(3) 0.3504(4) 0.4107(3)
C32 C 0.9658(5) 0.2848(6) 0.4431(6)
H24 H 0.9796 0.2963 0.4877
H25 H 1.0077 0.2647 0.4202
H26 H 0.9265 0.2492 0.4433
C33 C 0.9977(5) 0.4148(5) 0.4167(5)
H27 H 0.9794 0.4569 0.3930
H28 H 1.0444 0.3998 0.3985
H29 H 1.0039 0.4275 0.4623
C34 C 0.9198(6) 0.3398(8) 0.3401(4)
H30 H 0.9029 0.3860 0.3222
H31 H 0.8807 0.3039 0.3376
H32 H 0.9616 0.3227 0.3153
N1 N 0.8874(3) 0.6439(3) 0.3583(2)
N2 N 0.7615(2) 0.4004(3) 0.4387(2)
H33 H 0.7764 0.4444 0.4288
O1 O 0.8395(2) 0.5309(3) 0.3784(3)
O2 O 0.7467(2) 0.6255(2) 0.46089(18)
O3 O 0.7060(4) 0.5452(3) 0.5286(2)
O4 O 0.8061(3) 0.2867(3) 0.4530(3)
O5 O 0.8783(2) 0.3850(3) 0.4420(3)
Br1 Br 0.76965(6) 0.93236(4) 0.44517(4)
C35 C 0.8694(10) 0.2385(8) 0.1284(7)
H34 H 0.8889 0.2480 0.0847
H35 H 0.8163 0.2458 0.1265
Cl1 Cl 0.9036(3) 0.2985(3) 0.17810(19)
Cl2 Cl 0.8865(3) 0.1445(2) 0.1480(2)
loop_
_geom_bond_atom_site_label_1
_geom_bond_atom_site_label_2
_geom_bond_site_symmetry_1
_geom_bond_site_symmetry_2
C1 C2 1_555 1_555
C2 H1 1_555 1_555
C3 C2 1_555 1_555
C4 C3 1_555 1_555
C5 C4 1_555 1_555
H2 C5 1_555 1_555
C6 C1 1_555 1_555
H3 C6 1_555 1_555
C7 H4 1_555 1_555
H5 C7 1_555 1_555
C8 C7 1_555 1_555
C9 C8 1_555 1_555
H6 C9 1_555 1_555
C10 C9 1_555 1_555
H7 C10 1_555 1_555
C11 C10 1_555 1_555
H8 C11 1_555 1_555
C12 C11 1_555 1_555
H9 C12 1_555 1_555
C13 C8 1_555 1_555
H10 C13 1_555 1_555
C14 C15 1_555 1_555
C15 C3 1_555 1_555
C16 C15 1_555 1_555
H11 C16 1_555 1_555
C17 C16 1_555 1_555
H12 C17 1_555 1_555
H13 C17 1_555 1_555
C18 C17 1_555 1_555
H14 C18 1_555 1_555
H15 C18 1_555 1_555
C19 C18 1_555 1_555
H16 C19 1_555 1_555
H17 C19 1_555 1_555
C20 C19 1_555 1_555
H18 C20 1_555 1_555
H19 C20 1_555 1_555
C21 C16 1_555 1_555
C22 C21 1_555 1_555
C23 C22 1_555 1_555
C24 C22 1_555 1_555
C25 C24 1_555 1_555
H20 C25 1_555 1_555
C26 C25 1_555 1_555
H21 C26 1_555 1_555
C27 C26 1_555 1_555
H22 C27 1_555 1_555
C28 C27 1_555 1_555
H23 C28 1_555 1_555
C29 C24 1_555 1_555
C30 N2 1_555 1_555
C31 C32 1_555 1_555
C32 H24 1_555 1_555
H25 C32 1_555 1_555
H26 C32 1_555 1_555
C33 C31 1_555 1_555
H27 C33 1_555 1_555
H28 C33 1_555 1_555
H29 C33 1_555 1_555
C34 C31 1_555 1_555
H30 C34 1_555 1_555
H31 C34 1_555 1_555
H32 C34 1_555 1_555
N1 C4 1_555 1_555
N2 C29 1_555 1_555
H33 N2 1_555 1_555
O1 C14 1_555 1_555
O2 C15 1_555 1_555
O3 C23 1_555 1_555
O4 C30 1_555 1_555
O5 C30 1_555 1_555
Br1 C1 1_555 1_555
C35 H34 1_555 1_555
H35 C35 1_555 1_555
Cl1 C35 1_555 1_555
Cl2 C35 1_555 1_555
C5 C6 1_555 1_555
C7 N1 1_555 1_555
C12 C13 1_555 1_555
C14 N1 1_555 1_555
C20 C21 1_555 1_555
C23 O2 1_555 1_555
C28 C29 1_555 1_555
C31 O5 1_555 1_555

#END
