
#######################################################################
#
#                 Cambridge Crystallographic Data Centre
#                                CCDC 
#
#######################################################################
#
# If this CIF has been generated from an entry in the Cambridge 
# Structural Database, then it will include bibliographic, chemical, 
# crystal, experimental, refinement or atomic coordinate data resulting 
# from the CCDC's data processing and validation procedures.
#
#######################################################################

data_NEJWUX
_chemical_formula_moiety         'C22 H17 F3 O2 S1'
_chemical_name_systematic        
2-({4-(4-methoxyphenyl)-2-[(trifluoromethyl)sulfanyl]buta-2,3-dien-1-yl}oxy)naphthalene
_symmetry_cell_setting           orthorhombic
_symmetry_space_group_name_H-M   'P b c a'
_symmetry_Int_Tables_number      61
_space_group_name_Hall           '-P 2ac 2ab'
loop_
_symmetry_equiv_pos_site_id
_symmetry_equiv_pos_as_xyz
1 x,y,z
2 1/2-x,-y,1/2+z
3 -x,1/2+y,1/2-z
4 1/2+x,1/2-y,-z
5 -x,-y,-z
6 1/2+x,y,1/2-z
7 x,1/2-y,1/2+z
8 1/2-x,1/2+y,z
_cell_length_a                   22.2516(9)
_cell_length_b                   7.6047(3)
_cell_length_c                   22.4706(12)
_cell_angle_alpha                90
_cell_angle_beta                 90
_cell_angle_gamma                90
_cell_volume                     3802.4
_exptl_crystal_colour            colorless
_exptl_crystal_description       block
_cell_formula_units_Z            8
loop_
_atom_site_label
_atom_site_type_symbol
_atom_site_fract_x
_atom_site_fract_y
_atom_site_fract_z
S1 S 0.64817(3) 0.34775(9) 0.42296(3)
F1 F 0.75624(7) 0.3832(3) 0.46447(8)
F2 F 0.69037(7) 0.4970(2) 0.51946(6)
F3 F 0.69759(9) 0.2165(2) 0.51424(8)
O1 O 0.55628(7) 0.6497(2) 0.44007(7)
O2 O 0.63153(8) 0.5959(2) 0.06402(7)
C1 C 0.48682(9) 0.6900(3) 0.23321(10)
H1 H 0.522148 0.744884 0.221193
C2 C 0.44306(10) 0.6563(3) 0.19221(11)
H2 H 0.448927 0.687637 0.152626
C3 C 0.38917(10) 0.5745(3) 0.20950(12)
H3 H 0.359554 0.551556 0.181345
C4 C 0.38028(9) 0.5288(3) 0.26742(12)
H4 H 0.344357 0.475530 0.278499
C5 C 0.42479(9) 0.5611(3) 0.31104(11)
C6 C 0.47938(9) 0.6431(3) 0.29347(10)
C7 C 0.52471(9) 0.6739(3) 0.33648(10)
H5 H 0.560431 0.728199 0.325319
C8 C 0.51621(10) 0.6243(3) 0.39425(10)
C9 C 0.46209(11) 0.5424(3) 0.41195(12)
H6 H 0.456701 0.508831 0.451385
C10 C 0.41796(10) 0.5126(3) 0.37151(12)
H7 H 0.382453 0.459265 0.383775
C11 C 0.61556(10) 0.7061(3) 0.42555(11)
H8 H 0.636163 0.739936 0.461834
H9 H 0.613075 0.809289 0.400272
C12 C 0.65203(10) 0.5668(3) 0.39416(10)
C13 C 0.68502(10) 0.5964(3) 0.34724(11)
C14 C 0.71621(10) 0.6307(3) 0.29951(11)
H10 H 0.755176 0.672053 0.304775
C15 C 0.69480(9) 0.6092(3) 0.23811(10)
C16 C 0.72731(10) 0.6798(3) 0.19063(11)
H11 H 0.764128 0.733623 0.197830
C17 C 0.70567(10) 0.6709(3) 0.13335(11)
H12 H 0.727839 0.719008 0.102269
C18 C 0.65093(10) 0.5905(3) 0.12172(10)
C19 C 0.61926(10) 0.5140(3) 0.16804(10)
H13 H 0.583311 0.455686 0.160479
C20 C 0.64106(10) 0.5242(3) 0.22525(11)
H14 H 0.619297 0.473021 0.256045
C21 C 0.57488(14) 0.5181(4) 0.05139(13)
H15 H 0.565770 0.532545 0.009917
H16 H 0.544342 0.574018 0.074878
H17 H 0.576274 0.395010 0.060834
C22 C 0.70055(12) 0.3643(3) 0.48261(12)
loop_
_geom_bond_atom_site_label_1
_geom_bond_atom_site_label_2
_geom_bond_site_symmetry_1
_geom_bond_site_symmetry_2
S1 C12 1_555 1_555
F1 C22 1_555 1_555
F2 C22 1_555 1_555
F3 C22 1_555 1_555
O1 C8 1_555 1_555
O2 C18 1_555 1_555
C1 H1 1_555 1_555
C2 C1 1_555 1_555
H2 C2 1_555 1_555
C3 C2 1_555 1_555
H3 C3 1_555 1_555
C4 C3 1_555 1_555
H4 C4 1_555 1_555
C5 C4 1_555 1_555
C6 C1 1_555 1_555
C7 C6 1_555 1_555
H5 C7 1_555 1_555
C8 C7 1_555 1_555
C9 C8 1_555 1_555
H6 C9 1_555 1_555
C10 C5 1_555 1_555
H7 C10 1_555 1_555
C11 O1 1_555 1_555
H8 C11 1_555 1_555
H9 C11 1_555 1_555
C12 C11 1_555 1_555
C13 C12 1_555 1_555
C14 C13 1_555 1_555
H10 C14 1_555 1_555
C15 C14 1_555 1_555
C16 C15 1_555 1_555
H11 C16 1_555 1_555
C17 C16 1_555 1_555
H12 C17 1_555 1_555
C18 C17 1_555 1_555
C19 C18 1_555 1_555
H13 C19 1_555 1_555
C20 C15 1_555 1_555
H14 C20 1_555 1_555
C21 O2 1_555 1_555
H15 C21 1_555 1_555
H16 C21 1_555 1_555
H17 C21 1_555 1_555
C22 S1 1_555 1_555
C5 C6 1_555 1_555
C9 C10 1_555 1_555
C19 C20 1_555 1_555

#END
