
#######################################################################
#
#                 Cambridge Crystallographic Data Centre
#                                CCDC 
#
#######################################################################
#
# If this CIF has been generated from an entry in the Cambridge 
# Structural Database, then it will include bibliographic, chemical, 
# crystal, experimental, refinement or atomic coordinate data resulting 
# from the CCDC's data processing and validation procedures.
#
#######################################################################

data_NEJYIN
_chemical_formula_moiety         'C20 H19 N1 O6'
_chemical_name_systematic        
'dimethyl (4-benzyl-2-oxo-3,4-dihydro-2H-1,4-benzoxazin-3-yl)propanedioate'
_symmetry_cell_setting           monoclinic
_symmetry_space_group_name_H-M   'P 21/n'
_symmetry_Int_Tables_number      14
_space_group_name_Hall           '-P 2yn'
loop_
_symmetry_equiv_pos_site_id
_symmetry_equiv_pos_as_xyz
1 x,y,z
2 1/2-x,1/2+y,1/2-z
3 -x,-y,-z
4 1/2+x,1/2-y,1/2+z
_cell_length_a                   12.0961(10)
_cell_length_b                   6.1539(4)
_cell_length_c                   24.5255(17)
_cell_angle_alpha                90
_cell_angle_beta                 95.213(7)
_cell_angle_gamma                90
_cell_volume                     1818.08
_exptl_crystal_colour            colorless
_exptl_crystal_description       needle
_cell_formula_units_Z            4
loop_
_atom_site_label
_atom_site_type_symbol
_atom_site_fract_x
_atom_site_fract_y
_atom_site_fract_z
O1 O 0.3591(2) 0.2783(3) 0.09395(9)
O2 O 0.3653(2) 0.3119(3) 0.00513(9)
O3 O 0.3106(2) 0.8204(3) -0.04312(9)
O4 O 0.1581(2) 0.9488(4) -0.00685(9)
O5 O 0.1598(2) 0.7983(4) 0.12131(10)
O6 O 0.1579(2) 0.5229(3) 0.06089(10)
N1 N 0.4690(2) 0.6605(4) 0.10907(10)
C1 C 0.4283(3) 0.5655(5) 0.15487(12)
C2 C 0.4453(3) 0.6436(5) 0.20839(13)
H1 H 0.4844 0.7720 0.2157
C3 C 0.4037(3) 0.5294(6) 0.25042(14)
H2 H 0.4162 0.5815 0.2860
C4 C 0.3440(3) 0.3397(6) 0.24091(14)
H3 H 0.3158 0.2664 0.2698
C5 C 0.3267(3) 0.2593(5) 0.18800(13)
H4 H 0.2870 0.1314 0.1808
C6 C 0.3694(3) 0.3730(5) 0.14647(13)
C7 C 0.3728(3) 0.4010(5) 0.04890(13)
C8 C 0.3986(3) 0.6397(5) 0.05830(12)
H5 H 0.4432 0.6854 0.0289
C9 C 0.5432(3) 0.8474(5) 0.11536(13)
H6 H 0.5085 0.9607 0.1354
H7 H 0.5552 0.9042 0.0795
C10 C 0.6542(3) 0.7883(5) 0.14553(13)
C11 C 0.7041(3) 0.5910(5) 0.13727(14)
H8 H 0.6679 0.4891 0.1140
C12 C 0.8075(3) 0.5437(6) 0.16336(16)
H9 H 0.8400 0.4092 0.1582
C13 C 0.8626(3) 0.6966(7) 0.19720(15)
H10 H 0.9325 0.6654 0.2144
C14 C 0.8140(3) 0.8949(7) 0.20541(15)
H11 H 0.8511 0.9981 0.2280
C15 C 0.7092(3) 0.9398(6) 0.17980(14)
H12 H 0.6757 1.0728 0.1857
C16 C 0.2937(3) 0.7876(5) 0.05434(13)
H13 H 0.3174 0.9236 0.0726
C17 C 0.2567(3) 0.8500(5) -0.00487(14)
C18 C 0.1202(4) 1.0467(6) -0.05930(16)
H14 H 0.1222 0.9401 -0.0878
H15 H 0.1679 1.1660 -0.0665
H16 H 0.0456 1.0986 -0.0582
C19 C 0.1970(3) 0.7084(5) 0.08347(14)
C20 C 0.0693(4) 0.4157(7) 0.0866(2)
H17 H 0.0620 0.2687 0.0736
H18 H 0.0008 0.4920 0.0776
H19 H 0.0863 0.4154 0.1256
loop_
_geom_bond_atom_site_label_1
_geom_bond_atom_site_label_2
_geom_bond_site_symmetry_1
_geom_bond_site_symmetry_2
O1 C6 1_555 1_555
O2 C7 1_555 1_555
O3 C17 1_555 1_555
O4 C17 1_555 1_555
O5 C19 1_555 1_555
O6 C19 1_555 1_555
N1 C1 1_555 1_555
C1 C2 1_555 1_555
C2 H1 1_555 1_555
C3 C2 1_555 1_555
H2 C3 1_555 1_555
C4 C3 1_555 1_555
H3 C4 1_555 1_555
C5 C4 1_555 1_555
H4 C5 1_555 1_555
C6 C1 1_555 1_555
C7 O1 1_555 1_555
C8 N1 1_555 1_555
H5 C8 1_555 1_555
C9 N1 1_555 1_555
H6 C9 1_555 1_555
H7 C9 1_555 1_555
C10 C9 1_555 1_555
C11 C10 1_555 1_555
H8 C11 1_555 1_555
C12 C11 1_555 1_555
H9 C12 1_555 1_555
C13 C12 1_555 1_555
H10 C13 1_555 1_555
C14 C13 1_555 1_555
H11 C14 1_555 1_555
C15 C10 1_555 1_555
H12 C15 1_555 1_555
C16 C8 1_555 1_555
H13 C16 1_555 1_555
C17 C16 1_555 1_555
C18 O4 1_555 1_555
H14 C18 1_555 1_555
H15 C18 1_555 1_555
H16 C18 1_555 1_555
C19 C16 1_555 1_555
C20 O6 1_555 1_555
H17 C20 1_555 1_555
H18 C20 1_555 1_555
H19 C20 1_555 1_555
C5 C6 1_555 1_555
C7 C8 1_555 1_555
C14 C15 1_555 1_555

#END
