
#######################################################################
#
#                 Cambridge Crystallographic Data Centre
#                                CCDC 
#
#######################################################################
#
# If this CIF has been generated from an entry in the Cambridge 
# Structural Database, then it will include bibliographic, chemical, 
# crystal, experimental, refinement or atomic coordinate data resulting 
# from the CCDC's data processing and validation procedures.
#
#######################################################################

data_NEKFAN
_chemical_formula_moiety         'C16 H17 N1 O2 S1 1+,B1 F4 1-'
_chemical_name_systematic        
'N-ethyl-3,7-dimethoxyphenothiazine tetrafluoroborate'
_symmetry_cell_setting           orthorhombic
_symmetry_space_group_name_H-M   'P n n a'
_symmetry_Int_Tables_number      52
_space_group_name_Hall           '-P 2a 2bc'
loop_
_symmetry_equiv_pos_site_id
_symmetry_equiv_pos_as_xyz
1 x,y,z
2 1/2-x,-y,z
3 1/2-x,1/2+y,1/2-z
4 x,1/2-y,1/2-z
5 -x,-y,-z
6 1/2+x,y,-z
7 1/2+x,1/2-y,1/2+z
8 -x,1/2+y,1/2+z
_cell_length_a                   19.7328(3)
_cell_length_b                   22.3196(3)
_cell_length_c                   7.4299(1)
_cell_angle_alpha                90
_cell_angle_beta                 90
_cell_angle_gamma                90
_cell_volume                     3272.34
_exptl_crystal_colour            'blue green'
_exptl_crystal_description       lath
_cell_formula_units_Z            4
loop_
_atom_site_label
_atom_site_type_symbol
_atom_site_fract_x
_atom_site_fract_y
_atom_site_fract_z
N1 N 0.52875(9) 0.63682(7) 0.4225(2)
S1 S 0.37090(3) 0.63837(2) 0.41640(8)
O1 O 0.40286(10) 0.43275(7) 0.1487(2)
O2 O 0.40754(9) 0.85502(7) 0.5882(2)
C1 C 0.49577(11) 0.58678(9) 0.3529(3)
C2 C 0.53294(12) 0.53668(10) 0.2884(3)
H1 H 0.5811 0.5376 0.2909
C3 C 0.50043(14) 0.48696(10) 0.2226(3)
H2 H 0.5265 0.4539 0.1809
C4 C 0.42972(12) 0.48397(10) 0.2157(3)
C5 C 0.39215(12) 0.53195(10) 0.2759(3)
H3 H 0.3441 0.5305 0.2718
C6 C 0.42485(11) 0.58267(9) 0.3431(3)
C7 C 0.42558(11) 0.69711(9) 0.4595(3)
C8 C 0.39404(11) 0.75119(10) 0.5014(3)
H4 H 0.3460 0.7541 0.5008
C9 C 0.43295(12) 0.80058(9) 0.5439(3)
C10 C 0.50349(12) 0.79582(10) 0.5422(3)
H5 H 0.5304 0.8299 0.5697
C11 C 0.53442(11) 0.74265(10) 0.5016(3)
H6 H 0.5825 0.7405 0.5013
C12 C 0.49635(10) 0.69097(9) 0.4600(2)
C13 C 0.60291(11) 0.6329(1) 0.4529(3)
H7 H 0.6149 0.5911 0.4836
H8 H 0.6153 0.6585 0.5565
C14 C 0.64334(13) 0.65228(12) 0.2898(4)
H9 H 0.6918 0.6481 0.3152
H10 H 0.6331 0.6942 0.2618
H11 H 0.6313 0.6270 0.1867
C15 C 0.32938(14) 0.42915(12) 0.1382(4)
H12 H 0.3161 0.3891 0.0969
H13 H 0.3126 0.4593 0.0533
H14 H 0.3099 0.4366 0.2575
C16 C 0.33528(15) 0.86102(11) 0.5943(4)
H15 H 0.3234 0.9021 0.6289
H16 H 0.3167 0.8329 0.6828
H17 H 0.3163 0.8522 0.4754
B1 B 0.2500 0.5000 0.6324(5)
F1 F 0.25013(9) 0.55035(8) 0.5272(2)
F2 F 0.30690(9) 0.49916(8) 0.7376(3)
F1A F 0.24987(9) 0.44965(8) 0.5272(2)
F2A F 0.19310(9) 0.50084(8) 0.7376(3)
B2? B 0.2120(7) 0.7526(7) 0.267(2)
F3? F 0.1509(7) 0.7269(8) 0.218(3)
F4? F 0.2663(8) 0.7177(8) 0.215(2)
F5? F 0.2119(9) 0.7605(9) 0.4508(19)
F6? F 0.2176(9) 0.8068(6) 0.178(3)
B3? B 0.2086(6) 0.7488(6) 0.2905(16)
F7? F 0.1790(7) 0.7020(7) 0.195(2)
F8? F 0.2288(6) 0.7281(6) 0.4575(14)
F9? F 0.1585(10) 0.7921(9) 0.305(3)
F10? F 0.2645(7) 0.7697(5) 0.198(2)
B4? B 0.2117(6) 0.7500 0.2500
F11? F 0.1912(7) 0.7184(5) 0.1008(14)
F12? F 0.2340(6) 0.7122(5) 0.3886(14)
F13? F 0.1615(10) 0.7848(9) 0.332(3)
F14? F 0.2604(6) 0.7922(5) 0.215(2)
loop_
_geom_bond_atom_site_label_1
_geom_bond_atom_site_label_2
_geom_bond_site_symmetry_1
_geom_bond_site_symmetry_2
N1 C1 1_555 1_555
S1 C6 1_555 1_555
O1 C4 1_555 1_555
O2 C9 1_555 1_555
C1 C2 1_555 1_555
C2 H1 1_555 1_555
C3 C2 1_555 1_555
H2 C3 1_555 1_555
C4 C3 1_555 1_555
C5 C4 1_555 1_555
H3 C5 1_555 1_555
C6 C1 1_555 1_555
C7 S1 1_555 1_555
C8 C7 1_555 1_555
H4 C8 1_555 1_555
C9 C8 1_555 1_555
C10 C9 1_555 1_555
H5 C10 1_555 1_555
C11 C10 1_555 1_555
H6 C11 1_555 1_555
C12 N1 1_555 1_555
C13 N1 1_555 1_555
H7 C13 1_555 1_555
H8 C13 1_555 1_555
C14 C13 1_555 1_555
H9 C14 1_555 1_555
H10 C14 1_555 1_555
H11 C14 1_555 1_555
C15 O1 1_555 1_555
H12 C15 1_555 1_555
H13 C15 1_555 1_555
H14 C15 1_555 1_555
C16 O2 1_555 1_555
H15 C16 1_555 1_555
H16 C16 1_555 1_555
H17 C16 1_555 1_555
B1 F1 1_555 1_555
F2 B1 1_555 1_555
F1A B1 1_555 1_555
F2A B1 1_555 1_555
C5 C6 1_555 1_555
C7 C12 1_555 1_555
C11 C12 1_555 1_555

#END
