
#######################################################################
#
#                 Cambridge Crystallographic Data Centre
#                                CCDC 
#
#######################################################################
#
# If this CIF has been generated from an entry in the Cambridge 
# Structural Database, then it will include bibliographic, chemical, 
# crystal, experimental, refinement or atomic coordinate data resulting 
# from the CCDC's data processing and validation procedures.
#
#######################################################################

data_NEKFUH
_chemical_formula_moiety         'C44 H46 Mg1 O2 Si2,C4 H8 O1'
_chemical_name_systematic        
'bis(tetrahydrofuran)-bis(triphenylsilyl)-magnesium(ii) tetrahydrofuran solvate'
_symmetry_cell_setting           orthorhombic
_symmetry_space_group_name_H-M   'P c c n'
_symmetry_Int_Tables_number      56
_space_group_name_Hall           '-P 2ab 2ac'
loop_
_symmetry_equiv_pos_site_id
_symmetry_equiv_pos_as_xyz
1 x,y,z
2 1/2-x,1/2-y,z
3 1/2+x,-y,1/2-z
4 -x,1/2+y,1/2-z
5 -x,-y,-z
6 1/2+x,1/2+y,-z
7 1/2-x,y,1/2+z
8 x,1/2-y,1/2+z
_cell_length_a                   13.1554(10)
_cell_length_b                   17.7399(13)
_cell_length_c                   18.2837(14)
_cell_angle_alpha                90
_cell_angle_beta                 90
_cell_angle_gamma                90
_cell_volume                     4266.97
_exptl_crystal_colour            colorless
_exptl_crystal_description       block
_cell_formula_units_Z            4
_chemical_properties_physical    
Air-sensitive,Moisture-sensitive,Oxygen-sensitive
_exptl_crystal_recrystallization_method tetrahydrofuran/n-pentane
loop_
_atom_site_label
_atom_site_type_symbol
_atom_site_fract_x
_atom_site_fract_y
_atom_site_fract_z
Si1 Si 0.83931(9) 0.36523(7) 0.82130(7)
Mg1 Mg 0.7500 0.2500 0.75234(11)
O1 O 0.8431(2) 0.20318(17) 0.67667(16)
C1 C 0.8670(3) 0.4506(2) 0.7615(2)
C2 C 0.7906(4) 0.4977(3) 0.7362(3)
H1 H 0.7232 0.4889 0.7527
C3 C 0.8073(4) 0.5564(3) 0.6887(3)
H2 H 0.7522 0.5870 0.6730
C4 C 0.9033(4) 0.5705(3) 0.6642(3)
H3 H 0.9160 0.6118 0.6323
C5 C 0.9821(4) 0.5240(3) 0.6862(3)
H4 H 1.0490 0.5322 0.6682
C6 C 0.9633(4) 0.4658(3) 0.7343(3)
H5 H 1.0184 0.4349 0.7493
C7 C 0.9628(3) 0.3518(2) 0.8738(2)
C8 C 1.0140(4) 0.2843(3) 0.8769(4)
H6 H 0.9873 0.2421 0.8514
C9 C 1.1047(5) 0.2757(3) 0.9167(4)
H7 H 1.1387 0.2285 0.9168
C10 C 1.1444(4) 0.3348(3) 0.9552(3)
H8 H 1.2038 0.3284 0.9841
C11 C 1.0974(3) 0.4027(3) 0.9514(3)
H9 H 1.1259 0.4448 0.9760
C12 C 1.0079(3) 0.4111(2) 0.9119(2)
H10 H 0.9762 0.4592 0.9107
C13 C 0.7474(3) 0.4013(3) 0.8939(2)
C14 C 0.7435(4) 0.4761(3) 0.9181(3)
H11 H 0.7860 0.5130 0.8962
C15 C 0.6765(4) 0.4970(4) 0.9751(3)
H12 H 0.6756 0.5478 0.9916
C16 C 0.6134(4) 0.4456(4) 1.0067(3)
H13 H 0.5691 0.4604 1.0452
C17 C 0.6142(5) 0.3716(3) 0.9825(3)
H14 H 0.5695 0.3355 1.0033
C18 C 0.6808(4) 0.3510(3) 0.9275(3)
H15 H 0.6812 0.2999 0.9119
C19 C 0.9445(5) 0.1863(5) 0.6898(5)
H16 H 0.9511 0.1575 0.7360
H17 H 0.9845 0.2333 0.6945
C20 C 0.9832(5) 0.1405(4) 0.6273(5)
H18 H 1.0325 0.1020 0.6439
H19 H 1.0157 0.1728 0.5898
C21 C 0.8883(5) 0.1050(4) 0.5988(4)
H20 H 0.8939 0.0951 0.5457
H21 H 0.8743 0.0569 0.6244
C22 C 0.8065(5) 0.1609(4) 0.6138(3)
H22 H 0.7962 0.1945 0.5712
H23 H 0.7416 0.1352 0.6252
Si1A Si 0.66069(9) 0.13477(7) 0.82130(7)
O1A O 0.6569(2) 0.29682(17) 0.67667(16)
C1A C 0.6330(3) 0.0494(2) 0.7615(2)
C2A C 0.7094(4) 0.0023(3) 0.7362(3)
H1A H 0.7768 0.0111 0.7527
C3A C 0.6927(4) -0.0564(3) 0.6887(3)
H2A H 0.7478 -0.0870 0.6730
C4A C 0.5967(4) -0.0705(3) 0.6642(3)
H3A H 0.5840 -0.1118 0.6323
C5A C 0.5179(4) -0.0240(3) 0.6862(3)
H4A H 0.4510 -0.0322 0.6682
C6A C 0.5367(4) 0.0342(3) 0.7343(3)
H5A H 0.4816 0.0651 0.7493
C7A C 0.5372(3) 0.1482(2) 0.8738(2)
C8A C 0.4860(4) 0.2157(3) 0.8769(4)
H6A H 0.5127 0.2579 0.8514
C9A C 0.3953(5) 0.2243(3) 0.9167(4)
H7A H 0.3613 0.2715 0.9168
C10A C 0.3556(4) 0.1652(3) 0.9552(3)
H8A H 0.2962 0.1716 0.9841
C11A C 0.4026(3) 0.0973(3) 0.9514(3)
H9A H 0.3741 0.0552 0.9760
C12A C 0.4921(3) 0.0889(2) 0.9119(2)
H10A H 0.5238 0.0408 0.9107
C13A C 0.7526(3) 0.0987(3) 0.8939(2)
C14A C 0.7565(4) 0.0239(3) 0.9181(3)
H11A H 0.7140 -0.0130 0.8962
C15A C 0.8235(4) 0.0030(4) 0.9751(3)
H12A H 0.8244 -0.0478 0.9916
C16A C 0.8866(4) 0.0544(4) 1.0067(3)
H13A H 0.9309 0.0396 1.0452
C17A C 0.8858(5) 0.1284(3) 0.9825(3)
H14A H 0.9305 0.1645 1.0033
C18A C 0.8192(4) 0.1490(3) 0.9275(3)
H15A H 0.8188 0.2001 0.9119
C19A C 0.5555(5) 0.3137(5) 0.6898(5)
H16A H 0.5489 0.3425 0.7360
H17A H 0.5155 0.2667 0.6945
C20A C 0.5168(5) 0.3595(4) 0.6273(5)
H18A H 0.4675 0.3980 0.6439
H19A H 0.4843 0.3272 0.5898
C21A C 0.6117(5) 0.3950(4) 0.5988(4)
H20A H 0.6061 0.4049 0.5457
H21A H 0.6257 0.4431 0.6244
C22A C 0.6935(5) 0.3391(4) 0.6138(3)
H22A H 0.7038 0.3055 0.5712
H23A H 0.7584 0.3648 0.6252
O2? O 0.2008(15) 0.2131(9) 0.1030(9)
C23? C 0.1558(16) 0.1797(8) 0.1670(9)
H24? H 0.0808 0.1828 0.1641
H25? H 0.1753 0.1259 0.1705
C24? C 0.1896(19) 0.2176(13) 0.2262(13)
H26? H 0.1516 0.2653 0.2329
H27? H 0.1829 0.1867 0.2711
C25? C 0.2868(18) 0.2311(14) 0.2110(12)
H28? H 0.3280 0.1845 0.2144
H29? H 0.3156 0.2697 0.2441
C26? C 0.281(2) 0.262(2) 0.1274(15)
H30? H 0.2614 0.3155 0.1248
H31? H 0.3447 0.2531 0.1002
loop_
_geom_bond_atom_site_label_1
_geom_bond_atom_site_label_2
_geom_bond_site_symmetry_1
_geom_bond_site_symmetry_2
Si1 Mg1 1_555 1_555
Mg1 O1 1_555 1_555
O1 C19 1_555 1_555
C1 Si1 1_555 1_555
C2 C1 1_555 1_555
H1 C2 1_555 1_555
C3 C2 1_555 1_555
H2 C3 1_555 1_555
C4 C3 1_555 1_555
H3 C4 1_555 1_555
C5 C4 1_555 1_555
H4 C5 1_555 1_555
C6 C1 1_555 1_555
H5 C6 1_555 1_555
C7 Si1 1_555 1_555
C8 C7 1_555 1_555
H6 C8 1_555 1_555
C9 C8 1_555 1_555
H7 C9 1_555 1_555
C10 C9 1_555 1_555
H8 C10 1_555 1_555
C11 C10 1_555 1_555
H9 C11 1_555 1_555
C12 C7 1_555 1_555
H10 C12 1_555 1_555
C13 Si1 1_555 1_555
C14 C13 1_555 1_555
H11 C14 1_555 1_555
C15 C14 1_555 1_555
H12 C15 1_555 1_555
C16 C15 1_555 1_555
H13 C16 1_555 1_555
C17 C16 1_555 1_555
H14 C17 1_555 1_555
C18 C13 1_555 1_555
H15 C18 1_555 1_555
C19 H16 1_555 1_555
H17 C19 1_555 1_555
C20 C19 1_555 1_555
H18 C20 1_555 1_555
H19 C20 1_555 1_555
C21 C20 1_555 1_555
H20 C21 1_555 1_555
H21 C21 1_555 1_555
C22 O1 1_555 1_555
H22 C22 1_555 1_555
H23 C22 1_555 1_555
Si1A Mg1 1_555 1_555
O1A Mg1 1_555 1_555
C1A Si1A 1_555 1_555
C2A C1A 1_555 1_555
H1A C2A 1_555 1_555
C3A C2A 1_555 1_555
H2A C3A 1_555 1_555
C4A C3A 1_555 1_555
H3A C4A 1_555 1_555
C5A C4A 1_555 1_555
H4A C5A 1_555 1_555
C6A C1A 1_555 1_555
H5A C6A 1_555 1_555
C7A Si1A 1_555 1_555
C8A C7A 1_555 1_555
H6A C8A 1_555 1_555
C9A C8A 1_555 1_555
H7A C9A 1_555 1_555
C10A C9A 1_555 1_555
H8A C10A 1_555 1_555
C11A C10A 1_555 1_555
H9A C11A 1_555 1_555
C12A C7A 1_555 1_555
H10A C12A 1_555 1_555
C13A Si1A 1_555 1_555
C14A C13A 1_555 1_555
H11A C14A 1_555 1_555
C15A C14A 1_555 1_555
H12A C15A 1_555 1_555
C16A C15A 1_555 1_555
H13A C16A 1_555 1_555
C17A C16A 1_555 1_555
H14A C17A 1_555 1_555
C18A C13A 1_555 1_555
H15A C18A 1_555 1_555
C19A O1A 1_555 1_555
H16A C19A 1_555 1_555
H17A C19A 1_555 1_555
C20A C19A 1_555 1_555
H18A C20A 1_555 1_555
H19A C20A 1_555 1_555
C21A C20A 1_555 1_555
H20A C21A 1_555 1_555
H21A C21A 1_555 1_555
C22A O1A 1_555 1_555
H22A C22A 1_555 1_555
H23A C22A 1_555 1_555
C5 C6 1_555 1_555
C11 C12 1_555 1_555
C17 C18 1_555 1_555
C21 C22 1_555 1_555
C5A C6A 1_555 1_555
C11A C12A 1_555 1_555
C17A C18A 1_555 1_555
C21A C22A 1_555 1_555

#END
