
#######################################################################
#
#                 Cambridge Crystallographic Data Centre
#                                CCDC 
#
#######################################################################
#
# If this CIF has been generated from an entry in the Cambridge 
# Structural Database, then it will include bibliographic, chemical, 
# crystal, experimental, refinement or atomic coordinate data resulting 
# from the CCDC's data processing and validation procedures.
#
#######################################################################

data_NEKGUI
_chemical_formula_moiety         'C29 H40 Mg1 N4 Si1'
_chemical_name_systematic        
(1,4,7-trimethyl-1,4,7,10-tetraazacyclododecanato)-(triphenylsilyl)-magnesium
_symmetry_cell_setting           orthorhombic
_symmetry_space_group_name_H-M   'P n m a'
_symmetry_Int_Tables_number      62
_space_group_name_Hall           '-P 2ac 2n'
loop_
_symmetry_equiv_pos_site_id
_symmetry_equiv_pos_as_xyz
1 x,y,z
2 1/2-x,-y,1/2+z
3 1/2+x,1/2-y,1/2-z
4 -x,1/2+y,-z
5 -x,-y,-z
6 1/2+x,y,1/2-z
7 1/2-x,1/2+y,1/2+z
8 x,1/2-y,z
_cell_length_a                   19.228(19)
_cell_length_b                   14.409(13)
_cell_length_c                   9.810(9)
_cell_angle_alpha                90
_cell_angle_beta                 90
_cell_angle_gamma                90
_cell_volume                     2717.92
_exptl_crystal_colour            colorless
_exptl_crystal_description       rod
_cell_formula_units_Z            4
loop_
_atom_site_label
_atom_site_type_symbol
_atom_site_fract_x
_atom_site_fract_y
_atom_site_fract_z
Si1 Si 0.84363(6) 0.2500 0.13554(13)
Mg1 Mg 0.71963(7) 0.2500 0.26013(15)
N1 N 0.70973(19) 0.2500 0.4615(4)
N2 N 0.68803(14) 0.39968(19) 0.2953(3)
N3 N 0.61918(19) 0.2500 0.1568(4)
C1 C 0.68627(19) 0.3328(2) 0.5270(4)
H1 H 0.7082 0.3385 0.6180
H2 H 0.6352 0.3305 0.5393
C2 C 0.70571(18) 0.4149(2) 0.4397(4)
H3 H 0.6810 0.4707 0.4733
H4 H 0.7563 0.4265 0.4479
C3 C 0.61242(17) 0.4013(3) 0.2747(4)
H5 H 0.5893 0.3738 0.3554
H6 H 0.5967 0.4665 0.2666
C4 C 0.5919(4) 0.3516(5) 0.1565(8)
H7 H 0.6098 0.3840 0.0747
H8 H 0.5405 0.3510 0.1508
C5 C 0.5788(3) 0.1968(5) 0.2533(8)
H9 H 0.5307 0.1896 0.2191
H10 H 0.5769 0.2302 0.3415
C6 C 0.7208(2) 0.4730(2) 0.2129(4)
H11 H 0.7117 0.4614 0.1161
H12 H 0.7711 0.4730 0.2291
H13 H 0.7014 0.5334 0.2386
C7 C 0.6142(4) 0.2182(5) 0.0172(7)
H14 H 0.5652 0.2143 -0.0094
H15 H 0.6358 0.1568 0.0092
H16 H 0.6384 0.2621 -0.0428
C8 C 0.89074(15) 0.3554(2) 0.2089(3)
C9 C 0.92070(16) 0.4254(2) 0.1282(4)
H17 H 0.9220 0.4177 0.0320
C10 C 0.94832(16) 0.5052(2) 0.1845(4)
H18 H 0.9675 0.5517 0.1272
C11 C 0.94803(17) 0.5172(2) 0.3227(4)
H19 H 0.9677 0.5716 0.3616
C12 C 0.91907(17) 0.4503(2) 0.4052(4)
H20 H 0.9191 0.4580 0.5013
C13 C 0.88984(16) 0.3715(2) 0.3475(3)
H21 H 0.8685 0.3270 0.4055
C14 C 0.8724(2) 0.2500 -0.0493(5)
C15 C 0.9433(2) 0.2500 -0.0819(5)
H22 H 0.9764 0.2500 -0.0099
C16 C 0.9669(2) 0.2500 -0.2142(5)
H23 H 1.0154 0.2500 -0.2329
C17 C 0.9191(3) 0.2500 -0.3200(5)
H24 H 0.9350 0.2500 -0.4117
C18 C 0.8489(3) 0.2500 -0.2928(5)
H25 H 0.8160 0.2500 -0.3652
C19 C 0.8267(2) 0.2500 -0.1586(5)
H26 H 0.7782 0.2500 -0.1406
C8G C 0.89074(15) 0.1446(2) 0.2089(3)
C9G C 0.92070(16) 0.0746(2) 0.1282(4)
H17G H 0.9220 0.0823 0.0320
C10G C 0.94832(16) -0.0052(2) 0.1845(4)
H18G H 0.9675 -0.0517 0.1272
C11G C 0.94803(17) -0.0172(2) 0.3227(4)
H19G H 0.9677 -0.0716 0.3616
C12G C 0.91907(17) 0.0497(2) 0.4052(4)
H20G H 0.9191 0.0420 0.5013
C13G C 0.88984(16) 0.1285(2) 0.3475(3)
H21G H 0.8685 0.1730 0.4055
N2G N 0.68803(14) 0.10032(19) 0.2953(3)
C1G C 0.68627(19) 0.1672(2) 0.5270(4)
H1G H 0.7082 0.1615 0.6180
H2G H 0.6352 0.1695 0.5393
C2G C 0.70571(18) 0.0851(2) 0.4397(4)
H3G H 0.6810 0.0293 0.4733
H4G H 0.7563 0.0735 0.4479
C3G C 0.61242(17) 0.0987(3) 0.2747(4)
H5G H 0.5893 0.1262 0.3554
H6G H 0.5967 0.0335 0.2666
C4G C 0.5919(4) 0.1484(5) 0.1565(8)
H7G H 0.6098 0.1160 0.0747
H8G H 0.5405 0.1490 0.1508
C5G C 0.5788(3) 0.3032(5) 0.2533(8)
H9G H 0.5307 0.3104 0.2191
H10G H 0.5769 0.2698 0.3415
C6G C 0.7208(2) 0.0270(2) 0.2129(4)
H11G H 0.7117 0.0386 0.1161
H12G H 0.7711 0.0270 0.2291
H13G H 0.7014 -0.0334 0.2386
C7G C 0.6142(4) 0.2818(5) 0.0172(7)
H14G H 0.5652 0.2857 -0.0094
H15G H 0.6358 0.3432 0.0092
H16G H 0.6384 0.2379 -0.0428
H27? H 0.6019 0.4402 0.1942
H28? H 0.5905 0.4310 0.3549
loop_
_geom_bond_atom_site_label_1
_geom_bond_atom_site_label_2
_geom_bond_site_symmetry_1
_geom_bond_site_symmetry_2
Si1 Mg1 1_555 1_555
Mg1 N1 1_555 1_555
N1 C1 1_555 1_555
N2 Mg1 1_555 1_555
N3 Mg1 1_555 1_555
C1 H1 1_555 1_555
H2 C1 1_555 1_555
C2 N2 1_555 1_555
H3 C2 1_555 1_555
H4 C2 1_555 1_555
C3 N2 1_555 1_555
H5 C3 1_555 1_555
H6 C3 1_555 1_555
C4 N3 1_555 1_555
H7 C4 1_555 1_555
H8 C4 1_555 1_555
C5 N3 1_555 1_555
H9 C5 1_555 1_555
H10 C5 1_555 1_555
C6 N2 1_555 1_555
H11 C6 1_555 1_555
H12 C6 1_555 1_555
H13 C6 1_555 1_555
C7 N3 1_555 1_555
H14 C7 1_555 1_555
H15 C7 1_555 1_555
H16 C7 1_555 1_555
C8 Si1 1_555 1_555
C9 C8 1_555 1_555
H17 C9 1_555 1_555
C10 C9 1_555 1_555
H18 C10 1_555 1_555
C11 C10 1_555 1_555
H19 C11 1_555 1_555
C12 C11 1_555 1_555
H20 C12 1_555 1_555
C13 C8 1_555 1_555
H21 C13 1_555 1_555
C14 Si1 1_555 1_555
C15 C14 1_555 1_555
H22 C15 1_555 1_555
C16 C15 1_555 1_555
H23 C16 1_555 1_555
C17 C16 1_555 1_555
H24 C17 1_555 1_555
C18 C17 1_555 1_555
H25 C18 1_555 1_555
C19 C14 1_555 1_555
H26 C19 1_555 1_555
C8G Si1 1_555 1_555
C9G C8G 1_555 1_555
H17G C9G 1_555 1_555
C10G C9G 1_555 1_555
H18G C10G 1_555 1_555
C11G C10G 1_555 1_555
H19G C11G 1_555 1_555
C12G C11G 1_555 1_555
H20G C12G 1_555 1_555
C13G C8G 1_555 1_555
H21G C13G 1_555 1_555
N2G Mg1 1_555 1_555
C1G N1 1_555 1_555
H1G C1G 1_555 1_555
H2G C1G 1_555 1_555
C2G N2G 1_555 1_555
H3G C2G 1_555 1_555
H4G C2G 1_555 1_555
C3G C5 1_555 1_555
H5G C3G 1_555 1_555
H6G C3G 1_555 1_555
C4G N3 1_555 1_555
H7G C4G 1_555 1_555
H8G C4G 1_555 1_555
C5G N3 1_555 1_555
H9G C5G 1_555 1_555
H10G C5G 1_555 1_555
C6G N2G 1_555 1_555
H11G C6G 1_555 1_555
H12G C6G 1_555 1_555
H13G C6G 1_555 1_555
C7G N3 1_555 1_555
H14G C7G 1_555 1_555
H15G C7G 1_555 1_555
H16G C7 1_555 1_555
C1 C2 1_555 1_555
C3 C4 1_555 1_555
C3 C5G 1_555 1_555
C4 C5G 1_555 1_555
C4 C7G 1_555 1_555
C5 C4G 1_555 1_555
C5 C5G 1_555 1_555
C7 C4G 1_555 1_555
C7 C7G 1_555 1_555
H16 C7G 1_555 1_555
C12 C13 1_555 1_555
C18 C19 1_555 1_555
C12G C13G 1_555 1_555
N2G C3G 1_555 1_555
C1G C2G 1_555 1_555
C3G C4G 1_555 1_555
C7G H16G 1_555 1_555

#END
