
#######################################################################
#
#                 Cambridge Crystallographic Data Centre
#                                CCDC 
#
#######################################################################
#
# If this CIF has been generated from an entry in the Cambridge 
# Structural Database, then it will include bibliographic, chemical, 
# crystal, experimental, refinement or atomic coordinate data resulting 
# from the CCDC's data processing and validation procedures.
#
#######################################################################

data_NEKHIX
_chemical_formula_moiety         'C23 H23 N1 O3 S1'
_chemical_name_systematic        
'[5-methyl-1-(methylsulfonyl)-2-phenyl-2,3-dihydro-1H-indol-3-yl](phenyl)methanol'
_symmetry_cell_setting           triclinic
_symmetry_space_group_name_H-M   'P -1'
_symmetry_Int_Tables_number      2
_space_group_name_Hall           '-P 1'
loop_
_symmetry_equiv_pos_site_id
_symmetry_equiv_pos_as_xyz
1 x,y,z
2 -x,-y,-z
_cell_length_a                   6.779(4)
_cell_length_b                   7.407(4)
_cell_length_c                   20.326(11)
_cell_angle_alpha                84.116(6)
_cell_angle_beta                 85.250(7)
_cell_angle_gamma                86.254(7)
_cell_volume                     1010.08
_exptl_crystal_colour            colorless
_exptl_crystal_description       block
_cell_formula_units_Z            2
loop_
_atom_site_label
_atom_site_type_symbol
_atom_site_fract_x
_atom_site_fract_y
_atom_site_fract_z
S1 S 0.21597(8) 0.43405(7) 0.13793(3)
N1 N 0.3787(2) 0.5353(2) 0.17455(8)
O1 O 0.0927(2) 0.9125(2) 0.21546(8)
H1 H 0.098(4) 1.027(4) 0.1926(14)
O2 O 0.1328(2) 0.3033(2) 0.18704(8)
O3 O 0.3111(2) 0.3749(2) 0.07859(8)
C1 C 0.3391(3) 0.5648(3) 0.24607(10)
H2 H 0.1970 0.5566 0.2587
C2 C 0.3981(3) 0.7613(3) 0.25107(10)
H3 H 0.4930 0.7591 0.2850
C3 C 0.5011(3) 0.8148(3) 0.18426(10)
C4 C 0.6028(3) 0.9674(3) 0.16222(11)
H4 H 0.6208 1.0522 0.1916
C5 C 0.6784(3) 0.9956(3) 0.09668(12)
C6 C 0.6499(3) 0.8663(3) 0.05430(12)
H5 H 0.6985 0.8851 0.0101
C7 C 0.5513(3) 0.7094(3) 0.07538(11)
H6 H 0.5352 0.6235 0.0462
C8 C 0.4787(3) 0.6854(3) 0.14039(10)
C9 C 0.0312(3) 0.6000(3) 0.11664(13)
H7 H -0.0652 0.5480 0.0934
H8 H 0.0894 0.6981 0.0887
H9 H -0.0321 0.6453 0.1562
C10 C 0.4545(3) 0.4256(3) 0.28956(10)
C11 C 0.6441(3) 0.3640(3) 0.26982(11)
H10 H 0.6997 0.4035 0.2279
C12 C 0.7527(4) 0.2445(4) 0.31138(13)
H11 H 0.8801 0.2036 0.2971
C13 C 0.6745(5) 0.1860(4) 0.37316(14)
H12 H 0.7482 0.1059 0.4012
C14 C 0.4860(5) 0.2464(4) 0.39370(13)
H13 H 0.4323 0.2079 0.4360
C15 C 0.3746(4) 0.3650(3) 0.35170(12)
H14 H 0.2459 0.4034 0.3657
C16 C 0.2199(3) 0.8960(3) 0.26775(11)
H15 H 0.2696 1.0153 0.2720
C17 C 0.1074(4) 0.8303(3) 0.33216(11)
C18 C -0.0718(4) 0.7528(3) 0.33402(13)
H16 H -0.1294 0.7458 0.2945
C19 C -0.1677(5) 0.6857(4) 0.39214(17)
H17 H -0.2879 0.6321 0.3919
C20 C -0.0869(7) 0.6975(5) 0.45053(18)
H18 H -0.1521 0.6524 0.4903
C21 C 0.0883(7) 0.7748(5) 0.45076(16)
H19 H 0.1425 0.7831 0.4908
C22 C 0.1892(5) 0.8426(4) 0.39124(14)
H20 H 0.3099 0.8952 0.3917
C23 C 0.7900(4) 1.1633(4) 0.07254(14)
H21 H 0.8099 1.2289 0.1096
H22 H 0.7147 1.2396 0.0415
H23 H 0.9163 1.1276 0.0513
loop_
_geom_bond_atom_site_label_1
_geom_bond_atom_site_label_2
_geom_bond_site_symmetry_1
_geom_bond_site_symmetry_2
S1 N1 1_555 1_555
N1 C1 1_555 1_555
O1 H1 1_555 1_555
O2 S1 1_555 1_555
O3 S1 1_555 1_555
C1 H2 1_555 1_555
C2 C1 1_555 1_555
H3 C2 1_555 1_555
C3 C2 1_555 1_555
C4 C3 1_555 1_555
H4 C4 1_555 1_555
C5 C4 1_555 1_555
C6 C5 1_555 1_555
H5 C6 1_555 1_555
C7 C6 1_555 1_555
H6 C7 1_555 1_555
C8 N1 1_555 1_555
C9 S1 1_555 1_555
H7 C9 1_555 1_555
H8 C9 1_555 1_555
H9 C9 1_555 1_555
C10 C1 1_555 1_555
C11 C10 1_555 1_555
H10 C11 1_555 1_555
C12 C11 1_555 1_555
H11 C12 1_555 1_555
C13 C12 1_555 1_555
H12 C13 1_555 1_555
C14 C13 1_555 1_555
H13 C14 1_555 1_555
C15 C10 1_555 1_555
H14 C15 1_555 1_555
C16 O1 1_555 1_555
H15 C16 1_555 1_555
C17 C16 1_555 1_555
C18 C17 1_555 1_555
H16 C18 1_555 1_555
C19 C18 1_555 1_555
H17 C19 1_555 1_555
C20 C19 1_555 1_555
H18 C20 1_555 1_555
C21 C20 1_555 1_555
H19 C21 1_555 1_555
C22 C17 1_555 1_555
H20 C22 1_555 1_555
C23 C5 1_555 1_555
H21 C23 1_555 1_555
H22 C23 1_555 1_555
H23 C23 1_555 1_555
C2 C16 1_555 1_555
C3 C8 1_555 1_555
C7 C8 1_555 1_555
C14 C15 1_555 1_555
C21 C22 1_555 1_555

#END
