
#######################################################################
#
#                 Cambridge Crystallographic Data Centre
#                                CCDC 
#
#######################################################################
#
# If this CIF has been generated from an entry in the Cambridge 
# Structural Database, then it will include bibliographic, chemical, 
# crystal, experimental, refinement or atomic coordinate data resulting 
# from the CCDC's data processing and validation procedures.
#
#######################################################################

data_NEKLOH
_chemical_formula_moiety         'C38 H41 B1 O2'
_chemical_name_systematic        
4,4,5,5-tetramethyl-2-[1,2,3,4-tetrakis(4-methylphenyl)buta-1,3-dien-1-yl]-1,3,2-dioxaborolane
_symmetry_cell_setting           triclinic
_symmetry_space_group_name_H-M   'P -1'
_symmetry_Int_Tables_number      2
_space_group_name_Hall           '-P 1'
loop_
_symmetry_equiv_pos_site_id
_symmetry_equiv_pos_as_xyz
1 x,y,z
2 -x,-y,-z
_cell_length_a                   10.0383(17)
_cell_length_b                   12.390(2)
_cell_length_c                   13.678(2)
_cell_angle_alpha                108.271(3)
_cell_angle_beta                 96.570(3)
_cell_angle_gamma                91.617(3)
_cell_volume                     1601.11
_exptl_crystal_colour            colorless
_exptl_crystal_description       block
_cell_formula_units_Z            2
loop_
_atom_site_label
_atom_site_type_symbol
_atom_site_fract_x
_atom_site_fract_y
_atom_site_fract_z
B1 B 0.1417(2) 0.66076(19) 0.19952(18)
C1 C 0.0969(2) 0.80435(19) 0.49325(17)
H1 H 0.0176 0.7586 0.4800
C2 C 0.1140(2) 0.87521(18) 0.43400(16)
C3 C 0.2323(3) 0.9460(2) 0.46146(19)
H2 H 0.2460 0.9975 0.4260
C4 C 0.3290(3) 0.9414(2) 0.5397(2)
H3 H 0.4065 0.9898 0.5560
C5 C 0.3136(3) 0.8670(2) 0.59446(19)
C6 C 0.1946(3) 0.8000(2) 0.57147(18)
H4 H 0.1801 0.7511 0.6093
C7 C 0.4222(3) 0.8584(3) 0.6775(2)
H5 H 0.3815 0.8464 0.7338
H6 H 0.4788 0.9277 0.7027
H7 H 0.4751 0.7956 0.6487
C8 C 0.0183(2) 0.87954(18) 0.34596(17)
H8 H 0.0155 0.9498 0.3349
C9 C -0.0655(2) 0.79597(17) 0.27934(16)
C10 C -0.1558(2) 0.81430(18) 0.19195(16)
C11 C -0.2077(2) 0.72281(19) 0.10654(17)
H9 H -0.1899 0.6493 0.1058
C12 C -0.2858(2) 0.7383(2) 0.02213(18)
H10 H -0.3201 0.6749 -0.0335
C13 C -0.3136(2) 0.8452(2) 0.0188(2)
C14 C -0.2625(3) 0.9365(2) 0.1035(2)
H11 H -0.2795 1.0098 0.1033
C15 C -0.1865(3) 0.9221(2) 0.1888(2)
H12 H -0.1553 0.9857 0.2453
C16 C -0.3971(3) 0.8607(3) -0.0742(2)
H13 H -0.3426 0.8995 -0.1079
H14 H -0.4715 0.9050 -0.0521
H15 H -0.4302 0.7875 -0.1220
C17 C -0.0701(2) 0.67691(16) 0.28589(15)
C18 C -0.1914(2) 0.64177(18) 0.32446(16)
C19 C -0.2645(2) 0.7233(2) 0.38682(18)
H16 H -0.2313 0.7991 0.4095
C20 C -0.3842(3) 0.6959(3) 0.4162(2)
H17 H -0.4289 0.7532 0.4589
C21 C -0.4391(2) 0.5856(3) 0.3837(2)
C22 C -0.3660(3) 0.5030(2) 0.3237(2)
H18 H -0.3992 0.4272 0.3024
C23 C -0.2441(2) 0.5297(2) 0.29417(19)
H19 H -0.1977 0.4719 0.2538
C24 C -0.5774(3) 0.5569(3) 0.4070(3)
H20 H -0.5827 0.5910 0.4798
H21 H -0.5928 0.4757 0.3883
H22 H -0.6444 0.5858 0.3677
C25 C 0.0339(2) 0.61380(16) 0.25272(15)
C26 C 0.0580(2) 0.50001(17) 0.26534(16)
C27 C 0.0734(2) 0.48483(19) 0.36268(17)
H23 H 0.0630 0.5457 0.4211
C28 C 0.1038(2) 0.3809(2) 0.3739(2)
H24 H 0.1163 0.3736 0.4399
C29 C 0.1157(2) 0.2878(2) 0.2887(2)
C30 C 0.1003(3) 0.3021(2) 0.1918(2)
H25 H 0.1080 0.2404 0.1334
C31 C 0.0736(2) 0.40732(19) 0.18043(19)
H26 H 0.0661 0.4154 0.1147
C32 C 0.1473(3) 0.1736(2) 0.3005(3)
H27 H 0.1203 0.1145 0.2358
H28 H 0.0996 0.1607 0.3532
H29 H 0.2422 0.1731 0.3201
C33 C 0.3445(2) 0.7137(2) 0.16399(19)
C34 C 0.4185(3) 0.6064(3) 0.1237(3)
H30 H 0.4690 0.5906 0.1810
H31 H 0.4786 0.6175 0.0773
H32 H 0.3547 0.5435 0.0873
C35 C 0.4445(3) 0.8139(3) 0.2145(2)
H33 H 0.3988 0.8785 0.2508
H34 H 0.4886 0.8318 0.1622
H35 H 0.5101 0.7955 0.2626
C36 C 0.2321(3) 0.7294(2) 0.0846(2)
C37 C 0.1929(4) 0.8508(3) 0.1063(4)
H36 H 0.1105 0.8519 0.0636
H37 H 0.2625 0.8954 0.0911
H38 H 0.1807 0.8822 0.1781
C38 C 0.2566(4) 0.6797(4) -0.0275(2)
H39 H 0.2678 0.5996 -0.0432
H40 H 0.3364 0.7168 -0.0381
H41 H 0.1812 0.6911 -0.0722
O1 O 0.26905(16) 0.69503(15) 0.24343(12)
O2 O 0.11674(16) 0.66674(16) 0.10139(12)
loop_
_geom_bond_atom_site_label_1
_geom_bond_atom_site_label_2
_geom_bond_site_symmetry_1
_geom_bond_site_symmetry_2
B1 C25 1_555 1_555
C1 H1 1_555 1_555
C2 C1 1_555 1_555
C3 C2 1_555 1_555
H2 C3 1_555 1_555
C4 C3 1_555 1_555
H3 C4 1_555 1_555
C5 C4 1_555 1_555
C6 C1 1_555 1_555
H4 C6 1_555 1_555
C7 C5 1_555 1_555
H5 C7 1_555 1_555
H6 C7 1_555 1_555
H7 C7 1_555 1_555
C8 C2 1_555 1_555
H8 C8 1_555 1_555
C9 C8 1_555 1_555
C10 C9 1_555 1_555
C11 C10 1_555 1_555
H9 C11 1_555 1_555
C12 C11 1_555 1_555
H10 C12 1_555 1_555
C13 C12 1_555 1_555
C14 C13 1_555 1_555
H11 C14 1_555 1_555
C15 C10 1_555 1_555
H12 C15 1_555 1_555
C16 C13 1_555 1_555
H13 C16 1_555 1_555
H14 C16 1_555 1_555
H15 C16 1_555 1_555
C17 C9 1_555 1_555
C18 C17 1_555 1_555
C19 C18 1_555 1_555
H16 C19 1_555 1_555
C20 C19 1_555 1_555
H17 C20 1_555 1_555
C21 C20 1_555 1_555
C22 C21 1_555 1_555
H18 C22 1_555 1_555
C23 C18 1_555 1_555
H19 C23 1_555 1_555
C24 C21 1_555 1_555
H20 C24 1_555 1_555
H21 C24 1_555 1_555
H22 C24 1_555 1_555
C25 C17 1_555 1_555
C26 C25 1_555 1_555
C27 C26 1_555 1_555
H23 C27 1_555 1_555
C28 C27 1_555 1_555
H24 C28 1_555 1_555
C29 C28 1_555 1_555
C30 C29 1_555 1_555
H25 C30 1_555 1_555
C31 C26 1_555 1_555
H26 C31 1_555 1_555
C32 C29 1_555 1_555
H27 C32 1_555 1_555
H28 C32 1_555 1_555
H29 C32 1_555 1_555
C33 C34 1_555 1_555
C34 H30 1_555 1_555
H31 C34 1_555 1_555
H32 C34 1_555 1_555
C35 C33 1_555 1_555
H33 C35 1_555 1_555
H34 C35 1_555 1_555
H35 C35 1_555 1_555
C36 C33 1_555 1_555
C37 C36 1_555 1_555
H36 C37 1_555 1_555
H37 C37 1_555 1_555
H38 C37 1_555 1_555
C38 C36 1_555 1_555
H39 C38 1_555 1_555
H40 C38 1_555 1_555
H41 C38 1_555 1_555
O1 B1 1_555 1_555
O2 B1 1_555 1_555
C5 C6 1_555 1_555
C14 C15 1_555 1_555
C22 C23 1_555 1_555
C30 C31 1_555 1_555
C33 O1 1_555 1_555
C36 O2 1_555 1_555

#END
