
#######################################################################
#
#                 Cambridge Crystallographic Data Centre
#                                CCDC 
#
#######################################################################
#
# If this CIF has been generated from an entry in the Cambridge 
# Structural Database, then it will include bibliographic, chemical, 
# crystal, experimental, refinement or atomic coordinate data resulting 
# from the CCDC's data processing and validation procedures.
#
#######################################################################

data_NEKLIB
_chemical_formula_moiety         'C35 H28'
_chemical_name_systematic        
1,1',1'',1'''-[1-(3-methylphenyl)buta-1,3-diene-1,2,3,4-tetrayl]tetrabenzene
_symmetry_cell_setting           monoclinic
_symmetry_space_group_name_H-M   'P 21/c'
_symmetry_Int_Tables_number      14
_space_group_name_Hall           '-P 2ybc'
loop_
_symmetry_equiv_pos_site_id
_symmetry_equiv_pos_as_xyz
1 x,y,z
2 -x,1/2+y,1/2-z
3 -x,-y,-z
4 x,1/2-y,1/2+z
_cell_length_a                   13.581(7)
_cell_length_b                   9.451(5)
_cell_length_c                   20.700(10)
_cell_angle_alpha                90
_cell_angle_beta                 107.134(10)
_cell_angle_gamma                90
_cell_volume                     2539.01
_exptl_crystal_colour            colorless
_exptl_crystal_description       block
_cell_formula_units_Z            4
loop_
_atom_site_label
_atom_site_type_symbol
_atom_site_fract_x
_atom_site_fract_y
_atom_site_fract_z
C1 C -0.0320(3) 0.0538(3) 0.08510(18)
H1 H -0.0746 -0.0156 0.0942
C2 C 0.0723(3) 0.0449(3) 0.11325(16)
H2 H 0.1004 -0.0314 0.1409
C3 C 0.1356(2) 0.1474(2) 0.10101(13)
H3 H 0.2065 0.1401 0.1203
C4 C 0.09506(19) 0.2617(2) 0.06017(11)
C5 C 0.15672(19) 0.3774(2) 0.04508(11)
H4 H 0.1352 0.4108 0.0009
C6 C 0.23889(17) 0.4412(2) 0.08556(10)
C7 C 0.28519(17) 0.4012(2) 0.15852(10)
C8 C 0.23288(16) 0.4114(2) 0.20446(10)
C9 C 0.27330(16) 0.3580(2) 0.27542(10)
C10 C 0.32304(17) 0.2294(2) 0.29051(11)
H5 H 0.3326 0.1737 0.2558
C11 C 0.35878(19) 0.1824(3) 0.35639(13)
H6 H 0.3927 0.0959 0.3657
C12 C 0.3447(2) 0.2622(3) 0.40805(13)
H7 H 0.3700 0.2307 0.4525
C13 C -0.0696(2) 0.5825(3) 0.15867(12)
H8 H -0.1354 0.6208 0.1489
C14 C -0.05026(18) 0.4506(3) 0.18820(11)
C15 C -0.1344(2) 0.3648(3) 0.20116(15)
H9 H -0.1868 0.4267 0.2076
H10 H -0.1070 0.3084 0.2410
H11 H -0.1637 0.3041 0.1632
C16 C 0.04908(18) 0.3983(2) 0.20255(10)
H12 H 0.0637 0.3099 0.2229
C17 C 0.12740(17) 0.4727(2) 0.18769(9)
C18 C 0.2936(2) 0.3877(3) 0.39439(11)
H13 H 0.2828 0.4411 0.4294
C19 C 0.25748(17) 0.4361(2) 0.32840(10)
H14 H 0.2223 0.5217 0.3195
C20 C 0.39356(16) 0.3525(2) 0.17404(10)
C21 C 0.47126(18) 0.4104(2) 0.22597(11)
H15 H 0.4558 0.4809 0.2528
C22 C 0.57167(19) 0.3652(3) 0.23865(13)
H16 H 0.6233 0.4063 0.2735
C23 C 0.5958(2) 0.2605(3) 0.20047(15)
H17 H 0.6634 0.2288 0.2100
C24 C 0.5202(2) 0.2026(3) 0.14822(14)
H18 H 0.5364 0.1316 0.1220
C25 C 0.4200(2) 0.2493(3) 0.13442(11)
H19 H 0.3694 0.2111 0.0980
C26 C -0.0734(2) 0.1633(3) 0.04393(17)
H20 H -0.1443 0.1690 0.0245
C27 C -0.0103(2) 0.2656(3) 0.03098(12)
H21 H -0.0392 0.3395 0.0019
C28 C 0.29081(17) 0.5583(2) 0.06010(10)
C29 C 0.2929(2) 0.5642(3) -0.00632(11)
H22 H 0.2617 0.4927 -0.0362
C30 C 0.3405(2) 0.6743(4) -0.02877(13)
H23 H 0.3415 0.6763 -0.0735
C31 C 0.3861(2) 0.7806(3) 0.01428(15)
H24 H 0.4175 0.8556 -0.0010
C32 C 0.3853(2) 0.7760(3) 0.08010(13)
H25 H 0.4164 0.8479 0.1097
C33 C 0.33864(18) 0.6657(2) 0.10268(11)
H26 H 0.3394 0.6634 0.1477
C34 C 0.10463(19) 0.6041(2) 0.15765(11)
H27 H 0.1557 0.6564 0.1470
C35 C 0.0065(2) 0.6574(3) 0.14361(12)
H28 H -0.0083 0.7460 0.1235
loop_
_geom_bond_atom_site_label_1
_geom_bond_atom_site_label_2
_geom_bond_site_symmetry_1
_geom_bond_site_symmetry_2
C1 H1 1_555 1_555
C2 C1 1_555 1_555
H2 C2 1_555 1_555
C3 C2 1_555 1_555
H3 C3 1_555 1_555
C4 C3 1_555 1_555
C5 C4 1_555 1_555
H4 C5 1_555 1_555
C6 C5 1_555 1_555
C7 C6 1_555 1_555
C8 C7 1_555 1_555
C9 C8 1_555 1_555
C10 C9 1_555 1_555
H5 C10 1_555 1_555
C11 C10 1_555 1_555
H6 C11 1_555 1_555
C12 C11 1_555 1_555
H7 C12 1_555 1_555
C13 H8 1_555 1_555
C14 C13 1_555 1_555
C15 C14 1_555 1_555
H9 C15 1_555 1_555
H10 C15 1_555 1_555
H11 C15 1_555 1_555
C16 C14 1_555 1_555
H12 C16 1_555 1_555
C17 C8 1_555 1_555
C18 C12 1_555 1_555
H13 C18 1_555 1_555
C19 C9 1_555 1_555
H14 C19 1_555 1_555
C20 C7 1_555 1_555
C21 C20 1_555 1_555
H15 C21 1_555 1_555
C22 C21 1_555 1_555
H16 C22 1_555 1_555
C23 C22 1_555 1_555
H17 C23 1_555 1_555
C24 C23 1_555 1_555
H18 C24 1_555 1_555
C25 C20 1_555 1_555
H19 C25 1_555 1_555
C26 C1 1_555 1_555
H20 C26 1_555 1_555
C27 C4 1_555 1_555
H21 C27 1_555 1_555
C28 C6 1_555 1_555
C29 C28 1_555 1_555
H22 C29 1_555 1_555
C30 C29 1_555 1_555
H23 C30 1_555 1_555
C31 C30 1_555 1_555
H24 C31 1_555 1_555
C32 C31 1_555 1_555
H25 C32 1_555 1_555
C33 C28 1_555 1_555
H26 C33 1_555 1_555
C34 C17 1_555 1_555
H27 C34 1_555 1_555
C35 C13 1_555 1_555
H28 C35 1_555 1_555
C16 C17 1_555 1_555
C18 C19 1_555 1_555
C24 C25 1_555 1_555
C26 C27 1_555 1_555
C32 C33 1_555 1_555
C34 C35 1_555 1_555

#END
