
#######################################################################
#
#                 Cambridge Crystallographic Data Centre
#                                CCDC 
#
#######################################################################
#
# If this CIF has been generated from an entry in the Cambridge 
# Structural Database, then it will include bibliographic, chemical, 
# crystal, experimental, refinement or atomic coordinate data resulting 
# from the CCDC's data processing and validation procedures.
#
#######################################################################

data_NEKMIC
_chemical_formula_moiety         'C25 H21 Cl1 N2 O4,C4 H8 O2'
_chemical_name_systematic        
"ethyl 8'-chloro-1-methyl-2-oxo-1,2-dihydro-6'H,12'H-spiro[indole-3,5'-[6,12]methanopyrrolo[2,1-c][1,4]benzoxazocine]-12'-carboxylate ethyl acetate solvate"
_symmetry_cell_setting           monoclinic
_symmetry_space_group_name_H-M   'P 21'
_symmetry_Int_Tables_number      4
_space_group_name_Hall           'P 2yb'
loop_
_symmetry_equiv_pos_site_id
_symmetry_equiv_pos_as_xyz
1 x,y,z
2 -x,1/2+y,-z
_cell_length_a                   12.0362(4)
_cell_length_b                   7.7291(2)
_cell_length_c                   14.4070(4)
_cell_angle_alpha                90
_cell_angle_beta                 98.558(3)
_cell_angle_gamma                90
_cell_volume                     1325.35
_exptl_crystal_colour            colorless
_exptl_crystal_description       block
_cell_formula_units_Z            2
loop_
_atom_site_label
_atom_site_type_symbol
_atom_site_fract_x
_atom_site_fract_y
_atom_site_fract_z
Cl1 Cl -0.35504(10) 0.38063(18) 0.49450(7)
O1 O -0.0945(2) 0.0863(4) 0.83356(18)
O2 O -0.0030(3) 0.0142(6) 1.0044(2)
O3 O -0.0024(2) 0.0791(4) 0.51813(18)
N1 N 0.1100(3) -0.0033(4) 0.7119(2)
N2 N 0.1530(3) 0.2511(4) 0.5196(2)
C1 C -0.2732(4) 0.2854(6) 0.5924(3)
C2 C -0.3258(4) 0.1878(6) 0.6535(3)
H1 H -0.4036 0.1678 0.6413
C3 C -0.2626(4) 0.1207(5) 0.7320(3)
H2 H -0.2972 0.0540 0.7742
C4 C -0.1482(4) 0.1504(5) 0.7497(3)
C5 C -0.0937(3) 0.2451(5) 0.6874(3)
C6 C -0.1599(4) 0.3145(5) 0.6082(3)
H3 H -0.1263 0.3816 0.5656
C7 C 0.0291(3) 0.2899(5) 0.7112(3)
H4 H 0.0401 0.4096 0.6897
C8 C 0.0581(4) 0.2855(5) 0.8183(3)
H5 H 0.0158 0.3746 0.8465
H6 H 0.1385 0.3069 0.8374
C9 C 0.0266(3) 0.1051(6) 0.8505(3)
C10 C 0.0813(3) -0.0332(5) 0.7989(3)
C11 C 0.1079(4) -0.2009(6) 0.8227(3)
H7 H 0.0958 -0.2574 0.8781
C12 C 0.1568(4) -0.2730(6) 0.7486(3)
H8 H 0.1846 -0.3863 0.7462
C13 C 0.1566(4) -0.1493(5) 0.6811(3)
H9 H 0.1838 -0.1624 0.6237
C14 C 0.1115(3) 0.1678(5) 0.6675(2)
C15 C 0.0772(3) 0.1570(5) 0.5588(3)
C16 C 0.2440(3) 0.3039(5) 0.5870(3)
C17 C 0.3394(4) 0.3914(6) 0.5716(3)
H10 H 0.3486 0.4307 0.5115
C18 C 0.4220(4) 0.4194(6) 0.6494(3)
H11 H 0.4875 0.4804 0.6414
C19 C 0.4097(4) 0.3595(6) 0.7375(3)
H12 H 0.4671 0.3778 0.7883
C20 C 0.3116(3) 0.2714(5) 0.7513(3)
H13 H 0.3030 0.2290 0.8110
C21 C 0.2279(3) 0.2480(5) 0.6759(3)
C22 C 0.1471(4) 0.2800(6) 0.4195(3)
H14 H 0.2105 0.2246 0.3974
H15 H 0.1489 0.4033 0.4072
H16 H 0.0777 0.2315 0.3869
C23 C 0.0580(4) 0.0774(7) 0.9562(3)
O4 O 0.1561(9) 0.1608(17) 0.9887(6)
C24 C 0.1920(9) 0.1570(14) 1.0908(8)
H17 H 0.2358 0.2611 1.1103
H18 H 0.1258 0.1559 1.1230
C25 C 0.2603(13) 0.0031(19) 1.1168(11)
H19 H 0.2228 -0.0978 1.0867
H20 H 0.2702 -0.0116 1.1844
H21 H 0.3331 0.0167 1.0965
O6 O 0.5687(3) 0.9470(5) 0.8867(2)
O7 O 0.5254(4) 0.8856(8) 1.0270(3)
C28 C 0.6873(5) 1.0575(8) 1.0154(4)
H27 H 0.6742 1.1780 0.9984
H28 H 0.7505 1.0144 0.9876
H29 H 0.7035 1.0472 1.0832
C29 C 0.5853(5) 0.9546(7) 0.9801(3)
C30 C 0.4735(4) 0.8465(7) 0.8440(3)
H30 H 0.4037 0.8949 0.8604
H31 H 0.4804 0.7265 0.8661
C31 C 0.4725(4) 0.8536(7) 0.7406(3)
H32 H 0.4705 0.9734 0.7203
H33 H 0.4067 0.7937 0.7092
H34 H 0.5397 0.7985 0.7249
O5? O 0.1724(13) 0.084(2) 0.9816(9)
C26? C 0.2226(13) 0.026(2) 1.0751(8)
H22? H 0.3038 0.0126 1.0762
H23? H 0.1919 -0.0877 1.0872
C27? C 0.2029(12) 0.1466(18) 1.1518(11)
H24? H 0.2323 0.2601 1.1401
H25? H 0.2406 0.1030 1.2114
H26? H 0.1229 0.1552 1.1538
loop_
_geom_bond_atom_site_label_1
_geom_bond_atom_site_label_2
_geom_bond_site_symmetry_1
_geom_bond_site_symmetry_2
Cl1 C1 1_555 1_555
O1 C4 1_555 1_555
O2 C23 1_555 1_555
O3 C15 1_555 1_555
N1 C10 1_555 1_555
N2 C15 1_555 1_555
C1 C2 1_555 1_555
C2 H1 1_555 1_555
C3 C2 1_555 1_555
H2 C3 1_555 1_555
C4 C3 1_555 1_555
C5 C4 1_555 1_555
C6 C1 1_555 1_555
H3 C6 1_555 1_555
C7 C5 1_555 1_555
H4 C7 1_555 1_555
C8 C7 1_555 1_555
H5 C8 1_555 1_555
H6 C8 1_555 1_555
C9 O1 1_555 1_555
C10 C9 1_555 1_555
C11 C10 1_555 1_555
H7 C11 1_555 1_555
C12 C11 1_555 1_555
H8 C12 1_555 1_555
C13 N1 1_555 1_555
H9 C13 1_555 1_555
C14 N1 1_555 1_555
C15 C14 1_555 1_555
C16 N2 1_555 1_555
C17 C16 1_555 1_555
H10 C17 1_555 1_555
C18 C17 1_555 1_555
H11 C18 1_555 1_555
C19 C18 1_555 1_555
H12 C19 1_555 1_555
C20 C19 1_555 1_555
H13 C20 1_555 1_555
C21 C14 1_555 1_555
C22 N2 1_555 1_555
H14 C22 1_555 1_555
H15 C22 1_555 1_555
H16 C22 1_555 1_555
C23 C9 1_555 1_555
O4 C23 1_555 1_555
C24 O4 1_555 1_555
H17 C24 1_555 1_555
H18 C24 1_555 1_555
C25 C24 1_555 1_555
H19 C25 1_555 1_555
H20 C25 1_555 1_555
H21 C25 1_555 1_555
O6 C29 1_555 1_555
O7 C29 1_555 1_555
C28 H27 1_555 1_555
H28 C28 1_555 1_555
H29 C28 1_555 1_555
C29 C28 1_555 1_555
C30 O6 1_555 1_555
H30 C30 1_555 1_555
H31 C30 1_555 1_555
C31 C30 1_555 1_555
H32 C31 1_555 1_555
H33 C31 1_555 1_555
H34 C31 1_555 1_555
C5 C6 1_555 1_555
C7 C14 1_555 1_555
C8 C9 1_555 1_555
C12 C13 1_555 1_555
C16 C21 1_555 1_555
C20 C21 1_555 1_555

#END
