
#######################################################################
#
#                 Cambridge Crystallographic Data Centre
#                                CCDC 
#
#######################################################################
#
# If this CIF has been generated from an entry in the Cambridge 
# Structural Database, then it will include bibliographic, chemical, 
# crystal, experimental, refinement or atomic coordinate data resulting 
# from the CCDC's data processing and validation procedures.
#
#######################################################################

data_NEKZEL
_chemical_formula_moiety         'C32 H27 N1 O4 S1,0.5(C4 H10 O1)'
_chemical_name_systematic        
'4-[(4-methylphenyl)sulfonyl]-1,3a-diphenyl-3,3a,4,5-tetrahydro-1H-[1]benzofuro[3,2-b]furo[3,4-c]pyridine diethyl ether solvate'
_symmetry_cell_setting           orthorhombic
_symmetry_space_group_name_H-M   'P 21 21 21'
_symmetry_Int_Tables_number      19
_space_group_name_Hall           'P 2ac 2ab'
loop_
_symmetry_equiv_pos_site_id
_symmetry_equiv_pos_as_xyz
1 x,y,z
2 1/2-x,-y,1/2+z
3 -x,1/2+y,1/2-z
4 1/2+x,1/2-y,-z
_cell_length_a                   14.7304(4)
_cell_length_b                   18.4422(5)
_cell_length_c                   21.3432(6)
_cell_angle_alpha                90
_cell_angle_beta                 90
_cell_angle_gamma                90
_cell_volume                     5798.11
_exptl_crystal_colour            colorless
_exptl_crystal_description       rod
_cell_formula_units_Z            8
loop_
_atom_site_label
_atom_site_type_symbol
_atom_site_fract_x
_atom_site_fract_y
_atom_site_fract_z
S1 S 0.34268(5) 0.17986(5) 0.65680(4)
N1 N 0.57063(19) 0.25398(16) 0.56942(15)
O1 O 0.40314(16) 0.42040(13) 0.64978(12)
O2 O 0.58965(17) 0.37749(14) 0.69752(12)
O3 O 0.3271(2) 0.17182(16) 0.72305(13)
O4 O 0.27519(17) 0.21621(15) 0.61948(16)
C1 C 0.5941(2) 0.30461(18) 0.60720(16)
C2 C 0.6846(2) 0.3326(2) 0.62028(18)
C3 C 0.7685(3) 0.3229(2) 0.5921(2)
H1 H 0.7745 0.2948 0.5550
C4 C 0.8429(3) 0.3552(3) 0.6193(2)
H2 H 0.9010 0.3496 0.6006
C5 C 0.8341(3) 0.3963(3) 0.6744(2)
H3 H 0.8867 0.4178 0.6923
C6 C 0.7509(3) 0.4063(3) 0.7030(2)
H4 H 0.7449 0.4341 0.7403
C7 C 0.6767(2) 0.3739(2) 0.67477(18)
C8 C 0.5317(2) 0.34600(19) 0.65068(17)
C9 C 0.4507(2) 0.3013(2) 0.67910(16)
C10 C 0.4505(2) 0.22595(19) 0.64578(17)
H5 H 0.4977 0.1957 0.6671
C11 C 0.4765(2) 0.22922(19) 0.57625(17)
H6 H 0.4697 0.1805 0.5572
H7 H 0.4353 0.2629 0.5540
C12 C 0.3684(2) 0.34853(19) 0.65779(17)
H8 H 0.3431 0.3300 0.6179
H9 H 0.3200 0.3479 0.6899
C13 C 0.4832(2) 0.40846(19) 0.61390(16)
H10 H 0.4649 0.3893 0.5719
C14 C 0.5381(2) 0.47557(19) 0.60407(17)
C15 C 0.5808(2) 0.4862(2) 0.54677(18)
H11 H 0.5724 0.4522 0.5138
C16 C 0.6358(3) 0.5466(2) 0.5376(2)
H12 H 0.6651 0.5535 0.4984
C17 C 0.6481(3) 0.5964(2) 0.5849(2)
H13 H 0.6862 0.6373 0.5784
C18 C 0.6044(3) 0.5868(2) 0.6426(2)
H14 H 0.6119 0.6214 0.6752
C19 C 0.5499(3) 0.5265(2) 0.65162(19)
H15 H 0.5203 0.5197 0.6907
C20 C 0.4608(2) 0.2928(2) 0.75002(17)
C21 C 0.4017(3) 0.3247(2) 0.79176(18)
H16 H 0.3557 0.3563 0.7767
C22 C 0.4086(3) 0.3110(3) 0.85576(19)
H17 H 0.3663 0.3326 0.8837
C23 C 0.4751(3) 0.2671(2) 0.87891(19)
H18 H 0.4786 0.2573 0.9225
C24 C 0.5375(3) 0.2371(3) 0.8381(2)
H19 H 0.5851 0.2074 0.8537
C25 C 0.5307(3) 0.2504(3) 0.77430(19)
H20 H 0.5745 0.2303 0.7467
C26 C 0.3573(2) 0.0930(2) 0.62406(17)
C27 C 0.3833(3) 0.0352(2) 0.6620(2)
H21 H 0.3978 0.0428 0.7048
C28 C 0.3875(3) -0.0342(2) 0.6360(3)
H22 H 0.4048 -0.0741 0.6615
C29 C 0.3668(3) -0.0454(3) 0.5735(3)
C30 C 0.3437(3) 0.0137(3) 0.5364(2)
H23 H 0.3318 0.0066 0.4931
C31 C 0.3379(3) 0.0823(2) 0.56137(19)
H24 H 0.3206 0.1221 0.5357
C32 C 0.3690(5) -0.1204(3) 0.5454(4)
H25 H 0.4268 -0.1277 0.5236
H26 H 0.3188 -0.1257 0.5156
H27 H 0.3628 -0.1565 0.5788
S2 S 0.09028(5) 0.43679(5) 0.56729(4)
N2 N 0.31020(19) 0.33095(16) 0.49978(13)
O5 O 0.10794(16) 0.41337(14) 0.39873(12)
O6 O 0.32293(15) 0.46746(13) 0.38104(11)
O7 O 0.07161(19) 0.51322(15) 0.57031(14)
O8 O 0.02566(17) 0.38950(17) 0.53791(12)
C33 C 0.3312(2) 0.37114(19) 0.45343(16)
C34 C 0.4181(2) 0.37882(19) 0.42128(16)
C35 C 0.5005(2) 0.3423(2) 0.42594(17)
H28 H 0.5073 0.3023 0.4535
C36 C 0.5722(3) 0.3657(2) 0.38944(19)
H29 H 0.6290 0.3416 0.3918
C37 C 0.5614(3) 0.4248(2) 0.3489(2)
H30 H 0.6117 0.4404 0.3245
C38 C 0.4795(2) 0.4613(2) 0.34353(19)
H31 H 0.4725 0.5013 0.3158
C39 C 0.4083(2) 0.4371(2) 0.38015(17)
C40 C 0.2671(2) 0.42381(18) 0.42201(16)
C41 C 0.1926(2) 0.38131(19) 0.38326(16)
H32 H 0.1916 0.3302 0.3988
C42 C 0.1240(2) 0.4814(2) 0.42846(17)
H33 H 0.0717 0.4950 0.4551
H34 H 0.1335 0.5199 0.3968
C43 C 0.2102(2) 0.47094(19) 0.46865(16)
C44 C 0.1994(2) 0.42445(19) 0.52971(16)
H35 H 0.2459 0.4430 0.5599
C45 C 0.2176(2) 0.34286(19) 0.52270(16)
H36 H 0.2097 0.3186 0.5637
H37 H 0.1735 0.3216 0.4929
C46 C 0.2103(2) 0.37900(19) 0.31338(16)
C47 C 0.2715(3) 0.3286(2) 0.29040(18)
H38 H 0.3017 0.2967 0.3185
C48 C 0.2892(3) 0.3242(2) 0.22649(19)
H39 H 0.3321 0.2902 0.2111
C49 C 0.2437(3) 0.3698(2) 0.18547(19)
H40 H 0.2553 0.3668 0.1418
C50 C 0.1814(3) 0.4195(2) 0.20792(18)
H41 H 0.1501 0.4504 0.1796
C51 C 0.1646(2) 0.4241(2) 0.27192(17)
H42 H 0.1217 0.4583 0.2873
C52 C 0.1099(2) 0.4056(2) 0.64451(17)
C53 C 0.0889(2) 0.3346(2) 0.66095(18)
H43 H 0.0631 0.3024 0.6311
C54 C 0.1063(3) 0.3118(2) 0.72154(19)
H44 H 0.0918 0.2635 0.7334
C55 C 0.1450(3) 0.3588(3) 0.76577(19)
C56 C 0.1657(3) 0.4288(2) 0.74784(18)
H45 H 0.1928 0.4608 0.7772
C57 C 0.1476(3) 0.4532(2) 0.68739(18)
H46 H 0.1609 0.5018 0.6757
C58 C 0.1632(3) 0.3330(3) 0.8316(2)
H47 H 0.1063 0.3166 0.8508
H48 H 0.1885 0.3729 0.8564
H49 H 0.2066 0.2927 0.8306
C59 C 0.2562(2) 0.54247(19) 0.48562(16)
C60 C 0.2074(3) 0.6068(2) 0.48603(17)
H50 H 0.1443 0.6062 0.4767
C61 C 0.2501(3) 0.6723(2) 0.50007(18)
H51 H 0.2165 0.7162 0.4987
C62 C 0.3413(3) 0.6738(2) 0.51596(18)
H52 H 0.3705 0.7186 0.5249
C63 C 0.3894(3) 0.6094(2) 0.51868(19)
H53 H 0.4513 0.6095 0.5312
C64 C 0.3472(3) 0.5445(2) 0.50312(17)
H54 H 0.3810 0.5006 0.5044
C65 C 0.4039(11) 0.1967(7) 0.1040(8)
H55 H 0.4399 0.1797 0.0677
H56 H 0.3490 0.2215 0.0879
C66 C 0.3767(13) 0.1334(8) 0.1435(8)
H57 H 0.4256 0.0973 0.1435
H58 H 0.3213 0.1116 0.1263
H59 H 0.3653 0.1497 0.1865
O9 O 0.4589(4) 0.2482(3) 0.1422(3)
C67 C 0.4875(14) 0.3123(8) 0.1137(12)
H60 H 0.4330 0.3395 0.1001
H61 H 0.5223 0.2995 0.0756
C68 C 0.5438(10) 0.3607(6) 0.1524(7)
H62 H 0.5054 0.3854 0.1832
H63 H 0.5732 0.3968 0.1255
H64 H 0.5902 0.3322 0.1742
C69? C 0.3922(13) 0.2163(10) 0.0904(11)
H65? H 0.3722 0.1978 0.0491
H66? H 0.3413 0.2449 0.1079
C70? C 0.4072(14) 0.1524(11) 0.1323(12)
H67? H 0.4691 0.1342 0.1267
H68? H 0.3637 0.1141 0.1217
H69? H 0.3985 0.1671 0.1760
O10? O 0.4697(8) 0.2668(6) 0.0796(5)
C71? C 0.4941(13) 0.3147(13) 0.1272(15)
H70? H 0.5033 0.2865 0.1662
H71? H 0.4428 0.3483 0.1345
C72? C 0.5767(8) 0.3581(8) 0.1154(7)
H72? H 0.6270 0.3258 0.1044
H73? H 0.5924 0.3855 0.1533
H74? H 0.5654 0.3919 0.0809
loop_
_geom_bond_atom_site_label_1
_geom_bond_atom_site_label_2
_geom_bond_site_symmetry_1
_geom_bond_site_symmetry_2
S1 O3 1_555 1_555
N1 C1 1_555 1_555
O1 C12 1_555 1_555
O2 C7 1_555 1_555
O4 S1 1_555 1_555
C1 C2 1_555 1_555
C2 C3 1_555 1_555
C3 H1 1_555 1_555
C4 C3 1_555 1_555
H2 C4 1_555 1_555
C5 C4 1_555 1_555
H3 C5 1_555 1_555
C6 C5 1_555 1_555
H4 C6 1_555 1_555
C7 C2 1_555 1_555
C8 O2 1_555 1_555
C9 C8 1_555 1_555
C10 S1 1_555 1_555
H5 C10 1_555 1_555
C11 N1 1_555 1_555
H6 C11 1_555 1_555
H7 C11 1_555 1_555
C12 C9 1_555 1_555
H8 C12 1_555 1_555
H9 C12 1_555 1_555
C13 O1 1_555 1_555
H10 C13 1_555 1_555
C14 C13 1_555 1_555
C15 C14 1_555 1_555
H11 C15 1_555 1_555
C16 C15 1_555 1_555
H12 C16 1_555 1_555
C17 C16 1_555 1_555
H13 C17 1_555 1_555
C18 C17 1_555 1_555
H14 C18 1_555 1_555
C19 C14 1_555 1_555
H15 C19 1_555 1_555
C20 C9 1_555 1_555
C21 C20 1_555 1_555
H16 C21 1_555 1_555
C22 C21 1_555 1_555
H17 C22 1_555 1_555
C23 C22 1_555 1_555
H18 C23 1_555 1_555
C24 C23 1_555 1_555
H19 C24 1_555 1_555
C25 C20 1_555 1_555
H20 C25 1_555 1_555
C26 S1 1_555 1_555
C27 C26 1_555 1_555
H21 C27 1_555 1_555
C28 C27 1_555 1_555
H22 C28 1_555 1_555
C29 C28 1_555 1_555
C30 C29 1_555 1_555
H23 C30 1_555 1_555
C31 C26 1_555 1_555
H24 C31 1_555 1_555
C32 C29 1_555 1_555
H25 C32 1_555 1_555
H26 C32 1_555 1_555
H27 C32 1_555 1_555
S2 O7 1_555 1_555
N2 C33 1_555 1_555
O5 C41 1_555 1_555
O6 C39 1_555 1_555
O8 S2 1_555 1_555
C33 C34 1_555 1_555
C34 C35 1_555 1_555
C35 H28 1_555 1_555
C36 C35 1_555 1_555
H29 C36 1_555 1_555
C37 C36 1_555 1_555
H30 C37 1_555 1_555
C38 C37 1_555 1_555
H31 C38 1_555 1_555
C39 C34 1_555 1_555
C40 O6 1_555 1_555
C41 C40 1_555 1_555
H32 C41 1_555 1_555
C42 O5 1_555 1_555
H33 C42 1_555 1_555
H34 C42 1_555 1_555
C43 C40 1_555 1_555
C44 S2 1_555 1_555
H35 C44 1_555 1_555
C45 N2 1_555 1_555
H36 C45 1_555 1_555
H37 C45 1_555 1_555
C46 C41 1_555 1_555
C47 C46 1_555 1_555
H38 C47 1_555 1_555
C48 C47 1_555 1_555
H39 C48 1_555 1_555
C49 C48 1_555 1_555
H40 C49 1_555 1_555
C50 C49 1_555 1_555
H41 C50 1_555 1_555
C51 C46 1_555 1_555
H42 C51 1_555 1_555
C52 S2 1_555 1_555
C53 C52 1_555 1_555
H43 C53 1_555 1_555
C54 C53 1_555 1_555
H44 C54 1_555 1_555
C55 C54 1_555 1_555
C56 C55 1_555 1_555
H45 C56 1_555 1_555
C57 C52 1_555 1_555
H46 C57 1_555 1_555
C58 C55 1_555 1_555
H47 C58 1_555 1_555
H48 C58 1_555 1_555
H49 C58 1_555 1_555
C59 C43 1_555 1_555
C60 C59 1_555 1_555
H50 C60 1_555 1_555
C61 C60 1_555 1_555
H51 C61 1_555 1_555
C62 C61 1_555 1_555
H52 C62 1_555 1_555
C63 C62 1_555 1_555
H53 C63 1_555 1_555
C64 C59 1_555 1_555
H54 C64 1_555 1_555
C65 H55 1_555 1_555
H56 C65 1_555 1_555
C66 C65 1_555 1_555
H57 C66 1_555 1_555
H58 C66 1_555 1_555
H59 C66 1_555 1_555
O9 C65 1_555 1_555
C67 O9 1_555 1_555
H60 C67 1_555 1_555
H61 C67 1_555 1_555
C68 C67 1_555 1_555
H62 C68 1_555 1_555
H63 C68 1_555 1_555
H64 C68 1_555 1_555
C1 C8 1_555 1_555
C6 C7 1_555 1_555
C8 C13 1_555 1_555
C9 C10 1_555 1_555
C10 C11 1_555 1_555
C18 C19 1_555 1_555
C24 C25 1_555 1_555
C30 C31 1_555 1_555
C33 C40 1_555 1_555
C38 C39 1_555 1_555
C42 C43 1_555 1_555
C43 C44 1_555 1_555
C44 C45 1_555 1_555
C50 C51 1_555 1_555
C56 C57 1_555 1_555
C63 C64 1_555 1_555

#END
