
#######################################################################
#
#                 Cambridge Crystallographic Data Centre
#                                CCDC 
#
#######################################################################
#
# If this CIF has been generated from an entry in the Cambridge 
# Structural Database, then it will include bibliographic, chemical, 
# crystal, experimental, refinement or atomic coordinate data resulting 
# from the CCDC's data processing and validation procedures.
#
#######################################################################

data_NELFOC
_chemical_formula_moiety         'C13 H15 N1 O3'
_chemical_name_systematic        
2-hydroxy-1-(4-hydroxyphenyl)hexahydro-3H-pyrrolizin-3-one
_symmetry_cell_setting           orthorhombic
_symmetry_space_group_name_H-M   'P 21 21 21'
_symmetry_Int_Tables_number      19
_space_group_name_Hall           'P 2ac 2ab'
loop_
_symmetry_equiv_pos_site_id
_symmetry_equiv_pos_as_xyz
1 x,y,z
2 1/2-x,-y,1/2+z
3 -x,1/2+y,1/2-z
4 1/2+x,1/2-y,-z
_cell_length_a                   9.5217(8)
_cell_length_b                   9.7711(11)
_cell_length_c                   12.4273(10)
_cell_angle_alpha                90
_cell_angle_beta                 90
_cell_angle_gamma                90
_cell_volume                     1156.2
_exptl_crystal_colour            colorless
_exptl_crystal_description       prism
_cell_formula_units_Z            4
loop_
_atom_site_label
_atom_site_type_symbol
_atom_site_fract_x
_atom_site_fract_y
_atom_site_fract_z
N1 N 0.2012(2) 0.4464(2) 0.09601(16)
O1 O 0.0206(2) 0.38147(19) 0.20666(15)
O2 O -0.0807(2) 0.6514(2) 0.17352(16)
H1 H -0.0858 0.7187 0.2128
O3 O -0.2221(2) 0.6089(4) -0.32896(16)
H2 H -0.2919 0.5620 -0.3173
C1 C 0.0897(3) 0.4676(3) 0.15631(17)
C2 C 0.0608(3) 0.6216(3) 0.1525(2)
H3 H 0.1179 0.6657 0.2082
C3 C 0.1201(3) 0.6637(2) 0.0413(2)
H4 H 0.1514 0.7592 0.0444
C4 C 0.2506(3) 0.5685(3) 0.0387(2)
H5 H 0.3267 0.6110 0.0800
C5 C 0.3107(3) 0.5072(3) -0.0638(2)
H6 H 0.3827 0.5655 -0.0946
H7 H 0.2379 0.4913 -0.1169
C6 C 0.3728(3) 0.3721(3) -0.0227(3)
H8 H 0.3849 0.3075 -0.0813
H9 H 0.4630 0.3873 0.0116
C7 C 0.2649(3) 0.3198(3) 0.0583(2)
H10 H 0.1962 0.2608 0.0241
H11 H 0.3097 0.2705 0.1167
C8 C 0.0234(3) 0.6456(2) -0.0536(2)
C9 C -0.0856(3) 0.5518(3) -0.0579(2)
H12 H -0.1033 0.4969 0.0017
C10 C -0.1688(3) 0.5377(3) -0.1483(2)
H13 H -0.2413 0.4739 -0.1490
C11 C -0.1441(3) 0.6183(4) -0.2378(2)
C12 C -0.0373(3) 0.7140(3) -0.2348(2)
H14 H -0.0210 0.7699 -0.2940
C13 C 0.0448(3) 0.7265(3) -0.1444(2)
H15 H 0.1167 0.7909 -0.1438
loop_
_geom_bond_atom_site_label_1
_geom_bond_atom_site_label_2
_geom_bond_site_symmetry_1
_geom_bond_site_symmetry_2
N1 C1 1_555 1_555
O1 C1 1_555 1_555
O2 H1 1_555 1_555
O3 H2 1_555 1_555
C1 C2 1_555 1_555
C2 O2 1_555 1_555
H3 C2 1_555 1_555
C3 C2 1_555 1_555
H4 C3 1_555 1_555
C4 N1 1_555 1_555
H5 C4 1_555 1_555
C5 C4 1_555 1_555
H6 C5 1_555 1_555
H7 C5 1_555 1_555
C6 C5 1_555 1_555
H8 C6 1_555 1_555
H9 C6 1_555 1_555
C7 N1 1_555 1_555
H10 C7 1_555 1_555
H11 C7 1_555 1_555
C8 C3 1_555 1_555
C9 C8 1_555 1_555
H12 C9 1_555 1_555
C10 C9 1_555 1_555
H13 C10 1_555 1_555
C11 O3 1_555 1_555
C12 C11 1_555 1_555
H14 C12 1_555 1_555
C13 C8 1_555 1_555
H15 C13 1_555 1_555
C3 C4 1_555 1_555
C6 C7 1_555 1_555
C10 C11 1_555 1_555
C12 C13 1_555 1_555

#END
