
#######################################################################
#
#                 Cambridge Crystallographic Data Centre
#                                CCDC 
#
#######################################################################
#
# If this CIF has been generated from an entry in the Cambridge 
# Structural Database, then it will include bibliographic, chemical, 
# crystal, experimental, refinement or atomic coordinate data resulting 
# from the CCDC's data processing and validation procedures.
#
#######################################################################

data_NELFIU
_chemical_formula_moiety         'C50 H68 N2 O12 2+,2(Cl1 O4 1-)'
_chemical_name_systematic        
'r-4-(c-2,t-4-bis(2,3,5,6,8,9,11,12,14,15-Decahydro-1,4,7,10,13,16-benzohexaoxacyclooctadecin-18-yl)-t-3-(1-ethylpyridinium-4-yl)cyclobutyl)-1-ethylpyridinium diperchlorate'
_symmetry_cell_setting           monoclinic
_symmetry_space_group_name_H-M   'P 21/c'
_symmetry_Int_Tables_number      14
_space_group_name_Hall           '-P 2ybc'
loop_
_symmetry_equiv_pos_site_id
_symmetry_equiv_pos_as_xyz
1 x,y,z
2 -x,1/2+y,1/2-z
3 -x,-y,-z
4 x,1/2-y,1/2+z
_cell_length_a                   10.953(1)
_cell_length_b                   8.2397(9)
_cell_length_c                   28.705(4)
_cell_angle_alpha                90
_cell_angle_beta                 100.355(6)
_cell_angle_gamma                90
_cell_volume                     2548.42
_exptl_crystal_colour            'light yellow'
_exptl_crystal_description       prism
_chemical_melting_point          88-90deg.C
_cell_formula_units_Z            2
_exptl_crystal_preparation       'irradiated product'
loop_
_atom_site_label
_atom_site_type_symbol
_atom_site_fract_x
_atom_site_fract_y
_atom_site_fract_z
Cl1 Cl 0.85560(19) 0.1000(4) 0.09900(9)
O1 O 0.884(2) 0.066(3) 0.0564(5)
O2 O 0.768(2) 0.220(3) 0.0948(9)
O3 O 0.9672(8) 0.1397(15) 0.1324(3)
O4 O 0.8089(11) -0.0520(16) 0.1184(4)
O9 O 0.2494(4) 0.6479(7) 0.0585(2)
O10 O 0.0625(6) 0.5859(11) 0.1184(3)
O11 O 0.1130(6) 0.5315(13) 0.2209(2)
O12 O 0.3693(6) 0.5885(11) 0.2574(2)
O13 O 0.5407(7) 0.5807(9) 0.1957(3)
O14 O 0.4722(4) 0.5518(6) 0.0940(2)
N1 N 0.7078(7) -0.1719(10) -0.1315(3)
C1 C 0.2968(6) 0.5266(10) 0.0339(3)
C2 C 0.4170(6) 0.4724(9) 0.0545(3)
C3 C 0.4668(6) 0.3415(10) 0.0348(3)
H1 H 0.5473 0.3044 0.0486
C4 C 0.4016(6) 0.2613(8) -0.0053(3)
C5 C 0.2886(6) 0.3276(10) -0.0274(3)
H2 H 0.2462 0.2814 -0.0561
C6 C 0.2382(6) 0.4583(9) -0.0083(3)
H3 H 0.1619 0.5027 -0.0241
C7 C 0.4386(7) 0.0952(10) -0.0201(3)
C8 C 0.5768(7) 0.0498(10) -0.0153(3)
C9 C 0.6227(7) -0.0069(10) -0.0591(3)
C10 C 0.5516(9) -0.0214(12) -0.1031(3)
H4 H 0.4710 0.0254 -0.1085
C11 C 0.5911(10) -0.1005(14) -0.1399(4)
H5 H 0.5398 -0.1060 -0.1703
C12 C 0.7831(8) -0.1532(11) -0.0898(3)
H6 H 0.8641 -0.1986 -0.0854
C13 C 0.7463(8) -0.0693(10) -0.0528(3)
H7 H 0.8022 -0.0536 -0.0238
C14 C 0.7461(10) -0.2680(13) -0.1699(3)
H8 H 0.6771 -0.3399 -0.1843
H9 H 0.8179 -0.3371 -0.1566
C15 C 0.7818(13) -0.1553(19) -0.2082(4)
H10 H 0.8065 -0.2209 -0.2334
H11 H 0.8511 -0.0857 -0.1940
H12 H 0.7104 -0.0876 -0.2215
C16 C 0.1163(6) 0.6739(10) 0.0465(3)
H13 H 0.0746 0.5730 0.0334
H14 H 0.0978 0.7603 0.0223
C17 C 0.0698(7) 0.7224(11) 0.0903(3)
H15 H 0.1268 0.8031 0.1082
H16 H -0.0132 0.7729 0.0817
C18 C -0.0210(12) 0.598(4) 0.1509(6)
H17 H -0.0734 0.6944 0.1409
H18 H -0.0764 0.5027 0.1449
C19 C 0.0091(11) 0.608(3) 0.1926(5)
H19 H -0.0640 0.5724 0.2058
H20 H 0.0189 0.7254 0.1996
C20 C 0.1547(9) 0.631(2) 0.2608(4)
H21 H 0.1510 0.7455 0.2503
H22 H 0.0965 0.6186 0.2832
C21 C 0.2759(9) 0.5985(17) 0.2852(4)
H23 H 0.2742 0.4947 0.3025
H24 H 0.2992 0.6847 0.3092
C22 C 0.4021(10) 0.7191(14) 0.2359(4)
H25 H 0.4641 0.7789 0.2589
H26 H 0.3282 0.7897 0.2280
C23 C 0.4541(11) 0.6971(15) 0.1923(5)
H27 H 0.3858 0.6702 0.1659
H28 H 0.4911 0.8010 0.1845
C24 C 0.6235(7) 0.5840(13) 0.1632(3)
H29 H 0.7060 0.5463 0.1796
H30 H 0.6327 0.6977 0.1532
C25 C 0.5837(6) 0.4816(10) 0.1199(3)
H31 H 0.6492 0.4803 0.1002
H32 H 0.5682 0.3686 0.1290
H33 H 0.3957 0.0714 -0.0519
H34 H 0.6290 0.1342 0.0008
O9B O 0.7506(4) -0.6479(7) -0.0585(2)
O10B O 0.9375(6) -0.5859(11) -0.1184(3)
O11B O 0.8870(6) -0.5315(13) -0.2209(2)
O12B O 0.6307(6) -0.5885(11) -0.2574(2)
O13B O 0.4593(7) -0.5807(9) -0.1957(3)
O14B O 0.5278(4) -0.5518(6) -0.0940(2)
N1B N 0.2922(7) 0.1719(10) 0.1315(3)
C1B C 0.7032(6) -0.5266(10) -0.0339(3)
C2B C 0.5830(6) -0.4724(9) -0.0545(3)
C3B C 0.5332(6) -0.3415(10) -0.0348(3)
H1B H 0.4527 -0.3044 -0.0486
C4B C 0.5984(6) -0.2613(8) 0.0053(3)
C5B C 0.7114(6) -0.3276(10) 0.0274(3)
H2B H 0.7538 -0.2814 0.0561
C6B C 0.7618(6) -0.4583(9) 0.0083(3)
H3B H 0.8381 -0.5027 0.0241
C7B C 0.5614(7) -0.0952(10) 0.0201(3)
C8B C 0.4232(7) -0.0498(10) 0.0153(3)
C9B C 0.3773(7) 0.0069(10) 0.0591(3)
C10B C 0.4484(9) 0.0214(12) 0.1031(3)
H4B H 0.5290 -0.0254 0.1085
C11B C 0.4089(10) 0.1005(14) 0.1399(4)
H5B H 0.4602 0.1060 0.1703
C12B C 0.2169(8) 0.1532(11) 0.0898(3)
H6B H 0.1359 0.1986 0.0854
C13B C 0.2537(8) 0.0693(10) 0.0528(3)
H7B H 0.1978 0.0536 0.0238
C14B C 0.2539(10) 0.2680(13) 0.1699(3)
H8B H 0.3229 0.3399 0.1843
H9B H 0.1821 0.3371 0.1566
C15B C 0.2182(13) 0.1553(19) 0.2082(4)
H10B H 0.1935 0.2209 0.2334
H11B H 0.1489 0.0857 0.1940
H12B H 0.2896 0.0876 0.2215
C16B C 0.8837(6) -0.6739(10) -0.0465(3)
H13B H 0.9254 -0.5730 -0.0334
H14B H 0.9022 -0.7603 -0.0223
C17B C 0.9302(7) -0.7224(11) -0.0903(3)
H15B H 0.8732 -0.8031 -0.1082
H16B H 1.0132 -0.7729 -0.0817
C18B C 1.0210(12) -0.598(4) -0.1509(6)
H17B H 1.0734 -0.6944 -0.1409
H18B H 1.0764 -0.5027 -0.1449
C19B C 0.9909(11) -0.608(3) -0.1926(5)
H19B H 1.0640 -0.5724 -0.2058
H20B H 0.9811 -0.7254 -0.1996
C20B C 0.8453(9) -0.631(2) -0.2608(4)
H21B H 0.8490 -0.7455 -0.2503
H22B H 0.9035 -0.6186 -0.2832
C21B C 0.7241(9) -0.5985(17) -0.2852(4)
H23B H 0.7258 -0.4947 -0.3025
H24B H 0.7008 -0.6847 -0.3092
C22B C 0.5979(10) -0.7191(14) -0.2359(4)
H25B H 0.5359 -0.7789 -0.2589
H26B H 0.6718 -0.7897 -0.2280
C23B C 0.5459(11) -0.6971(15) -0.1923(5)
H27B H 0.6142 -0.6702 -0.1659
H28B H 0.5089 -0.8010 -0.1845
C24B C 0.3765(7) -0.5840(13) -0.1632(3)
H29B H 0.2940 -0.5463 -0.1796
H30B H 0.3673 -0.6977 -0.1532
C25B C 0.4163(6) -0.4816(10) -0.1199(3)
H31B H 0.3508 -0.4803 -0.1002
H32B H 0.4318 -0.3686 -0.1290
H33B H 0.6043 -0.0714 0.0519
H34B H 0.3710 -0.1342 -0.0008
O5? O 0.916(3) 0.250(4) 0.1075(15)
O6? O 0.874(5) 0.008(7) 0.1300(14)
O7? O 0.732(4) 0.177(5) 0.0954(12)
O8? O 0.884(6) 0.049(6) 0.0432(13)
loop_
_geom_bond_atom_site_label_1
_geom_bond_atom_site_label_2
_geom_bond_site_symmetry_1
_geom_bond_site_symmetry_2
Cl1 O1 1_555 1_555
O2 Cl1 1_555 1_555
O3 Cl1 1_555 1_555
O4 Cl1 1_555 1_555
O9 C1 1_555 1_555
O10 C17 1_555 1_555
O11 C19 1_555 1_555
O12 C21 1_555 1_555
O13 C23 1_555 1_555
O14 C2 1_555 1_555
N1 C11 1_555 1_555
C1 C2 1_555 1_555
C2 C3 1_555 1_555
C3 H1 1_555 1_555
C4 C3 1_555 1_555
C5 C4 1_555 1_555
H2 C5 1_555 1_555
C6 C1 1_555 1_555
H3 C6 1_555 1_555
C7 C4 1_555 1_555
C8 C7 1_555 1_555
C9 C8 1_555 1_555
C10 C9 1_555 1_555
H4 C10 1_555 1_555
C11 C10 1_555 1_555
H5 C11 1_555 1_555
C12 N1 1_555 1_555
H6 C12 1_555 1_555
C13 C9 1_555 1_555
H7 C13 1_555 1_555
C14 N1 1_555 1_555
H8 C14 1_555 1_555
H9 C14 1_555 1_555
C15 C14 1_555 1_555
H10 C15 1_555 1_555
H11 C15 1_555 1_555
H12 C15 1_555 1_555
C16 O9 1_555 1_555
H13 C16 1_555 1_555
H14 C16 1_555 1_555
C17 C16 1_555 1_555
H15 C17 1_555 1_555
H16 C17 1_555 1_555
C18 O10 1_555 1_555
H17 C18 1_555 1_555
H18 C18 1_555 1_555
C19 C18 1_555 1_555
H19 C19 1_555 1_555
H20 C19 1_555 1_555
C20 O11 1_555 1_555
H21 C20 1_555 1_555
H22 C20 1_555 1_555
C21 C20 1_555 1_555
H23 C21 1_555 1_555
H24 C21 1_555 1_555
C22 O12 1_555 1_555
H25 C22 1_555 1_555
H26 C22 1_555 1_555
C23 C22 1_555 1_555
H27 C23 1_555 1_555
H28 C23 1_555 1_555
C24 O13 1_555 1_555
H29 C24 1_555 1_555
H30 C24 1_555 1_555
C25 O14 1_555 1_555
H31 C25 1_555 1_555
H32 C25 1_555 1_555
H33 C7 1_555 1_555
H34 C8 1_555 1_555
O9B C1B 1_555 1_555
O10B C17B 1_555 1_555
O11B C19B 1_555 1_555
O12B C21B 1_555 1_555
O13B C23B 1_555 1_555
O14B C2B 1_555 1_555
N1B C11B 1_555 1_555
C1B C2B 1_555 1_555
C2B C3B 1_555 1_555
C3B H1B 1_555 1_555
C4B C3B 1_555 1_555
C5B C4B 1_555 1_555
H2B C5B 1_555 1_555
C6B C1B 1_555 1_555
H3B C6B 1_555 1_555
C7B C8 1_555 1_555
C8B C7 1_555 1_555
C9B C8B 1_555 1_555
C10B C9B 1_555 1_555
H4B C10B 1_555 1_555
C11B C10B 1_555 1_555
H5B C11B 1_555 1_555
C12B N1B 1_555 1_555
H6B C12B 1_555 1_555
C13B C9B 1_555 1_555
H7B C13B 1_555 1_555
C14B N1B 1_555 1_555
H8B C14B 1_555 1_555
H9B C14B 1_555 1_555
C15B C14B 1_555 1_555
H10B C15B 1_555 1_555
H11B C15B 1_555 1_555
H12B C15B 1_555 1_555
C16B O9B 1_555 1_555
H13B C16B 1_555 1_555
H14B C16B 1_555 1_555
C17B C16B 1_555 1_555
H15B C17B 1_555 1_555
H16B C17B 1_555 1_555
C18B O10B 1_555 1_555
H17B C18B 1_555 1_555
H18B C18B 1_555 1_555
C19B C18B 1_555 1_555
H19B C19B 1_555 1_555
H20B C19B 1_555 1_555
C20B O11B 1_555 1_555
H21B C20B 1_555 1_555
H22B C20B 1_555 1_555
C21B C20B 1_555 1_555
H23B C21B 1_555 1_555
H24B C21B 1_555 1_555
C22B O12B 1_555 1_555
H25B C22B 1_555 1_555
H26B C22B 1_555 1_555
C23B C22B 1_555 1_555
H27B C23B 1_555 1_555
H28B C23B 1_555 1_555
C24B O13B 1_555 1_555
H29B C24B 1_555 1_555
H30B C24B 1_555 1_555
C25B O14B 1_555 1_555
H31B C25B 1_555 1_555
H32B C25B 1_555 1_555
H33B C7B 1_555 1_555
H34B C8B 1_555 1_555
C5 C6 1_555 1_555
C12 C13 1_555 1_555
C24 C25 1_555 1_555
C4B C7B 1_555 1_555
C5B C6B 1_555 1_555
C7B C8B 1_555 1_555
C12B C13B 1_555 1_555
C24B C25B 1_555 1_555

#END
