
#######################################################################
#
#                 Cambridge Crystallographic Data Centre
#                                CCDC 
#
#######################################################################
#
# If this CIF has been generated from an entry in the Cambridge 
# Structural Database, then it will include bibliographic, chemical, 
# crystal, experimental, refinement or atomic coordinate data resulting 
# from the CCDC's data processing and validation procedures.
#
#######################################################################

data_NELFIW
_chemical_formula_moiety         'C16 H19 N1 O5,C2 H6 O1 S1'
_chemical_name_systematic        
'1,2-dihydroxy-1-(4-hydroxyphenyl)-2-(2-oxopropyl)hexahydro-3H-pyrrolizin-3-one dimethyl sulfoxide solvate'
_symmetry_cell_setting           triclinic
_symmetry_space_group_name_H-M   'P 1'
_symmetry_Int_Tables_number      1
_space_group_name_Hall           'P 1'
loop_
_symmetry_equiv_pos_site_id
_symmetry_equiv_pos_as_xyz
1 x,y,z
_cell_length_a                   5.6325(5)
_cell_length_b                   7.9186(7)
_cell_length_c                   10.9501(9)
_cell_angle_alpha                88.389(2)
_cell_angle_beta                 83.8230(10)
_cell_angle_gamma                87.401(2)
_cell_volume                     484.923
_exptl_crystal_colour            colorless
_exptl_crystal_description       prism
_cell_formula_units_Z            1
loop_
_atom_site_label
_atom_site_type_symbol
_atom_site_fract_x
_atom_site_fract_y
_atom_site_fract_z
N1 N 0.3467(11) 0.7161(7) 0.7116(5)
O1 O 0.6071(11) 0.6950(7) 0.8595(5)
O2 O 0.8484(8) 0.4394(6) 0.7231(4)
H1 H 0.9403 0.4852 0.6704
O3 O 0.7740(8) 0.6450(6) 0.5321(4)
H2 H 0.7828 0.6679 0.4583
O4 O 0.5554(11) 0.0068(6) 0.2305(4)
H3 H 0.6724 -0.0583 0.2326
O5 O 0.2834(18) 0.3687(11) 0.9456(7)
C1 C 0.5254(13) 0.6429(9) 0.7706(6)
C2 C 0.6099(12) 0.4833(9) 0.7019(6)
C3 C 0.5769(11) 0.5403(8) 0.5651(6)
C4 C 0.3401(11) 0.6498(8) 0.5860(6)
H4 H 0.2020 0.5793 0.5840
C5 C 0.3095(13) 0.8116(9) 0.5095(6)
H5 H 0.4634 0.8551 0.4788
H6 H 0.2206 0.7921 0.4405
C6 C 0.1718(19) 0.9326(11) 0.5983(8)
H7 H 0.0014 0.9186 0.5994
H8 H 0.2055 1.0485 0.5739
C7 C 0.2509(18) 0.8920(10) 0.7244(8)
H9 H 0.3732 0.9668 0.7431
H10 H 0.1173 0.9001 0.7880
C8 C 0.4567(13) 0.3318(8) 0.7420(6)
H11 H 0.2968 0.3536 0.7185
H12 H 0.5248 0.2320 0.6997
C9 C 0.4424(17) 0.2981(10) 0.8802(7)
C10 C 0.622(2) 0.1783(12) 0.9291(8)
H13 H 0.6081 0.1838 1.0170
H14 H 0.7797 0.2083 0.8959
H15 H 0.5943 0.0655 0.9059
C11 C 0.5685(11) 0.4008(8) 0.4754(5)
C12 C 0.7554(12) 0.2761(9) 0.4628(7)
H16 H 0.8818 0.2816 0.5104
C13 C 0.7553(13) 0.1476(9) 0.3825(7)
H17 H 0.8822 0.0678 0.3762
C14 C 0.5685(13) 0.1329(8) 0.3095(6)
C15 C 0.3876(13) 0.2582(9) 0.3190(6)
H18 H 0.2635 0.2546 0.2697
C16 C 0.3883(12) 0.3880(9) 0.4004(6)
H19 H 0.2636 0.4694 0.4049
O6 O 0.8532(11) 0.7471(7) 0.2856(4)
S1 S 1.0095(4) 0.6422(3) 0.19343(18)
C17 C 1.112(2) 0.7862(15) 0.0743(11)
H20 H 0.9779 0.8360 0.0372
H21 H 1.2170 0.7270 0.0134
H22 H 1.1968 0.8733 0.1080
C18 C 0.816(3) 0.5311(18) 0.1136(11)
H23 H 0.7419 0.4459 0.1669
H24 H 0.9047 0.4786 0.0439
H25 H 0.6950 0.6080 0.0860
loop_
_geom_bond_atom_site_label_1
_geom_bond_atom_site_label_2
_geom_bond_site_symmetry_1
_geom_bond_site_symmetry_2
N1 C1 1_555 1_555
O1 C1 1_555 1_555
O2 H1 1_555 1_555
O3 H2 1_555 1_555
O4 H3 1_555 1_555
O5 C9 1_555 1_555
C1 C2 1_555 1_555
C2 O2 1_555 1_555
C3 O3 1_555 1_555
C4 N1 1_555 1_555
H4 C4 1_555 1_555
C5 C4 1_555 1_555
H5 C5 1_555 1_555
H6 C5 1_555 1_555
C6 C5 1_555 1_555
H7 C6 1_555 1_555
H8 C6 1_555 1_555
C7 N1 1_555 1_555
H9 C7 1_555 1_555
H10 C7 1_555 1_555
C8 C2 1_555 1_555
H11 C8 1_555 1_555
H12 C8 1_555 1_555
C9 C8 1_555 1_555
C10 C9 1_555 1_555
H13 C10 1_555 1_555
H14 C10 1_555 1_555
H15 C10 1_555 1_555
C11 C3 1_555 1_555
C12 C11 1_555 1_555
H16 C12 1_555 1_555
C13 C12 1_555 1_555
H17 C13 1_555 1_555
C14 O4 1_555 1_555
C15 C14 1_555 1_555
H18 C15 1_555 1_555
C16 C11 1_555 1_555
H19 C16 1_555 1_555
O6 S1 1_555 1_555
S1 C17 1_555 1_555
C17 H20 1_555 1_555
H21 C17 1_555 1_555
H22 C17 1_555 1_555
C18 S1 1_555 1_555
H23 C18 1_555 1_555
H24 C18 1_555 1_555
H25 C18 1_555 1_555
C2 C3 1_555 1_555
C3 C4 1_555 1_555
C6 C7 1_555 1_555
C13 C14 1_555 1_555
C15 C16 1_555 1_555

#END
