
#######################################################################
#
#                 Cambridge Crystallographic Data Centre
#                                CCDC 
#
#######################################################################
#
# If this CIF has been generated from an entry in the Cambridge 
# Structural Database, then it will include bibliographic, chemical, 
# crystal, experimental, refinement or atomic coordinate data resulting 
# from the CCDC's data processing and validation procedures.
#
#######################################################################

data_NELFES
_chemical_formula_moiety         'C19 H16 N2 O3 S1,C1 H4 O1'
_chemical_name_systematic        
'3-benzylidene-6-hydroxy-10a-(methylsulfanyl)-2,3,10,10a-tetrahydropyrazino[1,2-a]indole-1,4-dione methanol solvate'
_symmetry_cell_setting           monoclinic
_symmetry_space_group_name_H-M   'P 21'
_symmetry_Int_Tables_number      4
_space_group_name_Hall           'P 2yb'
loop_
_symmetry_equiv_pos_site_id
_symmetry_equiv_pos_as_xyz
1 x,y,z
2 -x,1/2+y,-z
_cell_length_a                   8.2444(4)
_cell_length_b                   9.9359(4)
_cell_length_c                   11.8715(6)
_cell_angle_alpha                90
_cell_angle_beta                 110.077(3)
_cell_angle_gamma                90
_cell_volume                     913.366
_exptl_crystal_colour            colorless
_exptl_crystal_description       prism
_cell_formula_units_Z            2
loop_
_atom_site_label
_atom_site_type_symbol
_atom_site_fract_x
_atom_site_fract_y
_atom_site_fract_z
N1 N 0.4558(3) 0.5353(2) 0.28295(19)
N2 N 0.4700(3) 0.7975(3) 0.3672(2)
O1 O 0.6311(3) 0.4681(2) 0.46678(17)
O2 O 0.2290(3) 0.8477(2) 0.20999(19)
O3 O 0.6048(3) 0.2479(3) 0.3471(2)
H1 H 0.6368 0.3125 0.3923
S1 S 0.52492(8) 0.67971(8) 0.11655(6)
C1 C 0.5627(4) 0.5602(3) 0.3956(2)
C2 C 0.5979(3) 0.7030(3) 0.4297(2)
C3 C 0.3491(3) 0.7707(3) 0.2588(2)
C4 C 0.3743(3) 0.6437(3) 0.1974(2)
C5 C 0.2051(4) 0.5788(3) 0.1157(3)
H2 H 0.1095 0.6011 0.1423
H3 H 0.1776 0.6077 0.0332
C6 C 0.2440(3) 0.4314(3) 0.1285(3)
C7 C 0.3917(4) 0.4078(3) 0.2285(2)
C8 C 0.4561(4) 0.2791(3) 0.2581(3)
C9 C 0.3645(4) 0.1737(4) 0.1867(3)
H4 H 0.4031 0.0858 0.2055
C10 C 0.2184(4) 0.1968(4) 0.0891(3)
H5 H 0.1603 0.1243 0.0433
C11 C 0.1557(4) 0.3262(4) 0.0574(3)
H6 H 0.0576 0.3416 -0.0093
C12 C 0.7448(4) 0.7327(3) 0.5202(2)
H7 H 0.8039 0.6571 0.5597
C13 C 0.8304(3) 0.8593(3) 0.5691(2)
C14 C 0.7811(4) 0.9869(4) 0.5204(3)
H8 H 0.6808 0.9968 0.4542
C15 C 0.8800(4) 1.0992(4) 0.5698(3)
H9 H 0.8458 1.1835 0.5359
C16 C 1.0291(4) 1.0869(4) 0.6689(3)
H10 H 1.0951 1.1624 0.7017
C17 C 1.0781(4) 0.9621(4) 0.7178(3)
H11 H 1.1779 0.9532 0.7846
C18 C 0.9809(4) 0.8495(4) 0.6692(3)
H12 H 1.0164 0.7657 0.7039
C19 C 0.4060(6) 0.8026(4) 0.0080(4)
H13 H 0.3053 0.7612 -0.0480
H14 H 0.4778 0.8372 -0.0341
H15 H 0.3715 0.8751 0.0484
O4 O 0.9639(5) 0.0444(4) 0.2015(4)
H16 H 1.0508 -0.0021 0.2153
C20 C 0.8473(10) -0.0215(8) 0.2361(7)
H17 H 0.9009 -0.0533 0.3168
H18 H 0.8031 -0.0966 0.1837
H19 H 0.7541 0.0382 0.2327
loop_
_geom_bond_atom_site_label_1
_geom_bond_atom_site_label_2
_geom_bond_site_symmetry_1
_geom_bond_site_symmetry_2
N1 C1 1_555 1_555
N2 C2 1_555 1_555
O1 C1 1_555 1_555
O2 C3 1_555 1_555
O3 H1 1_555 1_555
S1 C4 1_555 1_555
C1 C2 1_555 1_555
C2 C12 1_555 1_555
C3 N2 1_555 1_555
C4 N1 1_555 1_555
C5 C4 1_555 1_555
H2 C5 1_555 1_555
H3 C5 1_555 1_555
C6 C5 1_555 1_555
C7 N1 1_555 1_555
C8 O3 1_555 1_555
C9 C8 1_555 1_555
H4 C9 1_555 1_555
C10 C9 1_555 1_555
H5 C10 1_555 1_555
C11 C6 1_555 1_555
H6 C11 1_555 1_555
C12 H7 1_555 1_555
C13 C12 1_555 1_555
C14 C13 1_555 1_555
H8 C14 1_555 1_555
C15 C14 1_555 1_555
H9 C15 1_555 1_555
C16 C15 1_555 1_555
H10 C16 1_555 1_555
C17 C16 1_555 1_555
H11 C17 1_555 1_555
C18 C13 1_555 1_555
H12 C18 1_555 1_555
C19 S1 1_555 1_555
H13 C19 1_555 1_555
H14 C19 1_555 1_555
H15 C19 1_555 1_555
O4 H16 1_555 1_555
C20 O4 1_555 1_555
H17 C20 1_555 1_555
H18 C20 1_555 1_555
H19 C20 1_555 1_555
C3 C4 1_555 1_555
C6 C7 1_555 1_555
C7 C8 1_555 1_555
C10 C11 1_555 1_555
C17 C18 1_555 1_555

#END
