
#######################################################################
#
#                 Cambridge Crystallographic Data Centre
#                                CCDC 
#
#######################################################################
#
# If this CIF has been generated from an entry in the Cambridge 
# Structural Database, then it will include bibliographic, chemical, 
# crystal, experimental, refinement or atomic coordinate data resulting 
# from the CCDC's data processing and validation procedures.
#
#######################################################################

data_NELGAP
_chemical_formula_moiety         'C93 H104 N4 O8,1.5(C1 H1 Cl3)'
_chemical_name_systematic        
"Spiro-5,5'-bi-(2,8-bis(undecan-6-yl)-1H-isoquinolino[4',5',6':4,5,6]aceanthryleno[9,10,1-defg]isoquinoline-1,3,7,9(2H,5H,8H)-tetrone) chloroform solvate"
_symmetry_cell_setting           monoclinic
_symmetry_space_group_name_H-M   'C 2/c'
_symmetry_Int_Tables_number      15
_space_group_name_Hall           '-C 2yn'
loop_
_symmetry_equiv_pos_site_id
_symmetry_equiv_pos_as_xyz
1 x,y,z
2 -x,y,1/2-z
3 1/2+x,1/2+y,z
4 1/2-x,1/2+y,1/2-z
5 -x,-y,-z
6 x,-y,1/2+z
7 1/2-x,1/2-y,-z
8 1/2+x,1/2-y,1/2+z
_cell_length_a                   32.766(7)
_cell_length_b                   19.797(4)
_cell_length_c                   55.404(11)
_cell_angle_alpha                90
_cell_angle_beta                 95.90(4)
_cell_angle_gamma                90
_cell_volume                     35748.5
_exptl_crystal_colour            red
_exptl_crystal_description       block
_cell_formula_units_Z            16
loop_
_atom_site_label
_atom_site_type_symbol
_atom_site_fract_x
_atom_site_fract_y
_atom_site_fract_z
Cl1 Cl 0.12921(8) 0.77970(12) 0.56156(6)
Cl2 Cl 0.07512(8) 0.82383(13) 0.59512(5)
Cl3 Cl 0.16016(9) 0.86757(17) 0.60138(5)
C1 C 0.1191(2) 0.8452(4) 0.58099(16)
H1 H 0.1120 0.8849 0.5709
Cl4 Cl 0.07366(17) 0.4711(3) 0.56269(12)
Cl5 Cl 0.0899(3) 0.5272(5) 0.5166(2)
Cl6 Cl 0.08854(16) 0.6138(2) 0.55141(15)
C2 C 0.0982(5) 0.5292(7) 0.5477(4)
H2 H 0.1277 0.5223 0.5520
Cl7 Cl 0.2733(2) 0.1466(3) 0.77652(14)
Cl8 Cl 0.3433(3) 0.1535(5) 0.7506(2)
Cl9 Cl 0.3565(4) 0.1260(8) 0.7980(3)
C3 C 0.3231(7) 0.1687(9) 0.7766(4)
H3 H 0.3255 0.2172 0.7800
N1 N 0.6353(2) 0.9647(3) 0.88281(12)
N2 N 0.7571(2) 0.4430(3) 0.92671(11)
N3 N 0.6325(3) 0.5677(5) 0.76811(15)
N4 N 0.4675(2) 0.5489(4) 0.93499(13)
O1 O 0.69197(17) 1.0168(2) 0.90321(9)
O2 O 0.5814(2) 0.9095(3) 0.86381(15)
O3 O 0.8134(2) 0.4801(3) 0.95043(11)
O4 O 0.69811(17) 0.4077(2) 0.90420(9)
O5 O 0.6801(2) 0.6287(4) 0.79085(12)
O6 O 0.5808(3) 0.5085(5) 0.74432(13)
O7 O 0.41161(18) 0.4920(3) 0.91646(13)
O8 O 0.52305(18) 0.6072(3) 0.95256(12)
C4 C 0.55685(19) 0.5811(3) 0.86908(11)
C5 C 0.57765(18) 0.6177(3) 0.88777(11)
C6 C 0.6650(2) 0.7200(3) 0.89789(10)
C7 C 0.68676(19) 0.7769(3) 0.90622(10)
C8 C 0.6695(2) 0.8383(3) 0.89857(12)
C9 C 0.57795(19) 0.5817(3) 0.84828(11)
C10 C 0.65494(18) 0.6069(3) 0.89276(10)
C11 C 0.71809(19) 0.6448(3) 0.91745(10)
C12 C 0.6805(2) 0.6544(3) 0.90322(10)
C13 C 0.5234(2) 0.5851(3) 0.91124(12)
C14 C 0.55989(19) 0.6209(3) 0.90957(11)
H4 H 0.5719 0.6460 0.9226
C15 C 0.6290(2) 0.7178(3) 0.88358(11)
C16 C 0.6324(2) 0.8392(3) 0.88391(12)
C17 C 0.6906(2) 0.8983(3) 0.90615(12)
C18 C 0.7909(2) 0.6175(4) 0.94434(12)
H5 H 0.8155 0.6089 0.9537
C19 C 0.74118(19) 0.7009(3) 0.92667(10)
C20 C 0.6110(2) 0.7803(3) 0.87536(12)
H6 H 0.5868 0.7823 0.8650
C21 C 0.7305(2) 0.5776(3) 0.92061(10)
C22 C 0.6742(3) 0.9643(4) 0.89771(14)
C23 C 0.52219(19) 0.5439(3) 0.86998(12)
C24 C 0.7261(2) 0.7705(3) 0.92076(10)
C25 C 0.50344(19) 0.5475(3) 0.89110(13)
C26 C 0.61815(18) 0.6426(3) 0.87892(10)
C27 C 0.5628(2) 0.5489(3) 0.82696(11)
C28 C 0.6136(2) 0.6192(3) 0.85190(11)
C29 C 0.6675(2) 0.5386(3) 0.89602(11)
H7 H 0.6514 0.5037 0.8890
C30 C 0.7042(2) 0.5248(3) 0.90994(11)
C31 C 0.6220(2) 0.5945(4) 0.81031(13)
C32 C 0.7677(2) 0.5636(3) 0.93423(11)
C33 C 0.5053(2) 0.5047(3) 0.84896(12)
C34 C 0.7276(2) 0.8924(4) 0.92030(12)
H8 H 0.7413 0.9317 0.9255
C35 C 0.7776(2) 0.6849(3) 0.94060(11)
H9 H 0.7938 0.7197 0.9477
C36 C 0.5057(3) 0.5830(4) 0.93442(18)
C37 C 0.5267(2) 0.5087(3) 0.82672(12)
C38 C 0.4717(2) 0.4668(4) 0.85201(15)
H10 H 0.4615 0.4371 0.8398
C39 C 0.7186(2) 0.4556(4) 0.91319(13)
C40 C 0.6138(3) 0.9053(4) 0.87594(16)
C41 C 0.7812(3) 0.4944(4) 0.93783(15)
C42 C 0.7455(2) 0.8301(3) 0.92722(10)
H11 H 0.7710 0.8292 0.9363
C43 C 0.4521(2) 0.4719(4) 0.87320(17)
H12 H 0.4282 0.4472 0.8741
C44 C 0.6365(2) 0.6248(3) 0.83224(12)
H13 H 0.6612 0.6483 0.8337
C45 C 0.4458(3) 0.5169(5) 0.9150(2)
C46 C 0.5851(2) 0.5559(3) 0.80737(11)
C47 C 0.4664(2) 0.5118(4) 0.89295(15)
C48 C 0.5152(2) 0.4767(4) 0.80450(15)
H14 H 0.4920 0.4493 0.8032
C49 C 0.6464(4) 0.5987(6) 0.78893(16)
C50 C 0.5363(3) 0.4837(5) 0.78496(15)
H15 H 0.5269 0.4613 0.7707
C51 C 0.5726(3) 0.5244(4) 0.78541(13)
C52 C 0.5936(4) 0.5313(6) 0.76440(19)
C53 C 0.6187(3) 1.0289(4) 0.8770(2)
H16 H 0.5944 1.0138 0.8666
C54 C 0.5970(4) 1.0626(6) 0.8958(3)
H17 H 0.6146 1.0993 0.9020
H18 H 0.5727 1.0833 0.8873
C55 C 0.5835(3) 1.0290(5) 0.9167(2)
H19 H 0.6078 1.0113 0.9259
H20 H 0.5673 0.9904 0.9107
C56 C 0.5596(4) 1.0647(7) 0.9340(3)
H21 H 0.5327 1.0737 0.9256
H22 H 0.5726 1.1081 0.9373
C57 C 0.5530(7) 1.0339(11) 0.9580(4)
H23 H 0.5796 1.0236 0.9665
H24 H 0.5386 0.9914 0.9550
C58 C 0.5293(5) 1.0767(14) 0.9744(4)
H25 H 0.5469 1.1115 0.9817
H26 H 0.5199 1.0488 0.9869
H27 H 0.5062 1.0970 0.9651
C59 C 0.6374(5) 1.0684(7) 0.8588(3)
H28 H 0.6602 1.0934 0.8671
H29 H 0.6173 1.1013 0.8522
C60 C 0.6526(5) 1.0315(6) 0.8383(3)
H30 H 0.6660 0.9900 0.8441
H31 H 0.6299 1.0199 0.8264
C61 C 0.6808(6) 1.0730(8) 0.8274(4)
H32 H 0.7007 1.0888 0.8403
H33 H 0.6657 1.1124 0.8211
C62 C 0.7042(5) 1.0484(7) 0.8080(3)
H34 H 0.6870 1.0481 0.7927
H35 H 0.7139 1.0028 0.8115
C63 C 0.7397(5) 1.0955(7) 0.8068(3)
H36 H 0.7299 1.1413 0.8060
H37 H 0.7531 1.0856 0.7927
H38 H 0.7587 1.0898 0.8211
C64 C 0.7706(3) 0.3725(5) 0.92967(19)
H39 H 0.7967 0.3747 0.9400
C65 C 0.7811(4) 0.3452(6) 0.9061(2)
H40 H 0.7935 0.3012 0.9093
H41 H 0.7556 0.3380 0.8960
C66 C 0.8079(4) 0.3833(6) 0.8922(2)
H42 H 0.8336 0.3908 0.9022
H43 H 0.7956 0.4272 0.8886
C67 C 0.8172(5) 0.3516(8) 0.8688(3)
H44 H 0.8300 0.3083 0.8728
H45 H 0.7911 0.3423 0.8595
C68 C 0.8435(7) 0.3877(12) 0.8524(3)
H46 H 0.8695 0.3995 0.8614
H47 H 0.8300 0.4291 0.8466
C69 C 0.8514(9) 0.3429(14) 0.8305(4)
H48 H 0.8697 0.3069 0.8358
H49 H 0.8635 0.3698 0.8187
H50 H 0.8259 0.3244 0.8233
C70 C 0.7440(4) 0.3267(5) 0.9429(3)
H51 H 0.7208 0.3137 0.9315
H52 H 0.7595 0.2860 0.9471
C71 C 0.7277(5) 0.3513(6) 0.9650(3)
H53 H 0.7137 0.3938 0.9614
H54 H 0.7505 0.3602 0.9771
C72 C 0.6989(7) 0.3047(11) 0.9755(4)
H55 H 0.7140 0.2645 0.9811
H56 H 0.6782 0.2909 0.9627
C73 C 0.6774(7) 0.3326(12) 0.9964(5)
H57 H 0.6852 0.3791 0.9999
H58 H 0.6478 0.3299 0.9930
C74 C 0.6929(8) 0.2865(17) 1.0168(5)
H59 H 0.6841 0.2411 1.0130
H60 H 0.6821 0.3007 1.0315
H61 H 0.7223 0.2881 1.0190
C75 C 0.6551(6) 0.5651(10) 0.7465(2)
H62 H 0.6360 0.5402 0.7350
C76 C 0.6913(6) 0.5182(11) 0.7496(3)
H63 H 0.7018 0.5155 0.7339
H64 H 0.7121 0.5409 0.7603
C77 C 0.6893(6) 0.4479(11) 0.7585(3)
H65 H 0.6661 0.4270 0.7490
H66 H 0.6819 0.4511 0.7750
C78 C 0.7240(7) 0.3976(11) 0.7593(3)
H67 H 0.7465 0.4133 0.7707
H68 H 0.7339 0.3955 0.7434
C79 C 0.7115(10) 0.3270(13) 0.7666(4)
H69 H 0.6917 0.3086 0.7541
H70 H 0.6985 0.3296 0.7815
C80 C 0.7492(10) 0.2792(13) 0.7703(4)
H71 H 0.7600 0.2719 0.7551
H72 H 0.7411 0.2368 0.7767
H73 H 0.7700 0.2994 0.7815
C81 C 0.6557(7) 0.6321(13) 0.7351(3)
H74 H 0.6580 0.6236 0.7180
H75 H 0.6814 0.6527 0.7415
C82 C 0.6244(8) 0.6854(11) 0.7357(3)
H76 H 0.5992 0.6620 0.7384
H77 H 0.6323 0.7108 0.7504
C83 C 0.6122(10) 0.7365(14) 0.7170(5)
H78 H 0.5974 0.7142 0.7032
H79 H 0.6368 0.7560 0.7115
C84 C 0.5856(11) 0.7934(16) 0.7253(5)
H80 H 0.6004 0.8176 0.7387
H81 H 0.5608 0.7748 0.7309
C85 C 0.5745(14) 0.8421(18) 0.7038(6)
H82 H 0.5903 0.8827 0.7062
H83 H 0.5458 0.8529 0.7028
H84 H 0.5803 0.8208 0.6889
C86 C 0.4507(3) 0.5372(6) 0.95838(19)
H85 H 0.4237 0.5201 0.9518
C87 C 0.4370(4) 0.5962(6) 0.9690(2)
H86 H 0.4591 0.6095 0.9811
H87 H 0.4145 0.5823 0.9780
C88 C 0.4234(4) 0.6581(6) 0.9567(2)
H88 H 0.3986 0.6482 0.9462
H89 H 0.4442 0.6714 0.9463
C89 C 0.4150(6) 0.7167(8) 0.9719(3)
H90 H 0.3988 0.6997 0.9843
H91 H 0.4413 0.7301 0.9803
C90 C 0.3954(6) 0.7775(8) 0.9629(3)
H92 H 0.3712 0.7636 0.9526
H93 H 0.4137 0.7980 0.9524
C91 C 0.3820(6) 0.8332(8) 0.9786(3)
H94 H 0.3705 0.8142 0.9924
H95 H 0.3616 0.8603 0.9695
H96 H 0.4051 0.8609 0.9841
C92 C 0.4659(4) 0.4748(6) 0.97072(17)
H97 H 0.4911 0.4869 0.9805
H98 H 0.4463 0.4634 0.9820
C93 C 0.4744(4) 0.4122(7) 0.9582(3)
H99 H 0.4905 0.4235 0.9451
H100 H 0.4485 0.3941 0.9510
C94 C 0.4974(6) 0.3548(8) 0.9737(3)
H101 H 0.5216 0.3733 0.9828
H102 H 0.4796 0.3370 0.9851
C95 C 0.5102(7) 0.2965(9) 0.9572(4)
H103 H 0.4852 0.2754 0.9499
H104 H 0.5234 0.3169 0.9441
C96 C 0.5373(9) 0.2420(13) 0.9676(5)
H105 H 0.5487 0.2545 0.9836
H106 H 0.5590 0.2349 0.9575
H107 H 0.5217 0.2011 0.9684
N5 N 0.4642(2) 0.2126(4) 0.37943(17)
N6 N 0.2631(2) 0.6563(3) 0.32749(11)
N7 N 0.1482(3) 0.2112(4) 0.34956(13)
N8 N 0.3108(2) 0.5441(3) 0.49244(10)
O9 O 0.5106(2) 0.2369(4) 0.35447(14)
O10 O 0.4155(2) 0.1862(3) 0.40618(15)
O11 O 0.3034(2) 0.6924(3) 0.29881(10)
O12 O 0.22428(18) 0.6188(3) 0.35655(9)
O13 O 0.2056(3) 0.2300(3) 0.32883(10)
O14 O 0.0924(3) 0.1949(5) 0.36999(14)
O15 O 0.35480(18) 0.5629(3) 0.46423(9)
O16 O 0.26299(17) 0.5296(3) 0.51916(9)
C97 C 0.26726(18) 0.4523(3) 0.46047(10)
C98 C 0.30441(19) 0.4810(3) 0.45335(10)
C99 C 0.32050(18) 0.4638(3) 0.43229(10)
H108 H 0.3449 0.4827 0.4283
C100 C 0.2987(2) 0.4162(3) 0.41669(10)
C101 C 0.24589(18) 0.4058(3) 0.44484(9)
C102 C 0.2432(2) 0.3484(3) 0.40604(10)
C103 C 0.3005(2) 0.4498(3) 0.37246(10)
C104 C 0.20690(19) 0.3780(3) 0.44907(10)
C105 C 0.2636(2) 0.3906(3) 0.42400(10)
C106 C 0.3318(2) 0.4457(3) 0.35848(10)
C107 C 0.3440(2) 0.3557(3) 0.38467(11)
C108 C 0.2651(2) 0.3437(3) 0.38616(11)
C109 C 0.4009(2) 0.4170(4) 0.33372(11)
C110 C 0.3403(2) 0.4891(3) 0.34031(10)
C111 C 0.3036(2) 0.3905(3) 0.39098(11)
C112 C 0.3763(2) 0.4743(4) 0.32768(11)
C113 C 0.3919(2) 0.3766(3) 0.35395(12)
C114 C 0.3253(2) 0.5316(4) 0.46996(12)
C115 C 0.1856(2) 0.3323(3) 0.42988(11)
C116 C 0.1924(2) 0.3980(3) 0.47063(11)
H109 H 0.1674 0.3812 0.4745
C117 C 0.3141(2) 0.5430(3) 0.33597(10)
C118 C 0.3574(2) 0.3906(3) 0.36590(11)
C119 C 0.2060(2) 0.3200(3) 0.40895(11)
C120 C 0.25061(19) 0.4693(3) 0.48155(10)
C121 C 0.2731(2) 0.5039(3) 0.36812(10)
H110 H 0.2506 0.5084 0.3769
C122 C 0.2742(2) 0.5154(4) 0.49938(14)
C123 C 0.2469(3) 0.3051(3) 0.36618(12)
H111 H 0.2599 0.3000 0.3521
C124 C 0.2138(2) 0.4422(3) 0.48660(11)
H112 H 0.2031 0.4538 0.5010
C125 C 0.1870(3) 0.2827(4) 0.38912(12)
C126 C 0.3665(3) 0.3004(4) 0.39298(13)
H113 H 0.3579 0.2746 0.4055
C127 C 0.2097(3) 0.2759(4) 0.36831(12)
C128 C 0.2805(2) 0.5516(3) 0.35004(10)
C129 C 0.3228(3) 0.5910(4) 0.31817(11)
C130 C 0.4155(2) 0.3214(4) 0.36284(13)
C131 C 0.4369(3) 0.3954(4) 0.32331(14)
H114 H 0.4447 0.4187 0.3099
C132 C 0.3820(3) 0.5234(4) 0.30953(13)
H115 H 0.4032 0.5176 0.2998
C133 C 0.4023(2) 0.2823(4) 0.38268(14)
C134 C 0.1891(4) 0.2388(5) 0.34647(18)
C135 C 0.4602(3) 0.3423(5) 0.33214(16)
H116 H 0.4833 0.3307 0.3246
C136 C 0.4509(3) 0.3045(4) 0.35213(15)
C137 C 0.1287(3) 0.2656(5) 0.41187(14)
H117 H 0.1026 0.2482 0.4130
C138 C 0.3571(3) 0.5791(5) 0.30593(12)
H118 H 0.3637 0.6108 0.2946
C139 C 0.1478(3) 0.3036(4) 0.43082(13)
H119 H 0.1345 0.3098 0.4447
C140 C 0.2542(3) 0.6088(4) 0.34559(12)
C141 C 0.2967(3) 0.6498(4) 0.31357(13)
C142 C 0.1491(3) 0.2531(4) 0.39047(14)
C143 C 0.1284(5) 0.2172(6) 0.37020(18)
C144 C 0.4272(3) 0.2247(5) 0.3910(2)
C145 C 0.4779(3) 0.2486(5) 0.36229(18)
C146 C 0.4883(4) 0.1485(7) 0.3890(3)
H120 H 0.5128 0.1532 0.3804
C147 C 0.4737(5) 0.0821(8) 0.3797(4)
H121 H 0.4939 0.0483 0.3854
H122 H 0.4485 0.0714 0.3867
C148 C 0.4660(6) 0.0765(9) 0.3539(4)
H123 H 0.4919 0.0791 0.3468
H124 H 0.4492 0.1143 0.3477
C149 C 0.4441(9) 0.0093(12) 0.3458(5)
H125 H 0.4537 -0.0261 0.3571
H126 H 0.4148 0.0146 0.3467
C150 C 0.4510(10) -0.0126(15) 0.3203(6)
H127 H 0.4793 -0.0269 0.3200
H128 H 0.4461 0.0252 0.3093
C151 C 0.4219(12) -0.0715(13) 0.3119(6)
H129 H 0.3981 -0.0700 0.3206
H130 H 0.4359 -0.1137 0.3151
H131 H 0.4138 -0.0674 0.2949
C152 C 0.5072(6) 0.1512(9) 0.4137(4)
H132 H 0.5297 0.1191 0.4153
H133 H 0.4872 0.1357 0.4242
C153 C 0.5230(5) 0.2156(9) 0.4230(3)
H134 H 0.5002 0.2433 0.4270
H135 H 0.5360 0.2386 0.4104
C154 C 0.5540(6) 0.2093(10) 0.4455(4)
H136 H 0.5726 0.1722 0.4434
H137 H 0.5699 0.2505 0.4477
C155 C 0.5312(8) 0.1965(12) 0.4677(5)
H138 H 0.5200 0.1512 0.4664
H139 H 0.5082 0.2275 0.4670
C156 C 0.5552(6) 0.2033(14) 0.4930(5)
H140 H 0.5699 0.1621 0.4970
H141 H 0.5364 0.2118 0.5048
H142 H 0.5743 0.2400 0.4929
C157 C 0.2359(4) 0.7183(5) 0.32323(18)
H143 H 0.2474 0.7409 0.3097
C158 C 0.2439(5) 0.7666(6) 0.3430(3)
H144 H 0.2322 0.7483 0.3570
H145 H 0.2287 0.8075 0.3383
C159 C 0.2882(5) 0.7875(6) 0.3513(2)
H146 H 0.3026 0.7477 0.3579
H147 H 0.3010 0.8010 0.3370
C160 C 0.2951(6) 0.8433(6) 0.3699(2)
H148 H 0.2849 0.8291 0.3849
H149 H 0.2799 0.8831 0.3641
C161 C 0.3404(7) 0.8607(11) 0.3746(3)
H150 H 0.3507 0.8699 0.3592
H151 H 0.3548 0.8212 0.3815
C162 C 0.3516(7) 0.9207(10) 0.3915(4)
H152 H 0.3501 0.9617 0.3822
H153 H 0.3790 0.9148 0.3992
H154 H 0.3327 0.9230 0.4036
C163 C 0.1949(5) 0.6940(8) 0.3119(3)
H155 H 0.1781 0.7332 0.3073
H156 H 0.1817 0.6697 0.3241
C164 C 0.1950(5) 0.6480(8) 0.2894(3)
H157 H 0.2092 0.6721 0.2776
H158 H 0.2114 0.6086 0.2943
C165 C 0.1561(7) 0.6237(12) 0.2769(4)
H159 H 0.1408 0.6630 0.2707
H160 H 0.1407 0.6035 0.2891
C166 C 0.1561(8) 0.5729(12) 0.2560(4)
H161 H 0.1755 0.5370 0.2606
H162 H 0.1648 0.5955 0.2418
C167 C 0.1128(11) 0.5422(18) 0.2495(7)
H163 H 0.1026 0.5249 0.2639
H164 H 0.1143 0.5063 0.2380
H165 H 0.0945 0.5766 0.2425
C168 C 0.1253(5) 0.1765(6) 0.32694(19)
H166 H 0.1448 0.1727 0.3148
C169 C 0.0887(5) 0.2167(8) 0.3154(2)
H167 H 0.0767 0.1924 0.3012
H168 H 0.0682 0.2192 0.3268
C170 C 0.0988(6) 0.2869(9) 0.3079(3)
H169 H 0.1210 0.2856 0.2976
H170 H 0.1078 0.3135 0.3222
C171 C 0.0604(7) 0.3200(11) 0.2941(4)
H171 H 0.0518 0.2935 0.2797
H172 H 0.0382 0.3201 0.3044
C172 C 0.0693(8) 0.3925(11) 0.2866(5)
H173 H 0.0786 0.4183 0.3010
H174 H 0.0914 0.3919 0.2762
C173 C 0.0330(10) 0.4272(18) 0.2736(6)
H175 H 0.0323 0.4187 0.2565
H176 H 0.0351 0.4749 0.2765
H177 H 0.0084 0.4103 0.2794
C174 C 0.1132(6) 0.1067(7) 0.3331(2)
H178 H 0.1006 0.0845 0.3186
H179 H 0.0932 0.1084 0.3448
C175 C 0.1503(6) 0.0666(6) 0.3434(2)
H180 H 0.1612 0.0883 0.3584
H181 H 0.1407 0.0222 0.3477
C176 C 0.1851(7) 0.0566(9) 0.3284(3)
H182 H 0.1965 0.1004 0.3249
H183 H 0.1747 0.0363 0.3130
C177 C 0.2187(7) 0.0127(10) 0.3405(3)
H184 H 0.2069 -0.0300 0.3448
H185 H 0.2300 0.0344 0.3554
C178 C 0.2531(7) -0.0012(10) 0.3250(3)
H186 H 0.2465 -0.0403 0.3151
H187 H 0.2781 -0.0092 0.3353
H188 H 0.2566 0.0370 0.3147
C179 C 0.3308(3) 0.5941(6) 0.50788(19)
H189 H 0.3549 0.5994 0.4990
C180 C 0.3521(6) 0.5660(10) 0.5295(3)
H190 H 0.3315 0.5571 0.5406
H191 H 0.3697 0.6014 0.5369
C181 C 0.3778(5) 0.5038(11) 0.5291(3)
H192 H 0.3620 0.4679 0.5207
H193 H 0.4014 0.5128 0.5204
C182 C 0.3913(7) 0.4827(12) 0.5533(3)
H194 H 0.3702 0.4962 0.5634
H195 H 0.4155 0.5093 0.5586
C183 C 0.4013(9) 0.4138(16) 0.5593(5)
H196 H 0.4167 0.3943 0.5470
H197 H 0.3763 0.3879 0.5599
C184 C 0.4272(6) 0.4109(10) 0.5845(4)
H198 H 0.4488 0.4438 0.5850
H199 H 0.4389 0.3667 0.5870
H200 H 0.4099 0.4204 0.5971
C185 C 0.3129(5) 0.6658(7) 0.5026(3)
H201 H 0.3163 0.6767 0.4859
H202 H 0.2837 0.6639 0.5040
C186 C 0.3306(5) 0.7234(7) 0.5182(2)
H203 H 0.3602 0.7191 0.5199
H204 H 0.3217 0.7179 0.5343
C187 C 0.3197(6) 0.7951(8) 0.5096(3)
H205 H 0.3329 0.8041 0.4950
H206 H 0.2903 0.7978 0.5052
C188 C 0.3323(6) 0.8497(10) 0.5283(4)
H207 H 0.3119 0.8531 0.5397
H208 H 0.3584 0.8377 0.5372
C189 C 0.3361(9) 0.9139(12) 0.5163(5)
H209 H 0.3495 0.9073 0.5019
H210 H 0.3521 0.9442 0.5270
H211 H 0.3093 0.9327 0.5121
loop_
_geom_bond_atom_site_label_1
_geom_bond_atom_site_label_2
_geom_bond_site_symmetry_1
_geom_bond_site_symmetry_2
Cl1 C1 1_555 1_555
Cl2 C1 1_555 1_555
Cl3 C1 1_555 1_555
C1 H1 1_555 1_555
Cl4 C2 1_555 1_555
Cl5 C2 1_555 1_555
Cl6 C2 1_555 1_555
C2 H2 1_555 1_555
Cl7 C3 1_555 1_555
Cl8 C3 1_555 1_555
Cl9 C3 1_555 1_555
C3 H3 1_555 1_555
N1 C22 1_555 1_555
N2 C39 1_555 1_555
N3 C49 1_555 1_555
N4 C36 1_555 1_555
O1 C22 1_555 1_555
O2 C40 1_555 1_555
O3 C41 1_555 1_555
O4 C39 1_555 1_555
O5 C49 1_555 1_555
O6 C52 1_555 1_555
O7 C45 1_555 1_555
O8 C36 1_555 1_555
C4 C5 1_555 1_555
C5 C14 1_555 1_555
C6 C7 1_555 1_555
C7 C8 1_555 1_555
C8 C16 1_555 1_555
C9 C4 1_555 1_555
C10 C12 1_555 1_555
C11 C12 1_555 1_555
C12 C6 1_555 1_555
C13 C14 1_555 1_555
C14 H4 1_555 1_555
C15 C6 1_555 1_555
C16 C20 1_555 1_555
C17 C8 1_555 1_555
C18 H5 1_555 1_555
C19 C11 1_555 1_555
C20 C15 1_555 1_555
H6 C20 1_555 1_555
C21 C11 1_555 1_555
C22 C17 1_555 1_555
C23 C4 1_555 1_555
C24 C7 1_555 1_555
C25 C13 1_555 1_555
C26 C5 1_555 1_555
C27 C9 1_555 1_555
C28 C9 1_555 1_555
C29 C10 1_555 1_555
H7 C29 1_555 1_555
C30 C21 1_555 1_555
C31 C44 1_555 1_555
C32 C18 1_555 1_555
C33 C23 1_555 1_555
C34 C17 1_555 1_555
H8 C34 1_555 1_555
C35 C18 1_555 1_555
H9 C35 1_555 1_555
C36 C13 1_555 1_555
C37 C27 1_555 1_555
C38 C33 1_555 1_555
H10 C38 1_555 1_555
C39 C30 1_555 1_555
C40 N1 1_555 1_555
C41 N2 1_555 1_555
C42 C24 1_555 1_555
H11 C42 1_555 1_555
C43 C38 1_555 1_555
H12 C43 1_555 1_555
C44 C28 1_555 1_555
H13 C44 1_555 1_555
C45 N4 1_555 1_555
C46 C27 1_555 1_555
C47 C25 1_555 1_555
C48 C37 1_555 1_555
H14 C48 1_555 1_555
C49 C31 1_555 1_555
C50 C48 1_555 1_555
H15 C50 1_555 1_555
C51 C46 1_555 1_555
C52 N3 1_555 1_555
C53 N1 1_555 1_555
H16 C53 1_555 1_555
C54 C53 1_555 1_555
H17 C54 1_555 1_555
H18 C54 1_555 1_555
C55 C54 1_555 1_555
H19 C55 1_555 1_555
H20 C55 1_555 1_555
C56 C55 1_555 1_555
H21 C56 1_555 1_555
H22 C56 1_555 1_555
C57 C56 1_555 1_555
H23 C57 1_555 1_555
H24 C57 1_555 1_555
C58 C57 1_555 1_555
H25 C58 1_555 1_555
H26 C58 1_555 1_555
H27 C58 1_555 1_555
C59 C53 1_555 1_555
H28 C59 1_555 1_555
H29 C59 1_555 1_555
C60 C59 1_555 1_555
H30 C60 1_555 1_555
H31 C60 1_555 1_555
C61 C60 1_555 1_555
H32 C61 1_555 1_555
H33 C61 1_555 1_555
C62 C61 1_555 1_555
H34 C62 1_555 1_555
H35 C62 1_555 1_555
C63 C62 1_555 1_555
H36 C63 1_555 1_555
H37 C63 1_555 1_555
H38 C63 1_555 1_555
C64 N2 1_555 1_555
H39 C64 1_555 1_555
C65 C64 1_555 1_555
H40 C65 1_555 1_555
H41 C65 1_555 1_555
C66 C65 1_555 1_555
H42 C66 1_555 1_555
H43 C66 1_555 1_555
C67 C66 1_555 1_555
H44 C67 1_555 1_555
H45 C67 1_555 1_555
C68 C67 1_555 1_555
H46 C68 1_555 1_555
H47 C68 1_555 1_555
C69 C68 1_555 1_555
H48 C69 1_555 1_555
H49 C69 1_555 1_555
H50 C69 1_555 1_555
C70 C64 1_555 1_555
H51 C70 1_555 1_555
H52 C70 1_555 1_555
C71 C70 1_555 1_555
H53 C71 1_555 1_555
H54 C71 1_555 1_555
C72 C71 1_555 1_555
H55 C72 1_555 1_555
H56 C72 1_555 1_555
C73 C72 1_555 1_555
H57 C73 1_555 1_555
H58 C73 1_555 1_555
C74 C73 1_555 1_555
H59 C74 1_555 1_555
H60 C74 1_555 1_555
H61 C74 1_555 1_555
C75 N3 1_555 1_555
H62 C75 1_555 1_555
C76 C75 1_555 1_555
H63 C76 1_555 1_555
H64 C76 1_555 1_555
C77 C76 1_555 1_555
H65 C77 1_555 1_555
H66 C77 1_555 1_555
C78 C77 1_555 1_555
H67 C78 1_555 1_555
H68 C78 1_555 1_555
C79 C78 1_555 1_555
H69 C79 1_555 1_555
H70 C79 1_555 1_555
C80 C79 1_555 1_555
H71 C80 1_555 1_555
H72 C80 1_555 1_555
H73 C80 1_555 1_555
C81 C75 1_555 1_555
H74 C81 1_555 1_555
H75 C81 1_555 1_555
C82 C81 1_555 1_555
H76 C82 1_555 1_555
H77 C82 1_555 1_555
C83 C82 1_555 1_555
H78 C83 1_555 1_555
H79 C83 1_555 1_555
C84 C83 1_555 1_555
H80 C84 1_555 1_555
H81 C84 1_555 1_555
C85 C84 1_555 1_555
H82 C85 1_555 1_555
H83 C85 1_555 1_555
H84 C85 1_555 1_555
C86 N4 1_555 1_555
H85 C86 1_555 1_555
C87 C86 1_555 1_555
H86 C87 1_555 1_555
H87 C87 1_555 1_555
C88 C87 1_555 1_555
H88 C88 1_555 1_555
H89 C88 1_555 1_555
C89 C88 1_555 1_555
H90 C89 1_555 1_555
H91 C89 1_555 1_555
C90 C89 1_555 1_555
H92 C90 1_555 1_555
H93 C90 1_555 1_555
C91 C90 1_555 1_555
H94 C91 1_555 1_555
H95 C91 1_555 1_555
H96 C91 1_555 1_555
C92 C86 1_555 1_555
H97 C92 1_555 1_555
H98 C92 1_555 1_555
C93 C92 1_555 1_555
H99 C93 1_555 1_555
H100 C93 1_555 1_555
C94 C93 1_555 1_555
H101 C94 1_555 1_555
H102 C94 1_555 1_555
C95 C94 1_555 1_555
H103 C95 1_555 1_555
H104 C95 1_555 1_555
C96 C95 1_555 1_555
H105 C96 1_555 1_555
H106 C96 1_555 1_555
H107 C96 1_555 1_555
N5 C144 1_555 1_555
N6 C140 1_555 1_555
N7 C134 1_555 1_555
N8 C114 1_555 1_555
O9 C145 1_555 1_555
O10 C144 1_555 1_555
O11 C141 1_555 1_555
O12 C140 1_555 1_555
O13 C134 1_555 1_555
O14 C143 1_555 1_555
O15 C114 1_555 1_555
O16 C122 1_555 1_555
C97 C98 1_555 1_555
C98 C99 1_555 1_555
C99 H108 1_555 1_555
C100 C99 1_555 1_555
C101 C97 1_555 1_555
C102 C105 1_555 1_555
C103 C106 1_555 1_555
C104 C101 1_555 1_555
C105 C100 1_555 1_555
C106 C110 1_555 1_555
C107 C111 1_555 1_555
C108 C102 1_555 1_555
C109 C112 1_555 1_555
C110 C112 1_555 1_555
C111 C100 1_555 1_555
C112 C132 1_555 1_555
C113 C109 1_555 1_555
C114 C98 1_555 1_555
C115 C104 1_555 1_555
C116 C104 1_555 1_555
H109 C116 1_555 1_555
C117 C110 1_555 1_555
C118 C106 1_555 1_555
C119 C102 1_555 1_555
C120 C97 1_555 1_555
C121 C103 1_555 1_555
H110 C121 1_555 1_555
C122 N8 1_555 1_555
C123 C108 1_555 1_555
H111 C123 1_555 1_555
C124 C116 1_555 1_555
H112 C124 1_555 1_555
C125 C119 1_555 1_555
C126 C107 1_555 1_555
H113 C126 1_555 1_555
C127 C123 1_555 1_555
C128 C117 1_555 1_555
C129 C117 1_555 1_555
C130 C113 1_555 1_555
C131 C109 1_555 1_555
H114 C131 1_555 1_555
C132 H115 1_555 1_555
C133 C126 1_555 1_555
C134 C127 1_555 1_555
C135 C131 1_555 1_555
H116 C135 1_555 1_555
C136 C130 1_555 1_555
C137 H117 1_555 1_555
C138 C129 1_555 1_555
H118 C138 1_555 1_555
C139 C115 1_555 1_555
H119 C139 1_555 1_555
C140 C128 1_555 1_555
C141 N6 1_555 1_555
C142 C125 1_555 1_555
C143 N7 1_555 1_555
C144 C133 1_555 1_555
C145 N5 1_555 1_555
C146 N5 1_555 1_555
H120 C146 1_555 1_555
C147 C146 1_555 1_555
H121 C147 1_555 1_555
H122 C147 1_555 1_555
C148 C147 1_555 1_555
H123 C148 1_555 1_555
H124 C148 1_555 1_555
C149 C148 1_555 1_555
H125 C149 1_555 1_555
H126 C149 1_555 1_555
C150 C149 1_555 1_555
H127 C150 1_555 1_555
H128 C150 1_555 1_555
C151 C150 1_555 1_555
H129 C151 1_555 1_555
H130 C151 1_555 1_555
H131 C151 1_555 1_555
C152 C146 1_555 1_555
H132 C152 1_555 1_555
H133 C152 1_555 1_555
C153 C152 1_555 1_555
H134 C153 1_555 1_555
H135 C153 1_555 1_555
C154 C153 1_555 1_555
H136 C154 1_555 1_555
H137 C154 1_555 1_555
C155 C154 1_555 1_555
H138 C155 1_555 1_555
H139 C155 1_555 1_555
C156 C155 1_555 1_555
H140 C156 1_555 1_555
H141 C156 1_555 1_555
H142 C156 1_555 1_555
C157 N6 1_555 1_555
H143 C157 1_555 1_555
C158 C157 1_555 1_555
H144 C158 1_555 1_555
H145 C158 1_555 1_555
C159 C158 1_555 1_555
H146 C159 1_555 1_555
H147 C159 1_555 1_555
C160 C159 1_555 1_555
H148 C160 1_555 1_555
H149 C160 1_555 1_555
C161 C160 1_555 1_555
H150 C161 1_555 1_555
H151 C161 1_555 1_555
C162 C161 1_555 1_555
H152 C162 1_555 1_555
H153 C162 1_555 1_555
H154 C162 1_555 1_555
C163 C157 1_555 1_555
H155 C163 1_555 1_555
H156 C163 1_555 1_555
C164 C163 1_555 1_555
H157 C164 1_555 1_555
H158 C164 1_555 1_555
C165 C164 1_555 1_555
H159 C165 1_555 1_555
H160 C165 1_555 1_555
C166 C165 1_555 1_555
H161 C166 1_555 1_555
H162 C166 1_555 1_555
C167 C166 1_555 1_555
H163 C167 1_555 1_555
H164 C167 1_555 1_555
H165 C167 1_555 1_555
C168 N7 1_555 1_555
H166 C168 1_555 1_555
C169 C168 1_555 1_555
H167 C169 1_555 1_555
H168 C169 1_555 1_555
C170 C169 1_555 1_555
H169 C170 1_555 1_555
H170 C170 1_555 1_555
C171 C170 1_555 1_555
H171 C171 1_555 1_555
H172 C171 1_555 1_555
C172 C171 1_555 1_555
H173 C172 1_555 1_555
H174 C172 1_555 1_555
C173 C172 1_555 1_555
H175 C173 1_555 1_555
H176 C173 1_555 1_555
H177 C173 1_555 1_555
C174 C168 1_555 1_555
H178 C174 1_555 1_555
H179 C174 1_555 1_555
C175 C174 1_555 1_555
H180 C175 1_555 1_555
H181 C175 1_555 1_555
C176 C175 1_555 1_555
H182 C176 1_555 1_555
H183 C176 1_555 1_555
C177 C176 1_555 1_555
H184 C177 1_555 1_555
H185 C177 1_555 1_555
C178 C177 1_555 1_555
H186 C178 1_555 1_555
H187 C178 1_555 1_555
H188 C178 1_555 1_555
C179 N8 1_555 1_555
H189 C179 1_555 1_555
C180 C179 1_555 1_555
H190 C180 1_555 1_555
H191 C180 1_555 1_555
C181 C180 1_555 1_555
H192 C181 1_555 1_555
H193 C181 1_555 1_555
C182 C181 1_555 1_555
H194 C182 1_555 1_555
H195 C182 1_555 1_555
C183 C182 1_555 1_555
H196 C183 1_555 1_555
H197 C183 1_555 1_555
C184 C183 1_555 1_555
H198 C184 1_555 1_555
H199 C184 1_555 1_555
H200 C184 1_555 1_555
C185 C179 1_555 1_555
H201 C185 1_555 1_555
H202 C185 1_555 1_555
C186 C185 1_555 1_555
H203 C186 1_555 1_555
H204 C186 1_555 1_555
C187 C186 1_555 1_555
H205 C187 1_555 1_555
H206 C187 1_555 1_555
C188 C187 1_555 1_555
H207 C188 1_555 1_555
H208 C188 1_555 1_555
C189 C188 1_555 1_555
H209 C189 1_555 1_555
H210 C189 1_555 1_555
H211 C189 1_555 1_555
C10 C26 1_555 1_555
C15 C26 1_555 1_555
C16 C40 1_555 1_555
C19 C24 1_555 1_555
C19 C35 1_555 1_555
C21 C32 1_555 1_555
C23 C25 1_555 1_555
C26 C28 1_555 1_555
C29 C30 1_555 1_555
C31 C46 1_555 1_555
C32 C41 1_555 1_555
C33 C37 1_555 1_555
C34 C42 1_555 1_555
C43 C47 1_555 1_555
C45 C47 1_555 1_555
C50 C51 1_555 1_555
C51 C52 1_555 1_555
C101 C105 1_555 1_555
C103 C111 1_555 1_555
C107 C118 1_555 1_555
C108 C111 1_555 1_555
C113 C118 1_555 1_555
C115 C119 1_555 1_555
C120 C122 1_555 1_555
C120 C124 1_555 1_555
C121 C128 1_555 1_555
C125 C127 1_555 1_555
C129 C141 1_555 1_555
C130 C133 1_555 1_555
C132 C138 1_555 1_555
C135 C136 1_555 1_555
C136 C145 1_555 1_555
C137 C139 1_555 1_555
C137 C142 1_555 1_555
C142 C143 1_555 1_555

#END
